1,2
q = -1.0

 28 31  0  0  0  0  0  0  0  0999 V2000
   -1.0461   -1.2873    0.0008 N   0  0  0  0  0  2  0  0  0  0  0  0
   -1.0070    1.3330    0.0003 C   0  0  0  0  0  3  0  0  0  0  0  0
   -0.9645    2.7340    0.0000 C   0  0  0  0  0  0  0  0  0  0  0  0
    0.0067    3.2520    0.0002 H   0  0  0  0  0  0  0  0  0  0  0  0
   -2.1677    3.4741   -0.0005 C   0  0  0  0  0  0  0  0  0  0  0  0
   -2.1202    4.5748   -0.0007 H   0  0  0  0  0  0  0  0  0  0  0  0
   -3.4235    2.8533   -0.0007 C   0  0  0  0  0  0  0  0  0  0  0  0
   -4.3279    3.4772   -0.0011 H   0  0  0  0  0  0  0  0  0  0  0  0
   -3.5193    1.4407   -0.0004 C   0  0  0  0  0  0  0  0  0  0  0  0
   -4.7766    0.6814   -0.0006 C   0  0  0  0  0  0  0  0  0  0  0  0
   -6.0330    1.3385   -0.0011 C   0  0  0  0  0  3  0  0  0  0  0  0
   -6.0627    2.4367   -0.0013 H   0  0  0  0  0  0  0  0  0  0  0  0
   -7.2324    0.6298   -0.0013 C   0  0  0  0  0  0  0  0  0  0  0  0
   -8.1899    1.1723   -0.0017 H   0  0  0  0  0  0  0  0  0  0  0  0
   -7.2160   -0.7794   -0.0010 C   0  0  0  0  0  0  0  0  0  0  0  0
   -8.1586   -1.3468   -0.0011 H   0  0  0  0  0  0  0  0  0  0  0  0
   -5.9968   -1.4533   -0.0005 C   0  0  0  0  0  0  0  0  0  0  0  0
   -5.9980   -2.5525   -0.0002 H   0  0  0  0  0  0  0  0  0  0  0  0
   -4.7628   -0.7565   -0.0003 C   0  0  0  0  0  0  0  0  0  0  0  0
   -3.4870   -1.4810    0.0002 C   0  0  0  0  0  0  0  0  0  0  0  0
   -3.3390   -2.8875    0.0006 C   0  0  0  0  0  0  0  0  0  0  0  0
   -4.2206   -3.5435    0.0006 H   0  0  0  0  0  0  0  0  0  0  0  0
   -2.0606   -3.4548    0.0011 C   0  0  0  0  0  0  0  0  0  0  0  0
   -1.9274   -4.5455    0.0014 H   0  0  0  0  0  0  0  0  0  0  0  0
   -0.9266   -2.6280    0.0012 C   0  0  0  0  0  0  0  0  0  0  0  0
    0.1036   -3.0145    0.0015 H   0  0  0  0  0  0  0  0  0  0  0  0
   -2.2971   -0.7119    0.0004 C   0  0  0  0  0  0  0  0  0  0  0  0
   -2.2971    0.7182    0.0001 C   0  0  0  0  0  0  0  0  0  0  0  0
  1 25  1  0  0  0  0
  3  4  1  0  0  0  0
  3  2  2  0  0  0  0
  5  3  1  0  0  0  0
  6  5  1  0  0  0  0
  7  5  2  0  0  0  0
  7  9  1  0  0  0  0
  8  7  1  0  0  0  0
  9 28  1  0  0  0  0
 10  9  2  0  0  0  0
 10 19  1  0  0  0  0
 11 10  1  0  0  0  0
 12 11  1  0  0  0  0
 13 11  1  0  0  0  0
 13 15  2  0  0  0  0
 14 13  1  0  0  0  0
 15 17  1  0  0  0  0
 16 15  1  0  0  0  0
 17 19  2  0  0  0  0
 17 18  1  0  0  0  0
 19 20  1  0  0  0  0
 20 27  1  0  0  0  0
 20 21  2  0  0  0  0
 21 23  1  0  0  0  0
 22 21  1  0  0  0  0
 23 25  2  0  0  0  0
 23 24  1  0  0  0  0
 25 26  1  0  0  0  0
 27  1  1  0  0  0  0
 28  2  1  0  0  0  0
 28 27  2  0  0  0  0
M  END
