18,22
q = -1.0, confidence = 0.012

 31 34  0  0  1  0  0  0  0  0999 V2000
   -2.2954    1.3835   -2.9002 S   0  0  0  0  0  0  0  0  0  0  0  0
    0.6609   -0.2417   -4.3923 S   0  0  0  0  0  0  0  0  0  0  0  0
   -8.6363    5.6146   -0.6154 N   0  0  0  0  0  0  0  0  0  0  0  0
   -7.6835    4.9383   -0.7393 C   0  0  0  0  0  0  0  0  0  0  0  0
   -6.5230    4.1134   -0.8895 C   0  0  0  0  0  0  0  0  0  0  0  0
   -6.1289    3.2333    0.1477 C   0  0  0  0  0  0  0  0  0  0  0  0
   -6.7254    3.1835    1.0697 H   0  0  0  0  0  0  0  0  0  0  0  0
   -5.0011    2.4284   -0.0025 C   0  0  0  0  0  0  0  0  0  0  0  0
   -4.7271    1.7345    0.8046 H   0  0  0  0  0  0  0  0  0  0  0  0
   -4.2187    2.4726   -1.1856 C   0  0  0  0  0  0  0  0  0  0  0  0
   -4.6245    3.3589   -2.2155 C   0  0  0  0  0  0  0  0  0  0  0  0
   -4.0284    3.4261   -3.1385 H   0  0  0  0  0  0  0  0  0  0  0  0
   -5.7545    4.1635   -2.0773 C   0  0  0  0  0  0  0  0  0  0  0  0
   -6.0515    4.8461   -2.8860 H   0  0  0  0  0  0  0  0  0  0  0  0
   -3.0367    1.6260   -1.3216 C   0  0  0  0  0  0  0  0  0  0  0  0
   -2.3619    0.9152   -0.3242 C   0  0  0  0  0  0  0  0  0  0  0  0
   -2.6655    0.9503    0.7307 H   0  0  0  0  0  0  0  0  0  0  0  0
   -1.2503    0.1656   -0.7939 C   0  0  0  0  0  3  0  0  0  0  0  0
   -1.0966    0.3381   -2.1919 C   0  0  0  0  0  0  0  0  0  0  0  0
    0.0287   -0.3108   -2.7634 C   0  0  2  0  0  3  0  0  0  0  0  0
    1.9470   -1.5134   -2.4951 C   0  0  0  0  0  0  0  0  0  0  0  0
    0.7880   -1.0333   -1.9079 N   0  0  0  0  0  2  0  0  0  0  0  0
    2.9875   -2.2231   -1.8608 C   0  0  0  0  0  0  0  0  0  0  0  0
    2.9090   -2.4349   -0.7856 H   0  0  0  0  0  0  0  0  0  0  0  0
    4.0906   -2.6155   -2.6261 C   0  0  0  0  0  0  0  0  0  0  0  0
    4.9112   -3.1660   -2.1423 H   0  0  0  0  0  0  0  0  0  0  0  0
    4.1740   -2.3161   -4.0034 C   0  0  0  0  0  0  0  0  0  0  0  0
    5.0513   -2.6404   -4.5821 H   0  0  0  0  0  0  0  0  0  0  0  0
    3.1555   -1.5964   -4.6446 C   0  0  0  0  0  0  0  0  0  0  0  0
    3.2243   -1.3480   -5.7135 H   0  0  0  0  0  0  0  0  0  0  0  0
    2.0528   -1.1916   -3.8799 C   0  0  0  0  0  0  0  0  0  0  0  0
  1 19  1  0  0  0  0
  1 15  1  0  0  0  0
  2 31  1  0  0  0  0
  2 20  1  0  0  0  0
  4  3  3  0  0  0  0
  5  4  1  0  0  0  0
  5  6  1  0  0  0  0
  6  7  1  0  0  0  0
  8  6  2  0  0  0  0
  8  9  1  0  0  0  0
 10  8  1  0  0  0  0
 11 13  1  0  0  0  0
 11 10  2  0  0  0  0
 12 11  1  0  0  0  0
 13  5  2  0  0  0  0
 14 13  1  0  0  0  0
 15 10  1  0  0  0  0
 15 16  2  0  0  0  0
 16 17  1  0  0  0  0
 18 16  1  0  0  0  0
 19 18  2  0  0  0  0
 20 19  1  1  0  0  0
 20 22  1  0  0  0  0
 21 22  1  0  0  0  0
 21 23  1  0  0  0  0
 23 24  1  0  0  0  0
 25 26  1  0  0  0  0
 25 23  2  0  0  0  0
 27 25  1  0  0  0  0
 28 27  1  0  0  0  0
 29 27  2  0  0  0  0
 29 31  1  0  0  0  0
 30 29  1  0  0  0  0
 31 21  2  0  0  0  0
M  END
