1,20
q = -1.0

 28 30  0  0  1  0  0  0  0  0999 V2000
   -2.0257    0.0610    0.0171 N   0  0  0  0  0  2  0  0  0  0  0  0
   -3.0384    0.7111    0.6626 N   0  0  0  0  0  0  0  0  0  0  0  0
   -6.5202   -0.5344   -1.4676 O   0  0  0  0  0  0  0  0  0  0  0  0
   -3.8915   -0.7305   -0.8276 O   0  0  0  0  0  0  0  0  0  0  0  0
   -3.3582   -2.9066   -2.8417 O   0  0  0  0  0  0  0  0  0  0  0  0
   -3.9142   -2.5220   -2.1386 H   0  0  0  0  0  0  0  0  0  0  0  0
   -6.6335    0.1647   -0.3132 C   0  0  0  0  0  0  0  0  0  0  0  0
   -7.9372    0.5181    0.0912 C   0  0  0  0  0  0  0  0  0  0  0  0
   -8.7729    0.1934   -0.5449 H   0  0  0  0  0  0  0  0  0  0  0  0
   -8.1475    1.2638    1.2527 C   0  0  0  0  0  0  0  0  0  0  0  0
   -9.1749    1.5271    1.5462 H   0  0  0  0  0  0  0  0  0  0  0  0
   -7.0575    1.6820    2.0425 C   0  0  0  0  0  0  0  0  0  0  0  0
   -7.2236    2.2721    2.9550 H   0  0  0  0  0  0  0  0  0  0  0  0
   -5.7633    1.3346    1.6622 C   0  0  0  0  0  0  0  0  0  0  0  0
   -4.8924    1.6382    2.2608 H   0  0  0  0  0  0  0  0  0  0  0  0
   -5.5259    0.5679    0.4921 C   0  0  0  0  0  0  0  0  0  0  0  0
   -4.1538    0.2387    0.1622 C   0  0  0  0  0  0  0  0  0  0  0  0
   -2.5304   -0.7954   -0.8705 C   0  0  1  0  0  3  0  0  0  0  0  0
   -1.6627   -1.5890   -1.6724 C   0  0  0  0  0  0  0  0  0  0  0  0
   -0.2820   -1.2593   -1.4082 C   0  0  0  0  0  3  0  0  0  0  0  0
    0.6794   -1.9383   -2.1774 C   0  0  0  0  0  0  0  0  0  0  0  0
    1.7487   -1.7224   -2.0376 H   0  0  0  0  0  0  0  0  0  0  0  0
    0.2877   -2.8843   -3.1427 C   0  0  0  0  0  0  0  0  0  0  0  0
    1.0604   -3.3981   -3.7367 H   0  0  0  0  0  0  0  0  0  0  0  0
   -1.0598   -3.2102   -3.3710 C   0  0  0  0  0  0  0  0  0  0  0  0
   -1.3561   -3.9658   -4.1115 H   0  0  0  0  0  0  0  0  0  0  0  0
   -2.0572   -2.5673   -2.6241 C   0  0  0  0  0  0  0  0  0  0  0  0
   -5.5749   -0.6670   -1.6778 H   0  0  0  0  0  0  0  0  0  0  0  0
  1  2  1  0  0  0  0
  3  7  1  0  0  0  0
  4 17  1  0  0  0  0
  5 27  1  0  0  0  0
  5  6  1  0  0  0  0
  7  8  2  0  0  0  0
  7 16  1  0  0  0  0
  8 10  1  0  0  0  0
  9  8  1  0  0  0  0
 10 11  1  0  0  0  0
 10 12  2  0  0  0  0
 12 13  1  0  0  0  0
 14 12  1  0  0  0  0
 14 15  1  0  0  0  0
 16 14  2  0  0  0  0
 17 16  1  0  0  0  0
 17  2  2  0  0  0  0
 18 19  1  6  0  0  0
 18  4  1  0  0  0  0
 18  1  1  0  0  0  0
 19 20  1  0  0  0  0
 21 22  1  0  0  0  0
 21 20  2  0  0  0  0
 23 21  1  0  0  0  0
 24 23  1  0  0  0  0
 25 23  2  0  0  0  0
 25 27  1  0  0  0  0
 26 25  1  0  0  0  0
 27 19  2  0  0  0  0
 28  3  1  0  0  0  0
M  END
