1,2
q = -1.0, confidence = 0.0

 33 33  0  0  0  0  0  0  0  0999 V2000
    0.4512    0.9060   -1.9257 N   0  0  0  0  0  2  0  0  0  0  0  0
   -0.9337   -0.7478   -0.0696 C   0  0  0  0  0  3  0  0  0  0  0  0
   -0.9851   -2.2370    0.0788 C   0  0  0  0  0  0  0  0  0  0  0  0
   -0.6403   -2.8405    1.0854 O   0  0  0  0  0  0  0  0  0  0  0  0
   -1.3897   -2.8436   -1.0584 O   0  0  0  0  0  0  0  0  0  0  0  0
   -1.2538   -4.2672   -1.0638 C   0  0  0  0  0  0  0  0  0  0  0  0
   -1.6503   -4.6098   -2.0364 H   0  0  0  0  0  0  0  0  0  0  0  0
   -1.8209   -4.7257   -0.2283 H   0  0  0  0  0  0  0  0  0  0  0  0
   -0.1842   -4.5432   -0.9664 H   0  0  0  0  0  0  0  0  0  0  0  0
   -2.0794    0.0060   -0.0472 C   0  0  0  0  0  0  0  0  0  0  0  0
   -3.4446   -0.6072    0.0298 C   0  0  0  0  0  0  0  0  0  0  0  0
   -4.4665   -0.0877   -0.3938 O   0  0  0  0  0  0  0  0  0  0  0  0
   -3.4437   -1.8229    0.6393 O   0  0  0  0  0  0  0  0  0  0  0  0
   -4.6763   -2.5402    0.5913 C   0  0  0  0  0  0  0  0  0  0  0  0
   -4.5186   -3.4581    1.1857 H   0  0  0  0  0  0  0  0  0  0  0  0
   -4.9393   -2.8015   -0.4547 H   0  0  0  0  0  0  0  0  0  0  0  0
   -5.5042   -1.9368    1.0151 H   0  0  0  0  0  0  0  0  0  0  0  0
   -2.1148    1.4920   -0.0967 C   0  0  0  0  0  0  0  0  0  0  0  0
   -2.9606    2.1636    0.8172 C   0  0  0  0  0  0  0  0  0  0  0  0
   -3.5228    1.5634    1.5471 H   0  0  0  0  0  0  0  0  0  0  0  0
   -3.1141    3.5541    0.8144 C   0  0  0  0  0  0  0  0  0  0  0  0
   -3.7761    4.0318    1.5524 H   0  0  0  0  0  0  0  0  0  0  0  0
   -2.4472    4.3303   -0.1468 C   0  0  0  0  0  0  0  0  0  0  0  0
   -2.5786    5.4219   -0.1793 H   0  0  0  0  0  0  0  0  0  0  0  0
   -1.6244    3.6909   -1.0771 C   0  0  0  0  0  0  0  0  0  0  0  0
   -1.1083    4.2843   -1.8488 H   0  0  0  0  0  0  0  0  0  0  0  0
   -1.4150    2.2895   -1.0444 C   0  0  0  0  0  0  0  0  0  0  0  0
   -0.4847    1.7937   -2.0621 C   0  0  0  0  0  3  0  0  0  0  0  0
   -0.5296    2.3242   -3.0368 H   0  0  0  0  0  0  0  0  0  0  0  0
    1.3222    0.6590   -3.0708 C   0  0  0  0  0  0  0  0  0  0  0  0
    0.9863    1.2217   -3.9663 H   0  0  0  0  0  0  0  0  0  0  0  0
    1.3535   -0.4326   -3.2604 H   0  0  0  0  0  0  0  0  0  0  0  0
    2.3561    0.9578   -2.8018 H   0  0  0  0  0  0  0  0  0  0  0  0
  2 10  2  0  0  0  0
  2  3  1  0  0  0  0
  3  4  2  0  0  0  0
  5  3  1  0  0  0  0
  6  5  1  0  0  0  0
  6  9  1  0  0  0  0
  6  8  1  0  0  0  0
  7  6  1  0  0  0  0
 10 11  1  0  0  0  0
 11 13  1  0  0  0  0
 12 11  2  0  0  0  0
 14 13  1  0  0  0  0
 14 17  1  0  0  0  0
 14 15  1  0  0  0  0
 16 14  1  0  0  0  0
 18 10  1  0  0  0  0
 18 19  1  0  0  0  0
 19 20  1  0  0  0  0
 21 19  2  0  0  0  0
 21 22  1  0  0  0  0
 23 21  1  0  0  0  0
 24 23  1  0  0  0  0
 25 27  1  0  0  0  0
 25 23  2  0  0  0  0
 26 25  1  0  0  0  0
 27 18  2  0  0  0  0
 28  1  1  0  0  0  0
 28 27  1  0  0  0  0
 29 28  1  0  0  0  0
 30 33  1  0  0  0  0
 30  1  1  0  0  0  0
 31 30  1  0  0  0  0
 32 30  1  0  0  0  0
M  END
