1,2
q = -1.0, confidence = 0.0

 38 40  0  0  0  0  0  0  0  0999 V2000
   -0.9256   -0.6058    1.3832 N   0  0  0  0  0  2  0  0  0  0  0  0
    1.0455    0.9372    0.1026 C   0  0  0  0  0  2  0  0  0  0  0  0
    2.4873    1.1965    0.3773 C   0  0  0  0  0  0  0  0  0  0  0  0
    3.3744    1.0329   -0.4506 O   0  0  0  0  0  0  0  0  0  0  0  0
    2.7129    1.5831    1.6523 O   0  0  0  0  0  0  0  0  0  0  0  0
    4.0914    1.6644    2.0236 C   0  0  0  0  0  0  0  0  0  0  0  0
    4.1067    2.0240    3.0681 H   0  0  0  0  0  0  0  0  0  0  0  0
    4.6421    2.3638    1.3622 H   0  0  0  0  0  0  0  0  0  0  0  0
    4.5612    0.6622    1.9565 H   0  0  0  0  0  0  0  0  0  0  0  0
    0.1287    1.9348   -0.0441 C   0  0  0  0  0  0  0  0  0  0  0  0
    0.4687    3.3696    0.2318 C   0  0  0  0  0  0  0  0  0  0  0  0
   -0.3189    4.1970    0.6628 O   0  0  0  0  0  0  0  0  0  0  0  0
    1.7676    3.6646   -0.0462 O   0  0  0  0  0  0  0  0  0  0  0  0
    2.2141    4.9497    0.3866 C   0  0  0  0  0  0  0  0  0  0  0  0
    3.2453    5.0602    0.0056 H   0  0  0  0  0  0  0  0  0  0  0  0
    2.2075    5.0133    1.4946 H   0  0  0  0  0  0  0  0  0  0  0  0
    1.5609    5.7524   -0.0105 H   0  0  0  0  0  0  0  0  0  0  0  0
   -1.2671    1.7645   -0.5431 C   0  0  0  0  0  0  0  0  0  0  0  0
   -1.5804    2.6040   -1.6300 C   0  0  0  0  0  0  0  0  0  0  0  0
   -0.7752    3.2278   -2.0458 H   0  0  0  0  0  0  0  0  0  0  0  0
   -2.8662    2.6932   -2.1876 C   0  0  0  0  0  0  0  0  0  0  0  0
   -3.0498    3.3493   -3.0513 H   0  0  0  0  0  0  0  0  0  0  0  0
   -3.9045    1.9903   -1.5934 C   0  0  0  0  0  0  0  0  0  0  0  0
   -4.9399    2.0973   -1.9507 H   0  0  0  0  0  0  0  0  0  0  0  0
   -3.6540    1.1486   -0.4810 C   0  0  0  0  0  0  0  0  0  0  0  0
   -2.3078    0.9401    0.0059 C   0  0  0  0  0  0  0  0  0  0  0  0
   -2.1414   -0.0391    1.0787 C   0  0  0  0  0  0  0  0  0  0  0  0
   -3.3027   -0.4709    1.8157 C   0  0  0  0  0  0  0  0  0  0  0  0
   -3.1313   -1.2612    2.9778 C   0  0  0  0  0  0  0  0  0  0  0  0
   -4.0209   -1.5665    3.5506 H   0  0  0  0  0  0  0  0  0  0  0  0
   -1.8556   -1.6432    3.3625 C   0  0  0  0  0  0  0  0  0  0  0  0
   -1.6686   -2.2322    4.2712 H   0  0  0  0  0  0  0  0  0  0  0  0
   -0.7862   -1.3346    2.5052 C   0  0  0  0  0  0  0  0  0  0  0  0
    0.2370   -1.7070    2.6891 H   0  0  0  0  0  0  0  0  0  0  0  0
   -4.6199   -0.1531    1.3451 C   0  0  0  0  0  0  0  0  0  0  0  0
   -5.4844   -0.5334    1.9099 H   0  0  0  0  0  0  0  0  0  0  0  0
   -4.7811    0.5657    0.1937 C   0  0  0  0  0  0  0  0  0  0  0  0
   -5.7854    0.7668   -0.2088 H   0  0  0  0  0  0  0  0  0  0  0  0
  1 33  1  0  0  0  0
  2  3  1  0  0  0  0
  3  5  1  0  0  0  0
  4  3  2  0  0  0  0
  5  6  1  0  0  0  0
  6  7  1  0  0  0  0
  8  6  1  0  0  0  0
  9  6  1  0  0  0  0
 10  2  1  0  0  0  0
 10 11  1  0  0  0  0
 11 12  2  0  0  0  0
 13 11  1  0  0  0  0
 13 14  1  0  0  0  0
 14 16  1  0  0  0  0
 15 14  1  0  0  0  0
 17 14  1  0  0  0  0
 18 10  2  0  0  0  0
 18 26  1  0  0  0  0
 19 18  1  0  0  0  0
 20 19  1  0  0  0  0
 21 19  2  0  0  0  0
 21 23  1  0  0  0  0
 22 21  1  0  0  0  0
 23 25  2  0  0  0  0
 24 23  1  0  0  0  0
 25 26  1  0  0  0  0
 25 37  1  0  0  0  0
 26 27  2  0  0  0  0
 27  1  1  0  0  0  0
 27 28  1  0  0  0  0
 28 29  2  0  0  0  0
 29 31  1  0  0  0  0
 29 30  1  0  0  0  0
 31 32  1  0  0  0  0
 33 34  1  0  0  0  0
 33 31  2  0  0  0  0
 35 28  1  0  0  0  0
 35 36  1  0  0  0  0
 37 35  2  0  0  0  0
 38 37  1  0  0  0  0
M  END
