4,18
q = -1.0

 35 37  0  0  0  0  0  0  0  0999 V2000
    3.6300    6.1192   -0.0407 Cl  0  0  0  0  0  0  0  0  0  0  0  0
    5.7874    3.8032   -0.0790 Cl  0  0  0  0  0  0  0  0  0  0  0  0
   -1.0779    2.7448    0.0422 O   0  0  0  0  0  0  0  0  0  0  0  0
    0.2411    0.8008    0.0265 N   0  0  0  0  0  2  0  0  0  0  0  0
    2.0548   -0.7120    0.0146 N   0  0  0  0  0  0  0  0  0  0  0  0
    1.2618   -2.9122    0.0615 N   0  0  0  0  0  0  0  0  0  0  0  0
    0.3838   -3.4695    0.0064 H   0  0  0  0  0  0  0  0  0  0  0  0
    0.0084    2.1875    0.0265 C   0  0  0  0  0  0  0  0  0  0  0  0
    1.3767    2.8228    0.0040 C   0  0  0  0  0  0  0  0  0  0  0  0
    1.7500    4.1608   -0.0045 C   0  0  0  0  0  0  0  0  0  0  0  0
    1.0044    4.9681    0.0078 H   0  0  0  0  0  0  0  0  0  0  0  0
    3.1303    4.4607   -0.0296 C   0  0  0  0  0  0  0  0  0  0  0  0
    4.0976    3.4222   -0.0462 C   0  0  0  0  0  0  0  0  0  0  0  0
    3.7030    2.0672   -0.0371 C   0  0  0  0  0  0  0  0  0  0  0  0
    4.4573    1.2689   -0.0524 H   0  0  0  0  0  0  0  0  0  0  0  0
    2.3377    1.7902   -0.0106 C   0  0  0  0  0  0  0  0  0  0  0  0
    1.5869    0.5248    0.0086 C   0  0  0  0  0  0  0  0  0  0  0  0
    1.0133   -1.6045    0.0450 C   0  0  0  0  0  2  0  0  0  0  0  0
    2.5047   -3.6106    0.0215 C   0  0  0  0  0  0  0  0  0  0  0  0
    2.6758   -4.5322   -1.0432 C   0  0  0  0  0  0  0  0  0  0  0  0
    1.6063   -4.6869   -2.0938 C   0  0  0  0  0  0  0  0  0  0  0  0
    0.6305   -4.9973   -1.6624 H   0  0  0  0  0  0  0  0  0  0  0  0
    1.8962   -5.4420   -2.8482 H   0  0  0  0  0  0  0  0  0  0  0  0
    1.4162   -3.7271   -2.6184 H   0  0  0  0  0  0  0  0  0  0  0  0
    3.8732   -5.2650   -1.0984 C   0  0  0  0  0  0  0  0  0  0  0  0
    4.0262   -5.9770   -1.9241 H   0  0  0  0  0  0  0  0  0  0  0  0
    4.8648   -5.0913   -0.1227 C   0  0  0  0  0  0  0  0  0  0  0  0
    5.7982   -5.6717   -0.1779 H   0  0  0  0  0  0  0  0  0  0  0  0
    4.6632   -4.1906    0.9301 C   0  0  0  0  0  0  0  0  0  0  0  0
    5.4334   -4.0735    1.7082 H   0  0  0  0  0  0  0  0  0  0  0  0
    3.4787   -3.4349    1.0343 C   0  0  0  0  0  0  0  0  0  0  0  0
    3.2617   -2.5082    2.1989 C   0  0  0  0  0  0  0  0  0  0  0  0
    3.4288   -1.4551    1.8934 H   0  0  0  0  0  0  0  0  0  0  0  0
    3.9478   -2.7530    3.0317 H   0  0  0  0  0  0  0  0  0  0  0  0
    2.2191   -2.5617    2.5727 H   0  0  0  0  0  0  0  0  0  0  0  0
  1 12  1  0  0  0  0
  2 13  1  0  0  0  0
  4  8  1  0  0  0  0
  5 18  1  0  0  0  0
  7  6  1  0  0  0  0
  8  3  2  0  0  0  0
  9  8  1  0  0  0  0
 10  9  1  0  0  0  0
 10 11  1  0  0  0  0
 12 10  2  0  0  0  0
 13 14  2  0  0  0  0
 13 12  1  0  0  0  0
 14 16  1  0  0  0  0
 15 14  1  0  0  0  0
 16  9  2  0  0  0  0
 16 17  1  0  0  0  0
 17  5  2  0  0  0  0
 17  4  1  0  0  0  0
 18  6  1  0  0  0  0
 19  6  1  0  0  0  0
 19 31  1  0  0  0  0
 20 19  2  0  0  0  0
 21 22  1  0  0  0  0
 21 20  1  0  0  0  0
 23 21  1  0  0  0  0
 24 21  1  0  0  0  0
 25 20  1  0  0  0  0
 25 27  2  0  0  0  0
 26 25  1  0  0  0  0
 27 29  1  0  0  0  0
 28 27  1  0  0  0  0
 29 31  2  0  0  0  0
 29 30  1  0  0  0  0
 31 32  1  0  0  0  0
 32 35  1  0  0  0  0
 32 34  1  0  0  0  0
 33 32  1  0  0  0  0
M  END
