2,17
q = -1.0

 35 37  0  0  0  0  0  0  0  0999 V2000
    2.6733    1.8065   -0.4940 O   0  0  0  0  0  0  0  0  0  0  0  0
    0.4338    1.1336   -0.2743 N   0  0  0  0  0  2  0  0  0  0  0  0
   -1.9059    1.1188    0.0287 N   0  0  0  0  0  0  0  0  0  0  0  0
   -2.7203   -1.0591   -0.0357 N   0  0  0  0  0  0  0  0  0  0  0  0
    1.4864    2.0578   -0.3293 C   0  0  0  0  0  0  0  0  0  0  0  0
    0.8546    3.4167   -0.1389 C   0  0  0  0  0  0  0  0  0  0  0  0
    1.4221    4.6879   -0.1072 C   0  0  0  0  0  0  0  0  0  0  0  0
    2.5069    4.8199   -0.2345 H   0  0  0  0  0  0  0  0  0  0  0  0
    0.5566    5.7848    0.0921 C   0  0  0  0  0  0  0  0  0  0  0  0
    0.9691    6.8048    0.1224 H   0  0  0  0  0  0  0  0  0  0  0  0
   -0.8287    5.5967    0.2533 C   0  0  0  0  0  0  0  0  0  0  0  0
   -1.4776    6.4721    0.4070 H   0  0  0  0  0  0  0  0  0  0  0  0
   -1.3975    4.3068    0.2209 C   0  0  0  0  0  0  0  0  0  0  0  0
   -2.4784    4.1483    0.3457 H   0  0  0  0  0  0  0  0  0  0  0  0
   -0.5341    3.2275    0.0226 C   0  0  0  0  0  0  0  0  0  0  0  0
   -0.7623    1.7731   -0.0673 C   0  0  0  0  0  0  0  0  0  0  0  0
   -1.6948   -0.2295   -0.1079 C   0  0  0  0  0  2  0  0  0  0  0  0
   -4.1221   -0.7162    0.1856 C   0  0  0  0  0  0  0  0  0  0  0  0
   -4.1554    0.3903    0.2617 H   0  0  0  0  0  0  0  0  0  0  0  0
   -4.6238   -1.3319    1.5030 C   0  0  0  0  0  0  0  0  0  0  0  0
   -4.0039   -0.9569    2.3431 H   0  0  0  0  0  0  0  0  0  0  0  0
   -4.4736   -2.4346    1.4619 H   0  0  0  0  0  0  0  0  0  0  0  0
   -6.1088   -1.0214    1.7303 C   0  0  0  0  0  0  0  0  0  0  0  0
   -6.4551   -1.5000    2.6697 H   0  0  0  0  0  0  0  0  0  0  0  0
   -6.2326    0.0753    1.8748 H   0  0  0  0  0  0  0  0  0  0  0  0
   -6.9680   -1.4743    0.5427 C   0  0  0  0  0  0  0  0  0  0  0  0
   -6.9311   -2.5844    0.4670 H   0  0  0  0  0  0  0  0  0  0  0  0
   -8.0321   -1.2076    0.7111 H   0  0  0  0  0  0  0  0  0  0  0  0
   -6.4648   -0.8625   -0.7712 C   0  0  0  0  0  0  0  0  0  0  0  0
   -6.6048    0.2413   -0.7385 H   0  0  0  0  0  0  0  0  0  0  0  0
   -7.0669   -1.2271   -1.6291 H   0  0  0  0  0  0  0  0  0  0  0  0
   -4.9808   -1.1723   -1.0061 C   0  0  0  0  0  0  0  0  0  0  0  0
   -4.8448   -2.2688   -1.1455 H   0  0  0  0  0  0  0  0  0  0  0  0
   -4.6126   -0.6854   -1.9324 H   0  0  0  0  0  0  0  0  0  0  0  0
   -2.4433   -2.0574   -0.1521 H   0  0  0  0  0  0  0  0  0  0  0  0
  1  5  2  0  0  0  0
  2 16  1  0  0  0  0
  4 18  1  0  0  0  0
  5  2  1  0  0  0  0
  5  6  1  0  0  0  0
  6  7  2  0  0  0  0
  6 15  1  0  0  0  0
  7  9  1  0  0  0  0
  8  7  1  0  0  0  0
  9 10  1  0  0  0  0
  9 11  2  0  0  0  0
 11 12  1  0  0  0  0
 13 11  1  0  0  0  0
 13 14  1  0  0  0  0
 15 13  2  0  0  0  0
 16 15  1  0  0  0  0
 16  3  2  0  0  0  0
 17  4  1  0  0  0  0
 17  3  1  0  0  0  0
 18 19  1  0  0  0  0
 18 20  1  0  0  0  0
 20 23  1  0  0  0  0
 20 21  1  0  0  0  0
 22 20  1  0  0  0  0
 23 25  1  0  0  0  0
 23 24  1  0  0  0  0
 26 28  1  0  0  0  0
 26 23  1  0  0  0  0
 27 26  1  0  0  0  0
 29 30  1  0  0  0  0
 29 26  1  0  0  0  0
 31 29  1  0  0  0  0
 32 29  1  0  0  0  0
 32 18  1  0  0  0  0
 33 32  1  0  0  0  0
 34 32  1  0  0  0  0
 35  4  1  0  0  0  0
M  END
