2,8
q = -1.0

 30 32  0  0  0  0  0  0  0  0999 V2000
    2.4629    0.6134   -1.3879 N   0  0  0  0  0  0  0  0  0  0  0  0
    0.4670    0.3577   -0.7401 N   0  0  0  0  0  2  0  0  0  0  0  0
    1.4811   -0.2928   -1.2520 N   0  0  0  0  0  2  0  0  0  0  0  0
    2.0790    1.8523   -0.9487 C   0  0  0  0  0  0  0  0  0  0  0  0
    2.7490    2.7158   -0.9733 H   0  0  0  0  0  0  0  0  0  0  0  0
    0.7624    1.6886   -0.5269 C   0  0  0  0  0  0  0  0  0  0  0  0
    4.6940   -0.1434   -0.6322 C   0  0  0  0  0  0  0  0  0  0  0  0
   -1.5121    1.7103    0.2528 C   0  0  0  0  0  3  0  0  0  0  0  0
    5.8713    0.5931   -0.4122 C   0  0  0  0  0  0  0  0  0  0  0  0
    6.1472    1.4006   -1.1094 H   0  0  0  0  0  0  0  0  0  0  0  0
   -0.2656    3.8512    0.3136 C   0  0  0  0  0  0  0  0  0  0  0  0
    0.6651    4.4134    0.1342 H   0  0  0  0  0  0  0  0  0  0  0  0
    4.3488   -1.1744    0.2652 C   0  0  0  0  0  0  0  0  0  0  0  0
    3.4255   -1.7510    0.0971 H   0  0  0  0  0  0  0  0  0  0  0  0
   -1.3994    4.5044    0.8113 C   0  0  0  0  0  0  0  0  0  0  0  0
   -1.3639    5.5809    1.0359 H   0  0  0  0  0  0  0  0  0  0  0  0
    6.3459   -0.7199    1.5776 C   0  0  0  0  0  0  0  0  0  0  0  0
    6.9901   -0.9452    2.4409 H   0  0  0  0  0  0  0  0  0  0  0  0
    5.1695   -1.4588    1.3647 C   0  0  0  0  0  0  0  0  0  0  0  0
    4.8912   -2.2649    2.0603 H   0  0  0  0  0  0  0  0  0  0  0  0
   -2.5893    3.7779    0.9998 C   0  0  0  0  0  0  0  0  0  0  0  0
   -3.4919    4.2934    1.3650 H   0  0  0  0  0  0  0  0  0  0  0  0
   -2.6457    2.4028    0.7137 C   0  0  0  0  0  0  0  0  0  0  0  0
   -3.6014    1.8701    0.8326 H   0  0  0  0  0  0  0  0  0  0  0  0
    3.7899    0.1722   -1.8076 C   0  0  0  0  0  0  0  0  0  0  0  0
    4.2291    0.9644   -2.4439 H   0  0  0  0  0  0  0  0  0  0  0  0
    3.6220   -0.7219   -2.4393 H   0  0  0  0  0  0  0  0  0  0  0  0
    6.6968    0.3047    0.6865 C   0  0  0  0  0  0  0  0  0  0  0  0
    7.6168    0.8868    0.8477 H   0  0  0  0  0  0  0  0  0  0  0  0
   -0.3239    2.4720    0.0308 C   0  0  0  0  0  0  0  0  0  0  0  0
  1  3  1  0  0  0  0
  1  4  1  0  0  0  0
  2  6  1  0  0  0  0
  3  2  1  0  0  0  0
  4  6  2  0  0  0  0
  5  4  1  0  0  0  0
  6 30  1  0  0  0  0
  7  9  2  0  0  0  0
  7 13  1  0  0  0  0
  8 23  1  0  0  0  0
  9 28  1  0  0  0  0
 10  9  1  0  0  0  0
 11 15  2  0  0  0  0
 12 11  1  0  0  0  0
 13 19  2  0  0  0  0
 14 13  1  0  0  0  0
 15 21  1  0  0  0  0
 15 16  1  0  0  0  0
 17 18  1  0  0  0  0
 19 17  1  0  0  0  0
 19 20  1  0  0  0  0
 21 22  1  0  0  0  0
 23 24  1  0  0  0  0
 23 21  2  0  0  0  0
 25  1  1  0  0  0  0
 25  7  1  0  0  0  0
 26 25  1  0  0  0  0
 27 25  1  0  0  0  0
 28 29  1  0  0  0  0
 28 17  2  0  0  0  0
 30  8  2  0  0  0  0
 30 11  1  0  0  0  0
M  END
