1,3
q = -1.0

 17 17  0  0  0  0  0  0  0  0999 V2000
    1.5181   -0.1777    0.0027 C   0  0  0  0  0  2  0  0  0  0  0  0
    4.4419   -2.3549    0.0084 F   0  0  0  0  0  0  0  0  0  0  0  0
    0.0272    1.8863   -0.0031 N   0  0  0  0  0  2  0  0  0  0  0  0
   -1.1513    3.1762   -0.1325 Cl  0  0  0  0  0  0  0  0  0  0  0  0
    2.1783    1.0882    0.1188 C   0  0  0  0  0  0  0  0  0  0  0  0
    1.7544    3.6668    0.0654 C   0  0  0  0  0  0  0  0  0  0  0  0
    1.5173    4.1395   -0.9105 H   0  0  0  0  0  0  0  0  0  0  0  0
    2.8407    3.7474    0.2405 H   0  0  0  0  0  0  0  0  0  0  0  0
    1.2182    4.2501    0.8405 H   0  0  0  0  0  0  0  0  0  0  0  0
    1.2965    2.2440    0.0693 C   0  0  0  0  0  0  0  0  0  0  0  0
    2.3094   -1.3349   -0.0614 C   0  0  0  0  0  0  0  0  0  0  0  0
    1.8755   -2.3314   -0.2230 H   0  0  0  0  0  0  0  0  0  0  0  0
    3.7008   -1.2308    0.0515 C   0  0  0  0  0  0  0  0  0  0  0  0
    4.3590    0.0012    0.2025 C   0  0  0  0  0  0  0  0  0  0  0  0
    5.4544    0.0260    0.2810 H   0  0  0  0  0  0  0  0  0  0  0  0
    3.5870    1.1641    0.2227 C   0  0  0  0  0  0  0  0  0  0  0  0
    4.0906    2.1386    0.3085 H   0  0  0  0  0  0  0  0  0  0  0  0
  1  5  1  0  0  0  0
  2 13  1  0  0  0  0
  3 10  1  0  0  0  0
  4  3  1  0  0  0  0
  5 16  1  0  0  0  0
  6 10  1  0  0  0  0
  6  8  1  0  0  0  0
  6  9  1  0  0  0  0
  7  6  1  0  0  0  0
 10  5  2  0  0  0  0
 11  1  1  0  0  0  0
 11 13  2  0  0  0  0
 12 11  1  0  0  0  0
 13 14  1  0  0  0  0
 14 16  2  0  0  0  0
 14 15  1  0  0  0  0
 16 17  1  0  0  0  0
M  END
