2,3
q = -1.0, confidence = 0.0

 22 22  0  0  0  0  0  0  0  0999 V2000
    4.2165   -2.3808    0.3512 F   0  0  0  0  0  0  0  0  0  0  0  0
    0.0274    2.2824    0.0193 N   0  0  0  0  0  0  0  0  0  0  0  0
    1.4416   -0.0591   -0.1292 C   0  0  0  0  0  3  0  0  0  0  0  0
    2.1802    1.1465   -0.3002 C   0  0  0  0  0  0  0  0  0  0  0  0
    3.5821    1.1494   -0.2287 C   0  0  0  0  0  0  0  0  0  0  0  0
    4.1379    2.0925   -0.3542 H   0  0  0  0  0  0  0  0  0  0  0  0
    4.2862   -0.0436   -0.0063 C   0  0  0  0  0  0  0  0  0  0  0  0
    5.3831   -0.0716    0.0538 H   0  0  0  0  0  0  0  0  0  0  0  0
    3.5507   -1.2254    0.1415 C   0  0  0  0  0  0  0  0  0  0  0  0
    2.1515   -1.2540    0.0878 C   0  0  0  0  0  0  0  0  0  0  0  0
    1.6282   -2.2168    0.1928 H   0  0  0  0  0  0  0  0  0  0  0  0
    1.3791    2.3725   -0.6231 C   0  0  0  0  0  0  0  0  0  0  0  0
    1.8756    3.3196   -0.3138 H   0  0  0  0  0  0  0  0  0  0  0  0
    1.1985    2.4356   -1.7171 H   0  0  0  0  0  0  0  0  0  0  0  0
    0.1054    2.6411    1.4585 C   0  0  0  0  0  0  0  0  0  0  0  0
    0.8593    2.0019    1.9527 H   0  0  0  0  0  0  0  0  0  0  0  0
   -0.8841    2.4712    1.9212 H   0  0  0  0  0  0  0  0  0  0  0  0
    0.3939    3.7107    1.5661 H   0  0  0  0  0  0  0  0  0  0  0  0
   -0.9258    3.1815   -0.6720 C   0  0  0  0  0  0  0  0  0  0  0  0
   -1.9252    3.0684   -0.2152 H   0  0  0  0  0  0  0  0  0  0  0  0
   -0.9925    2.8904   -1.7362 H   0  0  0  0  0  0  0  0  0  0  0  0
   -0.5709    4.2329   -0.5942 H   0  0  0  0  0  0  0  0  0  0  0  0
  2 15  1  0  0  0  0
  3 10  1  0  0  0  0
  4  5  1  0  0  0  0
  4  3  2  0  0  0  0
  5  7  2  0  0  0  0
  6  5  1  0  0  0  0
  7  8  1  0  0  0  0
  7  9  1  0  0  0  0
  9  1  1  0  0  0  0
 10  9  2  0  0  0  0
 10 11  1  0  0  0  0
 12 13  1  0  0  0  0
 12  4  1  0  0  0  0
 12  2  1  0  0  0  0
 14 12  1  0  0  0  0
 15 18  1  0  0  0  0
 15 17  1  0  0  0  0
 15 16  1  0  0  0  0
 19 22  1  0  0  0  0
 19 20  1  0  0  0  0
 19  2  1  0  0  0  0
 21 19  1  0  0  0  0
M  END
