1,12
q = -1.0, confidence = 0.0

 38 40  0  0  1  0  0  0  0  0999 V2000
   -0.1105    1.2198   -0.4430 N   0  0  0  0  0  2  0  0  0  0  0  0
    1.0102    0.5300   -0.1628 N   0  0  0  0  0  0  0  0  0  0  0  0
    0.3097    2.4420   -0.8437 C   0  0  0  0  0  0  0  0  0  0  0  0
   -0.4238    3.1953   -1.1506 H   0  0  0  0  0  0  0  0  0  0  0  0
    1.7164    2.5238   -0.8032 C   0  0  0  0  0  0  0  0  0  0  0  0
    2.3356    3.3861   -1.0658 H   0  0  0  0  0  0  0  0  0  0  0  0
    2.1597    1.2538   -0.3569 C   0  0  0  0  0  0  0  0  0  0  0  0
    3.4128    0.5929   -0.0993 C   0  0  0  0  0  0  0  0  0  0  0  0
    3.4065   -0.7366    0.3311 C   0  0  0  0  0  0  0  0  0  0  0  0
    2.1452   -1.4548    0.5039 C   0  0  0  0  0  0  0  0  0  0  0  0
    0.9257   -0.7791    0.2417 C   0  0  2  0  0  3  0  0  0  0  0  0
   -0.3833   -1.3092    0.3301 C   0  0  0  0  0  3  0  0  0  0  0  0
   -0.4502   -2.6589    0.6921 C   0  0  0  0  0  0  0  0  0  0  0  0
   -1.4204   -3.1771    0.7338 H   0  0  0  0  0  0  0  0  0  0  0  0
    0.7295   -3.3866    0.9922 C   0  0  0  0  0  0  0  0  0  0  0  0
    0.6412   -4.4431    1.2903 H   0  0  0  0  0  0  0  0  0  0  0  0
    2.0001   -2.8104    0.9126 C   0  0  0  0  0  0  0  0  0  0  0  0
    2.8844   -3.4148    1.1557 H   0  0  0  0  0  0  0  0  0  0  0  0
    4.6586    1.4326   -0.2610 C   0  0  0  0  0  0  0  0  0  0  0  0
    5.5229    0.8014   -0.5443 H   0  0  0  0  0  0  0  0  0  0  0  0
    4.5127    2.1349   -1.1098 H   0  0  0  0  0  0  0  0  0  0  0  0
    5.0078    2.2406    1.0034 C   0  0  0  0  0  0  0  0  0  0  0  0
    4.1280    2.8554    1.2920 H   0  0  0  0  0  0  0  0  0  0  0  0
    5.1673    1.5335    1.8463 H   0  0  0  0  0  0  0  0  0  0  0  0
    6.2367    3.1304    0.8218 C   0  0  0  0  0  0  0  0  0  0  0  0
    7.1340    2.5312    0.5603 H   0  0  0  0  0  0  0  0  0  0  0  0
    6.4708    3.6981    1.7446 H   0  0  0  0  0  0  0  0  0  0  0  0
    6.0848    3.8665    0.0048 H   0  0  0  0  0  0  0  0  0  0  0  0
    4.6908   -1.4960    0.5856 C   0  0  0  0  0  0  0  0  0  0  0  0
    4.5769   -2.0859    1.5191 H   0  0  0  0  0  0  0  0  0  0  0  0
    5.5241   -0.7916    0.7789 H   0  0  0  0  0  0  0  0  0  0  0  0
    5.0917   -2.4542   -0.5599 C   0  0  0  0  0  0  0  0  0  0  0  0
    5.9544   -3.0643   -0.2150 H   0  0  0  0  0  0  0  0  0  0  0  0
    4.2613   -3.1696   -0.7383 H   0  0  0  0  0  0  0  0  0  0  0  0
    5.4451   -1.7555   -1.8727 C   0  0  0  0  0  0  0  0  0  0  0  0
    4.6039   -1.1314   -2.2384 H   0  0  0  0  0  0  0  0  0  0  0  0
    5.6819   -2.4919   -2.6664 H   0  0  0  0  0  0  0  0  0  0  0  0
    6.3304   -1.0950   -1.7591 H   0  0  0  0  0  0  0  0  0  0  0  0
  1  2  1  0  0  0  0
  2 11  1  0  0  0  0
  3  5  2  0  0  0  0
  3  1  1  0  0  0  0
  4  3  1  0  0  0  0
  5  7  1  0  0  0  0
  6  5  1  0  0  0  0
  7  2  1  0  0  0  0
  7  8  2  0  0  0  0
  8  9  1  0  0  0  0
  9 10  2  0  0  0  0
  9 29  1  0  0  0  0
 10 17  1  0  0  0  0
 11 12  1  6  0  0  0
 11 10  1  0  0  0  0
 12 13  2  0  0  0  0
 13 14  1  0  0  0  0
 13 15  1  0  0  0  0
 15 16  1  0  0  0  0
 17 15  2  0  0  0  0
 17 18  1  0  0  0  0
 19  8  1  0  0  0  0
 19 22  1  0  0  0  0
 20 19  1  0  0  0  0
 21 19  1  0  0  0  0
 22 23  1  0  0  0  0
 22 24  1  0  0  0  0
 25 22  1  0  0  0  0
 25 27  1  0  0  0  0
 26 25  1  0  0  0  0
 28 25  1  0  0  0  0
 29 31  1  0  0  0  0
 29 30  1  0  0  0  0
 32 33  1  0  0  0  0
 32 29  1  0  0  0  0
 34 32  1  0  0  0  0
 35 38  1  0  0  0  0
 35 32  1  0  0  0  0
 36 35  1  0  0  0  0
 37 35  1  0  0  0  0
M  END
