1,12
q = -1.0

 40 44  0  0  0  0  0  0  0  0999 V2000
   -0.8864   -1.3196   -0.0369 N   0  0  0  0  0  2  0  0  0  0  0  0
    0.2581   -0.6139   -0.0378 N   0  0  0  0  0  0  0  0  0  0  0  0
   -0.5098   -2.6195   -0.0137 C   0  0  0  0  0  0  0  0  0  0  0  0
   -1.2721   -3.4059   -0.0276 H   0  0  0  0  0  0  0  0  0  0  0  0
    0.8943   -2.7320    0.0137 C   0  0  0  0  0  0  0  0  0  0  0  0
    1.4893   -3.6483    0.0490 H   0  0  0  0  0  0  0  0  0  0  0  0
    1.3831   -1.4028   -0.0123 C   0  0  0  0  0  0  0  0  0  0  0  0
    2.6570   -0.7286    0.0070 C   0  0  0  0  0  0  0  0  0  0  0  0
    2.6873    0.6723   -0.0196 C   0  0  0  0  0  0  0  0  0  0  0  0
    1.4534    1.4485   -0.0863 C   0  0  0  0  0  0  0  0  0  0  0  0
    0.2137    0.7582   -0.0856 C   0  0  0  0  0  0  0  0  0  0  0  0
   -1.0779    1.3283   -0.1676 C   0  0  0  0  0  3  0  0  0  0  0  0
   -1.0996    2.7207   -0.3073 C   0  0  0  0  0  0  0  0  0  0  0  0
   -2.0559    3.2511   -0.4334 H   0  0  0  0  0  0  0  0  0  0  0  0
    0.1062    3.4683   -0.3252 C   0  0  0  0  0  0  0  0  0  0  0  0
    0.0517    4.5617   -0.4449 H   0  0  0  0  0  0  0  0  0  0  0  0
    1.3598    2.8624   -0.2131 C   0  0  0  0  0  3  0  0  0  0  0  0
    2.2751    3.4684   -0.2476 H   0  0  0  0  0  0  0  0  0  0  0  0
    3.8796   -1.5744    0.0719 C   0  0  0  0  0  0  0  0  0  0  0  0
    4.0750   -2.6131   -0.8655 C   0  0  0  0  0  0  0  0  0  0  0  0
    3.3249   -2.7736   -1.6548 H   0  0  0  0  0  0  0  0  0  0  0  0
    5.2235   -3.4164   -0.8149 C   0  0  0  0  0  0  0  0  0  0  0  0
    5.3648   -4.2133   -1.5611 H   0  0  0  0  0  0  0  0  0  0  0  0
    6.1919   -3.2013    0.1780 C   0  0  0  0  0  0  0  0  0  0  0  0
    7.0933   -3.8316    0.2182 H   0  0  0  0  0  0  0  0  0  0  0  0
    6.0033   -2.1772    1.1203 C   0  0  0  0  0  0  0  0  0  0  0  0
    6.7551   -2.0045    1.9055 H   0  0  0  0  0  0  0  0  0  0  0  0
    4.8589   -1.3710    1.0686 C   0  0  0  0  0  0  0  0  0  0  0  0
    4.7151   -0.5702    1.8078 H   0  0  0  0  0  0  0  0  0  0  0  0
    3.9880    1.3998   -0.0306 C   0  0  0  0  0  0  0  0  0  0  0  0
    4.9239    1.1865   -1.0649 C   0  0  0  0  0  0  0  0  0  0  0  0
    4.6778    0.4817   -1.8725 H   0  0  0  0  0  0  0  0  0  0  0  0
    6.1535    1.8588   -1.0654 C   0  0  0  0  0  0  0  0  0  0  0  0
    6.8712    1.6810   -1.8807 H   0  0  0  0  0  0  0  0  0  0  0  0
    6.4700    2.7545   -0.0315 C   0  0  0  0  0  0  0  0  0  0  0  0
    7.4373    3.2795   -0.0307 H   0  0  0  0  0  0  0  0  0  0  0  0
    5.5448    2.9788    1.0004 C   0  0  0  0  0  0  0  0  0  0  0  0
    5.7857    3.6780    1.8157 H   0  0  0  0  0  0  0  0  0  0  0  0
    4.3117    2.3106    0.9988 C   0  0  0  0  0  0  0  0  0  0  0  0
    3.5902    2.4800    1.8126 H   0  0  0  0  0  0  0  0  0  0  0  0
  1  3  1  0  0  0  0
  2  1  1  0  0  0  0
  2  7  1  0  0  0  0
  3  5  2  0  0  0  0
  4  3  1  0  0  0  0
  5  6  1  0  0  0  0
  7  8  2  0  0  0  0
  7  5  1  0  0  0  0
  8 19  1  0  0  0  0
  9  8  1  0  0  0  0
 10 11  1  0  0  0  0
 10  9  2  0  0  0  0
 11  2  1  0  0  0  0
 12 11  2  0  0  0  0
 13 12  1  0  0  0  0
 14 13  1  0  0  0  0
 15 13  2  0  0  0  0
 15 17  1  0  0  0  0
 16 15  1  0  0  0  0
 17 10  1  0  0  0  0
 18 17  1  0  0  0  0
 19 28  1  0  0  0  0
 20 22  1  0  0  0  0
 20 19  2  0  0  0  0
 21 20  1  0  0  0  0
 22 24  2  0  0  0  0
 23 22  1  0  0  0  0
 24 25  1  0  0  0  0
 24 26  1  0  0  0  0
 26 27  1  0  0  0  0
 28 26  2  0  0  0  0
 28 29  1  0  0  0  0
 30  9  1  0  0  0  0
 30 39  1  0  0  0  0
 31 30  2  0  0  0  0
 32 31  1  0  0  0  0
 33 31  1  0  0  0  0
 33 35  2  0  0  0  0
 34 33  1  0  0  0  0
 35 36  1  0  0  0  0
 35 37  1  0  0  0  0
 37 38  1  0  0  0  0
 39 37  2  0  0  0  0
 39 40  1  0  0  0  0
M  END
