1,25
q = -1.0, confidence = 0.0

 25 27  0  0  0  0  0  0  0  0999 V2000
    2.5729   -0.7629   -0.7200 N   0  0  0  0  0  2  0  0  0  0  0  0
    3.4540   -1.7726   -0.8538 C   0  0  0  0  0  3  0  0  0  0  0  0
    3.0270   -2.7868   -0.8765 H   0  0  0  0  0  0  0  0  0  0  0  0
    4.8350   -1.5709   -0.9570 C   0  0  0  0  0  0  0  0  0  0  0  0
    5.5073   -2.4328   -1.0668 H   0  0  0  0  0  0  0  0  0  0  0  0
    5.3221   -0.2511   -0.9179 C   0  0  0  0  0  0  0  0  0  0  0  0
    6.4019   -0.0518   -0.9931 H   0  0  0  0  0  0  0  0  0  0  0  0
    4.4192    0.8038   -0.7857 C   0  0  0  0  0  0  0  0  0  0  0  0
    4.7656    1.8465   -0.7544 H   0  0  0  0  0  0  0  0  0  0  0  0
    3.0302    0.5389   -0.6913 C   0  0  0  0  0  0  0  0  0  0  0  0
    2.0013    1.5330   -0.5635 C   0  0  0  0  0  0  0  0  0  0  0  0
    2.1517    3.0347   -0.4983 C   0  0  0  0  0  0  0  0  0  0  0  0
    2.7559    3.3667    0.3762 H   0  0  0  0  0  0  0  0  0  0  0  0
    2.6503    3.4588   -1.3990 H   0  0  0  0  0  0  0  0  0  0  0  0
    0.7137    3.4881   -0.3928 C   0  0  0  0  0  0  0  0  0  0  0  0
    0.1854    4.7777   -0.3056 C   0  0  0  0  0  0  0  0  0  0  0  0
    0.8457    5.6594   -0.2960 H   0  0  0  0  0  0  0  0  0  0  0  0
   -1.2125    4.9358   -0.2359 C   0  0  0  0  0  0  0  0  0  0  0  0
   -1.6436    5.9465   -0.1679 H   0  0  0  0  0  0  0  0  0  0  0  0
   -2.0633    3.8144   -0.2613 C   0  0  0  0  0  0  0  0  0  0  0  0
   -3.1539    3.9585   -0.2179 H   0  0  0  0  0  0  0  0  0  0  0  0
   -1.5399    2.5154   -0.3458 C   0  0  0  0  0  0  0  0  0  0  0  0
   -2.2052    1.6426   -0.3763 H   0  0  0  0  0  0  0  0  0  0  0  0
   -0.1424    2.3444   -0.4046 C   0  0  0  0  0  0  0  0  0  0  0  0
    0.6731    1.1315   -0.4951 C   0  0  0  0  0  3  0  0  0  0  0  0
  1 10  1  0  0  0  0
  2  1  1  0  0  0  0
  3  2  1  0  0  0  0
  4  6  2  0  0  0  0
  4  2  1  0  0  0  0
  5  4  1  0  0  0  0
  6  8  1  0  0  0  0
  7  6  1  0  0  0  0
  8  9  1  0  0  0  0
  8 10  2  0  0  0  0
 10 11  1  0  0  0  0
 11 12  1  0  0  0  0
 11 25  2  0  0  0  0
 12 15  1  0  0  0  0
 12 13  1  0  0  0  0
 14 12  1  0  0  0  0
 15 16  1  0  0  0  0
 16 17  1  0  0  0  0
 16 18  2  0  0  0  0
 18 19  1  0  0  0  0
 20 18  1  0  0  0  0
 20 21  1  0  0  0  0
 22 20  2  0  0  0  0
 23 22  1  0  0  0  0
 24 15  2  0  0  0  0
 24 22  1  0  0  0  0
 25 24  1  0  0  0  0
M  END
