2,13
q = -1.0

 20 21  0  0  1  0  0  0  0  0999 V2000
   -5.1883   -1.1993    0.5985 O   0  0  0  0  0  0  0  0  0  0  0  0
   -1.5600   -0.4316   -1.3790 N   0  0  0  0  0  2  0  0  0  0  0  0
   -2.8692   -0.8043    0.5073 N   0  0  0  0  0  0  0  0  0  0  0  0
   -2.8076   -0.7329   -0.8935 C   0  0  2  0  0  3  0  0  0  0  0  0
   -3.8655   -1.0222   -1.7814 C   0  0  0  0  0  0  0  0  0  0  0  0
   -4.8552   -1.2037   -1.3495 H   0  0  0  0  0  0  0  0  0  0  0  0
   -3.6037   -1.0841   -3.1522 C   0  0  0  0  0  0  0  0  0  0  0  0
   -4.4227   -1.3199   -3.8479 H   0  0  0  0  0  0  0  0  0  0  0  0
   -2.3020   -0.8593   -3.6284 C   0  0  0  0  0  0  0  0  0  0  0  0
   -2.0522   -0.9226   -4.6962 H   0  0  0  0  0  0  0  0  0  0  0  0
   -1.3112   -0.5300   -2.7068 C   0  0  0  0  0  0  0  0  0  0  0  0
   -0.2722   -0.3348   -3.0024 H   0  0  0  0  0  0  0  0  0  0  0  0
   -1.6272   -0.6188    1.1728 C   0  0  0  0  0  3  0  0  0  0  0  0
   -1.5487   -1.0115    2.5017 C   0  0  0  0  0  0  0  0  0  0  0  0
   -0.5837   -0.9223    3.0155 H   0  0  0  0  0  0  0  0  0  0  0  0
   -2.6858   -1.5114    3.1843 C   0  0  0  0  0  0  0  0  0  0  0  0
   -2.5886   -1.8225    4.2374 H   0  0  0  0  0  0  0  0  0  0  0  0
   -3.9143   -1.5927    2.5620 C   0  0  0  0  0  0  0  0  0  0  0  0
   -4.8196   -1.9403    3.0772 H   0  0  0  0  0  0  0  0  0  0  0  0
   -4.1034   -1.1997    1.1893 C   0  0  0  0  0  0  0  0  0  0  0  0
  1 20  2  0  0  0  0
  2  4  1  0  0  0  0
  3 13  1  0  0  0  0
  3 20  1  0  0  0  0
  4  3  1  1  0  0  0
  5  6  1  0  0  0  0
  5  4  1  0  0  0  0
  7  5  2  0  0  0  0
  8  7  1  0  0  0  0
  9  7  1  0  0  0  0
  9 11  2  0  0  0  0
 10  9  1  0  0  0  0
 11  2  1  0  0  0  0
 12 11  1  0  0  0  0
 13 14  2  0  0  0  0
 14 15  1  0  0  0  0
 14 16  1  0  0  0  0
 16 17  1  0  0  0  0
 18 19  1  0  0  0  0
 18 16  2  0  0  0  0
 20 18  1  0  0  0  0
M  END
