22,36
q = 0.0, confidence = 0.978

 53 56  0  0  1  0  0  0  0  0999 V2000
   -3.5739    0.3902    0.0632 C   0  0  0  0  0  0  0  0  0  0  0  0
   -4.3007    0.0877   -1.1075 C   0  0  0  0  0  0  0  0  0  0  0  0
   -3.9563    0.7303   -2.4261 C   0  0  0  0  0  0  0  0  0  0  0  0
   -4.0974    1.8310   -2.4022 H   0  0  0  0  0  0  0  0  0  0  0  0
   -4.5886    0.3298   -3.2397 H   0  0  0  0  0  0  0  0  0  0  0  0
   -2.8942    0.5520   -2.6974 H   0  0  0  0  0  0  0  0  0  0  0  0
   -5.3309   -0.8616   -0.9991 C   0  0  0  0  0  0  0  0  0  0  0  0
   -5.9052   -1.1223   -1.9020 H   0  0  0  0  0  0  0  0  0  0  0  0
   -5.6431   -1.4889    0.2229 C   0  0  0  0  0  0  0  0  0  0  0  0
   -6.7761   -2.4773    0.3131 C   0  0  0  0  0  0  0  0  0  0  0  0
   -7.7399   -1.9523    0.4866 H   0  0  0  0  0  0  0  0  0  0  0  0
   -6.6353   -3.1875    1.1504 H   0  0  0  0  0  0  0  0  0  0  0  0
   -6.8876   -3.0576   -0.6235 H   0  0  0  0  0  0  0  0  0  0  0  0
   -4.8885   -1.1481    1.3619 C   0  0  0  0  0  0  0  0  0  0  0  0
   -5.1176   -1.6309    2.3249 H   0  0  0  0  0  0  0  0  0  0  0  0
   -3.8465   -0.2058    1.3122 C   0  0  0  0  0  0  0  0  0  0  0  0
   -3.0285    0.1274    2.5325 C   0  0  0  0  0  0  0  0  0  0  0  0
   -3.4663   -0.3269    3.4403 H   0  0  0  0  0  0  0  0  0  0  0  0
   -2.9575    1.2222    2.6975 H   0  0  0  0  0  0  0  0  0  0  0  0
   -1.9877   -0.2484    2.4296 H   0  0  0  0  0  0  0  0  0  0  0  0
   -2.5160    1.3682   -0.0130 N   0  0  0  0  0  0  0  0  0  0  0  0
   -1.1798    1.1169   -0.0918 C   0  0  0  0  0  2  0  0  0  0  0  0
   -2.7668    2.7404    0.0568 C   0  0  0  0  0  0  0  0  0  0  0  0
   -3.7859    3.1304    0.1355 H   0  0  0  0  0  0  0  0  0  0  0  0
   -1.5606    3.3792    0.0251 C   0  0  0  0  0  0  0  0  0  0  0  0
   -1.3206    4.4439    0.0709 H   0  0  0  0  0  0  0  0  0  0  0  0
   -0.5977    2.3750   -0.0620 N   0  0  0  0  0  0  0  0  0  0  0  0
    0.8069    2.5157   -0.0446 C   0  0  1  0  0  3  0  0  0  0  0  0
    1.4318    3.7684   -0.0631 C   0  0  0  0  0  0  0  0  0  0  0  0
    0.8499    4.6964   -0.1269 H   0  0  0  0  0  0  0  0  0  0  0  0
    2.8298    3.7978    0.0042 C   0  0  0  0  0  0  0  0  0  0  0  0
    3.3618    4.7603   -0.0034 H   0  0  0  0  0  0  0  0  0  0  0  0
    3.5343    2.5935    0.0978 C   0  0  0  0  0  0  0  0  0  0  0  0
    4.6293    2.5786    0.1857 H   0  0  0  0  0  0  0  0  0  0  0  0
    2.8332    1.3706    0.1022 C   0  0  0  0  0  0  0  0  0  0  0  0
    1.4800    1.3442    0.0121 N   0  0  0  0  0  2  0  0  0  0  0  0
    3.5849    0.0947    0.2687 C   0  0  0  0  0  0  0  0  0  0  0  0
    3.5340   -0.5709    1.5206 C   0  0  0  0  0  0  0  0  0  0  0  0
    2.6570   -0.0671    2.6385 C   0  0  0  0  0  0  0  0  0  0  0  0
    1.5817   -0.2030    2.3912 H   0  0  0  0  0  0  0  0  0  0  0  0
    2.8065    1.0160    2.8251 H   0  0  0  0  0  0  0  0  0  0  0  0
    2.8599   -0.6077    3.5816 H   0  0  0  0  0  0  0  0  0  0  0  0
    4.3215   -1.7249    1.6942 C   0  0  0  0  0  0  0  0  0  0  0  0
    4.3053   -2.2412    2.6663 H   0  0  0  0  0  0  0  0  0  0  0  0
    5.1337   -2.2044    0.6580 C   0  0  0  0  0  0  0  0  0  0  0  0
    5.7596   -3.0958    0.8182 H   0  0  0  0  0  0  0  0  0  0  0  0
    5.1564   -1.5466   -0.5804 C   0  0  0  0  0  0  0  0  0  0  0  0
    5.7913   -1.9269   -1.3959 H   0  0  0  0  0  0  0  0  0  0  0  0
    4.3870   -0.3881   -0.7970 C   0  0  0  0  0  0  0  0  0  0  0  0
    4.3939    0.2976   -2.1411 C   0  0  0  0  0  0  0  0  0  0  0  0
    4.8418    1.3112   -2.0903 H   0  0  0  0  0  0  0  0  0  0  0  0
    3.3644    0.4255   -2.5351 H   0  0  0  0  0  0  0  0  0  0  0  0
    4.9748   -0.2826   -2.8825 H   0  0  0  0  0  0  0  0  0  0  0  0
  1 16  1  0  0  0  0
  2  7  1  0  0  0  0
  2  1  2  0  0  0  0
  3  4  1  0  0  0  0
  3  2  1  0  0  0  0
  5  3  1  0  0  0  0
  6  3  1  0  0  0  0
  7  9  2  0  0  0  0
  8  7  1  0  0  0  0
  9 10  1  0  0  0  0
  9 14  1  0  0  0  0
 10 11  1  0  0  0  0
 10 12  1  0  0  0  0
 13 10  1  0  0  0  0
 14 15  1  0  0  0  0
 16 14  2  0  0  0  0
 16 17  1  0  0  0  0
 17 19  1  0  0  0  0
 17 18  1  0  0  0  0
 20 17  1  0  0  0  0
 21 23  1  0  0  0  0
 21  1  1  0  0  0  0
 22 27  1  0  0  0  0
 22 21  1  0  0  0  0
 23 24  1  0  0  0  0
 25 23  2  0  0  0  0
 25 26  1  0  0  0  0
 27 25  1  0  0  0  0
 28 27  1  1  0  0  0
 28 36  1  0  0  0  0
 29 28  1  0  0  0  0
 29 31  2  0  0  0  0
 30 29  1  0  0  0  0
 31 33  1  0  0  0  0
 32 31  1  0  0  0  0
 33 35  2  0  0  0  0
 33 34  1  0  0  0  0
 35 37  1  0  0  0  0
 36 35  1  0  0  0  0
 37 38  1  0  0  0  0
 38 43  2  0  0  0  0
 38 39  1  0  0  0  0
 39 41  1  0  0  0  0
 39 42  1  0  0  0  0
 40 39  1  0  0  0  0
 43 44  1  0  0  0  0
 45 46  1  0  0  0  0
 45 43  1  0  0  0  0
 47 45  2  0  0  0  0
 48 47  1  0  0  0  0
 49 47  1  0  0  0  0
 49 37  2  0  0  0  0
 50 51  1  0  0  0  0
 50 49  1  0  0  0  0
 52 50  1  0  0  0  0
 53 50  1  0  0  0  0
M  END
