4,37
q = nan, confidence = 0.0

 46 48  0  0  1  0  0  0  0  0999 V2000
    0.9575    1.0776    1.8542 S   0  0  0  0  0  0  0  0  0  0  0  0
    0.5520    0.0459    2.8447 O   0  0  0  0  0  0  0  0  0  0  0  0
    0.9588    2.5123    2.2396 O   0  0  0  0  0  0  0  0  0  0  0  0
    0.0163    0.9131    0.5051 N   0  0  0  0  0  2  0  0  0  0  0  0
   -1.1133    0.5562   -1.8907 N   0  0  0  0  0  0  0  0  0  0  0  0
   -1.2888    0.0503   -2.7681 H   0  0  0  0  0  0  0  0  0  0  0  0
   -1.8390    1.2801   -1.7650 H   0  0  0  0  0  0  0  0  0  0  0  0
    2.6506    0.6936    1.3720 C   0  0  0  0  0  0  0  0  0  0  0  0
    3.0691   -0.6436    1.2924 C   0  0  0  0  0  0  0  0  0  0  0  0
    2.3820   -1.4458    1.5937 H   0  0  0  0  0  0  0  0  0  0  0  0
    4.3547   -0.9288    0.8244 C   0  0  0  0  0  0  0  0  0  0  0  0
    4.6811   -1.9782    0.7517 H   0  0  0  0  0  0  0  0  0  0  0  0
    5.2369    0.0987    0.4257 C   0  0  0  0  0  0  0  0  0  0  0  0
    4.8031    1.4334    0.5459 C   0  0  0  0  0  0  0  0  0  0  0  0
    5.4863    2.2511    0.2659 H   0  0  0  0  0  0  0  0  0  0  0  0
    3.5194    1.7390    1.0211 C   0  0  0  0  0  0  0  0  0  0  0  0
    3.1841    2.7784    1.1503 H   0  0  0  0  0  0  0  0  0  0  0  0
    6.5917   -0.2368   -0.1422 C   0  0  0  0  0  0  0  0  0  0  0  0
    6.4935   -0.6222   -1.1805 H   0  0  0  0  0  0  0  0  0  0  0  0
    7.0989   -1.0276    0.4469 H   0  0  0  0  0  0  0  0  0  0  0  0
    7.2555    0.6488   -0.1767 H   0  0  0  0  0  0  0  0  0  0  0  0
   -0.7154    3.0718   -0.5116 C   0  0  0  0  0  0  0  0  0  0  0  0
   -1.8212    3.0557    0.3580 C   0  0  0  0  0  0  0  0  0  0  0  0
   -1.8900    2.2283    1.0785 H   0  0  0  0  0  0  0  0  0  0  0  0
   -2.7745    4.0854    0.3196 C   0  0  0  0  0  0  0  0  0  0  0  0
   -3.6306    4.0625    1.0117 H   0  0  0  0  0  0  0  0  0  0  0  0
   -2.6305    5.1499   -0.5837 C   0  0  0  0  0  0  0  0  0  0  0  0
   -3.3746    5.9605   -0.6101 H   0  0  0  0  0  0  0  0  0  0  0  0
   -1.5203    5.1830   -1.4441 C   0  0  0  0  0  0  0  0  0  0  0  0
   -1.3891    6.0233   -2.1432 H   0  0  0  0  0  0  0  0  0  0  0  0
   -0.5716    4.1506   -1.4077 C   0  0  0  0  0  0  0  0  0  0  0  0
    0.3033    4.1927   -2.0774 H   0  0  0  0  0  0  0  0  0  0  0  0
    0.2443    1.1695   -1.8809 C   0  0  1  0  0  0  0  0  0  0  0  0
    0.3878    1.8810   -2.7213 H   0  0  0  0  0  0  0  0  0  0  0  0
    0.2904    1.9192   -0.5181 C   0  0  2  0  0  0  0  0  0  0  0  0
    1.3139    2.3450   -0.4263 H   0  0  0  0  0  0  0  0  0  0  0  0
    0.7828   -1.1236   -1.1759 C   0  0  0  0  0  3  0  0  0  0  0  0
    1.6265   -2.2523   -1.1879 C   0  0  0  0  0  0  0  0  0  0  0  0
    1.3596   -3.1488   -0.6097 H   0  0  0  0  0  0  0  0  0  0  0  0
    2.8365   -2.2467   -1.9033 C   0  0  0  0  0  0  0  0  0  0  0  0
    3.4794   -3.1414   -1.8891 H   0  0  0  0  0  0  0  0  0  0  0  0
    3.2441   -1.1079   -2.6163 C   0  0  0  0  0  0  0  0  0  0  0  0
    4.1973   -1.1062   -3.1665 H   0  0  0  0  0  0  0  0  0  0  0  0
    2.4196    0.0290   -2.6269 C   0  0  0  0  0  0  0  0  0  0  0  0
    2.7209    0.9292   -3.1876 H   0  0  0  0  0  0  0  0  0  0  0  0
    1.2050    0.0102   -1.9269 C   0  0  0  0  0  0  0  0  0  0  0  0
  1  3  2  0  0  0  0
  1  2  2  0  0  0  0
  4  1  1  0  0  0  0
  5 33  1  0  0  0  0
  5  7  1  0  0  0  0
  6  5  1  0  0  0  0
  8  1  1  0  0  0  0
  9  8  1  0  0  0  0
  9 10  1  0  0  0  0
 11  9  2  0  0  0  0
 12 11  1  0  0  0  0
 13 14  2  0  0  0  0
 13 11  1  0  0  0  0
 14 16  1  0  0  0  0
 15 14  1  0  0  0  0
 16 17  1  0  0  0  0
 16  8  2  0  0  0  0
 18 13  1  0  0  0  0
 18 20  1  0  0  0  0
 19 18  1  0  0  0  0
 21 18  1  0  0  0  0
 22 23  1  0  0  0  0
 23 24  1  0  0  0  0
 25 23  2  0  0  0  0
 25 26  1  0  0  0  0
 27 25  1  0  0  0  0
 28 27  1  0  0  0  0
 29 31  1  0  0  0  0
 29 27  2  0  0  0  0
 30 29  1  0  0  0  0
 31 22  2  0  0  0  0
 32 31  1  0  0  0  0
 33 34  1  6  0  0  0
 33 35  1  0  0  0  0
 35 22  1  0  0  0  0
 35 36  1  1  0  0  0
 35  4  1  0  0  0  0
 38 37  1  0  0  0  0
 38 39  1  0  0  0  0
 40 41  1  0  0  0  0
 40 38  2  0  0  0  0
 42 40  1  0  0  0  0
 43 42  1  0  0  0  0
 44 42  2  0  0  0  0
 44 46  1  0  0  0  0
 45 44  1  0  0  0  0
 46 33  1  0  0  0  0
 46 37  2  0  0  0  0
M  END
