1,22
q = -1.0

 49 52  0  0  1  0  0  0  0  0999 V2000
   -0.6801   -1.4872   -0.3882 C   0  0  0  0  0  3  0  0  0  0  0  0
   -0.9313   -2.1888    0.9134 C   0  0  0  0  0  0  0  0  0  0  0  0
   -0.9883   -1.5019    2.1470 C   0  0  0  0  0  0  0  0  0  0  0  0
   -1.1792   -2.1923    3.3524 C   0  0  0  0  0  0  0  0  0  0  0  0
   -1.3179   -3.5887    3.3570 C   0  0  0  0  0  0  0  0  0  0  0  0
   -1.2678   -4.2851    2.1377 C   0  0  0  0  0  0  0  0  0  0  0  0
   -1.0823   -3.5946    0.9332 C   0  0  0  0  0  0  0  0  0  0  0  0
   -1.1967   -0.1042   -0.4057 N   0  0  0  0  0  0  0  0  0  0  0  0
   -2.5464    0.1235   -0.7987 C   0  0  0  0  0  0  0  0  0  0  0  0
   -2.8571    1.1410   -1.7256 C   0  0  0  0  0  0  0  0  0  0  0  0
   -4.1845    1.3522   -2.1186 C   0  0  0  0  0  0  0  0  0  0  0  0
   -5.2129    0.5393   -1.6156 C   0  0  0  0  0  0  0  0  0  0  0  0
   -4.8990   -0.4931   -0.7172 C   0  0  0  0  0  0  0  0  0  0  0  0
   -3.5764   -0.7048   -0.3054 C   0  0  0  0  0  0  0  0  0  0  0  0
   -0.3101    0.9036   -0.1640 C   0  0  1  0  0  3  0  0  0  0  0  0
   -0.8118    2.2392    0.2650 C   0  0  0  0  0  0  0  0  0  0  0  0
   -0.2802    3.4207   -0.2931 C   0  0  0  0  0  0  0  0  0  0  0  0
   -0.7510    4.6717    0.1244 C   0  0  0  0  0  0  0  0  0  0  0  0
   -1.7490    4.7582    1.1086 C   0  0  0  0  0  0  0  0  0  0  0  0
   -2.2824    3.5859    1.6681 C   0  0  0  0  0  0  0  0  0  0  0  0
   -1.8232    2.3326    1.2447 C   0  0  0  0  0  0  0  0  0  0  0  0
    0.9754    0.6179   -0.3006 N   0  0  0  0  0  2  0  0  0  0  0  0
    1.9857    1.4661    0.2241 C   0  0  0  0  0  0  0  0  0  0  0  0
    2.9676    2.0046   -0.6315 C   0  0  0  0  0  0  0  0  0  0  0  0
    3.9749    2.8285   -0.1134 C   0  0  0  0  0  0  0  0  0  0  0  0
    4.0217    3.1160    1.2611 C   0  0  0  0  0  0  0  0  0  0  0  0
    3.0531    2.5686    2.1166 C   0  0  0  0  0  0  0  0  0  0  0  0
    2.0416    1.7441    1.6051 C   0  0  0  0  0  0  0  0  0  0  0  0
   -1.1882   -2.0356   -1.2029 H   0  0  0  0  0  0  0  0  0  0  0  0
   -0.8763   -0.4072    2.1648 H   0  0  0  0  0  0  0  0  0  0  0  0
   -1.2181   -1.6312    4.2989 H   0  0  0  0  0  0  0  0  0  0  0  0
   -1.4659   -4.1310    4.3028 H   0  0  0  0  0  0  0  0  0  0  0  0
   -1.3805   -5.3802    2.1233 H   0  0  0  0  0  0  0  0  0  0  0  0
   -1.0451   -4.1517   -0.0161 H   0  0  0  0  0  0  0  0  0  0  0  0
   -2.0500    1.7570   -2.1456 H   0  0  0  0  0  0  0  0  0  0  0  0
   -4.4130    2.1509   -2.8404 H   0  0  0  0  0  0  0  0  0  0  0  0
   -6.2539    0.7030   -1.9315 H   0  0  0  0  0  0  0  0  0  0  0  0
   -5.6952   -1.1422   -0.3221 H   0  0  0  0  0  0  0  0  0  0  0  0
   -3.3359   -1.5038    0.4093 H   0  0  0  0  0  0  0  0  0  0  0  0
    0.5024    3.3550   -1.0615 H   0  0  0  0  0  0  0  0  0  0  0  0
   -0.3339    5.5868   -0.3219 H   0  0  0  0  0  0  0  0  0  0  0  0
   -2.1143    5.7425    1.4385 H   0  0  0  0  0  0  0  0  0  0  0  0
   -3.0663    3.6472    2.4377 H   0  0  0  0  0  0  0  0  0  0  0  0
   -2.2515    1.4148    1.6728 H   0  0  0  0  0  0  0  0  0  0  0  0
    2.9247    1.7773   -1.7063 H   0  0  0  0  0  0  0  0  0  0  0  0
    4.7326    3.2490   -0.7917 H   0  0  0  0  0  0  0  0  0  0  0  0
    4.8174    3.7595    1.6650 H   0  0  0  0  0  0  0  0  0  0  0  0
    3.0862    2.7791    3.1963 H   0  0  0  0  0  0  0  0  0  0  0  0
    1.2874    1.3013    2.2719 H   0  0  0  0  0  0  0  0  0  0  0  0
  1  2  1  0  0  0  0
  2  7  2  0  0  0  0
  2  3  1  0  0  0  0
  3 30  1  0  0  0  0
  3  4  2  0  0  0  0
  4  5  1  0  0  0  0
  4 31  1  0  0  0  0
  5 32  1  0  0  0  0
  6  5  2  0  0  0  0
  7  6  1  0  0  0  0
  8  1  1  0  0  0  0
  8 15  1  0  0  0  0
  9  8  1  0  0  0  0
  9 14  1  0  0  0  0
 10  9  2  0  0  0  0
 11 10  1  0  0  0  0
 11 12  2  0  0  0  0
 12 13  1  0  0  0  0
 13 38  1  0  0  0  0
 13 14  2  0  0  0  0
 14 39  1  0  0  0  0
 15 22  1  1  0  0  0
 15 16  1  0  0  0  0
 16 21  1  0  0  0  0
 17 18  1  0  0  0  0
 17 16  2  0  0  0  0
 18 19  2  0  0  0  0
 19 42  1  0  0  0  0
 19 20  1  0  0  0  0
 20 43  1  0  0  0  0
 21 20  2  0  0  0  0
 21 44  1  0  0  0  0
 22 23  1  0  0  0  0
 23 28  1  0  0  0  0
 24 25  1  0  0  0  0
 24 23  2  0  0  0  0
 25 26  2  0  0  0  0
 26 47  1  0  0  0  0
 26 27  1  0  0  0  0
 27 48  1  0  0  0  0
 28 27  2  0  0  0  0
 28 49  1  0  0  0  0
 29  1  1  0  0  0  0
 33  6  1  0  0  0  0
 34  7  1  0  0  0  0
 35 10  1  0  0  0  0
 36 11  1  0  0  0  0
 37 12  1  0  0  0  0
 40 17  1  0  0  0  0
 41 18  1  0  0  0  0
 45 24  1  0  0  0  0
 46 25  1  0  0  0  0
M  END
