2,3
q = -2.0, confidence = 0.984

 72 75  0  0  1  0  0  0  0  0999 V2000
   -1.5252    1.7970   -1.5902 Si  0  0  0  0  0  0  0  0  0  0  0  0
   -1.3049    2.0943    0.1504 N   0  0  0  0  0  2  0  0  0  0  0  0
   -0.9439    0.0067   -1.4834 C   0  0  1  0  0  3  0  0  0  0  0  0
    0.4382   -0.3586   -1.1903 C   0  0  0  0  0  0  0  0  0  0  0  0
    1.6575    0.3471   -1.3481 C   0  0  0  0  0  0  0  0  0  0  0  0
    1.6456    1.3097   -1.8734 H   0  0  0  0  0  0  0  0  0  0  0  0
    2.8682   -0.1510   -0.8552 C   0  0  0  0  0  0  0  0  0  0  0  0
    4.1226    0.7215   -1.0409 C   0  0  0  0  0  0  0  0  0  0  0  0
    5.2814    0.2027   -0.1618 C   0  0  0  0  0  0  0  0  0  0  0  0
    6.2209    0.7001   -0.4825 H   0  0  0  0  0  0  0  0  0  0  0  0
    5.1079    0.5219    0.8877 H   0  0  0  0  0  0  0  0  0  0  0  0
    5.4253   -1.3105   -0.2158 C   0  0  0  0  0  0  0  0  0  0  0  0
    6.3306   -1.6387    0.3372 H   0  0  0  0  0  0  0  0  0  0  0  0
    5.5725   -1.6377   -1.2681 H   0  0  0  0  0  0  0  0  0  0  0  0
    4.1961   -2.0380    0.3689 C   0  0  0  0  0  0  0  0  0  0  0  0
    2.9015   -1.4329   -0.1989 C   0  0  0  0  0  0  0  0  0  0  0  0
    1.7046   -2.1307   -0.0101 C   0  0  0  0  0  0  0  0  0  0  0  0
    1.7103   -3.0955    0.5176 H   0  0  0  0  0  0  0  0  0  0  0  0
    0.4735   -1.6092   -0.4632 C   0  0  0  0  0  0  0  0  0  0  0  0
   -0.8949   -2.0850   -0.3522 C   0  0  0  0  0  0  0  0  0  0  0  0
   -1.4526   -3.2408    0.2508 C   0  0  0  0  0  0  0  0  0  0  0  0
   -0.8028   -3.9691    0.7589 H   0  0  0  0  0  0  0  0  0  0  0  0
   -2.8256   -3.4320    0.1962 C   0  0  0  0  0  0  0  0  0  0  0  0
   -3.2694   -4.3216    0.6696 H   0  0  0  0  0  0  0  0  0  0  0  0
   -3.6894   -2.4954   -0.4521 C   0  0  0  0  0  0  0  0  0  0  0  0
   -3.1513   -1.3553   -1.0475 C   0  0  0  0  0  0  0  0  0  0  0  0
   -3.8171   -0.6415   -1.5515 H   0  0  0  0  0  0  0  0  0  0  0  0
   -1.7469   -1.1209   -1.0234 C   0  0  0  0  0  0  0  0  0  0  0  0
    3.8307    2.1785   -0.6196 C   0  0  0  0  0  0  0  0  0  0  0  0
    3.1170    2.6839   -1.3001 H   0  0  0  0  0  0  0  0  0  0  0  0
    4.7698    2.7692   -0.6329 H   0  0  0  0  0  0  0  0  0  0  0  0
    3.4081    2.2133    0.4047 H   0  0  0  0  0  0  0  0  0  0  0  0
    4.5376    0.6950   -2.5298 C   0  0  0  0  0  0  0  0  0  0  0  0
    3.7146    1.0557   -3.1786 H   0  0  0  0  0  0  0  0  0  0  0  0
    4.7975   -0.3287   -2.8652 H   0  0  0  0  0  0  0  0  0  0  0  0
    5.4190    1.3486   -2.6971 H   0  0  0  0  0  0  0  0  0  0  0  0
    4.1728   -1.8916    1.9089 C   0  0  0  0  0  0  0  0  0  0  0  0
    4.0851   -0.8333    2.2214 H   0  0  0  0  0  0  0  0  0  0  0  0
    5.0969   -2.3177    2.3525 H   0  0  0  0  0  0  0  0  0  0  0  0
    3.3033   -2.4245    2.3422 H   0  0  0  0  0  0  0  0  0  0  0  0
    4.3161   -3.5333    0.0105 C   0  0  0  0  0  0  0  0  0  0  0  0
    3.5333   -4.1507    0.4934 H   0  0  0  0  0  0  0  0  0  0  0  0
    5.2964   -3.9234    0.3538 H   0  0  0  0  0  0  0  0  0  0  0  0
    4.2487   -3.6890   -1.0852 H   0  0  0  0  0  0  0  0  0  0  0  0
   -5.1738   -2.7746   -0.5148 C   0  0  0  0  0  0  0  0  0  0  0  0
   -5.7142   -1.8343   -0.7493 H   0  0  0  0  0  0  0  0  0  0  0  0
   -5.5236   -3.0927    0.4910 H   0  0  0  0  0  0  0  0  0  0  0  0
   -5.5371   -3.8525   -1.5473 C   0  0  0  0  0  0  0  0  0  0  0  0
   -6.6286   -4.0474   -1.5571 H   0  0  0  0  0  0  0  0  0  0  0  0
   -5.0237   -4.8108   -1.3269 H   0  0  0  0  0  0  0  0  0  0  0  0
   -5.2337   -3.5425   -2.5679 H   0  0  0  0  0  0  0  0  0  0  0  0
   -1.3878    3.3839    0.8800 C   0  0  0  0  0  0  0  0  0  0  0  0
   -1.6677    3.1167    2.3713 C   0  0  0  0  0  0  0  0  0  0  0  0
   -0.8589    2.5068    2.8268 H   0  0  0  0  0  0  0  0  0  0  0  0
   -2.6277    2.5813    2.5067 H   0  0  0  0  0  0  0  0  0  0  0  0
   -1.7134    4.0684    2.9381 H   0  0  0  0  0  0  0  0  0  0  0  0
   -0.0420    4.1242    0.7375 C   0  0  0  0  0  0  0  0  0  0  0  0
    0.1767    4.3477   -0.3254 H   0  0  0  0  0  0  0  0  0  0  0  0
    0.7820    3.4994    1.1363 H   0  0  0  0  0  0  0  0  0  0  0  0
   -0.0563    5.0838    1.2940 H   0  0  0  0  0  0  0  0  0  0  0  0
   -2.5257    4.2477    0.3061 C   0  0  0  0  0  0  0  0  0  0  0  0
   -2.3388    4.5077   -0.7562 H   0  0  0  0  0  0  0  0  0  0  0  0
   -2.6155    5.1988    0.8688 H   0  0  0  0  0  0  0  0  0  0  0  0
   -3.4947    3.7140    0.3703 H   0  0  0  0  0  0  0  0  0  0  0  0
   -0.4681    2.8849   -2.7219 C   0  0  0  0  0  0  0  0  0  0  0  0
   -0.9109    3.8986   -2.8052 H   0  0  0  0  0  0  0  0  0  0  0  0
   -0.4352    2.4463   -3.7410 H   0  0  0  0  0  0  0  0  0  0  0  0
    0.5714    3.0014   -2.3599 H   0  0  0  0  0  0  0  0  0  0  0  0
   -3.3199    1.9457   -2.1692 C   0  0  0  0  0  0  0  0  0  0  0  0
   -3.5819    3.0050   -2.3631 H   0  0  0  0  0  0  0  0  0  0  0  0
   -4.0255    1.5567   -1.4095 H   0  0  0  0  0  0  0  0  0  0  0  0
   -3.4695    1.3813   -3.1130 H   0  0  0  0  0  0  0  0  0  0  0  0
  1  2  1  0  0  0  0
  2 52  1  0  0  0  0
  3  1  1  1  0  0  0
  3  4  1  0  0  0  0
  3 28  1  0  0  0  0
  4 19  1  0  0  0  0
  5  4  2  0  0  0  0
  5  7  1  0  0  0  0
  6  5  1  0  0  0  0
  7 16  2  0  0  0  0
  8  7  1  0  0  0  0
  8 29  1  0  0  0  0
  8  9  1  0  0  0  0
  9 11  1  0  0  0  0
 10  9  1  0  0  0  0
 12  9  1  0  0  0  0
 12 13  1  0  0  0  0
 12 15  1  0  0  0  0
 14 12  1  0  0  0  0
 15 37  1  0  0  0  0
 16 17  1  0  0  0  0
 16 15  1  0  0  0  0
 17 18  1  0  0  0  0
 19 20  1  0  0  0  0
 19 17  2  0  0  0  0
 20 21  1  0  0  0  0
 21 22  1  0  0  0  0
 23 21  2  0  0  0  0
 23 24  1  0  0  0  0
 25 23  1  0  0  0  0
 26 28  1  0  0  0  0
 26 25  2  0  0  0  0
 27 26  1  0  0  0  0
 28 20  2  0  0  0  0
 29 32  1  0  0  0  0
 30 29  1  0  0  0  0
 31 29  1  0  0  0  0
 33  8  1  0  0  0  0
 34 33  1  0  0  0  0
 35 33  1  0  0  0  0
 36 33  1  0  0  0  0
 37 38  1  0  0  0  0
 37 40  1  0  0  0  0
 37 39  1  0  0  0  0
 41 43  1  0  0  0  0
 41 15  1  0  0  0  0
 41 42  1  0  0  0  0
 44 41  1  0  0  0  0
 45 25  1  0  0  0  0
 45 47  1  0  0  0  0
 46 45  1  0  0  0  0
 48 50  1  0  0  0  0
 48 45  1  0  0  0  0
 49 48  1  0  0  0  0
 51 48  1  0  0  0  0
 52 53  1  0  0  0  0
 53 55  1  0  0  0  0
 53 54  1  0  0  0  0
 53 56  1  0  0  0  0
 57 52  1  0  0  0  0
 57 59  1  0  0  0  0
 57 60  1  0  0  0  0
 58 57  1  0  0  0  0
 61 64  1  0  0  0  0
 61 63  1  0  0  0  0
 61 52  1  0  0  0  0
 62 61  1  0  0  0  0
 65 68  1  0  0  0  0
 65  1  1  0  0  0  0
 66 65  1  0  0  0  0
 67 65  1  0  0  0  0
 69  1  1  0  0  0  0
 69 71  1  0  0  0  0
 70 69  1  0  0  0  0
 72 69  1  0  0  0  0
M  END
