1,35
q = -1.0

 36 37  0  0  0  0  0  0  0  0999 V2000
   -0.9882   -0.0381   -0.3007 N   0  0  0  0  0  2  0  0  0  0  0  0
   -2.0340   -0.6948    0.0955 C   0  0  0  0  0  3  0  0  0  0  0  0
   -1.8151   -1.7078    0.4895 H   0  0  0  0  0  0  0  0  0  0  0  0
   -3.4285   -0.2128    0.0921 C   0  0  0  0  0  0  0  0  0  0  0  0
   -4.0890   -0.1519    1.3546 C   0  0  0  0  0  0  0  0  0  0  0  0
   -5.4182    0.2863    1.4000 C   0  0  0  0  0  0  0  0  0  0  0  0
   -5.9214    0.3527    2.3783 H   0  0  0  0  0  0  0  0  0  0  0  0
   -6.1265    0.6395    0.2324 C   0  0  0  0  0  0  0  0  0  0  0  0
   -5.4641    0.5338   -1.0002 C   0  0  0  0  0  0  0  0  0  0  0  0
   -6.0116    0.7752   -1.9257 H   0  0  0  0  0  0  0  0  0  0  0  0
   -4.1232    0.1131   -1.1007 C   0  0  0  0  0  0  0  0  0  0  0  0
   -3.3509   -0.5228    2.6165 C   0  0  0  0  0  0  0  0  0  0  0  0
   -2.9777   -1.5682    2.5788 H   0  0  0  0  0  0  0  0  0  0  0  0
   -4.0023   -0.4279    3.5057 H   0  0  0  0  0  0  0  0  0  0  0  0
   -2.4601    0.1202    2.7735 H   0  0  0  0  0  0  0  0  0  0  0  0
   -7.5568    1.1059    0.3189 C   0  0  0  0  0  0  0  0  0  0  0  0
   -7.9933    1.2810   -0.6829 H   0  0  0  0  0  0  0  0  0  0  0  0
   -7.6330    2.0530    0.8932 H   0  0  0  0  0  0  0  0  0  0  0  0
   -8.1909    0.3626    0.8448 H   0  0  0  0  0  0  0  0  0  0  0  0
   -3.4950   -0.0202   -2.4663 C   0  0  0  0  0  0  0  0  0  0  0  0
   -2.6068   -0.6800   -2.4639 H   0  0  0  0  0  0  0  0  0  0  0  0
   -3.1796    0.9687   -2.8625 H   0  0  0  0  0  0  0  0  0  0  0  0
   -4.2237   -0.4328   -3.1916 H   0  0  0  0  0  0  0  0  0  0  0  0
   -1.0560    1.3461   -0.7910 C   0  0  0  0  0  0  0  0  0  0  0  0
   -1.9589    1.8557   -0.3926 H   0  0  0  0  0  0  0  0  0  0  0  0
   -1.1688    1.2984   -1.8974 H   0  0  0  0  0  0  0  0  0  0  0  0
    0.2315    2.0398   -0.4368 C   0  0  0  0  0  0  0  0  0  0  0  0
    0.3480    3.4383   -0.4324 C   0  0  0  0  0  0  0  0  0  0  0  0
   -0.5284    4.0660   -0.6621 H   0  0  0  0  0  0  0  0  0  0  0  0
    1.5742    4.0504   -0.1367 C   0  0  0  0  0  0  0  0  0  0  0  0
    1.6797    5.1438   -0.1279 H   0  0  0  0  0  0  0  0  0  0  0  0
    2.6776    3.2330    0.1545 C   0  0  0  0  0  0  0  0  0  0  0  0
    2.5811    1.8324    0.1606 C   0  0  0  0  0  0  0  0  0  0  0  0
    3.4715    1.2232    0.3788 H   0  0  0  0  0  0  0  0  0  0  0  0
    1.3505    1.2163   -0.1343 C   0  0  0  0  0  3  0  0  0  0  0  0
    4.2169    3.9853    0.5240 Cl  0  0  0  0  0  0  0  0  0  0  0  0
  1  2  1  0  0  0  0
  2  3  1  0  0  0  0
  4  2  1  0  0  0  0
  4  5  1  0  0  0  0
  5  6  2  0  0  0  0
  5 12  1  0  0  0  0
  6  7  1  0  0  0  0
  8 16  1  0  0  0  0
  8  6  1  0  0  0  0
  9  8  2  0  0  0  0
 10  9  1  0  0  0  0
 11  9  1  0  0  0  0
 11  4  2  0  0  0  0
 12 15  1  0  0  0  0
 12 14  1  0  0  0  0
 13 12  1  0  0  0  0
 16 19  1  0  0  0  0
 16 18  1  0  0  0  0
 17 16  1  0  0  0  0
 20 21  1  0  0  0  0
 20 11  1  0  0  0  0
 22 20  1  0  0  0  0
 23 20  1  0  0  0  0
 24 27  1  0  0  0  0
 24 25  1  0  0  0  0
 24  1  1  0  0  0  0
 26 24  1  0  0  0  0
 27 28  2  0  0  0  0
 27 35  1  0  0  0  0
 28 30  1  0  0  0  0
 29 28  1  0  0  0  0
 30 31  1  0  0  0  0
 30 32  2  0  0  0  0
 32 33  1  0  0  0  0
 32 36  1  0  0  0  0
 33 34  1  0  0  0  0
 35 33  2  0  0  0  0
M  END
