3,4
q = -1.0

 27 28  0  0  0  0  0  0  0  0999 V2000
    4.7777   -2.9684    1.3292 Cl  0  0  0  0  0  0  0  0  0  0  0  0
   -6.3670   -1.0873    2.0271 Cl  0  0  0  0  0  0  0  0  0  0  0  0
   -0.6613   -0.5121   -1.4766 N   0  0  0  0  0  2  0  0  0  0  0  0
    1.5910   -1.0485   -0.2063 C   0  0  0  0  0  2  0  0  0  0  0  0
    2.7773   -1.3312    0.4853 C   0  0  0  0  0  0  0  0  0  0  0  0
    3.3011   -0.5388    1.0430 H   0  0  0  0  0  0  0  0  0  0  0  0
    3.3014   -2.6379    0.4618 C   0  0  0  0  0  0  0  0  0  0  0  0
    2.6801   -3.6931   -0.2358 C   0  0  0  0  0  0  0  0  0  0  0  0
    3.1263   -4.6965   -0.2255 H   0  0  0  0  0  0  0  0  0  0  0  0
    1.4973   -3.4245   -0.9269 C   0  0  0  0  0  0  0  0  0  0  0  0
    0.9871   -4.2294   -1.4791 H   0  0  0  0  0  0  0  0  0  0  0  0
    0.9531   -2.1223   -0.9139 C   0  0  0  0  0  0  0  0  0  0  0  0
   -0.2697   -1.7561   -1.5728 C   0  0  0  0  0  0  0  0  0  0  0  0
   -0.8830   -2.4889   -2.1307 H   0  0  0  0  0  0  0  0  0  0  0  0
   -1.9569   -0.0887   -2.0286 C   0  0  0  0  0  0  0  0  0  0  0  0
   -2.1508   -0.6636   -2.9583 H   0  0  0  0  0  0  0  0  0  0  0  0
   -1.8710    0.9862   -2.2771 H   0  0  0  0  0  0  0  0  0  0  0  0
   -3.0814   -0.3156   -1.0361 C   0  0  0  0  0  0  0  0  0  0  0  0
   -3.3336    0.6149   -0.0080 C   0  0  0  0  0  0  0  0  0  0  0  0
   -2.7249    1.5320    0.0421 H   0  0  0  0  0  0  0  0  0  0  0  0
   -4.3425    0.3823    0.9357 C   0  0  0  0  0  0  0  0  0  0  0  0
   -4.5436    1.1081    1.7363 H   0  0  0  0  0  0  0  0  0  0  0  0
   -5.1082   -0.7924    0.8540 C   0  0  0  0  0  0  0  0  0  0  0  0
   -4.8770   -1.7314   -0.1639 C   0  0  0  0  0  0  0  0  0  0  0  0
   -5.4919   -2.6406   -0.2185 H   0  0  0  0  0  0  0  0  0  0  0  0
   -3.8628   -1.4853   -1.0995 C   0  0  0  0  0  0  0  0  0  0  0  0
   -3.6868   -2.2194   -1.9024 H   0  0  0  0  0  0  0  0  0  0  0  0
  4  5  1  0  0  0  0
  5  6  1  0  0  0  0
  7  5  2  0  0  0  0
  7  1  1  0  0  0  0
  8  9  1  0  0  0  0
  8  7  1  0  0  0  0
 10 12  1  0  0  0  0
 10  8  2  0  0  0  0
 11 10  1  0  0  0  0
 12  4  1  0  0  0  0
 13  3  1  0  0  0  0
 13 12  2  0  0  0  0
 14 13  1  0  0  0  0
 15  3  1  0  0  0  0
 15 18  1  0  0  0  0
 16 15  1  0  0  0  0
 17 15  1  0  0  0  0
 18 19  1  0  0  0  0
 19 20  1  0  0  0  0
 19 21  2  0  0  0  0
 21 22  1  0  0  0  0
 23 21  1  0  0  0  0
 23  2  1  0  0  0  0
 24 23  2  0  0  0  0
 25 24  1  0  0  0  0
 26 18  2  0  0  0  0
 26 24  1  0  0  0  0
 27 26  1  0  0  0  0
M  END
