3,14
q = -1.0

 42 43  0  0  1  0  0  0  0  0999 V2000
    0.5505   -2.5435   -1.4777 O   0  0  0  0  0  0  0  0  0  0  0  0
    2.7802   -2.5375   -1.0880 O   0  0  0  0  0  0  0  0  0  0  0  0
    0.5872   -0.1107    0.1522 N   0  0  0  0  0  2  0  0  0  0  0  0
    1.1097    1.0930    0.0165 C   0  0  2  0  0  3  0  0  0  0  0  0
    0.1990    2.2159   -0.1769 C   0  0  0  0  0  0  0  0  0  0  0  0
    0.6679    3.5443   -0.3352 C   0  0  0  0  0  0  0  0  0  0  0  0
    1.7484    3.7522   -0.3241 H   0  0  0  0  0  0  0  0  0  0  0  0
   -0.2476    4.5846   -0.5095 C   0  0  0  0  0  0  0  0  0  0  0  0
    0.1060    5.6192   -0.6314 H   0  0  0  0  0  0  0  0  0  0  0  0
   -1.6252    4.2953   -0.5318 C   0  0  0  0  0  0  0  0  0  0  0  0
   -2.3512    5.1128   -0.6683 H   0  0  0  0  0  0  0  0  0  0  0  0
   -2.0849    2.9753   -0.3877 C   0  0  0  0  0  0  0  0  0  0  0  0
   -3.1698    2.7869   -0.4188 H   0  0  0  0  0  0  0  0  0  0  0  0
   -1.1937    1.8976   -0.2077 C   0  0  0  0  0  3  0  0  0  0  0  0
    1.4784   -1.2494    0.4004 C   0  0  2  0  0  0  0  0  0  0  0  0
    2.5190   -0.8886    0.5183 H   0  0  0  0  0  0  0  0  0  0  0  0
    1.5026   -2.1715   -0.8207 C   0  0  0  0  0  0  0  0  0  0  0  0
    2.9382   -3.4556   -2.1798 C   0  0  0  0  0  0  0  0  0  0  0  0
    4.0231   -3.6405   -2.2684 H   0  0  0  0  0  0  0  0  0  0  0  0
    2.5372   -3.0220   -3.1176 H   0  0  0  0  0  0  0  0  0  0  0  0
    2.3979   -4.4022   -1.9770 H   0  0  0  0  0  0  0  0  0  0  0  0
    1.1148   -1.9945    1.7139 C   0  0  0  0  0  0  0  0  0  0  0  0
    0.0255   -2.2000    1.6783 H   0  0  0  0  0  0  0  0  0  0  0  0
    1.4009   -1.0813    2.9102 C   0  0  0  0  0  0  0  0  0  0  0  0
    0.8814   -0.1075    2.8171 H   0  0  0  0  0  0  0  0  0  0  0  0
    2.4888   -0.8792    3.0025 H   0  0  0  0  0  0  0  0  0  0  0  0
    1.0592   -1.5516    3.8536 H   0  0  0  0  0  0  0  0  0  0  0  0
    1.8514   -3.3328    1.8312 C   0  0  0  0  0  0  0  0  0  0  0  0
    1.6298   -3.8044    2.8091 H   0  0  0  0  0  0  0  0  0  0  0  0
    2.9508   -3.2012    1.7579 H   0  0  0  0  0  0  0  0  0  0  0  0
    1.5380   -4.0462    1.0428 H   0  0  0  0  0  0  0  0  0  0  0  0
    2.5856    1.3341    0.0427 C   0  0  0  0  0  0  0  0  0  0  0  0
    3.1941    1.8939    1.1846 C   0  0  0  0  0  0  0  0  0  0  0  0
    2.5760    2.1378    2.0617 H   0  0  0  0  0  0  0  0  0  0  0  0
    4.5768    2.1296    1.2024 C   0  0  0  0  0  0  0  0  0  0  0  0
    5.0451    2.5597    2.1006 H   0  0  0  0  0  0  0  0  0  0  0  0
    5.3594    1.8217    0.0783 C   0  0  0  0  0  0  0  0  0  0  0  0
    6.4435    2.0102    0.0929 H   0  0  0  0  0  0  0  0  0  0  0  0
    4.7559    1.2759   -1.0658 C   0  0  0  0  0  0  0  0  0  0  0  0
    5.3645    1.0375   -1.9511 H   0  0  0  0  0  0  0  0  0  0  0  0
    3.3753    1.0317   -1.0857 C   0  0  0  0  0  0  0  0  0  0  0  0
    2.9001    0.6025   -1.9807 H   0  0  0  0  0  0  0  0  0  0  0  0
  1 17  2  0  0  0  0
  2 17  1  0  0  0  0
  3 15  1  0  0  0  0
  4 32  1  0  0  0  0
  4  3  1  6  0  0  0
  5  4  1  0  0  0  0
  6  7  1  0  0  0  0
  6  5  2  0  0  0  0
  8  6  1  0  0  0  0
  9  8  1  0  0  0  0
 10  8  2  0  0  0  0
 10 12  1  0  0  0  0
 11 10  1  0  0  0  0
 12 14  2  0  0  0  0
 13 12  1  0  0  0  0
 14  5  1  0  0  0  0
 15 16  1  1  0  0  0
 15 22  1  0  0  0  0
 17 15  1  0  0  0  0
 18 21  1  0  0  0  0
 18  2  1  0  0  0  0
 19 18  1  0  0  0  0
 20 18  1  0  0  0  0
 22 28  1  0  0  0  0
 22 24  1  0  0  0  0
 23 22  1  0  0  0  0
 24 26  1  0  0  0  0
 24 27  1  0  0  0  0
 25 24  1  0  0  0  0
 28 29  1  0  0  0  0
 30 28  1  0  0  0  0
 31 28  1  0  0  0  0
 32 33  1  0  0  0  0
 33 35  2  0  0  0  0
 33 34  1  0  0  0  0
 35 36  1  0  0  0  0
 37 38  1  0  0  0  0
 37 35  1  0  0  0  0
 39 37  2  0  0  0  0
 40 39  1  0  0  0  0
 41 39  1  0  0  0  0
 41 32  2  0  0  0  0
 42 41  1  0  0  0  0
M  END
