1,12
q = -1.0

 19 20  0  0  0  0  0  0  0  0999 V2000
    0.8204    1.5860    0.0586 N   0  0  0  0  0  2  0  0  0  0  0  0
    0.3295    2.8027    0.3579 C   0  0  0  0  0  3  0  0  0  0  0  0
   -0.7593    2.9160    0.2880 H   0  0  0  0  0  0  0  0  0  0  0  0
    1.1421    3.8715    0.7471 C   0  0  0  0  0  0  0  0  0  0  0  0
    0.6874    4.8433    0.9851 H   0  0  0  0  0  0  0  0  0  0  0  0
    2.5306    3.6662    0.8280 C   0  0  0  0  0  0  0  0  0  0  0  0
    3.2004    4.4832    1.1361 H   0  0  0  0  0  0  0  0  0  0  0  0
    3.0449    2.4092    0.5088 C   0  0  0  0  0  0  0  0  0  0  0  0
    4.1157    2.1645    0.5426 H   0  0  0  0  0  0  0  0  0  0  0  0
    2.1649    1.3817    0.1189 C   0  0  0  0  0  0  0  0  0  0  0  0
    2.6261    0.0326   -0.2383 C   0  0  0  0  0  0  0  0  0  0  0  0
    1.6399   -0.9152   -0.6234 C   0  0  0  0  0  3  0  0  0  0  0  0
    2.1079   -2.2128   -0.8964 C   0  0  0  0  0  0  0  0  0  0  0  0
    1.4093   -3.0178   -1.1675 H   0  0  0  0  0  0  0  0  0  0  0  0
    3.4793   -2.4898   -0.8048 C   0  0  0  0  0  0  0  0  0  0  0  0
    3.8653   -3.5002   -1.0103 H   0  0  0  0  0  0  0  0  0  0  0  0
    4.3626   -1.4566   -0.4391 C   0  0  0  0  0  0  0  0  0  0  0  0
    5.4485   -1.6454   -0.3681 H   0  0  0  0  0  0  0  0  0  0  0  0
    3.9486   -0.2195   -0.1538 N   0  0  0  0  0  0  0  0  0  0  0  0
  1 10  1  0  0  0  0
  1  2  1  0  0  0  0
  2  4  1  0  0  0  0
  3  2  1  0  0  0  0
  4  6  2  0  0  0  0
  4  5  1  0  0  0  0
  6  7  1  0  0  0  0
  8  9  1  0  0  0  0
  8  6  1  0  0  0  0
 10  8  2  0  0  0  0
 11 19  1  0  0  0  0
 11 10  1  0  0  0  0
 12 11  2  0  0  0  0
 13 15  2  0  0  0  0
 13 12  1  0  0  0  0
 14 13  1  0  0  0  0
 15 17  1  0  0  0  0
 16 15  1  0  0  0  0
 17 18  1  0  0  0  0
 17 19  2  0  0  0  0
M  END
