1,3
q = -1.0

 25 26  0  0  1  0  0  0  0  0999 V2000
    0.1509   -1.2711   -1.5943 N   0  0  0  0  0  2  0  0  0  0  0  0
    3.2654   -3.3566    1.3871 N   0  0  0  0  0  0  0  0  0  0  0  0
    1.4954   -1.2906    0.6276 C   0  0  0  0  0  3  0  0  0  0  0  0
    2.2509   -1.2100    1.8106 C   0  0  0  0  0  0  0  0  0  0  0  0
    2.1615   -0.3345    2.4710 H   0  0  0  0  0  0  0  0  0  0  0  0
    3.1244   -2.2528    2.1535 C   0  0  0  0  0  0  0  0  0  0  0  0
    2.5749   -3.4706    0.2426 C   0  0  0  0  0  0  0  0  0  0  0  0
    1.6792   -2.4493   -0.2008 C   0  0  0  0  0  0  0  0  0  0  0  0
    0.9138   -2.4160   -1.4502 C   0  0  2  0  0  3  0  0  0  0  0  0
    0.8901   -3.3668   -2.4963 C   0  0  0  0  0  0  0  0  0  0  0  0
    1.4781   -4.2836   -2.4073 H   0  0  0  0  0  0  0  0  0  0  0  0
    0.1257   -3.1455   -3.6454 C   0  0  0  0  0  0  0  0  0  0  0  0
    0.1192   -3.8956   -4.4503 H   0  0  0  0  0  0  0  0  0  0  0  0
   -0.6236   -1.9645   -3.7621 C   0  0  0  0  0  0  0  0  0  0  0  0
   -1.2336   -1.7467   -4.6494 H   0  0  0  0  0  0  0  0  0  0  0  0
   -0.5817   -1.0523   -2.7074 C   0  0  0  0  0  0  0  0  0  0  0  0
   -1.1403   -0.1047   -2.7211 H   0  0  0  0  0  0  0  0  0  0  0  0
    3.9631   -2.2090    3.4043 C   0  0  0  0  0  0  0  0  0  0  0  0
    3.7786   -1.2947    3.9994 H   0  0  0  0  0  0  0  0  0  0  0  0
    3.7574   -3.0993    4.0333 H   0  0  0  0  0  0  0  0  0  0  0  0
    5.0404   -2.2547    3.1421 H   0  0  0  0  0  0  0  0  0  0  0  0
    2.8336   -4.7609   -0.4999 C   0  0  0  0  0  0  0  0  0  0  0  0
    3.3063   -4.5864   -1.4894 H   0  0  0  0  0  0  0  0  0  0  0  0
    1.9041   -5.3433   -0.6684 H   0  0  0  0  0  0  0  0  0  0  0  0
    3.5254   -5.3662    0.1128 H   0  0  0  0  0  0  0  0  0  0  0  0
  1  9  1  0  0  0  0
  2  6  1  0  0  0  0
  3  4  1  0  0  0  0
  4  6  2  0  0  0  0
  4  5  1  0  0  0  0
  6 18  1  0  0  0  0
  7  2  2  0  0  0  0
  8  7  1  0  0  0  0
  8  3  2  0  0  0  0
  9  8  1  6  0  0  0
 10 11  1  0  0  0  0
 10  9  1  0  0  0  0
 12 10  2  0  0  0  0
 13 12  1  0  0  0  0
 14 12  1  0  0  0  0
 14 16  2  0  0  0  0
 15 14  1  0  0  0  0
 16  1  1  0  0  0  0
 17 16  1  0  0  0  0
 18 19  1  0  0  0  0
 18 20  1  0  0  0  0
 21 18  1  0  0  0  0
 22 25  1  0  0  0  0
 22  7  1  0  0  0  0
 23 22  1  0  0  0  0
 24 22  1  0  0  0  0
M  END
