1,7
q = -1.0

 21 22  0  0  0  0  0  0  0  0999 V2000
   -1.2386   -1.0321   -0.0002 N   0  0  0  0  0  2  0  0  0  0  0  0
   -1.5591   -2.3211    0.0001 C   0  0  0  0  0  3  0  0  0  0  0  0
   -2.9179   -2.4547    0.0007 N   0  0  0  0  0  0  0  0  0  0  0  0
   -3.4754   -1.1810    0.0005 C   0  0  0  0  0  0  0  0  0  0  0  0
   -2.4150   -0.2850    0.0000 C   0  0  0  0  0  0  0  0  0  0  0  0
   -3.6549   -3.7043   -0.0008 C   0  0  0  0  0  0  0  0  0  0  0  0
   -0.8302    1.5338   -0.0000 C   0  0  0  0  0  2  0  0  0  0  0  0
   -2.2099    1.1568    0.0001 C   0  0  0  0  0  0  0  0  0  0  0  0
   -3.2243    2.1336    0.0002 C   0  0  0  0  0  0  0  0  0  0  0  0
   -2.8792    3.4924    0.0002 C   0  0  0  0  0  0  0  0  0  0  0  0
   -1.5243    3.8707    0.0001 C   0  0  0  0  0  0  0  0  0  0  0  0
   -0.5066    2.8993    0.0000 C   0  0  0  0  0  3  0  0  0  0  0  0
   -0.8465   -3.1533    0.0001 H   0  0  0  0  0  0  0  0  0  0  0  0
   -4.5584   -1.0282    0.0009 H   0  0  0  0  0  0  0  0  0  0  0  0
   -4.2842    1.8314    0.0003 H   0  0  0  0  0  0  0  0  0  0  0  0
   -3.6679    4.2599    0.0003 H   0  0  0  0  0  0  0  0  0  0  0  0
   -1.2570    4.9397    0.0001 H   0  0  0  0  0  0  0  0  0  0  0  0
    0.5534    3.1967   -0.0001 H   0  0  0  0  0  0  0  0  0  0  0  0
   -4.3020   -3.7788    0.8962 H   0  0  0  0  0  0  0  0  0  0  0  0
   -2.9409   -4.5478    0.0078 H   0  0  0  0  0  0  0  0  0  0  0  0
   -4.2885   -3.7854   -0.9069 H   0  0  0  0  0  0  0  0  0  0  0  0
  1  5  1  0  0  0  0
  1  2  1  0  0  0  0
  2 13  1  0  0  0  0
  2  3  1  0  0  0  0
  4  3  1  0  0  0  0
  4 14  1  0  0  0  0
  5  8  1  0  0  0  0
  5  4  2  0  0  0  0
  6  3  1  0  0  0  0
  6 20  1  0  0  0  0
  6 19  1  0  0  0  0
  7 12  1  0  0  0  0
  7  8  1  0  0  0  0
  8  9  2  0  0  0  0
  9 10  1  0  0  0  0
  9 15  1  0  0  0  0
 10 16  1  0  0  0  0
 11 17  1  0  0  0  0
 11 10  2  0  0  0  0
 12 11  1  0  0  0  0
 18 12  1  0  0  0  0
 21  6  1  0  0  0  0
M  END
