2,19
q = -1.0

 27 28  0  0  0  0  0  0  0  0999 V2000
    0.1288    3.1479   -3.9556 O   0  0  0  0  0  0  0  0  0  0  0  0
    1.8903   -0.5592    0.7575 N   0  0  0  0  0  2  0  0  0  0  0  0
    2.2576   -1.2818    1.8375 C   0  0  0  0  0  3  0  0  0  0  0  0
    1.4508   -1.8733    2.2951 H   0  0  0  0  0  0  0  0  0  0  0  0
    3.5591   -1.2706    2.3386 C   0  0  0  0  0  0  0  0  0  0  0  0
    3.8133   -1.8755    3.2196 H   0  0  0  0  0  0  0  0  0  0  0  0
    4.5096   -0.4730    1.6804 C   0  0  0  0  0  0  0  0  0  0  0  0
    5.5508   -0.4338    2.0346 H   0  0  0  0  0  0  0  0  0  0  0  0
    4.1281    0.2804    0.5680 C   0  0  0  0  0  0  0  0  0  0  0  0
    4.8708    0.9035    0.0652 H   0  0  0  0  0  0  0  0  0  0  0  0
    2.7940    0.2526    0.0900 C   0  0  0  0  0  0  0  0  0  0  0  0
    2.2025    1.0061   -1.0138 C   0  0  0  0  0  0  0  0  0  0  0  0
    2.8748    1.9318   -1.8795 C   0  0  0  0  0  0  0  0  0  0  0  0
    2.1279    2.6098   -2.8471 C   0  0  0  0  0  0  0  0  0  0  0  0
    2.6144    3.3257   -3.5253 H   0  0  0  0  0  0  0  0  0  0  0  0
    0.7362    2.4097   -2.9863 C   0  0  0  0  0  0  0  0  0  0  0  0
    0.0738    1.4938   -2.1548 C   0  0  0  0  0  0  0  0  0  0  0  0
   -1.0056    1.3266   -2.2557 H   0  0  0  0  0  0  0  0  0  0  0  0
    0.7920    0.7764   -1.1804 C   0  0  0  0  0  3  0  0  0  0  0  0
    4.3547    2.2305   -1.8270 C   0  0  0  0  0  0  0  0  0  0  0  0
    4.9717    1.3169   -1.9539 H   0  0  0  0  0  0  0  0  0  0  0  0
    4.6541    2.7007   -0.8667 H   0  0  0  0  0  0  0  0  0  0  0  0
    4.6326    2.9330   -2.6355 H   0  0  0  0  0  0  0  0  0  0  0  0
   -1.2670    2.9942   -4.1327 C   0  0  0  0  0  0  0  0  0  0  0  0
   -1.5377    1.9517   -4.4139 H   0  0  0  0  0  0  0  0  0  0  0  0
   -1.5560    3.6767   -4.9536 H   0  0  0  0  0  0  0  0  0  0  0  0
   -1.8337    3.2674   -3.2146 H   0  0  0  0  0  0  0  0  0  0  0  0
  1 16  1  0  0  0  0
  2  3  1  0  0  0  0
  3  4  1  0  0  0  0
  3  5  1  0  0  0  0
  5  6  1  0  0  0  0
  7  8  1  0  0  0  0
  7  5  2  0  0  0  0
  9  7  1  0  0  0  0
 10  9  1  0  0  0  0
 11  9  2  0  0  0  0
 11  2  1  0  0  0  0
 12 11  1  0  0  0  0
 13 20  1  0  0  0  0
 13 12  2  0  0  0  0
 14 13  1  0  0  0  0
 15 14  1  0  0  0  0
 16 14  2  0  0  0  0
 16 17  1  0  0  0  0
 17 19  2  0  0  0  0
 18 17  1  0  0  0  0
 19 12  1  0  0  0  0
 20 22  1  0  0  0  0
 21 20  1  0  0  0  0
 23 20  1  0  0  0  0
 24  1  1  0  0  0  0
 24 27  1  0  0  0  0
 25 24  1  0  0  0  0
 26 24  1  0  0  0  0
M  END
