1,3
q = -1.0, confidence = 0.002

 24 24  0  0  0  0  0  0  0  0999 V2000
   -3.0390    0.7807   -0.8029 N   0  0  0  0  0  2  0  0  0  0  0  0
   -3.8060   -1.6073    0.7779 O   0  0  0  0  0  0  0  0  0  0  0  0
   -0.8603    2.2083   -0.1009 C   0  0  0  0  0  2  0  0  0  0  0  0
    0.2378    2.9955    0.2760 C   0  0  0  0  0  0  0  0  0  0  0  0
    1.2187    2.5466    0.4818 H   0  0  0  0  0  0  0  0  0  0  0  0
    0.1243    4.3961    0.3985 C   0  0  0  0  0  0  0  0  0  0  0  0
    1.0095    4.9783    0.6976 H   0  0  0  0  0  0  0  0  0  0  0  0
   -1.0893    5.0529    0.1456 C   0  0  0  0  0  0  0  0  0  0  0  0
   -1.1625    6.1457    0.2418 H   0  0  0  0  0  0  0  0  0  0  0  0
   -2.2058    4.2972   -0.2290 C   0  0  0  0  0  0  0  0  0  0  0  0
   -3.1709    4.7875   -0.4313 H   0  0  0  0  0  0  0  0  0  0  0  0
   -2.0959    2.8949   -0.3476 C   0  0  0  0  0  0  0  0  0  0  0  0
   -3.2209    2.0662   -0.7102 C   0  0  0  0  0  0  0  0  0  0  0  0
   -4.2213    2.5080   -0.8970 H   0  0  0  0  0  0  0  0  0  0  0  0
   -4.1602   -0.1066   -1.0770 C   0  0  0  0  0  0  0  0  0  0  0  0
   -3.8223   -0.9062   -1.7658 H   0  0  0  0  0  0  0  0  0  0  0  0
   -4.9754    0.4561   -1.5823 H   0  0  0  0  0  0  0  0  0  0  0  0
   -4.7427   -0.7382    0.1872 C   0  0  0  0  0  0  0  0  0  0  0  0
   -5.0397    0.0734    0.8983 H   0  0  0  0  0  0  0  0  0  0  0  0
   -5.6795   -1.2835   -0.0921 H   0  0  0  0  0  0  0  0  0  0  0  0
   -4.2656   -2.1640    1.9933 C   0  0  0  0  0  0  0  0  0  0  0  0
   -4.4837   -1.3781    2.7545 H   0  0  0  0  0  0  0  0  0  0  0  0
   -3.4643   -2.8201    2.3838 H   0  0  0  0  0  0  0  0  0  0  0  0
   -5.1913   -2.7711    1.8499 H   0  0  0  0  0  0  0  0  0  0  0  0
  1 13  1  0  0  0  0
  2 21  1  0  0  0  0
  3  4  1  0  0  0  0
  4  6  2  0  0  0  0
  4  5  1  0  0  0  0
  6  7  1  0  0  0  0
  8  9  1  0  0  0  0
  8  6  1  0  0  0  0
 10  8  2  0  0  0  0
 11 10  1  0  0  0  0
 12 10  1  0  0  0  0
 12  3  1  0  0  0  0
 13 12  2  0  0  0  0
 14 13  1  0  0  0  0
 15  1  1  0  0  0  0
 15 18  1  0  0  0  0
 16 15  1  0  0  0  0
 17 15  1  0  0  0  0
 18  2  1  0  0  0  0
 18 19  1  0  0  0  0
 20 18  1  0  0  0  0
 21 23  1  0  0  0  0
 21 22  1  0  0  0  0
 24 21  1  0  0  0  0
M  END
