1,6
q = -1.0

 32 32  0  0  0  0  0  0  0  0999 V2000
   -1.4293   -1.6155   -0.0515 N   0  0  0  0  0  2  0  0  0  0  0  0
   -3.5533    0.6125    0.3002 O   0  0  0  0  0  0  0  0  0  0  0  0
   -3.7183    1.4874   -0.1163 H   0  0  0  0  0  0  0  0  0  0  0  0
    4.6030   -1.0466    0.0347 O   0  0  0  0  0  0  0  0  0  0  0  0
    3.9842    1.4675   -0.0097 O   0  0  0  0  0  0  0  0  0  0  0  0
    0.5521    0.0820   -0.0259 C   0  0  0  0  0  2  0  0  0  0  0  0
    1.5814    1.0329   -0.0308 C   0  0  0  0  0  0  0  0  0  0  0  0
    1.3158    2.0979   -0.0478 H   0  0  0  0  0  0  0  0  0  0  0  0
    2.9289    0.6225   -0.0098 C   0  0  0  0  0  0  0  0  0  0  0  0
    3.2690   -0.7733    0.0143 C   0  0  0  0  0  0  0  0  0  0  0  0
    2.2474   -1.7240    0.0132 C   0  0  0  0  0  0  0  0  0  0  0  0
    2.4828   -2.7972    0.0261 H   0  0  0  0  0  0  0  0  0  0  0  0
    0.8900   -1.3064   -0.0090 C   0  0  0  0  0  0  0  0  0  0  0  0
   -0.2442   -2.1839   -0.0531 C   0  0  0  0  0  0  0  0  0  0  0  0
   -0.1504   -3.2862   -0.1240 H   0  0  0  0  0  0  0  0  0  0  0  0
   -2.6458   -2.3688   -0.3018 C   0  0  0  0  0  0  0  0  0  0  0  0
   -2.5169   -3.4181    0.0488 H   0  0  0  0  0  0  0  0  0  0  0  0
   -2.8039   -2.4203   -1.4056 H   0  0  0  0  0  0  0  0  0  0  0  0
   -3.9096   -1.7729    0.3351 C   0  0  0  0  0  0  0  0  0  0  0  0
   -4.7303   -2.5042    0.1800 H   0  0  0  0  0  0  0  0  0  0  0  0
   -3.7762   -1.6733    1.4334 H   0  0  0  0  0  0  0  0  0  0  0  0
   -4.3828   -0.4308   -0.2216 C   0  0  0  0  0  0  0  0  0  0  0  0
   -4.3598   -0.4421   -1.3364 H   0  0  0  0  0  0  0  0  0  0  0  0
   -5.4324   -0.2487    0.0990 H   0  0  0  0  0  0  0  0  0  0  0  0
    3.7269    2.8624   -0.0334 C   0  0  0  0  0  0  0  0  0  0  0  0
    3.1688    3.1619   -0.9474 H   0  0  0  0  0  0  0  0  0  0  0  0
    4.7149    3.3584   -0.0292 H   0  0  0  0  0  0  0  0  0  0  0  0
    3.1476    3.1886    0.8579 H   0  0  0  0  0  0  0  0  0  0  0  0
    4.9924   -2.4021    0.0616 C   0  0  0  0  0  0  0  0  0  0  0  0
    4.6118   -2.9276    0.9678 H   0  0  0  0  0  0  0  0  0  0  0  0
    6.0982   -2.4128    0.0788 H   0  0  0  0  0  0  0  0  0  0  0  0
    4.6399   -2.9557   -0.8392 H   0  0  0  0  0  0  0  0  0  0  0  0
  3  2  1  0  0  0  0
  4 29  1  0  0  0  0
  6 13  1  0  0  0  0
  7  6  1  0  0  0  0
  7  9  2  0  0  0  0
  8  7  1  0  0  0  0
  9  5  1  0  0  0  0
  9 10  1  0  0  0  0
 10  4  1  0  0  0  0
 11 10  2  0  0  0  0
 11 12  1  0  0  0  0
 13 11  1  0  0  0  0
 14  1  1  0  0  0  0
 14 13  2  0  0  0  0
 15 14  1  0  0  0  0
 16  1  1  0  0  0  0
 16 17  1  0  0  0  0
 16 19  1  0  0  0  0
 18 16  1  0  0  0  0
 19 21  1  0  0  0  0
 20 19  1  0  0  0  0
 22 24  1  0  0  0  0
 22  2  1  0  0  0  0
 22 19  1  0  0  0  0
 23 22  1  0  0  0  0
 25 27  1  0  0  0  0
 25  5  1  0  0  0  0
 25 28  1  0  0  0  0
 26 25  1  0  0  0  0
 29 31  1  0  0  0  0
 29 30  1  0  0  0  0
 32 29  1  0  0  0  0
M  END
