3,4
q = -1.0

 24 24  0  0  0  0  0  0  0  0999 V2000
   -2.6264    0.6512    0.2875 O   0  0  0  0  0  0  0  0  0  0  0  0
   -2.7968    1.5245   -0.1310 H   0  0  0  0  0  0  0  0  0  0  0  0
   -0.4885   -1.5656   -0.0496 N   0  0  0  0  0  2  0  0  0  0  0  0
    1.4847    0.1464   -0.0173 C   0  0  0  0  0  2  0  0  0  0  0  0
    2.5194    1.0940   -0.0218 C   0  0  0  0  0  0  0  0  0  0  0  0
    2.2721    2.1649   -0.0487 H   0  0  0  0  0  0  0  0  0  0  0  0
    3.8600    0.6652    0.0110 C   0  0  0  0  0  0  0  0  0  0  0  0
    4.6641    1.4184    0.0093 H   0  0  0  0  0  0  0  0  0  0  0  0
    4.1939   -0.7029    0.0459 C   0  0  0  0  0  0  0  0  0  0  0  0
    5.2491   -1.0130    0.0712 H   0  0  0  0  0  0  0  0  0  0  0  0
    3.1776   -1.6642    0.0458 C   0  0  0  0  0  0  0  0  0  0  0  0
    3.4208   -2.7386    0.0676 H   0  0  0  0  0  0  0  0  0  0  0  0
    1.8282   -1.2468    0.0131 C   0  0  0  0  0  0  0  0  0  0  0  0
    0.6913   -2.1336   -0.0319 C   0  0  0  0  0  0  0  0  0  0  0  0
    0.7906   -3.2358   -0.0913 H   0  0  0  0  0  0  0  0  0  0  0  0
   -1.7056   -2.3274   -0.2884 C   0  0  0  0  0  0  0  0  0  0  0  0
   -1.5684   -3.3735    0.0667 H   0  0  0  0  0  0  0  0  0  0  0  0
   -1.8598   -2.3822   -1.3917 H   0  0  0  0  0  0  0  0  0  0  0  0
   -2.9706   -1.7332    0.3467 C   0  0  0  0  0  0  0  0  0  0  0  0
   -3.7856   -2.4724    0.2004 H   0  0  0  0  0  0  0  0  0  0  0  0
   -2.8352   -1.6238    1.4437 H   0  0  0  0  0  0  0  0  0  0  0  0
   -3.4544   -0.3993   -0.2205 C   0  0  0  0  0  0  0  0  0  0  0  0
   -3.4384   -0.4208   -1.3352 H   0  0  0  0  0  0  0  0  0  0  0  0
   -4.5029   -0.2201    0.1049 H   0  0  0  0  0  0  0  0  0  0  0  0
  2  1  1  0  0  0  0
  3 14  1  0  0  0  0
  4 13  1  0  0  0  0
  5  4  1  0  0  0  0
  5  7  2  0  0  0  0
  6  5  1  0  0  0  0
  7  9  1  0  0  0  0
  8  7  1  0  0  0  0
  9 10  1  0  0  0  0
 11  9  2  0  0  0  0
 11 12  1  0  0  0  0
 13 11  1  0  0  0  0
 14 13  2  0  0  0  0
 15 14  1  0  0  0  0
 16  3  1  0  0  0  0
 16 17  1  0  0  0  0
 16 19  1  0  0  0  0
 18 16  1  0  0  0  0
 19 21  1  0  0  0  0
 20 19  1  0  0  0  0
 22 24  1  0  0  0  0
 22  1  1  0  0  0  0
 22 19  1  0  0  0  0
 23 22  1  0  0  0  0
M  END
