7,41
q = -1.0

 41 43  0  0  1  0  0  0  0  0999 V2000
    4.9663   -0.1404   -0.4222 C   0  0  0  0  0  0  0  0  0  0  0  0
    4.5190    0.9493   -1.2015 N   0  0  0  0  0  0  0  0  0  0  0  0
    3.5048    1.8343   -0.8109 C   0  0  0  0  0  0  0  0  0  0  0  0
    3.3124    2.8763   -1.4253 O   0  0  0  0  0  0  0  0  0  0  0  0
    2.6353    1.4463    0.3897 C   0  0  1  0  0  0  0  0  0  0  0  0
    1.8287    2.2061    0.3744 H   0  0  0  0  0  0  0  0  0  0  0  0
    1.9653    0.1815    0.1183 N   0  0  0  0  0  2  0  0  0  0  0  0
    2.6020   -0.9633    0.0098 C   0  0  0  0  0  0  0  0  0  0  0  0
    4.0652   -1.0684    0.1786 C   0  0  0  0  0  0  0  0  0  0  0  0
    4.5930   -2.1126    0.9749 C   0  0  0  0  0  0  0  0  0  0  0  0
    3.8895   -2.7960    1.4709 H   0  0  0  0  0  0  0  0  0  0  0  0
    5.9687   -2.2729    1.1580 C   0  0  0  0  0  0  0  0  0  0  0  0
    6.3504   -3.0860    1.7924 H   0  0  0  0  0  0  0  0  0  0  0  0
    6.8530   -1.3860    0.5224 C   0  0  0  0  0  0  0  0  0  0  0  0
    7.9404   -1.5009    0.6459 H   0  0  0  0  0  0  0  0  0  0  0  0
    6.3569   -0.3352   -0.2542 C   0  0  0  0  0  0  0  0  0  0  0  0
    7.0577    0.3695   -0.7214 H   0  0  0  0  0  0  0  0  0  0  0  0
    3.3065    1.5566    1.7866 C   0  0  0  0  0  0  0  0  0  0  0  0
    4.0848    0.7730    1.8939 H   0  0  0  0  0  0  0  0  0  0  0  0
    2.2438    1.3331    2.8702 C   0  0  0  0  0  0  0  0  0  0  0  0
    2.6925    1.4091    3.8811 H   0  0  0  0  0  0  0  0  0  0  0  0
    1.7704    0.3354    2.7768 H   0  0  0  0  0  0  0  0  0  0  0  0
    1.4367    2.0900    2.7861 H   0  0  0  0  0  0  0  0  0  0  0  0
    3.9821    2.9246    1.9299 C   0  0  0  0  0  0  0  0  0  0  0  0
    3.2530    3.7462    1.7721 H   0  0  0  0  0  0  0  0  0  0  0  0
    4.8032    3.0636    1.1979 H   0  0  0  0  0  0  0  0  0  0  0  0
    4.4129    3.0400    2.9448 H   0  0  0  0  0  0  0  0  0  0  0  0
    5.3255    1.3752   -2.3445 C   0  0  0  0  0  0  0  0  0  0  0  0
    6.1594    2.0467   -2.0465 H   0  0  0  0  0  0  0  0  0  0  0  0
    4.6700    1.9473   -3.0253 H   0  0  0  0  0  0  0  0  0  0  0  0
    5.7358    0.4857   -2.8569 H   0  0  0  0  0  0  0  0  0  0  0  0
    1.7425   -2.1215   -0.2709 C   0  0  0  0  0  0  0  0  0  0  0  0
    2.2438   -3.3948   -0.6244 C   0  0  0  0  0  3  0  0  0  0  0  0
    3.3294   -3.5545   -0.7010 H   0  0  0  0  0  0  0  0  0  0  0  0
    1.3657   -4.4465   -0.9111 C   0  0  0  0  0  0  0  0  0  0  0  0
    1.7598   -5.4357   -1.1878 H   0  0  0  0  0  0  0  0  0  0  0  0
   -0.0181   -4.2184   -0.8577 C   0  0  0  0  0  0  0  0  0  0  0  0
   -0.7207   -5.0367   -1.0824 H   0  0  0  0  0  0  0  0  0  0  0  0
   -0.5228   -2.9442   -0.5408 C   0  0  0  0  0  0  0  0  0  0  0  0
   -1.6133   -2.8081   -0.5439 H   0  0  0  0  0  0  0  0  0  0  0  0
    0.3283   -1.8625   -0.2470 C   0  0  0  0  0  3  0  0  0  0  0  0
  1 16  2  0  0  0  0
  1  9  1  0  0  0  0
  2  3  1  0  0  0  0
  2  1  1  0  0  0  0
  3  5  1  0  0  0  0
  4  3  2  0  0  0  0
  5  6  1  1  0  0  0
  5 18  1  0  0  0  0
  7  5  1  0  0  0  0
  8  7  1  0  0  0  0
  8  9  1  0  0  0  0
  9 10  2  0  0  0  0
 10 12  1  0  0  0  0
 10 11  1  0  0  0  0
 12 13  1  0  0  0  0
 14 15  1  0  0  0  0
 14 12  2  0  0  0  0
 16 14  1  0  0  0  0
 17 16  1  0  0  0  0
 18 19  1  0  0  0  0
 18 24  1  0  0  0  0
 18 20  1  0  0  0  0
 20 21  1  0  0  0  0
 22 20  1  0  0  0  0
 23 20  1  0  0  0  0
 24 27  1  0  0  0  0
 25 24  1  0  0  0  0
 26 24  1  0  0  0  0
 28 29  1  0  0  0  0
 28  2  1  0  0  0  0
 30 28  1  0  0  0  0
 31 28  1  0  0  0  0
 32 41  1  0  0  0  0
 32  8  2  0  0  0  0
 33 32  1  0  0  0  0
 34 33  1  0  0  0  0
 35 37  2  0  0  0  0
 35 33  1  0  0  0  0
 36 35  1  0  0  0  0
 37 39  1  0  0  0  0
 38 37  1  0  0  0  0
 39 41  2  0  0  0  0
 40 39  1  0  0  0  0
M  END
