2,13
q = -1.0

 20 21  0  0  0  0  0  0  0  0999 V2000
    4.3666   -3.0983   -0.2429 Br  0  0  0  0  0  0  0  0  0  0  0  0
   -0.8994    0.8326   -1.8365 N   0  0  0  0  0  2  0  0  0  0  0  0
   -1.9967    1.5513   -2.1624 C   0  0  0  0  0  3  0  0  0  0  0  0
   -2.4155    2.1603   -1.3480 H   0  0  0  0  0  0  0  0  0  0  0  0
   -2.5578    1.5095   -3.4394 C   0  0  0  0  0  0  0  0  0  0  0  0
   -3.4514    2.1089   -3.6608 H   0  0  0  0  0  0  0  0  0  0  0  0
   -1.9572    0.6910   -4.4128 C   0  0  0  0  0  0  0  0  0  0  0  0
   -2.3723    0.6347   -5.4301 H   0  0  0  0  0  0  0  0  0  0  0  0
   -0.8291   -0.0580   -4.0716 C   0  0  0  0  0  0  0  0  0  0  0  0
   -0.3474   -0.7120   -4.8110 H   0  0  0  0  0  0  0  0  0  0  0  0
   -0.3000    0.0116   -2.7667 C   0  0  0  0  0  0  0  0  0  0  0  0
    0.8398   -0.7360   -2.2470 C   0  0  0  0  0  0  0  0  0  0  0  0
    1.1364   -0.5012   -0.8652 C   0  0  0  0  0  3  0  0  0  0  0  0
    2.1949   -1.2276   -0.2805 C   0  0  0  0  0  0  0  0  0  0  0  0
    2.4497   -1.0920    0.7799 H   0  0  0  0  0  0  0  0  0  0  0  0
    2.9344   -2.1316   -1.0548 C   0  0  0  0  0  0  0  0  0  0  0  0
    2.6563   -2.3544   -2.4177 C   0  0  0  0  0  0  0  0  0  0  0  0
    3.2550   -3.0689   -2.9982 H   0  0  0  0  0  0  0  0  0  0  0  0
    1.6014   -1.6509   -3.0045 C   0  0  0  0  0  0  0  0  0  0  0  0
    1.3743   -1.8248   -4.0678 H   0  0  0  0  0  0  0  0  0  0  0  0
  3  2  1  0  0  0  0
  3  4  1  0  0  0  0
  5  3  1  0  0  0  0
  6  5  1  0  0  0  0
  7  9  1  0  0  0  0
  7  5  2  0  0  0  0
  8  7  1  0  0  0  0
  9 11  2  0  0  0  0
 10  9  1  0  0  0  0
 11 12  1  0  0  0  0
 11  2  1  0  0  0  0
 12 13  1  0  0  0  0
 13 14  2  0  0  0  0
 14 15  1  0  0  0  0
 16 14  1  0  0  0  0
 16  1  1  0  0  0  0
 17 16  2  0  0  0  0
 18 17  1  0  0  0  0
 19 17  1  0  0  0  0
 19 12  2  0  0  0  0
 20 19  1  0  0  0  0
M  END
