3,20
q = -1.0

 20 21  0  0  0  0  0  0  0  0999 V2000
    4.4770   -1.9313    1.0451 O   0  0  0  0  0  0  0  0  0  0  0  0
    5.7345   -0.1457    0.9960 O   0  0  0  0  0  0  0  0  0  0  0  0
   -0.9730    1.5277   -0.7736 N   0  0  0  0  0  2  0  0  0  0  0  0
    0.1539    2.2818   -0.6663 N   0  0  0  0  0  0  0  0  0  0  0  0
    4.6548   -0.7252    0.8646 N   0  0  0  0  0  0  0  0  0  0  0  0
   -1.9487    2.3420   -1.2088 C   0  0  0  0  0  3  0  0  0  0  0  0
   -2.9489    1.9407   -1.3993 H   0  0  0  0  0  0  0  0  0  0  0  0
   -1.4425    3.6530   -1.3721 C   0  0  0  0  0  0  0  0  0  0  0  0
   -1.9864    4.5396   -1.7109 H   0  0  0  0  0  0  0  0  0  0  0  0
   -0.0973    3.5778   -1.0191 C   0  0  0  0  0  0  0  0  0  0  0  0
    0.6914    4.3355   -1.0019 H   0  0  0  0  0  0  0  0  0  0  0  0
    1.3143    1.5886   -0.2705 C   0  0  0  0  0  0  0  0  0  0  0  0
    2.5512    2.2323   -0.0970 C   0  0  0  0  0  0  0  0  0  0  0  0
    2.6582    3.3148   -0.2589 H   0  0  0  0  0  0  0  0  0  0  0  0
    3.6588    1.4703    0.2833 C   0  0  0  0  0  0  0  0  0  0  0  0
    4.6513    1.9120    0.4357 H   0  0  0  0  0  0  0  0  0  0  0  0
    3.4835    0.0901    0.4657 C   0  0  0  0  0  0  0  0  0  0  0  0
    2.2481   -0.5481    0.2820 C   0  0  0  0  0  0  0  0  0  0  0  0
    2.2130   -1.6364    0.4177 H   0  0  0  0  0  0  0  0  0  0  0  0
    1.1108    0.1946   -0.0801 C   0  0  0  0  0  3  0  0  0  0  0  0
  3  4  1  0  0  0  0
  4 12  1  0  0  0  0
  5  2  2  0  0  0  0
  5  1  2  0  0  0  0
  6  3  1  0  0  0  0
  7  6  1  0  0  0  0
  8  6  1  0  0  0  0
  8 10  2  0  0  0  0
  9  8  1  0  0  0  0
 10 11  1  0  0  0  0
 10  4  1  0  0  0  0
 12 13  2  0  0  0  0
 12 20  1  0  0  0  0
 13 15  1  0  0  0  0
 14 13  1  0  0  0  0
 15 16  1  0  0  0  0
 15 17  2  0  0  0  0
 17  5  1  0  0  0  0
 18 19  1  0  0  0  0
 18 17  1  0  0  0  0
 20 18  2  0  0  0  0
M  END
