2,18
q = -1.0

 22 23  0  0  0  0  0  0  0  0999 V2000
   -4.2571   -1.2840   -1.3181 O   0  0  0  0  0  0  0  0  0  0  0  0
    0.7390    1.7335    0.6971 N   0  0  0  0  0  2  0  0  0  0  0  0
   -0.5292    2.1634    0.9149 N   0  0  0  0  0  0  0  0  0  0  0  0
    1.5660    2.6642    1.2083 C   0  0  0  0  0  3  0  0  0  0  0  0
    2.6494    2.5331    1.1249 H   0  0  0  0  0  0  0  0  0  0  0  0
    0.8097    3.7120    1.7770 C   0  0  0  0  0  0  0  0  0  0  0  0
    1.1843    4.6140    2.2699 H   0  0  0  0  0  0  0  0  0  0  0  0
   -0.5256    3.3594    1.5702 C   0  0  0  0  0  0  0  0  0  0  0  0
   -1.4586    3.8687    1.8281 H   0  0  0  0  0  0  0  0  0  0  0  0
   -1.5493    1.3304    0.4045 C   0  0  0  0  0  0  0  0  0  0  0  0
   -2.9099    1.6105    0.5615 C   0  0  0  0  0  0  0  0  0  0  0  0
   -3.2470    2.5013    1.1126 H   0  0  0  0  0  0  0  0  0  0  0  0
   -3.8618    0.7446    0.0010 C   0  0  0  0  0  0  0  0  0  0  0  0
   -4.9292    0.9664    0.1248 H   0  0  0  0  0  0  0  0  0  0  0  0
   -3.4218   -0.3850   -0.7213 C   0  0  0  0  0  0  0  0  0  0  0  0
   -2.0392   -0.6443   -0.8659 C   0  0  0  0  0  0  0  0  0  0  0  0
   -1.7588   -1.5187   -1.4704 H   0  0  0  0  0  0  0  0  0  0  0  0
   -1.0687    0.1902   -0.2964 C   0  0  0  0  0  3  0  0  0  0  0  0
   -5.6500   -1.0660   -1.2322 C   0  0  0  0  0  0  0  0  0  0  0  0
   -6.0113   -1.0795   -0.1784 H   0  0  0  0  0  0  0  0  0  0  0  0
   -6.1334   -1.8927   -1.7858 H   0  0  0  0  0  0  0  0  0  0  0  0
   -5.9501   -0.0987   -1.6954 H   0  0  0  0  0  0  0  0  0  0  0  0
  1 19  1  0  0  0  0
  1 15  1  0  0  0  0
  2  3  1  0  0  0  0
  2  4  1  0  0  0  0
  3  8  1  0  0  0  0
  4  6  1  0  0  0  0
  5  4  1  0  0  0  0
  6  7  1  0  0  0  0
  8  6  2  0  0  0  0
  8  9  1  0  0  0  0
 10 11  1  0  0  0  0
 10  3  1  0  0  0  0
 11 12  1  0  0  0  0
 13 14  1  0  0  0  0
 13 11  2  0  0  0  0
 15 13  1  0  0  0  0
 16 15  2  0  0  0  0
 16 18  1  0  0  0  0
 17 16  1  0  0  0  0
 18 10  2  0  0  0  0
 19 20  1  0  0  0  0
 21 19  1  0  0  0  0
 22 19  1  0  0  0  0
M  END
