1,13
q = -1.0

 37 41  0  0  0  0  0  0  0  0999 V2000
    2.2210    2.9245    0.2722 N   0  0  0  0  0  2  0  0  0  0  0  0
   -1.2748    3.7295    0.0087 N   0  0  0  0  0  0  0  0  0  0  0  0
    3.4536    3.4602    0.3829 C   0  0  0  0  0  0  0  0  0  0  0  0
    4.2767    2.7253    0.4020 H   0  0  0  0  0  0  0  0  0  0  0  0
    3.6433    4.8446    0.4535 C   0  0  0  0  0  0  0  0  0  0  0  0
    4.6629    5.2448    0.5450 H   0  0  0  0  0  0  0  0  0  0  0  0
    2.5235    5.6930    0.4007 C   0  0  0  0  0  0  0  0  0  0  0  0
    2.6477    6.7855    0.4496 H   0  0  0  0  0  0  0  0  0  0  0  0
    1.2495    5.1303    0.2845 C   0  0  0  0  0  0  0  0  0  0  0  0
    0.3254    5.7230    0.2346 H   0  0  0  0  0  0  0  0  0  0  0  0
    1.1240    3.7327    0.2267 C   0  0  0  0  0  0  0  0  0  0  0  0
   -0.1557    3.0190    0.1254 C   0  0  0  0  0  0  0  0  0  0  0  0
   -0.0825    1.5790    0.1283 C   0  0  0  0  0  3  0  0  0  0  0  0
   -1.3212    0.9331    0.1591 C   0  0  0  0  0  0  0  0  0  0  0  0
   -1.3635   -0.1592    0.1432 H   0  0  0  0  0  0  0  0  0  0  0  0
   -2.5528    1.6421    0.1105 C   0  0  0  0  0  0  0  0  0  0  0  0
   -3.8581    1.0025    0.0743 C   0  0  0  0  0  0  0  0  0  0  0  0
   -4.1010   -0.3810    0.4554 C   0  0  0  0  0  0  0  0  0  0  0  0
   -3.2240   -1.1397    1.2829 C   0  0  0  0  0  0  0  0  0  0  0  0
   -2.3535   -0.6553    1.7394 H   0  0  0  0  0  0  0  0  0  0  0  0
   -3.4675   -2.4769    1.5798 C   0  0  0  0  0  0  0  0  0  0  0  0
   -2.7625   -3.0186    2.2285 H   0  0  0  0  0  0  0  0  0  0  0  0
   -4.6141   -3.1265    1.0652 C   0  0  0  0  0  0  0  0  0  0  0  0
   -4.7943   -4.1900    1.2838 H   0  0  0  0  0  0  0  0  0  0  0  0
   -5.5400   -2.3936    0.3322 C   0  0  0  0  0  3  0  0  0  0  0  0
   -6.4743   -2.8626   -0.0149 H   0  0  0  0  0  0  0  0  0  0  0  0
   -5.3309   -1.0151    0.0487 C   0  0  0  0  0  0  0  0  0  0  0  0
   -6.3564   -0.2313   -0.5730 C   0  0  0  0  0  0  0  0  0  0  0  0
   -7.2923   -0.7279   -0.8728 H   0  0  0  0  0  0  0  0  0  0  0  0
   -6.1999    1.1255   -0.7279 C   0  0  0  0  0  0  0  0  0  0  0  0
   -7.0177    1.7401   -1.1351 H   0  0  0  0  0  0  0  0  0  0  0  0
   -4.9610    1.7725   -0.4078 C   0  0  0  0  0  0  0  0  0  0  0  0
   -4.8275    3.1895   -0.5963 C   0  0  0  0  0  0  0  0  0  0  0  0
   -5.7152    3.7554   -0.9190 H   0  0  0  0  0  0  0  0  0  0  0  0
   -3.6331    3.8313   -0.3727 C   0  0  0  0  0  0  0  0  0  0  0  0
   -3.5175    4.9186   -0.4874 H   0  0  0  0  0  0  0  0  0  0  0  0
   -2.4594    3.0730   -0.0581 C   0  0  0  0  0  0  0  0  0  0  0  0
  1  3  1  0  0  0  0
  2 12  1  0  0  0  0
  3  4  1  0  0  0  0
  3  5  2  0  0  0  0
  5  6  1  0  0  0  0
  7  8  1  0  0  0  0
  7  5  1  0  0  0  0
  9  7  2  0  0  0  0
 10  9  1  0  0  0  0
 11  1  1  0  0  0  0
 11  9  1  0  0  0  0
 12 13  1  0  0  0  0
 12 11  2  0  0  0  0
 13 14  2  0  0  0  0
 15 14  1  0  0  0  0
 16 14  1  0  0  0  0
 17 16  2  0  0  0  0
 17 18  1  0  0  0  0
 18 19  2  0  0  0  0
 19 21  1  0  0  0  0
 19 20  1  0  0  0  0
 21 22  1  0  0  0  0
 23 24  1  0  0  0  0
 23 21  2  0  0  0  0
 25 23  1  0  0  0  0
 26 25  1  0  0  0  0
 27 25  1  0  0  0  0
 27 18  1  0  0  0  0
 28 27  2  0  0  0  0
 29 28  1  0  0  0  0
 30 28  1  0  0  0  0
 30 32  2  0  0  0  0
 31 30  1  0  0  0  0
 32 17  1  0  0  0  0
 33 32  1  0  0  0  0
 33 35  2  0  0  0  0
 34 33  1  0  0  0  0
 35 37  1  0  0  0  0
 36 35  1  0  0  0  0
 37  2  2  0  0  0  0
 37 16  1  0  0  0  0
M  END
