1,2
q = -1.0, confidence = 0.002

 30 30  0  0  0  0  0  0  0  0999 V2000
   -1.2574   -0.3362   -0.1191 N   0  0  0  0  0  0  0  0  0  0  0  0
    0.7267    1.4939   -0.0750 C   0  0  0  0  0  3  0  0  0  0  0  0
    1.6560    2.5035    0.2588 C   0  0  0  0  0  0  0  0  0  0  0  0
    2.6040    2.2259    0.7462 H   0  0  0  0  0  0  0  0  0  0  0  0
    1.3904    3.8582    0.0000 C   0  0  0  0  0  0  0  0  0  0  0  0
    2.1327    4.6228    0.2790 H   0  0  0  0  0  0  0  0  0  0  0  0
    0.1783    4.2433   -0.5975 C   0  0  0  0  0  0  0  0  0  0  0  0
   -0.0345    5.3054   -0.7930 H   0  0  0  0  0  0  0  0  0  0  0  0
   -0.7664    3.2618   -0.9282 C   0  0  0  0  0  0  0  0  0  0  0  0
   -1.7296    3.5487   -1.3822 H   0  0  0  0  0  0  0  0  0  0  0  0
   -0.4836    1.9056   -0.6770 C   0  0  0  0  0  0  0  0  0  0  0  0
   -1.4510    0.8176   -1.0339 C   0  0  0  0  0  0  0  0  0  0  0  0
   -1.2701    0.4438   -2.0650 H   0  0  0  0  0  0  0  0  0  0  0  0
   -2.5088    1.1600   -1.0195 H   0  0  0  0  0  0  0  0  0  0  0  0
   -2.0488   -1.5089   -0.6074 C   0  0  0  0  0  0  0  0  0  0  0  0
   -1.6102   -1.8180   -1.5778 H   0  0  0  0  0  0  0  0  0  0  0  0
   -1.8524   -2.3319    0.1092 H   0  0  0  0  0  0  0  0  0  0  0  0
   -3.5244   -1.2734   -0.7751 C   0  0  0  0  0  0  0  0  0  0  0  0
   -4.0920   -1.0078    0.1325 H   0  0  0  0  0  0  0  0  0  0  0  0
   -4.1737   -1.4025   -1.9452 C   0  0  0  0  0  0  0  0  0  0  0  0
   -3.6371   -1.6646   -2.8734 H   0  0  0  0  0  0  0  0  0  0  0  0
   -5.2638   -1.2666   -2.0204 H   0  0  0  0  0  0  0  0  0  0  0  0
   -1.5738    0.0097    1.3185 C   0  0  0  0  0  0  0  0  0  0  0  0
   -1.7375   -0.9452    1.8496 H   0  0  0  0  0  0  0  0  0  0  0  0
   -0.6462    0.4499    1.7581 H   0  0  0  0  0  0  0  0  0  0  0  0
   -2.6928    0.9819    1.5697 C   0  0  0  0  0  0  0  0  0  0  0  0
   -2.5711    1.9958    1.1512 H   0  0  0  0  0  0  0  0  0  0  0  0
   -3.7512    0.7103    2.3528 C   0  0  0  0  0  0  0  0  0  0  0  0
   -3.8887   -0.2848    2.8093 H   0  0  0  0  0  0  0  0  0  0  0  0
   -4.5123    1.4737    2.5773 H   0  0  0  0  0  0  0  0  0  0  0  0
  1 23  1  0  0  0  0
  2  3  1  0  0  0  0
  3  4  1  0  0  0  0
  5  3  2  0  0  0  0
  5  6  1  0  0  0  0
  7  5  1  0  0  0  0
  8  7  1  0  0  0  0
  9 11  1  0  0  0  0
  9  7  2  0  0  0  0
 10  9  1  0  0  0  0
 11  2  2  0  0  0  0
 12 14  1  0  0  0  0
 12 11  1  0  0  0  0
 12  1  1  0  0  0  0
 13 12  1  0  0  0  0
 15  1  1  0  0  0  0
 15 17  1  0  0  0  0
 16 15  1  0  0  0  0
 18 15  1  0  0  0  0
 18 19  1  0  0  0  0
 20 18  2  0  0  0  0
 21 20  1  0  0  0  0
 22 20  1  0  0  0  0
 23 26  1  0  0  0  0
 23 25  1  0  0  0  0
 23 24  1  0  0  0  0
 26 28  2  0  0  0  0
 27 26  1  0  0  0  0
 28 30  1  0  0  0  0
 28 29  1  0  0  0  0
M  END
