1,40
q = -1.0, confidence = 0.0

 40 40  0  0  1  0  0  0  0  0999 V2000
    1.6615   -1.1640   -0.3546 C   0  0  0  0  0  3  0  0  0  0  0  0
    1.3417   -2.5423   -0.4917 C   0  0  0  0  0  0  0  0  0  0  0  0
   -0.0415   -3.0332   -0.8299 C   0  0  0  0  0  0  0  0  0  0  0  0
   -0.7422   -2.9194    0.0223 H   0  0  0  0  0  0  0  0  0  0  0  0
   -0.0297   -4.1080   -1.0964 H   0  0  0  0  0  0  0  0  0  0  0  0
   -0.4758   -2.4705   -1.6784 H   0  0  0  0  0  0  0  0  0  0  0  0
    2.3747   -3.4913   -0.3489 C   0  0  0  0  0  0  0  0  0  0  0  0
    2.1272   -4.5617   -0.4383 H   0  0  0  0  0  0  0  0  0  0  0  0
    3.7047   -3.1086   -0.1545 C   0  0  0  0  0  0  0  0  0  0  0  0
    4.4918   -3.8766   -0.0927 H   0  0  0  0  0  0  0  0  0  0  0  0
    4.0642   -1.7499   -0.1014 C   0  0  0  0  0  0  0  0  0  0  0  0
    5.5306   -1.3830   -0.0718 C   0  0  0  0  0  0  0  0  0  0  0  0
    5.8218   -0.8176    0.8355 H   0  0  0  0  0  0  0  0  0  0  0  0
    5.8111   -0.7506   -0.9413 H   0  0  0  0  0  0  0  0  0  0  0  0
    6.1602   -2.2930   -0.1108 H   0  0  0  0  0  0  0  0  0  0  0  0
    3.0230   -0.7861   -0.1631 C   0  0  0  0  0  0  0  0  0  0  0  0
    3.3217    0.7014   -0.2127 C   0  0  2  0  0  0  0  0  0  0  0  0
    4.3802    0.8542   -0.5278 H   0  0  0  0  0  0  0  0  0  0  0  0
    3.2099    1.4503    1.1863 C   0  0  0  0  0  0  0  0  0  0  0  0
    3.7995    0.5291    2.2787 C   0  0  0  0  0  0  0  0  0  0  0  0
    3.7218    1.0366    3.2612 H   0  0  0  0  0  0  0  0  0  0  0  0
    4.8720    0.3130    2.1078 H   0  0  0  0  0  0  0  0  0  0  0  0
    3.2576   -0.4335    2.3435 H   0  0  0  0  0  0  0  0  0  0  0  0
    4.0710    2.7352    1.1952 C   0  0  0  0  0  0  0  0  0  0  0  0
    3.6620    3.5483    0.5702 H   0  0  0  0  0  0  0  0  0  0  0  0
    5.1038    2.5250    0.8474 H   0  0  0  0  0  0  0  0  0  0  0  0
    4.1435    3.1261    2.2307 H   0  0  0  0  0  0  0  0  0  0  0  0
    1.7724    1.7806    1.6267 C   0  0  0  0  0  0  0  0  0  0  0  0
    1.1824    0.8573    1.7807 H   0  0  0  0  0  0  0  0  0  0  0  0
    1.2155    2.4113    0.9075 H   0  0  0  0  0  0  0  0  0  0  0  0
    1.8072    2.3258    2.5935 H   0  0  0  0  0  0  0  0  0  0  0  0
    2.8921    0.6178   -2.6332 C   0  0  0  0  0  0  0  0  0  0  0  0
    2.1855    0.9336   -3.4229 H   0  0  0  0  0  0  0  0  0  0  0  0
    2.8893   -0.4830   -2.5629 H   0  0  0  0  0  0  0  0  0  0  0  0
    3.9173    0.9674   -2.8982 H   0  0  0  0  0  0  0  0  0  0  0  0
    2.4897    2.6852   -1.5357 C   0  0  0  0  0  0  0  0  0  0  0  0
    3.5324    3.0274   -1.7243 H   0  0  0  0  0  0  0  0  0  0  0  0
    2.0764    3.2065   -0.6593 H   0  0  0  0  0  0  0  0  0  0  0  0
    1.8429    2.9377   -2.3945 H   0  0  0  0  0  0  0  0  0  0  0  0
    2.4583    1.2231   -1.3484 N   0  0  0  0  0  0  0  0  0  0  0  0
  1 16  1  0  0  0  0
  2  1  2  0  0  0  0
  2  7  1  0  0  0  0
  3  2  1  0  0  0  0
  3  4  1  0  0  0  0
  5  3  1  0  0  0  0
  6  3  1  0  0  0  0
  7  9  2  0  0  0  0
  8  7  1  0  0  0  0
  9 11  1  0  0  0  0
  9 10  1  0  0  0  0
 11 12  1  0  0  0  0
 12 13  1  0  0  0  0
 14 12  1  0  0  0  0
 15 12  1  0  0  0  0
 16 11  2  0  0  0  0
 17 18  1  6  0  0  0
 17 16  1  0  0  0  0
 17 19  1  0  0  0  0
 19 24  1  0  0  0  0
 19 28  1  0  0  0  0
 19 20  1  0  0  0  0
 20 23  1  0  0  0  0
 20 21  1  0  0  0  0
 22 20  1  0  0  0  0
 24 27  1  0  0  0  0
 25 24  1  0  0  0  0
 26 24  1  0  0  0  0
 28 29  1  0  0  0  0
 28 31  1  0  0  0  0
 30 28  1  0  0  0  0
 32 34  1  0  0  0  0
 32 40  1  0  0  0  0
 33 32  1  0  0  0  0
 35 32  1  0  0  0  0
 36 40  1  0  0  0  0
 36 38  1  0  0  0  0
 37 36  1  0  0  0  0
 39 36  1  0  0  0  0
 40 17  1  0  0  0  0
M  END
