3,4
q = -1.0

 32 34  0  0  0  0  0  0  0  0999 V2000
   -3.1645   -1.8319   -0.7217 F   0  0  0  0  0  0  0  0  0  0  0  0
   -4.6356    1.9580   -1.0659 O   0  0  0  0  0  0  0  0  0  0  0  0
    1.7055    1.8754    0.1326 N   0  0  0  0  0  2  0  0  0  0  0  0
   -0.0698    0.0065   -0.1981 C   0  0  0  0  0  2  0  0  0  0  0  0
   -0.9729   -1.0524   -0.3911 C   0  0  0  0  0  0  0  0  0  0  0  0
   -2.3422   -0.7894   -0.4903 C   0  0  0  0  0  0  0  0  0  0  0  0
   -2.8832    0.5174   -0.4024 C   0  0  0  0  0  0  0  0  0  0  0  0
   -1.9668    1.5776   -0.2560 C   0  0  0  0  0  0  0  0  0  0  0  0
   -0.5907    1.3423   -0.1372 C   0  0  0  0  0  0  0  0  0  0  0  0
    0.4230    2.3745    0.0472 C   0  0  0  0  0  0  0  0  0  0  0  0
    0.2124    3.7630    0.1387 C   0  0  0  0  0  0  0  0  0  0  0  0
    1.2979    4.6250    0.3143 C   0  0  0  0  0  0  0  0  0  0  0  0
    2.5951    4.0885    0.3987 C   0  0  0  0  0  0  0  0  0  0  0  0
    2.7593    2.7061    0.3032 C   0  0  0  0  0  0  0  0  0  0  0  0
   -4.3318    0.8800   -0.5508 C   0  0  0  0  0  0  0  0  0  0  0  0
   -5.4039   -0.0252   -0.0203 C   0  0  0  0  0  0  0  0  0  0  0  0
   -5.1895   -0.9106    1.0563 C   0  0  0  0  0  0  0  0  0  0  0  0
   -6.2523   -1.6637    1.5733 C   0  0  0  0  0  0  0  0  0  0  0  0
   -7.5340   -1.5513    1.0107 C   0  0  0  0  0  0  0  0  0  0  0  0
   -7.7569   -0.6663   -0.0589 C   0  0  0  0  0  0  0  0  0  0  0  0
   -6.7013    0.1029   -0.5604 C   0  0  0  0  0  0  0  0  0  0  0  0
   -0.6152   -2.0887   -0.4779 H   0  0  0  0  0  0  0  0  0  0  0  0
   -2.3891    2.5942   -0.2450 H   0  0  0  0  0  0  0  0  0  0  0  0
   -0.8124    4.1526    0.0693 H   0  0  0  0  0  0  0  0  0  0  0  0
    1.1360    5.7108    0.3853 H   0  0  0  0  0  0  0  0  0  0  0  0
    3.4760    4.7303    0.5368 H   0  0  0  0  0  0  0  0  0  0  0  0
    3.7394    2.2081    0.3588 H   0  0  0  0  0  0  0  0  0  0  0  0
   -4.1899   -0.9935    1.5075 H   0  0  0  0  0  0  0  0  0  0  0  0
   -6.0800   -2.3431    2.4218 H   0  0  0  0  0  0  0  0  0  0  0  0
   -8.3651   -2.1520    1.4113 H   0  0  0  0  0  0  0  0  0  0  0  0
   -8.7624   -0.5739   -0.4972 H   0  0  0  0  0  0  0  0  0  0  0  0
   -6.8521    0.8229   -1.3782 H   0  0  0  0  0  0  0  0  0  0  0  0
  1  6  1  0  0  0  0
  2 15  2  0  0  0  0
  3 14  1  0  0  0  0
  4  9  1  0  0  0  0
  5  4  1  0  0  0  0
  6  7  1  0  0  0  0
  6  5  2  0  0  0  0
  7  8  2  0  0  0  0
  8 23  1  0  0  0  0
  8  9  1  0  0  0  0
  9 10  2  0  0  0  0
 10  3  1  0  0  0  0
 10 11  1  0  0  0  0
 11 12  2  0  0  0  0
 12 25  1  0  0  0  0
 12 13  1  0  0  0  0
 13 26  1  0  0  0  0
 14 27  1  0  0  0  0
 14 13  2  0  0  0  0
 15  7  1  0  0  0  0
 15 16  1  0  0  0  0
 16 17  1  0  0  0  0
 17 28  1  0  0  0  0
 17 18  2  0  0  0  0
 18 29  1  0  0  0  0
 19 30  1  0  0  0  0
 19 18  1  0  0  0  0
 20 19  2  0  0  0  0
 21 20  1  0  0  0  0
 21 16  2  0  0  0  0
 22  5  1  0  0  0  0
 24 11  1  0  0  0  0
 31 20  1  0  0  0  0
 32 21  1  0  0  0  0
M  END
