2,3
q = -1.0, confidence = 0.002

 32 34  0  0  0  0  0  0  0  0999 V2000
    4.7616    2.0252   -0.7318 O   0  0  0  0  0  0  0  0  0  0  0  0
   -1.6315    1.8436    0.1114 N   0  0  0  0  0  2  0  0  0  0  0  0
    0.1783   -0.0060   -0.1380 C   0  0  0  0  0  2  0  0  0  0  0  0
    1.1069   -1.0555   -0.2853 C   0  0  0  0  0  0  0  0  0  0  0  0
    2.4814   -0.7910   -0.3372 C   0  0  0  0  0  0  0  0  0  0  0  0
    2.9771    0.5349   -0.2545 C   0  0  0  0  0  0  0  0  0  0  0  0
    2.0560    1.5947   -0.1429 C   0  0  0  0  0  0  0  0  0  0  0  0
    0.6802    1.3359   -0.0709 C   0  0  0  0  0  0  0  0  0  0  0  0
   -0.3535    2.3580    0.0682 C   0  0  0  0  0  0  0  0  0  0  0  0
   -0.1619    3.7489    0.1556 C   0  0  0  0  0  0  0  0  0  0  0  0
   -1.2630    4.5998    0.2849 C   0  0  0  0  0  0  0  0  0  0  0  0
   -2.5556    4.0480    0.3264 C   0  0  0  0  0  0  0  0  0  0  0  0
   -2.7005    2.6629    0.2367 C   0  0  0  0  0  0  0  0  0  0  0  0
    4.4246    0.8953   -0.3686 C   0  0  0  0  0  0  0  0  0  0  0  0
    5.4834   -0.1215   -0.0362 C   0  0  0  0  0  0  0  0  0  0  0  0
    5.3241   -1.0994    0.9692 C   0  0  0  0  0  0  0  0  0  0  0  0
    6.3803   -1.9665    1.2873 C   0  0  0  0  0  0  0  0  0  0  0  0
    7.5992   -1.8752    0.5972 C   0  0  0  0  0  0  0  0  0  0  0  0
    7.7697   -0.8965   -0.3978 C   0  0  0  0  0  0  0  0  0  0  0  0
    6.7246   -0.0169   -0.7004 C   0  0  0  0  0  0  0  0  0  0  0  0
    0.7364   -2.0887   -0.3640 H   0  0  0  0  0  0  0  0  0  0  0  0
    3.1860   -1.6244   -0.4771 H   0  0  0  0  0  0  0  0  0  0  0  0
    2.4637    2.6172   -0.1225 H   0  0  0  0  0  0  0  0  0  0  0  0
    0.8607    4.1486    0.1201 H   0  0  0  0  0  0  0  0  0  0  0  0
   -1.1166    5.6880    0.3529 H   0  0  0  0  0  0  0  0  0  0  0  0
   -3.4485    4.6802    0.4273 H   0  0  0  0  0  0  0  0  0  0  0  0
   -3.6762    2.1537    0.2610 H   0  0  0  0  0  0  0  0  0  0  0  0
    4.3784   -1.1617    1.5273 H   0  0  0  0  0  0  0  0  0  0  0  0
    6.2516   -2.7161    2.0829 H   0  0  0  0  0  0  0  0  0  0  0  0
    8.4232   -2.5631    0.8414 H   0  0  0  0  0  0  0  0  0  0  0  0
    8.7279   -0.8173   -0.9338 H   0  0  0  0  0  0  0  0  0  0  0  0
    6.8423    0.7761   -1.4538 H   0  0  0  0  0  0  0  0  0  0  0  0
  1 14  2  0  0  0  0
  2 13  1  0  0  0  0
  3  8  1  0  0  0  0
  4  3  1  0  0  0  0
  5  4  2  0  0  0  0
  5  6  1  0  0  0  0
  6  7  2  0  0  0  0
  7 23  1  0  0  0  0
  7  8  1  0  0  0  0
  8  9  2  0  0  0  0
  9  2  1  0  0  0  0
  9 10  1  0  0  0  0
 10 11  2  0  0  0  0
 11 12  1  0  0  0  0
 11 25  1  0  0  0  0
 12 26  1  0  0  0  0
 13 27  1  0  0  0  0
 13 12  2  0  0  0  0
 14  6  1  0  0  0  0
 14 15  1  0  0  0  0
 15 16  1  0  0  0  0
 16 17  2  0  0  0  0
 16 28  1  0  0  0  0
 17 29  1  0  0  0  0
 18 30  1  0  0  0  0
 18 17  1  0  0  0  0
 19 18  2  0  0  0  0
 20 19  1  0  0  0  0
 20 15  2  0  0  0  0
 21  4  1  0  0  0  0
 22  5  1  0  0  0  0
 24 10  1  0  0  0  0
 31 19  1  0  0  0  0
 32 20  1  0  0  0  0
M  END
