4,5
q = -1.0, confidence = 0.02

 32 34  0  0  0  0  0  0  0  0999 V2000
    3.0168   -2.0286   -0.8815 F   0  0  0  0  0  0  0  0  0  0  0  0
    2.5126    2.6271   -0.2856 F   0  0  0  0  0  0  0  0  0  0  0  0
    4.6667    1.3564   -1.6556 O   0  0  0  0  0  0  0  0  0  0  0  0
   -1.6868    1.8409    0.1709 N   0  0  0  0  0  2  0  0  0  0  0  0
    0.0103   -0.0736   -0.2666 C   0  0  0  0  0  2  0  0  0  0  0  0
    0.8521   -1.1742   -0.4959 C   0  0  0  0  0  0  0  0  0  0  0  0
    2.2243   -0.9660   -0.6413 C   0  0  0  0  0  0  0  0  0  0  0  0
    2.8288    0.3100   -0.5761 C   0  0  0  0  0  0  0  0  0  0  0  0
    1.9634    1.3984   -0.3652 C   0  0  0  0  0  0  0  0  0  0  0  0
    0.5736    1.2451   -0.1981 C   0  0  0  0  0  0  0  0  0  0  0  0
   -0.3927    2.3091    0.0488 C   0  0  0  0  0  0  0  0  0  0  0  0
   -0.1484    3.6931    0.1648 C   0  0  0  0  0  0  0  0  0  0  0  0
   -1.2088    4.5724    0.4022 C   0  0  0  0  0  0  0  0  0  0  0  0
   -2.5139    4.0667    0.5231 C   0  0  0  0  0  0  0  0  0  0  0  0
   -2.7126    2.6912    0.4004 C   0  0  0  0  0  0  0  0  0  0  0  0
    4.3000    0.5332   -0.8226 C   0  0  0  0  0  0  0  0  0  0  0  0
    5.2877   -0.2521   -0.0143 C   0  0  0  0  0  0  0  0  0  0  0  0
    4.9296   -0.9484    1.1588 C   0  0  0  0  0  0  0  0  0  0  0  0
    5.9054   -1.6267    1.9015 C   0  0  0  0  0  0  0  0  0  0  0  0
    7.2435   -1.6208    1.4752 C   0  0  0  0  0  0  0  0  0  0  0  0
    7.6085   -0.9243    0.3090 C   0  0  0  0  0  0  0  0  0  0  0  0
    6.6372   -0.2379   -0.4268 C   0  0  0  0  0  0  0  0  0  0  0  0
    0.4418   -2.1912   -0.5689 H   0  0  0  0  0  0  0  0  0  0  0  0
    0.8793    4.0584    0.0640 H   0  0  0  0  0  0  0  0  0  0  0  0
   -1.0164    5.6518    0.4918 H   0  0  0  0  0  0  0  0  0  0  0  0
   -3.3742    4.7243    0.7093 H   0  0  0  0  0  0  0  0  0  0  0  0
   -3.7014    2.2140    0.4800 H   0  0  0  0  0  0  0  0  0  0  0  0
    3.8839   -0.9429    1.5006 H   0  0  0  0  0  0  0  0  0  0  0  0
    5.6217   -2.1624    2.8200 H   0  0  0  0  0  0  0  0  0  0  0  0
    8.0077   -2.1591    2.0567 H   0  0  0  0  0  0  0  0  0  0  0  0
    8.6579   -0.9182   -0.0229 H   0  0  0  0  0  0  0  0  0  0  0  0
    6.8908    0.3273   -1.3360 H   0  0  0  0  0  0  0  0  0  0  0  0
  1  7  1  0  0  0  0
  3 16  2  0  0  0  0
  4 15  1  0  0  0  0
  5 10  1  0  0  0  0
  6  5  1  0  0  0  0
  7  8  1  0  0  0  0
  7  6  2  0  0  0  0
  8  9  2  0  0  0  0
  9  2  1  0  0  0  0
  9 10  1  0  0  0  0
 10 11  2  0  0  0  0
 11 12  1  0  0  0  0
 11  4  1  0  0  0  0
 12 13  2  0  0  0  0
 13 25  1  0  0  0  0
 13 14  1  0  0  0  0
 14 26  1  0  0  0  0
 15 27  1  0  0  0  0
 15 14  2  0  0  0  0
 16  8  1  0  0  0  0
 16 17  1  0  0  0  0
 17 18  1  0  0  0  0
 18 28  1  0  0  0  0
 18 19  2  0  0  0  0
 19 29  1  0  0  0  0
 20 19  1  0  0  0  0
 20 30  1  0  0  0  0
 21 20  2  0  0  0  0
 22 17  2  0  0  0  0
 22 21  1  0  0  0  0
 23  6  1  0  0  0  0
 24 12  1  0  0  0  0
 31 21  1  0  0  0  0
 32 22  1  0  0  0  0
M  END
