1,2
q = -1.0

 37 40  0  0  0  0  0  0  0  0999 V2000
   -0.5972   -1.3084   -0.0000 N   0  0  0  0  0  0  0  0  0  0  0  0
   -1.0823    1.3221    0.0000 C   0  0  0  0  0  3  0  0  0  0  0  0
    5.3362    0.0436    0.0001 N   0  0  0  0  0  0  0  0  0  0  0  0
    5.0685    1.0669    0.0001 H   0  0  0  0  0  0  0  0  0  0  0  0
    3.7404    2.0704    0.0002 O   0  0  0  0  0  0  0  0  0  0  0  0
   -0.2240    3.6158    0.0001 C   0  0  0  0  0  0  0  0  0  0  0  0
   -0.4367    4.6967    0.0001 H   0  0  0  0  0  0  0  0  0  0  0  0
    2.7615    1.2765    0.0001 C   0  0  0  0  0  0  0  0  0  0  0  0
    4.3913   -2.2048    0.0001 C   0  0  0  0  0  0  0  0  0  0  0  0
    5.4137   -2.6047    0.0001 H   0  0  0  0  0  0  0  0  0  0  0  0
    0.5081   -0.5226    0.0000 C   0  0  0  0  0  0  0  0  0  0  0  0
    4.2487   -0.7731    0.0001 C   0  0  0  0  0  0  0  0  0  0  0  0
    1.8207   -1.0649    0.0000 C   0  0  0  0  0  0  0  0  0  0  0  0
    1.3731    1.7934    0.0001 C   0  0  0  0  0  0  0  0  0  0  0  0
   -0.4740   -2.6614   -0.0000 C   0  0  0  0  0  0  0  0  0  0  0  0
   -1.4240   -3.2176   -0.0001 H   0  0  0  0  0  0  0  0  0  0  0  0
    6.5976   -0.4466    0.0000 N   0  0  0  0  0  0  0  0  0  0  0  0
   -1.3083    2.7089    0.0001 C   0  0  0  0  0  0  0  0  0  0  0  0
   -2.3431    3.0869    0.0001 H   0  0  0  0  0  0  0  0  0  0  0  0
    1.9598   -2.4877    0.0000 C   0  0  0  0  0  0  0  0  0  0  0  0
    2.9463   -0.1851    0.0001 C   0  0  0  0  0  0  0  0  0  0  0  0
    1.1058    3.1769    0.0001 C   0  0  0  0  0  0  0  0  0  0  0  0
    1.9527    3.8778    0.0001 H   0  0  0  0  0  0  0  0  0  0  0  0
    0.7773   -3.2719   -0.0000 C   0  0  0  0  0  0  0  0  0  0  0  0
    0.8411   -4.3696   -0.0000 H   0  0  0  0  0  0  0  0  0  0  0  0
    3.2879   -3.0284    0.0000 C   0  0  0  0  0  0  0  0  0  0  0  0
    3.4177   -4.1217    0.0000 H   0  0  0  0  0  0  0  0  0  0  0  0
    0.2775    0.8932    0.0000 C   0  0  0  0  0  0  0  0  0  0  0  0
    7.5623    0.4274   -0.0001 C   0  0  0  0  0  0  0  0  0  0  0  0
    7.3349    1.9183   -0.0003 C   0  0  0  0  0  0  0  0  0  0  0  0
    6.7446    2.2363   -0.8876 H   0  0  0  0  0  0  0  0  0  0  0  0
    8.2881    2.4771   -0.0009 H   0  0  0  0  0  0  0  0  0  0  0  0
    6.7456    2.2366    0.8876 H   0  0  0  0  0  0  0  0  0  0  0  0
    8.9663   -0.0979   -0.0001 C   0  0  0  0  0  0  0  0  0  0  0  0
    8.9658   -1.2032    0.0001 H   0  0  0  0  0  0  0  0  0  0  0  0
    9.5248    0.2659    0.8896 H   0  0  0  0  0  0  0  0  0  0  0  0
    9.5247    0.2656   -0.8900 H   0  0  0  0  0  0  0  0  0  0  0  0
  1 11  2  0  0  0  0
  2 28  2  0  0  0  0
  2 18  1  0  0  0  0
  3  4  1  0  0  0  0
  6 22  1  0  0  0  0
  6  7  1  0  0  0  0
  8  5  2  0  0  0  0
  9 10  1  0  0  0  0
  9 12  1  0  0  0  0
 11 28  1  0  0  0  0
 11 13  1  0  0  0  0
 12  3  1  0  0  0  0
 13 21  1  0  0  0  0
 14  8  1  0  0  0  0
 14 22  2  0  0  0  0
 15  1  1  0  0  0  0
 15 24  2  0  0  0  0
 16 15  1  0  0  0  0
 17  3  1  0  0  0  0
 18 19  1  0  0  0  0
 18  6  2  0  0  0  0
 20 13  2  0  0  0  0
 20 26  1  0  0  0  0
 21 12  2  0  0  0  0
 21  8  1  0  0  0  0
 22 23  1  0  0  0  0
 24 20  1  0  0  0  0
 25 24  1  0  0  0  0
 26  9  2  0  0  0  0
 27 26  1  0  0  0  0
 28 14  1  0  0  0  0
 29 34  1  0  0  0  0
 29 17  2  0  0  0  0
 30 29  1  0  0  0  0
 30 33  1  0  0  0  0
 31 30  1  0  0  0  0
 32 30  1  0  0  0  0
 34 35  1  0  0  0  0
 34 36  1  0  0  0  0
 37 34  1  0  0  0  0
M  END
