1,5
q = -1.0

 24 26  0  0  0  0  0  0  0  0999 V2000
   -0.6545   -1.1345   -0.1049 N   0  0  0  0  0  2  0  0  0  0  0  0
   -0.7640   -2.1444   -0.2388 H   0  0  0  0  0  0  0  0  0  0  0  0
   -3.8476    1.4725    0.1366 N   0  0  0  0  0  0  0  0  0  0  0  0
   -4.6141    2.1457    0.1689 H   0  0  0  0  0  0  0  0  0  0  0  0
   -0.1218    1.4108   -0.0159 C   0  0  0  0  0  3  0  0  0  0  0  0
    0.1509    2.7881   -0.0272 C   0  0  0  0  0  0  0  0  0  0  0  0
    1.1839    3.1521   -0.1265 H   0  0  0  0  0  0  0  0  0  0  0  0
   -0.9006    3.7249    0.0658 C   0  0  0  0  0  0  0  0  0  0  0  0
   -0.6625    4.8007    0.0672 H   0  0  0  0  0  0  0  0  0  0  0  0
   -2.2448    3.3333    0.1452 C   0  0  0  0  0  0  0  0  0  0  0  0
   -3.0501    4.0810    0.2078 H   0  0  0  0  0  0  0  0  0  0  0  0
   -5.5247   -0.2749    0.0703 C   0  0  0  0  0  0  0  0  0  0  0  0
   -6.3149    0.4892    0.1396 H   0  0  0  0  0  0  0  0  0  0  0  0
   -5.8564   -1.6260   -0.0089 C   0  0  0  0  0  0  0  0  0  0  0  0
   -6.9156   -1.9239   -0.0012 H   0  0  0  0  0  0  0  0  0  0  0  0
   -4.8467   -2.6080   -0.1002 C   0  0  0  0  0  0  0  0  0  0  0  0
   -5.1130   -3.6728   -0.1637 H   0  0  0  0  0  0  0  0  0  0  0  0
   -3.5088   -2.2152   -0.1117 C   0  0  0  0  0  3  0  0  0  0  0  0
   -2.7205   -2.9802   -0.1845 H   0  0  0  0  0  0  0  0  0  0  0  0
   -1.7469   -0.3982   -0.0350 C   0  0  0  0  0  0  0  0  0  0  0  0
   -4.1683    0.1339    0.0603 C   0  0  0  0  0  0  0  0  0  0  0  0
   -3.1349   -0.8542   -0.0330 C   0  0  0  0  0  0  0  0  0  0  0  0
   -1.4901    1.0183    0.0438 C   0  0  0  0  0  0  0  0  0  0  0  0
   -2.5474    1.9573    0.1163 C   0  0  0  0  0  0  0  0  0  0  0  0
  1 20  1  0  0  0  0
  2  1  1  0  0  0  0
  3  4  1  0  0  0  0
  5 23  1  0  0  0  0
  6  5  2  0  0  0  0
  6  8  1  0  0  0  0
  7  6  1  0  0  0  0
  8  9  1  0  0  0  0
  8 10  2  0  0  0  0
 10 11  1  0  0  0  0
 12 13  1  0  0  0  0
 14 15  1  0  0  0  0
 14 12  1  0  0  0  0
 16 14  2  0  0  0  0
 17 16  1  0  0  0  0
 18 16  1  0  0  0  0
 18 22  1  0  0  0  0
 19 18  1  0  0  0  0
 20 22  2  0  0  0  0
 20 23  1  0  0  0  0
 21 12  2  0  0  0  0
 21  3  1  0  0  0  0
 22 21  1  0  0  0  0
 23 24  2  0  0  0  0
 24  3  1  0  0  0  0
 24 10  1  0  0  0  0
M  END
