3,5
q = -1.0

 35 36  0  0  0  0  0  0  0  0999 V2000
   -1.7333   -0.0328    0.1012 P   0  0  0  0  0  4  0  0  0  0  0  0
    0.8579    0.4141    2.8469 O   0  0  0  0  0  0  0  0  0  0  0  0
   -0.4502   -0.2336   -0.9161 N   0  0  0  0  0  2  0  0  0  0  0  0
   -1.0224   -0.0479    1.6404 N   0  0  0  0  0  0  0  0  0  0  0  0
    0.3658    0.2501    1.7407 C   0  0  0  0  0  3  0  0  0  0  0  0
   -0.6747    0.2092   -2.2973 C   0  0  0  0  0  0  0  0  0  0  0  0
   -1.5721   -0.2779   -2.7411 H   0  0  0  0  0  0  0  0  0  0  0  0
    0.1930   -0.0839   -2.9170 H   0  0  0  0  0  0  0  0  0  0  0  0
   -0.8007    1.3117   -2.3939 H   0  0  0  0  0  0  0  0  0  0  0  0
   -1.8558   -0.1730    2.8426 C   0  0  0  0  0  0  0  0  0  0  0  0
   -1.1785   -0.0800    3.7111 H   0  0  0  0  0  0  0  0  0  0  0  0
   -2.3650   -1.1563    2.8700 H   0  0  0  0  0  0  0  0  0  0  0  0
   -2.6164    0.6334    2.8946 H   0  0  0  0  0  0  0  0  0  0  0  0
   -2.9363   -1.3771   -0.0413 C   0  0  0  0  0  0  0  0  0  0  0  0
   -4.2390   -1.2487    0.4884 C   0  0  0  0  0  0  0  0  0  0  0  0
   -4.5598   -0.3047    0.9545 H   0  0  0  0  0  0  0  0  0  0  0  0
   -5.1267   -2.3306    0.4121 C   0  0  0  0  0  0  0  0  0  0  0  0
   -6.1409   -2.2352    0.8273 H   0  0  0  0  0  0  0  0  0  0  0  0
   -4.7246   -3.5308   -0.1980 C   0  0  0  0  0  0  0  0  0  0  0  0
   -5.4275   -4.3750   -0.2604 H   0  0  0  0  0  0  0  0  0  0  0  0
   -3.4315   -3.6558   -0.7323 C   0  0  0  0  0  0  0  0  0  0  0  0
   -3.1227   -4.5945   -1.2156 H   0  0  0  0  0  0  0  0  0  0  0  0
   -2.5337   -2.5828   -0.6519 C   0  0  0  0  0  0  0  0  0  0  0  0
   -1.5166   -2.6595   -1.0639 H   0  0  0  0  0  0  0  0  0  0  0  0
   -2.6373    1.5290   -0.0730 C   0  0  0  0  0  0  0  0  0  0  0  0
   -3.6362    1.6616   -1.0635 C   0  0  0  0  0  0  0  0  0  0  0  0
   -3.9477    0.7903   -1.6601 H   0  0  0  0  0  0  0  0  0  0  0  0
   -4.2395    2.9077   -1.2809 C   0  0  0  0  0  0  0  0  0  0  0  0
   -5.0185    3.0107   -2.0507 H   0  0  0  0  0  0  0  0  0  0  0  0
   -3.8522    4.0206   -0.5159 C   0  0  0  0  0  0  0  0  0  0  0  0
   -4.3305    4.9965   -0.6872 H   0  0  0  0  0  0  0  0  0  0  0  0
   -2.8589    3.8912    0.4685 C   0  0  0  0  0  0  0  0  0  0  0  0
   -2.5574    4.7623    1.0685 H   0  0  0  0  0  0  0  0  0  0  0  0
   -2.2473    2.6502    0.6912 C   0  0  0  0  0  0  0  0  0  0  0  0
   -1.4676    2.5537    1.4612 H   0  0  0  0  0  0  0  0  0  0  0  0
  1  4  1  0  0  0  0
  3  1  1  0  0  0  0
  4  5  1  0  0  0  0
  4 10  1  0  0  0  0
  5  2  2  0  0  0  0
  6  3  1  0  0  0  0
  7  6  1  0  0  0  0
  8  6  1  0  0  0  0
  9  6  1  0  0  0  0
 10 12  1  0  0  0  0
 10 13  1  0  0  0  0
 10 11  1  0  0  0  0
 14  1  1  0  0  0  0
 14 15  1  0  0  0  0
 15 16  1  0  0  0  0
 17 15  2  0  0  0  0
 17 18  1  0  0  0  0
 19 17  1  0  0  0  0
 20 19  1  0  0  0  0
 21 23  1  0  0  0  0
 21 19  2  0  0  0  0
 22 21  1  0  0  0  0
 23 14  2  0  0  0  0
 24 23  1  0  0  0  0
 25  1  1  0  0  0  0
 25 34  1  0  0  0  0
 26 25  2  0  0  0  0
 27 26  1  0  0  0  0
 28 26  1  0  0  0  0
 28 30  2  0  0  0  0
 29 28  1  0  0  0  0
 30 32  1  0  0  0  0
 31 30  1  0  0  0  0
 32 34  2  0  0  0  0
 32 33  1  0  0  0  0
 34 35  1  0  0  0  0
M  END
