2,4
q = -1.0

 32 33  0  0  1  0  0  0  0  0999 V2000
    6.1341   -0.9928    0.3090 O   0  0  0  0  0  0  0  0  0  0  0  0
    0.5501   -1.2805   -0.1056 N   0  0  0  0  0  2  0  0  0  0  0  0
   -6.8451   -1.1409   -0.2311 N   0  0  0  0  0  0  0  0  0  0  0  0
   -1.9689   -0.8770   -0.1968 C   0  0  0  0  0  3  0  0  0  0  0  0
   -3.3575   -0.6323   -0.2520 C   0  0  0  0  0  0  0  0  0  0  0  0
   -4.2943   -1.6864   -0.1732 C   0  0  0  0  0  0  0  0  0  0  0  0
   -3.8596   -3.0365   -0.0688 C   0  0  0  0  0  0  0  0  0  0  0  0
   -2.4945   -3.3076   -0.0441 C   0  0  0  0  0  0  0  0  0  0  0  0
   -1.5540   -2.2512   -0.0975 C   0  0  0  0  0  0  0  0  0  0  0  0
   -0.1203   -2.4285   -0.0634 C   0  0  1  0  0  3  0  0  0  0  0  0
    0.5382   -3.7758   -0.0241 C   0  0  0  0  0  0  0  0  0  0  0  0
   -5.6968   -1.3903   -0.2064 C   0  0  0  0  0  0  0  0  0  0  0  0
    1.9691   -1.2324   -0.0284 C   0  0  0  0  0  0  0  0  0  0  0  0
    2.6387   -1.5522    1.1725 C   0  0  0  0  0  0  0  0  0  0  0  0
    4.0305   -1.4585    1.2544 C   0  0  0  0  0  0  0  0  0  0  0  0
    4.7861   -1.0507    0.1335 C   0  0  0  0  0  0  0  0  0  0  0  0
    4.1196   -0.7321   -1.0699 C   0  0  0  0  0  0  0  0  0  0  0  0
    2.7219   -0.8141   -1.1389 C   0  0  0  0  0  0  0  0  0  0  0  0
    6.9368   -0.5812   -0.7809 C   0  0  0  0  0  0  0  0  0  0  0  0
   -3.7352    0.3933   -0.3728 H   0  0  0  0  0  0  0  0  0  0  0  0
   -4.6008   -3.8456   -0.0164 H   0  0  0  0  0  0  0  0  0  0  0  0
   -2.1515   -4.3516    0.0229 H   0  0  0  0  0  0  0  0  0  0  0  0
    1.6221   -3.7124   -0.2287 H   0  0  0  0  0  0  0  0  0  0  0  0
    0.0749   -4.4516   -0.7711 H   0  0  0  0  0  0  0  0  0  0  0  0
    0.4048   -4.2565    0.9683 H   0  0  0  0  0  0  0  0  0  0  0  0
    2.0509   -1.8672    2.0473 H   0  0  0  0  0  0  0  0  0  0  0  0
    4.5649   -1.6969    2.1852 H   0  0  0  0  0  0  0  0  0  0  0  0
    4.6799   -0.4117   -1.9582 H   0  0  0  0  0  0  0  0  0  0  0  0
    2.1894   -0.5461   -2.0627 H   0  0  0  0  0  0  0  0  0  0  0  0
    7.9835   -0.6028   -0.4252 H   0  0  0  0  0  0  0  0  0  0  0  0
    6.6892    0.4527   -1.1121 H   0  0  0  0  0  0  0  0  0  0  0  0
    6.8378   -1.2666   -1.6527 H   0  0  0  0  0  0  0  0  0  0  0  0
  2 13  1  0  0  0  0
  3 12  3  0  0  0  0
  4  9  1  0  0  0  0
  5  4  2  0  0  0  0
  5  6  1  0  0  0  0
  6  7  2  0  0  0  0
  7  8  1  0  0  0  0
  7 21  1  0  0  0  0
  8 22  1  0  0  0  0
  9 10  1  0  0  0  0
  9  8  2  0  0  0  0
 10  2  1  6  0  0  0
 10 11  1  0  0  0  0
 11 25  1  0  0  0  0
 12  6  1  0  0  0  0
 13 14  1  0  0  0  0
 14 15  2  0  0  0  0
 14 26  1  0  0  0  0
 15 27  1  0  0  0  0
 16  1  1  0  0  0  0
 16 15  1  0  0  0  0
 17 16  2  0  0  0  0
 18 17  1  0  0  0  0
 18 13  2  0  0  0  0
 19 30  1  0  0  0  0
 19  1  1  0  0  0  0
 20  5  1  0  0  0  0
 23 11  1  0  0  0  0
 24 11  1  0  0  0  0
 28 17  1  0  0  0  0
 29 18  1  0  0  0  0
 31 19  1  0  0  0  0
 32 19  1  0  0  0  0
M  END
