5,7
q = -1.0

 39 40  0  0  0  0  0  0  0  0999 V2000
    0.0599    3.5418    0.6414 O   0  0  0  0  0  0  0  0  0  0  0  0
    4.9475   -0.3237   -0.9198 O   0  0  0  0  0  0  0  0  0  0  0  0
    2.6148   -1.7229   -0.8361 O   0  0  0  0  0  0  0  0  0  0  0  0
    5.1026    2.2685   -0.1390 O   0  0  0  0  0  0  0  0  0  0  0  0
   -0.9072    1.4728    0.1016 N   0  0  0  0  0  2  0  0  0  0  0  0
   -4.3393    1.4742   -1.0666 N   0  0  0  0  0  0  0  0  0  0  0  0
    1.3813    0.2580   -0.1467 C   0  0  0  0  0  3  0  0  0  0  0  0
    3.8117    0.3223   -0.5050 C   0  0  0  0  0  0  0  0  0  0  0  0
    1.4578    1.6338    0.1705 C   0  0  0  0  0  0  0  0  0  0  0  0
    3.8601    1.6956   -0.1266 C   0  0  0  0  0  0  0  0  0  0  0  0
    0.1727    2.3405    0.3663 C   0  0  0  0  0  0  0  0  0  0  0  0
   -3.0545    1.1283   -0.8503 C   0  0  0  0  0  3  0  0  0  0  0  0
   -2.6657    0.2247   -1.3517 H   0  0  0  0  0  0  0  0  0  0  0  0
   -4.8751    2.6357   -0.5752 C   0  0  0  0  0  0  0  0  0  0  0  0
   -5.9363    2.8204   -0.7813 H   0  0  0  0  0  0  0  0  0  0  0  0
   -2.1676    1.9467   -0.0957 C   0  0  0  0  0  0  0  0  0  0  0  0
   -4.0438    3.5014    0.1362 C   0  0  0  0  0  0  0  0  0  0  0  0
   -4.4692    4.4413    0.5167 H   0  0  0  0  0  0  0  0  0  0  0  0
    5.8495   -0.6848    0.1192 C   0  0  0  0  0  0  0  0  0  0  0  0
    5.3677   -1.3752    0.8481 H   0  0  0  0  0  0  0  0  0  0  0  0
    6.2310    0.2094    0.6582 H   0  0  0  0  0  0  0  0  0  0  0  0
    6.6995   -1.2072   -0.3608 H   0  0  0  0  0  0  0  0  0  0  0  0
   -2.7018    3.1931    0.3746 C   0  0  0  0  0  0  0  0  0  0  0  0
   -2.0316    3.8741    0.9114 H   0  0  0  0  0  0  0  0  0  0  0  0
    2.6695    2.3537    0.2000 C   0  0  0  0  0  0  0  0  0  0  0  0
    2.6245    3.4222    0.4529 H   0  0  0  0  0  0  0  0  0  0  0  0
    2.5865   -0.3840   -0.5036 C   0  0  0  0  0  0  0  0  0  0  0  0
   -5.1894    0.5517   -1.8315 C   0  0  0  0  0  0  0  0  0  0  0  0
   -5.8838    1.1280   -2.4697 H   0  0  0  0  0  0  0  0  0  0  0  0
   -5.7719   -0.0881   -1.1388 H   0  0  0  0  0  0  0  0  0  0  0  0
   -4.5481   -0.0868   -2.4649 H   0  0  0  0  0  0  0  0  0  0  0  0
    2.6896   -1.9760   -2.2409 C   0  0  0  0  0  0  0  0  0  0  0  0
    2.6901   -3.0768   -2.3654 H   0  0  0  0  0  0  0  0  0  0  0  0
    3.6282   -1.5629   -2.6691 H   0  0  0  0  0  0  0  0  0  0  0  0
    1.8043   -1.5499   -2.7608 H   0  0  0  0  0  0  0  0  0  0  0  0
    5.1864    3.6391    0.1920 C   0  0  0  0  0  0  0  0  0  0  0  0
    4.8216    3.8421    1.2249 H   0  0  0  0  0  0  0  0  0  0  0  0
    4.6026    4.2723   -0.5137 H   0  0  0  0  0  0  0  0  0  0  0  0
    6.2555    3.9156    0.1252 H   0  0  0  0  0  0  0  0  0  0  0  0
  2  8  1  0  0  0  0
  2 19  1  0  0  0  0
  3 27  1  0  0  0  0
  4 10  1  0  0  0  0
  4 36  1  0  0  0  0
  5 11  1  0  0  0  0
  6 12  1  0  0  0  0
  6 14  1  0  0  0  0
  7  9  1  0  0  0  0
  8 27  1  0  0  0  0
  8 10  2  0  0  0  0
  9 25  2  0  0  0  0
  9 11  1  0  0  0  0
 10 25  1  0  0  0  0
 11  1  2  0  0  0  0
 12 16  1  0  0  0  0
 13 12  1  0  0  0  0
 14 17  2  0  0  0  0
 15 14  1  0  0  0  0
 16  5  1  0  0  0  0
 16 23  2  0  0  0  0
 17 23  1  0  0  0  0
 17 18  1  0  0  0  0
 19 21  1  0  0  0  0
 19 20  1  0  0  0  0
 22 19  1  0  0  0  0
 23 24  1  0  0  0  0
 25 26  1  0  0  0  0
 27  7  2  0  0  0  0
 28 30  1  0  0  0  0
 28  6  1  0  0  0  0
 29 28  1  0  0  0  0
 31 28  1  0  0  0  0
 32  3  1  0  0  0  0
 33 32  1  0  0  0  0
 34 32  1  0  0  0  0
 35 32  1  0  0  0  0
 36 37  1  0  0  0  0
 38 36  1  0  0  0  0
 39 36  1  0  0  0  0
M  END
