1,11
q = -1.0, confidence = 0.0

 31 33  0  0  0  0  0  0  0  0999 V2000
    2.0184    0.0684   -0.5685 N   0  0  0  0  0  2  0  0  0  0  0  0
    2.7977    1.0537   -1.0600 C   0  0  0  0  0  3  0  0  0  0  0  0
    4.1893    0.9988   -0.9700 C   0  0  0  0  0  0  0  0  0  0  0  0
    4.7876   -0.1136   -0.3492 C   0  0  0  0  0  0  0  0  0  0  0  0
    3.9911   -1.1419    0.1671 C   0  0  0  0  0  0  0  0  0  0  0  0
    4.5466   -2.3585    0.8717 C   0  0  0  0  0  0  0  0  0  0  0  0
    3.5804   -2.8844    1.9436 C   0  0  0  0  0  0  0  0  0  0  0  0
    2.1923   -3.1684    1.3480 C   0  0  0  0  0  0  0  0  0  0  0  0
    1.6403   -1.9496    0.6417 C   0  0  0  0  0  0  0  0  0  0  0  0
    2.5821   -1.0205    0.0545 C   0  0  0  0  0  0  0  0  0  0  0  0
    0.3147   -1.5605    0.5588 C   0  0  0  0  0  3  0  0  0  0  0  0
   -0.7954   -2.3488    1.1299 C   0  0  0  0  0  0  0  0  0  0  0  0
   -1.0766   -3.6489    0.6503 C   0  0  0  0  0  0  0  0  0  0  0  0
   -2.1777   -4.3705    1.1360 C   0  0  0  0  0  0  0  0  0  0  0  0
   -3.0127   -3.8117    2.1162 C   0  0  0  0  0  0  0  0  0  0  0  0
   -2.7382   -2.5236    2.6073 C   0  0  0  0  0  0  0  0  0  0  0  0
   -1.6461   -1.7972    2.1166 C   0  0  0  0  0  0  0  0  0  0  0  0
    2.2621    1.8987   -1.5162 H   0  0  0  0  0  0  0  0  0  0  0  0
    4.7929    1.8246   -1.3707 H   0  0  0  0  0  0  0  0  0  0  0  0
    5.8834   -0.1733   -0.2532 H   0  0  0  0  0  0  0  0  0  0  0  0
    4.7280   -3.1618    0.1208 H   0  0  0  0  0  0  0  0  0  0  0  0
    5.5382   -2.1184    1.3080 H   0  0  0  0  0  0  0  0  0  0  0  0
    3.9952   -3.8002    2.4119 H   0  0  0  0  0  0  0  0  0  0  0  0
    3.4853   -2.1239    2.7495 H   0  0  0  0  0  0  0  0  0  0  0  0
    2.2783   -4.0189    0.6323 H   0  0  0  0  0  0  0  0  0  0  0  0
    1.4845   -3.5046    2.1322 H   0  0  0  0  0  0  0  0  0  0  0  0
   -0.4314   -4.0764   -0.1322 H   0  0  0  0  0  0  0  0  0  0  0  0
   -2.3869   -5.3776    0.7426 H   0  0  0  0  0  0  0  0  0  0  0  0
   -3.8778   -4.3769    2.4955 H   0  0  0  0  0  0  0  0  0  0  0  0
   -3.3879   -2.0774    3.3764 H   0  0  0  0  0  0  0  0  0  0  0  0
   -1.4380   -0.7812    2.4840 H   0  0  0  0  0  0  0  0  0  0  0  0
  1 10  1  0  0  0  0
  2  3  1  0  0  0  0
  2  1  1  0  0  0  0
  3  4  2  0  0  0  0
  4 20  1  0  0  0  0
  4  5  1  0  0  0  0
  5  6  1  0  0  0  0
  6 22  1  0  0  0  0
  6  7  1  0  0  0  0
  7 23  1  0  0  0  0
  7 24  1  0  0  0  0
  8  7  1  0  0  0  0
  8 26  1  0  0  0  0
  9  8  1  0  0  0  0
 10  5  2  0  0  0  0
 10  9  1  0  0  0  0
 11  9  2  0  0  0  0
 11 12  1  0  0  0  0
 12 17  1  0  0  0  0
 13 12  2  0  0  0  0
 13 14  1  0  0  0  0
 14 15  2  0  0  0  0
 15 29  1  0  0  0  0
 15 16  1  0  0  0  0
 16 30  1  0  0  0  0
 17 31  1  0  0  0  0
 17 16  2  0  0  0  0
 18  2  1  0  0  0  0
 19  3  1  0  0  0  0
 21  6  1  0  0  0  0
 25  8  1  0  0  0  0
 27 13  1  0  0  0  0
 28 14  1  0  0  0  0
M  END
