10,46
q = -1.0

 50 53  0  0  1  0  0  0  0  0999 V2000
    1.6556    0.3618   -0.6432 P   0  0  0  0  0  4  0  0  0  0  0  0
    1.5549   -0.1526    2.9749 C   0  0  0  0  0  0  0  0  0  0  0  0
    1.2320   -0.8585    1.7834 C   0  0  0  0  0  0  0  0  0  0  0  0
    3.9404   -1.1398   -0.0949 C   0  0  0  0  0  0  0  0  0  0  0  0
    3.8553   -0.7415    0.9274 H   0  0  0  0  0  0  0  0  0  0  0  0
   -0.3301   -0.7336   -2.2788 C   0  0  0  0  0  0  0  0  0  0  0  0
    0.0453   -1.7627   -2.2231 H   0  0  0  0  0  0  0  0  0  0  0  0
    3.0173   -0.7551   -1.0927 C   0  0  0  0  0  0  0  0  0  0  0  0
    2.4128    2.0151   -0.4553 C   0  0  0  0  0  0  0  0  0  0  0  0
    0.3965    0.4520   -1.9028 C   0  0  1  0  0  3  0  0  0  0  0  0
    1.3213   -2.2809    1.7423 C   0  0  0  0  0  0  0  0  0  0  0  0
   -0.4876    1.5732   -2.0537 C   0  0  0  0  0  0  0  0  0  0  0  0
   -0.2549    2.6173   -1.8159 H   0  0  0  0  0  0  0  0  0  0  0  0
    1.6414    3.0473    0.1193 C   0  0  0  0  0  0  0  0  0  0  0  0
    0.6269    2.8292    0.4845 H   0  0  0  0  0  0  0  0  0  0  0  0
    2.0035   -0.8804    4.0938 C   0  0  0  0  0  0  0  0  0  0  0  0
    2.2518   -0.3327    5.0166 H   0  0  0  0  0  0  0  0  0  0  0  0
    1.7758   -2.9651    2.8853 C   0  0  0  0  0  0  0  0  0  0  0  0
    1.8465   -4.0637    2.8522 H   0  0  0  0  0  0  0  0  0  0  0  0
   -1.7260    1.0794   -2.5252 C   0  0  0  0  0  0  0  0  0  0  0  0
   -2.6096    1.6873   -2.7539 H   0  0  0  0  0  0  0  0  0  0  0  0
   -1.6257   -0.3365   -2.6760 C   0  0  0  0  0  0  0  0  0  0  0  0
   -2.4157   -1.0038   -3.0402 H   0  0  0  0  0  0  0  0  0  0  0  0
    3.1308   -1.2667   -2.4009 C   0  0  0  0  0  0  0  0  0  0  0  0
    2.4105   -0.9564   -3.1730 H   0  0  0  0  0  0  0  0  0  0  0  0
    4.2488    3.5777   -0.7862 C   0  0  0  0  0  0  0  0  0  0  0  0
    5.2713    3.7839   -1.1367 H   0  0  0  0  0  0  0  0  0  0  0  0
    5.0671   -2.5671   -1.7109 C   0  0  0  0  0  0  0  0  0  0  0  0
    5.8675   -3.2829   -1.9518 H   0  0  0  0  0  0  0  0  0  0  0  0
    3.7199    2.2836   -0.9084 C   0  0  0  0  0  0  0  0  0  0  0  0
    4.3246    1.4811   -1.3562 H   0  0  0  0  0  0  0  0  0  0  0  0
    2.1247   -2.2752    4.0531 C   0  0  0  0  0  0  0  0  0  0  0  0
    2.4753   -2.8265    4.9386 H   0  0  0  0  0  0  0  0  0  0  0  0
    4.1588   -2.1713   -2.7062 C   0  0  0  0  0  0  0  0  0  0  0  0
    4.2485   -2.5715   -3.7272 H   0  0  0  0  0  0  0  0  0  0  0  0
    1.4094    1.3438    3.0489 C   0  0  0  0  0  0  0  0  0  0  0  0
    2.1906    1.8644    2.4576 H   0  0  0  0  0  0  0  0  0  0  0  0
    1.4909    1.6977    4.0944 H   0  0  0  0  0  0  0  0  0  0  0  0
    0.4322    1.6701    2.6400 H   0  0  0  0  0  0  0  0  0  0  0  0
    2.1733    4.3387    0.2303 C   0  0  0  0  0  0  0  0  0  0  0  0
    1.5667    5.1408    0.6770 H   0  0  0  0  0  0  0  0  0  0  0  0
    4.9590   -2.0497   -0.4091 C   0  0  0  0  0  0  0  0  0  0  0  0
    5.6716   -2.3590    0.3700 H   0  0  0  0  0  0  0  0  0  0  0  0
    3.4774    4.6046   -0.2199 C   0  0  0  0  0  0  0  0  0  0  0  0
    3.8955    5.6183   -0.1262 H   0  0  0  0  0  0  0  0  0  0  0  0
    0.7569   -0.1694    0.6323 N   0  0  0  0  0  2  0  0  0  0  0  0
    0.9237   -3.0453    0.5075 C   0  0  0  0  0  0  0  0  0  0  0  0
    1.6243   -2.8686   -0.3346 H   0  0  0  0  0  0  0  0  0  0  0  0
   -0.0817   -2.7427    0.1530 H   0  0  0  0  0  0  0  0  0  0  0  0
    0.9054   -4.1340    0.7052 H   0  0  0  0  0  0  0  0  0  0  0  0
  1  9  1  0  0  0  0
  1 46  1  0  0  0  0
  2 36  1  0  0  0  0
  2 16  1  0  0  0  0
  3  2  2  0  0  0  0
  4  5  1  0  0  0  0
  6  7  1  0  0  0  0
  6 10  1  0  0  0  0
  8  1  1  0  0  0  0
  8  4  2  0  0  0  0
  9 14  1  0  0  0  0
 10  1  1  1  0  0  0
 11  3  1  0  0  0  0
 11 18  2  0  0  0  0
 12 10  1  0  0  0  0
 12 13  1  0  0  0  0
 14 40  2  0  0  0  0
 14 15  1  0  0  0  0
 16 17  1  0  0  0  0
 18 32  1  0  0  0  0
 19 18  1  0  0  0  0
 20 12  2  0  0  0  0
 21 20  1  0  0  0  0
 22 20  1  0  0  0  0
 22  6  2  0  0  0  0
 23 22  1  0  0  0  0
 24  8  1  0  0  0  0
 25 24  1  0  0  0  0
 26 44  2  0  0  0  0
 27 26  1  0  0  0  0
 28 42  2  0  0  0  0
 29 28  1  0  0  0  0
 30 26  1  0  0  0  0
 30  9  2  0  0  0  0
 31 30  1  0  0  0  0
 32 16  2  0  0  0  0
 32 33  1  0  0  0  0
 34 24  2  0  0  0  0
 34 28  1  0  0  0  0
 35 34  1  0  0  0  0
 36 38  1  0  0  0  0
 37 36  1  0  0  0  0
 39 36  1  0  0  0  0
 40 41  1  0  0  0  0
 42  4  1  0  0  0  0
 42 43  1  0  0  0  0
 44 45  1  0  0  0  0
 44 40  1  0  0  0  0
 46  3  1  0  0  0  0
 47 50  1  0  0  0  0
 47 11  1  0  0  0  0
 48 47  1  0  0  0  0
 49 47  1  0  0  0  0
M  END
