2,16
q = -1.0, confidence = 0.0

 20 22  0  0  0  0  0  0  0  0999 V2000
    2.5791   -2.4599   -2.4119 S   0  0  0  0  0  0  0  0  0  0  0  0
    1.9934    0.2302    0.5471 N   0  0  0  0  0  2  0  0  0  0  0  0
    6.0194   -0.0821    1.2403 O   0  0  0  0  0  0  0  0  0  0  0  0
    2.5136    0.9398    1.5806 C   0  0  0  0  0  3  0  0  0  0  0  0
    1.7811    1.5376    2.1418 H   0  0  0  0  0  0  0  0  0  0  0  0
    3.8664    0.9213    1.9243 C   0  0  0  0  0  0  0  0  0  0  0  0
    4.2563    1.5062    2.7663 H   0  0  0  0  0  0  0  0  0  0  0  0
    4.6761    0.1082    1.1197 C   0  0  0  0  0  0  0  0  0  0  0  0
    6.3808   -0.9621    0.2444 C   0  0  0  0  0  0  0  0  0  0  0  0
    7.4452   -1.2158    0.2107 H   0  0  0  0  0  0  0  0  0  0  0  0
    5.3065   -1.3457   -0.5155 C   0  0  0  0  0  0  0  0  0  0  0  0
    5.3223   -2.0344   -1.3663 H   0  0  0  0  0  0  0  0  0  0  0  0
    4.1702   -0.6528    0.0414 C   0  0  0  0  0  0  0  0  0  0  0  0
    2.7811   -0.5894   -0.2400 C   0  0  0  0  0  0  0  0  0  0  0  0
    2.0288   -1.2888   -1.2340 C   0  0  0  0  0  0  0  0  0  0  0  0
    0.6350   -1.0781   -1.2804 C   0  0  0  0  0  3  0  0  0  0  0  0
    0.0333   -1.8976   -2.2867 C   0  0  0  0  0  0  0  0  0  0  0  0
   -1.0431   -1.9137   -2.5073 H   0  0  0  0  0  0  0  0  0  0  0  0
    0.9496   -2.6812   -2.9694 C   0  0  0  0  0  0  0  0  0  0  0  0
    0.7596   -3.3911   -3.7849 H   0  0  0  0  0  0  0  0  0  0  0  0
  1 15  1  0  0  0  0
  2  4  1  0  0  0  0
  4  6  1  0  0  0  0
  4  5  1  0  0  0  0
  6  7  1  0  0  0  0
  8  3  1  0  0  0  0
  8  6  2  0  0  0  0
  9  3  1  0  0  0  0
 10  9  1  0  0  0  0
 11 13  1  0  0  0  0
 11  9  2  0  0  0  0
 12 11  1  0  0  0  0
 13  8  1  0  0  0  0
 14 13  2  0  0  0  0
 14  2  1  0  0  0  0
 15 14  1  0  0  0  0
 16 15  2  0  0  0  0
 17 16  1  0  0  0  0
 18 17  1  0  0  0  0
 19  1  1  0  0  0  0
 19 17  2  0  0  0  0
 20 19  1  0  0  0  0
M  END
