2,3
q = -1.0

 20 21  0  0  0  0  0  0  0  0999 V2000
    5.1595   -2.1393    0.4861 Br  0  0  0  0  0  0  0  0  0  0  0  0
    1.5725    0.5912   -1.2901 N   0  0  0  0  0  2  0  0  0  0  0  0
    1.1242   -0.7471    0.8915 C   0  0  0  0  0  3  0  0  0  0  0  0
    1.5761    1.3026   -2.4385 C   0  0  0  0  0  3  0  0  0  0  0  0
    0.6499    1.8595   -2.6423 H   0  0  0  0  0  0  0  0  0  0  0  0
    2.6719    1.3188   -3.3007 C   0  0  0  0  0  0  0  0  0  0  0  0
    2.6323    1.9120   -4.2246 H   0  0  0  0  0  0  0  0  0  0  0  0
    3.7999    0.5622   -2.9485 C   0  0  0  0  0  0  0  0  0  0  0  0
    4.6886    0.5430   -3.5969 H   0  0  0  0  0  0  0  0  0  0  0  0
    3.7907   -0.1798   -1.7642 C   0  0  0  0  0  0  0  0  0  0  0  0
    4.6616   -0.7808   -1.4847 H   0  0  0  0  0  0  0  0  0  0  0  0
    2.6611   -0.1731   -0.9173 C   0  0  0  0  0  0  0  0  0  0  0  0
    2.4422   -0.9274    0.3272 C   0  0  0  0  0  0  0  0  0  0  0  0
    3.3298   -1.8148    0.9959 C   0  0  0  0  0  0  0  0  0  0  0  0
    2.9363   -2.5313    2.1338 C   0  0  0  0  0  0  0  0  0  0  0  0
    3.6519   -3.2085    2.6189 H   0  0  0  0  0  0  0  0  0  0  0  0
    1.6359   -2.3767    2.6376 C   0  0  0  0  0  0  0  0  0  0  0  0
    1.3292   -2.9542    3.5239 H   0  0  0  0  0  0  0  0  0  0  0  0
    0.7436   -1.4924    2.0250 C   0  0  0  0  0  0  0  0  0  0  0  0
   -0.2696   -1.3742    2.4357 H   0  0  0  0  0  0  0  0  0  0  0  0
  1 14  1  0  0  0  0
  2 12  1  0  0  0  0
  3 19  1  0  0  0  0
  4  2  1  0  0  0  0
  5  4  1  0  0  0  0
  6  8  2  0  0  0  0
  6  4  1  0  0  0  0
  7  6  1  0  0  0  0
  8 10  1  0  0  0  0
  9  8  1  0  0  0  0
 10 11  1  0  0  0  0
 10 12  2  0  0  0  0
 12 13  1  0  0  0  0
 13  3  2  0  0  0  0
 13 14  1  0  0  0  0
 14 15  2  0  0  0  0
 15 16  1  0  0  0  0
 15 17  1  0  0  0  0
 17 18  1  0  0  0  0
 19 20  1  0  0  0  0
 19 17  2  0  0  0  0
M  END
