4,6
q = -1.0

 36 38  0  0  1  0  0  0  0  0999 V2000
   -4.2014   -2.8438    0.1901 F   0  0  0  0  0  0  0  0  0  0  0  0
   -5.3500   -1.9178   -1.4169 F   0  0  0  0  0  0  0  0  0  0  0  0
   -5.9271   -1.5820    0.6550 F   0  0  0  0  0  0  0  0  0  0  0  0
   -0.4149    0.6539   -0.0584 N   0  0  0  0  0  2  0  0  0  0  0  0
   -1.3268    2.6962   -0.1971 N   0  0  0  0  0  0  0  0  0  0  0  0
    2.0731    1.1592   -0.4066 C   0  0  0  0  0  3  0  0  0  0  0  0
    3.4314    1.3710   -0.7279 C   0  0  0  0  0  0  0  0  0  0  0  0
    4.0832    0.5034   -0.9050 H   0  0  0  0  0  0  0  0  0  0  0  0
    3.9671    2.6609   -0.8448 C   0  0  0  0  0  0  0  0  0  0  0  0
    5.0339    2.7865   -1.0890 H   0  0  0  0  0  0  0  0  0  0  0  0
    3.1563    3.7969   -0.6565 C   0  0  0  0  0  0  0  0  0  0  0  0
    3.5856    4.8069   -0.7308 H   0  0  0  0  0  0  0  0  0  0  0  0
    1.7930    3.6336   -0.3972 C   0  0  0  0  0  0  0  0  0  0  0  0
    1.1642    4.5255   -0.2704 H   0  0  0  0  0  0  0  0  0  0  0  0
    1.2450    2.3327   -0.2987 C   0  0  0  0  0  0  0  0  0  0  0  0
   -0.1475    1.9730   -0.1548 C   0  0  2  0  0  3  0  0  0  0  0  0
   -1.7825    0.4936   -0.0830 C   0  0  0  0  0  0  0  0  0  0  0  0
   -2.5722   -0.6626   -0.1052 C   0  0  0  0  0  0  0  0  0  0  0  0
   -2.1050   -1.6525   -0.1392 H   0  0  0  0  0  0  0  0  0  0  0  0
   -3.9630   -0.4975   -0.1131 C   0  0  0  0  0  0  0  0  0  0  0  0
   -4.5554    0.7910   -0.1175 C   0  0  0  0  0  0  0  0  0  0  0  0
   -5.6513    0.8760   -0.1086 H   0  0  0  0  0  0  0  0  0  0  0  0
   -3.7721    1.9513   -0.1382 C   0  0  0  0  0  0  0  0  0  0  0  0
   -4.2417    2.9450   -0.1579 H   0  0  0  0  0  0  0  0  0  0  0  0
   -2.3779    1.7870   -0.1342 C   0  0  0  0  0  0  0  0  0  0  0  0
   -4.8568   -1.7109   -0.1702 C   0  0  0  0  0  0  0  0  0  0  0  0
   -1.4801    4.1409   -0.2803 C   0  0  0  0  0  0  0  0  0  0  0  0
   -2.4730    4.3405   -0.7323 H   0  0  0  0  0  0  0  0  0  0  0  0
   -0.7316    4.5291   -0.9999 H   0  0  0  0  0  0  0  0  0  0  0  0
   -1.3582    4.8461    1.0750 C   0  0  0  0  0  0  0  0  0  0  0  0
   -0.3766    4.5869    1.5263 H   0  0  0  0  0  0  0  0  0  0  0  0
   -2.1306    4.4354    1.7598 H   0  0  0  0  0  0  0  0  0  0  0  0
   -1.5007    6.3621    0.9509 C   0  0  0  0  0  0  0  0  0  0  0  0
   -0.7133    6.7909    0.2963 H   0  0  0  0  0  0  0  0  0  0  0  0
   -1.4174    6.8560    1.9386 H   0  0  0  0  0  0  0  0  0  0  0  0
   -2.4822    6.6455    0.5170 H   0  0  0  0  0  0  0  0  0  0  0  0
  2 26  1  0  0  0  0
  5 16  1  0  0  0  0
  5 25  1  0  0  0  0
  6 15  1  0  0  0  0
  7  6  2  0  0  0  0
  8  7  1  0  0  0  0
  9  7  1  0  0  0  0
  9 11  2  0  0  0  0
 10  9  1  0  0  0  0
 11 13  1  0  0  0  0
 12 11  1  0  0  0  0
 13 15  2  0  0  0  0
 13 14  1  0  0  0  0
 16 15  1  6  0  0  0
 16  4  1  0  0  0  0
 17  4  1  0  0  0  0
 18 17  1  0  0  0  0
 19 18  1  0  0  0  0
 20 18  2  0  0  0  0
 21 20  1  0  0  0  0
 21 22  1  0  0  0  0
 23 25  1  0  0  0  0
 23 21  2  0  0  0  0
 24 23  1  0  0  0  0
 25 17  2  0  0  0  0
 26 20  1  0  0  0  0
 26  1  1  0  0  0  0
 26  3  1  0  0  0  0
 27  5  1  0  0  0  0
 27 30  1  0  0  0  0
 28 27  1  0  0  0  0
 29 27  1  0  0  0  0
 30 31  1  0  0  0  0
 30 32  1  0  0  0  0
 33 30  1  0  0  0  0
 33 35  1  0  0  0  0
 34 33  1  0  0  0  0
 36 33  1  0  0  0  0
M  END
