1,18
q = 0.0, confidence = 0.718

 27 27  0  0  1  0  0  0  0  0999 V2000
   -0.4798    2.6524   -0.6105 N   0  0  0  0  0  0  0  0  0  0  0  0
    0.3203    3.3884    0.4287 C   0  0  2  0  0  0  0  0  0  0  0  0
    0.0267    2.8967    1.3830 H   0  0  0  0  0  0  0  0  0  0  0  0
   -0.0346    4.8753    0.5470 C   0  0  0  0  0  0  0  0  0  0  0  0
    0.4431    5.3071    1.4470 H   0  0  0  0  0  0  0  0  0  0  0  0
   -1.1247    5.0081    0.6784 H   0  0  0  0  0  0  0  0  0  0  0  0
    0.2854    5.4758   -0.3283 H   0  0  0  0  0  0  0  0  0  0  0  0
    1.8088    3.1157    0.2501 C   0  0  0  0  0  0  0  0  0  0  0  0
    2.7425    4.1561    0.4053 C   0  0  0  0  0  0  0  0  0  0  0  0
    2.3889    5.1749    0.6098 H   0  0  0  0  0  0  0  0  0  0  0  0
    4.1280    3.9435    0.3128 C   0  0  0  0  0  0  0  0  0  0  0  0
    4.8177    4.7907    0.4475 H   0  0  0  0  0  0  0  0  0  0  0  0
    4.6217    2.6595    0.0461 C   0  0  0  0  0  0  0  0  0  0  0  0
    5.7045    2.4775   -0.0310 H   0  0  0  0  0  0  0  0  0  0  0  0
    3.7156    1.6113   -0.1285 C   0  0  0  0  0  0  0  0  0  0  0  0
    4.0786    0.5939   -0.3435 H   0  0  0  0  0  0  0  0  0  0  0  0
    2.3091    1.8010   -0.0340 C   0  0  0  0  0  0  0  0  0  0  0  0
    1.5119    0.5981   -0.2485 C   0  0  0  0  0  2  0  0  0  0  0  0
    2.1416   -0.2767   -0.4992 H   0  0  0  0  0  0  0  0  0  0  0  0
   -0.1287    3.1029   -1.9718 C   0  0  0  0  0  0  0  0  0  0  0  0
    0.9526    2.9573   -2.1475 H   0  0  0  0  0  0  0  0  0  0  0  0
   -0.3811    4.1770   -2.1146 H   0  0  0  0  0  0  0  0  0  0  0  0
   -0.6784    2.4888   -2.7062 H   0  0  0  0  0  0  0  0  0  0  0  0
   -1.9374    2.7904   -0.4059 C   0  0  0  0  0  0  0  0  0  0  0  0
   -2.1870    2.5425    0.6430 H   0  0  0  0  0  0  0  0  0  0  0  0
   -2.4546    2.0719   -1.0734 H   0  0  0  0  0  0  0  0  0  0  0  0
   -2.3041    3.8132   -0.6514 H   0  0  0  0  0  0  0  0  0  0  0  0
  1 24  1  0  0  0  0
  1  2  1  0  0  0  0
  2  4  1  0  0  0  0
  2  3  1  1  0  0  0
  4  6  1  0  0  0  0
  4  5  1  0  0  0  0
  7  4  1  0  0  0  0
  8  9  1  0  0  0  0
  8  2  1  0  0  0  0
  9 10  1  0  0  0  0
 11  9  2  0  0  0  0
 11 12  1  0  0  0  0
 13 11  1  0  0  0  0
 14 13  1  0  0  0  0
 15 17  1  0  0  0  0
 15 13  2  0  0  0  0
 16 15  1  0  0  0  0
 17  8  2  0  0  0  0
 18 17  1  0  0  0  0
 19 18  1  0  0  0  0
 20  1  1  0  0  0  0
 21 20  1  0  0  0  0
 22 20  1  0  0  0  0
 23 20  1  0  0  0  0
 24 25  1  0  0  0  0
 26 24  1  0  0  0  0
 27 24  1  0  0  0  0
M  END
