2,3
q = -1.0

 25 24  0  0  1  0  0  0  0  0999 V2000
    2.9220    2.3953   -0.0596 O   0  0  0  0  0  0  0  0  0  0  0  0
    1.7876   -1.1194   -0.1210 N   0  0  0  0  0  0  0  0  0  0  0  0
    0.6377    1.4290   -0.2124 C   0  0  0  0  0  3  0  0  0  0  0  0
    2.0733    1.2937    0.2745 C   0  0  1  0  0  0  0  0  0  0  0  0
    2.6421    3.5761    0.6528 C   0  0  0  0  0  0  0  0  0  0  0  0
    2.6991    0.0557   -0.3816 C   0  0  1  0  0  0  0  0  0  0  0  0
    4.1629   -0.1612   -0.0115 C   0  0  0  0  0  0  0  0  0  0  0  0
    1.9358   -2.1463   -1.1809 C   0  0  0  0  0  0  0  0  0  0  0  0
    2.0110   -1.7543    1.2028 C   0  0  0  0  0  0  0  0  0  0  0  0
    2.0834    1.1632    1.3879 H   0  0  0  0  0  0  0  0  0  0  0  0
    2.6324    0.2313   -1.4765 H   0  0  0  0  0  0  0  0  0  0  0  0
    0.6441    1.7359   -1.2848 H   0  0  0  0  0  0  0  0  0  0  0  0
    0.0558    2.1712    0.3734 H   0  0  0  0  0  0  0  0  0  0  0  0
    3.4082    4.3246    0.3697 H   0  0  0  0  0  0  0  0  0  0  0  0
    2.6922    3.4184    1.7588 H   0  0  0  0  0  0  0  0  0  0  0  0
    1.6368    3.9973    0.4164 H   0  0  0  0  0  0  0  0  0  0  0  0
    4.5994   -1.0506   -0.5074 H   0  0  0  0  0  0  0  0  0  0  0  0
    4.3035   -0.2615    1.0831 H   0  0  0  0  0  0  0  0  0  0  0  0
    4.7284    0.7320   -0.3360 H   0  0  0  0  0  0  0  0  0  0  0  0
    1.7255   -1.6877   -2.1646 H   0  0  0  0  0  0  0  0  0  0  0  0
    1.1935   -2.9447   -0.9944 H   0  0  0  0  0  0  0  0  0  0  0  0
    2.9670   -2.5648   -1.1794 H   0  0  0  0  0  0  0  0  0  0  0  0
    1.9550   -0.9918    2.0012 H   0  0  0  0  0  0  0  0  0  0  0  0
    3.0016   -2.2575    1.2409 H   0  0  0  0  0  0  0  0  0  0  0  0
    1.2033   -2.4952    1.3553 H   0  0  0  0  0  0  0  0  0  0  0  0
  1  4  1  0  0  0  0
  1  5  1  0  0  0  0
  2  9  1  0  0  0  0
  3  4  1  0  0  0  0
  3 13  1  0  0  0  0
  4 10  1  1  0  0  0
  5 15  1  0  0  0  0
  6 11  1  6  0  0  0
  6  2  1  0  0  0  0
  6  7  1  0  0  0  0
  6  4  1  0  0  0  0
  7 18  1  0  0  0  0
  8 22  1  0  0  0  0
  8 21  1  0  0  0  0
  8  2  1  0  0  0  0
  9 24  1  0  0  0  0
  9 25  1  0  0  0  0
  9 23  1  0  0  0  0
 12  3  1  0  0  0  0
 14  5  1  0  0  0  0
 16  5  1  0  0  0  0
 17  7  1  0  0  0  0
 19  7  1  0  0  0  0
 20  8  1  0  0  0  0
M  END
