2,8
q = -1.0

 34 37  0  0  1  0  0  0  0  0999 V2000
    4.0476   -3.4423    0.7718 S   0  0  0  0  0  0  0  0  0  0  0  0
    1.6940   -0.2869   -0.0712 N   0  0  0  0  0  2  0  0  0  0  0  0
    2.9017   -0.9121    0.1344 C   0  0  0  0  0  0  0  0  0  0  0  0
    4.0948    1.1764   -0.2432 C   0  0  0  0  0  0  0  0  0  0  0  0
    2.8455    1.7891   -0.5288 C   0  0  0  0  0  0  0  0  0  0  0  0
    1.6890    1.0132   -0.4272 C   0  0  0  0  0  0  0  0  0  0  0  0
    2.7654   -2.3262    0.3650 C   0  0  0  0  0  0  0  0  0  0  0  0
    1.4984   -2.9333    0.2833 C   0  0  0  0  0  2  0  0  0  0  0  0
    4.1100   -0.1826    0.0743 C   0  0  0  0  0  0  0  0  0  0  0  0
    1.6088   -4.3297    0.5893 C   0  0  0  0  0  0  0  0  0  0  0  0
    2.9033   -4.7405    0.8612 C   0  0  0  0  0  0  0  0  0  0  0  0
    5.3348    2.0472   -0.3030 C   0  0  0  0  0  0  0  0  0  0  0  0
    4.9775    3.4795   -0.7325 C   0  0  1  0  0  0  0  0  0  0  0  0
    4.0223    3.4204   -1.9563 C   0  0  0  0  0  0  0  0  0  0  0  0
    2.8709    3.2418   -0.9210 C   0  0  2  0  0  0  0  0  0  0  0  0
    3.7687    4.0476    0.1028 C   0  0  0  0  0  0  0  0  0  0  0  0
    3.6144    5.5633   -0.0688 C   0  0  0  0  0  0  0  0  0  0  0  0
    3.6688    3.7042    1.5878 C   0  0  0  0  0  0  0  0  0  0  0  0
    0.7075    1.4551   -0.6541 H   0  0  0  0  0  0  0  0  0  0  0  0
    5.0593   -0.7052    0.2686 H   0  0  0  0  0  0  0  0  0  0  0  0
    0.7613   -5.0249    0.6363 H   0  0  0  0  0  0  0  0  0  0  0  0
    3.2540   -5.7479    1.1196 H   0  0  0  0  0  0  0  0  0  0  0  0
    6.0670    1.6081   -1.0154 H   0  0  0  0  0  0  0  0  0  0  0  0
    5.8383    2.0445    0.6885 H   0  0  0  0  0  0  0  0  0  0  0  0
    5.8837    4.1162   -0.8009 H   0  0  0  0  0  0  0  0  0  0  0  0
    4.1696    2.5959   -2.6826 H   0  0  0  0  0  0  0  0  0  0  0  0
    3.9648    4.3783   -2.5040 H   0  0  0  0  0  0  0  0  0  0  0  0
    1.8612    3.6380   -1.1535 H   0  0  0  0  0  0  0  0  0  0  0  0
    3.6754    5.8911   -1.1242 H   0  0  0  0  0  0  0  0  0  0  0  0
    4.4082    6.0975    0.4937 H   0  0  0  0  0  0  0  0  0  0  0  0
    2.6362    5.9014    0.3319 H   0  0  0  0  0  0  0  0  0  0  0  0
    2.7029    4.0620    2.0018 H   0  0  0  0  0  0  0  0  0  0  0  0
    4.4788    4.2069    2.1565 H   0  0  0  0  0  0  0  0  0  0  0  0
    3.7307    2.6190    1.7928 H   0  0  0  0  0  0  0  0  0  0  0  0
  1 11  1  0  0  0  0
  2  3  1  0  0  0  0
  3  7  2  0  0  0  0
  4  9  2  0  0  0  0
  5  6  2  0  0  0  0
  5  4  1  0  0  0  0
  6  2  1  0  0  0  0
  7  1  1  0  0  0  0
  8  7  1  0  0  0  0
  8 10  1  0  0  0  0
  9  3  1  0  0  0  0
  9 20  1  0  0  0  0
 10 21  1  0  0  0  0
 10 11  2  0  0  0  0
 11 22  1  0  0  0  0
 12  4  1  0  0  0  0
 12 24  1  0  0  0  0
 13 25  1  6  0  0  0
 13 12  1  0  0  0  0
 13 16  1  0  0  0  0
 14 15  1  0  0  0  0
 14 13  1  0  0  0  0
 15 28  1  6  0  0  0
 15  5  1  0  0  0  0
 15 16  1  0  0  0  0
 16 18  1  0  0  0  0
 17 16  1  0  0  0  0
 17 31  1  0  0  0  0
 17 30  1  0  0  0  0
 18 34  1  0  0  0  0
 18 32  1  0  0  0  0
 18 33  1  0  0  0  0
 19  6  1  0  0  0  0
 23 12  1  0  0  0  0
 26 14  1  0  0  0  0
 27 14  1  0  0  0  0
 29 17  1  0  0  0  0
M  END
