2,3
q = -1.0, confidence = 0.0

 34 37  0  0  1  0  0  0  0  0999 V2000
   -3.0469    3.3443   -2.4227 S   0  0  0  0  0  0  0  0  0  0  0  0
   -0.0064    1.7152   -0.3414 N   0  0  0  0  0  2  0  0  0  0  0  0
   -2.6022    1.2810   -0.8328 C   0  0  0  0  0  3  0  0  0  0  0  0
   -3.9805    1.2306   -1.2243 C   0  0  0  0  0  0  0  0  0  0  0  0
   -4.3567    2.2671   -2.0620 C   0  0  0  0  0  3  0  0  0  0  0  0
   -1.9697    2.3872   -1.4328 C   0  0  0  0  0  0  0  0  0  0  0  0
   -0.5883    2.6744   -1.1425 C   0  0  0  0  0  0  0  0  0  0  0  0
    0.1293    3.8296   -1.5157 C   0  0  0  0  0  0  0  0  0  0  0  0
    1.4062    4.0426   -0.9900 C   0  0  0  0  0  0  0  0  0  0  0  0
    1.9328    3.1345   -0.0584 C   0  0  0  0  0  0  0  0  0  0  0  0
    1.1729    1.9819    0.2602 C   0  0  0  0  0  0  0  0  0  0  0  0
    1.6722    1.0925    1.3801 C   0  0  0  0  0  0  0  0  0  0  0  0
    3.0361    1.5759    1.8946 C   0  0  1  0  0  0  0  0  0  0  0  0
    3.9499    1.9036    0.6820 C   0  0  0  0  0  0  0  0  0  0  0  0
    3.2470    3.2927    0.6620 C   0  0  2  0  0  0  0  0  0  0  0  0
    3.0189    3.1163    2.2182 C   0  0  0  0  0  0  0  0  0  0  0  0
    4.2432    3.5478    3.0336 C   0  0  0  0  0  0  0  0  0  0  0  0
    1.7652    3.7230    2.8443 C   0  0  0  0  0  0  0  0  0  0  0  0
   -4.6836    0.4437   -0.9226 H   0  0  0  0  0  0  0  0  0  0  0  0
   -5.3441    2.4584   -2.5014 H   0  0  0  0  0  0  0  0  0  0  0  0
   -0.3395    4.5612   -2.1892 H   0  0  0  0  0  0  0  0  0  0  0  0
    1.9826    4.9386   -1.2692 H   0  0  0  0  0  0  0  0  0  0  0  0
    1.7335    0.0361    1.0570 H   0  0  0  0  0  0  0  0  0  0  0  0
    0.9063    1.0972    2.1863 H   0  0  0  0  0  0  0  0  0  0  0  0
    3.4245    0.8998    2.6839 H   0  0  0  0  0  0  0  0  0  0  0  0
    3.8426    1.2779   -0.2274 H   0  0  0  0  0  0  0  0  0  0  0  0
    5.0195    1.9649    0.9520 H   0  0  0  0  0  0  0  0  0  0  0  0
    3.8089    4.1837    0.3155 H   0  0  0  0  0  0  0  0  0  0  0  0
    4.3298    4.6540    3.0488 H   0  0  0  0  0  0  0  0  0  0  0  0
    5.1950    3.1423    2.6399 H   0  0  0  0  0  0  0  0  0  0  0  0
    4.1440    3.2061    4.0849 H   0  0  0  0  0  0  0  0  0  0  0  0
    0.8388    3.4939    2.2850 H   0  0  0  0  0  0  0  0  0  0  0  0
    1.8547    4.8282    2.8947 H   0  0  0  0  0  0  0  0  0  0  0  0
    1.6349    3.3529    3.8826 H   0  0  0  0  0  0  0  0  0  0  0  0
  1  5  1  0  0  0  0
  1  6  1  0  0  0  0
  2 11  1  0  0  0  0
  4 19  1  0  0  0  0
  4  3  2  0  0  0  0
  5  4  1  0  0  0  0
  6  7  2  0  0  0  0
  6  3  1  0  0  0  0
  7  2  1  0  0  0  0
  8  7  1  0  0  0  0
  8  9  2  0  0  0  0
  9 10  1  0  0  0  0
 10 11  2  0  0  0  0
 10 15  1  0  0  0  0
 11 12  1  0  0  0  0
 12 13  1  0  0  0  0
 12 24  1  0  0  0  0
 13 16  1  0  0  0  0
 13 25  1  1  0  0  0
 14 27  1  0  0  0  0
 14 13  1  0  0  0  0
 15 28  1  6  0  0  0
 15 14  1  0  0  0  0
 15 16  1  0  0  0  0
 16 18  1  0  0  0  0
 16 17  1  0  0  0  0
 17 29  1  0  0  0  0
 17 31  1  0  0  0  0
 18 33  1  0  0  0  0
 18 34  1  0  0  0  0
 20  5  1  0  0  0  0
 21  8  1  0  0  0  0
 22  9  1  0  0  0  0
 23 12  1  0  0  0  0
 26 14  1  0  0  0  0
 30 17  1  0  0  0  0
 32 18  1  0  0  0  0
M  END
