2,3
q = -1.0

 46 51  0  0  0  0  0  0  0  0999 V2000
   -1.7312   -2.2907    0.4534 C   0  0  0  0  0  0  0  0  0  0  0  0
   -2.5664   -1.2420    0.1746 N   0  0  0  0  0  2  0  0  0  0  0  0
   -0.0186   -0.6306    0.0983 C   0  0  0  0  0  2  0  0  0  0  0  0
    3.7064   -0.7047    0.1900 N   0  0  0  0  0  0  0  0  0  0  0  0
   -2.2342   -3.5914    0.7334 C   0  0  0  0  0  0  0  0  0  0  0  0
   -1.5192   -4.3934    0.9575 H   0  0  0  0  0  0  0  0  0  0  0  0
    0.7355   -2.8967    0.6795 C   0  0  0  0  0  0  0  0  0  0  0  0
    0.5187   -3.9397    0.9556 H   0  0  0  0  0  0  0  0  0  0  0  0
    1.3231   -0.2306   -0.0051 C   0  0  0  0  0  0  0  0  0  0  0  0
    1.5577    0.8011   -0.2977 H   0  0  0  0  0  0  0  0  0  0  0  0
    2.3618   -1.1418    0.2587 C   0  0  0  0  0  0  0  0  0  0  0  0
   -0.3129   -1.9832    0.4260 C   0  0  0  0  0  0  0  0  0  0  0  0
    7.1441   -1.0352   -0.9194 C   0  0  0  0  0  0  0  0  0  0  0  0
    8.0694   -0.4492   -0.8111 H   0  0  0  0  0  0  0  0  0  0  0  0
    2.0656   -2.4815    0.6104 C   0  0  0  0  0  0  0  0  0  0  0  0
    2.8814   -3.1764    0.8511 H   0  0  0  0  0  0  0  0  0  0  0  0
    4.7554   -1.3612   -0.4709 C   0  0  0  0  0  0  0  0  0  0  0  0
    4.2055    0.4809    0.7528 C   0  0  0  0  0  0  0  0  0  0  0  0
   -3.9384   -1.4636    0.1387 C   0  0  0  0  0  0  0  0  0  0  0  0
    6.3355    1.6830    0.9323 C   0  0  0  0  0  0  0  0  0  0  0  0
    7.4096    1.7701    0.7086 H   0  0  0  0  0  0  0  0  0  0  0  0
    5.9406   -2.9638   -1.8139 C   0  0  0  0  0  0  0  0  0  0  0  0
    5.9498   -3.8877   -2.4118 H   0  0  0  0  0  0  0  0  0  0  0  0
    4.7372   -2.5439   -1.2303 C   0  0  0  0  0  0  0  0  0  0  0  0
    3.8104   -3.1157   -1.3739 H   0  0  0  0  0  0  0  0  0  0  0  0
    4.3087    2.5346    1.9974 C   0  0  0  0  0  0  0  0  0  0  0  0
    3.8170    3.3039    2.6122 H   0  0  0  0  0  0  0  0  0  0  0  0
   -3.5881   -3.8344    0.7180 C   0  0  0  0  0  0  0  0  0  0  0  0
   -3.9893   -4.8365    0.9337 H   0  0  0  0  0  0  0  0  0  0  0  0
    7.1349   -2.2255   -1.6569 C   0  0  0  0  0  0  0  0  0  0  0  0
    8.0619   -2.5861   -2.1269 H   0  0  0  0  0  0  0  0  0  0  0  0
    5.6000    0.5818    0.4564 C   0  0  0  0  0  0  0  0  0  0  0  0
    3.5516    1.4483    1.5365 C   0  0  0  0  0  0  0  0  0  0  0  0
    2.4855    1.3582    1.7849 H   0  0  0  0  0  0  0  0  0  0  0  0
   -4.8450   -0.4149   -0.1716 C   0  0  0  0  0  0  0  0  0  0  0  0
   -4.4532    0.5911   -0.3673 H   0  0  0  0  0  0  0  0  0  0  0  0
   -4.4831   -2.7732    0.4109 C   0  0  0  0  0  0  0  0  0  0  0  0
    5.9500   -0.5898   -0.3235 C   0  0  0  0  0  0  0  0  0  0  0  0
   -6.2141   -0.6514   -0.2102 C   0  0  0  0  0  0  0  0  0  0  0  0
   -6.8913    0.1816   -0.4541 H   0  0  0  0  0  0  0  0  0  0  0  0
    5.6837    2.6589    1.6959 C   0  0  0  0  0  0  0  0  0  0  0  0
    6.2461    3.5265    2.0720 H   0  0  0  0  0  0  0  0  0  0  0  0
   -5.8897   -2.9770    0.3644 C   0  0  0  0  0  0  0  0  0  0  0  0
   -6.2762   -3.9857    0.5768 H   0  0  0  0  0  0  0  0  0  0  0  0
   -6.7508   -1.9344    0.0576 C   0  0  0  0  0  0  0  0  0  0  0  0
   -7.8377   -2.1006    0.0223 H   0  0  0  0  0  0  0  0  0  0  0  0
  1  5  1  0  0  0  0
  2  1  1  0  0  0  0
  3 12  1  0  0  0  0
  4 11  1  0  0  0  0
  4 18  1  0  0  0  0
  5  6  1  0  0  0  0
  7  8  1  0  0  0  0
  9  3  1  0  0  0  0
  9 11  2  0  0  0  0
 10  9  1  0  0  0  0
 11 15  1  0  0  0  0
 12  1  2  0  0  0  0
 12  7  1  0  0  0  0
 13 14  1  0  0  0  0
 13 38  1  0  0  0  0
 15  7  2  0  0  0  0
 15 16  1  0  0  0  0
 17 38  2  0  0  0  0
 17  4  1  0  0  0  0
 18 33  1  0  0  0  0
 19  2  1  0  0  0  0
 19 37  1  0  0  0  0
 20 41  2  0  0  0  0
 21 20  1  0  0  0  0
 22 30  1  0  0  0  0
 22 24  2  0  0  0  0
 23 22  1  0  0  0  0
 24 17  1  0  0  0  0
 25 24  1  0  0  0  0
 26 27  1  0  0  0  0
 28  5  2  0  0  0  0
 28 29  1  0  0  0  0
 30 13  2  0  0  0  0
 31 30  1  0  0  0  0
 32 18  2  0  0  0  0
 32 20  1  0  0  0  0
 33 34  1  0  0  0  0
 33 26  2  0  0  0  0
 35 19  2  0  0  0  0
 36 35  1  0  0  0  0
 37 28  1  0  0  0  0
 38 32  1  0  0  0  0
 39 35  1  0  0  0  0
 39 45  2  0  0  0  0
 40 39  1  0  0  0  0
 41 26  1  0  0  0  0
 41 42  1  0  0  0  0
 43 37  2  0  0  0  0
 43 44  1  0  0  0  0
 45 43  1  0  0  0  0
 46 45  1  0  0  0  0
M  END
