3,4
q = -1.0

 30 30  0  0  0  0  0  0  0  0999 V2000
   -4.3850   -0.5403    0.0951 O   0  0  0  0  0  0  0  0  0  0  0  0
   -2.0654   -1.7539   -0.0351 O   0  0  0  0  0  0  0  0  0  0  0  0
    1.4148    1.8360    0.2131 N   0  0  0  0  0  0  0  0  0  0  0  0
   -0.8738    0.3555   -0.2839 C   0  0  0  0  0  3  0  0  0  0  0  0
   -0.9596    1.7697   -0.4010 C   0  0  0  0  0  0  0  0  0  0  0  0
   -2.2021    2.4131   -0.3640 C   0  0  0  0  0  0  0  0  0  0  0  0
   -3.3847    1.6715   -0.2160 C   0  0  0  0  0  0  0  0  0  0  0  0
   -3.3133    0.2751   -0.0840 C   0  0  0  0  0  0  0  0  0  0  0  0
   -2.0484   -0.3982   -0.1251 C   0  0  0  0  0  0  0  0  0  0  0  0
    0.3302    2.5123   -0.5717 C   0  0  0  0  0  0  0  0  0  0  0  0
    1.2646    2.0647    1.6716 C   0  0  0  0  0  0  0  0  0  0  0  0
    2.7450    2.3046   -0.2407 C   0  0  0  0  0  0  0  0  0  0  0  0
   -5.6730    0.0434    0.1278 C   0  0  0  0  0  0  0  0  0  0  0  0
   -2.0421   -2.2852    1.2834 C   0  0  0  0  0  0  0  0  0  0  0  0
   -2.2564    3.5096   -0.4501 H   0  0  0  0  0  0  0  0  0  0  0  0
   -4.3514    2.1908   -0.1878 H   0  0  0  0  0  0  0  0  0  0  0  0
    0.2626    3.5784   -0.2608 H   0  0  0  0  0  0  0  0  0  0  0  0
    0.6619    2.4924   -1.6315 H   0  0  0  0  0  0  0  0  0  0  0  0
    0.2538    1.7514    1.9899 H   0  0  0  0  0  0  0  0  0  0  0  0
    2.0266    1.4619    2.1993 H   0  0  0  0  0  0  0  0  0  0  0  0
    1.4108    3.1430    1.8989 H   0  0  0  0  0  0  0  0  0  0  0  0
    2.8359    3.3926   -0.0322 H   0  0  0  0  0  0  0  0  0  0  0  0
    3.5279    1.7259    0.2819 H   0  0  0  0  0  0  0  0  0  0  0  0
    2.8451    2.1234   -1.3262 H   0  0  0  0  0  0  0  0  0  0  0  0
   -6.3888   -0.7874    0.2684 H   0  0  0  0  0  0  0  0  0  0  0  0
   -5.7827    0.7630    0.9707 H   0  0  0  0  0  0  0  0  0  0  0  0
   -5.9123    0.5699   -0.8233 H   0  0  0  0  0  0  0  0  0  0  0  0
   -1.1372   -1.9478    1.8369 H   0  0  0  0  0  0  0  0  0  0  0  0
   -2.9557   -2.0010    1.8520 H   0  0  0  0  0  0  0  0  0  0  0  0
   -1.9986   -3.3854    1.1820 H   0  0  0  0  0  0  0  0  0  0  0  0
  1 13  1  0  0  0  0
  2 14  1  0  0  0  0
  3 11  1  0  0  0  0
  4  9  1  0  0  0  0
  5  6  1  0  0  0  0
  5  4  2  0  0  0  0
  6  7  2  0  0  0  0
  7 16  1  0  0  0  0
  7  8  1  0  0  0  0
  8  1  1  0  0  0  0
  9  8  2  0  0  0  0
  9  2  1  0  0  0  0
 10  5  1  0  0  0  0
 10 17  1  0  0  0  0
 10  3  1  0  0  0  0
 11 21  1  0  0  0  0
 11 19  1  0  0  0  0
 11 20  1  0  0  0  0
 12 22  1  0  0  0  0
 12  3  1  0  0  0  0
 12 23  1  0  0  0  0
 13 25  1  0  0  0  0
 13 26  1  0  0  0  0
 14 28  1  0  0  0  0
 14 29  1  0  0  0  0
 15  6  1  0  0  0  0
 18 10  1  0  0  0  0
 24 12  1  0  0  0  0
 27 13  1  0  0  0  0
 30 14  1  0  0  0  0
M  END
