1,2
q = -1.0, confidence = 0.0

 23 24  0  0  1  0  0  0  0  0999 V2000
    1.9274   -0.0003   -0.5808 N   0  0  0  0  0  2  0  0  0  0  0  0
    0.4595    0.0002    1.6178 C   0  0  0  0  0  3  0  0  0  0  0  0
   -0.3682    0.0005    2.7551 C   0  0  0  0  0  0  0  0  0  0  0  0
    0.1874    0.0007    4.0456 C   0  0  0  0  0  0  0  0  0  0  0  0
    1.5829    0.0007    4.2216 C   0  0  0  0  0  0  0  0  0  0  0  0
    2.4240    0.0004    3.1042 C   0  0  0  0  0  0  0  0  0  0  0  0
    1.8738    0.0002    1.8034 C   0  0  0  0  0  0  0  0  0  0  0  0
    2.6719   -0.0001    0.5747 C   0  0  1  0  0  3  0  0  0  0  0  0
    4.0773   -0.0002    0.4989 C   0  0  0  0  0  0  0  0  0  0  0  0
    4.7396   -0.0004   -0.7386 C   0  0  0  0  0  0  0  0  0  0  0  0
    3.9338   -0.0006   -1.9010 C   0  0  0  0  0  0  0  0  0  0  0  0
    2.5461   -0.0006   -1.7872 C   0  0  0  0  0  0  0  0  0  0  0  0
    6.2383   -0.0005   -0.8351 C   0  0  0  0  0  0  0  0  0  0  0  0
   -1.4642    0.0005    2.6444 H   0  0  0  0  0  0  0  0  0  0  0  0
   -0.4748    0.0009    4.9252 H   0  0  0  0  0  0  0  0  0  0  0  0
    2.0130    0.0008    5.2336 H   0  0  0  0  0  0  0  0  0  0  0  0
    3.5150    0.0004    3.2484 H   0  0  0  0  0  0  0  0  0  0  0  0
    4.6611   -0.0000    1.4299 H   0  0  0  0  0  0  0  0  0  0  0  0
    4.3877   -0.0009   -2.9027 H   0  0  0  0  0  0  0  0  0  0  0  0
    1.8657   -0.0007   -2.6555 H   0  0  0  0  0  0  0  0  0  0  0  0
    6.7192   -0.0001    0.1606 H   0  0  0  0  0  0  0  0  0  0  0  0
    6.5961    0.8882   -1.3948 H   0  0  0  0  0  0  0  0  0  0  0  0
    6.5960   -0.8898   -1.3940 H   0  0  0  0  0  0  0  0  0  0  0  0
  1  8  1  0  0  0  0
  2  7  2  0  0  0  0
  2  3  1  0  0  0  0
  3  4  2  0  0  0  0
  4  5  1  0  0  0  0
  4 15  1  0  0  0  0
  5 16  1  0  0  0  0
  6 17  1  0  0  0  0
  6  5  2  0  0  0  0
  7  6  1  0  0  0  0
  8  7  1  1  0  0  0
  9  8  1  0  0  0  0
  9 18  1  0  0  0  0
 10  9  2  0  0  0  0
 11 12  2  0  0  0  0
 11 10  1  0  0  0  0
 12  1  1  0  0  0  0
 13 10  1  0  0  0  0
 13 21  1  0  0  0  0
 14  3  1  0  0  0  0
 19 11  1  0  0  0  0
 20 12  1  0  0  0  0
 22 13  1  0  0  0  0
 23 13  1  0  0  0  0
M  END
