2,9
q = 0.0, confidence = 0.996

 39 42  0  0  1  0  0  0  0  0999 V2000
   -1.4434    3.6321    0.1666 O   0  0  0  0  0  0  0  0  0  0  0  0
   -2.6283    0.3059    0.5499 N   0  0  0  0  0  2  0  0  0  0  0  0
   -2.5854    1.6388    0.8362 C   0  0  2  0  0  3  0  0  0  0  0  0
   -3.5644    2.2555    1.6216 C   0  0  0  0  0  0  0  0  0  0  0  0
   -4.6020    1.4751    2.1471 C   0  0  0  0  0  0  0  0  0  0  0  0
   -4.6311    0.1031    1.8483 C   0  0  0  0  0  0  0  0  0  0  0  0
   -3.6340   -0.4535    1.0385 C   0  0  0  0  0  0  0  0  0  0  0  0
   -1.4537    2.4100    0.2060 C   0  0  0  0  0  0  0  0  0  0  0  0
   -0.3549    1.5501   -0.3405 C   0  0  0  0  0  3  0  0  0  0  0  0
    0.2877    0.6568    0.5846 C   0  0  0  0  0  3  0  0  0  0  0  0
    1.7171    0.2692    0.5652 C   0  0  0  0  0  0  0  0  0  0  0  0
    2.7397    1.2086    0.2267 C   0  0  0  0  0  0  0  0  0  0  0  0
    2.5045    2.6063   -0.0059 C   0  0  0  0  0  0  0  0  0  0  0  0
    3.5327    3.4693   -0.3372 C   0  0  0  0  0  0  0  0  0  0  0  0
    4.8734    3.0003   -0.4589 C   0  0  0  0  0  0  0  0  0  0  0  0
    5.1561    1.6762   -0.1967 C   0  0  0  0  0  0  0  0  0  0  0  0
    4.1219    0.7552    0.1738 C   0  0  0  0  0  0  0  0  0  0  0  0
    4.4336   -0.5723    0.5119 C   0  0  0  0  0  0  0  0  0  0  0  0
    3.4478   -1.4806    0.9351 C   0  0  0  0  0  0  0  0  0  0  0  0
    3.7863   -2.8182    1.3200 C   0  0  0  0  0  0  0  0  0  0  0  0
    2.8129   -3.7098    1.7240 C   0  0  0  0  0  0  0  0  0  0  0  0
    1.4473   -3.3023    1.7483 C   0  0  0  0  0  0  0  0  0  0  0  0
    1.0845   -2.0221    1.3717 C   0  0  0  0  0  0  0  0  0  0  0  0
    2.0620   -1.0581    0.9648 C   0  0  0  0  0  0  0  0  0  0  0  0
   -3.4808    3.3394    1.7879 H   0  0  0  0  0  0  0  0  0  0  0  0
   -5.3827    1.9283    2.7756 H   0  0  0  0  0  0  0  0  0  0  0  0
   -5.4294   -0.5473    2.2331 H   0  0  0  0  0  0  0  0  0  0  0  0
   -3.6239   -1.5079    0.7200 H   0  0  0  0  0  0  0  0  0  0  0  0
    0.2091    1.9593   -1.1920 H   0  0  0  0  0  0  0  0  0  0  0  0
   -0.1920    0.5447    1.5777 H   0  0  0  0  0  0  0  0  0  0  0  0
    1.4949    3.0197    0.1074 H   0  0  0  0  0  0  0  0  0  0  0  0
    3.3117    4.5351   -0.4995 H   0  0  0  0  0  0  0  0  0  0  0  0
    5.6767    3.6984   -0.7380 H   0  0  0  0  0  0  0  0  0  0  0  0
    6.1895    1.3001   -0.2505 H   0  0  0  0  0  0  0  0  0  0  0  0
    5.4829   -0.9042    0.4623 H   0  0  0  0  0  0  0  0  0  0  0  0
    4.8448   -3.1190    1.2834 H   0  0  0  0  0  0  0  0  0  0  0  0
    3.0837   -4.7354    2.0162 H   0  0  0  0  0  0  0  0  0  0  0  0
    0.6706   -4.0193    2.0539 H   0  0  0  0  0  0  0  0  0  0  0  0
    0.0189   -1.7519    1.3550 H   0  0  0  0  0  0  0  0  0  0  0  0
  1  8  2  0  0  0  0
  2  3  1  0  0  0  0
  2  7  1  0  0  0  0
  3  8  1  6  0  0  0
  3  4  1  0  0  0  0
  4 25  1  0  0  0  0
  4  5  2  0  0  0  0
  5 26  1  0  0  0  0
  6  5  1  0  0  0  0
  6 27  1  0  0  0  0
  7  6  2  0  0  0  0
  9  8  1  0  0  0  0
  9 10  1  0  0  0  0
 10 30  1  0  0  0  0
 11 10  1  0  0  0  0
 11 24  1  0  0  0  0
 12 11  2  0  0  0  0
 13 31  1  0  0  0  0
 13 12  1  0  0  0  0
 14 13  2  0  0  0  0
 15 14  1  0  0  0  0
 15 16  2  0  0  0  0
 16 17  1  0  0  0  0
 17 12  1  0  0  0  0
 17 18  2  0  0  0  0
 18 19  1  0  0  0  0
 19 24  2  0  0  0  0
 19 20  1  0  0  0  0
 20 21  2  0  0  0  0
 21 22  1  0  0  0  0
 21 37  1  0  0  0  0
 22 38  1  0  0  0  0
 23 22  2  0  0  0  0
 24 23  1  0  0  0  0
 28  7  1  0  0  0  0
 29  9  1  0  0  0  0
 32 14  1  0  0  0  0
 33 15  1  0  0  0  0
 34 16  1  0  0  0  0
 35 18  1  0  0  0  0
 36 20  1  0  0  0  0
 39 23  1  0  0  0  0
M  END
