1,4
q = -1.0

 25 26  0  0  1  0  0  0  0  0999 V2000
    0.5902    0.9208   -1.6083 N   0  0  0  0  0  0  0  0  0  0  0  0
    1.3293    1.6325   -1.5211 H   0  0  0  0  0  0  0  0  0  0  0  0
    0.7385    0.4709   -2.5229 H   0  0  0  0  0  0  0  0  0  0  0  0
   -1.2738   -0.5171   -0.3964 C   0  0  0  0  0  3  0  0  0  0  0  0
   -5.0512    1.9077   -2.4598 C   0  0  0  0  0  0  0  0  0  0  0  0
   -5.4319    2.7508   -3.0556 H   0  0  0  0  0  0  0  0  0  0  0  0
   -1.7633    0.5565   -1.1574 C   0  0  0  0  0  0  0  0  0  0  0  0
   -3.6887    1.7967   -2.2175 C   0  0  0  0  0  0  0  0  0  0  0  0
   -3.0145    2.5608   -2.6312 H   0  0  0  0  0  0  0  0  0  0  0  0
   -3.5763   -1.3552   -0.1751 C   0  0  0  0  0  0  0  0  0  0  0  0
   -4.2822   -2.1043    0.2171 H   0  0  0  0  0  0  0  0  0  0  0  0
   -3.1596    0.7137   -1.4493 C   0  0  0  0  0  0  0  0  0  0  0  0
   -2.2213   -1.4722    0.0850 C   0  0  0  0  0  0  0  0  0  0  0  0
   -1.8781   -2.3187    0.6966 H   0  0  0  0  0  0  0  0  0  0  0  0
   -0.7581    1.5894   -1.6088 C   0  0  1  0  0  0  0  0  0  0  0  0
   -0.9727    1.9150   -2.6502 H   0  0  0  0  0  0  0  0  0  0  0  0
   -5.9581    0.9433   -1.9482 C   0  0  0  0  0  0  0  0  0  0  0  0
   -7.0354    1.0447   -2.1456 H   0  0  0  0  0  0  0  0  0  0  0  0
   -4.0870   -0.2688   -0.9406 C   0  0  0  0  0  0  0  0  0  0  0  0
   -5.4796   -0.1257   -1.2058 C   0  0  0  0  0  0  0  0  0  0  0  0
   -6.1718   -0.8838   -0.8077 H   0  0  0  0  0  0  0  0  0  0  0  0
   -0.7443    2.8331   -0.7145 C   0  0  0  0  0  0  0  0  0  0  0  0
   -0.4875    2.5722    0.3295 H   0  0  0  0  0  0  0  0  0  0  0  0
   -1.7524    3.2881   -0.7040 H   0  0  0  0  0  0  0  0  0  0  0  0
   -0.0336    3.6015   -1.0842 H   0  0  0  0  0  0  0  0  0  0  0  0
  1  2  1  0  0  0  0
  3  1  1  0  0  0  0
  4 13  1  0  0  0  0
  5  8  2  0  0  0  0
  5 17  1  0  0  0  0
  6  5  1  0  0  0  0
  7  4  2  0  0  0  0
  8 12  1  0  0  0  0
  9  8  1  0  0  0  0
 10 13  2  0  0  0  0
 10 11  1  0  0  0  0
 12  7  1  0  0  0  0
 12 19  2  0  0  0  0
 13 14  1  0  0  0  0
 15 16  1  6  0  0  0
 15  1  1  0  0  0  0
 15  7  1  0  0  0  0
 15 22  1  0  0  0  0
 17 20  2  0  0  0  0
 18 17  1  0  0  0  0
 19 10  1  0  0  0  0
 20 19  1  0  0  0  0
 20 21  1  0  0  0  0
 22 24  1  0  0  0  0
 22 23  1  0  0  0  0
 25 22  1  0  0  0  0
M  END
