2,12
q = -1.0

 27 28  0  0  0  0  0  0  0  0999 V2000
   -6.2936   -2.3246   -0.1114 O   0  0  0  0  0  0  0  0  0  0  0  0
   -1.7215    0.8587   -0.1485 N   0  0  0  0  0  2  0  0  0  0  0  0
   -1.8371    2.1309   -0.0711 N   0  0  0  0  0  0  0  0  0  0  0  0
   -2.9008    0.0836   -0.1168 C   0  0  0  0  0  0  0  0  0  0  0  0
   -4.0122    0.4782    0.6566 C   0  0  0  0  0  0  0  0  0  0  0  0
   -5.1668   -0.3058    0.6847 C   0  0  0  0  0  0  0  0  0  0  0  0
   -5.2346   -1.5007   -0.0748 C   0  0  0  0  0  0  0  0  0  0  0  0
   -4.1237   -1.8840   -0.8704 C   0  0  0  0  0  0  0  0  0  0  0  0
   -2.9706   -1.1035   -0.8893 C   0  0  0  0  0  0  0  0  0  0  0  0
   -7.4663   -1.9935    0.6296 C   0  0  0  0  0  0  0  0  0  0  0  0
   -0.6185    2.7715   -0.0883 C   0  0  0  0  0  0  0  0  0  0  0  0
    0.5729    1.9746   -0.1724 C   0  0  0  0  0  2  0  0  0  0  0  0
    1.8091    2.6168   -0.2393 C   0  0  0  0  0  0  0  0  0  0  0  0
    1.8631    4.0298   -0.2261 C   0  0  0  0  0  0  0  0  0  0  0  0
    0.6959    4.8076   -0.1335 C   0  0  0  0  0  0  0  0  0  0  0  0
   -0.5532    4.1825   -0.0638 C   0  0  0  0  0  0  0  0  0  0  0  0
   -3.9486    1.4064    1.2413 H   0  0  0  0  0  0  0  0  0  0  0  0
   -6.0136    0.0125    1.3067 H   0  0  0  0  0  0  0  0  0  0  0  0
   -4.2125   -2.7900   -1.4865 H   0  0  0  0  0  0  0  0  0  0  0  0
   -2.1413   -1.3606   -1.5677 H   0  0  0  0  0  0  0  0  0  0  0  0
   -7.2563   -1.9475    1.7197 H   0  0  0  0  0  0  0  0  0  0  0  0
   -8.1912   -2.8028    0.4322 H   0  0  0  0  0  0  0  0  0  0  0  0
   -7.8960   -1.0259    0.2934 H   0  0  0  0  0  0  0  0  0  0  0  0
    2.7435    2.0433   -0.3124 H   0  0  0  0  0  0  0  0  0  0  0  0
    2.8434    4.5262   -0.2930 H   0  0  0  0  0  0  0  0  0  0  0  0
    0.7653    5.9047   -0.1204 H   0  0  0  0  0  0  0  0  0  0  0  0
   -1.4889    4.7554    0.0058 H   0  0  0  0  0  0  0  0  0  0  0  0
  1  7  1  0  0  0  0
  1 10  1  0  0  0  0
  2  4  1  0  0  0  0
  2  3  1  0  0  0  0
  4  5  1  0  0  0  0
  5  6  2  0  0  0  0
  5 17  1  0  0  0  0
  6 18  1  0  0  0  0
  7  6  1  0  0  0  0
  8  7  2  0  0  0  0
  9  8  1  0  0  0  0
  9  4  2  0  0  0  0
 10 21  1  0  0  0  0
 11  3  2  0  0  0  0
 11 16  1  0  0  0  0
 12 11  1  0  0  0  0
 13 14  2  0  0  0  0
 13 12  1  0  0  0  0
 14 15  1  0  0  0  0
 15 26  1  0  0  0  0
 15 16  2  0  0  0  0
 16 27  1  0  0  0  0
 19  8  1  0  0  0  0
 20  9  1  0  0  0  0
 22 10  1  0  0  0  0
 23 10  1  0  0  0  0
 24 13  1  0  0  0  0
 25 14  1  0  0  0  0
M  END
