3,4
q = -1.0

 24 25  0  0  1  0  0  0  0  0999 V2000
   -1.2309    3.3802   -0.0269 F   0  0  0  0  0  0  0  0  0  0  0  0
    0.9765    4.8884   -0.2731 F   0  0  0  0  0  0  0  0  0  0  0  0
    0.1065   -1.1734   -0.0091 N   0  0  0  0  0  2  0  0  0  0  0  0
    0.0301    1.3289   -0.0532 C   0  0  0  0  0  3  0  0  0  0  0  0
    3.7341    1.0574   -0.4423 F   0  0  0  0  0  0  0  0  0  0  0  0
    1.3433   -0.6801   -0.0692 C   0  0  1  0  0  3  0  0  0  0  0  0
    1.3567    0.7643   -0.1321 C   0  0  0  0  0  0  0  0  0  0  0  0
    2.4987    1.5813   -0.2982 C   0  0  0  0  0  0  0  0  0  0  0  0
    2.3738    2.9721   -0.3350 C   0  0  0  0  0  0  0  0  0  0  0  0
    3.4518    3.7575   -0.4860 F   0  0  0  0  0  0  0  0  0  0  0  0
    1.6846   -2.8491   -1.8597 F   0  0  0  0  0  0  0  0  0  0  0  0
    3.5388   -1.4454    0.9281 C   0  0  0  0  0  0  0  0  0  0  0  0
   -0.0359    2.7296   -0.0976 C   0  0  0  0  0  0  0  0  0  0  0  0
    2.5138   -1.5771   -0.0349 C   0  0  0  0  0  0  0  0  0  0  0  0
    3.4225   -0.4674    1.8464 F   0  0  0  0  0  0  0  0  0  0  0  0
    2.6489   -2.6632   -0.9276 C   0  0  0  0  0  0  0  0  0  0  0  0
    4.6401   -2.3023    0.9898 C   0  0  0  0  0  0  0  0  0  0  0  0
    5.3998   -2.1399    1.7666 H   0  0  0  0  0  0  0  0  0  0  0  0
    3.7322   -3.5452   -0.9001 C   0  0  0  0  0  0  0  0  0  0  0  0
    3.7792   -4.3587   -1.6370 H   0  0  0  0  0  0  0  0  0  0  0  0
    1.0917    3.5517   -0.2312 C   0  0  0  0  0  0  0  0  0  0  0  0
    4.7336   -3.3535    0.0643 C   0  0  0  0  0  0  0  0  0  0  0  0
    5.5950   -4.0362    0.0991 H   0  0  0  0  0  0  0  0  0  0  0  0
    0.1113   -2.2015    0.0402 H   0  0  0  0  0  0  0  0  0  0  0  0
  2 21  1  0  0  0  0
  3 24  1  0  0  0  0
  5  8  1  0  0  0  0
  6 14  1  0  0  0  0
  6  3  1  1  0  0  0
  7  6  1  0  0  0  0
  7  4  2  0  0  0  0
  8  7  1  0  0  0  0
  9  8  2  0  0  0  0
  9 21  1  0  0  0  0
 10  9  1  0  0  0  0
 11 16  1  0  0  0  0
 12 17  1  0  0  0  0
 12 15  1  0  0  0  0
 13  4  1  0  0  0  0
 13  1  1  0  0  0  0
 14 12  2  0  0  0  0
 16 19  2  0  0  0  0
 16 14  1  0  0  0  0
 17 18  1  0  0  0  0
 19 22  1  0  0  0  0
 20 19  1  0  0  0  0
 21 13  2  0  0  0  0
 22 23  1  0  0  0  0
 22 17  2  0  0  0  0
M  END
