2,3
q = -1.0

 24 25  0  0  1  0  0  0  0  0999 V2000
   -0.3996    5.4181   -0.4744 Cl  0  0  0  0  0  0  0  0  0  0  0  0
   -0.2128    1.3767   -0.1006 C   0  0  0  0  0  3  0  0  0  0  0  0
    0.5374   -1.0086    0.0337 N   0  0  0  0  0  2  0  0  0  0  0  0
    1.5923   -0.1979   -0.0509 C   0  0  2  0  0  3  0  0  0  0  0  0
    3.6462    0.6944    1.7179 F   0  0  0  0  0  0  0  0  0  0  0  0
    1.2174    1.1930   -0.1552 C   0  0  0  0  0  0  0  0  0  0  0  0
    2.4385   -2.2912   -1.7650 F   0  0  0  0  0  0  0  0  0  0  0  0
    0.2276    3.7805   -0.3561 C   0  0  0  0  0  0  0  0  0  0  0  0
   -0.6663    2.7149   -0.1978 C   0  0  0  0  0  0  0  0  0  0  0  0
   -1.7415    2.9399   -0.1560 H   0  0  0  0  0  0  0  0  0  0  0  0
    2.9668   -0.7305   -0.0520 C   0  0  0  0  0  0  0  0  0  0  0  0
    1.6227    3.5809   -0.4341 C   0  0  0  0  0  0  0  0  0  0  0  0
    2.2953    4.4383   -0.5719 H   0  0  0  0  0  0  0  0  0  0  0  0
    3.3602   -1.7817   -0.9138 C   0  0  0  0  0  0  0  0  0  0  0  0
    3.9724   -0.2596    0.8240 C   0  0  0  0  0  0  0  0  0  0  0  0
    2.1090    2.2779   -0.3337 C   0  0  0  0  0  0  0  0  0  0  0  0
    3.1933    2.1004   -0.3994 H   0  0  0  0  0  0  0  0  0  0  0  0
    4.6512   -2.3137   -0.9377 C   0  0  0  0  0  0  0  0  0  0  0  0
    4.8836   -3.1203   -1.6467 H   0  0  0  0  0  0  0  0  0  0  0  0
    5.6147   -1.7909   -0.0609 C   0  0  0  0  0  0  0  0  0  0  0  0
    6.6370   -2.1962   -0.0672 H   0  0  0  0  0  0  0  0  0  0  0  0
    5.2775   -0.7609    0.8302 C   0  0  0  0  0  0  0  0  0  0  0  0
    6.0027   -0.3467    1.5442 H   0  0  0  0  0  0  0  0  0  0  0  0
    0.8160   -1.9968    0.1015 H   0  0  0  0  0  0  0  0  0  0  0  0
  1  8  1  0  0  0  0
  3 24  1  0  0  0  0
  4  3  1  6  0  0  0
  6  2  1  0  0  0  0
  6  4  1  0  0  0  0
  7 14  1  0  0  0  0
  8  9  1  0  0  0  0
  9 10  1  0  0  0  0
  9  2  2  0  0  0  0
 11  4  1  0  0  0  0
 11 15  1  0  0  0  0
 12  8  2  0  0  0  0
 12 16  1  0  0  0  0
 13 12  1  0  0  0  0
 14 11  2  0  0  0  0
 15 22  2  0  0  0  0
 15  5  1  0  0  0  0
 16  6  2  0  0  0  0
 17 16  1  0  0  0  0
 18 14  1  0  0  0  0
 18 20  2  0  0  0  0
 19 18  1  0  0  0  0
 20 22  1  0  0  0  0
 21 20  1  0  0  0  0
 22 23  1  0  0  0  0
M  END
