2,9
q = -1.0

 29 32  0  0  0  0  0  0  0  0999 V2000
    4.5767   -0.9699   -0.0000 O   0  0  0  0  0  0  0  0  0  0  0  0
    0.2541   -1.9978   -0.0014 N   0  0  0  0  0  2  0  0  0  0  0  0
   -0.3688   -3.1976   -0.0021 C   0  0  0  0  0  0  0  0  0  0  0  0
    0.3452   -4.3973   -0.0026 C   0  0  0  0  0  0  0  0  0  0  0  0
    1.7501   -4.3504   -0.0023 C   0  0  0  0  0  0  0  0  0  0  0  0
    2.3950   -3.1102   -0.0016 C   0  0  0  0  0  0  0  0  0  0  0  0
    1.6330   -1.9247   -0.0011 C   0  0  0  0  0  0  0  0  0  0  0  0
    2.1303   -0.5598   -0.0004 C   0  0  0  0  0  0  0  0  0  0  0  0
    1.1229    0.4599   -0.0002 C   0  0  0  0  0  2  0  0  0  0  0  0
    1.5003    1.8237    0.0006 C   0  0  0  0  0  0  0  0  0  0  0  0
    2.8467    2.2119    0.0011 C   0  0  0  0  0  0  0  0  0  0  0  0
    3.8508    1.2216    0.0009 C   0  0  0  0  0  0  0  0  0  0  0  0
    3.4731   -0.1433    0.0001 C   0  0  0  0  0  0  0  0  0  0  0  0
    5.6842   -0.1446    0.0007 C   0  0  0  0  0  0  0  0  0  0  0  0
    5.3036    1.2226    0.0013 C   0  0  0  0  0  0  0  0  0  0  0  0
    6.3102    2.2065    0.0020 C   0  0  0  0  0  0  0  0  0  0  0  0
    7.6515    1.7959    0.0022 C   0  0  0  0  0  0  0  0  0  0  0  0
    7.9974    0.4271    0.0016 C   0  0  0  0  0  0  0  0  0  0  0  0
    7.0108   -0.5742    0.0009 C   0  0  0  0  0  0  0  0  0  0  0  0
   -1.4685   -3.1527   -0.0023 H   0  0  0  0  0  0  0  0  0  0  0  0
   -0.2005   -5.3509   -0.0031 H   0  0  0  0  0  0  0  0  0  0  0  0
    2.3403   -5.2789   -0.0026 H   0  0  0  0  0  0  0  0  0  0  0  0
    3.4890   -3.0287   -0.0013 H   0  0  0  0  0  0  0  0  0  0  0  0
    0.7068    2.5855    0.0008 H   0  0  0  0  0  0  0  0  0  0  0  0
    3.1204    3.2783    0.0017 H   0  0  0  0  0  0  0  0  0  0  0  0
    6.0490    3.2752    0.0025 H   0  0  0  0  0  0  0  0  0  0  0  0
    8.4503    2.5526    0.0028 H   0  0  0  0  0  0  0  0  0  0  0  0
    9.0584    0.1357    0.0018 H   0  0  0  0  0  0  0  0  0  0  0  0
    7.2635   -1.6437    0.0004 H   0  0  0  0  0  0  0  0  0  0  0  0
  1 13  1  0  0  0  0
  1 14  1  0  0  0  0
  2  7  1  0  0  0  0
  3  2  1  0  0  0  0
  4  5  1  0  0  0  0
  4  3  2  0  0  0  0
  5  6  2  0  0  0  0
  6 23  1  0  0  0  0
  6  7  1  0  0  0  0
  7  8  2  0  0  0  0
  8  9  1  0  0  0  0
  8 13  1  0  0  0  0
  9 10  1  0  0  0  0
 10 24  1  0  0  0  0
 10 11  2  0  0  0  0
 11 25  1  0  0  0  0
 12 11  1  0  0  0  0
 12 15  1  0  0  0  0
 13 12  2  0  0  0  0
 14 19  2  0  0  0  0
 14 15  1  0  0  0  0
 15 16  2  0  0  0  0
 16 17  1  0  0  0  0
 16 26  1  0  0  0  0
 17 27  1  0  0  0  0
 18 28  1  0  0  0  0
 18 17  2  0  0  0  0
 19 18  1  0  0  0  0
 20  3  1  0  0  0  0
 21  4  1  0  0  0  0
 22  5  1  0  0  0  0
 29 19  1  0  0  0  0
M  END
