1,41
q = -1.0, confidence = 0.054

 45 47  0  0  1  0  0  0  0  0999 V2000
   -0.7155    0.6395   -0.2477 N   0  0  0  0  0  2  0  0  0  0  0  0
   -0.8776    2.8385   -0.6557 N   0  0  0  0  0  0  0  0  0  0  0  0
   -0.0171    1.7816   -0.4099 C   0  0  2  0  0  3  0  0  0  0  0  0
   -2.1718    2.3298   -0.6652 C   0  0  0  0  0  0  0  0  0  0  0  0
   -3.4257    2.9313   -0.8725 C   0  0  0  0  0  0  0  0  0  0  0  0
   -3.5323    4.0122   -1.0397 H   0  0  0  0  0  0  0  0  0  0  0  0
   -4.5448    2.0944   -0.8633 C   0  0  0  0  0  0  0  0  0  0  0  0
   -5.5537    2.5021   -1.0195 H   0  0  0  0  0  0  0  0  0  0  0  0
   -4.4269    0.6914   -0.6678 C   0  0  0  0  0  0  0  0  0  0  0  0
   -3.1727    0.0928   -0.4603 C   0  0  0  0  0  0  0  0  0  0  0  0
   -3.0649   -0.9907   -0.3515 H   0  0  0  0  0  0  0  0  0  0  0  0
   -2.0510    0.9280   -0.4334 C   0  0  0  0  0  0  0  0  0  0  0  0
   -0.5256    4.2433   -0.8309 C   0  0  0  0  0  0  0  0  0  0  0  0
   -1.3752    4.7243   -1.3551 H   0  0  0  0  0  0  0  0  0  0  0  0
    0.3389    4.2994   -1.5213 H   0  0  0  0  0  0  0  0  0  0  0  0
   -0.2299    4.9684    0.4870 C   0  0  0  0  0  0  0  0  0  0  0  0
    0.6369    4.4807    0.9844 H   0  0  0  0  0  0  0  0  0  0  0  0
    0.1021    5.9998    0.2367 H   0  0  0  0  0  0  0  0  0  0  0  0
   -1.4132    5.0219    1.4580 C   0  0  0  0  0  0  0  0  0  0  0  0
   -1.7559    3.9872    1.6770 H   0  0  0  0  0  0  0  0  0  0  0  0
   -2.2731    5.5243    0.9616 H   0  0  0  0  0  0  0  0  0  0  0  0
   -1.0774    5.7385    2.7659 C   0  0  0  0  0  0  0  0  0  0  0  0
   -0.2459    5.2324    3.2990 H   0  0  0  0  0  0  0  0  0  0  0  0
   -1.9478    5.7635    3.4512 H   0  0  0  0  0  0  0  0  0  0  0  0
   -0.7632    6.7875    2.5847 H   0  0  0  0  0  0  0  0  0  0  0  0
   -5.6797   -0.1155   -0.6960 C   0  0  0  0  0  0  0  0  0  0  0  0
   -6.7975    0.3334   -0.8904 O   0  0  0  0  0  0  0  0  0  0  0  0
   -5.4425   -1.4374   -0.4692 O   0  0  0  0  0  0  0  0  0  0  0  0
   -6.6014   -2.2748   -0.4956 C   0  0  0  0  0  0  0  0  0  0  0  0
   -7.3346   -1.9618    0.2752 H   0  0  0  0  0  0  0  0  0  0  0  0
   -6.2441   -3.3006   -0.2945 H   0  0  0  0  0  0  0  0  0  0  0  0
   -7.1016   -2.2276   -1.4841 H   0  0  0  0  0  0  0  0  0  0  0  0
    1.4243    1.6517   -0.3975 C   0  0  0  0  0  0  0  0  0  0  0  0
    2.3914    2.6743   -0.5355 C   0  0  0  0  0  0  0  0  0  0  0  0
    2.0989    3.7308   -0.5955 H   0  0  0  0  0  0  0  0  0  0  0  0
    3.7492    2.3531   -0.5883 C   0  0  0  0  0  0  0  0  0  0  0  0
    4.5069    3.1438   -0.6742 H   0  0  0  0  0  0  0  0  0  0  0  0
    4.1411    1.0001   -0.5390 C   0  0  0  0  0  0  0  0  0  0  0  0
    3.1855   -0.0175   -0.4044 C   0  0  0  0  0  0  0  0  0  0  0  0
    3.5219   -1.0627   -0.4010 H   0  0  0  0  0  0  0  0  0  0  0  0
    1.8133    0.2719   -0.2760 C   0  0  0  0  0  3  0  0  0  0  0  0
    5.5978    0.6332   -0.6808 C   0  0  0  0  0  0  0  0  0  0  0  0
    5.9440    0.4338   -1.9771 F   0  0  0  0  0  0  0  0  0  0  0  0
    5.8965   -0.5129   -0.0140 F   0  0  0  0  0  0  0  0  0  0  0  0
    6.4141    1.6043   -0.1995 F   0  0  0  0  0  0  0  0  0  0  0  0
  2  3  1  0  0  0  0
  3 33  1  6  0  0  0
  3  1  1  0  0  0  0
  4  2  1  0  0  0  0
  4 12  1  0  0  0  0
  5  7  1  0  0  0  0
  5  4  2  0  0  0  0
  6  5  1  0  0  0  0
  7  9  2  0  0  0  0
  8  7  1  0  0  0  0
  9 10  1  0  0  0  0
 10 12  2  0  0  0  0
 10 11  1  0  0  0  0
 12  1  1  0  0  0  0
 13  2  1  0  0  0  0
 13 16  1  0  0  0  0
 14 13  1  0  0  0  0
 15 13  1  0  0  0  0
 16 17  1  0  0  0  0
 16 19  1  0  0  0  0
 18 16  1  0  0  0  0
 19 20  1  0  0  0  0
 19 22  1  0  0  0  0
 21 19  1  0  0  0  0
 22 23  1  0  0  0  0
 22 24  1  0  0  0  0
 25 22  1  0  0  0  0
 26  9  1  0  0  0  0
 26 28  1  0  0  0  0
 27 26  2  0  0  0  0
 29 28  1  0  0  0  0
 29 31  1  0  0  0  0
 29 30  1  0  0  0  0
 32 29  1  0  0  0  0
 33 41  1  0  0  0  0
 34 33  2  0  0  0  0
 35 34  1  0  0  0  0
 36 38  2  0  0  0  0
 36 34  1  0  0  0  0
 37 36  1  0  0  0  0
 38 39  1  0  0  0  0
 39 40  1  0  0  0  0
 39 41  2  0  0  0  0
 42 38  1  0  0  0  0
 42 45  1  0  0  0  0
 42 44  1  0  0  0  0
 43 42  1  0  0  0  0
M  END
