2,5
q = -1.0

 17 18  0  0  1  0  0  0  0  0999 V2000
   -2.1830   -1.2624   -0.9500 C   0  0  0  0  0  0  0  0  0  0  0  0
   -0.7888   -0.9874   -1.1846 C   0  0  0  0  0  3  0  0  0  0  0  0
   -0.8871   -2.6396   -2.9656 C   0  0  0  0  0  0  0  0  0  0  0  0
   -4.3104   -0.4883    0.8488 S   0  0  0  0  0  0  0  0  0  0  0  0
   -1.8851    0.3500    0.7827 N   0  0  0  0  0  2  0  0  0  0  0  0
   -2.7203   -0.4943    0.1462 C   0  0  1  0  0  3  0  0  0  0  0  0
   -3.7951    0.6915    2.0248 C   0  0  0  0  0  0  0  0  0  0  0  0
   -4.4892    1.0733    2.7809 H   0  0  0  0  0  0  0  0  0  0  0  0
   -2.4736    1.0151    1.8325 C   0  0  0  0  0  0  0  0  0  0  0  0
   -1.8729    1.7214    2.4186 H   0  0  0  0  0  0  0  0  0  0  0  0
   -2.8983   -2.2025   -1.7216 C   0  0  0  0  0  0  0  0  0  0  0  0
   -3.9657   -2.3890   -1.5218 H   0  0  0  0  0  0  0  0  0  0  0  0
   -0.1572   -1.7119   -2.2142 C   0  0  0  0  0  0  0  0  0  0  0  0
    0.9072   -1.5684   -2.4505 H   0  0  0  0  0  0  0  0  0  0  0  0
   -2.2511   -2.9012   -2.7427 C   0  0  0  0  0  0  0  0  0  0  0  0
   -2.7704   -3.6417   -3.3661 H   0  0  0  0  0  0  0  0  0  0  0  0
   -0.2605   -3.3171   -3.9484 F   0  0  0  0  0  0  0  0  0  0  0  0
  2  1  1  0  0  0  0
  3 15  2  0  0  0  0
  3 13  1  0  0  0  0
  4  7  1  0  0  0  0
  5  9  1  0  0  0  0
  6  1  1  1  0  0  0
  6  5  1  0  0  0  0
  6  4  1  0  0  0  0
  7  8  1  0  0  0  0
  9  7  2  0  0  0  0
  9 10  1  0  0  0  0
 11 12  1  0  0  0  0
 11  1  2  0  0  0  0
 13  2  2  0  0  0  0
 14 13  1  0  0  0  0
 15 11  1  0  0  0  0
 16 15  1  0  0  0  0
 17  3  1  0  0  0  0
M  END
