1,2
q = -2.0, confidence = 0.72

 21 21  0  0  0  0  0  0  0  0999 V2000
   -0.8224   -1.7012   -0.0050 N   0  0  0  0  0  2  0  0  0  0  0  0
   -1.4827    0.7373    0.0045 C   0  0  0  0  0  3  0  0  0  0  0  0
   -1.7393    2.1292   -0.0010 C   0  0  0  0  0  0  0  0  0  0  0  0
   -3.0479    2.6335   -0.0037 C   0  0  0  0  0  0  0  0  0  0  0  0
   -4.1456    1.7545    0.0005 C   0  0  0  0  0  0  0  0  0  0  0  0
   -3.9206    0.3701    0.0047 C   0  0  0  0  0  0  0  0  0  0  0  0
   -2.6089   -0.1329    0.0053 C   0  0  0  0  0  0  0  0  0  0  0  0
   -2.2856   -1.6124    0.0026 C   0  0  0  0  0  0  0  0  0  0  0  0
   -2.8419   -2.3016   -1.2625 C   0  0  0  0  0  0  0  0  0  0  0  0
   -2.8293   -2.3043    1.2717 C   0  0  0  0  0  0  0  0  0  0  0  0
   -0.8997    2.8406   -0.0014 H   0  0  0  0  0  0  0  0  0  0  0  0
   -3.2157    3.7224   -0.0086 H   0  0  0  0  0  0  0  0  0  0  0  0
   -5.1737    2.1481   -0.0005 H   0  0  0  0  0  0  0  0  0  0  0  0
   -4.7795   -0.3214    0.0063 H   0  0  0  0  0  0  0  0  0  0  0  0
   -2.4445   -1.8069   -2.1699 H   0  0  0  0  0  0  0  0  0  0  0  0
   -3.9490   -2.2527   -1.2906 H   0  0  0  0  0  0  0  0  0  0  0  0
   -2.5485   -3.3726   -1.2843 H   0  0  0  0  0  0  0  0  0  0  0  0
   -2.5360   -3.3754    1.2887 H   0  0  0  0  0  0  0  0  0  0  0  0
   -3.9361   -2.2550    1.3106 H   0  0  0  0  0  0  0  0  0  0  0  0
   -2.4229   -1.8114    2.1761 H   0  0  0  0  0  0  0  0  0  0  0  0
   -0.4937   -2.6753   -0.0134 H   0  0  0  0  0  0  0  0  0  0  0  0
  1  8  1  0  0  0  0
  2  7  1  0  0  0  0
  3  2  2  0  0  0  0
  4  3  1  0  0  0  0
  4  5  2  0  0  0  0
  5  6  1  0  0  0  0
  6  7  2  0  0  0  0
  6 14  1  0  0  0  0
  8  7  1  0  0  0  0
  8 10  1  0  0  0  0
  9  8  1  0  0  0  0
 10 18  1  0  0  0  0
 10 19  1  0  0  0  0
 10 20  1  0  0  0  0
 11  3  1  0  0  0  0
 12  4  1  0  0  0  0
 13  5  1  0  0  0  0
 15  9  1  0  0  0  0
 16  9  1  0  0  0  0
 17  9  1  0  0  0  0
 21  1  1  0  0  0  0
M  END
