1,2
q = -1.0

 24 24  0  0  0  0  0  0  0  0999 V2000
   -1.5895    0.1343   -1.4024 N   0  0  0  0  0  2  0  0  0  0  0  0
    0.8672   -0.8204   -1.2513 C   0  0  0  0  0  2  0  0  0  0  0  0
    0.1167   -1.1620   -2.3647 C   0  0  0  0  0  0  0  0  0  0  0  0
    0.4719   -1.8487   -3.1508 H   0  0  0  0  0  0  0  0  0  0  0  0
   -1.2094   -0.6483   -2.3899 C   0  0  0  0  0  0  0  0  0  0  0  0
   -1.9202   -0.9319   -3.1850 H   0  0  0  0  0  0  0  0  0  0  0  0
   -2.9846    0.5618   -1.3078 C   0  0  0  0  0  0  0  0  0  0  0  0
   -3.0153    1.6695   -1.3331 H   0  0  0  0  0  0  0  0  0  0  0  0
   -3.3435    0.2776   -0.2978 H   0  0  0  0  0  0  0  0  0  0  0  0
   -3.9563    0.0149   -2.3485 C   0  0  0  0  0  0  0  0  0  0  0  0
   -4.9702    0.4010   -2.1247 H   0  0  0  0  0  0  0  0  0  0  0  0
   -4.0094   -1.0916   -2.3198 H   0  0  0  0  0  0  0  0  0  0  0  0
   -3.7009    0.3310   -3.3809 H   0  0  0  0  0  0  0  0  0  0  0  0
    2.2128   -1.4102   -1.1102 C   0  0  0  0  0  0  0  0  0  0  0  0
    2.4661   -2.4064   -0.1383 C   0  0  0  0  0  0  0  0  0  0  0  0
    1.6382   -2.7358    0.5068 H   0  0  0  0  0  0  0  0  0  0  0  0
    3.7442   -2.9654   -0.0047 C   0  0  0  0  0  0  0  0  0  0  0  0
    3.9205   -3.7457    0.7523 H   0  0  0  0  0  0  0  0  0  0  0  0
    4.7998   -2.5360   -0.8282 C   0  0  0  0  0  0  0  0  0  0  0  0
    5.8045   -2.9705   -0.7139 H   0  0  0  0  0  0  0  0  0  0  0  0
    4.5593   -1.5558   -1.8038 C   0  0  0  0  0  0  0  0  0  0  0  0
    5.3764   -1.2192   -2.4608 H   0  0  0  0  0  0  0  0  0  0  0  0
    3.2767   -1.0042   -1.9500 C   0  0  0  0  0  0  0  0  0  0  0  0
    3.0861   -0.2378   -2.7173 H   0  0  0  0  0  0  0  0  0  0  0  0
  1  7  1  0  0  0  0
  2 14  1  0  0  0  0
  3  2  1  0  0  0  0
  4  3  1  0  0  0  0
  5  3  2  0  0  0  0
  5  1  1  0  0  0  0
  6  5  1  0  0  0  0
  7  9  1  0  0  0  0
  8  7  1  0  0  0  0
 10 12  1  0  0  0  0
 10 11  1  0  0  0  0
 10  7  1  0  0  0  0
 13 10  1  0  0  0  0
 14 15  1  0  0  0  0
 15 17  2  0  0  0  0
 15 16  1  0  0  0  0
 17 18  1  0  0  0  0
 19 20  1  0  0  0  0
 19 17  1  0  0  0  0
 21 19  2  0  0  0  0
 22 21  1  0  0  0  0
 23 21  1  0  0  0  0
 23 14  2  0  0  0  0
 24 23  1  0  0  0  0
M  END
