1,19
q = -1.0

 26 27  0  0  1  0  0  0  0  0999 V2000
   -0.3758    1.6923   -0.0256 N   0  0  0  0  0  2  0  0  0  0  0  0
    0.4751    2.7414    0.1497 C   0  0  1  0  0  3  0  0  0  0  0  0
    0.0320    4.0422   -0.1475 C   0  0  0  0  0  0  0  0  0  0  0  0
    0.7256    4.8815   -0.0171 H   0  0  0  0  0  0  0  0  0  0  0  0
   -1.2774    4.2599   -0.5924 C   0  0  0  0  0  0  0  0  0  0  0  0
   -1.6194    5.2762   -0.8390 H   0  0  0  0  0  0  0  0  0  0  0  0
   -2.1505    3.1792   -0.6890 C   0  0  0  0  0  0  0  0  0  0  0  0
   -3.1959    3.3185   -0.9924 H   0  0  0  0  0  0  0  0  0  0  0  0
   -1.6878    1.8873   -0.3782 C   0  0  0  0  0  0  0  0  0  0  0  0
   -2.5250    0.6959   -0.3363 C   0  0  0  0  0  0  0  0  0  0  0  0
   -3.9187    0.6847   -0.5640 C   0  0  0  0  0  0  0  0  0  0  0  0
   -4.4436    1.6073   -0.8519 H   0  0  0  0  0  0  0  0  0  0  0  0
   -4.6504   -0.4948   -0.4159 C   0  0  0  0  0  0  0  0  0  0  0  0
   -5.7353   -0.5305   -0.5851 H   0  0  0  0  0  0  0  0  0  0  0  0
   -4.6761   -2.7954    0.1208 F   0  0  0  0  0  0  0  0  0  0  0  0
   -3.9716   -1.6620   -0.0311 C   0  0  0  0  0  0  0  0  0  0  0  0
   -2.5893   -1.6921    0.1953 C   0  0  0  0  0  0  0  0  0  0  0  0
   -2.0938   -2.6305    0.4760 H   0  0  0  0  0  0  0  0  0  0  0  0
   -1.8704   -0.5057    0.0319 C   0  0  0  0  0  3  0  0  0  0  0  0
    1.8443    2.4734    0.7009 C   0  0  0  0  0  0  0  0  0  0  0  0
    2.3649    1.7774    0.0128 H   0  0  0  0  0  0  0  0  0  0  0  0
    1.6981    1.8597    1.6177 H   0  0  0  0  0  0  0  0  0  0  0  0
    2.7064    3.6960    0.9950 C   0  0  0  0  0  0  0  0  0  0  0  0
    3.6756    3.3742    1.4235 H   0  0  0  0  0  0  0  0  0  0  0  0
    2.2326    4.3775    1.7309 H   0  0  0  0  0  0  0  0  0  0  0  0
    2.9310    4.2845    0.0815 H   0  0  0  0  0  0  0  0  0  0  0  0
  1  2  1  0  0  0  0
  2 20  1  1  0  0  0
  3  4  1  0  0  0  0
  3  2  1  0  0  0  0
  5  3  2  0  0  0  0
  6  5  1  0  0  0  0
  7  5  1  0  0  0  0
  7  9  2  0  0  0  0
  8  7  1  0  0  0  0
  9 10  1  0  0  0  0
  9  1  1  0  0  0  0
 10 19  1  0  0  0  0
 11 13  1  0  0  0  0
 11 10  2  0  0  0  0
 12 11  1  0  0  0  0
 13 16  2  0  0  0  0
 14 13  1  0  0  0  0
 16 15  1  0  0  0  0
 16 17  1  0  0  0  0
 17 18  1  0  0  0  0
 19 17  2  0  0  0  0
 20 23  1  0  0  0  0
 20 22  1  0  0  0  0
 21 20  1  0  0  0  0
 23 24  1  0  0  0  0
 23 25  1  0  0  0  0
 26 23  1  0  0  0  0
M  END
