1,11
q = -1.0

 29 30  0  0  1  0  0  0  0  0999 V2000
   -0.3241    1.6992    0.0828 N   0  0  0  0  0  2  0  0  0  0  0  0
    0.6105    2.6472    0.3481 C   0  0  1  0  0  3  0  0  0  0  0  0
    0.3062    4.0041    0.1262 C   0  0  0  0  0  0  0  0  0  0  0  0
    1.0809    4.7533    0.3415 H   0  0  0  0  0  0  0  0  0  0  0  0
   -0.9545    4.3806   -0.3444 C   0  0  0  0  0  0  0  0  0  0  0  0
   -1.1900    5.4387   -0.5324 H   0  0  0  0  0  0  0  0  0  0  0  0
   -1.9224    3.3954   -0.5362 C   0  0  0  0  0  0  0  0  0  0  0  0
   -2.9388    3.6554   -0.8581 H   0  0  0  0  0  0  0  0  0  0  0  0
   -1.6022    2.0489   -0.2903 C   0  0  0  0  0  0  0  0  0  0  0  0
   -2.5597    0.9522   -0.3258 C   0  0  0  0  0  0  0  0  0  0  0  0
   -2.0482   -0.3261    0.0094 C   0  0  0  0  0  3  0  0  0  0  0  0
   -2.8950   -1.4328    0.1078 C   0  0  0  0  0  0  0  0  0  0  0  0
   -2.5115   -2.4292    0.3626 H   0  0  0  0  0  0  0  0  0  0  0  0
   -5.0843   -2.3011   -0.0648 F   0  0  0  0  0  0  0  0  0  0  0  0
   -4.2585   -1.2456   -0.1532 C   0  0  0  0  0  0  0  0  0  0  0  0
   -4.7969    0.0013   -0.5097 C   0  0  0  0  0  0  0  0  0  0  0  0
   -5.8735    0.0890   -0.7095 H   0  0  0  0  0  0  0  0  0  0  0  0
   -3.9394    1.0995   -0.5905 C   0  0  0  0  0  0  0  0  0  0  0  0
   -4.3541    2.0832   -0.8552 H   0  0  0  0  0  0  0  0  0  0  0  0
    1.9682    2.2843    0.8757 C   0  0  0  0  0  0  0  0  0  0  0  0
    1.9397    1.2869    1.3510 H   0  0  0  0  0  0  0  0  0  0  0  0
    2.2114    3.0156    1.6762 H   0  0  0  0  0  0  0  0  0  0  0  0
    3.0651    2.3343   -0.2016 C   0  0  0  0  0  0  0  0  0  0  0  0
    2.7955    1.6098   -0.9958 H   0  0  0  0  0  0  0  0  0  0  0  0
    3.0749    3.3391   -0.6782 H   0  0  0  0  0  0  0  0  0  0  0  0
    4.4410    2.0135    0.3776 C   0  0  0  0  0  0  0  0  0  0  0  0
    5.2271    2.0167   -0.4049 H   0  0  0  0  0  0  0  0  0  0  0  0
    4.4321    1.0155    0.8611 H   0  0  0  0  0  0  0  0  0  0  0  0
    4.7383    2.7524    1.1508 H   0  0  0  0  0  0  0  0  0  0  0  0
  1  2  1  0  0  0  0
  2 20  1  1  0  0  0
  3  4  1  0  0  0  0
  3  2  1  0  0  0  0
  5  3  2  0  0  0  0
  6  5  1  0  0  0  0
  7  5  1  0  0  0  0
  7  9  2  0  0  0  0
  8  7  1  0  0  0  0
  9  1  1  0  0  0  0
 10  9  1  0  0  0  0
 10 11  1  0  0  0  0
 11 12  2  0  0  0  0
 12 13  1  0  0  0  0
 15 14  1  0  0  0  0
 15 12  1  0  0  0  0
 16 15  2  0  0  0  0
 17 16  1  0  0  0  0
 18 16  1  0  0  0  0
 18 10  2  0  0  0  0
 19 18  1  0  0  0  0
 20 21  1  0  0  0  0
 20 22  1  0  0  0  0
 23 26  1  0  0  0  0
 23 20  1  0  0  0  0
 24 23  1  0  0  0  0
 25 23  1  0  0  0  0
 26 28  1  0  0  0  0
 26 29  1  0  0  0  0
 27 26  1  0  0  0  0
M  END
