1
q = -1.0, confidence = 0.0

 33 33  0  0  1  0  0  0  0  0999 V2000
    1.6933   -0.6012   -1.3527 N   0  0  0  0  0  0  0  0  0  0  0  0
    2.8995   -0.7872   -0.5356 C   0  0  0  0  0  0  0  0  0  0  0  0
    3.1096    0.3253    0.4972 C   0  0  0  0  0  0  0  0  0  0  0  0
    2.2242    0.2233    1.7590 C   0  0  0  0  0  0  0  0  0  0  0  0
    0.7402    0.2957    1.5255 C   0  0  2  0  0  3  0  0  0  0  0  0
   -0.1994   -0.8121    1.6395 C   0  0  2  0  0  3  0  0  0  0  0  0
   -1.5200   -0.2986    1.2735 C   0  0  0  0  0  0  0  0  0  0  0  0
   -1.3870    1.0899    0.9228 C   0  0  0  0  0  0  0  0  0  0  0  0
    0.0176    1.4727    1.0829 C   0  0  1  0  0  3  0  0  0  0  0  0
    0.0701   -2.2112    2.0922 C   0  0  0  0  0  0  0  0  0  0  0  0
   -2.7657   -1.1231    1.2533 C   0  0  0  0  0  0  0  0  0  0  0  0
   -2.4601    2.0220    0.4625 C   0  0  0  0  0  0  0  0  0  0  0  0
    0.5484    2.8528    0.8573 C   0  0  0  0  0  0  0  0  0  0  0  0
    1.7754    0.1598   -2.0499 H   0  0  0  0  0  0  0  0  0  0  0  0
    1.4065   -1.4596   -1.8573 H   0  0  0  0  0  0  0  0  0  0  0  0
    2.8167   -1.7705   -0.0266 H   0  0  0  0  0  0  0  0  0  0  0  0
    3.7922   -0.8396   -1.1972 H   0  0  0  0  0  0  0  0  0  0  0  0
    4.1712    0.3005    0.8200 H   0  0  0  0  0  0  0  0  0  0  0  0
    2.9609    1.3077   -0.0002 H   0  0  0  0  0  0  0  0  0  0  0  0
    2.4624   -0.7232    2.2861 H   0  0  0  0  0  0  0  0  0  0  0  0
    2.5100    1.0417    2.4541 H   0  0  0  0  0  0  0  0  0  0  0  0
   -0.4125   -2.9338    1.4044 H   0  0  0  0  0  0  0  0  0  0  0  0
   -0.3261   -2.3886    3.1152 H   0  0  0  0  0  0  0  0  0  0  0  0
    1.1539   -2.4361    2.1050 H   0  0  0  0  0  0  0  0  0  0  0  0
   -3.6244   -0.5519    0.8555 H   0  0  0  0  0  0  0  0  0  0  0  0
   -3.0190   -1.4683    2.2777 H   0  0  0  0  0  0  0  0  0  0  0  0
   -2.6229   -2.0119    0.6053 H   0  0  0  0  0  0  0  0  0  0  0  0
   -2.1604    2.5023   -0.4908 H   0  0  0  0  0  0  0  0  0  0  0  0
   -2.6378    2.8167    1.2178 H   0  0  0  0  0  0  0  0  0  0  0  0
   -3.4132    1.4901    0.2870 H   0  0  0  0  0  0  0  0  0  0  0  0
    1.6357    2.9147    1.0516 H   0  0  0  0  0  0  0  0  0  0  0  0
    0.0427    3.5840    1.5224 H   0  0  0  0  0  0  0  0  0  0  0  0
    0.3653    3.1609   -0.1935 H   0  0  0  0  0  0  0  0  0  0  0  0
  1  2  1  0  0  0  0
  2 16  1  0  0  0  0
  2  3  1  0  0  0  0
  3 18  1  0  0  0  0
  3  4  1  0  0  0  0
  4 20  1  0  0  0  0
  4 21  1  0  0  0  0
  5  6  1  0  0  0  0
  5  4  1  6  0  0  0
  6 10  1  1  0  0  0
  7  6  1  0  0  0  0
  8  9  1  0  0  0  0
  8  7  2  0  0  0  0
  9 13  1  1  0  0  0
  9  5  1  0  0  0  0
 10 24  1  0  0  0  0
 10 23  1  0  0  0  0
 11  7  1  0  0  0  0
 11 26  1  0  0  0  0
 12  8  1  0  0  0  0
 12 29  1  0  0  0  0
 13 31  1  0  0  0  0
 13 32  1  0  0  0  0
 14  1  1  0  0  0  0
 15  1  1  0  0  0  0
 17  2  1  0  0  0  0
 19  3  1  0  0  0  0
 22 10  1  0  0  0  0
 25 11  1  0  0  0  0
 27 11  1  0  0  0  0
 28 12  1  0  0  0  0
 30 12  1  0  0  0  0
 33 13  1  0  0  0  0
M  END
