1
q = -1.0, confidence = 0.086

 30 30  0  0  1  0  0  0  0  0999 V2000
   -0.3912   -1.0982   -1.9694 N   0  0  0  0  0  0  0  0  0  0  0  0
   -0.8154   -2.4782   -2.3281 C   0  0  0  0  0  0  0  0  0  0  0  0
    0.0245   -3.5266   -1.5748 C   0  0  0  0  0  0  0  0  0  0  0  0
    0.1724   -3.1323   -0.1174 C   0  0  1  0  0  3  0  0  0  0  0  0
    1.3934   -2.6322    0.4825 C   0  0  1  0  0  3  0  0  0  0  0  0
    1.0230   -2.0280    1.7701 C   0  0  0  0  0  0  0  0  0  0  0  0
   -0.3951   -2.1875    1.9519 C   0  0  0  0  0  0  0  0  0  0  0  0
   -0.9371   -2.8938    0.7915 C   0  0  2  0  0  3  0  0  0  0  0  0
    2.7799   -2.7753   -0.0575 C   0  0  0  0  0  0  0  0  0  0  0  0
    1.9764   -1.3607    2.7068 C   0  0  0  0  0  0  0  0  0  0  0  0
   -1.2281   -1.6997    3.0930 C   0  0  0  0  0  0  0  0  0  0  0  0
   -2.3374   -3.4059    0.6803 C   0  0  0  0  0  0  0  0  0  0  0  0
   -1.1161   -0.4206   -2.2445 H   0  0  0  0  0  0  0  0  0  0  0  0
    0.5203   -0.8126   -2.3831 H   0  0  0  0  0  0  0  0  0  0  0  0
   -1.8788   -2.5540   -2.0334 H   0  0  0  0  0  0  0  0  0  0  0  0
   -0.7572   -2.6389   -3.4272 H   0  0  0  0  0  0  0  0  0  0  0  0
   -0.4548   -4.5229   -1.6745 H   0  0  0  0  0  0  0  0  0  0  0  0
    1.0317   -3.6126   -2.0282 H   0  0  0  0  0  0  0  0  0  0  0  0
    3.1875   -3.7797    0.1876 H   0  0  0  0  0  0  0  0  0  0  0  0
    3.4584   -2.0191    0.3727 H   0  0  0  0  0  0  0  0  0  0  0  0
    2.8090   -2.6458   -1.1555 H   0  0  0  0  0  0  0  0  0  0  0  0
    2.6776   -0.7068    2.1561 H   0  0  0  0  0  0  0  0  0  0  0  0
    2.5741   -2.1163    3.2594 H   0  0  0  0  0  0  0  0  0  0  0  0
    1.4440   -0.7348    3.4466 H   0  0  0  0  0  0  0  0  0  0  0  0
   -0.6655   -1.0031    3.7412 H   0  0  0  0  0  0  0  0  0  0  0  0
   -1.5754   -2.5509    3.7156 H   0  0  0  0  0  0  0  0  0  0  0  0
   -2.1233   -1.1624    2.7209 H   0  0  0  0  0  0  0  0  0  0  0  0
   -2.4702   -4.2727    1.3633 H   0  0  0  0  0  0  0  0  0  0  0  0
   -2.5754   -3.7449   -0.3441 H   0  0  0  0  0  0  0  0  0  0  0  0
   -3.0825   -2.6349    0.9479 H   0  0  0  0  0  0  0  0  0  0  0  0
  2 15  1  0  0  0  0
  2  1  1  0  0  0  0
  2  3  1  0  0  0  0
  4  3  1  6  0  0  0
  4  5  1  0  0  0  0
  4  8  1  0  0  0  0
  5  9  1  1  0  0  0
  5  6  1  0  0  0  0
  6  7  2  0  0  0  0
  6 10  1  0  0  0  0
  7 11  1  0  0  0  0
  8 12  1  1  0  0  0
  8  7  1  0  0  0  0
  9 19  1  0  0  0  0
  9 20  1  0  0  0  0
 10 23  1  0  0  0  0
 10 24  1  0  0  0  0
 11 26  1  0  0  0  0
 11 25  1  0  0  0  0
 12 30  1  0  0  0  0
 12 28  1  0  0  0  0
 13  1  1  0  0  0  0
 14  1  1  0  0  0  0
 16  2  1  0  0  0  0
 17  3  1  0  0  0  0
 18  3  1  0  0  0  0
 21  9  1  0  0  0  0
 22 10  1  0  0  0  0
 27 11  1  0  0  0  0
 29 12  1  0  0  0  0
M  END
