1
q = -1.0

 33 33  0  0  1  0  0  0  0  0999 V2000
   -0.2204    1.1687   -2.0704 N   0  0  0  0  0  0  0  0  0  0  0  0
    0.2115    0.0181   -2.8749 C   0  0  0  0  0  0  0  0  0  0  0  0
    0.3776    2.4591   -2.5023 C   0  0  0  0  0  0  0  0  0  0  0  0
   -0.0941    3.6190   -1.6026 C   0  0  0  0  0  0  0  0  0  0  0  0
   -0.0184    3.2206   -0.1416 C   0  0  1  0  0  3  0  0  0  0  0  0
   -1.1605    2.8329    0.6675 C   0  0  1  0  0  3  0  0  0  0  0  0
   -0.6330    2.1680    1.8649 C   0  0  0  0  0  0  0  0  0  0  0  0
    0.8032    2.1868    1.7990 C   0  0  0  0  0  0  0  0  0  0  0  0
    1.2023    2.8550    0.5561 C   0  0  2  0  0  3  0  0  0  0  0  0
   -2.6021    3.1451    0.4250 C   0  0  0  0  0  0  0  0  0  0  0  0
   -1.4745    1.5650    2.9428 C   0  0  0  0  0  0  0  0  0  0  0  0
    1.7495    1.6331    2.8138 C   0  0  0  0  0  0  0  0  0  0  0  0
    2.6021    3.2289    0.1889 C   0  0  0  0  0  0  0  0  0  0  0  0
   -1.2599    1.2016   -2.0899 H   0  0  0  0  0  0  0  0  0  0  0  0
    1.3004   -0.1189   -2.7630 H   0  0  0  0  0  0  0  0  0  0  0  0
   -0.0398    0.1741   -3.9472 H   0  0  0  0  0  0  0  0  0  0  0  0
   -0.3082   -0.8819   -2.5032 H   0  0  0  0  0  0  0  0  0  0  0  0
    1.4755    2.3308   -2.4264 H   0  0  0  0  0  0  0  0  0  0  0  0
    0.1359    2.6596   -3.5718 H   0  0  0  0  0  0  0  0  0  0  0  0
    0.5281    4.5142   -1.8080 H   0  0  0  0  0  0  0  0  0  0  0  0
   -1.1383    3.8947   -1.8505 H   0  0  0  0  0  0  0  0  0  0  0  0
   -2.8268    3.2820   -0.6481 H   0  0  0  0  0  0  0  0  0  0  0  0
   -2.8738    4.0813    0.9594 H   0  0  0  0  0  0  0  0  0  0  0  0
   -3.2647    2.3398    0.7925 H   0  0  0  0  0  0  0  0  0  0  0  0
   -2.3707    1.0715    2.5194 H   0  0  0  0  0  0  0  0  0  0  0  0
   -1.8169    2.3473    3.6533 H   0  0  0  0  0  0  0  0  0  0  0  0
   -0.9119    0.8029    3.5132 H   0  0  0  0  0  0  0  0  0  0  0  0
    1.2510    0.8927    3.4667 H   0  0  0  0  0  0  0  0  0  0  0  0
    2.1422    2.4499    3.4565 H   0  0  0  0  0  0  0  0  0  0  0  0
    2.6110    1.1282    2.3356 H   0  0  0  0  0  0  0  0  0  0  0  0
    2.8980    4.1464    0.7430 H   0  0  0  0  0  0  0  0  0  0  0  0
    2.7062    3.4362   -0.8917 H   0  0  0  0  0  0  0  0  0  0  0  0
    3.3215    2.4278    0.4363 H   0  0  0  0  0  0  0  0  0  0  0  0
  2 15  1  0  0  0  0
  2 17  1  0  0  0  0
  2  1  1  0  0  0  0
  3 18  1  0  0  0  0
  3  1  1  0  0  0  0
  3  4  1  0  0  0  0
  5  4  1  6  0  0  0
  5  9  1  0  0  0  0
  5  6  1  0  0  0  0
  6 10  1  1  0  0  0
  6  7  1  0  0  0  0
  7 11  1  0  0  0  0
  8  7  2  0  0  0  0
  8 12  1  0  0  0  0
  9 13  1  1  0  0  0
  9  8  1  0  0  0  0
 10 24  1  0  0  0  0
 10 23  1  0  0  0  0
 11 27  1  0  0  0  0
 11 26  1  0  0  0  0
 12 29  1  0  0  0  0
 12 28  1  0  0  0  0
 13 33  1  0  0  0  0
 13 31  1  0  0  0  0
 14  1  1  0  0  0  0
 16  2  1  0  0  0  0
 19  3  1  0  0  0  0
 20  4  1  0  0  0  0
 21  4  1  0  0  0  0
 22 10  1  0  0  0  0
 25 11  1  0  0  0  0
 30 12  1  0  0  0  0
 32 13  1  0  0  0  0
M  END
