2,12
q = -1.0

 23 23  0  0  1  0  0  0  0  0999 V2000
    2.5216    3.6227    0.0332 O   0  0  0  0  0  0  0  0  0  0  0  0
    0.9935   -2.4566   -0.3250 N   0  0  0  0  0  0  0  0  0  0  0  0
    0.6121   -3.3643   -0.0160 H   0  0  0  0  0  0  0  0  0  0  0  0
    1.1714   -2.5327   -1.3388 H   0  0  0  0  0  0  0  0  0  0  0  0
    2.2467   -2.0559    0.3853 C   0  0  1  0  0  0  0  0  0  0  0  0
    2.0482   -2.2825    1.4573 H   0  0  0  0  0  0  0  0  0  0  0  0
    3.4485   -2.8761   -0.0782 C   0  0  0  0  0  0  0  0  0  0  0  0
    3.2522   -3.9628    0.0246 H   0  0  0  0  0  0  0  0  0  0  0  0
    4.3450   -2.6437    0.5291 H   0  0  0  0  0  0  0  0  0  0  0  0
    3.6948   -2.6563   -1.1379 H   0  0  0  0  0  0  0  0  0  0  0  0
    2.3572   -0.5520    0.2269 C   0  0  0  0  0  0  0  0  0  0  0  0
    1.1404    0.1614    0.0320 C   0  0  0  0  0  3  0  0  0  0  0  0
    1.1811    1.5674   -0.0305 C   0  0  0  0  0  0  0  0  0  0  0  0
    0.2505    2.1374   -0.1538 H   0  0  0  0  0  0  0  0  0  0  0  0
    2.4051    2.2617    0.0797 C   0  0  0  0  0  0  0  0  0  0  0  0
    3.6074    1.5453    0.2497 C   0  0  0  0  0  0  0  0  0  0  0  0
    4.5500    2.1054    0.3257 H   0  0  0  0  0  0  0  0  0  0  0  0
    3.5731    0.1495    0.3243 C   0  0  0  0  0  0  0  0  0  0  0  0
    4.5191   -0.3968    0.4678 H   0  0  0  0  0  0  0  0  0  0  0  0
    1.3480    4.3888   -0.1328 C   0  0  0  0  0  0  0  0  0  0  0  0
    0.8302    4.1600   -1.0928 H   0  0  0  0  0  0  0  0  0  0  0  0
    1.6618    5.4496   -0.1409 H   0  0  0  0  0  0  0  0  0  0  0  0
    0.6239    4.2335    0.6995 H   0  0  0  0  0  0  0  0  0  0  0  0
  1 15  1  0  0  0  0
  2  3  1  0  0  0  0
  2  5  1  0  0  0  0
  4  2  1  0  0  0  0
  5  6  1  1  0  0  0
  7  8  1  0  0  0  0
  7  5  1  0  0  0  0
  7  9  1  0  0  0  0
 10  7  1  0  0  0  0
 11 18  1  0  0  0  0
 11  5  1  0  0  0  0
 12 11  2  0  0  0  0
 13 12  1  0  0  0  0
 13 15  2  0  0  0  0
 14 13  1  0  0  0  0
 15 16  1  0  0  0  0
 16 18  2  0  0  0  0
 16 17  1  0  0  0  0
 18 19  1  0  0  0  0
 20  1  1  0  0  0  0
 20 23  1  0  0  0  0
 21 20  1  0  0  0  0
 22 20  1  0  0  0  0
M  END
