1,4
q = 0.0, confidence = 0.994

 60 62  0  0  1  0  0  0  0  0999 V2000
    3.1566   -0.1544    0.9748 N   0  0  0  0  0  0  0  0  0  0  0  0
    2.0298    0.6471    0.5638 N   0  0  0  0  0  0  0  0  0  0  0  0
   -3.3578   -1.7334    0.8044 O   0  0  0  0  0  0  0  0  0  0  0  0
    1.2979   -0.0991   -0.2666 C   0  0  0  0  0  2  0  0  0  0  0  0
    0.0037    0.4287   -0.8307 C   0  0  1  0  0  0  0  0  0  0  0  0
   -0.0797    1.5252   -0.6690 H   0  0  0  0  0  0  0  0  0  0  0  0
   -0.0338    0.1710   -2.3446 C   0  0  0  0  0  0  0  0  0  0  0  0
   -0.8954    0.6865   -2.8119 H   0  0  0  0  0  0  0  0  0  0  0  0
   -0.0953   -0.9112   -2.5694 H   0  0  0  0  0  0  0  0  0  0  0  0
    0.8844    0.5595   -2.8262 H   0  0  0  0  0  0  0  0  0  0  0  0
    4.4484    0.4474    0.6192 C   0  0  0  0  0  0  0  0  0  0  0  0
    4.4505    0.7214   -0.4498 H   0  0  0  0  0  0  0  0  0  0  0  0
    5.2307   -0.3178    0.7804 H   0  0  0  0  0  0  0  0  0  0  0  0
    4.6861    1.3405    1.2422 H   0  0  0  0  0  0  0  0  0  0  0  0
    3.0798   -0.4910    2.4060 C   0  0  0  0  0  0  0  0  0  0  0  0
    2.0575   -0.8360    2.6407 H   0  0  0  0  0  0  0  0  0  0  0  0
    3.3397    0.3785    3.0525 H   0  0  0  0  0  0  0  0  0  0  0  0
    3.7915   -1.3143    2.6035 H   0  0  0  0  0  0  0  0  0  0  0  0
    1.8451    1.9998    1.1068 C   0  0  0  0  0  0  0  0  0  0  0  0
    2.7354    2.2128    1.7347 H   0  0  0  0  0  0  0  0  0  0  0  0
    0.9702    2.0088    1.7882 H   0  0  0  0  0  0  0  0  0  0  0  0
    1.6996    3.0802    0.0530 C   0  0  0  0  0  0  0  0  0  0  0  0
    0.9140    4.2130    0.3417 C   0  0  0  0  0  0  0  0  0  0  0  0
    0.3950    4.2767    1.3112 H   0  0  0  0  0  0  0  0  0  0  0  0
    0.7801    5.2469   -0.5968 C   0  0  0  0  0  0  0  0  0  0  0  0
    0.1614    6.1251   -0.3575 H   0  0  0  0  0  0  0  0  0  0  0  0
    1.4237    5.1563   -1.8410 C   0  0  0  0  0  0  0  0  0  0  0  0
    1.3131    5.9627   -2.5815 H   0  0  0  0  0  0  0  0  0  0  0  0
    2.2024    4.0267   -2.1386 C   0  0  0  0  0  0  0  0  0  0  0  0
    2.7037    3.9418   -3.1146 H   0  0  0  0  0  0  0  0  0  0  0  0
    2.3418    2.9960   -1.1976 C   0  0  0  0  0  0  0  0  0  0  0  0
    2.9342    2.1050   -1.4540 H   0  0  0  0  0  0  0  0  0  0  0  0
   -1.1676   -0.2459   -0.0371 C   0  0  2  0  0  0  0  0  0  0  0  0
   -0.9556   -1.3324    0.0171 H   0  0  0  0  0  0  0  0  0  0  0  0
   -2.5263   -0.0847   -0.7301 C   0  0  0  0  0  0  0  0  0  0  0  0
   -2.8282    0.9819   -0.7957 H   0  0  0  0  0  0  0  0  0  0  0  0
   -2.4731   -0.4411   -1.7814 H   0  0  0  0  0  0  0  0  0  0  0  0
   -3.6262   -0.8986   -0.0529 C   0  0  0  0  0  0  0  0  0  0  0  0
   -5.0481   -0.6737   -0.4856 C   0  0  0  0  0  0  0  0  0  0  0  0
   -6.0564   -1.4119    0.1714 C   0  0  0  0  0  0  0  0  0  0  0  0
   -5.7439   -2.1068    0.9650 H   0  0  0  0  0  0  0  0  0  0  0  0
   -7.3993   -1.2553   -0.1861 C   0  0  0  0  0  0  0  0  0  0  0  0
   -8.1786   -1.8333    0.3336 H   0  0  0  0  0  0  0  0  0  0  0  0
   -7.7534   -0.3606   -1.2115 C   0  0  0  0  0  0  0  0  0  0  0  0
   -8.8097   -0.2372   -1.4954 H   0  0  0  0  0  0  0  0  0  0  0  0
   -6.7587    0.3751   -1.8753 C   0  0  0  0  0  0  0  0  0  0  0  0
   -7.0340    1.0728   -2.6807 H   0  0  0  0  0  0  0  0  0  0  0  0
   -5.4126    0.2219   -1.5138 C   0  0  0  0  0  0  0  0  0  0  0  0
   -4.6451    0.8032   -2.0450 H   0  0  0  0  0  0  0  0  0  0  0  0
   -1.2014    0.2965    1.3858 C   0  0  0  0  0  0  0  0  0  0  0  0
   -0.8455   -0.5138    2.4810 C   0  0  0  0  0  0  0  0  0  0  0  0
   -0.6081   -1.5730    2.3079 H   0  0  0  0  0  0  0  0  0  0  0  0
   -0.8105    0.0114    3.7826 C   0  0  0  0  0  0  0  0  0  0  0  0
   -0.5286   -0.6404    4.6239 H   0  0  0  0  0  0  0  0  0  0  0  0
   -1.1491    1.3541    4.0160 C   0  0  0  0  0  0  0  0  0  0  0  0
   -1.1274    1.7635    5.0375 H   0  0  0  0  0  0  0  0  0  0  0  0
   -1.5350    2.1650    2.9363 C   0  0  0  0  0  0  0  0  0  0  0  0
   -1.8206    3.2146    3.1074 H   0  0  0  0  0  0  0  0  0  0  0  0
   -1.5577    1.6388    1.6349 C   0  0  0  0  0  0  0  0  0  0  0  0
   -1.8470    2.2948    0.7981 H   0  0  0  0  0  0  0  0  0  0  0  0
  1 15  1  0  0  0  0
  2  1  1  0  0  0  0
  2 19  1  0  0  0  0
  4  2  1  0  0  0  0
  5  6  1  1  0  0  0
  5  4  1  0  0  0  0
  5 33  1  0  0  0  0
  7  5  1  0  0  0  0
  8  7  1  0  0  0  0
  9  7  1  0  0  0  0
 10  7  1  0  0  0  0
 11 13  1  0  0  0  0
 11  1  1  0  0  0  0
 11 14  1  0  0  0  0
 12 11  1  0  0  0  0
 15 18  1  0  0  0  0
 15 16  1  0  0  0  0
 15 17  1  0  0  0  0
 19 20  1  0  0  0  0
 19 21  1  0  0  0  0
 22 23  1  0  0  0  0
 22 19  1  0  0  0  0
 23 24  1  0  0  0  0
 25 26  1  0  0  0  0
 25 23  2  0  0  0  0
 27 25  1  0  0  0  0
 28 27  1  0  0  0  0
 29 27  2  0  0  0  0
 29 31  1  0  0  0  0
 30 29  1  0  0  0  0
 31 22  2  0  0  0  0
 32 31  1  0  0  0  0
 33 34  1  1  0  0  0
 33 50  1  0  0  0  0
 35 38  1  0  0  0  0
 35 33  1  0  0  0  0
 36 35  1  0  0  0  0
 37 35  1  0  0  0  0
 38  3  2  0  0  0  0
 39 38  1  0  0  0  0
 39 40  1  0  0  0  0
 40 41  1  0  0  0  0
 42 40  2  0  0  0  0
 42 43  1  0  0  0  0
 44 42  1  0  0  0  0
 45 44  1  0  0  0  0
 46 48  1  0  0  0  0
 46 44  2  0  0  0  0
 47 46  1  0  0  0  0
 48 39  2  0  0  0  0
 49 48  1  0  0  0  0
 50 59  2  0  0  0  0
 50 51  1  0  0  0  0
 51 53  2  0  0  0  0
 52 51  1  0  0  0  0
 53 55  1  0  0  0  0
 53 54  1  0  0  0  0
 55 56  1  0  0  0  0
 57 58  1  0  0  0  0
 57 55  2  0  0  0  0
 59 57  1  0  0  0  0
 60 59  1  0  0  0  0
M  END
