3,24
q = -1.0, confidence = 0.088

 47 49  0  0  1  0  0  0  0  0999 V2000
    4.7696   -0.0675    0.4325 Si  0  0  0  0  0  0  0  0  0  0  0  0
    3.1167    0.4983   -0.1192 N   0  0  0  0  0  0  0  0  0  0  0  0
    0.9077    0.6303   -0.4348 N   0  0  0  0  0  2  0  0  0  0  0  0
    1.9124   -0.1628   -0.0332 C   0  0  1  0  0  3  0  0  0  0  0  0
    2.8331    1.7733   -0.6154 C   0  0  0  0  0  0  0  0  0  0  0  0
    3.6138    2.5184   -0.7884 H   0  0  0  0  0  0  0  0  0  0  0  0
    1.4744    1.8355   -0.8147 C   0  0  0  0  0  0  0  0  0  0  0  0
    0.8558    2.6404   -1.2201 H   0  0  0  0  0  0  0  0  0  0  0  0
    1.7591   -1.6049    0.3058 C   0  0  0  0  0  0  0  0  0  0  0  0
    1.1471   -1.6989    1.2271 H   0  0  0  0  0  0  0  0  0  0  0  0
    2.7519   -2.0449    0.5190 H   0  0  0  0  0  0  0  0  0  0  0  0
    1.0819   -2.4073   -0.8583 C   0  0  0  0  0  0  0  0  0  0  0  0
    1.3107   -3.9158   -0.6121 C   0  0  0  0  0  0  0  0  0  0  0  0
    2.3932   -4.1562   -0.6701 H   0  0  0  0  0  0  0  0  0  0  0  0
    0.7845   -4.5144   -1.3817 H   0  0  0  0  0  0  0  0  0  0  0  0
    0.9405   -4.2436    0.3766 H   0  0  0  0  0  0  0  0  0  0  0  0
    1.7351   -2.0399   -2.2034 C   0  0  0  0  0  0  0  0  0  0  0  0
    1.5623   -0.9812   -2.4767 H   0  0  0  0  0  0  0  0  0  0  0  0
    1.3274   -2.6715   -3.0170 H   0  0  0  0  0  0  0  0  0  0  0  0
    2.8294   -2.2107   -2.1611 H   0  0  0  0  0  0  0  0  0  0  0  0
   -0.4097   -2.1090   -0.8799 C   0  0  0  0  0  0  0  0  0  0  0  0
   -1.1550   -1.6069   -1.9874 C   0  0  0  0  0  0  0  0  0  0  0  0
   -0.7293   -1.2635   -2.9350 H   0  0  0  0  0  0  0  0  0  0  0  0
   -2.5316   -1.5259   -1.6474 C   0  0  0  0  0  3  0  0  0  0  0  0
   -3.3354   -1.1542   -2.2918 H   0  0  0  0  0  0  0  0  0  0  0  0
   -2.6872   -2.0984   -0.3366 C   0  0  0  0  0  0  0  0  0  0  0  0
   -1.3733   -2.4732    0.1438 C   0  0  0  0  0  0  0  0  0  0  0  0
   -1.2544   -3.0923    1.4213 C   0  0  0  0  0  0  0  0  0  0  0  0
   -0.2732   -3.3763    1.8246 H   0  0  0  0  0  0  0  0  0  0  0  0
   -2.3971   -3.3235    2.1711 C   0  0  0  0  0  0  0  0  0  0  0  0
   -2.3084   -3.8043    3.1570 H   0  0  0  0  0  0  0  0  0  0  0  0
   -3.6858   -2.9347    1.7020 C   0  0  0  0  0  0  0  0  0  0  0  0
   -4.5670   -3.1220    2.3338 H   0  0  0  0  0  0  0  0  0  0  0  0
   -3.8397   -2.3182    0.4715 C   0  0  0  0  0  0  0  0  0  0  0  0
   -4.8273   -2.0011    0.1094 H   0  0  0  0  0  0  0  0  0  0  0  0
    5.3362   -1.4981   -0.6505 C   0  0  0  0  0  0  0  0  0  0  0  0
    4.7368   -2.4172   -0.5021 H   0  0  0  0  0  0  0  0  0  0  0  0
    6.3922   -1.7434   -0.4125 H   0  0  0  0  0  0  0  0  0  0  0  0
    5.2832   -1.2216   -1.7228 H   0  0  0  0  0  0  0  0  0  0  0  0
    5.9079    1.4104    0.1991 C   0  0  0  0  0  0  0  0  0  0  0  0
    5.9818    1.7155   -0.8641 H   0  0  0  0  0  0  0  0  0  0  0  0
    6.9278    1.1354    0.5385 H   0  0  0  0  0  0  0  0  0  0  0  0
    5.5804    2.2846    0.7966 H   0  0  0  0  0  0  0  0  0  0  0  0
    4.6315   -0.5302    2.2486 C   0  0  0  0  0  0  0  0  0  0  0  0
    4.2633    0.3328    2.8395 H   0  0  0  0  0  0  0  0  0  0  0  0
    5.6265   -0.8198    2.6451 H   0  0  0  0  0  0  0  0  0  0  0  0
    3.9385   -1.3773    2.4186 H   0  0  0  0  0  0  0  0  0  0  0  0
  1 44  1  0  0  0  0
  2  4  1  0  0  0  0
  2  1  1  0  0  0  0
  3  4  1  0  0  0  0
  4  9  1  6  0  0  0
  5  2  1  0  0  0  0
  6  5  1  0  0  0  0
  7  5  2  0  0  0  0
  7  3  1  0  0  0  0
  8  7  1  0  0  0  0
  9 11  1  0  0  0  0
  9 10  1  0  0  0  0
 12 13  1  0  0  0  0
 12  9  1  0  0  0  0
 13 16  1  0  0  0  0
 14 13  1  0  0  0  0
 15 13  1  0  0  0  0
 17 20  1  0  0  0  0
 17 12  1  0  0  0  0
 18 17  1  0  0  0  0
 19 17  1  0  0  0  0
 21 12  1  0  0  0  0
 21 27  1  0  0  0  0
 22 24  1  0  0  0  0
 22 21  2  0  0  0  0
 23 22  1  0  0  0  0
 24 26  1  0  0  0  0
 25 24  1  0  0  0  0
 26 27  2  0  0  0  0
 26 34  1  0  0  0  0
 27 28  1  0  0  0  0
 28 29  1  0  0  0  0
 28 30  2  0  0  0  0
 30 31  1  0  0  0  0
 32 30  1  0  0  0  0
 32 33  1  0  0  0  0
 34 32  2  0  0  0  0
 35 34  1  0  0  0  0
 36 37  1  0  0  0  0
 36 38  1  0  0  0  0
 36  1  1  0  0  0  0
 39 36  1  0  0  0  0
 40  1  1  0  0  0  0
 40 42  1  0  0  0  0
 40 43  1  0  0  0  0
 41 40  1  0  0  0  0
 44 47  1  0  0  0  0
 44 46  1  0  0  0  0
 44 45  1  0  0  0  0
M  END
