1,2
q = -1.0, confidence = 0.0

 25 27  0  0  0  0  0  0  0  0999 V2000
    1.0394    1.3677    0.0002 N   0  0  0  0  0  2  0  0  0  0  0  0
   -0.4591   -0.7695   -0.0002 C   0  0  0  0  0  2  0  0  0  0  0  0
   -1.4615   -1.8896   -0.0003 C   0  0  0  0  0  0  0  0  0  0  0  0
   -1.3264   -2.5544    0.8830 H   0  0  0  0  0  0  0  0  0  0  0  0
   -1.3263   -2.5549   -0.8830 H   0  0  0  0  0  0  0  0  0  0  0  0
   -2.8021   -1.1890   -0.0003 C   0  0  0  0  0  0  0  0  0  0  0  0
   -4.0918   -1.7232   -0.0004 C   0  0  0  0  0  0  0  0  0  0  0  0
   -4.2453   -2.8138   -0.0006 H   0  0  0  0  0  0  0  0  0  0  0  0
   -5.1958   -0.8491   -0.0003 C   0  0  0  0  0  0  0  0  0  0  0  0
   -6.2181   -1.2563   -0.0004 H   0  0  0  0  0  0  0  0  0  0  0  0
   -4.9965    0.5414    0.0000 C   0  0  0  0  0  0  0  0  0  0  0  0
   -5.8662    1.2162    0.0002 H   0  0  0  0  0  0  0  0  0  0  0  0
   -3.7007    1.0866    0.0002 C   0  0  0  0  0  0  0  0  0  0  0  0
   -3.5800    2.1791    0.0005 H   0  0  0  0  0  0  0  0  0  0  0  0
   -2.5915    0.2210   -0.0000 C   0  0  0  0  0  0  0  0  0  0  0  0
   -1.1338    0.4405   -0.0000 C   0  0  0  0  0  0  0  0  0  0  0  0
   -0.3136    1.6318   -0.0000 C   0  0  0  0  0  0  0  0  0  0  0  0
   -0.7680    2.9703   -0.0003 C   0  0  0  0  0  0  0  0  0  0  0  0
   -1.8462    3.1686   -0.0004 H   0  0  0  0  0  0  0  0  0  0  0  0
    0.1502    4.0213   -0.0004 C   0  0  0  0  0  0  0  0  0  0  0  0
   -0.2015    5.0639   -0.0007 H   0  0  0  0  0  0  0  0  0  0  0  0
    1.5240    3.7294   -0.0002 C   0  0  0  0  0  0  0  0  0  0  0  0
    2.2856    4.5211   -0.0003 H   0  0  0  0  0  0  0  0  0  0  0  0
    1.9186    2.3882    0.0001 C   0  0  0  0  0  0  0  0  0  0  0  0
    2.9839    2.1158    0.0003 H   0  0  0  0  0  0  0  0  0  0  0  0
  2 16  1  0  0  0  0
  3  2  1  0  0  0  0
  3  4  1  0  0  0  0
  5  3  1  0  0  0  0
  6  3  1  0  0  0  0
  6 15  1  0  0  0  0
  7  9  1  0  0  0  0
  7  6  2  0  0  0  0
  8  7  1  0  0  0  0
  9 11  2  0  0  0  0
 10  9  1  0  0  0  0
 11 13  1  0  0  0  0
 11 12  1  0  0  0  0
 13 14  1  0  0  0  0
 15 16  1  0  0  0  0
 15 13  2  0  0  0  0
 16 17  2  0  0  0  0
 17  1  1  0  0  0  0
 18 17  1  0  0  0  0
 19 18  1  0  0  0  0
 20 18  2  0  0  0  0
 20 22  1  0  0  0  0
 21 20  1  0  0  0  0
 22 24  2  0  0  0  0
 23 22  1  0  0  0  0
 24  1  1  0  0  0  0
 24 25  1  0  0  0  0
M  END
