4,5
q = -1.0

 23 23  0  0  0  0  0  0  0  0999 V2000
   -4.1260   -3.2286    0.6318 Cl  0  0  0  0  0  0  0  0  0  0  0  0
    3.8802   -1.4809    1.3397 O   0  0  0  0  0  0  0  0  0  0  0  0
    5.4797   -0.7827   -0.1178 O   0  0  0  0  0  0  0  0  0  0  0  0
    2.2460   -2.1245   -0.8267 N   0  0  0  0  0  2  0  0  0  0  0  0
   -0.3589   -2.0460   -0.2139 C   0  0  0  0  0  2  0  0  0  0  0  0
   -1.7265   -2.0613    0.1066 C   0  0  0  0  0  0  0  0  0  0  0  0
   -2.3000   -1.1379    0.2551 H   0  0  0  0  0  0  0  0  0  0  0  0
   -2.4233   -3.2772    0.2417 C   0  0  0  0  0  0  0  0  0  0  0  0
   -1.7971   -4.5244    0.0736 C   0  0  0  0  0  0  0  0  0  0  0  0
   -2.3728   -5.4527    0.1870 H   0  0  0  0  0  0  0  0  0  0  0  0
   -0.4341   -4.5364   -0.2348 C   0  0  0  0  0  0  0  0  0  0  0  0
    0.0885   -5.4972   -0.3665 H   0  0  0  0  0  0  0  0  0  0  0  0
    0.2765   -3.3257   -0.3768 C   0  0  0  0  0  0  0  0  0  0  0  0
    1.6884   -3.2885   -0.6766 C   0  0  0  0  0  0  0  0  0  0  0  0
    2.2864   -4.2182   -0.7689 H   0  0  0  0  0  0  0  0  0  0  0  0
    3.6656   -1.9830   -1.0366 C   0  0  0  0  0  0  0  0  0  0  0  0
    3.8581   -1.2936   -1.8806 H   0  0  0  0  0  0  0  0  0  0  0  0
    4.1446   -2.9664   -1.2493 H   0  0  0  0  0  0  0  0  0  0  0  0
    4.3195   -1.3839    0.2119 C   0  0  0  0  0  0  0  0  0  0  0  0
    6.1208   -0.0716    0.9472 C   0  0  0  0  0  0  0  0  0  0  0  0
    7.1115    0.2318    0.5647 H   0  0  0  0  0  0  0  0  0  0  0  0
    6.2236   -0.7071    1.8492 H   0  0  0  0  0  0  0  0  0  0  0  0
    5.5193    0.8239    1.2060 H   0  0  0  0  0  0  0  0  0  0  0  0
  3 19  1  0  0  0  0
  3 20  1  0  0  0  0
  4 14  1  0  0  0  0
  5  6  1  0  0  0  0
  6  8  2  0  0  0  0
  6  7  1  0  0  0  0
  8  1  1  0  0  0  0
  9 10  1  0  0  0  0
  9  8  1  0  0  0  0
 11  9  2  0  0  0  0
 12 11  1  0  0  0  0
 13 11  1  0  0  0  0
 13  5  1  0  0  0  0
 14 13  2  0  0  0  0
 15 14  1  0  0  0  0
 16  4  1  0  0  0  0
 16 19  1  0  0  0  0
 17 16  1  0  0  0  0
 18 16  1  0  0  0  0
 19  2  2  0  0  0  0
 20 23  1  0  0  0  0
 20 22  1  0  0  0  0
 21 20  1  0  0  0  0
M  END
