1,17
q = -1.0

 29 30  0  0  1  0  0  0  0  0999 V2000
    2.0293    0.2685    0.1875 N   0  0  0  0  0  2  0  0  0  0  0  0
    2.6883   -0.5432   -0.7139 C   0  0  1  0  0  3  0  0  0  0  0  0
    4.0928   -0.6013   -0.6901 C   0  0  0  0  0  0  0  0  0  0  0  0
    4.6420   -1.2352   -1.3994 H   0  0  0  0  0  0  0  0  0  0  0  0
    4.8178    0.1469    0.2461 C   0  0  0  0  0  0  0  0  0  0  0  0
    4.1160    0.9560    1.1662 C   0  0  0  0  0  0  0  0  0  0  0  0
    4.6518    1.5496    1.9172 H   0  0  0  0  0  0  0  0  0  0  0  0
    2.7251    0.9855    1.1002 C   0  0  0  0  0  0  0  0  0  0  0  0
    2.1120    1.5866    1.7873 H   0  0  0  0  0  0  0  0  0  0  0  0
    6.3087    0.0436    0.2237 C   0  0  0  0  0  0  0  0  0  0  0  0
    6.9428   -0.6443   -0.5581 O   0  0  0  0  0  0  0  0  0  0  0  0
    6.8833    0.8109    1.1831 O   0  0  0  0  0  0  0  0  0  0  0  0
    8.3135    0.7638    1.2254 C   0  0  0  0  0  0  0  0  0  0  0  0
    8.6681   -0.2701    1.4121 H   0  0  0  0  0  0  0  0  0  0  0  0
    8.6187    1.4321    2.0497 H   0  0  0  0  0  0  0  0  0  0  0  0
    8.7475    1.1084    0.2650 H   0  0  0  0  0  0  0  0  0  0  0  0
    0.4063   -1.0655   -1.3747 C   0  0  0  0  0  3  0  0  0  0  0  0
    1.8004   -1.2915   -1.5950 C   0  0  0  0  0  0  0  0  0  0  0  0
    2.2499   -2.1998   -2.5794 C   0  0  0  0  0  0  0  0  0  0  0  0
    3.3297   -2.3536   -2.7364 H   0  0  0  0  0  0  0  0  0  0  0  0
    1.3406   -2.9191   -3.3655 C   0  0  0  0  0  0  0  0  0  0  0  0
   -0.0406   -2.7075   -3.1335 C   0  0  0  0  0  0  0  0  0  0  0  0
   -0.7738   -3.2715   -3.7343 H   0  0  0  0  0  0  0  0  0  0  0  0
   -0.4984   -1.8075   -2.1638 C   0  0  0  0  0  0  0  0  0  0  0  0
   -1.5824   -1.6821   -2.0190 H   0  0  0  0  0  0  0  0  0  0  0  0
    1.8035   -3.8919   -4.4215 C   0  0  0  0  0  0  0  0  0  0  0  0
    1.4143   -4.9143   -4.2310 H   0  0  0  0  0  0  0  0  0  0  0  0
    2.9084   -3.9545   -4.4622 H   0  0  0  0  0  0  0  0  0  0  0  0
    1.4455   -3.5972   -5.4307 H   0  0  0  0  0  0  0  0  0  0  0  0
  1  8  1  0  0  0  0
  2 18  1  1  0  0  0
  2  3  1  0  0  0  0
  2  1  1  0  0  0  0
  3  5  2  0  0  0  0
  4  3  1  0  0  0  0
  5  6  1  0  0  0  0
  6  7  1  0  0  0  0
  8  6  2  0  0  0  0
  8  9  1  0  0  0  0
 10  5  1  0  0  0  0
 10 12  1  0  0  0  0
 11 10  2  0  0  0  0
 12 13  1  0  0  0  0
 13 14  1  0  0  0  0
 13 15  1  0  0  0  0
 16 13  1  0  0  0  0
 18 17  1  0  0  0  0
 19 18  2  0  0  0  0
 20 19  1  0  0  0  0
 21 22  2  0  0  0  0
 21 19  1  0  0  0  0
 22 24  1  0  0  0  0
 23 22  1  0  0  0  0
 24 25  1  0  0  0  0
 24 17  2  0  0  0  0
 26 27  1  0  0  0  0
 26 21  1  0  0  0  0
 28 26  1  0  0  0  0
 29 26  1  0  0  0  0
M  END
