1,23
q = 0.0, confidence = 0.998

 29 30  0  0  1  0  0  0  0  0999 V2000
    0.2626    1.0732   -0.0611 C   0  0  0  0  0  3  0  0  0  0  0  0
    1.4451    1.8435    0.0268 C   0  0  0  0  0  0  0  0  0  0  0  0
    2.8922    1.5243   -0.0608 C   0  0  0  0  0  0  0  0  0  0  0  0
    3.7640    2.3640    0.1013 O   0  0  0  0  0  0  0  0  0  0  0  0
    3.1225    0.2378   -0.3656 O   0  0  0  0  0  0  0  0  0  0  0  0
    4.5287   -0.1065   -0.5570 C   0  0  0  0  0  0  0  0  0  0  0  0
    4.9555    0.6013   -1.2961 H   0  0  0  0  0  0  0  0  0  0  0  0
    5.0605    0.0651    0.4017 H   0  0  0  0  0  0  0  0  0  0  0  0
    4.6127   -1.5427   -1.0211 C   0  0  0  0  0  0  0  0  0  0  0  0
    4.2136   -2.2458   -0.2633 H   0  0  0  0  0  0  0  0  0  0  0  0
    5.6737   -1.8081   -1.1957 H   0  0  0  0  0  0  0  0  0  0  0  0
    4.0665   -1.6882   -1.9741 H   0  0  0  0  0  0  0  0  0  0  0  0
   -0.7076    2.0700   -0.0172 N   0  0  0  0  0  0  0  0  0  0  0  0
   -2.0590    1.7401   -0.1910 C   0  0  1  0  0  3  0  0  0  0  0  0
   -3.1019    2.6686   -0.2356 C   0  0  0  0  0  0  0  0  0  0  0  0
   -2.8866    3.7384   -0.1132 H   0  0  0  0  0  0  0  0  0  0  0  0
   -4.3925    2.1741   -0.4536 C   0  0  0  0  0  0  0  0  0  0  0  0
   -5.2478    2.8633   -0.4990 H   0  0  0  0  0  0  0  0  0  0  0  0
   -4.5749    0.7910   -0.6286 C   0  0  0  0  0  0  0  0  0  0  0  0
   -5.5709    0.3678   -0.8184 H   0  0  0  0  0  0  0  0  0  0  0  0
   -3.4691   -0.0602   -0.5715 C   0  0  0  0  0  0  0  0  0  0  0  0
   -3.5599   -1.1435   -0.7248 H   0  0  0  0  0  0  0  0  0  0  0  0
   -2.2185    0.4021   -0.3360 N   0  0  0  0  0  2  0  0  0  0  0  0
   -0.2575    3.3183    0.1039 N   0  0  0  0  0  2  0  0  0  0  0  0
    1.0452    3.1702    0.1347 N   0  0  0  0  0  0  0  0  0  0  0  0
    1.8635    4.3777    0.2579 C   0  0  0  0  0  0  0  0  0  0  0  0
    1.1664    5.2307    0.3165 H   0  0  0  0  0  0  0  0  0  0  0  0
    2.5284    4.4621   -0.6199 H   0  0  0  0  0  0  0  0  0  0  0  0
    2.4952    4.3066    1.1604 H   0  0  0  0  0  0  0  0  0  0  0  0
  1 13  1  0  0  0  0
  1  2  2  0  0  0  0
  2 25  1  0  0  0  0
  3  2  1  0  0  0  0
  3  4  2  0  0  0  0
  5  3  1  0  0  0  0
  6  5  1  0  0  0  0
  6  8  1  0  0  0  0
  7  6  1  0  0  0  0
  9  6  1  0  0  0  0
  9 10  1  0  0  0  0
 11  9  1  0  0  0  0
 12  9  1  0  0  0  0
 13 24  1  0  0  0  0
 14 13  1  6  0  0  0
 15 14  1  0  0  0  0
 15 16  1  0  0  0  0
 17 15  2  0  0  0  0
 18 17  1  0  0  0  0
 19 21  2  0  0  0  0
 19 17  1  0  0  0  0
 20 19  1  0  0  0  0
 21 23  1  0  0  0  0
 22 21  1  0  0  0  0
 23 14  1  0  0  0  0
 24 25  1  0  0  0  0
 25 26  1  0  0  0  0
 26 27  1  0  0  0  0
 26 29  1  0  0  0  0
 28 26  1  0  0  0  0
M  END
