1,19
q = -1.0

 30 32  0  0  0  0  0  0  0  0999 V2000
   -2.5506   -0.5195   -0.2750 N   0  0  0  0  0  2  0  0  0  0  0  0
   -3.3693   -0.8963   -1.2873 C   0  0  0  0  0  3  0  0  0  0  0  0
   -2.8740   -0.9691   -2.2704 H   0  0  0  0  0  0  0  0  0  0  0  0
   -4.7297   -1.1325   -1.0851 C   0  0  0  0  0  0  0  0  0  0  0  0
   -5.3552   -1.4381   -1.9354 H   0  0  0  0  0  0  0  0  0  0  0  0
   -5.2663   -0.9702    0.2042 C   0  0  0  0  0  0  0  0  0  0  0  0
   -6.3352   -1.1480    0.3953 H   0  0  0  0  0  0  0  0  0  0  0  0
   -4.4191   -0.5854    1.2456 C   0  0  0  0  0  0  0  0  0  0  0  0
   -4.8065   -0.4633    2.2660 H   0  0  0  0  0  0  0  0  0  0  0  0
   -3.0482   -0.3683    0.9976 C   0  0  0  0  0  0  0  0  0  0  0  0
   -2.0339   -0.0198    1.9897 C   0  0  0  0  0  0  0  0  0  0  0  0
   -2.3485    0.2461    3.3402 C   0  0  0  0  0  0  0  0  0  0  0  0
   -3.3957    0.2366    3.6795 H   0  0  0  0  0  0  0  0  0  0  0  0
   -1.3289    0.5282    4.2500 C   0  0  0  0  0  0  0  0  0  0  0  0
   -1.5632    0.7506    5.3016 H   0  0  0  0  0  0  0  0  0  0  0  0
    0.0058    0.4905    3.8131 C   0  0  0  0  0  0  0  0  0  0  0  0
    0.8224    0.6607    4.5326 H   0  0  0  0  0  0  0  0  0  0  0  0
    0.3413    0.2075    2.4724 C   0  0  0  0  0  0  0  0  0  0  0  0
   -0.6824    0.0039    1.5062 C   0  0  0  0  0  3  0  0  0  0  0  0
    1.7949    0.0607    2.1597 C   0  0  0  0  0  0  0  0  0  0  0  0
    2.3517   -1.2301    2.0457 C   0  0  0  0  0  0  0  0  0  0  0  0
    1.6898   -2.1055    2.1140 H   0  0  0  0  0  0  0  0  0  0  0  0
    3.7295   -1.3985    1.8458 C   0  0  0  0  0  0  0  0  0  0  0  0
    4.1440   -2.4144    1.7567 H   0  0  0  0  0  0  0  0  0  0  0  0
    4.5709   -0.2798    1.7463 C   0  0  0  0  0  0  0  0  0  0  0  0
    5.6518   -0.4116    1.5843 H   0  0  0  0  0  0  0  0  0  0  0  0
    4.0265    1.0104    1.8538 C   0  0  0  0  0  0  0  0  0  0  0  0
    4.6792    1.8932    1.7715 H   0  0  0  0  0  0  0  0  0  0  0  0
    2.6499    1.1779    2.0665 C   0  0  0  0  0  0  0  0  0  0  0  0
    2.2207    2.1883    2.1547 H   0  0  0  0  0  0  0  0  0  0  0  0
  1 10  1  0  0  0  0
  2  4  1  0  0  0  0
  2  1  1  0  0  0  0
  3  2  1  0  0  0  0
  4  6  2  0  0  0  0
  5  4  1  0  0  0  0
  6  7  1  0  0  0  0
  6  8  1  0  0  0  0
  8  9  1  0  0  0  0
 10  8  2  0  0  0  0
 10 11  1  0  0  0  0
 11 12  1  0  0  0  0
 12 13  1  0  0  0  0
 12 14  2  0  0  0  0
 14 15  1  0  0  0  0
 16 14  1  0  0  0  0
 16 17  1  0  0  0  0
 18 16  2  0  0  0  0
 19 11  2  0  0  0  0
 19 18  1  0  0  0  0
 20 18  1  0  0  0  0
 21 22  1  0  0  0  0
 21 20  2  0  0  0  0
 23 21  1  0  0  0  0
 24 23  1  0  0  0  0
 25 23  2  0  0  0  0
 25 27  1  0  0  0  0
 26 25  1  0  0  0  0
 27 29  2  0  0  0  0
 28 27  1  0  0  0  0
 29 30  1  0  0  0  0
 29 20  1  0  0  0  0
M  END
