1,20
q = -1.0, confidence = 0.0

 42 45  0  0  0  0  0  0  0  0999 V2000
   -2.9760   -1.6035   -0.1969 N   0  0  0  0  0  2  0  0  0  0  0  0
    3.2326   -0.5400   -0.1948 N   0  0  0  0  0  0  0  0  0  0  0  0
   -4.3001   -1.8770   -0.1787 C   0  0  0  0  0  0  0  0  0  0  0  0
   -4.9432   -1.0111    0.0523 H   0  0  0  0  0  0  0  0  0  0  0  0
   -4.7903   -3.1582   -0.4399 C   0  0  0  0  0  0  0  0  0  0  0  0
   -5.8740   -3.3370   -0.4148 H   0  0  0  0  0  0  0  0  0  0  0  0
   -3.8780   -4.1871   -0.7305 C   0  0  0  0  0  0  0  0  0  0  0  0
   -4.2323   -5.2070   -0.9431 H   0  0  0  0  0  0  0  0  0  0  0  0
   -2.5112   -3.9015   -0.7460 C   0  0  0  0  0  0  0  0  0  0  0  0
   -1.7763   -4.6876   -0.9667 H   0  0  0  0  0  0  0  0  0  0  0  0
   -2.0583   -2.5945   -0.4747 C   0  0  0  0  0  0  0  0  0  0  0  0
   -0.6743   -2.1454   -0.4358 C   0  0  0  0  0  0  0  0  0  0  0  0
    0.4455   -2.9741   -0.6638 C   0  0  0  0  0  3  0  0  0  0  0  0
    0.3074   -4.0350   -0.9248 H   0  0  0  0  0  0  0  0  0  0  0  0
    1.7425   -2.4636   -0.5909 C   0  0  0  0  0  0  0  0  0  0  0  0
    2.6104   -3.1041   -0.7994 H   0  0  0  0  0  0  0  0  0  0  0  0
    1.9337   -1.1023   -0.2524 C   0  0  0  0  0  0  0  0  0  0  0  0
    0.8149   -0.2817    0.0105 C   0  0  0  0  0  0  0  0  0  0  0  0
    1.0116    0.7542    0.3189 H   0  0  0  0  0  0  0  0  0  0  0  0
   -0.4994   -0.7586   -0.1138 C   0  0  0  0  0  3  0  0  0  0  0  0
    4.3143   -1.2653    0.3630 C   0  0  0  0  0  0  0  0  0  0  0  0
    4.1123   -2.1068    1.4802 C   0  0  0  0  0  0  0  0  0  0  0  0
    3.1077   -2.1858    1.9198 H   0  0  0  0  0  0  0  0  0  0  0  0
    5.1836   -2.8287    2.0213 C   0  0  0  0  0  0  0  0  0  0  0  0
    5.0092   -3.4786    2.8925 H   0  0  0  0  0  0  0  0  0  0  0  0
    6.4728   -2.7143    1.4753 C   0  0  0  0  0  0  0  0  0  0  0  0
    7.3124   -3.2782    1.9079 H   0  0  0  0  0  0  0  0  0  0  0  0
    6.6774   -1.8708    0.3708 C   0  0  0  0  0  0  0  0  0  0  0  0
    7.6805   -1.7765   -0.0728 H   0  0  0  0  0  0  0  0  0  0  0  0
    5.6107   -1.1572   -0.1894 C   0  0  0  0  0  0  0  0  0  0  0  0
    5.7720   -0.5098   -1.0634 H   0  0  0  0  0  0  0  0  0  0  0  0
    3.4318    0.7795   -0.6780 C   0  0  0  0  0  0  0  0  0  0  0  0
    4.2152    1.7049    0.0460 C   0  0  0  0  0  0  0  0  0  0  0  0
    4.6754    1.3927    0.9945 H   0  0  0  0  0  0  0  0  0  0  0  0
    4.3984    3.0065   -0.4395 C   0  0  0  0  0  0  0  0  0  0  0  0
    5.0095    3.7164    0.1388 H   0  0  0  0  0  0  0  0  0  0  0  0
    3.8001    3.4122   -1.6443 C   0  0  0  0  0  0  0  0  0  0  0  0
    3.9487    4.4347   -2.0225 H   0  0  0  0  0  0  0  0  0  0  0  0
    3.0181    2.4932   -2.3662 C   0  0  0  0  0  0  0  0  0  0  0  0
    2.5562    2.7908   -3.3205 H   0  0  0  0  0  0  0  0  0  0  0  0
    2.8375    1.1872   -1.8944 C   0  0  0  0  0  0  0  0  0  0  0  0
    2.2347    0.4648   -2.4636 H   0  0  0  0  0  0  0  0  0  0  0  0
  1  3  1  0  0  0  0
  2 21  1  0  0  0  0
  3  4  1  0  0  0  0
  5  6  1  0  0  0  0
  5  3  2  0  0  0  0
  7  5  1  0  0  0  0
  8  7  1  0  0  0  0
  9  7  2  0  0  0  0
  9 11  1  0  0  0  0
 10  9  1  0  0  0  0
 11 12  2  0  0  0  0
 11  1  1  0  0  0  0
 12 20  1  0  0  0  0
 13 15  1  0  0  0  0
 13 12  1  0  0  0  0
 14 13  1  0  0  0  0
 15 17  2  0  0  0  0
 16 15  1  0  0  0  0
 17  2  1  0  0  0  0
 17 18  1  0  0  0  0
 18 19  1  0  0  0  0
 20 18  2  0  0  0  0
 21 22  1  0  0  0  0
 22 23  1  0  0  0  0
 22 24  2  0  0  0  0
 24 25  1  0  0  0  0
 26 27  1  0  0  0  0
 26 24  1  0  0  0  0
 28 26  2  0  0  0  0
 29 28  1  0  0  0  0
 30 21  2  0  0  0  0
 30 28  1  0  0  0  0
 31 30  1  0  0  0  0
 32  2  1  0  0  0  0
 32 33  1  0  0  0  0
 33 34  1  0  0  0  0
 35 33  2  0  0  0  0
 35 36  1  0  0  0  0
 37 35  1  0  0  0  0
 38 37  1  0  0  0  0
 39 41  1  0  0  0  0
 39 37  2  0  0  0  0
 40 39  1  0  0  0  0
 41 32  2  0  0  0  0
 42 41  1  0  0  0  0
M  END
