1,8
q = -1.0

 30 32  0  0  0  0  0  0  0  0999 V2000
    1.6516    0.1700    0.3274 N   0  0  0  0  0  2  0  0  0  0  0  0
    1.9209    1.2099    1.0827 N   0  0  0  0  0  2  0  0  0  0  0  0
    3.2373    1.1360    1.3347 N   0  0  0  0  0  0  0  0  0  0  0  0
    3.8226    0.0533    0.7326 C   0  0  0  0  0  0  0  0  0  0  0  0
    4.8884   -0.1718    0.8142 H   0  0  0  0  0  0  0  0  0  0  0  0
    2.7813   -0.5934    0.0764 C   0  0  0  0  0  0  0  0  0  0  0  0
    2.5470   -1.7751   -0.7216 C   0  0  0  0  0  0  0  0  0  0  0  0
    1.1763   -1.9677   -1.1009 C   0  0  0  0  0  3  0  0  0  0  0  0
    0.8574   -3.1047   -1.8661 C   0  0  0  0  0  0  0  0  0  0  0  0
   -0.1827   -3.2930   -2.1702 H   0  0  0  0  0  0  0  0  0  0  0  0
    1.8709   -4.0008   -2.2270 C   0  0  0  0  0  0  0  0  0  0  0  0
    1.5560   -5.0875   -2.9602 F   0  0  0  0  0  0  0  0  0  0  0  0
    3.2183   -3.8294   -1.8631 C   0  0  0  0  0  0  0  0  0  0  0  0
    3.9886   -4.5524   -2.1591 H   0  0  0  0  0  0  0  0  0  0  0  0
    3.5295   -2.7011   -1.1052 C   0  0  0  0  0  0  0  0  0  0  0  0
    4.8134   -2.4883   -0.7244 F   0  0  0  0  0  0  0  0  0  0  0  0
    3.8852    2.2182    2.0665 C   0  0  0  0  0  0  0  0  0  0  0  0
    4.6209    1.7731    2.7643 H   0  0  0  0  0  0  0  0  0  0  0  0
    3.0836    2.6887    2.6695 H   0  0  0  0  0  0  0  0  0  0  0  0
    4.5511    3.2280    1.1519 C   0  0  0  0  0  0  0  0  0  0  0  0
    3.8109    3.8437    0.1227 C   0  0  0  0  0  0  0  0  0  0  0  0
    2.7515    3.5753   -0.0162 H   0  0  0  0  0  0  0  0  0  0  0  0
    4.4213    4.7825   -0.7197 C   0  0  0  0  0  0  0  0  0  0  0  0
    3.8364    5.2585   -1.5214 H   0  0  0  0  0  0  0  0  0  0  0  0
    5.7740    5.1191   -0.5416 C   0  0  0  0  0  0  0  0  0  0  0  0
    6.2511    5.8572   -1.2039 H   0  0  0  0  0  0  0  0  0  0  0  0
    6.5151    4.5097    0.4815 C   0  0  0  0  0  0  0  0  0  0  0  0
    7.5758    4.7656    0.6242 H   0  0  0  0  0  0  0  0  0  0  0  0
    5.9056    3.5647    1.3224 C   0  0  0  0  0  0  0  0  0  0  0  0
    6.4906    3.0829    2.1223 H   0  0  0  0  0  0  0  0  0  0  0  0
  1  2  1  0  0  0  0
  2  3  1  0  0  0  0
  3 17  1  0  0  0  0
  4  5  1  0  0  0  0
  4  3  1  0  0  0  0
  6  1  1  0  0  0  0
  6  4  2  0  0  0  0
  7  6  1  0  0  0  0
  8  7  1  0  0  0  0
  9  8  2  0  0  0  0
 10  9  1  0  0  0  0
 11  9  1  0  0  0  0
 11 13  2  0  0  0  0
 12 11  1  0  0  0  0
 13 15  1  0  0  0  0
 14 13  1  0  0  0  0
 15 16  1  0  0  0  0
 15  7  2  0  0  0  0
 17 19  1  0  0  0  0
 17 18  1  0  0  0  0
 20 29  1  0  0  0  0
 20 17  1  0  0  0  0
 21 20  2  0  0  0  0
 22 21  1  0  0  0  0
 23 25  2  0  0  0  0
 23 21  1  0  0  0  0
 24 23  1  0  0  0  0
 25 27  1  0  0  0  0
 26 25  1  0  0  0  0
 27 28  1  0  0  0  0
 27 29  2  0  0  0  0
 29 30  1  0  0  0  0
M  END
