2,16
q = 0.0, confidence = 0.994

 36 37  0  0  0  0  0  0  0  0999 V2000
    0.5611    2.6541   -1.6901 N   0  0  0  0  0  2  0  0  0  0  0  0
   -0.1014    1.6799   -0.9587 N   0  0  0  0  0  2  0  0  0  0  0  0
    3.3442   -0.7349   -0.7696 C   0  0  0  0  0  0  0  0  0  0  0  0
    3.1320   -2.0006   -1.3677 C   0  0  0  0  0  0  0  0  0  0  0  0
    2.2218   -2.1592   -1.9676 H   0  0  0  0  0  0  0  0  0  0  0  0
    4.0461   -3.0468   -1.1980 C   0  0  0  0  0  0  0  0  0  0  0  0
    3.8533   -4.0217   -1.6716 H   0  0  0  0  0  0  0  0  0  0  0  0
    5.2051   -2.8545   -0.4277 C   0  0  0  0  0  0  0  0  0  0  0  0
    5.9262   -3.6747   -0.2932 H   0  0  0  0  0  0  0  0  0  0  0  0
    5.4352   -1.6034    0.1664 C   0  0  0  0  0  0  0  0  0  0  0  0
    6.3420   -1.4376    0.7680 H   0  0  0  0  0  0  0  0  0  0  0  0
    4.5186   -0.5572   -0.0020 C   0  0  0  0  0  0  0  0  0  0  0  0
    4.7244    0.4141    0.4715 H   0  0  0  0  0  0  0  0  0  0  0  0
    2.3365    0.3255   -0.9792 C   0  0  0  0  0  3  0  0  0  0  0  0
    1.7381    0.1683   -1.8931 H   0  0  0  0  0  0  0  0  0  0  0  0
    2.4871    1.7088   -0.5437 C   0  0  0  0  0  3  0  0  0  0  0  0
    3.4284    2.0187   -0.0628 H   0  0  0  0  0  0  0  0  0  0  0  0
    1.8215    2.7142   -1.3674 C   0  0  0  0  0  3  0  0  0  0  0  0
    2.3880    3.5528   -1.8134 H   0  0  0  0  0  0  0  0  0  0  0  0
   -1.3749    1.5706   -1.2804 C   0  0  0  0  0  0  0  0  0  0  0  0
   -1.7134    2.2240   -2.1062 H   0  0  0  0  0  0  0  0  0  0  0  0
   -2.3121    0.7111   -0.6344 C   0  0  0  0  0  0  0  0  0  0  0  0
   -1.9599    0.1406    0.2353 H   0  0  0  0  0  0  0  0  0  0  0  0
   -3.6100    0.5978   -1.0585 C   0  0  0  0  0  3  0  0  0  0  0  0
   -3.9321    1.2175   -1.9145 H   0  0  0  0  0  0  0  0  0  0  0  0
   -4.6283   -0.2719   -0.4874 C   0  0  0  0  0  0  0  0  0  0  0  0
   -4.3288   -1.2639    0.4832 C   0  0  0  0  0  0  0  0  0  0  0  0
   -3.2882   -1.4201    0.8045 H   0  0  0  0  0  0  0  0  0  0  0  0
   -5.3405   -2.0694    1.0117 C   0  0  0  0  0  0  0  0  0  0  0  0
   -5.0901   -2.8372    1.7591 H   0  0  0  0  0  0  0  0  0  0  0  0
   -6.6724   -1.9101    0.5861 C   0  0  0  0  0  0  0  0  0  0  0  0
   -7.4651   -2.5480    1.0053 H   0  0  0  0  0  0  0  0  0  0  0  0
   -6.9846   -0.9422   -0.3822 C   0  0  0  0  0  0  0  0  0  0  0  0
   -8.0232   -0.8174   -0.7238 H   0  0  0  0  0  0  0  0  0  0  0  0
   -5.9729   -0.1361   -0.9163 C   0  0  0  0  0  0  0  0  0  0  0  0
   -6.2171    0.6232   -1.6758 H   0  0  0  0  0  0  0  0  0  0  0  0
  1 18  1  0  0  0  0
  1  2  1  0  0  0  0
  3 12  1  0  0  0  0
  4  6  1  0  0  0  0
  4  3  2  0  0  0  0
  5  4  1  0  0  0  0
  6  8  2  0  0  0  0
  7  6  1  0  0  0  0
  8  9  1  0  0  0  0
  8 10  1  0  0  0  0
 10 11  1  0  0  0  0
 12 10  2  0  0  0  0
 12 13  1  0  0  0  0
 14  3  1  0  0  0  0
 14 16  1  0  0  0  0
 15 14  1  0  0  0  0
 16 17  1  0  0  0  0
 18 16  1  0  0  0  0
 19 18  1  0  0  0  0
 20  2  1  0  0  0  0
 20 22  2  0  0  0  0
 21 20  1  0  0  0  0
 22 23  1  0  0  0  0
 24 22  1  0  0  0  0
 24 26  1  0  0  0  0
 25 24  1  0  0  0  0
 26 27  1  0  0  0  0
 27 28  1  0  0  0  0
 27 29  2  0  0  0  0
 29 30  1  0  0  0  0
 31 32  1  0  0  0  0
 31 29  1  0  0  0  0
 33 31  2  0  0  0  0
 34 33  1  0  0  0  0
 35 26  2  0  0  0  0
 35 33  1  0  0  0  0
 36 35  1  0  0  0  0
M  END
