1,11
q = -1.0

 31 31  0  0  1  0  0  0  0  0999 V2000
   -1.2741    0.8142   -0.1807 C   0  0  0  0  0  3  0  0  0  0  0  0
   -1.4351    2.1820   -0.5266 C   0  0  0  0  0  0  0  0  0  0  0  0
   -2.7203    2.7580   -0.4479 C   0  0  0  0  0  0  0  0  0  0  0  0
   -2.8454    3.8202   -0.7156 H   0  0  0  0  0  0  0  0  0  0  0  0
   -3.8401    2.0167   -0.0543 C   0  0  0  0  0  0  0  0  0  0  0  0
   -4.8293    2.4989   -0.0084 H   0  0  0  0  0  0  0  0  0  0  0  0
   -3.7207    0.6518    0.2636 C   0  0  0  0  0  0  0  0  0  0  0  0
   -2.4320    0.0732    0.1897 C   0  0  0  0  0  0  0  0  0  0  0  0
   -2.1969   -1.3835    0.5350 C   0  0  1  0  0  0  0  0  0  0  0  0
   -3.0888   -2.0073    0.2920 H   0  0  0  0  0  0  0  0  0  0  0  0
   -1.0646   -1.8604   -0.3474 N   0  0  0  0  0  0  0  0  0  0  0  0
   -0.2913    3.0525   -0.9975 C   0  0  0  0  0  0  0  0  0  0  0  0
    0.3149    2.5416   -1.7752 H   0  0  0  0  0  0  0  0  0  0  0  0
    0.3821    3.3471   -0.1615 H   0  0  0  0  0  0  0  0  0  0  0  0
   -0.6620    3.9971   -1.4408 H   0  0  0  0  0  0  0  0  0  0  0  0
   -4.9381   -0.1525    0.6539 C   0  0  0  0  0  0  0  0  0  0  0  0
   -4.8425   -0.5982    1.6665 H   0  0  0  0  0  0  0  0  0  0  0  0
   -5.1191   -0.9965   -0.0460 H   0  0  0  0  0  0  0  0  0  0  0  0
   -5.8481    0.4781    0.6541 H   0  0  0  0  0  0  0  0  0  0  0  0
   -1.8834   -1.5425    2.0270 C   0  0  0  0  0  0  0  0  0  0  0  0
   -1.8333   -2.6000    2.3511 H   0  0  0  0  0  0  0  0  0  0  0  0
   -2.6801   -1.0459    2.6132 H   0  0  0  0  0  0  0  0  0  0  0  0
   -0.9245   -1.0379    2.2659 H   0  0  0  0  0  0  0  0  0  0  0  0
   -1.5357   -1.9736   -1.7491 C   0  0  0  0  0  0  0  0  0  0  0  0
   -1.9949   -1.0203   -2.0643 H   0  0  0  0  0  0  0  0  0  0  0  0
   -2.2855   -2.7933   -1.8358 H   0  0  0  0  0  0  0  0  0  0  0  0
   -0.6741   -2.1990   -2.4038 H   0  0  0  0  0  0  0  0  0  0  0  0
   -0.5032   -3.1619    0.0727 C   0  0  0  0  0  0  0  0  0  0  0  0
   -0.0526   -3.0816    1.0752 H   0  0  0  0  0  0  0  0  0  0  0  0
    0.3056   -3.4404   -0.6251 H   0  0  0  0  0  0  0  0  0  0  0  0
   -1.2985   -3.9414    0.0725 H   0  0  0  0  0  0  0  0  0  0  0  0
  1  8  1  0  0  0  0
  2  3  1  0  0  0  0
  2  1  2  0  0  0  0
  3  5  2  0  0  0  0
  4  3  1  0  0  0  0
  5  6  1  0  0  0  0
  5  7  1  0  0  0  0
  7 16  1  0  0  0  0
  8  7  2  0  0  0  0
  8  9  1  0  0  0  0
  9 10  1  6  0  0  0
  9 20  1  0  0  0  0
 11 28  1  0  0  0  0
 11  9  1  0  0  0  0
 12  2  1  0  0  0  0
 12 14  1  0  0  0  0
 13 12  1  0  0  0  0
 15 12  1  0  0  0  0
 16 19  1  0  0  0  0
 16 17  1  0  0  0  0
 18 16  1  0  0  0  0
 20 23  1  0  0  0  0
 20 21  1  0  0  0  0
 20 22  1  0  0  0  0
 24 11  1  0  0  0  0
 25 24  1  0  0  0  0
 26 24  1  0  0  0  0
 27 24  1  0  0  0  0
 28 29  1  0  0  0  0
 30 28  1  0  0  0  0
 31 28  1  0  0  0  0
M  END
