1,7
q = -1.0, confidence = 0.0

 21 22  0  0  0  0  0  0  0  0999 V2000
    1.6878   -1.2352   -0.0003 N   0  0  0  0  0  2  0  0  0  0  0  0
    3.8900   -1.0908    0.0003 N   0  0  0  0  0  0  0  0  0  0  0  0
    2.1746   -2.5142   -0.0002 C   0  0  0  0  0  0  0  0  0  0  0  0
    3.5550   -2.4419    0.0001 C   0  0  0  0  0  0  0  0  0  0  0  0
    2.7225   -0.3720   -0.0000 C   0  0  0  0  0  0  0  0  0  0  0  0
    5.2450   -0.5694    0.0007 C   0  0  0  0  0  0  0  0  0  0  0  0
    0.9974    1.3074    0.0000 C   0  0  0  0  0  2  0  0  0  0  0  0
    2.4113    1.0515   -0.0001 C   0  0  0  0  0  0  0  0  0  0  0  0
    3.3383    2.1152   -0.0003 C   0  0  0  0  0  0  0  0  0  0  0  0
    2.8829    3.4414   -0.0003 C   0  0  0  0  0  0  0  0  0  0  0  0
    1.5051    3.7048   -0.0001 C   0  0  0  0  0  0  0  0  0  0  0  0
    0.5753    2.6478    0.0000 C   0  0  0  0  0  0  0  0  0  0  0  0
    1.4960   -3.3741   -0.0004 H   0  0  0  0  0  0  0  0  0  0  0  0
    4.3254   -3.2188    0.0003 H   0  0  0  0  0  0  0  0  0  0  0  0
    4.4199    1.9233   -0.0005 H   0  0  0  0  0  0  0  0  0  0  0  0
    3.6080    4.2689   -0.0004 H   0  0  0  0  0  0  0  0  0  0  0  0
    1.1454    4.7459   -0.0001 H   0  0  0  0  0  0  0  0  0  0  0  0
   -0.4994    2.8819    0.0001 H   0  0  0  0  0  0  0  0  0  0  0  0
    5.9524   -1.4177    0.0022 H   0  0  0  0  0  0  0  0  0  0  0  0
    5.4324    0.0461   -0.9013 H   0  0  0  0  0  0  0  0  0  0  0  0
    5.4310    0.0480    0.9017 H   0  0  0  0  0  0  0  0  0  0  0  0
  1  3  1  0  0  0  0
  1  5  1  0  0  0  0
  2  6  1  0  0  0  0
  3  4  2  0  0  0  0
  4 14  1  0  0  0  0
  4  2  1  0  0  0  0
  5  2  1  0  0  0  0
  6 19  1  0  0  0  0
  6 21  1  0  0  0  0
  7 12  1  0  0  0  0
  8  5  2  0  0  0  0
  8  7  1  0  0  0  0
  9 10  2  0  0  0  0
  9  8  1  0  0  0  0
 10 11  1  0  0  0  0
 11 17  1  0  0  0  0
 11 12  2  0  0  0  0
 12 18  1  0  0  0  0
 13  3  1  0  0  0  0
 15  9  1  0  0  0  0
 16 10  1  0  0  0  0
 20  6  1  0  0  0  0
M  END
