8,9
q = -1.0, confidence = 0.024

 43 46  0  0  0  0  0  0  0  0999 V2000
    2.1223    1.1106   -1.2024 Se  0  0  0  0  0  0  0  0  0  0  0  0
   -1.5428   -0.6647   -1.5785 C   0  0  0  0  0  3  0  0  0  0  0  0
   -2.0472   -0.8016   -2.5541 H   0  0  0  0  0  0  0  0  0  0  0  0
    1.4390    5.0139    0.1341 C   0  0  0  0  0  0  0  0  0  0  0  0
    2.0544    5.8021    0.5927 H   0  0  0  0  0  0  0  0  0  0  0  0
   -0.0318    1.4655    1.8969 C   0  0  0  0  0  0  0  0  0  0  0  0
    1.0433    1.6133    2.0842 H   0  0  0  0  0  0  0  0  0  0  0  0
   -0.4292    0.5557    0.9122 C   0  0  0  0  0  3  0  0  0  0  0  0
   -0.2343   -0.6890   -1.5872 N   0  0  0  0  0  2  0  0  0  0  0  0
   -0.1299    2.9975   -1.0487 C   0  0  0  0  0  0  0  0  0  0  0  0
   -0.7557    2.2015   -1.4756 H   0  0  0  0  0  0  0  0  0  0  0  0
   -4.6944    0.0295    0.3719 C   0  0  0  0  0  0  0  0  0  0  0  0
   -6.1034   -0.2026    0.2643 C   0  0  0  0  0  0  0  0  0  0  0  0
   -6.7722    0.2854    0.9895 H   0  0  0  0  0  0  0  0  0  0  0  0
   -2.3108    2.0010    2.5218 C   0  0  0  0  0  0  0  0  0  0  0  0
   -3.0459    2.5256    3.1503 H   0  0  0  0  0  0  0  0  0  0  0  0
    0.5040   -0.6509   -2.8485 C   0  0  0  0  0  0  0  0  0  0  0  0
   -0.1860   -0.7548   -3.7151 H   0  0  0  0  0  0  0  0  0  0  0  0
    1.2109   -1.5057   -2.8673 H   0  0  0  0  0  0  0  0  0  0  0  0
   -1.8381    0.4037    0.6576 C   0  0  0  0  0  0  0  0  0  0  0  0
   -0.9546    2.2044    2.6832 C   0  0  0  0  0  0  0  0  0  0  0  0
   -0.5812    2.9144    3.4364 H   0  0  0  0  0  0  0  0  0  0  0  0
   -2.7837    1.0967    1.5204 C   0  0  0  0  0  0  0  0  0  0  0  0
   -6.6111   -1.0229   -0.7240 C   0  0  0  0  0  0  0  0  0  0  0  0
   -7.6937   -1.2003   -0.8006 H   0  0  0  0  0  0  0  0  0  0  0  0
   -2.3758   -0.3513   -0.4467 C   0  0  0  0  0  0  0  0  0  0  0  0
   -4.3541   -1.4464   -1.5660 C   0  0  0  0  0  0  0  0  0  0  0  0
   -3.6998   -1.9865   -2.2653 H   0  0  0  0  0  0  0  0  0  0  0  0
    1.2463    2.8039   -0.8410 C   0  0  0  0  0  0  0  0  0  0  0  0
   -4.1670    0.8804    1.3593 C   0  0  0  0  0  0  0  0  0  0  0  0
   -4.8627    1.3991    2.0385 H   0  0  0  0  0  0  0  0  0  0  0  0
   -5.7232   -1.6512   -1.6429 C   0  0  0  0  0  0  0  0  0  0  0  0
   -6.1289   -2.3205   -2.4163 H   0  0  0  0  0  0  0  0  0  0  0  0
    1.2711    0.6693   -2.9631 C   0  0  0  0  0  0  0  0  0  0  0  0
    0.6102    1.5223   -3.2049 H   0  0  0  0  0  0  0  0  0  0  0  0
    2.0808    0.6166   -3.7148 H   0  0  0  0  0  0  0  0  0  0  0  0
   -3.7876   -0.5970   -0.5671 C   0  0  0  0  0  0  0  0  0  0  0  0
    2.0376    3.8024   -0.2506 C   0  0  0  0  0  0  0  0  0  0  0  0
    3.1156    3.6426   -0.0943 H   0  0  0  0  0  0  0  0  0  0  0  0
    0.0674    5.2201   -0.0762 C   0  0  0  0  0  0  0  0  0  0  0  0
   -0.3976    6.1708    0.2239 H   0  0  0  0  0  0  0  0  0  0  0  0
   -0.7132    4.2145   -0.6709 C   0  0  0  0  0  0  0  0  0  0  0  0
   -1.7908    4.3699   -0.8281 H   0  0  0  0  0  0  0  0  0  0  0  0
  1 29  1  0  0  0  0
  2 26  1  0  0  0  0
  3  2  1  0  0  0  0
  4  5  1  0  0  0  0
  6  7  1  0  0  0  0
  6 21  1  0  0  0  0
  8  6  2  0  0  0  0
  9  2  1  0  0  0  0
 10 29  2  0  0  0  0
 10 42  1  0  0  0  0
 11 10  1  0  0  0  0
 12 30  1  0  0  0  0
 13 12  1  0  0  0  0
 13 14  1  0  0  0  0
 15 21  2  0  0  0  0
 15 16  1  0  0  0  0
 17  9  1  0  0  0  0
 18 17  1  0  0  0  0
 19 17  1  0  0  0  0
 20  8  1  0  0  0  0
 20 23  1  0  0  0  0
 21 22  1  0  0  0  0
 23 15  1  0  0  0  0
 24 13  2  0  0  0  0
 25 24  1  0  0  0  0
 26 20  2  0  0  0  0
 27 37  1  0  0  0  0
 28 27  1  0  0  0  0
 29 38  1  0  0  0  0
 30 23  2  0  0  0  0
 30 31  1  0  0  0  0
 32 27  2  0  0  0  0
 32 24  1  0  0  0  0
 33 32  1  0  0  0  0
 34 17  1  0  0  0  0
 34  1  1  0  0  0  0
 35 34  1  0  0  0  0
 36 34  1  0  0  0  0
 37 26  1  0  0  0  0
 37 12  2  0  0  0  0
 38 39  1  0  0  0  0
 38  4  2  0  0  0  0
 40  4  1  0  0  0  0
 40 41  1  0  0  0  0
 42 40  2  0  0  0  0
 43 42  1  0  0  0  0
M  END
