3,6
q = 0.0, confidence = 0.998

 33 34  0  0  0  0  0  0  0  0999 V2000
   -0.8905   -0.9186    0.0797 N   0  0  0  0  0  0  0  0  0  0  0  0
   -0.4588   -1.8847    0.0836 H   0  0  0  0  0  0  0  0  0  0  0  0
    2.2023    1.5946    0.1619 N   0  0  0  0  0  0  0  0  0  0  0  0
    2.5658    1.8092    1.1042 H   0  0  0  0  0  0  0  0  0  0  0  0
    2.9612    1.8351   -0.4960 H   0  0  0  0  0  0  0  0  0  0  0  0
    0.0580   -0.0007   -0.0327 C   0  0  0  0  0  2  0  0  0  0  0  0
   -0.1995    1.4477   -0.2248 C   0  0  0  0  0  0  0  0  0  0  0  0
   -1.4307    2.0598   -0.5640 C   0  0  0  0  0  0  0  0  0  0  0  0
   -2.3344    1.4475   -0.6777 H   0  0  0  0  0  0  0  0  0  0  0  0
   -1.4995    3.4431   -0.7738 C   0  0  0  0  0  0  0  0  0  0  0  0
   -2.4611    3.9023   -1.0468 H   0  0  0  0  0  0  0  0  0  0  0  0
   -0.3529    4.2439   -0.6430 C   0  0  0  0  0  0  0  0  0  0  0  0
   -0.4145    5.3301   -0.8058 H   0  0  0  0  0  0  0  0  0  0  0  0
    0.8802    3.6563   -0.3172 C   0  0  0  0  0  0  0  0  0  0  0  0
    1.7895    4.2699   -0.2275 H   0  0  0  0  0  0  0  0  0  0  0  0
    0.9499    2.2734   -0.1243 C   0  0  0  0  0  0  0  0  0  0  0  0
   -2.3127   -0.8158    0.1612 C   0  0  0  0  0  0  0  0  0  0  0  0
   -3.0638   -1.3520   -0.9133 C   0  0  0  0  0  0  0  0  0  0  0  0
   -4.4662   -1.2864   -0.8296 C   0  0  0  0  0  0  0  0  0  0  0  0
   -5.0704   -1.6913   -1.6561 H   0  0  0  0  0  0  0  0  0  0  0  0
   -5.0925   -0.7173    0.2887 C   0  0  0  0  0  0  0  0  0  0  0  0
   -6.1908   -0.6760    0.3402 H   0  0  0  0  0  0  0  0  0  0  0  0
   -4.3250   -0.2167    1.3493 C   0  0  0  0  0  0  0  0  0  0  0  0
   -4.8214    0.2075    2.2357 H   0  0  0  0  0  0  0  0  0  0  0  0
   -2.9181   -0.2615    1.3149 C   0  0  0  0  0  0  0  0  0  0  0  0
   -2.3582   -1.9391   -2.1079 C   0  0  0  0  0  0  0  0  0  0  0  0
   -3.0771   -2.3941   -2.8145 H   0  0  0  0  0  0  0  0  0  0  0  0
   -1.6171   -2.7121   -1.8168 H   0  0  0  0  0  0  0  0  0  0  0  0
   -1.7829   -1.1614   -2.6538 H   0  0  0  0  0  0  0  0  0  0  0  0
   -2.0908    0.2653    2.4577 C   0  0  0  0  0  0  0  0  0  0  0  0
   -1.2122   -0.3794    2.6587 H   0  0  0  0  0  0  0  0  0  0  0  0
   -2.6947    0.3369    3.3819 H   0  0  0  0  0  0  0  0  0  0  0  0
   -1.6968    1.2808    2.2379 H   0  0  0  0  0  0  0  0  0  0  0  0
  1  2  1  0  0  0  0
  1 17  1  0  0  0  0
  3  4  1  0  0  0  0
  5  3  1  0  0  0  0
  6  1  1  0  0  0  0
  7 16  1  0  0  0  0
  7  6  1  0  0  0  0
  8  7  2  0  0  0  0
  9  8  1  0  0  0  0
 10 12  2  0  0  0  0
 10  8  1  0  0  0  0
 11 10  1  0  0  0  0
 12 14  1  0  0  0  0
 13 12  1  0  0  0  0
 14 15  1  0  0  0  0
 14 16  2  0  0  0  0
 16  3  1  0  0  0  0
 17 25  1  0  0  0  0
 18 19  1  0  0  0  0
 18 17  2  0  0  0  0
 19 21  2  0  0  0  0
 20 19  1  0  0  0  0
 21 22  1  0  0  0  0
 21 23  1  0  0  0  0
 23 24  1  0  0  0  0
 25 23  2  0  0  0  0
 25 30  1  0  0  0  0
 26 28  1  0  0  0  0
 26 18  1  0  0  0  0
 27 26  1  0  0  0  0
 29 26  1  0  0  0  0
 30 31  1  0  0  0  0
 30 32  1  0  0  0  0
 33 30  1  0  0  0  0
M  END
