2,12
q = -1.0

 26 28  0  0  1  0  0  0  0  0999 V2000
    3.8470   -0.1062    2.5118 O   0  0  0  0  0  0  0  0  0  0  0  0
   -0.4850    1.9375   -1.2591 C   0  0  0  0  0  3  0  0  0  0  0  0
   -1.5279    2.5757   -1.9530 C   0  0  0  0  0  0  0  0  0  0  0  0
   -2.5518    2.1783   -1.8790 H   0  0  0  0  0  0  0  0  0  0  0  0
   -1.2832    3.7219   -2.7241 C   0  0  0  0  0  0  0  0  0  0  0  0
   -2.1129    4.2092   -3.2598 H   0  0  0  0  0  0  0  0  0  0  0  0
    0.0110    4.2663   -2.7891 C   0  0  0  0  0  0  0  0  0  0  0  0
    0.1977    5.1877   -3.3604 H   0  0  0  0  0  0  0  0  0  0  0  0
    1.0659    3.6487   -2.1077 C   0  0  0  0  0  0  0  0  0  0  0  0
    2.0528    4.1275   -2.1248 H   0  0  0  0  0  0  0  0  0  0  0  0
    0.8454    2.4664   -1.3611 C   0  0  0  0  0  0  0  0  0  0  0  0
    1.2879    0.8278    0.2400 N   0  0  0  0  0  2  0  0  0  0  0  0
    1.9942    0.2267    1.2218 N   0  0  0  0  0  0  0  0  0  0  0  0
    1.4641   -0.5146    1.7134 H   0  0  0  0  0  0  0  0  0  0  0  0
    3.3285    0.4533    1.5446 C   0  0  0  0  0  0  0  0  0  0  0  0
    4.0134    1.3376    0.5817 C   0  0  0  0  0  0  0  0  0  0  0  0
    3.2903    1.9443   -0.4894 C   0  0  0  0  0  0  0  0  0  0  0  0
    1.8455    1.7614   -0.5501 C   0  0  2  0  0  3  0  0  0  0  0  0
    5.4079    1.4923    0.6960 C   0  0  0  0  0  0  0  0  0  0  0  0
    5.9063    1.0081    1.5474 H   0  0  0  0  0  0  0  0  0  0  0  0
    6.1162    2.2084   -0.2682 C   0  0  0  0  0  0  0  0  0  0  0  0
    7.2070    2.3242   -0.1852 H   0  0  0  0  0  0  0  0  0  0  0  0
    5.4271    2.7516   -1.3719 C   0  0  0  0  0  0  0  0  0  0  0  0
    5.9847    3.2744   -2.1636 H   0  0  0  0  0  0  0  0  0  0  0  0
    4.0415    2.6246   -1.4838 C   0  0  0  0  0  0  0  0  0  0  0  0
    3.5389    3.0164   -2.3749 H   0  0  0  0  0  0  0  0  0  0  0  0
  3  4  1  0  0  0  0
  3  2  2  0  0  0  0
  5  3  1  0  0  0  0
  6  5  1  0  0  0  0
  7  5  2  0  0  0  0
  7  9  1  0  0  0  0
  8  7  1  0  0  0  0
  9 11  2  0  0  0  0
 10  9  1  0  0  0  0
 11  2  1  0  0  0  0
 12 13  1  0  0  0  0
 13 15  1  0  0  0  0
 13 14  1  0  0  0  0
 15  1  2  0  0  0  0
 16 19  1  0  0  0  0
 16 15  1  0  0  0  0
 17 16  2  0  0  0  0
 18 11  1  1  0  0  0
 18 17  1  0  0  0  0
 18 12  1  0  0  0  0
 19 20  1  0  0  0  0
 21 22  1  0  0  0  0
 21 19  2  0  0  0  0
 23 21  1  0  0  0  0
 24 23  1  0  0  0  0
 25 23  2  0  0  0  0
 25 17  1  0  0  0  0
 26 25  1  0  0  0  0
M  END
