1,8
q = -1.0

 23 23  0  0  0  0  0  0  0  0999 V2000
   -1.5128    0.3678    0.9134 C   0  0  0  0  0  2  0  0  0  0  0  0
   -2.8671    0.1609    0.9825 C   0  0  0  0  0  0  0  0  0  0  0  0
   -3.8218    1.2243    1.4465 C   0  0  0  0  0  0  0  0  0  0  0  0
   -4.5676    1.7864    0.3266 O   0  0  0  0  0  0  0  0  0  0  0  0
   -3.9310    2.7503   -0.3891 C   0  0  0  0  0  0  0  0  0  0  0  0
   -2.8514    3.2241   -0.0836 O   0  0  0  0  0  0  0  0  0  0  0  0
   -4.7321    3.1222   -1.6139 C   0  0  0  0  0  0  0  0  0  0  0  0
   -2.3395   -1.9969    0.1516 N   0  0  0  0  0  2  0  0  0  0  0  0
   -3.3443   -1.1375    0.5174 C   0  0  0  0  0  0  0  0  0  0  0  0
   -4.6881   -1.5541    0.4242 C   0  0  0  0  0  0  0  0  0  0  0  0
   -4.9785   -2.8485   -0.0235 C   0  0  0  0  0  0  0  0  0  0  0  0
   -3.9291   -3.7103   -0.3793 C   0  0  0  0  0  0  0  0  0  0  0  0
   -2.6132   -3.2364   -0.2832 C   0  0  0  0  0  0  0  0  0  0  0  0
   -1.1129    1.3321    1.2716 H   0  0  0  0  0  0  0  0  0  0  0  0
   -4.6075    0.8292    2.1204 H   0  0  0  0  0  0  0  0  0  0  0  0
   -3.2688    2.0365    1.9557 H   0  0  0  0  0  0  0  0  0  0  0  0
   -4.4265    4.1226   -1.9675 H   0  0  0  0  0  0  0  0  0  0  0  0
   -5.8186    3.0882   -1.4111 H   0  0  0  0  0  0  0  0  0  0  0  0
   -4.5174    2.3842   -2.4144 H   0  0  0  0  0  0  0  0  0  0  0  0
   -5.4919   -0.8507    0.6814 H   0  0  0  0  0  0  0  0  0  0  0  0
   -6.0245   -3.1826   -0.1006 H   0  0  0  0  0  0  0  0  0  0  0  0
   -4.1176   -4.7325   -0.7356 H   0  0  0  0  0  0  0  0  0  0  0  0
   -1.7274   -3.8352   -0.5593 H   0  0  0  0  0  0  0  0  0  0  0  0
  1  2  1  0  0  0  0
  1 14  1  0  0  0  0
  2  3  1  0  0  0  0
  3 16  1  0  0  0  0
  3 15  1  0  0  0  0
  4  3  1  0  0  0  0
  5  6  2  0  0  0  0
  5  4  1  0  0  0  0
  7 18  1  0  0  0  0
  7  5  1  0  0  0  0
  8  9  1  0  0  0  0
  9  2  2  0  0  0  0
 10  9  1  0  0  0  0
 10 20  1  0  0  0  0
 11 10  2  0  0  0  0
 12 13  2  0  0  0  0
 12 11  1  0  0  0  0
 13  8  1  0  0  0  0
 17  7  1  0  0  0  0
 19  7  1  0  0  0  0
 21 11  1  0  0  0  0
 22 12  1  0  0  0  0
 23 13  1  0  0  0  0
M  END
