3,4
q = 0.0, confidence = 0.998

 30 31  0  0  1  0  0  0  0  0999 V2000
   -2.1418    0.6005    1.1877 N   0  0  0  0  0  0  0  0  0  0  0  0
   -0.6107    2.0951    0.8217 N   0  0  0  0  0  0  0  0  0  0  0  0
    1.3247    1.5834   -0.2972 N   0  0  0  0  0  2  0  0  0  0  0  0
   -0.8750    0.7390    0.7250 C   0  0  0  0  0  2  0  0  0  0  0  0
   -2.6555    1.8356    1.5932 C   0  0  0  0  0  0  0  0  0  0  0  0
   -1.6976    2.7819    1.3617 C   0  0  0  0  0  0  0  0  0  0  0  0
    0.5651    2.5735    0.2337 C   0  0  1  0  0  3  0  0  0  0  0  0
    0.9147    3.9275    0.1500 C   0  0  0  0  0  0  0  0  0  0  0  0
    2.0893    4.2615   -0.5327 C   0  0  0  0  0  0  0  0  0  0  0  0
    2.8573    3.2428   -1.1200 C   0  0  0  0  0  0  0  0  0  0  0  0
    2.4363    1.9178   -0.9858 C   0  0  0  0  0  0  0  0  0  0  0  0
   -2.9312   -0.6368    1.1292 C   0  0  0  0  0  0  0  0  0  0  0  0
   -4.2492   -0.4730    0.3690 C   0  0  0  0  0  0  0  0  0  0  0  0
   -4.0963   -0.0041   -1.0803 C   0  0  0  0  0  0  0  0  0  0  0  0
   -5.4293    0.0605   -1.8245 C   0  0  0  0  0  0  0  0  0  0  0  0
   -3.6619    1.9384    2.0089 H   0  0  0  0  0  0  0  0  0  0  0  0
   -1.7057    3.8612    1.5340 H   0  0  0  0  0  0  0  0  0  0  0  0
    0.2754    4.7014    0.5947 H   0  0  0  0  0  0  0  0  0  0  0  0
    2.3935    5.3145   -0.6199 H   0  0  0  0  0  0  0  0  0  0  0  0
    3.7712    3.4682   -1.6862 H   0  0  0  0  0  0  0  0  0  0  0  0
    2.9876    1.0871   -1.4447 H   0  0  0  0  0  0  0  0  0  0  0  0
   -3.1131   -0.9869    2.1662 H   0  0  0  0  0  0  0  0  0  0  0  0
   -2.2842   -1.3718    0.6191 H   0  0  0  0  0  0  0  0  0  0  0  0
   -4.9290    0.2097    0.9262 H   0  0  0  0  0  0  0  0  0  0  0  0
   -4.7523   -1.4639    0.3973 H   0  0  0  0  0  0  0  0  0  0  0  0
   -3.3858   -0.6735   -1.6108 H   0  0  0  0  0  0  0  0  0  0  0  0
   -3.6080    0.9945   -1.0983 H   0  0  0  0  0  0  0  0  0  0  0  0
   -5.2902    0.4068   -2.8672 H   0  0  0  0  0  0  0  0  0  0  0  0
   -6.1383    0.7585   -1.3324 H   0  0  0  0  0  0  0  0  0  0  0  0
   -5.9201   -0.9339   -1.8657 H   0  0  0  0  0  0  0  0  0  0  0  0
  1  5  1  0  0  0  0
  2  6  1  0  0  0  0
  3  7  1  0  0  0  0
  4  2  1  0  0  0  0
  4  1  1  0  0  0  0
  5 16  1  0  0  0  0
  6 17  1  0  0  0  0
  6  5  2  0  0  0  0
  7  2  1  6  0  0  0
  8  7  1  0  0  0  0
  8 18  1  0  0  0  0
  9  8  2  0  0  0  0
 10 11  2  0  0  0  0
 10  9  1  0  0  0  0
 11  3  1  0  0  0  0
 12  1  1  0  0  0  0
 12 22  1  0  0  0  0
 13 25  1  0  0  0  0
 13 24  1  0  0  0  0
 13 12  1  0  0  0  0
 14 13  1  0  0  0  0
 15 29  1  0  0  0  0
 15 14  1  0  0  0  0
 19  9  1  0  0  0  0
 20 10  1  0  0  0  0
 21 11  1  0  0  0  0
 23 12  1  0  0  0  0
 26 14  1  0  0  0  0
 27 14  1  0  0  0  0
 28 15  1  0  0  0  0
 30 15  1  0  0  0  0
M  END
