18,21
q = -1.0, confidence = 0.04

 40 43  0  0  0  0  0  0  0  0999 V2000
    6.2989   -1.1638   -0.3758 C   0  0  0  0  0  0  0  0  0  0  0  0
    0.4136    3.8104   -0.5107 C   0  0  0  0  0  3  0  0  0  0  0  0
    1.5058    3.9497   -0.5076 H   0  0  0  0  0  0  0  0  0  0  0  0
   -1.1752   -2.3433   -1.5452 C   0  0  0  0  0  0  0  0  0  0  0  0
   -1.3402   -1.4427   -2.1548 H   0  0  0  0  0  0  0  0  0  0  0  0
   -2.3847    3.4639   -0.5379 C   0  0  0  0  0  0  0  0  0  0  0  0
   -3.4764    3.3331   -0.5267 H   0  0  0  0  0  0  0  0  0  0  0  0
    2.7139    0.0208   -0.0457 C   0  0  0  0  0  0  0  0  0  0  0  0
    6.9722   -2.1821   -0.9362 F   0  0  0  0  0  0  0  0  0  0  0  0
   -1.6846   -4.6640   -1.0229 C   0  0  0  0  0  0  0  0  0  0  0  0
   -2.2409   -5.5893   -1.2387 H   0  0  0  0  0  0  0  0  0  0  0  0
   -0.4210    4.9120   -0.7156 C   0  0  0  0  0  0  0  0  0  0  0  0
    0.0127    5.9121   -0.8652 H   0  0  0  0  0  0  0  0  0  0  0  0
    4.9072   -1.1222   -0.5016 C   0  0  0  0  0  0  0  0  0  0  0  0
    4.4045   -1.9117   -1.0758 H   0  0  0  0  0  0  0  0  0  0  0  0
   -1.8180    4.7318   -0.7345 C   0  0  0  0  0  0  0  0  0  0  0  0
   -2.4764    5.5995   -0.9001 H   0  0  0  0  0  0  0  0  0  0  0  0
   -1.5635    2.3381   -0.3254 C   0  0  0  0  0  3  0  0  0  0  0  0
   -1.8808   -3.5220   -1.8176 C   0  0  0  0  0  0  0  0  0  0  0  0
   -2.5922   -3.5477   -2.6565 H   0  0  0  0  0  0  0  0  0  0  0  0
   -0.1151    0.1461   -0.1639 N   0  0  0  0  0  2  0  0  0  0  0  0
    0.6374    1.3056   -0.1861 C   0  0  0  0  0  0  0  0  0  0  0  0
   -0.2566   -2.2952   -0.4737 C   0  0  0  0  0  0  0  0  0  0  0  0
    1.9227   -1.1424   -0.1395 C   0  0  0  0  0  0  0  0  0  0  0  0
    2.3843   -2.1384   -0.1645 H   0  0  0  0  0  0  0  0  0  0  0  0
    0.5250   -1.0583   -0.2259 C   0  0  0  0  0  0  0  0  0  0  0  0
    4.1896   -0.0494    0.0726 C   0  0  0  0  0  0  0  0  0  0  0  0
   -0.1476    2.5269   -0.3264 C   0  0  0  0  0  0  0  0  0  0  0  0
   -0.7655   -4.6263    0.0394 C   0  0  0  0  0  0  0  0  0  0  0  0
   -0.6032   -5.5196    0.6621 H   0  0  0  0  0  0  0  0  0  0  0  0
   -0.0486   -3.4508    0.3071 C   0  0  0  0  0  0  0  0  0  0  0  0
    0.6605   -3.4150    1.1481 H   0  0  0  0  0  0  0  0  0  0  0  0
    4.8961    0.9589    0.7654 C   0  0  0  0  0  0  0  0  0  0  0  0
    4.3763    1.7939    1.2538 H   0  0  0  0  0  0  0  0  0  0  0  0
    2.0374    1.2506   -0.1070 C   0  0  0  0  0  0  0  0  0  0  0  0
    2.6006    2.1927   -0.1188 H   0  0  0  0  0  0  0  0  0  0  0  0
    6.2877    0.8750    0.8706 C   0  0  0  0  0  0  0  0  0  0  0  0
    7.0198   -0.1773    0.3077 C   0  0  0  0  0  0  0  0  0  0  0  0
    8.1126   -0.2267    0.3983 H   0  0  0  0  0  0  0  0  0  0  0  0
    6.9482    1.8322    1.5419 F   0  0  0  0  0  0  0  0  0  0  0  0
  1 38  1  0  0  0  0
  2  3  1  0  0  0  0
  2 28  1  0  0  0  0
  4 23  1  0  0  0  0
  5  4  1  0  0  0  0
  6  7  1  0  0  0  0
  6 18  2  0  0  0  0
  8 27  1  0  0  0  0
  9  1  1  0  0  0  0
 10 29  2  0  0  0  0
 11 10  1  0  0  0  0
 12  2  1  0  0  0  0
 13 12  1  0  0  0  0
 14  1  2  0  0  0  0
 14 27  1  0  0  0  0
 15 14  1  0  0  0  0
 16 12  2  0  0  0  0
 16  6  1  0  0  0  0
 17 16  1  0  0  0  0
 19  4  2  0  0  0  0
 19 10  1  0  0  0  0
 20 19  1  0  0  0  0
 22 21  1  0  0  0  0
 22 35  1  0  0  0  0
 23 26  1  0  0  0  0
 23 31  2  0  0  0  0
 24  8  1  0  0  0  0
 25 24  1  0  0  0  0
 26 21  1  0  0  0  0
 26 24  2  0  0  0  0
 27 33  2  0  0  0  0
 28 18  1  0  0  0  0
 28 22  2  0  0  0  0
 29 31  1  0  0  0  0
 29 30  1  0  0  0  0
 31 32  1  0  0  0  0
 33 37  1  0  0  0  0
 33 34  1  0  0  0  0
 35  8  2  0  0  0  0
 36 35  1  0  0  0  0
 37 40  1  0  0  0  0
 38 39  1  0  0  0  0
 38 37  2  0  0  0  0
M  END
