2,3
q = -1.0

 14 13  0  0  0  0  0  0  0  0999 V2000
   -1.4818    1.6908   -0.2745 N   0  0  0  0  0  0  0  0  0  0  0  0
   -1.6138    0.3357   -0.1514 N   0  0  0  0  0  2  0  0  0  0  0  0
   -0.1045    1.9638   -0.2525 C   0  0  0  0  0  3  0  0  0  0  0  0
   -2.7696   -0.2615   -0.2134 C   0  0  0  0  0  3  0  0  0  0  0  0
   -4.0409    0.5247   -0.3886 C   0  0  0  0  0  0  0  0  0  0  0  0
   -2.8233   -1.7527   -0.1040 C   0  0  0  0  0  0  0  0  0  0  0  0
    0.3661    3.0627   -0.4678 O   0  0  0  0  0  0  0  0  0  0  0  0
   -2.2514    2.3221   -0.5519 H   0  0  0  0  0  0  0  0  0  0  0  0
   -4.1171    1.3429    0.3595 H   0  0  0  0  0  0  0  0  0  0  0  0
   -4.9263   -0.1267   -0.2737 H   0  0  0  0  0  0  0  0  0  0  0  0
   -4.0988    0.9921   -1.3968 H   0  0  0  0  0  0  0  0  0  0  0  0
   -1.8073   -2.1870   -0.1389 H   0  0  0  0  0  0  0  0  0  0  0  0
   -3.4363   -2.1801   -0.9252 H   0  0  0  0  0  0  0  0  0  0  0  0
   -3.3020   -2.0607    0.8507 H   0  0  0  0  0  0  0  0  0  0  0  0
  1  3  1  0  0  0  0
  1  2  1  0  0  0  0
  4  2  1  0  0  0  0
  4  6  1  0  0  0  0
  5 10  1  0  0  0  0
  5  4  1  0  0  0  0
  5  9  1  0  0  0  0
  6 14  1  0  0  0  0
  7  3  2  0  0  0  0
  8  1  1  0  0  0  0
 11  5  1  0  0  0  0
 12  6  1  0  0  0  0
 13  6  1  0  0  0  0
M  END
