2,5
q = 0.0, confidence = 0.988

 18 17  0  0  0  0  0  0  0  0999 V2000
   -1.5739    1.5335   -0.2480 N   0  0  0  0  0  0  0  0  0  0  0  0
   -1.7739    0.1708   -0.1455 N   0  0  0  0  0  2  0  0  0  0  0  0
    0.2117    2.8894   -0.2483 O   0  0  0  0  0  0  0  0  0  0  0  0
    1.6286    3.1607   -0.1502 C   0  0  0  0  0  0  0  0  0  0  0  0
   -0.2203    1.6612   -0.1512 C   0  0  0  0  0  2  0  0  0  0  0  0
   -2.6173    2.5384   -0.3464 C   0  0  0  0  0  0  0  0  0  0  0  0
   -2.9526   -0.3621   -0.1582 C   0  0  0  0  0  3  0  0  0  0  0  0
   -3.1651   -1.8250   -0.0503 C   0  0  0  0  0  0  0  0  0  0  0  0
    1.7822    4.1449   -0.6253 H   0  0  0  0  0  0  0  0  0  0  0  0
    2.2040    2.3770   -0.6774 H   0  0  0  0  0  0  0  0  0  0  0  0
    1.9212    3.2005    0.9157 H   0  0  0  0  0  0  0  0  0  0  0  0
   -3.2790    2.5125    0.5441 H   0  0  0  0  0  0  0  0  0  0  0  0
   -3.2198    2.3974   -1.2670 H   0  0  0  0  0  0  0  0  0  0  0  0
   -2.1156    3.5211   -0.3930 H   0  0  0  0  0  0  0  0  0  0  0  0
   -3.8354    0.2993   -0.2483 H   0  0  0  0  0  0  0  0  0  0  0  0
   -2.2095   -2.3800   -0.0527 H   0  0  0  0  0  0  0  0  0  0  0  0
   -3.8090   -2.1790   -0.8824 H   0  0  0  0  0  0  0  0  0  0  0  0
   -3.7161   -2.0582    0.8864 H   0  0  0  0  0  0  0  0  0  0  0  0
  1  5  1  0  0  0  0
  1  2  1  0  0  0  0
  3  5  1  0  0  0  0
  3  4  1  0  0  0  0
  4 11  1  0  0  0  0
  6  1  1  0  0  0  0
  6 12  1  0  0  0  0
  7  2  1  0  0  0  0
  7  8  1  0  0  0  0
  8 18  1  0  0  0  0
  9  4  1  0  0  0  0
 10  4  1  0  0  0  0
 13  6  1  0  0  0  0
 14  6  1  0  0  0  0
 15  7  1  0  0  0  0
 16  8  1  0  0  0  0
 17  8  1  0  0  0  0
M  END
