1,2
q = -1.0

 36 38  0  0  0  0  0  0  0  0999 V2000
    1.2867   -1.0868   -0.8774 N   0  0  0  0  0  2  0  0  0  0  0  0
    2.6459    1.1243   -0.3919 C   0  0  0  0  0  2  0  0  0  0  0  0
    3.3268    2.3490   -0.2570 C   0  0  0  0  0  0  0  0  0  0  0  0
    2.7425    3.2506   -0.0112 H   0  0  0  0  0  0  0  0  0  0  0  0
    4.7253    2.4464   -0.3945 C   0  0  0  0  0  0  0  0  0  0  0  0
    5.4717    1.2703   -0.6525 C   0  0  0  0  0  0  0  0  0  0  0  0
    6.5676    1.3313   -0.7474 H   0  0  0  0  0  0  0  0  0  0  0  0
    4.8321    0.0377   -0.7876 C   0  0  0  0  0  0  0  0  0  0  0  0
    5.4331   -0.8628   -0.9918 H   0  0  0  0  0  0  0  0  0  0  0  0
    3.4252   -0.0415   -0.6739 C   0  0  0  0  0  0  0  0  0  0  0  0
    2.6582   -1.2635   -0.8883 C   0  0  0  0  0  0  0  0  0  0  0  0
    3.1978   -2.5450   -1.1162 C   0  0  0  0  0  0  0  0  0  0  0  0
    4.2866   -2.6804   -1.0718 H   0  0  0  0  0  0  0  0  0  0  0  0
    2.3519   -3.6211   -1.3890 C   0  0  0  0  0  0  0  0  0  0  0  0
    2.7629   -4.6293   -1.5464 H   0  0  0  0  0  0  0  0  0  0  0  0
    0.9767   -3.3856   -1.5233 C   0  0  0  0  0  0  0  0  0  0  0  0
    0.2912   -4.1779   -1.8524 H   0  0  0  0  0  0  0  0  0  0  0  0
    0.4672   -2.0942   -1.3019 C   0  0  0  0  0  0  0  0  0  0  0  0
   -0.9419   -1.7815   -1.6391 C   0  0  0  0  0  0  0  0  0  0  0  0
   -1.9974   -2.6492   -1.2988 C   0  0  0  0  0  0  0  0  0  0  0  0
   -1.7849   -3.5566   -0.7145 H   0  0  0  0  0  0  0  0  0  0  0  0
   -3.3187   -2.3412   -1.6552 C   0  0  0  0  0  0  0  0  0  0  0  0
   -4.1326   -3.0193   -1.3525 H   0  0  0  0  0  0  0  0  0  0  0  0
   -3.6233   -1.1792   -2.3904 C   0  0  0  0  0  0  0  0  0  0  0  0
   -2.5540   -0.3351   -2.7649 C   0  0  0  0  0  0  0  0  0  0  0  0
   -2.7613    0.5731   -3.3527 H   0  0  0  0  0  0  0  0  0  0  0  0
   -1.2396   -0.6204   -2.3906 C   0  0  0  0  0  0  0  0  0  0  0  0
   -0.4231    0.0630   -2.6667 H   0  0  0  0  0  0  0  0  0  0  0  0
    5.4238    3.7782   -0.2834 C   0  0  0  0  0  0  0  0  0  0  0  0
    6.3480    3.7055    0.3261 H   0  0  0  0  0  0  0  0  0  0  0  0
    4.7660    4.5443    0.1707 H   0  0  0  0  0  0  0  0  0  0  0  0
    5.7299    4.1526   -1.2845 H   0  0  0  0  0  0  0  0  0  0  0  0
   -5.0395   -0.8452   -2.7868 C   0  0  0  0  0  0  0  0  0  0  0  0
   -5.1774   -0.9174   -3.8865 H   0  0  0  0  0  0  0  0  0  0  0  0
   -5.3061    0.1956   -2.5061 H   0  0  0  0  0  0  0  0  0  0  0  0
   -5.7718   -1.5292   -2.3147 H   0  0  0  0  0  0  0  0  0  0  0  0
  2  3  1  0  0  0  0
  3  4  1  0  0  0  0
  5 29  1  0  0  0  0
  5  3  2  0  0  0  0
  6  5  1  0  0  0  0
  7  6  1  0  0  0  0
  8 10  1  0  0  0  0
  8  6  2  0  0  0  0
  9  8  1  0  0  0  0
 10  2  1  0  0  0  0
 11  1  1  0  0  0  0
 11 10  2  0  0  0  0
 12 13  1  0  0  0  0
 12 11  1  0  0  0  0
 14 12  2  0  0  0  0
 15 14  1  0  0  0  0
 16 14  1  0  0  0  0
 16 18  2  0  0  0  0
 17 16  1  0  0  0  0
 18  1  1  0  0  0  0
 19 18  1  0  0  0  0
 19 20  1  0  0  0  0
 20 21  1  0  0  0  0
 22 23  1  0  0  0  0
 22 20  2  0  0  0  0
 24 22  1  0  0  0  0
 25 27  1  0  0  0  0
 25 24  2  0  0  0  0
 26 25  1  0  0  0  0
 27 19  2  0  0  0  0
 28 27  1  0  0  0  0
 29 31  1  0  0  0  0
 29 30  1  0  0  0  0
 32 29  1  0  0  0  0
 33 35  1  0  0  0  0
 33 24  1  0  0  0  0
 33 36  1  0  0  0  0
 34 33  1  0  0  0  0
M  END
