1,11
q = -2.0, confidence = 0.856

 34 34  0  0  1  0  0  0  0  0999 V2000
    0.8731   -1.1478   -0.2298 N   0  0  0  0  0  2  0  0  0  0  0  0
   -1.8673   -1.5683   -0.0713 N   0  0  0  0  0  0  0  0  0  0  0  0
    2.5658   -0.6293   -0.0938 Si  0  0  0  0  0  0  0  0  0  0  0  0
    2.0366    1.1774   -0.0591 C   0  0  2  0  0  3  0  0  0  0  0  0
    1.4770    1.8210    1.0953 C   0  0  0  0  0  0  0  0  0  0  0  0
    1.7078    1.5769    2.1363 H   0  0  0  0  0  0  0  0  0  0  0  0
    0.4944    2.7605    0.6753 C   0  0  0  0  0  0  0  0  0  0  0  0
   -0.1450    3.3614    1.3315 H   0  0  0  0  0  0  0  0  0  0  0  0
    0.4349    2.7240   -0.7463 C   0  0  0  0  0  3  0  0  0  0  0  0
   -0.2566    3.2917   -1.3791 H   0  0  0  0  0  0  0  0  0  0  0  0
    1.3864    1.7628   -1.1966 C   0  0  0  0  0  3  0  0  0  0  0  0
    1.5337    1.4657   -2.2402 H   0  0  0  0  0  0  0  0  0  0  0  0
    0.4021   -2.5157   -0.1816 C   0  0  0  0  0  0  0  0  0  0  0  0
    1.0587   -3.1958   -0.7715 H   0  0  0  0  0  0  0  0  0  0  0  0
    0.4263   -2.8909    0.8709 H   0  0  0  0  0  0  0  0  0  0  0  0
   -1.0089   -2.5696   -0.7482 C   0  0  0  0  0  0  0  0  0  0  0  0
   -1.4519   -3.5884   -0.6557 H   0  0  0  0  0  0  0  0  0  0  0  0
   -0.9724   -2.2959   -1.8201 H   0  0  0  0  0  0  0  0  0  0  0  0
   -2.2793   -2.0563    1.2631 C   0  0  0  0  0  0  0  0  0  0  0  0
   -1.4047   -2.3206    1.8784 H   0  0  0  0  0  0  0  0  0  0  0  0
   -2.9392   -2.9452    1.1425 H   0  0  0  0  0  0  0  0  0  0  0  0
   -2.8288   -1.2537    1.7864 H   0  0  0  0  0  0  0  0  0  0  0  0
    3.3275   -1.2045    1.5228 C   0  0  0  0  0  0  0  0  0  0  0  0
    3.5188   -2.2969    1.5031 H   0  0  0  0  0  0  0  0  0  0  0  0
    2.6237   -0.9919    2.3528 H   0  0  0  0  0  0  0  0  0  0  0  0
    4.2911   -0.6931    1.7230 H   0  0  0  0  0  0  0  0  0  0  0  0
    3.5766   -1.0981   -1.6064 C   0  0  0  0  0  0  0  0  0  0  0  0
    3.0828   -0.7471   -2.5344 H   0  0  0  0  0  0  0  0  0  0  0  0
    3.6942   -2.1989   -1.6768 H   0  0  0  0  0  0  0  0  0  0  0  0
    4.5912   -0.6521   -1.5560 H   0  0  0  0  0  0  0  0  0  0  0  0
   -3.1107   -1.3651   -0.8497 C   0  0  0  0  0  0  0  0  0  0  0  0
   -3.7296   -0.6056   -0.3397 H   0  0  0  0  0  0  0  0  0  0  0  0
   -3.6713   -2.3245   -0.9139 H   0  0  0  0  0  0  0  0  0  0  0  0
   -2.8662   -0.9988   -1.8602 H   0  0  0  0  0  0  0  0  0  0  0  0
  1 13  1  0  0  0  0
  1  3  1  0  0  0  0
  2 19  1  0  0  0  0
  3 23  1  0  0  0  0
  4  3  1  1  0  0  0
  4  5  1  0  0  0  0
  5  6  1  0  0  0  0
  7  5  2  0  0  0  0
  7  8  1  0  0  0  0
  9  7  1  0  0  0  0
 10  9  1  0  0  0  0
 11  9  1  0  0  0  0
 11  4  1  0  0  0  0
 12 11  1  0  0  0  0
 13 15  1  0  0  0  0
 14 13  1  0  0  0  0
 16 17  1  0  0  0  0
 16 13  1  0  0  0  0
 16  2  1  0  0  0  0
 18 16  1  0  0  0  0
 19 22  1  0  0  0  0
 19 20  1  0  0  0  0
 21 19  1  0  0  0  0
 23 26  1  0  0  0  0
 23 25  1  0  0  0  0
 24 23  1  0  0  0  0
 27 30  1  0  0  0  0
 27  3  1  0  0  0  0
 28 27  1  0  0  0  0
 29 27  1  0  0  0  0
 31 32  1  0  0  0  0
 31  2  1  0  0  0  0
 33 31  1  0  0  0  0
 34 31  1  0  0  0  0
M  END
