2,3
q = -1.0

 27 26  0  0  1  0  0  0  0  0999 V2000
    2.0527    1.1481    0.7147 N   0  0  0  0  0  2  0  0  0  0  0  0
    0.7542    1.6351    0.3036 N   0  0  0  0  0  0  0  0  0  0  0  0
    1.9855   -0.0391   -1.4440 C   0  0  0  0  0  3  0  0  0  0  0  0
    2.4544   -0.9289   -1.9019 H   0  0  0  0  0  0  0  0  0  0  0  0
    2.0826    0.7879   -2.1820 H   0  0  0  0  0  0  0  0  0  0  0  0
    2.6016    0.3323   -0.1448 C   0  0  2  0  0  3  0  0  0  0  0  0
    3.9624   -0.2531    0.2761 C   0  0  0  0  0  0  0  0  0  0  0  0
    5.0155    0.1854   -0.7654 C   0  0  0  0  0  0  0  0  0  0  0  0
    5.0960    1.2910   -0.8021 H   0  0  0  0  0  0  0  0  0  0  0  0
    4.7574   -0.1728   -1.7815 H   0  0  0  0  0  0  0  0  0  0  0  0
    6.0128   -0.2214   -0.4983 H   0  0  0  0  0  0  0  0  0  0  0  0
    4.3846    0.2439    1.6679 C   0  0  0  0  0  0  0  0  0  0  0  0
    4.4693    1.3467    1.6905 H   0  0  0  0  0  0  0  0  0  0  0  0
    5.3649   -0.1963    1.9446 H   0  0  0  0  0  0  0  0  0  0  0  0
    3.6393   -0.0374    2.4364 H   0  0  0  0  0  0  0  0  0  0  0  0
    3.8775   -1.7949    0.3011 C   0  0  0  0  0  0  0  0  0  0  0  0
    4.8693   -2.2247    0.5502 H   0  0  0  0  0  0  0  0  0  0  0  0
    3.5664   -2.2143   -0.6761 H   0  0  0  0  0  0  0  0  0  0  0  0
    3.1595   -2.1403    1.0723 H   0  0  0  0  0  0  0  0  0  0  0  0
   -0.0136    1.9385    1.5165 C   0  0  0  0  0  0  0  0  0  0  0  0
    0.5013    2.7025    2.1416 H   0  0  0  0  0  0  0  0  0  0  0  0
   -0.1461    1.0190    2.1137 H   0  0  0  0  0  0  0  0  0  0  0  0
   -1.0150    2.3067    1.2228 H   0  0  0  0  0  0  0  0  0  0  0  0
    0.8978    2.8510   -0.5129 C   0  0  0  0  0  0  0  0  0  0  0  0
    1.4343    3.6484    0.0508 H   0  0  0  0  0  0  0  0  0  0  0  0
   -0.1082    3.2175   -0.7978 H   0  0  0  0  0  0  0  0  0  0  0  0
    1.4650    2.6283   -1.4353 H   0  0  0  0  0  0  0  0  0  0  0  0
  2  1  1  0  0  0  0
  2 20  1  0  0  0  0
  4  3  1  0  0  0  0
  5  3  1  0  0  0  0
  6  3  1  1  0  0  0
  6  7  1  0  0  0  0
  6  1  1  0  0  0  0
  7 16  1  0  0  0  0
  7 12  1  0  0  0  0
  8 11  1  0  0  0  0
  8  7  1  0  0  0  0
  9  8  1  0  0  0  0
 10  8  1  0  0  0  0
 12 13  1  0  0  0  0
 12 14  1  0  0  0  0
 12 15  1  0  0  0  0
 16 17  1  0  0  0  0
 16 19  1  0  0  0  0
 18 16  1  0  0  0  0
 20 22  1  0  0  0  0
 20 21  1  0  0  0  0
 23 20  1  0  0  0  0
 24 25  1  0  0  0  0
 24  2  1  0  0  0  0
 26 24  1  0  0  0  0
 27 24  1  0  0  0  0
M  END
