3,17
q = -1.0

 27 29  0  0  0  0  0  0  0  0999 V2000
    3.1388   -0.4036   -3.1456 S   0  0  0  0  0  0  0  0  0  0  0  0
   -5.5782   -3.3704   -1.6187 F   0  0  0  0  0  0  0  0  0  0  0  0
    1.7727    0.2610   -1.0343 N   0  0  0  0  0  2  0  0  0  0  0  0
    3.9699    0.4243   -1.8322 C   0  0  0  0  0  0  0  0  0  0  0  0
    5.3223    0.7825   -1.7455 C   0  0  0  0  0  0  0  0  0  0  0  0
    6.0162    0.5742   -2.5727 H   0  0  0  0  0  0  0  0  0  0  0  0
    5.7680    1.3986   -0.5673 C   0  0  0  0  0  0  0  0  0  0  0  0
    6.8272    1.6804   -0.4736 H   0  0  0  0  0  0  0  0  0  0  0  0
    4.8777    1.6480    0.4992 C   0  0  0  0  0  0  0  0  0  0  0  0
    5.2551    2.1182    1.4196 H   0  0  0  0  0  0  0  0  0  0  0  0
    3.5246    1.3040    0.4129 C   0  0  0  0  0  0  0  0  0  0  0  0
    2.8176    1.4823    1.2342 H   0  0  0  0  0  0  0  0  0  0  0  0
    3.0605    0.6925   -0.7685 C   0  0  0  0  0  0  0  0  0  0  0  0
    1.6496   -0.3656   -2.2219 C   0  0  0  0  0  0  0  0  0  0  0  0
    0.4158   -1.0205   -2.4985 C   0  0  0  0  0  0  0  0  0  0  0  0
    0.2648   -1.6009   -3.4209 H   0  0  0  0  0  0  0  0  0  0  0  0
   -0.4972   -0.9610   -1.4479 C   0  0  0  0  0  2  0  0  0  0  0  0
   -1.8004   -1.6406   -1.5143 C   0  0  0  0  0  0  0  0  0  0  0  0
   -2.6093   -1.5480   -2.6723 C   0  0  0  0  0  0  0  0  0  0  0  0
   -2.2417   -0.9769   -3.5380 H   0  0  0  0  0  0  0  0  0  0  0  0
   -3.8842   -2.1263   -2.7134 C   0  0  0  0  0  0  0  0  0  0  0  0
   -4.5306   -2.0396   -3.5985 H   0  0  0  0  0  0  0  0  0  0  0  0
   -4.3496   -2.8196   -1.5895 C   0  0  0  0  0  0  0  0  0  0  0  0
   -3.5676   -2.9512   -0.4339 C   0  0  0  0  0  0  0  0  0  0  0  0
   -3.9647   -3.5085    0.4265 H   0  0  0  0  0  0  0  0  0  0  0  0
   -2.3033   -2.3555   -0.4004 C   0  0  0  0  0  0  0  0  0  0  0  0
   -1.6763   -2.4462    0.4981 H   0  0  0  0  0  0  0  0  0  0  0  0
  1 14  1  0  0  0  0
  1  4  1  0  0  0  0
  2 23  1  0  0  0  0
  3 13  1  0  0  0  0
  4  5  2  0  0  0  0
  4 13  1  0  0  0  0
  5  7  1  0  0  0  0
  6  5  1  0  0  0  0
  7  8  1  0  0  0  0
  7  9  2  0  0  0  0
  9 10  1  0  0  0  0
 11  9  1  0  0  0  0
 11 12  1  0  0  0  0
 13 11  2  0  0  0  0
 14  3  1  0  0  0  0
 15 14  2  0  0  0  0
 15 17  1  0  0  0  0
 16 15  1  0  0  0  0
 18 17  1  0  0  0  0
 18 26  1  0  0  0  0
 19 18  2  0  0  0  0
 20 19  1  0  0  0  0
 21 19  1  0  0  0  0
 21 23  2  0  0  0  0
 22 21  1  0  0  0  0
 23 24  1  0  0  0  0
 24 26  2  0  0  0  0
 24 25  1  0  0  0  0
 26 27  1  0  0  0  0
M  END
