2,3
q = -1.0

 16 16  0  0  1  0  0  0  0  0999 V2000
    2.6616    2.3312    1.1689 Cl  0  0  0  0  0  0  0  0  0  0  0  0
    3.0034   -0.6439   -0.3256 N   0  0  0  0  0  2  0  0  0  0  0  0
    1.4100    1.4114   -1.0978 C   0  0  0  0  0  3  0  0  0  0  0  0
    2.7951    1.7395   -0.5625 C   0  0  2  0  0  0  0  0  0  0  0  0
    3.6733    0.5190   -0.5439 C   0  0  1  0  0  3  0  0  0  0  0  0
    5.0664    0.5194   -0.6791 C   0  0  0  0  0  0  0  0  0  0  0  0
    5.7574   -0.6978   -0.5810 C   0  0  0  0  0  0  0  0  0  0  0  0
    5.0431   -1.8807   -0.3391 C   0  0  0  0  0  0  0  0  0  0  0  0
    3.6506   -1.8193   -0.2135 C   0  0  0  0  0  0  0  0  0  0  0  0
    0.6886    2.2189   -0.8874 H   0  0  0  0  0  0  0  0  0  0  0  0
    1.4461    1.2165   -2.1910 H   0  0  0  0  0  0  0  0  0  0  0  0
    3.2702    2.5756   -1.1136 H   0  0  0  0  0  0  0  0  0  0  0  0
    5.5976    1.4665   -0.8492 H   0  0  0  0  0  0  0  0  0  0  0  0
    6.8522   -0.7211   -0.6872 H   0  0  0  0  0  0  0  0  0  0  0  0
    5.5532   -2.8495   -0.2454 H   0  0  0  0  0  0  0  0  0  0  0  0
    3.0155   -2.6960   -0.0035 H   0  0  0  0  0  0  0  0  0  0  0  0
  2  9  1  0  0  0  0
  3 10  1  0  0  0  0
  3  4  1  0  0  0  0
  4 12  1  6  0  0  0
  4  1  1  0  0  0  0
  5  4  1  1  0  0  0
  5  2  1  0  0  0  0
  6  7  2  0  0  0  0
  6  5  1  0  0  0  0
  7  8  1  0  0  0  0
  8 15  1  0  0  0  0
  8  9  2  0  0  0  0
  9 16  1  0  0  0  0
 11  3  1  0  0  0  0
 13  6  1  0  0  0  0
 14  7  1  0  0  0  0
M  END
