1,4
q = -1.0

 28 30  0  0  0  0  0  0  0  0999 V2000
    2.1148    0.1386    0.1892 N   0  0  0  0  0  2  0  0  0  0  0  0
    1.8851   -1.7366    1.6229 C   0  0  0  0  0  0  0  0  0  0  0  0
    4.8207   -0.3757   -0.3541 N   0  0  0  0  0  0  0  0  0  0  0  0
    0.5134   -1.3259    1.6235 C   0  0  0  0  0  3  0  0  0  0  0  0
    2.7265   -0.9633    0.7122 C   0  0  0  0  0  0  0  0  0  0  0  0
    1.4349   -3.3167    3.4274 C   0  0  0  0  0  0  0  0  0  0  0  0
    1.7913   -4.0851    4.1305 H   0  0  0  0  0  0  0  0  0  0  0  0
    2.3297   -2.7326    2.5251 C   0  0  0  0  0  0  0  0  0  0  0  0
    3.3799   -3.0451    2.5481 H   0  0  0  0  0  0  0  0  0  0  0  0
    2.8788    1.1038   -0.4326 C   0  0  0  0  0  0  0  0  0  0  0  0
    4.0907   -1.2507    0.3167 C   0  0  0  0  0  0  0  0  0  0  0  0
    0.0864   -2.9118    3.4402 C   0  0  0  0  0  0  0  0  0  0  0  0
   -0.6164   -3.3668    4.1573 H   0  0  0  0  0  0  0  0  0  0  0  0
   -0.3643   -1.9265    2.5519 C   0  0  0  0  0  0  0  0  0  0  0  0
   -1.4197   -1.6136    2.5771 H   0  0  0  0  0  0  0  0  0  0  0  0
    4.2705    0.8315   -0.6683 C   0  0  0  0  0  0  0  0  0  0  0  0
    5.0814    1.8259   -1.2813 C   0  0  0  0  0  3  0  0  0  0  0  0
    6.1368    1.5716   -1.4568 H   0  0  0  0  0  0  0  0  0  0  0  0
    2.3432    2.3666   -0.7990 C   0  0  0  0  0  0  0  0  0  0  0  0
    1.2855    2.5994   -0.6110 H   0  0  0  0  0  0  0  0  0  0  0  0
    3.1686    3.3199   -1.3832 C   0  0  0  0  0  0  0  0  0  0  0  0
    2.7368    4.2953   -1.6542 H   0  0  0  0  0  0  0  0  0  0  0  0
    4.5395    3.0541   -1.6340 C   0  0  0  0  0  0  0  0  0  0  0  0
    5.1705    3.8219   -2.1081 H   0  0  0  0  0  0  0  0  0  0  0  0
    4.7139   -2.6044    0.5308 C   0  0  0  0  0  0  0  0  0  0  0  0
    3.9833   -3.4089    0.3166 H   0  0  0  0  0  0  0  0  0  0  0  0
    5.0886   -2.7389    1.5669 H   0  0  0  0  0  0  0  0  0  0  0  0
    5.5774   -2.6864   -0.1544 H   0  0  0  0  0  0  0  0  0  0  0  0
  1  5  1  0  0  0  0
  2  4  2  0  0  0  0
  2  8  1  0  0  0  0
  3 11  1  0  0  0  0
  4 14  1  0  0  0  0
  5  2  1  0  0  0  0
  6 12  1  0  0  0  0
  6  7  1  0  0  0  0
  8  9  1  0  0  0  0
  8  6  2  0  0  0  0
 10  1  1  0  0  0  0
 11 25  1  0  0  0  0
 11  5  2  0  0  0  0
 12 13  1  0  0  0  0
 14 15  1  0  0  0  0
 14 12  2  0  0  0  0
 16 10  1  0  0  0  0
 16  3  2  0  0  0  0
 17 16  1  0  0  0  0
 18 17  1  0  0  0  0
 19 20  1  0  0  0  0
 19 10  2  0  0  0  0
 21 19  1  0  0  0  0
 22 21  1  0  0  0  0
 23 21  2  0  0  0  0
 23 17  1  0  0  0  0
 24 23  1  0  0  0  0
 25 27  1  0  0  0  0
 26 25  1  0  0  0  0
 28 25  1  0  0  0  0
M  END
