1,16
q = -1.0, confidence = 0.006

 45 48  0  0  0  0  0  0  0  0999 V2000
   -0.2646    1.0100   -0.2599 N   0  0  0  0  0  2  0  0  0  0  0  0
   -4.1595   -0.9128    0.2175 N   0  0  0  0  0  0  0  0  0  0  0  0
    0.6656    4.9301   -1.0477 F   0  0  0  0  0  0  0  0  0  0  0  0
   -1.4071    5.3801   -1.5879 F   0  0  0  0  0  0  0  0  0  0  0  0
   -0.8105    5.3340    0.5075 F   0  0  0  0  0  0  0  0  0  0  0  0
   -0.6258    4.7335   -0.6915 C   0  0  0  0  0  0  0  0  0  0  0  0
    0.0255    2.3166   -0.3835 C   0  0  0  0  0  0  0  0  0  0  0  0
    1.0936    2.5751   -0.2971 H   0  0  0  0  0  0  0  0  0  0  0  0
   -0.9701    3.2653   -0.6287 C   0  0  0  0  0  0  0  0  0  0  0  0
   -2.2915    2.8144   -0.7987 C   0  0  0  0  0  0  0  0  0  0  0  0
   -3.0908    3.5265   -1.0494 H   0  0  0  0  0  0  0  0  0  0  0  0
   -2.5794    1.4583   -0.6582 C   0  0  0  0  0  0  0  0  0  0  0  0
   -3.5976    1.0900   -0.8121 H   0  0  0  0  0  0  0  0  0  0  0  0
   -1.5532    0.5375   -0.3434 C   0  0  0  0  0  0  0  0  0  0  0  0
   -1.6933   -0.9118   -0.1712 C   0  0  0  0  0  0  0  0  0  0  0  0
   -0.4754   -1.6637   -0.1723 C   0  0  0  0  0  2  0  0  0  0  0  0
   -0.5189   -3.0625   -0.1788 C   0  0  0  0  0  0  0  0  0  0  0  0
    0.4224   -3.6309   -0.1932 H   0  0  0  0  0  0  0  0  0  0  0  0
   -1.7568   -3.7302   -0.1596 C   0  0  0  0  0  0  0  0  0  0  0  0
   -1.7880   -4.8308   -0.1714 H   0  0  0  0  0  0  0  0  0  0  0  0
   -2.9511   -3.0086   -0.0605 C   0  0  0  0  0  0  0  0  0  0  0  0
   -3.9163   -3.5263    0.0346 H   0  0  0  0  0  0  0  0  0  0  0  0
   -2.9375   -1.6007   -0.0304 C   0  0  0  0  0  0  0  0  0  0  0  0
   -5.3045   -1.2710   -0.5429 C   0  0  0  0  0  0  0  0  0  0  0  0
   -5.1752   -1.4688   -1.9359 C   0  0  0  0  0  0  0  0  0  0  0  0
   -4.1914   -1.3337   -2.4093 H   0  0  0  0  0  0  0  0  0  0  0  0
   -6.2872   -1.8392   -2.7022 C   0  0  0  0  0  0  0  0  0  0  0  0
   -6.1698   -1.9894   -3.7861 H   0  0  0  0  0  0  0  0  0  0  0  0
   -7.5451   -2.0049   -2.0996 C   0  0  0  0  0  0  0  0  0  0  0  0
   -8.4183   -2.2889   -2.7049 H   0  0  0  0  0  0  0  0  0  0  0  0
   -7.6752   -1.8075   -0.7150 C   0  0  0  0  0  0  0  0  0  0  0  0
   -8.6523   -1.9474   -0.2279 H   0  0  0  0  0  0  0  0  0  0  0  0
   -6.5666   -1.4520    0.0643 C   0  0  0  0  0  0  0  0  0  0  0  0
   -6.6704   -1.3167    1.1502 H   0  0  0  0  0  0  0  0  0  0  0  0
   -4.2604   -0.0805    1.3627 C   0  0  0  0  0  0  0  0  0  0  0  0
   -5.1590    1.0117    1.3807 C   0  0  0  0  0  0  0  0  0  0  0  0
   -5.8103    1.1944    0.5135 H   0  0  0  0  0  0  0  0  0  0  0  0
   -5.2219    1.8568    2.4956 C   0  0  0  0  0  0  0  0  0  0  0  0
   -5.9279    2.7013    2.4908 H   0  0  0  0  0  0  0  0  0  0  0  0
   -4.3842    1.6452    3.6026 C   0  0  0  0  0  0  0  0  0  0  0  0
   -4.4299    2.3168    4.4722 H   0  0  0  0  0  0  0  0  0  0  0  0
   -3.4885    0.5641    3.5851 C   0  0  0  0  0  0  0  0  0  0  0  0
   -2.8308    0.3783    4.4477 H   0  0  0  0  0  0  0  0  0  0  0  0
   -3.4281   -0.2985    2.4830 C   0  0  0  0  0  0  0  0  0  0  0  0
   -2.7304   -1.1476    2.4840 H   0  0  0  0  0  0  0  0  0  0  0  0
  2 35  1  0  0  0  0
  3  6  1  0  0  0  0
  4  6  1  0  0  0  0
  6  9  1  0  0  0  0
  6  5  1  0  0  0  0
  7  8  1  0  0  0  0
  7  1  1  0  0  0  0
  9  7  2  0  0  0  0
 10 12  2  0  0  0  0
 10  9  1  0  0  0  0
 11 10  1  0  0  0  0
 12 14  1  0  0  0  0
 13 12  1  0  0  0  0
 14  1  1  0  0  0  0
 14 15  2  0  0  0  0
 15 23  1  0  0  0  0
 16 15  1  0  0  0  0
 17 16  1  0  0  0  0
 17 19  2  0  0  0  0
 18 17  1  0  0  0  0
 19 21  1  0  0  0  0
 20 19  1  0  0  0  0
 21 23  2  0  0  0  0
 21 22  1  0  0  0  0
 23  2  1  0  0  0  0
 24 33  1  0  0  0  0
 24  2  1  0  0  0  0
 25 24  2  0  0  0  0
 26 25  1  0  0  0  0
 27 29  2  0  0  0  0
 27 25  1  0  0  0  0
 28 27  1  0  0  0  0
 29 31  1  0  0  0  0
 30 29  1  0  0  0  0
 31 32  1  0  0  0  0
 31 33  2  0  0  0  0
 33 34  1  0  0  0  0
 35 36  2  0  0  0  0
 35 44  1  0  0  0  0
 36 38  1  0  0  0  0
 37 36  1  0  0  0  0
 38 40  2  0  0  0  0
 39 38  1  0  0  0  0
 40 41  1  0  0  0  0
 42 40  1  0  0  0  0
 42 43  1  0  0  0  0
 44 45  1  0  0  0  0
 44 42  2  0  0  0  0
M  END
