3,21
q = -1.0, confidence = 0.002

 32 34  0  0  1  0  0  0  0  0999 V2000
    3.7325   -1.1559   -1.3288 O   0  0  0  0  0  0  0  0  0  0  0  0
    3.1083    0.2749    0.2762 N   0  0  0  0  0  0  0  0  0  0  0  0
    2.0038   -0.3044   -0.2753 N   0  0  0  0  0  2  0  0  0  0  0  0
    9.7585    0.8915    0.4640 C   0  0  0  0  0  0  0  0  0  0  0  0
    9.9748    1.9666    0.2908 H   0  0  0  0  0  0  0  0  0  0  0  0
   10.4108    0.3013   -0.2078 H   0  0  0  0  0  0  0  0  0  0  0  0
   10.0576    0.6714    1.5102 H   0  0  0  0  0  0  0  0  0  0  0  0
    8.3007    0.5857    0.2376 C   0  0  0  0  0  0  0  0  0  0  0  0
    7.3033    1.2278    1.0072 C   0  0  0  0  0  0  0  0  0  0  0  0
    7.6023    1.9560    1.7778 H   0  0  0  0  0  0  0  0  0  0  0  0
    7.8862   -0.3408   -0.7400 C   0  0  0  0  0  0  0  0  0  0  0  0
    8.6447   -0.8535   -1.3519 H   0  0  0  0  0  0  0  0  0  0  0  0
    5.9484    0.9589    0.8115 C   0  0  0  0  0  0  0  0  0  0  0  0
    5.1762    1.4610    1.4121 H   0  0  0  0  0  0  0  0  0  0  0  0
    6.5311   -0.6228   -0.9494 C   0  0  0  0  0  0  0  0  0  0  0  0
    6.2275   -1.3488   -1.7170 H   0  0  0  0  0  0  0  0  0  0  0  0
    5.5466    0.0258   -0.1738 C   0  0  0  0  0  0  0  0  0  0  0  0
    4.1329   -0.2435   -0.3642 C   0  0  0  0  0  0  0  0  0  0  0  0
    2.3844   -1.1595   -1.2305 C   0  0  2  0  0  3  0  0  0  0  0  0
    1.3911   -1.8969   -1.9462 C   0  0  0  0  0  0  0  0  0  0  0  0
    0.0727   -1.5633   -1.4794 C   0  0  0  0  0  3  0  0  0  0  0  0
    1.6151   -2.8320   -2.9794 C   0  0  0  0  0  0  0  0  0  0  0  0
    2.6411   -3.0568   -3.3097 H   0  0  0  0  0  0  0  0  0  0  0  0
   -0.9986   -2.2243   -2.1134 C   0  0  0  0  0  0  0  0  0  0  0  0
   -2.0320   -1.9985   -1.8052 H   0  0  0  0  0  0  0  0  0  0  0  0
    0.5204   -3.4604   -3.5707 C   0  0  0  0  0  0  0  0  0  0  0  0
    0.6777   -4.1930   -4.3776 H   0  0  0  0  0  0  0  0  0  0  0  0
   -0.7999   -3.1628   -3.1448 C   0  0  0  0  0  0  0  0  0  0  0  0
   -1.9707   -3.8530   -3.7975 C   0  0  0  0  0  0  0  0  0  0  0  0
   -1.9779   -3.6826   -4.8947 H   0  0  0  0  0  0  0  0  0  0  0  0
   -2.9355   -3.4948   -3.3896 H   0  0  0  0  0  0  0  0  0  0  0  0
   -1.9233   -4.9525   -3.6471 H   0  0  0  0  0  0  0  0  0  0  0  0
  1 19  1  0  0  0  0
  1 18  1  0  0  0  0
  3  2  1  0  0  0  0
  4  7  1  0  0  0  0
  5  4  1  0  0  0  0
  6  4  1  0  0  0  0
  8  4  1  0  0  0  0
  8  9  1  0  0  0  0
  9 10  1  0  0  0  0
 11  8  2  0  0  0  0
 12 11  1  0  0  0  0
 13  9  2  0  0  0  0
 13 14  1  0  0  0  0
 15 11  1  0  0  0  0
 15 17  2  0  0  0  0
 16 15  1  0  0  0  0
 17 13  1  0  0  0  0
 18 17  1  0  0  0  0
 18  2  2  0  0  0  0
 19 20  1  1  0  0  0
 19  3  1  0  0  0  0
 20 21  1  0  0  0  0
 22 20  2  0  0  0  0
 23 22  1  0  0  0  0
 24 25  1  0  0  0  0
 24 21  2  0  0  0  0
 26 28  2  0  0  0  0
 26 22  1  0  0  0  0
 27 26  1  0  0  0  0
 28 24  1  0  0  0  0
 29 32  1  0  0  0  0
 29 31  1  0  0  0  0
 29 28  1  0  0  0  0
 30 29  1  0  0  0  0
M  END
