1,3
q = -1.0, confidence = 0.006

 25 25  0  0  0  0  0  0  0  0999 V2000
    1.8697   -2.5486    0.0575 N   0  0  0  0  0  0  0  0  0  0  0  0
    3.1482   -1.8494    0.0547 N   0  0  0  0  0  0  0  0  0  0  0  0
    1.6859    0.1387    0.0711 C   0  0  0  0  0  3  0  0  0  0  0  0
    3.0204   -0.5621    0.0498 C   0  0  0  0  0  0  0  0  0  0  0  0
    1.8272   -3.3877    1.2776 C   0  0  0  0  0  0  0  0  0  0  0  0
    1.8391   -3.4053   -1.1505 C   0  0  0  0  0  0  0  0  0  0  0  0
    4.2775    0.2424    0.0369 C   0  0  0  0  0  0  0  0  0  0  0  0
    4.2336    1.6542    0.0522 C   0  0  0  0  0  0  0  0  0  0  0  0
    5.4184    2.4047    0.0409 C   0  0  0  0  0  0  0  0  0  0  0  0
    6.6635    1.7591    0.0141 C   0  0  0  0  0  0  0  0  0  0  0  0
    6.7184    0.3539   -0.0012 C   0  0  0  0  0  0  0  0  0  0  0  0
    5.5389   -0.3973    0.0100 C   0  0  0  0  0  0  0  0  0  0  0  0
    1.6124    0.8451   -0.7847 H   0  0  0  0  0  0  0  0  0  0  0  0
    1.6257    0.7720    0.9839 H   0  0  0  0  0  0  0  0  0  0  0  0
    2.6818   -4.0987    1.2790 H   0  0  0  0  0  0  0  0  0  0  0  0
    0.8575   -3.9208    1.2833 H   0  0  0  0  0  0  0  0  0  0  0  0
    1.8923   -2.7310    2.1641 H   0  0  0  0  0  0  0  0  0  0  0  0
    2.6997   -4.1088   -1.1364 H   0  0  0  0  0  0  0  0  0  0  0  0
    0.8739   -3.9464   -1.1544 H   0  0  0  0  0  0  0  0  0  0  0  0
    1.9047   -2.7617   -2.0466 H   0  0  0  0  0  0  0  0  0  0  0  0
    3.2645    2.1734    0.0730 H   0  0  0  0  0  0  0  0  0  0  0  0
    5.3663    3.5041    0.0525 H   0  0  0  0  0  0  0  0  0  0  0  0
    7.5926    2.3492    0.0048 H   0  0  0  0  0  0  0  0  0  0  0  0
    7.6924   -0.1586   -0.0223 H   0  0  0  0  0  0  0  0  0  0  0  0
    5.5628   -1.4960   -0.0017 H   0  0  0  0  0  0  0  0  0  0  0  0
  1  5  1  0  0  0  0
  2  1  1  0  0  0  0
  3 14  1  0  0  0  0
  4  2  2  0  0  0  0
  4  3  1  0  0  0  0
  5 15  1  0  0  0  0
  5 16  1  0  0  0  0
  5 17  1  0  0  0  0
  6 18  1  0  0  0  0
  6  1  1  0  0  0  0
  7  4  1  0  0  0  0
  7  8  1  0  0  0  0
  8 21  1  0  0  0  0
  9  8  2  0  0  0  0
  9 22  1  0  0  0  0
 10  9  1  0  0  0  0
 11 12  1  0  0  0  0
 11 10  2  0  0  0  0
 12  7  2  0  0  0  0
 13  3  1  0  0  0  0
 19  6  1  0  0  0  0
 20  6  1  0  0  0  0
 23 10  1  0  0  0  0
 24 11  1  0  0  0  0
 25 12  1  0  0  0  0
M  END
