4,14
q = -1.0, confidence = 0.0

 29 31  0  0  0  0  0  0  0  0999 V2000
   -6.7696    0.9020   -0.6061 F   0  0  0  0  0  0  0  0  0  0  0  0
   -6.6154    2.1242    1.1999 F   0  0  0  0  0  0  0  0  0  0  0  0
   -6.0376    2.9555   -0.7296 F   0  0  0  0  0  0  0  0  0  0  0  0
   -1.9492    0.5783    0.5590 N   0  0  0  0  0  2  0  0  0  0  0  0
   -2.4065    1.6967    1.1642 C   0  0  0  0  0  3  0  0  0  0  0  0
   -1.6530    2.2575    1.7369 H   0  0  0  0  0  0  0  0  0  0  0  0
   -3.7287    2.1166    1.0543 C   0  0  0  0  0  0  0  0  0  0  0  0
   -4.0686    3.0242    1.5701 H   0  0  0  0  0  0  0  0  0  0  0  0
   -4.5941    1.3555    0.2439 C   0  0  0  0  0  0  0  0  0  0  0  0
   -4.1228    0.2011   -0.3812 C   0  0  0  0  0  0  0  0  0  0  0  0
   -4.7883   -0.3566   -1.0465 H   0  0  0  0  0  0  0  0  0  0  0  0
   -2.7842   -0.2217   -0.2005 C   0  0  0  0  0  0  0  0  0  0  0  0
   -2.1047   -1.3435   -0.8397 C   0  0  0  0  0  0  0  0  0  0  0  0
   -0.6851   -1.2801   -0.7284 C   0  0  0  0  0  3  0  0  0  0  0  0
    0.1078   -2.1447   -1.5367 C   0  0  0  0  0  0  0  0  0  0  0  0
    1.2043   -2.0622   -1.5036 H   0  0  0  0  0  0  0  0  0  0  0  0
   -0.4813   -3.0696   -2.3789 C   0  0  0  0  0  0  0  0  0  0  0  0
    0.1412   -3.7103   -3.0242 H   0  0  0  0  0  0  0  0  0  0  0  0
   -1.8974   -3.2523   -2.4070 C   0  0  0  0  0  0  0  0  0  0  0  0
   -2.4807   -4.2813   -3.1981 C   0  0  0  0  0  0  0  0  0  0  0  0
   -1.8162   -4.8965   -3.8252 H   0  0  0  0  0  0  0  0  0  0  0  0
   -3.8462   -4.5276   -3.1672 C   0  0  0  0  0  0  0  0  0  0  0  0
   -4.2838   -5.3294   -3.7804 H   0  0  0  0  0  0  0  0  0  0  0  0
   -4.6657   -3.7605   -2.3052 C   0  0  0  0  0  0  0  0  0  0  0  0
   -5.7399   -3.9874   -2.2251 H   0  0  0  0  0  0  0  0  0  0  0  0
   -4.1264   -2.7327   -1.5379 C   0  0  0  0  0  0  0  0  0  0  0  0
   -4.7871   -2.2102   -0.8358 H   0  0  0  0  0  0  0  0  0  0  0  0
   -2.7384   -2.4068   -1.5903 C   0  0  0  0  0  0  0  0  0  0  0  0
   -6.0128    1.8287    0.0230 C   0  0  0  0  0  0  0  0  0  0  0  0
  1 29  1  0  0  0  0
  3 29  1  0  0  0  0
  4  5  1  0  0  0  0
  5  6  1  0  0  0  0
  7  5  1  0  0  0  0
  7  8  1  0  0  0  0
  9  7  2  0  0  0  0
 10 12  2  0  0  0  0
 10  9  1  0  0  0  0
 11 10  1  0  0  0  0
 12  4  1  0  0  0  0
 13 14  1  0  0  0  0
 13 12  1  0  0  0  0
 15 16  1  0  0  0  0
 15 14  2  0  0  0  0
 17 15  1  0  0  0  0
 18 17  1  0  0  0  0
 19 17  2  0  0  0  0
 19 28  1  0  0  0  0
 20 22  2  0  0  0  0
 20 19  1  0  0  0  0
 21 20  1  0  0  0  0
 22 24  1  0  0  0  0
 23 22  1  0  0  0  0
 24 25  1  0  0  0  0
 24 26  2  0  0  0  0
 26 27  1  0  0  0  0
 28 26  1  0  0  0  0
 28 13  2  0  0  0  0
 29  9  1  0  0  0  0
 29  2  1  0  0  0  0
M  END
