1,24
q = -1.0, confidence = 0.004

 24 25  0  0  0  0  0  0  0  0999 V2000
   -1.0149   -0.9444   -0.0141 N   0  0  0  0  0  2  0  0  0  0  0  0
   -1.2984   -1.9289    0.0665 H   0  0  0  0  0  0  0  0  0  0  0  0
   -1.9420   -0.0118   -0.0308 C   0  0  0  0  0  0  0  0  0  0  0  0
   -3.3759   -0.3758    0.0049 C   0  0  0  0  0  0  0  0  0  0  0  0
   -4.2685    0.2640    0.8944 C   0  0  0  0  0  0  0  0  0  0  0  0
   -3.8940    1.0484    1.5676 H   0  0  0  0  0  0  0  0  0  0  0  0
   -5.6130   -0.1277    0.9471 C   0  0  0  0  0  0  0  0  0  0  0  0
   -6.2967    0.3672    1.6531 H   0  0  0  0  0  0  0  0  0  0  0  0
   -6.0857   -1.1510    0.1098 C   0  0  0  0  0  0  0  0  0  0  0  0
   -7.1436   -1.4514    0.1497 H   0  0  0  0  0  0  0  0  0  0  0  0
   -5.2056   -1.7913   -0.7775 C   0  0  0  0  0  0  0  0  0  0  0  0
   -5.5724   -2.5896   -1.4399 H   0  0  0  0  0  0  0  0  0  0  0  0
   -3.8584   -1.4111   -0.8275 C   0  0  0  0  0  0  0  0  0  0  0  0
   -3.1719   -1.8993   -1.5362 H   0  0  0  0  0  0  0  0  0  0  0  0
   -1.4154    1.3471   -0.0901 C   0  0  0  0  0  0  0  0  0  0  0  0
   -2.2077    2.5101   -0.2180 C   0  0  0  0  0  3  0  0  0  0  0  0
   -3.3023    2.4246   -0.2890 H   0  0  0  0  0  0  0  0  0  0  0  0
   -1.5945    3.7656   -0.2756 C   0  0  0  0  0  0  0  0  0  0  0  0
   -2.2051    4.6753   -0.3752 H   0  0  0  0  0  0  0  0  0  0  0  0
   -0.1912    3.8522   -0.2148 C   0  0  0  0  0  0  0  0  0  0  0  0
    0.2946    4.8402   -0.2583 H   0  0  0  0  0  0  0  0  0  0  0  0
    0.6082    2.6995   -0.1146 C   0  0  0  0  0  0  0  0  0  0  0  0
    1.7063    2.7875   -0.0845 H   0  0  0  0  0  0  0  0  0  0  0  0
    0.0208    1.4237   -0.0601 C   0  0  0  0  0  3  0  0  0  0  0  0
  1  2  1  0  0  0  0
  3  1  1  0  0  0  0
  3  4  1  0  0  0  0
  4  5  1  0  0  0  0
  5  7  2  0  0  0  0
  5  6  1  0  0  0  0
  7  8  1  0  0  0  0
  9 10  1  0  0  0  0
  9  7  1  0  0  0  0
 11  9  2  0  0  0  0
 12 11  1  0  0  0  0
 13 11  1  0  0  0  0
 13  4  2  0  0  0  0
 14 13  1  0  0  0  0
 15 24  1  0  0  0  0
 15  3  2  0  0  0  0
 16 15  1  0  0  0  0
 17 16  1  0  0  0  0
 18 16  1  0  0  0  0
 18 20  2  0  0  0  0
 19 18  1  0  0  0  0
 20 22  1  0  0  0  0
 21 20  1  0  0  0  0
 22 23  1  0  0  0  0
 22 24  2  0  0  0  0
M  END
