1,3
q = -1.0

 17 16  0  0  0  0  0  0  0  0999 V2000
    1.7209   -1.5632    0.7195 N   0  0  0  0  0  2  0  0  0  0  0  0
    1.2534   -2.3317    1.2156 H   0  0  0  0  0  0  0  0  0  0  0  0
    2.0744    0.2209   -1.4075 C   0  0  0  0  0  3  0  0  0  0  0  0
    1.9832   -0.6270   -2.1217 H   0  0  0  0  0  0  0  0  0  0  0  0
    1.8986    1.1307   -2.0125 H   0  0  0  0  0  0  0  0  0  0  0  0
    3.4676    0.2225   -0.8676 C   0  0  0  0  0  0  0  0  0  0  0  0
    3.9229   -0.7162    0.0432 C   0  0  0  0  0  0  0  0  0  0  0  0
    3.0309   -1.6584    0.6737 C   0  0  0  0  0  3  0  0  0  0  0  0
    3.4924   -2.5204    1.1944 H   0  0  0  0  0  0  0  0  0  0  0  0
    4.4268    1.2729   -1.3604 C   0  0  0  0  0  0  0  0  0  0  0  0
    4.7184    1.9450   -0.5226 H   0  0  0  0  0  0  0  0  0  0  0  0
    3.9822    1.8956   -2.1586 H   0  0  0  0  0  0  0  0  0  0  0  0
    5.3729    0.8342   -1.7449 H   0  0  0  0  0  0  0  0  0  0  0  0
    5.3692   -0.7557    0.4814 C   0  0  0  0  0  0  0  0  0  0  0  0
    6.0739   -0.7950   -0.3762 H   0  0  0  0  0  0  0  0  0  0  0  0
    5.5768   -1.6335    1.1250 H   0  0  0  0  0  0  0  0  0  0  0  0
    5.6370    0.1485    1.0706 H   0  0  0  0  0  0  0  0  0  0  0  0
  1  2  1  0  0  0  0
  3  6  1  0  0  0  0
  4  3  1  0  0  0  0
  5  3  1  0  0  0  0
  6  7  2  0  0  0  0
  7 14  1  0  0  0  0
  7  8  1  0  0  0  0
  8  1  1  0  0  0  0
  8  9  1  0  0  0  0
 10  6  1  0  0  0  0
 10 11  1  0  0  0  0
 12 10  1  0  0  0  0
 13 10  1  0  0  0  0
 14 17  1  0  0  0  0
 14 16  1  0  0  0  0
 15 14  1  0  0  0  0
M  END
