1,4
q = -1.0

 33 35  0  0  0  0  0  0  0  0999 V2000
   -0.5782    0.2496   -0.8126 N   0  0  0  0  0  2  0  0  0  0  0  0
   -1.6764   -0.3085   -1.2555 N   0  0  0  0  0  2  0  0  0  0  0  0
   -2.5458    0.6975   -1.4418 N   0  0  0  0  0  0  0  0  0  0  0  0
    1.5732    1.4184    0.0467 C   0  0  0  0  0  3  0  0  0  0  0  0
    0.4813    2.3004   -0.2174 C   0  0  0  0  0  0  0  0  0  0  0  0
    0.6102    3.6906   -0.0362 C   0  0  0  0  0  0  0  0  0  0  0  0
   -0.2443    4.3571   -0.2364 H   0  0  0  0  0  0  0  0  0  0  0  0
   -2.0045    1.9099   -1.1046 C   0  0  0  0  0  0  0  0  0  0  0  0
   -2.5666    2.8442   -1.1824 H   0  0  0  0  0  0  0  0  0  0  0  0
    2.7922    1.9933    0.4367 C   0  0  0  0  0  0  0  0  0  0  0  0
    3.6731    1.3487    0.5856 H   0  0  0  0  0  0  0  0  0  0  0  0
   -0.7056    1.6191   -0.6954 C   0  0  0  0  0  0  0  0  0  0  0  0
    1.8293    4.2258    0.3928 C   0  0  0  0  0  0  0  0  0  0  0  0
    1.9304    5.3126    0.5387 H   0  0  0  0  0  0  0  0  0  0  0  0
   -4.8117    0.2229   -0.5711 C   0  0  0  0  0  0  0  0  0  0  0  0
    2.9410    3.3852    0.6212 C   0  0  0  0  0  0  0  0  0  0  0  0
   -3.9293    0.3892   -1.7928 C   0  0  0  0  0  0  0  0  0  0  0  0
   -3.8883   -0.5424   -2.3902 H   0  0  0  0  0  0  0  0  0  0  0  0
   -4.3043    1.2003   -2.4459 H   0  0  0  0  0  0  0  0  0  0  0  0
   -5.8691    1.1150   -0.3193 C   0  0  0  0  0  0  0  0  0  0  0  0
   -6.0701    1.9354   -1.0269 H   0  0  0  0  0  0  0  0  0  0  0  0
   -4.5623   -0.8238    0.3397 C   0  0  0  0  0  0  0  0  0  0  0  0
   -3.7328   -1.5222    0.1468 H   0  0  0  0  0  0  0  0  0  0  0  0
   -6.6699    0.9654    0.8245 C   0  0  0  0  0  0  0  0  0  0  0  0
   -7.4957    1.6686    1.0102 H   0  0  0  0  0  0  0  0  0  0  0  0
   -6.4138   -0.0758    1.7288 C   0  0  0  0  0  0  0  0  0  0  0  0
   -7.0387   -0.1925    2.6271 H   0  0  0  0  0  0  0  0  0  0  0  0
   -5.3578   -0.9701    1.4839 C   0  0  0  0  0  0  0  0  0  0  0  0
   -5.1545   -1.7898    2.1895 H   0  0  0  0  0  0  0  0  0  0  0  0
    4.2783    3.9641    1.0117 C   0  0  0  0  0  0  0  0  0  0  0  0
    4.9150    4.1293    0.1154 H   0  0  0  0  0  0  0  0  0  0  0  0
    4.8388    3.2831    1.6830 H   0  0  0  0  0  0  0  0  0  0  0  0
    4.1706    4.9421    1.5215 H   0  0  0  0  0  0  0  0  0  0  0  0
  1 12  1  0  0  0  0
  2  1  1  0  0  0  0
  3  2  1  0  0  0  0
  3  8  1  0  0  0  0
  4 10  1  0  0  0  0
  5  6  1  0  0  0  0
  5  4  2  0  0  0  0
  6 13  2  0  0  0  0
  7  6  1  0  0  0  0
  8 12  2  0  0  0  0
  9  8  1  0  0  0  0
 10 11  1  0  0  0  0
 10 16  2  0  0  0  0
 12  5  1  0  0  0  0
 13 14  1  0  0  0  0
 13 16  1  0  0  0  0
 15 20  2  0  0  0  0
 15 22  1  0  0  0  0
 16 30  1  0  0  0  0
 17  3  1  0  0  0  0
 17 15  1  0  0  0  0
 18 17  1  0  0  0  0
 19 17  1  0  0  0  0
 20 24  1  0  0  0  0
 21 20  1  0  0  0  0
 22 28  2  0  0  0  0
 23 22  1  0  0  0  0
 24 25  1  0  0  0  0
 24 26  2  0  0  0  0
 26 27  1  0  0  0  0
 28 26  1  0  0  0  0
 28 29  1  0  0  0  0
 30 33  1  0  0  0  0
 30 32  1  0  0  0  0
 31 30  1  0  0  0  0
M  END
