2,3
q = -1.0, confidence = 0.0

 24 25  0  0  0  0  0  0  0  0999 V2000
    3.9397   -2.4925   -0.9447 S   0  0  0  0  0  0  0  0  0  0  0  0
    1.7299    0.6651    1.1135 N   0  0  0  0  0  2  0  0  0  0  0  0
    2.9407   -1.2873   -0.2190 C   0  0  0  0  0  2  0  0  0  0  0  0
    3.7208   -0.5284    0.6867 C   0  0  0  0  0  0  0  0  0  0  0  0
    5.0985   -0.9298    0.7677 C   0  0  0  0  0  0  0  0  0  0  0  0
    5.8514   -0.4534    1.4119 H   0  0  0  0  0  0  0  0  0  0  0  0
    5.3701   -1.9918   -0.0661 C   0  0  0  0  0  0  0  0  0  0  0  0
    6.3262   -2.5071   -0.2210 H   0  0  0  0  0  0  0  0  0  0  0  0
    3.0141    0.5301    1.3493 C   0  0  0  0  0  0  0  0  0  0  0  0
    1.0561    1.8481    1.6122 C   0  0  0  0  0  0  0  0  0  0  0  0
    1.5348    2.1926    2.5598 H   0  0  0  0  0  0  0  0  0  0  0  0
    0.0061    1.5931    1.8681 H   0  0  0  0  0  0  0  0  0  0  0  0
    1.0543    3.0102    0.6292 C   0  0  0  0  0  0  0  0  0  0  0  0
    0.2978    4.1596    0.9313 C   0  0  0  0  0  0  0  0  0  0  0  0
   -0.3142    4.1809    1.8472 H   0  0  0  0  0  0  0  0  0  0  0  0
    0.3118    5.2695    0.0771 C   0  0  0  0  0  0  0  0  0  0  0  0
   -0.2851    6.1596    0.3285 H   0  0  0  0  0  0  0  0  0  0  0  0
    1.0776    5.2441   -1.1006 C   0  0  0  0  0  0  0  0  0  0  0  0
    1.0888    6.1158   -1.7726 H   0  0  0  0  0  0  0  0  0  0  0  0
    1.8232    4.0986   -1.4144 C   0  0  0  0  0  0  0  0  0  0  0  0
    2.4205    4.0640   -2.3384 H   0  0  0  0  0  0  0  0  0  0  0  0
    1.8135    2.9875   -0.5553 C   0  0  0  0  0  0  0  0  0  0  0  0
    2.3900    2.0874   -0.8134 H   0  0  0  0  0  0  0  0  0  0  0  0
    3.5346    1.2476    2.0168 H   0  0  0  0  0  0  0  0  0  0  0  0
  1  3  1  0  0  0  0
  1  7  1  0  0  0  0
  2  9  1  0  0  0  0
  2 10  1  0  0  0  0
  3  4  1  0  0  0  0
  4  5  1  0  0  0  0
  4  9  2  0  0  0  0
  5  6  1  0  0  0  0
  7  5  2  0  0  0  0
  8  7  1  0  0  0  0
  9 24  1  0  0  0  0
 10 12  1  0  0  0  0
 10 11  1  0  0  0  0
 13 14  1  0  0  0  0
 13 10  1  0  0  0  0
 14 15  1  0  0  0  0
 16 17  1  0  0  0  0
 16 14  2  0  0  0  0
 18 16  1  0  0  0  0
 19 18  1  0  0  0  0
 20 18  2  0  0  0  0
 20 22  1  0  0  0  0
 21 20  1  0  0  0  0
 22 13  2  0  0  0  0
 23 22  1  0  0  0  0
M  END
