1,2
q = -1.0

 32 33  0  0  1  0  0  0  0  0999 V2000
   -0.9867   -0.4420    1.5711 N   0  0  0  0  0  0  0  0  0  0  0  0
   -0.3761    1.6431   -0.0128 C   0  0  0  0  0  3  0  0  0  0  0  0
    0.0641    2.8481   -0.5976 C   0  0  0  0  0  0  0  0  0  0  0  0
   -0.8107    3.9360   -0.7687 C   0  0  0  0  0  0  0  0  0  0  0  0
   -2.1481    3.8416   -0.3517 C   0  0  0  0  0  0  0  0  0  0  0  0
   -2.6104    2.6511    0.2316 C   0  0  0  0  0  0  0  0  0  0  0  0
   -1.7367    1.5645    0.3972 C   0  0  0  0  0  0  0  0  0  0  0  0
   -2.1999    0.2299    0.9398 C   0  0  1  0  0  0  0  0  0  0  0  0
   -2.8513   -0.6311   -0.1336 C   0  0  0  0  0  0  0  0  0  0  0  0
   -2.2498   -0.8176   -1.3949 C   0  0  0  0  0  0  0  0  0  0  0  0
   -2.8586   -1.6330   -2.3583 C   0  0  0  0  0  0  0  0  0  0  0  0
   -4.0865   -2.2590   -2.0844 C   0  0  0  0  0  0  0  0  0  0  0  0
   -4.7020   -2.0645   -0.8390 C   0  0  0  0  0  0  0  0  0  0  0  0
   -4.0845   -1.2570    0.1289 C   0  0  0  0  0  0  0  0  0  0  0  0
   -0.7265    0.1802    2.8932 C   0  0  0  0  0  0  0  0  0  0  0  0
   -1.1429   -1.9027    1.7454 C   0  0  0  0  0  0  0  0  0  0  0  0
    1.1114    2.9598   -0.9263 H   0  0  0  0  0  0  0  0  0  0  0  0
   -0.4424    4.8677   -1.2267 H   0  0  0  0  0  0  0  0  0  0  0  0
   -2.8309    4.6948   -0.4803 H   0  0  0  0  0  0  0  0  0  0  0  0
   -3.6617    2.5653    0.5519 H   0  0  0  0  0  0  0  0  0  0  0  0
   -2.9552    0.3679    1.7470 H   0  0  0  0  0  0  0  0  0  0  0  0
   -1.2928   -0.3164   -1.6086 H   0  0  0  0  0  0  0  0  0  0  0  0
   -2.3742   -1.7756   -3.3363 H   0  0  0  0  0  0  0  0  0  0  0  0
   -4.5657   -2.8938   -2.8451 H   0  0  0  0  0  0  0  0  0  0  0  0
   -5.6674   -2.5443   -0.6176 H   0  0  0  0  0  0  0  0  0  0  0  0
   -4.5665   -1.1104    1.1090 H   0  0  0  0  0  0  0  0  0  0  0  0
   -1.5558   -0.0591    3.5981 H   0  0  0  0  0  0  0  0  0  0  0  0
   -0.6475    1.2760    2.7775 H   0  0  0  0  0  0  0  0  0  0  0  0
    0.2223   -0.2149    3.3005 H   0  0  0  0  0  0  0  0  0  0  0  0
   -1.9958   -2.1252    2.4251 H   0  0  0  0  0  0  0  0  0  0  0  0
   -0.2009   -2.3037    2.1611 H   0  0  0  0  0  0  0  0  0  0  0  0
   -1.3226   -2.3812    0.7681 H   0  0  0  0  0  0  0  0  0  0  0  0
  1 16  1  0  0  0  0
  1 15  1  0  0  0  0
  2  7  1  0  0  0  0
  3  2  2  0  0  0  0
  4  3  1  0  0  0  0
  4  5  2  0  0  0  0
  5  6  1  0  0  0  0
  6  7  2  0  0  0  0
  6 20  1  0  0  0  0
  7  8  1  0  0  0  0
  8  1  1  0  0  0  0
  8 21  1  1  0  0  0
  9 14  1  0  0  0  0
  9  8  1  0  0  0  0
 10  9  2  0  0  0  0
 11 12  2  0  0  0  0
 11 10  1  0  0  0  0
 12 13  1  0  0  0  0
 13 25  1  0  0  0  0
 13 14  2  0  0  0  0
 14 26  1  0  0  0  0
 15 29  1  0  0  0  0
 15 27  1  0  0  0  0
 16 31  1  0  0  0  0
 16 30  1  0  0  0  0
 17  3  1  0  0  0  0
 18  4  1  0  0  0  0
 19  5  1  0  0  0  0
 22 10  1  0  0  0  0
 23 11  1  0  0  0  0
 24 12  1  0  0  0  0
 28 15  1  0  0  0  0
 32 16  1  0  0  0  0
M  END
