2,40
q = -2.0, confidence = 0.778

 47 47  0  0  1  0  0  0  0  0999 V2000
    1.4630   -0.1377    0.1064 P   0  0  0  0  0  4  0  0  0  0  0  0
    0.0073    0.2698   -0.3965 N   0  0  0  0  0  1  0  0  0  0  0  0
    2.4686    1.4392    0.4497 C   0  0  0  0  0  0  0  0  0  0  0  0
    1.8867    2.0374    1.7463 C   0  0  0  0  0  0  0  0  0  0  0  0
    2.3003    3.0582    1.8863 H   0  0  0  0  0  0  0  0  0  0  0  0
    2.1608    1.4460    2.6416 H   0  0  0  0  0  0  0  0  0  0  0  0
    0.7835    2.1185    1.6943 H   0  0  0  0  0  0  0  0  0  0  0  0
    3.9720    1.1837    0.6221 C   0  0  0  0  0  0  0  0  0  0  0  0
    4.4665    2.1273    0.9367 H   0  0  0  0  0  0  0  0  0  0  0  0
    4.4562    0.8599   -0.3197 H   0  0  0  0  0  0  0  0  0  0  0  0
    4.1873    0.4275    1.4046 H   0  0  0  0  0  0  0  0  0  0  0  0
    2.2028    2.4269   -0.7012 C   0  0  0  0  0  0  0  0  0  0  0  0
    2.6415    3.4127   -0.4400 H   0  0  0  0  0  0  0  0  0  0  0  0
    1.1145    2.5528   -0.8606 H   0  0  0  0  0  0  0  0  0  0  0  0
    2.6541    2.0990   -1.6557 H   0  0  0  0  0  0  0  0  0  0  0  0
    2.2909   -1.3081   -1.1449 C   0  0  0  0  0  0  0  0  0  0  0  0
    1.2164   -2.3593   -1.4867 C   0  0  0  0  0  0  0  0  0  0  0  0
    1.6088   -3.0372   -2.2734 H   0  0  0  0  0  0  0  0  0  0  0  0
    0.2945   -1.8721   -1.8575 H   0  0  0  0  0  0  0  0  0  0  0  0
    0.9471   -2.9883   -0.6138 H   0  0  0  0  0  0  0  0  0  0  0  0
    2.6212   -0.5166   -2.4218 C   0  0  0  0  0  0  0  0  0  0  0  0
    2.9183   -1.2231   -3.2254 H   0  0  0  0  0  0  0  0  0  0  0  0
    3.4626    0.1879   -2.2733 H   0  0  0  0  0  0  0  0  0  0  0  0
    1.7391    0.0536   -2.7748 H   0  0  0  0  0  0  0  0  0  0  0  0
    3.5434   -2.0060   -0.5909 C   0  0  0  0  0  0  0  0  0  0  0  0
    3.9410   -2.6998   -1.3620 H   0  0  0  0  0  0  0  0  0  0  0  0
    3.3228   -2.6151    0.3080 H   0  0  0  0  0  0  0  0  0  0  0  0
    4.3532   -1.2972   -0.3381 H   0  0  0  0  0  0  0  0  0  0  0  0
    1.4387   -1.1271    1.7057 C   0  0  0  0  0  0  0  0  0  0  0  0
    1.2985   -2.1761    1.3756 H   0  0  0  0  0  0  0  0  0  0  0  0
    2.4457   -1.0624    2.1660 H   0  0  0  0  0  0  0  0  0  0  0  0
    0.3593   -0.7112    2.6611 C   0  0  0  0  0  0  0  0  0  0  0  0
    0.6577   -0.0255    3.4699 H   0  0  0  0  0  0  0  0  0  0  0  0
   -0.9410   -1.0691    2.5928 C   0  0  0  0  0  0  0  0  0  0  0  0
   -1.6164   -0.6602    3.3640 H   0  0  0  0  0  0  0  0  0  0  0  0
   -1.5834   -1.9637    1.5669 C   0  0  0  0  0  0  0  0  0  0  0  0
   -2.1507   -2.7638    2.0970 H   0  0  0  0  0  0  0  0  0  0  0  0
   -0.8165   -2.4794    0.9561 H   0  0  0  0  0  0  0  0  0  0  0  0
   -2.5280   -1.2407    0.6331 C   0  0  2  0  0  3  0  0  0  0  0  0
   -2.6548   -1.4812   -0.7692 C   0  0  0  0  0  3  0  0  0  0  0  0
   -2.0635   -2.2052   -1.3439 H   0  0  0  0  0  0  0  0  0  0  0  0
   -3.6530   -0.6051   -1.2911 C   0  0  0  0  0  3  0  0  0  0  0  0
   -3.9655   -0.5367   -2.3391 H   0  0  0  0  0  0  0  0  0  0  0  0
   -4.1451    0.1799   -0.2161 C   0  0  0  0  0  0  0  0  0  0  0  0
   -4.8839    0.9873   -0.2922 H   0  0  0  0  0  0  0  0  0  0  0  0
   -3.4477   -0.1988    0.9660 C   0  0  0  0  0  0  0  0  0  0  0  0
   -3.5831    0.2483    1.9576 H   0  0  0  0  0  0  0  0  0  0  0  0
  1  3  1  0  0  0  0
  1 29  1  0  0  0  0
  2  1  1  0  0  0  0
  3  8  1  0  0  0  0
  3  4  1  0  0  0  0
  4  5  1  0  0  0  0
  4  6  1  0  0  0  0
  7  4  1  0  0  0  0
  8  9  1  0  0  0  0
  8 11  1  0  0  0  0
 10  8  1  0  0  0  0
 12 13  1  0  0  0  0
 12  3  1  0  0  0  0
 14 12  1  0  0  0  0
 15 12  1  0  0  0  0
 16 25  1  0  0  0  0
 16  1  1  0  0  0  0
 17 16  1  0  0  0  0
 17 20  1  0  0  0  0
 18 17  1  0  0  0  0
 19 17  1  0  0  0  0
 21 23  1  0  0  0  0
 21 16  1  0  0  0  0
 22 21  1  0  0  0  0
 24 21  1  0  0  0  0
 25 28  1  0  0  0  0
 25 27  1  0  0  0  0
 26 25  1  0  0  0  0
 29 31  1  0  0  0  0
 29 32  1  0  0  0  0
 30 29  1  0  0  0  0
 32 33  1  0  0  0  0
 34 32  2  0  0  0  0
 34 35  1  0  0  0  0
 36 37  1  0  0  0  0
 36 34  1  0  0  0  0
 38 36  1  0  0  0  0
 39 46  1  0  0  0  0
 39 36  1  6  0  0  0
 40 39  1  0  0  0  0
 41 40  1  0  0  0  0
 42 40  1  0  0  0  0
 42 44  1  0  0  0  0
 43 42  1  0  0  0  0
 44 46  2  0  0  0  0
 45 44  1  0  0  0  0
 46 47  1  0  0  0  0
M  END
