3,13
q = 0.0, confidence = 0.998

 23 24  0  0  1  0  0  0  0  0999 V2000
    0.9973    2.7960   -0.0016 S   0  0  0  0  0  0  0  0  0  0  0  0
   -1.6175    2.0918   -0.0455 N   0  0  0  0  0  0  0  0  0  0  0  0
   -0.2714    0.3066    0.0511 N   0  0  0  0  0  2  0  0  0  0  0  0
   -2.4635    0.9877   -0.0100 C   0  0  0  0  0  0  0  0  0  0  0  0
   -3.8592    0.8570   -0.0228 C   0  0  0  0  0  0  0  0  0  0  0  0
   -4.3636   -0.4511    0.0116 C   0  0  0  0  0  0  0  0  0  0  0  0
   -3.5065   -1.5770    0.0562 C   0  0  0  0  0  0  0  0  0  0  0  0
   -2.1123   -1.4456    0.0697 C   0  0  0  0  0  0  0  0  0  0  0  0
   -1.5970   -0.1386    0.0389 C   0  0  0  0  0  0  0  0  0  0  0  0
   -0.3198    1.6374   -0.0093 C   0  0  2  0  0  3  0  0  0  0  0  0
    2.4541    1.7705   -0.4774 C   0  0  0  0  0  0  0  0  0  0  0  0
    2.7498    0.6373    0.4656 C   0  0  0  0  0  3  0  0  0  0  0  0
    3.3711   -0.5563    0.0747 C   0  0  0  0  0  3  0  0  0  0  0  0
   -1.8936    3.0694   -0.1348 H   0  0  0  0  0  0  0  0  0  0  0  0
   -4.5261    1.7305   -0.0605 H   0  0  0  0  0  0  0  0  0  0  0  0
   -5.4532   -0.6034    0.0012 H   0  0  0  0  0  0  0  0  0  0  0  0
   -3.9494   -2.5839    0.0785 H   0  0  0  0  0  0  0  0  0  0  0  0
   -1.4149   -2.2998    0.0880 H   0  0  0  0  0  0  0  0  0  0  0  0
    2.3356    1.4319   -1.5270 H   0  0  0  0  0  0  0  0  0  0  0  0
    3.2565    2.5425   -0.4641 H   0  0  0  0  0  0  0  0  0  0  0  0
    2.7224    0.9003    1.5389 H   0  0  0  0  0  0  0  0  0  0  0  0
    3.6561   -0.7426   -0.9744 H   0  0  0  0  0  0  0  0  0  0  0  0
    3.8335   -1.2166    0.8239 H   0  0  0  0  0  0  0  0  0  0  0  0
  2  4  1  0  0  0  0
  2 10  1  0  0  0  0
  4  9  1  0  0  0  0
  5  4  2  0  0  0  0
  5  6  1  0  0  0  0
  6  7  2  0  0  0  0
  7  8  1  0  0  0  0
  7 17  1  0  0  0  0
  8 18  1  0  0  0  0
  9  3  1  0  0  0  0
  9  8  2  0  0  0  0
 10  1  1  1  0  0  0
 10  3  1  0  0  0  0
 11 20  1  0  0  0  0
 11  1  1  0  0  0  0
 11 12  1  0  0  0  0
 12 21  1  0  0  0  0
 13 12  1  0  0  0  0
 13 23  1  0  0  0  0
 14  2  1  0  0  0  0
 15  5  1  0  0  0  0
 16  6  1  0  0  0  0
 19 11  1  0  0  0  0
 22 13  1  0  0  0  0
M  END
