1,2
q = -1.0

 30 31  0  0  0  0  0  0  0  0999 V2000
    0.8675   -1.0958   -0.1811 N   0  0  0  0  0  2  0  0  0  0  0  0
   -1.7015   -1.4746    0.0354 C   0  0  0  0  0  2  0  0  0  0  0  0
   -3.0892   -1.6310    0.1581 C   0  0  0  0  0  0  0  0  0  0  0  0
   -3.7293   -0.7376    0.2215 H   0  0  0  0  0  0  0  0  0  0  0  0
   -3.6495   -2.9222    0.1974 C   0  0  0  0  0  0  0  0  0  0  0  0
   -4.7412   -3.0360    0.2954 H   0  0  0  0  0  0  0  0  0  0  0  0
   -2.8403   -4.0723    0.1133 C   0  0  0  0  0  0  0  0  0  0  0  0
   -3.2983   -5.0722    0.1451 H   0  0  0  0  0  0  0  0  0  0  0  0
   -1.4519   -3.9377   -0.0113 C   0  0  0  0  0  0  0  0  0  0  0  0
   -0.8063   -4.8282   -0.0788 H   0  0  0  0  0  0  0  0  0  0  0  0
   -0.8843   -2.6458   -0.0487 C   0  0  0  0  0  0  0  0  0  0  0  0
    0.5274   -2.3588   -0.1652 C   0  0  0  0  0  0  0  0  0  0  0  0
    1.2885   -3.1570   -0.2334 H   0  0  0  0  0  0  0  0  0  0  0  0
    2.2484   -0.6190   -0.2339 C   0  0  0  0  0  0  0  0  0  0  0  0
    2.2216    0.2707   -0.9004 H   0  0  0  0  0  0  0  0  0  0  0  0
    3.2712   -1.6171   -0.7909 C   0  0  0  0  0  0  0  0  0  0  0  0
    2.9451   -1.9809   -1.7882 H   0  0  0  0  0  0  0  0  0  0  0  0
    3.3353   -2.5059   -0.1242 H   0  0  0  0  0  0  0  0  0  0  0  0
    4.6580   -0.9626   -0.8749 C   0  0  0  0  0  0  0  0  0  0  0  0
    5.3961   -1.6897   -1.2725 H   0  0  0  0  0  0  0  0  0  0  0  0
    4.6192   -0.1247   -1.6062 H   0  0  0  0  0  0  0  0  0  0  0  0
    5.1105   -0.4249    0.4893 C   0  0  0  0  0  0  0  0  0  0  0  0
    6.0964    0.0770    0.3978 H   0  0  0  0  0  0  0  0  0  0  0  0
    5.2591   -1.2811    1.1856 H   0  0  0  0  0  0  0  0  0  0  0  0
    4.0719    0.5335    1.0862 C   0  0  0  0  0  0  0  0  0  0  0  0
    4.0094    1.4509    0.4590 H   0  0  0  0  0  0  0  0  0  0  0  0
    4.3850    0.8675    2.0973 H   0  0  0  0  0  0  0  0  0  0  0  0
    2.6811   -0.1071    1.1550 C   0  0  0  0  0  0  0  0  0  0  0  0
    2.6843   -0.9678    1.8609 H   0  0  0  0  0  0  0  0  0  0  0  0
    1.9280    0.6188    1.5194 H   0  0  0  0  0  0  0  0  0  0  0  0
  1 12  1  0  0  0  0
  2  3  1  0  0  0  0
  3  5  2  0  0  0  0
  3  4  1  0  0  0  0
  5  6  1  0  0  0  0
  7  8  1  0  0  0  0
  7  5  1  0  0  0  0
  9  7  2  0  0  0  0
 10  9  1  0  0  0  0
 11  9  1  0  0  0  0
 11  2  1  0  0  0  0
 12 11  2  0  0  0  0
 13 12  1  0  0  0  0
 14  1  1  0  0  0  0
 14 28  1  0  0  0  0
 15 14  1  0  0  0  0
 16 14  1  0  0  0  0
 16 18  1  0  0  0  0
 17 16  1  0  0  0  0
 19 16  1  0  0  0  0
 19 22  1  0  0  0  0
 20 19  1  0  0  0  0
 21 19  1  0  0  0  0
 22 25  1  0  0  0  0
 22 24  1  0  0  0  0
 23 22  1  0  0  0  0
 25 28  1  0  0  0  0
 25 27  1  0  0  0  0
 26 25  1  0  0  0  0
 28 30  1  0  0  0  0
 28 29  1  0  0  0  0
M  END
