2,3
q = -1.0

 40 41  0  0  0  0  0  0  0  0999 V2000
   -6.0203   -0.4714    1.1706 O   0  0  0  0  0  0  0  0  0  0  0  0
   -2.3363    0.8755   -0.5342 N   0  0  0  0  0  0  0  0  0  0  0  0
   -0.8589    1.1692    1.2537 C   0  0  0  0  0  3  0  0  0  0  0  0
   -0.4584    1.6530    2.5089 C   0  0  0  0  0  0  0  0  0  0  0  0
    0.5444    1.4480    2.9136 H   0  0  0  0  0  0  0  0  0  0  0  0
   -1.3712    2.4186    3.2629 C   0  0  0  0  0  0  0  0  0  0  0  0
   -1.0647    2.8052    4.2479 H   0  0  0  0  0  0  0  0  0  0  0  0
   -2.6685    2.6889    2.7905 C   0  0  0  0  0  0  0  0  0  0  0  0
   -3.3660    3.2739    3.4089 H   0  0  0  0  0  0  0  0  0  0  0  0
   -3.0838    2.2075    1.5340 C   0  0  0  0  0  0  0  0  0  0  0  0
   -4.1046    2.3887    1.1645 H   0  0  0  0  0  0  0  0  0  0  0  0
   -2.1518    1.4692    0.7988 C   0  0  0  0  0  0  0  0  0  0  0  0
   -2.4101    1.8806   -1.6352 C   0  0  0  0  0  0  0  0  0  0  0  0
   -3.3430    2.4775   -1.5085 H   0  0  0  0  0  0  0  0  0  0  0  0
   -2.4998    1.2977   -2.5733 H   0  0  0  0  0  0  0  0  0  0  0  0
   -1.2090    2.7935   -1.7129 C   0  0  0  0  0  0  0  0  0  0  0  0
   -0.1270    2.4642   -2.5560 C   0  0  0  0  0  0  0  0  0  0  0  0
   -0.1652    1.5341   -3.1446 H   0  0  0  0  0  0  0  0  0  0  0  0
    0.9952    3.3026   -2.6350 C   0  0  0  0  0  0  0  0  0  0  0  0
    1.8299    3.0326   -3.2996 H   0  0  0  0  0  0  0  0  0  0  0  0
    1.0533    4.4776   -1.8674 C   0  0  0  0  0  0  0  0  0  0  0  0
    1.9327    5.1370   -1.9323 H   0  0  0  0  0  0  0  0  0  0  0  0
   -0.0155    4.8087   -1.0189 C   0  0  0  0  0  0  0  0  0  0  0  0
    0.0233    5.7263   -0.4122 H   0  0  0  0  0  0  0  0  0  0  0  0
   -1.1406    3.9732   -0.9460 C   0  0  0  0  0  0  0  0  0  0  0  0
   -1.9756    4.2359   -0.2791 H   0  0  0  0  0  0  0  0  0  0  0  0
   -3.4546   -0.0900   -0.6351 C   0  0  0  0  0  0  0  0  0  0  0  0
   -3.3830   -0.5421   -1.6469 H   0  0  0  0  0  0  0  0  0  0  0  0
   -4.4208    0.4577   -0.5594 H   0  0  0  0  0  0  0  0  0  0  0  0
   -3.3895   -1.1871    0.4218 C   0  0  0  0  0  0  0  0  0  0  0  0
   -3.4054   -0.7317    1.4327 H   0  0  0  0  0  0  0  0  0  0  0  0
   -2.4225   -1.7234    0.3094 H   0  0  0  0  0  0  0  0  0  0  0  0
   -4.5496   -2.1713    0.3025 C   0  0  0  0  0  0  0  0  0  0  0  0
   -4.3723   -3.0610    0.9477 H   0  0  0  0  0  0  0  0  0  0  0  0
   -4.6306   -2.5902   -0.7262 H   0  0  0  0  0  0  0  0  0  0  0  0
   -5.9052   -1.5977    0.7081 C   0  0  0  0  0  0  0  0  0  0  0  0
   -7.1070   -2.5035    0.5051 C   0  0  0  0  0  0  0  0  0  0  0  0
   -8.0028   -2.0504    0.9669 H   0  0  0  0  0  0  0  0  0  0  0  0
   -6.9266   -3.5142    0.9249 H   0  0  0  0  0  0  0  0  0  0  0  0
   -7.2872   -2.6405   -0.5823 H   0  0  0  0  0  0  0  0  0  0  0  0
  2 12  1  0  0  0  0
  3  4  1  0  0  0  0
  4  5  1  0  0  0  0
  4  6  2  0  0  0  0
  6  7  1  0  0  0  0
  8  6  1  0  0  0  0
  8  9  1  0  0  0  0
 10  8  2  0  0  0  0
 11 10  1  0  0  0  0
 12  3  2  0  0  0  0
 12 10  1  0  0  0  0
 13 14  1  0  0  0  0
 13  2  1  0  0  0  0
 15 13  1  0  0  0  0
 16 13  1  0  0  0  0
 16 25  1  0  0  0  0
 17 16  2  0  0  0  0
 18 17  1  0  0  0  0
 19 17  1  0  0  0  0
 19 21  2  0  0  0  0
 20 19  1  0  0  0  0
 21 23  1  0  0  0  0
 22 21  1  0  0  0  0
 23 25  2  0  0  0  0
 23 24  1  0  0  0  0
 25 26  1  0  0  0  0
 27 29  1  0  0  0  0
 27  2  1  0  0  0  0
 27 30  1  0  0  0  0
 28 27  1  0  0  0  0
 30 31  1  0  0  0  0
 32 30  1  0  0  0  0
 33 30  1  0  0  0  0
 33 36  1  0  0  0  0
 33 34  1  0  0  0  0
 35 33  1  0  0  0  0
 36  1  2  0  0  0  0
 37 36  1  0  0  0  0
 37 39  1  0  0  0  0
 37 38  1  0  0  0  0
 40 37  1  0  0  0  0
M  END
