1,11
q = 0.0, confidence = 0.796

 27 28  0  0  0  0  0  0  0  0999 V2000
    0.1318   -2.5206   -0.4148 N   0  0  0  0  0  0  0  0  0  0  0  0
    1.5519   -2.4826   -0.1417 C   0  0  0  0  0  0  0  0  0  0  0  0
    2.3264   -3.6072    0.1808 C   0  0  0  0  0  0  0  0  0  0  0  0
    1.8596   -4.5968    0.2838 H   0  0  0  0  0  0  0  0  0  0  0  0
    3.7111   -3.4771    0.3703 C   0  0  0  0  0  0  0  0  0  0  0  0
    4.3465   -4.3347    0.6274 H   0  0  0  0  0  0  0  0  0  0  0  0
    4.3034   -2.2136    0.2200 C   0  0  0  0  0  0  0  0  0  0  0  0
    3.5562   -1.0788   -0.1013 C   0  0  0  0  0  0  0  0  0  0  0  0
    4.0452   -0.0992   -0.1878 H   0  0  0  0  0  0  0  0  0  0  0  0
    2.1615   -1.2048   -0.2644 C   0  0  0  0  0  0  0  0  0  0  0  0
    1.3092   -0.0422   -0.4426 C   0  0  0  0  0  2  0  0  0  0  0  0
    1.8239    0.9006   -0.6962 H   0  0  0  0  0  0  0  0  0  0  0  0
   -0.1616   -3.0329   -1.7979 C   0  0  0  0  0  0  0  0  0  0  0  0
    0.4477   -3.9491   -1.9685 H   0  0  0  0  0  0  0  0  0  0  0  0
    0.1104   -2.2656   -2.5457 H   0  0  0  0  0  0  0  0  0  0  0  0
   -1.6687   -3.3535   -1.7707 C   0  0  0  0  0  0  0  0  0  0  0  0
   -1.8664   -4.3184   -2.2773 H   0  0  0  0  0  0  0  0  0  0  0  0
   -2.2325   -2.5608   -2.2973 H   0  0  0  0  0  0  0  0  0  0  0  0
   -2.0392   -3.3956   -0.2661 C   0  0  0  0  0  0  0  0  0  0  0  0
   -2.5932   -2.4794    0.0275 H   0  0  0  0  0  0  0  0  0  0  0  0
   -2.6663   -4.2659    0.0094 H   0  0  0  0  0  0  0  0  0  0  0  0
   -0.6873   -3.4200    0.4448 C   0  0  0  0  0  0  0  0  0  0  0  0
   -0.6979   -3.0298    1.4786 H   0  0  0  0  0  0  0  0  0  0  0  0
   -0.2645   -4.4512    0.4357 H   0  0  0  0  0  0  0  0  0  0  0  0
    5.7660   -2.0732    0.4192 N   0  0  0  0  0  0  0  0  0  0  0  0
    6.2520   -0.9478    0.2913 O   0  0  0  0  0  0  0  0  0  0  0  0
    6.4019   -3.0896    0.6973 O   0  0  0  0  0  0  0  0  0  0  0  0
  1  2  1  0  0  0  0
  1 22  1  0  0  0  0
  2  3  1  0  0  0  0
  3  4  1  0  0  0  0
  3  5  2  0  0  0  0
  5  6  1  0  0  0  0
  7  5  1  0  0  0  0
  7 25  1  0  0  0  0
  8  7  2  0  0  0  0
  9  8  1  0  0  0  0
 10  2  2  0  0  0  0
 10  8  1  0  0  0  0
 11 10  1  0  0  0  0
 12 11  1  0  0  0  0
 13 16  1  0  0  0  0
 13  1  1  0  0  0  0
 14 13  1  0  0  0  0
 15 13  1  0  0  0  0
 16 19  1  0  0  0  0
 17 16  1  0  0  0  0
 18 16  1  0  0  0  0
 19 21  1  0  0  0  0
 19 20  1  0  0  0  0
 19 22  1  0  0  0  0
 22 23  1  0  0  0  0
 24 22  1  0  0  0  0
 25 27  2  0  0  0  0
 26 25  2  0  0  0  0
M  END
