1,17
q = 0.0, confidence = 0.992

 28 29  0  0  0  0  0  0  0  0999 V2000
   -2.1908   -0.4954   -0.0181 N   0  0  0  0  0  2  0  0  0  0  0  0
   -1.7584    1.7319   -0.3156 N   0  0  0  0  0  0  0  0  0  0  0  0
    0.2601    2.4347   -0.6856 N   0  0  0  0  0  0  0  0  0  0  0  0
   -3.0281   -1.5597    0.0250 C   0  0  0  0  0  3  0  0  0  0  0  0
   -2.5493   -2.5452    0.0826 H   0  0  0  0  0  0  0  0  0  0  0  0
   -4.4154   -1.4189   -0.0232 C   0  0  0  0  0  0  0  0  0  0  0  0
   -5.0516   -2.3132    0.0202 H   0  0  0  0  0  0  0  0  0  0  0  0
   -4.9672   -0.1322   -0.1398 C   0  0  0  0  0  0  0  0  0  0  0  0
   -6.0566    0.0105   -0.1796 H   0  0  0  0  0  0  0  0  0  0  0  0
   -4.1121    0.9707   -0.2271 C   0  0  0  0  0  0  0  0  0  0  0  0
   -4.5059    1.9886   -0.3468 H   0  0  0  0  0  0  0  0  0  0  0  0
   -2.7313    0.7428   -0.1747 C   0  0  0  0  0  0  0  0  0  0  0  0
   -1.8786    3.0774   -0.6607 C   0  0  0  0  0  0  0  0  0  0  0  0
   -2.8350    3.6023   -0.7245 H   0  0  0  0  0  0  0  0  0  0  0  0
   -0.6053    3.5136   -0.8897 C   0  0  0  0  0  0  0  0  0  0  0  0
   -0.2404    4.5009   -1.1881 H   0  0  0  0  0  0  0  0  0  0  0  0
   -0.4317    1.3239   -0.3172 C   0  0  0  0  0  2  0  0  0  0  0  0
    1.6987    2.5009   -0.9463 C   0  0  0  0  0  0  0  0  0  0  0  0
    1.8327    2.8628   -1.9858 H   0  0  0  0  0  0  0  0  0  0  0  0
    2.0652    1.4612   -0.9152 H   0  0  0  0  0  0  0  0  0  0  0  0
    2.4643    3.4046    0.0338 C   0  0  0  0  0  0  0  0  0  0  0  0
    3.5300    3.3971   -0.2750 H   0  0  0  0  0  0  0  0  0  0  0  0
    2.1148    4.4538   -0.0940 H   0  0  0  0  0  0  0  0  0  0  0  0
    2.3356    3.0069    1.4777 C   0  0  0  0  0  0  0  0  0  0  0  0
    1.3217    3.0824    1.9134 H   0  0  0  0  0  0  0  0  0  0  0  0
    3.3513    2.5937    2.2565 C   0  0  0  0  0  0  0  0  0  0  0  0
    4.3821    2.5221    1.8700 H   0  0  0  0  0  0  0  0  0  0  0  0
    3.1990    2.3349    3.3160 H   0  0  0  0  0  0  0  0  0  0  0  0
  1  4  1  0  0  0  0
  2 12  1  0  0  0  0
  3 17  1  0  0  0  0
  4  5  1  0  0  0  0
  6  7  1  0  0  0  0
  6  4  1  0  0  0  0
  8  6  2  0  0  0  0
  9  8  1  0  0  0  0
 10 12  2  0  0  0  0
 10  8  1  0  0  0  0
 11 10  1  0  0  0  0
 12  1  1  0  0  0  0
 13  2  1  0  0  0  0
 14 13  1  0  0  0  0
 15  3  1  0  0  0  0
 15 13  2  0  0  0  0
 16 15  1  0  0  0  0
 17  2  1  0  0  0  0
 18 20  1  0  0  0  0
 18  3  1  0  0  0  0
 18 21  1  0  0  0  0
 19 18  1  0  0  0  0
 21 24  1  0  0  0  0
 22 21  1  0  0  0  0
 23 21  1  0  0  0  0
 24 25  1  0  0  0  0
 24 26  2  0  0  0  0
 26 28  1  0  0  0  0
 27 26  1  0  0  0  0
M  END
