1,23
q = -1.0, confidence = 0.0

 31 32  0  0  1  0  0  0  0  0999 V2000
    0.5103    1.3353    0.1458 N   0  0  0  0  0  2  0  0  0  0  0  0
   -0.1786    2.3820    0.6827 C   0  0  0  0  0  3  0  0  0  0  0  0
   -1.1488    2.1312    1.1298 H   0  0  0  0  0  0  0  0  0  0  0  0
    0.2828    3.6968    0.6692 C   0  0  0  0  0  0  0  0  0  0  0  0
   -0.3292    4.4824    1.1342 H   0  0  0  0  0  0  0  0  0  0  0  0
    1.5129    3.9774    0.0612 C   0  0  0  0  0  0  0  0  0  0  0  0
    1.9197    4.9989    0.0353 H   0  0  0  0  0  0  0  0  0  0  0  0
    2.2039    2.9147   -0.5276 C   0  0  0  0  0  0  0  0  0  0  0  0
    3.1603    3.0864   -1.0419 H   0  0  0  0  0  0  0  0  0  0  0  0
    1.6905    1.6036   -0.4945 C   0  0  0  0  0  0  0  0  0  0  0  0
    2.4379    0.5212   -1.2304 C   0  0  0  0  0  0  0  0  0  0  0  0
    3.3513    0.9799   -1.6580 H   0  0  0  0  0  0  0  0  0  0  0  0
    1.8158    0.2029   -2.0943 H   0  0  0  0  0  0  0  0  0  0  0  0
    2.8593   -0.7434   -0.4260 C   0  0  0  0  0  0  0  0  0  0  0  0
    3.5425   -0.3297    0.8860 C   0  0  0  0  0  0  0  0  0  0  0  0
    2.8369    0.1996    1.5567 H   0  0  0  0  0  0  0  0  0  0  0  0
    4.3957    0.3474    0.6796 H   0  0  0  0  0  0  0  0  0  0  0  0
    3.9384   -1.2124    1.4263 H   0  0  0  0  0  0  0  0  0  0  0  0
    3.8373   -1.5650   -1.2938 C   0  0  0  0  0  0  0  0  0  0  0  0
    4.1162   -2.5069   -0.7810 H   0  0  0  0  0  0  0  0  0  0  0  0
    4.7656   -0.9898   -1.4890 H   0  0  0  0  0  0  0  0  0  0  0  0
    3.3843   -1.8314   -2.2696 H   0  0  0  0  0  0  0  0  0  0  0  0
    1.6220   -1.5782   -0.1723 C   0  0  2  0  0  3  0  0  0  0  0  0
    0.6369   -1.9165   -1.1771 C   0  0  0  0  0  3  0  0  0  0  0  0
    0.6715   -1.6718   -2.2441 H   0  0  0  0  0  0  0  0  0  0  0  0
   -0.4320   -2.6240   -0.5207 C   0  0  0  0  0  0  0  0  0  0  0  0
   -1.3540   -2.9751   -0.9989 H   0  0  0  0  0  0  0  0  0  0  0  0
   -0.0960   -2.7769    0.8600 C   0  0  0  0  0  0  0  0  0  0  0  0
   -0.7019   -3.2895    1.6163 H   0  0  0  0  0  0  0  0  0  0  0  0
    1.1823   -2.1346    1.0826 C   0  0  0  0  0  3  0  0  0  0  0  0
    1.7216   -2.0890    2.0348 H   0  0  0  0  0  0  0  0  0  0  0  0
  1  2  1  0  0  0  0
  2  3  1  0  0  0  0
  4  2  1  0  0  0  0
  4  5  1  0  0  0  0
  6  4  2  0  0  0  0
  7  6  1  0  0  0  0
  8 10  2  0  0  0  0
  8  6  1  0  0  0  0
  9  8  1  0  0  0  0
 10  1  1  0  0  0  0
 11 10  1  0  0  0  0
 11 14  1  0  0  0  0
 12 11  1  0  0  0  0
 13 11  1  0  0  0  0
 14 15  1  0  0  0  0
 15 18  1  0  0  0  0
 15 16  1  0  0  0  0
 17 15  1  0  0  0  0
 19 20  1  0  0  0  0
 19 14  1  0  0  0  0
 21 19  1  0  0  0  0
 22 19  1  0  0  0  0
 23 14  1  1  0  0  0
 23 30  1  0  0  0  0
 24 26  1  0  0  0  0
 24 23  1  0  0  0  0
 25 24  1  0  0  0  0
 26 28  2  0  0  0  0
 27 26  1  0  0  0  0
 28 30  1  0  0  0  0
 28 29  1  0  0  0  0
 30 31  1  0  0  0  0
M  END
