2,29
q = -1.0

 40 42  0  0  0  0  0  0  0  0999 V2000
    4.6731   -0.0723    1.8900 Cl  0  0  0  0  0  0  0  0  0  0  0  0
    0.7036   -0.0191    1.5828 N   0  0  0  0  0  2  0  0  0  0  0  0
   -2.5090   -0.5044    2.2500 C   0  0  0  0  0  0  0  0  0  0  0  0
   -2.3019   -1.5823    2.1622 H   0  0  0  0  0  0  0  0  0  0  0  0
   -3.7829    0.0050    1.9591 C   0  0  0  0  0  0  0  0  0  0  0  0
   -4.5864   -0.6817    1.6535 H   0  0  0  0  0  0  0  0  0  0  0  0
   -4.0255    1.3859    2.0411 C   0  0  0  0  0  0  0  0  0  0  0  0
   -5.0249    1.7847    1.8086 H   0  0  0  0  0  0  0  0  0  0  0  0
   -2.9906    2.2581    2.4153 C   0  0  0  0  0  0  0  0  0  0  0  0
   -3.1746    3.3416    2.4752 H   0  0  0  0  0  0  0  0  0  0  0  0
   -1.7157    1.7489    2.7031 C   0  0  0  0  0  0  0  0  0  0  0  0
   -0.8986    2.4365    2.9745 H   0  0  0  0  0  0  0  0  0  0  0  0
   -1.4677    0.3667    2.6269 C   0  0  0  0  0  0  0  0  0  0  0  0
   -0.0652   -0.1700    2.8287 C   0  0  0  0  0  0  0  0  0  0  0  0
   -0.0921   -1.2600    3.0363 H   0  0  0  0  0  0  0  0  0  0  0  0
    0.4615    0.3573    3.6521 H   0  0  0  0  0  0  0  0  0  0  0  0
    1.8148    0.6376    1.5646 C   0  0  0  0  0  0  0  0  0  0  0  0
    2.2145    1.0155    2.5275 H   0  0  0  0  0  0  0  0  0  0  0  0
    2.6193    0.8813    0.3576 C   0  0  0  0  0  0  0  0  0  0  0  0
    4.0097    0.6240    0.4279 C   0  0  0  0  0  0  0  0  0  0  0  0
    4.8721    0.8841   -0.6432 C   0  0  0  0  0  0  0  0  0  0  0  0
    5.9403    0.6449   -0.5525 H   0  0  0  0  0  0  0  0  0  0  0  0
    4.3361    1.4403   -1.8121 C   0  0  0  0  0  0  0  0  0  0  0  0
    4.9975    1.6502   -2.6663 H   0  0  0  0  0  0  0  0  0  0  0  0
    2.9680    1.7267   -1.8991 C   0  0  0  0  0  0  0  0  0  0  0  0
    2.5561    2.1654   -2.8195 H   0  0  0  0  0  0  0  0  0  0  0  0
    2.0818    1.4554   -0.8339 C   0  0  0  0  0  0  0  0  0  0  0  0
    0.6549    1.8608   -0.9732 C   0  0  0  0  0  0  0  0  0  0  0  0
   -0.4267    0.9629   -0.7642 C   0  0  0  0  0  2  0  0  0  0  0  0
   -1.7418    1.4262   -0.9683 C   0  0  0  0  0  0  0  0  0  0  0  0
   -2.5804    0.7254   -0.8240 H   0  0  0  0  0  0  0  0  0  0  0  0
   -2.0239    2.7535   -1.3512 C   0  0  0  0  0  0  0  0  0  0  0  0
   -0.9407    3.6299   -1.5586 C   0  0  0  0  0  0  0  0  0  0  0  0
   -1.1299    4.6732   -1.8569 H   0  0  0  0  0  0  0  0  0  0  0  0
    0.3751    3.1856   -1.3831 C   0  0  0  0  0  0  0  0  0  0  0  0
    1.2109    3.8853   -1.5420 H   0  0  0  0  0  0  0  0  0  0  0  0
   -3.4522    3.2118   -1.4960 C   0  0  0  0  0  0  0  0  0  0  0  0
   -3.5220    4.2080   -1.9748 H   0  0  0  0  0  0  0  0  0  0  0  0
   -3.9418    3.2768   -0.5005 H   0  0  0  0  0  0  0  0  0  0  0  0
   -4.0493    2.4934   -2.0938 H   0  0  0  0  0  0  0  0  0  0  0  0
  2 14  1  0  0  0  0
  3 13  1  0  0  0  0
  4  3  1  0  0  0  0
  5  7  1  0  0  0  0
  5  3  2  0  0  0  0
  6  5  1  0  0  0  0
  7  9  2  0  0  0  0
  8  7  1  0  0  0  0
  9 10  1  0  0  0  0
  9 11  1  0  0  0  0
 11 12  1  0  0  0  0
 13 11  2  0  0  0  0
 13 14  1  0  0  0  0
 14 15  1  0  0  0  0
 14 16  1  0  0  0  0
 17  2  1  0  0  0  0
 17 18  1  0  0  0  0
 19 20  1  0  0  0  0
 19 17  2  0  0  0  0
 20  1  1  0  0  0  0
 21 22  1  0  0  0  0
 21 20  2  0  0  0  0
 23 21  1  0  0  0  0
 24 23  1  0  0  0  0
 25 23  2  0  0  0  0
 25 27  1  0  0  0  0
 26 25  1  0  0  0  0
 27 19  1  0  0  0  0
 28 27  2  0  0  0  0
 28 29  1  0  0  0  0
 30 31  1  0  0  0  0
 30 29  1  0  0  0  0
 32 30  2  0  0  0  0
 33 35  2  0  0  0  0
 33 32  1  0  0  0  0
 34 33  1  0  0  0  0
 35 28  1  0  0  0  0
 36 35  1  0  0  0  0
 37 32  1  0  0  0  0
 37 39  1  0  0  0  0
 38 37  1  0  0  0  0
 40 37  1  0  0  0  0
M  END
