1,10
q = 0.0, confidence = 0.608

 29 30  0  0  0  0  0  0  0  0999 V2000
    1.4015   -0.0420    0.7640 N   0  0  0  0  0  2  0  0  0  0  0  0
    5.4635    0.2922   -0.4491 C   0  0  0  0  0  0  0  0  0  0  0  0
    4.6416   -0.7117   -0.9869 C   0  0  0  0  0  0  0  0  0  0  0  0
    3.3021   -0.8230   -0.5911 C   0  0  0  0  0  0  0  0  0  0  0  0
    2.7606    0.0806    0.3461 C   0  0  0  0  0  0  0  0  0  0  0  0
    3.5924    1.0811    0.8913 C   0  0  0  0  0  0  0  0  0  0  0  0
    4.9341    1.1854    0.4947 C   0  0  0  0  0  0  0  0  0  0  0  0
    1.1994   -0.3599    2.1138 C   0  0  0  0  0  0  0  0  0  0  0  0
    0.0084   -0.9156    2.4709 C   0  0  0  0  0  0  0  0  0  0  0  0
   -0.9360   -1.2808    1.3658 C   0  0  0  0  0  3  0  0  0  0  0  0
   -0.7152   -2.6599    0.7892 C   0  0  0  0  0  0  0  0  0  0  0  0
   -1.8254   -3.4261    0.3626 C   0  0  0  0  0  0  0  0  0  0  0  0
   -1.6610   -4.6966   -0.2000 C   0  0  0  0  0  0  0  0  0  0  0  0
   -0.3749   -5.2408   -0.3590 C   0  0  0  0  0  0  0  0  0  0  0  0
    0.7372   -4.5007    0.0680 C   0  0  0  0  0  0  0  0  0  0  0  0
    0.5699   -3.2296    0.6389 C   0  0  0  0  0  0  0  0  0  0  0  0
    6.5146    0.3764   -0.7632 H   0  0  0  0  0  0  0  0  0  0  0  0
    5.0482   -1.4220   -1.7229 H   0  0  0  0  0  0  0  0  0  0  0  0
    2.6550   -1.6080   -1.0064 H   0  0  0  0  0  0  0  0  0  0  0  0
    3.1781    1.7833    1.6297 H   0  0  0  0  0  0  0  0  0  0  0  0
    5.5677    1.9764    0.9245 H   0  0  0  0  0  0  0  0  0  0  0  0
    2.0267   -0.1786    2.8226 H   0  0  0  0  0  0  0  0  0  0  0  0
   -0.2072   -1.1492    3.5266 H   0  0  0  0  0  0  0  0  0  0  0  0
   -1.9948   -1.2028    1.6784 H   0  0  0  0  0  0  0  0  0  0  0  0
   -2.8368   -3.0041    0.4710 H   0  0  0  0  0  0  0  0  0  0  0  0
   -2.5459   -5.2699   -0.5173 H   0  0  0  0  0  0  0  0  0  0  0  0
   -0.2435   -6.2378   -0.8061 H   0  0  0  0  0  0  0  0  0  0  0  0
    1.7513   -4.9164   -0.0381 H   0  0  0  0  0  0  0  0  0  0  0  0
    1.4513   -2.6741    0.9880 H   0  0  0  0  0  0  0  0  0  0  0  0
  1  8  1  0  0  0  0
  2  7  1  0  0  0  0
  3  4  1  0  0  0  0
  3  2  2  0  0  0  0
  4  5  2  0  0  0  0
  5  1  1  0  0  0  0
  5  6  1  0  0  0  0
  6 20  1  0  0  0  0
  7  6  2  0  0  0  0
  7 21  1  0  0  0  0
  8  9  2  0  0  0  0
  8 22  1  0  0  0  0
  9 23  1  0  0  0  0
 10 24  1  0  0  0  0
 10  9  1  0  0  0  0
 11 10  1  0  0  0  0
 12 25  1  0  0  0  0
 12 11  2  0  0  0  0
 13 12  1  0  0  0  0
 14 13  2  0  0  0  0
 14 15  1  0  0  0  0
 15 16  2  0  0  0  0
 16 11  1  0  0  0  0
 16 29  1  0  0  0  0
 17  2  1  0  0  0  0
 18  3  1  0  0  0  0
 19  4  1  0  0  0  0
 26 13  1  0  0  0  0
 27 14  1  0  0  0  0
 28 15  1  0  0  0  0
M  END
