2,4
q = -1.0

 43 46  0  0  1  0  0  0  0  0999 V2000
   -2.6429   -0.7852   -1.2861 Se  0  0  0  0  0  0  0  0  0  0  0  0
    0.1704   -1.1832    0.1155 N   0  0  0  0  0  2  0  0  0  0  0  0
    2.3152    0.9013    0.2416 C   0  0  2  0  0  3  0  0  0  0  0  0
    1.0277    1.5288    0.1045 C   0  0  0  0  0  2  0  0  0  0  0  0
    2.5390   -0.5186    0.1881 C   0  0  0  0  0  0  0  0  0  0  0  0
    1.4424   -1.4489    0.2531 C   0  0  0  0  0  0  0  0  0  0  0  0
    1.6941   -2.4934    0.5130 H   0  0  0  0  0  0  0  0  0  0  0  0
    3.8718   -1.0685    0.2042 C   0  0  2  0  0  3  0  0  0  0  0  0
   -3.7684   -0.5844    0.2907 C   0  0  0  0  0  0  0  0  0  0  0  0
    5.0002   -0.1813    0.3895 C   0  0  0  0  0  0  0  0  0  0  0  0
   -0.7938   -2.2542    0.3886 C   0  0  0  0  0  0  0  0  0  0  0  0
   -1.3836   -1.9750    1.2892 H   0  0  0  0  0  0  0  0  0  0  0  0
   -0.2557   -3.2014    0.6236 H   0  0  0  0  0  0  0  0  0  0  0  0
    3.4728    1.7536    0.5005 C   0  0  0  0  0  0  0  0  0  0  0  0
    0.9163    2.8996    0.3498 C   0  0  0  0  0  0  0  0  0  0  0  0
   -0.0680    3.3766    0.2401 H   0  0  0  0  0  0  0  0  0  0  0  0
    5.4620   -2.9390    0.0489 C   0  0  0  0  0  0  0  0  0  0  0  0
    5.6446   -4.0135   -0.1044 H   0  0  0  0  0  0  0  0  0  0  0  0
    6.3307   -0.7089    0.4141 C   0  0  0  0  0  0  0  0  0  0  0  0
    7.1664   -0.0072    0.5608 H   0  0  0  0  0  0  0  0  0  0  0  0
    6.5634   -2.0604    0.2516 C   0  0  0  0  0  0  0  0  0  0  0  0
    7.5889   -2.4580    0.2674 H   0  0  0  0  0  0  0  0  0  0  0  0
    4.1625   -2.4585    0.0257 C   0  0  0  0  0  0  0  0  0  0  0  0
    3.3501   -3.1708   -0.1732 H   0  0  0  0  0  0  0  0  0  0  0  0
    4.7604    1.1939    0.5603 C   0  0  0  0  0  0  0  0  0  0  0  0
    5.6164    1.8622    0.7482 H   0  0  0  0  0  0  0  0  0  0  0  0
    2.0401    3.7107    0.6689 C   0  0  0  0  0  0  0  0  0  0  0  0
    1.8938    4.7874    0.8467 H   0  0  0  0  0  0  0  0  0  0  0  0
    3.3018    3.1568    0.7132 C   0  0  0  0  0  0  0  0  0  0  0  0
    4.1928    3.7708    0.9152 H   0  0  0  0  0  0  0  0  0  0  0  0
   -1.7422   -2.4762   -0.7809 C   0  0  0  0  0  0  0  0  0  0  0  0
   -2.4998   -3.2490   -0.5509 H   0  0  0  0  0  0  0  0  0  0  0  0
   -1.1969   -2.7801   -1.6968 H   0  0  0  0  0  0  0  0  0  0  0  0
   -3.8506    0.6827    0.8960 C   0  0  0  0  0  0  0  0  0  0  0  0
   -3.2600    1.5214    0.4900 H   0  0  0  0  0  0  0  0  0  0  0  0
   -5.4309   -0.2240    2.5177 C   0  0  0  0  0  0  0  0  0  0  0  0
   -6.0793   -0.0837    3.3957 H   0  0  0  0  0  0  0  0  0  0  0  0
   -4.5261   -1.6646    0.7766 C   0  0  0  0  0  0  0  0  0  0  0  0
   -4.4904   -2.6476    0.2829 H   0  0  0  0  0  0  0  0  0  0  0  0
   -4.6897    0.8540    2.0084 C   0  0  0  0  0  0  0  0  0  0  0  0
   -4.7544    1.8442    2.4845 H   0  0  0  0  0  0  0  0  0  0  0  0
   -5.3482   -1.4821    1.9001 C   0  0  0  0  0  0  0  0  0  0  0  0
   -5.9353   -2.3293    2.2863 H   0  0  0  0  0  0  0  0  0  0  0  0
  1 31  1  0  0  0  0
  1  9  1  0  0  0  0
  2  6  1  0  0  0  0
  2 11  1  0  0  0  0
  3  4  1  1  0  0  0
  3 14  1  0  0  0  0
  4 15  1  0  0  0  0
  5  8  1  0  0  0  0
  5  3  1  0  0  0  0
  5  6  2  0  0  0  0
  6  7  1  0  0  0  0
  8 23  1  6  0  0  0
  8 10  1  0  0  0  0
  9 38  2  0  0  0  0
  9 34  1  0  0  0  0
 10 19  1  0  0  0  0
 10 25  2  0  0  0  0
 11 13  1  0  0  0  0
 11 12  1  0  0  0  0
 14 25  1  0  0  0  0
 14 29  2  0  0  0  0
 15 27  2  0  0  0  0
 16 15  1  0  0  0  0
 17 21  1  0  0  0  0
 18 17  1  0  0  0  0
 19 20  1  0  0  0  0
 21 22  1  0  0  0  0
 21 19  2  0  0  0  0
 23 17  2  0  0  0  0
 24 23  1  0  0  0  0
 25 26  1  0  0  0  0
 27 29  1  0  0  0  0
 27 28  1  0  0  0  0
 29 30  1  0  0  0  0
 31 32  1  0  0  0  0
 31 11  1  0  0  0  0
 33 31  1  0  0  0  0
 34 40  2  0  0  0  0
 35 34  1  0  0  0  0
 36 37  1  0  0  0  0
 38 42  1  0  0  0  0
 39 38  1  0  0  0  0
 40 41  1  0  0  0  0
 40 36  1  0  0  0  0
 42 43  1  0  0  0  0
 42 36  2  0  0  0  0
M  END
