1,4
q = -1.0

 28 30  0  0  0  0  0  0  0  0999 V2000
    0.7350   -1.2850   -0.0025 N   0  0  0  0  0  0  0  0  0  0  0  0
    0.7842   -1.9172    0.8139 H   0  0  0  0  0  0  0  0  0  0  0  0
    0.7929   -1.9040   -0.8280 H   0  0  0  0  0  0  0  0  0  0  0  0
   -0.0979    1.3161    0.0087 C   0  0  0  0  0  3  0  0  0  0  0  0
    3.6353    1.8139    0.0133 N   0  0  0  0  0  0  0  0  0  0  0  0
    2.3019    2.0988    0.0144 C   0  0  0  0  0  0  0  0  0  0  0  0
    1.3170    1.0528    0.0137 C   0  0  0  0  0  0  0  0  0  0  0  0
    4.0434    0.5498    0.0147 C   0  0  0  0  0  0  0  0  0  0  0  0
    1.7914   -0.2751    0.0110 C   0  0  0  0  0  0  0  0  0  0  0  0
    5.1353   -2.1374    0.3436 C   0  0  0  0  0  0  0  0  0  0  0  0
    5.4895   -3.1619    0.1098 H   0  0  0  0  0  0  0  0  0  0  0  0
    5.2603   -2.0017    1.4406 H   0  0  0  0  0  0  0  0  0  0  0  0
    0.4741    3.6984    0.0109 C   0  0  0  0  0  0  0  0  0  0  0  0
    0.1180    4.7409    0.0109 H   0  0  0  0  0  0  0  0  0  0  0  0
    3.1472   -0.5802    0.0153 C   0  0  0  0  0  0  0  0  0  0  0  0
    5.5429    0.3233    0.0480 C   0  0  0  0  0  0  0  0  0  0  0  0
    5.8862    0.5039    1.0924 H   0  0  0  0  0  0  0  0  0  0  0  0
    6.0199    1.1167   -0.5610 H   0  0  0  0  0  0  0  0  0  0  0  0
   -0.4938    2.6520    0.0080 C   0  0  0  0  0  0  0  0  0  0  0  0
   -1.5669    2.9002    0.0047 H   0  0  0  0  0  0  0  0  0  0  0  0
    1.8405    3.4459    0.0129 C   0  0  0  0  0  0  0  0  0  0  0  0
    2.5884    4.2514    0.0137 H   0  0  0  0  0  0  0  0  0  0  0  0
    3.6521   -2.0081   -0.0225 C   0  0  0  0  0  0  0  0  0  0  0  0
    3.4975   -2.4131   -1.0506 H   0  0  0  0  0  0  0  0  0  0  0  0
    3.0362   -2.6535    0.6419 H   0  0  0  0  0  0  0  0  0  0  0  0
    5.9646   -1.0810   -0.3910 C   0  0  0  0  0  0  0  0  0  0  0  0
    5.8177   -1.1951   -1.4883 H   0  0  0  0  0  0  0  0  0  0  0  0
    7.0473   -1.2303   -0.2029 H   0  0  0  0  0  0  0  0  0  0  0  0
  1  9  1  0  0  0  0
  1  2  1  0  0  0  0
  3  1  1  0  0  0  0
  4  7  1  0  0  0  0
  5  6  2  0  0  0  0
  5  8  1  0  0  0  0
  7  6  1  0  0  0  0
  8 15  2  0  0  0  0
  8 16  1  0  0  0  0
  9  7  2  0  0  0  0
  9 15  1  0  0  0  0
 10 12  1  0  0  0  0
 11 10  1  0  0  0  0
 13 21  2  0  0  0  0
 14 13  1  0  0  0  0
 16 17  1  0  0  0  0
 18 16  1  0  0  0  0
 19  4  2  0  0  0  0
 19 13  1  0  0  0  0
 20 19  1  0  0  0  0
 21 22  1  0  0  0  0
 21  6  1  0  0  0  0
 23 15  1  0  0  0  0
 23 10  1  0  0  0  0
 23 25  1  0  0  0  0
 24 23  1  0  0  0  0
 26 28  1  0  0  0  0
 26 16  1  0  0  0  0
 26 10  1  0  0  0  0
 27 26  1  0  0  0  0
M  END
