5,18
q = -1.0

 26 28  0  0  1  0  0  0  0  0999 V2000
    4.5186    2.3976   -2.9716 F   0  0  0  0  0  0  0  0  0  0  0  0
    4.0922    3.1265   -0.9608 F   0  0  0  0  0  0  0  0  0  0  0  0
    3.5207    4.3161   -2.7029 F   0  0  0  0  0  0  0  0  0  0  0  0
   -2.4344    0.2777   -3.1979 O   0  0  0  0  0  0  0  0  0  0  0  0
   -1.5856   -0.5311   -1.2819 N   0  0  0  0  0  2  0  0  0  0  0  0
   -2.8662   -1.0554   -1.4118 C   0  0  0  0  0  0  0  0  0  0  0  0
   -3.6371   -1.9005   -0.5990 C   0  0  0  0  0  0  0  0  0  0  0  0
   -3.2366   -2.2683    0.3547 H   0  0  0  0  0  0  0  0  0  0  0  0
   -4.9230   -2.2166   -1.0612 C   0  0  0  0  0  0  0  0  0  0  0  0
   -5.5643   -2.8733   -0.4550 H   0  0  0  0  0  0  0  0  0  0  0  0
   -5.4237   -1.7095   -2.2827 C   0  0  0  0  0  0  0  0  0  0  0  0
   -6.4392   -1.9847   -2.6033 H   0  0  0  0  0  0  0  0  0  0  0  0
   -4.6610   -0.8524   -3.0965 C   0  0  0  0  0  0  0  0  0  0  0  0
   -5.0427   -0.4430   -4.0416 H   0  0  0  0  0  0  0  0  0  0  0  0
   -3.3878   -0.5452   -2.6243 C   0  0  0  0  0  0  0  0  0  0  0  0
   -1.3802    0.2531   -2.3440 C   0  0  2  0  0  3  0  0  0  0  0  0
   -0.1556    0.9959   -2.4306 C   0  0  0  0  0  0  0  0  0  0  0  0
    0.6817    0.7524   -1.2871 C   0  0  0  0  0  3  0  0  0  0  0  0
    1.8957    1.4673   -1.2375 C   0  0  0  0  0  0  0  0  0  0  0  0
    2.5799    1.3377   -0.3871 H   0  0  0  0  0  0  0  0  0  0  0  0
    2.2564    2.3531   -2.2658 C   0  0  0  0  0  0  0  0  0  0  0  0
    1.4153    2.5694   -3.3804 C   0  0  0  0  0  0  0  0  0  0  0  0
    1.7164    3.2768   -4.1655 H   0  0  0  0  0  0  0  0  0  0  0  0
    0.2013    1.8878   -3.4632 C   0  0  0  0  0  0  0  0  0  0  0  0
   -0.4749    2.0434   -4.3171 H   0  0  0  0  0  0  0  0  0  0  0  0
    3.5953    3.0513   -2.2186 C   0  0  0  0  0  0  0  0  0  0  0  0
  1 26  1  0  0  0  0
  3 26  1  0  0  0  0
  4 15  1  0  0  0  0
  4 16  1  0  0  0  0
  6  5  1  0  0  0  0
  6  7  1  0  0  0  0
  7  8  1  0  0  0  0
  9  7  2  0  0  0  0
  9 10  1  0  0  0  0
 11  9  1  0  0  0  0
 12 11  1  0  0  0  0
 13 15  1  0  0  0  0
 13 11  2  0  0  0  0
 14 13  1  0  0  0  0
 15  6  2  0  0  0  0
 16 17  1  1  0  0  0
 16  5  1  0  0  0  0
 17 18  1  0  0  0  0
 18 19  2  0  0  0  0
 19 20  1  0  0  0  0
 21 26  1  0  0  0  0
 21 19  1  0  0  0  0
 22 21  2  0  0  0  0
 23 22  1  0  0  0  0
 24 22  1  0  0  0  0
 24 17  2  0  0  0  0
 25 24  1  0  0  0  0
 26  2  1  0  0  0  0
M  END
