4,6
q = 0.0, confidence = 1.0

 24 25  0  0  1  0  0  0  0  0999 V2000
    0.4712    2.9851   -0.4910 N   0  0  0  0  0  0  0  0  0  0  0  0
   -1.3850    2.0132   -0.9356 N   0  0  0  0  0  0  0  0  0  0  0  0
   -0.4005    3.9851   -0.8367 N   0  0  0  0  0  0  0  0  0  0  0  0
   -1.6842   -0.2050   -0.4904 N   0  0  0  0  0  2  0  0  0  0  0  0
   -2.6861   -1.0878   -0.2594 N   0  0  0  0  0  0  0  0  0  0  0  0
   -0.0752    1.7466   -0.5483 C   0  0  0  0  0  2  0  0  0  0  0  0
   -1.5306    3.3763   -1.0971 C   0  0  0  0  0  0  0  0  0  0  0  0
   -2.4607    3.8738   -1.3945 H   0  0  0  0  0  0  0  0  0  0  0  0
    1.7813    3.3500    0.0182 C   0  0  0  0  0  0  0  0  0  0  0  0
    2.2072    2.4687    0.5268 H   0  0  0  0  0  0  0  0  0  0  0  0
    1.6550    4.1706    0.7478 H   0  0  0  0  0  0  0  0  0  0  0  0
    2.4407    3.6910   -0.8024 H   0  0  0  0  0  0  0  0  0  0  0  0
   -2.2811    0.9487   -0.8536 C   0  0  1  0  0  3  0  0  0  0  0  0
   -3.6767    0.8105   -0.9047 C   0  0  0  0  0  0  0  0  0  0  0  0
   -4.4324    1.5590   -1.1585 H   0  0  0  0  0  0  0  0  0  0  0  0
   -3.9071   -0.5166   -0.5129 C   0  0  0  0  0  0  0  0  0  0  0  0
   -5.1859   -1.2629   -0.3457 C   0  0  0  0  0  0  0  0  0  0  0  0
   -5.2068   -2.1891   -0.9555 H   0  0  0  0  0  0  0  0  0  0  0  0
   -6.0356   -0.6294   -0.6567 H   0  0  0  0  0  0  0  0  0  0  0  0
   -5.3525   -1.5542    0.7127 H   0  0  0  0  0  0  0  0  0  0  0  0
   -2.4251   -2.3988    0.3014 C   0  0  0  0  0  0  0  0  0  0  0  0
   -3.1985   -2.6300    1.0563 H   0  0  0  0  0  0  0  0  0  0  0  0
   -1.4419   -2.3608    0.8049 H   0  0  0  0  0  0  0  0  0  0  0  0
   -2.4293   -3.1843   -0.4792 H   0  0  0  0  0  0  0  0  0  0  0  0
  1  9  1  0  0  0  0
  2  6  1  0  0  0  0
  3  1  1  0  0  0  0
  4  5  1  0  0  0  0
  5 21  1  0  0  0  0
  6  1  1  0  0  0  0
  7  2  1  0  0  0  0
  7  3  2  0  0  0  0
  8  7  1  0  0  0  0
  9 10  1  0  0  0  0
  9 11  1  0  0  0  0
 12  9  1  0  0  0  0
 13  2  1  1  0  0  0
 13  4  1  0  0  0  0
 14 13  1  0  0  0  0
 14 16  2  0  0  0  0
 15 14  1  0  0  0  0
 16 17  1  0  0  0  0
 16  5  1  0  0  0  0
 17 20  1  0  0  0  0
 18 17  1  0  0  0  0
 19 17  1  0  0  0  0
 21 23  1  0  0  0  0
 21 22  1  0  0  0  0
 24 21  1  0  0  0  0
M  END
