1,3
q = -1.0

 21 22  0  0  0  0  0  0  0  0999 V2000
   -1.9025    0.0990    0.7180 N   0  0  0  0  0  2  0  0  0  0  0  0
   -2.7394   -0.7552    0.0569 N   0  0  0  0  0  0  0  0  0  0  0  0
   -0.7872   -1.2381   -1.2163 C   0  0  0  0  0  3  0  0  0  0  0  0
   -0.1699   -1.9622   -2.2572 C   0  0  0  0  0  0  0  0  0  0  0  0
    0.9022   -1.8107   -2.4568 H   0  0  0  0  0  0  0  0  0  0  0  0
   -0.8941   -2.8731   -3.0449 C   0  0  0  0  0  0  0  0  0  0  0  0
   -0.3835   -3.4229   -3.8509 H   0  0  0  0  0  0  0  0  0  0  0  0
   -2.2634   -3.0905   -2.8129 C   0  0  0  0  0  0  0  0  0  0  0  0
   -2.8281   -3.8032   -3.4318 H   0  0  0  0  0  0  0  0  0  0  0  0
   -2.9142   -2.3947   -1.7836 C   0  0  0  0  0  0  0  0  0  0  0  0
   -3.9858   -2.5578   -1.5939 H   0  0  0  0  0  0  0  0  0  0  0  0
   -2.1700   -1.4928   -1.0101 C   0  0  0  0  0  0  0  0  0  0  0  0
   -3.9800   -0.7321    0.6164 C   0  0  0  0  0  3  0  0  0  0  0  0
   -4.7892   -1.3561    0.2266 H   0  0  0  0  0  0  0  0  0  0  0  0
   -3.9375    0.1725    1.6754 C   0  0  0  0  0  0  0  0  0  0  0  0
   -4.7577    0.4418    2.3476 H   0  0  0  0  0  0  0  0  0  0  0  0
   -2.6133    0.6797    1.7111 C   0  0  0  0  0  0  0  0  0  0  0  0
   -2.0143    1.6848    2.6353 C   0  0  0  0  0  0  0  0  0  0  0  0
   -1.0292    1.3422    3.0077 H   0  0  0  0  0  0  0  0  0  0  0  0
   -2.6905    1.8682    3.4905 H   0  0  0  0  0  0  0  0  0  0  0  0
   -1.8407    2.6489    2.1125 H   0  0  0  0  0  0  0  0  0  0  0  0
  1 17  1  0  0  0  0
  2 13  1  0  0  0  0
  2  1  1  0  0  0  0
  3 12  1  0  0  0  0
  4  3  2  0  0  0  0
  5  4  1  0  0  0  0
  6  8  2  0  0  0  0
  6  4  1  0  0  0  0
  7  6  1  0  0  0  0
  8 10  1  0  0  0  0
  9  8  1  0  0  0  0
 10 11  1  0  0  0  0
 10 12  2  0  0  0  0
 12  2  1  0  0  0  0
 13 15  1  0  0  0  0
 14 13  1  0  0  0  0
 15 17  2  0  0  0  0
 15 16  1  0  0  0  0
 17 18  1  0  0  0  0
 18 19  1  0  0  0  0
 18 20  1  0  0  0  0
 21 18  1  0  0  0  0
M  END
