4,20
q = -1.0

 21 22  0  0  0  0  0  0  0  0999 V2000
   -5.6807    0.0361    0.0620 F   0  0  0  0  0  0  0  0  0  0  0  0
   -4.5395   -1.4252   -1.0953 F   0  0  0  0  0  0  0  0  0  0  0  0
   -4.4808   -1.4807    1.0799 F   0  0  0  0  0  0  0  0  0  0  0  0
    1.2872    1.9062   -0.0747 N   0  0  0  0  0  2  0  0  0  0  0  0
    0.1436    2.6294    0.0426 N   0  0  0  0  0  0  0  0  0  0  0  0
    2.3008    2.7828   -0.1388 C   0  0  0  0  0  3  0  0  0  0  0  0
    3.3272    2.4216   -0.2603 H   0  0  0  0  0  0  0  0  0  0  0  0
    1.8003    4.1034   -0.0512 C   0  0  0  0  0  0  0  0  0  0  0  0
    2.3709    5.0368   -0.0745 H   0  0  0  0  0  0  0  0  0  0  0  0
    0.4177    3.9671    0.0600 C   0  0  0  0  0  0  0  0  0  0  0  0
   -0.3803    4.7114    0.1374 H   0  0  0  0  0  0  0  0  0  0  0  0
   -1.0574    1.8842    0.0646 C   0  0  0  0  0  0  0  0  0  0  0  0
   -2.3191    2.4823    0.1918 C   0  0  0  0  0  0  0  0  0  0  0  0
   -2.4259    3.5718    0.2985 H   0  0  0  0  0  0  0  0  0  0  0  0
   -3.4571    1.6647    0.1794 C   0  0  0  0  0  0  0  0  0  0  0  0
   -4.4580    2.1029    0.2885 H   0  0  0  0  0  0  0  0  0  0  0  0
   -3.3108    0.2778    0.0092 C   0  0  0  0  0  0  0  0  0  0  0  0
   -2.0332   -0.2969   -0.1368 C   0  0  0  0  0  0  0  0  0  0  0  0
   -1.9540   -1.3780   -0.3205 H   0  0  0  0  0  0  0  0  0  0  0  0
   -0.8728    0.4849   -0.0706 C   0  0  0  0  0  3  0  0  0  0  0  0
   -4.5075   -0.6379    0.0088 C   0  0  0  0  0  0  0  0  0  0  0  0
  2 21  1  0  0  0  0
  4  5  1  0  0  0  0
  5 10  1  0  0  0  0
  5 12  1  0  0  0  0
  6  4  1  0  0  0  0
  6  8  1  0  0  0  0
  7  6  1  0  0  0  0
  8 10  2  0  0  0  0
  9  8  1  0  0  0  0
 10 11  1  0  0  0  0
 12 13  1  0  0  0  0
 13 14  1  0  0  0  0
 15 13  2  0  0  0  0
 15 16  1  0  0  0  0
 17 15  1  0  0  0  0
 18 20  1  0  0  0  0
 18 17  2  0  0  0  0
 19 18  1  0  0  0  0
 20 12  2  0  0  0  0
 21 17  1  0  0  0  0
 21  1  1  0  0  0  0
 21  3  1  0  0  0  0
M  END
