2,18
q = -1.0, confidence = 0.0

 22 23  0  0  0  0  0  0  0  0999 V2000
   -5.3766   -1.3157    0.0953 O   0  0  0  0  0  0  0  0  0  0  0  0
   -0.2149    1.8150   -0.0206 N   0  0  0  0  0  2  0  0  0  0  0  0
   -1.5709    1.7826    0.0463 N   0  0  0  0  0  0  0  0  0  0  0  0
    0.1499    3.1089   -0.0599 C   0  0  0  0  0  3  0  0  0  0  0  0
    1.2089    3.3735   -0.1405 H   0  0  0  0  0  0  0  0  0  0  0  0
   -0.9988    3.9288   -0.0040 C   0  0  0  0  0  0  0  0  0  0  0  0
   -1.0394    5.0222   -0.0149 H   0  0  0  0  0  0  0  0  0  0  0  0
   -2.0799    3.0483    0.0600 C   0  0  0  0  0  0  0  0  0  0  0  0
   -3.1580    3.2274    0.1014 H   0  0  0  0  0  0  0  0  0  0  0  0
   -2.1547    0.4946    0.0359 C   0  0  0  0  0  0  0  0  0  0  0  0
   -3.5487    0.3167    0.0993 C   0  0  0  0  0  0  0  0  0  0  0  0
   -4.2196    1.1810    0.1831 H   0  0  0  0  0  0  0  0  0  0  0  0
   -4.0497   -0.9957    0.0396 C   0  0  0  0  0  0  0  0  0  0  0  0
   -3.1515   -2.0775   -0.0986 C   0  0  0  0  0  0  0  0  0  0  0  0
   -3.5711   -3.0915   -0.1703 H   0  0  0  0  0  0  0  0  0  0  0  0
   -1.7722   -1.8539   -0.1584 C   0  0  0  0  0  0  0  0  0  0  0  0
   -1.1047   -2.7164   -0.3047 H   0  0  0  0  0  0  0  0  0  0  0  0
   -1.2181   -0.5588   -0.0678 C   0  0  0  0  0  3  0  0  0  0  0  0
   -6.3098   -0.2634    0.2020 C   0  0  0  0  0  0  0  0  0  0  0  0
   -6.1673    0.3300    1.1349 H   0  0  0  0  0  0  0  0  0  0  0  0
   -7.3126   -0.7296    0.2267 H   0  0  0  0  0  0  0  0  0  0  0  0
   -6.2585    0.4314   -0.6679 H   0  0  0  0  0  0  0  0  0  0  0  0
  1 19  1  0  0  0  0
  2  3  1  0  0  0  0
  3  8  1  0  0  0  0
  4  2  1  0  0  0  0
  4  6  1  0  0  0  0
  5  4  1  0  0  0  0
  6  8  2  0  0  0  0
  7  6  1  0  0  0  0
  8  9  1  0  0  0  0
 10  3  1  0  0  0  0
 10 11  1  0  0  0  0
 11 12  1  0  0  0  0
 13  1  1  0  0  0  0
 13 11  2  0  0  0  0
 14 13  1  0  0  0  0
 15 14  1  0  0  0  0
 16 14  2  0  0  0  0
 16 18  1  0  0  0  0
 17 16  1  0  0  0  0
 18 10  2  0  0  0  0
 19 21  1  0  0  0  0
 19 20  1  0  0  0  0
 22 19  1  0  0  0  0
M  END
