4,20
q = -1.0

 21 22  0  0  0  0  0  0  0  0999 V2000
   -5.6474    0.6860    0.5732 F   0  0  0  0  0  0  0  0  0  0  0  0
   -5.6424   -0.6370   -1.1611 F   0  0  0  0  0  0  0  0  0  0  0  0
   -5.5552   -1.4836    0.8423 F   0  0  0  0  0  0  0  0  0  0  0  0
    0.5510    1.8969   -0.0735 N   0  0  0  0  0  2  0  0  0  0  0  0
   -0.7953    2.0400    0.0137 N   0  0  0  0  0  0  0  0  0  0  0  0
    1.0749    3.1319   -0.1213 C   0  0  0  0  0  3  0  0  0  0  0  0
    2.1576    3.2629   -0.2169 H   0  0  0  0  0  0  0  0  0  0  0  0
    0.0407    4.0943   -0.0532 C   0  0  0  0  0  0  0  0  0  0  0  0
    0.1402    5.1838   -0.0694 H   0  0  0  0  0  0  0  0  0  0  0  0
   -1.1418    3.3602    0.0284 C   0  0  0  0  0  0  0  0  0  0  0  0
   -2.1883    3.6741    0.0833 H   0  0  0  0  0  0  0  0  0  0  0  0
   -1.5432    0.8398    0.0085 C   0  0  0  0  0  0  0  0  0  0  0  0
   -2.9406    0.8307    0.0889 C   0  0  0  0  0  0  0  0  0  0  0  0
   -3.5203    1.7584    0.1914 H   0  0  0  0  0  0  0  0  0  0  0  0
   -3.6049   -0.4039    0.0358 C   0  0  0  0  0  0  0  0  0  0  0  0
   -2.8660   -1.5927   -0.1164 C   0  0  0  0  0  0  0  0  0  0  0  0
   -3.3940   -2.5559   -0.1760 H   0  0  0  0  0  0  0  0  0  0  0  0
   -1.4667   -1.5505   -0.1947 C   0  0  0  0  0  0  0  0  0  0  0  0
   -0.9147   -2.4894   -0.3463 H   0  0  0  0  0  0  0  0  0  0  0  0
   -0.7603   -0.3366   -0.1045 C   0  0  0  0  0  3  0  0  0  0  0  0
   -5.1093   -0.4569    0.0750 C   0  0  0  0  0  0  0  0  0  0  0  0
  2 21  1  0  0  0  0
  4  5  1  0  0  0  0
  5 10  1  0  0  0  0
  6  4  1  0  0  0  0
  6  8  1  0  0  0  0
  7  6  1  0  0  0  0
  8 10  2  0  0  0  0
  9  8  1  0  0  0  0
 10 11  1  0  0  0  0
 12  5  1  0  0  0  0
 12 13  1  0  0  0  0
 13 14  1  0  0  0  0
 15 21  1  0  0  0  0
 15 13  2  0  0  0  0
 16 15  1  0  0  0  0
 17 16  1  0  0  0  0
 18 16  2  0  0  0  0
 18 20  1  0  0  0  0
 19 18  1  0  0  0  0
 20 12  2  0  0  0  0
 21  1  1  0  0  0  0
 21  3  1  0  0  0  0
M  END
