2,18
q = -1.0

 37 40  0  0  1  0  0  0  0  0999 V2000
    2.6265   -2.0290    0.0093 N   0  0  0  0  0  0  0  0  0  0  0  0
    2.2024    0.2753   -0.3692 N   0  0  0  0  0  2  0  0  0  0  0  0
    3.0170   -0.7022   -0.0543 C   0  0  1  0  0  3  0  0  0  0  0  0
    4.4512   -0.6375    0.3262 C   0  0  0  0  0  0  0  0  0  0  0  0
    5.3773    0.4236    0.3735 C   0  0  0  0  0  0  0  0  0  0  0  0
    5.1029    1.4382    0.0649 H   0  0  0  0  0  0  0  0  0  0  0  0
    6.6783    0.1544    0.8249 C   0  0  0  0  0  0  0  0  0  0  0  0
    7.4108    0.9744    0.8646 H   0  0  0  0  0  0  0  0  0  0  0  0
    7.0597   -1.1391    1.2255 C   0  0  0  0  0  0  0  0  0  0  0  0
    8.0852   -1.3217    1.5803 H   0  0  0  0  0  0  0  0  0  0  0  0
    6.1429   -2.2015    1.1645 C   0  0  0  0  0  0  0  0  0  0  0  0
    6.4392   -3.2189    1.4622 H   0  0  0  0  0  0  0  0  0  0  0  0
    4.8498   -1.9360    0.7060 C   0  0  0  0  0  0  0  0  0  0  0  0
    3.7138   -2.8842    0.4851 C   0  0  0  0  0  0  0  0  0  0  0  0
    3.9890   -3.6415   -0.2809 H   0  0  0  0  0  0  0  0  0  0  0  0
    3.4109   -3.4391    1.4011 H   0  0  0  0  0  0  0  0  0  0  0  0
    1.4569   -2.5858   -0.5746 C   0  0  0  0  0  0  0  0  0  0  0  0
    0.3208   -1.7896   -0.9013 C   0  0  0  0  0  2  0  0  0  0  0  0
   -0.6866   -2.4176   -1.6697 C   0  0  0  0  0  3  0  0  0  0  0  0
   -1.5467   -1.8240   -2.0058 H   0  0  0  0  0  0  0  0  0  0  0  0
   -0.6607   -3.7796   -2.0008 C   0  0  0  0  0  0  0  0  0  0  0  0
   -1.4854   -4.2177   -2.5836 H   0  0  0  0  0  0  0  0  0  0  0  0
    0.4035   -4.5731   -1.5544 C   0  0  0  0  0  0  0  0  0  0  0  0
    0.4321   -5.6533   -1.7621 H   0  0  0  0  0  0  0  0  0  0  0  0
    1.4602   -3.9756   -0.8592 C   0  0  0  0  0  0  0  0  0  0  0  0
    2.3048   -4.6081   -0.5564 H   0  0  0  0  0  0  0  0  0  0  0  0
    2.7088    1.5947   -0.5503 C   0  0  0  0  0  0  0  0  0  0  0  0
    2.8173    2.4774    0.5430 C   0  0  0  0  0  0  0  0  0  0  0  0
    2.4980    2.1375    1.5362 H   0  0  0  0  0  0  0  0  0  0  0  0
    3.3335    3.7650    0.3465 C   0  0  0  0  0  0  0  0  0  0  0  0
    3.4257    4.4483    1.2046 H   0  0  0  0  0  0  0  0  0  0  0  0
    3.7222    4.1886   -0.9363 C   0  0  0  0  0  0  0  0  0  0  0  0
    4.1205    5.2034   -1.0861 H   0  0  0  0  0  0  0  0  0  0  0  0
    3.5853    3.3165   -2.0277 C   0  0  0  0  0  0  0  0  0  0  0  0
    3.8728    3.6450   -3.0378 H   0  0  0  0  0  0  0  0  0  0  0  0
    3.0745    2.0235   -1.8387 C   0  0  0  0  0  0  0  0  0  0  0  0
    2.9515    1.3311   -2.6840 H   0  0  0  0  0  0  0  0  0  0  0  0
  1 14  1  0  0  0  0
  3  2  1  1  0  0  0
  3  1  1  0  0  0  0
  3  4  1  0  0  0  0
  4  5  2  0  0  0  0
  4 13  1  0  0  0  0
  5  7  1  0  0  0  0
  6  5  1  0  0  0  0
  7  8  1  0  0  0  0
  7  9  2  0  0  0  0
  9 10  1  0  0  0  0
 11  9  1  0  0  0  0
 11 12  1  0  0  0  0
 13 11  2  0  0  0  0
 14 13  1  0  0  0  0
 14 16  1  0  0  0  0
 15 14  1  0  0  0  0
 17  1  1  0  0  0  0
 18 17  1  0  0  0  0
 19 18  1  0  0  0  0
 20 19  1  0  0  0  0
 21 19  1  0  0  0  0
 21 23  2  0  0  0  0
 22 21  1  0  0  0  0
 23 25  1  0  0  0  0
 24 23  1  0  0  0  0
 25 17  2  0  0  0  0
 25 26  1  0  0  0  0
 27  2  1  0  0  0  0
 27 28  1  0  0  0  0
 28 29  1  0  0  0  0
 30 28  2  0  0  0  0
 30 31  1  0  0  0  0
 32 30  1  0  0  0  0
 33 32  1  0  0  0  0
 34 36  1  0  0  0  0
 34 32  2  0  0  0  0
 35 34  1  0  0  0  0
 36 27  2  0  0  0  0
 37 36  1  0  0  0  0
M  END
