2,9
q = -1.0, confidence = 0.0

 19 19  0  0  1  0  0  0  0  0999 V2000
    2.6542    1.9341   -0.9760 S   0  0  0  0  0  0  0  0  0  0  0  0
    2.4851   -0.2876    0.5266 N   0  0  0  0  0  2  0  0  0  0  0  0
   -1.0988    2.6748   -0.2453 O   0  0  0  0  0  0  0  0  0  0  0  0
    3.2662    0.7826    0.1802 C   0  0  1  0  0  3  0  0  0  0  0  0
    4.5552    0.9444    0.7363 C   0  0  0  0  0  0  0  0  0  0  0  0
    5.0353   -0.0012    1.6401 C   0  0  0  0  0  0  0  0  0  0  0  0
    4.2175   -1.0900    1.9960 C   0  0  0  0  0  0  0  0  0  0  0  0
    2.9515   -1.1929    1.4243 C   0  0  0  0  0  0  0  0  0  0  0  0
    0.8676    1.5188   -0.9262 C   0  0  0  0  0  3  0  0  0  0  0  0
    0.0438    2.3468    0.0535 C   0  0  0  0  0  0  0  0  0  0  0  0
    0.6475    2.7012    1.4017 C   0  0  0  0  0  0  0  0  0  0  0  0
    5.1520    1.8216    0.4501 H   0  0  0  0  0  0  0  0  0  0  0  0
    6.0390    0.1138    2.0762 H   0  0  0  0  0  0  0  0  0  0  0  0
    4.5529   -1.8561    2.7081 H   0  0  0  0  0  0  0  0  0  0  0  0
    2.2580   -2.0231    1.6368 H   0  0  0  0  0  0  0  0  0  0  0  0
    0.4716    1.6750   -1.9485 H   0  0  0  0  0  0  0  0  0  0  0  0
   -0.1258    3.1880    2.0225 H   0  0  0  0  0  0  0  0  0  0  0  0
    1.5115    3.3850    1.2715 H   0  0  0  0  0  0  0  0  0  0  0  0
    1.0255    1.7932    1.9136 H   0  0  0  0  0  0  0  0  0  0  0  0
  1  9  1  0  0  0  0
  2  8  1  0  0  0  0
  3 10  2  0  0  0  0
  4  1  1  6  0  0  0
  4  2  1  0  0  0  0
  4  5  1  0  0  0  0
  5  6  2  0  0  0  0
  6  7  1  0  0  0  0
  6 13  1  0  0  0  0
  7 14  1  0  0  0  0
  8 15  1  0  0  0  0
  8  7  2  0  0  0  0
  9 10  1  0  0  0  0
 10 11  1  0  0  0  0
 11 19  1  0  0  0  0
 11 17  1  0  0  0  0
 12  5  1  0  0  0  0
 16  9  1  0  0  0  0
 18 11  1  0  0  0  0
M  END
