1,4
q = -1.0

 26 27  0  0  1  0  0  0  0  0999 V2000
   -2.4267   -1.3706    0.1844 N   0  0  0  0  0  0  0  0  0  0  0  0
   -2.5112   -2.3260   -0.1946 H   0  0  0  0  0  0  0  0  0  0  0  0
   -2.7162   -1.4123    1.1729 H   0  0  0  0  0  0  0  0  0  0  0  0
   -1.2631    1.0348    0.1400 C   0  0  0  0  0  3  0  0  0  0  0  0
   -0.7133    2.2923    0.4670 C   0  0  0  0  0  0  0  0  0  0  0  0
    0.3434    2.3795    0.7585 H   0  0  0  0  0  0  0  0  0  0  0  0
   -1.4812    3.4680    0.4188 C   0  0  0  0  0  0  0  0  0  0  0  0
   -1.0140    4.4317    0.6763 H   0  0  0  0  0  0  0  0  0  0  0  0
   -2.8307    3.4172    0.0408 C   0  0  0  0  0  0  0  0  0  0  0  0
   -3.4335    4.3369   -0.0066 H   0  0  0  0  0  0  0  0  0  0  0  0
   -3.4122    2.1780   -0.2655 C   0  0  0  0  0  0  0  0  0  0  0  0
   -4.4761    2.1218   -0.5453 H   0  0  0  0  0  0  0  0  0  0  0  0
   -2.6478    0.9991   -0.2069 C   0  0  0  0  0  0  0  0  0  0  0  0
   -3.2431   -0.3580   -0.5502 C   0  0  2  0  0  0  0  0  0  0  0  0
   -3.0613   -0.5625   -1.6279 H   0  0  0  0  0  0  0  0  0  0  0  0
   -4.7256   -0.5291   -0.2751 C   0  0  0  0  0  0  0  0  0  0  0  0
   -5.2554   -0.2178    0.9953 C   0  0  0  0  0  0  0  0  0  0  0  0
   -4.5966    0.2117    1.7672 H   0  0  0  0  0  0  0  0  0  0  0  0
   -6.6131   -0.4265    1.2722 C   0  0  0  0  0  0  0  0  0  0  0  0
   -7.0135   -0.1779    2.2669 H   0  0  0  0  0  0  0  0  0  0  0  0
   -7.4639   -0.9426    0.2800 C   0  0  0  0  0  0  0  0  0  0  0  0
   -8.5310   -1.1026    0.4964 H   0  0  0  0  0  0  0  0  0  0  0  0
   -6.9488   -1.2487   -0.9885 C   0  0  0  0  0  0  0  0  0  0  0  0
   -7.6102   -1.6496   -1.7715 H   0  0  0  0  0  0  0  0  0  0  0  0
   -5.5867   -1.0446   -1.2611 C   0  0  0  0  0  0  0  0  0  0  0  0
   -5.1819   -1.2876   -2.2567 H   0  0  0  0  0  0  0  0  0  0  0  0
  1  3  1  0  0  0  0
  2  1  1  0  0  0  0
  4  5  1  0  0  0  0
  5  6  1  0  0  0  0
  7  5  2  0  0  0  0
  7  8  1  0  0  0  0
  9  7  1  0  0  0  0
 10  9  1  0  0  0  0
 11 13  1  0  0  0  0
 11  9  2  0  0  0  0
 12 11  1  0  0  0  0
 13  4  2  0  0  0  0
 14 15  1  6  0  0  0
 14 16  1  0  0  0  0
 14 13  1  0  0  0  0
 14  1  1  0  0  0  0
 16 17  1  0  0  0  0
 17 19  2  0  0  0  0
 17 18  1  0  0  0  0
 19 20  1  0  0  0  0
 21 22  1  0  0  0  0
 21 19  1  0  0  0  0
 23 21  2  0  0  0  0
 24 23  1  0  0  0  0
 25 23  1  0  0  0  0
 25 16  2  0  0  0  0
 26 25  1  0  0  0  0
M  END
