1,2
q = -1.0, confidence = 0.0

 31 31  0  0  1  0  0  0  0  0999 V2000
    2.9135   -1.0799   -0.4762 N   0  0  0  0  0  0  0  0  0  0  0  0
    1.6009    1.2385    0.0604 C   0  0  0  0  0  3  0  0  0  0  0  0
    1.0771    2.3797    0.6997 C   0  0  0  0  0  0  0  0  0  0  0  0
    1.7898    3.5922    0.7326 C   0  0  0  0  0  0  0  0  0  0  0  0
    3.0515    3.6917    0.1286 C   0  0  0  0  0  0  0  0  0  0  0  0
    3.6039    2.5620   -0.4954 C   0  0  0  0  0  0  0  0  0  0  0  0
    2.8963    1.3487   -0.5258 C   0  0  0  0  0  0  0  0  0  0  0  0
    3.4712    0.1122   -1.1870 C   0  0  2  0  0  0  0  0  0  0  0  0
    3.1034    0.0310   -2.6733 C   0  0  0  0  0  0  0  0  0  0  0  0
    3.6847   -1.5915    0.7203 C   0  0  0  0  0  0  0  0  0  0  0  0
    5.0077   -2.2092    0.2268 C   0  0  0  0  0  0  0  0  0  0  0  0
    2.8349   -2.6785    1.3937 C   0  0  0  0  0  0  0  0  0  0  0  0
    3.9601   -0.4653    1.7247 C   0  0  0  0  0  0  0  0  0  0  0  0
    2.8251   -1.8745   -1.1320 H   0  0  0  0  0  0  0  0  0  0  0  0
    0.0920    2.3413    1.1851 H   0  0  0  0  0  0  0  0  0  0  0  0
    1.3486    4.4658    1.2379 H   0  0  0  0  0  0  0  0  0  0  0  0
    3.6103    4.6396    0.1542 H   0  0  0  0  0  0  0  0  0  0  0  0
    4.6066    2.6196   -0.9513 H   0  0  0  0  0  0  0  0  0  0  0  0
    4.5812    0.1191   -1.1039 H   0  0  0  0  0  0  0  0  0  0  0  0
    3.5415   -0.8704   -3.1503 H   0  0  0  0  0  0  0  0  0  0  0  0
    3.4793    0.9264   -3.2044 H   0  0  0  0  0  0  0  0  0  0  0  0
    2.0006   -0.0086   -2.7920 H   0  0  0  0  0  0  0  0  0  0  0  0
    5.6528   -1.4646   -0.2816 H   0  0  0  0  0  0  0  0  0  0  0  0
    4.8164   -3.0457   -0.4767 H   0  0  0  0  0  0  0  0  0  0  0  0
    5.5827   -2.6140    1.0828 H   0  0  0  0  0  0  0  0  0  0  0  0
    1.9045   -2.2412    1.8084 H   0  0  0  0  0  0  0  0  0  0  0  0
    3.4100   -3.1447    2.2183 H   0  0  0  0  0  0  0  0  0  0  0  0
    2.5253   -3.4619    0.6750 H   0  0  0  0  0  0  0  0  0  0  0  0
    3.0154    0.0091    2.0528 H   0  0  0  0  0  0  0  0  0  0  0  0
    4.6107    0.3285    1.3103 H   0  0  0  0  0  0  0  0  0  0  0  0
    4.4693   -0.8939    2.6105 H   0  0  0  0  0  0  0  0  0  0  0  0
  1 10  1  0  0  0  0
  2  3  1  0  0  0  0
  3  4  2  0  0  0  0
  3 15  1  0  0  0  0
  4 16  1  0  0  0  0
  5 17  1  0  0  0  0
  5  4  1  0  0  0  0
  6  5  2  0  0  0  0
  7  6  1  0  0  0  0
  7  2  2  0  0  0  0
  8 19  1  1  0  0  0
  8  7  1  0  0  0  0
  8  1  1  0  0  0  0
  9  8  1  0  0  0  0
 10 12  1  0  0  0  0
 10 13  1  0  0  0  0
 11 10  1  0  0  0  0
 11 25  1  0  0  0  0
 12 26  1  0  0  0  0
 12 27  1  0  0  0  0
 13 29  1  0  0  0  0
 13 31  1  0  0  0  0
 14  1  1  0  0  0  0
 18  6  1  0  0  0  0
 20  9  1  0  0  0  0
 21  9  1  0  0  0  0
 22  9  1  0  0  0  0
 23 11  1  0  0  0  0
 24 11  1  0  0  0  0
 28 12  1  0  0  0  0
 30 13  1  0  0  0  0
M  END
