1,2
q = -1.0

 37 38  0  0  1  0  0  0  0  0999 V2000
    2.1438   -1.9692    0.2219 N   0  0  0  0  0  0  0  0  0  0  0  0
   -0.3729   -0.9440   -0.1695 C   0  0  0  0  0  3  0  0  0  0  0  0
   -1.7013   -0.6079    0.0688 C   0  0  0  0  0  0  0  0  0  0  0  0
   -1.9726    0.3848    0.4476 H   0  0  0  0  0  0  0  0  0  0  0  0
   -2.7788   -1.5154   -0.1649 C   0  0  0  0  0  0  0  0  0  0  0  0
   -4.1369   -1.1490    0.0716 C   0  0  0  0  0  0  0  0  0  0  0  0
   -4.3489   -0.1361    0.4503 H   0  0  0  0  0  0  0  0  0  0  0  0
   -5.1686   -2.0457   -0.1690 C   0  0  0  0  0  0  0  0  0  0  0  0
   -6.2122   -1.7486    0.0169 H   0  0  0  0  0  0  0  0  0  0  0  0
   -4.8851   -3.3514   -0.6543 C   0  0  0  0  0  0  0  0  0  0  0  0
   -5.7104   -4.0553   -0.8412 H   0  0  0  0  0  0  0  0  0  0  0  0
   -3.5731   -3.7390   -0.8906 C   0  0  0  0  0  0  0  0  0  0  0  0
   -3.3487   -4.7508   -1.2645 H   0  0  0  0  0  0  0  0  0  0  0  0
   -2.4933   -2.8397   -0.6556 C   0  0  0  0  0  0  0  0  0  0  0  0
   -1.1294   -3.1935   -0.8667 C   0  0  0  0  0  0  0  0  0  0  0  0
   -0.8943   -4.2147   -1.2116 H   0  0  0  0  0  0  0  0  0  0  0  0
   -0.1062   -2.2856   -0.6321 C   0  0  0  0  0  0  0  0  0  0  0  0
    1.3433   -2.6462   -0.8600 C   0  0  1  0  0  0  0  0  0  0  0  0
    1.4814   -3.7491   -0.7716 H   0  0  0  0  0  0  0  0  0  0  0  0
    1.7880   -2.2268   -2.2665 C   0  0  0  0  0  0  0  0  0  0  0  0
    2.8091   -2.5723   -2.5170 H   0  0  0  0  0  0  0  0  0  0  0  0
    1.7478   -1.1222   -2.3653 H   0  0  0  0  0  0  0  0  0  0  0  0
    1.0867   -2.6619   -3.0038 H   0  0  0  0  0  0  0  0  0  0  0  0
    3.5939   -2.0509   -0.0368 C   0  0  0  0  0  0  0  0  0  0  0  0
    3.9053   -3.0983   -0.2445 H   0  0  0  0  0  0  0  0  0  0  0  0
    4.1455   -1.6616    0.8357 H   0  0  0  0  0  0  0  0  0  0  0  0
    3.8640   -1.4037   -0.8869 H   0  0  0  0  0  0  0  0  0  0  0  0
    1.7909   -2.5421    1.5801 C   0  0  0  0  0  0  0  0  0  0  0  0
    0.6859   -2.6272    1.5603 H   0  0  0  0  0  0  0  0  0  0  0  0
    2.1614   -1.5770    2.7046 C   0  0  0  0  0  0  0  0  0  0  0  0
    1.6585   -0.5988    2.5594 H   0  0  0  0  0  0  0  0  0  0  0  0
    3.2519   -1.3871    2.7570 H   0  0  0  0  0  0  0  0  0  0  0  0
    1.8409   -2.0015    3.6771 H   0  0  0  0  0  0  0  0  0  0  0  0
    2.3708   -3.9410    1.8265 C   0  0  0  0  0  0  0  0  0  0  0  0
    2.1485   -4.6476    1.0021 H   0  0  0  0  0  0  0  0  0  0  0  0
    1.9199   -4.3617    2.7467 H   0  0  0  0  0  0  0  0  0  0  0  0
    3.4686   -3.9172    1.9778 H   0  0  0  0  0  0  0  0  0  0  0  0
  1 28  1  0  0  0  0
  2  3  1  0  0  0  0
  3  4  1  0  0  0  0
  5  3  2  0  0  0  0
  5  6  1  0  0  0  0
  6  7  1  0  0  0  0
  8  9  1  0  0  0  0
  8  6  2  0  0  0  0
 10  8  1  0  0  0  0
 11 10  1  0  0  0  0
 12 14  1  0  0  0  0
 12 10  2  0  0  0  0
 13 12  1  0  0  0  0
 14  5  1  0  0  0  0
 15 14  2  0  0  0  0
 15 17  1  0  0  0  0
 16 15  1  0  0  0  0
 17  2  2  0  0  0  0
 18 19  1  1  0  0  0
 18 17  1  0  0  0  0
 18  1  1  0  0  0  0
 20 18  1  0  0  0  0
 21 20  1  0  0  0  0
 22 20  1  0  0  0  0
 23 20  1  0  0  0  0
 24  1  1  0  0  0  0
 24 26  1  0  0  0  0
 25 24  1  0  0  0  0
 27 24  1  0  0  0  0
 28 34  1  0  0  0  0
 28 30  1  0  0  0  0
 29 28  1  0  0  0  0
 30 32  1  0  0  0  0
 30 33  1  0  0  0  0
 31 30  1  0  0  0  0
 34 37  1  0  0  0  0
 34 36  1  0  0  0  0
 35 34  1  0  0  0  0
M  END
