2,19
q = -1.0

 48 51  0  0  0  0  0  0  0  0999 V2000
    1.7733   -1.9359    1.4530 N   0  0  0  0  0  0  0  0  0  0  0  0
    0.1873   -0.4085    1.1584 N   0  0  0  0  0  2  0  0  0  0  0  0
    0.4925   -1.5691    1.7392 C   0  0  0  0  0  3  0  0  0  0  0  0
    1.3116    0.0051    0.4627 C   0  0  0  0  0  0  0  0  0  0  0  0
    2.3239   -0.9468    0.6387 C   0  0  0  0  0  0  0  0  0  0  0  0
    3.6760   -0.9967    0.0653 C   0  0  0  0  0  0  0  0  0  0  0  0
    3.8642   -0.6606   -1.2965 C   0  0  0  0  0  0  0  0  0  0  0  0
    5.1437   -0.6781   -1.8636 C   0  0  0  0  0  0  0  0  0  0  0  0
    6.2588   -1.0369   -1.0880 C   0  0  0  0  0  0  0  0  0  0  0  0
    6.0858   -1.3702    0.2640 C   0  0  0  0  0  0  0  0  0  0  0  0
    4.8072   -1.3457    0.8391 C   0  0  0  0  0  0  0  0  0  0  0  0
    1.4057    1.2806   -0.2661 C   0  0  0  0  0  0  0  0  0  0  0  0
    0.4914    1.6172   -1.3055 C   0  0  0  0  0  0  0  0  0  0  0  0
    0.6885    2.8450   -1.9786 C   0  0  0  0  0  0  0  0  0  0  0  0
    1.7190    3.7230   -1.6281 C   0  0  0  0  0  0  0  0  0  0  0  0
    2.6135    3.3818   -0.5994 C   0  0  0  0  0  0  0  0  0  0  0  0
    2.4561    2.1649    0.0688 C   0  0  0  0  0  0  0  0  0  0  0  0
   -0.6037    0.7027   -1.7307 C   0  0  0  0  0  0  0  0  0  0  0  0
   -1.5470    0.1986   -0.8802 C   0  0  0  0  0  3  0  0  0  0  0  0
   -2.5510   -0.7580   -1.4133 C   0  0  0  0  0  0  0  0  0  0  0  0
   -2.2078   -2.1226   -1.5722 C   0  0  0  0  0  0  0  0  0  0  0  0
   -3.1422   -3.0564   -2.0411 C   0  0  0  0  0  0  0  0  0  0  0  0
   -4.4453   -2.6497   -2.3698 C   0  0  0  0  0  0  0  0  0  0  0  0
   -4.7991   -1.2984   -2.2262 C   0  0  0  0  0  0  0  0  0  0  0  0
   -3.8661   -0.3646   -1.7524 C   0  0  0  0  0  0  0  0  0  0  0  0
   -0.5753    0.3736   -3.2153 C   0  0  0  0  0  0  0  0  0  0  0  0
    2.3922   -3.1814    1.8754 C   0  0  0  0  0  0  0  0  0  0  0  0
   -0.1807   -2.1761    2.3538 H   0  0  0  0  0  0  0  0  0  0  0  0
    2.9905   -0.3871   -1.9057 H   0  0  0  0  0  0  0  0  0  0  0  0
    5.2709   -0.4145   -2.9244 H   0  0  0  0  0  0  0  0  0  0  0  0
    7.2633   -1.0526   -1.5370 H   0  0  0  0  0  0  0  0  0  0  0  0
    6.9555   -1.6396    0.8822 H   0  0  0  0  0  0  0  0  0  0  0  0
    4.6916   -1.5690    1.9098 H   0  0  0  0  0  0  0  0  0  0  0  0
   -0.0097    3.1248   -2.7814 H   0  0  0  0  0  0  0  0  0  0  0  0
    1.8229    4.6835   -2.1555 H   0  0  0  0  0  0  0  0  0  0  0  0
    3.4265    4.0665   -0.3156 H   0  0  0  0  0  0  0  0  0  0  0  0
    3.1472    1.8835    0.8775 H   0  0  0  0  0  0  0  0  0  0  0  0
   -1.1853   -2.4424   -1.3155 H   0  0  0  0  0  0  0  0  0  0  0  0
   -2.8494   -4.1122   -2.1536 H   0  0  0  0  0  0  0  0  0  0  0  0
   -5.1808   -3.3816   -2.7367 H   0  0  0  0  0  0  0  0  0  0  0  0
   -5.8154   -0.9647   -2.4876 H   0  0  0  0  0  0  0  0  0  0  0  0
   -4.1539    0.6914   -1.6451 H   0  0  0  0  0  0  0  0  0  0  0  0
   -1.4099   -0.2886   -3.5084 H   0  0  0  0  0  0  0  0  0  0  0  0
   -0.6349    1.2917   -3.8376 H   0  0  0  0  0  0  0  0  0  0  0  0
    0.3788   -0.1258   -3.4934 H   0  0  0  0  0  0  0  0  0  0  0  0
    1.6004   -3.9235    2.0868 H   0  0  0  0  0  0  0  0  0  0  0  0
    3.0415   -3.5680    1.0682 H   0  0  0  0  0  0  0  0  0  0  0  0
    3.0057   -3.0437    2.7884 H   0  0  0  0  0  0  0  0  0  0  0  0
  1  3  1  0  0  0  0
  1 27  1  0  0  0  0
  2  3  1  0  0  0  0
  3 28  1  0  0  0  0
  4  5  2  0  0  0  0
  4  2  1  0  0  0  0
  5  1  1  0  0  0  0
  6  5  1  0  0  0  0
  6 11  1  0  0  0  0
  7  6  2  0  0  0  0
  8  7  1  0  0  0  0
  8  9  2  0  0  0  0
  9 10  1  0  0  0  0
 10 11  2  0  0  0  0
 10 32  1  0  0  0  0
 11 33  1  0  0  0  0
 12 17  1  0  0  0  0
 12  4  1  0  0  0  0
 13 12  2  0  0  0  0
 14 15  2  0  0  0  0
 14 13  1  0  0  0  0
 15 16  1  0  0  0  0
 16 36  1  0  0  0  0
 16 17  2  0  0  0  0
 17 37  1  0  0  0  0
 18 13  1  0  0  0  0
 18 19  2  0  0  0  0
 20 19  1  0  0  0  0
 21 20  1  0  0  0  0
 21 38  1  0  0  0  0
 22 21  2  0  0  0  0
 23 24  2  0  0  0  0
 23 22  1  0  0  0  0
 24 25  1  0  0  0  0
 25 42  1  0  0  0  0
 25 20  2  0  0  0  0
 26 18  1  0  0  0  0
 27 46  1  0  0  0  0
 27 48  1  0  0  0  0
 29  7  1  0  0  0  0
 30  8  1  0  0  0  0
 31  9  1  0  0  0  0
 34 14  1  0  0  0  0
 35 15  1  0  0  0  0
 39 22  1  0  0  0  0
 40 23  1  0  0  0  0
 41 24  1  0  0  0  0
 43 26  1  0  0  0  0
 44 26  1  0  0  0  0
 45 26  1  0  0  0  0
 47 27  1  0  0  0  0
M  END
