3,4
q = -1.0, confidence = 0.0

 48 49  0  0  1  0  0  0  0  0999 V2000
   -3.5404   -2.3303   -1.6627 O   0  0  0  0  0  0  0  0  0  0  0  0
   -1.2656   -2.2539   -1.7742 O   0  0  0  0  0  0  0  0  0  0  0  0
   -1.9143   -0.1005    0.0064 N   0  0  0  0  0  2  0  0  0  0  0  0
   -0.0587    1.7335   -0.6077 C   0  0  0  0  0  3  0  0  0  0  0  0
    0.3945    2.9327   -0.0248 C   0  0  0  0  0  0  0  0  0  0  0  0
    1.0088    2.9051    0.8886 H   0  0  0  0  0  0  0  0  0  0  0  0
    0.0938    4.1764   -0.6063 C   0  0  0  0  0  0  0  0  0  0  0  0
   -0.6629    4.2367   -1.7866 C   0  0  0  0  0  0  0  0  0  0  0  0
   -1.1395    3.0490   -2.3639 C   0  0  0  0  0  0  0  0  0  0  0  0
   -0.8547    1.7988   -1.7792 C   0  0  0  0  0  0  0  0  0  0  0  0
   -1.4019    0.5123   -2.3529 C   0  0  0  0  0  0  0  0  0  0  0  0
   -0.5617   -0.1822   -2.5552 H   0  0  0  0  0  0  0  0  0  0  0  0
   -1.9318    0.6892   -3.3103 H   0  0  0  0  0  0  0  0  0  0  0  0
   -2.3800   -0.2016   -1.3872 C   0  0  1  0  0  0  0  0  0  0  0  0
   -2.4887   -1.7181   -1.6467 C   0  0  0  0  0  0  0  0  0  0  0  0
   -1.1226   -3.6935   -1.7035 C   0  0  0  0  0  0  0  0  0  0  0  0
   -0.8267   -3.9064   -0.6541 H   0  0  0  0  0  0  0  0  0  0  0  0
   -2.1096   -4.1544   -1.9069 H   0  0  0  0  0  0  0  0  0  0  0  0
   -0.0589   -4.1240   -2.6921 C   0  0  0  0  0  0  0  0  0  0  0  0
    0.1025   -5.2181   -2.6149 H   0  0  0  0  0  0  0  0  0  0  0  0
    0.9053   -3.6206   -2.4819 H   0  0  0  0  0  0  0  0  0  0  0  0
   -0.3599   -3.8925   -3.7334 H   0  0  0  0  0  0  0  0  0  0  0  0
   -2.7360   -0.0018    0.9965 C   0  0  0  0  0  3  0  0  0  0  0  0
   -2.2600   -0.0265    1.9974 H   0  0  0  0  0  0  0  0  0  0  0  0
   -4.2101    0.1503    0.9126 C   0  0  0  0  0  0  0  0  0  0  0  0
   -4.7552    1.4278    0.6142 C   0  0  0  0  0  0  0  0  0  0  0  0
   -3.8592    2.6152    0.3595 C   0  0  0  0  0  0  0  0  0  0  0  0
   -4.4504    3.5426    0.2395 H   0  0  0  0  0  0  0  0  0  0  0  0
   -3.2369    2.4932   -0.5514 H   0  0  0  0  0  0  0  0  0  0  0  0
   -3.1402    2.7733    1.1900 H   0  0  0  0  0  0  0  0  0  0  0  0
   -6.1533    1.5615    0.5884 C   0  0  0  0  0  0  0  0  0  0  0  0
   -7.0125    0.4787    0.8575 C   0  0  0  0  0  0  0  0  0  0  0  0
   -8.5096    0.6464    0.7881 C   0  0  0  0  0  0  0  0  0  0  0  0
   -8.8218    1.6654    1.0914 H   0  0  0  0  0  0  0  0  0  0  0  0
   -9.0335   -0.0846    1.4347 H   0  0  0  0  0  0  0  0  0  0  0  0
   -8.8776    0.4886   -0.2488 H   0  0  0  0  0  0  0  0  0  0  0  0
   -6.4376   -0.7646    1.1731 C   0  0  0  0  0  0  0  0  0  0  0  0
   -5.0446   -0.9545    1.2086 C   0  0  0  0  0  0  0  0  0  0  0  0
   -4.4581   -2.3116    1.5017 C   0  0  0  0  0  0  0  0  0  0  0  0
   -5.1443   -2.9233    2.1185 H   0  0  0  0  0  0  0  0  0  0  0  0
   -3.4777   -2.2525    2.0165 H   0  0  0  0  0  0  0  0  0  0  0  0
   -4.2797   -2.8523    0.5485 H   0  0  0  0  0  0  0  0  0  0  0  0
    0.4640    5.1015   -0.1373 H   0  0  0  0  0  0  0  0  0  0  0  0
   -0.8884    5.2070   -2.2547 H   0  0  0  0  0  0  0  0  0  0  0  0
   -1.7460    3.0887   -3.2840 H   0  0  0  0  0  0  0  0  0  0  0  0
   -3.4066    0.2048   -1.4754 H   0  0  0  0  0  0  0  0  0  0  0  0
   -6.5850    2.5506    0.3643 H   0  0  0  0  0  0  0  0  0  0  0  0
   -7.0933   -1.6211    1.3994 H   0  0  0  0  0  0  0  0  0  0  0  0
  1 15  2  0  0  0  0
  2 16  1  0  0  0  0
  2 15  1  0  0  0  0
  3 23  1  0  0  0  0
  4  5  1  0  0  0  0
  5  6  1  0  0  0  0
  7 43  1  0  0  0  0
  7  5  2  0  0  0  0
  8  7  1  0  0  0  0
  9  8  2  0  0  0  0
  9 10  1  0  0  0  0
 10  4  2  0  0  0  0
 11 10  1  0  0  0  0
 11 14  1  0  0  0  0
 12 11  1  0  0  0  0
 13 11  1  0  0  0  0
 14 46  1  6  0  0  0
 14  3  1  0  0  0  0
 15 14  1  0  0  0  0
 16 17  1  0  0  0  0
 18 16  1  0  0  0  0
 19 20  1  0  0  0  0
 19 21  1  0  0  0  0
 19 16  1  0  0  0  0
 22 19  1  0  0  0  0
 23 24  1  0  0  0  0
 25 23  1  0  0  0  0
 25 38  1  0  0  0  0
 26 25  2  0  0  0  0
 27 26  1  0  0  0  0
 27 30  1  0  0  0  0
 28 27  1  0  0  0  0
 29 27  1  0  0  0  0
 31 26  1  0  0  0  0
 31 32  2  0  0  0  0
 32 37  1  0  0  0  0
 33 32  1  0  0  0  0
 33 34  1  0  0  0  0
 33 35  1  0  0  0  0
 36 33  1  0  0  0  0
 37 38  2  0  0  0  0
 37 48  1  0  0  0  0
 38 39  1  0  0  0  0
 39 41  1  0  0  0  0
 39 40  1  0  0  0  0
 42 39  1  0  0  0  0
 44  8  1  0  0  0  0
 45  9  1  0  0  0  0
 47 31  1  0  0  0  0
M  END
