15,16
q = -1.0

 27 29  0  0  0  0  0  0  0  0999 V2000
    3.0861   -1.5979   -0.2569 S   0  0  0  0  0  0  0  0  0  0  0  0
    3.0896   -3.3642   -0.2152 C   0  0  0  0  0  0  0  0  0  0  0  0
    4.1993   -4.2123   -0.3526 C   0  0  0  0  0  0  0  0  0  0  0  0
    5.2078   -3.8000   -0.5036 H   0  0  0  0  0  0  0  0  0  0  0  0
    3.9895   -5.5962   -0.2931 C   0  0  0  0  0  0  0  0  0  0  0  0
    4.8449   -6.2801   -0.3983 H   0  0  0  0  0  0  0  0  0  0  0  0
    2.6920   -6.1191   -0.0999 C   0  0  0  0  0  0  0  0  0  0  0  0
    2.5480   -7.2091   -0.0556 H   0  0  0  0  0  0  0  0  0  0  0  0
    1.5879   -5.2711    0.0359 C   0  0  0  0  0  0  0  0  0  0  0  0
    0.5818   -5.6921    0.1856 H   0  0  0  0  0  0  0  0  0  0  0  0
    1.7698   -3.8711   -0.0178 C   0  0  0  0  0  0  0  0  0  0  0  0
    0.8138   -2.7883    0.0899 C   0  0  0  0  0  0  0  0  0  0  0  0
   -0.6011   -2.8276    0.2805 C   0  0  0  0  0  3  0  0  0  0  0  0
   -1.1386   -3.7800    0.4559 H   0  0  0  0  0  0  0  0  0  0  0  0
    1.3757   -1.4975   -0.0029 C   0  0  0  0  0  3  0  0  0  0  0  0
   -1.2612   -1.6885    0.2931 N   0  0  0  0  0  2  0  0  0  0  0  0
   -2.6525   -1.6763    0.5232 C   0  0  0  0  0  0  0  0  0  0  0  0
   -3.1905   -0.7291    1.4202 C   0  0  0  0  0  0  0  0  0  0  0  0
   -2.5065   -0.0280    1.9199 H   0  0  0  0  0  0  0  0  0  0  0  0
   -4.5680   -0.6902    1.6600 C   0  0  0  0  0  0  0  0  0  0  0  0
   -4.9752    0.0561    2.3582 H   0  0  0  0  0  0  0  0  0  0  0  0
   -5.4297   -1.5849    1.0030 C   0  0  0  0  0  0  0  0  0  0  0  0
   -6.5141   -1.5414    1.1829 H   0  0  0  0  0  0  0  0  0  0  0  0
   -4.9000   -2.5242    0.1046 C   0  0  0  0  0  0  0  0  0  0  0  0
   -5.5688   -3.2195   -0.4256 H   0  0  0  0  0  0  0  0  0  0  0  0
   -3.5203   -2.5725   -0.1386 C   0  0  0  0  0  0  0  0  0  0  0  0
   -3.1084   -3.2826   -0.8714 H   0  0  0  0  0  0  0  0  0  0  0  0
  1  2  1  0  0  0  0
  1 15  1  0  0  0  0
  2 11  1  0  0  0  0
  3  5  1  0  0  0  0
  3  2  2  0  0  0  0
  4  3  1  0  0  0  0
  5  7  2  0  0  0  0
  6  5  1  0  0  0  0
  7  8  1  0  0  0  0
  7  9  1  0  0  0  0
  9 10  1  0  0  0  0
 11  9  2  0  0  0  0
 11 12  1  0  0  0  0
 12 13  1  0  0  0  0
 13 16  1  0  0  0  0
 13 14  1  0  0  0  0
 15 12  2  0  0  0  0
 16 17  1  0  0  0  0
 17 18  1  0  0  0  0
 18 20  2  0  0  0  0
 18 19  1  0  0  0  0
 20 21  1  0  0  0  0
 22 23  1  0  0  0  0
 22 20  1  0  0  0  0
 24 22  2  0  0  0  0
 25 24  1  0  0  0  0
 26 24  1  0  0  0  0
 26 17  2  0  0  0  0
 27 26  1  0  0  0  0
M  END
