3,17
q = -1.0

 28 30  0  0  1  0  0  0  0  0999 V2000
   -1.7826    1.9750   -0.0591 C   0  0  2  0  0  3  0  0  0  0  0  0
    0.5962    1.3606   -0.4785 C   0  0  1  0  0  3  0  0  0  0  0  0
   -1.9979    0.6373   -0.0265 N   0  0  0  0  0  2  0  0  0  0  0  0
   -4.3706    0.9973   -0.1665 C   0  0  0  0  0  0  0  0  0  0  0  0
   -5.3801    0.5634   -0.2140 H   0  0  0  0  0  0  0  0  0  0  0  0
   -3.2562    0.1522   -0.0902 C   0  0  0  0  0  0  0  0  0  0  0  0
   -3.3251   -0.9466   -0.0803 H   0  0  0  0  0  0  0  0  0  0  0  0
    2.9209    2.1657    0.4566 C   0  0  0  0  0  0  0  0  0  0  0  0
    2.5339    3.0207    1.0332 H   0  0  0  0  0  0  0  0  0  0  0  0
    1.4136   -0.4190   -1.6683 C   0  0  0  0  0  3  0  0  0  0  0  0
    1.4869   -1.2345   -2.3989 H   0  0  0  0  0  0  0  0  0  0  0  0
    3.9296   -0.0734   -0.9870 C   0  0  0  0  0  0  0  0  0  0  0  0
    4.3187   -0.9504   -1.5272 H   0  0  0  0  0  0  0  0  0  0  0  0
   -0.3418    2.4276    0.0142 C   0  0  0  0  0  0  0  0  0  0  0  0
   -0.2247    3.3834   -0.5469 H   0  0  0  0  0  0  0  0  0  0  0  0
   -0.1009    2.6605    1.0770 H   0  0  0  0  0  0  0  0  0  0  0  0
    0.2961    0.4833   -1.5976 C   0  0  0  0  0  3  0  0  0  0  0  0
   -0.5563    0.5278   -2.2866 H   0  0  0  0  0  0  0  0  0  0  0  0
    2.5700    0.2376   -1.0262 C   0  0  0  0  0  0  0  0  0  0  0  0
   -2.8567    2.8775   -0.1457 C   0  0  0  0  0  0  0  0  0  0  0  0
   -2.6520    3.9582   -0.1772 H   0  0  0  0  0  0  0  0  0  0  0  0
    2.0641    1.3613   -0.2947 C   0  0  0  0  0  0  0  0  0  0  0  0
    4.7984    0.7525   -0.2322 C   0  0  0  0  0  0  0  0  0  0  0  0
    5.8749    0.5209   -0.1985 H   0  0  0  0  0  0  0  0  0  0  0  0
    4.3030    1.8551    0.4764 C   0  0  0  0  0  0  0  0  0  0  0  0
    4.9928    2.4840    1.0616 H   0  0  0  0  0  0  0  0  0  0  0  0
   -4.1686    2.3844   -0.1918 C   0  0  0  0  0  0  0  0  0  0  0  0
   -5.0223    3.0774   -0.2557 H   0  0  0  0  0  0  0  0  0  0  0  0
  1  3  1  0  0  0  0
  1 14  1  1  0  0  0
  2 22  1  0  0  0  0
  2 14  1  6  0  0  0
  4  6  2  0  0  0  0
  5  4  1  0  0  0  0
  6  7  1  0  0  0  0
  6  3  1  0  0  0  0
  8 25  1  0  0  0  0
  8  9  1  0  0  0  0
 10 17  1  0  0  0  0
 10 19  1  0  0  0  0
 11 10  1  0  0  0  0
 12 23  1  0  0  0  0
 13 12  1  0  0  0  0
 14 16  1  0  0  0  0
 15 14  1  0  0  0  0
 17  2  1  0  0  0  0
 18 17  1  0  0  0  0
 19 12  2  0  0  0  0
 19 22  1  0  0  0  0
 20  1  1  0  0  0  0
 21 20  1  0  0  0  0
 22  8  2  0  0  0  0
 23 24  1  0  0  0  0
 23 25  2  0  0  0  0
 25 26  1  0  0  0  0
 27  4  1  0  0  0  0
 27 20  2  0  0  0  0
 28 27  1  0  0  0  0
M  END
