1,5
q = -1.0

 29 30  0  0  0  0  0  0  0  0999 V2000
   -1.2928   -0.4990   -1.4226 N   0  0  0  0  0  2  0  0  0  0  0  0
   -1.2510   -1.3356   -2.0116 H   0  0  0  0  0  0  0  0  0  0  0  0
   -1.6369    1.9241   -0.0860 N   0  0  0  0  0  0  0  0  0  0  0  0
    0.3883    2.5835    0.3850 N   0  0  0  0  0  0  0  0  0  0  0  0
   -0.3526    1.4592    0.1198 C   0  0  0  0  0  2  0  0  0  0  0  0
   -1.6778    3.3107    0.0390 C   0  0  0  0  0  0  0  0  0  0  0  0
   -2.5919    3.8827   -0.1346 H   0  0  0  0  0  0  0  0  0  0  0  0
   -0.4086    3.7211    0.3379 C   0  0  0  0  0  0  0  0  0  0  0  0
   -0.0069    4.7257    0.4941 H   0  0  0  0  0  0  0  0  0  0  0  0
   -2.7711    1.1148   -0.3966 C   0  0  0  0  0  0  0  0  0  0  0  0
   -2.5554   -0.0901   -1.1466 C   0  0  0  0  0  0  0  0  0  0  0  0
   -3.7310   -0.7835   -1.5688 C   0  0  0  0  0  0  0  0  0  0  0  0
   -3.6016   -1.6947   -2.1744 H   0  0  0  0  0  0  0  0  0  0  0  0
   -5.0111   -0.3397   -1.2290 C   0  0  0  0  0  0  0  0  0  0  0  0
   -5.8871   -0.9128   -1.5711 H   0  0  0  0  0  0  0  0  0  0  0  0
   -5.1906    0.8110   -0.4383 C   0  0  0  0  0  0  0  0  0  0  0  0
   -6.1954    1.1447   -0.1440 H   0  0  0  0  0  0  0  0  0  0  0  0
   -4.0577    1.5320   -0.0307 C   0  0  0  0  0  0  0  0  0  0  0  0
   -4.1761    2.4369    0.5842 H   0  0  0  0  0  0  0  0  0  0  0  0
    1.8467    2.6196    0.6017 C   0  0  0  0  0  0  0  0  0  0  0  0
    2.1464    1.5520    0.5737 H   0  0  0  0  0  0  0  0  0  0  0  0
    2.5417    3.3513   -0.5484 C   0  0  0  0  0  0  0  0  0  0  0  0
    2.2836    2.8759   -1.5139 H   0  0  0  0  0  0  0  0  0  0  0  0
    3.6402    3.2879   -0.4202 H   0  0  0  0  0  0  0  0  0  0  0  0
    2.2627    4.4252   -0.5772 H   0  0  0  0  0  0  0  0  0  0  0  0
    2.1825    3.2268    1.9659 C   0  0  0  0  0  0  0  0  0  0  0  0
    1.9292    4.3064    2.0088 H   0  0  0  0  0  0  0  0  0  0  0  0
    3.2697    3.1353    2.1579 H   0  0  0  0  0  0  0  0  0  0  0  0
    1.6402    2.7167    2.7843 H   0  0  0  0  0  0  0  0  0  0  0  0
  1 11  1  0  0  0  0
  2  1  1  0  0  0  0
  3  6  1  0  0  0  0
  3  5  1  0  0  0  0
  4 20  1  0  0  0  0
  5  4  1  0  0  0  0
  6  8  2  0  0  0  0
  7  6  1  0  0  0  0
  8  4  1  0  0  0  0
  8  9  1  0  0  0  0
 10  3  1  0  0  0  0
 10 18  1  0  0  0  0
 11 10  2  0  0  0  0
 12 14  2  0  0  0  0
 12 11  1  0  0  0  0
 13 12  1  0  0  0  0
 14 16  1  0  0  0  0
 15 14  1  0  0  0  0
 16 17  1  0  0  0  0
 16 18  2  0  0  0  0
 18 19  1  0  0  0  0
 20 26  1  0  0  0  0
 21 20  1  0  0  0  0
 22 24  1  0  0  0  0
 22 20  1  0  0  0  0
 23 22  1  0  0  0  0
 25 22  1  0  0  0  0
 26 27  1  0  0  0  0
 26 28  1  0  0  0  0
 26 29  1  0  0  0  0
M  END
