1,12
q = -1.0, confidence = 0.012

 36 38  0  0  1  0  0  0  0  0999 V2000
   -1.8625    1.4916   -0.4578 C   0  0  0  0  0  3  0  0  0  0  0  0
   -3.2292    1.2031   -0.6434 C   0  0  0  0  0  0  0  0  0  0  0  0
   -3.6087    0.1792   -0.7372 H   0  0  0  0  0  0  0  0  0  0  0  0
   -4.1829    2.2249   -0.6919 C   0  0  0  0  0  0  0  0  0  0  0  0
   -3.8436    3.5767   -0.5496 C   0  0  0  0  0  0  0  0  0  0  0  0
   -4.6248    4.3480   -0.5850 H   0  0  0  0  0  0  0  0  0  0  0  0
   -2.4954    3.8882   -0.3608 C   0  0  0  0  0  0  0  0  0  0  0  0
   -2.2108    4.9440   -0.2395 H   0  0  0  0  0  0  0  0  0  0  0  0
   -5.4767    1.8908   -0.8740 F   0  0  0  0  0  0  0  0  0  0  0  0
   -1.5074    2.8801   -0.3200 C   0  0  0  0  0  0  0  0  0  0  0  0
   -0.0831    3.1826   -0.1915 C   0  0  1  0  0  3  0  0  0  0  0  0
    0.7302    2.0785   -0.1653 N   0  0  0  0  0  2  0  0  0  0  0  0
    0.4760    4.4760   -0.1751 C   0  0  0  0  0  0  0  0  0  0  0  0
   -0.1815    5.3548   -0.1532 H   0  0  0  0  0  0  0  0  0  0  0  0
    1.8621    4.6259   -0.2258 C   0  0  0  0  0  0  0  0  0  0  0  0
    2.3144    5.6289   -0.2190 H   0  0  0  0  0  0  0  0  0  0  0  0
    2.6655    3.4843   -0.3500 C   0  0  0  0  0  0  0  0  0  0  0  0
    3.7514    3.5626   -0.4931 H   0  0  0  0  0  0  0  0  0  0  0  0
    2.0756    2.2079   -0.3343 C   0  0  0  0  0  0  0  0  0  0  0  0
    2.9073    1.0082   -0.6340 C   0  0  0  0  0  0  0  0  0  0  0  0
    3.9738    0.6311    0.2252 C   0  0  0  0  0  0  0  0  0  0  0  0
    4.2616    1.3784    1.5033 C   0  0  0  0  0  0  0  0  0  0  0  0
    3.3253    1.6270    2.0396 H   0  0  0  0  0  0  0  0  0  0  0  0
    4.8055    2.3273    1.3106 H   0  0  0  0  0  0  0  0  0  0  0  0
    4.8878    0.7681    2.1811 H   0  0  0  0  0  0  0  0  0  0  0  0
    4.7548   -0.4880   -0.1108 C   0  0  0  0  0  0  0  0  0  0  0  0
    5.5595   -0.8350    0.5528 H   0  0  0  0  0  0  0  0  0  0  0  0
    4.4889   -1.1896   -1.2877 C   0  0  0  0  0  0  0  0  0  0  0  0
    5.2264   -2.2786   -1.5886 F   0  0  0  0  0  0  0  0  0  0  0  0
    3.4781   -0.7970   -2.1658 C   0  0  0  0  0  0  0  0  0  0  0  0
    3.3224   -1.3615   -3.0963 H   0  0  0  0  0  0  0  0  0  0  0  0
    2.6708    0.3101   -1.8509 C   0  0  0  0  0  0  0  0  0  0  0  0
    1.5829    0.7200   -2.8125 C   0  0  0  0  0  0  0  0  0  0  0  0
    0.5829    0.4365   -2.4135 H   0  0  0  0  0  0  0  0  0  0  0  0
    1.7194    0.2322   -3.7960 H   0  0  0  0  0  0  0  0  0  0  0  0
    1.5591    1.8174   -2.9670 H   0  0  0  0  0  0  0  0  0  0  0  0
  1 10  1  0  0  0  0
  2  1  2  0  0  0  0
  3  2  1  0  0  0  0
  4  2  1  0  0  0  0
  4  5  2  0  0  0  0
  5  7  1  0  0  0  0
  6  5  1  0  0  0  0
  7 10  2  0  0  0  0
  7  8  1  0  0  0  0
  9  4  1  0  0  0  0
 11 10  1  6  0  0  0
 11 13  1  0  0  0  0
 11 12  1  0  0  0  0
 13 14  1  0  0  0  0
 15 16  1  0  0  0  0
 15 13  2  0  0  0  0
 17 19  2  0  0  0  0
 17 15  1  0  0  0  0
 18 17  1  0  0  0  0
 19 12  1  0  0  0  0
 20 19  1  0  0  0  0
 20 21  1  0  0  0  0
 21 22  1  0  0  0  0
 22 23  1  0  0  0  0
 22 25  1  0  0  0  0
 24 22  1  0  0  0  0
 26 21  2  0  0  0  0
 26 27  1  0  0  0  0
 28 26  1  0  0  0  0
 29 28  1  0  0  0  0
 30 32  1  0  0  0  0
 30 28  2  0  0  0  0
 31 30  1  0  0  0  0
 32 20  2  0  0  0  0
 33 34  1  0  0  0  0
 33 32  1  0  0  0  0
 35 33  1  0  0  0  0
 36 33  1  0  0  0  0
M  END
