1,2
q = -1.0, confidence = 0.004

 33 35  0  0  0  0  0  0  0  0999 V2000
   -0.7989    1.1077   -0.3091 N   0  0  0  0  0  2  0  0  0  0  0  0
   -2.9994   -0.2515    0.0479 C   0  0  0  0  0  2  0  0  0  0  0  0
   -4.1723   -1.0031    0.2375 C   0  0  0  0  0  0  0  0  0  0  0  0
   -5.4173   -0.3612    0.3553 C   0  0  0  0  0  0  0  0  0  0  0  0
   -5.5235    1.0416    0.2888 C   0  0  0  0  0  0  0  0  0  0  0  0
   -4.3713    1.8117    0.1055 C   0  0  0  0  0  0  0  0  0  0  0  0
   -3.1135    1.1755   -0.0151 C   0  0  0  0  0  0  0  0  0  0  0  0
   -1.8591    1.8882   -0.1990 C   0  0  0  0  0  0  0  0  0  0  0  0
   -1.7818    3.3861   -0.2284 C   0  0  0  0  0  0  0  0  0  0  0  0
    0.5161    1.5884   -0.5150 C   0  0  0  0  0  0  0  0  0  0  0  0
    0.9109    2.0644   -1.7642 C   0  0  0  0  0  0  0  0  0  0  0  0
    2.2630    2.4131   -2.0106 C   0  0  0  0  0  0  0  0  0  0  0  0
    3.2192    2.2681   -1.0169 C   0  0  0  0  0  0  0  0  0  0  0  0
    2.8528    1.7956    0.2781 C   0  0  0  0  0  0  0  0  0  0  0  0
    1.4755    1.4664    0.5485 C   0  0  0  0  0  0  0  0  0  0  0  0
    1.1096    1.0160    1.8496 C   0  0  0  0  0  0  0  0  0  0  0  0
    2.0667    0.8829    2.8456 C   0  0  0  0  0  0  0  0  0  0  0  0
    3.4275    1.1893    2.5800 C   0  0  0  0  0  0  0  0  0  0  0  0
    3.8097    1.6378    1.3238 C   0  0  0  0  0  0  0  0  0  0  0  0
   -4.0965   -2.0991    0.2936 H   0  0  0  0  0  0  0  0  0  0  0  0
   -6.3254   -0.9678    0.5027 H   0  0  0  0  0  0  0  0  0  0  0  0
   -6.5057    1.5290    0.3813 H   0  0  0  0  0  0  0  0  0  0  0  0
   -4.4470    2.9090    0.0524 H   0  0  0  0  0  0  0  0  0  0  0  0
   -2.3178    3.8115    0.6435 H   0  0  0  0  0  0  0  0  0  0  0  0
   -0.7382    3.7483   -0.2229 H   0  0  0  0  0  0  0  0  0  0  0  0
   -2.2848    3.7819   -1.1353 H   0  0  0  0  0  0  0  0  0  0  0  0
    0.1610    2.1340   -2.5660 H   0  0  0  0  0  0  0  0  0  0  0  0
    2.5501    2.7845   -3.0059 H   0  0  0  0  0  0  0  0  0  0  0  0
    4.2729    2.5206   -1.2114 H   0  0  0  0  0  0  0  0  0  0  0  0
    0.0578    0.7584    2.0437 H   0  0  0  0  0  0  0  0  0  0  0  0
    1.7708    0.5306    3.8452 H   0  0  0  0  0  0  0  0  0  0  0  0
    4.1786    1.0757    3.3764 H   0  0  0  0  0  0  0  0  0  0  0  0
    4.8619    1.8893    1.1165 H   0  0  0  0  0  0  0  0  0  0  0  0
  1  8  1  0  0  0  0
  2  3  1  0  0  0  0
  3 20  1  0  0  0  0
  3  4  2  0  0  0  0
  4 21  1  0  0  0  0
  5  4  1  0  0  0  0
  5 22  1  0  0  0  0
  6  5  2  0  0  0  0
  7  2  1  0  0  0  0
  7  6  1  0  0  0  0
  8  7  2  0  0  0  0
  9 25  1  0  0  0  0
  9  8  1  0  0  0  0
  9 24  1  0  0  0  0
 10  1  1  0  0  0  0
 10 15  1  0  0  0  0
 11 10  2  0  0  0  0
 12 11  1  0  0  0  0
 12 13  2  0  0  0  0
 13 14  1  0  0  0  0
 14 15  2  0  0  0  0
 14 19  1  0  0  0  0
 15 16  1  0  0  0  0
 16 30  1  0  0  0  0
 16 17  2  0  0  0  0
 17 31  1  0  0  0  0
 18 17  1  0  0  0  0
 18 32  1  0  0  0  0
 19 18  2  0  0  0  0
 23  6  1  0  0  0  0
 26  9  1  0  0  0  0
 27 11  1  0  0  0  0
 28 12  1  0  0  0  0
 29 13  1  0  0  0  0
 33 19  1  0  0  0  0
M  END
