2,3
q = -1.0, confidence = 0.0

 32 34  0  0  1  0  0  0  0  0999 V2000
    4.5569    0.3810   -1.1526 O   0  0  0  0  0  0  0  0  0  0  0  0
    2.4130   -0.2325   -1.3746 N   0  0  0  0  0  2  0  0  0  0  0  0
    1.3759    1.8855   -0.0623 C   0  0  0  0  0  2  0  0  0  0  0  0
    0.8346    3.0633    0.4610 C   0  0  0  0  0  0  0  0  0  0  0  0
   -0.2485    3.1634    0.5965 H   0  0  0  0  0  0  0  0  0  0  0  0
    1.6672    4.1446    0.8101 C   0  0  0  0  0  0  0  0  0  0  0  0
    1.2118    5.0579    1.2238 H   0  0  0  0  0  0  0  0  0  0  0  0
    3.0597    4.0757    0.6401 C   0  0  0  0  0  0  0  0  0  0  0  0
    3.6978    4.9244    0.9272 H   0  0  0  0  0  0  0  0  0  0  0  0
    3.6267    2.9236    0.0834 C   0  0  0  0  0  0  0  0  0  0  0  0
    4.7102    2.8438   -0.0905 H   0  0  0  0  0  0  0  0  0  0  0  0
    2.7878    1.8511   -0.2728 C   0  0  0  0  0  0  0  0  0  0  0  0
    3.2690    0.6520   -0.9359 C   0  0  0  0  0  0  0  0  0  0  0  0
    4.5841   -0.8630   -1.9197 C   0  0  0  0  0  0  0  0  0  0  0  0
    5.3385   -1.5230   -1.4547 H   0  0  0  0  0  0  0  0  0  0  0  0
    4.8976   -0.6070   -2.9520 H   0  0  0  0  0  0  0  0  0  0  0  0
    3.1326   -1.4178   -1.8534 C   0  0  1  0  0  0  0  0  0  0  0  0
    2.7665   -1.6851   -2.8655 H   0  0  0  0  0  0  0  0  0  0  0  0
    2.9205   -2.6439   -0.9277 C   0  0  0  0  0  0  0  0  0  0  0  0
    1.8588   -2.9409   -1.0404 H   0  0  0  0  0  0  0  0  0  0  0  0
    3.5478   -3.4683   -1.3287 H   0  0  0  0  0  0  0  0  0  0  0  0
    3.2334   -2.3794    0.5268 C   0  0  0  0  0  0  0  0  0  0  0  0
    4.5480   -2.4695    1.0328 C   0  0  0  0  0  0  0  0  0  0  0  0
    5.3631   -2.8228    0.3800 H   0  0  0  0  0  0  0  0  0  0  0  0
    4.8305   -2.1417    2.3680 C   0  0  0  0  0  0  0  0  0  0  0  0
    5.8623   -2.2218    2.7435 H   0  0  0  0  0  0  0  0  0  0  0  0
    3.7994   -1.7218    3.2238 C   0  0  0  0  0  0  0  0  0  0  0  0
    4.0223   -1.4626    4.2702 H   0  0  0  0  0  0  0  0  0  0  0  0
    2.4827   -1.6537    2.7424 C   0  0  0  0  0  0  0  0  0  0  0  0
    1.6481   -1.3452    3.3892 H   0  0  0  0  0  0  0  0  0  0  0  0
    2.2044   -1.9865    1.4085 C   0  0  0  0  0  0  0  0  0  0  0  0
    1.1589   -1.9503    1.0664 H   0  0  0  0  0  0  0  0  0  0  0  0
  1 13  1  0  0  0  0
  2 13  1  0  0  0  0
  3  4  1  0  0  0  0
  4  5  1  0  0  0  0
  4  6  2  0  0  0  0
  6  7  1  0  0  0  0
  8  6  1  0  0  0  0
  8  9  1  0  0  0  0
 10  8  2  0  0  0  0
 11 10  1  0  0  0  0
 12  3  1  0  0  0  0
 12 10  1  0  0  0  0
 13 12  2  0  0  0  0
 14 17  1  0  0  0  0
 14 15  1  0  0  0  0
 14  1  1  0  0  0  0
 16 14  1  0  0  0  0
 17 18  1  6  0  0  0
 17  2  1  0  0  0  0
 17 19  1  0  0  0  0
 19 22  1  0  0  0  0
 20 19  1  0  0  0  0
 21 19  1  0  0  0  0
 22 23  2  0  0  0  0
 22 31  1  0  0  0  0
 23 25  1  0  0  0  0
 24 23  1  0  0  0  0
 25 26  1  0  0  0  0
 25 27  2  0  0  0  0
 27 28  1  0  0  0  0
 29 27  1  0  0  0  0
 29 30  1  0  0  0  0
 31 29  2  0  0  0  0
 32 31  1  0  0  0  0
M  END
