1,2
q = -2.0, confidence = 0.922

 38 38  0  0  1  0  0  0  0  0999 V2000
    0.4307    0.6265   -0.1109 N   0  0  0  0  0  2  0  0  0  0  0  0
    0.3028   -1.5585   -0.5277 C   0  0  1  0  0  3  0  0  0  0  0  0
   -0.2251   -2.0484    0.7115 C   0  0  0  0  0  3  0  0  0  0  0  0
    0.2536   -1.9731    1.6921 H   0  0  0  0  0  0  0  0  0  0  0  0
   -1.5626   -2.4820    0.4862 C   0  0  0  0  0  0  0  0  0  0  0  0
   -2.2505   -2.8605    1.2514 H   0  0  0  0  0  0  0  0  0  0  0  0
   -1.8638   -2.2835   -0.8897 C   0  0  0  0  0  0  0  0  0  0  0  0
   -2.8290   -2.4715   -1.3737 H   0  0  0  0  0  0  0  0  0  0  0  0
   -0.7122   -1.7295   -1.5160 C   0  0  0  0  0  3  0  0  0  0  0  0
   -0.6588   -1.3561   -2.5463 H   0  0  0  0  0  0  0  0  0  0  0  0
    1.3263   -0.4302   -0.6178 C   0  0  2  0  0  0  0  0  0  0  0  0
    1.5407   -0.2544   -1.6992 H   0  0  0  0  0  0  0  0  0  0  0  0
    2.7213   -0.7778    0.0263 C   0  0  0  0  0  0  0  0  0  0  0  0
    3.8212    0.1920   -0.4522 C   0  0  0  0  0  0  0  0  0  0  0  0
    4.8120   -0.1678   -0.1074 H   0  0  0  0  0  0  0  0  0  0  0  0
    3.6975    1.2201   -0.0670 H   0  0  0  0  0  0  0  0  0  0  0  0
    3.8546    0.2446   -1.5602 H   0  0  0  0  0  0  0  0  0  0  0  0
    2.6871   -0.8160    1.5675 C   0  0  0  0  0  0  0  0  0  0  0  0
    3.7167   -0.7649    1.9761 H   0  0  0  0  0  0  0  0  0  0  0  0
    2.2433   -1.7565    1.9460 H   0  0  0  0  0  0  0  0  0  0  0  0
    2.1077    0.0256    1.9901 H   0  0  0  0  0  0  0  0  0  0  0  0
    3.1078   -2.1729   -0.5122 C   0  0  0  0  0  0  0  0  0  0  0  0
    3.1362   -2.1837   -1.6220 H   0  0  0  0  0  0  0  0  0  0  0  0
    2.3975   -2.9568   -0.1842 H   0  0  0  0  0  0  0  0  0  0  0  0
    4.1169   -2.4546   -0.1492 H   0  0  0  0  0  0  0  0  0  0  0  0
    0.7081    2.0879   -0.1289 C   0  0  0  0  0  0  0  0  0  0  0  0
   -0.6285    2.8511   -0.0259 C   0  0  0  0  0  0  0  0  0  0  0  0
   -1.2599    2.6964   -0.9194 H   0  0  0  0  0  0  0  0  0  0  0  0
   -0.4255    3.9356    0.0746 H   0  0  0  0  0  0  0  0  0  0  0  0
   -1.2033    2.5410    0.8713 H   0  0  0  0  0  0  0  0  0  0  0  0
    1.5451    2.4987    1.1016 C   0  0  0  0  0  0  0  0  0  0  0  0
    1.0043    2.2206    2.0280 H   0  0  0  0  0  0  0  0  0  0  0  0
    1.6964    3.5972    1.1058 H   0  0  0  0  0  0  0  0  0  0  0  0
    2.5403    2.0223    1.1272 H   0  0  0  0  0  0  0  0  0  0  0  0
    1.3842    2.4935   -1.4513 C   0  0  0  0  0  0  0  0  0  0  0  0
    2.3838    2.0406   -1.5781 H   0  0  0  0  0  0  0  0  0  0  0  0
    1.5067    3.5943   -1.4893 H   0  0  0  0  0  0  0  0  0  0  0  0
    0.7500    2.1911   -2.3091 H   0  0  0  0  0  0  0  0  0  0  0  0
  2 11  1  1  0  0  0
  2  3  1  0  0  0  0
  3  4  1  0  0  0  0
  5  3  1  0  0  0  0
  5  6  1  0  0  0  0
  7  5  2  0  0  0  0
  8  7  1  0  0  0  0
  9  7  1  0  0  0  0
  9  2  1  0  0  0  0
 10  9  1  0  0  0  0
 11 12  1  6  0  0  0
 11  1  1  0  0  0  0
 11 13  1  0  0  0  0
 13 18  1  0  0  0  0
 14 15  1  0  0  0  0
 14 16  1  0  0  0  0
 14 13  1  0  0  0  0
 17 14  1  0  0  0  0
 18 20  1  0  0  0  0
 18 19  1  0  0  0  0
 18 21  1  0  0  0  0
 22 24  1  0  0  0  0
 22 25  1  0  0  0  0
 22 13  1  0  0  0  0
 23 22  1  0  0  0  0
 26  1  1  0  0  0  0
 26 27  1  0  0  0  0
 26 31  1  0  0  0  0
 27 29  1  0  0  0  0
 27 30  1  0  0  0  0
 28 27  1  0  0  0  0
 31 33  1  0  0  0  0
 31 34  1  0  0  0  0
 31 32  1  0  0  0  0
 35 26  1  0  0  0  0
 36 35  1  0  0  0  0
 37 35  1  0  0  0  0
 38 35  1  0  0  0  0
M  END
