2,3
q = -2.0, confidence = 0.868

 40 41  0  0  1  0  0  0  0  0999 V2000
   -5.3438    0.0421   -0.3944 O   0  0  0  0  0  0  0  0  0  0  0  0
    0.2359    0.3869   -0.0573 N   0  0  0  0  0  2  0  0  0  0  0  0
    2.3719    0.6533   -0.6484 C   0  0  1  0  0  3  0  0  0  0  0  0
    3.0935    0.1544    0.4842 C   0  0  0  0  0  3  0  0  0  0  0  0
    3.0924    0.5800    1.4916 H   0  0  0  0  0  0  0  0  0  0  0  0
    3.6726   -1.0987    0.1318 C   0  0  0  0  0  0  0  0  0  0  0  0
    4.2506   -1.7472    0.8008 H   0  0  0  0  0  0  0  0  0  0  0  0
    3.3337   -1.3751   -1.2242 C   0  0  0  0  0  0  0  0  0  0  0  0
    3.5951   -2.2805   -1.7851 H   0  0  0  0  0  0  0  0  0  0  0  0
    2.5480   -0.2929   -1.7077 C   0  0  0  0  0  3  0  0  0  0  0  0
    2.0375   -0.2528   -2.6783 H   0  0  0  0  0  0  0  0  0  0  0  0
    1.0773    1.4659   -0.5679 C   0  0  2  0  0  0  0  0  0  0  0  0
    0.7883    1.7410   -1.6108 H   0  0  0  0  0  0  0  0  0  0  0  0
    1.0926    2.7991    0.2463 C   0  0  0  0  0  0  0  0  0  0  0  0
    2.2193    3.6755   -0.3285 C   0  0  0  0  0  0  0  0  0  0  0  0
    2.2572    4.6509    0.1977 H   0  0  0  0  0  0  0  0  0  0  0  0
    2.0591    3.8827   -1.4074 H   0  0  0  0  0  0  0  0  0  0  0  0
    3.2105    3.1903   -0.2197 H   0  0  0  0  0  0  0  0  0  0  0  0
   -0.2536    3.5260    0.0550 C   0  0  0  0  0  0  0  0  0  0  0  0
   -1.0943    2.9665    0.5078 H   0  0  0  0  0  0  0  0  0  0  0  0
   -0.4865    3.6795   -1.0187 H   0  0  0  0  0  0  0  0  0  0  0  0
   -0.2127    4.5246    0.5363 H   0  0  0  0  0  0  0  0  0  0  0  0
    1.3080    2.5676    1.7546 C   0  0  0  0  0  0  0  0  0  0  0  0
    2.3659    2.3539    2.0003 H   0  0  0  0  0  0  0  0  0  0  0  0
    0.6879    1.7271    2.1247 H   0  0  0  0  0  0  0  0  0  0  0  0
    1.0285    3.4787    2.3210 H   0  0  0  0  0  0  0  0  0  0  0  0
   -1.1664    0.3438   -0.1225 C   0  0  0  0  0  0  0  0  0  0  0  0
   -1.8780   -0.3688    0.8672 C   0  0  0  0  0  0  0  0  0  0  0  0
   -1.3148   -0.8290    1.6930 H   0  0  0  0  0  0  0  0  0  0  0  0
   -3.2726   -0.4970    0.8100 C   0  0  0  0  0  0  0  0  0  0  0  0
   -3.7870   -1.0596    1.6003 H   0  0  0  0  0  0  0  0  0  0  0  0
   -3.9916    0.0979   -0.2462 C   0  0  0  0  0  0  0  0  0  0  0  0
   -3.2871    0.8114   -1.2430 C   0  0  0  0  0  0  0  0  0  0  0  0
   -3.8628    1.2611   -2.0650 H   0  0  0  0  0  0  0  0  0  0  0  0
   -1.9003    0.9260   -1.1879 C   0  0  0  0  0  0  0  0  0  0  0  0
   -1.3733    1.4684   -1.9853 H   0  0  0  0  0  0  0  0  0  0  0  0
   -6.0931   -0.6751    0.5672 C   0  0  0  0  0  0  0  0  0  0  0  0
   -5.8004   -1.7486    0.6056 H   0  0  0  0  0  0  0  0  0  0  0  0
   -7.1524   -0.6024    0.2580 H   0  0  0  0  0  0  0  0  0  0  0  0
   -5.9843   -0.2416    1.5871 H   0  0  0  0  0  0  0  0  0  0  0  0
  1 32  1  0  0  0  0
  1 37  1  0  0  0  0
  3 12  1  1  0  0  0
  3  4  1  0  0  0  0
  4  5  1  0  0  0  0
  6  4  1  0  0  0  0
  6  7  1  0  0  0  0
  8  6  2  0  0  0  0
  9  8  1  0  0  0  0
 10  8  1  0  0  0  0
 10  3  1  0  0  0  0
 11 10  1  0  0  0  0
 12 13  1  6  0  0  0
 12  2  1  0  0  0  0
 12 14  1  0  0  0  0
 14 23  1  0  0  0  0
 15 18  1  0  0  0  0
 15 16  1  0  0  0  0
 15 14  1  0  0  0  0
 17 15  1  0  0  0  0
 19 14  1  0  0  0  0
 19 20  1  0  0  0  0
 19 22  1  0  0  0  0
 21 19  1  0  0  0  0
 23 24  1  0  0  0  0
 23 25  1  0  0  0  0
 23 26  1  0  0  0  0
 27  2  1  0  0  0  0
 27 28  1  0  0  0  0
 28 29  1  0  0  0  0
 30 28  2  0  0  0  0
 30 31  1  0  0  0  0
 32 30  1  0  0  0  0
 33 35  1  0  0  0  0
 33 32  2  0  0  0  0
 34 33  1  0  0  0  0
 35 27  2  0  0  0  0
 36 35  1  0  0  0  0
 37 38  1  0  0  0  0
 37 40  1  0  0  0  0
 39 37  1  0  0  0  0
M  END
