2,3
q = -1.0, confidence = 0.0

 33 35  0  0  0  0  0  0  0  0999 V2000
    7.1577   -2.0079   -1.1640 O   0  0  0  0  0  0  0  0  0  0  0  0
    1.9294    0.4343    0.6460 N   0  0  0  0  0  2  0  0  0  0  0  0
    0.4875   -1.0899   -0.8810 C   0  0  0  0  0  3  0  0  0  0  0  0
   -0.3814   -1.9586   -1.5726 C   0  0  0  0  0  0  0  0  0  0  0  0
   -1.4424   -1.6843   -1.6823 H   0  0  0  0  0  0  0  0  0  0  0  0
    0.0528   -3.1803   -2.1144 C   0  0  0  0  0  0  0  0  0  0  0  0
   -0.8938   -4.0791   -2.8677 C   0  0  0  0  0  0  0  0  0  0  0  0
   -0.8271   -5.1287   -2.5132 H   0  0  0  0  0  0  0  0  0  0  0  0
   -0.6515   -4.0937   -3.9524 H   0  0  0  0  0  0  0  0  0  0  0  0
   -1.9442   -3.7444   -2.7636 H   0  0  0  0  0  0  0  0  0  0  0  0
    1.4033   -3.5585   -1.9247 C   0  0  0  0  0  0  0  0  0  0  0  0
    1.7530   -4.5349   -2.2955 H   0  0  0  0  0  0  0  0  0  0  0  0
    2.2928   -2.7215   -1.2513 C   0  0  0  0  0  0  0  0  0  0  0  0
    3.3121   -3.0848   -1.0711 H   0  0  0  0  0  0  0  0  0  0  0  0
    1.8695   -1.4643   -0.7490 C   0  0  0  0  0  0  0  0  0  0  0  0
    2.6782   -0.5283    0.0322 C   0  0  0  0  0  0  0  0  0  0  0  0
    4.1139   -0.5238    0.2266 C   0  0  0  0  0  0  0  0  0  0  0  0
    5.0157   -1.2751   -0.5675 C   0  0  0  0  0  3  0  0  0  0  0  0
    4.6677   -1.8587   -1.4257 H   0  0  0  0  0  0  0  0  0  0  0  0
    6.3929   -1.2548   -0.3267 C   0  0  0  0  0  0  0  0  0  0  0  0
    8.5611   -2.0135   -0.9855 C   0  0  0  0  0  0  0  0  0  0  0  0
    8.9722   -2.6748   -1.7705 H   0  0  0  0  0  0  0  0  0  0  0  0
    8.8541   -2.4150    0.0107 H   0  0  0  0  0  0  0  0  0  0  0  0
    9.0014   -0.9979   -1.1046 H   0  0  0  0  0  0  0  0  0  0  0  0
    6.9198   -0.4676    0.7349 C   0  0  0  0  0  0  0  0  0  0  0  0
    7.9976   -0.4503    0.9442 H   0  0  0  0  0  0  0  0  0  0  0  0
    6.0603    0.3176    1.4911 C   0  0  0  0  0  0  0  0  0  0  0  0
    6.4664    0.9624    2.2856 H   0  0  0  0  0  0  0  0  0  0  0  0
    4.6612    0.3371    1.2500 C   0  0  0  0  0  0  0  0  0  0  0  0
    3.7856    1.2168    1.9482 C   0  0  0  0  0  0  0  0  0  0  0  0
    4.1745    1.8795    2.7344 H   0  0  0  0  0  0  0  0  0  0  0  0
    2.4578    1.2721    1.5871 C   0  0  0  0  0  0  0  0  0  0  0  0
    1.7403    1.9732    2.0359 H   0  0  0  0  0  0  0  0  0  0  0  0
  1 21  1  0  0  0  0
  1 20  1  0  0  0  0
  2 32  1  0  0  0  0
  3 15  1  0  0  0  0
  4  3  2  0  0  0  0
  5  4  1  0  0  0  0
  6 11  2  0  0  0  0
  6  4  1  0  0  0  0
  7 10  1  0  0  0  0
  7  8  1  0  0  0  0
  7  6  1  0  0  0  0
  9  7  1  0  0  0  0
 11 13  1  0  0  0  0
 12 11  1  0  0  0  0
 13 14  1  0  0  0  0
 13 15  2  0  0  0  0
 15 16  1  0  0  0  0
 16 17  2  0  0  0  0
 16  2  1  0  0  0  0
 17 29  1  0  0  0  0
 18 20  1  0  0  0  0
 18 17  1  0  0  0  0
 19 18  1  0  0  0  0
 20 25  2  0  0  0  0
 21 23  1  0  0  0  0
 22 21  1  0  0  0  0
 24 21  1  0  0  0  0
 25 26  1  0  0  0  0
 25 27  1  0  0  0  0
 27 28  1  0  0  0  0
 29 27  2  0  0  0  0
 29 30  1  0  0  0  0
 30 31  1  0  0  0  0
 32 30  2  0  0  0  0
 32 33  1  0  0  0  0
M  END
