1,2
q = -1.0

 32 34  0  0  0  0  0  0  0  0999 V2000
   -1.9145   -0.2277    0.7378 N   0  0  0  0  0  2  0  0  0  0  0  0
   -0.8172    1.3412   -1.0323 C   0  0  0  0  0  3  0  0  0  0  0  0
   -0.1546    2.3717   -1.7338 C   0  0  0  0  0  0  0  0  0  0  0  0
    0.9468    2.4064   -1.7190 H   0  0  0  0  0  0  0  0  0  0  0  0
   -0.8576    3.3667   -2.4332 C   0  0  0  0  0  0  0  0  0  0  0  0
   -2.2743    3.3456   -2.3968 C   0  0  0  0  0  0  0  0  0  0  0  0
   -2.8416    4.1423   -2.9033 H   0  0  0  0  0  0  0  0  0  0  0  0
   -2.9596    2.3569   -1.6921 C   0  0  0  0  0  0  0  0  0  0  0  0
   -4.0533    2.4223   -1.6217 H   0  0  0  0  0  0  0  0  0  0  0  0
   -2.2492    1.3313   -1.0154 C   0  0  0  0  0  0  0  0  0  0  0  0
   -2.8301    0.3440   -0.1114 C   0  0  0  0  0  0  0  0  0  0  0  0
   -4.2229   -0.0090   -0.0080 C   0  0  0  0  0  0  0  0  0  0  0  0
   -5.1762    0.2262   -1.0416 C   0  0  0  0  0  3  0  0  0  0  0  0
   -4.8403    0.6424   -1.9992 H   0  0  0  0  0  0  0  0  0  0  0  0
   -6.5103   -0.1234   -0.8747 C   0  0  0  0  0  0  0  0  0  0  0  0
   -7.2261    0.0500   -1.6921 H   0  0  0  0  0  0  0  0  0  0  0  0
   -6.9509   -0.7204    0.3347 C   0  0  0  0  0  0  0  0  0  0  0  0
   -8.0130   -0.9792    0.4626 H   0  0  0  0  0  0  0  0  0  0  0  0
   -6.0379   -1.0129    1.3372 C   0  0  0  0  0  0  0  0  0  0  0  0
   -6.3603   -1.5182    2.2607 H   0  0  0  0  0  0  0  0  0  0  0  0
   -4.6583   -0.6954    1.1789 C   0  0  0  0  0  0  0  0  0  0  0  0
   -3.6765   -1.0590    2.1370 C   0  0  0  0  0  0  0  0  0  0  0  0
   -3.9827   -1.5465    3.0738 H   0  0  0  0  0  0  0  0  0  0  0  0
   -2.3239   -0.8815    1.8778 C   0  0  0  0  0  0  0  0  0  0  0  0
   -0.1330    4.4506   -3.1892 C   0  0  0  0  0  0  0  0  0  0  0  0
    0.9614    4.3979   -3.0304 H   0  0  0  0  0  0  0  0  0  0  0  0
   -0.4779    5.4593   -2.8799 H   0  0  0  0  0  0  0  0  0  0  0  0
   -0.3222    4.3717   -4.2812 H   0  0  0  0  0  0  0  0  0  0  0  0
   -1.2953   -1.3937    2.8428 C   0  0  0  0  0  0  0  0  0  0  0  0
   -1.7342   -1.4566    3.8565 H   0  0  0  0  0  0  0  0  0  0  0  0
   -0.3963   -0.7520    2.8648 H   0  0  0  0  0  0  0  0  0  0  0  0
   -0.9643   -2.4104    2.5521 H   0  0  0  0  0  0  0  0  0  0  0  0
  1 24  1  0  0  0  0
  2 10  1  0  0  0  0
  3  4  1  0  0  0  0
  3  2  2  0  0  0  0
  5  6  2  0  0  0  0
  5  3  1  0  0  0  0
  6  8  1  0  0  0  0
  7  6  1  0  0  0  0
  8  9  1  0  0  0  0
  8 10  2  0  0  0  0
 10 11  1  0  0  0  0
 11 12  2  0  0  0  0
 11  1  1  0  0  0  0
 12 21  1  0  0  0  0
 13 15  1  0  0  0  0
 13 12  1  0  0  0  0
 14 13  1  0  0  0  0
 15 17  2  0  0  0  0
 16 15  1  0  0  0  0
 17 18  1  0  0  0  0
 17 19  1  0  0  0  0
 19 20  1  0  0  0  0
 21 19  2  0  0  0  0
 21 22  1  0  0  0  0
 22 23  1  0  0  0  0
 24 22  2  0  0  0  0
 24 29  1  0  0  0  0
 25 26  1  0  0  0  0
 25 27  1  0  0  0  0
 25  5  1  0  0  0  0
 28 25  1  0  0  0  0
 29 31  1  0  0  0  0
 29 30  1  0  0  0  0
 32 29  1  0  0  0  0
M  END
