1,16
q = -2.0, confidence = 0.652

 45 52  0  0  1  0  0  0  0  0999 V2000
    1.3121    2.3010   -0.1695 N   0  0  0  0  0  2  0  0  0  0  0  0
   -1.5972   -1.2611    0.0499 C   0  0  2  0  0  0  0  0  0  0  0  0
   -0.0143   -1.8633   -0.0170 C   0  0  1  0  0  0  0  0  0  0  0  0
   -1.6171    0.2433    0.0618 C   0  0  0  0  0  0  0  0  0  0  0  0
   -2.9260    0.9500    0.0038 C   0  0  0  0  0  0  0  0  0  0  0  0
   -3.6975    1.1447    1.1687 C   0  0  0  0  0  0  0  0  0  0  0  0
   -3.3430    0.7337    2.1253 H   0  0  0  0  0  0  0  0  0  0  0  0
   -4.8998    1.8654    1.1101 C   0  0  0  0  0  0  0  0  0  0  0  0
   -5.4911    2.0137    2.0265 H   0  0  0  0  0  0  0  0  0  0  0  0
   -5.3498    2.3922   -0.1110 C   0  0  0  0  0  0  0  0  0  0  0  0
   -6.2953    2.9537   -0.1554 H   0  0  0  0  0  0  0  0  0  0  0  0
   -4.5918    2.1947   -1.2766 C   0  0  0  0  0  0  0  0  0  0  0  0
   -4.9430    2.5979   -2.2387 H   0  0  0  0  0  0  0  0  0  0  0  0
   -3.3872    1.4790   -1.2207 C   0  0  0  0  0  0  0  0  0  0  0  0
   -2.7889    1.3200   -2.1304 H   0  0  0  0  0  0  0  0  0  0  0  0
   -0.3961    0.8395    0.0461 C   0  0  0  0  0  3  0  0  0  0  0  0
   -0.0490    2.2453   -0.0043 C   0  0  1  0  0  3  0  0  0  0  0  0
   -0.8010    3.4403    0.1078 C   0  0  0  0  0  0  0  0  0  0  0  0
   -1.8872    3.3865    0.2581 H   0  0  0  0  0  0  0  0  0  0  0  0
   -0.1346    4.6653    0.0143 C   0  0  0  0  0  0  0  0  0  0  0  0
   -0.6992    5.6074    0.0906 H   0  0  0  0  0  0  0  0  0  0  0  0
    1.2604    4.6943   -0.1812 C   0  0  0  0  0  0  0  0  0  0  0  0
    1.8074    5.6440   -0.2632 H   0  0  0  0  0  0  0  0  0  0  0  0
    1.9488    3.4784   -0.2611 C   0  0  0  0  0  0  0  0  0  0  0  0
    3.0435    3.4450   -0.3880 H   0  0  0  0  0  0  0  0  0  0  0  0
   -0.9701   -2.0503    1.4166 B   0  0  2  0  0  0  0  0  0  0  0  0
   -0.7330   -1.3974    2.3963 H   0  0  0  0  0  0  0  0  0  0  0  0
   -2.6633   -2.2816    0.9116 B   0  0  2  0  0  0  0  0  0  0  0  0
   -3.5285   -1.7679    1.5764 H   0  0  0  0  0  0  0  0  0  0  0  0
   -2.7100   -2.1953   -0.8559 B   0  0  2  0  0  0  0  0  0  0  0  0
   -3.6012   -1.6075   -1.4168 H   0  0  0  0  0  0  0  0  0  0  0  0
   -1.0434   -1.9076   -1.4168 B   0  0  2  0  0  0  0  0  0  0  0  0
   -0.8588   -1.1395   -2.3243 H   0  0  0  0  0  0  0  0  0  0  0  0
   -0.0106   -3.3870    0.7798 B   0  0  1  0  0  0  0  0  0  0  0  0
    0.9952   -3.7325    1.3540 H   0  0  0  0  0  0  0  0  0  0  0  0
   -1.6675   -3.6821    1.3768 B   0  0  0  0  0  0  0  0  0  0  0  0
   -1.8677   -4.2738    2.4128 H   0  0  0  0  0  0  0  0  0  0  0  0
   -2.7471   -3.7791   -0.0484 B   0  0  1  0  0  0  0  0  0  0  0  0
   -3.7513   -4.4539   -0.0554 H   0  0  0  0  0  0  0  0  0  0  0  0
   -1.7416   -3.5374   -1.5099 B   0  0  0  0  0  0  0  0  0  0  0  0
   -1.9938   -4.0212   -2.5897 H   0  0  0  0  0  0  0  0  0  0  0  0
   -0.0571   -3.2994   -0.9723 B   0  0  2  0  0  0  0  0  0  0  0  0
    0.9113   -3.5803   -1.6364 H   0  0  0  0  0  0  0  0  0  0  0  0
   -1.1059   -4.4686   -0.1252 B   0  0  0  0  0  0  0  0  0  0  0  0
   -0.8886   -5.6573   -0.1882 H   0  0  0  0  0  0  0  0  0  0  0  0
  1 17  1  0  0  0  0
  2  4  1  1  0  0  0
  2 26  1  0  0  0  0
  3  2  1  0  0  0  0
  3 34  1  0  0  0  0
  3 26  1  0  0  0  0
  5  4  1  0  0  0  0
  5  6  1  0  0  0  0
  6  7  1  0  0  0  0
  8  6  2  0  0  0  0
  8  9  1  0  0  0  0
 10  8  1  0  0  0  0
 11 10  1  0  0  0  0
 12 14  1  0  0  0  0
 12 10  2  0  0  0  0
 13 12  1  0  0  0  0
 14  5  2  0  0  0  0
 15 14  1  0  0  0  0
 16  4  2  0  0  0  0
 17 16  1  0  0  0  0
 17 18  1  0  0  0  0
 18 19  1  0  0  0  0
 20 21  1  0  0  0  0
 20 18  2  0  0  0  0
 22 20  1  0  0  0  0
 23 22  1  0  0  0  0
 24 22  2  0  0  0  0
 24  1  1  0  0  0  0
 25 24  1  0  0  0  0
 26 27  1  0  0  0  0
 28 36  1  0  0  0  0
 28 29  1  0  0  0  0
 30 38  1  0  0  0  0
 30 28  1  0  0  0  0
 31 30  1  0  0  0  0
 32 42  1  0  0  0  0
 32  2  1  0  0  0  0
 33 32  1  0  0  0  0
 34 35  1  0  0  0  0
 34 26  1  0  0  0  0
 36 37  1  0  0  0  0
 38 28  1  0  0  0  0
 39 38  1  0  0  0  0
 40 32  1  0  0  0  0
 40 30  1  0  0  0  0
 41 40  1  0  0  0  0
 42  3  1  0  0  0  0
 42 34  1  0  0  0  0
 43 42  1  0  0  0  0
 44 38  1  0  0  0  0
 44 36  1  0  0  0  0
 45 44  1  0  0  0  0
M  END
