1,7
q = -1.0

 22 22  0  0  1  0  0  0  0  0999 V2000
   -0.1914    2.0990   -0.3818 N   0  0  0  0  0  0  0  0  0  0  0  0
    0.0177    2.1707   -1.3919 H   0  0  0  0  0  0  0  0  0  0  0  0
   -0.8034    2.8986   -0.1610 H   0  0  0  0  0  0  0  0  0  0  0  0
    1.1086    2.2144    0.3763 C   0  0  1  0  0  0  0  0  0  0  0  0
    0.8086    2.3548    1.4385 H   0  0  0  0  0  0  0  0  0  0  0  0
    1.7762    0.8657    0.2305 C   0  0  0  0  0  0  0  0  0  0  0  0
    0.9236   -0.2453    0.0074 C   0  0  0  0  0  3  0  0  0  0  0  0
    1.4837   -1.5253   -0.1414 C   0  0  0  0  0  0  0  0  0  0  0  0
    0.8563   -2.4108   -0.3392 H   0  0  0  0  0  0  0  0  0  0  0  0
    2.8770   -1.7384   -0.0520 C   0  0  0  0  0  0  0  0  0  0  0  0
    3.4682   -3.1159   -0.2060 C   0  0  0  0  0  0  0  0  0  0  0  0
    4.1824   -3.1515   -1.0543 H   0  0  0  0  0  0  0  0  0  0  0  0
    2.6908   -3.8832   -0.3859 H   0  0  0  0  0  0  0  0  0  0  0  0
    4.0351   -3.4116    0.7008 H   0  0  0  0  0  0  0  0  0  0  0  0
    3.7049   -0.6215    0.1813 C   0  0  0  0  0  0  0  0  0  0  0  0
    4.7946   -0.7610    0.2521 H   0  0  0  0  0  0  0  0  0  0  0  0
    3.1645    0.6633    0.3137 C   0  0  0  0  0  0  0  0  0  0  0  0
    3.8386    1.5166    0.4848 H   0  0  0  0  0  0  0  0  0  0  0  0
    1.9182    3.4231   -0.0798 C   0  0  0  0  0  0  0  0  0  0  0  0
    2.2590    3.3071   -1.1292 H   0  0  0  0  0  0  0  0  0  0  0  0
    2.8178    3.5501    0.5528 H   0  0  0  0  0  0  0  0  0  0  0  0
    1.3287    4.3585    0.0060 H   0  0  0  0  0  0  0  0  0  0  0  0
  1  3  1  0  0  0  0
  1  4  1  0  0  0  0
  2  1  1  0  0  0  0
  4  5  1  1  0  0  0
  6 17  1  0  0  0  0
  6  4  1  0  0  0  0
  7  6  2  0  0  0  0
  8 10  2  0  0  0  0
  8  7  1  0  0  0  0
  9  8  1  0  0  0  0
 10 15  1  0  0  0  0
 11 10  1  0  0  0  0
 11 14  1  0  0  0  0
 12 11  1  0  0  0  0
 13 11  1  0  0  0  0
 15 16  1  0  0  0  0
 15 17  2  0  0  0  0
 17 18  1  0  0  0  0
 19 22  1  0  0  0  0
 19  4  1  0  0  0  0
 19 21  1  0  0  0  0
 20 19  1  0  0  0  0
M  END
