2,5
q = 0.0, confidence = 0.996

 40 43  0  0  1  0  0  0  0  0999 V2000
    3.0693    2.2177    0.0001 O   0  0  0  0  0  0  0  0  0  0  0  0
    2.2363    0.1152   -0.0003 N   0  0  0  0  0  2  0  0  0  0  0  0
    0.6982    1.8502   -0.0004 N   0  0  0  0  0  0  0  0  0  0  0  0
   -1.4422    1.5159   -0.0003 N   0  0  0  0  0  0  0  0  0  0  0  0
   -0.2664    0.8308   -0.0005 C   0  0  0  0  0  2  0  0  0  0  0  0
    0.1247    3.1213   -0.0003 C   0  0  0  0  0  0  0  0  0  0  0  0
    0.7180    4.0394   -0.0003 H   0  0  0  0  0  0  0  0  0  0  0  0
   -1.2247    2.9003   -0.0002 C   0  0  0  0  0  0  0  0  0  0  0  0
   -2.0647    3.6010   -0.0001 H   0  0  0  0  0  0  0  0  0  0  0  0
    1.9982    1.4087   -0.0003 C   0  0  1  0  0  3  0  0  0  0  0  0
    4.1483    1.3248    0.0004 C   0  0  0  0  0  0  0  0  0  0  0  0
    3.6312    0.0087    0.0001 C   0  0  0  0  0  0  0  0  0  0  0  0
    4.4907   -1.0988    0.0003 C   0  0  0  0  0  0  0  0  0  0  0  0
    4.0598   -2.1112    0.0001 H   0  0  0  0  0  0  0  0  0  0  0  0
    5.8652   -0.8186    0.0006 C   0  0  0  0  0  0  0  0  0  0  0  0
    6.5799   -1.6547    0.0007 H   0  0  0  0  0  0  0  0  0  0  0  0
    6.3635    0.5050    0.0009 C   0  0  0  0  0  0  0  0  0  0  0  0
    7.4509    0.6709    0.0012 H   0  0  0  0  0  0  0  0  0  0  0  0
    5.5071    1.6212    0.0008 C   0  0  0  0  0  0  0  0  0  0  0  0
    5.8813    2.6536    0.0009 H   0  0  0  0  0  0  0  0  0  0  0  0
   -2.7681    0.9443    0.0001 C   0  0  0  0  0  0  0  0  0  0  0  0
   -3.3836    0.6767    1.2385 C   0  0  0  0  0  0  0  0  0  0  0  0
   -2.6301    0.8473    2.5293 C   0  0  0  0  0  0  0  0  0  0  0  0
   -1.8490    0.0595    2.6006 H   0  0  0  0  0  0  0  0  0  0  0  0
   -3.3011    0.7450    3.4024 H   0  0  0  0  0  0  0  0  0  0  0  0
   -2.1157    1.8275    2.5989 H   0  0  0  0  0  0  0  0  0  0  0  0
   -4.6874    0.1559    1.2100 C   0  0  0  0  0  0  0  0  0  0  0  0
   -5.1877   -0.0671    2.1659 H   0  0  0  0  0  0  0  0  0  0  0  0
   -5.3567   -0.1096    0.0010 C   0  0  0  0  0  0  0  0  0  0  0  0
   -6.7370   -0.7159    0.0015 C   0  0  0  0  0  0  0  0  0  0  0  0
   -6.6749   -1.8254    0.0027 H   0  0  0  0  0  0  0  0  0  0  0  0
   -7.3145   -0.4224   -0.8970 H   0  0  0  0  0  0  0  0  0  0  0  0
   -7.3145   -0.4206    0.8995 H   0  0  0  0  0  0  0  0  0  0  0  0
   -4.6886    0.1566   -1.2085 C   0  0  0  0  0  0  0  0  0  0  0  0
   -5.1898   -0.0657   -2.1639 H   0  0  0  0  0  0  0  0  0  0  0  0
   -3.3849    0.6776   -1.2378 C   0  0  0  0  0  0  0  0  0  0  0  0
   -2.6326    0.8489   -2.5293 C   0  0  0  0  0  0  0  0  0  0  0  0
   -3.3046    0.7476   -3.4018 H   0  0  0  0  0  0  0  0  0  0  0  0
   -1.8518    0.0610   -2.6022 H   0  0  0  0  0  0  0  0  0  0  0  0
   -2.1179    1.8289   -2.5987 H   0  0  0  0  0  0  0  0  0  0  0  0
  1 11  1  0  0  0  0
  2 10  1  0  0  0  0
  2 12  1  0  0  0  0
  3  6  1  0  0  0  0
  4  8  1  0  0  0  0
  4 21  1  0  0  0  0
  5  3  1  0  0  0  0
  5  4  1  0  0  0  0
  6  8  2  0  0  0  0
  7  6  1  0  0  0  0
  8  9  1  0  0  0  0
 10  3  1  1  0  0  0
 10  1  1  0  0  0  0
 11 19  1  0  0  0  0
 12 13  1  0  0  0  0
 12 11  2  0  0  0  0
 13 15  2  0  0  0  0
 14 13  1  0  0  0  0
 15 16  1  0  0  0  0
 15 17  1  0  0  0  0
 17 18  1  0  0  0  0
 19 17  2  0  0  0  0
 19 20  1  0  0  0  0
 21 22  1  0  0  0  0
 22 23  1  0  0  0  0
 23 26  1  0  0  0  0
 23 24  1  0  0  0  0
 23 25  1  0  0  0  0
 27 22  2  0  0  0  0
 27 28  1  0  0  0  0
 29 30  1  0  0  0  0
 29 27  1  0  0  0  0
 30 31  1  0  0  0  0
 30 33  1  0  0  0  0
 32 30  1  0  0  0  0
 34 29  2  0  0  0  0
 35 34  1  0  0  0  0
 36 34  1  0  0  0  0
 36 21  2  0  0  0  0
 37 36  1  0  0  0  0
 38 37  1  0  0  0  0
 39 37  1  0  0  0  0
 40 37  1  0  0  0  0
M  END
