3,15
q = -1.0, confidence = 0.004

 23 25  0  0  0  0  0  0  0  0999 V2000
    5.0657   -1.4628    0.0003 Br  0  0  0  0  0  0  0  0  0  0  0  0
   -2.0271   -3.3457   -0.0005 S   0  0  0  0  0  0  0  0  0  0  0  0
   -1.6915   -0.7648    0.0002 N   0  0  0  0  0  2  0  0  0  0  0  0
   -5.4221   -0.3726    0.0003 C   0  0  0  0  0  0  0  0  0  0  0  0
   -6.2117    0.3935    0.0005 H   0  0  0  0  0  0  0  0  0  0  0  0
   -1.0210   -1.9232   -0.0001 C   0  0  0  0  0  0  0  0  0  0  0  0
   -4.7938   -2.7313   -0.0003 C   0  0  0  0  0  0  0  0  0  0  0  0
   -5.0595   -3.7981   -0.0006 H   0  0  0  0  0  0  0  0  0  0  0  0
   -4.0852    0.0361    0.0004 C   0  0  0  0  0  0  0  0  0  0  0  0
   -3.7967    1.0968    0.0007 H   0  0  0  0  0  0  0  0  0  0  0  0
    2.3786   -0.4796   -0.0000 C   0  0  0  0  0  0  0  0  0  0  0  0
    2.8566    0.5123   -0.0001 H   0  0  0  0  0  0  0  0  0  0  0  0
   -5.7798   -1.7377   -0.0001 C   0  0  0  0  0  0  0  0  0  0  0  0
   -6.8408   -2.0283   -0.0001 H   0  0  0  0  0  0  0  0  0  0  0  0
    0.9768   -0.5852   -0.0001 C   0  0  0  0  0  2  0  0  0  0  0  0
   -3.0763   -0.9478    0.0001 C   0  0  0  0  0  0  0  0  0  0  0  0
    2.6171   -2.9358   -0.0000 C   0  0  0  0  0  0  0  0  0  0  0  0
    3.2668   -3.8211    0.0000 H   0  0  0  0  0  0  0  0  0  0  0  0
    3.1698   -1.6406    0.0001 C   0  0  0  0  0  0  0  0  0  0  0  0
    0.4172   -1.9024   -0.0001 C   0  0  0  0  0  0  0  0  0  0  0  0
    1.2274   -3.0574   -0.0001 C   0  0  0  0  0  0  0  0  0  0  0  0
    0.7659   -4.0580   -0.0002 H   0  0  0  0  0  0  0  0  0  0  0  0
   -3.4519   -2.3241   -0.0002 C   0  0  0  0  0  0  0  0  0  0  0  0
  2 23  1  0  0  0  0
  2  6  1  0  0  0  0
  4  9  1  0  0  0  0
  4  5  1  0  0  0  0
  6  3  1  0  0  0  0
  7 23  2  0  0  0  0
  7 13  1  0  0  0  0
  8  7  1  0  0  0  0
  9 10  1  0  0  0  0
 11 19  2  0  0  0  0
 12 11  1  0  0  0  0
 13  4  2  0  0  0  0
 14 13  1  0  0  0  0
 15 11  1  0  0  0  0
 16  3  1  0  0  0  0
 16  9  2  0  0  0  0
 17 18  1  0  0  0  0
 17 19  1  0  0  0  0
 19  1  1  0  0  0  0
 20 21  1  0  0  0  0
 20 15  1  0  0  0  0
 20  6  2  0  0  0  0
 21 17  2  0  0  0  0
 22 21  1  0  0  0  0
 23 16  1  0  0  0  0
M  END
