12,31
q = -1.0

 31 33  0  0  0  0  0  0  0  0999 V2000
   -3.8553   -0.8337   -2.4473 Se  0  0  0  0  0  0  0  0  0  0  0  0
    3.8030   -1.9094    0.0225 C   0  0  0  0  0  3  0  0  0  0  0  0
    4.1663   -1.1815    0.7636 H   0  0  0  0  0  0  0  0  0  0  0  0
    4.5879   -2.9580   -0.4602 C   0  0  0  0  0  0  0  0  0  0  0  0
    5.6176   -3.0782   -0.0964 H   0  0  0  0  0  0  0  0  0  0  0  0
    4.0317   -3.8388   -1.4052 C   0  0  0  0  0  0  0  0  0  0  0  0
    4.6221   -4.6768   -1.8046 H   0  0  0  0  0  0  0  0  0  0  0  0
    2.7193   -3.6334   -1.8381 C   0  0  0  0  0  0  0  0  0  0  0  0
    2.2645   -4.2994   -2.5841 H   0  0  0  0  0  0  0  0  0  0  0  0
    1.9662   -2.5571   -1.3286 C   0  0  0  0  0  0  0  0  0  0  0  0
    0.6053   -2.1860   -1.7035 C   0  0  0  0  0  0  0  0  0  0  0  0
    0.1328   -0.9739   -1.1023 C   0  0  0  0  0  3  0  0  0  0  0  0
   -1.1634   -0.5352   -1.4289 C   0  0  0  0  0  0  0  0  0  0  0  0
   -1.5431    0.4097   -1.0153 H   0  0  0  0  0  0  0  0  0  0  0  0
   -2.0116   -1.3378   -2.2103 C   0  0  0  0  0  0  0  0  0  0  0  0
   -1.5465   -2.5371   -2.7924 C   0  0  0  0  0  0  0  0  0  0  0  0
   -2.2221   -3.1617   -3.3946 H   0  0  0  0  0  0  0  0  0  0  0  0
   -0.2264   -2.9382   -2.5599 C   0  0  0  0  0  0  0  0  0  0  0  0
    0.1352   -3.8754   -3.0113 H   0  0  0  0  0  0  0  0  0  0  0  0
   -4.3080   -0.4196   -0.6213 C   0  0  0  0  0  0  0  0  0  0  0  0
   -5.4159    0.4282   -0.4193 C   0  0  0  0  0  0  0  0  0  0  0  0
   -5.9745    0.8656   -1.2588 H   0  0  0  0  0  0  0  0  0  0  0  0
   -5.7971    0.7420    0.8900 C   0  0  0  0  0  0  0  0  0  0  0  0
   -5.1043    0.2651    2.0099 C   0  0  0  0  0  0  0  0  0  0  0  0
   -5.4043    0.5374    3.0297 H   0  0  0  0  0  0  0  0  0  0  0  0
   -4.0088   -0.5706    1.7636 C   0  0  0  0  0  0  0  0  0  0  0  0
   -3.6002   -0.9413    0.4809 C   0  0  0  0  0  0  0  0  0  0  0  0
   -2.7296   -1.6002    0.3634 H   0  0  0  0  0  0  0  0  0  0  0  0
   -6.8524    1.5533    1.0825 F   0  0  0  0  0  0  0  0  0  0  0  0
   -3.3038   -1.0243    2.8275 F   0  0  0  0  0  0  0  0  0  0  0  0
    2.5302   -1.7181   -0.3908 N   0  0  0  0  0  2  0  0  0  0  0  0
  1 15  1  0  0  0  0
  1 20  1  0  0  0  0
  2  3  1  0  0  0  0
  4  5  1  0  0  0  0
  4  2  1  0  0  0  0
  6  4  2  0  0  0  0
  7  6  1  0  0  0  0
  8  6  1  0  0  0  0
  8 10  2  0  0  0  0
  9  8  1  0  0  0  0
 10 31  1  0  0  0  0
 11 10  1  0  0  0  0
 11 12  1  0  0  0  0
 13 12  2  0  0  0  0
 13 14  1  0  0  0  0
 15 13  1  0  0  0  0
 16 18  1  0  0  0  0
 16 15  2  0  0  0  0
 17 16  1  0  0  0  0
 18 11  2  0  0  0  0
 19 18  1  0  0  0  0
 20 21  2  0  0  0  0
 20 27  1  0  0  0  0
 21 23  1  0  0  0  0
 22 21  1  0  0  0  0
 23 29  1  0  0  0  0
 23 24  2  0  0  0  0
 24 25  1  0  0  0  0
 26 24  1  0  0  0  0
 26 30  1  0  0  0  0
 27 26  2  0  0  0  0
 28 27  1  0  0  0  0
 31  2  1  0  0  0  0
M  END
