1,16
q = -1.0, confidence = 0.002

 48 48  0  0  0  0  0  0  0  0999 V2000
    3.3286   -0.2460    0.3077 N   0  0  0  0  0  0  0  0  0  0  0  0
   -2.4774   -2.8425   -1.2128 N   0  0  0  0  0  0  0  0  0  0  0  0
   -0.0633   -0.7260    2.2503 N   0  0  0  0  0  2  0  0  0  0  0  0
    0.8139   -2.0200    0.4178 C   0  0  0  0  0  0  0  0  0  0  0  0
   -0.2062   -2.7818   -0.1971 C   0  0  0  0  0  0  0  0  0  0  0  0
    0.1405   -3.9846   -0.8410 C   0  0  0  0  0  0  0  0  0  0  0  0
    1.4711   -4.4220   -0.8869 C   0  0  0  0  0  0  0  0  0  0  0  0
    2.4828   -3.6520   -0.2913 C   0  0  0  0  0  0  0  0  0  0  0  0
    2.1621   -2.4503    0.3572 C   0  0  0  0  0  0  0  0  0  0  0  0
    3.2083   -1.5709    0.9913 C   0  0  0  0  0  0  0  0  0  0  0  0
    4.2095    0.6439    1.0950 C   0  0  0  0  0  0  0  0  0  0  0  0
    3.8916   -0.4409   -1.0490 C   0  0  0  0  0  0  0  0  0  0  0  0
   -1.6511   -2.3249   -0.1325 C   0  0  0  0  0  0  0  0  0  0  0  0
   -2.1619   -2.2293   -2.4909 C   0  0  0  0  0  0  0  0  0  0  0  0
   -3.8930   -2.7804   -0.9099 C   0  0  0  0  0  0  0  0  0  0  0  0
    0.5363   -0.7407    1.1276 C   0  0  0  0  0  2  0  0  0  0  0  0
   -0.3179    0.4741    3.0184 C   0  0  0  0  0  0  0  0  0  0  0  0
   -1.7365    0.4720    3.5990 C   0  0  0  0  0  0  0  0  0  0  0  0
   -2.8274    0.6055    2.5338 C   0  0  0  0  0  0  0  0  0  0  0  0
   -4.2498    0.5079    3.0830 C   0  0  0  0  0  0  0  0  0  0  0  0
   -0.6687   -4.5666   -1.3079 H   0  0  0  0  0  0  0  0  0  0  0  0
    1.7235   -5.3647   -1.3956 H   0  0  0  0  0  0  0  0  0  0  0  0
    3.5327   -3.9834   -0.3300 H   0  0  0  0  0  0  0  0  0  0  0  0
    2.9475   -1.3637    2.0486 H   0  0  0  0  0  0  0  0  0  0  0  0
    4.2021   -2.0744    0.9785 H   0  0  0  0  0  0  0  0  0  0  0  0
    5.2267    0.1991    1.1944 H   0  0  0  0  0  0  0  0  0  0  0  0
    4.2708    1.6229    0.5824 H   0  0  0  0  0  0  0  0  0  0  0  0
    3.7765    0.7906    2.1029 H   0  0  0  0  0  0  0  0  0  0  0  0
    4.9057   -0.8987   -0.9789 H   0  0  0  0  0  0  0  0  0  0  0  0
    3.2309   -1.1143   -1.6261 H   0  0  0  0  0  0  0  0  0  0  0  0
    3.9443    0.5401   -1.5571 H   0  0  0  0  0  0  0  0  0  0  0  0
   -2.0817   -2.6641    0.8349 H   0  0  0  0  0  0  0  0  0  0  0  0
   -1.6759   -1.2038   -0.0857 H   0  0  0  0  0  0  0  0  0  0  0  0
   -2.7296   -2.7254   -3.3042 H   0  0  0  0  0  0  0  0  0  0  0  0
   -2.4039   -1.1323   -2.5214 H   0  0  0  0  0  0  0  0  0  0  0  0
   -1.0813   -2.3360   -2.7110 H   0  0  0  0  0  0  0  0  0  0  0  0
   -4.1085   -3.3284    0.0298 H   0  0  0  0  0  0  0  0  0  0  0  0
   -4.2805   -1.7316   -0.7876 H   0  0  0  0  0  0  0  0  0  0  0  0
   -4.4772   -3.2547   -1.7250 H   0  0  0  0  0  0  0  0  0  0  0  0
   -0.1340    1.3993    2.4164 H   0  0  0  0  0  0  0  0  0  0  0  0
    0.4122    0.4926    3.8585 H   0  0  0  0  0  0  0  0  0  0  0  0
   -1.8256    1.3006    4.3350 H   0  0  0  0  0  0  0  0  0  0  0  0
   -1.8821   -0.4741    4.1649 H   0  0  0  0  0  0  0  0  0  0  0  0
   -2.6665   -0.1798    1.7638 H   0  0  0  0  0  0  0  0  0  0  0  0
   -2.6925    1.5765    2.0085 H   0  0  0  0  0  0  0  0  0  0  0  0
   -5.0083    0.6128    2.2795 H   0  0  0  0  0  0  0  0  0  0  0  0
   -4.4233   -0.4701    3.5783 H   0  0  0  0  0  0  0  0  0  0  0  0
   -4.4509    1.2981    3.8366 H   0  0  0  0  0  0  0  0  0  0  0  0
  1 10  1  0  0  0  0
  1 11  1  0  0  0  0
  2 15  1  0  0  0  0
  2 13  1  0  0  0  0
  3 17  1  0  0  0  0
  4 16  1  0  0  0  0
  5 13  1  0  0  0  0
  5  4  2  0  0  0  0
  6  5  1  0  0  0  0
  7  6  2  0  0  0  0
  7  8  1  0  0  0  0
  8  9  2  0  0  0  0
  9  4  1  0  0  0  0
  9 10  1  0  0  0  0
 10 24  1  0  0  0  0
 11 26  1  0  0  0  0
 11 28  1  0  0  0  0
 12 29  1  0  0  0  0
 12  1  1  0  0  0  0
 13 33  1  0  0  0  0
 13 32  1  0  0  0  0
 14  2  1  0  0  0  0
 15 38  1  0  0  0  0
 15 37  1  0  0  0  0
 16  3  1  0  0  0  0
 17 18  1  0  0  0  0
 17 41  1  0  0  0  0
 18 43  1  0  0  0  0
 18 42  1  0  0  0  0
 19 20  1  0  0  0  0
 19 18  1  0  0  0  0
 20 47  1  0  0  0  0
 20 48  1  0  0  0  0
 21  6  1  0  0  0  0
 22  7  1  0  0  0  0
 23  8  1  0  0  0  0
 25 10  1  0  0  0  0
 27 11  1  0  0  0  0
 30 12  1  0  0  0  0
 31 12  1  0  0  0  0
 34 14  1  0  0  0  0
 35 14  1  0  0  0  0
 36 14  1  0  0  0  0
 39 15  1  0  0  0  0
 40 17  1  0  0  0  0
 44 19  1  0  0  0  0
 45 19  1  0  0  0  0
 46 20  1  0  0  0  0
M  END
