1,20
q = -1.0, confidence = 0.0

 22 21  0  0  0  0  0  0  0  0999 V2000
   -1.7467   -2.3521    0.0001 N   0  0  0  0  0  0  0  0  0  0  0  0
   -3.1689   -2.0097    0.0003 C   0  0  0  0  0  0  0  0  0  0  0  0
   -3.8692   -2.8641    0.0004 H   0  0  0  0  0  0  0  0  0  0  0  0
   -3.5259   -0.7156    0.0004 C   0  0  0  0  0  0  0  0  0  0  0  0
   -4.6019   -0.4613    0.0006 H   0  0  0  0  0  0  0  0  0  0  0  0
   -1.3934   -3.1625    1.2169 C   0  0  0  0  0  0  0  0  0  0  0  0
   -0.3121   -3.3857    1.1248 H   0  0  0  0  0  0  0  0  0  0  0  0
   -1.9494   -4.1268    1.1541 H   0  0  0  0  0  0  0  0  0  0  0  0
   -1.6857   -2.4580    2.5319 C   0  0  0  0  0  0  0  0  0  0  0  0
   -1.1199   -1.5062    2.5937 H   0  0  0  0  0  0  0  0  0  0  0  0
   -1.3792   -3.1084    3.3747 H   0  0  0  0  0  0  0  0  0  0  0  0
   -2.7623   -2.2245    2.6453 H   0  0  0  0  0  0  0  0  0  0  0  0
   -1.3937   -3.1624   -1.2168 C   0  0  0  0  0  0  0  0  0  0  0  0
   -0.3124   -3.3856   -1.1250 H   0  0  0  0  0  0  0  0  0  0  0  0
   -1.9496   -4.1268   -1.1539 H   0  0  0  0  0  0  0  0  0  0  0  0
   -1.6865   -2.4579   -2.5316 C   0  0  0  0  0  0  0  0  0  0  0  0
   -2.7631   -2.2244   -2.6448 H   0  0  0  0  0  0  0  0  0  0  0  0
   -1.3801   -3.1082   -3.3746 H   0  0  0  0  0  0  0  0  0  0  0  0
   -1.1208   -1.5060   -2.5936 H   0  0  0  0  0  0  0  0  0  0  0  0
   -2.4882    0.3670    0.0003 C   0  0  0  0  0  3  0  0  0  0  0  0
   -2.6389    1.0345    0.8810 H   0  0  0  0  0  0  0  0  0  0  0  0
   -2.6390    1.0344   -0.8806 H   0  0  0  0  0  0  0  0  0  0  0  0
  1  2  1  0  0  0  0
  1  6  1  0  0  0  0
  2  3  1  0  0  0  0
  2  4  2  0  0  0  0
  4  5  1  0  0  0  0
  6  9  1  0  0  0  0
  7  6  1  0  0  0  0
  8  6  1  0  0  0  0
  9 10  1  0  0  0  0
  9 12  1  0  0  0  0
  9 11  1  0  0  0  0
 13 15  1  0  0  0  0
 13 14  1  0  0  0  0
 13  1  1  0  0  0  0
 16 13  1  0  0  0  0
 17 16  1  0  0  0  0
 18 16  1  0  0  0  0
 19 16  1  0  0  0  0
 20  4  1  0  0  0  0
 20 21  1  0  0  0  0
 22 20  1  0  0  0  0
M  END
