1,9
q = -1.0

 26 27  0  0  1  0  0  0  0  0999 V2000
    2.7535   -1.1441   -0.2226 N   0  0  0  0  0  2  0  0  0  0  0  0
    3.6431   -0.4028    0.4921 C   0  0  1  0  0  3  0  0  0  0  0  0
    5.0076   -0.7354    0.4636 C   0  0  0  0  0  0  0  0  0  0  0  0
    5.4491   -1.8195   -0.3062 C   0  0  0  0  0  0  0  0  0  0  0  0
    4.5115   -2.5707   -1.0257 C   0  0  0  0  0  0  0  0  0  0  0  0
    3.1648   -2.2045   -0.9510 C   0  0  0  0  0  0  0  0  0  0  0  0
    3.0767    0.7749    1.2740 C   0  0  2  0  0  0  0  0  0  0  0  0
    2.4550    1.7388    0.2570 C   0  0  0  0  0  0  0  0  0  0  0  0
    1.3603    1.2642   -0.5115 C   0  0  0  0  0  3  0  0  0  0  0  0
    0.8635    2.0876   -1.5441 C   0  0  0  0  0  0  0  0  0  0  0  0
    1.3933    3.3660   -1.7783 C   0  0  0  0  0  0  0  0  0  0  0  0
    2.4390    3.8473   -0.9772 C   0  0  0  0  0  0  0  0  0  0  0  0
    2.9752    3.0266    0.0282 C   0  0  0  0  0  0  0  0  0  0  0  0
    4.0637    1.4017    2.2547 C   0  0  0  0  0  0  0  0  0  0  0  0
    2.2250    0.3452    1.8510 H   0  0  0  0  0  0  0  0  0  0  0  0
    5.7219   -0.1418    1.0483 H   0  0  0  0  0  0  0  0  0  0  0  0
    6.5185   -2.0779   -0.3361 H   0  0  0  0  0  0  0  0  0  0  0  0
    4.8071   -3.4366   -1.6343 H   0  0  0  0  0  0  0  0  0  0  0  0
    2.3624   -2.7775   -1.4401 H   0  0  0  0  0  0  0  0  0  0  0  0
    0.0297    1.7331   -2.1690 H   0  0  0  0  0  0  0  0  0  0  0  0
    0.9777    3.9909   -2.5841 H   0  0  0  0  0  0  0  0  0  0  0  0
    2.8489    4.8558   -1.1398 H   0  0  0  0  0  0  0  0  0  0  0  0
    3.8109    3.4029    0.6374 H   0  0  0  0  0  0  0  0  0  0  0  0
    4.4298    0.6535    2.9852 H   0  0  0  0  0  0  0  0  0  0  0  0
    4.9458    1.8427    1.7478 H   0  0  0  0  0  0  0  0  0  0  0  0
    3.5694    2.2148    2.8205 H   0  0  0  0  0  0  0  0  0  0  0  0
  1  2  1  0  0  0  0
  2  7  1  6  0  0  0
  3  2  1  0  0  0  0
  3 16  1  0  0  0  0
  4  3  2  0  0  0  0
  5  6  2  0  0  0  0
  5  4  1  0  0  0  0
  6  1  1  0  0  0  0
  7 15  1  1  0  0  0
  7 14  1  0  0  0  0
  8  7  1  0  0  0  0
  9  8  2  0  0  0  0
 10  9  1  0  0  0  0
 11 10  2  0  0  0  0
 11 12  1  0  0  0  0
 12 13  2  0  0  0  0
 13  8  1  0  0  0  0
 13 23  1  0  0  0  0
 14 26  1  0  0  0  0
 14 24  1  0  0  0  0
 17  4  1  0  0  0  0
 18  5  1  0  0  0  0
 19  6  1  0  0  0  0
 20 10  1  0  0  0  0
 21 11  1  0  0  0  0
 22 12  1  0  0  0  0
 25 14  1  0  0  0  0
M  END
