4,5
q = -1.0, confidence = 0.0

 24 25  0  0  1  0  0  0  0  0999 V2000
   -2.3612   -4.9465   -2.5336 F   0  0  0  0  0  0  0  0  0  0  0  0
   -3.9357   -3.1658   -1.2986 F   0  0  0  0  0  0  0  0  0  0  0  0
   -6.1386    0.3399    0.9526 O   0  0  0  0  0  0  0  0  0  0  0  0
   -2.0392    0.3750    0.2956 N   0  0  0  0  0  2  0  0  0  0  0  0
   -0.6557   -1.4700   -0.9620 C   0  0  0  0  0  3  0  0  0  0  0  0
    0.1381   -2.4367   -1.6102 C   0  0  0  0  0  0  0  0  0  0  0  0
    1.2219   -2.2833   -1.7102 H   0  0  0  0  0  0  0  0  0  0  0  0
   -0.4256   -3.6053   -2.1430 C   0  0  0  0  0  0  0  0  0  0  0  0
    0.1871   -4.3630   -2.6540 H   0  0  0  0  0  0  0  0  0  0  0  0
   -1.8009   -3.8316   -2.0305 C   0  0  0  0  0  0  0  0  0  0  0  0
   -2.6159   -2.8936   -1.3836 C   0  0  0  0  0  0  0  0  0  0  0  0
   -2.0632   -1.7128   -0.8421 C   0  0  0  0  0  0  0  0  0  0  0  0
   -2.8231   -0.6757   -0.1476 C   0  0  2  0  0  3  0  0  0  0  0  0
   -4.2049   -0.6643    0.0892 C   0  0  0  0  0  0  0  0  0  0  0  0
   -4.8330   -1.4888   -0.2619 H   0  0  0  0  0  0  0  0  0  0  0  0
   -4.8034    0.4107    0.7721 C   0  0  0  0  0  0  0  0  0  0  0  0
   -6.7923    1.4100    1.6189 C   0  0  0  0  0  0  0  0  0  0  0  0
   -7.8655    1.1484    1.6462 H   0  0  0  0  0  0  0  0  0  0  0  0
   -6.6657    2.3704    1.0730 H   0  0  0  0  0  0  0  0  0  0  0  0
   -6.4215    1.5323    2.6604 H   0  0  0  0  0  0  0  0  0  0  0  0
   -3.9849    1.4725    1.2153 C   0  0  0  0  0  0  0  0  0  0  0  0
   -4.3797    2.3440    1.7506 H   0  0  0  0  0  0  0  0  0  0  0  0
   -2.6177    1.4024    0.9484 C   0  0  0  0  0  0  0  0  0  0  0  0
   -1.9418    2.2059    1.2717 H   0  0  0  0  0  0  0  0  0  0  0  0
  1 10  1  0  0  0  0
  3 17  1  0  0  0  0
  4 23  1  0  0  0  0
  5 12  1  0  0  0  0
  6  5  2  0  0  0  0
  7  6  1  0  0  0  0
  8 10  2  0  0  0  0
  8  6  1  0  0  0  0
  9  8  1  0  0  0  0
 10 11  1  0  0  0  0
 11  2  1  0  0  0  0
 11 12  2  0  0  0  0
 13 12  1  6  0  0  0
 13 14  1  0  0  0  0
 13  4  1  0  0  0  0
 14 16  2  0  0  0  0
 15 14  1  0  0  0  0
 16  3  1  0  0  0  0
 16 21  1  0  0  0  0
 17 18  1  0  0  0  0
 17 20  1  0  0  0  0
 19 17  1  0  0  0  0
 21 22  1  0  0  0  0
 23 21  2  0  0  0  0
 23 24  1  0  0  0  0
M  END
