4,24
q = -1.0, confidence = 0.0

 24 25  0  0  0  0  0  0  0  0999 V2000
   -3.8580   -3.2604   -1.6083 F   0  0  0  0  0  0  0  0  0  0  0  0
    1.5642   -2.5118   -1.4799 F   0  0  0  0  0  0  0  0  0  0  0  0
   -6.2115    0.2452    0.4275 O   0  0  0  0  0  0  0  0  0  0  0  0
   -2.0696    0.2138    0.1880 N   0  0  0  0  0  2  0  0  0  0  0  0
   -2.6906    1.2351    0.8062 C   0  0  0  0  0  3  0  0  0  0  0  0
   -2.0385    2.0157    1.2202 H   0  0  0  0  0  0  0  0  0  0  0  0
   -4.0758    1.3271    0.9356 C   0  0  0  0  0  0  0  0  0  0  0  0
   -4.5069    2.1923    1.4528 H   0  0  0  0  0  0  0  0  0  0  0  0
   -4.8629    0.2928    0.3861 C   0  0  0  0  0  0  0  0  0  0  0  0
   -6.9085    1.3110    1.0541 C   0  0  0  0  0  0  0  0  0  0  0  0
   -7.9840    1.0724    0.9666 H   0  0  0  0  0  0  0  0  0  0  0  0
   -6.7098    2.2827    0.5509 H   0  0  0  0  0  0  0  0  0  0  0  0
   -6.6424    1.3989    2.1306 H   0  0  0  0  0  0  0  0  0  0  0  0
   -4.2171   -0.7787   -0.2568 C   0  0  0  0  0  0  0  0  0  0  0  0
   -4.8195   -1.5844   -0.6866 H   0  0  0  0  0  0  0  0  0  0  0  0
   -2.8192   -0.8121   -0.3492 C   0  0  0  0  0  0  0  0  0  0  0  0
   -2.0105   -1.8598   -0.9714 C   0  0  0  0  0  0  0  0  0  0  0  0
   -2.5213   -3.0369   -1.5648 C   0  0  0  0  0  0  0  0  0  0  0  0
   -1.6884   -4.0072   -2.1187 C   0  0  0  0  0  0  0  0  0  0  0  0
   -2.1328   -4.9048   -2.5692 H   0  0  0  0  0  0  0  0  0  0  0  0
   -0.3015   -3.8038   -2.0783 C   0  0  0  0  0  0  0  0  0  0  0  0
    0.3964   -4.5432   -2.4972 H   0  0  0  0  0  0  0  0  0  0  0  0
    0.2128   -2.6416   -1.4951 C   0  0  0  0  0  0  0  0  0  0  0  0
   -0.5958   -1.6358   -0.9397 C   0  0  0  0  0  3  0  0  0  0  0  0
  1 18  1  0  0  0  0
  3 10  1  0  0  0  0
  4  5  1  0  0  0  0
  5  7  1  0  0  0  0
  5  6  1  0  0  0  0
  7  8  1  0  0  0  0
  9  3  1  0  0  0  0
  9  7  2  0  0  0  0
 10 13  1  0  0  0  0
 11 10  1  0  0  0  0
 12 10  1  0  0  0  0
 14  9  1  0  0  0  0
 15 14  1  0  0  0  0
 16 14  2  0  0  0  0
 16  4  1  0  0  0  0
 17 24  1  0  0  0  0
 17 16  1  0  0  0  0
 18 17  2  0  0  0  0
 19 21  2  0  0  0  0
 19 18  1  0  0  0  0
 20 19  1  0  0  0  0
 21 23  1  0  0  0  0
 22 21  1  0  0  0  0
 23  2  1  0  0  0  0
 23 24  2  0  0  0  0
M  END
