3,19
q = 0.0, confidence = 0.992

 23 24  0  0  1  0  0  0  0  0999 V2000
   -1.6077   -2.0988    0.1341 S   0  0  0  0  0  0  0  0  0  0  0  0
   -0.8132    0.3746   -0.1293 N   0  0  0  0  0  0  0  0  0  0  0  0
    0.9778   -1.1709   -0.0475 N   0  0  0  0  0  2  0  0  0  0  0  0
    1.2276   -2.1646   -0.0164 H   0  0  0  0  0  0  0  0  0  0  0  0
   -2.8231   -0.8270    0.0428 C   0  0  0  0  0  0  0  0  0  0  0  0
   -4.2135   -0.9710    0.0968 C   0  0  0  0  0  0  0  0  0  0  0  0
   -4.6675   -1.9663    0.2066 H   0  0  0  0  0  0  0  0  0  0  0  0
   -5.0115    0.1811    0.0068 C   0  0  0  0  0  0  0  0  0  0  0  0
   -6.1063    0.0883    0.0472 H   0  0  0  0  0  0  0  0  0  0  0  0
   -4.4154    1.4453   -0.1363 C   0  0  0  0  0  0  0  0  0  0  0  0
   -5.0469    2.3428   -0.2087 H   0  0  0  0  0  0  0  0  0  0  0  0
   -3.0199    1.5901   -0.1916 C   0  0  0  0  0  0  0  0  0  0  0  0
   -2.5777    2.5890   -0.3079 H   0  0  0  0  0  0  0  0  0  0  0  0
   -2.2114    0.4445   -0.0979 C   0  0  0  0  0  0  0  0  0  0  0  0
   -0.2918   -0.9072   -0.0270 C   0  0  1  0  0  3  0  0  0  0  0  0
    0.0501    1.5386   -0.3914 C   0  0  0  0  0  0  0  0  0  0  0  0
   -0.6066    2.4287   -0.3185 H   0  0  0  0  0  0  0  0  0  0  0  0
    0.4185    1.4940   -1.4403 H   0  0  0  0  0  0  0  0  0  0  0  0
    1.2050    1.6592    0.5732 C   0  0  0  0  0  3  0  0  0  0  0  0
    0.9290    1.5885    1.6417 H   0  0  0  0  0  0  0  0  0  0  0  0
    2.4598    2.1823    0.2296 C   0  0  0  0  0  3  0  0  0  0  0  0
    2.6810    2.5215   -0.7967 H   0  0  0  0  0  0  0  0  0  0  0  0
    3.1511    2.5306    1.0115 H   0  0  0  0  0  0  0  0  0  0  0  0
  2 14  1  0  0  0  0
  2 15  1  0  0  0  0
  3  4  1  0  0  0  0
  5  6  1  0  0  0  0
  5  1  1  0  0  0  0
  6  7  1  0  0  0  0
  8  9  1  0  0  0  0
  8  6  2  0  0  0  0
 10  8  1  0  0  0  0
 11 10  1  0  0  0  0
 12 10  2  0  0  0  0
 12 14  1  0  0  0  0
 13 12  1  0  0  0  0
 14  5  2  0  0  0  0
 15  3  1  1  0  0  0
 15  1  1  0  0  0  0
 16 17  1  0  0  0  0
 16  2  1  0  0  0  0
 16 19  1  0  0  0  0
 18 16  1  0  0  0  0
 19 20  1  0  0  0  0
 21 19  1  0  0  0  0
 21 23  1  0  0  0  0
 22 21  1  0  0  0  0
M  END
