5,6
q = -1.0

 40 40  0  0  0  0  0  0  0  0999 V2000
   -2.8678   -2.6037   -0.1155 O   0  0  0  0  0  0  0  0  0  0  0  0
   -4.7580   -3.8630   -0.2440 O   0  0  0  0  0  0  0  0  0  0  0  0
   -4.8292   -0.7680    1.5287 O   0  0  0  0  0  0  0  0  0  0  0  0
   -5.1577    0.7474   -0.1282 O   0  0  0  0  0  0  0  0  0  0  0  0
    3.9607   -1.6248    0.1026 N   0  0  0  0  0  0  0  0  0  0  0  0
    1.2590   -1.9930   -0.1700 C   0  0  0  0  0  3  0  0  0  0  0  0
    2.0889   -3.1247   -0.4152 C   0  0  0  0  0  0  0  0  0  0  0  0
    1.5551   -4.4231   -0.4276 C   0  0  0  0  0  0  0  0  0  0  0  0
    2.2141   -5.2853   -0.6206 H   0  0  0  0  0  0  0  0  0  0  0  0
    0.1838   -4.6300   -0.2106 C   0  0  0  0  0  0  0  0  0  0  0  0
   -0.2337   -5.6486   -0.2446 H   0  0  0  0  0  0  0  0  0  0  0  0
   -0.6524   -3.5323    0.0631 C   0  0  0  0  0  0  0  0  0  0  0  0
   -0.1031   -2.2374    0.0925 C   0  0  0  0  0  0  0  0  0  0  0  0
   -0.7829   -1.4064    0.3156 H   0  0  0  0  0  0  0  0  0  0  0  0
    3.5400   -2.8321   -0.6743 C   0  0  0  0  0  0  0  0  0  0  0  0
    4.2070   -3.6915   -0.4334 H   0  0  0  0  0  0  0  0  0  0  0  0
    3.6952   -2.5818   -1.7452 H   0  0  0  0  0  0  0  0  0  0  0  0
    4.1646   -1.9541    1.5327 C   0  0  0  0  0  0  0  0  0  0  0  0
    5.0191   -2.6596    1.6479 H   0  0  0  0  0  0  0  0  0  0  0  0
    3.2457   -2.4169    1.9365 H   0  0  0  0  0  0  0  0  0  0  0  0
    4.3731   -1.0173    2.0821 H   0  0  0  0  0  0  0  0  0  0  0  0
    5.1965   -1.0449   -0.4627 C   0  0  0  0  0  0  0  0  0  0  0  0
    6.0357   -1.7714   -0.3755 H   0  0  0  0  0  0  0  0  0  0  0  0
    5.4283   -0.1079    0.0768 H   0  0  0  0  0  0  0  0  0  0  0  0
    5.0285   -0.7999   -1.5277 H   0  0  0  0  0  0  0  0  0  0  0  0
   -2.1154   -3.7420    0.3590 C   0  0  0  0  0  0  0  0  0  0  0  0
   -2.5102   -4.6642   -0.1134 H   0  0  0  0  0  0  0  0  0  0  0  0
   -2.3010   -3.8311    1.4530 H   0  0  0  0  0  0  0  0  0  0  0  0
   -4.1853   -2.7984   -0.3538 C   0  0  0  0  0  0  0  0  0  0  0  0
   -4.8260   -1.4949   -0.7959 C   0  0  0  0  0  0  0  0  0  0  0  0
   -5.8456   -1.7138   -1.1687 H   0  0  0  0  0  0  0  0  0  0  0  0
   -4.2422   -1.0365   -1.6197 H   0  0  0  0  0  0  0  0  0  0  0  0
   -4.9266   -0.4967    0.3462 C   0  0  0  0  0  0  0  0  0  0  0  0
   -5.2893    1.7938    0.8634 C   0  0  0  0  0  0  0  0  0  0  0  0
   -4.3548    1.8356    1.4611 H   0  0  0  0  0  0  0  0  0  0  0  0
   -6.1097    1.5231    1.5609 H   0  0  0  0  0  0  0  0  0  0  0  0
   -5.5569    3.0948    0.1363 C   0  0  0  0  0  0  0  0  0  0  0  0
   -4.7127    3.3636   -0.5300 H   0  0  0  0  0  0  0  0  0  0  0  0
   -5.6876    3.9156    0.8689 H   0  0  0  0  0  0  0  0  0  0  0  0
   -6.4769    3.0288   -0.4776 H   0  0  0  0  0  0  0  0  0  0  0  0
  1 26  1  0  0  0  0
  4 33  1  0  0  0  0
  4 34  1  0  0  0  0
  5 18  1  0  0  0  0
  6 13  1  0  0  0  0
  7  6  2  0  0  0  0
  8  7  1  0  0  0  0
  8 10  2  0  0  0  0
  9  8  1  0  0  0  0
 10 12  1  0  0  0  0
 11 10  1  0  0  0  0
 12 13  2  0  0  0  0
 12 26  1  0  0  0  0
 13 14  1  0  0  0  0
 15 16  1  0  0  0  0
 15  7  1  0  0  0  0
 15  5  1  0  0  0  0
 17 15  1  0  0  0  0
 18 19  1  0  0  0  0
 18 20  1  0  0  0  0
 18 21  1  0  0  0  0
 22 23  1  0  0  0  0
 22 24  1  0  0  0  0
 22  5  1  0  0  0  0
 25 22  1  0  0  0  0
 26 28  1  0  0  0  0
 27 26  1  0  0  0  0
 29  2  2  0  0  0  0
 29  1  1  0  0  0  0
 30 29  1  0  0  0  0
 30 33  1  0  0  0  0
 31 30  1  0  0  0  0
 32 30  1  0  0  0  0
 33  3  2  0  0  0  0
 34 35  1  0  0  0  0
 34 36  1  0  0  0  0
 37 34  1  0  0  0  0
 37 39  1  0  0  0  0
 38 37  1  0  0  0  0
 40 37  1  0  0  0  0
M  END
