3,4
q = -1.0

 27 28  0  0  0  0  0  0  0  0999 V2000
    6.9547   -1.2319   -0.0531 F   0  0  0  0  0  0  0  0  0  0  0  0
    5.5372    0.5944    1.3950 F   0  0  0  0  0  0  0  0  0  0  0  0
    1.4074    0.8238    0.9280 N   0  0  0  0  0  2  0  0  0  0  0  0
    2.7838   -0.9829   -0.5322 C   0  0  0  0  0  2  0  0  0  0  0  0
    3.5526   -1.9167   -1.2519 C   0  0  0  0  0  0  0  0  0  0  0  0
    4.9488   -2.0023   -1.0970 C   0  0  0  0  0  0  0  0  0  0  0  0
    5.6207   -1.1557   -0.2076 C   0  0  0  0  0  0  0  0  0  0  0  0
    4.8922   -0.2178    0.5354 C   0  0  0  0  0  0  0  0  0  0  0  0
    3.4936   -0.1304    0.3786 C   0  0  0  0  0  0  0  0  0  0  0  0
    2.7025    0.8385    1.0996 C   0  0  0  0  0  0  0  0  0  0  0  0
    0.6299    1.9124    1.4952 C   0  0  0  0  0  0  0  0  0  0  0  0
    0.4276    3.0734    0.5327 C   0  0  0  0  0  0  0  0  0  0  0  0
    1.0618    3.1286   -0.7219 C   0  0  0  0  0  0  0  0  0  0  0  0
    0.8787    4.2395   -1.5615 C   0  0  0  0  0  0  0  0  0  0  0  0
    0.0634    5.3065   -1.1579 C   0  0  0  0  0  0  0  0  0  0  0  0
   -0.5773    5.2535    0.0913 C   0  0  0  0  0  0  0  0  0  0  0  0
   -0.3989    4.1439    0.9271 C   0  0  0  0  0  0  0  0  0  0  0  0
    3.0644   -2.6026   -1.9595 H   0  0  0  0  0  0  0  0  0  0  0  0
    5.5469   -2.7306   -1.6661 H   0  0  0  0  0  0  0  0  0  0  0  0
    3.1788    1.5983    1.7493 H   0  0  0  0  0  0  0  0  0  0  0  0
    1.1268    2.2982    2.4158 H   0  0  0  0  0  0  0  0  0  0  0  0
   -0.3623    1.5256    1.8082 H   0  0  0  0  0  0  0  0  0  0  0  0
    1.6905    2.2888   -1.0516 H   0  0  0  0  0  0  0  0  0  0  0  0
    1.3801    4.2665   -2.5410 H   0  0  0  0  0  0  0  0  0  0  0  0
   -0.0763    6.1784   -1.8150 H   0  0  0  0  0  0  0  0  0  0  0  0
   -1.2263    6.0816    0.4148 H   0  0  0  0  0  0  0  0  0  0  0  0
   -0.9127    4.1033    1.9008 H   0  0  0  0  0  0  0  0  0  0  0  0
  3 10  1  0  0  0  0
  3 11  1  0  0  0  0
  4  9  1  0  0  0  0
  5  6  2  0  0  0  0
  5  4  1  0  0  0  0
  6  7  1  0  0  0  0
  7  1  1  0  0  0  0
  7  8  2  0  0  0  0
  8  2  1  0  0  0  0
  9  8  1  0  0  0  0
  9 10  2  0  0  0  0
 10 20  1  0  0  0  0
 11 22  1  0  0  0  0
 11 21  1  0  0  0  0
 12 17  1  0  0  0  0
 12 11  1  0  0  0  0
 13 12  2  0  0  0  0
 14 15  2  0  0  0  0
 14 13  1  0  0  0  0
 15 16  1  0  0  0  0
 16 26  1  0  0  0  0
 16 17  2  0  0  0  0
 17 27  1  0  0  0  0
 18  5  1  0  0  0  0
 19  6  1  0  0  0  0
 23 13  1  0  0  0  0
 24 14  1  0  0  0  0
 25 15  1  0  0  0  0
M  END
