1,12
q = -1.0

 30 30  0  0  0  0  0  0  0  0999 V2000
    0.5564    0.1447    0.1110 C   0  0  0  0  0  3  0  0  0  0  0  0
    1.4324    1.2528   -0.0026 C   0  0  0  0  0  0  0  0  0  0  0  0
    2.8268    1.0821   -0.0143 C   0  0  0  0  0  0  0  0  0  0  0  0
    3.3826   -0.2127    0.0708 C   0  0  0  0  0  0  0  0  0  0  0  0
    2.5418   -1.3344    0.1642 C   0  0  0  0  0  0  0  0  0  0  0  0
    1.1452   -1.1278    0.1880 C   0  0  0  0  0  0  0  0  0  0  0  0
    0.8385    2.4773   -0.1127 O   0  0  0  0  0  0  0  0  0  0  0  0
    1.6466    3.6311   -0.2086 C   0  0  0  0  0  0  0  0  0  0  0  0
    4.7470   -0.2671    0.0417 O   0  0  0  0  0  0  0  0  0  0  0  0
    5.3630   -1.5347    0.1237 C   0  0  0  0  0  0  0  0  0  0  0  0
    0.1877   -2.2727    0.3605 C   0  0  0  0  0  0  0  0  0  0  0  0
   -1.0916   -1.9849   -0.3524 N   0  0  0  0  0  0  0  0  0  0  0  0
   -2.1445   -2.8990    0.1349 C   0  0  0  0  0  0  0  0  0  0  0  0
   -0.8963   -2.2111   -1.8010 C   0  0  0  0  0  0  0  0  0  0  0  0
    3.5226    1.9262   -0.1014 H   0  0  0  0  0  0  0  0  0  0  0  0
    2.9457   -2.3540    0.2232 H   0  0  0  0  0  0  0  0  0  0  0  0
    0.9532    4.4912   -0.2592 H   0  0  0  0  0  0  0  0  0  0  0  0
    2.3074    3.7502    0.6795 H   0  0  0  0  0  0  0  0  0  0  0  0
    2.2809    3.6191   -1.1237 H   0  0  0  0  0  0  0  0  0  0  0  0
    6.4545   -1.3587    0.0894 H   0  0  0  0  0  0  0  0  0  0  0  0
    5.1124   -2.0603    1.0734 H   0  0  0  0  0  0  0  0  0  0  0  0
    5.0780   -2.1939   -0.7282 H   0  0  0  0  0  0  0  0  0  0  0  0
   -0.0632   -2.3957    1.4364 H   0  0  0  0  0  0  0  0  0  0  0  0
    0.6084   -3.2449    0.0116 H   0  0  0  0  0  0  0  0  0  0  0  0
   -3.0865   -2.7183   -0.4135 H   0  0  0  0  0  0  0  0  0  0  0  0
   -1.8418   -3.9604   -0.0162 H   0  0  0  0  0  0  0  0  0  0  0  0
   -2.3252   -2.7259    1.2118 H   0  0  0  0  0  0  0  0  0  0  0  0
   -1.8107   -1.9253   -2.3521 H   0  0  0  0  0  0  0  0  0  0  0  0
   -0.0480   -1.6002   -2.1585 H   0  0  0  0  0  0  0  0  0  0  0  0
   -0.6730   -3.2846   -1.9993 H   0  0  0  0  0  0  0  0  0  0  0  0
  1  6  1  0  0  0  0
  2  1  2  0  0  0  0
  3  2  1  0  0  0  0
  3  4  2  0  0  0  0
  4  5  1  0  0  0  0
  5  6  2  0  0  0  0
  5 16  1  0  0  0  0
  6 11  1  0  0  0  0
  7  2  1  0  0  0  0
  8  7  1  0  0  0  0
  8 18  1  0  0  0  0
  9  4  1  0  0  0  0
  9 10  1  0  0  0  0
 10 21  1  0  0  0  0
 11 23  1  0  0  0  0
 12 13  1  0  0  0  0
 12 11  1  0  0  0  0
 13 27  1  0  0  0  0
 14 12  1  0  0  0  0
 15  3  1  0  0  0  0
 17  8  1  0  0  0  0
 19  8  1  0  0  0  0
 20 10  1  0  0  0  0
 22 10  1  0  0  0  0
 24 11  1  0  0  0  0
 25 13  1  0  0  0  0
 26 13  1  0  0  0  0
 28 14  1  0  0  0  0
 29 14  1  0  0  0  0
 30 14  1  0  0  0  0
M  END
