2,6
q = -1.0

 20 20  0  0  0  0  0  0  0  0999 V2000
   -4.2229   -0.4478    0.2482 S   0  0  0  0  0  0  0  0  0  0  0  0
   -0.8039    1.6331    0.1717 N   0  0  0  0  0  2  0  0  0  0  0  0
   -2.1146    1.5085    0.2464 C   0  0  0  0  0  3  0  0  0  0  0  0
   -2.7739    2.3923    0.3028 H   0  0  0  0  0  0  0  0  0  0  0  0
   -2.5879    0.1726    0.2007 C   0  0  0  0  0  0  0  0  0  0  0  0
   -1.6154   -0.8294   -0.0015 C   0  0  0  0  0  3  0  0  0  0  0  0
   -2.2422   -2.1069   -0.1388 C   0  0  0  0  0  0  0  0  0  0  0  0
   -1.7086   -3.0456   -0.3398 H   0  0  0  0  0  0  0  0  0  0  0  0
   -3.6231   -2.0532   -0.0187 C   0  0  0  0  0  0  0  0  0  0  0  0
   -4.3361   -2.8861   -0.0767 H   0  0  0  0  0  0  0  0  0  0  0  0
   -0.1797    2.9640    0.0568 C   0  0  0  0  0  0  0  0  0  0  0  0
    0.9070    2.7621   -0.0038 H   0  0  0  0  0  0  0  0  0  0  0  0
   -0.4356    3.8136    1.3070 C   0  0  0  0  0  0  0  0  0  0  0  0
   -1.5086    4.0766    1.4103 H   0  0  0  0  0  0  0  0  0  0  0  0
    0.1362    4.7616    1.2514 H   0  0  0  0  0  0  0  0  0  0  0  0
   -0.1281    3.2727    2.2249 H   0  0  0  0  0  0  0  0  0  0  0  0
   -0.5930    3.6618   -1.2448 C   0  0  0  0  0  0  0  0  0  0  0  0
   -0.4123    2.9833   -2.1016 H   0  0  0  0  0  0  0  0  0  0  0  0
   -0.0092    4.5941   -1.3853 H   0  0  0  0  0  0  0  0  0  0  0  0
   -1.6689    3.9333   -1.2326 H   0  0  0  0  0  0  0  0  0  0  0  0
  2  3  1  0  0  0  0
  3  4  1  0  0  0  0
  5  3  1  0  0  0  0
  5  1  1  0  0  0  0
  6  5  2  0  0  0  0
  7  9  2  0  0  0  0
  7  6  1  0  0  0  0
  8  7  1  0  0  0  0
  9  1  1  0  0  0  0
 10  9  1  0  0  0  0
 11  2  1  0  0  0  0
 11 13  1  0  0  0  0
 12 11  1  0  0  0  0
 13 14  1  0  0  0  0
 13 16  1  0  0  0  0
 15 13  1  0  0  0  0
 17 20  1  0  0  0  0
 17 11  1  0  0  0  0
 18 17  1  0  0  0  0
 19 17  1  0  0  0  0
M  END
