1,18
q = -1.0

 24 24  0  0  0  0  0  0  0  0999 V2000
   -1.0037    1.4631    0.1623 N   0  0  0  0  0  2  0  0  0  0  0  0
   -3.7239   -0.9806    0.1525 N   0  0  0  0  0  0  0  0  0  0  0  0
   -5.0634   -0.4542    0.2787 C   0  0  0  0  0  0  0  0  0  0  0  0
   -5.7905   -1.2869    0.2493 H   0  0  0  0  0  0  0  0  0  0  0  0
   -5.3007    0.2440   -0.5524 H   0  0  0  0  0  0  0  0  0  0  0  0
   -5.1942    0.0896    1.2384 H   0  0  0  0  0  0  0  0  0  0  0  0
   -1.0725    3.5090   -1.2488 C   0  0  0  0  0  0  0  0  0  0  0  0
   -0.7835    2.8682   -2.1049 H   0  0  0  0  0  0  0  0  0  0  0  0
   -0.6294    4.5176   -1.3779 H   0  0  0  0  0  0  0  0  0  0  0  0
   -2.1768    3.6217   -1.2512 H   0  0  0  0  0  0  0  0  0  0  0  0
   -0.9705    3.6687    1.3042 C   0  0  0  0  0  0  0  0  0  0  0  0
   -2.0720    3.7680    1.3970 H   0  0  0  0  0  0  0  0  0  0  0  0
   -0.5462    4.6920    1.2576 H   0  0  0  0  0  0  0  0  0  0  0  0
   -0.5956    3.1756    2.2240 H   0  0  0  0  0  0  0  0  0  0  0  0
   -2.2889    1.1482    0.1989 C   0  0  0  0  0  3  0  0  0  0  0  0
   -3.0691    1.9294    0.2314 H   0  0  0  0  0  0  0  0  0  0  0  0
   -2.5492   -0.2380    0.1481 C   0  0  0  0  0  0  0  0  0  0  0  0
   -1.4332   -1.0982   -0.0197 C   0  0  0  0  0  3  0  0  0  0  0  0
   -1.9781   -2.4090   -0.1300 C   0  0  0  0  0  0  0  0  0  0  0  0
   -1.4393   -3.3492   -0.2947 H   0  0  0  0  0  0  0  0  0  0  0  0
   -3.3714   -2.2994   -0.0169 C   0  0  0  0  0  0  0  0  0  0  0  0
   -4.1469   -3.0756   -0.0425 H   0  0  0  0  0  0  0  0  0  0  0  0
   -0.5800    2.8685    0.0552 C   0  0  0  0  0  0  0  0  0  0  0  0
    0.5256    2.8294    0.0074 H   0  0  0  0  0  0  0  0  0  0  0  0
  1 15  1  0  0  0  0
  2  3  1  0  0  0  0
  3  6  1  0  0  0  0
  4  3  1  0  0  0  0
  5  3  1  0  0  0  0
  7 23  1  0  0  0  0
  8  7  1  0  0  0  0
  9  7  1  0  0  0  0
 10  7  1  0  0  0  0
 11 12  1  0  0  0  0
 11 14  1  0  0  0  0
 13 11  1  0  0  0  0
 15 16  1  0  0  0  0
 17  2  1  0  0  0  0
 17 15  1  0  0  0  0
 18 17  2  0  0  0  0
 19 18  1  0  0  0  0
 19 21  2  0  0  0  0
 20 19  1  0  0  0  0
 21  2  1  0  0  0  0
 22 21  1  0  0  0  0
 23  1  1  0  0  0  0
 23 11  1  0  0  0  0
 24 23  1  0  0  0  0
M  END
