2,5
q = -2.0, confidence = 0.898

 39 40  0  0  1  0  0  0  0  0999 V2000
    0.4463   -0.9887    1.5065 C   0  0  0  0  0  0  0  0  0  0  0  0
   -0.9900    1.0208   -0.4015 N   0  0  0  0  0  2  0  0  0  0  0  0
    0.0761   -2.1649   -2.0696 C   0  0  0  0  0  0  0  0  0  0  0  0
    1.8210   -1.1436    1.1288 C   0  0  0  0  0  0  0  0  0  0  0  0
   -0.3552   -1.3523    0.3722 C   0  0  1  0  0  3  0  0  0  0  0  0
   -1.1541    2.4190   -0.8016 C   0  0  0  0  0  0  0  0  0  0  0  0
   -4.1738   -1.6534    0.2804 C   0  0  0  0  0  0  0  0  0  0  0  0
   -1.8076   -1.1077    0.2400 C   0  0  0  0  0  0  0  0  0  0  0  0
   -0.0735   -0.5055    2.8246 C   0  0  0  0  0  0  0  0  0  0  0  0
   -3.4569    0.5849   -0.4004 C   0  0  0  0  0  0  0  0  0  0  0  0
    3.0041   -0.9257    2.0202 C   0  0  0  0  0  0  0  0  0  0  0  0
   -2.1070    0.2149   -0.1969 C   0  0  0  0  0  0  0  0  0  0  0  0
   -4.4724   -0.3537   -0.1596 C   0  0  0  0  0  0  0  0  0  0  0  0
    1.8627   -1.6003   -0.2359 C   0  0  0  0  0  0  0  0  0  0  0  0
   -2.8321   -2.0295    0.4774 C   0  0  0  0  0  0  0  0  0  0  0  0
    0.5137   -1.7335   -0.7046 C   0  0  0  0  0  0  0  0  0  0  0  0
    3.0972   -1.9345   -1.0147 C   0  0  0  0  0  0  0  0  0  0  0  0
   -1.5970    3.3356    0.3403 C   0  0  0  0  0  0  0  0  0  0  0  0
   -1.8547    2.4722   -1.6670 H   0  0  0  0  0  0  0  0  0  0  0  0
   -0.1764    2.7700   -1.1997 H   0  0  0  0  0  0  0  0  0  0  0  0
   -3.7161    1.5944   -0.7472 H   0  0  0  0  0  0  0  0  0  0  0  0
   -0.8424    3.3153    1.1511 H   0  0  0  0  0  0  0  0  0  0  0  0
   -2.5779   -3.0463    0.8132 H   0  0  0  0  0  0  0  0  0  0  0  0
   -2.5717    3.0224    0.7636 H   0  0  0  0  0  0  0  0  0  0  0  0
   -5.5210   -0.0596   -0.3202 H   0  0  0  0  0  0  0  0  0  0  0  0
   -4.9828   -2.3748    0.4664 H   0  0  0  0  0  0  0  0  0  0  0  0
   -1.6946    4.3798   -0.0185 H   0  0  0  0  0  0  0  0  0  0  0  0
   -1.1240   -0.1688    2.7321 H   0  0  0  0  0  0  0  0  0  0  0  0
   -0.0467   -1.3178    3.5819 H   0  0  0  0  0  0  0  0  0  0  0  0
    0.7211   -1.7280   -2.8563 H   0  0  0  0  0  0  0  0  0  0  0  0
    3.9665   -1.3341   -0.6842 H   0  0  0  0  0  0  0  0  0  0  0  0
    2.9548   -1.7482   -2.0958 H   0  0  0  0  0  0  0  0  0  0  0  0
    0.5297    0.3397    3.2094 H   0  0  0  0  0  0  0  0  0  0  0  0
    3.2604   -1.8640    2.5582 H   0  0  0  0  0  0  0  0  0  0  0  0
    3.3618   -3.0058   -0.8814 H   0  0  0  0  0  0  0  0  0  0  0  0
    2.8027   -0.1422    2.7744 H   0  0  0  0  0  0  0  0  0  0  0  0
    3.8992   -0.6157    1.4476 H   0  0  0  0  0  0  0  0  0  0  0  0
    0.1192   -3.2709   -2.1653 H   0  0  0  0  0  0  0  0  0  0  0  0
   -0.9682   -1.8532   -2.2638 H   0  0  0  0  0  0  0  0  0  0  0  0
  1  9  1  0  0  0  0
  2 12  1  0  0  0  0
  3 16  1  0  0  0  0
  4  1  2  0  0  0  0
  4 11  1  0  0  0  0
  5  8  1  6  0  0  0
  5  1  1  0  0  0  0
  6  2  1  0  0  0  0
  6 18  1  0  0  0  0
  7 26  1  0  0  0  0
  7 15  1  0  0  0  0
  8 15  2  0  0  0  0
  9 33  1  0  0  0  0
  9 29  1  0  0  0  0
 10 12  2  0  0  0  0
 10 13  1  0  0  0  0
 11 34  1  0  0  0  0
 11 36  1  0  0  0  0
 12  8  1  0  0  0  0
 13  7  2  0  0  0  0
 14  4  1  0  0  0  0
 15 23  1  0  0  0  0
 16 14  2  0  0  0  0
 16  5  1  0  0  0  0
 17 35  1  0  0  0  0
 17 31  1  0  0  0  0
 17 14  1  0  0  0  0
 18 24  1  0  0  0  0
 18 22  1  0  0  0  0
 19  6  1  0  0  0  0
 20  6  1  0  0  0  0
 21 10  1  0  0  0  0
 25 13  1  0  0  0  0
 27 18  1  0  0  0  0
 28  9  1  0  0  0  0
 30  3  1  0  0  0  0
 32 17  1  0  0  0  0
 37 11  1  0  0  0  0
 38  3  1  0  0  0  0
 39  3  1  0  0  0  0
M  END
