1
q = -2.0, confidence = 0.766

 48 51  0  0  0  0  0  0  0  0999 V2000
   -1.2481    0.2802   -0.6110 N   0  0  0  0  0  2  0  0  0  0  0  0
   -1.4146    1.4630    0.1187 C   0  0  0  0  0  0  0  0  0  0  0  0
   -2.5145    2.3479    0.0339 C   0  0  0  0  0  0  0  0  0  0  0  0
   -2.5403    3.5174    0.8097 C   0  0  0  0  0  0  0  0  0  0  0  0
   -1.4875    3.8343    1.6810 C   0  0  0  0  0  0  0  0  0  0  0  0
   -0.3783    2.9719    1.7584 C   0  0  0  0  0  0  0  0  0  0  0  0
   -0.3301    1.8062    0.9842 C   0  0  0  0  0  0  0  0  0  0  0  0
    0.8271    0.8839    0.9202 C   0  0  0  0  0  3  0  0  0  0  0  0
    0.9172   -0.4324    1.5031 C   0  0  0  0  0  0  0  0  0  0  0  0
    0.0163   -1.1545    2.3357 C   0  0  0  0  0  0  0  0  0  0  0  0
    0.3400   -2.4552    2.7028 C   0  0  0  0  0  0  0  0  0  0  0  0
    1.5395   -3.0809    2.2527 C   0  0  0  0  0  0  0  0  0  0  0  0
    2.4166   -2.4147    1.4052 C   0  0  0  0  0  0  0  0  0  0  0  0
    2.1049   -1.0928    0.9964 C   0  0  0  0  0  0  0  0  0  0  0  0
    2.7829   -0.1528    0.1224 C   0  0  0  0  0  0  0  0  0  0  0  0
    3.9664   -0.2506   -0.6549 C   0  0  0  0  0  0  0  0  0  0  0  0
    4.3832    0.8556   -1.3875 C   0  0  0  0  0  0  0  0  0  0  0  0
    3.6362    2.0696   -1.3757 C   0  0  0  0  0  0  0  0  0  0  0  0
    2.4647    2.1907   -0.6399 C   0  0  0  0  0  0  0  0  0  0  0  0
    2.0210    1.0826    0.1346 C   0  0  0  0  0  0  0  0  0  0  0  0
   -2.3165   -0.2568   -1.4416 C   0  0  0  0  0  0  0  0  0  0  0  0
   -3.3859   -1.1641   -0.7506 C   0  0  0  0  0  0  0  0  0  0  0  0
   -4.1264   -0.4376    0.3851 C   0  0  0  0  0  0  0  0  0  0  0  0
   -4.3954   -1.5661   -1.8408 C   0  0  0  0  0  0  0  0  0  0  0  0
   -2.7194   -2.4247   -0.1778 C   0  0  0  0  0  0  0  0  0  0  0  0
   -3.3489    2.1337   -0.6462 H   0  0  0  0  0  0  0  0  0  0  0  0
   -3.4047    4.1943    0.7259 H   0  0  0  0  0  0  0  0  0  0  0  0
   -1.5219    4.7510    2.2876 H   0  0  0  0  0  0  0  0  0  0  0  0
    0.4706    3.2085    2.4180 H   0  0  0  0  0  0  0  0  0  0  0  0
   -0.9018   -0.6670    2.6956 H   0  0  0  0  0  0  0  0  0  0  0  0
   -0.3407   -3.0170    3.3606 H   0  0  0  0  0  0  0  0  0  0  0  0
    1.7669   -4.1062    2.5801 H   0  0  0  0  0  0  0  0  0  0  0  0
    3.3357   -2.9033    1.0490 H   0  0  0  0  0  0  0  0  0  0  0  0
    4.5478   -1.1848   -0.6644 H   0  0  0  0  0  0  0  0  0  0  0  0
    5.3037    0.7971   -1.9873 H   0  0  0  0  0  0  0  0  0  0  0  0
    3.9958    2.9240   -1.9686 H   0  0  0  0  0  0  0  0  0  0  0  0
    1.8817    3.1236   -0.6362 H   0  0  0  0  0  0  0  0  0  0  0  0
   -2.8326    0.5692   -1.9845 H   0  0  0  0  0  0  0  0  0  0  0  0
   -1.8454   -0.8739   -2.2419 H   0  0  0  0  0  0  0  0  0  0  0  0
   -3.4301   -0.0994    1.1774 H   0  0  0  0  0  0  0  0  0  0  0  0
   -4.8636   -1.1233    0.8518 H   0  0  0  0  0  0  0  0  0  0  0  0
   -4.6817    0.4488    0.0196 H   0  0  0  0  0  0  0  0  0  0  0  0
   -5.1743   -2.2382   -1.4267 H   0  0  0  0  0  0  0  0  0  0  0  0
   -4.9078   -0.6778   -2.2662 H   0  0  0  0  0  0  0  0  0  0  0  0
   -3.8971   -2.1030   -2.6749 H   0  0  0  0  0  0  0  0  0  0  0  0
   -2.2600   -3.0407   -0.9757 H   0  0  0  0  0  0  0  0  0  0  0  0
   -1.9225   -2.1635    0.5466 H   0  0  0  0  0  0  0  0  0  0  0  0
   -3.4674   -3.0537    0.3468 H   0  0  0  0  0  0  0  0  0  0  0  0
  1  2  1  0  0  0  0
  2  7  1  0  0  0  0
  3  2  2  0  0  0  0
  3  4  1  0  0  0  0
  4  5  2  0  0  0  0
  5  6  1  0  0  0  0
  5 28  1  0  0  0  0
  6 29  1  0  0  0  0
  7  6  2  0  0  0  0
  8  7  1  0  0  0  0
  8  9  1  0  0  0  0
  9 10  1  0  0  0  0
 10 30  1  0  0  0  0
 10 11  2  0  0  0  0
 11 31  1  0  0  0  0
 12 32  1  0  0  0  0
 12 11  1  0  0  0  0
 13 12  2  0  0  0  0
 14 13  1  0  0  0  0
 14  9  2  0  0  0  0
 15 20  1  0  0  0  0
 15 14  1  0  0  0  0
 16 15  2  0  0  0  0
 17 18  2  0  0  0  0
 17 16  1  0  0  0  0
 18 19  1  0  0  0  0
 19 37  1  0  0  0  0
 19 20  2  0  0  0  0
 20  8  1  0  0  0  0
 21 22  1  0  0  0  0
 21  1  1  0  0  0  0
 22 25  1  0  0  0  0
 22 23  1  0  0  0  0
 23 41  1  0  0  0  0
 23 40  1  0  0  0  0
 24 43  1  0  0  0  0
 24 22  1  0  0  0  0
 25 48  1  0  0  0  0
 25 47  1  0  0  0  0
 26  3  1  0  0  0  0
 27  4  1  0  0  0  0
 33 13  1  0  0  0  0
 34 16  1  0  0  0  0
 35 17  1  0  0  0  0
 36 18  1  0  0  0  0
 38 21  1  0  0  0  0
 39 21  1  0  0  0  0
 42 23  1  0  0  0  0
 44 24  1  0  0  0  0
 45 24  1  0  0  0  0
 46 25  1  0  0  0  0
M  END
