2,18
q = -1.0, confidence = 0.0

 36 37  0  0  0  0  0  0  0  0999 V2000
    5.1648   -1.7077   -1.4972 N   0  0  0  0  0  0  0  0  0  0  0  0
   -0.9265   -2.1883   -0.1014 N   0  0  0  0  0  2  0  0  0  0  0  0
   -6.4303   -2.9887    0.5329 O   0  0  0  0  0  0  0  0  0  0  0  0
    5.4607   -0.3068   -1.7293 C   0  0  0  0  0  0  0  0  0  0  0  0
    6.4962   -0.2104   -2.1024 H   0  0  0  0  0  0  0  0  0  0  0  0
    5.3663    0.3020   -0.8035 H   0  0  0  0  0  0  0  0  0  0  0  0
    4.7806    0.1409   -2.4877 H   0  0  0  0  0  0  0  0  0  0  0  0
    6.1951   -2.7022   -1.7239 C   0  0  0  0  0  0  0  0  0  0  0  0
    7.1265   -2.1990   -2.0393 H   0  0  0  0  0  0  0  0  0  0  0  0
    5.9116   -3.4265   -2.5207 H   0  0  0  0  0  0  0  0  0  0  0  0
    6.4196   -3.2875   -0.8043 H   0  0  0  0  0  0  0  0  0  0  0  0
    3.9080   -2.0945   -1.0816 C   0  0  0  0  0  0  0  0  0  0  0  0
    3.5997   -3.4762   -0.8875 C   0  0  0  0  0  0  0  0  0  0  0  0
    4.3626   -4.2482   -1.0439 H   0  0  0  0  0  0  0  0  0  0  0  0
    2.3119   -3.8559   -0.5281 C   0  0  0  0  0  3  0  0  0  0  0  0
    2.0713   -4.9258   -0.4201 H   0  0  0  0  0  0  0  0  0  0  0  0
    1.3030   -2.8873   -0.3221 C   0  0  0  0  0  0  0  0  0  0  0  0
    1.6043   -1.4840   -0.4280 C   0  0  0  0  0  3  0  0  0  0  0  0
    2.8875   -1.1211   -0.8353 C   0  0  0  0  0  0  0  0  0  0  0  0
    3.1350   -0.0609   -0.9571 H   0  0  0  0  0  0  0  0  0  0  0  0
   -0.0763   -3.1956   -0.1306 C   0  0  0  0  0  0  0  0  0  0  0  0
   -0.4535   -4.2345   -0.0747 H   0  0  0  0  0  0  0  0  0  0  0  0
   -2.3097   -2.4035    0.0925 C   0  0  0  0  0  0  0  0  0  0  0  0
   -2.7786   -3.2292    1.1316 C   0  0  0  0  0  0  0  0  0  0  0  0
   -2.0563   -3.6808    1.8282 H   0  0  0  0  0  0  0  0  0  0  0  0
   -4.1517   -3.4557    1.3119 C   0  0  0  0  0  0  0  0  0  0  0  0
   -4.4843   -4.0965    2.1392 H   0  0  0  0  0  0  0  0  0  0  0  0
   -5.0804   -2.8429    0.4460 C   0  0  0  0  0  0  0  0  0  0  0  0
   -4.6128   -2.0061   -0.5935 C   0  0  0  0  0  0  0  0  0  0  0  0
   -5.3539   -1.5362   -1.2561 H   0  0  0  0  0  0  0  0  0  0  0  0
   -3.2491   -1.7822   -0.7626 C   0  0  0  0  0  0  0  0  0  0  0  0
   -2.8847   -1.1280   -1.5648 H   0  0  0  0  0  0  0  0  0  0  0  0
   -6.9538   -3.7993    1.5661 C   0  0  0  0  0  0  0  0  0  0  0  0
   -8.0539   -3.7760    1.4567 H   0  0  0  0  0  0  0  0  0  0  0  0
   -6.6833   -3.4127    2.5748 H   0  0  0  0  0  0  0  0  0  0  0  0
   -6.6050   -4.8539    1.4852 H   0  0  0  0  0  0  0  0  0  0  0  0
  1 12  1  0  0  0  0
  2 23  1  0  0  0  0
  3 33  1  0  0  0  0
  4  1  1  0  0  0  0
  4  6  1  0  0  0  0
  5  4  1  0  0  0  0
  7  4  1  0  0  0  0
  8  1  1  0  0  0  0
  8 11  1  0  0  0  0
  9  8  1  0  0  0  0
 10  8  1  0  0  0  0
 12 13  2  0  0  0  0
 12 19  1  0  0  0  0
 13 15  1  0  0  0  0
 14 13  1  0  0  0  0
 15 16  1  0  0  0  0
 15 17  1  0  0  0  0
 17 21  2  0  0  0  0
 18 17  1  0  0  0  0
 19 18  2  0  0  0  0
 20 19  1  0  0  0  0
 21  2  1  0  0  0  0
 21 22  1  0  0  0  0
 23 24  1  0  0  0  0
 24 26  2  0  0  0  0
 24 25  1  0  0  0  0
 26 27  1  0  0  0  0
 28  3  1  0  0  0  0
 28 26  1  0  0  0  0
 29 28  2  0  0  0  0
 30 29  1  0  0  0  0
 31 29  1  0  0  0  0
 31 23  2  0  0  0  0
 32 31  1  0  0  0  0
 33 35  1  0  0  0  0
 34 33  1  0  0  0  0
 36 33  1  0  0  0  0
M  END
