1,30
q = -1.0, confidence = 0.0

 30 31  0  0  0  0  0  0  0  0999 V2000
   -0.1421    2.4026    0.1472 N   0  0  0  0  0  2  0  0  0  0  0  0
    5.9763    1.2167   -0.9980 N   0  0  0  0  0  0  0  0  0  0  0  0
   -5.5589    3.6889    0.7151 O   0  0  0  0  0  0  0  0  0  0  0  0
    6.8884    2.0115   -1.2344 O   0  0  0  0  0  0  0  0  0  0  0  0
    6.1138   -0.0082   -0.9394 O   0  0  0  0  0  0  0  0  0  0  0  0
   -6.2083    4.5932   -0.1582 C   0  0  0  0  0  0  0  0  0  0  0  0
   -7.2627    4.6449    0.1709 H   0  0  0  0  0  0  0  0  0  0  0  0
   -6.1760    4.2450   -1.2152 H   0  0  0  0  0  0  0  0  0  0  0  0
   -5.7635    5.6124   -0.1063 H   0  0  0  0  0  0  0  0  0  0  0  0
   -4.2324    3.4491    0.5284 C   0  0  0  0  0  0  0  0  0  0  0  0
   -3.4495    4.0292   -0.4912 C   0  0  0  0  0  0  0  0  0  0  0  0
   -3.8873    4.7277   -1.2163 H   0  0  0  0  0  0  0  0  0  0  0  0
   -2.0927    3.6899   -0.6032 C   0  0  0  0  0  0  0  0  0  0  0  0
   -1.4934    4.1093   -1.4250 H   0  0  0  0  0  0  0  0  0  0  0  0
   -1.4992    2.7768    0.2879 C   0  0  0  0  0  0  0  0  0  0  0  0
   -2.2912    2.1986    1.3066 C   0  0  0  0  0  0  0  0  0  0  0  0
   -1.8308    1.4802    1.9960 H   0  0  0  0  0  0  0  0  0  0  0  0
   -3.6342    2.5419    1.4328 C   0  0  0  0  0  0  0  0  0  0  0  0
   -4.2606    2.1066    2.2248 H   0  0  0  0  0  0  0  0  0  0  0  0
    0.8018    3.3025    0.0100 C   0  0  0  0  0  0  0  0  0  0  0  0
    0.5609    4.3803    0.0746 H   0  0  0  0  0  0  0  0  0  0  0  0
    2.1379    2.8183   -0.2144 C   0  0  0  0  0  0  0  0  0  0  0  0
    3.2347    3.6925   -0.4036 C   0  0  0  0  0  3  0  0  0  0  0  0
    3.0822    4.7820   -0.3501 H   0  0  0  0  0  0  0  0  0  0  0  0
    4.5023    3.1740   -0.6575 C   0  0  0  0  0  0  0  0  0  0  0  0
    5.3896    3.8042   -0.7951 H   0  0  0  0  0  0  0  0  0  0  0  0
    4.6254    1.7767   -0.7475 C   0  0  0  0  0  0  0  0  0  0  0  0
    3.5459    0.8931   -0.5863 C   0  0  0  0  0  0  0  0  0  0  0  0
    3.7500   -0.1755   -0.7131 H   0  0  0  0  0  0  0  0  0  0  0  0
    2.2680    1.3844   -0.2595 C   0  0  0  0  0  3  0  0  0  0  0  0
  1 15  1  0  0  0  0
  2  5  2  0  0  0  0
  2 27  1  0  0  0  0
  4  2  2  0  0  0  0
  6  9  1  0  0  0  0
  6  7  1  0  0  0  0
  6  3  1  0  0  0  0
  8  6  1  0  0  0  0
 10  3  1  0  0  0  0
 10 18  1  0  0  0  0
 11 10  2  0  0  0  0
 12 11  1  0  0  0  0
 13 11  1  0  0  0  0
 13 15  2  0  0  0  0
 14 13  1  0  0  0  0
 15 16  1  0  0  0  0
 16 18  2  0  0  0  0
 16 17  1  0  0  0  0
 18 19  1  0  0  0  0
 20 21  1  0  0  0  0
 20  1  1  0  0  0  0
 22 20  2  0  0  0  0
 23 24  1  0  0  0  0
 23 22  1  0  0  0  0
 25 23  1  0  0  0  0
 26 25  1  0  0  0  0
 27 25  2  0  0  0  0
 27 28  1  0  0  0  0
 28 30  2  0  0  0  0
 29 28  1  0  0  0  0
 30 22  1  0  0  0  0
M  END
