3,4
q = -1.0

 30 31  0  0  1  0  0  0  0  0999 V2000
   -4.3167   -3.0453   -0.8107 Cl  0  0  0  0  0  0  0  0  0  0  0  0
   -4.4496    1.8351    1.5963 Cl  0  0  0  0  0  0  0  0  0  0  0  0
   -2.1713   -0.0140   -0.0989 N   0  0  0  0  0  2  0  0  0  0  0  0
   -0.3136    1.8449   -0.4682 C   0  0  0  0  0  3  0  0  0  0  0  0
    0.5634    2.9349   -0.3086 C   0  0  0  0  0  0  0  0  0  0  0  0
    0.2090    4.2219   -0.7486 C   0  0  0  0  0  0  0  0  0  0  0  0
   -1.0375    4.4485   -1.3516 C   0  0  0  0  0  0  0  0  0  0  0  0
   -1.9381    3.3816   -1.4931 C   0  0  0  0  0  0  0  0  0  0  0  0
   -1.5843    2.0949   -1.0540 C   0  0  0  0  0  0  0  0  0  0  0  0
   -2.5310    0.9233   -1.1817 C   0  0  1  0  0  0  0  0  0  0  0  0
   -2.3755    0.1783   -2.5192 C   0  0  0  0  0  0  0  0  0  0  0  0
   -3.0383   -0.7045    0.5518 C   0  0  0  0  0  3  0  0  0  0  0  0
   -4.5135   -0.6149    0.3870 C   0  0  0  0  0  0  0  0  0  0  0  0
   -5.2237   -1.6887   -0.1951 C   0  0  0  0  0  0  0  0  0  0  0  0
   -6.6210   -1.6802   -0.3105 C   0  0  0  0  0  0  0  0  0  0  0  0
   -7.3354   -0.5754    0.1730 C   0  0  0  0  0  0  0  0  0  0  0  0
   -6.6685    0.5086    0.7599 C   0  0  0  0  0  0  0  0  0  0  0  0
   -5.2692    0.4817    0.8634 C   0  0  0  0  0  0  0  0  0  0  0  0
    1.5416    2.7970    0.1735 H   0  0  0  0  0  0  0  0  0  0  0  0
    0.9158    5.0555   -0.6118 H   0  0  0  0  0  0  0  0  0  0  0  0
   -1.3156    5.4564   -1.6952 H   0  0  0  0  0  0  0  0  0  0  0  0
   -2.9326    3.5528   -1.9371 H   0  0  0  0  0  0  0  0  0  0  0  0
   -3.5843    1.2571   -1.0731 H   0  0  0  0  0  0  0  0  0  0  0  0
   -2.5909    0.8701   -3.3565 H   0  0  0  0  0  0  0  0  0  0  0  0
   -3.0669   -0.6864   -2.5742 H   0  0  0  0  0  0  0  0  0  0  0  0
   -1.3366   -0.1959   -2.6208 H   0  0  0  0  0  0  0  0  0  0  0  0
   -2.6243   -1.4492    1.2637 H   0  0  0  0  0  0  0  0  0  0  0  0
   -7.1306   -2.5334   -0.7781 H   0  0  0  0  0  0  0  0  0  0  0  0
   -8.4322   -0.5581    0.0903 H   0  0  0  0  0  0  0  0  0  0  0  0
   -7.2189    1.3783    1.1434 H   0  0  0  0  0  0  0  0  0  0  0  0
  1 14  1  0  0  0  0
  3 12  1  0  0  0  0
  4  5  1  0  0  0  0
  5 19  1  0  0  0  0
  6 20  1  0  0  0  0
  6  5  2  0  0  0  0
  7  6  1  0  0  0  0
  8  7  2  0  0  0  0
  8  9  1  0  0  0  0
  9  4  2  0  0  0  0
 10 23  1  1  0  0  0
 10  9  1  0  0  0  0
 10  3  1  0  0  0  0
 11 10  1  0  0  0  0
 12 27  1  0  0  0  0
 13 12  1  0  0  0  0
 13 18  1  0  0  0  0
 14 13  2  0  0  0  0
 15 14  1  0  0  0  0
 15 16  2  0  0  0  0
 16 17  1  0  0  0  0
 17 18  2  0  0  0  0
 17 30  1  0  0  0  0
 18  2  1  0  0  0  0
 21  7  1  0  0  0  0
 22  8  1  0  0  0  0
 24 11  1  0  0  0  0
 25 11  1  0  0  0  0
 26 11  1  0  0  0  0
 28 15  1  0  0  0  0
 29 16  1  0  0  0  0
M  END
