1,11
q = -1.0

 25 27  0  0  1  0  0  0  0  0999 V2000
    0.6184    0.8970   -0.0019 N   0  0  0  0  0  2  0  0  0  0  0  0
    1.5072   -1.3486   -0.0003 C   0  0  0  0  0  0  0  0  0  0  0  0
    1.7228    0.0653   -0.0011 C   0  0  2  0  0  3  0  0  0  0  0  0
    0.7617    2.2199   -0.0024 C   0  0  0  0  0  0  0  0  0  0  0  0
    2.0465    2.8221   -0.0023 C   0  0  0  0  0  0  0  0  0  0  0  0
    3.1808    2.0269   -0.0015 C   0  0  0  0  0  0  0  0  0  0  0  0
    3.0482    0.6062   -0.0009 C   0  0  0  0  0  0  0  0  0  0  0  0
    4.1446   -0.3031    0.0002 C   0  0  0  0  0  0  0  0  0  0  0  0
    3.9257   -1.6744    0.0010 C   0  0  0  0  0  0  0  0  0  0  0  0
    2.6067   -2.2007    0.0007 C   0  0  0  0  0  0  0  0  0  0  0  0
    0.0782   -1.7853   -0.0010 C   0  0  1  0  0  3  0  0  0  0  0  0
   -0.7677   -1.8758    1.1771 C   0  0  0  0  0  3  0  0  0  0  0  0
   -2.1372   -1.9657    0.7111 C   0  0  0  0  0  0  0  0  0  0  0  0
   -2.1362   -1.9644   -0.7164 C   0  0  0  0  0  0  0  0  0  0  0  0
   -0.7663   -1.8737   -1.1806 C   0  0  0  0  0  3  0  0  0  0  0  0
   -0.1764    2.7952   -0.0032 H   0  0  0  0  0  0  0  0  0  0  0  0
    2.1181    3.9189   -0.0028 H   0  0  0  0  0  0  0  0  0  0  0  0
    4.1869    2.4738   -0.0013 H   0  0  0  0  0  0  0  0  0  0  0  0
    5.1683    0.1011    0.0004 H   0  0  0  0  0  0  0  0  0  0  0  0
    4.7807   -2.3665    0.0019 H   0  0  0  0  0  0  0  0  0  0  0  0
    2.4487   -3.2894    0.0014 H   0  0  0  0  0  0  0  0  0  0  0  0
   -0.4294   -1.8357    2.2185 H   0  0  0  0  0  0  0  0  0  0  0  0
   -3.0268   -1.9738    1.3522 H   0  0  0  0  0  0  0  0  0  0  0  0
   -3.0250   -1.9709   -1.3585 H   0  0  0  0  0  0  0  0  0  0  0  0
   -0.4267   -1.8322   -2.2215 H   0  0  0  0  0  0  0  0  0  0  0  0
  2 10  2  0  0  0  0
  3  1  1  1  0  0  0
  3  7  1  0  0  0  0
  3  2  1  0  0  0  0
  4  5  2  0  0  0  0
  4  1  1  0  0  0  0
  5  6  1  0  0  0  0
  6 18  1  0  0  0  0
  6  7  2  0  0  0  0
  7  8  1  0  0  0  0
  8 19  1  0  0  0  0
  8  9  2  0  0  0  0
  9 20  1  0  0  0  0
 10  9  1  0  0  0  0
 10 21  1  0  0  0  0
 11  2  1  1  0  0  0
 11 12  1  0  0  0  0
 12 22  1  0  0  0  0
 13 12  1  0  0  0  0
 13 23  1  0  0  0  0
 14 13  2  0  0  0  0
 15 14  1  0  0  0  0
 15 11  1  0  0  0  0
 16  4  1  0  0  0  0
 17  5  1  0  0  0  0
 24 14  1  0  0  0  0
 25 15  1  0  0  0  0
M  END
