3,4
q = -1.0

 47 48  0  0  1  0  0  0  0  0999 V2000
   -0.4318    2.6205    0.0329 Si  0  0  0  0  0  0  0  0  0  0  0  0
    0.8532    1.4806    0.4448 O   0  0  0  0  0  0  0  0  0  0  0  0
    2.2737   -0.8748    0.2576 N   0  0  0  0  0  0  0  0  0  0  0  0
   -1.7417    1.2888   -0.0093 C   0  0  2  0  0  3  0  0  0  0  0  0
   -2.0694    0.5066    1.1689 C   0  0  0  0  0  0  0  0  0  0  0  0
   -2.5926   -0.7492    0.7343 C   0  0  0  0  0  0  0  0  0  0  0  0
   -2.6433   -0.7414   -0.7021 C   0  0  0  0  0  0  0  0  0  0  0  0
   -2.1521    0.5152   -1.1631 C   0  0  0  0  0  0  0  0  0  0  0  0
   -2.0087    0.9740    2.5953 C   0  0  0  0  0  0  0  0  0  0  0  0
   -3.0699   -1.8702    1.6058 C   0  0  0  0  0  0  0  0  0  0  0  0
   -3.2274   -1.8272   -1.5515 C   0  0  0  0  0  0  0  0  0  0  0  0
   -2.2420    0.9778   -2.5861 C   0  0  0  0  0  0  0  0  0  0  0  0
   -0.5427    3.8951    1.4061 C   0  0  0  0  0  0  0  0  0  0  0  0
    0.0333    3.4693   -1.5731 C   0  0  0  0  0  0  0  0  0  0  0  0
    2.2554    1.6029    0.1910 C   0  0  0  0  0  0  0  0  0  0  0  0
    2.9472    0.3692    0.7635 C   0  0  2  0  0  0  0  0  0  0  0  0
    4.4358    0.2597    0.3395 C   0  0  0  0  0  0  0  0  0  0  0  0
    4.5862   -1.1843   -0.1779 C   0  0  0  0  0  0  0  0  0  0  0  0
    3.1912   -1.4897   -0.7312 C   0  0  0  0  0  0  0  0  0  0  0  0
    2.1852   -1.5082    1.0695 H   0  0  0  0  0  0  0  0  0  0  0  0
   -1.0104    1.3557    2.8807 H   0  0  0  0  0  0  0  0  0  0  0  0
   -2.2379    0.1483    3.2918 H   0  0  0  0  0  0  0  0  0  0  0  0
   -2.7534    1.7819    2.7583 H   0  0  0  0  0  0  0  0  0  0  0  0
   -2.5148   -1.8992    2.5625 H   0  0  0  0  0  0  0  0  0  0  0  0
   -2.9188   -2.8468    1.1073 H   0  0  0  0  0  0  0  0  0  0  0  0
   -4.1534   -1.7678    1.8311 H   0  0  0  0  0  0  0  0  0  0  0  0
   -4.3356   -1.8371   -1.4701 H   0  0  0  0  0  0  0  0  0  0  0  0
   -2.8541   -2.8222   -1.2382 H   0  0  0  0  0  0  0  0  0  0  0  0
   -2.9650   -1.6950   -2.6177 H   0  0  0  0  0  0  0  0  0  0  0  0
   -1.6742    1.9062   -2.7627 H   0  0  0  0  0  0  0  0  0  0  0  0
   -3.3061    1.1806   -2.8352 H   0  0  0  0  0  0  0  0  0  0  0  0
   -1.8612    0.2178   -3.2945 H   0  0  0  0  0  0  0  0  0  0  0  0
    0.3678    4.5290    1.4135 H   0  0  0  0  0  0  0  0  0  0  0  0
   -0.6637    3.4401    2.4058 H   0  0  0  0  0  0  0  0  0  0  0  0
   -1.4117    4.5613    1.2236 H   0  0  0  0  0  0  0  0  0  0  0  0
    0.3135    2.7262   -2.3446 H   0  0  0  0  0  0  0  0  0  0  0  0
    0.8950    4.1466   -1.3995 H   0  0  0  0  0  0  0  0  0  0  0  0
   -0.8060    4.0882   -1.9503 H   0  0  0  0  0  0  0  0  0  0  0  0
    2.4202    1.6609   -0.9079 H   0  0  0  0  0  0  0  0  0  0  0  0
    2.6532    2.5238    0.6703 H   0  0  0  0  0  0  0  0  0  0  0  0
    2.8163    0.3814    1.8638 H   0  0  0  0  0  0  0  0  0  0  0  0
    5.1265    0.4973    1.1711 H   0  0  0  0  0  0  0  0  0  0  0  0
    4.6473    0.9798   -0.4793 H   0  0  0  0  0  0  0  0  0  0  0  0
    4.8253   -1.8735    0.6600 H   0  0  0  0  0  0  0  0  0  0  0  0
    5.3872   -1.2910   -0.9354 H   0  0  0  0  0  0  0  0  0  0  0  0
    2.9448   -2.5626   -0.8392 H   0  0  0  0  0  0  0  0  0  0  0  0
    3.0207   -1.0057   -1.7136 H   0  0  0  0  0  0  0  0  0  0  0  0
  1  2  1  0  0  0  0
  1 13  1  0  0  0  0
  3 16  1  0  0  0  0
  3 20  1  0  0  0  0
  4  1  1  6  0  0  0
  4  5  1  0  0  0  0
  5  9  1  0  0  0  0
  6  5  2  0  0  0  0
  6 10  1  0  0  0  0
  7  6  1  0  0  0  0
  8  7  2  0  0  0  0
  8  4  1  0  0  0  0
  9 23  1  0  0  0  0
  9 21  1  0  0  0  0
  9 22  1  0  0  0  0
 10 26  1  0  0  0  0
 10 24  1  0  0  0  0
 11 27  1  0  0  0  0
 11 28  1  0  0  0  0
 11  7  1  0  0  0  0
 12  8  1  0  0  0  0
 13 33  1  0  0  0  0
 13 34  1  0  0  0  0
 14 37  1  0  0  0  0
 14  1  1  0  0  0  0
 15  2  1  0  0  0  0
 15 40  1  0  0  0  0
 15 16  1  0  0  0  0
 16 41  1  1  0  0  0
 17 16  1  0  0  0  0
 17 42  1  0  0  0  0
 18 17  1  0  0  0  0
 18 44  1  0  0  0  0
 19 18  1  0  0  0  0
 19  3  1  0  0  0  0
 25 10  1  0  0  0  0
 29 11  1  0  0  0  0
 30 12  1  0  0  0  0
 31 12  1  0  0  0  0
 32 12  1  0  0  0  0
 35 13  1  0  0  0  0
 36 14  1  0  0  0  0
 38 14  1  0  0  0  0
 39 15  1  0  0  0  0
 43 17  1  0  0  0  0
 45 18  1  0  0  0  0
 46 19  1  0  0  0  0
 47 19  1  0  0  0  0
M  END
