1,3
q = -1.0

 27 28  0  0  1  0  0  0  0  0999 V2000
   -0.5486   -0.7631   -0.1753 N   0  0  0  0  0  2  0  0  0  0  0  0
   -0.7505   -1.7342   -0.4558 H   0  0  0  0  0  0  0  0  0  0  0  0
   -0.0055    1.6043    0.4659 C   0  0  0  0  0  3  0  0  0  0  0  0
    0.3043    2.9367    0.8439 C   0  0  0  0  0  0  0  0  0  0  0  0
    1.3599    3.2499    0.8739 H   0  0  0  0  0  0  0  0  0  0  0  0
   -0.6782    3.8697    1.2045 C   0  0  0  0  0  0  0  0  0  0  0  0
   -0.3818    4.8920    1.4912 H   0  0  0  0  0  0  0  0  0  0  0  0
   -2.0431    3.5063    1.2252 C   0  0  0  0  0  0  0  0  0  0  0  0
   -2.8087    4.2338    1.5350 H   0  0  0  0  0  0  0  0  0  0  0  0
   -2.4072    2.2099    0.8574 C   0  0  0  0  0  0  0  0  0  0  0  0
   -3.4628    1.8949    0.8931 H   0  0  0  0  0  0  0  0  0  0  0  0
   -1.4125    1.2829    0.4567 C   0  0  0  0  0  0  0  0  0  0  0  0
   -1.6685   -0.0830    0.0620 C   0  0  2  0  0  3  0  0  0  0  0  0
   -2.9968   -0.7398   -0.0093 C   0  0  0  0  0  0  0  0  0  0  0  0
   -3.2416   -1.8491    0.8323 C   0  0  0  0  0  0  0  0  0  0  0  0
   -2.4525   -2.1597    1.5351 H   0  0  0  0  0  0  0  0  0  0  0  0
   -4.4671   -2.5278    0.8075 C   0  0  0  0  0  0  0  0  0  0  0  0
   -4.6387   -3.3822    1.4799 H   0  0  0  0  0  0  0  0  0  0  0  0
   -5.4731   -2.0997   -0.0707 C   0  0  0  0  0  0  0  0  0  0  0  0
   -6.4439   -2.6177   -0.1001 H   0  0  0  0  0  0  0  0  0  0  0  0
   -5.2342   -1.0113   -0.9233 C   0  0  0  0  0  0  0  0  0  0  0  0
   -6.0171   -0.6947   -1.6312 H   0  0  0  0  0  0  0  0  0  0  0  0
   -4.0079   -0.3183   -0.9202 C   0  0  0  0  0  0  0  0  0  0  0  0
   -3.7641    0.7964   -1.9061 C   0  0  0  0  0  0  0  0  0  0  0  0
   -2.8081    0.6426   -2.4470 H   0  0  0  0  0  0  0  0  0  0  0  0
   -3.6796    1.7844   -1.4097 H   0  0  0  0  0  0  0  0  0  0  0  0
   -4.5797    0.8538   -2.6524 H   0  0  0  0  0  0  0  0  0  0  0  0
  2  1  1  0  0  0  0
  3  4  1  0  0  0  0
  4  5  1  0  0  0  0
  4  6  2  0  0  0  0
  6  8  1  0  0  0  0
  6  7  1  0  0  0  0
  8  9  1  0  0  0  0
 10 11  1  0  0  0  0
 10  8  2  0  0  0  0
 12  3  2  0  0  0  0
 12 10  1  0  0  0  0
 13  1  1  1  0  0  0
 13 12  1  0  0  0  0
 14 13  1  0  0  0  0
 14 15  1  0  0  0  0
 15 16  1  0  0  0  0
 17 15  2  0  0  0  0
 17 18  1  0  0  0  0
 19 17  1  0  0  0  0
 20 19  1  0  0  0  0
 21 23  1  0  0  0  0
 21 19  2  0  0  0  0
 22 21  1  0  0  0  0
 23 14  2  0  0  0  0
 24 26  1  0  0  0  0
 24 23  1  0  0  0  0
 25 24  1  0  0  0  0
 27 24  1  0  0  0  0
M  END
