1,3
q = -1.0

 26 26  0  0  0  0  0  0  0  0999 V2000
    0.0600    1.9177    0.2185 N   0  0  0  0  0  0  0  0  0  0  0  0
   -5.7048    0.2035   -0.0746 O   0  0  0  0  0  0  0  0  0  0  0  0
   -1.5105   -0.2514   -0.0901 C   0  0  0  0  0  3  0  0  0  0  0  0
   -2.1546    1.0044   -0.2735 C   0  0  0  0  0  0  0  0  0  0  0  0
   -3.5477    1.1333   -0.2571 C   0  0  0  0  0  0  0  0  0  0  0  0
   -4.3525   -0.0103   -0.0731 C   0  0  0  0  0  0  0  0  0  0  0  0
   -3.7381   -1.2663    0.1026 C   0  0  0  0  0  0  0  0  0  0  0  0
   -2.3352   -1.3762    0.0983 C   0  0  0  0  0  0  0  0  0  0  0  0
   -6.5515   -0.9107    0.1066 C   0  0  0  0  0  0  0  0  0  0  0  0
   -1.2299    2.1632   -0.5140 C   0  0  0  0  0  0  0  0  0  0  0  0
   -0.1397    2.1513    1.6719 C   0  0  0  0  0  0  0  0  0  0  0  0
    1.1063    2.8263   -0.2858 C   0  0  0  0  0  0  0  0  0  0  0  0
   -4.0438    2.1073   -0.3895 H   0  0  0  0  0  0  0  0  0  0  0  0
   -4.3431   -2.1721    0.2480 H   0  0  0  0  0  0  0  0  0  0  0  0
   -1.8665   -2.3625    0.2315 H   0  0  0  0  0  0  0  0  0  0  0  0
   -7.5893   -0.5283    0.0717 H   0  0  0  0  0  0  0  0  0  0  0  0
   -6.4215   -1.6717   -0.6967 H   0  0  0  0  0  0  0  0  0  0  0  0
   -6.3849   -1.4095    1.0891 H   0  0  0  0  0  0  0  0  0  0  0  0
   -0.9672    2.2327   -1.5907 H   0  0  0  0  0  0  0  0  0  0  0  0
   -1.6574    3.1440   -0.2026 H   0  0  0  0  0  0  0  0  0  0  0  0
   -0.3867    3.2219    1.8577 H   0  0  0  0  0  0  0  0  0  0  0  0
   -0.9654    1.5105    2.0282 H   0  0  0  0  0  0  0  0  0  0  0  0
    0.7841    1.8828    2.2160 H   0  0  0  0  0  0  0  0  0  0  0  0
    0.8056    3.8879   -0.1354 H   0  0  0  0  0  0  0  0  0  0  0  0
    2.0525    2.6400    0.2543 H   0  0  0  0  0  0  0  0  0  0  0  0
    1.2623    2.6456   -1.3651 H   0  0  0  0  0  0  0  0  0  0  0  0
  1 11  1  0  0  0  0
  2  6  1  0  0  0  0
  2  9  1  0  0  0  0
  3  8  1  0  0  0  0
  4  5  1  0  0  0  0
  4  3  2  0  0  0  0
  5  6  2  0  0  0  0
  6  7  1  0  0  0  0
  7 14  1  0  0  0  0
  8  7  2  0  0  0  0
  8 15  1  0  0  0  0
  9 18  1  0  0  0  0
 10  4  1  0  0  0  0
 10 20  1  0  0  0  0
 10  1  1  0  0  0  0
 11 21  1  0  0  0  0
 11 22  1  0  0  0  0
 11 23  1  0  0  0  0
 12 24  1  0  0  0  0
 12  1  1  0  0  0  0
 12 25  1  0  0  0  0
 13  5  1  0  0  0  0
 16  9  1  0  0  0  0
 17  9  1  0  0  0  0
 19 10  1  0  0  0  0
 26 12  1  0  0  0  0
M  END
