3,8
q = -1.0

 26 27  0  0  0  0  0  0  0  0999 V2000
    3.0120    0.7809   -1.1532 N   0  0  0  0  0  0  0  0  0  0  0  0
    2.0291   -0.1323   -1.1791 N   0  0  0  0  0  2  0  0  0  0  0  0
    1.0117    0.4299   -0.5643 N   0  0  0  0  0  2  0  0  0  0  0  0
    1.3123    1.7062   -0.1267 C   0  0  0  0  0  0  0  0  0  0  0  0
    2.6307    1.9298   -0.5126 C   0  0  0  0  0  0  0  0  0  0  0  0
    3.2969    2.7896   -0.4014 H   0  0  0  0  0  0  0  0  0  0  0  0
    0.2262    2.3849    0.5477 C   0  0  0  0  0  0  0  0  0  0  0  0
   -0.9735    1.6017    0.5900 C   0  0  0  0  0  3  0  0  0  0  0  0
   -2.0979    2.2172    1.1830 C   0  0  0  0  0  0  0  0  0  0  0  0
   -3.0616    1.6853    1.2029 H   0  0  0  0  0  0  0  0  0  0  0  0
   -2.0275    3.5070    1.7332 C   0  0  0  0  0  0  0  0  0  0  0  0
   -2.9255    3.9512    2.1916 H   0  0  0  0  0  0  0  0  0  0  0  0
   -0.8278    4.2427    1.6992 C   0  0  0  0  0  0  0  0  0  0  0  0
   -0.7817    5.2535    2.1312 H   0  0  0  0  0  0  0  0  0  0  0  0
    0.3024    3.6804    1.0959 C   0  0  0  0  0  0  0  0  0  0  0  0
    1.2449    4.2492    1.0429 H   0  0  0  0  0  0  0  0  0  0  0  0
    4.3283    0.4374   -1.6778 C   0  0  0  0  0  0  0  0  0  0  0  0
    4.6630    1.2654   -2.3351 H   0  0  0  0  0  0  0  0  0  0  0  0
    4.1686   -0.4574   -2.3101 H   0  0  0  0  0  0  0  0  0  0  0  0
    5.3560    0.1602   -0.5738 C   0  0  0  0  0  0  0  0  0  0  0  0
    6.3196   -0.0722   -1.0756 H   0  0  0  0  0  0  0  0  0  0  0  0
    5.5313    1.0948    0.0022 H   0  0  0  0  0  0  0  0  0  0  0  0
    4.9551   -0.9728    0.3697 C   0  0  0  0  0  0  0  0  0  0  0  0
    5.7408   -1.1544    1.1291 H   0  0  0  0  0  0  0  0  0  0  0  0
    4.7895   -1.9206   -0.1824 H   0  0  0  0  0  0  0  0  0  0  0  0
    4.0163   -0.7367    0.9099 H   0  0  0  0  0  0  0  0  0  0  0  0
  1  5  1  0  0  0  0
  2  1  1  0  0  0  0
  2  3  1  0  0  0  0
  3  4  1  0  0  0  0
  4  7  1  0  0  0  0
  5  6  1  0  0  0  0
  5  4  2  0  0  0  0
  7  8  2  0  0  0  0
  7 15  1  0  0  0  0
  8  9  1  0  0  0  0
  9 10  1  0  0  0  0
  9 11  2  0  0  0  0
 11 12  1  0  0  0  0
 13 11  1  0  0  0  0
 13 14  1  0  0  0  0
 15 13  2  0  0  0  0
 16 15  1  0  0  0  0
 17  1  1  0  0  0  0
 17 20  1  0  0  0  0
 18 17  1  0  0  0  0
 19 17  1  0  0  0  0
 20 22  1  0  0  0  0
 20 23  1  0  0  0  0
 21 20  1  0  0  0  0
 23 26  1  0  0  0  0
 23 24  1  0  0  0  0
 25 23  1  0  0  0  0
M  END
