3,6
q = -1.0

 26 27  0  0  0  0  0  0  0  0999 V2000
    5.8268    0.1039   -0.8162 O   0  0  0  0  0  0  0  0  0  0  0  0
    4.1255    0.0050    0.6884 O   0  0  0  0  0  0  0  0  0  0  0  0
    0.4079    0.5178   -0.6554 N   0  0  0  0  0  2  0  0  0  0  0  0
    1.5026    0.0871   -1.2307 N   0  0  0  0  0  2  0  0  0  0  0  0
    2.3681    1.1141   -1.1658 N   0  0  0  0  0  0  0  0  0  0  0  0
   -1.7251    1.4054    0.4787 C   0  0  0  0  0  3  0  0  0  0  0  0
   -2.9408    1.8575    1.0311 C   0  0  0  0  0  0  0  0  0  0  0  0
   -3.8179    1.1925    1.0387 H   0  0  0  0  0  0  0  0  0  0  0  0
   -3.0690    3.1546    1.5558 C   0  0  0  0  0  0  0  0  0  0  0  0
   -4.0325    3.4731    1.9850 H   0  0  0  0  0  0  0  0  0  0  0  0
   -1.9871    4.0541    1.5311 C   0  0  0  0  0  0  0  0  0  0  0  0
   -2.0971    5.0685    1.9426 H   0  0  0  0  0  0  0  0  0  0  0  0
   -0.7740    3.6514    0.9615 C   0  0  0  0  0  0  0  0  0  0  0  0
    0.0763    4.3509    0.9131 H   0  0  0  0  0  0  0  0  0  0  0  0
   -0.6498    2.3488    0.4396 C   0  0  0  0  0  0  0  0  0  0  0  0
    0.5343    1.8194   -0.2041 C   0  0  0  0  0  0  0  0  0  0  0  0
    1.8301    2.2028   -0.5293 C   0  0  0  0  0  0  0  0  0  0  0  0
    2.3903    3.1280   -0.3711 H   0  0  0  0  0  0  0  0  0  0  0  0
    3.7362    0.8906   -1.5553 C   0  0  0  0  0  0  0  0  0  0  0  0
    4.1975    1.8416   -1.8860 H   0  0  0  0  0  0  0  0  0  0  0  0
    3.7501    0.1962   -2.4181 H   0  0  0  0  0  0  0  0  0  0  0  0
    4.5557    0.2849   -0.4099 C   0  0  0  0  0  0  0  0  0  0  0  0
    6.7094   -0.4817    0.1561 C   0  0  0  0  0  0  0  0  0  0  0  0
    7.6930   -0.5666   -0.3374 H   0  0  0  0  0  0  0  0  0  0  0  0
    6.3410   -1.4801    0.4648 H   0  0  0  0  0  0  0  0  0  0  0  0
    6.7796    0.1607    1.0563 H   0  0  0  0  0  0  0  0  0  0  0  0
  1 22  1  0  0  0  0
  1 23  1  0  0  0  0
  3 16  1  0  0  0  0
  4  5  1  0  0  0  0
  4  3  1  0  0  0  0
  5 17  1  0  0  0  0
  6  7  1  0  0  0  0
  7  8  1  0  0  0  0
  7  9  2  0  0  0  0
  9 10  1  0  0  0  0
 11  9  1  0  0  0  0
 11 12  1  0  0  0  0
 13 11  2  0  0  0  0
 14 13  1  0  0  0  0
 15  6  2  0  0  0  0
 15 13  1  0  0  0  0
 16 15  1  0  0  0  0
 17 18  1  0  0  0  0
 17 16  2  0  0  0  0
 19  5  1  0  0  0  0
 19 22  1  0  0  0  0
 20 19  1  0  0  0  0
 21 19  1  0  0  0  0
 22  2  2  0  0  0  0
 23 25  1  0  0  0  0
 23 26  1  0  0  0  0
 24 23  1  0  0  0  0
M  END
