1,4
q = -1.0, confidence = 0.008

 47 48  0  0  0  0  0  0  0  0999 V2000
   -0.3234    1.2417   -0.0259 N   0  0  0  0  0  2  0  0  0  0  0  0
    2.5843   -0.7647    0.0522 N   0  0  0  0  0  0  0  0  0  0  0  0
    1.1890    1.3590   -0.0161 C   0  0  0  0  0  0  0  0  0  0  0  0
    1.4552   -0.1224    0.0275 C   0  0  0  0  0  2  0  0  0  0  0  0
    1.7211    2.1105    1.2190 C   0  0  0  0  0  0  0  0  0  0  0  0
    1.7468    2.0268   -1.2883 C   0  0  0  0  0  0  0  0  0  0  0  0
   -1.0590    2.4663   -0.0578 C   0  0  0  0  0  0  0  0  0  0  0  0
   -1.4403    3.1101    1.1583 C   0  0  0  0  0  0  0  0  0  0  0  0
   -2.1298    4.3374    1.0992 C   0  0  0  0  0  0  0  0  0  0  0  0
   -2.4593    4.9347   -0.1209 C   0  0  0  0  0  0  0  0  0  0  0  0
   -2.1138    4.2849   -1.3094 C   0  0  0  0  0  0  0  0  0  0  0  0
   -1.4237    3.0565   -1.3058 C   0  0  0  0  0  0  0  0  0  0  0  0
   -1.1759    2.5177    2.5205 C   0  0  0  0  0  0  0  0  0  0  0  0
   -1.1415    2.4048   -2.6367 C   0  0  0  0  0  0  0  0  0  0  0  0
    3.9326   -0.2546    0.0289 C   0  0  0  0  0  0  0  0  0  0  0  0
    4.5673    0.0885    1.2432 C   0  0  0  0  0  0  0  0  0  0  0  0
    5.8771    0.6062    1.1635 C   0  0  0  0  0  0  0  0  0  0  0  0
    6.5248    0.7487   -0.0683 C   0  0  0  0  0  0  0  0  0  0  0  0
    5.8864    0.3503   -1.2523 C   0  0  0  0  0  0  0  0  0  0  0  0
    4.5816   -0.1730   -1.2284 C   0  0  0  0  0  0  0  0  0  0  0  0
    3.9118   -0.1180    2.5860 C   0  0  0  0  0  0  0  0  0  0  0  0
    3.9084   -0.6710   -2.4804 C   0  0  0  0  0  0  0  0  0  0  0  0
    2.4318   -1.8028    0.0611 H   0  0  0  0  0  0  0  0  0  0  0  0
    1.4339    1.6009    2.1542 H   0  0  0  0  0  0  0  0  0  0  0  0
    1.3086    3.1384    1.2178 H   0  0  0  0  0  0  0  0  0  0  0  0
    2.8239    2.1837    1.1663 H   0  0  0  0  0  0  0  0  0  0  0  0
    1.4326    1.4830   -2.1954 H   0  0  0  0  0  0  0  0  0  0  0  0
    2.8527    2.0544   -1.2445 H   0  0  0  0  0  0  0  0  0  0  0  0
    1.3768    3.0696   -1.3404 H   0  0  0  0  0  0  0  0  0  0  0  0
   -2.4229    4.8209    2.0450 H   0  0  0  0  0  0  0  0  0  0  0  0
   -3.0000    5.8930   -0.1455 H   0  0  0  0  0  0  0  0  0  0  0  0
   -2.3942    4.7264   -2.2791 H   0  0  0  0  0  0  0  0  0  0  0  0
   -0.8669    1.4593    2.4766 H   0  0  0  0  0  0  0  0  0  0  0  0
   -2.0840    2.5924    3.1530 H   0  0  0  0  0  0  0  0  0  0  0  0
   -0.3790    3.0772    3.0534 H   0  0  0  0  0  0  0  0  0  0  0  0
   -0.8434    1.3465   -2.5415 H   0  0  0  0  0  0  0  0  0  0  0  0
   -0.3301    2.9337   -3.1788 H   0  0  0  0  0  0  0  0  0  0  0  0
   -2.0379    2.4601   -3.2877 H   0  0  0  0  0  0  0  0  0  0  0  0
    6.3912    0.8939    2.0939 H   0  0  0  0  0  0  0  0  0  0  0  0
    7.5445    1.1609   -0.1078 H   0  0  0  0  0  0  0  0  0  0  0  0
    6.4071    0.4388   -2.2182 H   0  0  0  0  0  0  0  0  0  0  0  0
    2.8614   -0.4551    2.5121 H   0  0  0  0  0  0  0  0  0  0  0  0
    3.9299    0.8151    3.1845 H   0  0  0  0  0  0  0  0  0  0  0  0
    4.4712   -0.8809    3.1666 H   0  0  0  0  0  0  0  0  0  0  0  0
    2.8603   -0.3256   -2.5717 H   0  0  0  0  0  0  0  0  0  0  0  0
    3.8565   -1.7810   -2.4827 H   0  0  0  0  0  0  0  0  0  0  0  0
    4.4678   -0.3599   -3.3826 H   0  0  0  0  0  0  0  0  0  0  0  0
  1  3  1  0  0  0  0
  2 23  1  0  0  0  0
  3  4  1  0  0  0  0
  3  5  1  0  0  0  0
  4  2  1  0  0  0  0
  5 24  1  0  0  0  0
  6 28  1  0  0  0  0
  6  3  1  0  0  0  0
  7  1  1  0  0  0  0
  7  8  1  0  0  0  0
  8 13  1  0  0  0  0
  9  8  2  0  0  0  0
  9 30  1  0  0  0  0
 10  9  1  0  0  0  0
 11 12  1  0  0  0  0
 11 10  2  0  0  0  0
 12  7  2  0  0  0  0
 13 35  1  0  0  0  0
 13 34  1  0  0  0  0
 14 36  1  0  0  0  0
 14 12  1  0  0  0  0
 15  2  1  0  0  0  0
 15 16  1  0  0  0  0
 16 21  1  0  0  0  0
 17 16  2  0  0  0  0
 17 39  1  0  0  0  0
 18 17  1  0  0  0  0
 19 20  1  0  0  0  0
 19 18  2  0  0  0  0
 20 15  2  0  0  0  0
 21 44  1  0  0  0  0
 21 43  1  0  0  0  0
 22 20  1  0  0  0  0
 25  5  1  0  0  0  0
 26  5  1  0  0  0  0
 27  6  1  0  0  0  0
 29  6  1  0  0  0  0
 31 10  1  0  0  0  0
 32 11  1  0  0  0  0
 33 13  1  0  0  0  0
 37 14  1  0  0  0  0
 38 14  1  0  0  0  0
 40 18  1  0  0  0  0
 41 19  1  0  0  0  0
 42 21  1  0  0  0  0
 45 22  1  0  0  0  0
 46 22  1  0  0  0  0
 47 22  1  0  0  0  0
M  END
