1,2
q = -1.0

 42 44  0  0  0  0  0  0  0  0999 V2000
    3.7389   -1.7047    0.2165 N   0  0  0  0  0  0  0  0  0  0  0  0
    1.1220   -1.0031   -0.2036 C   0  0  0  0  0  3  0  0  0  0  0  0
    1.4277   -2.3913   -0.2510 C   0  0  0  0  0  0  0  0  0  0  0  0
    0.4013   -3.3480   -0.2069 C   0  0  0  0  0  0  0  0  0  0  0  0
    0.6508   -4.4215   -0.2201 H   0  0  0  0  0  0  0  0  0  0  0  0
   -0.9387   -2.9467   -0.1408 C   0  0  0  0  0  0  0  0  0  0  0  0
   -1.7292   -3.7083   -0.0726 H   0  0  0  0  0  0  0  0  0  0  0  0
   -1.2752   -1.5740   -0.1288 C   0  0  0  0  0  0  0  0  0  0  0  0
   -0.2282   -0.6215   -0.1588 C   0  0  0  0  0  0  0  0  0  0  0  0
   -0.4759    0.4502   -0.1893 H   0  0  0  0  0  0  0  0  0  0  0  0
   -2.6905   -1.1305   -0.0778 C   0  0  0  0  0  0  0  0  0  0  0  0
   -3.7340   -1.9257   -0.6061 C   0  0  0  0  0  0  0  0  0  0  0  0
   -3.4915   -2.8775   -1.1018 H   0  0  0  0  0  0  0  0  0  0  0  0
   -5.0670   -1.5079   -0.5547 C   0  0  0  0  0  0  0  0  0  0  0  0
   -5.8461   -2.1385   -1.0091 H   0  0  0  0  0  0  0  0  0  0  0  0
   -5.4264   -0.2696    0.0247 C   0  0  0  0  0  0  0  0  0  0  0  0
   -4.3836    0.5293    0.5469 C   0  0  0  0  0  0  0  0  0  0  0  0
   -4.6272    1.4862    1.0327 H   0  0  0  0  0  0  0  0  0  0  0  0
   -3.0512    0.1105    0.4974 C   0  0  0  0  0  0  0  0  0  0  0  0
   -2.2713    0.7503    0.9353 H   0  0  0  0  0  0  0  0  0  0  0  0
   -6.8404    0.1747    0.0793 C   0  0  0  0  0  0  0  0  0  0  0  0
   -7.8913   -0.7564    0.2497 C   0  0  0  0  0  0  0  0  0  0  0  0
   -7.6512   -1.8235    0.3707 H   0  0  0  0  0  0  0  0  0  0  0  0
   -9.2274   -0.3373    0.3012 C   0  0  0  0  0  0  0  0  0  0  0  0
  -10.0265   -1.0811    0.4435 H   0  0  0  0  0  0  0  0  0  0  0  0
   -9.5472    1.0249    0.1843 C   0  0  0  0  0  0  0  0  0  0  0  0
  -10.5965    1.3545    0.2250 H   0  0  0  0  0  0  0  0  0  0  0  0
   -8.5160    1.9626    0.0149 C   0  0  0  0  0  0  0  0  0  0  0  0
   -8.7549    3.0324   -0.0875 H   0  0  0  0  0  0  0  0  0  0  0  0
   -7.1802    1.5428   -0.0373 C   0  0  0  0  0  0  0  0  0  0  0  0
   -6.3831    2.2840   -0.1991 H   0  0  0  0  0  0  0  0  0  0  0  0
    2.8732   -2.7500   -0.4198 C   0  0  0  0  0  0  0  0  0  0  0  0
    3.1367   -2.7586   -1.4988 H   0  0  0  0  0  0  0  0  0  0  0  0
    3.1331   -3.7510   -0.0082 H   0  0  0  0  0  0  0  0  0  0  0  0
    3.8259   -1.9209    1.6838 C   0  0  0  0  0  0  0  0  0  0  0  0
    2.8060   -1.9516    2.1083 H   0  0  0  0  0  0  0  0  0  0  0  0
    4.3887   -1.0822    2.1333 H   0  0  0  0  0  0  0  0  0  0  0  0
    4.3470   -2.8818    1.8935 H   0  0  0  0  0  0  0  0  0  0  0  0
    5.0961   -1.7364   -0.3774 C   0  0  0  0  0  0  0  0  0  0  0  0
    5.7056   -0.9329    0.0736 H   0  0  0  0  0  0  0  0  0  0  0  0
    5.0205   -1.5511   -1.4645 H   0  0  0  0  0  0  0  0  0  0  0  0
    5.5587   -2.7322   -0.1998 H   0  0  0  0  0  0  0  0  0  0  0  0
  1 35  1  0  0  0  0
  2  9  1  0  0  0  0
  3  4  1  0  0  0  0
  3  2  2  0  0  0  0
  4  6  2  0  0  0  0
  5  4  1  0  0  0  0
  6  8  1  0  0  0  0
  6  7  1  0  0  0  0
  8 11  1  0  0  0  0
  9  8  2  0  0  0  0
 10  9  1  0  0  0  0
 11 19  1  0  0  0  0
 12 14  1  0  0  0  0
 12 11  2  0  0  0  0
 13 12  1  0  0  0  0
 14 16  2  0  0  0  0
 15 14  1  0  0  0  0
 16 21  1  0  0  0  0
 16 17  1  0  0  0  0
 17 18  1  0  0  0  0
 19 17  2  0  0  0  0
 19 20  1  0  0  0  0
 21 22  1  0  0  0  0
 22 24  2  0  0  0  0
 22 23  1  0  0  0  0
 24 25  1  0  0  0  0
 26 27  1  0  0  0  0
 26 24  1  0  0  0  0
 28 26  2  0  0  0  0
 29 28  1  0  0  0  0
 30 28  1  0  0  0  0
 30 21  2  0  0  0  0
 31 30  1  0  0  0  0
 32  3  1  0  0  0  0
 32 34  1  0  0  0  0
 32  1  1  0  0  0  0
 33 32  1  0  0  0  0
 35 38  1  0  0  0  0
 35 36  1  0  0  0  0
 35 37  1  0  0  0  0
 39 42  1  0  0  0  0
 39 40  1  0  0  0  0
 39  1  1  0  0  0  0
 41 39  1  0  0  0  0
M  END
