1,7
q = -2.0, confidence = 0.942

 46 46  0  0  1  0  0  0  0  0999 V2000
    0.0997    1.7402   -0.8342 N   0  0  0  0  0  2  0  0  0  0  0  0
    2.7808    0.8303    0.2721 N   0  0  0  0  0  0  0  0  0  0  0  0
    2.4127   -0.8588   -0.0902 Si  0  0  0  0  0  0  0  0  0  0  0  0
    0.5304   -1.1874   -0.1541 C   0  0  0  0  0  0  0  0  0  0  0  0
   -0.3593   -1.2577   -1.2934 C   0  0  0  0  0  0  0  0  0  0  0  0
   -1.6804   -1.5530   -0.8300 C   0  0  0  0  0  0  0  0  0  0  0  0
   -1.6371   -1.6576    0.5978 C   0  0  1  0  0  3  0  0  0  0  0  0
   -0.2813   -1.4485    1.0151 C   0  0  0  0  0  0  0  0  0  0  0  0
    2.6208    1.8200   -0.7823 C   0  0  0  0  0  0  0  0  0  0  0  0
    3.4631    1.7699   -1.5136 H   0  0  0  0  0  0  0  0  0  0  0  0
    2.6717    2.8332   -0.3305 H   0  0  0  0  0  0  0  0  0  0  0  0
    1.3162    1.6897   -1.6080 C   0  0  0  0  0  0  0  0  0  0  0  0
    1.3122    2.4929   -2.3832 H   0  0  0  0  0  0  0  0  0  0  0  0
    1.3468    0.7354   -2.1633 H   0  0  0  0  0  0  0  0  0  0  0  0
    2.6713    1.3478    1.6295 C   0  0  0  0  0  0  0  0  0  0  0  0
    2.9272    0.5570    2.3625 H   0  0  0  0  0  0  0  0  0  0  0  0
    1.6537    1.7243    1.8889 H   0  0  0  0  0  0  0  0  0  0  0  0
    3.3979    2.1756    1.7931 H   0  0  0  0  0  0  0  0  0  0  0  0
   -0.3506    3.0998   -0.5509 C   0  0  0  0  0  0  0  0  0  0  0  0
   -1.2641    3.1006    0.0771 H   0  0  0  0  0  0  0  0  0  0  0  0
   -0.5991    3.6386   -1.4946 H   0  0  0  0  0  0  0  0  0  0  0  0
    0.4218    3.6803    0.0043 H   0  0  0  0  0  0  0  0  0  0  0  0
    3.2241   -1.9673    1.2063 C   0  0  0  0  0  0  0  0  0  0  0  0
    2.9635   -1.7274    2.2528 H   0  0  0  0  0  0  0  0  0  0  0  0
    4.3250   -1.8855    1.1001 H   0  0  0  0  0  0  0  0  0  0  0  0
    2.9395   -3.0242    1.0243 H   0  0  0  0  0  0  0  0  0  0  0  0
    3.2691   -1.2942   -1.7226 C   0  0  0  0  0  0  0  0  0  0  0  0
    3.0541   -0.6064   -2.5625 H   0  0  0  0  0  0  0  0  0  0  0  0
    3.0049   -2.3217   -2.0453 H   0  0  0  0  0  0  0  0  0  0  0  0
    4.3641   -1.2648   -1.5459 H   0  0  0  0  0  0  0  0  0  0  0  0
   -0.0437   -1.1766   -2.7617 C   0  0  0  0  0  0  0  0  0  0  0  0
    1.0386   -1.1285   -2.9633 H   0  0  0  0  0  0  0  0  0  0  0  0
   -0.5271   -0.3012   -3.2423 H   0  0  0  0  0  0  0  0  0  0  0  0
   -0.4310   -2.0790   -3.2793 H   0  0  0  0  0  0  0  0  0  0  0  0
   -2.8622   -1.8162   -1.7104 C   0  0  0  0  0  0  0  0  0  0  0  0
   -3.8148   -1.7128   -1.1594 H   0  0  0  0  0  0  0  0  0  0  0  0
   -2.8110   -2.8508   -2.1152 H   0  0  0  0  0  0  0  0  0  0  0  0
   -2.9009   -1.1172   -2.5672 H   0  0  0  0  0  0  0  0  0  0  0  0
   -2.8130   -1.9058    1.4931 C   0  0  0  0  0  0  0  0  0  0  0  0
   -3.7469   -1.5227    1.0392 H   0  0  0  0  0  0  0  0  0  0  0  0
   -2.6888   -1.4006    2.4702 H   0  0  0  0  0  0  0  0  0  0  0  0
   -2.9482   -2.9917    1.6871 H   0  0  0  0  0  0  0  0  0  0  0  0
    0.1875   -1.5825    2.4342 C   0  0  0  0  0  0  0  0  0  0  0  0
    0.9438   -0.8227    2.7005 H   0  0  0  0  0  0  0  0  0  0  0  0
    0.6307   -2.5875    2.5985 H   0  0  0  0  0  0  0  0  0  0  0  0
   -0.6513   -1.4610    3.1433 H   0  0  0  0  0  0  0  0  0  0  0  0
  1 19  1  0  0  0  0
  2 15  1  0  0  0  0
  3  2  1  0  0  0  0
  3 23  1  0  0  0  0
  4  3  1  0  0  0  0
  4  8  2  0  0  0  0
  5  6  2  0  0  0  0
  5  4  1  0  0  0  0
  6  7  1  0  0  0  0
  7  8  1  0  0  0  0
  7 39  1  1  0  0  0
  8 43  1  0  0  0  0
  9 11  1  0  0  0  0
  9  2  1  0  0  0  0
 10  9  1  0  0  0  0
 12  1  1  0  0  0  0
 12  9  1  0  0  0  0
 13 12  1  0  0  0  0
 14 12  1  0  0  0  0
 15 18  1  0  0  0  0
 15 17  1  0  0  0  0
 15 16  1  0  0  0  0
 19 22  1  0  0  0  0
 19 20  1  0  0  0  0
 21 19  1  0  0  0  0
 23 24  1  0  0  0  0
 25 23  1  0  0  0  0
 26 23  1  0  0  0  0
 27 30  1  0  0  0  0
 27  3  1  0  0  0  0
 28 27  1  0  0  0  0
 29 27  1  0  0  0  0
 31  5  1  0  0  0  0
 32 31  1  0  0  0  0
 33 31  1  0  0  0  0
 34 31  1  0  0  0  0
 35 36  1  0  0  0  0
 35  6  1  0  0  0  0
 37 35  1  0  0  0  0
 38 35  1  0  0  0  0
 39 42  1  0  0  0  0
 39 41  1  0  0  0  0
 40 39  1  0  0  0  0
 43 45  1  0  0  0  0
 43 44  1  0  0  0  0
 43 46  1  0  0  0  0
M  END
