1,3
q = -1.0

 29 29  0  0  0  0  0  0  0  0999 V2000
   -0.0916    2.0097   -0.6615 N   0  0  0  0  0  2  0  0  0  0  0  0
   -2.4204    2.1689   -0.5300 C   0  0  0  0  0  0  0  0  0  0  0  0
   -2.3662    0.7275   -0.4880 C   0  0  0  0  0  2  0  0  0  0  0  0
   -3.6167    0.0843   -0.6152 C   0  0  0  0  0  0  0  0  0  0  0  0
   -4.8253    0.8003   -0.6803 C   0  0  0  0  0  0  0  0  0  0  0  0
   -4.8473    2.2061   -0.6395 C   0  0  0  0  0  0  0  0  0  0  0  0
   -3.6316    2.8922   -0.5831 C   0  0  0  0  0  0  0  0  0  0  0  0
   -1.1319    2.8015   -0.6104 C   0  0  0  0  0  0  0  0  0  0  0  0
    1.2618    2.5514   -0.7303 C   0  0  0  0  0  0  0  0  0  0  0  0
    1.9572    2.5460    0.6359 C   0  0  0  0  0  0  0  0  0  0  0  0
    3.4291    2.9498    0.5430 C   0  0  0  0  0  0  0  0  0  0  0  0
    4.1490    2.9413    1.8948 C   0  0  0  0  0  0  0  0  0  0  0  0
    5.6258    3.3253    1.7996 C   0  0  0  0  0  0  0  0  0  0  0  0
   -3.6785   -1.0096   -0.6798 H   0  0  0  0  0  0  0  0  0  0  0  0
   -5.7719    0.2437   -0.7689 H   0  0  0  0  0  0  0  0  0  0  0  0
   -5.8008    2.7529   -0.6783 H   0  0  0  0  0  0  0  0  0  0  0  0
   -3.6065    3.9937   -0.5991 H   0  0  0  0  0  0  0  0  0  0  0  0
   -1.0009    3.8984   -0.6660 H   0  0  0  0  0  0  0  0  0  0  0  0
    1.2169    3.5835   -1.1421 H   0  0  0  0  0  0  0  0  0  0  0  0
    1.8402    1.9160   -1.4287 H   0  0  0  0  0  0  0  0  0  0  0  0
    1.4118    3.2251    1.3281 H   0  0  0  0  0  0  0  0  0  0  0  0
    1.8777    1.5232    1.0576 H   0  0  0  0  0  0  0  0  0  0  0  0
    3.5189    3.9608    0.0833 H   0  0  0  0  0  0  0  0  0  0  0  0
    3.9497    2.2538   -0.1531 H   0  0  0  0  0  0  0  0  0  0  0  0
    3.6249    3.6326    2.5918 H   0  0  0  0  0  0  0  0  0  0  0  0
    4.0516    1.9298    2.3475 H   0  0  0  0  0  0  0  0  0  0  0  0
    5.7520    4.3458    1.3808 H   0  0  0  0  0  0  0  0  0  0  0  0
    6.1809    2.6278    1.1379 H   0  0  0  0  0  0  0  0  0  0  0  0
    6.1200    3.3082    2.7919 H   0  0  0  0  0  0  0  0  0  0  0  0
  1  8  1  0  0  0  0
  2  3  1  0  0  0  0
  4  3  1  0  0  0  0
  5  6  1  0  0  0  0
  5  4  2  0  0  0  0
  6  7  2  0  0  0  0
  7  2  1  0  0  0  0
  8  2  2  0  0  0  0
  9  1  1  0  0  0  0
  9 10  1  0  0  0  0
 10 22  1  0  0  0  0
 10 21  1  0  0  0  0
 11 10  1  0  0  0  0
 11 12  1  0  0  0  0
 12 26  1  0  0  0  0
 12 25  1  0  0  0  0
 13 12  1  0  0  0  0
 13 29  1  0  0  0  0
 14  4  1  0  0  0  0
 15  5  1  0  0  0  0
 16  6  1  0  0  0  0
 17  7  1  0  0  0  0
 18  8  1  0  0  0  0
 19  9  1  0  0  0  0
 20  9  1  0  0  0  0
 23 11  1  0  0  0  0
 24 11  1  0  0  0  0
 27 13  1  0  0  0  0
 28 13  1  0  0  0  0
M  END
