2,27
q = -1.0, confidence = 0.0

 27 29  0  0  0  0  0  0  0  0999 V2000
   -3.3455    0.1653    0.4868 N   0  0  0  0  0  0  0  0  0  0  0  0
   -2.5854   -0.6766   -0.2564 N   0  0  0  0  0  2  0  0  0  0  0  0
   -3.3812   -1.5658   -0.8548 C   0  0  0  0  0  0  0  0  0  0  0  0
   -2.9290   -2.3542   -1.4673 H   0  0  0  0  0  0  0  0  0  0  0  0
   -5.9916   -1.8752   -0.8088 C   0  0  0  0  0  3  0  0  0  0  0  0
   -6.0570   -2.7466   -1.4766 H   0  0  0  0  0  0  0  0  0  0  0  0
   -7.1341   -1.3125   -0.2443 C   0  0  0  0  0  0  0  0  0  0  0  0
   -8.1218   -1.7421   -0.4678 H   0  0  0  0  0  0  0  0  0  0  0  0
   -7.0501   -0.1874    0.6218 C   0  0  0  0  0  0  0  0  0  0  0  0
   -7.9753    0.2294    1.0475 H   0  0  0  0  0  0  0  0  0  0  0  0
   -5.8290    0.4030    0.9467 C   0  0  0  0  0  0  0  0  0  0  0  0
   -5.7770    1.2724    1.6172 H   0  0  0  0  0  0  0  0  0  0  0  0
   -4.6713   -0.1643    0.3729 C   0  0  0  0  0  0  0  0  0  0  0  0
   -4.7361   -1.2991   -0.5016 C   0  0  0  0  0  0  0  0  0  0  0  0
   -2.6974    1.2204    1.2629 C   0  0  0  0  0  0  0  0  0  0  0  0
   -2.0683    0.7314    2.0390 H   0  0  0  0  0  0  0  0  0  0  0  0
   -3.4986    1.7867    1.7727 H   0  0  0  0  0  0  0  0  0  0  0  0
   -1.8681    2.1130    0.3656 C   0  0  0  0  0  0  0  0  0  0  0  0
   -2.1695    3.4834    0.2465 C   0  0  0  0  0  0  0  0  0  0  0  0
   -2.9723    3.9191    0.8645 H   0  0  0  0  0  0  0  0  0  0  0  0
   -1.4660    4.2910   -0.6590 C   0  0  0  0  0  0  0  0  0  0  0  0
   -1.7011    5.3628   -0.7427 H   0  0  0  0  0  0  0  0  0  0  0  0
   -0.4806    3.7114   -1.4728 C   0  0  0  0  0  0  0  0  0  0  0  0
    0.0628    4.3259   -2.2075 H   0  0  0  0  0  0  0  0  0  0  0  0
   -0.1721    2.3472   -1.3466 C   0  0  0  0  0  0  0  0  0  0  0  0
    0.6180    1.9232   -1.9847 H   0  0  0  0  0  0  0  0  0  0  0  0
   -0.8342    1.5307   -0.4065 C   0  0  0  0  0  3  0  0  0  0  0  0
  1 15  1  0  0  0  0
  2  1  1  0  0  0  0
  3 14  2  0  0  0  0
  3  2  1  0  0  0  0
  4  3  1  0  0  0  0
  5 14  1  0  0  0  0
  5  7  1  0  0  0  0
  6  5  1  0  0  0  0
  7  9  2  0  0  0  0
  8  7  1  0  0  0  0
  9 11  1  0  0  0  0
  9 10  1  0  0  0  0
 11 12  1  0  0  0  0
 13  1  1  0  0  0  0
 13 11  2  0  0  0  0
 14 13  1  0  0  0  0
 15 17  1  0  0  0  0
 15 16  1  0  0  0  0
 18 15  1  0  0  0  0
 19 18  1  0  0  0  0
 19 20  1  0  0  0  0
 21 19  2  0  0  0  0
 22 21  1  0  0  0  0
 23 25  2  0  0  0  0
 23 21  1  0  0  0  0
 24 23  1  0  0  0  0
 25 27  1  0  0  0  0
 26 25  1  0  0  0  0
 27 18  2  0  0  0  0
M  END
