2,13
q = -1.0

 25 26  0  0  1  0  0  0  0  0999 V2000
    3.5810    0.0058   -0.9423 Br  0  0  0  0  0  0  0  0  0  0  0  0
    1.4605    1.3678    0.3014 N   0  0  0  0  0  2  0  0  0  0  0  0
   -0.5122    2.4008    1.0552 N   0  0  0  0  0  0  0  0  0  0  0  0
   -2.7114    0.8639    2.3546 O   0  0  0  0  0  0  0  0  0  0  0  0
    2.7385    1.4861   -0.1154 C   0  0  2  0  0  3  0  0  0  0  0  0
    3.4792    2.6684   -0.0004 C   0  0  0  0  0  0  0  0  0  0  0  0
    4.5239    2.6858   -0.3346 H   0  0  0  0  0  0  0  0  0  0  0  0
    2.8458    3.8055    0.5287 C   0  0  0  0  0  0  0  0  0  0  0  0
    3.4043    4.7480    0.6287 H   0  0  0  0  0  0  0  0  0  0  0  0
    1.5052    3.7304    0.8960 C   0  0  0  0  0  0  0  0  0  0  0  0
    0.9403    4.5908    1.2765 H   0  0  0  0  0  0  0  0  0  0  0  0
    0.8130    2.5084    0.7610 C   0  0  0  0  0  0  0  0  0  0  0  0
   -1.0119    1.2149    0.7745 C   0  0  0  0  0  3  0  0  0  0  0  0
   -2.4557    1.0087    1.1566 C   0  0  0  0  0  0  0  0  0  0  0  0
   -3.5055    0.9441    0.1028 C   0  0  0  0  0  0  0  0  0  0  0  0
   -3.1899    1.0225   -1.2707 C   0  0  0  0  0  0  0  0  0  0  0  0
   -2.1412    1.1154   -1.5982 H   0  0  0  0  0  0  0  0  0  0  0  0
   -4.2155    0.9390   -2.2237 C   0  0  0  0  0  0  0  0  0  0  0  0
   -3.9662    0.9911   -3.2944 H   0  0  0  0  0  0  0  0  0  0  0  0
   -5.5507    0.7851   -1.8159 C   0  0  0  0  0  0  0  0  0  0  0  0
   -6.3518    0.7206   -2.5685 H   0  0  0  0  0  0  0  0  0  0  0  0
   -5.8679    0.7130   -0.4463 C   0  0  0  0  0  0  0  0  0  0  0  0
   -6.9155    0.5962   -0.1292 H   0  0  0  0  0  0  0  0  0  0  0  0
   -4.8498    0.7907    0.5088 C   0  0  0  0  0  0  0  0  0  0  0  0
   -5.0601    0.7352    1.5876 H   0  0  0  0  0  0  0  0  0  0  0  0
  2 12  1  0  0  0  0
  5  1  1  6  0  0  0
  5  6  1  0  0  0  0
  5  2  1  0  0  0  0
  6  8  2  0  0  0  0
  7  6  1  0  0  0  0
  8  9  1  0  0  0  0
  8 10  1  0  0  0  0
 10 11  1  0  0  0  0
 12 10  2  0  0  0  0
 12  3  1  0  0  0  0
 13  3  2  0  0  0  0
 13 14  1  0  0  0  0
 14  4  2  0  0  0  0
 15 24  1  0  0  0  0
 15 14  1  0  0  0  0
 16 15  2  0  0  0  0
 17 16  1  0  0  0  0
 18 20  2  0  0  0  0
 18 16  1  0  0  0  0
 19 18  1  0  0  0  0
 20 22  1  0  0  0  0
 21 20  1  0  0  0  0
 22 23  1  0  0  0  0
 22 24  2  0  0  0  0
 24 25  1  0  0  0  0
M  END
