2,3
q = -1.0, confidence = 0.0

 27 28  0  0  0  0  0  0  0  0999 V2000
   -7.5453    0.6575    1.1150 Cl  0  0  0  0  0  0  0  0  0  0  0  0
   -1.2559   -0.7436   -1.0313 N   0  0  0  0  0  2  0  0  0  0  0  0
    0.6956   -2.3841   -0.1259 C   0  0  0  0  0  3  0  0  0  0  0  0
    1.6919   -3.2182    0.4050 C   0  0  0  0  0  0  0  0  0  0  0  0
    2.7474   -3.0512    0.1481 H   0  0  0  0  0  0  0  0  0  0  0  0
    1.3545   -4.2637    1.2819 C   0  0  0  0  0  0  0  0  0  0  0  0
    2.1543   -4.8982    1.6951 H   0  0  0  0  0  0  0  0  0  0  0  0
    0.0164   -4.5109    1.6412 C   0  0  0  0  0  0  0  0  0  0  0  0
   -0.2306   -5.3371    2.3243 H   0  0  0  0  0  0  0  0  0  0  0  0
   -0.9936   -3.6942    1.1248 C   0  0  0  0  0  0  0  0  0  0  0  0
   -2.0479   -3.8636    1.3970 H   0  0  0  0  0  0  0  0  0  0  0  0
   -0.6608   -2.6332    0.2535 C   0  0  0  0  0  0  0  0  0  0  0  0
   -1.6574   -1.7226   -0.2759 C   0  0  0  0  0  3  0  0  0  0  0  0
   -2.7303   -1.8572   -0.0357 H   0  0  0  0  0  0  0  0  0  0  0  0
   -2.1755    0.1915   -1.6765 C   0  0  0  0  0  0  0  0  0  0  0  0
   -2.2790   -0.1298   -2.7357 H   0  0  0  0  0  0  0  0  0  0  0  0
   -1.6518    1.1661   -1.7267 H   0  0  0  0  0  0  0  0  0  0  0  0
   -3.5215    0.3184   -1.0075 C   0  0  0  0  0  0  0  0  0  0  0  0
   -4.6804   -0.2508   -1.5676 C   0  0  0  0  0  0  0  0  0  0  0  0
   -4.6132   -0.7811   -2.5308 H   0  0  0  0  0  0  0  0  0  0  0  0
   -5.9235   -0.1508   -0.9244 C   0  0  0  0  0  0  0  0  0  0  0  0
   -6.8278   -0.5920   -1.3663 H   0  0  0  0  0  0  0  0  0  0  0  0
   -6.0057    0.5256    0.3025 C   0  0  0  0  0  0  0  0  0  0  0  0
   -4.8623    1.0997    0.8849 C   0  0  0  0  0  0  0  0  0  0  0  0
   -4.9450    1.6318    1.8430 H   0  0  0  0  0  0  0  0  0  0  0  0
   -3.6311    0.9916    0.2282 C   0  0  0  0  0  0  0  0  0  0  0  0
   -2.7373    1.4434    0.6831 H   0  0  0  0  0  0  0  0  0  0  0  0
  2 13  1  0  0  0  0
  3 12  2  0  0  0  0
  3  4  1  0  0  0  0
  4  6  2  0  0  0  0
  5  4  1  0  0  0  0
  6  8  1  0  0  0  0
  6  7  1  0  0  0  0
  8  9  1  0  0  0  0
 10 11  1  0  0  0  0
 10  8  2  0  0  0  0
 12 10  1  0  0  0  0
 13 14  1  0  0  0  0
 13 12  1  0  0  0  0
 15  2  1  0  0  0  0
 15 18  1  0  0  0  0
 16 15  1  0  0  0  0
 17 15  1  0  0  0  0
 18 26  1  0  0  0  0
 19 18  2  0  0  0  0
 19 21  1  0  0  0  0
 20 19  1  0  0  0  0
 21 23  2  0  0  0  0
 22 21  1  0  0  0  0
 23 24  1  0  0  0  0
 23  1  1  0  0  0  0
 24 25  1  0  0  0  0
 26 27  1  0  0  0  0
 26 24  2  0  0  0  0
M  END
