1,2
q = -1.0, confidence = 0.0

 30 31  0  0  0  0  0  0  0  0999 V2000
   -2.4824    0.3153   -1.0637 N   0  0  0  0  0  2  0  0  0  0  0  0
   -0.7121    1.9718    0.0373 C   0  0  0  0  0  2  0  0  0  0  0  0
    0.1793    2.8608    0.6709 C   0  0  0  0  0  0  0  0  0  0  0  0
    1.1748    2.5294    0.9948 H   0  0  0  0  0  0  0  0  0  0  0  0
   -0.1735    4.1996    0.9035 C   0  0  0  0  0  0  0  0  0  0  0  0
    0.5484    4.8671    1.4002 H   0  0  0  0  0  0  0  0  0  0  0  0
   -1.4257    4.7018    0.5132 C   0  0  0  0  0  0  0  0  0  0  0  0
   -1.6810    5.7566    0.6992 H   0  0  0  0  0  0  0  0  0  0  0  0
   -2.3629    3.8637   -0.1096 C   0  0  0  0  0  0  0  0  0  0  0  0
   -3.7155    4.3952   -0.5186 C   0  0  0  0  0  0  0  0  0  0  0  0
   -3.8058    5.4720   -0.2793 H   0  0  0  0  0  0  0  0  0  0  0  0
   -4.5418    3.8684    0.0035 H   0  0  0  0  0  0  0  0  0  0  0  0
   -3.8948    4.2790   -1.6078 H   0  0  0  0  0  0  0  0  0  0  0  0
   -1.9959    2.5061   -0.3313 C   0  0  0  0  0  0  0  0  0  0  0  0
   -2.8998    1.5419   -0.9059 C   0  0  0  0  0  0  0  0  0  0  0  0
   -3.9393    1.8016   -1.1802 H   0  0  0  0  0  0  0  0  0  0  0  0
   -3.4265   -0.7213   -1.5033 C   0  0  0  0  0  0  0  0  0  0  0  0
   -2.8366   -1.5070   -2.0152 H   0  0  0  0  0  0  0  0  0  0  0  0
   -4.1438   -0.2728   -2.2229 H   0  0  0  0  0  0  0  0  0  0  0  0
   -4.1804   -1.3052   -0.3229 C   0  0  0  0  0  0  0  0  0  0  0  0
   -3.5747   -2.2682    0.5094 C   0  0  0  0  0  0  0  0  0  0  0  0
   -2.5603   -2.6212    0.2630 H   0  0  0  0  0  0  0  0  0  0  0  0
   -4.2600   -2.7661    1.6274 C   0  0  0  0  0  0  0  0  0  0  0  0
   -3.7783   -3.5200    2.2690 H   0  0  0  0  0  0  0  0  0  0  0  0
   -5.5544   -2.3114    1.9284 C   0  0  0  0  0  0  0  0  0  0  0  0
   -6.0899   -2.7055    2.8058 H   0  0  0  0  0  0  0  0  0  0  0  0
   -6.1654   -1.3558    1.1017 C   0  0  0  0  0  0  0  0  0  0  0  0
   -7.1833   -1.0007    1.3249 H   0  0  0  0  0  0  0  0  0  0  0  0
   -5.4791   -0.8552   -0.0155 C   0  0  0  0  0  0  0  0  0  0  0  0
   -5.9643   -0.1090   -0.6661 H   0  0  0  0  0  0  0  0  0  0  0  0
  1 15  1  0  0  0  0
  2  3  1  0  0  0  0
  3  5  2  0  0  0  0
  3  4  1  0  0  0  0
  5  6  1  0  0  0  0
  7  8  1  0  0  0  0
  7  5  1  0  0  0  0
  9  7  2  0  0  0  0
 10 11  1  0  0  0  0
 10  9  1  0  0  0  0
 10 12  1  0  0  0  0
 13 10  1  0  0  0  0
 14  9  1  0  0  0  0
 14  2  1  0  0  0  0
 15 14  2  0  0  0  0
 16 15  1  0  0  0  0
 17  1  1  0  0  0  0
 17 20  1  0  0  0  0
 18 17  1  0  0  0  0
 19 17  1  0  0  0  0
 20 29  2  0  0  0  0
 20 21  1  0  0  0  0
 21 23  2  0  0  0  0
 22 21  1  0  0  0  0
 23 25  1  0  0  0  0
 23 24  1  0  0  0  0
 25 26  1  0  0  0  0
 27 28  1  0  0  0  0
 27 25  2  0  0  0  0
 29 27  1  0  0  0  0
 30 29  1  0  0  0  0
M  END
