2,13
q = 0.0, confidence = 0.994

 29 29  0  0  1  0  0  0  0  0999 V2000
   -3.2959    0.3378   -0.8597 Br  0  0  0  0  0  0  0  0  0  0  0  0
   -1.0330    1.4086    0.4022 N   0  0  0  0  0  2  0  0  0  0  0  0
    1.0261    2.1330    1.0887 N   0  0  0  0  0  0  0  0  0  0  0  0
    1.6601    2.8688    1.4195 H   0  0  0  0  0  0  0  0  0  0  0  0
   -2.3145    1.6599    0.0388 C   0  0  1  0  0  3  0  0  0  0  0  0
   -2.9321    2.8980    0.2707 C   0  0  0  0  0  0  0  0  0  0  0  0
   -3.9815    3.0376   -0.0185 H   0  0  0  0  0  0  0  0  0  0  0  0
   -2.1856    3.9335    0.8482 C   0  0  0  0  0  0  0  0  0  0  0  0
   -2.6508    4.9122    1.0346 H   0  0  0  0  0  0  0  0  0  0  0  0
   -0.8389    3.7193    1.1520 C   0  0  0  0  0  0  0  0  0  0  0  0
   -0.2016    4.5165    1.5589 H   0  0  0  0  0  0  0  0  0  0  0  0
   -0.3066    2.4487    0.8984 C   0  0  0  0  0  0  0  0  0  0  0  0
    1.5060    0.9194    0.7053 C   0  0  0  0  0  2  0  0  0  0  0  0
    2.9953    0.8261    0.7889 C   0  0  0  0  0  0  0  0  0  0  0  0
    3.3011   -0.1968    1.0629 H   0  0  0  0  0  0  0  0  0  0  0  0
    3.3472    1.4976    1.6052 H   0  0  0  0  0  0  0  0  0  0  0  0
    3.7811    1.2217   -0.5214 C   0  0  0  0  0  0  0  0  0  0  0  0
    3.6768    0.0974   -1.5632 C   0  0  0  0  0  0  0  0  0  0  0  0
    2.6295   -0.0712   -1.8785 H   0  0  0  0  0  0  0  0  0  0  0  0
    4.0970   -0.8506   -1.1682 H   0  0  0  0  0  0  0  0  0  0  0  0
    4.2624    0.3642   -2.4659 H   0  0  0  0  0  0  0  0  0  0  0  0
    5.2515    1.4045   -0.1046 C   0  0  0  0  0  0  0  0  0  0  0  0
    5.8747    1.6301   -0.9930 H   0  0  0  0  0  0  0  0  0  0  0  0
    5.6575    0.4852    0.3653 H   0  0  0  0  0  0  0  0  0  0  0  0
    5.3741    2.2400    0.6150 H   0  0  0  0  0  0  0  0  0  0  0  0
    3.2373    2.5300   -1.1189 C   0  0  0  0  0  0  0  0  0  0  0  0
    3.8662    2.8418   -1.9765 H   0  0  0  0  0  0  0  0  0  0  0  0
    3.2622    3.3645   -0.3850 H   0  0  0  0  0  0  0  0  0  0  0  0
    2.2013    2.4079   -1.4948 H   0  0  0  0  0  0  0  0  0  0  0  0
  2 12  1  0  0  0  0
  3  4  1  0  0  0  0
  5  1  1  6  0  0  0
  5  6  1  0  0  0  0
  5  2  1  0  0  0  0
  6  8  2  0  0  0  0
  7  6  1  0  0  0  0
  8  9  1  0  0  0  0
  8 10  1  0  0  0  0
 10 11  1  0  0  0  0
 12  3  1  0  0  0  0
 12 10  2  0  0  0  0
 13 14  1  0  0  0  0
 13  3  1  0  0  0  0
 14 15  1  0  0  0  0
 14 16  1  0  0  0  0
 17 22  1  0  0  0  0
 17 14  1  0  0  0  0
 18 20  1  0  0  0  0
 18 17  1  0  0  0  0
 19 18  1  0  0  0  0
 21 18  1  0  0  0  0
 22 24  1  0  0  0  0
 22 25  1  0  0  0  0
 23 22  1  0  0  0  0
 26 17  1  0  0  0  0
 26 28  1  0  0  0  0
 27 26  1  0  0  0  0
 29 26  1  0  0  0  0
M  END
