2,12
q = 0.0, confidence = 0.998

 31 33  0  0  0  0  0  0  0  0999 V2000
    2.5564    2.1749   -1.0720 N   0  0  0  0  0  0  0  0  0  0  0  0
    1.6323    1.5996   -0.2488 C   0  0  0  0  0  2  0  0  0  0  0  0
    1.0767    2.6517    0.4324 N   0  0  0  0  0  0  0  0  0  0  0  0
    1.6461    3.8601    0.0483 C   0  0  0  0  0  0  0  0  0  0  0  0
    1.3390    4.8210    0.4717 H   0  0  0  0  0  0  0  0  0  0  0  0
    2.5846    3.5537   -0.8997 C   0  0  0  0  0  0  0  0  0  0  0  0
    3.2577    4.1988   -1.4720 H   0  0  0  0  0  0  0  0  0  0  0  0
    3.3826    1.4590   -2.0378 C   0  0  0  0  0  0  0  0  0  0  0  0
    4.3267    1.1183   -1.5698 H   0  0  0  0  0  0  0  0  0  0  0  0
    3.6221    2.1382   -2.8756 H   0  0  0  0  0  0  0  0  0  0  0  0
    2.7986    0.6009   -2.4211 H   0  0  0  0  0  0  0  0  0  0  0  0
   -0.8189    0.4308    0.3165 N   0  0  0  0  0  2  0  0  0  0  0  0
   -1.9143   -0.1836   -0.0572 N   0  0  0  0  0  2  0  0  0  0  0  0
   -2.9287    0.6291    0.2747 N   0  0  0  0  0  0  0  0  0  0  0  0
   -2.4770    1.7804    0.8651 C   0  0  0  0  0  0  0  0  0  0  0  0
   -3.1443    2.5905    1.1722 H   0  0  0  0  0  0  0  0  0  0  0  0
   -1.0979    1.6391    0.8952 C   0  0  0  0  0  0  0  0  0  0  0  0
   -4.2754    0.2568   -0.0351 C   0  0  0  0  0  0  0  0  0  0  0  0
   -4.5155   -0.5194   -1.1817 C   0  0  0  0  0  0  0  0  0  0  0  0
   -3.6735   -0.8207   -1.8201 H   0  0  0  0  0  0  0  0  0  0  0  0
   -5.8346   -0.8785   -1.4866 C   0  0  0  0  0  0  0  0  0  0  0  0
   -6.0359   -1.4830   -2.3831 H   0  0  0  0  0  0  0  0  0  0  0  0
   -6.8946   -0.4599   -0.6653 C   0  0  0  0  0  0  0  0  0  0  0  0
   -7.9280   -0.7412   -0.9152 H   0  0  0  0  0  0  0  0  0  0  0  0
   -6.6366    0.3164    0.4757 C   0  0  0  0  0  0  0  0  0  0  0  0
   -7.4634    0.6367    1.1263 H   0  0  0  0  0  0  0  0  0  0  0  0
   -5.3218    0.6751    0.8034 C   0  0  0  0  0  0  0  0  0  0  0  0
   -5.1149    1.2539    1.7154 H   0  0  0  0  0  0  0  0  0  0  0  0
    0.0086    2.4994    1.4190 C   0  0  0  0  0  0  0  0  0  0  0  0
   -0.3721    3.5021    1.6837 H   0  0  0  0  0  0  0  0  0  0  0  0
    0.4311    2.0447    2.3411 H   0  0  0  0  0  0  0  0  0  0  0  0
  1  6  1  0  0  0  0
  1  2  1  0  0  0  0
  2  3  1  0  0  0  0
  3 29  1  0  0  0  0
  4  3  1  0  0  0  0
  4  5  1  0  0  0  0
  6  4  2  0  0  0  0
  7  6  1  0  0  0  0
  8  9  1  0  0  0  0
  8  1  1  0  0  0  0
 10  8  1  0  0  0  0
 11  8  1  0  0  0  0
 12 17  1  0  0  0  0
 13 14  1  0  0  0  0
 13 12  1  0  0  0  0
 14 15  1  0  0  0  0
 15 17  2  0  0  0  0
 15 16  1  0  0  0  0
 17 29  1  0  0  0  0
 18 14  1  0  0  0  0
 18 27  1  0  0  0  0
 19 18  2  0  0  0  0
 20 19  1  0  0  0  0
 21 19  1  0  0  0  0
 21 23  2  0  0  0  0
 22 21  1  0  0  0  0
 23 25  1  0  0  0  0
 24 23  1  0  0  0  0
 25 27  2  0  0  0  0
 25 26  1  0  0  0  0
 27 28  1  0  0  0  0
 29 30  1  0  0  0  0
 29 31  1  0  0  0  0
M  END
