3,4
q = -1.0

 21 21  0  0  0  0  0  0  0  0999 V2000
   -4.6539   -1.9887    1.5069 O   0  0  0  0  0  0  0  0  0  0  0  0
   -5.5594   -2.0566    1.1519 H   0  0  0  0  0  0  0  0  0  0  0  0
   -3.0135   -0.8420   -0.6294 N   0  0  0  0  0  2  0  0  0  0  0  0
   -1.6493    1.4056   -0.1807 C   0  0  0  0  0  2  0  0  0  0  0  0
   -3.0801    1.4888   -0.3071 C   0  0  0  0  0  0  0  0  0  0  0  0
   -3.7772    2.7134   -0.2297 C   0  0  0  0  0  0  0  0  0  0  0  0
   -4.8749    2.7211   -0.3270 H   0  0  0  0  0  0  0  0  0  0  0  0
   -3.0720    3.9045   -0.0310 C   0  0  0  0  0  0  0  0  0  0  0  0
   -3.6027    4.8658    0.0331 H   0  0  0  0  0  0  0  0  0  0  0  0
   -1.6712    3.8525    0.0811 C   0  0  0  0  0  0  0  0  0  0  0  0
   -1.1013    4.7832    0.2312 H   0  0  0  0  0  0  0  0  0  0  0  0
   -0.9769    2.6316    0.0080 C   0  0  0  0  0  0  0  0  0  0  0  0
    0.1171    2.6605    0.1087 H   0  0  0  0  0  0  0  0  0  0  0  0
   -3.7489    0.2298   -0.5283 C   0  0  0  0  0  0  0  0  0  0  0  0
   -4.8502    0.1629   -0.6180 H   0  0  0  0  0  0  0  0  0  0  0  0
   -3.6217   -2.1538   -0.7256 C   0  0  0  0  0  0  0  0  0  0  0  0
   -2.9455   -2.8149   -1.3031 H   0  0  0  0  0  0  0  0  0  0  0  0
   -4.6047   -2.0776   -1.2454 H   0  0  0  0  0  0  0  0  0  0  0  0
   -3.8129   -2.7625    0.6736 C   0  0  0  0  0  0  0  0  0  0  0  0
   -4.1766   -3.8107    0.5476 H   0  0  0  0  0  0  0  0  0  0  0  0
   -2.8196   -2.8148    1.1623 H   0  0  0  0  0  0  0  0  0  0  0  0
  2  1  1  0  0  0  0
  3 14  1  0  0  0  0
  4 12  1  0  0  0  0
  5  6  1  0  0  0  0
  5  4  1  0  0  0  0
  6  8  2  0  0  0  0
  7  6  1  0  0  0  0
  8  9  1  0  0  0  0
  8 10  1  0  0  0  0
 10 11  1  0  0  0  0
 12 10  2  0  0  0  0
 12 13  1  0  0  0  0
 14  5  2  0  0  0  0
 15 14  1  0  0  0  0
 16  3  1  0  0  0  0
 16 19  1  0  0  0  0
 17 16  1  0  0  0  0
 18 16  1  0  0  0  0
 19 21  1  0  0  0  0
 19  1  1  0  0  0  0
 20 19  1  0  0  0  0
M  END
