1,2
q = -1.0

 23 24  0  0  1  0  0  0  0  0999 V2000
   -0.7460    1.9532    0.1866 N   0  0  0  0  0  2  0  0  0  0  0  0
   -1.5162   -0.0768    1.7739 C   0  0  0  0  0  3  0  0  0  0  0  0
   -1.9353   -1.1378    2.6101 C   0  0  0  0  0  0  0  0  0  0  0  0
   -1.7659   -2.1759    2.2807 H   0  0  0  0  0  0  0  0  0  0  0  0
   -2.5534   -0.9048    3.8486 C   0  0  0  0  0  0  0  0  0  0  0  0
   -2.8655   -1.7559    4.4757 H   0  0  0  0  0  0  0  0  0  0  0  0
   -2.7803    0.4110    4.2969 C   0  0  0  0  0  0  0  0  0  0  0  0
   -3.2661    0.5940    5.2673 H   0  0  0  0  0  0  0  0  0  0  0  0
   -2.3830    1.4865    3.4968 C   0  0  0  0  0  0  0  0  0  0  0  0
   -2.5641    2.5137    3.8515 H   0  0  0  0  0  0  0  0  0  0  0  0
   -1.7583    1.2523    2.2488 C   0  0  0  0  0  0  0  0  0  0  0  0
   -1.3119    2.3429    1.3720 C   0  0  2  0  0  3  0  0  0  0  0  0
   -1.4241    3.7219    1.6601 C   0  0  0  0  0  0  0  0  0  0  0  0
   -1.8773    4.0396    2.6088 H   0  0  0  0  0  0  0  0  0  0  0  0
   -0.9583    4.6732    0.7534 C   0  0  0  0  0  0  0  0  0  0  0  0
   -1.0477    5.7462    0.9867 H   0  0  0  0  0  0  0  0  0  0  0  0
   -0.3638    4.2611   -0.4592 C   0  0  0  0  0  0  0  0  0  0  0  0
   -0.2869    2.8789   -0.6810 C   0  0  0  0  0  0  0  0  0  0  0  0
    0.1648    2.4805   -1.6034 H   0  0  0  0  0  0  0  0  0  0  0  0
    0.1715    5.2403   -1.4687 C   0  0  0  0  0  0  0  0  0  0  0  0
    0.9714    5.8730   -1.0304 H   0  0  0  0  0  0  0  0  0  0  0  0
   -0.6222    5.9286   -1.8274 H   0  0  0  0  0  0  0  0  0  0  0  0
    0.5964    4.7195   -2.3485 H   0  0  0  0  0  0  0  0  0  0  0  0
  1 12  1  0  0  0  0
  2 11  2  0  0  0  0
  2  3  1  0  0  0  0
  3  5  2  0  0  0  0
  4  3  1  0  0  0  0
  5  7  1  0  0  0  0
  5  6  1  0  0  0  0
  7  8  1  0  0  0  0
  9 10  1  0  0  0  0
  9  7  2  0  0  0  0
 11  9  1  0  0  0  0
 12 13  1  0  0  0  0
 12 11  1  6  0  0  0
 13 14  1  0  0  0  0
 15 16  1  0  0  0  0
 15 13  2  0  0  0  0
 17 15  1  0  0  0  0
 18 17  2  0  0  0  0
 18  1  1  0  0  0  0
 19 18  1  0  0  0  0
 20 21  1  0  0  0  0
 20 17  1  0  0  0  0
 22 20  1  0  0  0  0
 23 20  1  0  0  0  0
M  END
