1,5
q = -2.0, confidence = 0.512

 47 49  0  0  0  0  0  0  0  0999 V2000
    0.4897   -0.8819   -0.0308 N   0  0  0  0  0  0  0  0  0  0  0  0
   -2.1148    1.9732    0.0384 N   0  0  0  0  0  0  0  0  0  0  0  0
    0.1355    1.4281   -0.0235 N   0  0  0  0  0  0  0  0  0  0  0  0
    1.4305   -3.0196   -0.0564 N   0  0  0  0  0  0  0  0  0  0  0  0
   -1.1860    1.0291    0.0012 C   0  0  0  0  0  3  0  0  0  0  0  0
   -1.9849    3.4700    0.0593 C   0  0  0  0  0  0  0  0  0  0  0  0
   -3.4247    3.9980    0.1547 C   0  0  0  0  0  0  0  0  0  0  0  0
   -4.0326    3.6760   -0.7163 H   0  0  0  0  0  0  0  0  0  0  0  0
   -3.4196    5.1041    0.1667 H   0  0  0  0  0  0  0  0  0  0  0  0
   -3.9191    3.6552    1.0871 H   0  0  0  0  0  0  0  0  0  0  0  0
   -1.3267    3.9434   -1.2474 C   0  0  0  0  0  0  0  0  0  0  0  0
   -0.2950    3.5553   -1.3291 H   0  0  0  0  0  0  0  0  0  0  0  0
   -1.2878    5.0502   -1.2589 H   0  0  0  0  0  0  0  0  0  0  0  0
   -1.9061    3.6088   -2.1306 H   0  0  0  0  0  0  0  0  0  0  0  0
   -1.1716    3.9071    1.2889 C   0  0  0  0  0  0  0  0  0  0  0  0
   -1.6354    3.5348    2.2238 H   0  0  0  0  0  0  0  0  0  0  0  0
   -1.1476    5.0135    1.3342 H   0  0  0  0  0  0  0  0  0  0  0  0
   -0.1332    3.5330    1.2310 H   0  0  0  0  0  0  0  0  0  0  0  0
    1.5555   -1.7098   -0.0149 C   0  0  0  0  0  3  0  0  0  0  0  0
    2.8250   -0.9291    0.0074 C   0  0  0  0  0  0  0  0  0  0  0  0
    4.1460   -1.5674   -0.0383 C   0  0  0  0  0  0  0  0  0  0  0  0
    4.4619   -2.6357    0.8381 C   0  0  0  0  0  0  0  0  0  0  0  0
    3.7401   -2.9439    1.6111 H   0  0  0  0  0  0  0  0  0  0  0  0
    5.7150   -3.2617    0.7721 C   0  0  0  0  0  0  0  0  0  0  0  0
    5.9542   -4.0790    1.4685 H   0  0  0  0  0  0  0  0  0  0  0  0
    6.6644   -2.8371   -0.1701 C   0  0  0  0  0  0  0  0  0  0  0  0
    7.6462   -3.3306   -0.2234 H   0  0  0  0  0  0  0  0  0  0  0  0
    6.3603   -1.7782   -1.0442 C   0  0  0  0  0  0  0  0  0  0  0  0
    7.1014   -1.4478   -1.7871 H   0  0  0  0  0  0  0  0  0  0  0  0
    5.1150   -1.1450   -0.9804 C   0  0  0  0  0  0  0  0  0  0  0  0
    4.8744   -0.3231   -1.6703 H   0  0  0  0  0  0  0  0  0  0  0  0
    2.4569    0.4080   -0.0220 C   0  0  0  0  0  0  0  0  0  0  0  0
    3.2854    1.6109    0.0428 C   0  0  0  0  0  0  0  0  0  0  0  0
    4.5063    1.6082    0.7643 C   0  0  0  0  0  0  0  0  0  0  0  0
    4.8246    0.6985    1.2925 H   0  0  0  0  0  0  0  0  0  0  0  0
    5.2904    2.7629    0.8333 C   0  0  0  0  0  0  0  0  0  0  0  0
    6.2279    2.7513    1.4086 H   0  0  0  0  0  0  0  0  0  0  0  0
    4.8808    3.9377    0.1770 C   0  0  0  0  0  0  0  0  0  0  0  0
    5.5038    4.8430    0.2290 H   0  0  0  0  0  0  0  0  0  0  0  0
    3.6735    3.9538   -0.5398 C   0  0  0  0  0  0  0  0  0  0  0  0
    3.3511    4.8700   -1.0564 H   0  0  0  0  0  0  0  0  0  0  0  0
    2.8758    2.8053   -0.6015 C   0  0  0  0  0  0  0  0  0  0  0  0
    1.9326    2.8189   -1.1635 H   0  0  0  0  0  0  0  0  0  0  0  0
    0.9660    0.4140   -0.0380 C   0  0  0  0  0  0  0  0  0  0  0  0
    0.4502   -3.4107   -0.0808 H   0  0  0  0  0  0  0  0  0  0  0  0
    2.2647   -3.6120   -0.0765 H   0  0  0  0  0  0  0  0  0  0  0  0
   -3.0783    1.6278    0.0531 H   0  0  0  0  0  0  0  0  0  0  0  0
  1 19  1  0  0  0  0
  2 47  1  0  0  0  0
  2  6  1  0  0  0  0
  3  5  2  0  0  0  0
  4 19  1  0  0  0  0
  5  2  1  0  0  0  0
  6  7  1  0  0  0  0
  6 15  1  0  0  0  0
  7  9  1  0  0  0  0
  7 10  1  0  0  0  0
  8  7  1  0  0  0  0
 11  6  1  0  0  0  0
 12 11  1  0  0  0  0
 13 11  1  0  0  0  0
 14 11  1  0  0  0  0
 15 17  1  0  0  0  0
 15 16  1  0  0  0  0
 18 15  1  0  0  0  0
 19 20  1  0  0  0  0
 21 20  1  0  0  0  0
 21 22  1  0  0  0  0
 22 23  1  0  0  0  0
 24 22  2  0  0  0  0
 24 25  1  0  0  0  0
 26 24  1  0  0  0  0
 27 26  1  0  0  0  0
 28 30  1  0  0  0  0
 28 26  2  0  0  0  0
 29 28  1  0  0  0  0
 30 21  2  0  0  0  0
 31 30  1  0  0  0  0
 32 20  2  0  0  0  0
 32 33  1  0  0  0  0
 33 34  1  0  0  0  0
 34 36  2  0  0  0  0
 34 35  1  0  0  0  0
 36 37  1  0  0  0  0
 38 39  1  0  0  0  0
 38 36  1  0  0  0  0
 40 38  2  0  0  0  0
 41 40  1  0  0  0  0
 42 40  1  0  0  0  0
 42 33  2  0  0  0  0
 43 42  1  0  0  0  0
 44  1  2  0  0  0  0
 44  3  1  0  0  0  0
 44 32  1  0  0  0  0
 45  4  1  0  0  0  0
 46  4  1  0  0  0  0
M  END
