2,15
q = 0.0, confidence = 0.98

 30 32  0  0  0  0  0  0  0  0999 V2000
   -6.1883   -0.0803   -0.3478 Br  0  0  0  0  0  0  0  0  0  0  0  0
    0.7137    1.0464   -0.1612 C   0  0  0  0  0  3  0  0  0  0  0  0
    4.2276   -0.5671   -0.6197 C   0  0  0  0  0  3  0  0  0  0  0  0
    4.1455   -1.6587   -0.7084 H   0  0  0  0  0  0  0  0  0  0  0  0
    3.1051    1.4724   -0.3260 C   0  0  0  0  0  0  0  0  0  0  0  0
    1.7622    1.9829   -0.1773 C   0  0  0  0  0  0  0  0  0  0  0  0
    5.4576    0.0856   -0.7504 C   0  0  0  0  0  0  0  0  0  0  0  0
    6.3657   -0.5052   -0.9326 H   0  0  0  0  0  0  0  0  0  0  0  0
    5.5016    1.4845   -0.6524 C   0  0  0  0  0  0  0  0  0  0  0  0
    6.4540    2.0252   -0.7498 H   0  0  0  0  0  0  0  0  0  0  0  0
    4.3093    2.1864   -0.4447 C   0  0  0  0  0  0  0  0  0  0  0  0
    4.3102    3.2824   -0.3868 H   0  0  0  0  0  0  0  0  0  0  0  0
   -0.1295    3.1625   -0.0901 N   0  0  0  0  0  2  0  0  0  0  0  0
   -0.4049    1.8492   -0.1275 N   0  0  0  0  0  0  0  0  0  0  0  0
    3.0749    0.0951   -0.3881 N   0  0  0  0  0  2  0  0  0  0  0  0
    1.1925    3.2281   -0.1202 N   0  0  0  0  0  0  0  0  0  0  0  0
   -4.0259    1.4770    0.6900 C   0  0  0  0  0  0  0  0  0  0  0  0
   -4.7680    1.8537    1.4075 H   0  0  0  0  0  0  0  0  0  0  0  0
   -2.1418    0.4996   -1.1741 C   0  0  0  0  0  0  0  0  0  0  0  0
   -1.3900    0.1425   -1.8977 H   0  0  0  0  0  0  0  0  0  0  0  0
   -4.4020    0.5355   -0.2860 C   0  0  0  0  0  0  0  0  0  0  0  0
   -3.4667    0.0507   -1.2207 C   0  0  0  0  0  0  0  0  0  0  0  0
   -3.7814   -0.6660   -1.9923 H   0  0  0  0  0  0  0  0  0  0  0  0
   -2.6999    1.9251    0.7423 C   0  0  0  0  0  0  0  0  0  0  0  0
   -2.3858    2.6578    1.4991 H   0  0  0  0  0  0  0  0  0  0  0  0
   -1.7718    1.4245   -0.1832 C   0  0  0  0  0  0  0  0  0  0  0  0
    1.8266    4.5398   -0.1168 C   0  0  0  0  0  0  0  0  0  0  0  0
    1.0286    5.2971   -0.0308 H   0  0  0  0  0  0  0  0  0  0  0  0
    2.3802    4.6900   -1.0636 H   0  0  0  0  0  0  0  0  0  0  0  0
    2.5176    4.6220    0.7436 H   0  0  0  0  0  0  0  0  0  0  0  0
  1 21  1  0  0  0  0
  2 14  1  0  0  0  0
  3 15  1  0  0  0  0
  4  3  1  0  0  0  0
  5  6  1  0  0  0  0
  6  2  2  0  0  0  0
  6 16  1  0  0  0  0
  7  9  2  0  0  0  0
  7  3  1  0  0  0  0
  8  7  1  0  0  0  0
  9 11  1  0  0  0  0
 10  9  1  0  0  0  0
 11 12  1  0  0  0  0
 11  5  2  0  0  0  0
 14 13  1  0  0  0  0
 15  5  1  0  0  0  0
 16 27  1  0  0  0  0
 16 13  1  0  0  0  0
 17 24  1  0  0  0  0
 17 18  1  0  0  0  0
 19 26  1  0  0  0  0
 20 19  1  0  0  0  0
 21 17  2  0  0  0  0
 22 19  2  0  0  0  0
 22 21  1  0  0  0  0
 23 22  1  0  0  0  0
 24 25  1  0  0  0  0
 26 14  1  0  0  0  0
 26 24  2  0  0  0  0
 27 28  1  0  0  0  0
 27 30  1  0  0  0  0
 29 27  1  0  0  0  0
M  END
