1,20
q = -1.0

 31 32  0  0  0  0  0  0  0  0999 V2000
    0.0423   -2.0604    0.3530 N   0  0  0  0  0  2  0  0  0  0  0  0
   -1.2852   -2.0840    0.2630 N   0  0  0  0  0  0  0  0  0  0  0  0
    0.6342   -3.1337    0.5651 O   0  0  0  0  0  1  0  0  0  0  0  0
   -1.9406   -3.3823    0.3696 C   0  0  0  0  0  0  0  0  0  0  0  0
   -1.4024   -4.1072   -0.2701 H   0  0  0  0  0  0  0  0  0  0  0  0
   -2.9897   -3.2744    0.0532 H   0  0  0  0  0  0  0  0  0  0  0  0
   -1.8931   -3.7521    1.4136 H   0  0  0  0  0  0  0  0  0  0  0  0
   -1.9444   -0.8343    0.0394 C   0  0  0  0  0  0  0  0  0  0  0  0
   -3.4318   -0.9076   -0.0053 C   0  0  0  0  0  0  0  0  0  0  0  0
   -4.1847   -1.1107    1.1730 C   0  0  0  0  0  0  0  0  0  0  0  0
   -3.6644   -1.2430    2.1349 H   0  0  0  0  0  0  0  0  0  0  0  0
   -5.5859   -1.1234    1.1257 C   0  0  0  0  0  0  0  0  0  0  0  0
   -6.1634   -1.2752    2.0498 H   0  0  0  0  0  0  0  0  0  0  0  0
   -6.2504   -0.9363   -0.0978 C   0  0  0  0  0  0  0  0  0  0  0  0
   -7.3500   -0.9441   -0.1335 H   0  0  0  0  0  0  0  0  0  0  0  0
   -5.5099   -0.7403   -1.2746 C   0  0  0  0  0  0  0  0  0  0  0  0
   -6.0278   -0.5957   -2.2344 H   0  0  0  0  0  0  0  0  0  0  0  0
   -4.1085   -0.7264   -1.2301 C   0  0  0  0  0  0  0  0  0  0  0  0
   -3.5249   -0.5600   -2.1483 H   0  0  0  0  0  0  0  0  0  0  0  0
   -1.1459    0.2754   -0.1048 C   0  0  0  0  0  3  0  0  0  0  0  0
   -1.6266    1.6583   -0.2210 C   0  0  0  0  0  0  0  0  0  0  0  0
   -0.6724    2.6324   -0.6137 C   0  0  0  0  0  0  0  0  0  0  0  0
    0.3499    2.3050   -0.8751 H   0  0  0  0  0  0  0  0  0  0  0  0
   -0.9738    3.9961   -0.6963 C   0  0  0  0  0  0  0  0  0  0  0  0
   -0.2018    4.7154   -1.0088 H   0  0  0  0  0  0  0  0  0  0  0  0
   -2.2671    4.4366   -0.3736 C   0  0  0  0  0  0  0  0  0  0  0  0
   -2.5211    5.5051   -0.4353 H   0  0  0  0  0  0  0  0  0  0  0  0
   -3.2311    3.4996    0.0385 C   0  0  0  0  0  0  0  0  0  0  0  0
   -4.2419    3.8393    0.3102 H   0  0  0  0  0  0  0  0  0  0  0  0
   -2.9230    2.1362    0.1153 C   0  0  0  0  0  0  0  0  0  0  0  0
   -3.6929    1.4378    0.4636 H   0  0  0  0  0  0  0  0  0  0  0  0
  1  3  1  0  0  0  0
  2  1  1  0  0  0  0
  2  4  1  0  0  0  0
  4  7  1  0  0  0  0
  5  4  1  0  0  0  0
  6  4  1  0  0  0  0
  8  2  1  0  0  0  0
  9  8  1  0  0  0  0
  9 10  1  0  0  0  0
 10 11  1  0  0  0  0
 12 10  2  0  0  0  0
 12 13  1  0  0  0  0
 14 12  1  0  0  0  0
 15 14  1  0  0  0  0
 16 18  1  0  0  0  0
 16 14  2  0  0  0  0
 17 16  1  0  0  0  0
 18  9  2  0  0  0  0
 19 18  1  0  0  0  0
 20  8  2  0  0  0  0
 21 20  1  0  0  0  0
 21 30  1  0  0  0  0
 22 21  2  0  0  0  0
 23 22  1  0  0  0  0
 24 22  1  0  0  0  0
 24 26  2  0  0  0  0
 25 24  1  0  0  0  0
 26 28  1  0  0  0  0
 27 26  1  0  0  0  0
 28 30  2  0  0  0  0
 28 29  1  0  0  0  0
 30 31  1  0  0  0  0
M  END
