2,5
q = -1.0

 61 60  0  0  0  0  0  0  0  0999 V2000
    1.3430   -0.2884    0.2179 P   0  0  0  0  0  4  0  0  0  0  0  0
    0.0122   -1.1790    0.4988 N   0  0  0  0  0  2  0  0  0  0  0  0
    2.3067   -0.7673   -1.1025 N   0  0  0  0  0  0  0  0  0  0  0  0
    2.3656   -0.3911    1.5714 N   0  0  0  0  0  0  0  0  0  0  0  0
   -0.8070    1.2773   -0.2071 C   0  0  0  0  0  3  0  0  0  0  0  0
    0.5630    1.3104   -0.1635 C   0  0  0  0  0  0  0  0  0  0  0  0
    1.4425    2.4943   -0.2949 C   0  0  0  0  0  0  0  0  0  0  0  0
    2.6326    2.5106    0.0063 O   0  0  0  0  0  0  0  0  0  0  0  0
    0.8211    3.5710   -0.8317 O   0  0  0  0  0  0  0  0  0  0  0  0
    1.6185    4.7516   -0.9570 C   0  0  0  0  0  0  0  0  0  0  0  0
   -1.5477    2.5506   -0.3922 C   0  0  0  0  0  0  0  0  0  0  0  0
   -2.1418    2.8980   -1.4019 O   0  0  0  0  0  0  0  0  0  0  0  0
   -1.5691    3.2831    0.7619 O   0  0  0  0  0  0  0  0  0  0  0  0
   -2.2799    4.5213    0.6799 C   0  0  0  0  0  0  0  0  0  0  0  0
    2.5051    0.1029   -2.2873 C   0  0  0  0  0  0  0  0  0  0  0  0
    3.8919    0.7661   -2.3355 C   0  0  0  0  0  0  0  0  0  0  0  0
    2.1611   -0.5564   -3.6300 C   0  0  0  0  0  0  0  0  0  0  0  0
    2.7565   -2.1838   -1.0378 C   0  0  0  0  0  0  0  0  0  0  0  0
    4.2096   -2.3960   -1.4794 C   0  0  0  0  0  0  0  0  0  0  0  0
    1.8059   -3.1867   -1.7161 C   0  0  0  0  0  0  0  0  0  0  0  0
    1.8036   -0.4847    2.9486 C   0  0  0  0  0  0  0  0  0  0  0  0
    0.8079    0.6374    3.2548 C   0  0  0  0  0  0  0  0  0  0  0  0
    1.2573   -1.8738    3.3074 C   0  0  0  0  0  0  0  0  0  0  0  0
    3.8304   -0.1706    1.4902 C   0  0  0  0  0  0  0  0  0  0  0  0
    4.3007    1.1025    2.2079 C   0  0  0  0  0  0  0  0  0  0  0  0
    4.6069   -1.3973    1.9944 C   0  0  0  0  0  0  0  0  0  0  0  0
    0.1710   -2.1671    0.7301 H   0  0  0  0  0  0  0  0  0  0  0  0
    0.9773    5.4989   -1.4572 H   0  0  0  0  0  0  0  0  0  0  0  0
    2.5269    4.5518   -1.5601 H   0  0  0  0  0  0  0  0  0  0  0  0
    1.9379    5.1200    0.0391 H   0  0  0  0  0  0  0  0  0  0  0  0
   -2.2585    4.9557    1.6954 H   0  0  0  0  0  0  0  0  0  0  0  0
   -3.3271    4.3642    0.3499 H   0  0  0  0  0  0  0  0  0  0  0  0
   -1.7906    5.2059   -0.0430 H   0  0  0  0  0  0  0  0  0  0  0  0
    1.7628    0.9183   -2.1658 H   0  0  0  0  0  0  0  0  0  0  0  0
    4.1051    1.2936   -1.3874 H   0  0  0  0  0  0  0  0  0  0  0  0
    3.9178    1.5185   -3.1505 H   0  0  0  0  0  0  0  0  0  0  0  0
    4.6977    0.0345   -2.5353 H   0  0  0  0  0  0  0  0  0  0  0  0
    1.1314   -0.9584   -3.6435 H   0  0  0  0  0  0  0  0  0  0  0  0
    2.8608   -1.3736   -3.8926 H   0  0  0  0  0  0  0  0  0  0  0  0
    2.2340    0.2043   -4.4327 H   0  0  0  0  0  0  0  0  0  0  0  0
    2.7282   -2.4246    0.0476 H   0  0  0  0  0  0  0  0  0  0  0  0
    4.9053   -1.7156   -0.9529 H   0  0  0  0  0  0  0  0  0  0  0  0
    4.3400   -2.2509   -2.5696 H   0  0  0  0  0  0  0  0  0  0  0  0
    4.5123   -3.4374   -1.2507 H   0  0  0  0  0  0  0  0  0  0  0  0
    0.7716   -3.0787   -1.3367 H   0  0  0  0  0  0  0  0  0  0  0  0
    2.1365   -4.2204   -1.4879 H   0  0  0  0  0  0  0  0  0  0  0  0
    1.7934   -3.0790   -2.8167 H   0  0  0  0  0  0  0  0  0  0  0  0
    2.6820   -0.3187    3.6044 H   0  0  0  0  0  0  0  0  0  0  0  0
    0.4894    0.5953    4.3160 H   0  0  0  0  0  0  0  0  0  0  0  0
   -0.0930    0.5385    2.6221 H   0  0  0  0  0  0  0  0  0  0  0  0
    1.2591    1.6306    3.0625 H   0  0  0  0  0  0  0  0  0  0  0  0
    1.9756   -2.6669    3.0200 H   0  0  0  0  0  0  0  0  0  0  0  0
    0.2903   -2.0827    2.8122 H   0  0  0  0  0  0  0  0  0  0  0  0
    1.0985   -1.9422    4.4032 H   0  0  0  0  0  0  0  0  0  0  0  0
    4.0431   -0.0427    0.4115 H   0  0  0  0  0  0  0  0  0  0  0  0
    3.7513    1.9844    1.8356 H   0  0  0  0  0  0  0  0  0  0  0  0
    5.3811    1.2595    2.0135 H   0  0  0  0  0  0  0  0  0  0  0  0
    4.1783    1.0281    3.3083 H   0  0  0  0  0  0  0  0  0  0  0  0
    4.2952   -2.3260    1.4789 H   0  0  0  0  0  0  0  0  0  0  0  0
    4.4626   -1.5493    3.0841 H   0  0  0  0  0  0  0  0  0  0  0  0
    5.6938   -1.2582    1.8253 H   0  0  0  0  0  0  0  0  0  0  0  0
  1  2  1  0  0  0  0
  1  4  1  0  0  0  0
  2 27  1  0  0  0  0
  3 18  1  0  0  0  0
  3  1  1  0  0  0  0
  4 21  1  0  0  0  0
  5  6  2  0  0  0  0
  6  1  1  0  0  0  0
  7  6  1  0  0  0  0
  7  8  2  0  0  0  0
  9  7  1  0  0  0  0
 10  9  1  0  0  0  0
 10 30  1  0  0  0  0
 11  5  1  0  0  0  0
 11 13  1  0  0  0  0
 12 11  2  0  0  0  0
 14 13  1  0  0  0  0
 14 31  1  0  0  0  0
 15 34  1  0  0  0  0
 15  3  1  0  0  0  0
 16 15  1  0  0  0  0
 16 35  1  0  0  0  0
 17 15  1  0  0  0  0
 18 41  1  0  0  0  0
 19 44  1  0  0  0  0
 19 18  1  0  0  0  0
 19 42  1  0  0  0  0
 20 46  1  0  0  0  0
 20 45  1  0  0  0  0
 20 18  1  0  0  0  0
 21 22  1  0  0  0  0
 21 23  1  0  0  0  0
 21 48  1  0  0  0  0
 22 49  1  0  0  0  0
 23 54  1  0  0  0  0
 24  4  1  0  0  0  0
 24 26  1  0  0  0  0
 24 25  1  0  0  0  0
 25 58  1  0  0  0  0
 26 60  1  0  0  0  0
 28 10  1  0  0  0  0
 29 10  1  0  0  0  0
 32 14  1  0  0  0  0
 33 14  1  0  0  0  0
 36 16  1  0  0  0  0
 37 16  1  0  0  0  0
 38 17  1  0  0  0  0
 39 17  1  0  0  0  0
 40 17  1  0  0  0  0
 43 19  1  0  0  0  0
 47 20  1  0  0  0  0
 50 22  1  0  0  0  0
 51 22  1  0  0  0  0
 52 23  1  0  0  0  0
 53 23  1  0  0  0  0
 55 24  1  0  0  0  0
 56 25  1  0  0  0  0
 57 25  1  0  0  0  0
 59 26  1  0  0  0  0
 61 26  1  0  0  0  0
M  END
