2,3
q = -1.0, confidence = 0.0

 44 45  0  0  0  0  0  0  0  0999 V2000
    1.5178   -0.0675    0.1395 Si  0  0  0  0  0  0  0  0  0  0  0  0
    0.4082   -0.3490   -1.2918 N   0  0  0  0  0  0  0  0  0  0  0  0
    0.2156   -0.4411    1.4046 C   0  0  0  0  0  3  0  0  0  0  0  0
    0.4325    0.0277    2.8549 C   0  0  0  0  0  0  0  0  0  0  0  0
   -0.6851   -0.4409    3.7939 C   0  0  0  0  0  0  0  0  0  0  0  0
    1.8002   -0.4219    3.3987 C   0  0  0  0  0  0  0  0  0  0  0  0
    0.6582    0.2725   -2.6088 C   0  0  0  0  0  0  0  0  0  0  0  0
    1.7750   -0.4036   -3.3991 C   0  0  0  0  0  0  0  0  0  0  0  0
    2.1900    1.6885    0.0048 C   0  0  0  0  0  0  0  0  0  0  0  0
    3.3448    1.9485   -0.7714 C   0  0  0  0  0  0  0  0  0  0  0  0
    3.8362    3.2538   -0.9287 C   0  0  0  0  0  0  0  0  0  0  0  0
    3.1853    4.3273   -0.3010 C   0  0  0  0  0  0  0  0  0  0  0  0
    2.0428    4.0893    0.4794 C   0  0  0  0  0  0  0  0  0  0  0  0
    1.5488    2.7847    0.6266 C   0  0  0  0  0  0  0  0  0  0  0  0
    2.9737   -1.2917    0.0144 C   0  0  0  0  0  0  0  0  0  0  0  0
    2.7836   -2.5716   -0.5556 C   0  0  0  0  0  0  0  0  0  0  0  0
    3.8109   -3.5272   -0.5793 C   0  0  0  0  0  0  0  0  0  0  0  0
    5.0632   -3.2212   -0.0232 C   0  0  0  0  0  0  0  0  0  0  0  0
    5.2760   -1.9593    0.5544 C   0  0  0  0  0  0  0  0  0  0  0  0
    4.2429   -1.0095    0.5714 C   0  0  0  0  0  0  0  0  0  0  0  0
    0.2911   -1.3629   -1.4320 H   0  0  0  0  0  0  0  0  0  0  0  0
    0.1060   -1.5530    1.4111 H   0  0  0  0  0  0  0  0  0  0  0  0
    0.4281    1.1391    2.8709 H   0  0  0  0  0  0  0  0  0  0  0  0
   -0.7202   -1.5514    3.8371 H   0  0  0  0  0  0  0  0  0  0  0  0
   -1.6724   -0.0771    3.4551 H   0  0  0  0  0  0  0  0  0  0  0  0
   -0.5250   -0.0739    4.8287 H   0  0  0  0  0  0  0  0  0  0  0  0
    1.9064   -1.5267    3.3482 H   0  0  0  0  0  0  0  0  0  0  0  0
    1.9390   -0.1145    4.4566 H   0  0  0  0  0  0  0  0  0  0  0  0
    2.6364    0.0155    2.8148 H   0  0  0  0  0  0  0  0  0  0  0  0
   -0.2895    0.2615   -3.1880 H   0  0  0  0  0  0  0  0  0  0  0  0
    0.8959    1.3401   -2.4324 H   0  0  0  0  0  0  0  0  0  0  0  0
    1.5436   -1.4712   -3.6000 H   0  0  0  0  0  0  0  0  0  0  0  0
    2.7389   -0.3717   -2.8531 H   0  0  0  0  0  0  0  0  0  0  0  0
    1.9166    0.0986   -4.3772 H   0  0  0  0  0  0  0  0  0  0  0  0
    3.8731    1.1162   -1.2634 H   0  0  0  0  0  0  0  0  0  0  0  0
    4.7321    3.4330   -1.5430 H   0  0  0  0  0  0  0  0  0  0  0  0
    3.5687    5.3523   -0.4217 H   0  0  0  0  0  0  0  0  0  0  0  0
    1.5249    4.9263    0.9719 H   0  0  0  0  0  0  0  0  0  0  0  0
    0.6401    2.6198    1.2210 H   0  0  0  0  0  0  0  0  0  0  0  0
    1.8088   -2.8411   -0.9978 H   0  0  0  0  0  0  0  0  0  0  0  0
    3.6348   -4.5150   -1.0329 H   0  0  0  0  0  0  0  0  0  0  0  0
    5.8726   -3.9671   -0.0390 H   0  0  0  0  0  0  0  0  0  0  0  0
    6.2552   -1.7125    0.9932 H   0  0  0  0  0  0  0  0  0  0  0  0
    4.4306   -0.0236    1.0267 H   0  0  0  0  0  0  0  0  0  0  0  0
  1  3  1  0  0  0  0
  2  1  1  0  0  0  0
  3 22  1  0  0  0  0
  3  4  1  0  0  0  0
  4 23  1  0  0  0  0
  4  6  1  0  0  0  0
  4  5  1  0  0  0  0
  5 24  1  0  0  0  0
  5 26  1  0  0  0  0
  6 28  1  0  0  0  0
  7 31  1  0  0  0  0
  7  2  1  0  0  0  0
  8 33  1  0  0  0  0
  8  7  1  0  0  0  0
  9  1  1  0  0  0  0
  9 14  1  0  0  0  0
 10  9  2  0  0  0  0
 11 10  1  0  0  0  0
 11 12  2  0  0  0  0
 12 13  1  0  0  0  0
 13 14  2  0  0  0  0
 13 38  1  0  0  0  0
 14 39  1  0  0  0  0
 15  1  1  0  0  0  0
 15 20  1  0  0  0  0
 16 15  2  0  0  0  0
 17 16  1  0  0  0  0
 17 18  2  0  0  0  0
 18 19  1  0  0  0  0
 19 20  2  0  0  0  0
 19 43  1  0  0  0  0
 20 44  1  0  0  0  0
 21  2  1  0  0  0  0
 25  5  1  0  0  0  0
 27  6  1  0  0  0  0
 29  6  1  0  0  0  0
 30  7  1  0  0  0  0
 32  8  1  0  0  0  0
 34  8  1  0  0  0  0
 35 10  1  0  0  0  0
 36 11  1  0  0  0  0
 37 12  1  0  0  0  0
 40 16  1  0  0  0  0
 41 17  1  0  0  0  0
 42 18  1  0  0  0  0
M  END
