2,17
q = -1.0

 34 35  0  0  1  0  0  0  0  0999 V2000
   -0.8775    1.5601    0.4624 C   0  0  0  0  0  0  0  0  0  0  0  0
    0.3824    1.5319   -0.1852 C   0  0  0  0  0  3  0  0  0  0  0  0
    0.9100    2.7586   -0.6363 C   0  0  0  0  0  0  0  0  0  0  0  0
    1.8625    2.7488   -1.1880 H   0  0  0  0  0  0  0  0  0  0  0  0
    0.2582    3.9796   -0.3962 C   0  0  0  0  0  0  0  0  0  0  0  0
    0.7073    4.9211   -0.7493 H   0  0  0  0  0  0  0  0  0  0  0  0
   -0.9634    3.9938    0.2929 C   0  0  0  0  0  0  0  0  0  0  0  0
   -1.4846    4.9422    0.4935 H   0  0  0  0  0  0  0  0  0  0  0  0
   -1.5379    2.7843    0.7090 C   0  0  0  0  0  0  0  0  0  0  0  0
   -2.5162    2.7954    1.2111 H   0  0  0  0  0  0  0  0  0  0  0  0
   -1.5335    0.3452    0.8623 N   0  0  0  0  0  0  0  0  0  0  0  0
   -2.4207    0.3596    2.0158 C   0  0  0  0  0  0  0  0  0  0  0  0
   -3.4147    0.8104    1.8046 H   0  0  0  0  0  0  0  0  0  0  0  0
   -1.9371    0.9379    2.8277 H   0  0  0  0  0  0  0  0  0  0  0  0
   -2.5866   -0.6769    2.3611 H   0  0  0  0  0  0  0  0  0  0  0  0
   -1.4621   -0.7597    0.0429 C   0  0  1  0  0  3  0  0  0  0  0  0
   -0.3554   -1.0442   -0.5942 N   0  0  0  0  0  2  0  0  0  0  0  0
   -2.5983   -1.5655   -0.0336 N   0  0  0  0  0  0  0  0  0  0  0  0
   -2.4357   -2.9555   -0.4490 C   0  0  0  0  0  0  0  0  0  0  0  0
   -2.3591   -3.0638   -1.5552 H   0  0  0  0  0  0  0  0  0  0  0  0
   -3.3038   -3.5510   -0.1122 H   0  0  0  0  0  0  0  0  0  0  0  0
   -1.5202   -3.3730    0.0121 H   0  0  0  0  0  0  0  0  0  0  0  0
   -3.8701   -0.9448   -0.2290 C   0  0  0  0  0  0  0  0  0  0  0  0
   -3.9678    0.2608   -0.9560 C   0  0  0  0  0  0  0  0  0  0  0  0
   -3.0642    0.7113   -1.3933 H   0  0  0  0  0  0  0  0  0  0  0  0
   -5.2130    0.8844   -1.1146 C   0  0  0  0  0  0  0  0  0  0  0  0
   -5.2733    1.8277   -1.6780 H   0  0  0  0  0  0  0  0  0  0  0  0
   -6.3748    0.3051   -0.5798 C   0  0  0  0  0  0  0  0  0  0  0  0
   -7.3512    0.7933   -0.7149 H   0  0  0  0  0  0  0  0  0  0  0  0
   -6.2801   -0.9041    0.1280 C   0  0  0  0  0  0  0  0  0  0  0  0
   -7.1827   -1.3659    0.5562 H   0  0  0  0  0  0  0  0  0  0  0  0
   -5.0362   -1.5228    0.3126 C   0  0  0  0  0  0  0  0  0  0  0  0
   -4.9659   -2.4523    0.8971 H   0  0  0  0  0  0  0  0  0  0  0  0
   -0.4454   -1.6576   -1.4114 H   0  0  0  0  0  0  0  0  0  0  0  0
  1  9  1  0  0  0  0
  1 11  1  0  0  0  0
  2  1  2  0  0  0  0
  3  5  2  0  0  0  0
  3  2  1  0  0  0  0
  4  3  1  0  0  0  0
  5  7  1  0  0  0  0
  6  5  1  0  0  0  0
  7  8  1  0  0  0  0
  7  9  2  0  0  0  0
  9 10  1  0  0  0  0
 11 12  1  0  0  0  0
 12 15  1  0  0  0  0
 12 14  1  0  0  0  0
 13 12  1  0  0  0  0
 16 17  1  1  0  0  0
 16 11  1  0  0  0  0
 18 16  1  0  0  0  0
 19 21  1  0  0  0  0
 19 18  1  0  0  0  0
 19 22  1  0  0  0  0
 20 19  1  0  0  0  0
 23 18  1  0  0  0  0
 23 32  1  0  0  0  0
 24 23  2  0  0  0  0
 25 24  1  0  0  0  0
 26 24  1  0  0  0  0
 26 28  2  0  0  0  0
 27 26  1  0  0  0  0
 28 30  1  0  0  0  0
 29 28  1  0  0  0  0
 30 32  2  0  0  0  0
 30 31  1  0  0  0  0
 32 33  1  0  0  0  0
 34 17  1  0  0  0  0
M  END
