5,6
q = -1.0

 20 21  0  0  1  0  0  0  0  0999 V2000
    1.1326   -2.7682   -0.4491 F   0  0  0  0  0  0  0  0  0  0  0  0
    3.7968   -2.9790   -0.1922 F   0  0  0  0  0  0  0  0  0  0  0  0
    5.3552   -0.7750    0.2334 F   0  0  0  0  0  0  0  0  0  0  0  0
    4.2398    1.6785    0.3750 F   0  0  0  0  0  0  0  0  0  0  0  0
   -0.0443    1.8759   -0.1352 N   0  0  0  0  0  2  0  0  0  0  0  0
    1.1902   -0.3967   -0.0770 C   0  0  0  0  0  3  0  0  0  0  0  0
    1.8289   -1.6354   -0.2055 C   0  0  0  0  0  0  0  0  0  0  0  0
    3.2211   -1.7762   -0.0932 C   0  0  0  0  0  0  0  0  0  0  0  0
    4.0277   -0.6427    0.1174 C   0  0  0  0  0  0  0  0  0  0  0  0
    3.4245    0.6168    0.2000 C   0  0  0  0  0  0  0  0  0  0  0  0
    2.0241    0.7570    0.0859 C   0  0  0  0  0  0  0  0  0  0  0  0
    1.3119    2.0270    0.0254 C   0  0  1  0  0  3  0  0  0  0  0  0
    1.8728    3.3232    0.0623 C   0  0  0  0  0  0  0  0  0  0  0  0
    1.0525    4.4418   -0.0937 C   0  0  0  0  0  0  0  0  0  0  0  0
   -0.3241    4.2598   -0.3091 C   0  0  0  0  0  0  0  0  0  0  0  0
   -0.8262    2.9586   -0.3322 C   0  0  0  0  0  0  0  0  0  0  0  0
    2.9539    3.4306    0.2005 H   0  0  0  0  0  0  0  0  0  0  0  0
    1.4873    5.4520   -0.0646 H   0  0  0  0  0  0  0  0  0  0  0  0
   -1.0039    5.1085   -0.4666 H   0  0  0  0  0  0  0  0  0  0  0  0
   -1.8879    2.7510   -0.5199 H   0  0  0  0  0  0  0  0  0  0  0  0
  1  7  1  0  0  0  0
  2  8  1  0  0  0  0
  5 12  1  0  0  0  0
  6 11  1  0  0  0  0
  7  8  1  0  0  0  0
  7  6  2  0  0  0  0
  8  9  2  0  0  0  0
  9 10  1  0  0  0  0
  9  3  1  0  0  0  0
 10  4  1  0  0  0  0
 11 10  2  0  0  0  0
 12 13  1  0  0  0  0
 12 11  1  6  0  0  0
 13 17  1  0  0  0  0
 14 18  1  0  0  0  0
 14 13  2  0  0  0  0
 15 14  1  0  0  0  0
 16 15  2  0  0  0  0
 16  5  1  0  0  0  0
 19 15  1  0  0  0  0
 20 16  1  0  0  0  0
M  END
