1,15,16,17,18,19
 OpenBabel05122313063D

 84 84  0  0  0  0  0  0  0  0999 V2000
    1.6003   -1.6605   -0.0190 P   0  0  1  0  0  0  0  0  0  0  0  0
    2.1013   -2.2972    1.7396 C   0  0  0  0  0  0  0  0  0  0  0  0
    1.1674   -1.8607    2.8668 C   0  0  0  0  0  0  0  0  0  0  0  0
    3.5387   -1.8270    2.0077 C   0  0  0  0  0  0  0  0  0  0  0  0
    2.0787   -3.8302    1.6005 C   0  0  0  0  0  0  0  0  0  0  0  0
    1.1280   -0.7600    2.9577 H   0  0  0  0  0  0  0  0  0  0  0  0
    1.5176   -2.2756    3.8374 H   0  0  0  0  0  0  0  0  0  0  0  0
    0.1391   -2.2348    2.6919 H   0  0  0  0  0  0  0  0  0  0  0  0
    3.5910   -0.7291    2.1424 H   0  0  0  0  0  0  0  0  0  0  0  0
    4.2205   -2.0973    1.1753 H   0  0  0  0  0  0  0  0  0  0  0  0
    3.9210   -2.3128    2.9314 H   0  0  0  0  0  0  0  0  0  0  0  0
    1.0524   -4.1996    1.4020 H   0  0  0  0  0  0  0  0  0  0  0  0
    2.4364   -4.2953    2.5442 H   0  0  0  0  0  0  0  0  0  0  0  0
    2.7361   -4.1778    0.7776 H   0  0  0  0  0  0  0  0  0  0  0  0
   -1.6003    1.6604    0.0190 P   0  0  2  0  0  0  0  0  0  0  0  0
    0.6379    2.2162   -0.0188 P   0  0  2  0  0  0  0  0  0  0  0  0
   -0.6379   -2.2163    0.0187 P   0  0  1  0  0  0  0  0  0  0  0  0
   -2.2381   -0.5556   -0.0189 P   0  0  1  0  0  0  0  0  0  0  0  0
    2.2381    0.5556    0.0190 P   0  0  2  0  0  0  0  0  0  0  0  0
   -2.1013    2.2972   -1.7396 C   0  0  0  0  0  0  0  0  0  0  0  0
    0.9385    2.9673    1.7405 C   0  0  0  0  0  0  0  0  0  0  0  0
   -0.9385   -2.9673   -1.7405 C   0  0  0  0  0  0  0  0  0  0  0  0
   -3.0402   -0.6717    1.7395 C   0  0  0  0  0  0  0  0  0  0  0  0
    3.0403    0.6716   -1.7395 C   0  0  0  0  0  0  0  0  0  0  0  0
   -1.1674    1.8609   -2.8668 C   0  0  0  0  0  0  0  0  0  0  0  0
   -3.5387    1.8268   -2.0078 C   0  0  0  0  0  0  0  0  0  0  0  0
   -2.0789    3.8301   -1.6005 C   0  0  0  0  0  0  0  0  0  0  0  0
    1.0229    1.9396    2.8674 C   0  0  0  0  0  0  0  0  0  0  0  0
   -0.1852    3.9798    2.0073 C   0  0  0  0  0  0  0  0  0  0  0  0
    2.2795    3.7107    1.6036 C   0  0  0  0  0  0  0  0  0  0  0  0
   -1.0232   -1.9395   -2.8674 C   0  0  0  0  0  0  0  0  0  0  0  0
    0.1853   -3.9796   -2.0075 C   0  0  0  0  0  0  0  0  0  0  0  0
   -2.2794   -3.7109   -1.6035 C   0  0  0  0  0  0  0  0  0  0  0  0
   -2.1953   -0.0832    2.8678 C   0  0  0  0  0  0  0  0  0  0  0  0
   -3.3534   -2.1516    2.0058 C   0  0  0  0  0  0  0  0  0  0  0  0
   -4.3558    0.1158    1.6011 C   0  0  0  0  0  0  0  0  0  0  0  0
    2.1954    0.0832   -2.8678 C   0  0  0  0  0  0  0  0  0  0  0  0
    3.3534    2.1516   -2.0057 C   0  0  0  0  0  0  0  0  0  0  0  0
    4.3559   -0.1157   -1.6010 C   0  0  0  0  0  0  0  0  0  0  0  0
   -1.1278    0.7601   -2.9578 H   0  0  0  0  0  0  0  0  0  0  0  0
   -1.5175    2.2757   -3.8375 H   0  0  0  0  0  0  0  0  0  0  0  0
   -0.1391    2.2351   -2.6918 H   0  0  0  0  0  0  0  0  0  0  0  0
   -3.5908    0.7289   -2.1425 H   0  0  0  0  0  0  0  0  0  0  0  0
   -4.2205    2.0970   -1.1754 H   0  0  0  0  0  0  0  0  0  0  0  0
   -3.9210    2.3126   -2.9315 H   0  0  0  0  0  0  0  0  0  0  0  0
   -1.0527    4.1997   -1.4019 H   0  0  0  0  0  0  0  0  0  0  0  0
   -2.4367    4.2953   -2.5441 H   0  0  0  0  0  0  0  0  0  0  0  0
   -2.7364    4.1776   -0.7775 H   0  0  0  0  0  0  0  0  0  0  0  0
    0.0882    1.3565    2.9553 H   0  0  0  0  0  0  0  0  0  0  0  0
    1.2052    2.4494    3.8389 H   0  0  0  0  0  0  0  0  0  0  0  0
    1.8605    1.2348    2.6945 H   0  0  0  0  0  0  0  0  0  0  0  0
   -1.1633    3.4784    2.1411 H   0  0  0  0  0  0  0  0  0  0  0  0
   -0.2895    4.7054    1.1746 H   0  0  0  0  0  0  0  0  0  0  0  0
    0.0449    4.5535    2.9311 H   0  0  0  0  0  0  0  0  0  0  0  0
    3.1106    3.0044    1.4050 H   0  0  0  0  0  0  0  0  0  0  0  0
    2.5042    4.2513    2.5481 H   0  0  0  0  0  0  0  0  0  0  0  0
    2.2547    4.4549    0.7815 H   0  0  0  0  0  0  0  0  0  0  0  0
   -0.0886   -1.3562   -2.9552 H   0  0  0  0  0  0  0  0  0  0  0  0
   -1.2054   -2.4493   -3.8389 H   0  0  0  0  0  0  0  0  0  0  0  0
   -1.8609   -1.2350   -2.6943 H   0  0  0  0  0  0  0  0  0  0  0  0
    1.1634   -3.4780   -2.1413 H   0  0  0  0  0  0  0  0  0  0  0  0
    0.2898   -4.7052   -1.1747 H   0  0  0  0  0  0  0  0  0  0  0  0
   -0.0447   -4.5533   -2.9312 H   0  0  0  0  0  0  0  0  0  0  0  0
   -3.1106   -3.0048   -1.4048 H   0  0  0  0  0  0  0  0  0  0  0  0
   -2.5040   -4.2515   -2.5480 H   0  0  0  0  0  0  0  0  0  0  0  0
   -2.2544   -4.4552   -0.7814 H   0  0  0  0  0  0  0  0  0  0  0  0
   -1.2224   -0.5998    2.9584 H   0  0  0  0  0  0  0  0  0  0  0  0
   -2.7299   -0.1803    3.8382 H   0  0  0  0  0  0  0  0  0  0  0  0
   -2.0046    0.9946    2.6948 H   0  0  0  0  0  0  0  0  0  0  0  0
   -2.4294   -2.7470    2.1400 H   0  0  0  0  0  0  0  0  0  0  0  0
   -3.9285   -2.6052    1.1725 H   0  0  0  0  0  0  0  0  0  0  0  0
   -3.9657   -2.2403    2.9291 H   0  0  0  0  0  0  0  0  0  0  0  0
   -4.1613    1.1892    1.4037 H   0  0  0  0  0  0  0  0  0  0  0  0
   -4.9376    0.0382    2.5446 H   0  0  0  0  0  0  0  0  0  0  0  0
   -4.9858   -0.2783    0.7777 H   0  0  0  0  0  0  0  0  0  0  0  0
    1.2226    0.5997   -2.9584 H   0  0  0  0  0  0  0  0  0  0  0  0
    2.7301    0.1803   -3.8382 H   0  0  0  0  0  0  0  0  0  0  0  0
    2.0049   -0.9947   -2.6949 H   0  0  0  0  0  0  0  0  0  0  0  0
    2.4294    2.7469   -2.1400 H   0  0  0  0  0  0  0  0  0  0  0  0
    3.9284    2.6053   -1.1724 H   0  0  0  0  0  0  0  0  0  0  0  0
    3.9658    2.2403   -2.9289 H   0  0  0  0  0  0  0  0  0  0  0  0
    4.1615   -1.1892   -1.4037 H   0  0  0  0  0  0  0  0  0  0  0  0
    4.9378   -0.0380   -2.5445 H   0  0  0  0  0  0  0  0  0  0  0  0
    4.9859    0.2784   -0.7775 H   0  0  0  0  0  0  0  0  0  0  0  0
  1 17  1  0  0  0  0
  1 19  1  0  0  0  0
  1  2  1  1  0  0  0
  2  4  1  0  0  0  0
  2  3  1  0  0  0  0
  3  6  1  0  0  0  0
  3  7  1  0  0  0  0
  4  9  1  0  0  0  0
  4 11  1  0  0  0  0
  5  2  1  0  0  0  0
  5 13  1  0  0  0  0
  8  3  1  0  0  0  0
 10  4  1  0  0  0  0
 12  5  1  0  0  0  0
 14  5  1  0  0  0  0
 15 20  1  6  0  0  0
 16 15  1  0  0  0  0
 16 19  1  0  0  0  0
 16 21  1  1  0  0  0
 17 22  1  6  0  0  0
 18 17  1  0  0  0  0
 18 15  1  0  0  0  0
 18 23  1  1  0  0  0
 19 24  1  6  0  0  0
 20 27  1  0  0  0  0
 21 29  1  0  0  0  0
 21 28  1  0  0  0  0
 22 33  1  0  0  0  0
 23 35  1  0  0  0  0
 23 34  1  0  0  0  0
 24 39  1  0  0  0  0
 25 42  1  0  0  0  0
 25 20  1  0  0  0  0
 26 20  1  0  0  0  0
 26 44  1  0  0  0  0
 27 46  1  0  0  0  0
 27 48  1  0  0  0  0
 28 49  1  0  0  0  0
 28 50  1  0  0  0  0
 29 52  1  0  0  0  0
 29 54  1  0  0  0  0
 30 21  1  0  0  0  0
 30 56  1  0  0  0  0
 31 60  1  0  0  0  0
 31 22  1  0  0  0  0
 32 22  1  0  0  0  0
 32 62  1  0  0  0  0
 33 64  1  0  0  0  0
 33 66  1  0  0  0  0
 34 67  1  0  0  0  0
 34 68  1  0  0  0  0
 35 70  1  0  0  0  0
 35 72  1  0  0  0  0
 36 23  1  0  0  0  0
 36 74  1  0  0  0  0
 37 78  1  0  0  0  0
 37 24  1  0  0  0  0
 38 24  1  0  0  0  0
 38 80  1  0  0  0  0
 39 82  1  0  0  0  0
 39 84  1  0  0  0  0
 40 25  1  0  0  0  0
 41 25  1  0  0  0  0
 43 26  1  0  0  0  0
 45 26  1  0  0  0  0
 47 27  1  0  0  0  0
 51 28  1  0  0  0  0
 53 29  1  0  0  0  0
 55 30  1  0  0  0  0
 57 30  1  0  0  0  0
 58 31  1  0  0  0  0
 59 31  1  0  0  0  0
 61 32  1  0  0  0  0
 63 32  1  0  0  0  0
 65 33  1  0  0  0  0
 69 34  1  0  0  0  0
 71 35  1  0  0  0  0
 73 36  1  0  0  0  0
 75 36  1  0  0  0  0
 76 37  1  0  0  0  0
 77 37  1  0  0  0  0
 79 38  1  0  0  0  0
 81 38  1  0  0  0  0
 83 39  1  0  0  0  0
M  END
