2,5,9
 OpenBabel05122313063D

 36 36  0  0  0  0  0  0  0  0999 V2000
    1.8597    1.1716    0.3508 Si  0  0  0  0  0  0  0  0  0  0  0  0
   -0.2980    1.4477   -0.5589 Si  0  0  0  0  0  3  0  0  0  0  0  0
    2.1055   -1.0927   -0.2324 Si  0  0  0  0  0  0  0  0  0  0  0  0
    0.3038   -1.7017   -0.1424 C   0  0  0  0  0  0  0  0  0  0  0  0
   -0.4079   -2.0787    1.0524 C   0  0  0  0  0  3  0  0  0  0  0  0
    0.0112   -2.0698    2.0670 H   0  0  0  0  0  0  0  0  0  0  0  0
   -1.7464   -2.4900    0.7162 C   0  0  0  0  0  3  0  0  0  0  0  0
   -2.5153   -2.8390    1.4150 H   0  0  0  0  0  0  0  0  0  0  0  0
   -1.8885   -2.3333   -0.6939 C   0  0  0  0  0  3  0  0  0  0  0  0
   -2.7947   -2.5394   -1.2769 H   0  0  0  0  0  0  0  0  0  0  0  0
   -0.6410   -1.8425   -1.2221 C   0  0  0  0  0  0  0  0  0  0  0  0
   -0.4414   -1.6335   -2.2798 H   0  0  0  0  0  0  0  0  0  0  0  0
   -1.0806    3.1019   -0.0186 C   0  0  0  0  0  0  0  0  0  0  0  0
   -0.4642    3.9480   -0.3875 H   0  0  0  0  0  0  0  0  0  0  0  0
   -1.1501    3.1799    1.0847 H   0  0  0  0  0  0  0  0  0  0  0  0
   -2.1018    3.2162   -0.4377 H   0  0  0  0  0  0  0  0  0  0  0  0
   -0.1668    1.5203   -2.4645 C   0  0  0  0  0  0  0  0  0  0  0  0
   -1.1764    1.5839   -2.9209 H   0  0  0  0  0  0  0  0  0  0  0  0
    0.3452    0.6331   -2.8866 H   0  0  0  0  0  0  0  0  0  0  0  0
    0.4053    2.4216   -2.7707 H   0  0  0  0  0  0  0  0  0  0  0  0
    3.2086    2.3284   -0.3415 C   0  0  0  0  0  0  0  0  0  0  0  0
    2.9803    3.3864   -0.0958 H   0  0  0  0  0  0  0  0  0  0  0  0
    3.2759    2.2414   -1.4448 H   0  0  0  0  0  0  0  0  0  0  0  0
    4.2045    2.0873    0.0853 H   0  0  0  0  0  0  0  0  0  0  0  0
    1.8115    1.3170    2.2517 C   0  0  0  0  0  0  0  0  0  0  0  0
    2.8031    1.0831    2.6913 H   0  0  0  0  0  0  0  0  0  0  0  0
    1.0640    0.6287    2.6929 H   0  0  0  0  0  0  0  0  0  0  0  0
    1.5346    2.3476    2.5560 H   0  0  0  0  0  0  0  0  0  0  0  0
    2.7333   -1.3552   -2.0034 C   0  0  0  0  0  0  0  0  0  0  0  0
    2.6773   -2.4250   -2.2933 H   0  0  0  0  0  0  0  0  0  0  0  0
    3.7906   -1.0307   -2.0881 H   0  0  0  0  0  0  0  0  0  0  0  0
    2.1452   -0.7664   -2.7356 H   0  0  0  0  0  0  0  0  0  0  0  0
    3.1287   -2.1313    0.9838 C   0  0  0  0  0  0  0  0  0  0  0  0
    2.7644   -2.0025    2.0232 H   0  0  0  0  0  0  0  0  0  0  0  0
    4.1920   -1.8160    0.9616 H   0  0  0  0  0  0  0  0  0  0  0  0
    3.0831   -3.2109    0.7313 H   0  0  0  0  0  0  0  0  0  0  0  0
  1 25  1  0  0  0  0
  2 13  1  0  0  0  0
  2  1  1  0  0  0  0
  3  4  1  0  0  0  0
  3  1  1  0  0  0  0
  3 33  1  0  0  0  0
  4  5  1  0  0  0  0
  5  6  1  0  0  0  0
  7  5  1  0  0  0  0
  7  8  1  0  0  0  0
  9  7  1  0  0  0  0
 10  9  1  0  0  0  0
 11  9  1  0  0  0  0
 11  4  2  0  0  0  0
 12 11  1  0  0  0  0
 13 15  1  0  0  0  0
 14 13  1  0  0  0  0
 16 13  1  0  0  0  0
 17  2  1  0  0  0  0
 18 17  1  0  0  0  0
 19 17  1  0  0  0  0
 20 17  1  0  0  0  0
 21 22  1  0  0  0  0
 21 24  1  0  0  0  0
 21  1  1  0  0  0  0
 23 21  1  0  0  0  0
 25 28  1  0  0  0  0
 25 26  1  0  0  0  0
 25 27  1  0  0  0  0
 29  3  1  0  0  0  0
 30 29  1  0  0  0  0
 31 29  1  0  0  0  0
 32 29  1  0  0  0  0
 33 34  1  0  0  0  0
 35 33  1  0  0  0  0
 36 33  1  0  0  0  0
M  END
