1,10,18,24
q = -2.0, confidence = 0.67

 31 32  0  0  0  0  0  0  0  0999 V2000
   -2.1704   -0.0814    1.3995 O   0  0  0  0  0  1  0  0  0  0  0  0
    0.5471    0.3612    2.6813 N   0  0  0  0  0  0  0  0  0  0  0  0
    2.0439   -0.1867    1.2040 N   0  0  0  0  0  0  0  0  0  0  0  0
   -1.8650   -0.2457    2.7313 C   0  0  0  0  0  0  0  0  0  0  0  0
   -1.5571   -1.2963    3.0019 H   0  0  0  0  0  0  0  0  0  0  0  0
   -2.7683   -0.0218    3.3555 H   0  0  0  0  0  0  0  0  0  0  0  0
    2.6005   -0.7763   -0.0000 C   0  0  0  0  0  0  0  0  0  0  0  0
    3.6964   -0.6244   -0.0000 H   0  0  0  0  0  0  0  0  0  0  0  0
    2.3881   -1.8692   -0.0000 H   0  0  0  0  0  0  0  0  0  0  0  0
    0.6846   -0.0155    1.3732 C   0  0  0  0  0  2  0  0  0  0  0  0
   -0.7589    0.6856    3.2666 C   0  0  0  0  0  0  0  0  0  0  0  0
   -1.0115    1.7383    3.0129 H   0  0  0  0  0  0  0  0  0  0  0  0
   -0.6620    0.5972    4.3682 H   0  0  0  0  0  0  0  0  0  0  0  0
    2.7318    0.0717    2.3889 C   0  0  0  0  0  0  0  0  0  0  0  0
    3.8186   -0.0206    2.4755 H   0  0  0  0  0  0  0  0  0  0  0  0
    1.7823    0.4207    3.3141 C   0  0  0  0  0  0  0  0  0  0  0  0
    1.8867    0.7119    4.3636 H   0  0  0  0  0  0  0  0  0  0  0  0
   -2.1704   -0.0814   -1.3995 O   0  0  0  0  0  1  0  0  0  0  0  0
    0.5471    0.3612   -2.6813 N   0  0  0  0  0  0  0  0  0  0  0  0
    2.0439   -0.1867   -1.2040 N   0  0  0  0  0  0  0  0  0  0  0  0
   -1.8650   -0.2457   -2.7313 C   0  0  0  0  0  0  0  0  0  0  0  0
   -1.5571   -1.2963   -3.0019 H   0  0  0  0  0  0  0  0  0  0  0  0
   -2.7683   -0.0218   -3.3555 H   0  0  0  0  0  0  0  0  0  0  0  0
    0.6846   -0.0155   -1.3732 C   0  0  0  0  0  2  0  0  0  0  0  0
   -0.7589    0.6856   -3.2666 C   0  0  0  0  0  0  0  0  0  0  0  0
   -1.0115    1.7383   -3.0129 H   0  0  0  0  0  0  0  0  0  0  0  0
   -0.6620    0.5972   -4.3682 H   0  0  0  0  0  0  0  0  0  0  0  0
    2.7318    0.0717   -2.3889 C   0  0  0  0  0  0  0  0  0  0  0  0
    3.8186   -0.0206   -2.4755 H   0  0  0  0  0  0  0  0  0  0  0  0
    1.7823    0.4207   -3.3141 C   0  0  0  0  0  0  0  0  0  0  0  0
    1.8867    0.7119   -4.3636 H   0  0  0  0  0  0  0  0  0  0  0  0
  1  4  1  0  0  0  0
  2 11  1  0  0  0  0
  2 16  1  0  0  0  0
  3 10  1  0  0  0  0
  3 14  1  0  0  0  0
  4  5  1  0  0  0  0
  4 11  1  0  0  0  0
  4  6  1  0  0  0  0
  7  3  1  0  0  0  0
  8  7  1  0  0  0  0
  9  7  1  0  0  0  0
 10  2  1  0  0  0  0
 11 13  1  0  0  0  0
 12 11  1  0  0  0  0
 14 15  1  0  0  0  0
 14 16  2  0  0  0  0
 16 17  1  0  0  0  0
 19 24  1  0  0  0  0
 20  7  1  0  0  0  0
 21 18  1  0  0  0  0
 22 21  1  0  0  0  0
 23 21  1  0  0  0  0
 24 20  1  0  0  0  0
 25 26  1  0  0  0  0
 25 21  1  0  0  0  0
 25 19  1  0  0  0  0
 27 25  1  0  0  0  0
 28 20  1  0  0  0  0
 29 28  1  0  0  0  0
 30 19  1  0  0  0  0
 30 28  2  0  0  0  0
 31 30  1  0  0  0  0
M  END
