15,18,33,35
q = 0.0, confidence = 0.602

 42 43  0  0  1  0  0  0  0  0999 V2000
    4.0667   -1.2197    0.0010 C   0  0  0  0  0  0  0  0  0  0  0  0
    4.8197   -0.7509    1.2656 C   0  0  0  0  0  0  0  0  0  0  0  0
    5.8320   -1.2028    1.2837 H   0  0  0  0  0  0  0  0  0  0  0  0
    4.2892   -1.0639    2.1874 H   0  0  0  0  0  0  0  0  0  0  0  0
    4.9279    0.3506    1.2833 H   0  0  0  0  0  0  0  0  0  0  0  0
    4.8204   -0.7520   -1.2638 C   0  0  0  0  0  0  0  0  0  0  0  0
    4.9287    0.3495   -1.2821 H   0  0  0  0  0  0  0  0  0  0  0  0
    4.2903   -1.0657   -2.1855 H   0  0  0  0  0  0  0  0  0  0  0  0
    5.8327   -1.2039   -1.2810 H   0  0  0  0  0  0  0  0  0  0  0  0
    3.9189   -2.7479    0.0015 C   0  0  0  0  0  0  0  0  0  0  0  0
    4.9224   -3.2181    0.0021 H   0  0  0  0  0  0  0  0  0  0  0  0
    3.3672   -3.0997   -0.8915 H   0  0  0  0  0  0  0  0  0  0  0  0
    3.3665   -3.0989    0.8944 H   0  0  0  0  0  0  0  0  0  0  0  0
    2.6756   -0.5796   -0.0002 C   0  0  2  0  0  3  0  0  0  0  0  0
    1.6377   -1.2514   -0.0023 O   0  0  0  0  0  1  0  0  0  0  0  0
    2.7345    0.7455    0.0009 O   0  0  0  0  0  0  0  0  0  0  0  0
    1.6916    1.6992    0.0000 C   0  0  0  0  0  0  0  0  0  0  0  0
    0.3091    1.4028   -0.0002 C   0  0  0  0  0  3  0  0  0  0  0  0
   -0.5478    2.5489   -0.0002 C   0  0  0  0  0  0  0  0  0  0  0  0
   -0.0200    3.8651   -0.0006 C   0  0  0  0  0  0  0  0  0  0  0  0
   -0.7160    4.7198   -0.0007 H   0  0  0  0  0  0  0  0  0  0  0  0
    1.3572    4.0887   -0.0006 C   0  0  0  0  0  0  0  0  0  0  0  0
    1.7507    5.1158   -0.0009 H   0  0  0  0  0  0  0  0  0  0  0  0
   -1.9365    2.4584   -0.0000 N   0  0  0  0  0  0  0  0  0  0  0  0
   -2.7507    1.3418    0.0005 C   0  0  0  0  0  0  0  0  0  0  0  0
   -4.1572    1.5197    0.0012 C   0  0  0  0  0  0  0  0  0  0  0  0
   -4.5684    2.5434    0.0015 H   0  0  0  0  0  0  0  0  0  0  0  0
   -5.0325    0.4238    0.0016 C   0  0  0  0  0  0  0  0  0  0  0  0
   -6.1185    0.5987    0.0022 H   0  0  0  0  0  0  0  0  0  0  0  0
   -4.5251   -0.8793    0.0012 C   0  0  0  0  0  3  0  0  0  0  0  0
   -5.2079   -1.7415    0.0014 H   0  0  0  0  0  0  0  0  0  0  0  0
   -3.1220   -1.0682    0.0005 C   0  0  0  0  0  0  0  0  0  0  0  0
   -2.2124    0.0344    0.0003 C   0  0  0  0  0  3  0  0  0  0  0  0
   -2.4880   -2.3882   -0.0003 C   0  0  0  0  0  0  0  0  0  0  0  0
   -1.2327   -2.4594   -0.0013 O   0  5  0  0  0  0  0  0  0  0  0  0
    2.2310    2.9986   -0.0002 C   0  0  0  0  0  0  0  0  0  0  0  0
    3.3225    3.1222   -0.0001 H   0  0  0  0  0  0  0  0  0  0  0  0
   -3.2880   -3.6637   -0.0001 C   0  0  0  0  0  0  0  0  0  0  0  0
   -2.6033   -4.5302    0.0001 H   0  0  0  0  0  0  0  0  0  0  0  0
   -3.9464   -3.7111   -0.8914 H   0  0  0  0  0  0  0  0  0  0  0  0
   -3.9468   -3.7108    0.8909 H   0  0  0  0  0  0  0  0  0  0  0  0
   -2.4214    3.3557    0.0000 H   0  0  0  0  0  0  0  0  0  0  0  0
  1 10  1  0  0  0  0
  1  2  1  0  0  0  0
  2  5  1  0  0  0  0
  2  3  1  0  0  0  0
  2  4  1  0  0  0  0
  6  1  1  0  0  0  0
  7  6  1  0  0  0  0
  8  6  1  0  0  0  0
  9  6  1  0  0  0  0
 10 11  1  0  0  0  0
 10 13  1  0  0  0  0
 12 10  1  0  0  0  0
 14 15  1  6  0  0  0
 14 16  1  0  0  0  0
 14  1  1  0  0  0  0
 17 16  1  0  0  0  0
 18 17  1  0  0  0  0
 19 18  2  0  0  0  0
 19 24  1  0  0  0  0
 20 19  1  0  0  0  0
 21 20  1  0  0  0  0
 22 20  2  0  0  0  0
 22 36  1  0  0  0  0
 23 22  1  0  0  0  0
 24 42  1  0  0  0  0
 24 25  1  0  0  0  0
 25 26  1  0  0  0  0
 26 27  1  0  0  0  0
 26 28  2  0  0  0  0
 28 29  1  0  0  0  0
 30 31  1  0  0  0  0
 30 28  1  0  0  0  0
 32 30  1  0  0  0  0
 33 25  2  0  0  0  0
 33 32  1  0  0  0  0
 34 38  1  0  0  0  0
 34 32  2  0  0  0  0
 35 34  1  0  0  0  0
 36 37  1  0  0  0  0
 36 17  2  0  0  0  0
 38 39  1  0  0  0  0
 38 41  1  0  0  0  0
 40 38  1  0  0  0  0
M  CHG  1  35  -1
M  END
