1,2,3,28
 OpenBabel05122313063D

 34 34  0  0  0  0  0  0  0  0999 V2000
    2.3461   -0.4576   -0.9636 S   0  0  0  0  0  0  0  0  0  0  0  0
   -2.0000    0.4471   -0.9947 S   0  0  0  0  0  0  0  0  0  0  0  0
    0.0247   -1.8711    0.7146 N   0  0  0  0  0  0  0  0  0  0  0  0
   -0.0288   -1.6687    1.7235 H   0  0  0  0  0  0  0  0  0  0  0  0
   -0.0705    2.8096    0.5559 N   0  0  0  0  0  0  0  0  0  0  0  0
    0.3711    3.7341    0.7076 H   0  0  0  0  0  0  0  0  0  0  0  0
    2.4911   -1.6141    0.4715 C   0  0  0  0  0  0  0  0  0  0  0  0
    3.4411   -2.1782    0.3847 H   0  0  0  0  0  0  0  0  0  0  0  0
    2.5232   -1.0280    1.4130 H   0  0  0  0  0  0  0  0  0  0  0  0
    1.3014   -2.5740    0.4558 C   0  0  0  0  0  0  0  0  0  0  0  0
    1.2267   -3.0553   -0.5419 H   0  0  0  0  0  0  0  0  0  0  0  0
    1.4723   -3.3934    1.1909 H   0  0  0  0  0  0  0  0  0  0  0  0
   -1.1768   -2.6517    0.3444 C   0  0  0  0  0  0  0  0  0  0  0  0
   -1.1858   -3.6238    0.8880 H   0  0  0  0  0  0  0  0  0  0  0  0
   -1.0961   -2.8930   -0.7370 H   0  0  0  0  0  0  0  0  0  0  0  0
   -2.4857   -1.8975    0.6233 C   0  0  0  0  0  0  0  0  0  0  0  0
   -2.3980   -1.3305    1.5765 H   0  0  0  0  0  0  0  0  0  0  0  0
   -3.2771   -2.6525    0.8151 H   0  0  0  0  0  0  0  0  0  0  0  0
   -3.0217   -0.9972   -0.4954 C   0  0  0  0  0  0  0  0  0  0  0  0
   -4.0287   -0.6095   -0.2369 H   0  0  0  0  0  0  0  0  0  0  0  0
   -3.1336   -1.5716   -1.4382 H   0  0  0  0  0  0  0  0  0  0  0  0
   -2.2927    1.5716    0.4444 C   0  0  0  0  0  0  0  0  0  0  0  0
   -3.3763    1.8086    0.4650 H   0  0  0  0  0  0  0  0  0  0  0  0
   -2.0224    1.0410    1.3802 H   0  0  0  0  0  0  0  0  0  0  0  0
   -1.5273    2.8878    0.3468 C   0  0  0  0  0  0  0  0  0  0  0  0
   -1.9360    3.5743    1.1177 H   0  0  0  0  0  0  0  0  0  0  0  0
   -1.7131    3.3736   -0.6368 H   0  0  0  0  0  0  0  0  0  0  0  0
    0.6605    1.7189    0.4842 C   0  0  0  0  0  2  0  0  0  0  0  0
    2.1401    1.8889    0.7091 C   0  0  0  0  0  0  0  0  0  0  0  0
    2.4787    2.9529    0.7469 H   0  0  0  0  0  0  0  0  0  0  0  0
    2.3429    1.4702    1.7217 H   0  0  0  0  0  0  0  0  0  0  0  0
    2.9980    1.1537   -0.3368 C   0  0  0  0  0  0  0  0  0  0  0  0
    4.0386    1.0050    0.0130 H   0  0  0  0  0  0  0  0  0  0  0  0
    3.0542    1.7475   -1.2717 H   0  0  0  0  0  0  0  0  0  0  0  0
  1 32  1  0  0  0  0
  1  7  1  0  0  0  0
  2 19  1  0  0  0  0
  2 22  1  0  0  0  0
  3  4  1  0  0  0  0
  5  6  1  0  0  0  0
  7  9  1  0  0  0  0
  8  7  1  0  0  0  0
 10  7  1  0  0  0  0
 10  3  1  0  0  0  0
 10 12  1  0  0  0  0
 11 10  1  0  0  0  0
 13 16  1  0  0  0  0
 13  3  1  0  0  0  0
 13 14  1  0  0  0  0
 15 13  1  0  0  0  0
 16 18  1  0  0  0  0
 16 17  1  0  0  0  0
 19 20  1  0  0  0  0
 19 16  1  0  0  0  0
 21 19  1  0  0  0  0
 22 23  1  0  0  0  0
 22 24  1  0  0  0  0
 25 22  1  0  0  0  0
 25  5  1  0  0  0  0
 25 26  1  0  0  0  0
 27 25  1  0  0  0  0
 28  5  1  0  0  0  0
 28 29  1  0  0  0  0
 29 30  1  0  0  0  0
 29 31  1  0  0  0  0
 32 33  1  0  0  0  0
 32 29  1  0  0  0  0
 34 32  1  0  0  0  0
M  END
