2,3,4
 OpenBabel05122313063D

 24 24  0  0  0  0  0  0  0  0999 V2000
    3.2608   -2.3471    0.2816 S   0  0  0  0  0  0  0  0  0  0  0  0
    1.5486    0.0653   -2.2286 S   0  0  0  0  0  1  0  0  0  0  0  0
   -0.5290   -1.5634   -0.5040 P   0  0  1  0  0  0  0  0  0  0  0  0
    1.5950   -2.3089    0.1193 C   0  0  0  0  0  3  0  0  0  0  0  0
    0.3438   -3.1185    0.0561 C   0  0  0  0  0  0  0  0  0  0  0  0
   -0.6043   -1.6770   -2.3502 C   0  0  0  0  0  0  0  0  0  0  0  0
    0.7987   -1.4669   -2.9180 C   0  0  0  0  0  0  0  0  0  0  0  0
   -2.2686   -1.4999    0.0761 C   0  0  0  0  0  0  0  0  0  0  0  0
   -3.3585   -1.3894   -0.8127 C   0  0  0  0  0  0  0  0  0  0  0  0
   -4.6680   -1.2952   -0.3183 C   0  0  0  0  0  0  0  0  0  0  0  0
   -4.9065   -1.3086    1.0639 C   0  0  0  0  0  0  0  0  0  0  0  0
   -3.8255   -1.4152    1.9546 C   0  0  0  0  0  0  0  0  0  0  0  0
   -2.5144   -1.5085    1.4687 C   0  0  0  0  0  0  0  0  0  0  0  0
    0.3255   -3.9962   -0.6270 H   0  0  0  0  0  0  0  0  0  0  0  0
    0.0027   -3.4364    1.0668 H   0  0  0  0  0  0  0  0  0  0  0  0
   -1.2690   -0.8551   -2.6885 H   0  0  0  0  0  0  0  0  0  0  0  0
   -1.0539   -2.6447   -2.6610 H   0  0  0  0  0  0  0  0  0  0  0  0
    1.4678   -2.3174   -2.6681 H   0  0  0  0  0  0  0  0  0  0  0  0
    0.7595   -1.3699   -4.0228 H   0  0  0  0  0  0  0  0  0  0  0  0
   -3.1964   -1.3695   -1.8993 H   0  0  0  0  0  0  0  0  0  0  0  0
   -5.5083   -1.2083   -1.0238 H   0  0  0  0  0  0  0  0  0  0  0  0
   -5.9356   -1.2366    1.4476 H   0  0  0  0  0  0  0  0  0  0  0  0
   -4.0034   -1.4253    3.0409 H   0  0  0  0  0  0  0  0  0  0  0  0
   -1.6602   -1.5645    2.1640 H   0  0  0  0  0  0  0  0  0  0  0  0
  3  6  1  6  0  0  0
  3  5  1  0  0  0  0
  3  8  1  0  0  0  0
  4  1  2  0  0  0  0
  5  4  1  0  0  0  0
  5 15  1  0  0  0  0
  7 18  1  0  0  0  0
  7  6  1  0  0  0  0
  7  2  1  0  0  0  0
  8 13  1  0  0  0  0
  9 10  1  0  0  0  0
  9  8  2  0  0  0  0
 10 11  2  0  0  0  0
 11 22  1  0  0  0  0
 11 12  1  0  0  0  0
 12 23  1  0  0  0  0
 13 12  2  0  0  0  0
 13 24  1  0  0  0  0
 14  5  1  0  0  0  0
 16  6  1  0  0  0  0
 17  6  1  0  0  0  0
 19  7  1  0  0  0  0
 20  9  1  0  0  0  0
 21 10  1  0  0  0  0
M  END
