1,8
q = 0.0, confidence = 0.976

 15 15  0  0  1  0  0  0  0  0999 V2000
   -1.2003   -2.1859    0.3355 C   0  0  0  0  0  3  0  0  0  0  0  0
   -2.1693   -2.3528   -0.1562 H   0  0  0  0  0  0  0  0  0  0  0  0
    0.0003   -2.5487   -0.3347 C   0  0  2  0  0  3  0  0  0  0  0  0
    0.0005   -3.3323   -1.6171 C   0  0  0  0  0  0  0  0  0  0  0  0
    0.8990   -3.1112   -2.2258 H   0  0  0  0  0  0  0  0  0  0  0  0
   -0.8968   -3.1095   -2.2271 H   0  0  0  0  0  0  0  0  0  0  0  0
   -0.0008   -4.4258   -1.4140 H   0  0  0  0  0  0  0  0  0  0  0  0
    1.2007   -2.1860    0.3359 C   0  0  0  0  0  3  0  0  0  0  0  0
    2.1699   -2.3529   -0.1556 H   0  0  0  0  0  0  0  0  0  0  0  0
    1.2023   -1.5819    1.6315 C   0  0  0  0  0  0  0  0  0  0  0  0
    2.1720   -1.3115    2.0713 H   0  0  0  0  0  0  0  0  0  0  0  0
    0.0000   -1.3084    2.3272 C   0  0  0  0  0  0  0  0  0  0  0  0
   -0.0001   -0.9029    3.3490 H   0  0  0  0  0  0  0  0  0  0  0  0
   -1.2022   -1.5818    1.6311 C   0  0  0  0  0  3  0  0  0  0  0  0
   -2.1719   -1.3116    2.0708 H   0  0  0  0  0  0  0  0  0  0  0  0
  1 14  1  0  0  0  0
  2  1  1  0  0  0  0
  3  4  1  1  0  0  0
  3  1  1  0  0  0  0
  3  8  1  0  0  0  0
  4  7  1  0  0  0  0
  5  4  1  0  0  0  0
  6  4  1  0  0  0  0
  8 10  1  0  0  0  0
  9  8  1  0  0  0  0
 10 11  1  0  0  0  0
 10 12  2  0  0  0  0
 12 13  1  0  0  0  0
 14 15  1  0  0  0  0
 14 12  1  0  0  0  0
M  END
