1,11
q = 0.0, confidence = 0.536

 25 25  0  0  0  0  0  0  0  0999 V2000
   -1.1641   -1.0481   -1.2557 C   0  0  0  0  0  3  0  0  0  0  0  0
   -2.6358   -1.3018   -0.8660 C   0  0  0  0  0  0  0  0  0  0  0  0
   -3.3623   -1.5099   -2.2175 C   0  0  0  0  0  0  0  0  0  0  0  0
   -2.8211   -2.6043   -0.0536 C   0  0  0  0  0  0  0  0  0  0  0  0
   -3.2162   -0.1150   -0.0842 C   0  0  0  0  0  0  0  0  0  0  0  0
   -4.4123    0.5181   -0.4741 C   0  0  0  0  0  0  0  0  0  0  0  0
   -4.9243    1.6304    0.2149 C   0  0  0  0  0  0  0  0  0  0  0  0
   -4.2320    2.1425    1.3197 C   0  0  0  0  0  0  0  0  0  0  0  0
   -3.0405    1.5270    1.7234 C   0  0  0  0  0  0  0  0  0  0  0  0
   -2.5235    0.3949    1.0544 C   0  0  0  0  0  0  0  0  0  0  0  0
   -1.2578   -0.1989    1.5495 C   0  0  0  0  0  3  0  0  0  0  0  0
   -1.1034   -0.2575   -2.0303 H   0  0  0  0  0  0  0  0  0  0  0  0
   -0.7127   -1.9794   -1.6497 H   0  0  0  0  0  0  0  0  0  0  0  0
   -2.8695   -2.3254   -2.7833 H   0  0  0  0  0  0  0  0  0  0  0  0
   -4.4201   -1.8075   -2.0681 H   0  0  0  0  0  0  0  0  0  0  0  0
   -3.3398   -0.5974   -2.8462 H   0  0  0  0  0  0  0  0  0  0  0  0
   -2.2828   -2.5936    0.9096 H   0  0  0  0  0  0  0  0  0  0  0  0
   -3.8981   -2.7737    0.1474 H   0  0  0  0  0  0  0  0  0  0  0  0
   -2.4305   -3.4695   -0.6267 H   0  0  0  0  0  0  0  0  0  0  0  0
   -4.9639    0.1457   -1.3476 H   0  0  0  0  0  0  0  0  0  0  0  0
   -5.8604    2.0995   -0.1242 H   0  0  0  0  0  0  0  0  0  0  0  0
   -4.6121    3.0214    1.8620 H   0  0  0  0  0  0  0  0  0  0  0  0
   -2.4811    1.9282    2.5831 H   0  0  0  0  0  0  0  0  0  0  0  0
   -1.3645   -1.2364    1.9123 H   0  0  0  0  0  0  0  0  0  0  0  0
   -0.7910    0.4228    2.3359 H   0  0  0  0  0  0  0  0  0  0  0  0
  1  2  1  0  0  0  0
  2  5  1  0  0  0  0
  2  4  1  0  0  0  0
  3 15  1  0  0  0  0
  3  2  1  0  0  0  0
  4 18  1  0  0  0  0
  4 17  1  0  0  0  0
  5 10  1  0  0  0  0
  6  5  2  0  0  0  0
  6  7  1  0  0  0  0
  7  8  2  0  0  0  0
  8  9  1  0  0  0  0
  8 22  1  0  0  0  0
  9 23  1  0  0  0  0
 10 11  1  0  0  0  0
 10  9  2  0  0  0  0
 11 24  1  0  0  0  0
 11 25  1  0  0  0  0
 12  1  1  0  0  0  0
 13  1  1  0  0  0  0
 14  3  1  0  0  0  0
 16  3  1  0  0  0  0
 19  4  1  0  0  0  0
 20  6  1  0  0  0  0
 21  7  1  0  0  0  0
M  END
