4,10
q = -2.0, confidence = 0.87

 27 28  0  0  1  0  0  0  0  0999 V2000
   -5.8324   -0.2317    0.4172 Si  0  0  0  0  0  0  0  0  0  0  0  0
   -7.3687    0.7411   -0.0522 C   0  0  0  0  0  0  0  0  0  0  0  0
   -6.1181   -1.5370    1.7362 C   0  0  0  0  0  0  0  0  0  0  0  0
   -3.1723    0.4165    1.4790 C   0  0  0  0  0  3  0  0  0  0  0  0
   -2.1277    1.3643    1.2498 C   0  0  0  0  0  0  0  0  0  0  0  0
   -2.6709    2.4240    0.4767 C   0  0  0  0  0  0  0  0  0  0  0  0
   -4.0425    2.1331    0.2169 C   0  0  0  0  0  3  0  0  0  0  0  0
   -4.3814    0.8954    0.8634 C   0  0  1  0  0  3  0  0  0  0  0  0
   -4.9609   -0.9560   -1.0985 C   0  0  2  0  0  3  0  0  0  0  0  0
   -3.8977   -1.9214   -1.0296 C   0  0  0  0  0  3  0  0  0  0  0  0
   -3.1567   -1.8789   -2.2535 C   0  0  0  0  0  0  0  0  0  0  0  0
   -3.7326   -0.8787   -3.0752 C   0  0  0  0  0  0  0  0  0  0  0  0
   -4.8188   -0.2885   -2.3634 C   0  0  0  0  0  3  0  0  0  0  0  0
   -8.1546    0.0665   -0.4482 H   0  0  0  0  0  0  0  0  0  0  0  0
   -7.1474    1.4998   -0.8296 H   0  0  0  0  0  0  0  0  0  0  0  0
   -7.7806    1.2698    0.8311 H   0  0  0  0  0  0  0  0  0  0  0  0
   -6.4822   -1.0732    2.6751 H   0  0  0  0  0  0  0  0  0  0  0  0
   -5.1835   -2.0864    1.9674 H   0  0  0  0  0  0  0  0  0  0  0  0
   -6.8733   -2.2758    1.3996 H   0  0  0  0  0  0  0  0  0  0  0  0
   -3.0723   -0.5219    2.0379 H   0  0  0  0  0  0  0  0  0  0  0  0
   -1.0934    1.3013    1.6098 H   0  0  0  0  0  0  0  0  0  0  0  0
   -2.1213    3.3108    0.1384 H   0  0  0  0  0  0  0  0  0  0  0  0
   -4.7243    2.7600   -0.3725 H   0  0  0  0  0  0  0  0  0  0  0  0
   -3.6830   -2.5844   -0.1826 H   0  0  0  0  0  0  0  0  0  0  0  0
   -2.2873   -2.5005   -2.5044 H   0  0  0  0  0  0  0  0  0  0  0  0
   -3.3919   -0.5951   -4.0785 H   0  0  0  0  0  0  0  0  0  0  0  0
   -5.4532    0.5265   -2.7350 H   0  0  0  0  0  0  0  0  0  0  0  0
  1  3  1  0  0  0  0
  2  1  1  0  0  0  0
  2 16  1  0  0  0  0
  3 18  1  0  0  0  0
  3 17  1  0  0  0  0
  4 20  1  0  0  0  0
  5  4  1  0  0  0  0
  5 21  1  0  0  0  0
  6  5  2  0  0  0  0
  7  6  1  0  0  0  0
  7  8  1  0  0  0  0
  8  1  1  6  0  0  0
  8  4  1  0  0  0  0
  9 10  1  0  0  0  0
  9  1  1  1  0  0  0
 10 24  1  0  0  0  0
 11 10  1  0  0  0  0
 12 13  1  0  0  0  0
 12 11  2  0  0  0  0
 13  9  1  0  0  0  0
 14  2  1  0  0  0  0
 15  2  1  0  0  0  0
 19  3  1  0  0  0  0
 22  6  1  0  0  0  0
 23  7  1  0  0  0  0
 25 11  1  0  0  0  0
 26 12  1  0  0  0  0
 27 13  1  0  0  0  0
M  END
