10,33
q = 0.0, confidence = 0.996

 34 36  0  0  1  0  0  0  0  0999 V2000
    1.6129    1.5539    1.2278 C   0  0  0  0  0  0  0  0  0  0  0  0
    2.0865    1.8225    2.1819 H   0  0  0  0  0  0  0  0  0  0  0  0
    2.2129    1.9686   -0.0001 C   0  0  0  0  0  0  0  0  0  0  0  0
    3.4364    2.8442   -0.0001 C   0  0  0  0  0  0  0  0  0  0  0  0
    3.1375    3.9135   -0.0002 H   0  0  0  0  0  0  0  0  0  0  0  0
    4.0608    2.6650   -0.8959 H   0  0  0  0  0  0  0  0  0  0  0  0
    4.0607    2.6651    0.8957 H   0  0  0  0  0  0  0  0  0  0  0  0
    1.6129    1.5537   -1.2279 C   0  0  0  0  0  3  0  0  0  0  0  0
    2.0865    1.8223   -2.1821 H   0  0  0  0  0  0  0  0  0  0  0  0
    0.4604    0.7192   -1.2197 C   0  0  0  0  0  3  0  0  0  0  0  0
    0.0352    0.3664   -2.1702 H   0  0  0  0  0  0  0  0  0  0  0  0
   -0.1746    0.3339   -0.0000 C   0  0  1  0  0  3  0  0  0  0  0  0
   -1.4225   -0.4934   -0.0000 C   0  0  0  0  0  0  0  0  0  0  0  0
   -2.7491    0.0874   -0.0000 C   0  0  0  0  0  0  0  0  0  0  0  0
   -3.8700   -0.8383   -0.0000 C   0  0  0  0  0  0  0  0  0  0  0  0
   -3.6480   -2.2459   -0.0001 C   0  0  0  0  0  0  0  0  0  0  0  0
   -4.5252   -2.9113   -0.0001 H   0  0  0  0  0  0  0  0  0  0  0  0
   -2.3676   -2.7640   -0.0001 C   0  0  0  0  0  0  0  0  0  0  0  0
   -2.1962   -3.8505   -0.0002 H   0  0  0  0  0  0  0  0  0  0  0  0
   -1.2639   -1.8804   -0.0001 C   0  0  0  0  0  0  0  0  0  0  0  0
   -0.2415   -2.2824   -0.0001 H   0  0  0  0  0  0  0  0  0  0  0  0
   -5.2100   -0.3534   -0.0000 C   0  0  0  0  0  0  0  0  0  0  0  0
   -6.0315   -1.0862   -0.0000 H   0  0  0  0  0  0  0  0  0  0  0  0
   -5.4672    1.0034    0.0000 C   0  0  0  0  0  0  0  0  0  0  0  0
   -6.5005    1.3814    0.0000 H   0  0  0  0  0  0  0  0  0  0  0  0
   -4.3835    1.9122    0.0000 C   0  0  0  0  0  0  0  0  0  0  0  0
   -4.5960    2.9928    0.0000 H   0  0  0  0  0  0  0  0  0  0  0  0
   -3.0483    1.5049   -0.0000 C   0  0  0  0  0  0  0  0  0  0  0  0
   -2.0055    2.5983    0.0000 C   0  0  0  0  0  0  0  0  0  0  0  0
   -1.3421    2.5564   -0.8853 H   0  0  0  0  0  0  0  0  0  0  0  0
   -1.3425    2.5565    0.8856 H   0  0  0  0  0  0  0  0  0  0  0  0
   -2.5018    3.5875   -0.0001 H   0  0  0  0  0  0  0  0  0  0  0  0
    0.4604    0.7194    1.2196 C   0  0  0  0  0  3  0  0  0  0  0  0
    0.0352    0.3666    2.1701 H   0  0  0  0  0  0  0  0  0  0  0  0
  1  2  1  0  0  0  0
  3  1  2  0  0  0  0
  4  3  1  0  0  0  0
  4  7  1  0  0  0  0
  5  4  1  0  0  0  0
  6  4  1  0  0  0  0
  8 10  1  0  0  0  0
  8  3  1  0  0  0  0
  9  8  1  0  0  0  0
 10 12  1  0  0  0  0
 11 10  1  0  0  0  0
 12 13  1  1  0  0  0
 12 33  1  0  0  0  0
 13 14  1  0  0  0  0
 14 28  1  0  0  0  0
 15 14  2  0  0  0  0
 15 22  1  0  0  0  0
 16 15  1  0  0  0  0
 17 16  1  0  0  0  0
 18 20  1  0  0  0  0
 18 16  2  0  0  0  0
 19 18  1  0  0  0  0
 20 13  2  0  0  0  0
 21 20  1  0  0  0  0
 22 24  2  0  0  0  0
 23 22  1  0  0  0  0
 24 25  1  0  0  0  0
 26 24  1  0  0  0  0
 27 26  1  0  0  0  0
 28 26  2  0  0  0  0
 28 29  1  0  0  0  0
 29 31  1  0  0  0  0
 30 29  1  0  0  0  0
 32 29  1  0  0  0  0
 33  1  1  0  0  0  0
 33 34  1  0  0  0  0
M  END
