3,42
q = -2.0, confidence = 0.862

 45 46  0  0  0  0  0  0  0  0999 V2000
   -0.9307    1.7391    1.5514 C   0  0  0  0  0  0  0  0  0  0  0  0
   -0.1923    1.5450    2.3371 H   0  0  0  0  0  0  0  0  0  0  0  0
   -2.3427    1.5241    1.6622 C   0  0  0  0  0  3  0  0  0  0  0  0
   -2.8734    1.1395    2.5415 H   0  0  0  0  0  0  0  0  0  0  0  0
   -2.9428    1.9577    0.4452 C   0  0  0  0  0  0  0  0  0  0  0  0
   -4.0086    1.9060    0.1984 H   0  0  0  0  0  0  0  0  0  0  0  0
   -1.9070    2.3965   -0.4218 C   0  0  0  0  0  0  0  0  0  0  0  0
   -2.0345    2.7455   -1.4537 H   0  0  0  0  0  0  0  0  0  0  0  0
   -0.6515    2.2889    0.2652 C   0  0  0  0  0  0  0  0  0  0  0  0
    0.6860    2.7213   -0.2718 C   0  0  0  0  0  0  0  0  0  0  0  0
    0.7847    3.8205   -0.1212 H   0  0  0  0  0  0  0  0  0  0  0  0
    0.6878    2.5605   -1.3699 H   0  0  0  0  0  0  0  0  0  0  0  0
    1.8909    2.0087    0.3499 C   0  0  0  0  0  0  0  0  0  0  0  0
    1.7020    0.9145    0.3204 H   0  0  0  0  0  0  0  0  0  0  0  0
    1.9788    2.2761    1.4271 H   0  0  0  0  0  0  0  0  0  0  0  0
    3.2115    2.3137   -0.3635 C   0  0  0  0  0  0  0  0  0  0  0  0
    3.3350    3.4153   -0.4529 H   0  0  0  0  0  0  0  0  0  0  0  0
    3.1415    1.9392   -1.4085 H   0  0  0  0  0  0  0  0  0  0  0  0
    4.4572    1.7344    0.3289 C   0  0  0  0  0  0  0  0  0  0  0  0
    4.6102    2.2697    1.2921 H   0  0  0  0  0  0  0  0  0  0  0  0
    5.3512    1.9661   -0.2907 H   0  0  0  0  0  0  0  0  0  0  0  0
    4.4117    0.2256    0.6155 C   0  0  0  0  0  0  0  0  0  0  0  0
    5.3146   -0.0611    1.1980 H   0  0  0  0  0  0  0  0  0  0  0  0
    3.5543    0.0169    1.2913 H   0  0  0  0  0  0  0  0  0  0  0  0
    4.3169   -0.6653   -0.6289 C   0  0  0  0  0  0  0  0  0  0  0  0
    5.2522   -0.5620   -1.2207 H   0  0  0  0  0  0  0  0  0  0  0  0
    3.5110   -0.2905   -1.2964 H   0  0  0  0  0  0  0  0  0  0  0  0
    4.0744   -2.1542   -0.3260 C   0  0  0  0  0  0  0  0  0  0  0  0
    4.9076   -2.5397    0.3018 H   0  0  0  0  0  0  0  0  0  0  0  0
    4.1201   -2.7275   -1.2777 H   0  0  0  0  0  0  0  0  0  0  0  0
    2.7428   -2.4580    0.3808 C   0  0  0  0  0  0  0  0  0  0  0  0
    2.6972   -3.5345    0.6497 H   0  0  0  0  0  0  0  0  0  0  0  0
    2.7095   -1.9143    1.3487 H   0  0  0  0  0  0  0  0  0  0  0  0
    1.5118   -2.0799   -0.4609 C   0  0  0  0  0  0  0  0  0  0  0  0
    1.3765   -2.8023   -1.2914 H   0  0  0  0  0  0  0  0  0  0  0  0
    1.6905   -1.1065   -0.9619 H   0  0  0  0  0  0  0  0  0  0  0  0
    0.2302   -1.9809    0.3197 C   0  0  0  0  0  0  0  0  0  0  0  0
   -1.0161   -2.6096    0.0150 C   0  0  0  0  0  0  0  0  0  0  0  0
   -1.2204   -3.2101   -0.8801 H   0  0  0  0  0  0  0  0  0  0  0  0
   -1.9425   -2.3317    1.0643 C   0  0  0  0  0  0  0  0  0  0  0  0
   -2.9793   -2.6824    1.1132 H   0  0  0  0  0  0  0  0  0  0  0  0
   -1.2959   -1.4852    2.0045 C   0  0  0  0  0  3  0  0  0  0  0  0
   -1.7255   -1.1071    2.9395 H   0  0  0  0  0  0  0  0  0  0  0  0
    0.0371   -1.2496    1.5333 C   0  0  0  0  0  0  0  0  0  0  0  0
    0.8069   -0.6711    2.0573 H   0  0  0  0  0  0  0  0  0  0  0  0
  1  3  1  0  0  0  0
  1  2  1  0  0  0  0
  3  4  1  0  0  0  0
  5  3  1  0  0  0  0
  6  5  1  0  0  0  0
  7  9  1  0  0  0  0
  7  5  2  0  0  0  0
  8  7  1  0  0  0  0
  9  1  2  0  0  0  0
 10 11  1  0  0  0  0
 10  9  1  0  0  0  0
 10 13  1  0  0  0  0
 12 10  1  0  0  0  0
 13 15  1  0  0  0  0
 14 13  1  0  0  0  0
 16 19  1  0  0  0  0
 16 13  1  0  0  0  0
 17 16  1  0  0  0  0
 18 16  1  0  0  0  0
 19 22  1  0  0  0  0
 19 20  1  0  0  0  0
 21 19  1  0  0  0  0
 22 23  1  0  0  0  0
 22 24  1  0  0  0  0
 25 28  1  0  0  0  0
 25 22  1  0  0  0  0
 26 25  1  0  0  0  0
 27 25  1  0  0  0  0
 28 29  1  0  0  0  0
 28 31  1  0  0  0  0
 30 28  1  0  0  0  0
 31 32  1  0  0  0  0
 31 33  1  0  0  0  0
 34 37  1  0  0  0  0
 34 31  1  0  0  0  0
 35 34  1  0  0  0  0
 36 34  1  0  0  0  0
 37 44  2  0  0  0  0
 38 37  1  0  0  0  0
 38 40  2  0  0  0  0
 39 38  1  0  0  0  0
 40 41  1  0  0  0  0
 40 42  1  0  0  0  0
 42 43  1  0  0  0  0
 44 42  1  0  0  0  0
 44 45  1  0  0  0  0
M  END
