6,10
q = -1.0, confidence = 0.008

 21 21  0  0  1  0  0  0  0  0999 V2000
    1.2314    0.9545    2.4593 O   0  0  0  0  0  0  0  0  0  0  0  0
    2.9227    0.2065    0.8150 C   0  0  2  0  0  0  0  0  0  0  0  0
    3.0169    1.2424   -0.2604 C   0  0  0  0  0  0  0  0  0  0  0  0
    2.2541    1.0821   -1.3914 C   0  0  0  0  0  0  0  0  0  0  0  0
    1.5477   -0.1589   -1.6766 C   0  0  0  0  0  3  0  0  0  0  0  0
    1.7927   -1.2999   -0.8429 C   0  0  0  0  0  3  0  0  0  0  0  0
    2.8969   -1.2402    0.2263 C   0  0  0  0  0  0  0  0  0  0  0  0
    4.2517   -1.5762   -0.4260 C   0  0  0  0  0  0  0  0  0  0  0  0
    2.5968   -2.2501    1.3454 C   0  0  0  0  0  0  0  0  0  0  0  0
    1.4829    0.4490    1.3638 C   0  0  0  0  0  3  0  0  0  0  0  0
    3.6981    0.3230    1.6016 H   0  0  0  0  0  0  0  0  0  0  0  0
    3.5507    2.1832   -0.0607 H   0  0  0  0  0  0  0  0  0  0  0  0
    2.2134    1.8846   -2.1479 H   0  0  0  0  0  0  0  0  0  0  0  0
    1.1516   -0.2973   -2.6937 H   0  0  0  0  0  0  0  0  0  0  0  0
    1.6746   -2.2934   -1.3057 H   0  0  0  0  0  0  0  0  0  0  0  0
    4.2259   -2.5885   -0.8799 H   0  0  0  0  0  0  0  0  0  0  0  0
    5.0706   -1.5593    0.3241 H   0  0  0  0  0  0  0  0  0  0  0  0
    4.4963   -0.8445   -1.2211 H   0  0  0  0  0  0  0  0  0  0  0  0
    1.6276   -2.0294    1.8461 H   0  0  0  0  0  0  0  0  0  0  0  0
    3.3847   -2.2367    2.1267 H   0  0  0  0  0  0  0  0  0  0  0  0
    2.5297   -3.2800    0.9379 H   0  0  0  0  0  0  0  0  0  0  0  0
  2 10  1  0  0  0  0
  2 11  1  1  0  0  0
  3 12  1  0  0  0  0
  3  2  1  0  0  0  0
  4  3  2  0  0  0  0
  5  4  1  0  0  0  0
  5  6  1  0  0  0  0
  6  7  1  0  0  0  0
  7  2  1  0  0  0  0
  7  9  1  0  0  0  0
  8  7  1  0  0  0  0
  8 17  1  0  0  0  0
  9 19  1  0  0  0  0
  9 20  1  0  0  0  0
 10  1  2  0  0  0  0
 13  4  1  0  0  0  0
 14  5  1  0  0  0  0
 15  6  1  0  0  0  0
 16  8  1  0  0  0  0
 18  8  1  0  0  0  0
 21  9  1  0  0  0  0
M  END
