3,7
q = 0.0, confidence = 1.0

 22 22  0  0  1  0  0  0  0  0999 V2000
    1.0434    0.4467    0.3873 C   0  0  0  0  0  0  0  0  0  0  0  0
    0.0684    1.5004    0.5045 C   0  0  2  0  0  3  0  0  0  0  0  0
   -1.0136    1.3406    1.4269 C   0  0  0  0  0  3  0  0  0  0  0  0
   -1.7500    2.1569    1.4663 H   0  0  0  0  0  0  0  0  0  0  0  0
   -1.1437    0.1747    2.2189 C   0  0  0  0  0  3  0  0  0  0  0  0
   -2.0025    0.0475    2.8909 H   0  0  0  0  0  0  0  0  0  0  0  0
   -0.2132   -0.8852    2.0305 C   0  0  0  0  0  3  0  0  0  0  0  0
   -0.3420   -1.8294    2.5783 H   0  0  0  0  0  0  0  0  0  0  0  0
    0.8985   -0.7480    1.1509 C   0  0  0  0  0  0  0  0  0  0  0  0
    1.6310   -1.5572    1.0482 H   0  0  0  0  0  0  0  0  0  0  0  0
    2.0622    0.6699   -0.4808 O   0  0  0  0  0  0  0  0  0  0  0  0
    2.8276   -0.4512   -0.9641 C   0  0  0  0  0  0  0  0  0  0  0  0
    2.1374   -1.2470   -1.3102 H   0  0  0  0  0  0  0  0  0  0  0  0
    3.3930   -0.0201   -1.8205 H   0  0  0  0  0  0  0  0  0  0  0  0
    3.6597   -1.0122   -0.0114 O   0  0  0  0  0  0  0  0  0  0  0  0
    4.7360   -0.1743    0.3942 C   0  0  0  0  0  0  0  0  0  0  0  0
    5.3466   -0.7538    1.1109 H   0  0  0  0  0  0  0  0  0  0  0  0
    4.3727    0.7524    0.8891 H   0  0  0  0  0  0  0  0  0  0  0  0
    5.3710    0.1135   -0.4753 H   0  0  0  0  0  0  0  0  0  0  0  0
    0.0762    2.6915   -0.3855 C   0  0  0  0  0  0  0  0  0  0  0  0
    0.8735    2.6857   -1.1773 H   0  0  0  0  0  0  0  0  0  0  0  0
   -0.7217    3.6098   -0.2737 O   0  0  0  0  0  0  0  0  0  0  0  0
  1  2  1  0  0  0  0
  1  9  2  0  0  0  0
  2 20  1  6  0  0  0
  2  3  1  0  0  0  0
  3  4  1  0  0  0  0
  3  5  1  0  0  0  0
  5  6  1  0  0  0  0
  7  5  1  0  0  0  0
  7  8  1  0  0  0  0
  9  7  1  0  0  0  0
 10  9  1  0  0  0  0
 11  1  1  0  0  0  0
 12 11  1  0  0  0  0
 12 15  1  0  0  0  0
 13 12  1  0  0  0  0
 14 12  1  0  0  0  0
 15 16  1  0  0  0  0
 16 18  1  0  0  0  0
 16 17  1  0  0  0  0
 19 16  1  0  0  0  0
 20 22  2  0  0  0  0
 21 20  1  0  0  0  0
M  END
