1,10
q = 0.0, confidence = 0.888

 20 20  0  0  0  0  0  0  0  0999 V2000
    2.5414    1.2936    0.6401 C   0  0  0  0  0  3  0  0  0  0  0  0
    2.0596    2.2120    1.0259 H   0  0  0  0  0  0  0  0  0  0  0  0
    2.5995    1.1622   -0.7865 C   0  0  0  0  0  3  0  0  0  0  0  0
    2.1469    1.9858   -1.3689 H   0  0  0  0  0  0  0  0  0  0  0  0
    3.4857    0.6193    1.6217 C   0  0  0  0  0  0  0  0  0  0  0  0
    3.0445    0.7335    2.6335 H   0  0  0  0  0  0  0  0  0  0  0  0
    4.4669    1.1472    1.6531 H   0  0  0  0  0  0  0  0  0  0  0  0
    2.4233   -1.4873    0.6768 C   0  0  0  0  0  3  0  0  0  0  0  0
    1.8818   -2.2221    1.3008 H   0  0  0  0  0  0  0  0  0  0  0  0
    2.2281   -1.5966   -0.7394 C   0  0  0  0  0  3  0  0  0  0  0  0
    1.5628   -2.4129   -1.0793 H   0  0  0  0  0  0  0  0  0  0  0  0
    3.1950   -1.0924   -1.7983 C   0  0  0  0  0  0  0  0  0  0  0  0
    2.6616   -1.1216   -2.7710 H   0  0  0  0  0  0  0  0  0  0  0  0
    4.0625   -1.7844   -1.9030 H   0  0  0  0  0  0  0  0  0  0  0  0
    3.6696    0.3512   -1.5201 C   0  0  0  0  0  0  0  0  0  0  0  0
    3.9202    0.8514   -2.4769 H   0  0  0  0  0  0  0  0  0  0  0  0
    4.6085    0.3484   -0.9294 H   0  0  0  0  0  0  0  0  0  0  0  0
    3.6754   -0.8828    1.3152 C   0  0  0  0  0  0  0  0  0  0  0  0
    4.5487   -1.0404    0.6496 H   0  0  0  0  0  0  0  0  0  0  0  0
    3.9114   -1.4269    2.2516 H   0  0  0  0  0  0  0  0  0  0  0  0
  1  2  1  0  0  0  0
  1  5  1  0  0  0  0
  3  1  1  0  0  0  0
  4  3  1  0  0  0  0
  5  7  1  0  0  0  0
  5  6  1  0  0  0  0
  8  9  1  0  0  0  0
  8 18  1  0  0  0  0
 10  8  1  0  0  0  0
 11 10  1  0  0  0  0
 12 15  1  0  0  0  0
 12 10  1  0  0  0  0
 13 12  1  0  0  0  0
 14 12  1  0  0  0  0
 15 17  1  0  0  0  0
 15  3  1  0  0  0  0
 16 15  1  0  0  0  0
 18  5  1  0  0  0  0
 18 20  1  0  0  0  0
 19 18  1  0  0  0  0
M  END
