1,7
q = 0.0, confidence = 0.928

 25 24  0  0  0  0  0  0  0  0999 V2000
    0.7187    1.0487   -2.1097 C   0  0  0  0  0  3  0  0  0  0  0  0
    1.4902    1.6027   -2.6674 H   0  0  0  0  0  0  0  0  0  0  0  0
    0.3695    0.1559   -2.6641 H   0  0  0  0  0  0  0  0  0  0  0  0
   -0.3141    1.8348   -1.4616 C   0  0  0  0  0  0  0  0  0  0  0  0
   -1.3438    1.2769   -0.6843 C   0  0  0  0  0  0  0  0  0  0  0  0
   -1.9082    2.0137   -0.0865 H   0  0  0  0  0  0  0  0  0  0  0  0
   -1.6241   -0.1143   -0.3892 C   0  0  0  0  0  3  0  0  0  0  0  0
   -1.4476   -0.7883   -1.2580 H   0  0  0  0  0  0  0  0  0  0  0  0
   -0.1533    3.3386   -1.4691 C   0  0  0  0  0  0  0  0  0  0  0  0
   -0.3651    3.7317   -2.4864 H   0  0  0  0  0  0  0  0  0  0  0  0
    0.8843    3.6468   -1.2255 H   0  0  0  0  0  0  0  0  0  0  0  0
   -0.8418    3.8435   -0.7628 H   0  0  0  0  0  0  0  0  0  0  0  0
   -2.9528   -0.4655    0.3075 C   0  0  0  0  0  0  0  0  0  0  0  0
   -3.1161    0.2828    1.6433 C   0  0  0  0  0  0  0  0  0  0  0  0
   -3.0594    1.3834    1.5222 H   0  0  0  0  0  0  0  0  0  0  0  0
   -2.3309   -0.0231    2.3621 H   0  0  0  0  0  0  0  0  0  0  0  0
   -4.1025    0.0535    2.0967 H   0  0  0  0  0  0  0  0  0  0  0  0
   -3.0154   -1.9750    0.5980 C   0  0  0  0  0  0  0  0  0  0  0  0
   -2.2039   -2.2784    1.2896 H   0  0  0  0  0  0  0  0  0  0  0  0
   -2.9191   -2.5696   -0.3344 H   0  0  0  0  0  0  0  0  0  0  0  0
   -3.9845   -2.2459    1.0659 H   0  0  0  0  0  0  0  0  0  0  0  0
   -4.1276   -0.0931   -0.6267 C   0  0  0  0  0  0  0  0  0  0  0  0
   -5.1063   -0.3507   -0.1691 H   0  0  0  0  0  0  0  0  0  0  0  0
   -4.0495   -0.6329   -1.5930 H   0  0  0  0  0  0  0  0  0  0  0  0
   -4.1292    0.9930   -0.8509 H   0  0  0  0  0  0  0  0  0  0  0  0
  1  4  1  0  0  0  0
  2  1  1  0  0  0  0
  3  1  1  0  0  0  0
  4  5  2  0  0  0  0
  5  7  1  0  0  0  0
  5  6  1  0  0  0  0
  7 13  1  0  0  0  0
  8  7  1  0  0  0  0
  9  4  1  0  0  0  0
  9 11  1  0  0  0  0
  9 12  1  0  0  0  0
 10  9  1  0  0  0  0
 13 18  1  0  0  0  0
 13 14  1  0  0  0  0
 14 17  1  0  0  0  0
 14 16  1  0  0  0  0
 15 14  1  0  0  0  0
 18 21  1  0  0  0  0
 18 19  1  0  0  0  0
 20 18  1  0  0  0  0
 22 23  1  0  0  0  0
 22 13  1  0  0  0  0
 24 22  1  0  0  0  0
 25 22  1  0  0  0  0
M  END
