1,8
q = -2.0, confidence = 0.686

 14 13  0  0  1  0  0  0  0  0999 V2000
    2.0793   -0.1238   -1.6245 C   0  0  0  0  0  3  0  0  0  0  0  0
    2.0396   -1.0562   -2.2195 H   0  0  0  0  0  0  0  0  0  0  0  0
    1.7788    0.6984   -2.3057 H   0  0  0  0  0  0  0  0  0  0  0  0
    3.5009    0.0869   -1.1168 C   0  0  1  0  0  0  0  0  0  0  0  0
    4.1856    0.3742   -1.9571 H   0  0  0  0  0  0  0  0  0  0  0  0
    3.4919    1.2094   -0.0594 C   0  0  1  0  0  0  0  0  0  0  0  0
    3.4796    2.1842   -0.5962 H   0  0  0  0  0  0  0  0  0  0  0  0
    2.2561    1.0923    0.8580 C   0  0  0  0  0  3  0  0  0  0  0  0
    1.8248    2.0873    1.1005 H   0  0  0  0  0  0  0  0  0  0  0  0
    2.5896    0.6511    1.8210 H   0  0  0  0  0  0  0  0  0  0  0  0
    3.9701   -1.1118   -0.5176 O   0  0  0  0  0  0  0  0  0  0  0  0
    4.6238   -0.7895    0.1450 H   0  0  0  0  0  0  0  0  0  0  0  0
    4.7351    1.0991    0.6592 O   0  0  0  0  0  0  0  0  0  0  0  0
    4.5664    1.4269    1.5606 H   0  0  0  0  0  0  0  0  0  0  0  0
  1  4  1  0  0  0  0
  2  1  1  0  0  0  0
  3  1  1  0  0  0  0
  4  5  1  6  0  0  0
  4 11  1  0  0  0  0
  4  6  1  0  0  0  0
  6  7  1  6  0  0  0
  6 13  1  0  0  0  0
  6  8  1  0  0  0  0
  8  9  1  0  0  0  0
  8 10  1  0  0  0  0
 11 12  1  0  0  0  0
 13 14  1  0  0  0  0
M  END
