4,8
q = 0.0, confidence = 0.996

 26 27  0  0  0  0  0  0  0  0999 V2000
   -0.5108    0.4153    0.5037 C   0  0  0  0  0  0  0  0  0  0  0  0
   -0.0124   -0.6441    1.3316 C   0  0  0  0  0  0  0  0  0  0  0  0
   -0.5605   -1.5903    1.4045 H   0  0  0  0  0  0  0  0  0  0  0  0
    1.1746   -0.4611    2.0939 C   0  0  0  0  0  3  0  0  0  0  0  0
    1.5458   -1.2987    2.7013 H   0  0  0  0  0  0  0  0  0  0  0  0
    1.8808    0.7709    2.0846 C   0  0  0  0  0  3  0  0  0  0  0  0
    2.8065    0.8924    2.6612 H   0  0  0  0  0  0  0  0  0  0  0  0
    1.4206    1.8017    1.2200 C   0  0  0  0  0  3  0  0  0  0  0  0
    1.9920    2.7364    1.1306 H   0  0  0  0  0  0  0  0  0  0  0  0
    0.2447    1.6358    0.4378 C   0  0  0  0  0  3  0  0  0  0  0  0
   -0.0516    2.4282   -0.2593 H   0  0  0  0  0  0  0  0  0  0  0  0
   -1.6510    0.2585   -0.2704 N   0  0  0  0  0  0  0  0  0  0  0  0
   -2.1678   -1.0618   -0.5249 C   0  0  0  0  0  0  0  0  0  0  0  0
   -2.6574   -1.0738   -1.5257 H   0  0  0  0  0  0  0  0  0  0  0  0
   -1.3245   -1.7751   -0.5560 H   0  0  0  0  0  0  0  0  0  0  0  0
   -3.0692   -1.5256    0.4745 O   0  0  0  0  0  0  0  0  0  0  0  0
   -4.3612   -0.9797    0.3473 C   0  0  0  0  0  0  0  0  0  0  0  0
   -4.8052   -1.3002   -0.6337 H   0  0  0  0  0  0  0  0  0  0  0  0
   -4.9544   -1.3887    1.1873 H   0  0  0  0  0  0  0  0  0  0  0  0
   -4.4324    0.4231    0.4465 O   0  0  0  0  0  0  0  0  0  0  0  0
   -3.9570    1.1182   -0.6937 C   0  0  0  0  0  0  0  0  0  0  0  0
   -4.5011    2.0841   -0.7513 H   0  0  0  0  0  0  0  0  0  0  0  0
   -4.2066    0.5518   -1.6226 H   0  0  0  0  0  0  0  0  0  0  0  0
   -2.4537    1.4266   -0.6275 C   0  0  0  0  0  0  0  0  0  0  0  0
   -2.1455    1.8711   -1.6042 H   0  0  0  0  0  0  0  0  0  0  0  0
   -2.2920    2.2004    0.1501 H   0  0  0  0  0  0  0  0  0  0  0  0
  1  2  2  0  0  0  0
  2  3  1  0  0  0  0
  2  4  1  0  0  0  0
  4  5  1  0  0  0  0
  6  4  1  0  0  0  0
  6  7  1  0  0  0  0
  8  6  1  0  0  0  0
  9  8  1  0  0  0  0
 10  1  1  0  0  0  0
 10  8  1  0  0  0  0
 11 10  1  0  0  0  0
 12  1  1  0  0  0  0
 13 12  1  0  0  0  0
 13 16  1  0  0  0  0
 14 13  1  0  0  0  0
 15 13  1  0  0  0  0
 17 20  1  0  0  0  0
 17 16  1  0  0  0  0
 17 19  1  0  0  0  0
 18 17  1  0  0  0  0
 21 24  1  0  0  0  0
 21 20  1  0  0  0  0
 22 21  1  0  0  0  0
 23 21  1  0  0  0  0
 24 12  1  0  0  0  0
 24 26  1  0  0  0  0
 25 24  1  0  0  0  0
M  END
