4,6
q = 0.0, confidence = 1.0

 32 33  0  0  0  0  0  0  0  0999 V2000
   -0.9564   -1.6570   -0.0967 C   0  0  0  0  0  0  0  0  0  0  0  0
   -1.9758   -1.4353    0.9142 C   0  0  0  0  0  0  0  0  0  0  0  0
   -3.2308   -0.8853    0.5270 C   0  0  0  0  0  0  0  0  0  0  0  0
   -3.4803   -0.4926   -0.8162 C   0  0  0  0  0  3  0  0  0  0  0  0
   -2.5022   -0.7217   -1.8176 C   0  0  0  0  0  3  0  0  0  0  0  0
   -1.2470   -1.2716   -1.4522 C   0  0  0  0  0  3  0  0  0  0  0  0
    0.3668   -2.0624    0.3245 C   0  0  0  0  0  0  0  0  0  0  0  0
    2.7916   -2.0814    0.2199 C   0  0  0  0  0  0  0  0  0  0  0  0
    3.2221   -0.6364    0.2750 C   0  0  0  0  0  0  0  0  0  0  0  0
    2.8473    0.1730    1.3651 C   0  0  0  0  0  0  0  0  0  0  0  0
    3.1025    1.5510    1.3491 C   0  0  0  0  0  0  0  0  0  0  0  0
    3.7362    2.1318    0.2394 C   0  0  0  0  0  0  0  0  0  0  0  0
    4.1145    1.3312   -0.8498 C   0  0  0  0  0  0  0  0  0  0  0  0
    3.8549   -0.0464   -0.8357 C   0  0  0  0  0  0  0  0  0  0  0  0
   -1.7474   -1.8118    2.3557 C   0  0  0  0  0  0  0  0  0  0  0  0
    1.4766   -2.0145   -1.7173 O   0  0  0  0  0  1  0  0  0  0  0  0
    1.4462   -2.1191   -0.4583 N   0  0  0  0  0  0  0  0  0  0  0  0
   -3.9860   -0.6901    1.3006 H   0  0  0  0  0  0  0  0  0  0  0  0
   -4.4308   -0.0036   -1.0721 H   0  0  0  0  0  0  0  0  0  0  0  0
   -2.6788   -0.4050   -2.8539 H   0  0  0  0  0  0  0  0  0  0  0  0
   -0.4419   -1.3991   -2.1867 H   0  0  0  0  0  0  0  0  0  0  0  0
    0.5711   -2.1961    1.3911 H   0  0  0  0  0  0  0  0  0  0  0  0
    2.6988   -2.5275    1.2280 H   0  0  0  0  0  0  0  0  0  0  0  0
    3.4568   -2.7014   -0.4084 H   0  0  0  0  0  0  0  0  0  0  0  0
    2.3282   -0.2726    2.2286 H   0  0  0  0  0  0  0  0  0  0  0  0
    2.7863    2.1732    2.1994 H   0  0  0  0  0  0  0  0  0  0  0  0
    3.9275    3.2152    0.2193 H   0  0  0  0  0  0  0  0  0  0  0  0
    4.6017    1.7864   -1.7250 H   0  0  0  0  0  0  0  0  0  0  0  0
    4.1176   -0.6711   -1.7022 H   0  0  0  0  0  0  0  0  0  0  0  0
   -2.6063   -1.5037    2.9802 H   0  0  0  0  0  0  0  0  0  0  0  0
   -0.8446   -1.3304    2.7796 H   0  0  0  0  0  0  0  0  0  0  0  0
   -1.6245   -2.9102    2.4570 H   0  0  0  0  0  0  0  0  0  0  0  0
  1  7  2  0  0  0  0
  1  2  1  0  0  0  0
  2 15  1  0  0  0  0
  3  2  2  0  0  0  0
  3 18  1  0  0  0  0
  4  3  1  0  0  0  0
  5  6  1  0  0  0  0
  5  4  1  0  0  0  0
  6  1  1  0  0  0  0
  7 22  1  0  0  0  0
  8  9  1  0  0  0  0
  8 23  1  0  0  0  0
  9 10  1  0  0  0  0
 10 25  1  0  0  0  0
 11 10  2  0  0  0  0
 11 26  1  0  0  0  0
 12 11  1  0  0  0  0
 13 14  1  0  0  0  0
 13 12  2  0  0  0  0
 14  9  2  0  0  0  0
 15 32  1  0  0  0  0
 15 31  1  0  0  0  0
 15 30  1  0  0  0  0
 16 17  1  0  0  0  0
 17  8  1  0  0  0  0
 17  7  1  0  0  0  0
 19  4  1  0  0  0  0
 20  5  1  0  0  0  0
 21  6  1  0  0  0  0
 24  8  1  0  0  0  0
 27 12  1  0  0  0  0
 28 13  1  0  0  0  0
 29 14  1  0  0  0  0
M  END
