4,6
q = 0.0, confidence = 0.99

 50 51  0  0  1  0  0  0  0  0999 V2000
    1.1838   -0.4990   -0.0096 C   0  0  1  0  0  3  0  0  0  0  0  0
    2.0105   -0.0773    1.0942 C   0  0  0  0  0  0  0  0  0  0  0  0
    3.2359    0.6116    0.8295 C   0  0  0  0  0  0  0  0  0  0  0  0
    3.5984    0.9737   -0.4942 C   0  0  0  0  0  3  0  0  0  0  0  0
    2.7642    0.6167   -1.5872 C   0  0  0  0  0  3  0  0  0  0  0  0
    1.5578   -0.0834   -1.3276 C   0  0  0  0  0  3  0  0  0  0  0  0
    0.0028   -1.4357    0.1892 C   0  0  2  0  0  0  0  0  0  0  0  0
    0.1132   -2.7872   -0.6049 C   0  0  1  0  0  0  0  0  0  0  0  0
    1.2147   -3.7960   -0.1572 C   0  0  0  0  0  0  0  0  0  0  0  0
    2.6348   -3.2406   -0.3567 C   0  0  0  0  0  0  0  0  0  0  0  0
    1.0529   -5.0392   -1.0583 C   0  0  0  0  0  0  0  0  0  0  0  0
    0.9993   -4.2107    1.3082 C   0  0  0  0  0  0  0  0  0  0  0  0
   -1.8711    0.1192    0.7880 C   0  0  0  0  0  0  0  0  0  0  0  0
   -3.3234    0.3927    0.4736 C   0  0  0  0  0  0  0  0  0  0  0  0
   -4.3298   -0.4665    0.9586 C   0  0  0  0  0  0  0  0  0  0  0  0
   -5.6750   -0.2516    0.6264 C   0  0  0  0  0  0  0  0  0  0  0  0
   -6.0287    0.8253   -0.2034 C   0  0  0  0  0  0  0  0  0  0  0  0
   -5.0322    1.6814   -0.6976 C   0  0  0  0  0  0  0  0  0  0  0  0
   -3.6858    1.4668   -0.3626 C   0  0  0  0  0  0  0  0  0  0  0  0
    1.6674   -0.4078    2.5245 C   0  0  0  0  0  0  0  0  0  0  0  0
   -1.3376   -0.3811   -1.4581 O   0  0  0  0  0  0  0  0  0  0  0  0
   -1.1397   -3.4270   -0.5009 O   0  0  0  0  0  0  0  0  0  0  0  0
   -1.3422   -0.9072   -0.1224 N   0  0  0  0  0  0  0  0  0  0  0  0
   -2.1554   -0.7514   -1.8448 H   0  0  0  0  0  0  0  0  0  0  0  0
   -1.7530   -2.6684   -0.3072 H   0  0  0  0  0  0  0  0  0  0  0  0
    3.8626    0.9312    1.6731 H   0  0  0  0  0  0  0  0  0  0  0  0
    4.5140    1.5571   -0.6664 H   0  0  0  0  0  0  0  0  0  0  0  0
    3.0124    0.9335   -2.6084 H   0  0  0  0  0  0  0  0  0  0  0  0
    0.8750   -0.3183   -2.1532 H   0  0  0  0  0  0  0  0  0  0  0  0
   -0.0701   -1.7014    1.2604 H   0  0  0  0  0  0  0  0  0  0  0  0
    0.3304   -2.5196   -1.6713 H   0  0  0  0  0  0  0  0  0  0  0  0
    3.3768   -4.0522   -0.2100 H   0  0  0  0  0  0  0  0  0  0  0  0
    2.8864   -2.4311    0.3539 H   0  0  0  0  0  0  0  0  0  0  0  0
    2.7749   -2.8406   -1.3820 H   0  0  0  0  0  0  0  0  0  0  0  0
    1.7944   -5.8162   -0.7817 H   0  0  0  0  0  0  0  0  0  0  0  0
    0.0365   -5.4643   -0.9640 H   0  0  0  0  0  0  0  0  0  0  0  0
    1.2161   -4.7774   -2.1246 H   0  0  0  0  0  0  0  0  0  0  0  0
    1.6736   -5.0474    1.5813 H   0  0  0  0  0  0  0  0  0  0  0  0
    1.2103   -3.3798    2.0127 H   0  0  0  0  0  0  0  0  0  0  0  0
   -0.0473   -4.5383    1.4610 H   0  0  0  0  0  0  0  0  0  0  0  0
   -1.7708   -0.2952    1.8124 H   0  0  0  0  0  0  0  0  0  0  0  0
   -1.2660    1.0487    0.7285 H   0  0  0  0  0  0  0  0  0  0  0  0
   -4.0513   -1.3135    1.6065 H   0  0  0  0  0  0  0  0  0  0  0  0
   -6.4522   -0.9254    1.0183 H   0  0  0  0  0  0  0  0  0  0  0  0
   -7.0843    0.9973   -0.4637 H   0  0  0  0  0  0  0  0  0  0  0  0
   -5.3039    2.5258   -1.3493 H   0  0  0  0  0  0  0  0  0  0  0  0
   -2.9030    2.1314   -0.7579 H   0  0  0  0  0  0  0  0  0  0  0  0
    2.2342    0.2400    3.2186 H   0  0  0  0  0  0  0  0  0  0  0  0
    0.5925   -0.2658    2.7419 H   0  0  0  0  0  0  0  0  0  0  0  0
    1.9262   -1.4624    2.7564 H   0  0  0  0  0  0  0  0  0  0  0  0
  1  7  1  6  0  0  0
  1  2  1  0  0  0  0
  2 20  1  0  0  0  0
  3  2  2  0  0  0  0
  3 26  1  0  0  0  0
  4  3  1  0  0  0  0
  5  6  1  0  0  0  0
  5  4  1  0  0  0  0
  6  1  1  0  0  0  0
  7 30  1  1  0  0  0
  8 31  1  6  0  0  0
  8 22  1  0  0  0  0
  8  9  1  0  0  0  0
  8  7  1  0  0  0  0
  9 12  1  0  0  0  0
 10 32  1  0  0  0  0
 10  9  1  0  0  0  0
 10 33  1  0  0  0  0
 11 36  1  0  0  0  0
 11 35  1  0  0  0  0
 11  9  1  0  0  0  0
 12 40  1  0  0  0  0
 12 38  1  0  0  0  0
 12 39  1  0  0  0  0
 13 41  1  0  0  0  0
 14 13  1  0  0  0  0
 14 15  1  0  0  0  0
 15 43  1  0  0  0  0
 16 15  2  0  0  0  0
 16 44  1  0  0  0  0
 17 16  1  0  0  0  0
 18 19  1  0  0  0  0
 18 17  2  0  0  0  0
 19 14  2  0  0  0  0
 20 49  1  0  0  0  0
 20 50  1  0  0  0  0
 20 48  1  0  0  0  0
 21 23  1  0  0  0  0
 22 25  1  0  0  0  0
 23  7  1  0  0  0  0
 23 13  1  0  0  0  0
 24 21  1  0  0  0  0
 27  4  1  0  0  0  0
 28  5  1  0  0  0  0
 29  6  1  0  0  0  0
 34 10  1  0  0  0  0
 37 11  1  0  0  0  0
 42 13  1  0  0  0  0
 45 17  1  0  0  0  0
 46 18  1  0  0  0  0
 47 19  1  0  0  0  0
M  END
