8
q = -3.0, confidence = 0.364

 63 71  0  0  1  0  0  0  0  0999 V2000
   -2.6507    2.1286    0.9131 Si  0  0  0  0  0  0  0  0  0  0  0  0
   -1.2688    2.1958   -0.3756 C   0  0  1  0  0  3  0  0  0  0  0  0
    0.1111    2.2064   -0.0039 C   0  0  0  0  0  3  0  0  0  0  0  0
    0.5010    2.5196    0.9710 H   0  0  0  0  0  0  0  0  0  0  0  0
    0.9135    1.7306   -1.0956 C   0  0  0  0  0  0  0  0  0  0  0  0
    0.0182    1.4082   -2.1546 C   0  0  0  0  0  0  0  0  0  0  0  0
    0.2931    0.9972   -3.1312 H   0  0  0  0  0  0  0  0  0  0  0  0
   -1.3157    1.6586   -1.7081 C   0  0  0  0  0  3  0  0  0  0  0  0
   -2.2233    1.4647   -2.2950 H   0  0  0  0  0  0  0  0  0  0  0  0
    2.4376    1.6571   -1.1205 C   0  0  0  0  0  0  0  0  0  0  0  0
    2.9979    2.9933   -0.5829 C   0  0  0  0  0  0  0  0  0  0  0  0
    2.5640    3.8296   -1.1648 H   0  0  0  0  0  0  0  0  0  0  0  0
    4.0975    3.0269   -0.6929 H   0  0  0  0  0  0  0  0  0  0  0  0
    2.7574    3.1502    0.4841 H   0  0  0  0  0  0  0  0  0  0  0  0
    2.9295    1.5022   -2.5728 C   0  0  0  0  0  0  0  0  0  0  0  0
    2.6094    0.5469   -3.0265 H   0  0  0  0  0  0  0  0  0  0  0  0
    4.0326    1.5438   -2.6137 H   0  0  0  0  0  0  0  0  0  0  0  0
    2.5313    2.3345   -3.1847 H   0  0  0  0  0  0  0  0  0  0  0  0
    2.9000    0.4474   -0.2317 C   0  0  2  0  0  0  0  0  0  0  0  0
    1.6636   -0.4905    0.4795 C   0  0  2  0  0  0  0  0  0  0  0  0
   -2.3951    0.2979    1.2922 C   0  0  2  0  0  3  0  0  0  0  0  0
   -1.3022   -0.1970    2.0884 C   0  0  0  0  0  0  0  0  0  0  0  0
   -0.6779    0.4079    2.7610 H   0  0  0  0  0  0  0  0  0  0  0  0
   -1.0946   -1.5778    1.8325 C   0  0  0  0  0  0  0  0  0  0  0  0
   -0.3355   -2.2135    2.2986 H   0  0  0  0  0  0  0  0  0  0  0  0
   -2.3954   -3.2834    0.3464 C   0  0  0  0  0  0  0  0  0  0  0  0
   -1.7910   -4.1598    0.6219 H   0  0  0  0  0  0  0  0  0  0  0  0
   -3.4431   -3.3856   -0.5546 C   0  0  0  0  0  0  0  0  0  0  0  0
   -3.6852   -4.3612   -1.0015 H   0  0  0  0  0  0  0  0  0  0  0  0
   -4.2191   -2.2452   -0.9200 C   0  0  0  0  0  0  0  0  0  0  0  0
   -5.0443   -2.3700   -1.6371 H   0  0  0  0  0  0  0  0  0  0  0  0
   -3.9594   -0.9899   -0.3910 C   0  0  0  0  0  0  0  0  0  0  0  0
   -4.5790   -0.1263   -0.6687 H   0  0  0  0  0  0  0  0  0  0  0  0
   -2.8973   -0.8453    0.5513 C   0  0  0  0  0  0  0  0  0  0  0  0
   -2.1019   -2.0107    0.9088 C   0  0  0  0  0  0  0  0  0  0  0  0
   -2.2269    3.1869    2.4091 C   0  0  0  0  0  0  0  0  0  0  0  0
   -2.2142    4.2618    2.1367 H   0  0  0  0  0  0  0  0  0  0  0  0
   -1.2333    2.9299    2.8272 H   0  0  0  0  0  0  0  0  0  0  0  0
   -2.9782    3.0421    3.2118 H   0  0  0  0  0  0  0  0  0  0  0  0
   -4.3315    2.5598    0.1862 C   0  0  0  0  0  0  0  0  0  0  0  0
   -4.4816    2.1041   -0.8122 H   0  0  0  0  0  0  0  0  0  0  0  0
   -4.4173    3.6593    0.0693 H   0  0  0  0  0  0  0  0  0  0  0  0
   -5.1522    2.2191    0.8493 H   0  0  0  0  0  0  0  0  0  0  0  0
    4.2431   -0.5384   -0.6414 B   0  0  0  0  0  0  0  0  0  0  0  0
    2.6170    0.5463    1.4525 B   0  0  1  0  0  0  0  0  0  0  0  0
    2.2108   -1.0826    1.9931 B   0  0  2  0  0  0  0  0  0  0  0  0
    2.1681   -2.1219    0.5680 B   0  0  2  0  0  0  0  0  0  0  0  0
    2.5715   -1.1186   -0.8354 B   0  0  2  0  0  0  0  0  0  0  0  0
    4.2734    0.5059    0.7878 B   0  0  2  0  0  0  0  0  0  0  0  0
    4.8651   -1.1698    0.8977 B   0  0  1  0  0  0  0  0  0  0  0  0
    3.8644   -0.4797    2.2082 B   0  0  0  0  0  0  0  0  0  0  0  0
    3.5883   -2.1568    1.6485 B   0  0  1  0  0  0  0  0  0  0  0  0
    3.8056   -2.1869   -0.1274 B   0  0  0  0  0  0  0  0  0  0  0  0
    2.1348    1.5422    1.9273 H   0  0  0  0  0  0  0  0  0  0  0  0
    1.4241   -1.1870    2.9006 H   0  0  0  0  0  0  0  0  0  0  0  0
    4.2878   -0.1976    3.3049 H   0  0  0  0  0  0  0  0  0  0  0  0
    3.8167   -3.1175    2.3466 H   0  0  0  0  0  0  0  0  0  0  0  0
    6.0456   -1.3953    1.0327 H   0  0  0  0  0  0  0  0  0  0  0  0
    4.1923   -3.1520   -0.7433 H   0  0  0  0  0  0  0  0  0  0  0  0
    4.8791   -0.2639   -1.6259 H   0  0  0  0  0  0  0  0  0  0  0  0
    2.0335   -1.2270   -1.9042 H   0  0  0  0  0  0  0  0  0  0  0  0
    4.9293    1.5157    0.8071 H   0  0  0  0  0  0  0  0  0  0  0  0
    1.3226   -2.9737    0.4235 H   0  0  0  0  0  0  0  0  0  0  0  0
  1 21  1  0  0  0  0
  1 36  1  0  0  0  0
  2  3  1  0  0  0  0
  2  1  1  1  0  0  0
  3  4  1  0  0  0  0
  5  3  1  0  0  0  0
  6  8  1  0  0  0  0
  6  5  2  0  0  0  0
  7  6  1  0  0  0  0
  8  2  1  0  0  0  0
  9  8  1  0  0  0  0
 10  5  1  0  0  0  0
 10 11  1  0  0  0  0
 11 14  1  0  0  0  0
 12 11  1  0  0  0  0
 13 11  1  0  0  0  0
 15 10  1  0  0  0  0
 16 15  1  0  0  0  0
 17 15  1  0  0  0  0
 18 15  1  0  0  0  0
 19 10  1  6  0  0  0
 19 20  1  0  0  0  0
 19 45  1  0  0  0  0
 20 47  1  0  0  0  0
 20 45  1  0  0  0  0
 20 46  1  0  0  0  0
 21 22  1  0  0  0  0
 22 23  1  0  0  0  0
 24 22  2  0  0  0  0
 24 25  1  0  0  0  0
 26 27  1  0  0  0  0
 26 35  1  0  0  0  0
 28 26  2  0  0  0  0
 29 28  1  0  0  0  0
 30 28  1  0  0  0  0
 30 32  2  0  0  0  0
 31 30  1  0  0  0  0
 32 34  1  0  0  0  0
 33 32  1  0  0  0  0
 34 35  2  0  0  0  0
 34 21  1  0  0  0  0
 35 24  1  0  0  0  0
 36 38  1  0  0  0  0
 36 39  1  0  0  0  0
 37 36  1  0  0  0  0
 40 43  1  0  0  0  0
 40  1  1  0  0  0  0
 41 40  1  0  0  0  0
 42 40  1  0  0  0  0
 44 49  1  0  0  0  0
 44 50  1  0  0  0  0
 45 54  1  0  0  0  0
 45 46  1  0  0  0  0
 46 55  1  0  0  0  0
 47 46  1  0  0  0  0
 48 19  1  0  0  0  0
 48 53  1  0  0  0  0
 48 47  1  0  0  0  0
 49 62  1  0  0  0  0
 49 50  1  0  0  0  0
 49 51  1  0  0  0  0
 50 58  1  0  0  0  0
 50 52  1  0  0  0  0
 51 56  1  0  0  0  0
 52 51  1  0  0  0  0
 52 57  1  0  0  0  0
 53 52  1  0  0  0  0
 59 53  1  0  0  0  0
 60 44  1  0  0  0  0
 61 48  1  0  0  0  0
 63 47  1  0  0  0  0
M  END
