1,12
q = -2.0, confidence = 0.798

 42 43  0  0  1  0  0  0  0  0999 V2000
   -0.9699   -1.7634    0.4311 C   0  0  1  0  0  3  0  0  0  0  0  0
   -0.6124   -2.1312   -0.9067 C   0  0  0  0  0  3  0  0  0  0  0  0
   -1.1774   -1.8983   -1.8170 H   0  0  0  0  0  0  0  0  0  0  0  0
    0.6283   -2.8419   -0.8674 C   0  0  0  0  0  0  0  0  0  0  0  0
    1.1620   -3.2425   -1.7367 H   0  0  0  0  0  0  0  0  0  0  0  0
    1.0620   -2.8934    0.4786 C   0  0  0  0  0  0  0  0  0  0  0  0
    1.9931   -3.3413    0.8441 H   0  0  0  0  0  0  0  0  0  0  0  0
    0.0882   -2.2189    1.2801 C   0  0  0  0  0  3  0  0  0  0  0  0
    0.1538   -2.0568    2.3631 H   0  0  0  0  0  0  0  0  0  0  0  0
   -1.9649   -0.6764    0.8154 C   0  0  1  0  0  0  0  0  0  0  0  0
   -2.1020   -0.7196    1.9151 H   0  0  0  0  0  0  0  0  0  0  0  0
   -1.1459    0.5833    0.5174 C   0  0  1  0  0  3  0  0  0  0  0  0
   -0.1842    1.1076    1.4530 C   0  0  1  0  0  3  0  0  0  0  0  0
    0.6716    2.0302    0.7542 C   0  0  0  0  0  0  0  0  0  0  0  0
    0.2653    2.0590   -0.6106 C   0  0  0  0  0  0  0  0  0  0  0  0
   -0.8407    1.1475   -0.7746 C   0  0  2  0  0  3  0  0  0  0  0  0
   -0.1045    0.8653    2.9336 C   0  0  0  0  0  0  0  0  0  0  0  0
    0.9147    0.5567    3.2420 H   0  0  0  0  0  0  0  0  0  0  0  0
   -0.8155    0.0901    3.2759 H   0  0  0  0  0  0  0  0  0  0  0  0
   -0.3454    1.7987    3.4863 H   0  0  0  0  0  0  0  0  0  0  0  0
    1.7300    2.8608    1.4090 C   0  0  0  0  0  0  0  0  0  0  0  0
    1.2771    3.5816    2.1226 H   0  0  0  0  0  0  0  0  0  0  0  0
    2.3148    3.4383    0.6688 H   0  0  0  0  0  0  0  0  0  0  0  0
    2.4413    2.2255    1.9756 H   0  0  0  0  0  0  0  0  0  0  0  0
    0.8050    2.9348   -1.6975 C   0  0  0  0  0  0  0  0  0  0  0  0
    0.0351    3.6604   -2.0359 H   0  0  0  0  0  0  0  0  0  0  0  0
    1.1152    2.3357   -2.5784 H   0  0  0  0  0  0  0  0  0  0  0  0
    1.6868    3.5097   -1.3580 H   0  0  0  0  0  0  0  0  0  0  0  0
   -1.5675    1.0051   -2.0838 C   0  0  0  0  0  0  0  0  0  0  0  0
   -2.1820    1.9108   -2.2793 H   0  0  0  0  0  0  0  0  0  0  0  0
   -2.2490    0.1384   -2.1113 H   0  0  0  0  0  0  0  0  0  0  0  0
   -0.8538    0.9028   -2.9248 H   0  0  0  0  0  0  0  0  0  0  0  0
   -3.3574   -0.7950    0.1832 C   0  0  0  0  0  0  0  0  0  0  0  0
   -3.8327   -1.7178    0.5811 H   0  0  0  0  0  0  0  0  0  0  0  0
   -3.2798   -0.9586   -0.9115 H   0  0  0  0  0  0  0  0  0  0  0  0
   -4.2540    0.4144    0.4580 C   0  0  0  0  0  0  0  0  0  0  0  0
   -4.3325    0.5664    1.5575 H   0  0  0  0  0  0  0  0  0  0  0  0
   -3.7583    1.3297    0.0674 H   0  0  0  0  0  0  0  0  0  0  0  0
   -5.6498    0.2798   -0.1501 C   0  0  0  0  0  0  0  0  0  0  0  0
   -5.5983    0.1648   -1.2532 H   0  0  0  0  0  0  0  0  0  0  0  0
   -6.2772    1.1682    0.0632 H   0  0  0  0  0  0  0  0  0  0  0  0
   -6.1818   -0.6093    0.2480 H   0  0  0  0  0  0  0  0  0  0  0  0
  1 10  1  6  0  0  0
  1  8  1  0  0  0  0
  2  4  1  0  0  0  0
  2  1  1  0  0  0  0
  3  2  1  0  0  0  0
  4  6  2  0  0  0  0
  5  4  1  0  0  0  0
  6  7  1  0  0  0  0
  6  8  1  0  0  0  0
  8  9  1  0  0  0  0
 10 11  1  1  0  0  0
 12 10  1  6  0  0  0
 12 13  1  0  0  0  0
 13 17  1  1  0  0  0
 14 21  1  0  0  0  0
 14 13  1  0  0  0  0
 15 14  2  0  0  0  0
 16 29  1  1  0  0  0
 16 15  1  0  0  0  0
 16 12  1  0  0  0  0
 17 18  1  0  0  0  0
 17 19  1  0  0  0  0
 17 20  1  0  0  0  0
 21 24  1  0  0  0  0
 21 22  1  0  0  0  0
 23 21  1  0  0  0  0
 25 28  1  0  0  0  0
 25 15  1  0  0  0  0
 26 25  1  0  0  0  0
 27 25  1  0  0  0  0
 30 29  1  0  0  0  0
 31 29  1  0  0  0  0
 32 29  1  0  0  0  0
 33 36  1  0  0  0  0
 33 34  1  0  0  0  0
 33 10  1  0  0  0  0
 35 33  1  0  0  0  0
 36 37  1  0  0  0  0
 38 36  1  0  0  0  0
 39 41  1  0  0  0  0
 39 42  1  0  0  0  0
 39 36  1  0  0  0  0
 40 39  1  0  0  0  0
M  END
