3,40
q = -1.0, confidence = 0.072

 64 66  0  0  1  0  0  0  0  0999 V2000
    1.0157   -1.3664    0.2324 N   0  0  0  0  0  0  0  0  0  0  0  0
   -1.1251   -1.7264    0.0902 N   0  0  0  0  0  0  0  0  0  0  0  0
   -0.2002   -0.7301    0.1849 C   0  0  0  0  0  2  0  0  0  0  0  0
    0.8413   -2.7426    0.1587 C   0  0  0  0  0  0  0  0  0  0  0  0
    1.6717   -3.4495    0.1536 H   0  0  0  0  0  0  0  0  0  0  0  0
   -0.5076   -2.9685    0.0683 C   0  0  0  0  0  0  0  0  0  0  0  0
   -1.0726   -3.9009   -0.0114 H   0  0  0  0  0  0  0  0  0  0  0  0
    2.2812   -0.6158    0.3690 C   0  0  2  0  0  0  0  0  0  0  0  0
    1.9292    0.4305    0.3860 H   0  0  0  0  0  0  0  0  0  0  0  0
    3.1678   -0.7770   -0.8622 C   0  0  0  0  0  0  0  0  0  0  0  0
    3.4031    0.3416   -1.7116 C   0  0  0  0  0  0  0  0  0  0  0  0
    4.2197    0.1663   -2.8481 C   0  0  0  0  0  0  0  0  0  0  0  0
    4.4012    1.0334   -3.5025 H   0  0  0  0  0  0  0  0  0  0  0  0
    4.7906   -1.0720   -3.1682 C   0  0  0  0  0  0  0  0  0  0  0  0
    5.4211   -1.1738   -4.0646 H   0  0  0  0  0  0  0  0  0  0  0  0
    4.5448   -2.1761   -2.3421 C   0  0  0  0  0  0  0  0  0  0  0  0
    4.9769   -3.1602   -2.5781 H   0  0  0  0  0  0  0  0  0  0  0  0
    3.7423   -2.0192   -1.2040 C   0  0  0  0  0  0  0  0  0  0  0  0
    3.5683   -2.8965   -0.5680 H   0  0  0  0  0  0  0  0  0  0  0  0
    2.7890    1.6954   -1.4530 C   0  0  0  0  0  0  0  0  0  0  0  0
    1.6773    1.6463   -1.4583 H   0  0  0  0  0  0  0  0  0  0  0  0
    3.1011    2.4208   -2.2279 H   0  0  0  0  0  0  0  0  0  0  0  0
    3.0682    2.1069   -0.4626 H   0  0  0  0  0  0  0  0  0  0  0  0
    2.9576   -0.7947    1.7793 C   0  0  0  0  0  0  0  0  0  0  0  0
    1.8703   -0.6463    2.8623 C   0  0  0  0  0  0  0  0  0  0  0  0
    1.3062    0.2982    2.7321 H   0  0  0  0  0  0  0  0  0  0  0  0
    2.3418   -0.6326    3.8658 H   0  0  0  0  0  0  0  0  0  0  0  0
    1.1526   -1.4920    2.8428 H   0  0  0  0  0  0  0  0  0  0  0  0
    3.6945   -2.1291    1.9862 C   0  0  0  0  0  0  0  0  0  0  0  0
    3.0280   -3.0065    1.8608 H   0  0  0  0  0  0  0  0  0  0  0  0
    4.0826   -2.1708    3.0246 H   0  0  0  0  0  0  0  0  0  0  0  0
    4.5613   -2.2392    1.3066 H   0  0  0  0  0  0  0  0  0  0  0  0
    3.9669    0.3623    1.9212 C   0  0  0  0  0  0  0  0  0  0  0  0
    4.7243    0.3379    1.1112 H   0  0  0  0  0  0  0  0  0  0  0  0
    4.5025    0.2856    2.8891 H   0  0  0  0  0  0  0  0  0  0  0  0
    3.4420    1.3379    1.8921 H   0  0  0  0  0  0  0  0  0  0  0  0
   -2.5783   -1.5056    0.0287 C   0  0  2  0  0  0  0  0  0  0  0  0
   -2.9853   -2.4429   -0.3983 H   0  0  0  0  0  0  0  0  0  0  0  0
   -2.8861   -0.3641   -0.9283 C   0  0  0  0  0  0  0  0  0  0  0  0
   -2.1215    0.8268   -0.8870 C   0  0  0  0  0  3  0  0  0  0  0  0
   -2.4591    1.9108   -1.7230 C   0  0  0  0  0  0  0  0  0  0  0  0
   -1.8840    2.8471   -1.6580 H   0  0  0  0  0  0  0  0  0  0  0  0
   -3.5244    1.7990   -2.6258 C   0  0  0  0  0  0  0  0  0  0  0  0
   -3.7849    2.6474   -3.2779 H   0  0  0  0  0  0  0  0  0  0  0  0
   -4.2372    0.5969   -2.7175 C   0  0  0  0  0  0  0  0  0  0  0  0
   -5.0446    0.4925   -3.4593 H   0  0  0  0  0  0  0  0  0  0  0  0
   -3.9336   -0.4985   -1.8860 C   0  0  0  0  0  0  0  0  0  0  0  0
   -4.7014   -1.7866   -2.0870 C   0  0  0  0  0  0  0  0  0  0  0  0
   -5.3712   -2.0280   -1.2380 H   0  0  0  0  0  0  0  0  0  0  0  0
   -4.0251   -2.6574   -2.2216 H   0  0  0  0  0  0  0  0  0  0  0  0
   -5.3318   -1.7208   -2.9943 H   0  0  0  0  0  0  0  0  0  0  0  0
   -3.2190   -1.3988    1.4732 C   0  0  0  0  0  0  0  0  0  0  0  0
   -4.7509   -1.3977    1.3242 C   0  0  0  0  0  0  0  0  0  0  0  0
   -5.0970   -0.5501    0.7002 H   0  0  0  0  0  0  0  0  0  0  0  0
   -5.2228   -1.2992    2.3223 H   0  0  0  0  0  0  0  0  0  0  0  0
   -5.1204   -2.3422    0.8750 H   0  0  0  0  0  0  0  0  0  0  0  0
   -2.8047   -2.6341    2.2949 C   0  0  0  0  0  0  0  0  0  0  0  0
   -3.3282   -2.6302    3.2722 H   0  0  0  0  0  0  0  0  0  0  0  0
   -1.7160   -2.6488    2.5014 H   0  0  0  0  0  0  0  0  0  0  0  0
   -3.0723   -3.5801    1.7783 H   0  0  0  0  0  0  0  0  0  0  0  0
   -2.8021   -0.1303    2.2314 C   0  0  0  0  0  0  0  0  0  0  0  0
   -3.1048    0.7880    1.6918 H   0  0  0  0  0  0  0  0  0  0  0  0
   -1.7063   -0.0775    2.3891 H   0  0  0  0  0  0  0  0  0  0  0  0
   -3.2895   -0.1228    3.2284 H   0  0  0  0  0  0  0  0  0  0  0  0
  1  8  1  0  0  0  0
  2  3  1  0  0  0  0
  3  1  1  0  0  0  0
  4  1  1  0  0  0  0
  5  4  1  0  0  0  0
  6  2  1  0  0  0  0
  6  4  2  0  0  0  0
  7  6  1  0  0  0  0
  8  9  1  6  0  0  0
  8 24  1  0  0  0  0
 10  8  1  0  0  0  0
 11 20  1  0  0  0  0
 11 10  2  0  0  0  0
 12 11  1  0  0  0  0
 13 12  1  0  0  0  0
 14 12  2  0  0  0  0
 14 16  1  0  0  0  0
 15 14  1  0  0  0  0
 16 18  2  0  0  0  0
 17 16  1  0  0  0  0
 18 10  1  0  0  0  0
 18 19  1  0  0  0  0
 20 23  1  0  0  0  0
 21 20  1  0  0  0  0
 22 20  1  0  0  0  0
 24 33  1  0  0  0  0
 24 29  1  0  0  0  0
 24 25  1  0  0  0  0
 25 27  1  0  0  0  0
 26 25  1  0  0  0  0
 28 25  1  0  0  0  0
 29 31  1  0  0  0  0
 30 29  1  0  0  0  0
 32 29  1  0  0  0  0
 33 35  1  0  0  0  0
 34 33  1  0  0  0  0
 36 33  1  0  0  0  0
 37 38  1  6  0  0  0
 37  2  1  0  0  0  0
 37 52  1  0  0  0  0
 39 40  1  0  0  0  0
 39 37  1  0  0  0  0
 41 42  1  0  0  0  0
 41 40  2  0  0  0  0
 43 41  1  0  0  0  0
 44 43  1  0  0  0  0
 45 43  2  0  0  0  0
 45 47  1  0  0  0  0
 46 45  1  0  0  0  0
 47 39  2  0  0  0  0
 48 47  1  0  0  0  0
 48 49  1  0  0  0  0
 50 48  1  0  0  0  0
 51 48  1  0  0  0  0
 52 61  1  0  0  0  0
 52 57  1  0  0  0  0
 53 52  1  0  0  0  0
 53 55  1  0  0  0  0
 54 53  1  0  0  0  0
 56 53  1  0  0  0  0
 57 59  1  0  0  0  0
 57 58  1  0  0  0  0
 60 57  1  0  0  0  0
 61 63  1  0  0  0  0
 61 64  1  0  0  0  0
 62 61  1  0  0  0  0
M  END
