5,10
q = -2.0, confidence = 0.746

 10 13  0  0  1  0  0  0  0  0999 V2000
    1.6148    3.5691   -2.3086 C   0  0  1  0  0  0  0  0  0  0  0  0
    2.6636    3.8352   -1.4225 C   0  0  0  0  0  0  0  0  0  0  0  0
    1.5045    4.2872   -0.8319 C   0  0  1  0  0  0  0  0  0  0  0  0
    0.1021    4.4700   -1.0302 C   0  0  1  0  0  0  0  0  0  0  0  0
    0.2804    3.7390   -2.3849 C   0  0  0  0  0  0  0  0  0  0  0  0
   -0.9525    4.3969   -0.0980 C   0  0  1  0  0  0  0  0  0  0  0  0
   -2.3177    4.6737    0.0254 C   0  0  2  0  0  0  0  0  0  0  0  0
   -3.3592    4.2580    0.7878 C   0  0  0  0  0  0  0  0  0  0  0  0
   -2.4493    3.2355    0.8628 C   0  0  2  0  0  0  0  0  0  0  0  0
   -1.1449    2.9760    0.6189 C   0  0  0  0  0  0  0  0  0  0  0  0
  1  5  1  6  0  0  0
  1  2  1  0  0  0  0
  1  3  1  0  0  0  0
  3  2  1  6  0  0  0
  4  5  1  6  0  0  0
  4  3  1  0  0  0  0
  4  6  1  0  0  0  0
  6  7  1  0  0  0  0
  6 10  1  6  0  0  0
  7  8  1  1  0  0  0
  7  9  1  0  0  0  0
  8  9  1  0  0  0  0
  9 10  1  1  0  0  0
M  END
