8,16
q = 0.0, confidence = 1.0

 42 44  0  0  1  0  0  0  0  0999 V2000
    6.2434    0.1141    0.3298 S   0  0  0  0  0  0  0  0  0  0  0  0
   -1.9075    3.6577    0.5444 C   0  0  0  0  0  0  0  0  0  0  0  0
   -2.4727    2.7959   -0.4336 O   0  0  0  0  0  0  0  0  0  0  0  0
   -1.8519    1.6200   -0.6642 C   0  0  0  0  0  0  0  0  0  0  0  0
   -2.6477    0.6045   -1.3178 C   0  0  0  0  0  0  0  0  0  0  0  0
   -3.9141    0.9573   -1.6208 O   0  0  0  0  0  0  0  0  0  0  0  0
   -4.8446   -0.0836   -1.8856 C   0  0  0  0  0  0  0  0  0  0  0  0
   -2.0695   -0.6631   -1.5793 C   0  0  0  0  0  3  0  0  0  0  0  0
   -0.7030   -0.9551   -1.2449 C   0  0  0  0  0  0  0  0  0  0  0  0
   -0.1166   -2.3131   -1.5679 C   0  0  0  0  0  0  0  0  0  0  0  0
    1.4172   -2.3042   -1.4351 C   0  0  0  0  0  0  0  0  0  0  0  0
    1.8918   -1.6374   -0.2311 N   0  0  0  0  0  0  0  0  0  0  0  0
    1.6207   -2.3658    1.0010 C   0  0  0  0  0  0  0  0  0  0  0  0
    1.5307   -0.2217   -0.2068 C   0  0  2  0  0  0  0  0  0  0  0  0
    0.0737    0.0363   -0.5874 C   0  0  0  0  0  0  0  0  0  0  0  0
   -0.5192    1.3126   -0.2954 C   0  0  0  0  0  3  0  0  0  0  0  0
    2.4808    0.6189   -1.1040 C   0  0  0  0  0  0  0  0  0  0  0  0
    3.8891    0.7130   -0.5759 C   0  0  0  0  0  0  0  0  0  0  0  0
    4.6994   -0.3742   -0.2793 C   0  0  0  0  0  0  0  0  0  0  0  0
    4.5543    1.9548   -0.2961 C   0  0  0  0  0  0  0  0  0  0  0  0
    5.8336    1.7905    0.1977 C   0  0  0  0  0  0  0  0  0  0  0  0
   -2.6341    4.4767    0.6934 H   0  0  0  0  0  0  0  0  0  0  0  0
   -0.9404    4.0918    0.2071 H   0  0  0  0  0  0  0  0  0  0  0  0
   -1.7557    3.1150    1.5033 H   0  0  0  0  0  0  0  0  0  0  0  0
   -5.8371    0.3976   -1.9517 H   0  0  0  0  0  0  0  0  0  0  0  0
   -4.8458   -0.8277   -1.0592 H   0  0  0  0  0  0  0  0  0  0  0  0
   -4.6288   -0.5981   -2.8479 H   0  0  0  0  0  0  0  0  0  0  0  0
   -2.6744   -1.4537   -2.0414 H   0  0  0  0  0  0  0  0  0  0  0  0
   -0.4072   -2.6001   -2.6009 H   0  0  0  0  0  0  0  0  0  0  0  0
   -0.5632   -3.0791   -0.8999 H   0  0  0  0  0  0  0  0  0  0  0  0
    1.8087   -3.3420   -1.4501 H   0  0  0  0  0  0  0  0  0  0  0  0
    1.8573   -1.7901   -2.3169 H   0  0  0  0  0  0  0  0  0  0  0  0
    2.0735   -1.8255    1.8554 H   0  0  0  0  0  0  0  0  0  0  0  0
    2.0921   -3.3687    0.9441 H   0  0  0  0  0  0  0  0  0  0  0  0
    0.5376   -2.5059    1.2312 H   0  0  0  0  0  0  0  0  0  0  0  0
    1.6736    0.1351    0.8342 H   0  0  0  0  0  0  0  0  0  0  0  0
    0.0778    2.0565    0.2485 H   0  0  0  0  0  0  0  0  0  0  0  0
    2.0654    1.6416   -1.2050 H   0  0  0  0  0  0  0  0  0  0  0  0
    2.4681    0.1920   -2.1302 H   0  0  0  0  0  0  0  0  0  0  0  0
    4.4369   -1.4336   -0.3747 H   0  0  0  0  0  0  0  0  0  0  0  0
    4.0935    2.9399   -0.4592 H   0  0  0  0  0  0  0  0  0  0  0  0
    6.5558    2.5608    0.4934 H   0  0  0  0  0  0  0  0  0  0  0  0
  2 22  1  0  0  0  0
  2 24  1  0  0  0  0
  3  2  1  0  0  0  0
  4  3  1  0  0  0  0
  4 16  1  0  0  0  0
  5  4  2  0  0  0  0
  6  5  1  0  0  0  0
  7  6  1  0  0  0  0
  7 26  1  0  0  0  0
  8  5  1  0  0  0  0
  8  9  1  0  0  0  0
  9 15  2  0  0  0  0
 10 11  1  0  0  0  0
 10  9  1  0  0  0  0
 10 30  1  0  0  0  0
 11 12  1  0  0  0  0
 12 14  1  0  0  0  0
 12 13  1  0  0  0  0
 13 35  1  0  0  0  0
 13 33  1  0  0  0  0
 14 36  1  1  0  0  0
 15 16  1  0  0  0  0
 15 14  1  0  0  0  0
 16 37  1  0  0  0  0
 17 18  1  0  0  0  0
 17 14  1  0  0  0  0
 18 20  1  0  0  0  0
 18 19  2  0  0  0  0
 19  1  1  0  0  0  0
 20 21  2  0  0  0  0
 21  1  1  0  0  0  0
 21 42  1  0  0  0  0
 23  2  1  0  0  0  0
 25  7  1  0  0  0  0
 27  7  1  0  0  0  0
 28  8  1  0  0  0  0
 29 10  1  0  0  0  0
 31 11  1  0  0  0  0
 32 11  1  0  0  0  0
 34 13  1  0  0  0  0
 38 17  1  0  0  0  0
 39 17  1  0  0  0  0
 40 19  1  0  0  0  0
 41 20  1  0  0  0  0
M  END
