6,14
q = -2.0, confidence = 0.55

 53 55  0  0  1  0  0  0  0  0999 V2000
    1.8408    0.4638   -0.7200 Si  0  0  0  0  0  0  0  0  0  0  0  0
    3.8593   -0.2839    1.5564 O   0  0  0  0  0  0  0  0  0  0  0  0
    2.5295    0.1328    3.3482 O   0  0  0  0  0  0  0  0  0  0  0  0
   -0.1474   -1.1353    3.6101 O   0  0  0  0  0  0  0  0  0  0  0  0
   -0.6218    1.0743    3.3971 O   0  0  0  0  0  0  0  0  0  0  0  0
   -0.7035    1.6479   -0.4624 C   0  0  0  0  0  2  0  0  0  0  0  0
    0.5344    1.7848   -1.0164 C   0  0  0  0  0  3  0  0  0  0  0  0
   -1.6275    2.7891   -0.2868 C   0  0  0  0  0  0  0  0  0  0  0  0
   -2.2763    2.9766    0.9589 C   0  0  0  0  0  0  0  0  0  0  0  0
   -3.1528    4.0528    1.1520 C   0  0  0  0  0  0  0  0  0  0  0  0
   -3.4183    4.9532    0.1049 C   0  0  0  0  0  0  0  0  0  0  0  0
   -2.7729    4.7859   -1.1309 C   0  0  0  0  0  0  0  0  0  0  0  0
   -1.8770    3.7228   -1.3202 C   0  0  0  0  0  0  0  0  0  0  0  0
    0.2727   -0.0698    1.5022 C   0  0  0  0  0  2  0  0  0  0  0  0
    1.5800    0.0439    1.1188 C   0  0  2  0  0  3  0  0  0  0  0  0
   -0.1820    0.0426    2.9185 C   0  0  0  0  0  0  0  0  0  0  0  0
   -0.4305   -1.0213    5.0096 C   0  0  0  0  0  0  0  0  0  0  0  0
    2.6530   -0.0057    2.1378 C   0  0  0  0  0  0  0  0  0  0  0  0
    4.9822   -0.3053    2.4356 C   0  0  0  0  0  0  0  0  0  0  0  0
    1.6525   -1.0920   -1.7880 C   0  0  0  0  0  0  0  0  0  0  0  0
    2.4197   -2.2469   -1.5114 C   0  0  0  0  0  0  0  0  0  0  0  0
    2.2752   -3.4137   -2.2804 C   0  0  0  0  0  0  0  0  0  0  0  0
    1.3593   -3.4445   -3.3457 C   0  0  0  0  0  0  0  0  0  0  0  0
    0.5953   -2.3023   -3.6409 C   0  0  0  0  0  0  0  0  0  0  0  0
    0.7437   -1.1397   -2.8671 C   0  0  0  0  0  0  0  0  0  0  0  0
    3.5454    1.2335   -1.0196 C   0  0  0  0  0  0  0  0  0  0  0  0
    4.5099    0.6687   -1.8800 C   0  0  0  0  0  0  0  0  0  0  0  0
    5.7701    1.2667   -2.0472 C   0  0  0  0  0  0  0  0  0  0  0  0
    6.0867    2.4458   -1.3547 C   0  0  0  0  0  0  0  0  0  0  0  0
    5.1363    3.0266   -0.4980 C   0  0  0  0  0  0  0  0  0  0  0  0
    3.8796    2.4254   -0.3357 C   0  0  0  0  0  0  0  0  0  0  0  0
    0.8575    2.7816   -1.3816 H   0  0  0  0  0  0  0  0  0  0  0  0
   -2.0511    2.2767    1.7793 H   0  0  0  0  0  0  0  0  0  0  0  0
   -3.6360    4.1902    2.1317 H   0  0  0  0  0  0  0  0  0  0  0  0
   -4.1205    5.7876    0.2545 H   0  0  0  0  0  0  0  0  0  0  0  0
   -2.9662    5.4912   -1.9543 H   0  0  0  0  0  0  0  0  0  0  0  0
   -1.3598    3.6031   -2.2856 H   0  0  0  0  0  0  0  0  0  0  0  0
   -1.3936   -0.5006    5.1816 H   0  0  0  0  0  0  0  0  0  0  0  0
   -0.4673   -2.0536    5.4026 H   0  0  0  0  0  0  0  0  0  0  0  0
    0.3780   -0.4496    5.5083 H   0  0  0  0  0  0  0  0  0  0  0  0
    4.8707   -1.0929    3.2092 H   0  0  0  0  0  0  0  0  0  0  0  0
    5.8643   -0.5058    1.8010 H   0  0  0  0  0  0  0  0  0  0  0  0
    5.0970    0.6694    2.9525 H   0  0  0  0  0  0  0  0  0  0  0  0
    3.1398   -2.2285   -0.6762 H   0  0  0  0  0  0  0  0  0  0  0  0
    2.8799   -4.3045   -2.0489 H   0  0  0  0  0  0  0  0  0  0  0  0
    1.2450   -4.3581   -3.9495 H   0  0  0  0  0  0  0  0  0  0  0  0
   -0.1171   -2.3193   -4.4814 H   0  0  0  0  0  0  0  0  0  0  0  0
    0.1472   -0.2426   -3.0954 H   0  0  0  0  0  0  0  0  0  0  0  0
    4.2747   -0.2576   -2.4285 H   0  0  0  0  0  0  0  0  0  0  0  0
    6.5096    0.8098   -2.7236 H   0  0  0  0  0  0  0  0  0  0  0  0
    7.0742    2.9155   -1.4842 H   0  0  0  0  0  0  0  0  0  0  0  0
    5.3776    3.9533    0.0459 H   0  0  0  0  0  0  0  0  0  0  0  0
    3.1445    2.8894    0.3434 H   0  0  0  0  0  0  0  0  0  0  0  0
  1 15  1  0  0  0  0
  2 18  1  0  0  0  0
  2 19  1  0  0  0  0
  4 17  1  0  0  0  0
  6  8  1  0  0  0  0
  7  1  1  0  0  0  0
  7  6  1  0  0  0  0
  8  9  1  0  0  0  0
  9 10  2  0  0  0  0
  9 33  1  0  0  0  0
 10 34  1  0  0  0  0
 11 35  1  0  0  0  0
 11 10  1  0  0  0  0
 12 11  2  0  0  0  0
 13 12  1  0  0  0  0
 13  8  2  0  0  0  0
 14 16  1  0  0  0  0
 15 14  1  1  0  0  0
 15 18  1  0  0  0  0
 16  5  2  0  0  0  0
 16  4  1  0  0  0  0
 17 38  1  0  0  0  0
 17 39  1  0  0  0  0
 17 40  1  0  0  0  0
 18  3  2  0  0  0  0
 19 43  1  0  0  0  0
 19 41  1  0  0  0  0
 20 21  1  0  0  0  0
 20  1  1  0  0  0  0
 21 44  1  0  0  0  0
 22 45  1  0  0  0  0
 22 21  2  0  0  0  0
 23 22  1  0  0  0  0
 24 23  2  0  0  0  0
 24 25  1  0  0  0  0
 25 20  2  0  0  0  0
 26  1  1  0  0  0  0
 26 31  1  0  0  0  0
 27 26  2  0  0  0  0
 28 27  1  0  0  0  0
 28 29  2  0  0  0  0
 29 30  1  0  0  0  0
 30 31  2  0  0  0  0
 30 52  1  0  0  0  0
 31 53  1  0  0  0  0
 32  7  1  0  0  0  0
 36 12  1  0  0  0  0
 37 13  1  0  0  0  0
 42 19  1  0  0  0  0
 46 23  1  0  0  0  0
 47 24  1  0  0  0  0
 48 25  1  0  0  0  0
 49 27  1  0  0  0  0
 50 28  1  0  0  0  0
 51 29  1  0  0  0  0
M  END
