29,30
q = -2.0, confidence = 0.59

 52 53  0  0  1  0  0  0  0  0999 V2000
   -1.7901   -0.5555    0.2170 Si  0  0  0  0  0  0  0  0  0  0  0  0
   -2.2861    3.0254   -1.7482 O   0  0  0  0  0  0  0  0  0  0  0  0
    0.8399    3.1826   -2.1192 O   0  0  0  0  0  0  0  0  0  0  0  0
    0.3121    1.7963    3.6069 O   0  0  0  0  0  0  0  0  0  0  0  0
    2.2382    0.6808    3.2147 O   0  0  0  0  0  0  0  0  0  0  0  0
   -3.4082    1.0618   -1.9177 O   0  0  0  0  0  0  0  0  0  0  0  0
    0.1049    3.6933   -0.0360 O   0  0  0  0  0  0  0  0  0  0  0  0
   -1.1492   -2.1455   -0.5906 C   0  0  0  0  0  0  0  0  0  0  0  0
   -0.2381   -4.5305   -1.8285 C   0  0  0  0  0  0  0  0  0  0  0  0
    1.0581    0.8811    2.9281 C   0  0  0  0  0  0  0  0  0  0  0  0
    1.0003    2.4997    4.6439 C   0  0  0  0  0  0  0  0  0  0  0  0
   -1.7852   -0.3185    3.1799 C   0  0  0  0  0  0  0  0  0  0  0  0
   -0.6087   -4.5364   -0.4731 C   0  0  0  0  0  0  0  0  0  0  0  0
   -4.4635    1.7576   -2.5789 C   0  0  0  0  0  0  0  0  0  0  0  0
   -5.7747    0.3028    1.1977 C   0  0  0  0  0  0  0  0  0  0  0  0
   -4.3897    0.3777    0.9949 C   0  0  0  0  0  0  0  0  0  0  0  0
   -6.4660   -0.8816    0.8892 C   0  0  0  0  0  0  0  0  0  0  0  0
   -2.3601    1.8291   -1.4998 C   0  0  0  0  0  0  0  0  0  0  0  0
   -4.3749   -1.8995    0.1737 C   0  0  0  0  0  0  0  0  0  0  0  0
   -3.6626   -0.7208    0.4786 C   0  0  0  0  0  0  0  0  0  0  0  0
    0.3168    2.8400   -1.0628 C   0  0  0  0  0  0  0  0  0  0  0  0
   -1.0567   -3.3531    0.1375 C   0  0  0  0  0  0  0  0  0  0  0  0
   -0.9799   -0.2065    1.9068 C   0  0  0  0  0  0  0  0  0  0  0  0
   -1.3574    1.0028   -0.7797 C   0  0  1  0  0  3  0  0  0  0  0  0
   -5.7631   -1.9825    0.3773 C   0  0  0  0  0  0  0  0  0  0  0  0
   -0.7824   -2.1628   -1.9541 C   0  0  0  0  0  0  0  0  0  0  0  0
   -0.3261   -3.3392   -2.5691 C   0  0  0  0  0  0  0  0  0  0  0  0
    0.3485    5.0716   -0.3273 C   0  0  0  0  0  0  0  0  0  0  0  0
    0.2987    0.2549    1.8174 C   0  0  0  0  0  3  0  0  0  0  0  0
   -0.0694    1.4553   -0.6699 C   0  0  0  0  0  2  0  0  0  0  0  0
    0.2681    3.2078    5.0722 H   0  0  0  0  0  0  0  0  0  0  0  0
    1.3674    1.8034    5.4257 H   0  0  0  0  0  0  0  0  0  0  0  0
    1.8749    3.0472    4.2369 H   0  0  0  0  0  0  0  0  0  0  0  0
   -2.5916    0.4449    3.2141 H   0  0  0  0  0  0  0  0  0  0  0  0
   -2.3027   -1.2997    3.2387 H   0  0  0  0  0  0  0  0  0  0  0  0
   -1.1658   -0.1875    4.0881 H   0  0  0  0  0  0  0  0  0  0  0  0
   -0.3487    5.4207   -1.1159 H   0  0  0  0  0  0  0  0  0  0  0  0
    0.1680    5.6196    0.6148 H   0  0  0  0  0  0  0  0  0  0  0  0
    1.3887    5.2341   -0.6760 H   0  0  0  0  0  0  0  0  0  0  0  0
   -5.2121    0.9918   -2.8504 H   0  0  0  0  0  0  0  0  0  0  0  0
   -4.9193    2.5134   -1.9065 H   0  0  0  0  0  0  0  0  0  0  0  0
   -4.0918    2.2811   -3.4835 H   0  0  0  0  0  0  0  0  0  0  0  0
   -0.8632   -1.2305   -2.5351 H   0  0  0  0  0  0  0  0  0  0  0  0
   -0.0452   -3.3312   -3.6343 H   0  0  0  0  0  0  0  0  0  0  0  0
    0.1163   -5.4559   -2.3081 H   0  0  0  0  0  0  0  0  0  0  0  0
   -0.5449   -5.4678    0.1110 H   0  0  0  0  0  0  0  0  0  0  0  0
   -1.3448   -3.3718    1.2018 H   0  0  0  0  0  0  0  0  0  0  0  0
   -3.8641    1.3181    1.2326 H   0  0  0  0  0  0  0  0  0  0  0  0
   -6.3205    1.1718    1.5976 H   0  0  0  0  0  0  0  0  0  0  0  0
   -7.5539   -0.9439    1.0477 H   0  0  0  0  0  0  0  0  0  0  0  0
   -6.2993   -2.9124    0.1309 H   0  0  0  0  0  0  0  0  0  0  0  0
   -3.8377   -2.7686   -0.2388 H   0  0  0  0  0  0  0  0  0  0  0  0
  1 20  1  0  0  0  0
  1 23  1  0  0  0  0
  2 18  2  0  0  0  0
  3 21  2  0  0  0  0
  4 11  1  0  0  0  0
  6 18  1  0  0  0  0
  8 22  1  0  0  0  0
  8  1  1  0  0  0  0
  9 13  1  0  0  0  0
 10  5  2  0  0  0  0
 10  4  1  0  0  0  0
 11 31  1  0  0  0  0
 11 32  1  0  0  0  0
 12 34  1  0  0  0  0
 12 35  1  0  0  0  0
 12 36  1  0  0  0  0
 13 46  1  0  0  0  0
 13 22  2  0  0  0  0
 14  6  1  0  0  0  0
 14 41  1  0  0  0  0
 15 49  1  0  0  0  0
 16 15  1  0  0  0  0
 16 48  1  0  0  0  0
 17 50  1  0  0  0  0
 17 15  2  0  0  0  0
 18 24  1  0  0  0  0
 19 25  2  0  0  0  0
 19 20  1  0  0  0  0
 20 16  2  0  0  0  0
 21 30  1  0  0  0  0
 21  7  1  0  0  0  0
 22 47  1  0  0  0  0
 23 12  1  0  0  0  0
 24 30  1  1  0  0  0
 24  1  1  0  0  0  0
 25 17  1  0  0  0  0
 26  8  2  0  0  0  0
 27 26  1  0  0  0  0
 27  9  2  0  0  0  0
 28  7  1  0  0  0  0
 28 38  1  0  0  0  0
 29 23  2  0  0  0  0
 29 10  1  0  0  0  0
 33 11  1  0  0  0  0
 37 28  1  0  0  0  0
 39 28  1  0  0  0  0
 40 14  1  0  0  0  0
 42 14  1  0  0  0  0
 43 26  1  0  0  0  0
 44 27  1  0  0  0  0
 45  9  1  0  0  0  0
 51 25  1  0  0  0  0
 52 19  1  0  0  0  0
M  END
