3,21
q = -2.0, confidence = 0.904

 36 37  0  0  0  0  0  0  0  0999 V2000
   -1.2467    1.8555   -1.2658 N   0  0  0  0  0  0  0  0  0  0  0  0
   -0.8250    2.1144   -2.1578 H   0  0  0  0  0  0  0  0  0  0  0  0
   -1.9912   -0.7410    0.0665 C   0  0  0  0  0  3  0  0  0  0  0  0
   -2.4569   -1.7579    0.9305 C   0  0  0  0  0  0  0  0  0  0  0  0
   -1.7477   -2.4954    1.3409 H   0  0  0  0  0  0  0  0  0  0  0  0
   -3.8113   -1.8613    1.2917 C   0  0  0  0  0  0  0  0  0  0  0  0
   -4.1429   -2.6647    1.9681 H   0  0  0  0  0  0  0  0  0  0  0  0
   -4.7324   -0.9300    0.7928 C   0  0  0  0  0  0  0  0  0  0  0  0
   -5.7948   -0.9888    1.0756 H   0  0  0  0  0  0  0  0  0  0  0  0
   -4.2890    0.0848   -0.0676 C   0  0  0  0  0  0  0  0  0  0  0  0
   -5.0108    0.8202   -0.4618 H   0  0  0  0  0  0  0  0  0  0  0  0
   -2.9347    0.1852   -0.4442 C   0  0  0  0  0  0  0  0  0  0  0  0
   -2.5518    1.2490   -1.4659 C   0  0  0  0  0  0  0  0  0  0  0  0
   -2.5328    0.7625   -2.4663 H   0  0  0  0  0  0  0  0  0  0  0  0
   -3.3744    2.0081   -1.5114 H   0  0  0  0  0  0  0  0  0  0  0  0
   -1.1325    2.9368   -0.2897 C   0  0  0  0  0  0  0  0  0  0  0  0
   -0.6648    3.8215   -0.7794 H   0  0  0  0  0  0  0  0  0  0  0  0
   -2.1394    3.2733    0.0476 H   0  0  0  0  0  0  0  0  0  0  0  0
    0.9821    2.0505    0.5300 N   0  0  0  0  0  0  0  0  0  0  0  0
    1.4588    2.6318   -0.1663 H   0  0  0  0  0  0  0  0  0  0  0  0
    2.2192   -0.5132   -0.1411 C   0  0  0  0  0  3  0  0  0  0  0  0
    3.0642   -1.4020   -0.8322 C   0  0  0  0  0  0  0  0  0  0  0  0
    2.6333   -2.1767   -1.4871 H   0  0  0  0  0  0  0  0  0  0  0  0
    4.4643   -1.3279   -0.7037 C   0  0  0  0  0  0  0  0  0  0  0  0
    5.1062   -2.0295   -1.2597 H   0  0  0  0  0  0  0  0  0  0  0  0
    5.0379   -0.3625    0.1346 C   0  0  0  0  0  0  0  0  0  0  0  0
    6.1318   -0.2963    0.2400 H   0  0  0  0  0  0  0  0  0  0  0  0
    4.2082    0.5279    0.8370 C   0  0  0  0  0  0  0  0  0  0  0  0
    4.6547    1.2929    1.4943 H   0  0  0  0  0  0  0  0  0  0  0  0
    2.8099    0.4605    0.7093 C   0  0  0  0  0  0  0  0  0  0  0  0
    1.9149    1.4426    1.4580 C   0  0  0  0  0  0  0  0  0  0  0  0
    2.5423    2.1702    2.0333 H   0  0  0  0  0  0  0  0  0  0  0  0
    1.3150    0.8932    2.2197 H   0  0  0  0  0  0  0  0  0  0  0  0
   -0.2873    2.5910    0.9525 C   0  0  0  0  0  0  0  0  0  0  0  0
   -0.2257    3.5099    1.5949 H   0  0  0  0  0  0  0  0  0  0  0  0
   -0.8120    1.8188    1.5583 H   0  0  0  0  0  0  0  0  0  0  0  0
  1 16  1  0  0  0  0
  2  1  1  0  0  0  0
  3  4  1  0  0  0  0
  4  6  2  0  0  0  0
  4  5  1  0  0  0  0
  6  7  1  0  0  0  0
  8  9  1  0  0  0  0
  8  6  1  0  0  0  0
 10  8  2  0  0  0  0
 11 10  1  0  0  0  0
 12 10  1  0  0  0  0
 12  3  2  0  0  0  0
 13  1  1  0  0  0  0
 13 12  1  0  0  0  0
 14 13  1  0  0  0  0
 15 13  1  0  0  0  0
 16 18  1  0  0  0  0
 16 34  1  0  0  0  0
 17 16  1  0  0  0  0
 19 34  1  0  0  0  0
 19 31  1  0  0  0  0
 20 19  1  0  0  0  0
 21 30  1  0  0  0  0
 22 24  1  0  0  0  0
 22 21  2  0  0  0  0
 23 22  1  0  0  0  0
 24 26  2  0  0  0  0
 25 24  1  0  0  0  0
 26 27  1  0  0  0  0
 26 28  1  0  0  0  0
 28 29  1  0  0  0  0
 30 28  2  0  0  0  0
 30 31  1  0  0  0  0
 31 32  1  0  0  0  0
 31 33  1  0  0  0  0
 34 36  1  0  0  0  0
 34 35  1  0  0  0  0
M  END
