3,14
q = -2.0, confidence = 0.676

 48 50  0  0  0  0  0  0  0  0999 V2000
    2.1782   -0.4247    0.9349 P   0  0  0  0  0  0  0  0  0  0  0  0
   -0.5563   -1.5675    2.3786 Si  0  0  0  0  0  0  0  0  0  0  0  0
   -0.5872   -0.5562    0.7763 C   0  0  0  0  0  3  0  0  0  0  0  0
    0.5304   -0.0887    0.1139 C   0  0  0  0  0  0  0  0  0  0  0  0
    0.4225    0.6965   -1.1555 C   0  0  0  0  0  0  0  0  0  0  0  0
    1.5507    1.1384   -1.8872 C   0  0  0  0  0  0  0  0  0  0  0  0
    2.5604    0.9146   -1.5218 H   0  0  0  0  0  0  0  0  0  0  0  0
    1.4055    1.8580   -3.0807 C   0  0  0  0  0  0  0  0  0  0  0  0
    2.3014    2.1900   -3.6273 H   0  0  0  0  0  0  0  0  0  0  0  0
    0.1248    2.1523   -3.5723 C   0  0  0  0  0  0  0  0  0  0  0  0
    0.0052    2.7195   -4.5090 H   0  0  0  0  0  0  0  0  0  0  0  0
   -1.0050    1.7132   -2.8587 C   0  0  0  0  0  0  0  0  0  0  0  0
   -2.0055    1.9495   -3.2642 H   0  0  0  0  0  0  0  0  0  0  0  0
   -0.8884    0.9896   -1.6582 C   0  0  0  0  0  3  0  0  0  0  0  0
   -2.3376   -2.0883    2.8288 C   0  0  0  0  0  0  0  0  0  0  0  0
   -2.7284   -2.8593    2.1350 H   0  0  0  0  0  0  0  0  0  0  0  0
   -3.0553   -1.2432    2.8435 H   0  0  0  0  0  0  0  0  0  0  0  0
   -2.3366   -2.5358    3.8447 H   0  0  0  0  0  0  0  0  0  0  0  0
    0.4064   -3.1949    2.1971 C   0  0  0  0  0  0  0  0  0  0  0  0
    0.0467   -3.7719    1.3201 H   0  0  0  0  0  0  0  0  0  0  0  0
    0.2652   -3.8259    3.0999 H   0  0  0  0  0  0  0  0  0  0  0  0
    1.4899   -3.0106    2.0615 H   0  0  0  0  0  0  0  0  0  0  0  0
    0.0920   -0.5629    3.8566 C   0  0  0  0  0  0  0  0  0  0  0  0
    0.0147   -1.1629    4.7877 H   0  0  0  0  0  0  0  0  0  0  0  0
   -0.4902    0.3694    4.0088 H   0  0  0  0  0  0  0  0  0  0  0  0
    1.1533   -0.2849    3.7054 H   0  0  0  0  0  0  0  0  0  0  0  0
    2.9593    1.2533    0.9614 C   0  0  0  0  0  0  0  0  0  0  0  0
    4.2295    1.5744    0.4408 C   0  0  0  0  0  0  0  0  0  0  0  0
    4.8145    0.8103   -0.0932 H   0  0  0  0  0  0  0  0  0  0  0  0
    4.7468    2.8726    0.5750 C   0  0  0  0  0  0  0  0  0  0  0  0
    5.7381    3.1065    0.1564 H   0  0  0  0  0  0  0  0  0  0  0  0
    4.0061    3.8709    1.2264 C   0  0  0  0  0  0  0  0  0  0  0  0
    4.4130    4.8886    1.3256 H   0  0  0  0  0  0  0  0  0  0  0  0
    2.7408    3.5594    1.7514 C   0  0  0  0  0  0  0  0  0  0  0  0
    2.1501    4.3336    2.2654 H   0  0  0  0  0  0  0  0  0  0  0  0
    2.2264    2.2618    1.6281 C   0  0  0  0  0  0  0  0  0  0  0  0
    1.2361    2.0216    2.0488 H   0  0  0  0  0  0  0  0  0  0  0  0
    3.1550   -1.4126   -0.2743 C   0  0  0  0  0  0  0  0  0  0  0  0
    2.5758   -1.9858   -1.4276 C   0  0  0  0  0  0  0  0  0  0  0  0
    1.5349   -1.7448   -1.6895 H   0  0  0  0  0  0  0  0  0  0  0  0
    3.3188   -2.8503   -2.2454 C   0  0  0  0  0  0  0  0  0  0  0  0
    2.8509   -3.2842   -3.1427 H   0  0  0  0  0  0  0  0  0  0  0  0
    4.6523   -3.1557   -1.9307 C   0  0  0  0  0  0  0  0  0  0  0  0
    5.2346   -3.8293   -2.5776 H   0  0  0  0  0  0  0  0  0  0  0  0
    5.2345   -2.6051   -0.7772 C   0  0  0  0  0  0  0  0  0  0  0  0
    6.2744   -2.8506   -0.5119 H   0  0  0  0  0  0  0  0  0  0  0  0
    4.4886   -1.7550    0.0519 C   0  0  0  0  0  0  0  0  0  0  0  0
    4.9430   -1.3612    0.9751 H   0  0  0  0  0  0  0  0  0  0  0  0
  1 27  1  0  0  0  0
  2 15  1  0  0  0  0
  2 23  1  0  0  0  0
  3  2  1  0  0  0  0
  4  3  2  0  0  0  0
  4  1  1  0  0  0  0
  5  4  1  0  0  0  0
  6  7  1  0  0  0  0
  6  5  2  0  0  0  0
  8  6  1  0  0  0  0
  9  8  1  0  0  0  0
 10  8  2  0  0  0  0
 10 12  1  0  0  0  0
 11 10  1  0  0  0  0
 12 14  2  0  0  0  0
 13 12  1  0  0  0  0
 14  5  1  0  0  0  0
 15 17  1  0  0  0  0
 15 18  1  0  0  0  0
 16 15  1  0  0  0  0
 19  2  1  0  0  0  0
 19 21  1  0  0  0  0
 20 19  1  0  0  0  0
 22 19  1  0  0  0  0
 23 25  1  0  0  0  0
 23 24  1  0  0  0  0
 26 23  1  0  0  0  0
 27 36  1  0  0  0  0
 28 30  1  0  0  0  0
 28 27  2  0  0  0  0
 29 28  1  0  0  0  0
 30 32  2  0  0  0  0
 31 30  1  0  0  0  0
 32 33  1  0  0  0  0
 32 34  1  0  0  0  0
 34 35  1  0  0  0  0
 36 34  2  0  0  0  0
 36 37  1  0  0  0  0
 38 47  1  0  0  0  0
 38  1  1  0  0  0  0
 39 38  2  0  0  0  0
 40 39  1  0  0  0  0
 41 43  2  0  0  0  0
 41 39  1  0  0  0  0
 42 41  1  0  0  0  0
 43 45  1  0  0  0  0
 44 43  1  0  0  0  0
 45 46  1  0  0  0  0
 45 47  2  0  0  0  0
 47 48  1  0  0  0  0
M  END
