6,10
q = -1.0, confidence = 0.002

 23 24  0  0  0  0  0  0  0  0999 V2000
    5.9847    0.2682    0.0024 O   0  0  0  0  0  0  0  0  0  0  0  0
    4.8374   -1.5904    0.0007 O   0  0  0  0  0  0  0  0  0  0  0  0
   -2.0612    2.6550    0.0085 N   0  0  0  0  0  0  0  0  0  0  0  0
    0.1085    2.5552    0.0012 N   0  0  0  0  0  0  0  0  0  0  0  0
    4.9253   -0.3659    0.0016 N   0  0  0  0  0  0  0  0  0  0  0  0
   -1.0240    1.7568   -0.0009 C   0  0  0  0  0  2  0  0  0  0  0  0
   -0.2137    3.9025    0.0125 C   0  0  0  0  0  0  0  0  0  0  0  0
   -1.5847    3.9663    0.0169 C   0  0  0  0  0  0  0  0  0  0  0  0
    1.3583    1.8854    0.0016 C   0  0  0  0  0  0  0  0  0  0  0  0
    1.2270    0.4655    0.0002 C   0  0  0  0  0  3  0  0  0  0  0  0
    2.4353   -0.2634    0.0010 C   0  0  0  0  0  0  0  0  0  0  0  0
    3.6613    0.4195    0.0017 C   0  0  0  0  0  0  0  0  0  0  0  0
    3.7651    1.8191    0.0024 C   0  0  0  0  0  0  0  0  0  0  0  0
    2.5839    2.5690    0.0026 C   0  0  0  0  0  0  0  0  0  0  0  0
   -3.4745    2.3044    0.0144 C   0  0  0  0  0  0  0  0  0  0  0  0
    0.5359    4.6984    0.0165 H   0  0  0  0  0  0  0  0  0  0  0  0
   -2.2590    4.8280    0.0244 H   0  0  0  0  0  0  0  0  0  0  0  0
    2.4203   -1.3670   -0.0001 H   0  0  0  0  0  0  0  0  0  0  0  0
    4.7586    2.2841    0.0030 H   0  0  0  0  0  0  0  0  0  0  0  0
    2.6294    3.6685    0.0028 H   0  0  0  0  0  0  0  0  0  0  0  0
   -3.9653    2.7128    0.9207 H   0  0  0  0  0  0  0  0  0  0  0  0
   -3.5621    1.1970    0.0064 H   0  0  0  0  0  0  0  0  0  0  0  0
   -3.9770    2.7269   -0.8789 H   0  0  0  0  0  0  0  0  0  0  0  0
  2  5  2  0  0  0  0
  3 15  1  0  0  0  0
  3  8  1  0  0  0  0
  4  9  1  0  0  0  0
  4  7  1  0  0  0  0
  5 12  1  0  0  0  0
  5  1  2  0  0  0  0
  6  4  1  0  0  0  0
  6  3  1  0  0  0  0
  7 16  1  0  0  0  0
  7  8  2  0  0  0  0
  8 17  1  0  0  0  0
  9 14  1  0  0  0  0
 10 11  1  0  0  0  0
 10  9  2  0  0  0  0
 11 12  2  0  0  0  0
 12 13  1  0  0  0  0
 13 14  2  0  0  0  0
 13 19  1  0  0  0  0
 14 20  1  0  0  0  0
 15 21  1  0  0  0  0
 18 11  1  0  0  0  0
 22 15  1  0  0  0  0
 23 15  1  0  0  0  0
M  END
