13
q = -2.0, confidence = 0.612

 38 39  0  0  1  0  0  0  0  0999 V2000
   -1.1469    1.5667   -1.3225 O   0  0  0  0  0  0  0  0  0  0  0  0
   -1.5651   -0.2278    0.0565 N   0  0  0  0  0  0  0  0  0  0  0  0
    0.5223   -1.1604    0.8178 C   0  0  1  0  0  3  0  0  0  0  0  0
    1.5231   -1.7021   -0.0645 C   0  0  1  0  0  3  0  0  0  0  0  0
    2.7771   -1.0354    0.2447 C   0  0  0  0  0  0  0  0  0  0  0  0
    2.5348   -0.0987    1.3036 C   0  0  0  0  0  0  0  0  0  0  0  0
    1.1305   -0.1688    1.6701 C   0  0  2  0  0  3  0  0  0  0  0  0
   -0.9530   -1.3825    0.7134 C   0  0  0  0  0  0  0  0  0  0  0  0
    1.3342   -2.7988   -1.0669 C   0  0  0  0  0  0  0  0  0  0  0  0
    4.0970   -1.3244   -0.4007 C   0  0  0  0  0  0  0  0  0  0  0  0
    3.5619    0.7621    1.9722 C   0  0  0  0  0  0  0  0  0  0  0  0
    0.4484    0.5854    2.7694 C   0  0  0  0  0  0  0  0  0  0  0  0
   -0.6971    0.6639   -0.6368 C   0  0  0  0  0  3  0  0  0  0  0  0
   -2.9846   -0.1458    0.0367 C   0  0  0  0  0  0  0  0  0  0  0  0
   -3.6722    1.0526   -0.2809 C   0  0  0  0  0  0  0  0  0  0  0  0
   -5.0710    1.0924   -0.2518 C   0  0  0  0  0  0  0  0  0  0  0  0
   -5.8276   -0.0396    0.0911 C   0  0  0  0  0  0  0  0  0  0  0  0
   -5.1550   -1.2264    0.4092 C   0  0  0  0  0  0  0  0  0  0  0  0
   -3.7540   -1.2845    0.3835 C   0  0  0  0  0  0  0  0  0  0  0  0
   -1.1567   -2.3196    0.1493 H   0  0  0  0  0  0  0  0  0  0  0  0
   -1.4025   -1.5145    1.7211 H   0  0  0  0  0  0  0  0  0  0  0  0
    1.9828   -2.6591   -1.9528 H   0  0  0  0  0  0  0  0  0  0  0  0
    0.2892   -2.8465   -1.4275 H   0  0  0  0  0  0  0  0  0  0  0  0
    1.5864   -3.7847   -0.6211 H   0  0  0  0  0  0  0  0  0  0  0  0
    3.9798   -1.5918   -1.4686 H   0  0  0  0  0  0  0  0  0  0  0  0
    4.6061   -2.1757    0.1010 H   0  0  0  0  0  0  0  0  0  0  0  0
    4.7756   -0.4520   -0.3475 H   0  0  0  0  0  0  0  0  0  0  0  0
    4.4054    0.9938    1.2946 H   0  0  0  0  0  0  0  0  0  0  0  0
    3.9791    0.2478    2.8643 H   0  0  0  0  0  0  0  0  0  0  0  0
    3.1324    1.7231    2.3141 H   0  0  0  0  0  0  0  0  0  0  0  0
   -0.6204    0.7544    2.5367 H   0  0  0  0  0  0  0  0  0  0  0  0
    0.9143    1.5758    2.9347 H   0  0  0  0  0  0  0  0  0  0  0  0
    0.5048    0.0261    3.7282 H   0  0  0  0  0  0  0  0  0  0  0  0
   -3.0980    1.9400   -0.5640 H   0  0  0  0  0  0  0  0  0  0  0  0
   -5.5774    2.0373   -0.5024 H   0  0  0  0  0  0  0  0  0  0  0  0
   -6.9267    0.0040    0.1101 H   0  0  0  0  0  0  0  0  0  0  0  0
   -5.7221   -2.1301    0.6808 H   0  0  0  0  0  0  0  0  0  0  0  0
   -3.2679   -2.2375    0.6280 H   0  0  0  0  0  0  0  0  0  0  0  0
  1 13  2  0  0  0  0
  2  8  1  0  0  0  0
  3  8  1  6  0  0  0
  3  7  1  0  0  0  0
  4  9  1  1  0  0  0
  4  5  1  0  0  0  0
  4  3  1  0  0  0  0
  5  6  2  0  0  0  0
  6  7  1  0  0  0  0
  6 11  1  0  0  0  0
  7 12  1  1  0  0  0
  8 21  1  0  0  0  0
  9 24  1  0  0  0  0
 10 27  1  0  0  0  0
 10 26  1  0  0  0  0
 10  5  1  0  0  0  0
 11 30  1  0  0  0  0
 11 29  1  0  0  0  0
 12 32  1  0  0  0  0
 12 33  1  0  0  0  0
 13  2  1  0  0  0  0
 14  2  1  0  0  0  0
 14 19  1  0  0  0  0
 15 16  1  0  0  0  0
 15 14  2  0  0  0  0
 16 17  2  0  0  0  0
 17 36  1  0  0  0  0
 17 18  1  0  0  0  0
 18 37  1  0  0  0  0
 19 18  2  0  0  0  0
 19 38  1  0  0  0  0
 20  8  1  0  0  0  0
 22  9  1  0  0  0  0
 23  9  1  0  0  0  0
 25 10  1  0  0  0  0
 28 11  1  0  0  0  0
 31 12  1  0  0  0  0
 34 15  1  0  0  0  0
 35 16  1  0  0  0  0
M  END
