1,3
q = -2.0, confidence = 0.518

 15 14  0  0  0  0  0  0  0  0999 V2000
    1.9784    1.6540   -0.1752 C   0  0  0  0  0  3  0  0  0  0  0  0
    1.2787    3.0287   -0.0392 C   0  0  0  0  0  0  0  0  0  0  0  0
   -0.1607    2.5577   -0.3670 C   0  0  0  0  0  3  0  0  0  0  0  0
    1.3569    3.5260    1.4106 C   0  0  0  0  0  0  0  0  0  0  0  0
    1.8168    4.1029   -0.9912 C   0  0  0  0  0  0  0  0  0  0  0  0
    2.7216    1.4357    0.6209 H   0  0  0  0  0  0  0  0  0  0  0  0
    2.4659    1.5214   -1.1664 H   0  0  0  0  0  0  0  0  0  0  0  0
   -0.4305    2.7403   -1.4310 H   0  0  0  0  0  0  0  0  0  0  0  0
   -0.9459    3.0047    0.2803 H   0  0  0  0  0  0  0  0  0  0  0  0
    0.7554    4.4491    1.5521 H   0  0  0  0  0  0  0  0  0  0  0  0
    0.9668    2.7531    2.1063 H   0  0  0  0  0  0  0  0  0  0  0  0
    2.4047    3.7512    1.7028 H   0  0  0  0  0  0  0  0  0  0  0  0
    1.2265    5.0420   -0.9153 H   0  0  0  0  0  0  0  0  0  0  0  0
    2.8782    4.3461   -0.7665 H   0  0  0  0  0  0  0  0  0  0  0  0
    1.7660    3.7567   -2.0449 H   0  0  0  0  0  0  0  0  0  0  0  0
  1  2  1  0  0  0  0
  1  6  1  0  0  0  0
  2  4  1  0  0  0  0
  3  2  1  0  0  0  0
  3  9  1  0  0  0  0
  4 10  1  0  0  0  0
  4 12  1  0  0  0  0
  4 11  1  0  0  0  0
  5 13  1  0  0  0  0
  5 14  1  0  0  0  0
  5  2  1  0  0  0  0
  7  1  1  0  0  0  0
  8  3  1  0  0  0  0
 15  5  1  0  0  0  0
M  END
