2,14
q = -1.0, confidence = 0.0

 36 38  0  0  0  0  0  0  0  0999 V2000
    1.7583    1.8335   -0.2003 C   0  0  0  0  0  3  0  0  0  0  0  0
    0.6222    2.4494   -0.8120 C   0  0  0  0  0  3  0  0  0  0  0  0
    0.5964    2.9053   -1.8079 H   0  0  0  0  0  0  0  0  0  0  0  0
   -0.4680    2.4325    0.1266 C   0  0  0  0  0  0  0  0  0  0  0  0
   -1.7913    2.9620    0.0815 C   0  0  0  0  0  0  0  0  0  0  0  0
   -2.1453    3.4790   -0.8213 H   0  0  0  0  0  0  0  0  0  0  0  0
   -2.6038    2.8288    1.1982 C   0  0  0  0  0  0  0  0  0  0  0  0
   -3.6189    3.2532    1.1850 H   0  0  0  0  0  0  0  0  0  0  0  0
   -2.1475    2.1617    2.3754 C   0  0  0  0  0  0  0  0  0  0  0  0
   -2.8144    2.1003    3.2487 H   0  0  0  0  0  0  0  0  0  0  0  0
   -0.8822    1.5950    2.4345 C   0  0  0  0  0  0  0  0  0  0  0  0
   -0.5326    1.0874    3.3455 H   0  0  0  0  0  0  0  0  0  0  0  0
   -0.0221    1.7089    1.3029 C   0  0  0  0  0  0  0  0  0  0  0  0
    1.3268    1.2707    1.0490 C   0  0  0  0  0  3  0  0  0  0  0  0
    1.9621    0.7382    1.7631 H   0  0  0  0  0  0  0  0  0  0  0  0
    3.1301    1.7541   -0.7414 C   0  0  0  0  0  0  0  0  0  0  0  0
    3.5264    2.6121   -1.7093 C   0  0  0  0  0  0  0  0  0  0  0  0
    2.8506    3.3816   -2.1102 H   0  0  0  0  0  0  0  0  0  0  0  0
    4.5427    2.5766   -2.1269 H   0  0  0  0  0  0  0  0  0  0  0  0
    4.0613    0.7241   -0.1198 C   0  0  0  0  0  0  0  0  0  0  0  0
    3.4300   -0.1345    0.2022 H   0  0  0  0  0  0  0  0  0  0  0  0
    4.7687    1.2730    1.1425 C   0  0  0  0  0  0  0  0  0  0  0  0
    5.4203    2.1206    0.8341 H   0  0  0  0  0  0  0  0  0  0  0  0
    4.0289    1.6993    1.8514 H   0  0  0  0  0  0  0  0  0  0  0  0
    5.6086    0.1878    1.8282 C   0  0  0  0  0  0  0  0  0  0  0  0
    6.1258    0.6075    2.7167 H   0  0  0  0  0  0  0  0  0  0  0  0
    4.9271   -0.6068    2.2084 H   0  0  0  0  0  0  0  0  0  0  0  0
    6.6225   -0.4361    0.8606 C   0  0  0  0  0  0  0  0  0  0  0  0
    7.3773    0.3341    0.5828 H   0  0  0  0  0  0  0  0  0  0  0  0
    7.1829   -1.2546    1.3599 H   0  0  0  0  0  0  0  0  0  0  0  0
    5.9398   -0.9490   -0.4142 C   0  0  0  0  0  0  0  0  0  0  0  0
    5.2714   -1.8011   -0.1570 H   0  0  0  0  0  0  0  0  0  0  0  0
    6.6944   -1.3489   -1.1236 H   0  0  0  0  0  0  0  0  0  0  0  0
    5.1057    0.1465   -1.0898 C   0  0  0  0  0  0  0  0  0  0  0  0
    4.5906   -0.2456   -1.9899 H   0  0  0  0  0  0  0  0  0  0  0  0
    5.7867    0.9571   -1.4326 H   0  0  0  0  0  0  0  0  0  0  0  0
  1 14  1  0  0  0  0
  2  1  1  0  0  0  0
  2  4  1  0  0  0  0
  3  2  1  0  0  0  0
  4 13  1  0  0  0  0
  5  4  2  0  0  0  0
  5  7  1  0  0  0  0
  6  5  1  0  0  0  0
  7  9  2  0  0  0  0
  8  7  1  0  0  0  0
  9 11  1  0  0  0  0
  9 10  1  0  0  0  0
 11 12  1  0  0  0  0
 13 11  2  0  0  0  0
 14 13  1  0  0  0  0
 14 15  1  0  0  0  0
 16  1  1  0  0  0  0
 16 20  1  0  0  0  0
 17 16  2  0  0  0  0
 18 17  1  0  0  0  0
 19 17  1  0  0  0  0
 20 21  1  0  0  0  0
 20 22  1  0  0  0  0
 22 25  1  0  0  0  0
 22 24  1  0  0  0  0
 23 22  1  0  0  0  0
 25 27  1  0  0  0  0
 25 26  1  0  0  0  0
 28 30  1  0  0  0  0
 28 25  1  0  0  0  0
 29 28  1  0  0  0  0
 31 32  1  0  0  0  0
 31 28  1  0  0  0  0
 33 31  1  0  0  0  0
 34 31  1  0  0  0  0
 34 20  1  0  0  0  0
 35 34  1  0  0  0  0
 36 34  1  0  0  0  0
M  END
