1,20
q = 0.0, confidence = 0.628

 20 21  0  0  0  0  0  0  0  0999 V2000
    0.8919    1.8922   -0.5545 C   0  0  0  0  0  2  0  0  0  0  0  0
    2.2171    2.1764   -0.9376 C   0  0  0  0  0  0  0  0  0  0  0  0
    2.8619    1.3860   -1.3563 H   0  0  0  0  0  0  0  0  0  0  0  0
    2.7684    3.4697   -0.8192 C   0  0  0  0  0  0  0  0  0  0  0  0
    3.8077    3.6540   -1.1353 H   0  0  0  0  0  0  0  0  0  0  0  0
    1.9949    4.5139   -0.2930 C   0  0  0  0  0  0  0  0  0  0  0  0
    2.4271    5.5191   -0.1704 H   0  0  0  0  0  0  0  0  0  0  0  0
    0.6492    4.2800    0.0351 C   0  0  0  0  0  0  0  0  0  0  0  0
    0.0224    5.1150    0.3875 H   0  0  0  0  0  0  0  0  0  0  0  0
    0.0895    2.9994   -0.1314 C   0  0  0  0  0  0  0  0  0  0  0  0
   -1.3468    2.6809   -0.0879 C   0  0  0  0  0  0  0  0  0  0  0  0
   -2.3790    3.6091    0.1433 C   0  0  0  0  0  0  0  0  0  0  0  0
   -2.1378    4.6295    0.4822 H   0  0  0  0  0  0  0  0  0  0  0  0
   -3.7168    3.2579   -0.1013 C   0  0  0  0  0  0  0  0  0  0  0  0
   -4.5213    3.9896    0.0710 H   0  0  0  0  0  0  0  0  0  0  0  0
   -4.0124    1.9847   -0.6077 C   0  0  0  0  0  0  0  0  0  0  0  0
   -5.0510    1.7144   -0.8572 H   0  0  0  0  0  0  0  0  0  0  0  0
   -2.9788    1.0409   -0.7890 C   0  0  0  0  0  0  0  0  0  0  0  0
   -3.2570    0.0542   -1.1884 H   0  0  0  0  0  0  0  0  0  0  0  0
   -1.6346    1.3365   -0.4939 C   0  0  0  0  0  2  0  0  0  0  0  0
  1 10  1  0  0  0  0
  2  4  2  0  0  0  0
  2  1  1  0  0  0  0
  3  2  1  0  0  0  0
  4  6  1  0  0  0  0
  5  4  1  0  0  0  0
  6  7  1  0  0  0  0
  6  8  2  0  0  0  0
  8  9  1  0  0  0  0
 10 11  2  0  0  0  0
 10  8  1  0  0  0  0
 11 12  1  0  0  0  0
 12 13  1  0  0  0  0
 14 15  1  0  0  0  0
 14 12  2  0  0  0  0
 16 14  1  0  0  0  0
 17 16  1  0  0  0  0
 18 16  2  0  0  0  0
 18 20  1  0  0  0  0
 19 18  1  0  0  0  0
 20 11  1  0  0  0  0
M  END
