1,3
q = 0.0, confidence = 0.506

  9  8  0  0  0  0  0  0  0  0999 V2000
   -2.6866   -1.1595   -0.0290 C   0  0  0  0  0  3  0  0  0  0  0  0
   -3.6791    0.0000    0.2051 C   0  0  0  0  0  0  0  0  0  0  0  0
   -2.6866    1.1595   -0.0292 C   0  0  0  0  0  3  0  0  0  0  0  0
   -2.6792   -1.9394    0.7646 H   0  0  0  0  0  0  0  0  0  0  0  0
   -2.8144   -1.6537   -1.0178 H   0  0  0  0  0  0  0  0  0  0  0  0
   -4.5686   -0.0000   -0.4643 H   0  0  0  0  0  0  0  0  0  0  0  0
   -4.0588    0.0001    1.2481 H   0  0  0  0  0  0  0  0  0  0  0  0
   -2.6794    1.9397    0.7641 H   0  0  0  0  0  0  0  0  0  0  0  0
   -2.8143    1.6533   -1.0182 H   0  0  0  0  0  0  0  0  0  0  0  0
  1  2  1  0  0  0  0
  1  4  1  0  0  0  0
  2  7  1  0  0  0  0
  3  2  1  0  0  0  0
  3  8  1  0  0  0  0
  5  1  1  0  0  0  0
  6  2  1  0  0  0  0
  9  3  1  0  0  0  0
M  END
