3,7
q = 0.0, confidence = 0.92

 19 20  0  0  1  0  0  0  0  0999 V2000
    3.8143   -0.0057   -0.0005 O   0  0  0  0  0  0  0  0  0  0  0  0
    1.5682   -0.1632   -1.6736 C   0  0  0  0  0  3  0  0  0  0  0  0
    1.8181    1.0402   -0.9765 C   0  0  0  0  0  3  0  0  0  0  0  0
    2.9952    1.1666    0.0028 C   0  0  1  0  0  0  0  0  0  0  0  0
    2.4677    1.3509    1.4287 C   0  0  0  0  0  0  0  0  0  0  0  0
    1.5694    0.1581    1.6737 C   0  0  0  0  0  3  0  0  0  0  0  0
    1.8156   -1.0460    0.9764 C   0  0  0  0  0  3  0  0  0  0  0  0
    2.9919   -1.1757   -0.0033 C   0  0  1  0  0  0  0  0  0  0  0  0
    2.4632   -1.3585   -1.4290 C   0  0  0  0  0  0  0  0  0  0  0  0
    0.9748   -0.1354   -2.6018 H   0  0  0  0  0  0  0  0  0  0  0  0
    1.4135    1.9893   -1.3635 H   0  0  0  0  0  0  0  0  0  0  0  0
    3.6563    2.0027   -0.3078 H   0  0  0  0  0  0  0  0  0  0  0  0
    3.3195    1.3728    2.1429 H   0  0  0  0  0  0  0  0  0  0  0  0
    1.8932    2.2908    1.5363 H   0  0  0  0  0  0  0  0  0  0  0  0
    0.9763    0.1320    2.6021 H   0  0  0  0  0  0  0  0  0  0  0  0
    1.4083   -1.9939    1.3634 H   0  0  0  0  0  0  0  0  0  0  0  0
    3.6507   -2.0137    0.3070 H   0  0  0  0  0  0  0  0  0  0  0  0
    1.8860   -2.2968   -1.5363 H   0  0  0  0  0  0  0  0  0  0  0  0
    3.3146   -1.3829   -2.1436 H   0  0  0  0  0  0  0  0  0  0  0  0
  1  4  1  0  0  0  0
  2  9  1  0  0  0  0
  2  3  1  0  0  0  0
  3  4  1  0  0  0  0
  4 12  1  6  0  0  0
  4  5  1  0  0  0  0
  5 14  1  0  0  0  0
  5  6  1  0  0  0  0
  5 13  1  0  0  0  0
  6 15  1  0  0  0  0
  7 16  1  0  0  0  0
  7  6  1  0  0  0  0
  8  1  1  0  0  0  0
  8 17  1  1  0  0  0
  8  7  1  0  0  0  0
  9  8  1  0  0  0  0
 10  2  1  0  0  0  0
 11  3  1  0  0  0  0
 18  9  1  0  0  0  0
 19  9  1  0  0  0  0
M  END
