1,10
q = -2.0, confidence = 0.762

 23 24  0  0  1  0  0  0  0  0999 V2000
    1.4336    1.3072   -0.3643 C   0  0  2  0  0  3  0  0  0  0  0  0
    0.9342    1.7269    0.9117 C   0  0  0  0  0  3  0  0  0  0  0  0
    1.3902    1.5243    1.8886 H   0  0  0  0  0  0  0  0  0  0  0  0
   -0.2726    2.4630    0.7015 C   0  0  0  0  0  0  0  0  0  0  0  0
   -0.8962    2.9054    1.4870 H   0  0  0  0  0  0  0  0  0  0  0  0
   -0.5484    2.4713   -0.6877 C   0  0  0  0  0  0  0  0  0  0  0  0
   -1.4245    2.9186   -1.1709 H   0  0  0  0  0  0  0  0  0  0  0  0
    0.4938    1.7517   -1.3487 C   0  0  0  0  0  3  0  0  0  0  0  0
    0.5603    1.5588   -2.4274 H   0  0  0  0  0  0  0  0  0  0  0  0
    1.4336   -1.3072   -0.3643 C   0  0  1  0  0  3  0  0  0  0  0  0
    0.9342   -1.7268    0.9118 C   0  0  0  0  0  3  0  0  0  0  0  0
    1.3902   -1.5243    1.8886 H   0  0  0  0  0  0  0  0  0  0  0  0
   -0.2726   -2.4629    0.7015 C   0  0  0  0  0  0  0  0  0  0  0  0
   -0.8962   -2.9054    1.4870 H   0  0  0  0  0  0  0  0  0  0  0  0
   -0.5484   -2.4713   -0.6876 C   0  0  0  0  0  0  0  0  0  0  0  0
   -1.4245   -2.9186   -1.1709 H   0  0  0  0  0  0  0  0  0  0  0  0
    0.4938   -1.7517   -1.3487 C   0  0  0  0  0  3  0  0  0  0  0  0
    0.5602   -1.5589   -2.4274 H   0  0  0  0  0  0  0  0  0  0  0  0
    2.6964   -0.0000   -0.7398 P   0  0  2  0  0  0  0  0  0  0  0  0
    3.6992   -0.0000    0.8212 C   0  0  0  0  0  0  0  0  0  0  0  0
    4.3488   -0.8974    0.8174 H   0  0  0  0  0  0  0  0  0  0  0  0
    3.0957    0.0000    1.7500 H   0  0  0  0  0  0  0  0  0  0  0  0
    4.3488    0.8973    0.8173 H   0  0  0  0  0  0  0  0  0  0  0  0
  1 19  1  1  0  0  0
  1  2  1  0  0  0  0
  2  3  1  0  0  0  0
  4  2  1  0  0  0  0
  4  5  1  0  0  0  0
  6  4  2  0  0  0  0
  7  6  1  0  0  0  0
  8  6  1  0  0  0  0
  8  1  1  0  0  0  0
  9  8  1  0  0  0  0
 10 19  1  1  0  0  0
 10 11  1  0  0  0  0
 11 12  1  0  0  0  0
 13 11  1  0  0  0  0
 13 14  1  0  0  0  0
 15 13  2  0  0  0  0
 16 15  1  0  0  0  0
 17 15  1  0  0  0  0
 17 10  1  0  0  0  0
 18 17  1  0  0  0  0
 19 20  1  1  0  0  0
 20 22  1  0  0  0  0
 21 20  1  0  0  0  0
 23 20  1  0  0  0  0
M  END
