5,12
q = 0.0, confidence = 1.0

 51 54  0  0  1  0  0  0  0  0999 V2000
    2.6077   -2.0638    2.3921 O   0  0  0  0  0  0  0  0  0  0  0  0
    2.7095   -2.4562    0.1681 O   0  0  0  0  0  0  0  0  0  0  0  0
    2.8296   -2.2922   -2.0827 O   0  0  0  0  0  0  0  0  0  0  0  0
   -0.6168   -1.1025   -1.3448 C   0  0  1  0  0  3  0  0  0  0  0  0
   -1.6159   -1.7694   -0.5626 C   0  0  2  0  0  3  0  0  0  0  0  0
   -1.6256   -1.6518    0.8757 C   0  0  0  0  0  0  0  0  0  0  0  0
   -0.7140   -0.7739    1.5434 C   0  0  0  0  0  0  0  0  0  0  0  0
    1.5213    0.6877    1.3216 C   0  0  2  0  0  0  0  0  0  0  0  0
    1.5767    2.0316    0.5832 C   0  0  0  0  0  0  0  0  0  0  0  0
    1.5662    1.9351   -0.7684 C   0  0  0  0  0  0  0  0  0  0  0  0
    1.5390    0.4980   -1.3224 C   0  0  1  0  0  0  0  0  0  0  0  0
    0.3415   -0.2513   -0.6685 C   0  0  2  0  0  3  0  0  0  0  0  0
    0.3081   -0.1097    0.7637 C   0  0  1  0  0  3  0  0  0  0  0  0
   -0.5787   -1.3518   -2.8341 C   0  0  0  0  0  0  0  0  0  0  0  0
   -2.6832   -2.6123   -1.2241 C   0  0  0  0  0  0  0  0  0  0  0  0
   -2.6214   -2.4785    1.6611 C   0  0  0  0  0  0  0  0  0  0  0  0
   -0.8925   -0.5599    3.0289 C   0  0  0  0  0  0  0  0  0  0  0  0
    1.6816    0.8595    2.8370 C   0  0  0  0  0  0  0  0  0  0  0  0
    1.5722    3.3089    1.3713 C   0  0  0  0  0  0  0  0  0  0  0  0
    1.5342    3.0983   -1.7175 C   0  0  0  0  0  0  0  0  0  0  0  0
    1.6880    0.5023   -2.8484 C   0  0  0  0  0  0  0  0  0  0  0  0
    2.6865   -1.6140    1.2788 C   0  0  0  0  0  0  0  0  0  0  0  0
    2.7592   -0.1606    0.8168 C   0  0  1  0  0  0  0  0  0  0  0  0
    2.7949   -0.2381   -0.7050 C   0  0  1  0  0  0  0  0  0  0  0  0
    2.7920   -1.7311   -1.0178 C   0  0  0  0  0  0  0  0  0  0  0  0
   -1.4042   -2.0070   -3.1509 H   0  0  0  0  0  0  0  0  0  0  0  0
   -0.6501   -0.4233   -3.4253 H   0  0  0  0  0  0  0  0  0  0  0  0
    0.3626   -1.8655   -3.1061 H   0  0  0  0  0  0  0  0  0  0  0  0
   -3.5880   -2.6830   -0.5975 H   0  0  0  0  0  0  0  0  0  0  0  0
   -3.0053   -2.1801   -2.1870 H   0  0  0  0  0  0  0  0  0  0  0  0
   -2.3211   -3.6451   -1.4161 H   0  0  0  0  0  0  0  0  0  0  0  0
   -3.6416   -2.0425    1.6444 H   0  0  0  0  0  0  0  0  0  0  0  0
   -2.6909   -3.4969    1.2347 H   0  0  0  0  0  0  0  0  0  0  0  0
   -2.3201   -2.5927    2.7158 H   0  0  0  0  0  0  0  0  0  0  0  0
   -0.6930    0.4822    3.3164 H   0  0  0  0  0  0  0  0  0  0  0  0
   -1.9348   -0.7652    3.3235 H   0  0  0  0  0  0  0  0  0  0  0  0
   -0.2281   -1.2199    3.6231 H   0  0  0  0  0  0  0  0  0  0  0  0
    0.9129    1.5172    3.2750 H   0  0  0  0  0  0  0  0  0  0  0  0
    1.6895   -0.1077    3.3643 H   0  0  0  0  0  0  0  0  0  0  0  0
    2.6627    1.3372    3.0275 H   0  0  0  0  0  0  0  0  0  0  0  0
    2.4251    3.3671    2.0785 H   0  0  0  0  0  0  0  0  0  0  0  0
    1.6266    4.1956    0.7156 H   0  0  0  0  0  0  0  0  0  0  0  0
    0.6453    3.4022    1.9744 H   0  0  0  0  0  0  0  0  0  0  0  0
    1.5157    4.0620   -1.1789 H   0  0  0  0  0  0  0  0  0  0  0  0
    2.4109    3.1158   -2.3974 H   0  0  0  0  0  0  0  0  0  0  0  0
    0.6309    3.0631   -2.3601 H   0  0  0  0  0  0  0  0  0  0  0  0
    0.8316    0.9855   -3.3485 H   0  0  0  0  0  0  0  0  0  0  0  0
    2.5928    1.0857   -3.1048 H   0  0  0  0  0  0  0  0  0  0  0  0
    1.8385   -0.5066   -3.2599 H   0  0  0  0  0  0  0  0  0  0  0  0
    3.6738    0.2939    1.2460 H   0  0  0  0  0  0  0  0  0  0  0  0
    3.7046    0.2127   -1.1475 H   0  0  0  0  0  0  0  0  0  0  0  0
  2 22  1  0  0  0  0
  3 25  2  0  0  0  0
  4 14  1  1  0  0  0
  4 12  1  0  0  0  0
  4  5  1  0  0  0  0
  5 15  1  1  0  0  0
  5  6  1  0  0  0  0
  6  7  2  0  0  0  0
  6 16  1  0  0  0  0
  7 17  1  0  0  0  0
  8 18  1  1  0  0  0
  9  8  1  0  0  0  0
  9 19  1  0  0  0  0
 10  9  2  0  0  0  0
 11 21  1  6  0  0  0
 11 10  1  0  0  0  0
 11 24  1  0  0  0  0
 11 12  1  0  0  0  0
 12 13  1  0  0  0  0
 13  8  1  0  0  0  0
 13  7  1  0  0  0  0
 15 29  1  0  0  0  0
 16 34  1  0  0  0  0
 17 35  1  0  0  0  0
 17 36  1  0  0  0  0
 17 37  1  0  0  0  0
 18 40  1  0  0  0  0
 18 38  1  0  0  0  0
 18 39  1  0  0  0  0
 19 43  1  0  0  0  0
 19 41  1  0  0  0  0
 20 44  1  0  0  0  0
 20 10  1  0  0  0  0
 22  1  2  0  0  0  0
 23 50  1  0  0  0  0
 23 22  1  0  0  0  0
 23  8  1  0  0  0  0
 24 23  1  0  0  0  0
 25 24  1  0  0  0  0
 25  2  1  0  0  0  0
 26 14  1  0  0  0  0
 27 14  1  0  0  0  0
 28 14  1  0  0  0  0
 30 15  1  0  0  0  0
 31 15  1  0  0  0  0
 32 16  1  0  0  0  0
 33 16  1  0  0  0  0
 42 19  1  0  0  0  0
 45 20  1  0  0  0  0
 46 20  1  0  0  0  0
 47 21  1  0  0  0  0
 48 21  1  0  0  0  0
 49 21  1  0  0  0  0
 51 24  1  0  0  0  0
M  END
