3,5
q = 0.0, confidence = 0.998

 29 30  0  0  1  0  0  0  0  0999 V2000
    0.2495    1.2778    0.0633 C   0  0  0  0  0  0  0  0  0  0  0  0
   -0.0034    0.2643   -0.9312 C   0  0  1  0  0  3  0  0  0  0  0  0
    0.9971    0.0009   -1.9219 C   0  0  0  0  0  3  0  0  0  0  0  0
    2.1899    0.7707   -1.9885 C   0  0  0  0  0  3  0  0  0  0  0  0
    2.4345    1.7476   -0.9863 C   0  0  0  0  0  3  0  0  0  0  0  0
    1.4598    2.0192    0.0180 C   0  0  0  0  0  0  0  0  0  0  0  0
   -0.8066    1.5029    1.1250 C   0  0  0  0  0  0  0  0  0  0  0  0
   -2.2372    1.2933    0.5917 C   0  0  2  0  0  0  0  0  0  0  0  0
   -2.3203   -0.0201   -0.1657 C   0  0  0  0  0  0  0  0  0  0  0  0
   -1.2539   -0.4764   -0.8812 C   0  0  0  0  0  0  0  0  0  0  0  0
   -3.5855   -0.7984   -0.2391 C   0  0  0  0  0  0  0  0  0  0  0  0
   -5.8431   -0.8740    0.4368 C   0  0  0  0  0  0  0  0  0  0  0  0
   -2.7170    2.4549   -0.2978 C   0  0  0  0  0  0  0  0  0  0  0  0
   -3.7417   -1.8461   -0.8461 O   0  0  0  0  0  0  0  0  0  0  0  0
   -4.5863   -0.1910    0.4604 O   0  0  0  0  0  0  0  0  0  0  0  0
    0.8221   -0.8048   -2.6495 H   0  0  0  0  0  0  0  0  0  0  0  0
    2.9515    0.5487   -2.7473 H   0  0  0  0  0  0  0  0  0  0  0  0
    3.3876    2.2950   -0.9788 H   0  0  0  0  0  0  0  0  0  0  0  0
    1.6669    2.7667    0.7962 H   0  0  0  0  0  0  0  0  0  0  0  0
   -0.6993    2.5233    1.5456 H   0  0  0  0  0  0  0  0  0  0  0  0
   -0.6321    0.7967    1.9628 H   0  0  0  0  0  0  0  0  0  0  0  0
   -2.9179    1.2293    1.4633 H   0  0  0  0  0  0  0  0  0  0  0  0
   -1.3612   -1.3987   -1.4732 H   0  0  0  0  0  0  0  0  0  0  0  0
   -6.5398   -0.2579    1.0326 H   0  0  0  0  0  0  0  0  0  0  0  0
   -5.7491   -1.8877    0.8763 H   0  0  0  0  0  0  0  0  0  0  0  0
   -6.2134   -0.9848   -0.6026 H   0  0  0  0  0  0  0  0  0  0  0  0
   -2.7070    3.4116    0.2638 H   0  0  0  0  0  0  0  0  0  0  0  0
   -3.7514    2.2744   -0.6495 H   0  0  0  0  0  0  0  0  0  0  0  0
   -2.0665    2.5702   -1.1891 H   0  0  0  0  0  0  0  0  0  0  0  0
  1  7  1  0  0  0  0
  2  3  1  1  0  0  0
  2 10  1  0  0  0  0
  2  1  1  0  0  0  0
  4  3  1  0  0  0  0
  4  5  1  0  0  0  0
  5 18  1  0  0  0  0
  5  6  1  0  0  0  0
  6  1  2  0  0  0  0
  6 19  1  0  0  0  0
  7 20  1  0  0  0  0
  7 21  1  0  0  0  0
  8  7  1  0  0  0  0
  8 22  1  1  0  0  0
  9  8  1  0  0  0  0
 10  9  2  0  0  0  0
 11  9  1  0  0  0  0
 11 15  1  0  0  0  0
 12 15  1  0  0  0  0
 12 25  1  0  0  0  0
 12 24  1  0  0  0  0
 13 27  1  0  0  0  0
 13  8  1  0  0  0  0
 14 11  2  0  0  0  0
 16  3  1  0  0  0  0
 17  4  1  0  0  0  0
 23 10  1  0  0  0  0
 26 12  1  0  0  0  0
 28 13  1  0  0  0  0
 29 13  1  0  0  0  0
M  END
