2,8
q = 0.0, confidence = 0.992

 38 41  0  0  1  0  0  0  0  0999 V2000
    0.5101    1.0878    0.7752 C   0  0  2  0  0  3  0  0  0  0  0  0
    0.9961   -0.1652    1.2520 C   0  0  0  0  0  3  0  0  0  0  0  0
    0.5274   -0.5754    2.1630 H   0  0  0  0  0  0  0  0  0  0  0  0
    2.3881   -0.6454    1.0038 C   0  0  0  0  0  0  0  0  0  0  0  0
    2.7069   -1.1220   -0.2863 C   0  0  0  0  0  0  0  0  0  0  0  0
    1.6383   -1.0838   -1.3247 C   0  0  0  0  0  3  0  0  0  0  0  0
    1.5157   -1.9984   -1.9296 H   0  0  0  0  0  0  0  0  0  0  0  0
    1.1443    0.1319   -1.8679 C   0  0  0  0  0  3  0  0  0  0  0  0
    0.6941    0.0925   -2.8763 H   0  0  0  0  0  0  0  0  0  0  0  0
    1.6717    1.4575   -1.4344 C   0  0  0  0  0  0  0  0  0  0  0  0
    1.3866    1.9151   -0.1284 C   0  0  0  0  0  0  0  0  0  0  0  0
   -0.5683    1.8192    1.5100 C   0  0  0  0  0  0  0  0  0  0  0  0
   -1.2035    2.9329    0.9116 C   0  0  0  0  0  0  0  0  0  0  0  0
   -0.8798    3.2525   -0.0869 H   0  0  0  0  0  0  0  0  0  0  0  0
   -2.2383    3.6151    1.5644 C   0  0  0  0  0  0  0  0  0  0  0  0
   -2.7184    4.4745    1.0708 H   0  0  0  0  0  0  0  0  0  0  0  0
   -2.6618    3.2112    2.8405 C   0  0  0  0  0  0  0  0  0  0  0  0
   -3.4717    3.7496    3.3561 H   0  0  0  0  0  0  0  0  0  0  0  0
   -2.0255    2.1234    3.4597 C   0  0  0  0  0  0  0  0  0  0  0  0
   -2.3277    1.8090    4.4709 H   0  0  0  0  0  0  0  0  0  0  0  0
   -0.9922    1.4405    2.8036 C   0  0  0  0  0  0  0  0  0  0  0  0
   -0.5046    0.5990    3.3160 H   0  0  0  0  0  0  0  0  0  0  0  0
    3.3574   -0.6824    2.0212 C   0  0  0  0  0  0  0  0  0  0  0  0
    3.0991   -0.3221    3.0294 H   0  0  0  0  0  0  0  0  0  0  0  0
    4.6419   -1.1836    1.7568 C   0  0  0  0  0  0  0  0  0  0  0  0
    5.3958   -1.2123    2.5583 H   0  0  0  0  0  0  0  0  0  0  0  0
    4.9584   -1.6596    0.4743 C   0  0  0  0  0  0  0  0  0  0  0  0
    5.9612   -2.0634    0.2672 H   0  0  0  0  0  0  0  0  0  0  0  0
    3.9912   -1.6318   -0.5429 C   0  0  0  0  0  0  0  0  0  0  0  0
    4.2307   -2.0163   -1.5466 H   0  0  0  0  0  0  0  0  0  0  0  0
    2.4569    2.2478   -2.2943 C   0  0  0  0  0  0  0  0  0  0  0  0
    2.6593    1.8914   -3.3165 H   0  0  0  0  0  0  0  0  0  0  0  0
    2.9802    3.4733   -1.8575 C   0  0  0  0  0  0  0  0  0  0  0  0
    3.5915    4.0846   -2.5388 H   0  0  0  0  0  0  0  0  0  0  0  0
    2.7202    3.9166   -0.5508 C   0  0  0  0  0  0  0  0  0  0  0  0
    3.1303    4.8756   -0.1994 H   0  0  0  0  0  0  0  0  0  0  0  0
    1.9240    3.1422    0.3053 C   0  0  0  0  0  0  0  0  0  0  0  0
    1.6984    3.4976    1.3221 H   0  0  0  0  0  0  0  0  0  0  0  0
  1  2  1  0  0  0  0
  1 12  1  1  0  0  0
  2  3  1  0  0  0  0
  4  2  1  0  0  0  0
  4 23  1  0  0  0  0
  5  4  2  0  0  0  0
  6  5  1  0  0  0  0
  7  6  1  0  0  0  0
  8 10  1  0  0  0  0
  8  6  1  0  0  0  0
  9  8  1  0  0  0  0
 10 11  1  0  0  0  0
 11 37  2  0  0  0  0
 11  1  1  0  0  0  0
 12 21  1  0  0  0  0
 13 12  2  0  0  0  0
 13 15  1  0  0  0  0
 14 13  1  0  0  0  0
 15 17  2  0  0  0  0
 16 15  1  0  0  0  0
 17 18  1  0  0  0  0
 17 19  1  0  0  0  0
 19 20  1  0  0  0  0
 21 22  1  0  0  0  0
 21 19  2  0  0  0  0
 23 24  1  0  0  0  0
 25 23  2  0  0  0  0
 25 26  1  0  0  0  0
 27 25  1  0  0  0  0
 28 27  1  0  0  0  0
 29  5  1  0  0  0  0
 29 27  2  0  0  0  0
 30 29  1  0  0  0  0
 31 33  1  0  0  0  0
 31 10  2  0  0  0  0
 32 31  1  0  0  0  0
 33 35  2  0  0  0  0
 34 33  1  0  0  0  0
 35 36  1  0  0  0  0
 35 37  1  0  0  0  0
 37 38  1  0  0  0  0
M  END
