5,22
q = 0.0, confidence = 0.928

 32 34  0  0  0  0  0  0  0  0999 V2000
   -0.8296    2.4821   -0.8476 N   0  0  0  0  0  0  0  0  0  0  0  0
   -2.9373    2.1469   -0.4315 N   0  0  0  0  0  0  0  0  0  0  0  0
    4.3834    0.6354   -0.1059 N   0  0  0  0  0  0  0  0  0  0  0  0
    6.0948   -0.7306    0.0331 N   0  0  0  0  0  0  0  0  0  0  0  0
   -1.7426    1.4972   -0.5189 C   0  0  0  0  0  2  0  0  0  0  0  0
   -2.7768    3.5047   -0.7176 C   0  0  0  0  0  0  0  0  0  0  0  0
   -3.6202    4.2017   -0.7084 H   0  0  0  0  0  0  0  0  0  0  0  0
   -1.4490    3.7203   -0.9750 C   0  0  0  0  0  0  0  0  0  0  0  0
   -0.9134    4.6398   -1.2254 H   0  0  0  0  0  0  0  0  0  0  0  0
   -4.1726    1.5478    0.0481 C   0  0  0  0  0  0  0  0  0  0  0  0
   -4.9195    1.4644   -0.7652 H   0  0  0  0  0  0  0  0  0  0  0  0
   -4.5888    2.1633    0.8682 H   0  0  0  0  0  0  0  0  0  0  0  0
   -3.9296    0.5474    0.4472 H   0  0  0  0  0  0  0  0  0  0  0  0
    0.5181    2.0869   -0.7834 C   0  0  0  0  0  0  0  0  0  0  0  0
    1.6024    2.9504   -0.9846 C   0  0  0  0  0  0  0  0  0  0  0  0
    1.4517    3.9961   -1.2887 H   0  0  0  0  0  0  0  0  0  0  0  0
    2.9024    2.4633   -0.7897 C   0  0  0  0  0  0  0  0  0  0  0  0
    3.7721    3.1086   -0.9769 H   0  0  0  0  0  0  0  0  0  0  0  0
    3.0608    1.1327   -0.3676 C   0  0  0  0  0  0  0  0  0  0  0  0
    1.9634    0.2716   -0.1683 C   0  0  0  0  0  0  0  0  0  0  0  0
    2.1316   -0.7337    0.2450 H   0  0  0  0  0  0  0  0  0  0  0  0
    0.6550    0.7163   -0.4115 C   0  0  0  0  0  3  0  0  0  0  0  0
    4.8214   -0.6073   -0.4000 C   0  0  0  0  0  3  0  0  0  0  0  0
    4.2414   -1.3722   -0.9256 H   0  0  0  0  0  0  0  0  0  0  0  0
    6.4825    0.4659    0.6118 C   0  0  0  0  0  0  0  0  0  0  0  0
    7.4769    0.6066    1.0469 H   0  0  0  0  0  0  0  0  0  0  0  0
    5.4094    1.3228    0.5284 C   0  0  0  0  0  0  0  0  0  0  0  0
    5.2748    2.3443    0.8952 H   0  0  0  0  0  0  0  0  0  0  0  0
    6.9279   -1.9248   -0.0937 C   0  0  0  0  0  0  0  0  0  0  0  0
    6.3527   -2.7174   -0.6036 H   0  0  0  0  0  0  0  0  0  0  0  0
    7.2275   -2.2826    0.9098 H   0  0  0  0  0  0  0  0  0  0  0  0
    7.8316   -1.6924   -0.6884 H   0  0  0  0  0  0  0  0  0  0  0  0
  1 14  1  0  0  0  0
  1  5  1  0  0  0  0
  2 10  1  0  0  0  0
  3 27  1  0  0  0  0
  4 25  1  0  0  0  0
  5  2  1  0  0  0  0
  6  7  1  0  0  0  0
  6  2  1  0  0  0  0
  8  1  1  0  0  0  0
  8  6  2  0  0  0  0
  9  8  1  0  0  0  0
 10 13  1  0  0  0  0
 10 12  1  0  0  0  0
 11 10  1  0  0  0  0
 14 22  1  0  0  0  0
 15 17  1  0  0  0  0
 15 14  2  0  0  0  0
 16 15  1  0  0  0  0
 17 19  2  0  0  0  0
 18 17  1  0  0  0  0
 19 20  1  0  0  0  0
 19  3  1  0  0  0  0
 20 21  1  0  0  0  0
 22 20  2  0  0  0  0
 23  3  1  0  0  0  0
 23  4  1  0  0  0  0
 24 23  1  0  0  0  0
 25 26  1  0  0  0  0
 27 25  2  0  0  0  0
 27 28  1  0  0  0  0
 29  4  1  0  0  0  0
 29 31  1  0  0  0  0
 30 29  1  0  0  0  0
 32 29  1  0  0  0  0
M  END
