2,9
q = -1.0, confidence = 0.002

 14 13  0  0  0  0  0  0  0  0999 V2000
   -0.0036    2.9225   -0.6062 S   0  0  0  0  0  0  0  0  0  0  0  0
   -0.0140    1.7484    0.6708 C   0  0  0  0  0  2  0  0  0  0  0  0
   -0.0449    2.2116    2.0114 C   0  0  0  0  0  0  0  0  0  0  0  0
   -0.0644    3.2940    2.2033 H   0  0  0  0  0  0  0  0  0  0  0  0
   -0.0469    1.3954    3.1431 C   0  0  0  0  0  0  0  0  0  0  0  0
   -0.0691    1.9080    4.1206 H   0  0  0  0  0  0  0  0  0  0  0  0
   -0.0168   -0.0180    3.1490 C   0  0  0  0  0  0  0  0  0  0  0  0
   -0.0131   -0.5294    4.1265 H   0  0  0  0  0  0  0  0  0  0  0  0
    0.0023   -0.7734    1.9906 C   0  0  0  0  0  3  0  0  0  0  0  0
    0.0282   -1.8718    2.1272 H   0  0  0  0  0  0  0  0  0  0  0  0
   -0.0208    4.5586    0.2093 C   0  0  0  0  0  0  0  0  0  0  0  0
    0.0002    5.2848   -0.6258 H   0  0  0  0  0  0  0  0  0  0  0  0
    0.8782    4.7072    0.8384 H   0  0  0  0  0  0  0  0  0  0  0  0
   -0.9486    4.7109    0.7944 H   0  0  0  0  0  0  0  0  0  0  0  0
  1 11  1  0  0  0  0
  1  2  1  0  0  0  0
  2  3  1  0  0  0  0
  3  4  1  0  0  0  0
  3  5  2  0  0  0  0
  5  7  1  0  0  0  0
  5  6  1  0  0  0  0
  7  8  1  0  0  0  0
  9 10  1  0  0  0  0
  9  7  2  0  0  0  0
 11 14  1  0  0  0  0
 11 13  1  0  0  0  0
 12 11  1  0  0  0  0
M  END
