3,9
q = -1.0, confidence = 0.0

 14 13  0  0  0  0  0  0  0  0999 V2000
   -0.5972    4.5728    0.6598 Br  0  0  0  0  0  0  0  0  0  0  0  0
    0.1448   -1.7225    2.6799 S   0  0  0  0  0  0  0  0  0  0  0  0
   -0.0094   -0.1734    1.9306 C   0  0  0  0  0  2  0  0  0  0  0  0
   -0.1684    0.9622    2.7693 C   0  0  0  0  0  0  0  0  0  0  0  0
   -0.1734    0.8271    3.8604 H   0  0  0  0  0  0  0  0  0  0  0  0
   -0.3664    2.2700    2.3343 C   0  0  0  0  0  0  0  0  0  0  0  0
   -0.5116    3.0454    3.1032 H   0  0  0  0  0  0  0  0  0  0  0  0
   -0.3591    2.6818    0.9812 C   0  0  0  0  0  0  0  0  0  0  0  0
   -0.1162    1.8463   -0.0868 C   0  0  0  0  0  3  0  0  0  0  0  0
   -0.0028    2.3224   -1.0780 H   0  0  0  0  0  0  0  0  0  0  0  0
    0.2285   -1.4237    4.4819 C   0  0  0  0  0  0  0  0  0  0  0  0
    1.0965   -0.7879    4.7436 H   0  0  0  0  0  0  0  0  0  0  0  0
    0.3704   -2.4287    4.9231 H   0  0  0  0  0  0  0  0  0  0  0  0
   -0.7157   -0.9926    4.8681 H   0  0  0  0  0  0  0  0  0  0  0  0
  1  8  1  0  0  0  0
  2 11  1  0  0  0  0
  3  2  1  0  0  0  0
  3  4  1  0  0  0  0
  4  5  1  0  0  0  0
  6  4  2  0  0  0  0
  6  7  1  0  0  0  0
  8  6  1  0  0  0  0
  9  8  2  0  0  0  0
 10  9  1  0  0  0  0
 11 12  1  0  0  0  0
 11 14  1  0  0  0  0
 11 13  1  0  0  0  0
M  END
