2,26
q = -2.0, confidence = 0.858

 68 71  0  0  0  0  0  0  0  0999 V2000
    1.2560   -0.7510   -1.4930 C   0  0  0  0  0  0  0  0  0  0  0  0
    0.7931    0.5290   -1.9402 C   0  0  0  0  0  3  0  0  0  0  0  0
    0.0653    0.7108   -2.7410 H   0  0  0  0  0  0  0  0  0  0  0  0
    1.5227    1.5404   -1.2443 C   0  0  0  0  0  0  0  0  0  0  0  0
    1.5383    3.0204   -1.4786 C   0  0  0  0  0  0  0  0  0  0  0  0
    0.5035    3.3931   -1.6206 H   0  0  0  0  0  0  0  0  0  0  0  0
    2.0827    3.2061   -2.4332 H   0  0  0  0  0  0  0  0  0  0  0  0
    2.2338    3.7557   -0.3243 C   0  0  0  0  0  0  0  0  0  0  0  0
    2.4050    4.8159   -0.6015 H   0  0  0  0  0  0  0  0  0  0  0  0
    1.5516    3.7554    0.5525 H   0  0  0  0  0  0  0  0  0  0  0  0
    3.5574    3.0781    0.0555 C   0  0  0  0  0  0  0  0  0  0  0  0
    4.0873    3.6696    0.8298 H   0  0  0  0  0  0  0  0  0  0  0  0
    4.2257    3.0572   -0.8347 H   0  0  0  0  0  0  0  0  0  0  0  0
    3.3356    1.6447    0.5682 C   0  0  0  0  0  0  0  0  0  0  0  0
    4.2979    1.0967    0.6318 H   0  0  0  0  0  0  0  0  0  0  0  0
    2.9275    1.6615    1.6029 H   0  0  0  0  0  0  0  0  0  0  0  0
    2.3790    0.8946   -0.3119 C   0  0  0  0  0  0  0  0  0  0  0  0
    2.1932   -0.5294   -0.4349 C   0  0  0  0  0  0  0  0  0  0  0  0
    0.7764   -2.0678   -2.0388 C   0  0  0  0  0  0  0  0  0  0  0  0
    1.1223   -2.8947   -1.3870 H   0  0  0  0  0  0  0  0  0  0  0  0
    1.2115   -2.2603   -3.0432 H   0  0  0  0  0  0  0  0  0  0  0  0
   -0.7577   -2.0315   -2.0844 C   0  0  0  0  0  0  0  0  0  0  0  0
   -1.1036   -1.3751   -2.9077 H   0  0  0  0  0  0  0  0  0  0  0  0
   -1.1848   -3.0372   -2.2874 H   0  0  0  0  0  0  0  0  0  0  0  0
   -1.2459   -1.4990   -0.7657 C   0  0  0  0  0  0  0  0  0  0  0  0
   -0.7886   -1.9595    0.5122 C   0  0  0  0  0  3  0  0  0  0  0  0
   -0.0665   -2.7676    0.6853 H   0  0  0  0  0  0  0  0  0  0  0  0
   -1.5308   -1.2865    1.5286 C   0  0  0  0  0  0  0  0  0  0  0  0
   -1.5501   -1.5454    3.0051 C   0  0  0  0  0  0  0  0  0  0  0  0
   -0.5841   -1.2036    3.4372 H   0  0  0  0  0  0  0  0  0  0  0  0
   -1.6021   -2.6407    3.1827 H   0  0  0  0  0  0  0  0  0  0  0  0
   -2.7222   -0.8196    3.6906 C   0  0  0  0  0  0  0  0  0  0  0  0
   -2.5501   -0.7920    4.7858 H   0  0  0  0  0  0  0  0  0  0  0  0
   -3.6632   -1.3940    3.5358 H   0  0  0  0  0  0  0  0  0  0  0  0
   -2.9104    0.6001    3.1372 C   0  0  0  0  0  0  0  0  0  0  0  0
   -3.6868    1.1420    3.7145 H   0  0  0  0  0  0  0  0  0  0  0  0
   -1.9624    1.1690    3.2494 H   0  0  0  0  0  0  0  0  0  0  0  0
   -3.2919    0.5675    1.6507 C   0  0  0  0  0  0  0  0  0  0  0  0
   -4.3315    0.1857    1.5314 H   0  0  0  0  0  0  0  0  0  0  0  0
   -3.2751    1.5876    1.2149 H   0  0  0  0  0  0  0  0  0  0  0  0
   -2.3621   -0.3265    0.8874 C   0  0  0  0  0  0  0  0  0  0  0  0
   -2.1877   -0.4474   -0.5383 C   0  0  0  0  0  0  0  0  0  0  0  0
    2.9430   -1.5889    0.3210 C   0  0  0  0  0  0  0  0  0  0  0  0
    2.2391   -2.3849    0.6443 H   0  0  0  0  0  0  0  0  0  0  0  0
    3.3423   -1.1536    1.2606 H   0  0  0  0  0  0  0  0  0  0  0  0
    4.0897   -2.2486   -0.4827 C   0  0  0  0  0  0  0  0  0  0  0  0
    3.6370   -2.6857   -1.4023 H   0  0  0  0  0  0  0  0  0  0  0  0
    5.1498   -1.2347   -0.9255 C   0  0  0  0  0  0  0  0  0  0  0  0
    5.9280   -1.7182   -1.5503 H   0  0  0  0  0  0  0  0  0  0  0  0
    5.6603   -0.7873   -0.0461 H   0  0  0  0  0  0  0  0  0  0  0  0
    4.7054   -0.4080   -1.5158 H   0  0  0  0  0  0  0  0  0  0  0  0
    4.7140   -3.3906    0.3263 C   0  0  0  0  0  0  0  0  0  0  0  0
    5.5129   -3.9037   -0.2468 H   0  0  0  0  0  0  0  0  0  0  0  0
    3.9578   -4.1506    0.6113 H   0  0  0  0  0  0  0  0  0  0  0  0
    5.1685   -3.0053    1.2638 H   0  0  0  0  0  0  0  0  0  0  0  0
   -2.9490    0.3029   -1.5927 C   0  0  0  0  0  0  0  0  0  0  0  0
   -2.2597    0.6106   -2.4075 H   0  0  0  0  0  0  0  0  0  0  0  0
   -3.3336    1.2496   -1.1598 H   0  0  0  0  0  0  0  0  0  0  0  0
   -4.1162   -0.4990   -2.2167 C   0  0  0  0  0  0  0  0  0  0  0  0
   -3.6802   -1.4219   -2.6643 H   0  0  0  0  0  0  0  0  0  0  0  0
   -5.1471   -0.9330   -1.1694 C   0  0  0  0  0  0  0  0  0  0  0  0
   -4.6847   -1.5459   -0.3697 H   0  0  0  0  0  0  0  0  0  0  0  0
   -5.9573   -1.5329   -1.6315 H   0  0  0  0  0  0  0  0  0  0  0  0
   -5.6175   -0.0486   -0.6893 H   0  0  0  0  0  0  0  0  0  0  0  0
   -4.7704    0.3097   -3.3421 C   0  0  0  0  0  0  0  0  0  0  0  0
   -4.0346    0.5938   -4.1223 H   0  0  0  0  0  0  0  0  0  0  0  0
   -5.2138    1.2478   -2.9455 H   0  0  0  0  0  0  0  0  0  0  0  0
   -5.5829   -0.2634   -3.8333 H   0  0  0  0  0  0  0  0  0  0  0  0
  1 18  2  0  0  0  0
  2  1  1  0  0  0  0
  2  4  1  0  0  0  0
  3  2  1  0  0  0  0
  4 17  2  0  0  0  0
  5  4  1  0  0  0  0
  5  8  1  0  0  0  0
  6  5  1  0  0  0  0
  7  5  1  0  0  0  0
  8 11  1  0  0  0  0
  8 10  1  0  0  0  0
  9  8  1  0  0  0  0
 11 14  1  0  0  0  0
 11 12  1  0  0  0  0
 13 11  1  0  0  0  0
 14 15  1  0  0  0  0
 14 16  1  0  0  0  0
 17 14  1  0  0  0  0
 18 17  1  0  0  0  0
 18 43  1  0  0  0  0
 19  1  1  0  0  0  0
 19 20  1  0  0  0  0
 21 19  1  0  0  0  0
 22 19  1  0  0  0  0
 22 25  1  0  0  0  0
 23 22  1  0  0  0  0
 24 22  1  0  0  0  0
 25 42  2  0  0  0  0
 25 26  1  0  0  0  0
 26 27  1  0  0  0  0
 26 28  1  0  0  0  0
 28 29  1  0  0  0  0
 29 31  1  0  0  0  0
 29 30  1  0  0  0  0
 29 32  1  0  0  0  0
 32 33  1  0  0  0  0
 34 32  1  0  0  0  0
 35 37  1  0  0  0  0
 35 32  1  0  0  0  0
 35 36  1  0  0  0  0
 38 35  1  0  0  0  0
 39 38  1  0  0  0  0
 40 38  1  0  0  0  0
 41 28  2  0  0  0  0
 41 38  1  0  0  0  0
 42 41  1  0  0  0  0
 43 44  1  0  0  0  0
 43 45  1  0  0  0  0
 46 43  1  0  0  0  0
 46 52  1  0  0  0  0
 47 46  1  0  0  0  0
 48 46  1  0  0  0  0
 48 50  1  0  0  0  0
 49 48  1  0  0  0  0
 51 48  1  0  0  0  0
 52 54  1  0  0  0  0
 52 55  1  0  0  0  0
 53 52  1  0  0  0  0
 56 58  1  0  0  0  0
 56 42  1  0  0  0  0
 57 56  1  0  0  0  0
 59 56  1  0  0  0  0
 59 61  1  0  0  0  0
 60 59  1  0  0  0  0
 61 64  1  0  0  0  0
 61 62  1  0  0  0  0
 63 61  1  0  0  0  0
 65 67  1  0  0  0  0
 65 59  1  0  0  0  0
 66 65  1  0  0  0  0
 68 65  1  0  0  0  0
M  END
