1
q = -2.0, confidence = 0.606

 70 74  0  0  1  0  0  0  0  0999 V2000
   -1.9008    1.3889    1.1154 C   0  0  0  0  0  3  0  0  0  0  0  0
   -1.9556    1.9527   -0.2297 C   0  0  0  0  0  0  0  0  0  0  0  0
   -1.1289    2.8672   -0.9558 C   0  0  0  0  0  0  0  0  0  0  0  0
   -0.2628    3.3442   -0.4875 H   0  0  0  0  0  0  0  0  0  0  0  0
   -1.4408    3.1870   -2.2713 C   0  0  0  0  0  0  0  0  0  0  0  0
   -0.7968    3.8966   -2.8124 H   0  0  0  0  0  0  0  0  0  0  0  0
   -2.5635    2.6262   -2.9358 C   0  0  0  0  0  0  0  0  0  0  0  0
   -2.7712    2.9001   -3.9803 H   0  0  0  0  0  0  0  0  0  0  0  0
   -3.3972    1.7403   -2.2672 C   0  0  0  0  0  0  0  0  0  0  0  0
   -4.2708    1.2976   -2.7676 H   0  0  0  0  0  0  0  0  0  0  0  0
   -3.1030    1.3947   -0.9277 C   0  0  0  0  0  0  0  0  0  0  0  0
   -3.7914    0.5132   -0.0174 C   0  0  0  0  0  0  0  0  0  0  0  0
   -4.9607   -0.2623   -0.1982 C   0  0  0  0  0  0  0  0  0  0  0  0
   -5.4792   -0.2521   -1.1681 H   0  0  0  0  0  0  0  0  0  0  0  0
   -5.4268   -1.0402    0.8529 C   0  0  0  0  0  0  0  0  0  0  0  0
   -6.3288   -1.6564    0.7274 H   0  0  0  0  0  0  0  0  0  0  0  0
   -4.7415   -1.0410    2.0963 C   0  0  0  0  0  0  0  0  0  0  0  0
   -5.1294   -1.6555    2.9226 H   0  0  0  0  0  0  0  0  0  0  0  0
   -3.5920   -0.2881    2.3028 C   0  0  0  0  0  0  0  0  0  0  0  0
   -3.1169   -0.3093    3.2887 H   0  0  0  0  0  0  0  0  0  0  0  0
   -3.0724    0.5276    1.2473 C   0  0  0  0  0  0  0  0  0  0  0  0
   -0.7072    1.4602    2.0984 C   0  0  0  0  0  0  0  0  0  0  0  0
   -1.1160    1.3456    3.5786 C   0  0  0  0  0  0  0  0  0  0  0  0
   -1.5138    0.3541    3.8507 H   0  0  0  0  0  0  0  0  0  0  0  0
   -1.8817    2.1056    3.8304 H   0  0  0  0  0  0  0  0  0  0  0  0
   -0.2292    1.5172    4.2199 H   0  0  0  0  0  0  0  0  0  0  0  0
    0.1308    2.7454    1.9749 C   0  0  0  0  0  0  0  0  0  0  0  0
    0.9016    2.7560    2.7704 H   0  0  0  0  0  0  0  0  0  0  0  0
   -0.5069    3.6432    2.0944 H   0  0  0  0  0  0  0  0  0  0  0  0
    0.6678    2.8284    1.0155 H   0  0  0  0  0  0  0  0  0  0  0  0
    0.0726    0.2316    1.6192 C   0  0  2  0  0  3  0  0  0  0  0  0
    0.9357    0.1899    0.4741 C   0  0  0  0  0  3  0  0  0  0  0  0
    1.3345    1.0642   -0.0490 H   0  0  0  0  0  0  0  0  0  0  0  0
    1.1919   -1.1775    0.1076 C   0  0  0  0  0  0  0  0  0  0  0  0
    0.4147   -1.9763    0.9920 C   0  0  0  0  0  0  0  0  0  0  0  0
    0.3515   -3.0701    0.9828 H   0  0  0  0  0  0  0  0  0  0  0  0
   -0.2684   -1.1275    1.9138 C   0  0  0  0  0  3  0  0  0  0  0  0
   -0.9554   -1.4755    2.6938 H   0  0  0  0  0  0  0  0  0  0  0  0
    2.2254   -1.7343   -0.8693 C   0  0  2  0  0  0  0  0  0  0  0  0
    1.6046   -2.8595   -1.7204 C   0  0  0  0  0  0  0  0  0  0  0  0
    1.1821   -3.6649   -1.0870 H   0  0  0  0  0  0  0  0  0  0  0  0
    2.3815   -3.3164   -2.3665 H   0  0  0  0  0  0  0  0  0  0  0  0
    0.7956   -2.4694   -2.3661 H   0  0  0  0  0  0  0  0  0  0  0  0
    3.3853   -2.3365   -0.0249 C   0  0  0  0  0  0  0  0  0  0  0  0
    2.9746   -3.0808    0.6891 H   0  0  0  0  0  0  0  0  0  0  0  0
    4.0470   -2.8995   -0.7204 H   0  0  0  0  0  0  0  0  0  0  0  0
    4.2139   -1.2830    0.7111 C   0  0  0  0  0  0  0  0  0  0  0  0
    4.9795   -1.7912    1.3311 H   0  0  0  0  0  0  0  0  0  0  0  0
    3.5580   -0.7270    1.4162 H   0  0  0  0  0  0  0  0  0  0  0  0
    4.8771   -0.2998   -0.2709 C   0  0  1  0  0  0  0  0  0  0  0  0
    5.5177   -0.9108   -0.9518 H   0  0  0  0  0  0  0  0  0  0  0  0
    3.7888    0.3521   -1.1435 C   0  0  0  0  0  0  0  0  0  0  0  0
    4.2536    0.9528   -1.9508 H   0  0  0  0  0  0  0  0  0  0  0  0
    3.2263    1.0763   -0.5199 H   0  0  0  0  0  0  0  0  0  0  0  0
    2.8309   -0.6557   -1.8011 C   0  0  0  0  0  0  0  0  0  0  0  0
    2.0125   -0.1245   -2.3286 H   0  0  0  0  0  0  0  0  0  0  0  0
    3.3958   -1.2020   -2.5878 H   0  0  0  0  0  0  0  0  0  0  0  0
    5.8457    0.7288    0.4093 C   0  0  0  0  0  0  0  0  0  0  0  0
    7.0077   -0.0266    1.0851 C   0  0  0  0  0  0  0  0  0  0  0  0
    7.7412    0.6882    1.5118 H   0  0  0  0  0  0  0  0  0  0  0  0
    7.5463   -0.6667    0.3554 H   0  0  0  0  0  0  0  0  0  0  0  0
    6.6608   -0.6747    1.9140 H   0  0  0  0  0  0  0  0  0  0  0  0
    6.4507    1.6642   -0.6568 C   0  0  0  0  0  0  0  0  0  0  0  0
    5.6923    2.3365   -1.1045 H   0  0  0  0  0  0  0  0  0  0  0  0
    6.9201    1.0849   -1.4794 H   0  0  0  0  0  0  0  0  0  0  0  0
    7.2357    2.3069   -0.2079 H   0  0  0  0  0  0  0  0  0  0  0  0
    5.1248    1.5836    1.4705 C   0  0  0  0  0  0  0  0  0  0  0  0
    5.8236    2.3268    1.9067 H   0  0  0  0  0  0  0  0  0  0  0  0
    4.7355    0.9659    2.3045 H   0  0  0  0  0  0  0  0  0  0  0  0
    4.2722    2.1471    1.0392 H   0  0  0  0  0  0  0  0  0  0  0  0
  1 21  1  0  0  0  0
  1 22  1  0  0  0  0
  2  1  1  0  0  0  0
  3  4  1  0  0  0  0
  3  2  2  0  0  0  0
  5  3  1  0  0  0  0
  6  5  1  0  0  0  0
  7  5  2  0  0  0  0
  7  9  1  0  0  0  0
  8  7  1  0  0  0  0
  9 11  2  0  0  0  0
 10  9  1  0  0  0  0
 11  2  1  0  0  0  0
 11 12  1  0  0  0  0
 12 21  1  0  0  0  0
 13 12  2  0  0  0  0
 13 15  1  0  0  0  0
 14 13  1  0  0  0  0
 15 17  2  0  0  0  0
 16 15  1  0  0  0  0
 17 19  1  0  0  0  0
 17 18  1  0  0  0  0
 19 20  1  0  0  0  0
 21 19  2  0  0  0  0
 22 23  1  0  0  0  0
 23 25  1  0  0  0  0
 23 24  1  0  0  0  0
 23 26  1  0  0  0  0
 27 29  1  0  0  0  0
 27 22  1  0  0  0  0
 27 28  1  0  0  0  0
 30 27  1  0  0  0  0
 31 37  1  0  0  0  0
 31 22  1  6  0  0  0
 32 31  1  0  0  0  0
 33 32  1  0  0  0  0
 34 32  1  0  0  0  0
 34 35  2  0  0  0  0
 35 37  1  0  0  0  0
 36 35  1  0  0  0  0
 37 38  1  0  0  0  0
 39 40  1  6  0  0  0
 39 44  1  0  0  0  0
 39 34  1  0  0  0  0
 40 41  1  0  0  0  0
 42 40  1  0  0  0  0
 43 40  1  0  0  0  0
 44 45  1  0  0  0  0
 44 47  1  0  0  0  0
 46 44  1  0  0  0  0
 47 48  1  0  0  0  0
 47 49  1  0  0  0  0
 50 51  1  6  0  0  0
 50 58  1  0  0  0  0
 50 47  1  0  0  0  0
 52 54  1  0  0  0  0
 52 50  1  0  0  0  0
 53 52  1  0  0  0  0
 55 52  1  0  0  0  0
 55 39  1  0  0  0  0
 56 55  1  0  0  0  0
 57 55  1  0  0  0  0
 58 59  1  0  0  0  0
 58 67  1  0  0  0  0
 59 60  1  0  0  0  0
 59 62  1  0  0  0  0
 61 59  1  0  0  0  0
 63 66  1  0  0  0  0
 63 58  1  0  0  0  0
 64 63  1  0  0  0  0
 65 63  1  0  0  0  0
 67 68  1  0  0  0  0
 67 69  1  0  0  0  0
 70 67  1  0  0  0  0
M  END
