1,3
q = -1.0, confidence = 0.002

 36 37  0  0  1  0  0  0  0  0999 V2000
    0.3918   -1.0161   -0.6056 C   0  0  1  0  0  3  0  0  0  0  0  0
    1.1221    0.2358   -0.6162 C   0  0  2  0  0  3  0  0  0  0  0  0
    0.0683    1.2381   -0.5422 C   0  0  2  0  0  3  0  0  0  0  0  0
   -1.2174    0.6346   -0.4506 C   0  0  0  0  0  0  0  0  0  0  0  0
   -1.0137   -0.8076   -0.4859 C   0  0  0  0  0  0  0  0  0  0  0  0
    1.1480   -2.7351   -0.8739 Br  0  0  0  0  0  0  0  0  0  0  0  0
    3.0012    0.4485   -0.7727 Si  0  0  0  0  0  0  0  0  0  0  0  0
    3.5129   -0.0325   -2.5133 C   0  0  0  0  0  0  0  0  0  0  0  0
    3.1814   -1.0631   -2.7480 H   0  0  0  0  0  0  0  0  0  0  0  0
    4.6146    0.0170   -2.6246 H   0  0  0  0  0  0  0  0  0  0  0  0
    3.0531    0.6602   -3.2483 H   0  0  0  0  0  0  0  0  0  0  0  0
    3.6028    2.1558   -0.2910 C   0  0  0  0  0  0  0  0  0  0  0  0
    3.2830    2.9238   -1.0219 H   0  0  0  0  0  0  0  0  0  0  0  0
    4.7114    2.1305   -0.2635 H   0  0  0  0  0  0  0  0  0  0  0  0
    3.2375    2.4483    0.7123 H   0  0  0  0  0  0  0  0  0  0  0  0
    3.8971   -0.8938    0.5696 Cl  0  0  0  0  0  0  0  0  0  0  0  0
    0.2850    3.1177   -0.7094 Br  0  0  0  0  0  0  0  0  0  0  0  0
   -3.0543    1.1156   -0.5327 Si  0  0  0  0  0  0  0  0  0  0  0  0
   -3.4158    1.8240   -2.2345 C   0  0  0  0  0  0  0  0  0  0  0  0
   -3.0630    1.1400   -3.0320 H   0  0  0  0  0  0  0  0  0  0  0  0
   -2.9024    2.7992   -2.3630 H   0  0  0  0  0  0  0  0  0  0  0  0
   -4.5046    1.9848   -2.3714 H   0  0  0  0  0  0  0  0  0  0  0  0
   -3.6570    2.2456    0.8294 C   0  0  0  0  0  0  0  0  0  0  0  0
   -4.7170    2.5235    0.6597 H   0  0  0  0  0  0  0  0  0  0  0  0
   -3.0531    3.1762    0.8369 H   0  0  0  0  0  0  0  0  0  0  0  0
   -3.5742    1.7638    1.8216 H   0  0  0  0  0  0  0  0  0  0  0  0
   -3.6864   -0.4556   -0.3866 O   0  0  0  0  0  0  0  0  0  0  0  0
   -2.6358   -1.7912   -0.4807 Si  0  0  0  0  0  0  0  0  0  0  0  0
   -2.8527   -2.7009   -2.1082 C   0  0  0  0  0  0  0  0  0  0  0  0
   -3.8531   -3.1760   -2.1654 H   0  0  0  0  0  0  0  0  0  0  0  0
   -2.0847   -3.4955   -2.2077 H   0  0  0  0  0  0  0  0  0  0  0  0
   -2.7467   -2.0091   -2.9674 H   0  0  0  0  0  0  0  0  0  0  0  0
   -2.8330   -2.9250    0.9946 C   0  0  0  0  0  0  0  0  0  0  0  0
   -2.8822   -2.3426    1.9345 H   0  0  0  0  0  0  0  0  0  0  0  0
   -1.9685   -3.6177    1.0556 H   0  0  0  0  0  0  0  0  0  0  0  0
   -3.7575   -3.5311    0.9085 H   0  0  0  0  0  0  0  0  0  0  0  0
  1  6  1  6  0  0  0
  1  5  1  0  0  0  0
  2  7  1  6  0  0  0
  2  1  1  0  0  0  0
  2  3  1  0  0  0  0
  3 17  1  6  0  0  0
  3  4  1  0  0  0  0
  5 28  1  0  0  0  0
  5  4  2  0  0  0  0
  7 12  1  0  0  0  0
  7 16  1  0  0  0  0
  8  7  1  0  0  0  0
  9  8  1  0  0  0  0
 10  8  1  0  0  0  0
 11  8  1  0  0  0  0
 12 14  1  0  0  0  0
 12 15  1  0  0  0  0
 13 12  1  0  0  0  0
 18  4  1  0  0  0  0
 18 27  1  0  0  0  0
 18 23  1  0  0  0  0
 19 18  1  0  0  0  0
 20 19  1  0  0  0  0
 21 19  1  0  0  0  0
 22 19  1  0  0  0  0
 23 25  1  0  0  0  0
 23 26  1  0  0  0  0
 24 23  1  0  0  0  0
 28 27  1  0  0  0  0
 28 33  1  0  0  0  0
 29 28  1  0  0  0  0
 30 29  1  0  0  0  0
 31 29  1  0  0  0  0
 32 29  1  0  0  0  0
 33 35  1  0  0  0  0
 33 34  1  0  0  0  0
 36 33  1  0  0  0  0
M  END
