7,18
q = 0.0, confidence = 0.996

 62 67  0  0  0  0  0  0  0  0999 V2000
   -4.0392   -1.7581   -0.5052 O   0  0  0  0  0  0  0  0  0  0  0  0
   -4.0392    1.7580    0.5052 O   0  0  0  0  0  0  0  0  0  0  0  0
    0.3682    2.6426    0.6609 N   0  0  0  0  0  0  0  0  0  0  0  0
   -0.7695    1.6832   -0.9490 N   0  0  0  0  0  0  0  0  0  0  0  0
    0.3682   -2.6425   -0.6609 N   0  0  0  0  0  0  0  0  0  0  0  0
   -0.7694   -1.6832    0.9490 N   0  0  0  0  0  0  0  0  0  0  0  0
    0.3002    1.5028   -0.0982 C   0  0  0  0  0  2  0  0  0  0  0  0
   -0.5965    3.5648    0.2634 C   0  0  0  0  0  0  0  0  0  0  0  0
   -1.3357    2.9520   -0.7724 C   0  0  0  0  0  0  0  0  0  0  0  0
   -2.4000    3.6023   -1.4055 C   0  0  0  0  0  0  0  0  0  0  0  0
   -2.9748    3.1059   -2.1992 H   0  0  0  0  0  0  0  0  0  0  0  0
   -2.6965    4.9041   -0.9716 C   0  0  0  0  0  0  0  0  0  0  0  0
   -3.5184    5.4567   -1.4506 H   0  0  0  0  0  0  0  0  0  0  0  0
   -1.9587    5.5222    0.0635 C   0  0  0  0  0  0  0  0  0  0  0  0
   -2.2158    6.5469    0.3700 H   0  0  0  0  0  0  0  0  0  0  0  0
   -0.8960    4.8628    0.7023 C   0  0  0  0  0  0  0  0  0  0  0  0
   -0.3161    5.3470    1.5000 H   0  0  0  0  0  0  0  0  0  0  0  0
    0.3002   -1.5027    0.0982 C   0  0  0  0  0  2  0  0  0  0  0  0
   -1.3356   -2.9521    0.7723 C   0  0  0  0  0  0  0  0  0  0  0  0
   -0.5964   -3.5648   -0.2634 C   0  0  0  0  0  0  0  0  0  0  0  0
   -0.8959   -4.8628   -0.7023 C   0  0  0  0  0  0  0  0  0  0  0  0
   -0.3160   -5.3470   -1.5000 H   0  0  0  0  0  0  0  0  0  0  0  0
   -1.9586   -5.5222   -0.0635 C   0  0  0  0  0  0  0  0  0  0  0  0
   -2.2156   -6.5470   -0.3700 H   0  0  0  0  0  0  0  0  0  0  0  0
   -2.6964   -4.9041    0.9716 C   0  0  0  0  0  0  0  0  0  0  0  0
   -3.5183   -5.4568    1.4506 H   0  0  0  0  0  0  0  0  0  0  0  0
   -2.3999   -3.6023    1.4055 C   0  0  0  0  0  0  0  0  0  0  0  0
   -2.9747   -3.1060    2.1992 H   0  0  0  0  0  0  0  0  0  0  0  0
   -1.4897    0.6086   -1.5654 C   0  0  0  0  0  0  0  0  0  0  0  0
   -1.3481    0.3371   -2.9326 C   0  0  0  0  0  0  0  0  0  0  0  0
   -0.6342    0.9218   -3.5280 H   0  0  0  0  0  0  0  0  0  0  0  0
   -2.1167   -0.6926   -3.4907 C   0  0  0  0  0  0  0  0  0  0  0  0
   -2.0134   -0.9351   -4.5588 H   0  0  0  0  0  0  0  0  0  0  0  0
   -3.0269   -1.4183   -2.7075 C   0  0  0  0  0  0  0  0  0  0  0  0
   -3.6249   -2.2132   -3.1714 H   0  0  0  0  0  0  0  0  0  0  0  0
   -3.1709   -1.1275   -1.3339 C   0  0  0  0  0  0  0  0  0  0  0  0
   -2.3739   -0.1183   -0.7377 C   0  0  0  0  0  0  0  0  0  0  0  0
   -2.3739    0.1182    0.7377 C   0  0  0  0  0  0  0  0  0  0  0  0
   -3.1709    1.1274    1.3340 C   0  0  0  0  0  0  0  0  0  0  0  0
   -3.0269    1.4182    2.7075 C   0  0  0  0  0  0  0  0  0  0  0  0
   -3.6248    2.2131    3.1714 H   0  0  0  0  0  0  0  0  0  0  0  0
   -2.1167    0.6925    3.4907 C   0  0  0  0  0  0  0  0  0  0  0  0
   -2.0134    0.9351    4.5588 H   0  0  0  0  0  0  0  0  0  0  0  0
   -1.3480   -0.3371    2.9326 C   0  0  0  0  0  0  0  0  0  0  0  0
   -0.6341   -0.9219    3.5280 H   0  0  0  0  0  0  0  0  0  0  0  0
   -1.4897   -0.6086    1.5654 C   0  0  0  0  0  0  0  0  0  0  0  0
    1.2945    2.8779    1.7558 C   0  0  0  0  0  0  0  0  0  0  0  0
    1.8365    1.9387    1.9657 H   0  0  0  0  0  0  0  0  0  0  0  0
    0.7199    3.1920    2.6507 H   0  0  0  0  0  0  0  0  0  0  0  0
    2.0364    3.6518    1.4795 H   0  0  0  0  0  0  0  0  0  0  0  0
    1.2945   -2.8778   -1.7558 C   0  0  0  0  0  0  0  0  0  0  0  0
    0.7200   -3.1920   -2.6508 H   0  0  0  0  0  0  0  0  0  0  0  0
    2.0365   -3.6517   -1.4795 H   0  0  0  0  0  0  0  0  0  0  0  0
    1.8366   -1.9386   -1.9658 H   0  0  0  0  0  0  0  0  0  0  0  0
   -4.7862   -2.8519   -1.0113 C   0  0  0  0  0  0  0  0  0  0  0  0
   -5.4720   -2.5366   -1.8285 H   0  0  0  0  0  0  0  0  0  0  0  0
   -5.3836   -3.2356   -0.1646 H   0  0  0  0  0  0  0  0  0  0  0  0
   -4.1210   -3.6644   -1.3759 H   0  0  0  0  0  0  0  0  0  0  0  0
   -4.7862    2.8518    1.0113 C   0  0  0  0  0  0  0  0  0  0  0  0
   -5.3837    3.2355    0.1646 H   0  0  0  0  0  0  0  0  0  0  0  0
   -4.1211    3.6644    1.3758 H   0  0  0  0  0  0  0  0  0  0  0  0
   -5.4720    2.5365    1.8286 H   0  0  0  0  0  0  0  0  0  0  0  0
  2 59  1  0  0  0  0
  2 39  1  0  0  0  0
  3 47  1  0  0  0  0
  4  9  1  0  0  0  0
  4  7  1  0  0  0  0
  5 20  1  0  0  0  0
  5 18  1  0  0  0  0
  6 46  1  0  0  0  0
  7  3  1  0  0  0  0
  8  3  1  0  0  0  0
  8 16  1  0  0  0  0
  9  8  2  0  0  0  0
 10 12  2  0  0  0  0
 10  9  1  0  0  0  0
 11 10  1  0  0  0  0
 12 14  1  0  0  0  0
 13 12  1  0  0  0  0
 14 15  1  0  0  0  0
 14 16  2  0  0  0  0
 16 17  1  0  0  0  0
 18  6  1  0  0  0  0
 19  6  1  0  0  0  0
 19 27  1  0  0  0  0
 20 19  2  0  0  0  0
 21 20  1  0  0  0  0
 21 23  2  0  0  0  0
 22 21  1  0  0  0  0
 23 25  1  0  0  0  0
 24 23  1  0  0  0  0
 25 27  2  0  0  0  0
 25 26  1  0  0  0  0
 27 28  1  0  0  0  0
 29  4  1  0  0  0  0
 29 37  1  0  0  0  0
 30 29  2  0  0  0  0
 31 30  1  0  0  0  0
 32 30  1  0  0  0  0
 32 34  2  0  0  0  0
 33 32  1  0  0  0  0
 34 36  1  0  0  0  0
 35 34  1  0  0  0  0
 36 37  2  0  0  0  0
 36  1  1  0  0  0  0
 37 38  1  0  0  0  0
 38 39  2  0  0  0  0
 38 46  1  0  0  0  0
 39 40  1  0  0  0  0
 40 41  1  0  0  0  0
 40 42  2  0  0  0  0
 42 43  1  0  0  0  0
 44 42  1  0  0  0  0
 44 45  1  0  0  0  0
 46 44  2  0  0  0  0
 47 48  1  0  0  0  0
 47 49  1  0  0  0  0
 50 47  1  0  0  0  0
 51 53  1  0  0  0  0
 51  5  1  0  0  0  0
 52 51  1  0  0  0  0
 54 51  1  0  0  0  0
 55  1  1  0  0  0  0
 55 57  1  0  0  0  0
 56 55  1  0  0  0  0
 58 55  1  0  0  0  0
 59 61  1  0  0  0  0
 59 62  1  0  0  0  0
 60 59  1  0  0  0  0
M  END
