3,6
q = 0.0, confidence = 0.97

 20 20  0  0  1  0  0  0  0  0999 V2000
   -3.2810    1.6660   -1.3155 Cl  0  0  0  0  0  0  0  0  0  0  0  0
    0.1341   -2.6732   -1.1950 Cl  0  0  0  0  0  0  0  0  0  0  0  0
   -2.6767    0.5621    1.1454 C   0  0  0  0  0  3  0  0  0  0  0  0
   -2.9348   -0.4185    2.2789 C   0  0  0  0  0  0  0  0  0  0  0  0
   -2.3688   -1.8270    1.9949 C   0  0  0  0  0  0  0  0  0  0  0  0
   -1.1495   -1.7739    1.0726 C   0  0  0  0  0  3  0  0  0  0  0  0
   -1.2303   -1.8812   -0.3476 C   0  0  2  0  0  3  0  0  0  0  0  0
   -2.4945   -2.0012   -1.1782 C   0  0  0  0  0  0  0  0  0  0  0  0
   -3.5712   -1.0133   -0.7137 C   0  0  0  0  0  0  0  0  0  0  0  0
   -2.9374    0.2888   -0.2287 C   0  0  1  0  0  3  0  0  0  0  0  0
   -2.6434    1.6273    1.4334 H   0  0  0  0  0  0  0  0  0  0  0  0
   -0.1854   -2.0756    1.5167 H   0  0  0  0  0  0  0  0  0  0  0  0
   -4.0233   -0.4610    2.5162 H   0  0  0  0  0  0  0  0  0  0  0  0
   -2.4409   -0.0038    3.1807 H   0  0  0  0  0  0  0  0  0  0  0  0
   -3.1428   -2.4878    1.5542 H   0  0  0  0  0  0  0  0  0  0  0  0
   -2.0744   -2.3075    2.9485 H   0  0  0  0  0  0  0  0  0  0  0  0
   -2.2127   -1.7727   -2.2254 H   0  0  0  0  0  0  0  0  0  0  0  0
   -2.8621   -3.0518   -1.1720 H   0  0  0  0  0  0  0  0  0  0  0  0
   -4.2671   -0.7924   -1.5439 H   0  0  0  0  0  0  0  0  0  0  0  0
   -4.1886   -1.4386    0.1023 H   0  0  0  0  0  0  0  0  0  0  0  0
  3 11  1  0  0  0  0
  3  4  1  0  0  0  0
  4 13  1  0  0  0  0
  4 14  1  0  0  0  0
  5  4  1  0  0  0  0
  5 16  1  0  0  0  0
  6 12  1  0  0  0  0
  6  5  1  0  0  0  0
  7  2  1  1  0  0  0
  7  6  1  0  0  0  0
  8 18  1  0  0  0  0
  8  9  1  0  0  0  0
  8  7  1  0  0  0  0
  9 10  1  0  0  0  0
  9 20  1  0  0  0  0
 10  1  1  1  0  0  0
 10  3  1  0  0  0  0
 15  5  1  0  0  0  0
 17  8  1  0  0  0  0
 19  9  1  0  0  0  0
M  END
