1,23
q = 0.0, confidence = 0.996

 30 30  0  0  0  0  0  0  0  0999 V2000
    1.1805   -1.7760    1.2166 C   0  0  0  0  0  3  0  0  0  0  0  0
    0.1652   -1.7623    1.6552 H   0  0  0  0  0  0  0  0  0  0  0  0
    1.2646   -2.2080   -0.0916 C   0  0  0  0  0  3  0  0  0  0  0  0
    0.3094   -2.5137   -0.5570 H   0  0  0  0  0  0  0  0  0  0  0  0
    2.4876   -2.4005   -0.9612 C   0  0  0  0  0  0  0  0  0  0  0  0
    2.5064   -3.4452   -1.3407 H   0  0  0  0  0  0  0  0  0  0  0  0
    3.4189   -2.2592   -0.3735 H   0  0  0  0  0  0  0  0  0  0  0  0
    2.4756   -1.4107   -2.1509 C   0  0  0  0  0  0  0  0  0  0  0  0
    3.3171   -1.6454   -2.8407 H   0  0  0  0  0  0  0  0  0  0  0  0
    1.5368   -1.5234   -2.7330 H   0  0  0  0  0  0  0  0  0  0  0  0
    2.6143    0.0028   -1.6391 C   0  0  0  0  0  0  0  0  0  0  0  0
    3.5423    0.1895   -1.0636 H   0  0  0  0  0  0  0  0  0  0  0  0
    1.7841    1.0732   -1.8456 C   0  0  0  0  0  0  0  0  0  0  0  0
    0.8788    0.9504   -2.4676 H   0  0  0  0  0  0  0  0  0  0  0  0
    2.0497    2.4477   -1.2697 C   0  0  0  0  0  0  0  0  0  0  0  0
    1.9719    3.2087   -2.0745 H   0  0  0  0  0  0  0  0  0  0  0  0
    3.0950    2.4937   -0.8970 H   0  0  0  0  0  0  0  0  0  0  0  0
    1.0643    2.8350   -0.1402 C   0  0  0  0  0  0  0  0  0  0  0  0
    1.3184    3.8540    0.2307 H   0  0  0  0  0  0  0  0  0  0  0  0
    0.0315    2.9084   -0.5410 H   0  0  0  0  0  0  0  0  0  0  0  0
    1.0135    1.8655    1.0215 C   0  0  0  0  0  3  0  0  0  0  0  0
    0.0740    1.8597    1.6021 H   0  0  0  0  0  0  0  0  0  0  0  0
    2.0455    1.0530    1.4439 C   0  0  0  0  0  3  0  0  0  0  0  0
    3.0327    1.1466    0.9553 H   0  0  0  0  0  0  0  0  0  0  0  0
    2.0058    0.1100    2.6284 C   0  0  0  0  0  0  0  0  0  0  0  0
    1.0081    0.1615    3.1119 H   0  0  0  0  0  0  0  0  0  0  0  0
    2.7599    0.4138    3.3875 H   0  0  0  0  0  0  0  0  0  0  0  0
    2.2784   -1.3401    2.1611 C   0  0  0  0  0  0  0  0  0  0  0  0
    3.2771   -1.4021    1.6793 H   0  0  0  0  0  0  0  0  0  0  0  0
    2.3028   -2.0224    3.0394 H   0  0  0  0  0  0  0  0  0  0  0  0
  1  2  1  0  0  0  0
  1 28  1  0  0  0  0
  3  1  1  0  0  0  0
  4  3  1  0  0  0  0
  5  7  1  0  0  0  0
  5  3  1  0  0  0  0
  6  5  1  0  0  0  0
  8 11  1  0  0  0  0
  8  5  1  0  0  0  0
  9  8  1  0  0  0  0
 10  8  1  0  0  0  0
 11 12  1  0  0  0  0
 13 11  2  0  0  0  0
 13 15  1  0  0  0  0
 14 13  1  0  0  0  0
 15 17  1  0  0  0  0
 15 18  1  0  0  0  0
 16 15  1  0  0  0  0
 18 19  1  0  0  0  0
 18 21  1  0  0  0  0
 20 18  1  0  0  0  0
 21 23  1  0  0  0  0
 21 22  1  0  0  0  0
 23 25  1  0  0  0  0
 24 23  1  0  0  0  0
 25 26  1  0  0  0  0
 25 27  1  0  0  0  0
 28 25  1  0  0  0  0
 28 30  1  0  0  0  0
 29 28  1  0  0  0  0
M  END
