3,5
q = -2.0, confidence = 0.538

 37 38  0  0  1  0  0  0  0  0999 V2000
   -0.7847    0.3373    2.5481 O   0  0  0  0  0  0  0  0  0  0  0  0
   -1.2474   -0.6305    0.4948 N   0  0  0  0  0  0  0  0  0  0  0  0
   -0.5836    0.2055    1.3554 C   0  0  0  0  0  3  0  0  0  0  0  0
   -0.6793   -0.4644   -0.8171 C   0  0  1  0  0  3  0  0  0  0  0  0
    0.6865   -0.8318   -0.9981 C   0  0  0  0  0  3  0  0  0  0  0  0
    1.5769   -0.9711    0.1059 C   0  0  0  0  0  3  0  0  0  0  0  0
   -1.6229   -0.3183   -1.9768 C   0  0  0  0  0  0  0  0  0  0  0  0
   -2.3030   -1.5704    0.8660 C   0  0  0  0  0  0  0  0  0  0  0  0
   -3.6814   -1.1436    0.4003 C   0  0  0  0  0  0  0  0  0  0  0  0
   -4.1246    0.1753    0.6279 C   0  0  0  0  0  0  0  0  0  0  0  0
   -5.3946    0.5819    0.1962 C   0  0  0  0  0  0  0  0  0  0  0  0
   -6.2402   -0.3242   -0.4665 C   0  0  0  0  0  0  0  0  0  0  0  0
   -5.8080   -1.6395   -0.6931 C   0  0  0  0  0  0  0  0  0  0  0  0
   -4.5338   -2.0443   -0.2632 C   0  0  0  0  0  0  0  0  0  0  0  0
    3.0358   -1.1530   -0.0270 C   0  0  0  0  0  0  0  0  0  0  0  0
    3.7752   -1.5303    1.1178 C   0  0  0  0  0  0  0  0  0  0  0  0
    5.1630   -1.7081    1.0576 C   0  0  0  0  0  0  0  0  0  0  0  0
    5.8462   -1.5135   -0.1531 C   0  0  0  0  0  0  0  0  0  0  0  0
    5.1264   -1.1372   -1.2996 C   0  0  0  0  0  0  0  0  0  0  0  0
    3.7394   -0.9556   -1.2382 C   0  0  0  0  0  0  0  0  0  0  0  0
    1.0727   -0.8379   -2.0291 H   0  0  0  0  0  0  0  0  0  0  0  0
    1.1599   -1.3641    1.0468 H   0  0  0  0  0  0  0  0  0  0  0  0
   -2.3612    0.4859   -1.7949 H   0  0  0  0  0  0  0  0  0  0  0  0
   -2.2041   -1.2531   -2.1284 H   0  0  0  0  0  0  0  0  0  0  0  0
   -1.0698   -0.1010   -2.9099 H   0  0  0  0  0  0  0  0  0  0  0  0
   -2.2670   -1.6036    1.9760 H   0  0  0  0  0  0  0  0  0  0  0  0
   -2.0598   -2.5870    0.4898 H   0  0  0  0  0  0  0  0  0  0  0  0
   -3.4620    0.8874    1.1443 H   0  0  0  0  0  0  0  0  0  0  0  0
   -5.7280    1.6148    0.3790 H   0  0  0  0  0  0  0  0  0  0  0  0
   -7.2362   -0.0030   -0.8070 H   0  0  0  0  0  0  0  0  0  0  0  0
   -6.4633   -2.3548   -1.2133 H   0  0  0  0  0  0  0  0  0  0  0  0
   -4.1934   -3.0761   -0.4488 H   0  0  0  0  0  0  0  0  0  0  0  0
    3.2432   -1.6782    2.0708 H   0  0  0  0  0  0  0  0  0  0  0  0
    5.7157   -1.9996    1.9636 H   0  0  0  0  0  0  0  0  0  0  0  0
    6.9367   -1.6512   -0.2040 H   0  0  0  0  0  0  0  0  0  0  0  0
    5.6527   -0.9791   -2.2531 H   0  0  0  0  0  0  0  0  0  0  0  0
    3.2032   -0.6469   -2.1477 H   0  0  0  0  0  0  0  0  0  0  0  0
  2  8  1  0  0  0  0
  2  3  1  0  0  0  0
  3  1  2  0  0  0  0
  4  5  1  6  0  0  0
  4  2  1  0  0  0  0
  5  6  1  0  0  0  0
  6 22  1  0  0  0  0
  7 23  1  0  0  0  0
  7  4  1  0  0  0  0
  8 26  1  0  0  0  0
  9 10  1  0  0  0  0
  9  8  1  0  0  0  0
 10 28  1  0  0  0  0
 11 29  1  0  0  0  0
 11 10  2  0  0  0  0
 12 11  1  0  0  0  0
 13 12  2  0  0  0  0
 13 14  1  0  0  0  0
 14  9  2  0  0  0  0
 15  6  1  0  0  0  0
 15 16  1  0  0  0  0
 16 33  1  0  0  0  0
 17 16  2  0  0  0  0
 17 34  1  0  0  0  0
 18 17  1  0  0  0  0
 19 20  1  0  0  0  0
 19 18  2  0  0  0  0
 20 15  2  0  0  0  0
 21  5  1  0  0  0  0
 24  7  1  0  0  0  0
 25  7  1  0  0  0  0
 27  8  1  0  0  0  0
 30 12  1  0  0  0  0
 31 13  1  0  0  0  0
 32 14  1  0  0  0  0
 35 18  1  0  0  0  0
 36 19  1  0  0  0  0
 37 20  1  0  0  0  0
M  END
