3,11
q = 0.0, confidence = 0.852

 20 20  0  0  0  0  0  0  0  0999 V2000
    1.9439    0.5925    2.5585 C   0  0  0  0  0  0  0  0  0  0  0  0
    1.8803   -0.8315    2.5391 C   0  0  0  0  0  0  0  0  0  0  0  0
    0.5786   -1.4375    2.5027 C   0  0  0  0  0  3  0  0  0  0  0  0
    0.5417   -2.5343    2.4258 H   0  0  0  0  0  0  0  0  0  0  0  0
   -0.5836   -0.7986    3.2715 C   0  0  0  0  0  0  0  0  0  0  0  0
   -0.5658   -1.1860    4.3131 H   0  0  0  0  0  0  0  0  0  0  0  0
   -1.5415   -1.1447    2.8310 H   0  0  0  0  0  0  0  0  0  0  0  0
   -0.5156    0.7604    3.2893 C   0  0  0  0  0  0  0  0  0  0  0  0
   -1.4374    1.1989    2.8541 H   0  0  0  0  0  0  0  0  0  0  0  0
   -0.4695    1.1211    4.3396 H   0  0  0  0  0  0  0  0  0  0  0  0
    0.7017    1.3131    2.5391 C   0  0  0  0  0  3  0  0  0  0  0  0
    0.7627    2.4105    2.4907 H   0  0  0  0  0  0  0  0  0  0  0  0
    3.2623    1.2975    2.3683 C   0  0  0  0  0  0  0  0  0  0  0  0
    3.7347    1.0223    1.4034 H   0  0  0  0  0  0  0  0  0  0  0  0
    3.9719    1.0216    3.1758 H   0  0  0  0  0  0  0  0  0  0  0  0
    3.1360    2.3961    2.3907 H   0  0  0  0  0  0  0  0  0  0  0  0
    3.1309   -1.6455    2.3270 C   0  0  0  0  0  0  0  0  0  0  0  0
    3.6237   -1.3895    1.3671 H   0  0  0  0  0  0  0  0  0  0  0  0
    2.9078   -2.7288    2.3232 H   0  0  0  0  0  0  0  0  0  0  0  0
    3.8637   -1.4533    3.1380 H   0  0  0  0  0  0  0  0  0  0  0  0
  2  1  2  0  0  0  0
  3  2  1  0  0  0  0
  3  5  1  0  0  0  0
  4  3  1  0  0  0  0
  5  8  1  0  0  0  0
  5  6  1  0  0  0  0
  7  5  1  0  0  0  0
  8 10  1  0  0  0  0
  9  8  1  0  0  0  0
 11  1  1  0  0  0  0
 11  8  1  0  0  0  0
 12 11  1  0  0  0  0
 13 16  1  0  0  0  0
 13  1  1  0  0  0  0
 13 15  1  0  0  0  0
 14 13  1  0  0  0  0
 17  2  1  0  0  0  0
 17 20  1  0  0  0  0
 18 17  1  0  0  0  0
 19 17  1  0  0  0  0
M  END
