5,7
q = 0.0, confidence = 0.986

 38 38  0  0  0  0  0  0  0  0999 V2000
   -2.6617   -0.6625   -0.1684 Si  0  0  0  0  0  0  0  0  0  0  0  0
   -1.0783   -1.0555    0.6288 N   0  0  0  0  0  0  0  0  0  0  0  0
    0.1332   -1.2020   -0.0199 C   0  0  0  0  0  0  0  0  0  0  0  0
    1.2408   -1.8888    0.5898 C   0  0  0  0  0  0  0  0  0  0  0  0
    2.4695   -2.0584   -0.1077 C   0  0  0  0  0  3  0  0  0  0  0  0
    2.6521   -1.5550   -1.4236 C   0  0  0  0  0  3  0  0  0  0  0  0
    1.5985   -0.7911   -1.9938 C   0  0  0  0  0  3  0  0  0  0  0  0
    0.3700   -0.6015   -1.3050 C   0  0  0  0  0  3  0  0  0  0  0  0
   -1.0968   -1.3198    2.0675 C   0  0  0  0  0  0  0  0  0  0  0  0
   -2.6780   -1.3190   -1.9434 C   0  0  0  0  0  0  0  0  0  0  0  0
   -3.9676   -1.6391    0.7933 C   0  0  0  0  0  0  0  0  0  0  0  0
   -3.0457    1.2194   -0.0904 C   0  0  0  0  0  0  0  0  0  0  0  0
   -2.0509    2.0259   -0.9457 C   0  0  0  0  0  0  0  0  0  0  0  0
   -4.4746    1.4239   -0.6344 C   0  0  0  0  0  0  0  0  0  0  0  0
   -2.9662    1.7054    1.3698 C   0  0  0  0  0  0  0  0  0  0  0  0
    1.1540   -2.2901    1.6048 H   0  0  0  0  0  0  0  0  0  0  0  0
    3.2940   -2.5836    0.3953 H   0  0  0  0  0  0  0  0  0  0  0  0
    3.6115   -1.6703   -1.9435 H   0  0  0  0  0  0  0  0  0  0  0  0
    1.7392   -0.3079   -2.9710 H   0  0  0  0  0  0  0  0  0  0  0  0
   -0.3925    0.0437   -1.7509 H   0  0  0  0  0  0  0  0  0  0  0  0
   -2.0417   -0.9548    2.5063 H   0  0  0  0  0  0  0  0  0  0  0  0
   -0.2714   -0.7801    2.5763 H   0  0  0  0  0  0  0  0  0  0  0  0
   -1.0128   -2.4037    2.3067 H   0  0  0  0  0  0  0  0  0  0  0  0
   -2.2772   -0.6109   -2.6935 H   0  0  0  0  0  0  0  0  0  0  0  0
   -3.7283   -1.5398   -2.2234 H   0  0  0  0  0  0  0  0  0  0  0  0
   -2.1020   -2.2629   -2.0218 H   0  0  0  0  0  0  0  0  0  0  0  0
   -4.9233   -1.6144    0.2313 H   0  0  0  0  0  0  0  0  0  0  0  0
   -4.1702   -1.2408    1.8067 H   0  0  0  0  0  0  0  0  0  0  0  0
   -3.6658   -2.7015    0.8943 H   0  0  0  0  0  0  0  0  0  0  0  0
   -1.0079    1.9185   -0.5868 H   0  0  0  0  0  0  0  0  0  0  0  0
   -2.3014    3.1087   -0.9022 H   0  0  0  0  0  0  0  0  0  0  0  0
   -2.0837    1.7318   -2.0160 H   0  0  0  0  0  0  0  0  0  0  0  0
   -4.5785    1.0726   -1.6826 H   0  0  0  0  0  0  0  0  0  0  0  0
   -5.2356    0.8975   -0.0223 H   0  0  0  0  0  0  0  0  0  0  0  0
   -4.7365    2.5050   -0.6242 H   0  0  0  0  0  0  0  0  0  0  0  0
   -3.6605    1.1513    2.0356 H   0  0  0  0  0  0  0  0  0  0  0  0
   -3.2494    2.7796    1.4293 H   0  0  0  0  0  0  0  0  0  0  0  0
   -1.9396    1.6174    1.7774 H   0  0  0  0  0  0  0  0  0  0  0  0
  1 12  1  0  0  0  0
  1  2  1  0  0  0  0
  1 11  1  0  0  0  0
  2  9  1  0  0  0  0
  3  4  2  0  0  0  0
  3  2  1  0  0  0  0
  4 16  1  0  0  0  0
  5 17  1  0  0  0  0
  5  4  1  0  0  0  0
  6  5  1  0  0  0  0
  7  6  1  0  0  0  0
  7  8  1  0  0  0  0
  8  3  1  0  0  0  0
  9 23  1  0  0  0  0
  9 21  1  0  0  0  0
  9 22  1  0  0  0  0
 10  1  1  0  0  0  0
 11 29  1  0  0  0  0
 11 28  1  0  0  0  0
 12 15  1  0  0  0  0
 13 31  1  0  0  0  0
 13 30  1  0  0  0  0
 13 12  1  0  0  0  0
 14 35  1  0  0  0  0
 14 12  1  0  0  0  0
 14 34  1  0  0  0  0
 15 37  1  0  0  0  0
 15 38  1  0  0  0  0
 15 36  1  0  0  0  0
 18  6  1  0  0  0  0
 19  7  1  0  0  0  0
 20  8  1  0  0  0  0
 24 10  1  0  0  0  0
 25 10  1  0  0  0  0
 26 10  1  0  0  0  0
 27 11  1  0  0  0  0
 32 13  1  0  0  0  0
 33 14  1  0  0  0  0
M  END
