2,5
q = 0.0, confidence = 0.922

 18 18  0  0  0  0  0  0  0  0999 V2000
    1.4257    1.5036   -0.2623 C   0  0  0  0  0  3  0  0  0  0  0  0
    0.8796    0.9829   -1.4821 C   0  0  0  0  0  3  0  0  0  0  0  0
    0.6905   -0.3564   -1.9473 C   0  0  0  0  0  3  0  0  0  0  0  0
    0.7739   -1.6091   -1.2671 C   0  0  0  0  0  3  0  0  0  0  0  0
    1.2265   -1.8542    0.0654 C   0  0  0  0  0  3  0  0  0  0  0  0
    1.9874   -0.8965    0.7768 C   0  0  0  0  0  3  0  0  0  0  0  0
    3.1574   -0.1537    0.1687 C   0  0  0  0  0  0  0  0  0  0  0  0
    2.8219    1.3184    0.2831 C   0  0  0  0  0  0  0  0  0  0  0  0
    1.0307    2.5147   -0.0651 H   0  0  0  0  0  0  0  0  0  0  0  0
    0.2685    1.6943   -2.0685 H   0  0  0  0  0  0  0  0  0  0  0  0
    0.0910   -0.4118   -2.8738 H   0  0  0  0  0  0  0  0  0  0  0  0
    0.2010   -2.4196   -1.7485 H   0  0  0  0  0  0  0  0  0  0  0  0
    0.8477   -2.7680    0.5491 H   0  0  0  0  0  0  0  0  0  0  0  0
    2.0285   -1.0334    1.8690 H   0  0  0  0  0  0  0  0  0  0  0  0
    4.1012   -0.4210    0.6896 H   0  0  0  0  0  0  0  0  0  0  0  0
    3.2827   -0.4360   -0.8969 H   0  0  0  0  0  0  0  0  0  0  0  0
    2.8263    1.6312    1.3479 H   0  0  0  0  0  0  0  0  0  0  0  0
    3.5389    1.9849   -0.2505 H   0  0  0  0  0  0  0  0  0  0  0  0
  1  9  1  0  0  0  0
  1  8  1  0  0  0  0
  2  1  1  0  0  0  0
  3  2  1  0  0  0  0
  3  4  1  0  0  0  0
  4  5  1  0  0  0  0
  5 13  1  0  0  0  0
  5  6  1  0  0  0  0
  6 14  1  0  0  0  0
  7  8  1  0  0  0  0
  7 15  1  0  0  0  0
  7  6  1  0  0  0  0
  8 17  1  0  0  0  0
 10  2  1  0  0  0  0
 11  3  1  0  0  0  0
 12  4  1  0  0  0  0
 16  7  1  0  0  0  0
 18  8  1  0  0  0  0
M  END
