6,11
q = 0.0, confidence = 0.908

 29 28  0  0  0  0  0  0  0  0999 V2000
    3.6564   -0.5384    1.3369 Si  0  0  0  0  0  0  0  0  0  0  0  0
    4.3287    0.2875    0.0236 O   0  0  0  0  0  0  0  0  0  0  0  0
    3.5967    1.1417   -1.2359 Si  0  0  0  0  0  0  0  0  0  0  0  0
    2.1312   -1.5127    0.8329 C   0  0  0  0  0  3  0  0  0  0  0  0
    2.2976   -2.4345    0.2415 H   0  0  0  0  0  0  0  0  0  0  0  0
    0.8851   -1.4022    1.4869 C   0  0  0  0  0  3  0  0  0  0  0  0
    0.7498   -0.6888    2.3175 H   0  0  0  0  0  0  0  0  0  0  0  0
    0.1646   -2.2365    1.4663 H   0  0  0  0  0  0  0  0  0  0  0  0
    2.2088    0.1226   -1.9804 C   0  0  0  0  0  3  0  0  0  0  0  0
    2.4886   -0.8466   -2.4362 H   0  0  0  0  0  0  0  0  0  0  0  0
    0.9456    0.6580   -2.3189 C   0  0  0  0  0  3  0  0  0  0  0  0
    0.7293    1.7316   -2.1845 H   0  0  0  0  0  0  0  0  0  0  0  0
    0.3090    0.1627   -3.0734 H   0  0  0  0  0  0  0  0  0  0  0  0
    5.0011   -1.7171    1.9359 C   0  0  0  0  0  0  0  0  0  0  0  0
    5.2567   -2.4527    1.1460 H   0  0  0  0  0  0  0  0  0  0  0  0
    4.6675   -2.2782    2.8328 H   0  0  0  0  0  0  0  0  0  0  0  0
    5.9261   -1.1627    2.1951 H   0  0  0  0  0  0  0  0  0  0  0  0
    3.2285    0.7077    2.6908 C   0  0  0  0  0  0  0  0  0  0  0  0
    4.1186    1.3248    2.9297 H   0  0  0  0  0  0  0  0  0  0  0  0
    2.8980    0.2031    3.6216 H   0  0  0  0  0  0  0  0  0  0  0  0
    2.4168    1.3891    2.3685 H   0  0  0  0  0  0  0  0  0  0  0  0
    4.9644    1.4470   -2.4975 C   0  0  0  0  0  0  0  0  0  0  0  0
    5.8010    2.0168   -2.0435 H   0  0  0  0  0  0  0  0  0  0  0  0
    4.5824    2.0211   -3.3663 H   0  0  0  0  0  0  0  0  0  0  0  0
    5.3725    0.4862   -2.8719 H   0  0  0  0  0  0  0  0  0  0  0  0
    2.9108    2.7841   -0.5969 C   0  0  0  0  0  0  0  0  0  0  0  0
    2.0276    2.6092    0.0510 H   0  0  0  0  0  0  0  0  0  0  0  0
    2.5956    3.4478   -1.4281 H   0  0  0  0  0  0  0  0  0  0  0  0
    3.6784    3.3192   -0.0019 H   0  0  0  0  0  0  0  0  0  0  0  0
  1 14  1  0  0  0  0
  1 18  1  0  0  0  0
  2  1  1  0  0  0  0
  3 26  1  0  0  0  0
  3  2  1  0  0  0  0
  4  1  1  0  0  0  0
  4  6  1  0  0  0  0
  5  4  1  0  0  0  0
  6  7  1  0  0  0  0
  8  6  1  0  0  0  0
  9  3  1  0  0  0  0
 10  9  1  0  0  0  0
 11 12  1  0  0  0  0
 11  9  1  0  0  0  0
 13 11  1  0  0  0  0
 14 17  1  0  0  0  0
 14 16  1  0  0  0  0
 15 14  1  0  0  0  0
 18 19  1  0  0  0  0
 18 20  1  0  0  0  0
 21 18  1  0  0  0  0
 22 23  1  0  0  0  0
 22  3  1  0  0  0  0
 24 22  1  0  0  0  0
 25 22  1  0  0  0  0
 26 29  1  0  0  0  0
 26 27  1  0  0  0  0
 28 26  1  0  0  0  0
M  END
