10,12
q = -2.0, confidence = 0.836

 34 39  0  0  1  0  0  0  0  0999 V2000
    2.4976    1.2851   -0.5509 B   0  0  1  0  0  0  0  0  0  0  0  0
    2.2634   -0.9330    1.1912 B   0  0  2  0  0  0  0  0  0  0  0  0
    2.1570    1.9017    1.0717 B   0  0  2  0  0  0  0  0  0  0  0  0
    2.0032    0.5242    2.1511 B   0  0  0  0  0  0  0  0  0  0  0  0
    2.6282   -0.4176   -0.3979 C   0  0  1  0  0  0  0  0  0  0  0  0
    1.4780    0.4298    0.5198 C   0  0  2  0  0  0  0  0  0  0  0  0
    2.0841   -1.3008   -1.5827 C   0  0  0  0  0  0  0  0  0  0  0  0
    2.5714   -2.7615   -1.4511 C   0  0  0  0  0  0  0  0  0  0  0  0
    2.6309   -0.7870   -2.9337 C   0  0  0  0  0  0  0  0  0  0  0  0
    0.5492   -1.2514   -1.6147 C   0  0  1  0  0  3  0  0  0  0  0  0
   -0.2055   -0.4204   -2.4973 C   0  0  0  0  0  3  0  0  0  0  0  0
   -1.5961   -0.6275   -2.3022 C   0  0  0  0  0  3  0  0  0  0  0  0
   -2.9103   -2.3683   -0.8748 C   0  0  0  0  0  0  0  0  0  0  0  0
   -2.7618   -3.4275    0.0054 C   0  0  0  0  0  0  0  0  0  0  0  0
   -1.4649   -3.8353    0.4324 C   0  0  0  0  0  0  0  0  0  0  0  0
   -0.3156   -3.1922   -0.0041 C   0  0  0  0  0  0  0  0  0  0  0  0
   -0.4166   -2.1028   -0.9263 C   0  0  0  0  0  0  0  0  0  0  0  0
   -1.7479   -1.7028   -1.3623 C   0  0  0  0  0  0  0  0  0  0  0  0
    2.0233    1.7571   -1.5537 H   0  0  0  0  0  0  0  0  0  0  0  0
    1.6463   -1.9510    1.3594 H   0  0  0  0  0  0  0  0  0  0  0  0
    1.4346    2.8570    1.1888 H   0  0  0  0  0  0  0  0  0  0  0  0
    1.1630    0.4968    3.0161 H   0  0  0  0  0  0  0  0  0  0  0  0
    2.4186   -3.1764   -0.4408 H   0  0  0  0  0  0  0  0  0  0  0  0
    3.6529   -2.8261   -1.6705 H   0  0  0  0  0  0  0  0  0  0  0  0
    2.0302   -3.3968   -2.1788 H   0  0  0  0  0  0  0  0  0  0  0  0
    2.1863   -1.3781   -3.7573 H   0  0  0  0  0  0  0  0  0  0  0  0
    3.7283   -0.9073   -2.9734 H   0  0  0  0  0  0  0  0  0  0  0  0
    2.4081    0.2810   -3.1057 H   0  0  0  0  0  0  0  0  0  0  0  0
    0.2247    0.3309   -3.1690 H   0  0  0  0  0  0  0  0  0  0  0  0
   -2.4131   -0.1377   -2.8433 H   0  0  0  0  0  0  0  0  0  0  0  0
   -3.9042   -2.0543   -1.2277 H   0  0  0  0  0  0  0  0  0  0  0  0
   -3.6480   -3.9638    0.3759 H   0  0  0  0  0  0  0  0  0  0  0  0
   -1.3711   -4.6843    1.1260 H   0  0  0  0  0  0  0  0  0  0  0  0
    0.6618   -3.5441    0.3422 H   0  0  0  0  0  0  0  0  0  0  0  0
  1 19  1  6  0  0  0
  1  5  1  0  0  0  0
  1  6  1  0  0  0  0
  1  3  1  0  0  0  0
  2 20  1  1  0  0  0
  2  4  1  0  0  0  0
  3 21  1  1  0  0  0
  3  4  1  0  0  0  0
  4 22  1  0  0  0  0
  5  7  1  6  0  0  0
  5  6  1  0  0  0  0
  5  2  1  0  0  0  0
  6  3  1  0  0  0  0
  6  2  1  0  0  0  0
  7  8  1  0  0  0  0
  8 23  1  0  0  0  0
  9  7  1  0  0  0  0
 10  7  1  0  0  0  0
 10 17  1  0  0  0  0
 11 12  1  0  0  0  0
 11 10  1  0  0  0  0
 12 18  1  0  0  0  0
 13 14  1  0  0  0  0
 14 32  1  0  0  0  0
 14 15  2  0  0  0  0
 15 33  1  0  0  0  0
 16 34  1  0  0  0  0
 16 15  1  0  0  0  0
 17 16  2  0  0  0  0
 18 17  1  0  0  0  0
 18 13  2  0  0  0  0
 24  8  1  0  0  0  0
 25  8  1  0  0  0  0
 26  9  1  0  0  0  0
 27  9  1  0  0  0  0
 28  9  1  0  0  0  0
 29 11  1  0  0  0  0
 30 12  1  0  0  0  0
 31 13  1  0  0  0  0
M  END
