4,6
q = 0.0, confidence = 0.994

 19 20  0  0  0  0  0  0  0  0999 V2000
   -2.5446    0.2853   -0.1258 N   0  0  0  0  0  0  0  0  0  0  0  0
   -2.9136   -0.6409    0.8415 C   0  0  0  0  0  0  0  0  0  0  0  0
   -2.0084   -1.6803    0.8880 C   0  0  0  0  0  0  0  0  0  0  0  0
    0.2081   -2.0340   -0.5249 C   0  0  0  0  0  3  0  0  0  0  0  0
    0.9393   -1.4939   -1.6151 C   0  0  0  0  0  3  0  0  0  0  0  0
    0.5667   -0.2333   -2.1817 C   0  0  0  0  0  3  0  0  0  0  0  0
   -0.5712    0.4809   -1.7189 C   0  0  0  0  0  3  0  0  0  0  0  0
   -1.3754   -0.1463   -0.7196 C   0  0  0  0  0  0  0  0  0  0  0  0
   -1.0058   -1.3979   -0.1057 C   0  0  0  0  0  0  0  0  0  0  0  0
   -3.1485    1.5848   -0.3392 C   0  0  0  0  0  0  0  0  0  0  0  0
   -3.8122   -0.4663    1.4450 H   0  0  0  0  0  0  0  0  0  0  0  0
   -2.0516   -2.5530    1.5469 H   0  0  0  0  0  0  0  0  0  0  0  0
    0.5442   -2.9591   -0.0366 H   0  0  0  0  0  0  0  0  0  0  0  0
    1.8590   -1.9879   -1.9555 H   0  0  0  0  0  0  0  0  0  0  0  0
    1.2010    0.2152   -2.9587 H   0  0  0  0  0  0  0  0  0  0  0  0
   -0.8216    1.4670   -2.1294 H   0  0  0  0  0  0  0  0  0  0  0  0
   -2.5310    2.3900    0.1118 H   0  0  0  0  0  0  0  0  0  0  0  0
   -3.2681    1.7842   -1.4228 H   0  0  0  0  0  0  0  0  0  0  0  0
   -4.1509    1.6006    0.1265 H   0  0  0  0  0  0  0  0  0  0  0  0
  1  2  1  0  0  0  0
  2  3  2  0  0  0  0
  2 11  1  0  0  0  0
  3 12  1  0  0  0  0
  4  9  1  0  0  0  0
  4 13  1  0  0  0  0
  5  4  1  0  0  0  0
  6  7  1  0  0  0  0
  6  5  1  0  0  0  0
  7  8  1  0  0  0  0
  8  1  1  0  0  0  0
  8  9  2  0  0  0  0
  9  3  1  0  0  0  0
 10  1  1  0  0  0  0
 10 17  1  0  0  0  0
 10 19  1  0  0  0  0
 14  5  1  0  0  0  0
 15  6  1  0  0  0  0
 16  7  1  0  0  0  0
 18 10  1  0  0  0  0
M  END
