1,19
q = 0.0, confidence = 1.0

 46 47  0  0  0  0  0  0  0  0999 V2000
   -1.2684    0.2261    1.6576 C   0  0  0  0  0  2  0  0  0  0  0  0
   -1.8423    0.4943    2.8555 N   0  0  0  0  0  0  0  0  0  0  0  0
   -0.8700    0.5170    3.8585 C   0  0  0  0  0  0  0  0  0  0  0  0
   -1.1246    0.7146    4.9039 H   0  0  0  0  0  0  0  0  0  0  0  0
    0.3436    0.2575    3.2744 C   0  0  0  0  0  0  0  0  0  0  0  0
    1.3442    0.1850    3.7085 H   0  0  0  0  0  0  0  0  0  0  0  0
    0.0797    0.0794    1.9211 N   0  0  0  0  0  0  0  0  0  0  0  0
   -3.2713    0.7076    3.0401 C   0  0  0  0  0  0  0  0  0  0  0  0
   -3.7571    0.6662    2.0474 H   0  0  0  0  0  0  0  0  0  0  0  0
   -3.4497    1.6995    3.4986 H   0  0  0  0  0  0  0  0  0  0  0  0
   -3.6926   -0.0864    3.6872 H   0  0  0  0  0  0  0  0  0  0  0  0
    0.8591   -0.2020    0.7938 C   0  0  0  0  0  0  0  0  0  0  0  0
    2.2358   -0.3531    0.7643 C   0  0  0  0  0  0  0  0  0  0  0  0
    2.8410   -0.2709    1.6784 H   0  0  0  0  0  0  0  0  0  0  0  0
    2.8510   -0.6331   -0.4819 C   0  0  0  0  0  0  0  0  0  0  0  0
    2.0396   -0.7833   -1.5987 C   0  0  0  0  0  0  0  0  0  0  0  0
    2.4611   -1.0633   -2.5730 H   0  0  0  0  0  0  0  0  0  0  0  0
    0.6860   -0.6082   -1.5372 N   0  0  0  0  0  0  0  0  0  0  0  0
    0.0314   -0.2993   -0.3766 C   0  0  0  0  0  2  0  0  0  0  0  0
   -0.1232   -0.7447   -2.7574 C   0  0  0  0  0  0  0  0  0  0  0  0
   -0.8942   -1.5203   -2.5887 H   0  0  0  0  0  0  0  0  0  0  0  0
    0.5347   -1.0170   -3.6007 H   0  0  0  0  0  0  0  0  0  0  0  0
   -0.6451    0.2115   -2.9510 H   0  0  0  0  0  0  0  0  0  0  0  0
    4.3240   -0.9388   -0.6555 C   0  0  0  0  0  0  0  0  0  0  0  0
    4.6372   -1.9611   -1.2747 O   0  0  0  0  0  0  0  0  0  0  0  0
    5.2381   -0.0795   -0.0920 N   0  0  0  0  0  0  0  0  0  0  0  0
    6.6725   -0.4675   -0.0919 C   0  0  0  0  0  0  0  0  0  0  0  0
    7.1861    0.3610    0.4374 H   0  0  0  0  0  0  0  0  0  0  0  0
    7.2698   -0.5553   -1.5033 C   0  0  0  0  0  0  0  0  0  0  0  0
    6.8018   -1.3817   -2.0687 H   0  0  0  0  0  0  0  0  0  0  0  0
    8.3611   -0.7390   -1.4371 H   0  0  0  0  0  0  0  0  0  0  0  0
    7.1158    0.3878   -2.0631 H   0  0  0  0  0  0  0  0  0  0  0  0
    6.9030   -1.7425    0.7280 C   0  0  0  0  0  0  0  0  0  0  0  0
    6.5072   -1.6269    1.7568 H   0  0  0  0  0  0  0  0  0  0  0  0
    7.9883   -1.9558    0.7982 H   0  0  0  0  0  0  0  0  0  0  0  0
    6.4062   -2.6084    0.2516 H   0  0  0  0  0  0  0  0  0  0  0  0
    4.9025    1.2908    0.3491 C   0  0  0  0  0  0  0  0  0  0  0  0
    3.8118    1.4009    0.1987 H   0  0  0  0  0  0  0  0  0  0  0  0
    5.1995    1.5054    1.8385 C   0  0  0  0  0  0  0  0  0  0  0  0
    4.6948    0.7442    2.4667 H   0  0  0  0  0  0  0  0  0  0  0  0
    4.8510    2.5070    2.1598 H   0  0  0  0  0  0  0  0  0  0  0  0
    6.2862    1.4483    2.0536 H   0  0  0  0  0  0  0  0  0  0  0  0
    5.5713    2.3574   -0.5301 C   0  0  0  0  0  0  0  0  0  0  0  0
    6.6757    2.3470   -0.4319 H   0  0  0  0  0  0  0  0  0  0  0  0
    5.2207    3.3649   -0.2305 H   0  0  0  0  0  0  0  0  0  0  0  0
    5.3155    2.2082   -1.5973 H   0  0  0  0  0  0  0  0  0  0  0  0
  1  7  1  0  0  0  0
  1  2  1  0  0  0  0
  2  8  1  0  0  0  0
  2  3  1  0  0  0  0
  3  4  1  0  0  0  0
  5  6  1  0  0  0  0
  5  3  2  0  0  0  0
  7  5  1  0  0  0  0
  8 10  1  0  0  0  0
  8 11  1  0  0  0  0
  9  8  1  0  0  0  0
 12  7  1  0  0  0  0
 13 12  2  0  0  0  0
 13 14  1  0  0  0  0
 15 13  1  0  0  0  0
 16 18  1  0  0  0  0
 16 15  2  0  0  0  0
 17 16  1  0  0  0  0
 18 19  1  0  0  0  0
 19 12  1  0  0  0  0
 20 21  1  0  0  0  0
 20 18  1  0  0  0  0
 22 20  1  0  0  0  0
 23 20  1  0  0  0  0
 24 15  1  0  0  0  0
 24 26  1  0  0  0  0
 25 24  2  0  0  0  0
 26 27  1  0  0  0  0
 26 37  1  0  0  0  0
 27 28  1  0  0  0  0
 27 33  1  0  0  0  0
 29 31  1  0  0  0  0
 29 27  1  0  0  0  0
 30 29  1  0  0  0  0
 32 29  1  0  0  0  0
 33 35  1  0  0  0  0
 33 34  1  0  0  0  0
 36 33  1  0  0  0  0
 37 39  1  0  0  0  0
 38 37  1  0  0  0  0
 39 42  1  0  0  0  0
 39 41  1  0  0  0  0
 39 40  1  0  0  0  0
 43 44  1  0  0  0  0
 43 45  1  0  0  0  0
 43 37  1  0  0  0  0
 46 43  1  0  0  0  0
M  END
