1,4
q = -1.0, confidence = 0.034

 21 21  0  0  1  0  0  0  0  0999 V2000
   -0.0564    1.4806    0.8840 C   0  0  0  0  0  3  0  0  0  0  0  0
   -1.8698   -0.0612    0.7261 C   0  0  2  0  0  0  0  0  0  0  0  0
   -0.9980   -0.7244   -0.3292 C   0  0  0  0  0  3  0  0  0  0  0  0
   -0.5469    0.0112   -1.4683 C   0  0  0  0  0  3  0  0  0  0  0  0
   -3.3158   -0.0053    0.2624 C   0  0  0  0  0  0  0  0  0  0  0  0
   -4.1301   -1.1444    0.4072 C   0  0  0  0  0  0  0  0  0  0  0  0
   -5.4462   -1.1449   -0.0771 C   0  0  0  0  0  0  0  0  0  0  0  0
   -5.9638   -0.0013   -0.7063 C   0  0  0  0  0  0  0  0  0  0  0  0
   -5.1587    1.1408   -0.8433 C   0  0  0  0  0  0  0  0  0  0  0  0
   -3.8406    1.1404   -0.3631 C   0  0  0  0  0  0  0  0  0  0  0  0
    0.3816    2.5367    1.2925 O   0  0  0  0  0  0  0  0  0  0  0  0
   -1.4101    1.2574    1.0056 O   0  0  0  0  0  0  0  0  0  0  0  0
   -1.8210   -0.6632    1.6617 H   0  0  0  0  0  0  0  0  0  0  0  0
   -1.2024   -1.8012   -0.4367 H   0  0  0  0  0  0  0  0  0  0  0  0
   -0.8829    1.0529   -1.5978 H   0  0  0  0  0  0  0  0  0  0  0  0
   -0.3614   -0.5378   -2.4047 H   0  0  0  0  0  0  0  0  0  0  0  0
   -3.7298   -2.0399    0.9099 H   0  0  0  0  0  0  0  0  0  0  0  0
   -6.0740   -2.0407    0.0447 H   0  0  0  0  0  0  0  0  0  0  0  0
   -6.9982    0.0022   -1.0821 H   0  0  0  0  0  0  0  0  0  0  0  0
   -5.5630    2.0448   -1.3241 H   0  0  0  0  0  0  0  0  0  0  0  0
   -3.2117    2.0381   -0.4488 H   0  0  0  0  0  0  0  0  0  0  0  0
  1 12  1  0  0  0  0
  1 11  2  0  0  0  0
  2 12  1  0  0  0  0
  2 13  1  1  0  0  0
  3  2  1  0  0  0  0
  4  3  1  0  0  0  0
  5  6  1  0  0  0  0
  5  2  1  0  0  0  0
  6 17  1  0  0  0  0
  7 18  1  0  0  0  0
  7  6  2  0  0  0  0
  8  7  1  0  0  0  0
  9  8  2  0  0  0  0
  9 10  1  0  0  0  0
 10  5  2  0  0  0  0
 14  3  1  0  0  0  0
 15  4  1  0  0  0  0
 16  4  1  0  0  0  0
 19  8  1  0  0  0  0
 20  9  1  0  0  0  0
 21 10  1  0  0  0  0
M  END
