4,20
q = 0.0, confidence = 0.98

 21 21  0  0  1  0  0  0  0  0999 V2000
   -2.5823   -0.3111    1.5241 C   0  0  0  0  0  0  0  0  0  0  0  0
   -2.2527    0.2739    2.3959 H   0  0  0  0  0  0  0  0  0  0  0  0
   -3.3389   -1.8370   -0.7976 C   0  0  0  0  0  0  0  0  0  0  0  0
   -2.3214   -1.7148    1.4836 C   0  0  2  0  0  3  0  0  0  0  0  0
   -2.7421   -2.4699    0.3197 C   0  0  0  0  0  0  0  0  0  0  0  0
   -2.5390   -3.5506    0.2770 H   0  0  0  0  0  0  0  0  0  0  0  0
   -3.1554    0.3706    0.3906 C   0  0  0  0  0  0  0  0  0  0  0  0
   -3.6734   -2.5889   -2.0487 C   0  0  0  0  0  0  0  0  0  0  0  0
   -4.7293   -2.4120   -2.3362 H   0  0  0  0  0  0  0  0  0  0  0  0
   -3.5123   -3.6760   -1.9298 H   0  0  0  0  0  0  0  0  0  0  0  0
   -3.0248   -2.2263   -2.8751 H   0  0  0  0  0  0  0  0  0  0  0  0
   -1.6579   -2.4082    2.6396 C   0  0  0  0  0  0  0  0  0  0  0  0
   -1.0785   -1.6963    3.2571 H   0  0  0  0  0  0  0  0  0  0  0  0
   -0.9778   -3.2115    2.2961 H   0  0  0  0  0  0  0  0  0  0  0  0
   -2.4244   -2.8788    3.2905 H   0  0  0  0  0  0  0  0  0  0  0  0
   -3.3725    1.8578    0.4138 C   0  0  0  0  0  0  0  0  0  0  0  0
   -3.2458    2.2968   -0.5942 H   0  0  0  0  0  0  0  0  0  0  0  0
   -2.6763    2.3592    1.1124 H   0  0  0  0  0  0  0  0  0  0  0  0
   -4.4061    2.0779    0.7537 H   0  0  0  0  0  0  0  0  0  0  0  0
   -3.4839   -0.3975   -0.7668 C   0  0  0  0  0  3  0  0  0  0  0  0
   -3.8434    0.1189   -1.6684 H   0  0  0  0  0  0  0  0  0  0  0  0
  1  2  1  0  0  0  0
  3 20  1  0  0  0  0
  3  5  2  0  0  0  0
  4  1  1  0  0  0  0
  4 12  1  1  0  0  0
  5  4  1  0  0  0  0
  6  5  1  0  0  0  0
  7 16  1  0  0  0  0
  7  1  2  0  0  0  0
  8 10  1  0  0  0  0
  8  3  1  0  0  0  0
  9  8  1  0  0  0  0
 11  8  1  0  0  0  0
 12 13  1  0  0  0  0
 12 15  1  0  0  0  0
 14 12  1  0  0  0  0
 16 19  1  0  0  0  0
 16 18  1  0  0  0  0
 17 16  1  0  0  0  0
 20  7  1  0  0  0  0
 21 20  1  0  0  0  0
M  END
