1,14
q = 0.0, confidence = 0.744

 22 22  0  0  0  0  0  0  0  0999 V2000
   -0.2619   -1.9296   -0.0093 C   0  0  0  0  0  3  0  0  0  0  0  0
   -0.2776   -2.3585   -1.0362 H   0  0  0  0  0  0  0  0  0  0  0  0
    0.6682   -2.2722    0.4968 H   0  0  0  0  0  0  0  0  0  0  0  0
   -1.5344   -2.3691    0.7577 C   0  0  0  0  0  0  0  0  0  0  0  0
   -1.7923   -3.8753    0.5740 C   0  0  0  0  0  0  0  0  0  0  0  0
   -2.6630   -4.2248    1.1681 H   0  0  0  0  0  0  0  0  0  0  0  0
   -0.9092   -4.4585    0.9086 H   0  0  0  0  0  0  0  0  0  0  0  0
   -1.9842   -4.1214   -0.4901 H   0  0  0  0  0  0  0  0  0  0  0  0
   -1.3742   -2.0608    2.2629 C   0  0  0  0  0  0  0  0  0  0  0  0
   -1.1608   -0.9830    2.4126 H   0  0  0  0  0  0  0  0  0  0  0  0
   -0.5334   -2.6446    2.6946 H   0  0  0  0  0  0  0  0  0  0  0  0
   -2.2979   -2.3152    2.8228 H   0  0  0  0  0  0  0  0  0  0  0  0
   -2.6368   -1.4970    0.1804 C   0  0  0  0  0  0  0  0  0  0  0  0
   -2.1800   -0.2545   -0.3447 C   0  0  0  0  0  3  0  0  0  0  0  0
   -3.1150    0.5887   -0.9826 C   0  0  0  0  0  0  0  0  0  0  0  0
   -2.7834    1.5188   -1.4733 H   0  0  0  0  0  0  0  0  0  0  0  0
   -4.4778    0.2423   -1.0455 C   0  0  0  0  0  0  0  0  0  0  0  0
   -5.1933    0.9129   -1.5481 H   0  0  0  0  0  0  0  0  0  0  0  0
   -4.9219   -0.9637   -0.4812 C   0  0  0  0  0  0  0  0  0  0  0  0
   -5.9880   -1.2359   -0.5272 H   0  0  0  0  0  0  0  0  0  0  0  0
   -3.9979   -1.8375    0.1186 C   0  0  0  0  0  0  0  0  0  0  0  0
   -4.3458   -2.7997    0.5279 H   0  0  0  0  0  0  0  0  0  0  0  0
  1  3  1  0  0  0  0
  1  4  1  0  0  0  0
  2  1  1  0  0  0  0
  4  9  1  0  0  0  0
  5  4  1  0  0  0  0
  5  7  1  0  0  0  0
  5  6  1  0  0  0  0
  8  5  1  0  0  0  0
  9 10  1  0  0  0  0
  9 11  1  0  0  0  0
  9 12  1  0  0  0  0
 13  4  1  0  0  0  0
 14 13  2  0  0  0  0
 15 14  1  0  0  0  0
 16 15  1  0  0  0  0
 17 15  2  0  0  0  0
 17 19  1  0  0  0  0
 18 17  1  0  0  0  0
 19 21  2  0  0  0  0
 20 19  1  0  0  0  0
 21 13  1  0  0  0  0
 21 22  1  0  0  0  0
M  END
