4,14
q = 0.0, confidence = 0.708

 63 66  0  0  1  0  0  0  0  0999 V2000
    2.1538   -0.3397   -0.0487 P   0  0  0  0  0  4  0  0  0  0  0  0
    2.5159    2.4610   -1.2882 O   0  0  0  0  0  0  0  0  0  0  0  0
    2.3208    3.3754    0.7833 O   0  0  0  0  0  0  0  0  0  0  0  0
   -1.0079    0.3081    0.8716 C   0  0  0  0  0  3  0  0  0  0  0  0
   -0.5037   -0.6755    0.8686 H   0  0  0  0  0  0  0  0  0  0  0  0
   -0.1820    1.2884    0.0251 C   0  0  1  0  0  0  0  0  0  0  0  0
   -0.2118    0.9631   -1.0367 H   0  0  0  0  0  0  0  0  0  0  0  0
   -0.7152    2.7324    0.0592 C   0  0  0  0  0  0  0  0  0  0  0  0
   -0.6641    3.1254    1.0947 H   0  0  0  0  0  0  0  0  0  0  0  0
   -0.0544    3.3907   -0.5444 H   0  0  0  0  0  0  0  0  0  0  0  0
   -2.1275    2.8734   -0.5289 C   0  0  0  0  0  0  0  0  0  0  0  0
   -2.4409    3.9388   -0.4247 H   0  0  0  0  0  0  0  0  0  0  0  0
   -2.0669    2.6941   -1.6247 H   0  0  0  0  0  0  0  0  0  0  0  0
   -3.2511    2.0047   -0.0061 C   0  0  0  0  0  3  0  0  0  0  0  0
   -4.1767    2.1019   -0.6027 H   0  0  0  0  0  0  0  0  0  0  0  0
   -3.4452    1.5011    1.3202 C   0  0  0  0  0  3  0  0  0  0  0  0
   -4.4943    1.3080    1.6042 H   0  0  0  0  0  0  0  0  0  0  0  0
   -2.4581    1.6874    2.4722 C   0  0  0  0  0  0  0  0  0  0  0  0
   -2.9793    1.4871    3.4293 H   0  0  0  0  0  0  0  0  0  0  0  0
   -2.1403    2.7516    2.5198 H   0  0  0  0  0  0  0  0  0  0  0  0
   -1.2420    0.7397    2.3309 C   0  0  0  0  0  0  0  0  0  0  0  0
   -1.4484   -0.1835    2.9088 H   0  0  0  0  0  0  0  0  0  0  0  0
   -0.3359    1.1935    2.8069 H   0  0  0  0  0  0  0  0  0  0  0  0
    1.3371    1.2486    0.4612 C   0  0  2  0  0  0  0  0  0  0  0  0
    1.3832    1.3009    1.5688 H   0  0  0  0  0  0  0  0  0  0  0  0
    2.1275    2.3957   -0.1356 C   0  0  0  0  0  0  0  0  0  0  0  0
    2.9634    4.5606    0.2862 C   0  0  0  0  0  0  0  0  0  0  0  0
    3.0390    5.2490    1.1458 H   0  0  0  0  0  0  0  0  0  0  0  0
    2.3616    5.0172   -0.5247 H   0  0  0  0  0  0  0  0  0  0  0  0
    3.9682    4.3208   -0.1156 H   0  0  0  0  0  0  0  0  0  0  0  0
    3.9450   -0.2287    0.2715 C   0  0  0  0  0  0  0  0  0  0  0  0
    4.7583   -1.2756   -0.2145 C   0  0  0  0  0  0  0  0  0  0  0  0
    4.3171   -2.0842   -0.8170 H   0  0  0  0  0  0  0  0  0  0  0  0
    6.1290   -1.2859    0.0720 C   0  0  0  0  0  0  0  0  0  0  0  0
    6.7598   -2.1001   -0.3146 H   0  0  0  0  0  0  0  0  0  0  0  0
    6.6935   -0.2643    0.8541 C   0  0  0  0  0  0  0  0  0  0  0  0
    7.7703   -0.2758    1.0796 H   0  0  0  0  0  0  0  0  0  0  0  0
    5.8832    0.7663    1.3524 C   0  0  0  0  0  0  0  0  0  0  0  0
    6.3204    1.5638    1.9714 H   0  0  0  0  0  0  0  0  0  0  0  0
    4.5092    0.7888    1.0659 C   0  0  0  0  0  0  0  0  0  0  0  0
    3.8908    1.6046    1.4660 H   0  0  0  0  0  0  0  0  0  0  0  0
    1.8682   -0.6569   -1.8046 C   0  0  0  0  0  0  0  0  0  0  0  0
    0.6044   -1.1265   -2.2252 C   0  0  0  0  0  0  0  0  0  0  0  0
   -0.2104   -1.3872   -1.5199 H   0  0  0  0  0  0  0  0  0  0  0  0
    0.3523   -1.2792   -3.5964 C   0  0  0  0  0  0  0  0  0  0  0  0
   -0.6377   -1.6462   -3.9062 H   0  0  0  0  0  0  0  0  0  0  0  0
    1.3403   -0.9615   -4.5397 C   0  0  0  0  0  0  0  0  0  0  0  0
    1.1355   -1.0822   -5.6144 H   0  0  0  0  0  0  0  0  0  0  0  0
    2.5904   -0.4779   -4.1159 C   0  0  0  0  0  0  0  0  0  0  0  0
    3.3611   -0.2126   -4.8547 H   0  0  0  0  0  0  0  0  0  0  0  0
    2.8588   -0.3146   -2.7516 C   0  0  0  0  0  0  0  0  0  0  0  0
    3.8245    0.0963   -2.4268 H   0  0  0  0  0  0  0  0  0  0  0  0
    1.5940   -1.7040    1.0114 C   0  0  0  0  0  0  0  0  0  0  0  0
    1.0618   -2.8995    0.4931 C   0  0  0  0  0  0  0  0  0  0  0  0
    0.9388   -3.0409   -0.5874 H   0  0  0  0  0  0  0  0  0  0  0  0
    0.6457   -3.9064    1.3767 C   0  0  0  0  0  0  0  0  0  0  0  0
    0.1959   -4.8230    0.9697 H   0  0  0  0  0  0  0  0  0  0  0  0
    0.7691   -3.7303    2.7609 C   0  0  0  0  0  0  0  0  0  0  0  0
    0.4262   -4.5185    3.4477 H   0  0  0  0  0  0  0  0  0  0  0  0
    1.3233   -2.5447    3.2760 C   0  0  0  0  0  0  0  0  0  0  0  0
    1.4251   -2.4062    4.3625 H   0  0  0  0  0  0  0  0  0  0  0  0
    1.7402   -1.5320    2.4068 C   0  0  0  0  0  0  0  0  0  0  0  0
    2.1715   -0.6059    2.8174 H   0  0  0  0  0  0  0  0  0  0  0  0
  1 31  1  0  0  0  0
  1 24  1  0  0  0  0
  1 53  1  0  0  0  0
  2 26  2  0  0  0  0
  4 21  1  0  0  0  0
  5  4  1  0  0  0  0
  6  7  1  6  0  0  0
  6  8  1  0  0  0  0
  6 24  1  0  0  0  0
  6  4  1  0  0  0  0
  8  9  1  0  0  0  0
 10  8  1  0  0  0  0
 11 12  1  0  0  0  0
 11 14  1  0  0  0  0
 11  8  1  0  0  0  0
 13 11  1  0  0  0  0
 14 16  1  0  0  0  0
 15 14  1  0  0  0  0
 16 17  1  0  0  0  0
 16 18  1  0  0  0  0
 18 20  1  0  0  0  0
 18 19  1  0  0  0  0
 21 18  1  0  0  0  0
 21 23  1  0  0  0  0
 21 22  1  0  0  0  0
 24 25  1  1  0  0  0
 26 24  1  0  0  0  0
 26  3  1  0  0  0  0
 27  3  1  0  0  0  0
 27 28  1  0  0  0  0
 29 27  1  0  0  0  0
 30 27  1  0  0  0  0
 31 40  1  0  0  0  0
 32 34  1  0  0  0  0
 32 31  2  0  0  0  0
 33 32  1  0  0  0  0
 34 36  2  0  0  0  0
 35 34  1  0  0  0  0
 36 37  1  0  0  0  0
 36 38  1  0  0  0  0
 38 39  1  0  0  0  0
 40 38  2  0  0  0  0
 40 41  1  0  0  0  0
 42  1  1  0  0  0  0
 43 42  1  0  0  0  0
 43 44  1  0  0  0  0
 45 43  2  0  0  0  0
 46 45  1  0  0  0  0
 47 49  2  0  0  0  0
 47 45  1  0  0  0  0
 48 47  1  0  0  0  0
 49 51  1  0  0  0  0
 50 49  1  0  0  0  0
 51 52  1  0  0  0  0
 51 42  2  0  0  0  0
 53 62  1  0  0  0  0
 54 53  2  0  0  0  0
 54 56  1  0  0  0  0
 55 54  1  0  0  0  0
 56 58  2  0  0  0  0
 57 56  1  0  0  0  0
 58 60  1  0  0  0  0
 58 59  1  0  0  0  0
 60 61  1  0  0  0  0
 62 63  1  0  0  0  0
 62 60  2  0  0  0  0
M  END
