3,6
q = -1.0, confidence = 0.0

 33 35  0  0  1  0  0  0  0  0999 V2000
   -0.2503    0.7703    0.9151 C   0  0  0  0  0  0  0  0  0  0  0  0
   -0.1698   -0.6734    0.9578 C   0  0  0  0  0  0  0  0  0  0  0  0
    1.0852   -1.0075    1.5677 C   0  0  0  0  0  3  0  0  0  0  0  0
    1.4610   -2.0274    1.7078 H   0  0  0  0  0  0  0  0  0  0  0  0
    1.7938    0.1852    1.8891 C   0  0  1  0  0  3  0  0  0  0  0  0
    0.9769    1.2731    1.4526 C   0  0  0  0  0  3  0  0  0  0  0  0
    1.2346    2.3356    1.5399 H   0  0  0  0  0  0  0  0  0  0  0  0
   -1.4026    1.6152    0.5435 C   0  0  0  0  0  0  0  0  0  0  0  0
   -2.7151    1.2149    0.8796 C   0  0  0  0  0  0  0  0  0  0  0  0
   -2.8761    0.2493    1.3793 H   0  0  0  0  0  0  0  0  0  0  0  0
   -3.8075    2.0458    0.5967 C   0  0  0  0  0  0  0  0  0  0  0  0
   -4.8228    1.7193    0.8683 H   0  0  0  0  0  0  0  0  0  0  0  0
   -3.6090    3.2892   -0.0237 C   0  0  0  0  0  0  0  0  0  0  0  0
   -4.4683    3.9390   -0.2485 H   0  0  0  0  0  0  0  0  0  0  0  0
   -2.3076    3.7001   -0.3547 C   0  0  0  0  0  0  0  0  0  0  0  0
   -2.1427    4.6715   -0.8448 H   0  0  0  0  0  0  0  0  0  0  0  0
   -1.2139    2.8717   -0.0740 C   0  0  0  0  0  0  0  0  0  0  0  0
   -0.2002    3.1850   -0.3632 H   0  0  0  0  0  0  0  0  0  0  0  0
   -1.1349   -1.6703    0.4517 C   0  0  0  0  0  0  0  0  0  0  0  0
   -1.3077   -2.8842    1.1551 C   0  0  0  0  0  0  0  0  0  0  0  0
   -0.7409   -3.0580    2.0820 H   0  0  0  0  0  0  0  0  0  0  0  0
   -2.2105   -3.8542    0.6995 C   0  0  0  0  0  0  0  0  0  0  0  0
   -2.3364   -4.7903    1.2644 H   0  0  0  0  0  0  0  0  0  0  0  0
   -2.9533   -3.6306   -0.4702 C   0  0  0  0  0  0  0  0  0  0  0  0
   -3.6604   -4.3929   -0.8307 H   0  0  0  0  0  0  0  0  0  0  0  0
   -2.7843   -2.4308   -1.1810 C   0  0  0  0  0  0  0  0  0  0  0  0
   -3.3524   -2.2529   -2.1065 H   0  0  0  0  0  0  0  0  0  0  0  0
   -1.8854   -1.4582   -0.7278 C   0  0  0  0  0  0  0  0  0  0  0  0
   -1.7356   -0.5353   -1.3046 H   0  0  0  0  0  0  0  0  0  0  0  0
    3.1155    0.2790    2.5851 C   0  0  0  0  0  0  0  0  0  0  0  0
    3.6773    1.1744    2.2592 H   0  0  0  0  0  0  0  0  0  0  0  0
    3.7409   -0.6124    2.3863 H   0  0  0  0  0  0  0  0  0  0  0  0
    2.9612    0.3468    3.6830 H   0  0  0  0  0  0  0  0  0  0  0  0
  1  2  2  0  0  0  0
  1  6  1  0  0  0  0
  2  3  1  0  0  0  0
  3  4  1  0  0  0  0
  3  5  1  0  0  0  0
  5 30  1  1  0  0  0
  6  7  1  0  0  0  0
  6  5  1  0  0  0  0
  8  9  1  0  0  0  0
  8  1  1  0  0  0  0
  9 10  1  0  0  0  0
 11 12  1  0  0  0  0
 11  9  2  0  0  0  0
 13 11  1  0  0  0  0
 14 13  1  0  0  0  0
 15 17  1  0  0  0  0
 15 13  2  0  0  0  0
 16 15  1  0  0  0  0
 17  8  2  0  0  0  0
 18 17  1  0  0  0  0
 19  2  1  0  0  0  0
 19 20  1  0  0  0  0
 20 21  1  0  0  0  0
 22 20  2  0  0  0  0
 22 23  1  0  0  0  0
 24 22  1  0  0  0  0
 25 24  1  0  0  0  0
 26 28  1  0  0  0  0
 26 24  2  0  0  0  0
 27 26  1  0  0  0  0
 28 19  2  0  0  0  0
 29 28  1  0  0  0  0
 30 33  1  0  0  0  0
 31 30  1  0  0  0  0
 32 30  1  0  0  0  0
M  END
