1,3
q = -2.0, confidence = 0.67

  4  5  0  0  1  0  0  0  0  0999 V2000
    3.2912    0.8888   -0.1677 C   0  0  1  0  0  0  0  0  0  0  0  0
    3.2552    1.8451    0.9719 C   0  0  0  0  0  0  0  0  0  0  0  0
    1.8965    1.8279    0.6357 C   0  0  1  0  0  0  0  0  0  0  0  0
    2.2998    1.7406   -0.8553 C   0  0  0  0  0  0  0  0  0  0  0  0
  1  4  1  6  0  0  0
  1  3  1  0  0  0  0
  1  2  1  0  0  0  0
  3  4  1  6  0  0  0
  3  2  1  0  0  0  0
M  END
