24,47
q = 0.0, confidence = 0.986

 55 59  0  0  0  0  0  0  0  0999 V2000
   -2.2024   -1.2164    1.7724 C   0  0  0  0  0  0  0  0  0  0  0  0
   -1.6683    0.0000    2.2558 C   0  0  0  0  0  0  0  0  0  0  0  0
   -0.4901   -0.0001    3.2014 C   0  0  0  0  0  0  0  0  0  0  0  0
   -0.4995   -0.8907    3.8593 H   0  0  0  0  0  0  0  0  0  0  0  0
   -0.4993    0.8906    3.8592 H   0  0  0  0  0  0  0  0  0  0  0  0
    0.4824   -0.0002    2.6665 H   0  0  0  0  0  0  0  0  0  0  0  0
   -2.2023    1.2165    1.7725 C   0  0  0  0  0  0  0  0  0  0  0  0
   -3.3944    1.2295    1.0093 C   0  0  0  0  0  0  0  0  0  0  0  0
   -3.9848    2.5049    0.4651 C   0  0  0  0  0  0  0  0  0  0  0  0
   -4.1145    3.2866    1.2416 H   0  0  0  0  0  0  0  0  0  0  0  0
   -4.9752    2.3140    0.0105 H   0  0  0  0  0  0  0  0  0  0  0  0
   -3.3256    2.9063   -0.3355 H   0  0  0  0  0  0  0  0  0  0  0  0
   -3.9980    0.0002    0.7030 C   0  0  0  0  0  0  0  0  0  0  0  0
   -4.9297    0.0002    0.1166 H   0  0  0  0  0  0  0  0  0  0  0  0
   -3.3945   -1.2293    1.0092 C   0  0  0  0  0  0  0  0  0  0  0  0
   -3.9851   -2.5045    0.4651 C   0  0  0  0  0  0  0  0  0  0  0  0
   -4.9756   -2.3136    0.0107 H   0  0  0  0  0  0  0  0  0  0  0  0
   -4.1147   -3.2863    1.2416 H   0  0  0  0  0  0  0  0  0  0  0  0
   -3.3262   -2.9059   -0.3357 H   0  0  0  0  0  0  0  0  0  0  0  0
   -1.3998   -2.4707    1.9608 C   0  0  0  0  0  0  0  0  0  0  0  0
   -1.2708   -2.7257    3.0347 H   0  0  0  0  0  0  0  0  0  0  0  0
   -1.9027   -3.3286    1.4769 H   0  0  0  0  0  0  0  0  0  0  0  0
   -0.0364   -2.3929    1.3897 N   0  0  0  0  0  0  0  0  0  0  0  0
    0.4415   -1.5414    0.4242 C   0  0  0  0  0  2  0  0  0  0  0  0
    1.6910   -2.0324    0.1364 N   0  0  0  0  0  0  0  0  0  0  0  0
    1.9871   -3.1531    0.8994 C   0  0  0  0  0  0  0  0  0  0  0  0
    2.9338   -3.6925    0.8139 H   0  0  0  0  0  0  0  0  0  0  0  0
    0.8970   -3.3785    1.6915 C   0  0  0  0  0  0  0  0  0  0  0  0
    0.6955   -4.1598    2.4301 H   0  0  0  0  0  0  0  0  0  0  0  0
    2.5444   -1.5318   -0.9444 C   0  0  0  0  0  0  0  0  0  0  0  0
    1.8695   -0.9753   -1.6212 H   0  0  0  0  0  0  0  0  0  0  0  0
    2.9098   -2.4155   -1.5043 H   0  0  0  0  0  0  0  0  0  0  0  0
    3.7243    0.7086   -0.4649 C   0  0  0  0  0  0  0  0  0  0  0  0
    3.7243   -0.7087   -0.4648 C   0  0  0  0  0  0  0  0  0  0  0  0
    4.8750   -1.3887   -0.0134 C   0  0  0  0  0  0  0  0  0  0  0  0
    4.8930   -2.4895   -0.0482 H   0  0  0  0  0  0  0  0  0  0  0  0
    6.0004   -0.7014    0.4565 C   0  0  0  0  0  0  0  0  0  0  0  0
    6.8833   -1.2592    0.8029 H   0  0  0  0  0  0  0  0  0  0  0  0
    6.0004    0.7012    0.4564 C   0  0  0  0  0  0  0  0  0  0  0  0
    6.8834    1.2590    0.8026 H   0  0  0  0  0  0  0  0  0  0  0  0
    4.8751    1.3886   -0.0136 C   0  0  0  0  0  0  0  0  0  0  0  0
    4.8932    2.4894   -0.0486 H   0  0  0  0  0  0  0  0  0  0  0  0
    2.5445    1.5318   -0.9445 C   0  0  0  0  0  0  0  0  0  0  0  0
    2.9099    2.4154   -1.5044 H   0  0  0  0  0  0  0  0  0  0  0  0
    1.8696    0.9753   -1.6212 H   0  0  0  0  0  0  0  0  0  0  0  0
    1.6911    2.0323    0.1363 N   0  0  0  0  0  0  0  0  0  0  0  0
    0.4416    1.5414    0.4242 C   0  0  0  0  0  2  0  0  0  0  0  0
   -0.0362    2.3928    1.3898 N   0  0  0  0  0  0  0  0  0  0  0  0
    0.8973    3.3783    1.6916 C   0  0  0  0  0  0  0  0  0  0  0  0
    0.6959    4.1596    2.4303 H   0  0  0  0  0  0  0  0  0  0  0  0
    1.9873    3.1529    0.8994 C   0  0  0  0  0  0  0  0  0  0  0  0
    2.9341    3.6923    0.8139 H   0  0  0  0  0  0  0  0  0  0  0  0
   -1.3995    2.4707    1.9610 C   0  0  0  0  0  0  0  0  0  0  0  0
   -1.9024    3.3286    1.4771 H   0  0  0  0  0  0  0  0  0  0  0  0
   -1.2706    2.7256    3.0349 H   0  0  0  0  0  0  0  0  0  0  0  0
  1 20  1  0  0  0  0
  1  2  1  0  0  0  0
  2  3  1  0  0  0  0
  3  5  1  0  0  0  0
  3  4  1  0  0  0  0
  6  3  1  0  0  0  0
  7 53  1  0  0  0  0
  7  2  2  0  0  0  0
  8  7  1  0  0  0  0
  9  8  1  0  0  0  0
  9 10  1  0  0  0  0
 11  9  1  0  0  0  0
 12  9  1  0  0  0  0
 13 15  1  0  0  0  0
 13  8  2  0  0  0  0
 14 13  1  0  0  0  0
 15  1  2  0  0  0  0
 16 15  1  0  0  0  0
 16 18  1  0  0  0  0
 17 16  1  0  0  0  0
 19 16  1  0  0  0  0
 20 21  1  0  0  0  0
 22 20  1  0  0  0  0
 23 28  1  0  0  0  0
 23 20  1  0  0  0  0
 24 23  1  0  0  0  0
 25 24  1  0  0  0  0
 25 26  1  0  0  0  0
 26 28  2  0  0  0  0
 27 26  1  0  0  0  0
 28 29  1  0  0  0  0
 30 34  1  0  0  0  0
 30 25  1  0  0  0  0
 31 30  1  0  0  0  0
 32 30  1  0  0  0  0
 33 34  2  0  0  0  0
 33 41  1  0  0  0  0
 34 35  1  0  0  0  0
 35 37  2  0  0  0  0
 36 35  1  0  0  0  0
 37 38  1  0  0  0  0
 39 37  1  0  0  0  0
 39 40  1  0  0  0  0
 41 39  2  0  0  0  0
 42 41  1  0  0  0  0
 43 33  1  0  0  0  0
 43 46  1  0  0  0  0
 44 43  1  0  0  0  0
 45 43  1  0  0  0  0
 46 47  1  0  0  0  0
 46 51  1  0  0  0  0
 47 48  1  0  0  0  0
 48 49  1  0  0  0  0
 48 53  1  0  0  0  0
 49 50  1  0  0  0  0
 51 49  2  0  0  0  0
 52 51  1  0  0  0  0
 53 55  1  0  0  0  0
 54 53  1  0  0  0  0
M  END
