1,4
q = -2.0, confidence = 0.542

  8  7  0  0  0  0  0  0  0  0999 V2000
   -0.8463   -1.9942   -1.4709 C   0  0  0  0  0  3  0  0  0  0  0  0
   -0.4880   -3.1509   -0.8382 C   0  0  0  0  0  0  0  0  0  0  0  0
   -0.7753   -3.1564    0.5868 C   0  0  0  0  0  0  0  0  0  0  0  0
   -1.3555   -2.0055    1.0336 C   0  0  0  0  0  3  0  0  0  0  0  0
   -0.7032   -1.8390   -2.5572 H   0  0  0  0  0  0  0  0  0  0  0  0
   -0.0087   -4.0065   -1.3478 H   0  0  0  0  0  0  0  0  0  0  0  0
   -0.5218   -4.0108    1.2396 H   0  0  0  0  0  0  0  0  0  0  0  0
   -1.6568   -1.8662    2.0900 H   0  0  0  0  0  0  0  0  0  0  0  0
  1  2  2  0  0  0  0
  2  3  1  0  0  0  0
  3  4  2  0  0  0  0
  3  7  1  0  0  0  0
  4  8  1  0  0  0  0
  5  1  1  0  0  0  0
  6  2  1  0  0  0  0
M  END
