25,41
q = 0.0, confidence = 0.996

 62 64  0  0  1  0  0  0  0  0999 V2000
    0.7649   -0.1614   -0.7101 C   0  0  2  0  0  3  0  0  0  0  0  0
    2.0249    0.3303   -0.7247 O   0  0  0  0  0  0  0  0  0  0  0  0
    3.1835    0.8465    0.4579 Si  0  0  0  0  0  0  0  0  0  0  0  0
    2.7454    2.5484    1.1345 C   0  0  0  0  0  0  0  0  0  0  0  0
    1.7637    2.5382    1.6469 H   0  0  0  0  0  0  0  0  0  0  0  0
    2.7376    3.3375    0.3564 H   0  0  0  0  0  0  0  0  0  0  0  0
    3.5081    2.8302    1.8901 H   0  0  0  0  0  0  0  0  0  0  0  0
    3.3018   -0.3650    1.8911 C   0  0  0  0  0  0  0  0  0  0  0  0
    3.3677   -1.4252    1.5815 H   0  0  0  0  0  0  0  0  0  0  0  0
    2.4360   -0.2635    2.5725 H   0  0  0  0  0  0  0  0  0  0  0  0
    4.2155   -0.1236    2.4737 H   0  0  0  0  0  0  0  0  0  0  0  0
    4.7884    0.9086   -0.5843 C   0  0  0  0  0  0  0  0  0  0  0  0
    4.5470    1.7602   -1.8450 C   0  0  0  0  0  0  0  0  0  0  0  0
    3.7388    1.3346   -2.4731 H   0  0  0  0  0  0  0  0  0  0  0  0
    5.4709    1.8087   -2.4629 H   0  0  0  0  0  0  0  0  0  0  0  0
    4.2656    2.8041   -1.5937 H   0  0  0  0  0  0  0  0  0  0  0  0
    5.2032   -0.5168   -0.9936 C   0  0  0  0  0  0  0  0  0  0  0  0
    5.3910   -1.1651   -0.1127 H   0  0  0  0  0  0  0  0  0  0  0  0
    6.1424   -0.4901   -1.5897 H   0  0  0  0  0  0  0  0  0  0  0  0
    4.4290   -1.0056   -1.6176 H   0  0  0  0  0  0  0  0  0  0  0  0
    5.9035    1.5448    0.2692 C   0  0  0  0  0  0  0  0  0  0  0  0
    6.1019    0.9691    1.1975 H   0  0  0  0  0  0  0  0  0  0  0  0
    5.6631    2.5875    0.5619 H   0  0  0  0  0  0  0  0  0  0  0  0
    6.8559    1.5757   -0.3049 H   0  0  0  0  0  0  0  0  0  0  0  0
    0.5493   -1.5706   -0.8169 C   0  0  2  0  0  3  0  0  0  0  0  0
    1.7453   -2.4876   -0.9157 C   0  0  0  0  0  0  0  0  0  0  0  0
    1.5031   -3.4735   -0.4745 H   0  0  0  0  0  0  0  0  0  0  0  0
    2.5649   -2.0720   -0.3025 H   0  0  0  0  0  0  0  0  0  0  0  0
    2.2217   -2.6401   -2.3670 C   0  0  0  0  0  0  0  0  0  0  0  0
    3.1231   -3.2822   -2.4233 H   0  0  0  0  0  0  0  0  0  0  0  0
    2.4765   -1.6525   -2.8005 H   0  0  0  0  0  0  0  0  0  0  0  0
    1.4398   -3.0932   -3.0097 H   0  0  0  0  0  0  0  0  0  0  0  0
   -0.7906   -2.0682   -0.9896 C   0  0  1  0  0  3  0  0  0  0  0  0
   -1.0854   -3.5377   -1.2333 C   0  0  0  0  0  0  0  0  0  0  0  0
   -0.1861   -4.0200   -1.6619 H   0  0  0  0  0  0  0  0  0  0  0  0
   -1.8653   -3.6020   -2.0190 H   0  0  0  0  0  0  0  0  0  0  0  0
   -1.5586   -4.3212   -0.0024 C   0  0  0  0  0  0  0  0  0  0  0  0
   -1.7941   -5.3695   -0.2772 H   0  0  0  0  0  0  0  0  0  0  0  0
   -2.4692   -3.8612    0.4262 H   0  0  0  0  0  0  0  0  0  0  0  0
   -0.7840   -4.3369    0.7881 H   0  0  0  0  0  0  0  0  0  0  0  0
   -1.8893   -1.1657   -0.8837 C   0  0  2  0  0  3  0  0  0  0  0  0
   -3.1472   -1.7080   -1.0303 O   0  0  0  0  0  0  0  0  0  0  0  0
   -3.6901   -1.5207   -2.3392 C   0  0  0  0  0  0  0  0  0  0  0  0
   -4.6731   -2.0273   -2.3497 H   0  0  0  0  0  0  0  0  0  0  0  0
   -3.0348   -1.9753   -3.1145 H   0  0  0  0  0  0  0  0  0  0  0  0
   -3.8318   -0.4436   -2.5753 H   0  0  0  0  0  0  0  0  0  0  0  0
   -1.7134    0.2618   -0.6954 C   0  0  0  0  0  0  0  0  0  0  0  0
   -2.8061    1.2183   -0.4667 C   0  0  0  0  0  0  0  0  0  0  0  0
   -4.1451    0.8378   -0.1846 C   0  0  0  0  0  0  0  0  0  0  0  0
   -4.3838   -0.2263   -0.0825 H   0  0  0  0  0  0  0  0  0  0  0  0
   -5.1420    1.7926    0.0161 C   0  0  0  0  0  0  0  0  0  0  0  0
   -6.1645    1.4584    0.2484 H   0  0  0  0  0  0  0  0  0  0  0  0
   -4.8519    3.1703   -0.0582 C   0  0  0  0  0  0  0  0  0  0  0  0
   -5.6465    3.9158    0.0941 H   0  0  0  0  0  0  0  0  0  0  0  0
   -3.5431    3.5795   -0.2968 C   0  0  0  0  0  0  0  0  0  0  0  0
   -3.2788    4.6455   -0.3255 H   0  0  0  0  0  0  0  0  0  0  0  0
   -2.5159    2.6233   -0.4852 C   0  0  0  0  0  0  0  0  0  0  0  0
   -1.1481    3.0428   -0.6513 C   0  0  0  0  0  0  0  0  0  0  0  0
   -0.9158    4.3667   -0.7130 F   0  0  0  0  0  0  0  0  0  0  0  0
   -0.1028    2.1713   -0.7132 C   0  0  0  0  0  0  0  0  0  0  0  0
    0.9227    2.5400   -0.8132 H   0  0  0  0  0  0  0  0  0  0  0  0
   -0.3526    0.7542   -0.7065 C   0  0  0  0  0  0  0  0  0  0  0  0
  1  2  1  6  0  0  0
  1 62  1  0  0  0  0
  2  3  1  0  0  0  0
  3  4  1  0  0  0  0
  3  8  1  0  0  0  0
  4  5  1  0  0  0  0
  4  7  1  0  0  0  0
  6  4  1  0  0  0  0
  8 11  1  0  0  0  0
  8 10  1  0  0  0  0
  9  8  1  0  0  0  0
 12 21  1  0  0  0  0
 12  3  1  0  0  0  0
 13 16  1  0  0  0  0
 13 12  1  0  0  0  0
 14 13  1  0  0  0  0
 15 13  1  0  0  0  0
 17 12  1  0  0  0  0
 17 18  1  0  0  0  0
 19 17  1  0  0  0  0
 20 17  1  0  0  0  0
 21 23  1  0  0  0  0
 21 22  1  0  0  0  0
 24 21  1  0  0  0  0
 25 26  1  6  0  0  0
 25  1  1  0  0  0  0
 26 27  1  0  0  0  0
 26 28  1  0  0  0  0
 29 26  1  0  0  0  0
 30 29  1  0  0  0  0
 31 29  1  0  0  0  0
 32 29  1  0  0  0  0
 33 34  1  1  0  0  0
 33 41  1  0  0  0  0
 33 25  1  0  0  0  0
 34 37  1  0  0  0  0
 35 34  1  0  0  0  0
 36 34  1  0  0  0  0
 37 39  1  0  0  0  0
 37 40  1  0  0  0  0
 38 37  1  0  0  0  0
 41 42  1  6  0  0  0
 41 47  1  0  0  0  0
 43 42  1  0  0  0  0
 44 43  1  0  0  0  0
 45 43  1  0  0  0  0
 46 43  1  0  0  0  0
 47 48  1  0  0  0  0
 48 49  1  0  0  0  0
 49 50  1  0  0  0  0
 49 51  2  0  0  0  0
 51 52  1  0  0  0  0
 53 51  1  0  0  0  0
 53 54  1  0  0  0  0
 55 53  2  0  0  0  0
 56 55  1  0  0  0  0
 57 48  2  0  0  0  0
 57 55  1  0  0  0  0
 58 57  1  0  0  0  0
 59 58  1  0  0  0  0
 60 62  1  0  0  0  0
 60 58  2  0  0  0  0
 61 60  1  0  0  0  0
 62 47  2  0  0  0  0
M  END
