25,41
q = 0.0, confidence = 0.996

 65 67  0  0  1  0  0  0  0  0999 V2000
   -0.7594   -0.1766   -0.7128 C   0  0  1  0  0  3  0  0  0  0  0  0
   -2.0237    0.3072   -0.7240 O   0  0  0  0  0  0  0  0  0  0  0  0
   -3.1757    0.8237    0.4621 Si  0  0  0  0  0  0  0  0  0  0  0  0
   -2.7402    2.5276    1.1379 C   0  0  0  0  0  0  0  0  0  0  0  0
   -1.7545    2.5201    1.6426 H   0  0  0  0  0  0  0  0  0  0  0  0
   -3.4989    2.8061    1.8989 H   0  0  0  0  0  0  0  0  0  0  0  0
   -2.7409    3.3152    0.3582 H   0  0  0  0  0  0  0  0  0  0  0  0
   -3.2908   -0.3868    1.8964 C   0  0  0  0  0  0  0  0  0  0  0  0
   -3.3495   -1.4474    1.5865 H   0  0  0  0  0  0  0  0  0  0  0  0
   -4.2071   -0.1507    2.4772 H   0  0  0  0  0  0  0  0  0  0  0  0
   -2.4266   -0.2804    2.5790 H   0  0  0  0  0  0  0  0  0  0  0  0
   -4.7850    0.8846   -0.5744 C   0  0  0  0  0  0  0  0  0  0  0  0
   -4.5486    1.7359   -1.8362 C   0  0  0  0  0  0  0  0  0  0  0  0
   -3.7415    1.3111   -2.4661 H   0  0  0  0  0  0  0  0  0  0  0  0
   -4.2680    2.7803   -1.5860 H   0  0  0  0  0  0  0  0  0  0  0  0
   -5.4744    1.7830   -2.4517 H   0  0  0  0  0  0  0  0  0  0  0  0
   -5.1987   -0.5416   -0.9823 C   0  0  0  0  0  0  0  0  0  0  0  0
   -5.3830   -1.1898   -0.1006 H   0  0  0  0  0  0  0  0  0  0  0  0
   -4.4251   -1.0293   -1.6077 H   0  0  0  0  0  0  0  0  0  0  0  0
   -6.1395   -0.5168   -1.5760 H   0  0  0  0  0  0  0  0  0  0  0  0
   -5.8986    1.5194    0.2819 C   0  0  0  0  0  0  0  0  0  0  0  0
   -6.0936    0.9435    1.2108 H   0  0  0  0  0  0  0  0  0  0  0  0
   -6.8528    1.5492   -0.2894 H   0  0  0  0  0  0  0  0  0  0  0  0
   -5.6585    2.5624    0.5741 H   0  0  0  0  0  0  0  0  0  0  0  0
   -0.5389   -1.5843   -0.8226 C   0  0  1  0  0  3  0  0  0  0  0  0
   -1.7305   -2.5072   -0.9212 C   0  0  0  0  0  0  0  0  0  0  0  0
   -2.5502   -2.0976   -0.3039 H   0  0  0  0  0  0  0  0  0  0  0  0
   -1.4822   -3.4934   -0.4839 H   0  0  0  0  0  0  0  0  0  0  0  0
   -2.2109   -2.6573   -2.3713 C   0  0  0  0  0  0  0  0  0  0  0  0
   -3.1093   -3.3038   -2.4272 H   0  0  0  0  0  0  0  0  0  0  0  0
   -1.4288   -3.1044   -3.0179 H   0  0  0  0  0  0  0  0  0  0  0  0
   -2.4717   -1.6695   -2.8006 H   0  0  0  0  0  0  0  0  0  0  0  0
    0.8037   -2.0740   -0.9974 C   0  0  2  0  0  3  0  0  0  0  0  0
    1.1054   -3.5412   -1.2458 C   0  0  0  0  0  0  0  0  0  0  0  0
    1.8858   -3.5991   -2.0316 H   0  0  0  0  0  0  0  0  0  0  0  0
    0.2084   -4.0268   -1.6755 H   0  0  0  0  0  0  0  0  0  0  0  0
    1.5828   -4.3258   -0.0172 C   0  0  0  0  0  0  0  0  0  0  0  0
    1.8229   -5.3725   -0.2944 H   0  0  0  0  0  0  0  0  0  0  0  0
    0.8087   -4.3465    0.7737 H   0  0  0  0  0  0  0  0  0  0  0  0
    2.4914   -3.8624    0.4120 H   0  0  0  0  0  0  0  0  0  0  0  0
    1.8988   -1.1664   -0.8917 C   0  0  1  0  0  3  0  0  0  0  0  0
    3.1570   -1.7073   -1.0427 O   0  0  0  0  0  0  0  0  0  0  0  0
    3.7036   -1.5010   -2.3469 C   0  0  0  0  0  0  0  0  0  0  0  0
    4.6876   -2.0057   -2.3612 H   0  0  0  0  0  0  0  0  0  0  0  0
    3.8441   -0.4206   -2.5676 H   0  0  0  0  0  0  0  0  0  0  0  0
    3.0513   -1.9466   -3.1301 H   0  0  0  0  0  0  0  0  0  0  0  0
    1.7154    0.2592   -0.6974 C   0  0  0  0  0  0  0  0  0  0  0  0
    2.7943    1.2291   -0.4629 C   0  0  0  0  0  0  0  0  0  0  0  0
    4.1294    0.8385   -0.1754 C   0  0  0  0  0  0  0  0  0  0  0  0
    4.3594   -0.2277   -0.0758 H   0  0  0  0  0  0  0  0  0  0  0  0
    5.1344    1.7815    0.0346 C   0  0  0  0  0  0  0  0  0  0  0  0
    6.1536    1.4404    0.2712 H   0  0  0  0  0  0  0  0  0  0  0  0
    4.8469    3.1581   -0.0381 C   0  0  0  0  0  0  0  0  0  0  0  0
    5.6410    3.9035    0.1187 H   0  0  0  0  0  0  0  0  0  0  0  0
    3.5390    3.5694   -0.2816 C   0  0  0  0  0  0  0  0  0  0  0  0
    3.3087    4.6434   -0.3037 H   0  0  0  0  0  0  0  0  0  0  0  0
    2.4898    2.6340   -0.4776 C   0  0  0  0  0  0  0  0  0  0  0  0
    1.1175    3.0872   -0.6516 C   0  0  0  0  0  0  0  0  0  0  0  0
    0.1092    2.1607   -0.7132 C   0  0  0  0  0  0  0  0  0  0  0  0
   -0.9314    2.4862   -0.8250 H   0  0  0  0  0  0  0  0  0  0  0  0
    0.3550    0.7431   -0.7052 C   0  0  0  0  0  0  0  0  0  0  0  0
    0.8004    4.5565   -0.7209 C   0  0  0  0  0  0  0  0  0  0  0  0
   -0.2833    4.7205   -0.8711 H   0  0  0  0  0  0  0  0  0  0  0  0
    1.3430    5.0545   -1.5513 H   0  0  0  0  0  0  0  0  0  0  0  0
    1.0957    5.0791    0.2132 H   0  0  0  0  0  0  0  0  0  0  0  0
  1  2  1  6  0  0  0
  1 61  1  0  0  0  0
  2  3  1  0  0  0  0
  3  4  1  0  0  0  0
  3  8  1  0  0  0  0
  4  5  1  0  0  0  0
  4  6  1  0  0  0  0
  7  4  1  0  0  0  0
  8 10  1  0  0  0  0
  8 11  1  0  0  0  0
  9  8  1  0  0  0  0
 12 21  1  0  0  0  0
 12  3  1  0  0  0  0
 13 15  1  0  0  0  0
 13 12  1  0  0  0  0
 14 13  1  0  0  0  0
 16 13  1  0  0  0  0
 17 12  1  0  0  0  0
 17 18  1  0  0  0  0
 19 17  1  0  0  0  0
 20 17  1  0  0  0  0
 21 24  1  0  0  0  0
 21 22  1  0  0  0  0
 23 21  1  0  0  0  0
 25 26  1  6  0  0  0
 25  1  1  0  0  0  0
 26 28  1  0  0  0  0
 26 27  1  0  0  0  0
 29 26  1  0  0  0  0
 30 29  1  0  0  0  0
 31 29  1  0  0  0  0
 32 29  1  0  0  0  0
 33 34  1  1  0  0  0
 33 41  1  0  0  0  0
 33 25  1  0  0  0  0
 34 37  1  0  0  0  0
 35 34  1  0  0  0  0
 36 34  1  0  0  0  0
 37 40  1  0  0  0  0
 37 39  1  0  0  0  0
 38 37  1  0  0  0  0
 41 42  1  6  0  0  0
 41 47  1  0  0  0  0
 43 42  1  0  0  0  0
 44 43  1  0  0  0  0
 45 43  1  0  0  0  0
 46 43  1  0  0  0  0
 47 48  1  0  0  0  0
 48 49  1  0  0  0  0
 49 50  1  0  0  0  0
 49 51  2  0  0  0  0
 51 52  1  0  0  0  0
 53 51  1  0  0  0  0
 53 54  1  0  0  0  0
 55 53  2  0  0  0  0
 56 55  1  0  0  0  0
 57 48  2  0  0  0  0
 57 55  1  0  0  0  0
 58 57  1  0  0  0  0
 59 61  1  0  0  0  0
 59 58  2  0  0  0  0
 60 59  1  0  0  0  0
 61 47  2  0  0  0  0
 62 58  1  0  0  0  0
 62 65  1  0  0  0  0
 63 62  1  0  0  0  0
 64 62  1  0  0  0  0
M  END
