2,4
q = -1.0, confidence = 0.024

 17 18  0  0  1  0  0  0  0  0999 V2000
    0.7309   -2.4158    1.6340 C   0  0  0  0  0  3  0  0  0  0  0  0
   -0.0468   -1.7184    2.5973 C   0  0  0  0  0  3  0  0  0  0  0  0
    0.1585   -0.3599    3.0221 C   0  0  0  0  0  3  0  0  0  0  0  0
    1.1101    0.4987    2.3832 C   0  0  0  0  0  3  0  0  0  0  0  0
    2.0350    0.0935    1.3795 C   0  0  0  0  0  3  0  0  0  0  0  0
    2.9207   -1.1202    1.4223 C   0  0  1  0  0  0  0  0  0  0  0  0
    3.0786   -1.9331    2.6909 C   0  0  0  0  0  0  0  0  0  0  0  0
    2.2289   -2.4485    1.5436 C   0  0  1  0  0  0  0  0  0  0  0  0
    0.2573   -3.3555    1.3039 H   0  0  0  0  0  0  0  0  0  0  0  0
   -0.9509   -2.2108    2.9928 H   0  0  0  0  0  0  0  0  0  0  0  0
   -0.5170    0.0640    3.7802 H   0  0  0  0  0  0  0  0  0  0  0  0
    1.0255    1.5710    2.6212 H   0  0  0  0  0  0  0  0  0  0  0  0
    2.4912    0.9444    0.8488 H   0  0  0  0  0  0  0  0  0  0  0  0
    3.7906   -1.0662    0.7519 H   0  0  0  0  0  0  0  0  0  0  0  0
    4.0489   -2.4203    2.8736 H   0  0  0  0  0  0  0  0  0  0  0  0
    2.5583   -1.5881    3.5973 H   0  0  0  0  0  0  0  0  0  0  0  0
    2.6299   -3.2871    0.9556 H   0  0  0  0  0  0  0  0  0  0  0  0
  1  2  1  0  0  0  0
  2 10  1  0  0  0  0
  2  3  1  0  0  0  0
  3 11  1  0  0  0  0
  4 12  1  0  0  0  0
  4  3  1  0  0  0  0
  5  6  1  0  0  0  0
  5  4  1  0  0  0  0
  6 14  1  6  0  0  0
  6  8  1  0  0  0  0
  6  7  1  0  0  0  0
  7 15  1  0  0  0  0
  7 16  1  0  0  0  0
  8 17  1  6  0  0  0
  8  1  1  0  0  0  0
  8  7  1  0  0  0  0
  9  1  1  0  0  0  0
 13  5  1  0  0  0  0
M  END
