52,58
q = -1.0, confidence = 0.136

 59 63  0  0  1  0  0  0  0  0999 V2000
    4.1509   -4.8792   -0.2010 O   0  0  0  0  0  0  0  0  0  0  0  0
   -0.1071    5.0157    1.0980 O   0  0  0  0  0  0  0  0  0  0  0  0
   -0.9578    5.4493    0.8997 H   0  0  0  0  0  0  0  0  0  0  0  0
    3.2851   -1.7951    1.5164 C   0  0  0  0  0  0  0  0  0  0  0  0
    2.2128   -2.0380    1.3566 H   0  0  0  0  0  0  0  0  0  0  0  0
    3.3575   -1.3832    2.5430 H   0  0  0  0  0  0  0  0  0  0  0  0
    4.0993   -3.0843    1.4182 C   0  0  0  0  0  0  0  0  0  0  0  0
    5.1690   -2.8982    1.6657 H   0  0  0  0  0  0  0  0  0  0  0  0
    3.7463   -3.8573    2.1287 H   0  0  0  0  0  0  0  0  0  0  0  0
    4.0658   -3.6723    0.0146 C   0  0  0  0  0  0  0  0  0  0  0  0
    3.9959   -2.6824   -1.0764 C   0  0  0  0  0  0  0  0  0  0  0  0
    4.1027   -3.0969   -2.0928 H   0  0  0  0  0  0  0  0  0  0  0  0
    3.8884   -1.3375   -0.8899 C   0  0  0  0  0  0  0  0  0  0  0  0
    3.9989   -0.3909   -2.0553 C   0  0  0  0  0  0  0  0  0  0  0  0
    4.0640   -0.9647   -3.0012 H   0  0  0  0  0  0  0  0  0  0  0  0
    4.9600    0.1651   -1.9589 H   0  0  0  0  0  0  0  0  0  0  0  0
    2.8520    0.6248   -2.0985 C   0  0  0  0  0  0  0  0  0  0  0  0
    3.0208    1.3448   -2.9258 H   0  0  0  0  0  0  0  0  0  0  0  0
    1.9006    0.0958   -2.3219 H   0  0  0  0  0  0  0  0  0  0  0  0
    2.7057    1.3660   -0.7655 C   0  0  2  0  0  0  0  0  0  0  0  0
    3.6274    1.9691   -0.5958 H   0  0  0  0  0  0  0  0  0  0  0  0
    2.5368    0.3549    0.3991 C   0  0  1  0  0  0  0  0  0  0  0  0
    1.6237   -0.2334    0.1455 H   0  0  0  0  0  0  0  0  0  0  0  0
    3.6939   -0.7069    0.4909 C   0  0  1  0  0  0  0  0  0  0  0  0
    2.2556    1.0565    1.7442 C   0  0  0  0  0  0  0  0  0  0  0  0
    2.0193    0.2981    2.5159 H   0  0  0  0  0  0  0  0  0  0  0  0
    3.1734    1.5754    2.0915 H   0  0  0  0  0  0  0  0  0  0  0  0
    1.0910    2.0569    1.6763 C   0  0  0  0  0  0  0  0  0  0  0  0
    0.1504    1.4990    1.4884 H   0  0  0  0  0  0  0  0  0  0  0  0
    0.9679    2.5738    2.6510 H   0  0  0  0  0  0  0  0  0  0  0  0
    1.2951    3.0751    0.5468 C   0  0  1  0  0  0  0  0  0  0  0  0
    1.4984    2.3063   -0.7780 C   0  0  1  0  0  0  0  0  0  0  0  0
    0.6045    1.6487   -0.8823 H   0  0  0  0  0  0  0  0  0  0  0  0
    1.3842    3.3844   -1.8729 C   0  0  0  0  0  0  0  0  0  0  0  0
    1.0338    2.9607   -2.8337 H   0  0  0  0  0  0  0  0  0  0  0  0
    2.3731    3.8485   -2.0696 H   0  0  0  0  0  0  0  0  0  0  0  0
    0.3929    4.4262   -1.2891 C   0  0  0  0  0  0  0  0  0  0  0  0
   -0.5228    4.5405   -1.9006 H   0  0  0  0  0  0  0  0  0  0  0  0
    0.8504    5.4300   -1.1898 H   0  0  0  0  0  0  0  0  0  0  0  0
    0.0422    3.9479    0.1652 C   0  0  2  0  0  0  0  0  0  0  0  0
    2.4573    4.0259    0.8861 C   0  0  0  0  0  0  0  0  0  0  0  0
    2.1976    4.6296    1.7758 H   0  0  0  0  0  0  0  0  0  0  0  0
    2.6879    4.7302    0.0640 H   0  0  0  0  0  0  0  0  0  0  0  0
    3.3831    3.4623    1.1075 H   0  0  0  0  0  0  0  0  0  0  0  0
    5.0341   -0.0583    0.9177 C   0  0  0  0  0  0  0  0  0  0  0  0
    4.9614    0.3652    1.9387 H   0  0  0  0  0  0  0  0  0  0  0  0
    5.3412    0.7578    0.2352 H   0  0  0  0  0  0  0  0  0  0  0  0
    5.8493   -0.8086    0.9217 H   0  0  0  0  0  0  0  0  0  0  0  0
   -1.1656    3.1111    0.1407 C   0  0  0  0  0  0  0  0  0  0  0  0
   -2.1017    2.3161    0.1079 C   0  0  0  0  0  0  0  0  0  0  0  0
   -3.1090    1.3154    0.1001 C   0  0  2  0  0  3  0  0  0  0  0  0
   -3.6495    0.6279    1.2578 C   0  0  0  0  0  3  0  0  0  0  0  0
   -3.3633    0.8352    2.2954 H   0  0  0  0  0  0  0  0  0  0  0  0
   -4.6257   -0.3177    0.8170 C   0  0  0  0  0  0  0  0  0  0  0  0
   -5.2319   -0.9654    1.4605 H   0  0  0  0  0  0  0  0  0  0  0  0
   -4.6882   -0.2519   -0.6231 C   0  0  0  0  0  0  0  0  0  0  0  0
   -5.3473   -0.8454   -1.2671 H   0  0  0  0  0  0  0  0  0  0  0  0
   -3.7565    0.7357   -1.0634 C   0  0  0  0  0  3  0  0  0  0  0  0
   -3.5662    1.0369   -2.0999 H   0  0  0  0  0  0  0  0  0  0  0  0
  1 10  2  0  0  0  0
  3  2  1  0  0  0  0
  4  6  1  0  0  0  0
  5  4  1  0  0  0  0
  7  4  1  0  0  0  0
  7  8  1  0  0  0  0
  7  9  1  0  0  0  0
 10  7  1  0  0  0  0
 11 13  2  0  0  0  0
 11 10  1  0  0  0  0
 12 11  1  0  0  0  0
 13 24  1  0  0  0  0
 14 16  1  0  0  0  0
 14 13  1  0  0  0  0
 15 14  1  0  0  0  0
 17 14  1  0  0  0  0
 17 20  1  0  0  0  0
 18 17  1  0  0  0  0
 19 17  1  0  0  0  0
 20 21  1  1  0  0  0
 20 22  1  0  0  0  0
 22 23  1  6  0  0  0
 22 24  1  0  0  0  0
 22 25  1  0  0  0  0
 24 45  1  1  0  0  0
 24  4  1  0  0  0  0
 25 27  1  0  0  0  0
 25 26  1  0  0  0  0
 28 25  1  0  0  0  0
 28 30  1  0  0  0  0
 29 28  1  0  0  0  0
 31 41  1  1  0  0  0
 31 28  1  0  0  0  0
 32 33  1  6  0  0  0
 32 20  1  0  0  0  0
 32 31  1  0  0  0  0
 34 37  1  0  0  0  0
 34 32  1  0  0  0  0
 35 34  1  0  0  0  0
 36 34  1  0  0  0  0
 37 39  1  0  0  0  0
 37 40  1  0  0  0  0
 38 37  1  0  0  0  0
 40 49  1  6  0  0  0
 40 31  1  0  0  0  0
 40  2  1  0  0  0  0
 41 44  1  0  0  0  0
 41 42  1  0  0  0  0
 43 41  1  0  0  0  0
 45 48  1  0  0  0  0
 45 46  1  0  0  0  0
 47 45  1  0  0  0  0
 50 49  3  0  0  0  0
 51 50  1  6  0  0  0
 51 52  1  0  0  0  0
 52 53  1  0  0  0  0
 54 52  1  0  0  0  0
 54 55  1  0  0  0  0
 56 54  2  0  0  0  0
 57 56  1  0  0  0  0
 58 56  1  0  0  0  0
 58 51  1  0  0  0  0
 59 58  1  0  0  0  0
M  END
