5,6
q = -2.0, confidence = 0.754

 13 12  0  0  0  0  0  0  0  0999 V2000
   -0.3193   -2.8855   -2.4563 N   0  0  0  0  0  0  0  0  0  0  0  0
    0.7111   -3.2323    1.8189 N   0  0  0  0  0  0  0  0  0  0  0  0
   -3.5449    0.7487    2.2700 N   0  0  0  0  0  0  0  0  0  0  0  0
   -3.8064    0.0902   -2.1049 N   0  0  0  0  0  0  0  0  0  0  0  0
   -0.8224   -2.1192    0.0047 C   0  0  0  0  0  3  0  0  0  0  0  0
   -2.7455   -0.6061    0.1823 C   0  0  0  0  0  3  0  0  0  0  0  0
   -2.3404   -2.0903    0.3689 C   0  0  0  0  0  0  0  0  0  0  0  0
    0.0335   -2.7401    0.9962 C   0  0  0  0  0  0  0  0  0  0  0  0
   -0.5282   -2.5514   -1.3510 C   0  0  0  0  0  0  0  0  0  0  0  0
   -3.2328    0.1064    1.3331 C   0  0  0  0  0  0  0  0  0  0  0  0
   -3.3620   -0.2409   -1.0671 C   0  0  0  0  0  0  0  0  0  0  0  0
   -2.4687   -2.3841    1.4266 H   0  0  0  0  0  0  0  0  0  0  0  0
   -2.9329   -2.7834   -0.2590 H   0  0  0  0  0  0  0  0  0  0  0  0
  1  9  3  0  0  0  0
  4 11  3  0  0  0  0
  5  7  1  0  0  0  0
  5  8  1  0  0  0  0
  6  7  1  0  0  0  0
  6 10  1  0  0  0  0
  7 12  1  0  0  0  0
  8  2  3  0  0  0  0
  9  5  1  0  0  0  0
 10  3  3  0  0  0  0
 11  6  1  0  0  0  0
 13  7  1  0  0  0  0
M  END
