6,8
q = 0.0, confidence = 0.61

 20 19  0  0  0  0  0  0  0  0999 V2000
    2.0996   -2.7428   -1.6469 O   0  0  0  0  0  0  0  0  0  0  0  0
    3.6434    0.2852    0.9947 O   0  0  0  0  0  0  0  0  0  0  0  0
    3.4992   -0.2680   -1.1948 O   0  0  0  0  0  0  0  0  0  0  0  0
   -0.0918   -3.1641    1.7419 O   0  0  0  0  0  0  0  0  0  0  0  0
   -1.9623   -3.1843    0.4475 O   0  0  0  0  0  0  0  0  0  0  0  0
    1.9166   -1.2257    0.2880 C   0  0  0  0  0  3  0  0  0  0  0  0
    1.4778   -2.2587   -0.7127 C   0  0  0  0  0  0  0  0  0  0  0  0
   -0.0223   -2.2993   -0.5376 C   0  0  0  0  0  3  0  0  0  0  0  0
    3.0970   -0.3618    0.0982 C   0  0  0  0  0  0  0  0  0  0  0  0
    4.6074    0.5979   -1.4299 C   0  0  0  0  0  0  0  0  0  0  0  0
   -0.6226   -2.9129    0.6707 C   0  0  0  0  0  0  0  0  0  0  0  0
   -2.6548   -3.7381    1.5675 C   0  0  0  0  0  0  0  0  0  0  0  0
    1.7707   -1.5311    1.3428 H   0  0  0  0  0  0  0  0  0  0  0  0
   -0.5758   -2.5240   -1.4681 H   0  0  0  0  0  0  0  0  0  0  0  0
    4.8360    0.5158   -2.5078 H   0  0  0  0  0  0  0  0  0  0  0  0
    4.3598    1.6491   -1.1704 H   0  0  0  0  0  0  0  0  0  0  0  0
    5.4868    0.2972   -0.8249 H   0  0  0  0  0  0  0  0  0  0  0  0
   -3.6829   -3.9520    1.2218 H   0  0  0  0  0  0  0  0  0  0  0  0
   -2.6770   -3.0256    2.4187 H   0  0  0  0  0  0  0  0  0  0  0  0
   -2.1657   -4.6693    1.9181 H   0  0  0  0  0  0  0  0  0  0  0  0
  1  7  2  0  0  0  0
  3  9  1  0  0  0  0
  5 11  1  0  0  0  0
  5 12  1  0  0  0  0
  6 13  1  0  0  0  0
  7  8  1  0  0  0  0
  7  6  1  0  0  0  0
  8 11  1  0  0  0  0
  9  6  1  0  0  0  0
  9  2  2  0  0  0  0
 10  3  1  0  0  0  0
 10 16  1  0  0  0  0
 10 17  1  0  0  0  0
 11  4  2  0  0  0  0
 12 20  1  0  0  0  0
 12 19  1  0  0  0  0
 14  8  1  0  0  0  0
 15 10  1  0  0  0  0
 18 12  1  0  0  0  0
M  END
