23,26
q = -1.0, confidence = 0.0

 51 55  0  0  1  0  0  0  0  0999 V2000
   -8.2784   -0.2804    0.3932 C   0  0  0  0  0  0  0  0  0  0  0  0
   -8.4857    1.2476    0.3528 C   0  0  0  0  0  0  0  0  0  0  0  0
   -7.1265    1.8552   -0.0553 C   0  0  0  0  0  0  0  0  0  0  0  0
   -6.1316    0.7445    0.3283 C   0  0  1  0  0  0  0  0  0  0  0  0
   -6.8448   -0.5667   -0.0788 C   0  0  2  0  0  0  0  0  0  0  0  0
   -9.1025   -1.1046    0.7369 O   0  0  0  0  0  0  0  0  0  0  0  0
   -6.9645   -0.7610   -1.6101 C   0  0  0  0  0  0  0  0  0  0  0  0
   -6.1356   -1.7556    0.5720 C   0  0  0  0  0  0  0  0  0  0  0  0
   -4.6416   -1.7682    0.2015 C   0  0  0  0  0  0  0  0  0  0  0  0
   -3.9316   -0.4251    0.4859 C   0  0  2  0  0  0  0  0  0  0  0  0
   -4.6789    0.7826   -0.1394 C   0  0  2  0  0  0  0  0  0  0  0  0
   -3.9406    2.0764    0.2104 C   0  0  0  0  0  0  0  0  0  0  0  0
   -2.5542    2.0842   -0.4326 C   0  0  0  0  0  0  0  0  0  0  0  0
   -1.7956    0.7819   -0.2610 C   0  0  0  0  0  0  0  0  0  0  0  0
   -2.4463   -0.4172    0.1347 C   0  0  0  0  0  0  0  0  0  0  0  0
   -1.6687   -1.5918    0.2385 C   0  0  0  0  0  0  0  0  0  0  0  0
   -0.3002   -1.6048   -0.0328 C   0  0  0  0  0  0  0  0  0  0  0  0
    0.3551   -0.4120   -0.4277 C   0  0  0  0  0  0  0  0  0  0  0  0
   -0.4183    0.7672   -0.5335 C   0  0  0  0  0  0  0  0  0  0  0  0
    1.7509   -0.3969   -0.7045 C   0  0  0  0  0  0  0  0  0  0  0  0
    2.9606   -0.3810   -0.9369 C   0  0  0  0  0  0  0  0  0  0  0  0
    4.3463   -0.3678   -1.2270 C   0  0  1  0  0  3  0  0  0  0  0  0
    5.2601   -1.4904   -1.1506 C   0  0  0  0  0  3  0  0  0  0  0  0
    6.5476   -1.0639   -1.5894 C   0  0  0  0  0  0  0  0  0  0  0  0
    6.4648    0.3351   -1.9194 C   0  0  0  0  0  0  0  0  0  0  0  0
    5.1267    0.7656   -1.6827 C   0  0  0  0  0  3  0  0  0  0  0  0
   -9.3347    1.5015   -0.3134 H   0  0  0  0  0  0  0  0  0  0  0  0
   -8.7932    1.5612    1.3730 H   0  0  0  0  0  0  0  0  0  0  0  0
   -6.9170    2.8134    0.4586 H   0  0  0  0  0  0  0  0  0  0  0  0
   -7.0869    2.0580   -1.1461 H   0  0  0  0  0  0  0  0  0  0  0  0
   -6.0984    0.7321    1.4458 H   0  0  0  0  0  0  0  0  0  0  0  0
   -7.4658    0.0916   -2.1096 H   0  0  0  0  0  0  0  0  0  0  0  0
   -7.5664   -1.6687   -1.8147 H   0  0  0  0  0  0  0  0  0  0  0  0
   -5.9752   -0.8912   -2.0898 H   0  0  0  0  0  0  0  0  0  0  0  0
   -6.6197   -2.7104    0.2812 H   0  0  0  0  0  0  0  0  0  0  0  0
   -6.2439   -1.6737    1.6752 H   0  0  0  0  0  0  0  0  0  0  0  0
   -4.5096   -2.0251   -0.8716 H   0  0  0  0  0  0  0  0  0  0  0  0
   -4.1487   -2.5830    0.7683 H   0  0  0  0  0  0  0  0  0  0  0  0
   -3.9930   -0.2667    1.5916 H   0  0  0  0  0  0  0  0  0  0  0  0
   -4.6567    0.6710   -1.2484 H   0  0  0  0  0  0  0  0  0  0  0  0
   -4.5165    2.9620   -0.1278 H   0  0  0  0  0  0  0  0  0  0  0  0
   -3.8561    2.1572    1.3173 H   0  0  0  0  0  0  0  0  0  0  0  0
   -1.9409    2.9236   -0.0436 H   0  0  0  0  0  0  0  0  0  0  0  0
   -2.6636    2.2776   -1.5241 H   0  0  0  0  0  0  0  0  0  0  0  0
   -2.1463   -2.5315    0.5495 H   0  0  0  0  0  0  0  0  0  0  0  0
    0.2784   -2.5349    0.0607 H   0  0  0  0  0  0  0  0  0  0  0  0
    0.0796    1.7010   -0.8369 H   0  0  0  0  0  0  0  0  0  0  0  0
    4.9819   -2.5005   -0.8292 H   0  0  0  0  0  0  0  0  0  0  0  0
    7.4437   -1.6913   -1.6575 H   0  0  0  0  0  0  0  0  0  0  0  0
    7.2868    0.9622   -2.2835 H   0  0  0  0  0  0  0  0  0  0  0  0
    4.7290    1.7750   -1.8380 H   0  0  0  0  0  0  0  0  0  0  0  0
  1  6  2  0  0  0  0
  2  1  1  0  0  0  0
  2 28  1  0  0  0  0
  3  4  1  0  0  0  0
  3  2  1  0  0  0  0
  3 29  1  0  0  0  0
  4 31  1  1  0  0  0
  5  7  1  6  0  0  0
  5  4  1  0  0  0  0
  5  1  1  0  0  0  0
  5  8  1  0  0  0  0
  8 36  1  0  0  0  0
  9 10  1  0  0  0  0
  9  8  1  0  0  0  0
  9 38  1  0  0  0  0
 10 39  1  1  0  0  0
 11 40  1  6  0  0  0
 11 12  1  0  0  0  0
 11  4  1  0  0  0  0
 11 10  1  0  0  0  0
 12 42  1  0  0  0  0
 13 14  1  0  0  0  0
 13 43  1  0  0  0  0
 13 12  1  0  0  0  0
 14 15  1  0  0  0  0
 15 16  2  0  0  0  0
 15 10  1  0  0  0  0
 16 45  1  0  0  0  0
 17 46  1  0  0  0  0
 17 16  1  0  0  0  0
 18 17  2  0  0  0  0
 19 18  1  0  0  0  0
 19 14  2  0  0  0  0
 20 18  1  0  0  0  0
 21 20  3  0  0  0  0
 22 23  1  0  0  0  0
 22 21  1  6  0  0  0
 23 48  1  0  0  0  0
 24 23  1  0  0  0  0
 25 26  1  0  0  0  0
 25 24  2  0  0  0  0
 26 22  1  0  0  0  0
 27  2  1  0  0  0  0
 30  3  1  0  0  0  0
 32  7  1  0  0  0  0
 33  7  1  0  0  0  0
 34  7  1  0  0  0  0
 35  8  1  0  0  0  0
 37  9  1  0  0  0  0
 41 12  1  0  0  0  0
 44 13  1  0  0  0  0
 47 19  1  0  0  0  0
 49 24  1  0  0  0  0
 50 25  1  0  0  0  0
 51 26  1  0  0  0  0
M  END
