29,37
q = 0.0, confidence = 0.988

 57 60  0  0  0  0  0  0  0  0999 V2000
   -2.6340   -1.2038   -0.8965 N   0  0  0  0  0  0  0  0  0  0  0  0
   -1.2226   -2.8214   -0.7039 N   0  0  0  0  0  0  0  0  0  0  0  0
    1.1515   -2.7707   -0.8210 N   0  0  0  0  0  0  0  0  0  0  0  0
    2.5173   -1.1220   -1.0872 N   0  0  0  0  0  0  0  0  0  0  0  0
   -4.7383   -0.6586    1.0938 C   0  0  0  0  0  0  0  0  0  0  0  0
   -4.4793   -0.3321    2.1218 H   0  0  0  0  0  0  0  0  0  0  0  0
   -4.2965   -1.6592    0.9345 H   0  0  0  0  0  0  0  0  0  0  0  0
   -5.8412   -0.7659    1.0618 H   0  0  0  0  0  0  0  0  0  0  0  0
   -4.2780    0.3563    0.0780 C   0  0  0  0  0  0  0  0  0  0  0  0
   -4.8534    1.6429    0.0719 C   0  0  0  0  0  0  0  0  0  0  0  0
   -5.6292    1.8755    0.8186 H   0  0  0  0  0  0  0  0  0  0  0  0
   -4.4681    2.6320   -0.8477 C   0  0  0  0  0  0  0  0  0  0  0  0
   -5.0889    4.0045   -0.8295 C   0  0  0  0  0  0  0  0  0  0  0  0
   -5.7928    4.1272    0.0150 H   0  0  0  0  0  0  0  0  0  0  0  0
   -5.6471    4.2005   -1.7685 H   0  0  0  0  0  0  0  0  0  0  0  0
   -4.3136    4.7937   -0.7492 H   0  0  0  0  0  0  0  0  0  0  0  0
   -3.4962    2.3001   -1.8144 C   0  0  0  0  0  0  0  0  0  0  0  0
   -3.2050    3.0510   -2.5661 H   0  0  0  0  0  0  0  0  0  0  0  0
   -2.8997    1.0314   -1.8644 C   0  0  0  0  0  0  0  0  0  0  0  0
   -1.9532    0.6628   -2.9766 C   0  0  0  0  0  0  0  0  0  0  0  0
   -1.1320    0.0088   -2.6308 H   0  0  0  0  0  0  0  0  0  0  0  0
   -1.5094    1.5636   -3.4397 H   0  0  0  0  0  0  0  0  0  0  0  0
   -2.4924    0.1123   -3.7773 H   0  0  0  0  0  0  0  0  0  0  0  0
   -3.2763    0.0871   -0.8784 C   0  0  0  0  0  0  0  0  0  0  0  0
   -3.1732   -2.2966   -1.5753 C   0  0  0  0  0  0  0  0  0  0  0  0
   -4.1410   -2.2368   -2.0815 H   0  0  0  0  0  0  0  0  0  0  0  0
   -2.2796   -3.3249   -1.4532 C   0  0  0  0  0  0  0  0  0  0  0  0
   -2.3137   -4.3556   -1.8192 H   0  0  0  0  0  0  0  0  0  0  0  0
   -1.4106   -1.5071   -0.3476 C   0  0  0  0  0  2  0  0  0  0  0  0
    0.0007   -3.5224   -0.3556 C   0  0  0  0  0  0  0  0  0  0  0  0
    0.0585   -3.6306    0.7461 H   0  0  0  0  0  0  0  0  0  0  0  0
   -0.0016   -4.5210   -0.8286 H   0  0  0  0  0  0  0  0  0  0  0  0
    2.1367   -3.2270   -1.6897 C   0  0  0  0  0  0  0  0  0  0  0  0
    2.1451   -4.2403   -2.1024 H   0  0  0  0  0  0  0  0  0  0  0  0
    3.0013   -2.1816   -1.8565 C   0  0  0  0  0  0  0  0  0  0  0  0
    3.9116   -2.0885   -2.4553 H   0  0  0  0  0  0  0  0  0  0  0  0
    1.3537   -1.4645   -0.4369 C   0  0  0  0  0  2  0  0  0  0  0  0
    3.2332    0.1233   -0.9696 C   0  0  0  0  0  0  0  0  0  0  0  0
    4.4549    0.1285   -0.2573 C   0  0  0  0  0  0  0  0  0  0  0  0
    5.0094   -1.1197    0.3818 C   0  0  0  0  0  0  0  0  0  0  0  0
    5.7542   -0.8644    1.1585 H   0  0  0  0  0  0  0  0  0  0  0  0
    5.5192   -1.7716   -0.3583 H   0  0  0  0  0  0  0  0  0  0  0  0
    4.2153   -1.7335    0.8520 H   0  0  0  0  0  0  0  0  0  0  0  0
    5.1337    1.3542   -0.1376 C   0  0  0  0  0  0  0  0  0  0  0  0
    6.0796    1.3792    0.4260 H   0  0  0  0  0  0  0  0  0  0  0  0
    4.6368    2.5444   -0.7006 C   0  0  0  0  0  0  0  0  0  0  0  0
    5.4026    3.8359   -0.5827 C   0  0  0  0  0  0  0  0  0  0  0  0
    6.0276    3.8601    0.3308 H   0  0  0  0  0  0  0  0  0  0  0  0
    4.7270    4.7131   -0.5686 H   0  0  0  0  0  0  0  0  0  0  0  0
    6.0857    3.9650   -1.4495 H   0  0  0  0  0  0  0  0  0  0  0  0
    3.4139    2.4900   -1.3968 C   0  0  0  0  0  0  0  0  0  0  0  0
    3.0017    3.4121   -1.8362 H   0  0  0  0  0  0  0  0  0  0  0  0
    2.6934    1.2935   -1.5488 C   0  0  0  0  0  0  0  0  0  0  0  0
    1.3564    1.2745   -2.2325 C   0  0  0  0  0  0  0  0  0  0  0  0
    1.1725    2.2166   -2.7816 H   0  0  0  0  0  0  0  0  0  0  0  0
    0.5436    1.1452   -1.4816 H   0  0  0  0  0  0  0  0  0  0  0  0
    1.2664    0.4300   -2.9447 H   0  0  0  0  0  0  0  0  0  0  0  0
  1 24  1  0  0  0  0
  1 29  1  0  0  0  0
  2 30  1  0  0  0  0
  2 29  1  0  0  0  0
  3 37  1  0  0  0  0
  3 30  1  0  0  0  0
  4 38  1  0  0  0  0
  4 37  1  0  0  0  0
  5  6  1  0  0  0  0
  7  5  1  0  0  0  0
  8  5  1  0  0  0  0
  9  5  1  0  0  0  0
 10  9  1  0  0  0  0
 10 11  1  0  0  0  0
 12 13  1  0  0  0  0
 12 10  2  0  0  0  0
 13 16  1  0  0  0  0
 13 14  1  0  0  0  0
 15 13  1  0  0  0  0
 17 12  1  0  0  0  0
 18 17  1  0  0  0  0
 19 17  2  0  0  0  0
 19 24  1  0  0  0  0
 20 21  1  0  0  0  0
 20 19  1  0  0  0  0
 22 20  1  0  0  0  0
 23 20  1  0  0  0  0
 24  9  2  0  0  0  0
 25 27  2  0  0  0  0
 25  1  1  0  0  0  0
 26 25  1  0  0  0  0
 27  2  1  0  0  0  0
 28 27  1  0  0  0  0
 30 31  1  0  0  0  0
 32 30  1  0  0  0  0
 33  3  1  0  0  0  0
 34 33  1  0  0  0  0
 35 33  2  0  0  0  0
 35  4  1  0  0  0  0
 36 35  1  0  0  0  0
 38 39  1  0  0  0  0
 39 44  2  0  0  0  0
 39 40  1  0  0  0  0
 40 43  1  0  0  0  0
 40 41  1  0  0  0  0
 42 40  1  0  0  0  0
 44 45  1  0  0  0  0
 46 47  1  0  0  0  0
 46 44  1  0  0  0  0
 47 49  1  0  0  0  0
 47 48  1  0  0  0  0
 50 47  1  0  0  0  0
 51 46  2  0  0  0  0
 52 51  1  0  0  0  0
 53 51  1  0  0  0  0
 53 38  2  0  0  0  0
 54 53  1  0  0  0  0
 54 56  1  0  0  0  0
 55 54  1  0  0  0  0
 57 54  1  0  0  0  0
M  END
