3,5
q = 0.0, confidence = 0.896

 49 52  0  0  1  0  0  0  0  0999 V2000
    1.5308    0.0123    0.0250 P   0  0  0  0  0  4  0  0  0  0  0  0
   -2.0975   -1.0406    1.7867 C   0  0  0  0  0  3  0  0  0  0  0  0
   -2.8608   -1.8603    0.9149 C   0  0  0  0  0  3  0  0  0  0  0  0
   -2.6504   -1.8287   -0.4982 C   0  0  0  0  0  3  0  0  0  0  0  0
   -1.8792   -0.8034   -1.1298 C   0  0  0  0  0  3  0  0  0  0  0  0
   -1.1734    0.2714   -0.4950 C   0  0  0  0  0  3  0  0  0  0  0  0
   -0.2111    0.1892    0.6663 C   0  0  1  0  0  0  0  0  0  0  0  0
   -0.5838   -0.9380    1.6310 C   0  0  0  0  0  0  0  0  0  0  0  0
    1.9434    1.4540   -0.9954 C   0  0  0  0  0  0  0  0  0  0  0  0
    3.0081    1.3553   -1.9181 C   0  0  0  0  0  0  0  0  0  0  0  0
    3.4026    2.4852   -2.6467 C   0  0  0  0  0  0  0  0  0  0  0  0
    2.7466    3.7123   -2.4551 C   0  0  0  0  0  0  0  0  0  0  0  0
    1.6960    3.8139   -1.5297 C   0  0  0  0  0  0  0  0  0  0  0  0
    1.2928    2.6904   -0.7938 C   0  0  0  0  0  0  0  0  0  0  0  0
    2.7147   -0.0702    1.3953 C   0  0  0  0  0  0  0  0  0  0  0  0
    3.9702   -0.6880    1.2048 C   0  0  0  0  0  0  0  0  0  0  0  0
    4.9182   -0.6640    2.2368 C   0  0  0  0  0  0  0  0  0  0  0  0
    4.6248   -0.0209    3.4504 C   0  0  0  0  0  0  0  0  0  0  0  0
    3.3825    0.6070    3.6344 C   0  0  0  0  0  0  0  0  0  0  0  0
    2.4264    0.5896    2.6095 C   0  0  0  0  0  0  0  0  0  0  0  0
    1.6075   -1.4935   -0.9723 C   0  0  0  0  0  0  0  0  0  0  0  0
    1.2432   -1.4402   -2.3360 C   0  0  0  0  0  0  0  0  0  0  0  0
    1.1674   -2.6255   -3.0802 C   0  0  0  0  0  0  0  0  0  0  0  0
    1.4454   -3.8601   -2.4714 C   0  0  0  0  0  0  0  0  0  0  0  0
    1.8008   -3.9147   -1.1139 C   0  0  0  0  0  0  0  0  0  0  0  0
    1.8808   -2.7365   -0.3585 C   0  0  0  0  0  0  0  0  0  0  0  0
   -2.4736   -0.9575    2.8180 H   0  0  0  0  0  0  0  0  0  0  0  0
   -3.6997   -2.4664    1.2935 H   0  0  0  0  0  0  0  0  0  0  0  0
   -3.2490   -2.4871   -1.1443 H   0  0  0  0  0  0  0  0  0  0  0  0
   -2.0277   -0.7202   -2.2196 H   0  0  0  0  0  0  0  0  0  0  0  0
   -0.9529    1.1002   -1.1884 H   0  0  0  0  0  0  0  0  0  0  0  0
   -0.2125    1.1584    1.2089 H   0  0  0  0  0  0  0  0  0  0  0  0
   -0.1081   -0.7823    2.6173 H   0  0  0  0  0  0  0  0  0  0  0  0
   -0.2007   -1.9053    1.2425 H   0  0  0  0  0  0  0  0  0  0  0  0
    3.5267    0.3969   -2.0722 H   0  0  0  0  0  0  0  0  0  0  0  0
    4.2287    2.4062   -3.3686 H   0  0  0  0  0  0  0  0  0  0  0  0
    3.0583    4.5968   -3.0302 H   0  0  0  0  0  0  0  0  0  0  0  0
    1.1838    4.7750   -1.3765 H   0  0  0  0  0  0  0  0  0  0  0  0
    0.4718    2.7928   -0.0689 H   0  0  0  0  0  0  0  0  0  0  0  0
    4.2090   -1.1890    0.2548 H   0  0  0  0  0  0  0  0  0  0  0  0
    5.8941   -1.1498    2.0902 H   0  0  0  0  0  0  0  0  0  0  0  0
    5.3719   -0.0053    4.2577 H   0  0  0  0  0  0  0  0  0  0  0  0
    3.1549    1.1170    4.5819 H   0  0  0  0  0  0  0  0  0  0  0  0
    1.4629    1.0977    2.7643 H   0  0  0  0  0  0  0  0  0  0  0  0
    1.0248   -0.4750   -2.8160 H   0  0  0  0  0  0  0  0  0  0  0  0
    0.8915   -2.5833   -4.1442 H   0  0  0  0  0  0  0  0  0  0  0  0
    1.3875   -4.7874   -3.0605 H   0  0  0  0  0  0  0  0  0  0  0  0
    2.0198   -4.8817   -0.6378 H   0  0  0  0  0  0  0  0  0  0  0  0
    2.1617   -2.7856    0.7040 H   0  0  0  0  0  0  0  0  0  0  0  0
  1  7  1  0  0  0  0
  1 15  1  0  0  0  0
  2 27  1  0  0  0  0
  3 28  1  0  0  0  0
  3  2  1  0  0  0  0
  4  3  1  0  0  0  0
  5  4  1  0  0  0  0
  5  6  1  0  0  0  0
  6  7  1  0  0  0  0
  7 32  1  1  0  0  0
  7  8  1  0  0  0  0
  8  2  1  0  0  0  0
  8 33  1  0  0  0  0
  9 14  1  0  0  0  0
  9  1  1  0  0  0  0
 10  9  2  0  0  0  0
 11 12  2  0  0  0  0
 11 10  1  0  0  0  0
 12 13  1  0  0  0  0
 13 38  1  0  0  0  0
 13 14  2  0  0  0  0
 14 39  1  0  0  0  0
 15 20  1  0  0  0  0
 16 15  2  0  0  0  0
 16 17  1  0  0  0  0
 17 18  2  0  0  0  0
 18 19  1  0  0  0  0
 18 42  1  0  0  0  0
 19 43  1  0  0  0  0
 20 44  1  0  0  0  0
 20 19  2  0  0  0  0
 21 26  1  0  0  0  0
 21  1  1  0  0  0  0
 22 21  2  0  0  0  0
 23 24  2  0  0  0  0
 23 22  1  0  0  0  0
 24 25  1  0  0  0  0
 25 48  1  0  0  0  0
 25 26  2  0  0  0  0
 26 49  1  0  0  0  0
 29  4  1  0  0  0  0
 30  5  1  0  0  0  0
 31  6  1  0  0  0  0
 34  8  1  0  0  0  0
 35 10  1  0  0  0  0
 36 11  1  0  0  0  0
 37 12  1  0  0  0  0
 40 16  1  0  0  0  0
 41 17  1  0  0  0  0
 45 22  1  0  0  0  0
 46 23  1  0  0  0  0
 47 24  1  0  0  0  0
M  END
