1,8
q = -2.0, confidence = 0.874

 24 24  0  0  0  0  0  0  0  0999 V2000
    1.6837    0.9998    0.7284 C   0  0  0  0  0  2  0  0  0  0  0  0
    2.7163    1.9123    0.2198 C   0  0  0  0  0  0  0  0  0  0  0  0
    2.3324    3.1596   -0.3338 C   0  0  0  0  0  0  0  0  0  0  0  0
    3.2841    4.0425   -0.8593 C   0  0  0  0  0  0  0  0  0  0  0  0
    4.6445    3.6919   -0.8747 C   0  0  0  0  0  0  0  0  0  0  0  0
    5.0427    2.4497   -0.3550 C   0  0  0  0  0  0  0  0  0  0  0  0
    4.0950    1.5722    0.1900 C   0  0  0  0  0  0  0  0  0  0  0  0
    0.6085   -2.3374    0.5704 C   0  0  0  0  0  2  0  0  0  0  0  0
    1.1927   -2.7829    1.5862 C   0  0  0  0  0  0  0  0  0  0  0  0
    1.7863    0.2002    1.8459 C   0  0  0  0  0  3  0  0  0  0  0  0
    2.8958    0.0264    2.7610 C   0  0  0  0  0  0  0  0  0  0  0  0
    3.1740   -1.0757    3.5392 C   0  0  0  0  0  0  0  0  0  0  0  0
    2.5876   -2.3991    3.6434 C   0  0  0  0  0  3  0  0  0  0  0  0
    1.7682   -3.1480    2.8178 C   0  0  0  0  0  0  0  0  0  0  0  0
    1.2660    3.4261   -0.3364 H   0  0  0  0  0  0  0  0  0  0  0  0
    2.9599    5.0105   -1.2713 H   0  0  0  0  0  0  0  0  0  0  0  0
    5.3906    4.3799   -1.3001 H   0  0  0  0  0  0  0  0  0  0  0  0
    6.1044    2.1584   -0.3766 H   0  0  0  0  0  0  0  0  0  0  0  0
    4.4145    0.5925    0.5757 H   0  0  0  0  0  0  0  0  0  0  0  0
    0.9232   -0.4527    2.0927 H   0  0  0  0  0  0  0  0  0  0  0  0
    3.6133    0.8627    2.8184 H   0  0  0  0  0  0  0  0  0  0  0  0
    4.0385   -0.9481    4.2148 H   0  0  0  0  0  0  0  0  0  0  0  0
    2.9226   -2.9445    4.5423 H   0  0  0  0  0  0  0  0  0  0  0  0
    1.5261   -4.1638    3.1812 H   0  0  0  0  0  0  0  0  0  0  0  0
  1 10  1  0  0  0  0
  2  1  1  0  0  0  0
  3  2  2  0  0  0  0
  4  3  1  0  0  0  0
  5  4  2  0  0  0  0
  5  6  1  0  0  0  0
  6  7  2  0  0  0  0
  7  2  1  0  0  0  0
  7 19  1  0  0  0  0
  8  9  2  0  0  0  0
  9 14  2  0  0  0  0
 10 20  1  0  0  0  0
 10 11  1  0  0  0  0
 11 21  1  0  0  0  0
 11 12  2  0  0  0  0
 12 13  1  0  0  0  0
 12 22  1  0  0  0  0
 13 23  1  0  0  0  0
 14 24  1  0  0  0  0
 14 13  1  0  0  0  0
 15  3  1  0  0  0  0
 16  4  1  0  0  0  0
 17  5  1  0  0  0  0
 18  6  1  0  0  0  0
M  END
