53,57
q = 0.0, confidence = 0.996

 61 66  0  0  0  0  0  0  0  0999 V2000
   -1.8941    3.6727    0.2856 O   0  0  0  0  0  0  0  0  0  0  0  0
   -0.2030    2.1818   -0.2194 C   0  0  0  0  0  0  0  0  0  0  0  0
   -0.6849    3.5111   -0.3435 C   0  0  0  0  0  0  0  0  0  0  0  0
   -0.0642    4.5173   -1.0970 C   0  0  0  0  0  0  0  0  0  0  0  0
   -0.5035    5.5213   -1.1691 H   0  0  0  0  0  0  0  0  0  0  0  0
    1.0744    4.1415   -1.7984 C   0  0  0  0  0  0  0  0  0  0  0  0
    1.5589    4.8551   -2.4817 H   0  0  0  0  0  0  0  0  0  0  0  0
    1.6584    2.8476   -1.6518 C   0  0  0  0  0  0  0  0  0  0  0  0
    2.7899    2.4779   -2.4556 C   0  0  0  0  0  0  0  0  0  0  0  0
    3.1455    3.1953   -3.2110 H   0  0  0  0  0  0  0  0  0  0  0  0
    3.3807    1.2448   -2.3341 C   0  0  0  0  0  0  0  0  0  0  0  0
    4.1826    0.9263   -3.0135 H   0  0  0  0  0  0  0  0  0  0  0  0
    3.0060    0.3675   -1.2637 C   0  0  0  0  0  0  0  0  0  0  0  0
    3.7296   -0.8363   -1.0170 C   0  0  0  0  0  0  0  0  0  0  0  0
    4.7145   -1.1977   -1.9145 O   0  0  0  0  0  0  0  0  0  0  0  0
    6.0185   -0.7311   -1.5761 C   0  0  0  0  0  0  0  0  0  0  0  0
    6.7038   -1.0804   -2.3719 H   0  0  0  0  0  0  0  0  0  0  0  0
    6.3607   -1.1364   -0.5970 H   0  0  0  0  0  0  0  0  0  0  0  0
    6.0538    0.3801   -1.5239 H   0  0  0  0  0  0  0  0  0  0  0  0
    3.4593   -1.6527    0.0901 C   0  0  0  0  0  0  0  0  0  0  0  0
    4.1409   -2.9966    0.2220 C   0  0  0  0  0  0  0  0  0  0  0  0
    5.1119   -2.9732   -0.3078 H   0  0  0  0  0  0  0  0  0  0  0  0
    4.3670   -3.2134    1.2853 H   0  0  0  0  0  0  0  0  0  0  0  0
    3.2836   -4.1260   -0.3735 C   0  0  0  0  0  0  0  0  0  0  0  0
    3.7816   -5.1103   -0.2618 H   0  0  0  0  0  0  0  0  0  0  0  0
    3.1068   -3.9495   -1.4530 H   0  0  0  0  0  0  0  0  0  0  0  0
    2.2924   -4.1871    0.1215 H   0  0  0  0  0  0  0  0  0  0  0  0
    2.5003   -1.2070    1.0488 C   0  0  0  0  0  0  0  0  0  0  0  0
    2.2827   -1.9401    2.3547 C   0  0  0  0  0  0  0  0  0  0  0  0
    2.3619   -3.0333    2.1895 H   0  0  0  0  0  0  0  0  0  0  0  0
    1.2474   -1.7513    2.7013 H   0  0  0  0  0  0  0  0  0  0  0  0
    3.2774   -1.5075    3.4451 C   0  0  0  0  0  0  0  0  0  0  0  0
    3.0701   -2.0245    4.4039 H   0  0  0  0  0  0  0  0  0  0  0  0
    3.2295   -0.4145    3.6199 H   0  0  0  0  0  0  0  0  0  0  0  0
    4.3212   -1.7401    3.1514 H   0  0  0  0  0  0  0  0  0  0  0  0
    1.7972   -0.0209    0.8084 C   0  0  0  0  0  0  0  0  0  0  0  0
    1.9247    0.7335   -0.3924 C   0  0  0  0  0  0  0  0  0  0  0  0
    1.1078    1.8869   -0.7305 C   0  0  0  0  0  0  0  0  0  0  0  0
    0.9257    0.4137    1.8060 O   0  0  0  0  0  0  0  0  0  0  0  0
    1.3242    1.4738    2.6031 C   0  0  0  0  0  0  0  0  0  0  0  0
    2.4018    2.0115    2.5020 O   0  0  0  0  0  0  0  0  0  0  0  0
    0.2282    1.8090    3.5794 C   0  0  0  0  0  0  0  0  0  0  0  0
    0.5689    2.6100    4.2570 H   0  0  0  0  0  0  0  0  0  0  0  0
   -0.0555    0.9079    4.1579 H   0  0  0  0  0  0  0  0  0  0  0  0
   -0.6767    2.1345    3.0283 H   0  0  0  0  0  0  0  0  0  0  0  0
   -1.3007    1.4585    0.4051 C   0  0  0  0  0  0  0  0  0  0  0  0
   -2.2604    2.4355    0.7357 C   0  0  0  0  0  0  0  0  0  0  0  0
   -3.4564    2.1850    1.4406 C   0  0  0  0  0  0  0  0  0  0  0  0
   -4.1379    3.0082    1.6941 H   0  0  0  0  0  0  0  0  0  0  0  0
   -3.7304    0.8695    1.7675 C   0  0  0  0  0  0  0  0  0  0  0  0
   -4.6484    0.6138    2.3167 H   0  0  0  0  0  0  0  0  0  0  0  0
   -2.8619   -0.2030    1.3645 C   0  0  0  0  0  0  0  0  0  0  0  0
   -3.2419   -1.5835    1.5737 C   0  0  0  0  0  3  0  0  0  0  0  0
   -4.1790   -1.7945    2.1085 H   0  0  0  0  0  0  0  0  0  0  0  0
   -2.4327   -2.6477    1.1232 C   0  0  0  0  0  3  0  0  0  0  0  0
   -2.7441   -3.6869    1.2946 H   0  0  0  0  0  0  0  0  0  0  0  0
   -1.2789   -2.3645    0.3277 C   0  0  0  0  0  3  0  0  0  0  0  0
   -0.6992   -3.1868   -0.1143 H   0  0  0  0  0  0  0  0  0  0  0  0
   -0.9171   -1.0289    0.0467 C   0  0  0  0  0  3  0  0  0  0  0  0
   -0.0764   -0.8263   -0.6235 H   0  0  0  0  0  0  0  0  0  0  0  0
   -1.6414    0.0759    0.6241 C   0  0  0  0  0  0  0  0  0  0  0  0
  1 47  1  0  0  0  0
  2 46  1  0  0  0  0
  3  2  1  0  0  0  0
  3  1  1  0  0  0  0
  4  3  2  0  0  0  0
  5  4  1  0  0  0  0
  6  8  2  0  0  0  0
  6  4  1  0  0  0  0
  7  6  1  0  0  0  0
  8 38  1  0  0  0  0
  9 11  2  0  0  0  0
  9  8  1  0  0  0  0
 10  9  1  0  0  0  0
 11 13  1  0  0  0  0
 12 11  1  0  0  0  0
 13 14  2  0  0  0  0
 13 37  1  0  0  0  0
 14 20  1  0  0  0  0
 15 16  1  0  0  0  0
 15 14  1  0  0  0  0
 16 19  1  0  0  0  0
 16 18  1  0  0  0  0
 17 16  1  0  0  0  0
 20 21  1  0  0  0  0
 20 28  2  0  0  0  0
 21 23  1  0  0  0  0
 22 21  1  0  0  0  0
 24 25  1  0  0  0  0
 24 27  1  0  0  0  0
 24 21  1  0  0  0  0
 26 24  1  0  0  0  0
 28 29  1  0  0  0  0
 29 31  1  0  0  0  0
 29 32  1  0  0  0  0
 30 29  1  0  0  0  0
 32 34  1  0  0  0  0
 32 33  1  0  0  0  0
 35 32  1  0  0  0  0
 36 28  1  0  0  0  0
 36 39  1  0  0  0  0
 37 36  2  0  0  0  0
 38 37  1  0  0  0  0
 38  2  2  0  0  0  0
 39 40  1  0  0  0  0
 40 42  1  0  0  0  0
 41 40  2  0  0  0  0
 42 44  1  0  0  0  0
 42 43  1  0  0  0  0
 45 42  1  0  0  0  0
 46 61  2  0  0  0  0
 46 47  1  0  0  0  0
 47 48  2  0  0  0  0
 48 49  1  0  0  0  0
 48 50  1  0  0  0  0
 50 51  1  0  0  0  0
 52 53  1  0  0  0  0
 52 50  2  0  0  0  0
 53 54  1  0  0  0  0
 55 56  1  0  0  0  0
 55 53  1  0  0  0  0
 57 55  1  0  0  0  0
 58 57  1  0  0  0  0
 59 57  1  0  0  0  0
 59 61  1  0  0  0  0
 60 59  1  0  0  0  0
 61 52  1  0  0  0  0
M  END
