4,5
q = 0.0, confidence = 0.656

 26 27  0  0  1  0  0  0  0  0999 V2000
   -3.2084   -0.7498   -1.5637 C   0  0  2  0  0  0  0  0  0  0  0  0
   -2.4600   -2.0573   -1.7011 C   0  0  0  0  0  0  0  0  0  0  0  0
   -1.6703   -0.8128   -1.3731 C   0  0  2  0  0  0  0  0  0  0  0  0
   -1.0531   -0.6805    0.0188 C   0  0  0  0  0  3  0  0  0  0  0  0
    0.6404   -0.4302   -2.2623 C   0  0  0  0  0  3  0  0  0  0  0  0
   -0.8494   -0.1795   -2.4983 C   0  0  0  0  0  0  0  0  0  0  0  0
   -4.1213   -0.4136   -0.4432 C   0  0  0  0  0  0  0  0  0  0  0  0
   -4.1384   -1.1152    0.7835 C   0  0  0  0  0  0  0  0  0  0  0  0
   -4.9773   -0.7168    1.8349 C   0  0  0  0  0  0  0  0  0  0  0  0
   -5.8247    0.3928    1.6898 C   0  0  0  0  0  0  0  0  0  0  0  0
   -5.8271    1.0971    0.4747 C   0  0  0  0  0  0  0  0  0  0  0  0
   -4.9868    0.6971   -0.5733 C   0  0  0  0  0  0  0  0  0  0  0  0
   -3.5070   -0.2779   -2.5157 H   0  0  0  0  0  0  0  0  0  0  0  0
   -2.3780   -2.4877   -2.7131 H   0  0  0  0  0  0  0  0  0  0  0  0
   -2.5960   -2.8062   -0.9040 H   0  0  0  0  0  0  0  0  0  0  0  0
   -1.6154    0.0378    0.6475 H   0  0  0  0  0  0  0  0  0  0  0  0
   -1.1264   -1.6439    0.5510 H   0  0  0  0  0  0  0  0  0  0  0  0
    1.2889    0.1504   -2.9542 H   0  0  0  0  0  0  0  0  0  0  0  0
    0.8487   -1.4957   -2.4695 H   0  0  0  0  0  0  0  0  0  0  0  0
   -1.1931   -0.5738   -3.4854 H   0  0  0  0  0  0  0  0  0  0  0  0
   -1.0674    0.9050   -2.5302 H   0  0  0  0  0  0  0  0  0  0  0  0
   -3.4870   -1.9904    0.9180 H   0  0  0  0  0  0  0  0  0  0  0  0
   -4.9702   -1.2840    2.7789 H   0  0  0  0  0  0  0  0  0  0  0  0
   -6.4827    0.7034    2.5155 H   0  0  0  0  0  0  0  0  0  0  0  0
   -6.4906    1.9657    0.3412 H   0  0  0  0  0  0  0  0  0  0  0  0
   -4.9929    1.2571   -1.5222 H   0  0  0  0  0  0  0  0  0  0  0  0
  1 13  1  6  0  0  0
  1  3  1  0  0  0  0
  1  7  1  0  0  0  0
  2  1  1  0  0  0  0
  2  3  1  0  0  0  0
  2 15  1  0  0  0  0
  3  4  1  1  0  0  0
  4 17  1  0  0  0  0
  4 16  1  0  0  0  0
  6  5  1  0  0  0  0
  6  3  1  0  0  0  0
  7  8  1  0  0  0  0
  8 22  1  0  0  0  0
  8  9  2  0  0  0  0
  9 23  1  0  0  0  0
 10  9  1  0  0  0  0
 10 24  1  0  0  0  0
 11 10  2  0  0  0  0
 12  7  2  0  0  0  0
 12 11  1  0  0  0  0
 14  2  1  0  0  0  0
 18  5  1  0  0  0  0
 19  5  1  0  0  0  0
 20  6  1  0  0  0  0
 21  6  1  0  0  0  0
 25 11  1  0  0  0  0
 26 12  1  0  0  0  0
M  END
