7,31
q = -2.0, confidence = 0.814

 56 61  0  0  0  0  0  0  0  0999 V2000
   -0.5776    2.3257    1.0098 C   0  0  0  0  0  0  0  0  0  0  0  0
   -0.5175    2.3169    2.4336 C   0  0  0  0  0  0  0  0  0  0  0  0
   -1.6874    2.5058    3.1565 C   0  0  0  0  0  0  0  0  0  0  0  0
   -2.9454    2.6820    2.5032 C   0  0  0  0  0  0  0  0  0  0  0  0
   -3.0381    2.7112    1.1184 C   0  0  0  0  0  0  0  0  0  0  0  0
   -1.8462    2.5781    0.3469 C   0  0  0  0  0  0  0  0  0  0  0  0
   -1.5873    2.6393   -1.0695 C   0  0  0  0  0  3  0  0  0  0  0  0
   -0.1979    2.4322   -1.2615 C   0  0  0  0  0  0  0  0  0  0  0  0
    0.4379    2.1647   -0.0069 C   0  0  0  0  0  0  0  0  0  0  0  0
    1.9236    2.0567    0.2680 C   0  0  0  0  0  0  0  0  0  0  0  0
    2.7254    1.3602   -0.8131 C   0  0  0  0  0  0  0  0  0  0  0  0
    2.8923    1.9831   -2.0673 C   0  0  0  0  0  0  0  0  0  0  0  0
    3.5275    1.3310   -3.1308 C   0  0  0  0  0  0  0  0  0  0  0  0
    4.0255    0.0324   -2.9497 C   0  0  0  0  0  0  0  0  0  0  0  0
    3.9186   -0.5781   -1.6947 C   0  0  0  0  0  0  0  0  0  0  0  0
    3.2850    0.0729   -0.6143 C   0  0  0  0  0  0  0  0  0  0  0  0
    3.3172   -0.5821    0.7303 C   0  0  0  0  0  0  0  0  0  0  0  0
    4.2242   -0.0824    1.6933 C   0  0  0  0  0  0  0  0  0  0  0  0
    4.3547   -0.6817    2.9519 C   0  0  0  0  0  0  0  0  0  0  0  0
    3.5775   -1.8083    3.2657 C   0  0  0  0  0  0  0  0  0  0  0  0
    2.6728   -2.3076    2.3212 C   0  0  0  0  0  0  0  0  0  0  0  0
    2.5229   -1.7095    1.0520 C   0  0  0  0  0  0  0  0  0  0  0  0
    1.4467   -2.2253    0.1227 C   0  0  0  0  0  0  0  0  0  0  0  0
    0.0747   -1.7530    0.5372 C   0  0  0  0  0  0  0  0  0  0  0  0
   -1.1814   -2.3318    0.1103 C   0  0  0  0  0  0  0  0  0  0  0  0
   -1.4825   -3.3406   -0.8485 C   0  0  0  0  0  0  0  0  0  0  0  0
   -2.7991   -3.7547   -0.9829 C   0  0  0  0  0  0  0  0  0  0  0  0
   -3.8403   -3.1858   -0.1888 C   0  0  0  0  0  0  0  0  0  0  0  0
   -3.5833   -2.1762    0.7254 C   0  0  0  0  0  0  0  0  0  0  0  0
   -2.2456   -1.7219    0.8823 C   0  0  0  0  0  0  0  0  0  0  0  0
   -1.6511   -0.6945    1.6997 C   0  0  0  0  0  3  0  0  0  0  0  0
   -0.2319   -0.7894    1.5346 C   0  0  0  0  0  0  0  0  0  0  0  0
    0.4456    2.1824    2.9487 H   0  0  0  0  0  0  0  0  0  0  0  0
   -1.6503    2.5173    4.2564 H   0  0  0  0  0  0  0  0  0  0  0  0
   -3.8526    2.8085    3.1129 H   0  0  0  0  0  0  0  0  0  0  0  0
   -4.0033    2.8583    0.6125 H   0  0  0  0  0  0  0  0  0  0  0  0
   -2.3278    2.8263   -1.8536 H   0  0  0  0  0  0  0  0  0  0  0  0
    0.3001    2.4029   -2.2362 H   0  0  0  0  0  0  0  0  0  0  0  0
    2.0795    1.5471    1.2382 H   0  0  0  0  0  0  0  0  0  0  0  0
    2.3126    3.0919    0.4046 H   0  0  0  0  0  0  0  0  0  0  0  0
    2.5116    3.0066   -2.2097 H   0  0  0  0  0  0  0  0  0  0  0  0
    3.6335    1.8373   -4.1020 H   0  0  0  0  0  0  0  0  0  0  0  0
    4.5187   -0.4962   -3.7793 H   0  0  0  0  0  0  0  0  0  0  0  0
    4.3481   -1.5780   -1.5284 H   0  0  0  0  0  0  0  0  0  0  0  0
    4.8433    0.7891    1.4295 H   0  0  0  0  0  0  0  0  0  0  0  0
    5.0709   -0.2771    3.6830 H   0  0  0  0  0  0  0  0  0  0  0  0
    3.6758   -2.2967    4.2470 H   0  0  0  0  0  0  0  0  0  0  0  0
    2.0484   -3.1805    2.5704 H   0  0  0  0  0  0  0  0  0  0  0  0
    1.4393   -3.3365    0.1413 H   0  0  0  0  0  0  0  0  0  0  0  0
    1.6415   -1.9317   -0.9295 H   0  0  0  0  0  0  0  0  0  0  0  0
   -0.6822   -3.7775   -1.4629 H   0  0  0  0  0  0  0  0  0  0  0  0
   -3.0521   -4.5370   -1.7141 H   0  0  0  0  0  0  0  0  0  0  0  0
   -4.8701   -3.5503   -0.3204 H   0  0  0  0  0  0  0  0  0  0  0  0
   -4.3935   -1.7198    1.3122 H   0  0  0  0  0  0  0  0  0  0  0  0
   -2.1724   -0.0544    2.4217 H   0  0  0  0  0  0  0  0  0  0  0  0
    0.5142   -0.2117    2.0914 H   0  0  0  0  0  0  0  0  0  0  0  0
  1  2  1  0  0  0  0
  2 33  1  0  0  0  0
  2  3  2  0  0  0  0
  3 34  1  0  0  0  0
  4 35  1  0  0  0  0
  4  3  1  0  0  0  0
  5  4  2  0  0  0  0
  6  1  2  0  0  0  0
  6  5  1  0  0  0  0
  7  6  1  0  0  0  0
  8  7  1  0  0  0  0
  8  9  2  0  0  0  0
  9 10  1  0  0  0  0
  9  1  1  0  0  0  0
 10 40  1  0  0  0  0
 10 39  1  0  0  0  0
 11 16  1  0  0  0  0
 11 10  1  0  0  0  0
 12 11  2  0  0  0  0
 13 14  2  0  0  0  0
 13 12  1  0  0  0  0
 14 15  1  0  0  0  0
 15 44  1  0  0  0  0
 15 16  2  0  0  0  0
 16 17  1  0  0  0  0
 17 22  2  0  0  0  0
 17 18  1  0  0  0  0
 18 19  2  0  0  0  0
 19 20  1  0  0  0  0
 19 46  1  0  0  0  0
 20 47  1  0  0  0  0
 21 48  1  0  0  0  0
 21 20  2  0  0  0  0
 22 21  1  0  0  0  0
 23 49  1  0  0  0  0
 23 24  1  0  0  0  0
 23 22  1  0  0  0  0
 24 32  2  0  0  0  0
 25 24  1  0  0  0  0
 25 30  1  0  0  0  0
 26 25  2  0  0  0  0
 27 26  1  0  0  0  0
 27 28  2  0  0  0  0
 28 29  1  0  0  0  0
 29 30  2  0  0  0  0
 29 54  1  0  0  0  0
 30 31  1  0  0  0  0
 31 55  1  0  0  0  0
 32 31  1  0  0  0  0
 32 56  1  0  0  0  0
 36  5  1  0  0  0  0
 37  7  1  0  0  0  0
 38  8  1  0  0  0  0
 41 12  1  0  0  0  0
 42 13  1  0  0  0  0
 43 14  1  0  0  0  0
 45 18  1  0  0  0  0
 50 23  1  0  0  0  0
 51 26  1  0  0  0  0
 52 27  1  0  0  0  0
 53 28  1  0  0  0  0
M  END
