1,8
q = -2.0, confidence = 0.636

 32 31  0  0  1  0  0  0  0  0999 V2000
   -0.8786    0.0680    1.9708 C   0  0  0  0  0  3  0  0  0  0  0  0
   -1.8478    0.3521    0.9561 C   0  0  1  0  0  3  0  0  0  0  0  0
   -1.4923    1.3125   -0.0566 C   0  0  2  0  0  3  0  0  0  0  0  0
   -0.6841    2.5573    0.3327 C   0  0  0  0  0  0  0  0  0  0  0  0
    0.6844    2.5571   -0.3336 C   0  0  0  0  0  0  0  0  0  0  0  0
    1.4927    1.3125    0.0564 C   0  0  1  0  0  3  0  0  0  0  0  0
    1.8482    0.3517   -0.9558 C   0  0  2  0  0  3  0  0  0  0  0  0
    0.8793    0.0672   -1.9707 C   0  0  0  0  0  3  0  0  0  0  0  0
   -3.1479   -0.4177    0.9318 C   0  0  0  0  0  0  0  0  0  0  0  0
   -2.3730    1.5190   -1.2701 C   0  0  0  0  0  0  0  0  0  0  0  0
    2.3729    1.5194    1.2701 C   0  0  0  0  0  0  0  0  0  0  0  0
    3.1482   -0.4184   -0.9306 C   0  0  0  0  0  0  0  0  0  0  0  0
   -0.2190    0.8544    2.3659 H   0  0  0  0  0  0  0  0  0  0  0  0
   -1.1084   -0.7371    2.6854 H   0  0  0  0  0  0  0  0  0  0  0  0
   -0.5617    2.6051    1.4344 H   0  0  0  0  0  0  0  0  0  0  0  0
   -1.2639    3.4662    0.0531 H   0  0  0  0  0  0  0  0  0  0  0  0
    1.2643    3.4661   -0.0544 H   0  0  0  0  0  0  0  0  0  0  0  0
    0.5620    2.6043   -1.4353 H   0  0  0  0  0  0  0  0  0  0  0  0
    0.2200    0.8536   -2.3664 H   0  0  0  0  0  0  0  0  0  0  0  0
    1.1093   -0.7382   -2.6848 H   0  0  0  0  0  0  0  0  0  0  0  0
   -3.5295   -0.6039   -0.0884 H   0  0  0  0  0  0  0  0  0  0  0  0
   -3.9179    0.1791    1.4670 H   0  0  0  0  0  0  0  0  0  0  0  0
   -3.0530   -1.3900    1.4521 H   0  0  0  0  0  0  0  0  0  0  0  0
   -1.7936    1.9884   -2.0922 H   0  0  0  0  0  0  0  0  0  0  0  0
   -2.7965    0.5775   -1.6674 H   0  0  0  0  0  0  0  0  0  0  0  0
   -3.2179    2.2104   -1.0485 H   0  0  0  0  0  0  0  0  0  0  0  0
    1.7934    1.9893    2.0918 H   0  0  0  0  0  0  0  0  0  0  0  0
    3.2180    2.2105    1.0485 H   0  0  0  0  0  0  0  0  0  0  0  0
    2.7961    0.5781    1.6680 H   0  0  0  0  0  0  0  0  0  0  0  0
    3.9185    0.1781   -1.4658 H   0  0  0  0  0  0  0  0  0  0  0  0
    3.5294   -0.6042    0.0897 H   0  0  0  0  0  0  0  0  0  0  0  0
    3.0533   -1.3909   -1.4506 H   0  0  0  0  0  0  0  0  0  0  0  0
  1 13  1  0  0  0  0
  1 14  1  0  0  0  0
  2  1  1  6  0  0  0
  3 10  1  1  0  0  0
  3  4  1  0  0  0  0
  3  2  1  0  0  0  0
  4 15  1  0  0  0  0
  5 17  1  0  0  0  0
  5  4  1  0  0  0  0
  6  5  1  6  0  0  0
  6 11  1  0  0  0  0
  7  8  1  1  0  0  0
  7 12  1  0  0  0  0
  7  6  1  0  0  0  0
  9  2  1  0  0  0  0
  9 23  1  0  0  0  0
  9 22  1  0  0  0  0
 10 26  1  0  0  0  0
 11 29  1  0  0  0  0
 11 27  1  0  0  0  0
 12 31  1  0  0  0  0
 16  4  1  0  0  0  0
 18  5  1  0  0  0  0
 19  8  1  0  0  0  0
 20  8  1  0  0  0  0
 21  9  1  0  0  0  0
 24 10  1  0  0  0  0
 25 10  1  0  0  0  0
 28 11  1  0  0  0  0
 30 12  1  0  0  0  0
 32 12  1  0  0  0  0
M  END
