4,11
q = 0.0, confidence = 1.0

 52 54  0  0  1  0  0  0  0  0999 V2000
    1.1548    0.1127   -0.8786 P   0  0  0  0  0  0  0  0  0  0  0  0
    1.2845   -2.7560   -0.7549 N   0  0  0  0  0  0  0  0  0  0  0  0
    0.1070    1.4933    1.7164 O   0  0  0  0  0  0  0  0  0  0  0  0
   -0.7001   -1.7466    0.1729 C   0  0  1  0  0  3  0  0  0  0  0  0
   -0.5426    0.3353    1.5012 C   0  0  0  0  0  0  0  0  0  0  0  0
   -1.7038   -2.2236    1.0568 C   0  0  0  0  0  3  0  0  0  0  0  0
   -2.1687   -3.2013    0.8853 H   0  0  0  0  0  0  0  0  0  0  0  0
   -0.1067   -0.4422    0.3759 C   0  0  2  0  0  3  0  0  0  0  0  0
   -1.6155   -0.1153    2.3349 C   0  0  0  0  0  0  0  0  0  0  0  0
   -2.0048    0.5212    3.1381 H   0  0  0  0  0  0  0  0  0  0  0  0
   -2.1904   -1.3893    2.1015 C   0  0  0  0  0  3  0  0  0  0  0  0
   -3.0219   -1.7307    2.7338 H   0  0  0  0  0  0  0  0  0  0  0  0
   -0.0666    2.4635   -1.7364 C   0  0  0  0  0  0  0  0  0  0  0  0
   -0.7299    1.7643   -2.2693 H   0  0  0  0  0  0  0  0  0  0  0  0
    0.6000    4.7421   -1.2147 C   0  0  0  0  0  0  0  0  0  0  0  0
    0.4539    5.8278   -1.3227 H   0  0  0  0  0  0  0  0  0  0  0  0
    0.9683    1.9570   -0.9235 C   0  0  0  0  0  0  0  0  0  0  0  0
    1.6587    4.2460   -0.4345 C   0  0  0  0  0  0  0  0  0  0  0  0
    2.3468    4.9440    0.0679 H   0  0  0  0  0  0  0  0  0  0  0  0
    1.8395    2.8634   -0.2842 C   0  0  0  0  0  0  0  0  0  0  0  0
    2.6540    2.4803    0.3484 H   0  0  0  0  0  0  0  0  0  0  0  0
   -0.2635    3.8465   -1.8641 C   0  0  0  0  0  0  0  0  0  0  0  0
   -1.0934    4.2242   -2.4802 H   0  0  0  0  0  0  0  0  0  0  0  0
    2.7512   -0.0956    0.0244 C   0  0  0  0  0  0  0  0  0  0  0  0
    4.1243   -0.6420    1.9694 C   0  0  0  0  0  0  0  0  0  0  0  0
    4.1949   -0.9080    3.0356 H   0  0  0  0  0  0  0  0  0  0  0  0
    3.9307    0.0297   -0.7424 C   0  0  0  0  0  0  0  0  0  0  0  0
    3.8559    0.2834   -1.8123 H   0  0  0  0  0  0  0  0  0  0  0  0
    5.1907   -0.1667   -0.1582 C   0  0  0  0  0  0  0  0  0  0  0  0
    6.0996   -0.0605   -0.7703 H   0  0  0  0  0  0  0  0  0  0  0  0
    2.8638   -0.4325    1.3881 C   0  0  0  0  0  0  0  0  0  0  0  0
    1.9583   -0.5361    2.0030 H   0  0  0  0  0  0  0  0  0  0  0  0
    5.2914   -0.5077    1.2006 C   0  0  0  0  0  0  0  0  0  0  0  0
    6.2787   -0.6701    1.6592 H   0  0  0  0  0  0  0  0  0  0  0  0
   -0.1588   -2.6043   -0.9717 C   0  0  2  0  0  0  0  0  0  0  0  0
   -0.2432   -1.9779   -1.8863 H   0  0  0  0  0  0  0  0  0  0  0  0
   -0.9327   -3.9038   -1.2215 C   0  0  0  0  0  0  0  0  0  0  0  0
   -0.5023   -4.4369   -2.0917 H   0  0  0  0  0  0  0  0  0  0  0  0
   -1.9949   -3.6918   -1.4544 H   0  0  0  0  0  0  0  0  0  0  0  0
   -0.8957   -4.5935   -0.3542 H   0  0  0  0  0  0  0  0  0  0  0  0
    2.0565   -3.0411   -1.9454 C   0  0  0  0  0  0  0  0  0  0  0  0
    3.1357   -2.9135   -1.7197 H   0  0  0  0  0  0  0  0  0  0  0  0
    1.7902   -2.3134   -2.7393 H   0  0  0  0  0  0  0  0  0  0  0  0
    1.9137   -4.0770   -2.3481 H   0  0  0  0  0  0  0  0  0  0  0  0
    1.6773   -3.5353    0.4009 C   0  0  0  0  0  0  0  0  0  0  0  0
    1.5392   -4.6404    0.2755 H   0  0  0  0  0  0  0  0  0  0  0  0
    1.0959   -3.2187    1.2903 H   0  0  0  0  0  0  0  0  0  0  0  0
    2.7487   -3.3507    0.6221 H   0  0  0  0  0  0  0  0  0  0  0  0
   -0.4495    2.4817    2.5727 C   0  0  0  0  0  0  0  0  0  0  0  0
   -1.4780    2.7528    2.2565 H   0  0  0  0  0  0  0  0  0  0  0  0
    0.2032    3.3674    2.4661 H   0  0  0  0  0  0  0  0  0  0  0  0
   -0.4524    2.1525    3.6346 H   0  0  0  0  0  0  0  0  0  0  0  0
  1 24  1  0  0  0  0
  2 45  1  0  0  0  0
  3 49  1  0  0  0  0
  4 35  1  1  0  0  0
  4  8  1  0  0  0  0
  4  6  1  0  0  0  0
  5  3  1  0  0  0  0
  5  9  2  0  0  0  0
  6 11  1  0  0  0  0
  7  6  1  0  0  0  0
  8  1  1  6  0  0  0
  8  5  1  0  0  0  0
  9 10  1  0  0  0  0
 11  9  1  0  0  0  0
 11 12  1  0  0  0  0
 13 17  1  0  0  0  0
 14 13  1  0  0  0  0
 15 18  2  0  0  0  0
 16 15  1  0  0  0  0
 17  1  1  0  0  0  0
 17 20  2  0  0  0  0
 18 20  1  0  0  0  0
 18 19  1  0  0  0  0
 20 21  1  0  0  0  0
 22 13  2  0  0  0  0
 22 15  1  0  0  0  0
 23 22  1  0  0  0  0
 24 31  1  0  0  0  0
 25 26  1  0  0  0  0
 27 29  1  0  0  0  0
 27 24  2  0  0  0  0
 28 27  1  0  0  0  0
 29 33  2  0  0  0  0
 30 29  1  0  0  0  0
 31 25  2  0  0  0  0
 31 32  1  0  0  0  0
 33 34  1  0  0  0  0
 33 25  1  0  0  0  0
 35 36  1  6  0  0  0
 35  2  1  0  0  0  0
 37 35  1  0  0  0  0
 37 40  1  0  0  0  0
 38 37  1  0  0  0  0
 39 37  1  0  0  0  0
 41 42  1  0  0  0  0
 41  2  1  0  0  0  0
 43 41  1  0  0  0  0
 44 41  1  0  0  0  0
 45 48  1  0  0  0  0
 45 47  1  0  0  0  0
 46 45  1  0  0  0  0
 49 52  1  0  0  0  0
 50 49  1  0  0  0  0
 51 49  1  0  0  0  0
M  END
