2
q = 0.0, confidence = 0.98

 49 52  0  0  1  0  0  0  0  0999 V2000
    1.1941   -0.6415    0.1843 Si  0  0  2  0  0  0  0  0  0  0  0  0
    0.2649    0.7663   -0.6730 C   0  0  0  0  0  2  0  0  0  0  0  0
    0.8670    1.7512   -1.3263 N   0  0  0  0  0  0  0  0  0  0  0  0
    0.1351    2.9231   -1.8416 C   0  0  0  0  0  0  0  0  0  0  0  0
    0.5256    4.1683   -1.0357 C   0  0  0  0  0  0  0  0  0  0  0  0
    2.0427    4.3970   -1.0678 C   0  0  0  0  0  0  0  0  0  0  0  0
    2.8020    3.1298   -0.6517 C   0  0  0  0  0  0  0  0  0  0  0  0
    2.3266    1.9184   -1.4617 C   0  0  0  0  0  0  0  0  0  0  0  0
    1.8595   -1.9149   -1.0303 C   0  0  0  0  0  0  0  0  0  0  0  0
    1.6314   -1.7827   -2.4181 C   0  0  0  0  0  0  0  0  0  0  0  0
    2.1104   -2.7453   -3.3198 C   0  0  0  0  0  0  0  0  0  0  0  0
    2.8254   -3.8565   -2.8459 C   0  0  0  0  0  0  0  0  0  0  0  0
    3.0591   -4.0053   -1.4688 C   0  0  0  0  0  0  0  0  0  0  0  0
    2.5788   -3.0422   -0.5685 C   0  0  0  0  0  0  0  0  0  0  0  0
   -0.1616   -1.3696    1.2938 C   0  0  1  0  0  3  0  0  0  0  0  0
   -0.6357   -2.7070    1.1548 C   0  0  0  0  0  0  0  0  0  0  0  0
   -1.5465   -3.2461    2.0634 C   0  0  0  0  0  0  0  0  0  0  0  0
   -2.0247   -2.4637    3.1370 C   0  0  0  0  0  0  0  0  0  0  0  0
   -1.5867   -1.1485    3.2970 C   0  0  0  0  0  0  0  0  0  0  0  0
   -0.6615   -0.5968    2.3816 C   0  0  0  0  0  3  0  0  0  0  0  0
    2.5827   -0.0148    1.3168 C   0  0  0  0  0  0  0  0  0  0  0  0
    2.4448    0.8032    2.4322 C   0  0  0  0  0  3  0  0  0  0  0  0
    3.2938    1.3422    3.2032 C   0  0  0  0  0  3  0  0  0  0  0  0
    4.6737    1.1911    3.0454 C   0  0  0  0  0  0  0  0  0  0  0  0
    4.9817    0.3592    1.9335 C   0  0  0  0  0  0  0  0  0  0  0  0
    3.9895   -0.2141    1.1103 C   0  0  0  0  0  0  0  0  0  0  0  0
    0.4032    3.0550   -2.9133 H   0  0  0  0  0  0  0  0  0  0  0  0
   -0.9433    2.7042   -1.7742 H   0  0  0  0  0  0  0  0  0  0  0  0
    0.1763    4.0293    0.0100 H   0  0  0  0  0  0  0  0  0  0  0  0
   -0.0180    5.0467   -1.4399 H   0  0  0  0  0  0  0  0  0  0  0  0
    2.3464    4.6819   -2.1003 H   0  0  0  0  0  0  0  0  0  0  0  0
    2.3228    5.2478   -0.4135 H   0  0  0  0  0  0  0  0  0  0  0  0
    3.8960    3.2542   -0.7891 H   0  0  0  0  0  0  0  0  0  0  0  0
    2.6364    2.9146    0.4257 H   0  0  0  0  0  0  0  0  0  0  0  0
    2.5526    2.0639   -2.5416 H   0  0  0  0  0  0  0  0  0  0  0  0
    2.8265    0.9870   -1.1396 H   0  0  0  0  0  0  0  0  0  0  0  0
    1.0601   -0.9202   -2.7969 H   0  0  0  0  0  0  0  0  0  0  0  0
    1.9185   -2.6310   -4.3975 H   0  0  0  0  0  0  0  0  0  0  0  0
    3.1993   -4.6133   -3.5524 H   0  0  0  0  0  0  0  0  0  0  0  0
    3.6161   -4.8781   -1.0949 H   0  0  0  0  0  0  0  0  0  0  0  0
    2.7641   -3.1721    0.5105 H   0  0  0  0  0  0  0  0  0  0  0  0
   -0.2742   -3.3183    0.3130 H   0  0  0  0  0  0  0  0  0  0  0  0
   -1.8992   -4.2807    1.9378 H   0  0  0  0  0  0  0  0  0  0  0  0
   -2.7483   -2.8919    3.8469 H   0  0  0  0  0  0  0  0  0  0  0  0
   -1.9566   -0.5349    4.1316 H   0  0  0  0  0  0  0  0  0  0  0  0
   -0.2512    0.4065    2.5775 H   0  0  0  0  0  0  0  0  0  0  0  0
    5.4599    1.6369    3.6738 H   0  0  0  0  0  0  0  0  0  0  0  0
    6.0404    0.1541    1.7065 H   0  0  0  0  0  0  0  0  0  0  0  0
    4.3014   -0.8475    0.2622 H   0  0  0  0  0  0  0  0  0  0  0  0
  1  2  1  6  0  0  0
  1 21  1  0  0  0  0
  3  2  1  0  0  0  0
  4 28  1  0  0  0  0
  4  3  1  0  0  0  0
  4  5  1  0  0  0  0
  5 29  1  0  0  0  0
  6  5  1  0  0  0  0
  6  7  1  0  0  0  0
  6 32  1  0  0  0  0
  7 34  1  0  0  0  0
  8  3  1  0  0  0  0
  8 36  1  0  0  0  0
  8  7  1  0  0  0  0
  9 14  1  0  0  0  0
  9  1  1  0  0  0  0
 10  9  2  0  0  0  0
 11 12  2  0  0  0  0
 11 10  1  0  0  0  0
 12 13  1  0  0  0  0
 13 40  1  0  0  0  0
 13 14  2  0  0  0  0
 14 41  1  0  0  0  0
 15  1  1  1  0  0  0
 15 20  1  0  0  0  0
 16 15  1  0  0  0  0
 16 17  2  0  0  0  0
 17 18  1  0  0  0  0
 18 19  2  0  0  0  0
 18 44  1  0  0  0  0
 19 45  1  0  0  0  0
 20 46  1  0  0  0  0
 20 19  1  0  0  0  0
 21 22  1  0  0  0  0
 22 23  2  0  0  0  0
 24 23  1  0  0  0  0
 24 47  1  0  0  0  0
 25 24  2  0  0  0  0
 26 21  2  0  0  0  0
 26 25  1  0  0  0  0
 27  4  1  0  0  0  0
 30  5  1  0  0  0  0
 31  6  1  0  0  0  0
 33  7  1  0  0  0  0
 35  8  1  0  0  0  0
 37 10  1  0  0  0  0
 38 11  1  0  0  0  0
 39 12  1  0  0  0  0
 42 16  1  0  0  0  0
 43 17  1  0  0  0  0
 48 25  1  0  0  0  0
 49 26  1  0  0  0  0
M  END
