14,20
q = 0.0, confidence = 1.0

 54 56  0  0  1  0  0  0  0  0999 V2000
    4.2816   -1.5339    0.1289 Si  0  0  0  0  0  0  0  0  0  0  0  0
   -5.0743    0.8218    0.6500 C   0  0  0  0  0  0  0  0  0  0  0  0
   -4.7857    1.7768    1.1248 H   0  0  0  0  0  0  0  0  0  0  0  0
   -6.0132    1.0281    0.1009 H   0  0  0  0  0  0  0  0  0  0  0  0
   -1.6248    0.0262   -0.5791 O   0  0  0  0  0  0  0  0  0  0  0  0
    5.0460   -0.4068    1.4363 C   0  0  0  0  0  0  0  0  0  0  0  0
    6.0930   -0.7095    1.6448 H   0  0  0  0  0  0  0  0  0  0  0  0
    4.4893   -0.4397    2.3947 H   0  0  0  0  0  0  0  0  0  0  0  0
    5.0496    0.6451    1.0878 H   0  0  0  0  0  0  0  0  0  0  0  0
   -3.9417    1.1118   -1.6436 C   0  0  0  0  0  0  0  0  0  0  0  0
   -3.6490    2.1641   -1.4506 H   0  0  0  0  0  0  0  0  0  0  0  0
   -4.9344    1.1299   -2.1368 H   0  0  0  0  0  0  0  0  0  0  0  0
   -3.2051    0.6889   -2.3521 H   0  0  0  0  0  0  0  0  0  0  0  0
    1.8365   -0.8473   -1.3458 C   0  0  0  0  0  3  0  0  0  0  0  0
    2.4461   -0.9211   -2.2580 H   0  0  0  0  0  0  0  0  0  0  0  0
   -2.2945    1.5527    1.1803 C   0  0  0  0  0  0  0  0  0  0  0  0
   -2.3902    2.4269    0.5085 H   0  0  0  0  0  0  0  0  0  0  0  0
   -1.2490    1.5377    1.5394 H   0  0  0  0  0  0  0  0  0  0  0  0
   -2.9461    1.7017    2.0606 H   0  0  0  0  0  0  0  0  0  0  0  0
    1.6042   -0.8953    1.0704 C   0  0  0  0  0  3  0  0  0  0  0  0
    2.0246   -1.0081    2.0813 H   0  0  0  0  0  0  0  0  0  0  0  0
    4.4031   -3.3431    0.6766 C   0  0  0  0  0  0  0  0  0  0  0  0
    5.4623   -3.6456    0.8108 H   0  0  0  0  0  0  0  0  0  0  0  0
    3.9464   -4.0207   -0.0733 H   0  0  0  0  0  0  0  0  0  0  0  0
    3.8806   -3.5046    1.6418 H   0  0  0  0  0  0  0  0  0  0  0  0
   -2.8542   -0.9903    1.3686 C   0  0  0  0  0  0  0  0  0  0  0  0
   -2.1363   -1.7915    1.1120 H   0  0  0  0  0  0  0  0  0  0  0  0
   -2.6995   -0.7443    2.4385 H   0  0  0  0  0  0  0  0  0  0  0  0
    0.2294   -0.5146    0.9670 C   0  0  0  0  0  0  0  0  0  0  0  0
   -0.3512   -0.3596    1.8819 H   0  0  0  0  0  0  0  0  0  0  0  0
    5.1405   -1.2892   -1.5349 C   0  0  0  0  0  0  0  0  0  0  0  0
    6.2199   -1.5273   -1.4388 H   0  0  0  0  0  0  0  0  0  0  0  0
    5.0551   -0.2387   -1.8788 H   0  0  0  0  0  0  0  0  0  0  0  0
    4.7244   -1.9529   -2.3204 H   0  0  0  0  0  0  0  0  0  0  0  0
   -4.3024   -1.4333    1.0781 C   0  0  1  0  0  0  0  0  0  0  0  0
   -4.5232   -2.4621    1.4270 H   0  0  0  0  0  0  0  0  0  0  0  0
    2.4364   -1.1083   -0.0672 C   0  0  2  0  0  3  0  0  0  0  0  0
    0.4842   -0.4478   -1.4766 C   0  0  0  0  0  3  0  0  0  0  0  0
    0.0465   -0.2222   -2.4576 H   0  0  0  0  0  0  0  0  0  0  0  0
   -0.3515   -0.3113   -0.3178 C   0  0  0  0  0  0  0  0  0  0  0  0
   -3.4898   -2.1147   -1.2972 C   0  0  0  0  0  0  0  0  0  0  0  0
   -3.8752   -3.1552   -1.2859 H   0  0  0  0  0  0  0  0  0  0  0  0
   -2.4423   -2.1400   -0.9549 H   0  0  0  0  0  0  0  0  0  0  0  0
   -3.4786   -1.7816   -2.3550 H   0  0  0  0  0  0  0  0  0  0  0  0
   -2.6456    0.2562    0.4463 C   0  0  2  0  0  0  0  0  0  0  0  0
   -4.0043    0.3100   -0.3530 C   0  0  1  0  0  0  0  0  0  0  0  0
   -5.8345   -1.4342   -1.0156 C   0  0  0  0  0  0  0  0  0  0  0  0
   -6.1123   -2.5041   -0.9250 H   0  0  0  0  0  0  0  0  0  0  0  0
   -5.8724   -1.1783   -2.0942 H   0  0  0  0  0  0  0  0  0  0  0  0
   -6.6195   -0.8458   -0.5070 H   0  0  0  0  0  0  0  0  0  0  0  0
   -5.2437   -0.3516    1.6562 C   0  0  0  0  0  0  0  0  0  0  0  0
   -6.2923   -0.7052    1.7045 H   0  0  0  0  0  0  0  0  0  0  0  0
   -4.9533   -0.0758    2.6903 H   0  0  0  0  0  0  0  0  0  0  0  0
   -4.4156   -1.2152   -0.4603 C   0  0  0  0  0  0  0  0  0  0  0  0
  1 22  1  0  0  0  0
  1  6  1  0  0  0  0
  2  3  1  0  0  0  0
  2 51  1  0  0  0  0
  4  2  1  0  0  0  0
  5 40  1  0  0  0  0
  6  7  1  0  0  0  0
  6  8  1  0  0  0  0
  9  6  1  0  0  0  0
 10 11  1  0  0  0  0
 12 10  1  0  0  0  0
 13 10  1  0  0  0  0
 14 37  1  0  0  0  0
 15 14  1  0  0  0  0
 16 18  1  0  0  0  0
 16 19  1  0  0  0  0
 17 16  1  0  0  0  0
 20 21  1  0  0  0  0
 22 23  1  0  0  0  0
 22 25  1  0  0  0  0
 24 22  1  0  0  0  0
 26 28  1  0  0  0  0
 27 26  1  0  0  0  0
 29 20  1  0  0  0  0
 29 30  1  0  0  0  0
 31 32  1  0  0  0  0
 31  1  1  0  0  0  0
 33 31  1  0  0  0  0
 34 31  1  0  0  0  0
 35 26  1  0  0  0  0
 35 36  1  1  0  0  0
 35 51  1  0  0  0  0
 37  1  1  1  0  0  0
 37 20  1  0  0  0  0
 38 14  1  0  0  0  0
 38 40  1  0  0  0  0
 39 38  1  0  0  0  0
 40 29  2  0  0  0  0
 41 42  1  0  0  0  0
 41 43  1  0  0  0  0
 41 54  1  0  0  0  0
 44 41  1  0  0  0  0
 45  5  1  6  0  0  0
 45 16  1  0  0  0  0
 45 26  1  0  0  0  0
 46 10  1  6  0  0  0
 46 45  1  0  0  0  0
 46  2  1  0  0  0  0
 47 48  1  0  0  0  0
 47 50  1  0  0  0  0
 47 54  1  0  0  0  0
 49 47  1  0  0  0  0
 51 52  1  0  0  0  0
 51 53  1  0  0  0  0
 54 46  1  0  0  0  0
 54 35  1  0  0  0  0
M  END
