4,8
q = 0.0, confidence = 0.986

 20 20  0  0  1  0  0  0  0  0999 V2000
   -2.6543   -1.3938    0.6653 O   0  0  0  0  0  0  0  0  0  0  0  0
    2.7247   -1.2818   -0.6510 O   0  0  0  0  0  0  0  0  0  0  0  0
   -1.3816   -1.2921    0.2952 C   0  0  2  0  0  3  0  0  0  0  0  0
   -0.4107   -1.1658    1.3377 C   0  0  0  0  0  3  0  0  0  0  0  0
    0.9844   -1.1494    1.0672 C   0  0  0  0  0  0  0  0  0  0  0  0
    1.4528   -1.2432   -0.2831 C   0  0  0  0  0  0  0  0  0  0  0  0
    0.4867   -1.1694   -1.3373 C   0  0  0  0  0  3  0  0  0  0  0  0
   -0.9041   -1.1967   -1.0516 C   0  0  0  0  0  3  0  0  0  0  0  0
   -3.6903   -1.3303   -0.3266 C   0  0  0  0  0  0  0  0  0  0  0  0
    3.7670   -1.2084    0.3375 C   0  0  0  0  0  0  0  0  0  0  0  0
   -0.7738   -1.1132    2.3746 H   0  0  0  0  0  0  0  0  0  0  0  0
    1.6882   -1.0704    1.9052 H   0  0  0  0  0  0  0  0  0  0  0  0
    0.8468   -1.1153   -2.3738 H   0  0  0  0  0  0  0  0  0  0  0  0
   -1.6123   -1.1568   -1.8902 H   0  0  0  0  0  0  0  0  0  0  0  0
   -3.5944   -2.1591   -1.0580 H   0  0  0  0  0  0  0  0  0  0  0  0
   -3.6738   -0.3497   -0.8476 H   0  0  0  0  0  0  0  0  0  0  0  0
   -4.6401   -1.4367    0.2249 H   0  0  0  0  0  0  0  0  0  0  0  0
    4.7138   -1.2929   -0.2226 H   0  0  0  0  0  0  0  0  0  0  0  0
    3.6874   -2.0455    1.0602 H   0  0  0  0  0  0  0  0  0  0  0  0
    3.7360   -0.2324    0.8645 H   0  0  0  0  0  0  0  0  0  0  0  0
  2  6  1  0  0  0  0
  2 10  1  0  0  0  0
  3  1  1  1  0  0  0
  3  4  1  0  0  0  0
  4 11  1  0  0  0  0
  5  4  1  0  0  0  0
  5 12  1  0  0  0  0
  6  5  2  0  0  0  0
  7  8  1  0  0  0  0
  7  6  1  0  0  0  0
  8  3  1  0  0  0  0
  9 17  1  0  0  0  0
  9  1  1  0  0  0  0
 10 20  1  0  0  0  0
 10 19  1  0  0  0  0
 13  7  1  0  0  0  0
 14  8  1  0  0  0  0
 15  9  1  0  0  0  0
 16  9  1  0  0  0  0
 18 10  1  0  0  0  0
M  END
