5,16
q = 0.0, confidence = 0.99

 72 79  0  0  0  0  0  0  0  0999 V2000
   -0.5231   -2.7916    0.1841 N   0  0  0  0  0  0  0  0  0  0  0  0
    0.6481   -1.5645   -1.2038 N   0  0  0  0  0  0  0  0  0  0  0  0
   -0.6665    2.7145   -0.1563 N   0  0  0  0  0  0  0  0  0  0  0  0
    0.5707    1.5351    1.2145 N   0  0  0  0  0  0  0  0  0  0  0  0
   -0.4398   -1.5333   -0.3600 C   0  0  0  0  0  2  0  0  0  0  0  0
    0.4667   -3.6258   -0.3369 C   0  0  0  0  0  0  0  0  0  0  0  0
    1.2115   -2.8453   -1.2491 C   0  0  0  0  0  0  0  0  0  0  0  0
    2.2745   -3.3758   -1.9885 C   0  0  0  0  0  0  0  0  0  0  0  0
    2.8327   -2.7574   -2.7051 H   0  0  0  0  0  0  0  0  0  0  0  0
    2.5901   -4.7247   -1.7690 C   0  0  0  0  0  0  0  0  0  0  0  0
    3.4167   -5.1837   -2.3309 H   0  0  0  0  0  0  0  0  0  0  0  0
    1.8652   -5.5048   -0.8412 C   0  0  0  0  0  0  0  0  0  0  0  0
    2.1417   -6.5589   -0.6920 H   0  0  0  0  0  0  0  0  0  0  0  0
    0.7918   -4.9719   -0.1112 C   0  0  0  0  0  0  0  0  0  0  0  0
    0.2288   -5.5885    0.6026 H   0  0  0  0  0  0  0  0  0  0  0  0
   -0.5071    1.4522    0.3600 C   0  0  0  0  0  2  0  0  0  0  0  0
    1.0481    2.8497    1.2940 C   0  0  0  0  0  0  0  0  0  0  0  0
    0.2581    3.5997    0.3957 C   0  0  0  0  0  0  0  0  0  0  0  0
    0.4827    4.9714    0.2068 C   0  0  0  0  0  0  0  0  0  0  0  0
   -0.1241    5.5621   -0.4929 H   0  0  0  0  0  0  0  0  0  0  0  0
    1.5123    5.5602    0.9573 C   0  0  0  0  0  0  0  0  0  0  0  0
    1.7126    6.6353    0.8398 H   0  0  0  0  0  0  0  0  0  0  0  0
    2.2885    4.8082    1.8669 C   0  0  0  0  0  0  0  0  0  0  0  0
    3.0787    5.3098    2.4446 H   0  0  0  0  0  0  0  0  0  0  0  0
    2.0688    3.4347    2.0515 C   0  0  0  0  0  0  0  0  0  0  0  0
    2.6671    2.8400    2.7559 H   0  0  0  0  0  0  0  0  0  0  0  0
    1.3518   -0.4032   -1.6513 C   0  0  0  0  0  0  0  0  0  0  0  0
    1.2421    0.0072   -3.0027 C   0  0  0  0  0  0  0  0  0  0  0  0
    0.5696   -0.5520   -3.6681 H   0  0  0  0  0  0  0  0  0  0  0  0
    1.9540    1.1101   -3.4428 C   0  0  0  0  0  0  0  0  0  0  0  0
    1.8602    1.4523   -4.4846 H   0  0  0  0  0  0  0  0  0  0  0  0
    2.8104    1.8252   -2.5574 C   0  0  0  0  0  0  0  0  0  0  0  0
    3.5484    2.9665   -2.9891 C   0  0  0  0  0  0  0  0  0  0  0  0
    3.4351    3.3025   -4.0314 H   0  0  0  0  0  0  0  0  0  0  0  0
    4.3930    3.6387   -2.1197 C   0  0  0  0  0  0  0  0  0  0  0  0
    4.9528    4.5207   -2.4655 H   0  0  0  0  0  0  0  0  0  0  0  0
    4.5481    3.1850   -0.7827 C   0  0  0  0  0  0  0  0  0  0  0  0
    5.2301    3.7152   -0.1016 H   0  0  0  0  0  0  0  0  0  0  0  0
    3.8411    2.0828   -0.3289 C   0  0  0  0  0  0  0  0  0  0  0  0
    3.9659    1.7295    0.7039 H   0  0  0  0  0  0  0  0  0  0  0  0
    2.9404    1.3861   -1.1868 C   0  0  0  0  0  0  0  0  0  0  0  0
    2.1734    0.2618   -0.7319 C   0  0  0  0  0  0  0  0  0  0  0  0
    2.2051   -0.1825    0.7018 C   0  0  0  0  0  0  0  0  0  0  0  0
    3.0713   -1.2390    1.1406 C   0  0  0  0  0  0  0  0  0  0  0  0
    4.0196   -1.8496    0.2685 C   0  0  0  0  0  0  0  0  0  0  0  0
    4.0973   -1.4845   -0.7648 H   0  0  0  0  0  0  0  0  0  0  0  0
    4.8326   -2.8813    0.7105 C   0  0  0  0  0  0  0  0  0  0  0  0
    5.5528   -3.3442    0.0196 H   0  0  0  0  0  0  0  0  0  0  0  0
    4.7377   -3.3498    2.0480 C   0  0  0  0  0  0  0  0  0  0  0  0
    5.3814   -4.1764    2.3841 H   0  0  0  0  0  0  0  0  0  0  0  0
    3.8459   -2.7603    2.9300 C   0  0  0  0  0  0  0  0  0  0  0  0
    3.7780   -3.1070    3.9728 H   0  0  0  0  0  0  0  0  0  0  0  0
    3.0015   -1.6897    2.5119 C   0  0  0  0  0  0  0  0  0  0  0  0
    2.1013   -1.0518    3.4127 C   0  0  0  0  0  0  0  0  0  0  0  0
    2.0526   -1.4027    4.4548 H   0  0  0  0  0  0  0  0  0  0  0  0
    1.2988   -0.0062    2.9898 C   0  0  0  0  0  0  0  0  0  0  0  0
    0.5986    0.4984    3.6700 H   0  0  0  0  0  0  0  0  0  0  0  0
    1.3534    0.4167    1.6390 C   0  0  0  0  0  0  0  0  0  0  0  0
   -1.4893   -3.2055    1.2067 C   0  0  0  0  0  0  0  0  0  0  0  0
   -2.4898   -2.8777    0.8565 H   0  0  0  0  0  0  0  0  0  0  0  0
   -1.4916   -4.3124    1.2154 H   0  0  0  0  0  0  0  0  0  0  0  0
   -1.1701   -2.6302    2.5810 C   0  0  0  0  0  0  0  0  0  0  0  0
   -0.1518   -2.9096    2.9186 H   0  0  0  0  0  0  0  0  0  0  0  0
   -1.9056   -3.0024    3.3210 H   0  0  0  0  0  0  0  0  0  0  0  0
   -1.2425   -1.5238    2.5569 H   0  0  0  0  0  0  0  0  0  0  0  0
   -1.6221    3.0987   -1.1960 C   0  0  0  0  0  0  0  0  0  0  0  0
   -2.0569    4.0756   -0.9027 H   0  0  0  0  0  0  0  0  0  0  0  0
   -2.4472    2.3618   -1.1592 H   0  0  0  0  0  0  0  0  0  0  0  0
   -0.9784    3.1511   -2.5783 C   0  0  0  0  0  0  0  0  0  0  0  0
   -0.1260    3.8596   -2.6164 H   0  0  0  0  0  0  0  0  0  0  0  0
   -1.7292    3.4703   -3.3277 H   0  0  0  0  0  0  0  0  0  0  0  0
   -0.6049    2.1497   -2.8666 H   0  0  0  0  0  0  0  0  0  0  0  0
  1 59  1  0  0  0  0
  2  5  1  0  0  0  0
  3 16  1  0  0  0  0
  3 18  1  0  0  0  0
  4 17  1  0  0  0  0
  4 58  1  0  0  0  0
  5  1  1  0  0  0  0
  6 14  1  0  0  0  0
  6  1  1  0  0  0  0
  7  2  1  0  0  0  0
  7  6  2  0  0  0  0
  8 10  2  0  0  0  0
  8  7  1  0  0  0  0
  9  8  1  0  0  0  0
 10 12  1  0  0  0  0
 11 10  1  0  0  0  0
 12 13  1  0  0  0  0
 12 14  2  0  0  0  0
 14 15  1  0  0  0  0
 16  4  1  0  0  0  0
 17 25  1  0  0  0  0
 18 17  2  0  0  0  0
 19 18  1  0  0  0  0
 19 21  2  0  0  0  0
 20 19  1  0  0  0  0
 21 23  1  0  0  0  0
 22 21  1  0  0  0  0
 23 25  2  0  0  0  0
 23 24  1  0  0  0  0
 25 26  1  0  0  0  0
 27  2  1  0  0  0  0
 27 42  1  0  0  0  0
 28 27  2  0  0  0  0
 29 28  1  0  0  0  0
 30 28  1  0  0  0  0
 30 32  2  0  0  0  0
 31 30  1  0  0  0  0
 32 41  1  0  0  0  0
 33 32  1  0  0  0  0
 33 35  2  0  0  0  0
 34 33  1  0  0  0  0
 35 37  1  0  0  0  0
 36 35  1  0  0  0  0
 37 39  2  0  0  0  0
 37 38  1  0  0  0  0
 39 40  1  0  0  0  0
 41 42  2  0  0  0  0
 41 39  1  0  0  0  0
 42 43  1  0  0  0  0
 43 44  2  0  0  0  0
 43 58  1  0  0  0  0
 44 53  1  0  0  0  0
 45 47  2  0  0  0  0
 45 44  1  0  0  0  0
 46 45  1  0  0  0  0
 47 49  1  0  0  0  0
 48 47  1  0  0  0  0
 49 50  1  0  0  0  0
 49 51  2  0  0  0  0
 51 52  1  0  0  0  0
 53 51  1  0  0  0  0
 53 54  2  0  0  0  0
 54 55  1  0  0  0  0
 56 54  1  0  0  0  0
 56 57  1  0  0  0  0
 58 56  2  0  0  0  0
 59 61  1  0  0  0  0
 59 62  1  0  0  0  0
 60 59  1  0  0  0  0
 62 63  1  0  0  0  0
 62 64  1  0  0  0  0
 65 62  1  0  0  0  0
 66 68  1  0  0  0  0
 66 67  1  0  0  0  0
 66  3  1  0  0  0  0
 69 66  1  0  0  0  0
 70 69  1  0  0  0  0
 71 69  1  0  0  0  0
 72 69  1  0  0  0  0
M  END
