22,39
q = -2.0, confidence = 0.73

 39 42  0  0  0  0  0  0  0  0999 V2000
    0.0000    2.9077   -0.1875 Si  0  0  0  0  0  0  0  0  0  0  0  0
    0.0000    3.8787    1.4240 C   0  0  0  0  0  0  0  0  0  0  0  0
    0.8978    4.5253    1.4965 H   0  0  0  0  0  0  0  0  0  0  0  0
    0.0000    3.1926    2.2947 H   0  0  0  0  0  0  0  0  0  0  0  0
    0.0000    4.0043   -1.7175 C   0  0  0  0  0  0  0  0  0  0  0  0
    0.8995    4.6527   -1.7356 H   0  0  0  0  0  0  0  0  0  0  0  0
   -0.0000    3.3970   -2.6448 H   0  0  0  0  0  0  0  0  0  0  0  0
   -2.6262   -0.2124    0.5042 C   0  0  0  0  0  0  0  0  0  0  0  0
   -3.3432   -1.2193    1.2150 C   0  0  0  0  0  0  0  0  0  0  0  0
   -3.5294   -1.1070    2.2935 H   0  0  0  0  0  0  0  0  0  0  0  0
   -2.3775   -0.3769   -0.9183 C   0  0  0  0  0  0  0  0  0  0  0  0
   -1.5913    0.7474   -1.3435 C   0  0  0  0  0  3  0  0  0  0  0  0
   -1.2550    0.9282   -2.3723 H   0  0  0  0  0  0  0  0  0  0  0  0
   -3.8134   -2.3249    0.5209 C   0  0  0  0  0  0  0  0  0  0  0  0
   -4.3733   -3.1061    1.0570 H   0  0  0  0  0  0  0  0  0  0  0  0
   -2.8837   -1.5197   -1.6015 C   0  0  0  0  0  0  0  0  0  0  0  0
   -2.7069   -1.6409   -2.6808 H   0  0  0  0  0  0  0  0  0  0  0  0
   -3.5905   -2.4717   -0.8825 C   0  0  0  0  0  0  0  0  0  0  0  0
   -3.9852   -3.3613   -1.3960 H   0  0  0  0  0  0  0  0  0  0  0  0
   -2.0113    1.0206    0.9141 C   0  0  0  0  0  3  0  0  0  0  0  0
   -2.0249    1.4260    1.9322 H   0  0  0  0  0  0  0  0  0  0  0  0
   -1.4130    1.6420   -0.2291 C   0  0  0  0  0  3  0  0  0  0  0  0
   -0.8978    4.5253    1.4965 H   0  0  0  0  0  0  0  0  0  0  0  0
   -0.8995    4.6527   -1.7356 H   0  0  0  0  0  0  0  0  0  0  0  0
    2.6262   -0.2124    0.5042 C   0  0  0  0  0  0  0  0  0  0  0  0
    3.3432   -1.2193    1.2150 C   0  0  0  0  0  0  0  0  0  0  0  0
    3.5294   -1.1070    2.2935 H   0  0  0  0  0  0  0  0  0  0  0  0
    2.3775   -0.3769   -0.9183 C   0  0  0  0  0  0  0  0  0  0  0  0
    1.5913    0.7474   -1.3435 C   0  0  0  0  0  3  0  0  0  0  0  0
    1.2550    0.9282   -2.3723 H   0  0  0  0  0  0  0  0  0  0  0  0
    3.8134   -2.3249    0.5209 C   0  0  0  0  0  0  0  0  0  0  0  0
    4.3733   -3.1061    1.0570 H   0  0  0  0  0  0  0  0  0  0  0  0
    2.8837   -1.5197   -1.6015 C   0  0  0  0  0  0  0  0  0  0  0  0
    2.7069   -1.6409   -2.6808 H   0  0  0  0  0  0  0  0  0  0  0  0
    3.5905   -2.4717   -0.8825 C   0  0  0  0  0  0  0  0  0  0  0  0
    3.9852   -3.3613   -1.3960 H   0  0  0  0  0  0  0  0  0  0  0  0
    2.0113    1.0206    0.9141 C   0  0  0  0  0  3  0  0  0  0  0  0
    2.0249    1.4260    1.9322 H   0  0  0  0  0  0  0  0  0  0  0  0
    1.4130    1.6420   -0.2291 C   0  0  0  0  0  3  0  0  0  0  0  0
  1  2  1  0  0  0  0
  2  3  1  0  0  0  0
  2 23  1  0  0  0  0
  2  4  1  0  0  0  0
  5  1  1  0  0  0  0
  6  5  1  0  0  0  0
  7  5  1  0  0  0  0
  8 20  1  0  0  0  0
  8  9  1  0  0  0  0
  9 10  1  0  0  0  0
 11  8  2  0  0  0  0
 12 11  1  0  0  0  0
 12 22  1  0  0  0  0
 13 12  1  0  0  0  0
 14 15  1  0  0  0  0
 14  9  2  0  0  0  0
 16 11  1  0  0  0  0
 16 18  2  0  0  0  0
 17 16  1  0  0  0  0
 18 14  1  0  0  0  0
 19 18  1  0  0  0  0
 20 21  1  0  0  0  0
 22  1  1  0  0  0  0
 22 20  1  0  0  0  0
 24  5  1  0  0  0  0
 25 37  1  0  0  0  0
 25 26  1  0  0  0  0
 26 27  1  0  0  0  0
 28 25  2  0  0  0  0
 29 28  1  0  0  0  0
 29 39  1  0  0  0  0
 30 29  1  0  0  0  0
 31 32  1  0  0  0  0
 31 26  2  0  0  0  0
 33 28  1  0  0  0  0
 33 35  2  0  0  0  0
 34 33  1  0  0  0  0
 35 31  1  0  0  0  0
 36 35  1  0  0  0  0
 37 38  1  0  0  0  0
 39  1  1  0  0  0  0
 39 37  1  0  0  0  0
M  END
