20,31
q = -2.0, confidence = 0.746

 40 44  0  0  0  0  0  0  0  0999 V2000
    0.4313   -2.3918   -0.9554 C   0  0  0  0  0  0  0  0  0  0  0  0
    0.4313    2.3918   -0.9554 C   0  0  0  0  0  0  0  0  0  0  0  0
    0.3583    2.5695    0.4835 C   0  0  0  0  0  0  0  0  0  0  0  0
    0.3582   -2.5695    0.4835 C   0  0  0  0  0  0  0  0  0  0  0  0
   -1.5380   -1.4158   -0.1961 C   0  0  0  0  0  0  0  0  0  0  0  0
    1.4092    3.2461    1.1696 C   0  0  0  0  0  0  0  0  0  0  0  0
    1.3764    3.3457    2.2636 H   0  0  0  0  0  0  0  0  0  0  0  0
    1.4091   -3.2461    1.1696 C   0  0  0  0  0  0  0  0  0  0  0  0
    1.3764   -3.3457    2.2636 H   0  0  0  0  0  0  0  0  0  0  0  0
    1.5161   -2.9516   -1.6868 C   0  0  0  0  0  0  0  0  0  0  0  0
    1.5704   -2.8261   -2.7778 H   0  0  0  0  0  0  0  0  0  0  0  0
   -2.8454    0.7071   -0.1762 C   0  0  0  0  0  0  0  0  0  0  0  0
   -4.0658    1.4058   -0.1325 C   0  0  0  0  0  0  0  0  0  0  0  0
   -4.0562    2.5062   -0.1249 H   0  0  0  0  0  0  0  0  0  0  0  0
   -1.5380    1.4158   -0.1960 C   0  0  0  0  0  0  0  0  0  0  0  0
    2.4538   -3.7735    0.4272 C   0  0  0  0  0  0  0  0  0  0  0  0
    3.2688   -4.3066    0.9390 H   0  0  0  0  0  0  0  0  0  0  0  0
   -4.0659   -1.4058   -0.1326 C   0  0  0  0  0  0  0  0  0  0  0  0
   -4.0562   -2.5062   -0.1251 H   0  0  0  0  0  0  0  0  0  0  0  0
   -0.8609   -1.9496    0.9387 C   0  0  0  0  0  3  0  0  0  0  0  0
   -1.2272   -1.9208    1.9710 H   0  0  0  0  0  0  0  0  0  0  0  0
   -0.7083    1.6085   -1.3506 C   0  0  0  0  0  0  0  0  0  0  0  0
   -0.9736    1.3199   -2.3743 H   0  0  0  0  0  0  0  0  0  0  0  0
    2.4538    3.7735    0.4271 C   0  0  0  0  0  0  0  0  0  0  0  0
    3.2688    4.3066    0.9390 H   0  0  0  0  0  0  0  0  0  0  0  0
   -0.7083   -1.6085   -1.3506 C   0  0  0  0  0  0  0  0  0  0  0  0
   -0.9736   -1.3199   -2.3743 H   0  0  0  0  0  0  0  0  0  0  0  0
   -2.8454   -0.7071   -0.1763 C   0  0  0  0  0  0  0  0  0  0  0  0
    1.5161    2.9516   -1.6869 C   0  0  0  0  0  0  0  0  0  0  0  0
    1.5704    2.8261   -2.7778 H   0  0  0  0  0  0  0  0  0  0  0  0
   -0.8609    1.9496    0.9388 C   0  0  0  0  0  3  0  0  0  0  0  0
   -1.2272    1.9208    1.9710 H   0  0  0  0  0  0  0  0  0  0  0  0
    2.4990   -3.6392   -0.9939 C   0  0  0  0  0  0  0  0  0  0  0  0
    3.3438   -4.0799   -1.5441 H   0  0  0  0  0  0  0  0  0  0  0  0
   -5.2790   -0.7020   -0.0939 C   0  0  0  0  0  0  0  0  0  0  0  0
   -6.2306   -1.2536   -0.0597 H   0  0  0  0  0  0  0  0  0  0  0  0
   -5.2789    0.7021   -0.0939 C   0  0  0  0  0  0  0  0  0  0  0  0
   -6.2305    1.2537   -0.0596 H   0  0  0  0  0  0  0  0  0  0  0  0
    2.4990    3.6392   -0.9939 C   0  0  0  0  0  0  0  0  0  0  0  0
    3.3438    4.0798   -1.5441 H   0  0  0  0  0  0  0  0  0  0  0  0
  1  4  1  0  0  0  0
  2  3  1  0  0  0  0
  3 31  1  0  0  0  0
  3  6  2  0  0  0  0
  4 20  1  0  0  0  0
  4  8  2  0  0  0  0
  5 28  1  0  0  0  0
  5 20  1  0  0  0  0
  6  7  1  0  0  0  0
  8  9  1  0  0  0  0
 10 33  1  0  0  0  0
 10  1  2  0  0  0  0
 11 10  1  0  0  0  0
 12 13  1  0  0  0  0
 13 14  1  0  0  0  0
 13 37  2  0  0  0  0
 15 12  1  0  0  0  0
 15 31  1  0  0  0  0
 16 17  1  0  0  0  0
 16  8  1  0  0  0  0
 18 19  1  0  0  0  0
 18 35  2  0  0  0  0
 20 21  1  0  0  0  0
 22  2  1  0  0  0  0
 22 15  2  0  0  0  0
 23 22  1  0  0  0  0
 24 25  1  0  0  0  0
 24  6  1  0  0  0  0
 26  1  1  0  0  0  0
 26  5  2  0  0  0  0
 27 26  1  0  0  0  0
 28 12  2  0  0  0  0
 28 18  1  0  0  0  0
 29 39  1  0  0  0  0
 29  2  2  0  0  0  0
 30 29  1  0  0  0  0
 31 32  1  0  0  0  0
 33 16  2  0  0  0  0
 34 33  1  0  0  0  0
 35 37  1  0  0  0  0
 35 36  1  0  0  0  0
 37 38  1  0  0  0  0
 39 24  2  0  0  0  0
 40 39  1  0  0  0  0
M  END
