2,7
q = -1.0, confidence = 0.0

 22 22  0  0  0  0  0  0  0  0999 V2000
   -1.7247    1.3399   -0.0974 C   0  0  0  0  0  0  0  0  0  0  0  0
   -1.5039   -0.0322   -0.3505 C   0  0  0  0  0  3  0  0  0  0  0  0
   -2.6392   -0.8520   -0.4642 C   0  0  0  0  0  0  0  0  0  0  0  0
   -3.9358   -0.3158   -0.3262 C   0  0  0  0  0  0  0  0  0  0  0  0
   -4.1182    1.0524   -0.0752 C   0  0  0  0  0  0  0  0  0  0  0  0
   -3.0039    1.8978    0.0427 C   0  0  0  0  0  0  0  0  0  0  0  0
    0.6322    1.4142   -0.0730 C   0  0  0  0  0  2  0  0  0  0  0  0
    3.0727    1.5159    0.2327 C   0  0  0  0  0  0  0  0  0  0  0  0
    1.7209    3.5869    0.2879 C   0  0  0  0  0  0  0  0  0  0  0  0
   -0.5400    2.0857    0.0315 N   0  0  0  0  0  0  0  0  0  0  0  0
    1.7606    2.1343    0.1105 N   0  0  0  0  0  0  0  0  0  0  0  0
   -2.5376   -1.9308   -0.6583 H   0  0  0  0  0  0  0  0  0  0  0  0
   -4.8088   -0.9786   -0.4217 H   0  0  0  0  0  0  0  0  0  0  0  0
   -5.1313    1.4671    0.0287 H   0  0  0  0  0  0  0  0  0  0  0  0
   -3.1325    2.9740    0.2383 H   0  0  0  0  0  0  0  0  0  0  0  0
   -0.5966    3.0766    0.2834 H   0  0  0  0  0  0  0  0  0  0  0  0
    3.5504    1.8175    1.1884 H   0  0  0  0  0  0  0  0  0  0  0  0
    3.7434    1.8202   -0.5986 H   0  0  0  0  0  0  0  0  0  0  0  0
    2.9538    0.4216    0.2208 H   0  0  0  0  0  0  0  0  0  0  0  0
    2.7425    3.9951    0.1904 H   0  0  0  0  0  0  0  0  0  0  0  0
    1.3324    3.8743    1.2904 H   0  0  0  0  0  0  0  0  0  0  0  0
    1.0950    4.0635   -0.4948 H   0  0  0  0  0  0  0  0  0  0  0  0
  1 10  1  0  0  0  0
  1  6  1  0  0  0  0
  2  1  2  0  0  0  0
  3  2  1  0  0  0  0
  3  4  2  0  0  0  0
  4  5  1  0  0  0  0
  5 14  1  0  0  0  0
  5  6  2  0  0  0  0
  6 15  1  0  0  0  0
  7 10  1  0  0  0  0
  7 11  1  0  0  0  0
  8 17  1  0  0  0  0
  9 21  1  0  0  0  0
 10 16  1  0  0  0  0
 11  8  1  0  0  0  0
 11  9  1  0  0  0  0
 12  3  1  0  0  0  0
 13  4  1  0  0  0  0
 18  8  1  0  0  0  0
 19  8  1  0  0  0  0
 20  9  1  0  0  0  0
 22  9  1  0  0  0  0
M  END
