12,17
q = 0.0, confidence = 0.998

 21 20  0  0  0  0  0  0  0  0999 V2000
    1.4917    2.4744    0.1754 N   0  0  0  0  0  0  0  0  0  0  0  0
    2.3230    1.8380    0.1585 H   0  0  0  0  0  0  0  0  0  0  0  0
   -0.8219    2.4725    0.0051 N   0  0  0  0  0  0  0  0  0  0  0  0
   -0.9384    3.4030    0.4238 H   0  0  0  0  0  0  0  0  0  0  0  0
   -1.9984    1.6950    0.0446 N   0  0  0  0  0  0  0  0  0  0  0  0
   -2.7110   -0.5557    0.1011 N   0  0  0  0  0  0  0  0  0  0  0  0
   -2.3028   -1.5254    0.0640 H   0  0  0  0  0  0  0  0  0  0  0  0
    1.6233    3.9129    0.2631 C   0  0  0  0  0  0  0  0  0  0  0  0
    2.6947    4.1832    0.2632 H   0  0  0  0  0  0  0  0  0  0  0  0
    1.1742    4.3161    1.1996 H   0  0  0  0  0  0  0  0  0  0  0  0
    1.1393    4.4177   -0.6022 H   0  0  0  0  0  0  0  0  0  0  0  0
    0.3589    1.7959    0.0422 C   0  0  0  0  0  2  0  0  0  0  0  0
   -3.0813    2.3336   -0.7025 C   0  0  0  0  0  0  0  0  0  0  0  0
   -3.9969    1.7265   -0.6409 H   0  0  0  0  0  0  0  0  0  0  0  0
   -2.7978    2.4638   -1.7694 H   0  0  0  0  0  0  0  0  0  0  0  0
   -3.3079    3.3278   -0.2663 H   0  0  0  0  0  0  0  0  0  0  0  0
   -1.7319    0.3404    0.0478 C   0  0  0  0  0  2  0  0  0  0  0  0
   -4.1096   -0.4057    0.4558 C   0  0  0  0  0  0  0  0  0  0  0  0
   -4.4462   -1.3397    0.9457 H   0  0  0  0  0  0  0  0  0  0  0  0
   -4.7669   -0.2371   -0.4255 H   0  0  0  0  0  0  0  0  0  0  0  0
   -4.2499    0.4288    1.1728 H   0  0  0  0  0  0  0  0  0  0  0  0
  1  8  1  0  0  0  0
  2  1  1  0  0  0  0
  3 12  1  0  0  0  0
  3  5  1  0  0  0  0
  3  4  1  0  0  0  0
  5 17  1  0  0  0  0
  6 18  1  0  0  0  0
  7  6  1  0  0  0  0
  8  9  1  0  0  0  0
  8 10  1  0  0  0  0
 11  8  1  0  0  0  0
 12  1  1  0  0  0  0
 13 14  1  0  0  0  0
 13 16  1  0  0  0  0
 13  5  1  0  0  0  0
 15 13  1  0  0  0  0
 17  6  1  0  0  0  0
 18 19  1  0  0  0  0
 18 21  1  0  0  0  0
 20 18  1  0  0  0  0
M  END
