5,14
q = -2.0, confidence = 0.828

 38 39  0  0  0  0  0  0  0  0999 V2000
   -2.6354    1.5659   -0.0562 N   0  0  0  0  0  0  0  0  0  0  0  0
   -2.6343   -1.5664    0.0564 N   0  0  0  0  0  0  0  0  0  0  0  0
   -0.1144    2.3040   -0.1310 C   0  0  0  0  0  0  0  0  0  0  0  0
    1.0651    2.5165    0.6102 C   0  0  0  0  0  0  0  0  0  0  0  0
    1.3369    1.8039    1.8015 C   0  0  0  0  0  3  0  0  0  0  0  0
    0.3658    0.8970    2.3286 C   0  0  0  0  0  0  0  0  0  0  0  0
   -0.8621    0.6607    1.6964 C   0  0  0  0  0  0  0  0  0  0  0  0
   -2.9846    2.3754   -1.2076 C   0  0  0  0  0  0  0  0  0  0  0  0
   -3.6983    0.6726    0.3765 C   0  0  0  0  0  0  0  0  0  0  0  0
   -3.6981   -0.6737   -0.3755 C   0  0  0  0  0  0  0  0  0  0  0  0
   -2.9824   -2.3762    1.2078 C   0  0  0  0  0  0  0  0  0  0  0  0
   -0.8628   -0.6589   -1.6968 C   0  0  0  0  0  0  0  0  0  0  0  0
    0.3652   -0.8927   -2.3298 C   0  0  0  0  0  0  0  0  0  0  0  0
    1.3370   -1.8002   -1.8048 C   0  0  0  0  0  3  0  0  0  0  0  0
    1.0661   -2.5153   -0.6149 C   0  0  0  0  0  0  0  0  0  0  0  0
   -0.1133   -2.3050    0.1272 C   0  0  0  0  0  0  0  0  0  0  0  0
   -1.3048    1.5243    0.4781 B   0  0  0  0  0  0  0  0  0  0  0  0
   -1.3043   -1.5245   -0.4795 B   0  0  0  0  0  0  0  0  0  0  0  0
   -0.1528    2.8102   -1.1100 H   0  0  0  0  0  0  0  0  0  0  0  0
    1.8604    3.1620    0.2074 H   0  0  0  0  0  0  0  0  0  0  0  0
    2.2974    1.9328    2.3165 H   0  0  0  0  0  0  0  0  0  0  0  0
    0.6480    0.3188    3.2230 H   0  0  0  0  0  0  0  0  0  0  0  0
   -1.4968   -0.1144    2.1545 H   0  0  0  0  0  0  0  0  0  0  0  0
   -3.9485    2.9057   -1.0395 H   0  0  0  0  0  0  0  0  0  0  0  0
   -3.1040    1.7777   -2.1442 H   0  0  0  0  0  0  0  0  0  0  0  0
   -2.2097    3.1393   -1.3995 H   0  0  0  0  0  0  0  0  0  0  0  0
   -4.6800    1.1761    0.2270 H   0  0  0  0  0  0  0  0  0  0  0  0
   -3.6089    0.4813    1.4661 H   0  0  0  0  0  0  0  0  0  0  0  0
   -4.6794   -1.1779   -0.2251 H   0  0  0  0  0  0  0  0  0  0  0  0
   -3.6098   -0.4823   -1.4651 H   0  0  0  0  0  0  0  0  0  0  0  0
   -3.9451   -2.9087    1.0394 H   0  0  0  0  0  0  0  0  0  0  0  0
   -3.1037   -1.7784    2.1440 H   0  0  0  0  0  0  0  0  0  0  0  0
   -2.2059   -3.1383    1.4005 H   0  0  0  0  0  0  0  0  0  0  0  0
   -1.4982    0.1166   -2.1532 H   0  0  0  0  0  0  0  0  0  0  0  0
    0.6468   -0.3124   -3.2231 H   0  0  0  0  0  0  0  0  0  0  0  0
    2.2975   -1.9273   -2.3204 H   0  0  0  0  0  0  0  0  0  0  0  0
    1.8620   -3.1610   -0.2135 H   0  0  0  0  0  0  0  0  0  0  0  0
   -0.1507   -2.8131    1.1052 H   0  0  0  0  0  0  0  0  0  0  0  0
  1  9  1  0  0  0  0
  1 17  1  0  0  0  0
  2 11  1  0  0  0  0
  3 17  1  0  0  0  0
  3  4  2  0  0  0  0
  4  5  1  0  0  0  0
  5 21  1  0  0  0  0
  5  6  1  0  0  0  0
  6 22  1  0  0  0  0
  7 23  1  0  0  0  0
  7  6  2  0  0  0  0
  8 24  1  0  0  0  0
  8  1  1  0  0  0  0
  9 28  1  0  0  0  0
 10 29  1  0  0  0  0
 10  2  1  0  0  0  0
 10  9  1  0  0  0  0
 11 33  1  0  0  0  0
 11 32  1  0  0  0  0
 12 18  1  0  0  0  0
 13 14  1  0  0  0  0
 13 12  2  0  0  0  0
 14 15  1  0  0  0  0
 15 37  1  0  0  0  0
 15 16  2  0  0  0  0
 16 38  1  0  0  0  0
 17  7  1  0  0  0  0
 18  2  1  0  0  0  0
 18 16  1  0  0  0  0
 19  3  1  0  0  0  0
 20  4  1  0  0  0  0
 25  8  1  0  0  0  0
 26  8  1  0  0  0  0
 27  9  1  0  0  0  0
 30 10  1  0  0  0  0
 31 11  1  0  0  0  0
 34 12  1  0  0  0  0
 35 13  1  0  0  0  0
 36 14  1  0  0  0  0
M  END
