8,14
q = -1.0, confidence = 0.018

 39 40  0  0  1  0  0  0  0  0999 V2000
    1.9259    2.1561   -1.2001 S   0  0  0  0  0  0  0  0  0  0  0  0
    0.1652    1.5598    0.7591 N   0  0  0  0  0  0  0  0  0  0  0  0
    2.0316    0.1987    0.6571 N   0  0  0  0  0  0  0  0  0  0  0  0
    1.4490   -0.4905    1.1362 H   0  0  0  0  0  0  0  0  0  0  0  0
   -1.8986    1.4294   -0.5318 C   0  0  0  0  0  0  0  0  0  0  0  0
   -1.6806    0.6207   -1.6974 C   0  0  0  0  0  0  0  0  0  0  0  0
   -0.7436    0.6003   -2.2690 H   0  0  0  0  0  0  0  0  0  0  0  0
   -2.8820   -0.1062   -1.9823 C   0  0  0  0  0  3  0  0  0  0  0  0
   -3.0402   -0.7959   -2.8193 H   0  0  0  0  0  0  0  0  0  0  0  0
   -3.8452    0.2406   -0.9728 C   0  0  0  0  0  0  0  0  0  0  0  0
   -4.8715   -0.1394   -0.9034 H   0  0  0  0  0  0  0  0  0  0  0  0
   -3.2389    1.1824   -0.0853 C   0  0  0  0  0  0  0  0  0  0  0  0
   -3.7237    1.6439    0.7825 H   0  0  0  0  0  0  0  0  0  0  0  0
   -2.3251   -0.8022    2.0139 C   0  0  0  0  0  3  0  0  0  0  0  0
   -2.9429    0.0317    2.3858 H   0  0  0  0  0  0  0  0  0  0  0  0
   -2.6111   -1.7806    2.4303 H   0  0  0  0  0  0  0  0  0  0  0  0
   -0.9675   -0.5512    1.6656 C   0  0  0  0  0  3  0  0  0  0  0  0
   -0.2796   -1.4083    1.7886 H   0  0  0  0  0  0  0  0  0  0  0  0
   -0.3168    0.8086    1.9172 C   0  0  0  0  0  0  0  0  0  0  0  0
   -1.0473    1.4614    2.4335 H   0  0  0  0  0  0  0  0  0  0  0  0
    0.5318    0.6884    2.6227 H   0  0  0  0  0  0  0  0  0  0  0  0
   -0.8585    2.3539    0.0622 C   0  0  1  0  0  0  0  0  0  0  0  0
   -0.2961    2.8101   -0.7826 H   0  0  0  0  0  0  0  0  0  0  0  0
    1.3587    1.2770    0.1197 C   0  0  0  0  0  0  0  0  0  0  0  0
    3.3147   -0.2923    0.3269 C   0  0  0  0  0  0  0  0  0  0  0  0
    3.4886   -1.6907    0.2733 C   0  0  0  0  0  0  0  0  0  0  0  0
    2.6165   -2.3492    0.4098 H   0  0  0  0  0  0  0  0  0  0  0  0
    4.7525   -2.2355    0.0108 C   0  0  0  0  0  0  0  0  0  0  0  0
    4.8719   -3.3287   -0.0323 H   0  0  0  0  0  0  0  0  0  0  0  0
    5.8526   -1.3933   -0.2120 C   0  0  0  0  0  0  0  0  0  0  0  0
    6.8441   -1.8197   -0.4255 H   0  0  0  0  0  0  0  0  0  0  0  0
    5.6756   -0.0007   -0.1617 C   0  0  0  0  0  0  0  0  0  0  0  0
    6.5323    0.6692   -0.3309 H   0  0  0  0  0  0  0  0  0  0  0  0
    4.4191    0.5563    0.1099 C   0  0  0  0  0  0  0  0  0  0  0  0
    4.2827    1.6440    0.1496 H   0  0  0  0  0  0  0  0  0  0  0  0
   -1.4296    3.4809    0.9201 C   0  0  0  0  0  0  0  0  0  0  0  0
   -0.6091    4.1315    1.2789 H   0  0  0  0  0  0  0  0  0  0  0  0
   -1.9973    3.1226    1.8035 H   0  0  0  0  0  0  0  0  0  0  0  0
   -2.1219    4.0967    0.3134 H   0  0  0  0  0  0  0  0  0  0  0  0
  1 24  2  0  0  0  0
  2 19  1  0  0  0  0
  3  4  1  0  0  0  0
  5 12  1  0  0  0  0
  5 22  1  0  0  0  0
  6  5  2  0  0  0  0
  7  6  1  0  0  0  0
  8  6  1  0  0  0  0
  8 10  1  0  0  0  0
  9  8  1  0  0  0  0
 10 11  1  0  0  0  0
 10 12  2  0  0  0  0
 12 13  1  0  0  0  0
 14 15  1  0  0  0  0
 14 16  1  0  0  0  0
 17 18  1  0  0  0  0
 17 19  1  0  0  0  0
 17 14  1  0  0  0  0
 19 20  1  0  0  0  0
 19 21  1  0  0  0  0
 22 23  1  6  0  0  0
 22  2  1  0  0  0  0
 22 36  1  0  0  0  0
 24  3  1  0  0  0  0
 24  2  1  0  0  0  0
 25  3  1  0  0  0  0
 26 25  1  0  0  0  0
 26 27  1  0  0  0  0
 28 26  2  0  0  0  0
 29 28  1  0  0  0  0
 30 32  2  0  0  0  0
 30 28  1  0  0  0  0
 31 30  1  0  0  0  0
 32 34  1  0  0  0  0
 33 32  1  0  0  0  0
 34 35  1  0  0  0  0
 34 25  2  0  0  0  0
 36 37  1  0  0  0  0
 36 38  1  0  0  0  0
 39 36  1  0  0  0  0
M  END
