6,12
q = -2.0, confidence = 0.886

 48 49  0  0  1  0  0  0  0  0999 V2000
    1.2865    2.5054    0.0130 Si  0  0  0  0  0  0  0  0  0  0  0  0
   -0.4480    1.9392   -0.4655 C   0  0  2  0  0  3  0  0  0  0  0  0
   -1.4739    1.5294    0.4479 C   0  0  0  0  0  3  0  0  0  0  0  0
   -2.4402    0.7178   -0.2368 C   0  0  0  0  0  0  0  0  0  0  0  0
   -1.9800    0.5770   -1.5746 C   0  0  0  0  0  0  0  0  0  0  0  0
   -0.7580    1.3012   -1.7153 C   0  0  0  0  0  3  0  0  0  0  0  0
   -3.7359    0.2083    0.3480 C   0  0  0  0  0  0  0  0  0  0  0  0
   -4.7644    1.3537    0.4111 C   0  0  0  0  0  0  0  0  0  0  0  0
   -4.2898   -1.0046   -0.4067 C   0  0  0  0  0  0  0  0  0  0  0  0
    1.2887    3.5855    1.5592 C   0  0  0  0  0  0  0  0  0  0  0  0
    2.1295    3.4592   -1.3820 C   0  0  0  0  0  0  0  0  0  0  0  0
    1.9397    0.7465    0.2935 C   0  0  1  0  0  3  0  0  0  0  0  0
    1.7000   -0.0306    1.4893 C   0  0  1  0  0  3  0  0  0  0  0  0
    1.9445   -1.4162    1.1921 C   0  0  0  0  0  0  0  0  0  0  0  0
    2.2990   -1.5153   -0.1871 C   0  0  0  0  0  0  0  0  0  0  0  0
    2.2693   -0.1956   -0.7535 C   0  0  2  0  0  3  0  0  0  0  0  0
    1.3552    0.4814    2.8623 C   0  0  0  0  0  0  0  0  0  0  0  0
    1.9186   -2.5355    2.1865 C   0  0  0  0  0  0  0  0  0  0  0  0
    2.7397   -2.7428   -0.9195 C   0  0  0  0  0  0  0  0  0  0  0  0
    2.6577    0.0791   -2.1799 C   0  0  0  0  0  0  0  0  0  0  0  0
   -1.5324    1.7979    1.5118 H   0  0  0  0  0  0  0  0  0  0  0  0
   -2.4648   -0.0113   -2.3612 H   0  0  0  0  0  0  0  0  0  0  0  0
   -0.1612    1.3589   -2.6353 H   0  0  0  0  0  0  0  0  0  0  0  0
   -3.5104   -0.1117    1.3884 H   0  0  0  0  0  0  0  0  0  0  0  0
   -5.7008    1.0115    0.8974 H   0  0  0  0  0  0  0  0  0  0  0  0
   -5.0198    1.7124   -0.6077 H   0  0  0  0  0  0  0  0  0  0  0  0
   -4.3759    2.2192    0.9847 H   0  0  0  0  0  0  0  0  0  0  0  0
   -5.1979   -1.3928    0.0961 H   0  0  0  0  0  0  0  0  0  0  0  0
   -3.5448   -1.8233   -0.4515 H   0  0  0  0  0  0  0  0  0  0  0  0
   -4.5764   -0.7390   -1.4458 H   0  0  0  0  0  0  0  0  0  0  0  0
    2.3092    3.6580    1.9875 H   0  0  0  0  0  0  0  0  0  0  0  0
    0.6131    3.2144    2.3518 H   0  0  0  0  0  0  0  0  0  0  0  0
    0.9610    4.6091    1.2842 H   0  0  0  0  0  0  0  0  0  0  0  0
    1.8658    3.0793   -2.3876 H   0  0  0  0  0  0  0  0  0  0  0  0
    3.2333    3.4268   -1.2801 H   0  0  0  0  0  0  0  0  0  0  0  0
    1.8123    4.5212   -1.3349 H   0  0  0  0  0  0  0  0  0  0  0  0
    2.1949    1.0692    3.2884 H   0  0  0  0  0  0  0  0  0  0  0  0
    1.1413   -0.3571    3.5496 H   0  0  0  0  0  0  0  0  0  0  0  0
    0.4623    1.1353    2.8705 H   0  0  0  0  0  0  0  0  0  0  0  0
    0.9839   -2.5231    2.7818 H   0  0  0  0  0  0  0  0  0  0  0  0
    2.7756   -2.4585    2.8886 H   0  0  0  0  0  0  0  0  0  0  0  0
    1.9779   -3.5214    1.6883 H   0  0  0  0  0  0  0  0  0  0  0  0
    2.1754   -2.8706   -1.8653 H   0  0  0  0  0  0  0  0  0  0  0  0
    2.5879   -3.6578   -0.3171 H   0  0  0  0  0  0  0  0  0  0  0  0
    3.8192   -2.6762   -1.1734 H   0  0  0  0  0  0  0  0  0  0  0  0
    3.7559   -0.0350   -2.3099 H   0  0  0  0  0  0  0  0  0  0  0  0
    2.3968    1.1009   -2.5039 H   0  0  0  0  0  0  0  0  0  0  0  0
    2.1710   -0.6363   -2.8724 H   0  0  0  0  0  0  0  0  0  0  0  0
  1 10  1  0  0  0  0
  2  1  1  1  0  0  0
  2  3  1  0  0  0  0
  3 21  1  0  0  0  0
  4  7  1  0  0  0  0
  4  3  1  0  0  0  0
  5  4  2  0  0  0  0
  6  5  1  0  0  0  0
  6  2  1  0  0  0  0
  7  8  1  0  0  0  0
  7 24  1  0  0  0  0
  8 25  1  0  0  0  0
  8 27  1  0  0  0  0
  9 28  1  0  0  0  0
  9  7  1  0  0  0  0
 10 31  1  0  0  0  0
 10 32  1  0  0  0  0
 11 36  1  0  0  0  0
 11 35  1  0  0  0  0
 11  1  1  0  0  0  0
 12  1  1  6  0  0  0
 12 13  1  0  0  0  0
 13 17  1  1  0  0  0
 14 13  1  0  0  0  0
 14 18  1  0  0  0  0
 15 14  2  0  0  0  0
 16 20  1  1  0  0  0
 16 15  1  0  0  0  0
 16 12  1  0  0  0  0
 17 39  1  0  0  0  0
 17 37  1  0  0  0  0
 17 38  1  0  0  0  0
 18 40  1  0  0  0  0
 18 41  1  0  0  0  0
 19 44  1  0  0  0  0
 19 15  1  0  0  0  0
 22  5  1  0  0  0  0
 23  6  1  0  0  0  0
 26  8  1  0  0  0  0
 29  9  1  0  0  0  0
 30  9  1  0  0  0  0
 33 10  1  0  0  0  0
 34 11  1  0  0  0  0
 42 18  1  0  0  0  0
 43 19  1  0  0  0  0
 45 19  1  0  0  0  0
 46 20  1  0  0  0  0
 47 20  1  0  0  0  0
 48 20  1  0  0  0  0
M  END
