36,46
q = -2.0, confidence = 0.904

 47 52  0  0  1  0  0  0  0  0999 V2000
   -3.0303   -1.0011    0.2358 N   0  0  0  0  0  0  0  0  0  0  0  0
   -1.7717   -0.3708    0.1816 B   0  0  0  0  0  0  0  0  0  0  0  0
   -0.9696    2.1487    1.0724 B   0  0  2  0  0  0  0  0  0  0  0  0
   -0.9023    1.6684    2.1780 H   0  0  0  0  0  0  0  0  0  0  0  0
    0.2498    3.2399    0.3830 B   0  0  0  0  0  0  0  0  0  0  0  0
    1.2028    3.5289    1.0643 H   0  0  0  0  0  0  0  0  0  0  0  0
    0.4346    2.8209   -1.3173 B   0  0  2  0  0  0  0  0  0  0  0  0
    1.5248    2.8009   -1.8379 H   0  0  0  0  0  0  0  0  0  0  0  0
   -0.6784    1.4791   -1.6597 B   0  0  1  0  0  0  0  0  0  0  0  0
   -0.4142    0.5488   -2.3820 H   0  0  0  0  0  0  0  0  0  0  0  0
    0.0929    1.6251   -0.1497 C   0  0  1  0  0  0  0  0  0  0  0  0
   -1.5485    1.1831   -0.2176 C   0  0  2  0  0  0  0  0  0  0  0  0
   -4.2932   -0.3130   -0.1345 C   0  0  0  0  0  0  0  0  0  0  0  0
   -4.0077    0.7104   -0.4181 H   0  0  0  0  0  0  0  0  0  0  0  0
   -5.2605   -0.1860    1.0482 C   0  0  0  0  0  0  0  0  0  0  0  0
   -4.7654    0.3057    1.9087 H   0  0  0  0  0  0  0  0  0  0  0  0
   -5.6604   -1.1637    1.3870 H   0  0  0  0  0  0  0  0  0  0  0  0
   -6.1268    0.4390    0.7530 H   0  0  0  0  0  0  0  0  0  0  0  0
   -4.9459   -0.9429   -1.3709 C   0  0  0  0  0  0  0  0  0  0  0  0
   -4.2336   -0.9674   -2.2194 H   0  0  0  0  0  0  0  0  0  0  0  0
   -5.8224   -0.3391   -1.6797 H   0  0  0  0  0  0  0  0  0  0  0  0
   -5.3053   -1.9766   -1.1884 H   0  0  0  0  0  0  0  0  0  0  0  0
   -3.2535   -2.4103    0.6805 C   0  0  0  0  0  0  0  0  0  0  0  0
   -4.3462   -2.5654    0.5860 H   0  0  0  0  0  0  0  0  0  0  0  0
   -2.6021   -3.4571   -0.2281 C   0  0  0  0  0  0  0  0  0  0  0  0
   -2.8316   -3.2571   -1.2931 H   0  0  0  0  0  0  0  0  0  0  0  0
   -2.9949   -4.4632    0.0233 H   0  0  0  0  0  0  0  0  0  0  0  0
   -1.5037   -3.4871   -0.1110 H   0  0  0  0  0  0  0  0  0  0  0  0
   -2.9206   -2.6286    2.1606 C   0  0  0  0  0  0  0  0  0  0  0  0
   -3.4005   -1.8564    2.7929 H   0  0  0  0  0  0  0  0  0  0  0  0
   -1.8299   -2.6004    2.3419 H   0  0  0  0  0  0  0  0  0  0  0  0
   -3.2923   -3.6209    2.4875 H   0  0  0  0  0  0  0  0  0  0  0  0
   -0.4295   -1.1378    0.5461 C   0  0  0  0  0  0  0  0  0  0  0  0
    0.1877   -1.2107    1.8343 C   0  0  0  0  0  0  0  0  0  0  0  0
   -0.2010   -0.7121    2.7317 H   0  0  0  0  0  0  0  0  0  0  0  0
    1.4182   -1.9207    1.7646 C   0  0  0  0  0  3  0  0  0  0  0  0
    2.1028   -2.1226    2.5973 H   0  0  0  0  0  0  0  0  0  0  0  0
    2.5590   -3.1945   -0.2301 C   0  0  0  0  0  0  0  0  0  0  0  0
    3.4212   -3.5689    0.3424 H   0  0  0  0  0  0  0  0  0  0  0  0
    2.4148   -3.4896   -1.5794 C   0  0  0  0  0  0  0  0  0  0  0  0
    3.1728   -4.1051   -2.0865 H   0  0  0  0  0  0  0  0  0  0  0  0
    1.2990   -3.0071   -2.3237 C   0  0  0  0  0  0  0  0  0  0  0  0
    1.2178   -3.2595   -3.3916 H   0  0  0  0  0  0  0  0  0  0  0  0
    0.3169   -2.2252   -1.7290 C   0  0  0  0  0  0  0  0  0  0  0  0
   -0.5435   -1.8624   -2.3099 H   0  0  0  0  0  0  0  0  0  0  0  0
    0.4132   -1.9238   -0.3384 C   0  0  1  0  0  3  0  0  0  0  0  0
    1.5567   -2.4150    0.4182 C   0  0  2  0  0  3  0  0  0  0  0  0
  1 23  1  0  0  0  0
  2  1  1  0  0  0  0
  2 33  1  0  0  0  0
  3  4  1  1  0  0  0
  5  6  1  0  0  0  0
  5  3  1  0  0  0  0
  7  8  1  6  0  0  0
  7 11  1  0  0  0  0
  7  5  1  0  0  0  0
  9 10  1  6  0  0  0
  9  7  1  0  0  0  0
  9 12  1  0  0  0  0
  9 11  1  0  0  0  0
 11  3  1  0  0  0  0
 12 11  1  0  0  0  0
 12  2  1  0  0  0  0
 12  3  1  0  0  0  0
 13  1  1  0  0  0  0
 13 15  1  0  0  0  0
 14 13  1  0  0  0  0
 15 17  1  0  0  0  0
 15 16  1  0  0  0  0
 18 15  1  0  0  0  0
 19 22  1  0  0  0  0
 19 13  1  0  0  0  0
 20 19  1  0  0  0  0
 21 19  1  0  0  0  0
 23 29  1  0  0  0  0
 24 23  1  0  0  0  0
 25 28  1  0  0  0  0
 25 27  1  0  0  0  0
 25 23  1  0  0  0  0
 26 25  1  0  0  0  0
 29 31  1  0  0  0  0
 29 32  1  0  0  0  0
 29 30  1  0  0  0  0
 33 34  2  0  0  0  0
 34 35  1  0  0  0  0
 36 34  1  0  0  0  0
 36 37  1  0  0  0  0
 38 39  1  0  0  0  0
 38 47  1  0  0  0  0
 40 38  2  0  0  0  0
 41 40  1  0  0  0  0
 42 44  2  0  0  0  0
 42 40  1  0  0  0  0
 43 42  1  0  0  0  0
 44 46  1  0  0  0  0
 45 44  1  0  0  0  0
 46 47  1  0  0  0  0
 46 33  1  0  0  0  0
 47 36  1  0  0  0  0
M  END
