3,6
q = 0.0, confidence = 0.998

 25 25  0  0  0  0  0  0  0  0999 V2000
   -2.6456    0.1963   -1.5286 O   0  0  0  0  0  0  0  0  0  0  0  0
   -1.2286    0.4979    0.4283 C   0  0  0  0  0  0  0  0  0  0  0  0
   -0.4771    1.4600   -0.3242 C   0  0  0  0  0  3  0  0  0  0  0  0
    0.7806    1.9436    0.1208 C   0  0  0  0  0  0  0  0  0  0  0  0
    1.2933    1.4621    1.3738 C   0  0  0  0  0  0  0  0  0  0  0  0
    0.5599    0.5196    2.1294 C   0  0  0  0  0  3  0  0  0  0  0  0
   -0.7043    0.0399    1.6652 C   0  0  0  0  0  0  0  0  0  0  0  0
   -2.6032    0.0526   -0.1105 C   0  0  0  0  0  0  0  0  0  0  0  0
   -3.6515    1.0369    0.4327 C   0  0  0  0  0  0  0  0  0  0  0  0
   -2.9519   -1.3893    0.2865 C   0  0  0  0  0  0  0  0  0  0  0  0
    1.5563    2.9461   -0.6895 C   0  0  0  0  0  0  0  0  0  0  0  0
   -0.8777    1.7651   -1.3006 H   0  0  0  0  0  0  0  0  0  0  0  0
   -1.2364   -0.7230    2.2475 H   0  0  0  0  0  0  0  0  0  0  0  0
    2.2854    1.7878    1.7161 H   0  0  0  0  0  0  0  0  0  0  0  0
    0.9852    0.1164    3.0592 H   0  0  0  0  0  0  0  0  0  0  0  0
   -2.1689   -2.0974   -0.0497 H   0  0  0  0  0  0  0  0  0  0  0  0
   -3.0761   -1.5076    1.3806 H   0  0  0  0  0  0  0  0  0  0  0  0
   -3.9100   -1.6655   -0.1944 H   0  0  0  0  0  0  0  0  0  0  0  0
    1.2632    2.9095   -1.7556 H   0  0  0  0  0  0  0  0  0  0  0  0
    1.3627    3.9736   -0.3153 H   0  0  0  0  0  0  0  0  0  0  0  0
   -4.6502    0.7655    0.0382 H   0  0  0  0  0  0  0  0  0  0  0  0
   -3.4151    2.0672    0.1026 H   0  0  0  0  0  0  0  0  0  0  0  0
   -2.0954   -0.5140   -1.9155 H   0  0  0  0  0  0  0  0  0  0  0  0
   -3.6797    1.0183    1.5392 H   0  0  0  0  0  0  0  0  0  0  0  0
    2.6461    2.7628   -0.6242 H   0  0  0  0  0  0  0  0  0  0  0  0
  1  8  1  0  0  0  0
  2  7  2  0  0  0  0
  3  4  1  0  0  0  0
  3  2  1  0  0  0  0
  4  5  2  0  0  0  0
  5 14  1  0  0  0  0
  5  6  1  0  0  0  0
  6 15  1  0  0  0  0
  7  6  1  0  0  0  0
  7 13  1  0  0  0  0
  8 10  1  0  0  0  0
  8  2  1  0  0  0  0
  8  9  1  0  0  0  0
  9 24  1  0  0  0  0
 10 17  1  0  0  0  0
 11 25  1  0  0  0  0
 11 20  1  0  0  0  0
 11  4  1  0  0  0  0
 12  3  1  0  0  0  0
 16 10  1  0  0  0  0
 18 10  1  0  0  0  0
 19 11  1  0  0  0  0
 21  9  1  0  0  0  0
 22  9  1  0  0  0  0
 23  1  1  0  0  0  0
M  END
