6,10
q = 0.0, confidence = 1.0

 28 29  0  0  1  0  0  0  0  0999 V2000
    2.9388    1.4330    2.1533 Cl  0  0  0  0  0  0  0  0  0  0  0  0
    1.8472   -1.2758   -1.5527 N   0  0  0  0  0  0  0  0  0  0  0  0
    1.7016    0.6791   -0.6420 N   0  0  0  0  0  0  0  0  0  0  0  0
   -0.2178    2.0390   -0.3015 N   0  0  0  0  0  0  0  0  0  0  0  0
   -2.2714    1.6442   -0.8537 N   0  0  0  0  0  0  0  0  0  0  0  0
    1.0394   -0.5195   -0.7572 C   0  0  0  0  0  2  0  0  0  0  0  0
    2.9943   -0.5726   -1.9071 C   0  0  0  0  0  0  0  0  0  0  0  0
    2.9088    0.6660   -1.3301 C   0  0  0  0  0  0  0  0  0  0  0  0
    1.1555    1.7922    0.1252 C   0  0  1  0  0  0  0  0  0  0  0  0
   -1.1505    1.0310   -0.3770 C   0  0  0  0  0  2  0  0  0  0  0  0
   -2.0471    3.0016   -1.0580 C   0  0  0  0  0  0  0  0  0  0  0  0
   -0.7476    3.2588   -0.7107 C   0  0  0  0  0  0  0  0  0  0  0  0
    1.5211   -2.6144   -2.0349 C   0  0  0  0  0  0  0  0  0  0  0  0
   -3.5154    0.9549   -1.1841 C   0  0  0  0  0  0  0  0  0  0  0  0
    1.2259    1.5436    1.6389 C   0  0  0  0  0  0  0  0  0  0  0  0
    3.7756   -1.0157   -2.5314 H   0  0  0  0  0  0  0  0  0  0  0  0
    3.6033    1.5105   -1.3226 H   0  0  0  0  0  0  0  0  0  0  0  0
    1.7517    2.6914   -0.1224 H   0  0  0  0  0  0  0  0  0  0  0  0
   -2.8294    3.6686   -1.4321 H   0  0  0  0  0  0  0  0  0  0  0  0
   -0.1711    4.1885   -0.7082 H   0  0  0  0  0  0  0  0  0  0  0  0
    0.9770   -2.5515   -2.9985 H   0  0  0  0  0  0  0  0  0  0  0  0
    0.8933   -3.1060   -1.2622 H   0  0  0  0  0  0  0  0  0  0  0  0
    2.4582   -3.1843   -2.1748 H   0  0  0  0  0  0  0  0  0  0  0  0
   -3.6150    0.0935   -0.4902 H   0  0  0  0  0  0  0  0  0  0  0  0
   -3.4907    0.6069   -2.2361 H   0  0  0  0  0  0  0  0  0  0  0  0
   -4.3615    1.6524   -1.0433 H   0  0  0  0  0  0  0  0  0  0  0  0
    0.7078    0.5933    1.8872 H   0  0  0  0  0  0  0  0  0  0  0  0
    0.7465    2.3824    2.1783 H   0  0  0  0  0  0  0  0  0  0  0  0
  2  6  1  0  0  0  0
  3  9  1  0  0  0  0
  4  9  1  0  0  0  0
  5 10  1  0  0  0  0
  6  3  1  0  0  0  0
  7  2  1  0  0  0  0
  7  8  2  0  0  0  0
  8 17  1  0  0  0  0
  8  3  1  0  0  0  0
  9 18  1  6  0  0  0
  9 15  1  0  0  0  0
 10  4  1  0  0  0  0
 11  5  1  0  0  0  0
 11 12  2  0  0  0  0
 12 20  1  0  0  0  0
 12  4  1  0  0  0  0
 13  2  1  0  0  0  0
 13 22  1  0  0  0  0
 14 26  1  0  0  0  0
 14  5  1  0  0  0  0
 14 24  1  0  0  0  0
 15 27  1  0  0  0  0
 15  1  1  0  0  0  0
 15 28  1  0  0  0  0
 16  7  1  0  0  0  0
 19 11  1  0  0  0  0
 21 13  1  0  0  0  0
 23 13  1  0  0  0  0
 25 14  1  0  0  0  0
M  END
