3,12
q = 0.0, confidence = 0.992

 62 63  0  0  1  0  0  0  0  0999 V2000
    0.5248   -0.0222    0.1251 C   0  0  0  0  0  0  0  0  0  0  0  0
   -0.0127   -1.2907    0.4952 C   0  0  0  0  0  0  0  0  0  0  0  0
   -1.3734   -1.3562    0.9506 C   0  0  2  0  0  3  0  0  0  0  0  0
   -2.1168   -0.1511    1.1407 C   0  0  0  0  0  0  0  0  0  0  0  0
   -1.5622    1.1525    0.8432 C   0  0  0  0  0  0  0  0  0  0  0  0
   -2.2450    2.3982    1.1503 C   0  0  0  0  0  0  0  0  0  0  0  0
   -1.7037    3.5661    0.6392 C   0  0  0  0  0  0  0  0  0  0  0  0
   -2.1985    4.5210    0.8769 H   0  0  0  0  0  0  0  0  0  0  0  0
   -0.5696    3.5785   -0.2099 C   0  0  0  0  0  0  0  0  0  0  0  0
   -0.2718    4.5222   -0.6916 H   0  0  0  0  0  0  0  0  0  0  0  0
    0.1655    2.4336   -0.4708 C   0  0  0  0  0  0  0  0  0  0  0  0
   -0.2646    1.2022    0.1719 C   0  0  2  0  0  3  0  0  0  0  0  0
    1.8313    0.0416   -0.2391 O   0  0  0  0  0  0  0  0  0  0  0  0
    3.1222    0.3432    0.8857 Si  0  0  0  0  0  0  0  0  0  0  0  0
    2.8650   -0.6779    2.4541 C   0  0  0  0  0  0  0  0  0  0  0  0
    3.0790   -1.7558    2.3231 H   0  0  0  0  0  0  0  0  0  0  0  0
    1.8212   -0.5780    2.8173 H   0  0  0  0  0  0  0  0  0  0  0  0
    3.5326   -0.2918    3.2513 H   0  0  0  0  0  0  0  0  0  0  0  0
    3.1445    2.1550    1.4163 C   0  0  0  0  0  0  0  0  0  0  0  0
    3.5395    2.8377    0.6398 H   0  0  0  0  0  0  0  0  0  0  0  0
    3.7857    2.2581    2.3157 H   0  0  0  0  0  0  0  0  0  0  0  0
    2.1260    2.5003    1.6872 H   0  0  0  0  0  0  0  0  0  0  0  0
    4.6662   -0.1628   -0.1132 C   0  0  0  0  0  0  0  0  0  0  0  0
    5.9090    0.0946    0.7615 C   0  0  0  0  0  0  0  0  0  0  0  0
    6.0095    1.1645    1.0393 H   0  0  0  0  0  0  0  0  0  0  0  0
    6.8331   -0.1900    0.2117 H   0  0  0  0  0  0  0  0  0  0  0  0
    5.8899   -0.4996    1.6992 H   0  0  0  0  0  0  0  0  0  0  0  0
    4.5789   -1.6559   -0.4816 C   0  0  0  0  0  0  0  0  0  0  0  0
    3.6873   -1.8703   -1.1046 H   0  0  0  0  0  0  0  0  0  0  0  0
    4.5353   -2.3069    0.4162 H   0  0  0  0  0  0  0  0  0  0  0  0
    5.4762   -1.9609   -1.0638 H   0  0  0  0  0  0  0  0  0  0  0  0
    4.7408    0.6777   -1.4023 C   0  0  0  0  0  0  0  0  0  0  0  0
    3.8490    0.5215   -2.0419 H   0  0  0  0  0  0  0  0  0  0  0  0
    5.6369    0.3912   -1.9956 H   0  0  0  0  0  0  0  0  0  0  0  0
    4.8238    1.7638   -1.1897 H   0  0  0  0  0  0  0  0  0  0  0  0
    0.8471   -2.5331    0.3599 C   0  0  0  0  0  0  0  0  0  0  0  0
    1.8900   -2.2575    0.5956 H   0  0  0  0  0  0  0  0  0  0  0  0
    0.5466   -3.2679    1.1325 H   0  0  0  0  0  0  0  0  0  0  0  0
    0.8297   -3.1921   -1.0250 C   0  0  0  0  0  0  0  0  0  0  0  0
    1.5104   -4.0676   -1.0439 H   0  0  0  0  0  0  0  0  0  0  0  0
    1.1620   -2.4788   -1.8037 H   0  0  0  0  0  0  0  0  0  0  0  0
   -0.1844   -3.5367   -1.3053 H   0  0  0  0  0  0  0  0  0  0  0  0
   -1.9859   -2.6665    1.3947 C   0  0  0  0  0  0  0  0  0  0  0  0
   -1.5647   -3.4968    0.7965 H   0  0  0  0  0  0  0  0  0  0  0  0
   -3.0697   -2.6591    1.1781 H   0  0  0  0  0  0  0  0  0  0  0  0
   -1.7662   -2.9070    2.8946 C   0  0  0  0  0  0  0  0  0  0  0  0
   -2.2037   -3.8752    3.2097 H   0  0  0  0  0  0  0  0  0  0  0  0
   -2.2454   -2.1032    3.4875 H   0  0  0  0  0  0  0  0  0  0  0  0
   -0.6871   -2.9217    3.1523 H   0  0  0  0  0  0  0  0  0  0  0  0
   -3.3598   -0.2625    1.7211 O   0  0  0  0  0  0  0  0  0  0  0  0
   -4.4837   -0.3730    0.8488 C   0  0  0  0  0  0  0  0  0  0  0  0
   -5.3759   -0.4537    1.4989 H   0  0  0  0  0  0  0  0  0  0  0  0
   -4.4110   -1.2741    0.2031 H   0  0  0  0  0  0  0  0  0  0  0  0
   -4.5848    0.5143    0.1894 H   0  0  0  0  0  0  0  0  0  0  0  0
   -3.4564    2.4918    2.0456 C   0  0  0  0  0  0  0  0  0  0  0  0
   -3.6029    3.5450    2.3543 H   0  0  0  0  0  0  0  0  0  0  0  0
   -3.3597    1.8649    2.9512 H   0  0  0  0  0  0  0  0  0  0  0  0
   -4.3866    2.1692    1.5357 H   0  0  0  0  0  0  0  0  0  0  0  0
    1.2848    2.5034   -1.4778 C   0  0  0  0  0  0  0  0  0  0  0  0
    1.2215    3.4629   -2.0259 H   0  0  0  0  0  0  0  0  0  0  0  0
    1.2211    1.6786   -2.2116 H   0  0  0  0  0  0  0  0  0  0  0  0
    2.2904    2.4413   -1.0260 H   0  0  0  0  0  0  0  0  0  0  0  0
  1 12  1  0  0  0  0
  1  2  2  0  0  0  0
  2  3  1  0  0  0  0
  3  4  1  0  0  0  0
  3 43  1  1  0  0  0
  4 50  1  0  0  0  0
  5  4  2  0  0  0  0
  5  6  1  0  0  0  0
  6 55  1  0  0  0  0
  7  8  1  0  0  0  0
  7  6  2  0  0  0  0
  9  7  1  0  0  0  0
 10  9  1  0  0  0  0
 11  9  2  0  0  0  0
 12 11  1  6  0  0  0
 12  5  1  0  0  0  0
 13  1  1  0  0  0  0
 13 14  1  0  0  0  0
 14 19  1  0  0  0  0
 14 15  1  0  0  0  0
 15 17  1  0  0  0  0
 15 18  1  0  0  0  0
 16 15  1  0  0  0  0
 19 22  1  0  0  0  0
 19 21  1  0  0  0  0
 20 19  1  0  0  0  0
 23 24  1  0  0  0  0
 23 14  1  0  0  0  0
 24 25  1  0  0  0  0
 24 27  1  0  0  0  0
 26 24  1  0  0  0  0
 28 23  1  0  0  0  0
 28 30  1  0  0  0  0
 29 28  1  0  0  0  0
 31 28  1  0  0  0  0
 32 35  1  0  0  0  0
 32 23  1  0  0  0  0
 33 32  1  0  0  0  0
 34 32  1  0  0  0  0
 36  2  1  0  0  0  0
 36 37  1  0  0  0  0
 36 38  1  0  0  0  0
 39 36  1  0  0  0  0
 40 39  1  0  0  0  0
 41 39  1  0  0  0  0
 42 39  1  0  0  0  0
 43 46  1  0  0  0  0
 44 43  1  0  0  0  0
 45 43  1  0  0  0  0
 46 49  1  0  0  0  0
 46 47  1  0  0  0  0
 46 48  1  0  0  0  0
 51 52  1  0  0  0  0
 51 50  1  0  0  0  0
 53 51  1  0  0  0  0
 54 51  1  0  0  0  0
 55 56  1  0  0  0  0
 55 57  1  0  0  0  0
 58 55  1  0  0  0  0
 59 62  1  0  0  0  0
 59 11  1  0  0  0  0
 60 59  1  0  0  0  0
 61 59  1  0  0  0  0
M  END
