2,3
q = 0.0, confidence = 0.704

 30 31  0  0  1  0  0  0  0  0999 V2000
    1.4038   -0.9957   -3.1217 O   0  0  0  0  0  0  0  0  0  0  0  0
    1.3122   -0.7876   -1.9460 C   0  0  0  0  0  3  0  0  0  0  0  0
    1.2348    1.3785   -0.2776 C   0  0  0  0  0  3  0  0  0  0  0  0
    0.6465    2.7199   -0.1335 C   0  0  0  0  0  0  0  0  0  0  0  0
   -0.5545    2.9603    0.5783 C   0  0  0  0  0  0  0  0  0  0  0  0
   -1.0629    2.1202    1.0666 H   0  0  0  0  0  0  0  0  0  0  0  0
   -1.0803    4.2532    0.6872 C   0  0  0  0  0  0  0  0  0  0  0  0
   -2.0070    4.4172    1.2578 H   0  0  0  0  0  0  0  0  0  0  0  0
   -0.4336    5.3375    0.0723 C   0  0  0  0  0  0  0  0  0  0  0  0
   -0.8554    6.3508    0.1484 H   0  0  0  0  0  0  0  0  0  0  0  0
    0.7582    5.1196   -0.6389 C   0  0  0  0  0  0  0  0  0  0  0  0
    1.2707    5.9611   -1.1290 H   0  0  0  0  0  0  0  0  0  0  0  0
    1.2987    3.8316   -0.7313 C   0  0  0  0  0  0  0  0  0  0  0  0
    2.2194    3.6677   -1.3108 H   0  0  0  0  0  0  0  0  0  0  0  0
    2.6173    1.2124   -0.1893 C   0  0  0  0  0  0  0  0  0  0  0  0
    3.3034    2.0603   -0.0347 H   0  0  0  0  0  0  0  0  0  0  0  0
    3.1015   -0.1223   -0.2587 C   0  0  1  0  0  3  0  0  0  0  0  0
    4.4682   -0.4857    0.1324 C   0  0  0  0  0  0  0  0  0  0  0  0
    5.1979    0.3203    1.0432 C   0  0  0  0  0  0  0  0  0  0  0  0
    4.7224    1.2093    1.4827 H   0  0  0  0  0  0  0  0  0  0  0  0
    6.5009   -0.0253    1.4172 C   0  0  0  0  0  0  0  0  0  0  0  0
    7.0498    0.6041    2.1333 H   0  0  0  0  0  0  0  0  0  0  0  0
    7.1055   -1.1756    0.8832 C   0  0  0  0  0  0  0  0  0  0  0  0
    8.1322   -1.4440    1.1741 H   0  0  0  0  0  0  0  0  0  0  0  0
    6.3978   -1.9826   -0.0245 C   0  0  0  0  0  0  0  0  0  0  0  0
    6.8740   -2.8764   -0.4541 H   0  0  0  0  0  0  0  0  0  0  0  0
    5.0908   -1.6470   -0.3911 C   0  0  0  0  0  0  0  0  0  0  0  0
    4.5538   -2.2674   -1.1237 H   0  0  0  0  0  0  0  0  0  0  0  0
    2.1543   -1.0987   -0.7038 C   0  0  0  0  0  3  0  0  0  0  0  0
    2.4091   -2.1642   -0.5843 H   0  0  0  0  0  0  0  0  0  0  0  0
  1  2  2  0  0  0  0
  2 29  1  0  0  0  0
  3 15  2  0  0  0  0
  3  4  1  0  0  0  0
  4  5  1  0  0  0  0
  5  7  2  0  0  0  0
  5  6  1  0  0  0  0
  7  8  1  0  0  0  0
  9 10  1  0  0  0  0
  9  7  1  0  0  0  0
 11  9  2  0  0  0  0
 12 11  1  0  0  0  0
 13 11  1  0  0  0  0
 13  4  2  0  0  0  0
 14 13  1  0  0  0  0
 15 16  1  0  0  0  0
 17 29  1  1  0  0  0
 17 15  1  0  0  0  0
 17 18  1  0  0  0  0
 18 19  1  0  0  0  0
 19 21  2  0  0  0  0
 19 20  1  0  0  0  0
 21 22  1  0  0  0  0
 23 24  1  0  0  0  0
 23 21  1  0  0  0  0
 25 23  2  0  0  0  0
 26 25  1  0  0  0  0
 27 25  1  0  0  0  0
 27 18  2  0  0  0  0
 28 27  1  0  0  0  0
 29 30  1  0  0  0  0
M  END
