3,35
q = -2.0, confidence = 0.68

 73 80  0  0  1  0  0  0  0  0999 V2000
    0.0000   -3.3628   -0.0000 Si  0  0  0  0  0  0  0  0  0  0  0  0
    1.1065   -2.0913   -0.8705 C   0  0  1  0  0  3  0  0  0  0  0  0
    0.6886   -1.2877   -2.0114 C   0  0  1  0  0  3  0  0  0  0  0  0
    1.4963   -0.1003   -2.0967 C   0  0  0  0  0  3  0  0  0  0  0  0
    1.3923    0.6859   -2.8510 H   0  0  0  0  0  0  0  0  0  0  0  0
    2.4478   -0.1840   -1.0554 C   0  0  0  0  0  0  0  0  0  0  0  0
    2.2174   -1.3704   -0.2790 C   0  0  0  0  0  0  0  0  0  0  0  0
    3.2701   -1.3956    0.7273 C   0  0  0  0  0  0  0  0  0  0  0  0
    3.6839   -2.3099    1.7146 C   0  0  0  0  0  0  0  0  0  0  0  0
    3.1477   -3.2573    1.8515 H   0  0  0  0  0  0  0  0  0  0  0  0
    4.8046   -2.0179    2.5038 C   0  0  0  0  0  0  0  0  0  0  0  0
    5.1259   -2.7323    3.2760 H   0  0  0  0  0  0  0  0  0  0  0  0
    5.5334   -0.8268    2.3069 C   0  0  0  0  0  0  0  0  0  0  0  0
    6.4145   -0.6177    2.9320 H   0  0  0  0  0  0  0  0  0  0  0  0
    5.1676    0.0915    1.3133 C   0  0  0  0  0  0  0  0  0  0  0  0
    5.7534    1.0051    1.1432 H   0  0  0  0  0  0  0  0  0  0  0  0
    4.0403   -0.1975    0.5295 C   0  0  0  0  0  0  0  0  0  0  0  0
    3.5312    0.5217   -0.5642 N   0  0  0  0  0  0  0  0  0  0  0  0
    3.9679    1.7835   -1.0424 C   0  0  0  0  0  0  0  0  0  0  0  0
    4.1822    1.9648   -2.4227 C   0  0  0  0  0  0  0  0  0  0  0  0
    4.0367    1.1168   -3.1075 H   0  0  0  0  0  0  0  0  0  0  0  0
    4.5908    3.2151   -2.9068 C   0  0  0  0  0  0  0  0  0  0  0  0
    4.7550    3.3517   -3.9864 H   0  0  0  0  0  0  0  0  0  0  0  0
    4.8041    4.2827   -2.0203 C   0  0  0  0  0  0  0  0  0  0  0  0
    5.1302    5.2616   -2.4022 H   0  0  0  0  0  0  0  0  0  0  0  0
    4.5915    4.0968   -0.6447 C   0  0  0  0  0  0  0  0  0  0  0  0
    4.7389    4.9339    0.0543 H   0  0  0  0  0  0  0  0  0  0  0  0
    4.1637    2.8567   -0.1516 C   0  0  0  0  0  0  0  0  0  0  0  0
    3.9417    2.7166    0.9148 H   0  0  0  0  0  0  0  0  0  0  0  0
   -0.3719   -1.6058   -3.0315 C   0  0  0  0  0  0  0  0  0  0  0  0
   -0.5459   -0.7305   -3.6840 H   0  0  0  0  0  0  0  0  0  0  0  0
   -1.3508   -1.8649   -2.5879 H   0  0  0  0  0  0  0  0  0  0  0  0
   -0.0550   -2.4574   -3.6694 H   0  0  0  0  0  0  0  0  0  0  0  0
   -1.1065   -2.0913    0.8705 C   0  0  1  0  0  3  0  0  0  0  0  0
   -0.6886   -1.2878    2.0114 C   0  0  1  0  0  3  0  0  0  0  0  0
   -1.4964   -0.1004    2.0967 C   0  0  0  0  0  3  0  0  0  0  0  0
   -1.3924    0.6858    2.8510 H   0  0  0  0  0  0  0  0  0  0  0  0
   -2.4479   -0.1840    1.0554 C   0  0  0  0  0  0  0  0  0  0  0  0
   -2.2174   -1.3704    0.2790 C   0  0  0  0  0  0  0  0  0  0  0  0
   -3.2701   -1.3956   -0.7273 C   0  0  0  0  0  0  0  0  0  0  0  0
   -3.6839   -2.3099   -1.7147 C   0  0  0  0  0  0  0  0  0  0  0  0
   -3.1477   -3.2572   -1.8516 H   0  0  0  0  0  0  0  0  0  0  0  0
   -4.8046   -2.0179   -2.5039 C   0  0  0  0  0  0  0  0  0  0  0  0
   -5.1259   -2.7323   -3.2761 H   0  0  0  0  0  0  0  0  0  0  0  0
   -5.5334   -0.8267   -2.3070 C   0  0  0  0  0  0  0  0  0  0  0  0
   -6.4145   -0.6177   -2.9321 H   0  0  0  0  0  0  0  0  0  0  0  0
   -5.1676    0.0915   -1.3134 C   0  0  0  0  0  0  0  0  0  0  0  0
   -5.7534    1.0051   -1.1432 H   0  0  0  0  0  0  0  0  0  0  0  0
   -4.0403   -0.1975   -0.5295 C   0  0  0  0  0  0  0  0  0  0  0  0
   -3.5312    0.5217    0.5641 N   0  0  0  0  0  0  0  0  0  0  0  0
   -3.9679    1.7834    1.0424 C   0  0  0  0  0  0  0  0  0  0  0  0
   -4.1823    1.9648    2.4227 C   0  0  0  0  0  0  0  0  0  0  0  0
   -4.0367    1.1167    3.1075 H   0  0  0  0  0  0  0  0  0  0  0  0
   -4.5909    3.2150    2.9068 C   0  0  0  0  0  0  0  0  0  0  0  0
   -4.8042    4.2827    2.0204 C   0  0  0  0  0  0  0  0  0  0  0  0
   -4.5915    4.0968    0.6448 C   0  0  0  0  0  0  0  0  0  0  0  0
   -4.1638    2.8567    0.1516 C   0  0  0  0  0  0  0  0  0  0  0  0
    0.3719   -1.6059    3.0315 C   0  0  0  0  0  0  0  0  0  0  0  0
    0.8858   -4.5109    1.2079 C   0  0  0  0  0  0  0  0  0  0  0  0
   -0.8858   -4.5110   -1.2080 C   0  0  0  0  0  0  0  0  0  0  0  0
   -4.7551    3.3515    3.9864 H   0  0  0  0  0  0  0  0  0  0  0  0
   -3.9417    2.7166   -0.9148 H   0  0  0  0  0  0  0  0  0  0  0  0
    1.3508   -1.8649    2.5879 H   0  0  0  0  0  0  0  0  0  0  0  0
    0.0550   -2.4576    3.6693 H   0  0  0  0  0  0  0  0  0  0  0  0
    0.5457   -0.7306    3.6841 H   0  0  0  0  0  0  0  0  0  0  0  0
    1.7222   -5.0312    0.6978 H   0  0  0  0  0  0  0  0  0  0  0  0
    0.1618   -5.2821    1.5436 H   0  0  0  0  0  0  0  0  0  0  0  0
    1.2785   -4.0085    2.1082 H   0  0  0  0  0  0  0  0  0  0  0  0
   -0.1617   -5.2821   -1.5436 H   0  0  0  0  0  0  0  0  0  0  0  0
   -1.2784   -4.0085   -2.1082 H   0  0  0  0  0  0  0  0  0  0  0  0
   -1.7221   -5.0312   -0.6978 H   0  0  0  0  0  0  0  0  0  0  0  0
   -5.1303    5.2615    2.4023 H   0  0  0  0  0  0  0  0  0  0  0  0
   -4.7390    4.9339   -0.0542 H   0  0  0  0  0  0  0  0  0  0  0  0
  1 59  1  0  0  0  0
  2  7  1  0  0  0  0
  2  1  1  1  0  0  0
  3 30  1  6  0  0  0
  3  2  1  0  0  0  0
  4  3  1  0  0  0  0
  4  6  1  0  0  0  0
  5  4  1  0  0  0  0
  6 18  1  0  0  0  0
  6  7  2  0  0  0  0
  7  8  1  0  0  0  0
  8  9  1  0  0  0  0
  9 10  1  0  0  0  0
  9 11  2  0  0  0  0
 11 12  1  0  0  0  0
 13 11  1  0  0  0  0
 13 14  1  0  0  0  0
 15 13  2  0  0  0  0
 16 15  1  0  0  0  0
 17  8  2  0  0  0  0
 17 15  1  0  0  0  0
 18 17  1  0  0  0  0
 19 18  1  0  0  0  0
 19 28  1  0  0  0  0
 20 19  2  0  0  0  0
 21 20  1  0  0  0  0
 22 20  1  0  0  0  0
 22 24  2  0  0  0  0
 23 22  1  0  0  0  0
 24 26  1  0  0  0  0
 25 24  1  0  0  0  0
 26 28  2  0  0  0  0
 26 27  1  0  0  0  0
 28 29  1  0  0  0  0
 30 32  1  0  0  0  0
 31 30  1  0  0  0  0
 33 30  1  0  0  0  0
 34  1  1  6  0  0  0
 34 35  1  0  0  0  0
 35 36  1  0  0  0  0
 35 58  1  1  0  0  0
 36 37  1  0  0  0  0
 38 36  1  0  0  0  0
 39 34  1  0  0  0  0
 39 38  2  0  0  0  0
 40 49  1  0  0  0  0
 40 39  1  0  0  0  0
 41 40  2  0  0  0  0
 42 41  1  0  0  0  0
 43 45  2  0  0  0  0
 43 41  1  0  0  0  0
 44 43  1  0  0  0  0
 45 47  1  0  0  0  0
 46 45  1  0  0  0  0
 47 48  1  0  0  0  0
 47 49  2  0  0  0  0
 49 50  1  0  0  0  0
 50 51  1  0  0  0  0
 50 38  1  0  0  0  0
 51 52  1  0  0  0  0
 52 54  2  0  0  0  0
 52 53  1  0  0  0  0
 54 61  1  0  0  0  0
 55 72  1  0  0  0  0
 55 54  1  0  0  0  0
 56 55  2  0  0  0  0
 57 56  1  0  0  0  0
 57 51  2  0  0  0  0
 58 64  1  0  0  0  0
 58 65  1  0  0  0  0
 59 67  1  0  0  0  0
 59 68  1  0  0  0  0
 60 71  1  0  0  0  0
 60  1  1  0  0  0  0
 62 57  1  0  0  0  0
 63 58  1  0  0  0  0
 66 59  1  0  0  0  0
 69 60  1  0  0  0  0
 70 60  1  0  0  0  0
 73 56  1  0  0  0  0
M  END
