5,18
q = -1.0, confidence = 0.024

 35 35  0  0  0  0  0  0  0  0999 V2000
   -3.9806    0.1096   -1.1755 O   0  0  0  0  0  0  0  0  0  0  0  0
   -2.9408    3.5533   -0.9344 O   0  0  0  0  0  0  0  0  0  0  0  0
   -3.6869    2.0593    0.6241 O   0  0  0  0  0  0  0  0  0  0  0  0
   -4.4741   -2.2222   -0.1342 O   0  0  0  0  0  0  0  0  0  0  0  0
   -0.5311   -0.8258   -0.1392 C   0  0  0  0  0  3  0  0  0  0  0  0
   -1.5796   -0.0700   -0.7002 C   0  0  0  0  0  0  0  0  0  0  0  0
   -1.3517    0.9187   -1.1208 H   0  0  0  0  0  0  0  0  0  0  0  0
   -2.8955   -0.5540   -0.6773 C   0  0  0  0  0  0  0  0  0  0  0  0
   -3.1715   -1.8292   -0.0993 C   0  0  0  0  0  0  0  0  0  0  0  0
   -2.1192   -2.5757    0.4545 C   0  0  0  0  0  0  0  0  0  0  0  0
   -2.3211   -3.5561    0.9084 H   0  0  0  0  0  0  0  0  0  0  0  0
   -0.7983   -2.0833    0.4388 C   0  0  0  0  0  0  0  0  0  0  0  0
    0.3627   -2.8129    1.0752 C   0  0  0  0  0  0  0  0  0  0  0  0
    0.3589   -2.6541    2.1761 H   0  0  0  0  0  0  0  0  0  0  0  0
    0.2941   -3.9142    0.9246 H   0  0  0  0  0  0  0  0  0  0  0  0
    1.6758   -2.3020    0.5075 C   0  0  0  0  0  3  0  0  0  0  0  0
    2.5679   -2.3660    1.1554 H   0  0  0  0  0  0  0  0  0  0  0  0
    1.8978   -2.1858   -0.8898 C   0  0  0  0  0  3  0  0  0  0  0  0
    1.1211   -2.5043   -1.6050 H   0  0  0  0  0  0  0  0  0  0  0  0
    2.9370   -2.1627   -1.2589 H   0  0  0  0  0  0  0  0  0  0  0  0
   -3.7834    1.4141   -1.6666 C   0  0  0  0  0  0  0  0  0  0  0  0
   -4.7524    1.7213   -2.1114 H   0  0  0  0  0  0  0  0  0  0  0  0
   -3.0194    1.4614   -2.4745 H   0  0  0  0  0  0  0  0  0  0  0  0
   -3.4036    2.4727   -0.6252 C   0  0  0  0  0  0  0  0  0  0  0  0
   -3.2750    2.9144    1.7170 C   0  0  0  0  0  0  0  0  0  0  0  0
   -4.1244    2.9037    2.4293 H   0  0  0  0  0  0  0  0  0  0  0  0
   -3.1378    3.9429    1.3270 H   0  0  0  0  0  0  0  0  0  0  0  0
   -2.0022    2.3774    2.3485 C   0  0  0  0  0  0  0  0  0  0  0  0
   -1.7361    2.9888    3.2349 H   0  0  0  0  0  0  0  0  0  0  0  0
   -1.1556    2.4100    1.6340 H   0  0  0  0  0  0  0  0  0  0  0  0
   -2.1357    1.3269    2.6752 H   0  0  0  0  0  0  0  0  0  0  0  0
   -4.8046   -3.4685    0.4384 C   0  0  0  0  0  0  0  0  0  0  0  0
   -4.2847   -4.3135   -0.0689 H   0  0  0  0  0  0  0  0  0  0  0  0
   -5.8965   -3.5929    0.3128 H   0  0  0  0  0  0  0  0  0  0  0  0
   -4.5597   -3.5073    1.5248 H   0  0  0  0  0  0  0  0  0  0  0  0
  1  8  1  0  0  0  0
  2 24  2  0  0  0  0
  3 25  1  0  0  0  0
  4  9  1  0  0  0  0
  4 32  1  0  0  0  0
  5 12  1  0  0  0  0
  6  8  1  0  0  0  0
  6  5  2  0  0  0  0
  7  6  1  0  0  0  0
  8  9  2  0  0  0  0
  9 10  1  0  0  0  0
 10 11  1  0  0  0  0
 12 10  2  0  0  0  0
 12 13  1  0  0  0  0
 13 14  1  0  0  0  0
 15 13  1  0  0  0  0
 16 13  1  0  0  0  0
 16 17  1  0  0  0  0
 18 16  1  0  0  0  0
 19 18  1  0  0  0  0
 20 18  1  0  0  0  0
 21  1  1  0  0  0  0
 21 24  1  0  0  0  0
 22 21  1  0  0  0  0
 23 21  1  0  0  0  0
 24  3  1  0  0  0  0
 25 28  1  0  0  0  0
 25 26  1  0  0  0  0
 27 25  1  0  0  0  0
 28 31  1  0  0  0  0
 28 29  1  0  0  0  0
 30 28  1  0  0  0  0
 32 35  1  0  0  0  0
 33 32  1  0  0  0  0
 34 32  1  0  0  0  0
M  END
