1,5
q = 0.0, confidence = 0.994

 23 24  0  0  1  0  0  0  0  0999 V2000
    0.1833   -0.0365    1.9975 C   0  0  0  0  0  3  0  0  0  0  0  0
   -0.8646    0.3005    1.0944 C   0  0  1  0  0  3  0  0  0  0  0  0
   -0.7077    1.3741    0.1740 C   0  0  0  0  0  0  0  0  0  0  0  0
    0.4884    2.1510    0.1622 C   0  0  0  0  0  0  0  0  0  0  0  0
    1.5236    1.8171    1.0775 C   0  0  0  0  0  3  0  0  0  0  0  0
    1.3699    0.7440    2.0121 C   0  0  0  0  0  3  0  0  0  0  0  0
   -2.2141   -0.3647    0.8912 C   0  0  1  0  0  0  0  0  0  0  0  0
   -2.6336    0.1157   -0.5179 C   0  0  2  0  0  0  0  0  0  0  0  0
   -1.9389    1.4866   -0.6918 C   0  0  0  0  0  0  0  0  0  0  0  0
   -4.1372    0.0953   -0.7603 C   0  0  0  0  0  0  0  0  0  0  0  0
   -2.2253   -1.7765    0.9383 O   0  0  0  0  0  0  0  0  0  0  0  0
    0.0903   -0.9121    2.6569 H   0  0  0  0  0  0  0  0  0  0  0  0
    0.6363    2.9495   -0.5775 H   0  0  0  0  0  0  0  0  0  0  0  0
    2.4734    2.3692    1.0445 H   0  0  0  0  0  0  0  0  0  0  0  0
    2.2005    0.4756    2.6784 H   0  0  0  0  0  0  0  0  0  0  0  0
   -2.9230    0.0610    1.6487 H   0  0  0  0  0  0  0  0  0  0  0  0
   -2.1411   -0.6006   -1.2106 H   0  0  0  0  0  0  0  0  0  0  0  0
   -1.7075    1.7254   -1.7485 H   0  0  0  0  0  0  0  0  0  0  0  0
   -2.5860    2.3050   -0.3018 H   0  0  0  0  0  0  0  0  0  0  0  0
   -2.2533   -2.0577    1.8695 H   0  0  0  0  0  0  0  0  0  0  0  0
   -4.6652    0.8081   -0.0916 H   0  0  0  0  0  0  0  0  0  0  0  0
   -4.5407   -0.9188   -0.5688 H   0  0  0  0  0  0  0  0  0  0  0  0
   -4.3835    0.3668   -1.8063 H   0  0  0  0  0  0  0  0  0  0  0  0
  1  6  1  0  0  0  0
  1 12  1  0  0  0  0
  2  3  1  6  0  0  0
  2  1  1  0  0  0  0
  4  3  2  0  0  0  0
  4  5  1  0  0  0  0
  5  6  1  0  0  0  0
  6 15  1  0  0  0  0
  7 11  1  0  0  0  0
  7  2  1  0  0  0  0
  7 16  1  1  0  0  0
  8 17  1  6  0  0  0
  8  7  1  0  0  0  0
  9  8  1  0  0  0  0
  9 19  1  0  0  0  0
  9  3  1  0  0  0  0
 10 22  1  0  0  0  0
 10  8  1  0  0  0  0
 10 21  1  0  0  0  0
 11 20  1  0  0  0  0
 13  4  1  0  0  0  0
 14  5  1  0  0  0  0
 18  9  1  0  0  0  0
 23 10  1  0  0  0  0
M  END
