17,19
q = 0.0, confidence = 0.506

 43 45  0  0  1  0  0  0  0  0999 V2000
   -0.2471   -2.6841    2.3414 O   0  0  0  0  0  0  0  0  0  0  0  0
    2.2050   -0.0860   -0.3778 N   0  0  0  0  0  0  0  0  0  0  0  0
    1.5289    1.4849    1.2398 O   0  0  0  0  0  0  0  0  0  0  0  0
    0.8465   -3.4970    0.5253 O   0  0  0  0  0  0  0  0  0  0  0  0
    3.8177    1.3882    0.3912 C   0  0  0  0  0  0  0  0  0  0  0  0
    3.5149   -1.2772   -1.9075 O   0  0  0  0  0  0  0  0  0  0  0  0
    3.4051   -0.3989   -1.0715 C   0  0  0  0  0  0  0  0  0  0  0  0
    2.3799    0.9884    0.5141 C   0  0  0  0  0  0  0  0  0  0  0  0
    0.9776   -0.8532   -0.6304 C   0  0  2  0  0  0  0  0  0  0  0  0
    1.3462   -1.8166   -1.0413 H   0  0  0  0  0  0  0  0  0  0  0  0
    0.0429   -0.2641   -1.6744 C   0  0  0  0  0  3  0  0  0  0  0  0
    0.2291   -0.5438   -2.7235 H   0  0  0  0  0  0  0  0  0  0  0  0
    4.4322    0.5583   -0.5604 C   0  0  0  0  0  0  0  0  0  0  0  0
   -2.3993    2.1706    0.0697 C   0  0  0  0  0  0  0  0  0  0  0  0
   -1.2973    1.2173   -0.1602 C   0  0  0  0  0  3  0  0  0  0  0  0
   -0.5655    1.1765    0.6592 H   0  0  0  0  0  0  0  0  0  0  0  0
   -0.8571    0.8062   -1.4505 C   0  0  0  0  0  3  0  0  0  0  0  0
   -1.3641    1.2110   -2.3430 H   0  0  0  0  0  0  0  0  0  0  0  0
    0.1115   -1.1900    0.5677 C   0  0  0  0  0  3  0  0  0  0  0  0
    0.1030   -0.4546    1.3854 H   0  0  0  0  0  0  0  0  0  0  0  0
    5.7813    0.6985   -0.8884 C   0  0  0  0  0  0  0  0  0  0  0  0
    6.2497    0.0402   -1.6348 H   0  0  0  0  0  0  0  0  0  0  0  0
    0.3021   -2.5657    1.1006 C   0  0  0  0  0  0  0  0  0  0  0  0
    4.5279    2.3908    1.0523 C   0  0  0  0  0  0  0  0  0  0  0  0
    4.0327    3.0325    1.7958 H   0  0  0  0  0  0  0  0  0  0  0  0
    5.8906    2.5410    0.7278 C   0  0  0  0  0  0  0  0  0  0  0  0
    6.4855    3.3207    1.2270 H   0  0  0  0  0  0  0  0  0  0  0  0
   -3.3008    2.5933   -0.9353 C   0  0  0  0  0  0  0  0  0  0  0  0
   -3.2109    2.2069   -1.9612 H   0  0  0  0  0  0  0  0  0  0  0  0
   -2.5663    2.6900    1.3752 C   0  0  0  0  0  0  0  0  0  0  0  0
   -1.8700    2.3705    2.1662 H   0  0  0  0  0  0  0  0  0  0  0  0
    6.5072    1.7084   -0.2267 C   0  0  0  0  0  0  0  0  0  0  0  0
    7.5737    1.8511   -0.4573 H   0  0  0  0  0  0  0  0  0  0  0  0
   -4.3253    3.5019   -0.6434 C   0  0  0  0  0  0  0  0  0  0  0  0
   -5.0146    3.8178   -1.4411 H   0  0  0  0  0  0  0  0  0  0  0  0
   -0.1900   -3.9940    2.9123 C   0  0  0  0  0  0  0  0  0  0  0  0
   -0.6965   -3.9247    3.8916 H   0  0  0  0  0  0  0  0  0  0  0  0
    0.8601   -4.3258    3.0429 H   0  0  0  0  0  0  0  0  0  0  0  0
   -0.7037   -4.7322    2.2630 H   0  0  0  0  0  0  0  0  0  0  0  0
   -4.4789    4.0062    0.6591 C   0  0  0  0  0  0  0  0  0  0  0  0
   -5.2879    4.7168    0.8857 H   0  0  0  0  0  0  0  0  0  0  0  0
   -3.5936    3.5953    1.6682 C   0  0  0  0  0  0  0  0  0  0  0  0
   -3.7033    3.9844    2.6918 H   0  0  0  0  0  0  0  0  0  0  0  0
  1 36  1  0  0  0  0
  2  8  1  0  0  0  0
  4 23  2  0  0  0  0
  5  8  1  0  0  0  0
  5 24  1  0  0  0  0
  6  7  2  0  0  0  0
  7 13  1  0  0  0  0
  7  2  1  0  0  0  0
  8  3  2  0  0  0  0
  9 10  1  6  0  0  0
  9  2  1  0  0  0  0
  9 19  1  0  0  0  0
 11 17  1  0  0  0  0
 11  9  1  0  0  0  0
 12 11  1  0  0  0  0
 13  5  2  0  0  0  0
 14 30  1  0  0  0  0
 15 14  1  0  0  0  0
 15 16  1  0  0  0  0
 17 15  1  0  0  0  0
 18 17  1  0  0  0  0
 19 23  1  0  0  0  0
 19 20  1  0  0  0  0
 21 13  1  0  0  0  0
 21 32  2  0  0  0  0
 22 21  1  0  0  0  0
 23  1  1  0  0  0  0
 24 25  1  0  0  0  0
 26 24  2  0  0  0  0
 26 27  1  0  0  0  0
 28 34  1  0  0  0  0
 28 14  2  0  0  0  0
 29 28  1  0  0  0  0
 30 42  2  0  0  0  0
 30 31  1  0  0  0  0
 32 26  1  0  0  0  0
 33 32  1  0  0  0  0
 34 40  2  0  0  0  0
 35 34  1  0  0  0  0
 36 38  1  0  0  0  0
 36 37  1  0  0  0  0
 39 36  1  0  0  0  0
 40 41  1  0  0  0  0
 40 42  1  0  0  0  0
 42 43  1  0  0  0  0
M  END
