7,18
q = 0.0, confidence = 0.998

 48 51  0  0  0  0  0  0  0  0999 V2000
    1.1968   -0.4126    1.3429 N   0  0  0  0  0  0  0  0  0  0  0  0
   -0.3438   -1.3860    2.5135 N   0  0  0  0  0  0  0  0  0  0  0  0
   -3.1354   -0.4965    1.8272 N   0  0  0  0  0  0  0  0  0  0  0  0
   -3.0965    1.3817    0.7517 N   0  0  0  0  0  0  0  0  0  0  0  0
    7.3981   -0.7800   -0.0985 F   0  0  0  0  0  0  0  0  0  0  0  0
    2.5408    4.1753   -0.4743 F   0  0  0  0  0  0  0  0  0  0  0  0
   -0.0710   -0.9142    1.2516 C   0  0  0  0  0  2  0  0  0  0  0  0
    1.7184   -0.5811    2.6160 C   0  0  0  0  0  0  0  0  0  0  0  0
    2.7315   -0.2587    2.8722 H   0  0  0  0  0  0  0  0  0  0  0  0
    0.7496   -1.1965    3.3588 C   0  0  0  0  0  0  0  0  0  0  0  0
    0.7451   -1.5290    4.4010 H   0  0  0  0  0  0  0  0  0  0  0  0
   -1.5578   -2.0439    3.0031 C   0  0  0  0  0  0  0  0  0  0  0  0
   -1.7504   -1.6401    4.0188 H   0  0  0  0  0  0  0  0  0  0  0  0
   -1.3647   -3.1330    3.1118 H   0  0  0  0  0  0  0  0  0  0  0  0
   -2.8077   -1.8805    2.1405 C   0  0  0  0  0  0  0  0  0  0  0  0
   -2.6824   -2.4043    1.1713 H   0  0  0  0  0  0  0  0  0  0  0  0
   -3.6602   -2.3410    2.6777 H   0  0  0  0  0  0  0  0  0  0  0  0
   -2.5686    0.1269    0.7491 C   0  0  0  0  0  2  0  0  0  0  0  0
   -4.0071    0.3534    2.4985 C   0  0  0  0  0  0  0  0  0  0  0  0
   -4.5783    0.0450    3.3790 H   0  0  0  0  0  0  0  0  0  0  0  0
   -3.9825    1.5415    1.8124 C   0  0  0  0  0  0  0  0  0  0  0  0
   -4.5342    2.4722    1.9746 H   0  0  0  0  0  0  0  0  0  0  0  0
    1.8710    0.3318    0.2695 C   0  0  0  0  0  0  0  0  0  0  0  0
    1.6947    1.4107    0.4399 H   0  0  0  0  0  0  0  0  0  0  0  0
    1.3560    0.0351   -0.6682 H   0  0  0  0  0  0  0  0  0  0  0  0
    3.3457    0.0369    0.1870 C   0  0  0  0  0  0  0  0  0  0  0  0
    4.2922    1.0706    0.3193 C   0  0  0  0  0  0  0  0  0  0  0  0
    3.9486    2.1053    0.4763 H   0  0  0  0  0  0  0  0  0  0  0  0
    5.6663    0.8040    0.2193 C   0  0  0  0  0  0  0  0  0  0  0  0
    6.4190    1.5996    0.3136 H   0  0  0  0  0  0  0  0  0  0  0  0
    6.0812   -0.5126   -0.0098 C   0  0  0  0  0  0  0  0  0  0  0  0
    5.1602   -1.5597   -0.1553 C   0  0  0  0  0  0  0  0  0  0  0  0
    5.5283   -2.5766   -0.3538 H   0  0  0  0  0  0  0  0  0  0  0  0
    3.7922   -1.2790   -0.0610 C   0  0  0  0  0  0  0  0  0  0  0  0
    3.0455   -2.0767   -0.2076 H   0  0  0  0  0  0  0  0  0  0  0  0
   -2.8232    2.3757   -0.2952 C   0  0  0  0  0  0  0  0  0  0  0  0
   -3.5118    3.2246   -0.1127 H   0  0  0  0  0  0  0  0  0  0  0  0
   -3.0871    1.8948   -1.2609 H   0  0  0  0  0  0  0  0  0  0  0  0
   -1.3849    2.8446   -0.3269 C   0  0  0  0  0  0  0  0  0  0  0  0
   -0.5986    2.6168   -1.4738 C   0  0  0  0  0  0  0  0  0  0  0  0
   -1.0253    2.0424   -2.3111 H   0  0  0  0  0  0  0  0  0  0  0  0
    0.7231    3.0818   -1.5409 C   0  0  0  0  0  0  0  0  0  0  0  0
    1.3519    2.9016   -2.4244 H   0  0  0  0  0  0  0  0  0  0  0  0
    1.2563    3.7575   -0.4382 C   0  0  0  0  0  0  0  0  0  0  0  0
    0.5067    3.9830    0.7239 C   0  0  0  0  0  0  0  0  0  0  0  0
    0.9662    4.5154    1.5688 H   0  0  0  0  0  0  0  0  0  0  0  0
   -0.8181    3.5270    0.7673 C   0  0  0  0  0  0  0  0  0  0  0  0
   -1.4185    3.7055    1.6739 H   0  0  0  0  0  0  0  0  0  0  0  0
  1  8  1  0  0  0  0
  2 12  1  0  0  0  0
  2 10  1  0  0  0  0
  3 15  1  0  0  0  0
  3 19  1  0  0  0  0
  4 21  1  0  0  0  0
  5 31  1  0  0  0  0
  6 44  1  0  0  0  0
  7  1  1  0  0  0  0
  7  2  1  0  0  0  0
  8  9  1  0  0  0  0
  8 10  2  0  0  0  0
 10 11  1  0  0  0  0
 12 14  1  0  0  0  0
 12 13  1  0  0  0  0
 15 17  1  0  0  0  0
 15 12  1  0  0  0  0
 16 15  1  0  0  0  0
 18  4  1  0  0  0  0
 18  3  1  0  0  0  0
 19 20  1  0  0  0  0
 21 22  1  0  0  0  0
 21 19  2  0  0  0  0
 23 24  1  0  0  0  0
 23  1  1  0  0  0  0
 25 23  1  0  0  0  0
 26 23  1  0  0  0  0
 26 27  1  0  0  0  0
 27 28  1  0  0  0  0
 29 30  1  0  0  0  0
 29 27  2  0  0  0  0
 31 29  1  0  0  0  0
 32 34  1  0  0  0  0
 32 31  2  0  0  0  0
 33 32  1  0  0  0  0
 34 26  2  0  0  0  0
 35 34  1  0  0  0  0
 36 37  1  0  0  0  0
 36  4  1  0  0  0  0
 38 36  1  0  0  0  0
 39 36  1  0  0  0  0
 39 47  1  0  0  0  0
 40 39  2  0  0  0  0
 41 40  1  0  0  0  0
 42 40  1  0  0  0  0
 42 44  2  0  0  0  0
 43 42  1  0  0  0  0
 44 45  1  0  0  0  0
 45 47  2  0  0  0  0
 45 46  1  0  0  0  0
 47 48  1  0  0  0  0
M  END
