5,15
q = 0.0, confidence = 0.95

 50 52  0  0  1  0  0  0  0  0999 V2000
   -0.2467    2.2563    0.5072 O   0  0  0  0  0  0  0  0  0  0  0  0
    3.3587   -1.3875   -1.4239 O   0  0  0  0  0  0  0  0  0  0  0  0
   -4.0563   -0.7080   -2.1430 O   0  0  0  0  0  0  0  0  0  0  0  0
    0.6752    0.5064   -0.4438 N   0  0  0  0  0  0  0  0  0  0  0  0
   -0.4727    1.0085    0.0875 C   0  0  0  0  0  2  0  0  0  0  0  0
    0.7049   -0.9448   -0.7601 C   0  0  1  0  0  0  0  0  0  0  0  0
    1.6565   -1.6534    0.1923 C   0  0  0  0  0  0  0  0  0  0  0  0
    1.2500   -2.0699    1.4696 C   0  0  0  0  0  0  0  0  0  0  0  0
    2.1562   -2.6485    2.3728 C   0  0  0  0  0  0  0  0  0  0  0  0
    3.4956   -2.8103    1.9947 C   0  0  0  0  0  0  0  0  0  0  0  0
    3.9322   -2.4002    0.7253 C   0  0  0  0  0  0  0  0  0  0  0  0
    3.0173   -1.8232   -0.1777 C   0  0  0  0  0  0  0  0  0  0  0  0
    4.7270   -1.3285   -1.7766 C   0  0  0  0  0  0  0  0  0  0  0  0
   -0.7256   -1.4313   -0.7074 C   0  0  0  0  0  3  0  0  0  0  0  0
   -1.6471   -0.8999   -1.6889 C   0  0  0  0  0  3  0  0  0  0  0  0
   -3.0076   -1.1926   -1.3987 C   0  0  0  0  0  0  0  0  0  0  0  0
   -3.4898   -1.7772   -0.1825 C   0  0  0  0  0  0  0  0  0  0  0  0
   -4.9306   -1.5852   -0.2400 C   0  0  0  0  0  0  0  0  0  0  0  0
   -5.2002   -0.9507   -1.4158 C   0  0  0  0  0  0  0  0  0  0  0  0
   -1.2281    3.0171    1.2293 C   0  0  0  0  0  0  0  0  0  0  0  0
   -0.4987    4.1429    1.9360 C   0  0  0  0  0  0  0  0  0  0  0  0
    1.9039    1.2444   -0.5302 C   0  0  0  0  0  0  0  0  0  0  0  0
    2.7179    1.3967    0.6058 C   0  0  0  0  0  0  0  0  0  0  0  0
    3.9486    2.0597    0.4951 C   0  0  0  0  0  0  0  0  0  0  0  0
    4.3695    2.5665   -0.7456 C   0  0  0  0  0  0  0  0  0  0  0  0
    3.5530    2.4136   -1.8781 C   0  0  0  0  0  0  0  0  0  0  0  0
    2.3203    1.7533   -1.7714 C   0  0  0  0  0  0  0  0  0  0  0  0
    1.1230   -1.0416   -1.7850 H   0  0  0  0  0  0  0  0  0  0  0  0
    0.2025   -1.9193    1.7659 H   0  0  0  0  0  0  0  0  0  0  0  0
    1.8138   -2.9660    3.3685 H   0  0  0  0  0  0  0  0  0  0  0  0
    4.2190   -3.2599    2.6921 H   0  0  0  0  0  0  0  0  0  0  0  0
    4.9855   -2.5309    0.4444 H   0  0  0  0  0  0  0  0  0  0  0  0
    4.7702   -0.8566   -2.7756 H   0  0  0  0  0  0  0  0  0  0  0  0
    5.1881   -2.3400   -1.8334 H   0  0  0  0  0  0  0  0  0  0  0  0
    5.3040   -0.7045   -1.0589 H   0  0  0  0  0  0  0  0  0  0  0  0
   -0.8483   -2.4772   -0.3751 H   0  0  0  0  0  0  0  0  0  0  0  0
   -1.3670   -0.3271   -2.5857 H   0  0  0  0  0  0  0  0  0  0  0  0
   -2.9997   -2.5830    0.3746 H   0  0  0  0  0  0  0  0  0  0  0  0
   -5.6652   -1.9087    0.5051 H   0  0  0  0  0  0  0  0  0  0  0  0
   -6.1286   -0.6035   -1.8809 H   0  0  0  0  0  0  0  0  0  0  0  0
   -1.9799    3.4070    0.5133 H   0  0  0  0  0  0  0  0  0  0  0  0
   -1.7514    2.3483    1.9425 H   0  0  0  0  0  0  0  0  0  0  0  0
   -1.2246    4.7721    2.4877 H   0  0  0  0  0  0  0  0  0  0  0  0
    0.2403    3.7449    2.6592 H   0  0  0  0  0  0  0  0  0  0  0  0
    0.0386    4.7848    1.2102 H   0  0  0  0  0  0  0  0  0  0  0  0
    2.3810    0.9804    1.5655 H   0  0  0  0  0  0  0  0  0  0  0  0
    4.5861    2.1766    1.3846 H   0  0  0  0  0  0  0  0  0  0  0  0
    5.3366    3.0852   -0.8296 H   0  0  0  0  0  0  0  0  0  0  0  0
    3.8768    2.8132   -2.8511 H   0  0  0  0  0  0  0  0  0  0  0  0
    1.6703    1.6212   -2.6489 H   0  0  0  0  0  0  0  0  0  0  0  0
  1 20  1  0  0  0  0
  2 12  1  0  0  0  0
  3 19  1  0  0  0  0
  3 16  1  0  0  0  0
  4  5  1  0  0  0  0
  5  1  1  0  0  0  0
  6 28  1  6  0  0  0
  6 14  1  0  0  0  0
  6  4  1  0  0  0  0
  6  7  1  0  0  0  0
  7  8  1  0  0  0  0
  8 29  1  0  0  0  0
  8  9  2  0  0  0  0
  9 30  1  0  0  0  0
 10  9  1  0  0  0  0
 10 31  1  0  0  0  0
 11 10  2  0  0  0  0
 12  7  2  0  0  0  0
 12 11  1  0  0  0  0
 13  2  1  0  0  0  0
 13 35  1  0  0  0  0
 14 36  1  0  0  0  0
 15 16  1  0  0  0  0
 15 14  1  0  0  0  0
 16 17  2  0  0  0  0
 17 38  1  0  0  0  0
 18 17  1  0  0  0  0
 18 39  1  0  0  0  0
 19 18  2  0  0  0  0
 20 21  1  0  0  0  0
 20 42  1  0  0  0  0
 21 43  1  0  0  0  0
 21 44  1  0  0  0  0
 22  4  1  0  0  0  0
 22 23  1  0  0  0  0
 23 46  1  0  0  0  0
 24 23  2  0  0  0  0
 24 47  1  0  0  0  0
 25 24  1  0  0  0  0
 26 27  1  0  0  0  0
 26 25  2  0  0  0  0
 27 22  2  0  0  0  0
 32 11  1  0  0  0  0
 33 13  1  0  0  0  0
 34 13  1  0  0  0  0
 37 15  1  0  0  0  0
 40 19  1  0  0  0  0
 41 20  1  0  0  0  0
 45 21  1  0  0  0  0
 48 25  1  0  0  0  0
 49 26  1  0  0  0  0
 50 27  1  0  0  0  0
M  END
