29,33
q = 0.0, confidence = 0.984

 56 62  0  0  1  0  0  0  0  0999 V2000
    2.9358    3.9351   -0.9092 C   0  0  0  0  0  0  0  0  0  0  0  0
    3.1516    2.6937   -0.3399 C   0  0  0  0  0  0  0  0  0  0  0  0
    2.1053    1.9788    0.3306 C   0  0  0  0  0  0  0  0  0  0  0  0
    2.3171    0.7020    0.9352 C   0  0  0  0  0  0  0  0  0  0  0  0
    1.2324    0.0467    1.5904 C   0  0  0  0  0  0  0  0  0  0  0  0
    1.4099   -1.1752    2.3124 C   0  0  0  0  0  0  0  0  0  0  0  0
    0.3290   -1.8896    2.8022 C   0  0  0  0  0  0  0  0  0  0  0  0
   -0.9964   -1.4147    2.5996 C   0  0  0  0  0  0  0  0  0  0  0  0
   -1.2059   -0.1926    1.9840 C   0  0  0  0  0  0  0  0  0  0  0  0
   -0.1072    0.5969    1.5019 C   0  0  0  0  0  0  0  0  0  0  0  0
   -0.3205    1.8662    0.9018 C   0  0  0  0  0  0  0  0  0  0  0  0
    0.7800    2.5748    0.3409 C   0  0  0  0  0  0  0  0  0  0  0  0
    0.6016    3.8691   -0.2443 C   0  0  0  0  0  0  0  0  0  0  0  0
    1.6505    4.5380   -0.8502 C   0  0  0  0  0  0  0  0  0  0  0  0
   -1.6950    2.4379    0.8701 C   0  0  0  0  0  0  0  0  0  0  0  0
   -2.3988    2.5881   -0.3439 C   0  0  0  0  0  0  0  0  0  0  0  0
   -3.7099    3.0822   -0.3520 C   0  0  0  0  0  0  0  0  0  0  0  0
   -4.3351    3.4462    0.8502 C   0  0  0  0  0  0  0  0  0  0  0  0
   -3.6424    3.3100    2.0636 C   0  0  0  0  0  0  0  0  0  0  0  0
   -2.3349    2.8058    2.0748 C   0  0  0  0  0  0  0  0  0  0  0  0
    3.6598    0.0614    0.8359 C   0  0  0  0  0  0  0  0  0  0  0  0
    4.7705    0.7289    1.4018 C   0  0  0  0  0  0  0  0  0  0  0  0
    6.0723    0.2243    1.3030 C   0  0  0  0  0  0  0  0  0  0  0  0
    6.3004   -0.9849    0.6265 C   0  0  0  0  0  0  0  0  0  0  0  0
    5.2184   -1.6876    0.0919 C   0  0  0  0  0  0  0  0  0  0  0  0
    3.8951   -1.1883    0.1722 C   0  0  0  0  0  0  0  0  0  0  0  0
    0.6268    1.5618   -3.2402 C   0  0  0  0  0  3  0  0  0  0  0  0
   -0.3867    0.9072   -2.6950 C   0  0  0  0  0  3  0  0  0  0  0  0
   -0.0481   -0.1352   -1.9205 C   0  0  0  0  0  2  0  0  0  0  0  0
    1.3254   -0.4626   -1.7128 C   0  0  0  0  0  0  0  0  0  0  0  0
    2.3341    0.3013   -2.3898 C   0  0  0  0  0  0  0  0  0  0  0  0
    1.9078    1.3739   -3.1855 C   0  0  0  0  0  3  0  0  0  0  0  0
    0.3986   -2.4745   -0.6973 C   0  0  0  0  0  2  0  0  0  0  0  0
    1.5583   -1.6642   -0.8895 C   0  0  0  0  0  0  0  0  0  0  0  0
    2.7960   -2.0858   -0.2734 C   0  0  2  0  0  3  0  0  0  0  0  0
    2.8539   -3.4421    0.1504 C   0  0  0  0  0  2  0  0  0  0  0  0
    1.6949   -4.0120    0.2939 C   0  0  0  0  0  2  0  0  0  0  0  0
    0.5169   -3.7440   -0.2608 C   0  0  0  0  0  2  0  0  0  0  0  0
    3.7621    4.4533   -1.4182 H   0  0  0  0  0  0  0  0  0  0  0  0
    4.1461    2.2359   -0.4137 H   0  0  0  0  0  0  0  0  0  0  0  0
    2.4295   -1.5591    2.4554 H   0  0  0  0  0  0  0  0  0  0  0  0
    0.4975   -2.8377    3.3342 H   0  0  0  0  0  0  0  0  0  0  0  0
   -1.8611   -2.0114    2.9235 H   0  0  0  0  0  0  0  0  0  0  0  0
   -2.2311    0.1784    1.8499 H   0  0  0  0  0  0  0  0  0  0  0  0
   -0.3966    4.3262   -0.2040 H   0  0  0  0  0  0  0  0  0  0  0  0
    1.4875    5.5321   -1.2926 H   0  0  0  0  0  0  0  0  0  0  0  0
   -1.9185    2.2759   -1.2841 H   0  0  0  0  0  0  0  0  0  0  0  0
   -4.2521    3.1650   -1.3057 H   0  0  0  0  0  0  0  0  0  0  0  0
   -5.3674    3.8273    0.8431 H   0  0  0  0  0  0  0  0  0  0  0  0
   -4.1263    3.5921    3.0109 H   0  0  0  0  0  0  0  0  0  0  0  0
   -1.7930    2.6916    3.0260 H   0  0  0  0  0  0  0  0  0  0  0  0
    4.5884    1.6662    1.9480 H   0  0  0  0  0  0  0  0  0  0  0  0
    6.9081    0.7723    1.7633 H   0  0  0  0  0  0  0  0  0  0  0  0
    7.3190   -1.3899    0.5332 H   0  0  0  0  0  0  0  0  0  0  0  0
    5.3749   -2.6557   -0.4060 H   0  0  0  0  0  0  0  0  0  0  0  0
    3.3892    0.0022   -2.2670 H   0  0  0  0  0  0  0  0  0  0  0  0
  1 14  2  0  0  0  0
  1  2  1  0  0  0  0
  2  3  2  0  0  0  0
  3 12  1  0  0  0  0
  3  4  1  0  0  0  0
  4  5  2  0  0  0  0
  5  6  1  0  0  0  0
  6 41  1  0  0  0  0
  6  7  2  0  0  0  0
  7 42  1  0  0  0  0
  8  7  1  0  0  0  0
  8 43  1  0  0  0  0
  9  8  2  0  0  0  0
 10  5  1  0  0  0  0
 10  9  1  0  0  0  0
 11 10  2  0  0  0  0
 12 11  1  0  0  0  0
 13 45  1  0  0  0  0
 13 12  2  0  0  0  0
 14 13  1  0  0  0  0
 15 11  1  0  0  0  0
 15 20  1  0  0  0  0
 16 15  2  0  0  0  0
 17 16  1  0  0  0  0
 17 18  2  0  0  0  0
 18 19  1  0  0  0  0
 19 20  2  0  0  0  0
 19 50  1  0  0  0  0
 20 51  1  0  0  0  0
 21  4  1  0  0  0  0
 21 22  1  0  0  0  0
 22 52  1  0  0  0  0
 23 22  2  0  0  0  0
 23 53  1  0  0  0  0
 24 23  1  0  0  0  0
 25 26  1  0  0  0  0
 25 24  2  0  0  0  0
 26 21  2  0  0  0  0
 27 32  1  0  0  0  0
 27 28  2  0  0  0  0
 28 29  1  0  0  0  0
 29 30  1  0  0  0  0
 30 34  2  0  0  0  0
 31 56  1  0  0  0  0
 31 30  1  0  0  0  0
 32 31  2  0  0  0  0
 33 38  1  0  0  0  0
 34 33  1  0  0  0  0
 34 35  1  0  0  0  0
 35 36  1  0  0  0  0
 35 26  1  1  0  0  0
 36 37  1  0  0  0  0
 38 37  1  0  0  0  0
 39  1  1  0  0  0  0
 40  2  1  0  0  0  0
 44  9  1  0  0  0  0
 46 14  1  0  0  0  0
 47 16  1  0  0  0  0
 48 17  1  0  0  0  0
 49 18  1  0  0  0  0
 54 24  1  0  0  0  0
 55 25  1  0  0  0  0
M  END
