2,10
q = 0.0, confidence = 0.982

 24 25  0  0  1  0  0  0  0  0999 V2000
    1.9469    0.3217   -0.7263 C   0  0  1  0  0  0  0  0  0  0  0  0
    0.7854    1.3056   -0.5715 C   0  0  0  0  0  3  0  0  0  0  0  0
    0.4235    1.9294   -1.4039 H   0  0  0  0  0  0  0  0  0  0  0  0
    0.5123    1.5579    0.7793 C   0  0  0  0  0  3  0  0  0  0  0  0
   -0.1368    2.3739    1.1274 H   0  0  0  0  0  0  0  0  0  0  0  0
    1.4913    0.8206    1.6601 C   0  0  0  0  0  0  0  0  0  0  0  0
    2.3331    1.4990    1.9310 H   0  0  0  0  0  0  0  0  0  0  0  0
    1.0518    0.4500    2.6083 H   0  0  0  0  0  0  0  0  0  0  0  0
    1.9469   -0.3217    0.7263 C   0  0  1  0  0  0  0  0  0  0  0  0
    0.7854   -1.3056    0.5715 C   0  0  0  0  0  3  0  0  0  0  0  0
    0.4235   -1.9294    1.4039 H   0  0  0  0  0  0  0  0  0  0  0  0
    0.5123   -1.5579   -0.7793 C   0  0  0  0  0  3  0  0  0  0  0  0
   -0.1368   -2.3739   -1.1274 H   0  0  0  0  0  0  0  0  0  0  0  0
    1.4913   -0.8206   -1.6601 C   0  0  0  0  0  0  0  0  0  0  0  0
    2.3330   -1.4990   -1.9310 H   0  0  0  0  0  0  0  0  0  0  0  0
    1.0518   -0.4500   -2.6083 H   0  0  0  0  0  0  0  0  0  0  0  0
    3.2342    1.0279   -1.1476 C   0  0  0  0  0  0  0  0  0  0  0  0
    4.0768    0.3121   -1.2271 H   0  0  0  0  0  0  0  0  0  0  0  0
    3.5206    1.8182   -0.4245 H   0  0  0  0  0  0  0  0  0  0  0  0
    3.1086    1.5110   -2.1376 H   0  0  0  0  0  0  0  0  0  0  0  0
    3.2342   -1.0279    1.1476 C   0  0  0  0  0  0  0  0  0  0  0  0
    4.0768   -0.3121    1.2271 H   0  0  0  0  0  0  0  0  0  0  0  0
    3.5206   -1.8182    0.4245 H   0  0  0  0  0  0  0  0  0  0  0  0
    3.1086   -1.5110    2.1376 H   0  0  0  0  0  0  0  0  0  0  0  0
  1 17  1  6  0  0  0
  1  2  1  0  0  0  0
  1  9  1  0  0  0  0
  2  4  1  0  0  0  0
  3  2  1  0  0  0  0
  4  5  1  0  0  0  0
  4  6  1  0  0  0  0
  6  7  1  0  0  0  0
  6  8  1  0  0  0  0
  9 21  1  1  0  0  0
  9  6  1  0  0  0  0
 10  9  1  0  0  0  0
 10 11  1  0  0  0  0
 12 10  1  0  0  0  0
 13 12  1  0  0  0  0
 14 12  1  0  0  0  0
 14  1  1  0  0  0  0
 15 14  1  0  0  0  0
 16 14  1  0  0  0  0
 17 19  1  0  0  0  0
 18 17  1  0  0  0  0
 20 17  1  0  0  0  0
 21 22  1  0  0  0  0
 21 24  1  0  0  0  0
 23 21  1  0  0  0  0
M  END
