11,15
q = -1.0, confidence = 0.068

 38 40  0  0  1  0  0  0  0  0999 V2000
    8.2075   -0.8544    1.4857 Cl  0  0  0  0  0  0  0  0  0  0  0  0
   -0.5368   -1.8636   -0.5964 N   0  0  0  0  0  0  0  0  0  0  0  0
    0.3037   -2.0811   -0.0487 H   0  0  0  0  0  0  0  0  0  0  0  0
    2.0138   -0.4891   -1.3797 N   0  0  0  0  0  0  0  0  0  0  0  0
    2.4177   -1.4163   -1.5222 H   0  0  0  0  0  0  0  0  0  0  0  0
    4.7725    2.5241   -0.2022 N   0  0  0  0  0  0  0  0  0  0  0  0
   -3.7452   -1.7232   -0.4710 C   0  0  0  0  0  0  0  0  0  0  0  0
   -3.6911   -2.6861    0.0510 H   0  0  0  0  0  0  0  0  0  0  0  0
   -4.8493   -1.2428   -1.2511 C   0  0  0  0  0  0  0  0  0  0  0  0
   -5.7980   -1.7631   -1.4242 H   0  0  0  0  0  0  0  0  0  0  0  0
   -4.4900    0.0527   -1.7515 C   0  0  0  0  0  3  0  0  0  0  0  0
   -5.1212    0.6967   -2.3759 H   0  0  0  0  0  0  0  0  0  0  0  0
   -3.1707    0.3615   -1.2971 C   0  0  0  0  0  3  0  0  0  0  0  0
   -2.6110    1.2810   -1.5078 H   0  0  0  0  0  0  0  0  0  0  0  0
   -2.7051   -0.7390   -0.4853 C   0  0  2  0  0  3  0  0  0  0  0  0
   -1.3427   -0.8904    0.1400 C   0  0  0  0  0  0  0  0  0  0  0  0
   -0.8822    0.1257    0.2363 H   0  0  0  0  0  0  0  0  0  0  0  0
   -1.4601   -1.2719    1.1736 H   0  0  0  0  0  0  0  0  0  0  0  0
   -0.1553   -1.4781   -1.9468 C   0  0  0  0  0  0  0  0  0  0  0  0
   -1.0738   -1.2914   -2.5425 H   0  0  0  0  0  0  0  0  0  0  0  0
    0.3416   -2.3509   -2.4277 H   0  0  0  0  0  0  0  0  0  0  0  0
    0.7624   -0.2491   -2.0685 C   0  0  0  0  0  0  0  0  0  0  0  0
    0.9114    0.0095   -3.1455 H   0  0  0  0  0  0  0  0  0  0  0  0
    0.2683    0.6292   -1.6033 H   0  0  0  0  0  0  0  0  0  0  0  0
    2.8984    0.4938   -1.0040 C   0  0  0  0  0  0  0  0  0  0  0  0
    2.6347    1.8619   -1.1636 C   0  0  0  0  0  0  0  0  0  0  0  0
    1.7055    2.2124   -1.6318 H   0  0  0  0  0  0  0  0  0  0  0  0
    3.5955    2.8105   -0.7400 C   0  0  0  0  0  0  0  0  0  0  0  0
    3.3674    3.8843   -0.8763 H   0  0  0  0  0  0  0  0  0  0  0  0
    5.0597    1.1989   -0.0292 C   0  0  0  0  0  0  0  0  0  0  0  0
    6.3194    0.8681    0.5510 C   0  0  0  0  0  0  0  0  0  0  0  0
    6.9926    1.6943    0.8147 H   0  0  0  0  0  0  0  0  0  0  0  0
    6.6638   -0.4564    0.7746 C   0  0  0  0  0  0  0  0  0  0  0  0
    5.7747   -1.5121    0.4443 C   0  0  0  0  0  0  0  0  0  0  0  0
    6.0653   -2.5509    0.6526 H   0  0  0  0  0  0  0  0  0  0  0  0
    4.5461   -1.2092   -0.1259 C   0  0  0  0  0  0  0  0  0  0  0  0
    3.8612   -2.0431   -0.3466 H   0  0  0  0  0  0  0  0  0  0  0  0
    4.1598    0.1326   -0.3939 C   0  0  0  0  0  0  0  0  0  0  0  0
  2  3  1  0  0  0  0
  2 16  1  0  0  0  0
  4 25  1  0  0  0  0
  5  4  1  0  0  0  0
  6 30  1  0  0  0  0
  7  8  1  0  0  0  0
  9  7  2  0  0  0  0
 10  9  1  0  0  0  0
 11 13  1  0  0  0  0
 11  9  1  0  0  0  0
 12 11  1  0  0  0  0
 13 15  1  0  0  0  0
 14 13  1  0  0  0  0
 15  7  1  0  0  0  0
 15 16  1  6  0  0  0
 16 17  1  0  0  0  0
 16 18  1  0  0  0  0
 19  2  1  0  0  0  0
 20 19  1  0  0  0  0
 21 19  1  0  0  0  0
 22 19  1  0  0  0  0
 22 24  1  0  0  0  0
 22  4  1  0  0  0  0
 23 22  1  0  0  0  0
 25 38  1  0  0  0  0
 26 25  2  0  0  0  0
 26 28  1  0  0  0  0
 27 26  1  0  0  0  0
 28  6  2  0  0  0  0
 29 28  1  0  0  0  0
 30 31  1  0  0  0  0
 31 33  2  0  0  0  0
 31 32  1  0  0  0  0
 33  1  1  0  0  0  0
 34 35  1  0  0  0  0
 34 33  1  0  0  0  0
 36 34  2  0  0  0  0
 37 36  1  0  0  0  0
 38 36  1  0  0  0  0
 38 30  2  0  0  0  0
M  END
