3,5
q = 0.0, confidence = 0.98

 13 14  0  0  1  0  0  0  0  0999 V2000
    1.6685   -0.4890    2.5102 F   0  0  0  0  0  0  0  0  0  0  0  0
    3.4867   -1.3803    1.6401 F   0  0  0  0  0  0  0  0  0  0  0  0
    1.5022   -1.4671    0.2047 C   0  0  1  0  0  3  0  0  0  0  0  0
    2.2655   -0.8742    1.3127 C   0  0  0  0  0  0  0  0  0  0  0  0
    2.0972   -0.1055    0.0743 C   0  0  1  0  0  3  0  0  0  0  0  0
    3.0160    0.1710   -1.0201 C   0  0  0  0  0  0  0  0  0  0  0  0
    3.2734   -0.8308   -1.9246 C   0  0  0  0  0  0  0  0  0  0  0  0
    2.7038   -2.1617   -1.7912 C   0  0  0  0  0  0  0  0  0  0  0  0
    1.8652   -2.5004   -0.7568 C   0  0  0  0  0  0  0  0  0  0  0  0
    3.4729    1.1670   -1.1482 H   0  0  0  0  0  0  0  0  0  0  0  0
    3.9483   -0.6389   -2.7740 H   0  0  0  0  0  0  0  0  0  0  0  0
    2.9773   -2.9199   -2.5424 H   0  0  0  0  0  0  0  0  0  0  0  0
    1.4634   -3.5252   -0.6787 H   0  0  0  0  0  0  0  0  0  0  0  0
  3  9  1  6  0  0  0
  3  4  1  0  0  0  0
  4  2  1  0  0  0  0
  4  1  1  0  0  0  0
  5  6  1  6  0  0  0
  5  3  1  0  0  0  0
  5  4  1  0  0  0  0
  7  8  1  0  0  0  0
  7  6  2  0  0  0  0
  8  9  2  0  0  0  0
  9 13  1  0  0  0  0
 10  6  1  0  0  0  0
 11  7  1  0  0  0  0
 12  8  1  0  0  0  0
M  END
