2,6
q = 0.0, confidence = 0.846

 10  9  0  0  0  0  0  0  0  0999 V2000
   -5.4892    0.7130   -0.0522 O   0  0  0  0  0  0  0  0  0  0  0  0
   -2.1743    0.3047   -1.4575 C   0  0  0  0  0  3  0  0  0  0  0  0
   -3.5017    0.5273   -1.3261 C   0  0  0  0  0  0  0  0  0  0  0  0
   -4.2623    0.6069   -0.0452 C   0  0  0  0  0  0  0  0  0  0  0  0
   -3.5004    0.6969    1.2336 C   0  0  0  0  0  0  0  0  0  0  0  0
   -2.1746    0.4883    1.3944 C   0  0  0  0  0  3  0  0  0  0  0  0
   -1.7258    0.3738   -2.4680 H   0  0  0  0  0  0  0  0  0  0  0  0
   -4.1272    0.7345   -2.2123 H   0  0  0  0  0  0  0  0  0  0  0  0
   -4.1255    1.0204    2.0846 H   0  0  0  0  0  0  0  0  0  0  0  0
   -1.7263    0.6854    2.3881 H   0  0  0  0  0  0  0  0  0  0  0  0
  1  4  2  0  0  0  0
  2  3  2  0  0  0  0
  3  4  1  0  0  0  0
  4  5  1  0  0  0  0
  5  6  2  0  0  0  0
  5  9  1  0  0  0  0
  6 10  1  0  0  0  0
  7  2  1  0  0  0  0
  8  3  1  0  0  0  0
M  END
