8,12
q = 0.0, confidence = 0.99

 30 32  0  0  0  0  0  0  0  0999 V2000
    0.9716    1.6618   -0.6206 N   0  0  0  0  0  0  0  0  0  0  0  0
    4.7333   -2.3792    0.3043 N   0  0  0  0  0  0  0  0  0  0  0  0
    5.4909   -2.1872    0.9607 H   0  0  0  0  0  0  0  0  0  0  0  0
    4.3384   -3.3121    0.4306 H   0  0  0  0  0  0  0  0  0  0  0  0
   -0.1044    0.9182   -1.0542 C   0  0  0  0  0  0  0  0  0  0  0  0
   -1.4241    1.3335   -1.3973 C   0  0  0  0  0  3  0  0  0  0  0  0
   -1.7489    2.3756   -1.2871 H   0  0  0  0  0  0  0  0  0  0  0  0
   -2.3147    0.3519   -1.9167 C   0  0  0  0  0  3  0  0  0  0  0  0
   -3.3301    0.6560   -2.2067 H   0  0  0  0  0  0  0  0  0  0  0  0
   -1.9372   -1.0217   -2.0311 C   0  0  0  0  0  3  0  0  0  0  0  0
   -2.6639   -1.7585   -2.3974 H   0  0  0  0  0  0  0  0  0  0  0  0
   -0.6768   -1.4487   -1.5329 C   0  0  0  0  0  3  0  0  0  0  0  0
   -0.4118   -2.5151   -1.5377 H   0  0  0  0  0  0  0  0  0  0  0  0
    0.2646   -0.4789   -1.0729 C   0  0  0  0  0  0  0  0  0  0  0  0
    1.6273   -0.5535   -0.5802 C   0  0  0  0  0  0  0  0  0  0  0  0
    2.5147   -1.6181   -0.3668 C   0  0  0  0  0  0  0  0  0  0  0  0
    2.2021   -2.6543   -0.5678 H   0  0  0  0  0  0  0  0  0  0  0  0
    3.8129   -1.3513    0.1225 C   0  0  0  0  0  0  0  0  0  0  0  0
    4.1897   -0.0020    0.3771 C   0  0  0  0  0  0  0  0  0  0  0  0
    5.2037    0.2024    0.7549 H   0  0  0  0  0  0  0  0  0  0  0  0
    3.3134    1.0695    0.1653 C   0  0  0  0  0  0  0  0  0  0  0  0
    3.6376    2.0973    0.3820 H   0  0  0  0  0  0  0  0  0  0  0  0
    2.0276    0.7886   -0.3171 C   0  0  0  0  0  0  0  0  0  0  0  0
    1.0123    3.1053   -0.4470 C   0  0  0  0  0  0  0  0  0  0  0  0
    0.2284    3.5412   -1.0986 H   0  0  0  0  0  0  0  0  0  0  0  0
    1.9821    3.4610   -0.8573 H   0  0  0  0  0  0  0  0  0  0  0  0
    0.8396    3.5728    0.9988 C   0  0  0  0  0  0  0  0  0  0  0  0
   -0.1375    3.2631    1.4144 H   0  0  0  0  0  0  0  0  0  0  0  0
    0.9133    4.6776    1.0502 H   0  0  0  0  0  0  0  0  0  0  0  0
    1.6249    3.1452    1.6529 H   0  0  0  0  0  0  0  0  0  0  0  0
  1 24  1  0  0  0  0
  1 23  1  0  0  0  0
  2  4  1  0  0  0  0
  2  3  1  0  0  0  0
  5  1  1  0  0  0  0
  6  7  1  0  0  0  0
  6  5  1  0  0  0  0
  8  6  1  0  0  0  0
  9  8  1  0  0  0  0
 10  8  1  0  0  0  0
 10 12  1  0  0  0  0
 11 10  1  0  0  0  0
 12 14  1  0  0  0  0
 13 12  1  0  0  0  0
 14  5  2  0  0  0  0
 14 15  1  0  0  0  0
 15 16  2  0  0  0  0
 15 23  1  0  0  0  0
 16 18  1  0  0  0  0
 17 16  1  0  0  0  0
 18  2  1  0  0  0  0
 18 19  2  0  0  0  0
 19 20  1  0  0  0  0
 21 19  1  0  0  0  0
 21 22  1  0  0  0  0
 23 21  2  0  0  0  0
 24 27  1  0  0  0  0
 25 24  1  0  0  0  0
 26 24  1  0  0  0  0
 27 29  1  0  0  0  0
 27 28  1  0  0  0  0
 27 30  1  0  0  0  0
M  END
