4,7
q = 0.0, confidence = 0.884

 51 51  0  0  1  0  0  0  0  0999 V2000
   -2.5265   -2.2516   -0.3642 Si  0  0  0  0  0  0  0  0  0  0  0  0
    2.6770    2.5214   -0.5923 Si  0  0  0  0  0  0  0  0  0  0  0  0
   -3.3440    2.0895   -0.1704 Si  0  0  0  0  0  0  0  0  0  0  0  0
   -1.1256   -1.0403   -0.6676 C   0  0  0  0  0  3  0  0  0  0  0  0
   -1.0381    0.2977   -0.1594 C   0  0  0  0  0  0  0  0  0  0  0  0
    0.0559    1.2266   -0.1323 C   0  0  0  0  0  0  0  0  0  0  0  0
    1.3963    1.1487   -0.6800 C   0  0  0  0  0  3  0  0  0  0  0  0
   -1.9023    1.1930    0.7461 C   0  0  1  0  0  0  0  0  0  0  0  0
   -0.6449    2.0676    0.8633 C   0  0  0  0  0  0  0  0  0  0  0  0
   -0.3451    3.1359    1.6310 C   0  0  0  0  0  0  0  0  0  0  0  0
   -1.8716   -4.0360   -0.3717 C   0  0  0  0  0  0  0  0  0  0  0  0
   -3.3414   -1.9600    1.3232 C   0  0  0  0  0  0  0  0  0  0  0  0
   -3.8238   -2.1462   -1.7499 C   0  0  0  0  0  0  0  0  0  0  0  0
    3.4312    2.7794    1.1317 C   0  0  0  0  0  0  0  0  0  0  0  0
    4.1214    2.0808   -1.7462 C   0  0  0  0  0  0  0  0  0  0  0  0
    1.9298    4.1566   -1.2054 C   0  0  0  0  0  0  0  0  0  0  0  0
   -4.9888    1.1705    0.0429 C   0  0  0  0  0  0  0  0  0  0  0  0
   -3.5743    3.8203    0.5641 C   0  0  0  0  0  0  0  0  0  0  0  0
   -2.8807    2.2173   -1.9985 C   0  0  0  0  0  0  0  0  0  0  0  0
   -0.6878   -1.1433   -1.6830 H   0  0  0  0  0  0  0  0  0  0  0  0
    1.3837    0.7555   -1.7196 H   0  0  0  0  0  0  0  0  0  0  0  0
   -2.2752    0.7626    1.7023 H   0  0  0  0  0  0  0  0  0  0  0  0
    0.6428    3.6163    1.5949 H   0  0  0  0  0  0  0  0  0  0  0  0
   -1.0867    3.5562    2.3268 H   0  0  0  0  0  0  0  0  0  0  0  0
   -1.5281   -4.3498   -1.3786 H   0  0  0  0  0  0  0  0  0  0  0  0
   -2.6765   -4.7375   -0.0684 H   0  0  0  0  0  0  0  0  0  0  0  0
   -1.0225   -4.1590    0.3309 H   0  0  0  0  0  0  0  0  0  0  0  0
   -4.1122   -2.7380    1.5028 H   0  0  0  0  0  0  0  0  0  0  0  0
   -3.8385   -0.9739    1.3880 H   0  0  0  0  0  0  0  0  0  0  0  0
   -2.6007   -2.0235    2.1457 H   0  0  0  0  0  0  0  0  0  0  0  0
   -3.3715   -2.4484   -2.7176 H   0  0  0  0  0  0  0  0  0  0  0  0
   -4.2143   -1.1168   -1.8768 H   0  0  0  0  0  0  0  0  0  0  0  0
   -4.6849   -2.8195   -1.5563 H   0  0  0  0  0  0  0  0  0  0  0  0
    3.9076    1.8458    1.4943 H   0  0  0  0  0  0  0  0  0  0  0  0
    2.6939    3.1024    1.8931 H   0  0  0  0  0  0  0  0  0  0  0  0
    4.2172    3.5614    1.0782 H   0  0  0  0  0  0  0  0  0  0  0  0
    4.7827    2.9625   -1.8756 H   0  0  0  0  0  0  0  0  0  0  0  0
    3.7705    1.7766   -2.7538 H   0  0  0  0  0  0  0  0  0  0  0  0
    4.7445    1.2612   -1.3336 H   0  0  0  0  0  0  0  0  0  0  0  0
    2.6666    4.9854   -1.1558 H   0  0  0  0  0  0  0  0  0  0  0  0
    1.0416    4.4453   -0.6082 H   0  0  0  0  0  0  0  0  0  0  0  0
    1.6010    4.0546   -2.2605 H   0  0  0  0  0  0  0  0  0  0  0  0
   -4.9754    0.1503   -0.3862 H   0  0  0  0  0  0  0  0  0  0  0  0
   -5.7986    1.7374   -0.4621 H   0  0  0  0  0  0  0  0  0  0  0  0
   -5.2609    1.0867    1.1155 H   0  0  0  0  0  0  0  0  0  0  0  0
   -2.6735    4.4457    0.4083 H   0  0  0  0  0  0  0  0  0  0  0  0
   -3.7753    3.7746    1.6545 H   0  0  0  0  0  0  0  0  0  0  0  0
   -4.4379    4.3268    0.0848 H   0  0  0  0  0  0  0  0  0  0  0  0
   -2.8000    1.2100   -2.4558 H   0  0  0  0  0  0  0  0  0  0  0  0
   -1.8973    2.7181   -2.1124 H   0  0  0  0  0  0  0  0  0  0  0  0
   -3.6347    2.7993   -2.5668 H   0  0  0  0  0  0  0  0  0  0  0  0
  1 12  1  0  0  0  0
  2 14  1  0  0  0  0
  3 17  1  0  0  0  0
  3 18  1  0  0  0  0
  3  8  1  0  0  0  0
  4  1  1  0  0  0  0
  4  5  1  0  0  0  0
  5  6  2  0  0  0  0
  5  8  1  0  0  0  0
  6  9  1  0  0  0  0
  7  2  1  0  0  0  0
  7  6  1  0  0  0  0
  8  9  1  0  0  0  0
  8 22  1  1  0  0  0
  9 10  2  0  0  0  0
 10 24  1  0  0  0  0
 11  1  1  0  0  0  0
 11 26  1  0  0  0  0
 11 27  1  0  0  0  0
 12 29  1  0  0  0  0
 12 28  1  0  0  0  0
 12 30  1  0  0  0  0
 13 33  1  0  0  0  0
 13  1  1  0  0  0  0
 14 34  1  0  0  0  0
 14 35  1  0  0  0  0
 15 39  1  0  0  0  0
 15  2  1  0  0  0  0
 16 40  1  0  0  0  0
 16 41  1  0  0  0  0
 16  2  1  0  0  0  0
 17 45  1  0  0  0  0
 18 47  1  0  0  0  0
 19  3  1  0  0  0  0
 20  4  1  0  0  0  0
 21  7  1  0  0  0  0
 23 10  1  0  0  0  0
 25 11  1  0  0  0  0
 31 13  1  0  0  0  0
 32 13  1  0  0  0  0
 36 14  1  0  0  0  0
 37 15  1  0  0  0  0
 38 15  1  0  0  0  0
 42 16  1  0  0  0  0
 43 17  1  0  0  0  0
 44 17  1  0  0  0  0
 46 18  1  0  0  0  0
 48 18  1  0  0  0  0
 49 19  1  0  0  0  0
 50 19  1  0  0  0  0
 51 19  1  0  0  0  0
M  END
