1,7
q = 0.0, confidence = 0.504

 20 19  0  0  0  0  0  0  0  0999 V2000
    2.1290    0.9943    1.1018 C   0  0  0  0  0  3  0  0  0  0  0  0
    2.8902    1.6101    0.0088 C   0  0  0  0  0  0  0  0  0  0  0  0
    4.1023    1.2031   -0.4667 C   0  0  0  0  0  0  0  0  0  0  0  0
    4.8260   -0.0120    0.0150 C   0  0  0  0  0  0  0  0  0  0  0  0
    4.3162   -1.3308   -0.6605 C   0  0  0  0  0  0  0  0  0  0  0  0
    3.0060   -1.8715   -0.1720 C   0  0  0  0  0  3  0  0  0  0  0  0
    1.9490   -2.2225   -1.0518 C   0  0  0  0  0  3  0  0  0  0  0  0
    0.6862   -2.6936   -0.6127 C   0  0  0  0  0  3  0  0  0  0  0  0
    2.7597    0.5054    1.8726 H   0  0  0  0  0  0  0  0  0  0  0  0
    1.4364    1.7106    1.5834 H   0  0  0  0  0  0  0  0  0  0  0  0
    2.4175    2.4772   -0.4880 H   0  0  0  0  0  0  0  0  0  0  0  0
    4.5364    1.7383   -1.3285 H   0  0  0  0  0  0  0  0  0  0  0  0
    5.9099    0.0777   -0.2037 H   0  0  0  0  0  0  0  0  0  0  0  0
    4.7366   -0.1313    1.1168 H   0  0  0  0  0  0  0  0  0  0  0  0
    4.2698   -1.1665   -1.7584 H   0  0  0  0  0  0  0  0  0  0  0  0
    5.0969   -2.1055   -0.4930 H   0  0  0  0  0  0  0  0  0  0  0  0
    3.0173   -2.3370    0.8324 H   0  0  0  0  0  0  0  0  0  0  0  0
    2.0624   -1.9350   -2.1143 H   0  0  0  0  0  0  0  0  0  0  0  0
    0.6083   -3.2751    0.3217 H   0  0  0  0  0  0  0  0  0  0  0  0
   -0.1004   -2.8878   -1.3575 H   0  0  0  0  0  0  0  0  0  0  0  0
  1 10  1  0  0  0  0
  1  9  1  0  0  0  0
  2  1  1  0  0  0  0
  3  2  2  0  0  0  0
  3  4  1  0  0  0  0
  4 14  1  0  0  0  0
  5 16  1  0  0  0  0
  5  6  1  0  0  0  0
  5  4  1  0  0  0  0
  6 17  1  0  0  0  0
  7  8  1  0  0  0  0
  7  6  1  0  0  0  0
  8 19  1  0  0  0  0
 11  2  1  0  0  0  0
 12  3  1  0  0  0  0
 13  4  1  0  0  0  0
 15  5  1  0  0  0  0
 18  7  1  0  0  0  0
 20  8  1  0  0  0  0
M  END
