1,9
q = -1.0, confidence = 0.068

 10  9  0  0  0  0  0  0  0  0999 V2000
   -1.9333    0.3359    1.3872 C   0  0  0  0  0  3  0  0  0  0  0  0
   -1.5314    0.5048    2.4101 H   0  0  0  0  0  0  0  0  0  0  0  0
   -3.3160    0.4359    1.2530 C   0  0  0  0  0  0  0  0  0  0  0  0
   -3.9404    0.5815    2.1515 H   0  0  0  0  0  0  0  0  0  0  0  0
   -3.9659    0.4500    0.0000 C   0  0  0  0  0  3  0  0  0  0  0  0
   -5.0629    0.5731    0.0000 H   0  0  0  0  0  0  0  0  0  0  0  0
   -3.3160    0.4360   -1.2530 C   0  0  0  0  0  0  0  0  0  0  0  0
   -3.9404    0.5816   -2.1515 H   0  0  0  0  0  0  0  0  0  0  0  0
   -1.9333    0.3360   -1.3872 C   0  0  0  0  0  3  0  0  0  0  0  0
   -1.5314    0.5049   -2.4100 H   0  0  0  0  0  0  0  0  0  0  0  0
  1  2  1  0  0  0  0
  3  1  2  0  0  0  0
  3  4  1  0  0  0  0
  5  6  1  0  0  0  0
  5  3  1  0  0  0  0
  7  5  1  0  0  0  0
  8  7  1  0  0  0  0
  9  7  2  0  0  0  0
 10  9  1  0  0  0  0
M  END
