8,15
q = -2.0, confidence = 0.684

 38 39  0  0  1  0  0  0  0  0999 V2000
    0.4740   -1.5004   -0.9947 P   0  0  0  0  0  2  0  0  0  0  0  0
   -0.4740   -1.5004    0.9946 P   0  0  0  0  0  2  0  0  0  0  0  0
    2.2115    0.4862    0.6024 C   0  0  2  0  0  3  0  0  0  0  0  0
    1.4678    0.6733    1.8267 C   0  0  0  0  0  0  0  0  0  0  0  0
    1.3543   -0.0758    2.6175 H   0  0  0  0  0  0  0  0  0  0  0  0
    0.8715    1.9669    1.8316 C   0  0  0  0  0  0  0  0  0  0  0  0
    0.2800    2.4057    2.6430 H   0  0  0  0  0  0  0  0  0  0  0  0
    1.2816    2.6195    0.6083 C   0  0  0  0  0  3  0  0  0  0  0  0
    1.0651    3.6583    0.3387 H   0  0  0  0  0  0  0  0  0  0  0  0
    2.0884    1.7056   -0.1659 C   0  0  0  0  0  3  0  0  0  0  0  0
    2.5937    1.9248   -1.1134 H   0  0  0  0  0  0  0  0  0  0  0  0
   -2.2116    0.4863   -0.6024 C   0  0  1  0  0  3  0  0  0  0  0  0
   -2.0883    1.7056    0.1660 C   0  0  0  0  0  3  0  0  0  0  0  0
   -2.5936    1.9248    1.1135 H   0  0  0  0  0  0  0  0  0  0  0  0
   -1.2815    2.6195   -0.6083 C   0  0  0  0  0  3  0  0  0  0  0  0
   -1.0651    3.6583   -0.3387 H   0  0  0  0  0  0  0  0  0  0  0  0
   -0.8716    1.9669   -1.8316 C   0  0  0  0  0  0  0  0  0  0  0  0
   -0.2802    2.4057   -2.6430 H   0  0  0  0  0  0  0  0  0  0  0  0
   -1.4679    0.6733   -1.8266 C   0  0  0  0  0  0  0  0  0  0  0  0
   -1.3545   -0.0758   -2.6175 H   0  0  0  0  0  0  0  0  0  0  0  0
    2.5687   -1.1965   -0.1743 Si  0  0  0  0  0  0  0  0  0  0  0  0
    3.1464   -2.4574    1.1025 C   0  0  0  0  0  0  0  0  0  0  0  0
    4.1030   -2.1443    1.5705 H   0  0  0  0  0  0  0  0  0  0  0  0
    3.2964   -3.4475    0.6259 H   0  0  0  0  0  0  0  0  0  0  0  0
    2.3821   -2.5757    1.8966 H   0  0  0  0  0  0  0  0  0  0  0  0
    3.8024   -1.0051   -1.5917 C   0  0  0  0  0  0  0  0  0  0  0  0
    3.4421   -0.2623   -2.3315 H   0  0  0  0  0  0  0  0  0  0  0  0
    3.9340   -1.9709   -2.1205 H   0  0  0  0  0  0  0  0  0  0  0  0
    4.7935   -0.6758   -1.2168 H   0  0  0  0  0  0  0  0  0  0  0  0
   -2.5688   -1.1965    0.1743 Si  0  0  0  0  0  0  0  0  0  0  0  0
   -3.1465   -2.4573   -1.1026 C   0  0  0  0  0  0  0  0  0  0  0  0
   -4.1031   -2.1442   -1.5705 H   0  0  0  0  0  0  0  0  0  0  0  0
   -3.2964   -3.4474   -0.6259 H   0  0  0  0  0  0  0  0  0  0  0  0
   -2.3822   -2.5756   -1.8966 H   0  0  0  0  0  0  0  0  0  0  0  0
   -3.8023   -1.0051    1.5918 C   0  0  0  0  0  0  0  0  0  0  0  0
   -3.4420   -0.2625    2.3316 H   0  0  0  0  0  0  0  0  0  0  0  0
   -3.9339   -1.9710    2.1206 H   0  0  0  0  0  0  0  0  0  0  0  0
   -4.7935   -0.6758    1.2170 H   0  0  0  0  0  0  0  0  0  0  0  0
  1 21  1  0  0  0  0
  1  2  1  0  0  0  0
  3 21  1  6  0  0  0
  3  4  1  0  0  0  0
  4  6  2  0  0  0  0
  4  5  1  0  0  0  0
  6  7  1  0  0  0  0
  8  6  1  0  0  0  0
  9  8  1  0  0  0  0
 10  3  1  0  0  0  0
 10  8  1  0  0  0  0
 11 10  1  0  0  0  0
 12 13  1  0  0  0  0
 12 30  1  1  0  0  0
 13 14  1  0  0  0  0
 15 16  1  0  0  0  0
 15 13  1  0  0  0  0
 17 19  2  0  0  0  0
 17 15  1  0  0  0  0
 18 17  1  0  0  0  0
 19 12  1  0  0  0  0
 20 19  1  0  0  0  0
 21 22  1  0  0  0  0
 22 23  1  0  0  0  0
 22 25  1  0  0  0  0
 24 22  1  0  0  0  0
 26 29  1  0  0  0  0
 26 21  1  0  0  0  0
 27 26  1  0  0  0  0
 28 26  1  0  0  0  0
 30  2  1  0  0  0  0
 30 35  1  0  0  0  0
 31 33  1  0  0  0  0
 31 30  1  0  0  0  0
 32 31  1  0  0  0  0
 34 31  1  0  0  0  0
 35 37  1  0  0  0  0
 35 36  1  0  0  0  0
 38 35  1  0  0  0  0
M  END
