3,5
q = 0.0, confidence = 0.612

 32 32  0  0  1  0  0  0  0  0999 V2000
   -3.0504    1.1731    0.0477 N   0  0  0  0  0  0  0  0  0  0  0  0
   -0.0050    0.9338    0.6392 C   0  0  0  0  0  3  0  0  0  0  0  0
    0.4609    0.0433    1.6407 C   0  0  0  0  0  3  0  0  0  0  0  0
    0.7126   -1.3283    1.3231 C   0  0  0  0  0  3  0  0  0  0  0  0
    0.5376   -1.7188   -0.0421 C   0  0  0  0  0  3  0  0  0  0  0  0
    0.0390   -0.7937   -0.9934 C   0  0  0  0  0  3  0  0  0  0  0  0
   -0.8005    0.3917   -0.5515 C   0  0  0  0  0  0  0  0  0  0  0  0
   -2.2863    0.1414   -0.2465 C   0  0  1  0  0  3  0  0  0  0  0  0
   -4.4397    1.0718    0.5224 C   0  0  0  0  0  0  0  0  0  0  0  0
   -2.6012    2.5737   -0.0386 C   0  0  0  0  0  0  0  0  0  0  0  0
   -2.7989   -1.2807   -0.2856 C   0  0  0  0  0  0  0  0  0  0  0  0
   -2.9186   -1.9114    1.1221 C   0  0  0  0  0  0  0  0  0  0  0  0
   -4.0432   -1.5048   -1.1698 C   0  0  0  0  0  0  0  0  0  0  0  0
   -0.0393    2.0067    0.8748 H   0  0  0  0  0  0  0  0  0  0  0  0
    0.7582    0.4313    2.6271 H   0  0  0  0  0  0  0  0  0  0  0  0
    1.1225   -2.0216    2.0689 H   0  0  0  0  0  0  0  0  0  0  0  0
    0.8972   -2.7057   -0.3712 H   0  0  0  0  0  0  0  0  0  0  0  0
    0.0503   -1.0765   -2.0567 H   0  0  0  0  0  0  0  0  0  0  0  0
   -0.7661    1.1490   -1.3642 H   0  0  0  0  0  0  0  0  0  0  0  0
   -5.1361    1.3468   -0.2946 H   0  0  0  0  0  0  0  0  0  0  0  0
   -4.5721    1.7886    1.3553 H   0  0  0  0  0  0  0  0  0  0  0  0
   -4.6660    0.0598    0.8836 H   0  0  0  0  0  0  0  0  0  0  0  0
   -1.7454    2.6877   -0.7223 H   0  0  0  0  0  0  0  0  0  0  0  0
   -3.4441    3.1829   -0.4154 H   0  0  0  0  0  0  0  0  0  0  0  0
   -2.3226    2.9412    0.9688 H   0  0  0  0  0  0  0  0  0  0  0  0
   -1.9707   -1.8260   -0.7805 H   0  0  0  0  0  0  0  0  0  0  0  0
   -1.9836   -1.7930    1.7018 H   0  0  0  0  0  0  0  0  0  0  0  0
   -3.7493   -1.4839    1.7174 H   0  0  0  0  0  0  0  0  0  0  0  0
   -3.1149   -2.9953    1.0090 H   0  0  0  0  0  0  0  0  0  0  0  0
   -4.9974   -1.2306   -0.6834 H   0  0  0  0  0  0  0  0  0  0  0  0
   -4.1056   -2.5840   -1.4107 H   0  0  0  0  0  0  0  0  0  0  0  0
   -3.9706   -0.9575   -2.1304 H   0  0  0  0  0  0  0  0  0  0  0  0
  1  9  1  0  0  0  0
  2 14  1  0  0  0  0
  2  3  1  0  0  0  0
  3 15  1  0  0  0  0
  4  3  1  0  0  0  0
  4 16  1  0  0  0  0
  5  4  1  0  0  0  0
  6  7  1  0  0  0  0
  6  5  1  0  0  0  0
  7  8  1  0  0  0  0
  7  2  1  0  0  0  0
  8 11  1  1  0  0  0
  8  1  1  0  0  0  0
  9 22  1  0  0  0  0
  9 21  1  0  0  0  0
 10  1  1  0  0  0  0
 10 25  1  0  0  0  0
 11 12  1  0  0  0  0
 12 27  1  0  0  0  0
 12 28  1  0  0  0  0
 13 30  1  0  0  0  0
 13 11  1  0  0  0  0
 17  5  1  0  0  0  0
 18  6  1  0  0  0  0
 19  7  1  0  0  0  0
 20  9  1  0  0  0  0
 23 10  1  0  0  0  0
 24 10  1  0  0  0  0
 26 11  1  0  0  0  0
 29 12  1  0  0  0  0
 31 13  1  0  0  0  0
 32 13  1  0  0  0  0
M  END
