3,7
q = -1.0, confidence = 0.016

 25 25  0  0  1  0  0  0  0  0999 V2000
   -2.2084    2.7045    0.0019 C   0  0  0  0  0  0  0  0  0  0  0  0
   -0.9938    1.8302    0.0014 C   0  0  1  0  0  3  0  0  0  0  0  0
   -0.3764    1.3597    1.2166 C   0  0  0  0  0  3  0  0  0  0  0  0
    0.8148    0.6006    1.1622 C   0  0  0  0  0  3  0  0  0  0  0  0
    1.7749    0.7871    0.0005 C   0  0  2  0  0  0  0  0  0  0  0  0
    0.8148    0.6023   -1.1614 C   0  0  0  0  0  3  0  0  0  0  0  0
   -0.3764    1.3616   -1.2146 C   0  0  0  0  0  3  0  0  0  0  0  0
    3.0077   -0.1438   -0.0003 C   0  0  0  0  0  0  0  0  0  0  0  0
    3.8540    0.0742    1.2608 C   0  0  0  0  0  0  0  0  0  0  0  0
    3.8542    0.0768   -1.2609 C   0  0  0  0  0  0  0  0  0  0  0  0
   -2.8309    2.5468   -0.8992 H   0  0  0  0  0  0  0  0  0  0  0  0
   -1.8905    3.7692    0.0022 H   0  0  0  0  0  0  0  0  0  0  0  0
   -2.8306    2.5462    0.9032 H   0  0  0  0  0  0  0  0  0  0  0  0
   -0.9063    1.5081    2.1718 H   0  0  0  0  0  0  0  0  0  0  0  0
    1.1583    0.1085    2.0856 H   0  0  0  0  0  0  0  0  0  0  0  0
    2.1657    1.8345    0.0013 H   0  0  0  0  0  0  0  0  0  0  0  0
    1.1581    0.1115   -2.0856 H   0  0  0  0  0  0  0  0  0  0  0  0
   -0.9064    1.5113   -2.1696 H   0  0  0  0  0  0  0  0  0  0  0  0
    2.6494   -1.1964   -0.0015 H   0  0  0  0  0  0  0  0  0  0  0  0
    3.3027   -0.1397    2.1984 H   0  0  0  0  0  0  0  0  0  0  0  0
    4.2250    1.1191    1.3146 H   0  0  0  0  0  0  0  0  0  0  0  0
    4.7389   -0.5911    1.2507 H   0  0  0  0  0  0  0  0  0  0  0  0
    3.3028   -0.1349   -2.1990 H   0  0  0  0  0  0  0  0  0  0  0  0
    4.7389   -0.5888   -1.2523 H   0  0  0  0  0  0  0  0  0  0  0  0
    4.2254    1.1218   -1.3123 H   0  0  0  0  0  0  0  0  0  0  0  0
  1 12  1  0  0  0  0
  1 13  1  0  0  0  0
  2  1  1  6  0  0  0
  2  3  1  0  0  0  0
  3 14  1  0  0  0  0
  4  3  1  0  0  0  0
  4 15  1  0  0  0  0
  5 16  1  1  0  0  0
  5  4  1  0  0  0  0
  6  5  1  0  0  0  0
  7  6  1  0  0  0  0
  7  2  1  0  0  0  0
  8  5  1  0  0  0  0
  8  9  1  0  0  0  0
  9 21  1  0  0  0  0
  9 20  1  0  0  0  0
 10 24  1  0  0  0  0
 10  8  1  0  0  0  0
 11  1  1  0  0  0  0
 17  6  1  0  0  0  0
 18  7  1  0  0  0  0
 19  8  1  0  0  0  0
 22  9  1  0  0  0  0
 23 10  1  0  0  0  0
 25 10  1  0  0  0  0
M  END
