8,11
q = 0.0, confidence = 0.966

 22 23  0  0  0  0  0  0  0  0999 V2000
    1.7188   -1.5826    0.3204 C   0  0  0  0  0  0  0  0  0  0  0  0
    3.0710   -1.5872    0.4400 C   0  0  0  0  0  0  0  0  0  0  0  0
    4.0704   -0.6809   -0.1114 C   0  0  0  0  0  0  0  0  0  0  0  0
    4.0704    0.6811   -0.1118 C   0  0  0  0  0  0  0  0  0  0  0  0
    3.0709    1.5875    0.4392 C   0  0  0  0  0  0  0  0  0  0  0  0
    1.7187    1.5827    0.3195 C   0  0  0  0  0  0  0  0  0  0  0  0
    0.8542    0.7244   -0.5200 C   0  0  0  0  0  0  0  0  0  0  0  0
   -0.1130    1.4071   -1.3191 C   0  0  0  0  0  3  0  0  0  0  0  0
   -1.0569    0.7048   -2.1278 C   0  0  0  0  0  0  0  0  0  0  0  0
   -1.0569   -0.7063   -2.1273 C   0  0  0  0  0  0  0  0  0  0  0  0
   -0.1130   -1.4081   -1.3182 C   0  0  0  0  0  3  0  0  0  0  0  0
    0.8542   -0.7250   -0.5195 C   0  0  0  0  0  0  0  0  0  0  0  0
    1.1758   -2.4177    0.7938 H   0  0  0  0  0  0  0  0  0  0  0  0
    3.4939   -2.4477    0.9900 H   0  0  0  0  0  0  0  0  0  0  0  0
    4.9952   -1.1728   -0.4619 H   0  0  0  0  0  0  0  0  0  0  0  0
    4.9951    1.1728   -0.4625 H   0  0  0  0  0  0  0  0  0  0  0  0
    3.4937    2.4483    0.9888 H   0  0  0  0  0  0  0  0  0  0  0  0
    1.1755    2.4178    0.7926 H   0  0  0  0  0  0  0  0  0  0  0  0
   -0.1508    2.5046   -1.2736 H   0  0  0  0  0  0  0  0  0  0  0  0
   -1.8131    1.2620   -2.6974 H   0  0  0  0  0  0  0  0  0  0  0  0
   -1.8132   -1.2639   -2.6965 H   0  0  0  0  0  0  0  0  0  0  0  0
   -0.1507   -2.5056   -1.2721 H   0  0  0  0  0  0  0  0  0  0  0  0
  1  2  2  0  0  0  0
  1 13  1  0  0  0  0
  2 14  1  0  0  0  0
  3  2  1  0  0  0  0
  4  3  2  0  0  0  0
  4  5  1  0  0  0  0
  5 17  1  0  0  0  0
  6  5  2  0  0  0  0
  6 18  1  0  0  0  0
  7 12  2  0  0  0  0
  7  6  1  0  0  0  0
  8 19  1  0  0  0  0
  8  7  1  0  0  0  0
  9 10  2  0  0  0  0
  9  8  1  0  0  0  0
 10 11  1  0  0  0  0
 11 22  1  0  0  0  0
 11 12  1  0  0  0  0
 12  1  1  0  0  0  0
 15  3  1  0  0  0  0
 16  4  1  0  0  0  0
 20  9  1  0  0  0  0
 21 10  1  0  0  0  0
M  END
