21,45
q = -2.0, confidence = 0.664

 57 62  0  0  1  0  0  0  0  0999 V2000
   -0.0000    3.0061    0.0000 Si  0  0  0  0  0  0  0  0  0  0  0  0
   -1.0470    1.7192    0.9036 C   0  0  1  0  0  3  0  0  0  0  0  0
   -2.1536    1.0029    0.3084 C   0  0  0  0  0  0  0  0  0  0  0  0
   -3.0612    1.3478   -0.7505 C   0  0  0  0  0  0  0  0  0  0  0  0
   -2.9690    2.3164   -1.2594 H   0  0  0  0  0  0  0  0  0  0  0  0
   -4.0886    0.4927   -1.0766 C   0  0  0  0  0  0  0  0  0  0  0  0
   -4.7981    0.7665   -1.8730 H   0  0  0  0  0  0  0  0  0  0  0  0
   -4.2979   -0.7589   -0.3887 C   0  0  0  0  0  0  0  0  0  0  0  0
   -5.3604   -1.6303   -0.7449 C   0  0  0  0  0  0  0  0  0  0  0  0
   -6.0260   -1.3416   -1.5737 H   0  0  0  0  0  0  0  0  0  0  0  0
   -5.5631   -2.8302   -0.0674 C   0  0  0  0  0  0  0  0  0  0  0  0
   -6.3894   -3.4958   -0.3591 H   0  0  0  0  0  0  0  0  0  0  0  0
   -4.7052   -3.1941    0.9952 C   0  0  0  0  0  0  0  0  0  0  0  0
   -4.8639   -4.1437    1.5283 H   0  0  0  0  0  0  0  0  0  0  0  0
   -3.6568   -2.3540    1.3692 C   0  0  0  0  0  0  0  0  0  0  0  0
   -2.9888   -2.6436    2.1940 H   0  0  0  0  0  0  0  0  0  0  0  0
   -3.4302   -1.1317    0.6927 C   0  0  0  0  0  0  0  0  0  0  0  0
   -2.3502   -0.2346    1.0260 C   0  0  0  0  0  0  0  0  0  0  0  0
   -1.3706   -0.2812    2.0578 C   0  0  0  0  0  3  0  0  0  0  0  0
   -1.2610   -1.0650    2.8148 H   0  0  0  0  0  0  0  0  0  0  0  0
   -0.5975    0.9116    2.0154 C   0  0  2  0  0  3  0  0  0  0  0  0
    0.4568    1.2387    3.0361 C   0  0  0  0  0  0  0  0  0  0  0  0
    0.1922    2.1635    3.5890 H   0  0  0  0  0  0  0  0  0  0  0  0
    1.4596    1.3860    2.5934 H   0  0  0  0  0  0  0  0  0  0  0  0
    0.5468    0.4163    3.7707 H   0  0  0  0  0  0  0  0  0  0  0  0
    1.0470    1.7192   -0.9036 C   0  0  1  0  0  3  0  0  0  0  0  0
    2.1535    1.0029   -0.3085 C   0  0  0  0  0  0  0  0  0  0  0  0
    3.0612    1.3479    0.7504 C   0  0  0  0  0  0  0  0  0  0  0  0
    2.9691    2.3164    1.2592 H   0  0  0  0  0  0  0  0  0  0  0  0
    4.0887    0.4927    1.0764 C   0  0  0  0  0  0  0  0  0  0  0  0
    4.7982    0.7665    1.8729 H   0  0  0  0  0  0  0  0  0  0  0  0
    4.2979   -0.7589    0.3885 C   0  0  0  0  0  0  0  0  0  0  0  0
    5.3604   -1.6303    0.7447 C   0  0  0  0  0  0  0  0  0  0  0  0
    6.0260   -1.3416    1.5735 H   0  0  0  0  0  0  0  0  0  0  0  0
    5.5630   -2.8303    0.0672 C   0  0  0  0  0  0  0  0  0  0  0  0
    6.3894   -3.4958    0.3590 H   0  0  0  0  0  0  0  0  0  0  0  0
    4.7050   -3.1942   -0.9953 C   0  0  0  0  0  0  0  0  0  0  0  0
    4.8637   -4.1438   -1.5283 H   0  0  0  0  0  0  0  0  0  0  0  0
    3.6566   -2.3540   -1.3693 C   0  0  0  0  0  0  0  0  0  0  0  0
    2.9885   -2.6437   -2.1940 H   0  0  0  0  0  0  0  0  0  0  0  0
    3.4301   -1.1318   -0.6927 C   0  0  0  0  0  0  0  0  0  0  0  0
    2.3500   -0.2347   -1.0260 C   0  0  0  0  0  0  0  0  0  0  0  0
    1.3704   -0.2812   -2.0577 C   0  0  0  0  0  3  0  0  0  0  0  0
    1.2608   -1.0651   -2.8148 H   0  0  0  0  0  0  0  0  0  0  0  0
    0.5973    0.9116   -2.0154 C   0  0  2  0  0  3  0  0  0  0  0  0
   -0.4568    1.2387   -3.0361 C   0  0  0  0  0  0  0  0  0  0  0  0
   -0.1918    2.1632   -3.5895 H   0  0  0  0  0  0  0  0  0  0  0  0
   -1.4596    1.3866   -2.5934 H   0  0  0  0  0  0  0  0  0  0  0  0
   -0.5472    0.4161   -3.7704 H   0  0  0  0  0  0  0  0  0  0  0  0
   -0.9648    4.1459   -1.1584 C   0  0  0  0  0  0  0  0  0  0  0  0
   -0.2645    4.8924   -1.5873 H   0  0  0  0  0  0  0  0  0  0  0  0
   -1.7397    4.6984   -0.5883 H   0  0  0  0  0  0  0  0  0  0  0  0
   -1.4554    3.6273   -2.0013 H   0  0  0  0  0  0  0  0  0  0  0  0
    0.9648    4.1458    1.1584 C   0  0  0  0  0  0  0  0  0  0  0  0
    1.7396    4.6984    0.5883 H   0  0  0  0  0  0  0  0  0  0  0  0
    1.4555    3.6272    2.0012 H   0  0  0  0  0  0  0  0  0  0  0  0
    0.2645    4.8922    1.5875 H   0  0  0  0  0  0  0  0  0  0  0  0
  1 54  1  0  0  0  0
  2  1  1  6  0  0  0
  2 21  1  0  0  0  0
  3  2  1  0  0  0  0
  3 18  1  0  0  0  0
  4  3  2  0  0  0  0
  5  4  1  0  0  0  0
  6  4  1  0  0  0  0
  6  8  2  0  0  0  0
  7  6  1  0  0  0  0
  8 17  1  0  0  0  0
  9  8  1  0  0  0  0
  9 11  2  0  0  0  0
 10  9  1  0  0  0  0
 11 13  1  0  0  0  0
 12 11  1  0  0  0  0
 13 15  2  0  0  0  0
 13 14  1  0  0  0  0
 15 16  1  0  0  0  0
 17 18  2  0  0  0  0
 17 15  1  0  0  0  0
 18 19  1  0  0  0  0
 19 20  1  0  0  0  0
 21 19  1  0  0  0  0
 21 22  1  1  0  0  0
 22 23  1  0  0  0  0
 22 25  1  0  0  0  0
 24 22  1  0  0  0  0
 26 27  1  0  0  0  0
 26  1  1  1  0  0  0
 27 28  1  0  0  0  0
 28 30  2  0  0  0  0
 28 29  1  0  0  0  0
 30 31  1  0  0  0  0
 32 33  1  0  0  0  0
 32 30  1  0  0  0  0
 33 34  1  0  0  0  0
 35 36  1  0  0  0  0
 35 33  2  0  0  0  0
 37 35  1  0  0  0  0
 38 37  1  0  0  0  0
 39 37  2  0  0  0  0
 39 41  1  0  0  0  0
 40 39  1  0  0  0  0
 41 32  2  0  0  0  0
 42 41  1  0  0  0  0
 42 27  2  0  0  0  0
 43 45  1  0  0  0  0
 43 42  1  0  0  0  0
 44 43  1  0  0  0  0
 45 46  1  6  0  0  0
 45 26  1  0  0  0  0
 46 48  1  0  0  0  0
 47 46  1  0  0  0  0
 49 46  1  0  0  0  0
 50 52  1  0  0  0  0
 50  1  1  0  0  0  0
 51 50  1  0  0  0  0
 53 50  1  0  0  0  0
 54 57  1  0  0  0  0
 54 56  1  0  0  0  0
 55 54  1  0  0  0  0
M  END
