12,15
q = 0.0, confidence = 1.0

 42 44  0  0  1  0  0  0  0  0999 V2000
    4.1312   -0.2319   -0.6249 S   0  0  0  0  0  0  0  0  0  0  0  0
    4.5348   -1.8469   -1.1197 C   0  0  0  0  0  0  0  0  0  0  0  0
    3.9901   -2.7916   -0.2729 C   0  0  0  0  0  0  0  0  0  0  0  0
    3.2540   -2.1993    0.7996 C   0  0  0  0  0  0  0  0  0  0  0  0
    3.2354   -0.8144    0.7592 C   0  0  0  0  0  0  0  0  0  0  0  0
    2.5714    0.1281    1.7132 C   0  0  0  0  0  0  0  0  0  0  0  0
    1.5043    1.0489    1.0502 C   0  0  1  0  0  0  0  0  0  0  0  0
    2.1742    1.9602    0.1215 N   0  0  0  0  0  0  0  0  0  0  0  0
    2.7719    3.0986    0.7939 C   0  0  0  0  0  0  0  0  0  0  0  0
    1.4232    2.3505   -1.0658 C   0  0  0  0  0  0  0  0  0  0  0  0
    1.0065    1.1270   -1.8734 C   0  0  0  0  0  0  0  0  0  0  0  0
    0.2286    0.1756   -1.0069 C   0  0  2  0  0  3  0  0  0  0  0  0
   -0.7665   -0.6978   -1.5609 C   0  0  0  0  0  0  0  0  0  0  0  0
    0.4389    0.1867    0.3943 C   0  0  1  0  0  3  0  0  0  0  0  0
   -0.3579   -0.6659    1.2315 C   0  0  0  0  0  3  0  0  0  0  0  0
   -1.3240   -1.5464    0.6865 C   0  0  1  0  0  3  0  0  0  0  0  0
   -2.1045   -2.3812    1.4042 O   0  0  0  0  0  0  0  0  0  0  0  0
   -2.2380   -2.1257    2.7951 C   0  0  0  0  0  0  0  0  0  0  0  0
   -1.5287   -1.5689   -0.7448 C   0  0  0  0  0  0  0  0  0  0  0  0
   -2.4751   -2.4220   -1.1880 O   0  0  0  0  0  0  0  0  0  0  0  0
   -2.9959   -2.2091   -2.4925 C   0  0  0  0  0  0  0  0  0  0  0  0
    5.1350   -2.0091   -2.0237 H   0  0  0  0  0  0  0  0  0  0  0  0
    4.1104   -3.8747   -0.4137 H   0  0  0  0  0  0  0  0  0  0  0  0
    2.7485   -2.7714    1.5909 H   0  0  0  0  0  0  0  0  0  0  0  0
    2.0988   -0.4674    2.5199 H   0  0  0  0  0  0  0  0  0  0  0  0
    3.3188    0.7785    2.2153 H   0  0  0  0  0  0  0  0  0  0  0  0
    1.0040    1.6202    1.8740 H   0  0  0  0  0  0  0  0  0  0  0  0
    3.4067    3.6636    0.0821 H   0  0  0  0  0  0  0  0  0  0  0  0
    3.4241    2.7660    1.6258 H   0  0  0  0  0  0  0  0  0  0  0  0
    2.0120    3.8049    1.2187 H   0  0  0  0  0  0  0  0  0  0  0  0
    0.5136    2.9558   -0.8149 H   0  0  0  0  0  0  0  0  0  0  0  0
    2.0841    2.9971   -1.6789 H   0  0  0  0  0  0  0  0  0  0  0  0
    1.9122    0.6116   -2.2591 H   0  0  0  0  0  0  0  0  0  0  0  0
    0.3922    1.4372   -2.7422 H   0  0  0  0  0  0  0  0  0  0  0  0
   -0.9500   -0.6619   -2.6421 H   0  0  0  0  0  0  0  0  0  0  0  0
   -0.2285   -0.6128    2.3195 H   0  0  0  0  0  0  0  0  0  0  0  0
   -3.0263   -2.8076    3.1618 H   0  0  0  0  0  0  0  0  0  0  0  0
   -2.5454   -1.0715    2.9717 H   0  0  0  0  0  0  0  0  0  0  0  0
   -1.2956   -2.3348    3.3482 H   0  0  0  0  0  0  0  0  0  0  0  0
   -3.8461   -2.9059   -2.6044 H   0  0  0  0  0  0  0  0  0  0  0  0
   -2.2433   -2.4295   -3.2812 H   0  0  0  0  0  0  0  0  0  0  0  0
   -3.3551   -1.1624   -2.6048 H   0  0  0  0  0  0  0  0  0  0  0  0
  1  5  1  0  0  0  0
  2  1  1  0  0  0  0
  2  3  2  0  0  0  0
  3  4  1  0  0  0  0
  4 24  1  0  0  0  0
  5  4  2  0  0  0  0
  5  6  1  0  0  0  0
  6 26  1  0  0  0  0
  6 25  1  0  0  0  0
  7  6  1  0  0  0  0
  7 27  1  1  0  0  0
  8  9  1  0  0  0  0
  8  7  1  0  0  0  0
  9 30  1  0  0  0  0
  9 29  1  0  0  0  0
 10 31  1  0  0  0  0
 10  8  1  0  0  0  0
 11 10  1  0  0  0  0
 11 12  1  0  0  0  0
 12 13  1  1  0  0  0
 12 14  1  0  0  0  0
 13 19  2  0  0  0  0
 14  7  1  0  0  0  0
 14 15  1  6  0  0  0
 15 36  1  0  0  0  0
 16 15  1  0  0  0  0
 16 17  1  1  0  0  0
 17 18  1  0  0  0  0
 18 38  1  0  0  0  0
 18 37  1  0  0  0  0
 18 39  1  0  0  0  0
 19 16  1  0  0  0  0
 20 19  1  0  0  0  0
 21 20  1  0  0  0  0
 22  2  1  0  0  0  0
 23  3  1  0  0  0  0
 28  9  1  0  0  0  0
 32 10  1  0  0  0  0
 33 11  1  0  0  0  0
 34 11  1  0  0  0  0
 35 13  1  0  0  0  0
 40 21  1  0  0  0  0
 41 21  1  0  0  0  0
 42 21  1  0  0  0  0
M  END
