4,15
q = -1.0, confidence = 0.0

 29 30  0  0  0  0  0  0  0  0999 V2000
   -2.9528   -0.3632    1.2567 N   0  0  0  0  0  0  0  0  0  0  0  0
   -4.0299   -1.1257    1.0082 N   0  0  0  0  0  2  0  0  0  0  0  0
   -3.6307   -1.9102    0.0054 N   0  0  0  0  0  0  0  0  0  0  0  0
   -1.8702   -0.6139    0.4553 C   0  0  0  0  0  3  0  0  0  0  0  0
   -2.3396   -1.6559   -0.3745 C   0  0  0  0  0  0  0  0  0  0  0  0
   -1.4402   -2.1831   -1.3810 C   0  0  0  0  0  0  0  0  0  0  0  0
   -1.7019   -3.2194   -2.3022 C   0  0  0  0  0  0  0  0  0  0  0  0
   -2.6740   -3.7334   -2.3106 H   0  0  0  0  0  0  0  0  0  0  0  0
   -0.7171   -3.6046   -3.2200 C   0  0  0  0  0  0  0  0  0  0  0  0
   -0.9176   -4.4116   -3.9405 H   0  0  0  0  0  0  0  0  0  0  0  0
    0.5252   -2.9494   -3.2078 C   0  0  0  0  0  0  0  0  0  0  0  0
    1.3058   -3.2455   -3.9270 H   0  0  0  0  0  0  0  0  0  0  0  0
    0.7868   -1.9201   -2.2879 C   0  0  0  0  0  0  0  0  0  0  0  0
    1.7760   -1.4394   -2.3126 H   0  0  0  0  0  0  0  0  0  0  0  0
   -0.1741   -1.4923   -1.3462 C   0  0  0  0  0  3  0  0  0  0  0  0
   -3.0861    0.6858    2.2666 C   0  0  0  0  0  0  0  0  0  0  0  0
   -2.0638    0.8878    2.6343 H   0  0  0  0  0  0  0  0  0  0  0  0
   -3.6793    0.2607    3.0999 H   0  0  0  0  0  0  0  0  0  0  0  0
   -3.7388    1.9464    1.7060 C   0  0  0  0  0  0  0  0  0  0  0  0
   -3.7971    2.7235    2.4933 H   0  0  0  0  0  0  0  0  0  0  0  0
   -4.7652    1.7297    1.3500 H   0  0  0  0  0  0  0  0  0  0  0  0
   -3.1520    2.3568    0.8610 H   0  0  0  0  0  0  0  0  0  0  0  0
   -4.5561   -2.9016   -0.5510 C   0  0  0  0  0  0  0  0  0  0  0  0
   -4.0766   -3.8966   -0.4386 H   0  0  0  0  0  0  0  0  0  0  0  0
   -4.6266   -2.7007   -1.6402 H   0  0  0  0  0  0  0  0  0  0  0  0
   -5.9293   -2.8771    0.1008 C   0  0  0  0  0  0  0  0  0  0  0  0
   -6.5660   -3.6480   -0.3753 H   0  0  0  0  0  0  0  0  0  0  0  0
   -6.4166   -1.8916   -0.0216 H   0  0  0  0  0  0  0  0  0  0  0  0
   -5.8669   -3.0901    1.1844 H   0  0  0  0  0  0  0  0  0  0  0  0
  1 16  1  0  0  0  0
  2  1  1  0  0  0  0
  3  2  1  0  0  0  0
  4  1  1  0  0  0  0
  5  3  1  0  0  0  0
  5  4  2  0  0  0  0
  6 15  1  0  0  0  0
  6  5  1  0  0  0  0
  7  6  2  0  0  0  0
  8  7  1  0  0  0  0
  9 11  2  0  0  0  0
  9  7  1  0  0  0  0
 10  9  1  0  0  0  0
 11 13  1  0  0  0  0
 12 11  1  0  0  0  0
 13 15  2  0  0  0  0
 14 13  1  0  0  0  0
 16 17  1  0  0  0  0
 16 18  1  0  0  0  0
 19 16  1  0  0  0  0
 19 20  1  0  0  0  0
 21 19  1  0  0  0  0
 22 19  1  0  0  0  0
 23 24  1  0  0  0  0
 23  3  1  0  0  0  0
 23 26  1  0  0  0  0
 25 23  1  0  0  0  0
 26 29  1  0  0  0  0
 27 26  1  0  0  0  0
 28 26  1  0  0  0  0
M  END
