24,26
q = -2.0, confidence = 0.774

 72 76  0  0  1  0  0  0  0  0999 V2000
   -3.4027   -2.9796   -0.3381 S   0  0  0  0  0  0  0  0  0  0  0  0
   -1.0492    0.1516    3.8605 O   0  0  0  0  0  0  0  0  0  0  0  0
   -2.2844    0.8459   -1.1001 O   0  0  0  0  0  0  0  0  0  0  0  0
    2.3703   -2.6366    0.6790 O   0  0  0  0  0  0  0  0  0  0  0  0
    4.4686   -1.9112    1.1352 O   0  0  0  0  0  0  0  0  0  0  0  0
    4.8507    0.7671   -1.4141 O   0  0  0  0  0  0  0  0  0  0  0  0
    4.5598   -1.4482   -1.8286 O   0  0  0  0  0  0  0  0  0  0  0  0
   -2.9863   -3.5264   -1.6452 O   0  0  0  0  0  0  0  0  0  0  0  0
   -3.9448   -3.8140    0.7532 O   0  0  0  0  0  0  0  0  0  0  0  0
   -2.0338   -2.2331    0.3011 N   0  0  0  0  0  0  0  0  0  0  0  0
    0.8025    0.1913   -0.0476 C   0  0  1  0  0  3  0  0  0  0  0  0
   -0.5850   -0.3769    0.1951 C   0  0  1  0  0  0  0  0  0  0  0  0
   -1.0124   -1.6317   -0.5712 C   0  0  0  0  0  0  0  0  0  0  0  0
   -1.4273   -1.3674   -1.5639 H   0  0  0  0  0  0  0  0  0  0  0  0
   -0.1709   -2.3417   -0.7001 H   0  0  0  0  0  0  0  0  0  0  0  0
   -2.1118   -1.5984    1.6178 C   0  0  0  0  0  0  0  0  0  0  0  0
   -2.1808   -2.3434    2.4324 H   0  0  0  0  0  0  0  0  0  0  0  0
   -2.9947   -0.9182    1.6984 H   0  0  0  0  0  0  0  0  0  0  0  0
   -0.8045   -0.7895    1.6702 C   0  0  2  0  0  0  0  0  0  0  0  0
    0.0274   -1.4647    1.9699 H   0  0  0  0  0  0  0  0  0  0  0  0
   -0.8514    0.3537    2.6729 C   0  0  0  0  0  0  0  0  0  0  0  0
   -0.5912    1.7650    2.1060 C   0  0  1  0  0  0  0  0  0  0  0  0
    0.9308    1.8838    1.8196 C   0  0  2  0  0  3  0  0  0  0  0  0
    1.5428    0.9207    0.9510 C   0  0  2  0  0  3  0  0  0  0  0  0
   -1.4974    0.8386   -0.1541 C   0  0  0  0  0  0  0  0  0  0  0  0
   -1.1546    1.9821    0.6937 C   0  0  0  0  0  3  0  0  0  0  0  0
   -1.8494    2.8345    0.5975 H   0  0  0  0  0  0  0  0  0  0  0  0
   -1.1127    2.8219    3.0759 C   0  0  0  0  0  0  0  0  0  0  0  0
   -2.2123    2.7265    3.1675 H   0  0  0  0  0  0  0  0  0  0  0  0
   -0.8843    3.8406    2.7055 H   0  0  0  0  0  0  0  0  0  0  0  0
   -0.6846    2.6911    4.0867 H   0  0  0  0  0  0  0  0  0  0  0  0
    1.7959    2.6698    2.7690 C   0  0  0  0  0  0  0  0  0  0  0  0
    2.8262    2.7875    2.3836 H   0  0  0  0  0  0  0  0  0  0  0  0
    1.8578    2.1528    3.7527 H   0  0  0  0  0  0  0  0  0  0  0  0
    1.3901    3.6805    2.9622 H   0  0  0  0  0  0  0  0  0  0  0  0
    3.0339    0.6696    0.8246 C   0  0  0  0  0  0  0  0  0  0  0  0
    3.4713    0.3720    1.7993 H   0  0  0  0  0  0  0  0  0  0  0  0
    3.6133    1.5441    0.4704 H   0  0  0  0  0  0  0  0  0  0  0  0
    3.1356   -0.4847   -0.2100 C   0  0  0  0  0  0  0  0  0  0  0  0
    1.7906   -0.4770   -0.9950 C   0  0  0  0  0  0  0  0  0  0  0  0
    1.8967    0.0781   -1.9467 H   0  0  0  0  0  0  0  0  0  0  0  0
    1.5048   -1.5125   -1.2494 H   0  0  0  0  0  0  0  0  0  0  0  0
    3.2555   -1.8109    0.5553 C   0  0  0  0  0  0  0  0  0  0  0  0
    4.7038   -3.1049    1.9198 C   0  0  0  0  0  0  0  0  0  0  0  0
    3.9569   -3.1417    2.7407 H   0  0  0  0  0  0  0  0  0  0  0  0
    4.5186   -3.9908    1.2771 H   0  0  0  0  0  0  0  0  0  0  0  0
    6.1261   -3.0490    2.4344 C   0  0  0  0  0  0  0  0  0  0  0  0
    6.8506   -3.0108    1.5970 H   0  0  0  0  0  0  0  0  0  0  0  0
    6.3438   -3.9504    3.0404 H   0  0  0  0  0  0  0  0  0  0  0  0
    6.2857   -2.1569    3.0720 H   0  0  0  0  0  0  0  0  0  0  0  0
    4.2952   -0.2935   -1.1848 C   0  0  0  0  0  0  0  0  0  0  0  0
    5.5563   -1.3987   -2.8800 C   0  0  0  0  0  0  0  0  0  0  0  0
    6.3686   -0.7138   -2.5642 H   0  0  0  0  0  0  0  0  0  0  0  0
    5.9488   -2.4323   -2.9361 H   0  0  0  0  0  0  0  0  0  0  0  0
    4.9423   -0.9559   -4.1967 C   0  0  0  0  0  0  0  0  0  0  0  0
    4.0953   -1.6113   -4.4808 H   0  0  0  0  0  0  0  0  0  0  0  0
    5.7016   -1.0030   -5.0030 H   0  0  0  0  0  0  0  0  0  0  0  0
    4.5814    0.0890   -4.1292 H   0  0  0  0  0  0  0  0  0  0  0  0
   -4.5844   -1.6591   -0.6284 C   0  0  0  0  0  0  0  0  0  0  0  0
   -4.5863   -0.9894   -1.8622 C   0  0  0  0  0  0  0  0  0  0  0  0
   -3.9145   -1.3264   -2.6631 H   0  0  0  0  0  0  0  0  0  0  0  0
   -5.4531    0.0913   -2.0461 C   0  0  0  0  0  0  0  0  0  0  0  0
   -5.4552    0.6219   -3.0112 H   0  0  0  0  0  0  0  0  0  0  0  0
   -6.3212    0.5193   -1.0183 C   0  0  0  0  0  0  0  0  0  0  0  0
   -6.3110   -0.1844    0.2028 C   0  0  0  0  0  0  0  0  0  0  0  0
   -6.9968    0.1213    1.0087 H   0  0  0  0  0  0  0  0  0  0  0  0
   -5.4518   -1.2737    0.4058 C   0  0  0  0  0  0  0  0  0  0  0  0
   -5.4629   -1.8462    1.3443 H   0  0  0  0  0  0  0  0  0  0  0  0
   -7.2250    1.7071   -1.2279 C   0  0  0  0  0  0  0  0  0  0  0  0
   -6.6358    2.6473   -1.2817 H   0  0  0  0  0  0  0  0  0  0  0  0
   -7.9574    1.8166   -0.4049 H   0  0  0  0  0  0  0  0  0  0  0  0
   -7.7865    1.6264   -2.1810 H   0  0  0  0  0  0  0  0  0  0  0  0
  1 10  1  0  0  0  0
  1  9  2  0  0  0  0
  3 25  2  0  0  0  0
  5 44  1  0  0  0  0
  6 51  2  0  0  0  0
  7 51  1  0  0  0  0
  8  1  2  0  0  0  0
 10 16  1  0  0  0  0
 11 40  1  1  0  0  0
 11 12  1  0  0  0  0
 11 24  1  0  0  0  0
 12 25  1  6  0  0  0
 12 19  1  0  0  0  0
 13 12  1  0  0  0  0
 13 10  1  0  0  0  0
 14 13  1  0  0  0  0
 15 13  1  0  0  0  0
 16 19  1  0  0  0  0
 16 18  1  0  0  0  0
 16 17  1  0  0  0  0
 19 20  1  1  0  0  0
 19 21  1  0  0  0  0
 21  2  2  0  0  0  0
 22 21  1  0  0  0  0
 22 28  1  1  0  0  0
 23 22  1  0  0  0  0
 23 32  1  1  0  0  0
 24 36  1  6  0  0  0
 24 23  1  0  0  0  0
 25 26  1  0  0  0  0
 26 22  1  0  0  0  0
 27 26  1  0  0  0  0
 28 29  1  0  0  0  0
 28 31  1  0  0  0  0
 30 28  1  0  0  0  0
 32 35  1  0  0  0  0
 32 34  1  0  0  0  0
 33 32  1  0  0  0  0
 36 37  1  0  0  0  0
 38 36  1  0  0  0  0
 39 43  1  0  0  0  0
 39 36  1  0  0  0  0
 40 39  1  0  0  0  0
 41 40  1  0  0  0  0
 42 40  1  0  0  0  0
 43  4  2  0  0  0  0
 43  5  1  0  0  0  0
 44 47  1  0  0  0  0
 44 45  1  0  0  0  0
 46 44  1  0  0  0  0
 47 49  1  0  0  0  0
 47 50  1  0  0  0  0
 48 47  1  0  0  0  0
 51 39  1  0  0  0  0
 52 53  1  0  0  0  0
 52  7  1  0  0  0  0
 54 52  1  0  0  0  0
 55 58  1  0  0  0  0
 55 52  1  0  0  0  0
 56 55  1  0  0  0  0
 57 55  1  0  0  0  0
 59  1  1  0  0  0  0
 59 67  1  0  0  0  0
 60 59  2  0  0  0  0
 61 60  1  0  0  0  0
 62 60  1  0  0  0  0
 62 64  2  0  0  0  0
 63 62  1  0  0  0  0
 64 65  1  0  0  0  0
 65 67  2  0  0  0  0
 65 66  1  0  0  0  0
 67 68  1  0  0  0  0
 69 64  1  0  0  0  0
 69 71  1  0  0  0  0
 70 69  1  0  0  0  0
 72 69  1  0  0  0  0
M  END
