13,45
q = -2.0, confidence = 0.654

 64 65  0  0  0  0  0  0  0  0999 V2000
    4.1349   -2.8208   -0.7602 C   0  0  0  0  0  0  0  0  0  0  0  0
    3.7834   -2.4029    0.5329 C   0  0  0  0  0  0  0  0  0  0  0  0
    4.4736   -2.6051    1.3691 H   0  0  0  0  0  0  0  0  0  0  0  0
   -0.8435   -2.9824    0.0431 C   0  0  0  0  0  0  0  0  0  0  0  0
   -1.7784   -3.3488   -0.4412 H   0  0  0  0  0  0  0  0  0  0  0  0
    0.0000   -3.3957   -0.5555 H   0  0  0  0  0  0  0  0  0  0  0  0
    1.9874   -1.9286   -1.5640 C   0  0  0  0  0  0  0  0  0  0  0  0
    2.5739   -1.7359    0.8048 C   0  0  0  0  0  0  0  0  0  0  0  0
    2.2781   -1.3386    2.2288 C   0  0  0  0  0  0  0  0  0  0  0  0
    1.1968   -1.1746    2.3904 H   0  0  0  0  0  0  0  0  0  0  0  0
    2.7997   -0.3954    2.4915 H   0  0  0  0  0  0  0  0  0  0  0  0
    2.6240   -2.1179    2.9372 H   0  0  0  0  0  0  0  0  0  0  0  0
   -0.8206   -1.4724    0.0539 C   0  0  0  0  0  3  0  0  0  0  0  0
    0.3570   -0.7524   -0.0275 C   0  0  0  0  0  0  0  0  0  0  0  0
    1.6694   -1.4644   -0.2553 C   0  0  0  0  0  0  0  0  0  0  0  0
   -0.7955   -5.1412    1.4171 C   0  0  0  0  0  0  0  0  0  0  0  0
   -0.7317   -5.5747    2.4359 H   0  0  0  0  0  0  0  0  0  0  0  0
    0.0513   -5.5477    0.8258 H   0  0  0  0  0  0  0  0  0  0  0  0
   -1.7316   -5.5159    0.9514 H   0  0  0  0  0  0  0  0  0  0  0  0
    3.2110   -2.5833   -1.7924 C   0  0  0  0  0  0  0  0  0  0  0  0
    3.4457   -2.9264   -2.8140 H   0  0  0  0  0  0  0  0  0  0  0  0
   -0.7606   -3.6133    1.4472 C   0  0  0  0  0  0  0  0  0  0  0  0
   -1.5917   -3.2285    2.0764 H   0  0  0  0  0  0  0  0  0  0  0  0
    0.1750   -3.2675    1.9347 H   0  0  0  0  0  0  0  0  0  0  0  0
    5.4606   -3.4854   -1.0355 C   0  0  0  0  0  0  0  0  0  0  0  0
    5.3943   -4.1976   -1.8822 H   0  0  0  0  0  0  0  0  0  0  0  0
    5.8341   -4.0360   -0.1493 H   0  0  0  0  0  0  0  0  0  0  0  0
    6.2360   -2.7347   -1.3024 H   0  0  0  0  0  0  0  0  0  0  0  0
    1.0191   -1.7842   -2.7139 C   0  0  0  0  0  0  0  0  0  0  0  0
    1.5487   -1.7744   -3.6866 H   0  0  0  0  0  0  0  0  0  0  0  0
    0.4091   -0.8671   -2.6331 H   0  0  0  0  0  0  0  0  0  0  0  0
    0.3099   -2.6405   -2.7386 H   0  0  0  0  0  0  0  0  0  0  0  0
    4.1349    2.8209    0.7601 C   0  0  0  0  0  0  0  0  0  0  0  0
    3.7834    2.4030   -0.5330 C   0  0  0  0  0  0  0  0  0  0  0  0
    4.4736    2.6051   -1.3691 H   0  0  0  0  0  0  0  0  0  0  0  0
   -0.8436    2.9824   -0.0431 C   0  0  0  0  0  0  0  0  0  0  0  0
   -1.7784    3.3489    0.4414 H   0  0  0  0  0  0  0  0  0  0  0  0
    0.0001    3.3958    0.5553 H   0  0  0  0  0  0  0  0  0  0  0  0
    1.9874    1.9287    1.5640 C   0  0  0  0  0  0  0  0  0  0  0  0
    2.5739    1.7360   -0.8048 C   0  0  0  0  0  0  0  0  0  0  0  0
    2.2781    1.3387   -2.2288 C   0  0  0  0  0  0  0  0  0  0  0  0
    1.1968    1.1745   -2.3904 H   0  0  0  0  0  0  0  0  0  0  0  0
    2.7999    0.3957   -2.4917 H   0  0  0  0  0  0  0  0  0  0  0  0
    2.6237    2.1181   -2.9372 H   0  0  0  0  0  0  0  0  0  0  0  0
   -0.8206    1.4724   -0.0538 C   0  0  0  0  0  3  0  0  0  0  0  0
    0.3569    0.7525    0.0275 C   0  0  0  0  0  0  0  0  0  0  0  0
    1.6694    1.4646    0.2553 C   0  0  0  0  0  0  0  0  0  0  0  0
   -0.7959    5.1412   -1.4172 C   0  0  0  0  0  0  0  0  0  0  0  0
   -0.7323    5.5746   -2.4360 H   0  0  0  0  0  0  0  0  0  0  0  0
    0.0511    5.5477   -0.8261 H   0  0  0  0  0  0  0  0  0  0  0  0
   -1.7319    5.5159   -0.9513 H   0  0  0  0  0  0  0  0  0  0  0  0
    3.2110    2.5834    1.7924 C   0  0  0  0  0  0  0  0  0  0  0  0
    3.4457    2.9265    2.8139 H   0  0  0  0  0  0  0  0  0  0  0  0
   -0.7610    3.6133   -1.4473 C   0  0  0  0  0  0  0  0  0  0  0  0
   -1.5923    3.2285   -2.0762 H   0  0  0  0  0  0  0  0  0  0  0  0
    0.1744    3.2675   -1.9350 H   0  0  0  0  0  0  0  0  0  0  0  0
    5.4606    3.4854    1.0355 C   0  0  0  0  0  0  0  0  0  0  0  0
    5.3943    4.1977    1.8820 H   0  0  0  0  0  0  0  0  0  0  0  0
    5.8342    4.0359    0.1492 H   0  0  0  0  0  0  0  0  0  0  0  0
    6.2359    2.7347    1.3025 H   0  0  0  0  0  0  0  0  0  0  0  0
    1.0190    1.7844    2.7138 C   0  0  0  0  0  0  0  0  0  0  0  0
    1.5486    1.7748    3.6866 H   0  0  0  0  0  0  0  0  0  0  0  0
    0.4093    0.8671    2.6332 H   0  0  0  0  0  0  0  0  0  0  0  0
    0.3097    2.6405    2.7384 H   0  0  0  0  0  0  0  0  0  0  0  0
  1  2  1  0  0  0  0
  2  8  2  0  0  0  0
  2  3  1  0  0  0  0
  4 13  1  0  0  0  0
  4 22  1  0  0  0  0
  5  4  1  0  0  0  0
  6  4  1  0  0  0  0
  7 15  2  0  0  0  0
  8  9  1  0  0  0  0
  9 10  1  0  0  0  0
  9 11  1  0  0  0  0
  9 12  1  0  0  0  0
 14 46  1  0  0  0  0
 14 13  2  0  0  0  0
 15 14  1  0  0  0  0
 15  8  1  0  0  0  0
 16 22  1  0  0  0  0
 16 17  1  0  0  0  0
 18 16  1  0  0  0  0
 19 16  1  0  0  0  0
 20  7  1  0  0  0  0
 20  1  2  0  0  0  0
 21 20  1  0  0  0  0
 22 24  1  0  0  0  0
 22 23  1  0  0  0  0
 25  1  1  0  0  0  0
 25 27  1  0  0  0  0
 26 25  1  0  0  0  0
 28 25  1  0  0  0  0
 29 31  1  0  0  0  0
 29  7  1  0  0  0  0
 30 29  1  0  0  0  0
 32 29  1  0  0  0  0
 33 57  1  0  0  0  0
 33 52  1  0  0  0  0
 34 33  2  0  0  0  0
 35 34  1  0  0  0  0
 36 37  1  0  0  0  0
 36 38  1  0  0  0  0
 39 52  2  0  0  0  0
 39 61  1  0  0  0  0
 40 34  1  0  0  0  0
 40 47  2  0  0  0  0
 41 40  1  0  0  0  0
 42 41  1  0  0  0  0
 43 41  1  0  0  0  0
 44 41  1  0  0  0  0
 45 36  1  0  0  0  0
 45 46  2  0  0  0  0
 46 47  1  0  0  0  0
 47 39  1  0  0  0  0
 48 51  1  0  0  0  0
 48 50  1  0  0  0  0
 49 48  1  0  0  0  0
 52 53  1  0  0  0  0
 54 48  1  0  0  0  0
 54 36  1  0  0  0  0
 55 54  1  0  0  0  0
 56 54  1  0  0  0  0
 57 60  1  0  0  0  0
 57 58  1  0  0  0  0
 59 57  1  0  0  0  0
 61 64  1  0  0  0  0
 61 62  1  0  0  0  0
 63 61  1  0  0  0  0
M  END
