5,7
q = 0.0, confidence = 0.982

 52 56  0  0  1  0  0  0  0  0999 V2000
    0.7633    2.4631   -1.3697 C   0  0  0  0  0  0  0  0  0  0  0  0
   -0.8190    2.5900   -1.1590 C   0  0  0  0  0  0  0  0  0  0  0  0
   -1.3606    1.3052   -0.5843 C   0  0  2  0  0  3  0  0  0  0  0  0
   -1.4952    1.1565    0.8211 C   0  0  0  0  0  3  0  0  0  0  0  0
   -1.5484   -0.1418    1.3984 C   0  0  0  0  0  3  0  0  0  0  0  0
   -1.3870   -1.3029    0.5891 C   0  0  1  0  0  3  0  0  0  0  0  0
   -1.5315   -1.1337   -0.8174 C   0  0  0  0  0  3  0  0  0  0  0  0
   -1.5129    0.1573   -1.4101 C   0  0  0  0  0  3  0  0  0  0  0  0
   -0.8278   -2.5811    1.1595 C   0  0  0  0  0  0  0  0  0  0  0  0
    0.7547   -2.4570    1.3662 C   0  0  0  0  0  0  0  0  0  0  0  0
    1.3341   -1.2464    0.6656 C   0  0  0  0  0  0  0  0  0  0  0  0
    1.6196   -1.2145   -0.7265 C   0  0  0  0  0  0  0  0  0  0  0  0
    1.4830    0.0340   -1.3630 C   0  0  0  0  0  0  0  0  0  0  0  0
    1.3439    1.2512   -0.6712 C   0  0  0  0  0  0  0  0  0  0  0  0
    1.6271    1.2172    0.7214 C   0  0  0  0  0  0  0  0  0  0  0  0
    1.4812   -0.0304    1.3576 C   0  0  0  0  0  0  0  0  0  0  0  0
    2.2347    2.3808    1.4715 C   0  0  0  0  0  0  0  0  0  0  0  0
    3.7930    2.5448    1.1644 C   0  0  0  0  0  0  0  0  0  0  0  0
    4.4034    1.2801    0.5993 C   0  0  0  0  0  0  0  0  0  0  0  0
    4.5536    0.1248    1.3926 C   0  0  0  0  0  0  0  0  0  0  0  0
    4.5354   -1.1474    0.8053 C   0  0  0  0  0  0  0  0  0  0  0  0
    4.3946   -1.3042   -0.5892 C   0  0  0  0  0  0  0  0  0  0  0  0
    4.5566   -0.1502   -1.3821 C   0  0  0  0  0  0  0  0  0  0  0  0
    4.5470    1.1221   -0.7949 C   0  0  0  0  0  0  0  0  0  0  0  0
    3.7750   -2.5633   -1.1568 C   0  0  0  0  0  0  0  0  0  0  0  0
    2.2209   -2.3828   -1.4745 C   0  0  0  0  0  0  0  0  0  0  0  0
    1.2315    3.4061   -1.0244 H   0  0  0  0  0  0  0  0  0  0  0  0
    0.9647    2.3870   -2.4569 H   0  0  0  0  0  0  0  0  0  0  0  0
   -1.2963    2.8296   -2.1296 H   0  0  0  0  0  0  0  0  0  0  0  0
   -1.0361    3.4294   -0.4703 H   0  0  0  0  0  0  0  0  0  0  0  0
   -1.0446   -3.4209    0.4705 H   0  0  0  0  0  0  0  0  0  0  0  0
   -1.2981   -2.8273    2.1322 H   0  0  0  0  0  0  0  0  0  0  0  0
    1.2231   -3.4003    1.0214 H   0  0  0  0  0  0  0  0  0  0  0  0
    0.9597   -2.3793    2.4528 H   0  0  0  0  0  0  0  0  0  0  0  0
    2.1050    2.2099    2.5592 H   0  0  0  0  0  0  0  0  0  0  0  0
    1.7345    3.3439    1.2418 H   0  0  0  0  0  0  0  0  0  0  0  0
    4.2945    2.8600    2.1028 H   0  0  0  0  0  0  0  0  0  0  0  0
    3.9274    3.3691    0.4350 H   0  0  0  0  0  0  0  0  0  0  0  0
    3.8958   -3.3879   -0.4253 H   0  0  0  0  0  0  0  0  0  0  0  0
    4.2793   -2.8853   -2.0914 H   0  0  0  0  0  0  0  0  0  0  0  0
    2.1007   -2.2083   -2.5628 H   0  0  0  0  0  0  0  0  0  0  0  0
    1.7093   -3.3413   -1.2505 H   0  0  0  0  0  0  0  0  0  0  0  0
   -1.4867    2.0458    1.4656 H   0  0  0  0  0  0  0  0  0  0  0  0
   -1.5749   -0.2461    2.4929 H   0  0  0  0  0  0  0  0  0  0  0  0
   -1.5471   -2.0239   -1.4632 H   0  0  0  0  0  0  0  0  0  0  0  0
   -1.5205    0.2632   -2.5030 H   0  0  0  0  0  0  0  0  0  0  0  0
    1.4919    0.0595   -2.4662 H   0  0  0  0  0  0  0  0  0  0  0  0
    1.4900   -0.0561    2.4607 H   0  0  0  0  0  0  0  0  0  0  0  0
    4.5253    0.2104    2.4910 H   0  0  0  0  0  0  0  0  0  0  0  0
    4.4888   -2.0376    1.4534 H   0  0  0  0  0  0  0  0  0  0  0  0
    4.5309   -0.2356   -2.4806 H   0  0  0  0  0  0  0  0  0  0  0  0
    4.5098    2.0127   -1.4431 H   0  0  0  0  0  0  0  0  0  0  0  0
  1  2  1  0  0  0  0
  1 27  1  0  0  0  0
  1 14  1  0  0  0  0
  2  3  1  0  0  0  0
  2 30  1  0  0  0  0
  3  8  1  1  0  0  0
  3  4  1  0  0  0  0
  4  5  1  0  0  0  0
  4 43  1  0  0  0  0
  5 44  1  0  0  0  0
  6  7  1  6  0  0  0
  6  9  1  0  0  0  0
  6  5  1  0  0  0  0
  8  7  1  0  0  0  0
  9 10  1  0  0  0  0
  9 32  1  0  0  0  0
 10 34  1  0  0  0  0
 11 16  1  0  0  0  0
 11 10  1  0  0  0  0
 12 11  2  0  0  0  0
 13 12  1  0  0  0  0
 13 14  2  0  0  0  0
 14 15  1  0  0  0  0
 15 16  2  0  0  0  0
 15 17  1  0  0  0  0
 16 48  1  0  0  0  0
 17 35  1  0  0  0  0
 18 17  1  0  0  0  0
 18 37  1  0  0  0  0
 19 18  1  0  0  0  0
 19 20  1  0  0  0  0
 20 49  1  0  0  0  0
 21 20  2  0  0  0  0
 21 50  1  0  0  0  0
 22 21  1  0  0  0  0
 23 24  1  0  0  0  0
 23 22  2  0  0  0  0
 24 19  2  0  0  0  0
 25 22  1  0  0  0  0
 25 39  1  0  0  0  0
 26 42  1  0  0  0  0
 26 25  1  0  0  0  0
 26 12  1  0  0  0  0
 28  1  1  0  0  0  0
 29  2  1  0  0  0  0
 31  9  1  0  0  0  0
 33 10  1  0  0  0  0
 36 17  1  0  0  0  0
 38 18  1  0  0  0  0
 40 25  1  0  0  0  0
 41 26  1  0  0  0  0
 45  7  1  0  0  0  0
 46  8  1  0  0  0  0
 47 13  1  0  0  0  0
 51 23  1  0  0  0  0
 52 24  1  0  0  0  0
M  END
