1,27
q = -1.0, confidence = 0.004

 48 50  0  0  1  0  0  0  0  0999 V2000
   -0.3278   -0.5083    1.3514 C   0  0  0  0  0  2  0  0  0  0  0  0
   -0.4155   -1.3512    2.4315 N   0  0  0  0  0  0  0  0  0  0  0  0
   -1.7264   -1.4720    2.8701 C   0  0  0  0  0  0  0  0  0  0  0  0
   -2.0021   -2.1033    3.7195 H   0  0  0  0  0  0  0  0  0  0  0  0
   -2.4963   -0.6942    2.0500 C   0  0  0  0  0  0  0  0  0  0  0  0
   -3.5744   -0.5217    2.0320 H   0  0  0  0  0  0  0  0  0  0  0  0
   -1.6306   -0.1148    1.1280 N   0  0  0  0  0  0  0  0  0  0  0  0
   -2.0635    0.5999   -0.0946 C   0  0  1  0  0  0  0  0  0  0  0  0
   -1.6548   -0.0150   -0.9259 H   0  0  0  0  0  0  0  0  0  0  0  0
   -3.5744    0.5927   -0.2239 C   0  0  0  0  0  0  0  0  0  0  0  0
   -4.1917   -0.4521   -0.9398 C   0  0  0  0  0  0  0  0  0  0  0  0
   -3.5610   -1.2329   -1.3944 H   0  0  0  0  0  0  0  0  0  0  0  0
   -5.5873   -0.5032   -1.0681 C   0  0  0  0  0  0  0  0  0  0  0  0
   -6.0553   -1.3236   -1.6330 H   0  0  0  0  0  0  0  0  0  0  0  0
   -6.3841    0.4917   -0.4793 C   0  0  0  0  0  0  0  0  0  0  0  0
   -7.4794    0.4544   -0.5803 H   0  0  0  0  0  0  0  0  0  0  0  0
   -5.7785    1.5368    0.2362 C   0  0  0  0  0  0  0  0  0  0  0  0
   -6.3980    2.3205    0.6981 H   0  0  0  0  0  0  0  0  0  0  0  0
   -4.3817    1.5873    0.3627 C   0  0  0  0  0  0  0  0  0  0  0  0
   -3.9186    2.4095    0.9290 H   0  0  0  0  0  0  0  0  0  0  0  0
   -1.4318    2.0055   -0.1925 C   0  0  0  0  0  0  0  0  0  0  0  0
   -1.9629    2.5507   -1.0009 H   0  0  0  0  0  0  0  0  0  0  0  0
   -1.6142    2.5678    0.7442 H   0  0  0  0  0  0  0  0  0  0  0  0
    0.0379    1.9543   -0.4939 C   0  0  0  0  0  0  0  0  0  0  0  0
    0.6088    1.4633   -1.7145 C   0  0  0  0  0  0  0  0  0  0  0  0
    2.0427    1.5206   -1.5897 C   0  0  2  0  0  3  0  0  0  0  0  0
    2.3614    2.1415   -0.3201 C   0  0  2  0  0  3  0  0  0  0  0  0
    1.1118    2.3992    0.3693 C   0  0  1  0  0  3  0  0  0  0  0  0
   -0.1294    1.0382   -2.9461 C   0  0  0  0  0  0  0  0  0  0  0  0
   -0.0941   -0.0648   -3.0845 H   0  0  0  0  0  0  0  0  0  0  0  0
    0.3248    1.5038   -3.8444 H   0  0  0  0  0  0  0  0  0  0  0  0
   -1.1940    1.3395   -2.9104 H   0  0  0  0  0  0  0  0  0  0  0  0
    3.0065    1.1545   -2.6797 C   0  0  0  0  0  0  0  0  0  0  0  0
    2.6858    0.2315   -3.2005 H   0  0  0  0  0  0  0  0  0  0  0  0
    4.0228    0.9765   -2.2808 H   0  0  0  0  0  0  0  0  0  0  0  0
    3.0796    1.9655   -3.4370 H   0  0  0  0  0  0  0  0  0  0  0  0
    3.7229    2.5902    0.1233 C   0  0  0  0  0  0  0  0  0  0  0  0
    3.9398    3.6177   -0.2417 H   0  0  0  0  0  0  0  0  0  0  0  0
    4.5145    1.9217   -0.2661 H   0  0  0  0  0  0  0  0  0  0  0  0
    3.8116    2.5983    1.2263 H   0  0  0  0  0  0  0  0  0  0  0  0
    0.9490    3.1599    1.6533 C   0  0  0  0  0  0  0  0  0  0  0  0
    1.8298    3.0387    2.3112 H   0  0  0  0  0  0  0  0  0  0  0  0
    0.0658    2.8140    2.2245 H   0  0  0  0  0  0  0  0  0  0  0  0
    0.8228    4.2462    1.4548 H   0  0  0  0  0  0  0  0  0  0  0  0
    0.6851   -2.1298    2.9817 C   0  0  0  0  0  0  0  0  0  0  0  0
    1.3721   -2.3971    2.1577 H   0  0  0  0  0  0  0  0  0  0  0  0
    0.2748   -3.0501    3.4370 H   0  0  0  0  0  0  0  0  0  0  0  0
    1.2466   -1.5565    3.7440 H   0  0  0  0  0  0  0  0  0  0  0  0
  1  2  1  0  0  0  0
  2  3  1  0  0  0  0
  2 45  1  0  0  0  0
  3  4  1  0  0  0  0
  5  3  2  0  0  0  0
  6  5  1  0  0  0  0
  7  1  1  0  0  0  0
  7  5  1  0  0  0  0
  8  9  1  6  0  0  0
  8  7  1  0  0  0  0
 10  8  1  0  0  0  0
 10 19  1  0  0  0  0
 11 10  2  0  0  0  0
 12 11  1  0  0  0  0
 13 11  1  0  0  0  0
 13 15  2  0  0  0  0
 14 13  1  0  0  0  0
 15 17  1  0  0  0  0
 16 15  1  0  0  0  0
 17 19  2  0  0  0  0
 17 18  1  0  0  0  0
 19 20  1  0  0  0  0
 21  8  1  0  0  0  0
 21 23  1  0  0  0  0
 22 21  1  0  0  0  0
 24 21  1  0  0  0  0
 24 28  1  0  0  0  0
 25 26  1  0  0  0  0
 25 24  2  0  0  0  0
 26 33  1  6  0  0  0
 26 27  1  0  0  0  0
 27 37  1  6  0  0  0
 27 28  1  0  0  0  0
 28 41  1  6  0  0  0
 29 32  1  0  0  0  0
 29 25  1  0  0  0  0
 30 29  1  0  0  0  0
 31 29  1  0  0  0  0
 33 35  1  0  0  0  0
 34 33  1  0  0  0  0
 36 33  1  0  0  0  0
 37 40  1  0  0  0  0
 38 37  1  0  0  0  0
 39 37  1  0  0  0  0
 41 43  1  0  0  0  0
 41 42  1  0  0  0  0
 44 41  1  0  0  0  0
 45 47  1  0  0  0  0
 45 48  1  0  0  0  0
 46 45  1  0  0  0  0
M  END
