18
q = -1.0, confidence = 0.042

 34 34  0  0  1  0  0  0  0  0999 V2000
    2.7714    1.1489    0.9450 S   0  0  0  0  0  0  0  0  0  0  0  0
   -0.0555    2.1514    0.7857 S   0  0  0  0  0  0  0  0  0  0  0  0
   -2.3998    3.4838    0.1354 O   0  0  0  0  0  0  0  0  0  0  0  0
   -3.7119    1.8018   -0.6435 O   0  0  0  0  0  0  0  0  0  0  0  0
   -3.4536   -0.9951    0.3102 O   0  0  0  0  0  0  0  0  0  0  0  0
   -2.9312   -0.9768   -1.9013 O   0  0  0  0  0  0  0  0  0  0  0  0
    6.3598    1.2748   -0.4950 N   0  0  0  0  0  0  0  0  0  0  0  0
   -0.6649   -0.7909    2.1447 C   0  0  0  0  0  0  0  0  0  0  0  0
   -0.6911   -2.2098    2.0208 C   0  0  0  0  0  0  0  0  0  0  0  0
    0.6754   -2.6577    1.8829 C   0  0  0  0  0  0  0  0  0  0  0  0
    1.5456   -1.5192    1.9109 C   0  0  0  0  0  0  0  0  0  0  0  0
    0.7051   -0.3244    2.0042 C   0  0  1  0  0  3  0  0  0  0  0  0
    1.0118    0.7132    1.0151 C   0  0  2  0  0  3  0  0  0  0  0  0
    2.8767    1.9264   -0.6080 C   0  0  0  0  0  0  0  0  0  0  0  0
    4.0429    2.1515   -1.2806 C   0  0  0  0  0  0  0  0  0  0  0  0
    5.3115    1.6792   -0.8445 C   0  0  0  0  0  0  0  0  0  0  0  0
   -1.4395    1.3391    0.0167 C   0  0  0  0  0  0  0  0  0  0  0  0
   -1.4185    0.0065   -0.2775 C   0  0  0  0  0  3  0  0  0  0  0  0
   -2.6629   -0.6680   -0.7507 C   0  0  0  0  0  0  0  0  0  0  0  0
   -4.7219   -1.5608   -0.0370 C   0  0  0  0  0  0  0  0  0  0  0  0
   -2.6415    2.1908   -0.2045 C   0  0  0  0  0  0  0  0  0  0  0  0
   -3.4934    4.3873   -0.0535 C   0  0  0  0  0  0  0  0  0  0  0  0
   -1.5488   -0.1521    2.2270 H   0  0  0  0  0  0  0  0  0  0  0  0
   -1.5858   -2.8387    2.0793 H   0  0  0  0  0  0  0  0  0  0  0  0
    0.9926   -3.7048    1.8203 H   0  0  0  0  0  0  0  0  0  0  0  0
    2.6383   -1.5136    1.8339 H   0  0  0  0  0  0  0  0  0  0  0  0
    1.9167    2.3059   -1.0003 H   0  0  0  0  0  0  0  0  0  0  0  0
    4.0142    2.7276   -2.2193 H   0  0  0  0  0  0  0  0  0  0  0  0
   -5.2129   -1.8251    0.9169 H   0  0  0  0  0  0  0  0  0  0  0  0
   -4.6000   -2.4598   -0.6745 H   0  0  0  0  0  0  0  0  0  0  0  0
   -5.3297   -0.8158   -0.5893 H   0  0  0  0  0  0  0  0  0  0  0  0
   -4.3674    4.0798    0.5557 H   0  0  0  0  0  0  0  0  0  0  0  0
   -3.1297    5.3798    0.2662 H   0  0  0  0  0  0  0  0  0  0  0  0
   -3.8047    4.4115   -1.1175 H   0  0  0  0  0  0  0  0  0  0  0  0
  1 13  1  0  0  0  0
  4 21  2  0  0  0  0
  6 19  2  0  0  0  0
  8 23  1  0  0  0  0
  9 24  1  0  0  0  0
  9  8  2  0  0  0  0
 10 11  2  0  0  0  0
 10  9  1  0  0  0  0
 11 12  1  0  0  0  0
 12 13  1  6  0  0  0
 12  8  1  0  0  0  0
 13  2  1  1  0  0  0
 14  1  1  0  0  0  0
 15 16  1  0  0  0  0
 15 14  2  0  0  0  0
 16  7  3  0  0  0  0
 17  2  1  0  0  0  0
 18 17  2  0  0  0  0
 19 18  1  0  0  0  0
 19  5  1  0  0  0  0
 20  5  1  0  0  0  0
 20 29  1  0  0  0  0
 21 17  1  0  0  0  0
 21  3  1  0  0  0  0
 22  3  1  0  0  0  0
 22 33  1  0  0  0  0
 22 32  1  0  0  0  0
 25 10  1  0  0  0  0
 26 11  1  0  0  0  0
 27 14  1  0  0  0  0
 28 15  1  0  0  0  0
 30 20  1  0  0  0  0
 31 20  1  0  0  0  0
 34 22  1  0  0  0  0
M  END
