6,10
q = 0.0, confidence = 0.994

 58 59  0  0  1  0  0  0  0  0999 V2000
   -0.2092   -0.0921    1.7962 O   0  0  0  0  0  0  0  0  0  0  0  0
   -0.3877    3.5988   -1.5727 O   0  0  0  0  0  0  0  0  0  0  0  0
   -0.7792    3.3101    0.6466 O   0  0  0  0  0  0  0  0  0  0  0  0
    3.1711    3.1618   -0.3782 N   0  3  0  0  0  0  0  0  0  0  0  0
   -1.1270    0.4317   -0.3048 C   0  0  2  0  0  3  0  0  0  0  0  0
   -2.2754    0.6988   -1.1082 C   0  0  0  0  0  3  0  0  0  0  0  0
   -2.1226    0.9891   -2.1578 H   0  0  0  0  0  0  0  0  0  0  0  0
   -3.5958    0.5823   -0.5948 C   0  0  0  0  0  3  0  0  0  0  0  0
   -4.4623    0.7555   -1.2456 H   0  0  0  0  0  0  0  0  0  0  0  0
   -3.7698    0.1094    0.7340 C   0  0  0  0  0  3  0  0  0  0  0  0
   -4.7812   -0.0709    1.1248 H   0  0  0  0  0  0  0  0  0  0  0  0
   -2.6463   -0.1390    1.5748 C   0  0  0  0  0  0  0  0  0  0  0  0
   -2.8006   -0.5075    2.5954 H   0  0  0  0  0  0  0  0  0  0  0  0
   -1.3276    0.0644    1.0688 C   0  0  0  0  0  0  0  0  0  0  0  0
   -0.2678   -0.7501    3.0562 C   0  0  0  0  0  0  0  0  0  0  0  0
    0.7783   -0.8316    3.4011 H   0  0  0  0  0  0  0  0  0  0  0  0
   -0.7002   -1.7672    2.9512 H   0  0  0  0  0  0  0  0  0  0  0  0
   -0.8526   -0.1629    3.7965 H   0  0  0  0  0  0  0  0  0  0  0  0
    0.2734    0.6284   -0.8730 C   0  0  2  0  0  0  0  0  0  0  0  0
    0.1427    0.7583   -1.9714 H   0  0  0  0  0  0  0  0  0  0  0  0
    1.1747   -0.4967   -0.6419 C   0  0  0  0  0  0  0  0  0  0  0  0
    1.9917   -1.3817   -0.4082 C   0  0  0  0  0  0  0  0  0  0  0  0
    2.9705   -2.3769   -0.1073 C   0  0  0  0  0  0  0  0  0  0  0  0
    4.2620   -1.9798    0.3257 C   0  0  0  0  0  0  0  0  0  0  0  0
    4.4817   -0.9063    0.4310 H   0  0  0  0  0  0  0  0  0  0  0  0
    5.2302   -2.9455    0.6243 C   0  0  0  0  0  0  0  0  0  0  0  0
    6.2286   -2.6265    0.9606 H   0  0  0  0  0  0  0  0  0  0  0  0
    4.9316   -4.3129    0.5008 C   0  0  0  0  0  0  0  0  0  0  0  0
    5.6961   -5.0687    0.7371 H   0  0  0  0  0  0  0  0  0  0  0  0
    3.6522   -4.7129    0.0800 C   0  0  0  0  0  0  0  0  0  0  0  0
    3.4116   -5.7831   -0.0110 H   0  0  0  0  0  0  0  0  0  0  0  0
    2.6743   -3.7580   -0.2232 C   0  0  0  0  0  0  0  0  0  0  0  0
    1.6664   -4.0649   -0.5345 H   0  0  0  0  0  0  0  0  0  0  0  0
    0.9121    1.9640   -0.3294 C   0  0  1  0  0  0  0  0  0  0  0  0
    1.1317    1.8179    0.7446 H   0  0  0  0  0  0  0  0  0  0  0  0
    2.1990    2.2658   -1.0926 C   0  0  0  0  0  0  0  0  0  0  0  0
    2.7402    1.3179   -1.2718 H   0  0  0  0  0  0  0  0  0  0  0  0
    1.9370    2.7296   -2.0685 H   0  0  0  0  0  0  0  0  0  0  0  0
    3.7681    2.4505    0.9852 B   0  0  0  0  0  0  0  0  0  0  0  0
    4.6155    3.2362    1.4147 H   0  0  0  0  0  0  0  0  0  0  0  0
    4.2500    1.3750    0.6217 H   0  0  0  0  0  0  0  0  0  0  0  0
    2.8322    2.3098    1.7728 H   0  0  0  0  0  0  0  0  0  0  0  0
    4.3064    3.4073   -1.3073 C   0  0  0  0  0  0  0  0  0  0  0  0
    3.9493    3.9044   -2.2334 H   0  0  0  0  0  0  0  0  0  0  0  0
    4.7752    2.4388   -1.5563 H   0  0  0  0  0  0  0  0  0  0  0  0
    5.0525    4.0390   -0.7943 H   0  0  0  0  0  0  0  0  0  0  0  0
    2.5473    4.4637   -0.0216 C   0  0  0  0  0  0  0  0  0  0  0  0
    1.7656    4.2946    0.7394 H   0  0  0  0  0  0  0  0  0  0  0  0
    2.1100    4.9498   -0.9173 H   0  0  0  0  0  0  0  0  0  0  0  0
    3.3246    5.1078    0.4266 H   0  0  0  0  0  0  0  0  0  0  0  0
   -0.1282    3.0589   -0.5100 C   0  0  0  0  0  0  0  0  0  0  0  0
   -1.9140    4.2051    0.5751 C   0  0  0  0  0  0  0  0  0  0  0  0
   -1.5337    5.2487    0.5454 H   0  0  0  0  0  0  0  0  0  0  0  0
   -2.4465    4.0241   -0.3811 H   0  0  0  0  0  0  0  0  0  0  0  0
   -2.7857    3.9463    1.7860 C   0  0  0  0  0  0  0  0  0  0  0  0
   -3.6574    4.6302    1.7786 H   0  0  0  0  0  0  0  0  0  0  0  0
   -2.2237    4.1111    2.7266 H   0  0  0  0  0  0  0  0  0  0  0  0
   -3.1592    2.9031    1.7802 H   0  0  0  0  0  0  0  0  0  0  0  0
  1 15  1  0  0  0  0
  2 51  2  0  0  0  0
  4 47  1  0  0  0  0
  4 39  1  0  0  0  0
  5 19  1  1  0  0  0
  5 14  1  0  0  0  0
  6  8  1  0  0  0  0
  6  5  1  0  0  0  0
  7  6  1  0  0  0  0
  8 10  1  0  0  0  0
  9  8  1  0  0  0  0
 10 11  1  0  0  0  0
 10 12  1  0  0  0  0
 12 13  1  0  0  0  0
 14 12  2  0  0  0  0
 14  1  1  0  0  0  0
 15 16  1  0  0  0  0
 15 18  1  0  0  0  0
 17 15  1  0  0  0  0
 19 20  1  6  0  0  0
 19 21  1  0  0  0  0
 19 34  1  0  0  0  0
 21 22  3  0  0  0  0
 22 23  1  0  0  0  0
 23 24  1  0  0  0  0
 24 25  1  0  0  0  0
 24 26  2  0  0  0  0
 26 27  1  0  0  0  0
 28 26  1  0  0  0  0
 28 29  1  0  0  0  0
 30 28  2  0  0  0  0
 31 30  1  0  0  0  0
 32 23  2  0  0  0  0
 32 30  1  0  0  0  0
 33 32  1  0  0  0  0
 34 35  1  1  0  0  0
 36  4  1  0  0  0  0
 36 34  1  0  0  0  0
 37 36  1  0  0  0  0
 38 36  1  0  0  0  0
 39 40  1  0  0  0  0
 39 42  1  0  0  0  0
 41 39  1  0  0  0  0
 43 46  1  0  0  0  0
 43  4  1  0  0  0  0
 44 43  1  0  0  0  0
 45 43  1  0  0  0  0
 47 50  1  0  0  0  0
 47 48  1  0  0  0  0
 49 47  1  0  0  0  0
 51 34  1  0  0  0  0
 51  3  1  0  0  0  0
 52  3  1  0  0  0  0
 52 55  1  0  0  0  0
 53 52  1  0  0  0  0
 54 52  1  0  0  0  0
 55 57  1  0  0  0  0
 56 55  1  0  0  0  0
 58 55  1  0  0  0  0
M  CHG  1   4   1
M  END
