23,27
q = 0.0, confidence = 1.0

 46 47  0  0  1  0  0  0  0  0999 V2000
   -3.5403    1.6867   -1.4687 O   0  0  0  0  0  0  0  0  0  0  0  0
   -4.1734    2.5222    0.5001 O   0  0  0  0  0  0  0  0  0  0  0  0
   -0.6668    0.1028    2.1033 O   0  0  0  0  0  0  0  0  0  0  0  0
   -3.2202    2.0983   -0.3729 C   0  0  0  0  0  0  0  0  0  0  0  0
   -1.7722    2.2263    0.1078 C   0  0  1  0  0  0  0  0  0  0  0  0
   -1.7339    2.0926    1.2105 H   0  0  0  0  0  0  0  0  0  0  0  0
   -0.9423    1.0764   -0.5346 C   0  0  1  0  0  0  0  0  0  0  0  0
   -1.1481    1.1301   -1.6256 H   0  0  0  0  0  0  0  0  0  0  0  0
    0.4990    1.2172   -0.3443 C   0  0  0  0  0  0  0  0  0  0  0  0
    1.7192    1.2940   -0.2363 C   0  0  0  0  0  0  0  0  0  0  0  0
    3.1436    1.3144   -0.1467 C   0  0  0  0  0  0  0  0  0  0  0  0
    3.8179    2.2853    0.6346 C   0  0  0  0  0  0  0  0  0  0  0  0
    3.2281    3.0370    1.1794 H   0  0  0  0  0  0  0  0  0  0  0  0
    5.2159    2.2854    0.7114 C   0  0  0  0  0  0  0  0  0  0  0  0
    5.7281    3.0450    1.3215 H   0  0  0  0  0  0  0  0  0  0  0  0
    5.9636    1.3216    0.0151 C   0  0  0  0  0  0  0  0  0  0  0  0
    7.0623    1.3234    0.0788 H   0  0  0  0  0  0  0  0  0  0  0  0
    5.3041    0.3547   -0.7625 C   0  0  0  0  0  0  0  0  0  0  0  0
    5.8852   -0.4037   -1.3085 H   0  0  0  0  0  0  0  0  0  0  0  0
    3.9076    0.3466   -0.8477 C   0  0  0  0  0  0  0  0  0  0  0  0
    3.3848   -0.4084   -1.4524 H   0  0  0  0  0  0  0  0  0  0  0  0
   -1.4581   -0.2896   -0.0872 C   0  0  2  0  0  3  0  0  0  0  0  0
   -2.1519   -1.1324   -1.0094 C   0  0  0  0  0  3  0  0  0  0  0  0
   -2.2918   -0.7704   -2.0371 H   0  0  0  0  0  0  0  0  0  0  0  0
   -2.6505   -2.4042   -0.6332 C   0  0  0  0  0  3  0  0  0  0  0  0
   -3.1512   -3.0445   -1.3705 H   0  0  0  0  0  0  0  0  0  0  0  0
   -2.3924   -2.8798    0.6832 C   0  0  0  0  0  3  0  0  0  0  0  0
   -2.7027   -3.8936    0.9727 H   0  0  0  0  0  0  0  0  0  0  0  0
   -1.7208   -2.0637    1.6332 C   0  0  0  0  0  0  0  0  0  0  0  0
   -1.5164   -2.4539    2.6368 H   0  0  0  0  0  0  0  0  0  0  0  0
   -1.2772   -0.7565    1.2550 C   0  0  0  0  0  0  0  0  0  0  0  0
   -0.1592   -0.3794    3.3426 C   0  0  0  0  0  0  0  0  0  0  0  0
    0.3688    0.4734    3.8061 H   0  0  0  0  0  0  0  0  0  0  0  0
    0.5628   -1.2065    3.1832 H   0  0  0  0  0  0  0  0  0  0  0  0
   -0.9752   -0.7129    4.0198 H   0  0  0  0  0  0  0  0  0  0  0  0
   -1.2014    3.6431   -0.2052 C   0  0  0  0  0  0  0  0  0  0  0  0
   -1.1555    3.9534   -1.7055 C   0  0  0  0  0  0  0  0  0  0  0  0
   -0.7338    4.9645   -1.8735 H   0  0  0  0  0  0  0  0  0  0  0  0
   -2.1659    3.9249   -2.1619 H   0  0  0  0  0  0  0  0  0  0  0  0
   -0.5131    3.2365   -2.2536 H   0  0  0  0  0  0  0  0  0  0  0  0
   -1.9411    4.7395    0.5723 C   0  0  0  0  0  0  0  0  0  0  0  0
   -1.4320    5.7158    0.4450 H   0  0  0  0  0  0  0  0  0  0  0  0
   -1.9658    4.5257    1.6629 H   0  0  0  0  0  0  0  0  0  0  0  0
   -2.9855    4.8672    0.2193 H   0  0  0  0  0  0  0  0  0  0  0  0
   -0.1550    3.6079    0.1687 H   0  0  0  0  0  0  0  0  0  0  0  0
   -3.7361    2.8143    1.3241 H   0  0  0  0  0  0  0  0  0  0  0  0
  1  4  2  0  0  0  0
  2 46  1  0  0  0  0
  3 32  1  0  0  0  0
  4  5  1  0  0  0  0
  4  2  1  0  0  0  0
  5  6  1  1  0  0  0
  7  8  1  6  0  0  0
  7  9  1  0  0  0  0
  7  5  1  0  0  0  0
  9 10  3  0  0  0  0
 10 11  1  0  0  0  0
 11 12  1  0  0  0  0
 12 14  2  0  0  0  0
 12 13  1  0  0  0  0
 14 15  1  0  0  0  0
 16 17  1  0  0  0  0
 16 14  1  0  0  0  0
 18 16  2  0  0  0  0
 19 18  1  0  0  0  0
 20 18  1  0  0  0  0
 20 11  2  0  0  0  0
 21 20  1  0  0  0  0
 22  7  1  1  0  0  0
 22 31  1  0  0  0  0
 23 25  1  0  0  0  0
 23 22  1  0  0  0  0
 24 23  1  0  0  0  0
 25 27  1  0  0  0  0
 26 25  1  0  0  0  0
 27 28  1  0  0  0  0
 27 29  1  0  0  0  0
 29 30  1  0  0  0  0
 31 29  2  0  0  0  0
 31  3  1  0  0  0  0
 32 33  1  0  0  0  0
 32 35  1  0  0  0  0
 34 32  1  0  0  0  0
 36  5  1  0  0  0  0
 36 45  1  0  0  0  0
 36 41  1  0  0  0  0
 37 36  1  0  0  0  0
 38 37  1  0  0  0  0
 39 37  1  0  0  0  0
 40 37  1  0  0  0  0
 41 43  1  0  0  0  0
 42 41  1  0  0  0  0
 44 41  1  0  0  0  0
M  END
