9,12
q = -1.0, confidence = 0.002

 33 32  0  0  1  0  0  0  0  0999 V2000
   -2.5668   -0.5513    0.7943 P   0  0  0  0  0  4  0  0  0  0  0  0
   -1.7807   -0.0994   -1.6288 F   0  0  0  0  0  0  0  0  0  0  0  0
   -2.2877    2.2529    0.9129 F   0  0  0  0  0  0  0  0  0  0  0  0
   -2.6763    2.2633   -1.2573 F   0  0  0  0  0  0  0  0  0  0  0  0
   -0.5768    3.9717   -0.1857 F   0  0  0  0  0  0  0  0  0  0  0  0
   -0.0747    2.5716   -1.8093 F   0  0  0  0  0  0  0  0  0  0  0  0
    0.3514    2.1897    1.6987 F   0  0  0  0  0  0  0  0  0  0  0  0
    1.8112    2.5825    0.0944 F   0  0  0  0  0  0  0  0  0  0  0  0
   -1.4484    0.3828   -0.3470 C   0  0  1  0  0  3  0  0  0  0  0  0
   -1.7651    1.8905   -0.3201 C   0  0  0  0  0  0  0  0  0  0  0  0
   -0.4415    2.6557   -0.4971 C   0  0  0  0  0  0  0  0  0  0  0  0
    0.6179    1.9266    0.3588 C   0  0  0  0  0  3  0  0  0  0  0  0
   -2.4535   -2.3205    0.3728 C   0  0  0  0  0  0  0  0  0  0  0  0
   -3.4995   -3.2001    1.0572 C   0  0  0  0  0  0  0  0  0  0  0  0
   -4.3258   -0.0429    0.6098 C   0  0  0  0  0  0  0  0  0  0  0  0
   -4.8605   -0.2190   -0.8149 C   0  0  0  0  0  0  0  0  0  0  0  0
   -2.1032   -0.2909    2.5485 C   0  0  0  0  0  0  0  0  0  0  0  0
   -0.7073   -0.7950    2.9104 C   0  0  0  0  0  0  0  0  0  0  0  0
   -1.4171   -2.6199    0.6178 H   0  0  0  0  0  0  0  0  0  0  0  0
   -2.4899   -2.3758   -0.7348 H   0  0  0  0  0  0  0  0  0  0  0  0
   -3.3197   -4.2592    0.7871 H   0  0  0  0  0  0  0  0  0  0  0  0
   -4.5335   -2.9540    0.7438 H   0  0  0  0  0  0  0  0  0  0  0  0
   -3.4521   -3.1319    2.1635 H   0  0  0  0  0  0  0  0  0  0  0  0
   -4.3696    1.0167    0.9315 H   0  0  0  0  0  0  0  0  0  0  0  0
   -4.9088   -0.6344    1.3484 H   0  0  0  0  0  0  0  0  0  0  0  0
   -5.9133    0.1213   -0.8673 H   0  0  0  0  0  0  0  0  0  0  0  0
   -4.8314   -1.2777   -1.1403 H   0  0  0  0  0  0  0  0  0  0  0  0
   -4.2675    0.3727   -1.5359 H   0  0  0  0  0  0  0  0  0  0  0  0
   -2.8952   -0.7837    3.1522 H   0  0  0  0  0  0  0  0  0  0  0  0
   -2.1884    0.8002    2.7172 H   0  0  0  0  0  0  0  0  0  0  0  0
   -0.4574   -0.5130    3.9517 H   0  0  0  0  0  0  0  0  0  0  0  0
    0.0529   -0.3384    2.2351 H   0  0  0  0  0  0  0  0  0  0  0  0
   -0.6264   -1.8959    2.8246 H   0  0  0  0  0  0  0  0  0  0  0  0
  1 17  1  0  0  0  0
  4 10  1  0  0  0  0
  6 11  1  0  0  0  0
  8 12  1  0  0  0  0
  9  2  1  6  0  0  0
  9 10  1  0  0  0  0
  9  1  1  0  0  0  0
 10  3  1  0  0  0  0
 11 10  1  0  0  0  0
 11  5  1  0  0  0  0
 11 12  1  0  0  0  0
 12  7  1  0  0  0  0
 13 19  1  0  0  0  0
 13  1  1  0  0  0  0
 13 14  1  0  0  0  0
 14 23  1  0  0  0  0
 15  1  1  0  0  0  0
 15 24  1  0  0  0  0
 15 25  1  0  0  0  0
 16 15  1  0  0  0  0
 17 30  1  0  0  0  0
 17 18  1  0  0  0  0
 17 29  1  0  0  0  0
 18 31  1  0  0  0  0
 20 13  1  0  0  0  0
 21 14  1  0  0  0  0
 22 14  1  0  0  0  0
 26 16  1  0  0  0  0
 27 16  1  0  0  0  0
 28 16  1  0  0  0  0
 32 18  1  0  0  0  0
 33 18  1  0  0  0  0
M  END
