3,6
q = 0.0, confidence = 0.976

 24 24  0  0  0  0  0  0  0  0999 V2000
   -0.8738    2.3188    1.1655 C   0  0  0  0  0  0  0  0  0  0  0  0
    0.5372    2.3276    1.3598 C   0  0  0  0  0  0  0  0  0  0  0  0
    1.3588    2.2538    0.1876 C   0  0  0  0  0  3  0  0  0  0  0  0
    0.8745    2.3212   -1.1614 C   0  0  0  0  0  0  0  0  0  0  0  0
   -0.5365    2.3308   -1.3556 C   0  0  0  0  0  0  0  0  0  0  0  0
   -1.3582    2.2545   -0.1836 C   0  0  0  0  0  3  0  0  0  0  0  0
   -1.8285    2.4355    2.3224 C   0  0  0  0  0  0  0  0  0  0  0  0
    1.1531    2.4913    2.7204 C   0  0  0  0  0  0  0  0  0  0  0  0
    1.8292    2.4400   -2.3181 C   0  0  0  0  0  0  0  0  0  0  0  0
   -1.1523    2.4977   -2.7159 C   0  0  0  0  0  0  0  0  0  0  0  0
    2.4485    2.2425    0.3336 H   0  0  0  0  0  0  0  0  0  0  0  0
   -2.4479    2.2439   -0.3296 H   0  0  0  0  0  0  0  0  0  0  0  0
   -1.6496    1.6542    3.0877 H   0  0  0  0  0  0  0  0  0  0  0  0
   -1.7070    3.4164    2.8285 H   0  0  0  0  0  0  0  0  0  0  0  0
   -2.8809    2.3631    1.9907 H   0  0  0  0  0  0  0  0  0  0  0  0
    2.2259    2.2229    2.7155 H   0  0  0  0  0  0  0  0  0  0  0  0
    1.0749    3.5495    3.0515 H   0  0  0  0  0  0  0  0  0  0  0  0
    0.6452    1.8767    3.4879 H   0  0  0  0  0  0  0  0  0  0  0  0
    1.6509    1.6593   -3.0842 H   0  0  0  0  0  0  0  0  0  0  0  0
    1.7071    3.4212   -2.8232 H   0  0  0  0  0  0  0  0  0  0  0  0
    2.8816    2.3679   -1.9863 H   0  0  0  0  0  0  0  0  0  0  0  0
   -2.2253    2.2300   -2.7115 H   0  0  0  0  0  0  0  0  0  0  0  0
   -1.0733    3.5565   -3.0449 H   0  0  0  0  0  0  0  0  0  0  0  0
   -0.6448    1.8843   -3.4846 H   0  0  0  0  0  0  0  0  0  0  0  0
  1  2  2  0  0  0  0
  1  7  1  0  0  0  0
  2  8  1  0  0  0  0
  3 11  1  0  0  0  0
  3  2  1  0  0  0  0
  4  3  1  0  0  0  0
  5  4  2  0  0  0  0
  5  6  1  0  0  0  0
  6  1  1  0  0  0  0
  7 14  1  0  0  0  0
  7 13  1  0  0  0  0
  8 17  1  0  0  0  0
  8 18  1  0  0  0  0
  9 21  1  0  0  0  0
  9  4  1  0  0  0  0
 10 22  1  0  0  0  0
 10  5  1  0  0  0  0
 12  6  1  0  0  0  0
 15  7  1  0  0  0  0
 16  8  1  0  0  0  0
 19  9  1  0  0  0  0
 20  9  1  0  0  0  0
 23 10  1  0  0  0  0
 24 10  1  0  0  0  0
M  END
