15,38
q = 0.0, confidence = 0.976

 46 50  0  0  0  0  0  0  0  0999 V2000
   -3.2123   -1.1973   -0.7105 C   0  0  0  0  0  0  0  0  0  0  0  0
   -3.2123   -1.1973    0.7105 C   0  0  0  0  0  0  0  0  0  0  0  0
   -3.9431   -2.1944    1.3882 C   0  0  0  0  0  0  0  0  0  0  0  0
   -3.9729   -2.1741    2.4896 H   0  0  0  0  0  0  0  0  0  0  0  0
   -4.6474   -3.1918    0.7006 C   0  0  0  0  0  0  0  0  0  0  0  0
   -5.2087   -3.9557    1.2592 H   0  0  0  0  0  0  0  0  0  0  0  0
   -4.6474   -3.1918   -0.7006 C   0  0  0  0  0  0  0  0  0  0  0  0
   -5.2087   -3.9556   -1.2592 H   0  0  0  0  0  0  0  0  0  0  0  0
   -3.9431   -2.1944   -1.3882 C   0  0  0  0  0  0  0  0  0  0  0  0
   -3.9729   -2.1740   -2.4896 H   0  0  0  0  0  0  0  0  0  0  0  0
   -2.4700   -0.1696   -1.5458 C   0  0  0  0  0  0  0  0  0  0  0  0
   -2.9981   -0.0272   -2.5099 H   0  0  0  0  0  0  0  0  0  0  0  0
   -2.4021    0.8186   -1.0494 H   0  0  0  0  0  0  0  0  0  0  0  0
   -1.0837   -0.5442   -1.8386 N   0  0  0  0  0  0  0  0  0  0  0  0
   -0.0001    0.1281   -1.3318 C   0  0  0  0  0  2  0  0  0  0  0  0
    1.0831   -0.5448   -1.8386 N   0  0  0  0  0  0  0  0  0  0  0  0
    0.6842   -1.6108   -2.6372 C   0  0  0  0  0  0  0  0  0  0  0  0
    1.3974   -2.2724   -3.1367 H   0  0  0  0  0  0  0  0  0  0  0  0
   -0.6855   -1.6103   -2.6372 C   0  0  0  0  0  0  0  0  0  0  0  0
   -1.3990   -2.2715   -3.1367 H   0  0  0  0  0  0  0  0  0  0  0  0
    2.4697   -0.1712   -1.5459 C   0  0  0  0  0  0  0  0  0  0  0  0
    2.4024    0.8171   -1.0495 H   0  0  0  0  0  0  0  0  0  0  0  0
    2.9979   -0.0291   -2.5100 H   0  0  0  0  0  0  0  0  0  0  0  0
    3.2114   -1.1993    0.7105 C   0  0  0  0  0  0  0  0  0  0  0  0
    3.2113   -1.1993   -0.7105 C   0  0  0  0  0  0  0  0  0  0  0  0
    3.9415   -2.1969   -1.3882 C   0  0  0  0  0  0  0  0  0  0  0  0
    3.9712   -2.1765   -2.4896 H   0  0  0  0  0  0  0  0  0  0  0  0
    4.6452   -3.1947   -0.7006 C   0  0  0  0  0  0  0  0  0  0  0  0
    5.2059   -3.9590   -1.2592 H   0  0  0  0  0  0  0  0  0  0  0  0
    4.6452   -3.1947    0.7005 C   0  0  0  0  0  0  0  0  0  0  0  0
    5.2060   -3.9589    1.2591 H   0  0  0  0  0  0  0  0  0  0  0  0
    3.9416   -2.1968    1.3882 C   0  0  0  0  0  0  0  0  0  0  0  0
    3.9715   -2.1764    2.4896 H   0  0  0  0  0  0  0  0  0  0  0  0
    2.4698   -0.1712    1.5459 C   0  0  0  0  0  0  0  0  0  0  0  0
    2.9979   -0.0291    2.5100 H   0  0  0  0  0  0  0  0  0  0  0  0
    2.4024    0.8171    1.0495 H   0  0  0  0  0  0  0  0  0  0  0  0
    1.0832   -0.5449    1.8386 N   0  0  0  0  0  0  0  0  0  0  0  0
   -0.0000    0.1280    1.3319 C   0  0  0  0  0  2  0  0  0  0  0  0
   -1.0836   -0.5443    1.8385 N   0  0  0  0  0  0  0  0  0  0  0  0
   -0.6854   -1.6107    2.6368 C   0  0  0  0  0  0  0  0  0  0  0  0
   -1.3989   -2.2720    3.1362 H   0  0  0  0  0  0  0  0  0  0  0  0
    0.6843   -1.6110    2.6369 C   0  0  0  0  0  0  0  0  0  0  0  0
    1.3975   -2.2728    3.1363 H   0  0  0  0  0  0  0  0  0  0  0  0
   -2.4700   -0.1697    1.5459 C   0  0  0  0  0  0  0  0  0  0  0  0
   -2.4020    0.8185    1.0496 H   0  0  0  0  0  0  0  0  0  0  0  0
   -2.9980   -0.0273    2.5100 H   0  0  0  0  0  0  0  0  0  0  0  0
  1  2  1  0  0  0  0
  2  3  2  0  0  0  0
  2 44  1  0  0  0  0
  3  4  1  0  0  0  0
  5  6  1  0  0  0  0
  5  3  1  0  0  0  0
  7  5  2  0  0  0  0
  8  7  1  0  0  0  0
  9  1  2  0  0  0  0
  9  7  1  0  0  0  0
 10  9  1  0  0  0  0
 11 13  1  0  0  0  0
 11  1  1  0  0  0  0
 12 11  1  0  0  0  0
 14 11  1  0  0  0  0
 14 15  1  0  0  0  0
 16 21  1  0  0  0  0
 16 15  1  0  0  0  0
 17 16  1  0  0  0  0
 18 17  1  0  0  0  0
 19 17  2  0  0  0  0
 19 14  1  0  0  0  0
 20 19  1  0  0  0  0
 21 22  1  0  0  0  0
 21 25  1  0  0  0  0
 23 21  1  0  0  0  0
 24 32  1  0  0  0  0
 24 34  1  0  0  0  0
 25 24  2  0  0  0  0
 26 25  1  0  0  0  0
 26 28  2  0  0  0  0
 27 26  1  0  0  0  0
 28 30  1  0  0  0  0
 29 28  1  0  0  0  0
 30 31  1  0  0  0  0
 30 32  2  0  0  0  0
 32 33  1  0  0  0  0
 34 37  1  0  0  0  0
 34 35  1  0  0  0  0
 36 34  1  0  0  0  0
 37 42  1  0  0  0  0
 38 39  1  0  0  0  0
 38 37  1  0  0  0  0
 39 40  1  0  0  0  0
 40 42  2  0  0  0  0
 40 41  1  0  0  0  0
 42 43  1  0  0  0  0
 44 39  1  0  0  0  0
 44 46  1  0  0  0  0
 45 44  1  0  0  0  0
M  END
