3,11
q = 0.0, confidence = 0.976

 19 19  0  0  0  0  0  0  0  0999 V2000
    2.4413   -1.3540   -0.0832 N   0  0  0  0  0  0  0  0  0  0  0  0
    2.6004    0.5039    1.0218 N   0  0  0  0  0  0  0  0  0  0  0  0
    0.4484   -0.7151   -2.1978 C   0  0  0  0  0  3  0  0  0  0  0  0
    1.3917   -0.1987   -2.4403 H   0  0  0  0  0  0  0  0  0  0  0  0
   -0.3274   -0.6099   -2.9732 H   0  0  0  0  0  0  0  0  0  0  0  0
    0.4694   -1.8943   -1.3706 C   0  0  0  0  0  3  0  0  0  0  0  0
   -0.2796   -2.6843   -1.5401 H   0  0  0  0  0  0  0  0  0  0  0  0
    1.7728   -2.4298   -0.8060 C   0  0  0  0  0  0  0  0  0  0  0  0
    1.5770   -3.2689   -0.1037 H   0  0  0  0  0  0  0  0  0  0  0  0
    2.4560   -2.8038   -1.6003 H   0  0  0  0  0  0  0  0  0  0  0  0
    1.7104   -0.2667    0.3232 C   0  0  0  0  0  2  0  0  0  0  0  0
    3.7549   -1.2758    0.3455 C   0  0  0  0  0  0  0  0  0  0  0  0
    4.5008   -2.0424    0.1169 H   0  0  0  0  0  0  0  0  0  0  0  0
    3.8547   -0.1012    1.0448 C   0  0  0  0  0  0  0  0  0  0  0  0
    4.7092    0.3647    1.5440 H   0  0  0  0  0  0  0  0  0  0  0  0
    2.3179    1.7811    1.6648 C   0  0  0  0  0  0  0  0  0  0  0  0
    1.4487    2.2437    1.1539 H   0  0  0  0  0  0  0  0  0  0  0  0
    3.1948    2.4451    1.5464 H   0  0  0  0  0  0  0  0  0  0  0  0
    2.1132    1.6386    2.7449 H   0  0  0  0  0  0  0  0  0  0  0  0
  1 11  1  0  0  0  0
  1 12  1  0  0  0  0
  2 14  1  0  0  0  0
  2 16  1  0  0  0  0
  3  6  1  0  0  0  0
  4  3  1  0  0  0  0
  5  3  1  0  0  0  0
  6  8  1  0  0  0  0
  7  6  1  0  0  0  0
  8  9  1  0  0  0  0
  8  1  1  0  0  0  0
 10  8  1  0  0  0  0
 11  2  1  0  0  0  0
 12 14  2  0  0  0  0
 13 12  1  0  0  0  0
 14 15  1  0  0  0  0
 16 19  1  0  0  0  0
 17 16  1  0  0  0  0
 18 16  1  0  0  0  0
M  END
