3,5
q = 0.0, confidence = 1.0

 22 22  0  0  1  0  0  0  0  0999 V2000
    1.3231   -0.6730   -0.6308 C   0  0  0  0  0  0  0  0  0  0  0  0
    1.1140    0.6822   -1.0573 C   0  0  2  0  0  3  0  0  0  0  0  0
   -0.0466    0.9553   -1.8407 C   0  0  0  0  0  3  0  0  0  0  0  0
   -0.9638   -0.0598   -2.2271 C   0  0  0  0  0  3  0  0  0  0  0  0
   -0.7583   -1.3803   -1.7458 C   0  0  0  0  0  3  0  0  0  0  0  0
    0.3848   -1.6990   -0.9588 C   0  0  0  0  0  0  0  0  0  0  0  0
    2.1101    1.7640   -0.7035 C   0  0  0  0  0  0  0  0  0  0  0  0
    2.0879    2.2211    0.7604 C   0  0  0  0  0  0  0  0  0  0  0  0
    2.6243   -2.1405    0.7392 C   0  0  0  0  0  0  0  0  0  0  0  0
    2.4476   -0.8867    0.0907 O   0  0  0  0  0  0  0  0  0  0  0  0
   -0.2321    1.9957   -2.1461 H   0  0  0  0  0  0  0  0  0  0  0  0
   -1.8593    0.1903   -2.8102 H   0  0  0  0  0  0  0  0  0  0  0  0
   -1.4907   -2.1686   -1.9700 H   0  0  0  0  0  0  0  0  0  0  0  0
    0.5133   -2.7194   -0.5806 H   0  0  0  0  0  0  0  0  0  0  0  0
    3.1245    1.3868   -0.9546 H   0  0  0  0  0  0  0  0  0  0  0  0
    1.9227    2.6317   -1.3690 H   0  0  0  0  0  0  0  0  0  0  0  0
    1.0964    2.6353    1.0286 H   0  0  0  0  0  0  0  0  0  0  0  0
    2.2962    1.3770    1.4445 H   0  0  0  0  0  0  0  0  0  0  0  0
    2.8533    3.0041    0.9350 H   0  0  0  0  0  0  0  0  0  0  0  0
    3.5722   -2.0626    1.3015 H   0  0  0  0  0  0  0  0  0  0  0  0
    2.7054   -2.9738    0.0081 H   0  0  0  0  0  0  0  0  0  0  0  0
    1.7957   -2.3433    1.4502 H   0  0  0  0  0  0  0  0  0  0  0  0
  1 10  1  0  0  0  0
  2  7  1  6  0  0  0
  2  1  1  0  0  0  0
  3  2  1  0  0  0  0
  4  3  1  0  0  0  0
  4  5  1  0  0  0  0
  5  6  1  0  0  0  0
  6  1  2  0  0  0  0
  6 14  1  0  0  0  0
  7  8  1  0  0  0  0
  8 19  1  0  0  0  0
  8 17  1  0  0  0  0
  8 18  1  0  0  0  0
  9 20  1  0  0  0  0
  9 22  1  0  0  0  0
 10  9  1  0  0  0  0
 11  3  1  0  0  0  0
 12  4  1  0  0  0  0
 13  5  1  0  0  0  0
 15  7  1  0  0  0  0
 16  7  1  0  0  0  0
 21  9  1  0  0  0  0
M  END
