2,5
q = 0.0, confidence = 0.964

 29 31  0  0  0  0  0  0  0  0999 V2000
   -0.2406   -0.7482   -0.2202 C   0  0  0  0  0  0  0  0  0  0  0  0
    0.6460   -1.8431   -0.5153 C   0  0  0  0  0  3  0  0  0  0  0  0
    1.6780   -1.7351   -1.4733 C   0  0  0  0  0  0  0  0  0  0  0  0
    1.8407   -0.5126   -2.1920 C   0  0  0  0  0  0  0  0  0  0  0  0
    0.9790    0.5683   -1.9084 C   0  0  0  0  0  3  0  0  0  0  0  0
   -0.0763    0.4832   -0.9305 C   0  0  0  0  0  0  0  0  0  0  0  0
   -0.9245    1.7322   -0.7704 C   0  0  0  0  0  0  0  0  0  0  0  0
   -1.9218    1.7984    0.3952 C   0  0  0  0  0  0  0  0  0  0  0  0
   -3.0182    0.7698    0.2720 C   0  0  0  0  0  0  0  0  0  0  0  0
   -4.3328    1.1276   -0.0769 C   0  0  0  0  0  0  0  0  0  0  0  0
   -5.3269    0.1511   -0.2443 C   0  0  0  0  0  0  0  0  0  0  0  0
   -5.0096   -1.2033   -0.0657 C   0  0  0  0  0  0  0  0  0  0  0  0
   -3.7011   -1.5708    0.2836 C   0  0  0  0  0  0  0  0  0  0  0  0
   -2.7013   -0.5978    0.4560 C   0  0  0  0  0  0  0  0  0  0  0  0
   -1.2942   -0.9748    0.8571 C   0  0  0  0  0  0  0  0  0  0  0  0
    0.5426   -2.7705    0.0655 H   0  0  0  0  0  0  0  0  0  0  0  0
    2.3681   -2.5742   -1.6364 H   0  0  0  0  0  0  0  0  0  0  0  0
    2.6604   -0.3926   -2.9130 H   0  0  0  0  0  0  0  0  0  0  0  0
    1.1347    1.5286   -2.4217 H   0  0  0  0  0  0  0  0  0  0  0  0
   -1.4892    1.8652   -1.7202 H   0  0  0  0  0  0  0  0  0  0  0  0
   -0.2336    2.5985   -0.7038 H   0  0  0  0  0  0  0  0  0  0  0  0
   -2.3629    2.8147    0.4125 H   0  0  0  0  0  0  0  0  0  0  0  0
   -1.3734    1.6804    1.3545 H   0  0  0  0  0  0  0  0  0  0  0  0
   -4.5796    2.1923   -0.2169 H   0  0  0  0  0  0  0  0  0  0  0  0
   -6.3511    0.4498   -0.5141 H   0  0  0  0  0  0  0  0  0  0  0  0
   -5.7821   -1.9764   -0.1948 H   0  0  0  0  0  0  0  0  0  0  0  0
   -3.4495   -2.6330    0.4319 H   0  0  0  0  0  0  0  0  0  0  0  0
   -1.0072   -0.4115    1.7697 H   0  0  0  0  0  0  0  0  0  0  0  0
   -1.2641   -2.0431    1.1449 H   0  0  0  0  0  0  0  0  0  0  0  0
  1 15  1  0  0  0  0
  2  1  1  0  0  0  0
  2 16  1  0  0  0  0
  3  2  1  0  0  0  0
  4  5  1  0  0  0  0
  4  3  2  0  0  0  0
  5  6  1  0  0  0  0
  6  7  1  0  0  0  0
  6  1  2  0  0  0  0
  7 21  1  0  0  0  0
  7  8  1  0  0  0  0
  8 22  1  0  0  0  0
  8 23  1  0  0  0  0
  9  8  1  0  0  0  0
  9 14  1  0  0  0  0
 10  9  2  0  0  0  0
 11 10  1  0  0  0  0
 11 12  2  0  0  0  0
 12 13  1  0  0  0  0
 13 27  1  0  0  0  0
 13 14  2  0  0  0  0
 14 15  1  0  0  0  0
 15 29  1  0  0  0  0
 15 28  1  0  0  0  0
 17  3  1  0  0  0  0
 18  4  1  0  0  0  0
 19  5  1  0  0  0  0
 20  7  1  0  0  0  0
 24 10  1  0  0  0  0
 25 11  1  0  0  0  0
 26 12  1  0  0  0  0
M  END
