2,6
q = -2.0, confidence = 0.64

 32 34  0  0  1  0  0  0  0  0999 V2000
    0.2645    1.5100   -1.8064 O   0  0  0  0  0  0  0  0  0  0  0  0
    0.0539    0.5633   -1.0747 C   0  0  0  0  0  3  0  0  0  0  0  0
    1.1175   -0.5994   -1.1529 C   0  0  2  0  0  0  0  0  0  0  0  0
    1.3182   -0.6240   -2.2444 H   0  0  0  0  0  0  0  0  0  0  0  0
   -1.7364   -1.5283   -0.5189 C   0  0  0  0  0  0  0  0  0  0  0  0
   -2.9282   -0.8064   -0.8192 C   0  0  0  0  0  3  0  0  0  0  0  0
   -3.3606   -0.6584   -1.8158 H   0  0  0  0  0  0  0  0  0  0  0  0
   -3.4794   -0.3204    0.4298 C   0  0  0  0  0  0  0  0  0  0  0  0
   -4.3942    0.2746    0.5353 H   0  0  0  0  0  0  0  0  0  0  0  0
   -2.6154   -0.7219    1.4860 C   0  0  0  0  0  0  0  0  0  0  0  0
   -2.7445   -0.4911    2.5504 H   0  0  0  0  0  0  0  0  0  0  0  0
   -1.5229   -1.4714    0.9080 C   0  0  0  0  0  0  0  0  0  0  0  0
   -0.3454   -2.0997    1.4970 C   0  0  0  0  0  0  0  0  0  0  0  0
   -0.3129   -2.2977    2.5791 H   0  0  0  0  0  0  0  0  0  0  0  0
    0.6977   -2.3895    0.6815 C   0  0  0  0  0  0  0  0  0  0  0  0
    1.6188   -2.8319    1.0893 H   0  0  0  0  0  0  0  0  0  0  0  0
    0.6561   -2.0452   -0.7938 C   0  0  1  0  0  0  0  0  0  0  0  0
    1.3639   -2.7185   -1.3180 H   0  0  0  0  0  0  0  0  0  0  0  0
   -0.7604   -2.2706   -1.3701 C   0  0  0  0  0  0  0  0  0  0  0  0
   -0.8132   -1.9498   -2.4295 H   0  0  0  0  0  0  0  0  0  0  0  0
   -1.0065   -3.3548   -1.3358 H   0  0  0  0  0  0  0  0  0  0  0  0
    2.4037   -0.1496   -0.4899 C   0  0  0  0  0  0  0  0  0  0  0  0
    3.5564    0.0571   -1.2751 C   0  0  0  0  0  0  0  0  0  0  0  0
    3.5020   -0.1154   -2.3615 H   0  0  0  0  0  0  0  0  0  0  0  0
    4.7607    0.4816   -0.6954 C   0  0  0  0  0  0  0  0  0  0  0  0
    5.6477    0.6347   -1.3291 H   0  0  0  0  0  0  0  0  0  0  0  0
    4.8323    0.7153    0.6866 C   0  0  0  0  0  0  0  0  0  0  0  0
    5.7746    1.0527    1.1442 H   0  0  0  0  0  0  0  0  0  0  0  0
    3.6896    0.5240    1.4788 C   0  0  0  0  0  0  0  0  0  0  0  0
    3.7294    0.7171    2.5617 H   0  0  0  0  0  0  0  0  0  0  0  0
    2.4871    0.0966    0.8973 C   0  0  0  0  0  0  0  0  0  0  0  0
    1.6017   -0.0412    1.5300 H   0  0  0  0  0  0  0  0  0  0  0  0
  1  2  2  0  0  0  0
  3  4  1  6  0  0  0
  3  2  1  0  0  0  0
  3 17  1  0  0  0  0
  3 22  1  0  0  0  0
  5 12  2  0  0  0  0
  6  5  1  0  0  0  0
  6  8  1  0  0  0  0
  7  6  1  0  0  0  0
  8  9  1  0  0  0  0
  8 10  2  0  0  0  0
 10 11  1  0  0  0  0
 12 10  1  0  0  0  0
 12 13  1  0  0  0  0
 13 14  1  0  0  0  0
 15 16  1  0  0  0  0
 15 13  2  0  0  0  0
 17 18  1  6  0  0  0
 17 15  1  0  0  0  0
 19 21  1  0  0  0  0
 19 17  1  0  0  0  0
 19  5  1  0  0  0  0
 20 19  1  0  0  0  0
 22 31  1  0  0  0  0
 23 25  1  0  0  0  0
 23 22  2  0  0  0  0
 24 23  1  0  0  0  0
 25 27  2  0  0  0  0
 26 25  1  0  0  0  0
 27 28  1  0  0  0  0
 27 29  1  0  0  0  0
 29 30  1  0  0  0  0
 31 29  2  0  0  0  0
 31 32  1  0  0  0  0
M  END
