8,30
q = -1.0, confidence = 0.114

 75 78  0  0  1  0  0  0  0  0999 V2000
   -1.9959    0.9109   -1.1301 N   0  0  0  0  0  2  0  0  0  0  0  0
   -1.7798    2.2990   -1.1543 C   0  0  0  0  0  0  0  0  0  0  0  0
   -2.7646    3.2278   -1.5567 C   0  0  0  0  0  0  0  0  0  0  0  0
   -2.4726    4.5964   -1.6273 C   0  0  0  0  0  0  0  0  0  0  0  0
   -1.1868    5.0641   -1.3142 C   0  0  0  0  0  0  0  0  0  0  0  0
   -0.1939    4.1477   -0.9398 C   0  0  0  0  0  0  0  0  0  0  0  0
   -0.4749    2.7733   -0.8479 C   0  0  0  0  0  0  0  0  0  0  0  0
    0.5914    1.8019   -0.4515 C   0  0  1  0  0  3  0  0  0  0  0  0
    1.9187    2.0386   -1.1494 C   0  0  0  0  0  0  0  0  0  0  0  0
    2.0547    2.1062   -2.3575 O   0  0  0  0  0  0  0  0  0  0  0  0
    2.9156    2.2433   -0.2557 O   0  0  0  0  0  0  0  0  0  0  0  0
    4.2539    2.3626   -0.7951 C   0  0  0  0  0  0  0  0  0  0  0  0
    4.8756    0.9937   -1.0189 C   0  0  0  0  0  0  0  0  0  0  0  0
    0.5142    0.9814    0.7284 C   0  0  2  0  0  3  0  0  0  0  0  0
   -0.5445    1.1107    1.7624 C   0  0  0  0  0  0  0  0  0  0  0  0
   -0.9897    2.3723    2.2099 C   0  0  0  0  0  0  0  0  0  0  0  0
   -1.9934    2.4635    3.1846 C   0  0  0  0  0  0  0  0  0  0  0  0
   -2.5729    1.3004    3.7172 C   0  0  0  0  0  0  0  0  0  0  0  0
   -2.1315    0.0393    3.2811 C   0  0  0  0  0  0  0  0  0  0  0  0
   -1.1191   -0.0545    2.3180 C   0  0  0  0  0  0  0  0  0  0  0  0
   -3.2877   -0.9515   -0.8368 N   0  0  0  0  0  0  0  0  0  0  0  0
   -3.1028    0.3771   -0.6251 C   0  0  1  0  0  3  0  0  0  0  0  0
   -4.1970   -1.8589   -0.2613 C   0  0  0  0  0  0  0  0  0  0  0  0
   -3.7090   -3.1563    0.0247 C   0  0  0  0  0  0  0  0  0  0  0  0
   -4.5582   -4.1246    0.5708 C   0  0  0  0  0  0  0  0  0  0  0  0
   -5.9020   -3.8210    0.8464 C   0  0  0  0  0  0  0  0  0  0  0  0
   -6.3930   -2.5419    0.5440 C   0  0  0  0  0  0  0  0  0  0  0  0
   -5.5567   -1.5658   -0.0166 C   0  0  0  0  0  0  0  0  0  0  0  0
   -4.0633    1.1298    0.2552 C   0  0  0  0  0  0  0  0  0  0  0  0
    1.6394   -0.8198   -0.1723 C   0  0  0  0  0  3  0  0  0  0  0  0
    2.4620   -1.9280   -0.6362 C   0  0  0  0  0  0  0  0  0  0  0  0
    2.9518   -2.9175    0.2498 C   0  0  0  0  0  0  0  0  0  0  0  0
    3.7521   -3.9618   -0.2280 C   0  0  0  0  0  0  0  0  0  0  0  0
    4.0856   -4.0330   -1.5910 C   0  0  0  0  0  0  0  0  0  0  0  0
    3.5958   -3.0628   -2.4813 C   0  0  0  0  0  0  0  0  0  0  0  0
    2.7760   -2.0299   -2.0135 C   0  0  0  0  0  0  0  0  0  0  0  0
    1.6465    0.0075    0.9196 C   0  0  0  0  0  0  0  0  0  0  0  0
    2.5510    0.1928    2.0738 C   0  0  0  0  0  0  0  0  0  0  0  0
    2.3540    1.0113    2.9593 O   0  0  0  0  0  0  0  0  0  0  0  0
    3.6426   -0.6160    2.0312 O   0  0  0  0  0  0  0  0  0  0  0  0
    4.5925   -0.4481    3.1017 C   0  0  0  0  0  0  0  0  0  0  0  0
    5.7652   -1.3673    2.8266 C   0  0  0  0  0  0  0  0  0  0  0  0
   -2.4924   -1.4070   -1.3438 H   0  0  0  0  0  0  0  0  0  0  0  0
   -3.7537    2.8611   -1.8650 H   0  0  0  0  0  0  0  0  0  0  0  0
   -3.2518    5.2999   -1.9576 H   0  0  0  0  0  0  0  0  0  0  0  0
   -0.9511    6.1362   -1.3817 H   0  0  0  0  0  0  0  0  0  0  0  0
    0.8225    4.5007   -0.7065 H   0  0  0  0  0  0  0  0  0  0  0  0
    2.6952   -2.8561    1.3154 H   0  0  0  0  0  0  0  0  0  0  0  0
    4.1194   -4.7297    0.4702 H   0  0  0  0  0  0  0  0  0  0  0  0
    4.7182   -4.8537   -1.9621 H   0  0  0  0  0  0  0  0  0  0  0  0
    3.8412   -3.1212   -3.5523 H   0  0  0  0  0  0  0  0  0  0  0  0
    2.3632   -1.2818   -2.7064 H   0  0  0  0  0  0  0  0  0  0  0  0
   -2.6549   -3.3837   -0.1971 H   0  0  0  0  0  0  0  0  0  0  0  0
   -4.1619   -5.1281    0.7881 H   0  0  0  0  0  0  0  0  0  0  0  0
   -6.5665   -4.5818    1.2819 H   0  0  0  0  0  0  0  0  0  0  0  0
   -7.4504   -2.2993    0.7295 H   0  0  0  0  0  0  0  0  0  0  0  0
   -5.9748   -0.5908   -0.2953 H   0  0  0  0  0  0  0  0  0  0  0  0
   -0.5314    3.2835    1.8024 H   0  0  0  0  0  0  0  0  0  0  0  0
   -2.3227    3.4537    3.5343 H   0  0  0  0  0  0  0  0  0  0  0  0
   -3.3653    1.3761    4.4773 H   0  0  0  0  0  0  0  0  0  0  0  0
   -2.5795   -0.8776    3.6931 H   0  0  0  0  0  0  0  0  0  0  0  0
   -0.7748   -1.0389    1.9652 H   0  0  0  0  0  0  0  0  0  0  0  0
    4.0923   -0.6797    4.0665 H   0  0  0  0  0  0  0  0  0  0  0  0
    4.8943    0.6198    3.1517 H   0  0  0  0  0  0  0  0  0  0  0  0
    4.2063    2.9436   -1.7383 H   0  0  0  0  0  0  0  0  0  0  0  0
    4.8047    2.9455   -0.0315 H   0  0  0  0  0  0  0  0  0  0  0  0
    6.2534   -1.1125    1.8649 H   0  0  0  0  0  0  0  0  0  0  0  0
    5.4397   -2.4251    2.7730 H   0  0  0  0  0  0  0  0  0  0  0  0
    6.5183   -1.2755    3.6342 H   0  0  0  0  0  0  0  0  0  0  0  0
   -3.5848    2.0481    0.6378 H   0  0  0  0  0  0  0  0  0  0  0  0
   -4.3425    0.4887    1.1139 H   0  0  0  0  0  0  0  0  0  0  0  0
   -4.9964    1.4135   -0.2702 H   0  0  0  0  0  0  0  0  0  0  0  0
    4.3398    0.4414   -1.8147 H   0  0  0  0  0  0  0  0  0  0  0  0
    5.9333    1.1061   -1.3317 H   0  0  0  0  0  0  0  0  0  0  0  0
    4.8396    0.3827   -0.0955 H   0  0  0  0  0  0  0  0  0  0  0  0
  2  1  1  0  0  0  0
  2  7  1  0  0  0  0
  3  2  2  0  0  0  0
  4  3  1  0  0  0  0
  4  5  2  0  0  0  0
  5  6  1  0  0  0  0
  6  7  2  0  0  0  0
  6 47  1  0  0  0  0
  7  8  1  0  0  0  0
  8  9  1  1  0  0  0
  8 14  1  0  0  0  0
  9 11  1  0  0  0  0
 10  9  2  0  0  0  0
 12 11  1  0  0  0  0
 12 66  1  0  0  0  0
 13 12  1  0  0  0  0
 13 75  1  0  0  0  0
 14 37  1  1  0  0  0
 14 15  1  0  0  0  0
 15 16  2  0  0  0  0
 15 20  1  0  0  0  0
 16 17  1  0  0  0  0
 17 59  1  0  0  0  0
 17 18  2  0  0  0  0
 18 60  1  0  0  0  0
 19 61  1  0  0  0  0
 19 18  1  0  0  0  0
 20 19  2  0  0  0  0
 21 22  1  0  0  0  0
 21 23  1  0  0  0  0
 22  1  1  1  0  0  0
 22 29  1  0  0  0  0
 23 28  2  0  0  0  0
 23 24  1  0  0  0  0
 24 25  2  0  0  0  0
 25 54  1  0  0  0  0
 25 26  1  0  0  0  0
 26 55  1  0  0  0  0
 27 56  1  0  0  0  0
 27 26  2  0  0  0  0
 28 27  1  0  0  0  0
 29 70  1  0  0  0  0
 29 71  1  0  0  0  0
 30 37  2  0  0  0  0
 31 30  1  0  0  0  0
 31 32  1  0  0  0  0
 32 48  1  0  0  0  0
 33 32  2  0  0  0  0
 33 49  1  0  0  0  0
 34 33  1  0  0  0  0
 35 36  1  0  0  0  0
 35 34  2  0  0  0  0
 36 31  2  0  0  0  0
 37 38  1  0  0  0  0
 38 39  2  0  0  0  0
 40 38  1  0  0  0  0
 40 41  1  0  0  0  0
 41 64  1  0  0  0  0
 41 63  1  0  0  0  0
 42 41  1  0  0  0  0
 42 69  1  0  0  0  0
 43 21  1  0  0  0  0
 44  3  1  0  0  0  0
 45  4  1  0  0  0  0
 46  5  1  0  0  0  0
 50 34  1  0  0  0  0
 51 35  1  0  0  0  0
 52 36  1  0  0  0  0
 53 24  1  0  0  0  0
 57 28  1  0  0  0  0
 58 16  1  0  0  0  0
 62 20  1  0  0  0  0
 65 12  1  0  0  0  0
 67 42  1  0  0  0  0
 68 42  1  0  0  0  0
 72 29  1  0  0  0  0
 73 13  1  0  0  0  0
 74 13  1  0  0  0  0
M  END
