25,66
q = 0.0, confidence = 0.988

 84 90  0  0  0  0  0  0  0  0999 V2000
   -3.0548    2.2626   -0.9395 O   0  0  0  0  0  0  0  0  0  0  0  0
   -3.1938   -2.1540    0.9572 O   0  0  0  0  0  0  0  0  0  0  0  0
    2.4888    1.9171    1.7627 N   0  0  0  0  0  0  0  0  0  0  0  0
    0.5008    2.6434    1.3296 N   0  0  0  0  0  0  0  0  0  0  0  0
    0.2474   -2.8217   -1.4189 N   0  0  0  0  0  0  0  0  0  0  0  0
    2.2609   -2.2374   -1.9365 N   0  0  0  0  0  0  0  0  0  0  0  0
    6.1104    1.6709    1.2202 C   0  0  0  0  0  0  0  0  0  0  0  0
    6.3778    1.3979    2.2532 H   0  0  0  0  0  0  0  0  0  0  0  0
    7.1121    2.0675    0.3207 C   0  0  0  0  0  0  0  0  0  0  0  0
    8.1591    2.1169    0.6557 H   0  0  0  0  0  0  0  0  0  0  0  0
    6.7782    2.4076   -0.9987 C   0  0  0  0  0  0  0  0  0  0  0  0
    7.5620    2.7249   -1.7028 H   0  0  0  0  0  0  0  0  0  0  0  0
    5.4364    2.3576   -1.4131 C   0  0  0  0  0  0  0  0  0  0  0  0
    5.1670    2.6378   -2.4427 H   0  0  0  0  0  0  0  0  0  0  0  0
    4.4373    1.9597   -0.5134 C   0  0  0  0  0  0  0  0  0  0  0  0
    3.3843    1.9331   -0.8385 H   0  0  0  0  0  0  0  0  0  0  0  0
    4.7675    1.6054    0.8096 C   0  0  0  0  0  0  0  0  0  0  0  0
    3.7055    1.1019    1.7654 C   0  0  0  0  0  0  0  0  0  0  0  0
    3.3999    0.0707    1.4905 H   0  0  0  0  0  0  0  0  0  0  0  0
    4.0992    1.0614    2.7997 H   0  0  0  0  0  0  0  0  0  0  0  0
    2.3912    3.1669    2.3533 C   0  0  0  0  0  0  0  0  0  0  0  0
    3.2147    3.6178    2.9149 H   0  0  0  0  0  0  0  0  0  0  0  0
    1.1284    3.6270    2.0798 C   0  0  0  0  0  0  0  0  0  0  0  0
    0.6260    4.5551    2.3692 H   0  0  0  0  0  0  0  0  0  0  0  0
    1.3314    1.5823    1.1169 C   0  0  0  0  0  2  0  0  0  0  0  0
   -0.8510    2.7582    0.7797 C   0  0  0  0  0  0  0  0  0  0  0  0
   -1.3900    3.5161    1.3823 H   0  0  0  0  0  0  0  0  0  0  0  0
   -1.3727    1.7939    0.9287 H   0  0  0  0  0  0  0  0  0  0  0  0
   -0.8579    3.1419   -0.7039 C   0  0  0  0  0  0  0  0  0  0  0  0
   -0.2414    4.0506   -0.8657 H   0  0  0  0  0  0  0  0  0  0  0  0
   -0.3943    2.3225   -1.2946 H   0  0  0  0  0  0  0  0  0  0  0  0
   -2.2692    3.4149   -1.2048 C   0  0  0  0  0  0  0  0  0  0  0  0
   -2.7022    4.2975   -0.6776 H   0  0  0  0  0  0  0  0  0  0  0  0
   -2.2613    3.6502   -2.2936 H   0  0  0  0  0  0  0  0  0  0  0  0
   -4.4176    2.3647   -1.0224 C   0  0  0  0  0  0  0  0  0  0  0  0
   -5.0891    3.4559   -1.5542 C   0  0  0  0  0  0  0  0  0  0  0  0
   -4.5409    4.3084   -1.9764 H   0  0  0  0  0  0  0  0  0  0  0  0
   -6.5168    3.4802   -1.5624 C   0  0  0  0  0  0  0  0  0  0  0  0
   -7.0261    4.3562   -1.9909 H   0  0  0  0  0  0  0  0  0  0  0  0
   -7.2536    2.4373   -1.0407 C   0  0  0  0  0  0  0  0  0  0  0  0
   -8.3531    2.4692   -1.0399 H   0  0  0  0  0  0  0  0  0  0  0  0
   -6.5937    1.2910   -0.4891 C   0  0  0  0  0  0  0  0  0  0  0  0
   -7.3062    0.2109    0.0671 C   0  0  0  0  0  0  0  0  0  0  0  0
   -8.4066    0.2521    0.0826 H   0  0  0  0  0  0  0  0  0  0  0  0
   -6.6613   -0.9200    0.6046 C   0  0  0  0  0  0  0  0  0  0  0  0
   -7.3893   -2.0136    1.1770 C   0  0  0  0  0  0  0  0  0  0  0  0
   -8.4877   -1.9632    1.2069 H   0  0  0  0  0  0  0  0  0  0  0  0
   -6.7183   -3.1083    1.6810 C   0  0  0  0  0  0  0  0  0  0  0  0
   -7.2794   -3.9434    2.1262 H   0  0  0  0  0  0  0  0  0  0  0  0
   -5.2935   -3.1908    1.6332 C   0  0  0  0  0  0  0  0  0  0  0  0
   -4.7991   -4.0815    2.0429 H   0  0  0  0  0  0  0  0  0  0  0  0
   -4.5576   -2.1535    1.0793 C   0  0  0  0  0  0  0  0  0  0  0  0
   -5.2125   -0.9742    0.5661 C   0  0  0  0  0  0  0  0  0  0  0  0
   -4.4893    0.1053    0.0277 C   0  0  0  0  0  0  0  0  0  0  0  0
   -3.3932    0.0645    0.0127 H   0  0  0  0  0  0  0  0  0  0  0  0
   -5.1445    1.2366   -0.4912 C   0  0  0  0  0  0  0  0  0  0  0  0
   -2.4885   -3.3595    1.2103 C   0  0  0  0  0  0  0  0  0  0  0  0
   -3.0023   -4.2118    0.7065 H   0  0  0  0  0  0  0  0  0  0  0  0
   -2.4635   -3.5855    2.3009 H   0  0  0  0  0  0  0  0  0  0  0  0
   -1.0776   -3.1973    0.6621 C   0  0  0  0  0  0  0  0  0  0  0  0
   -0.5361   -2.4075    1.2263 H   0  0  0  0  0  0  0  0  0  0  0  0
   -0.5253   -4.1475    0.8174 H   0  0  0  0  0  0  0  0  0  0  0  0
   -1.0912   -2.8324   -0.8261 C   0  0  0  0  0  0  0  0  0  0  0  0
   -1.7027   -3.5559   -1.4014 H   0  0  0  0  0  0  0  0  0  0  0  0
   -1.5452   -1.8342   -0.9719 H   0  0  0  0  0  0  0  0  0  0  0  0
    1.1474   -1.8088   -1.2680 C   0  0  0  0  0  2  0  0  0  0  0  0
    2.0690   -3.4992   -2.4770 C   0  0  0  0  0  0  0  0  0  0  0  0
    2.8418   -4.0177   -3.0522 H   0  0  0  0  0  0  0  0  0  0  0  0
    0.7889   -3.8689   -2.1507 C   0  0  0  0  0  0  0  0  0  0  0  0
    0.2200   -4.7713   -2.3947 H   0  0  0  0  0  0  0  0  0  0  0  0
    3.5158   -1.4946   -1.9903 C   0  0  0  0  0  0  0  0  0  0  0  0
    3.2547   -0.4154   -2.0044 H   0  0  0  0  0  0  0  0  0  0  0  0
    4.0051   -1.7167   -2.9594 H   0  0  0  0  0  0  0  0  0  0  0  0
    4.4639   -1.7774   -0.8385 C   0  0  0  0  0  0  0  0  0  0  0  0
    5.7917   -1.3170   -0.9362 C   0  0  0  0  0  0  0  0  0  0  0  0
    6.1246   -0.7925   -1.8454 H   0  0  0  0  0  0  0  0  0  0  0  0
    6.6895   -1.5077    0.1215 C   0  0  0  0  0  0  0  0  0  0  0  0
    7.7219   -1.1400    0.0303 H   0  0  0  0  0  0  0  0  0  0  0  0
    6.2726   -2.1609    1.2932 C   0  0  0  0  0  0  0  0  0  0  0  0
    6.9797   -2.3156    2.1218 H   0  0  0  0  0  0  0  0  0  0  0  0
    4.9538   -2.6270    1.3954 C   0  0  0  0  0  0  0  0  0  0  0  0
    4.6223   -3.1527    2.3035 H   0  0  0  0  0  0  0  0  0  0  0  0
    4.0523   -2.4378    0.3338 C   0  0  0  0  0  0  0  0  0  0  0  0
    3.0240   -2.8194    0.4217 H   0  0  0  0  0  0  0  0  0  0  0  0
  2 52  1  0  0  0  0
  2 57  1  0  0  0  0
  3 18  1  0  0  0  0
  3 21  1  0  0  0  0
  4 23  1  0  0  0  0
  5 66  1  0  0  0  0
  5 63  1  0  0  0  0
  6 66  1  0  0  0  0
  7  8  1  0  0  0  0
  9 10  1  0  0  0  0
  9  7  2  0  0  0  0
 11  9  1  0  0  0  0
 12 11  1  0  0  0  0
 13 11  2  0  0  0  0
 13 15  1  0  0  0  0
 14 13  1  0  0  0  0
 15 17  2  0  0  0  0
 16 15  1  0  0  0  0
 17  7  1  0  0  0  0
 17 18  1  0  0  0  0
 18 20  1  0  0  0  0
 19 18  1  0  0  0  0
 21 22  1  0  0  0  0
 23 21  2  0  0  0  0
 23 24  1  0  0  0  0
 25  4  1  0  0  0  0
 25  3  1  0  0  0  0
 26 28  1  0  0  0  0
 26  4  1  0  0  0  0
 26 27  1  0  0  0  0
 29 26  1  0  0  0  0
 30 29  1  0  0  0  0
 31 29  1  0  0  0  0
 32  1  1  0  0  0  0
 32 29  1  0  0  0  0
 32 33  1  0  0  0  0
 34 32  1  0  0  0  0
 35  1  1  0  0  0  0
 35 56  1  0  0  0  0
 36 35  2  0  0  0  0
 37 36  1  0  0  0  0
 38 36  1  0  0  0  0
 38 40  2  0  0  0  0
 39 38  1  0  0  0  0
 40 41  1  0  0  0  0
 40 42  1  0  0  0  0
 42 43  1  0  0  0  0
 43 44  1  0  0  0  0
 43 45  2  0  0  0  0
 45 46  1  0  0  0  0
 46 47  1  0  0  0  0
 46 48  2  0  0  0  0
 48 49  1  0  0  0  0
 50 48  1  0  0  0  0
 50 51  1  0  0  0  0
 52 50  2  0  0  0  0
 53 45  1  0  0  0  0
 53 52  1  0  0  0  0
 54 53  2  0  0  0  0
 55 54  1  0  0  0  0
 56 42  2  0  0  0  0
 56 54  1  0  0  0  0
 57 59  1  0  0  0  0
 58 57  1  0  0  0  0
 60 62  1  0  0  0  0
 60 57  1  0  0  0  0
 60 61  1  0  0  0  0
 63 60  1  0  0  0  0
 64 63  1  0  0  0  0
 65 63  1  0  0  0  0
 67 69  2  0  0  0  0
 67  6  1  0  0  0  0
 68 67  1  0  0  0  0
 69  5  1  0  0  0  0
 70 69  1  0  0  0  0
 71  6  1  0  0  0  0
 71 74  1  0  0  0  0
 72 71  1  0  0  0  0
 73 71  1  0  0  0  0
 74 83  1  0  0  0  0
 75 74  2  0  0  0  0
 75 77  1  0  0  0  0
 76 75  1  0  0  0  0
 77 79  2  0  0  0  0
 78 77  1  0  0  0  0
 79 81  1  0  0  0  0
 79 80  1  0  0  0  0
 81 82  1  0  0  0  0
 83 84  1  0  0  0  0
 83 81  2  0  0  0  0
M  END
