4,8
q = 0.0, confidence = 0.994

 46 48  0  0  1  0  0  0  0  0999 V2000
    1.3978    0.5233   -1.1005 P   0  0  0  0  0  0  0  0  0  0  0  0
    1.2100    0.7379   -2.5978 O   0  0  0  0  0  0  0  0  0  0  0  0
   -0.8408   -1.3000   -0.8977 C   0  0  1  0  0  3  0  0  0  0  0  0
   -1.5897   -2.3413   -0.2439 C   0  0  0  0  0  3  0  0  0  0  0  0
   -1.1100   -2.8959    0.5753 H   0  0  0  0  0  0  0  0  0  0  0  0
   -2.9191   -2.6421   -0.6211 C   0  0  0  0  0  3  0  0  0  0  0  0
   -3.4784   -3.4216   -0.0864 H   0  0  0  0  0  0  0  0  0  0  0  0
   -3.5599   -1.8605   -1.6301 C   0  0  0  0  0  3  0  0  0  0  0  0
   -4.6148   -2.0432   -1.8782 H   0  0  0  0  0  0  0  0  0  0  0  0
   -2.8447   -0.8292   -2.2853 C   0  0  0  0  0  0  0  0  0  0  0  0
   -3.3409   -0.2056   -3.0410 H   0  0  0  0  0  0  0  0  0  0  0  0
   -1.4986   -0.5407   -1.9103 C   0  0  0  0  0  0  0  0  0  0  0  0
   -0.9419    0.2696   -2.4049 H   0  0  0  0  0  0  0  0  0  0  0  0
    0.5348   -0.9875   -0.4432 C   0  0  0  0  0  0  0  0  0  0  0  0
    1.2004   -1.7180    0.4428 C   0  0  0  0  0  0  0  0  0  0  0  0
    1.9496   -2.3525    1.3294 C   0  0  0  0  0  0  0  0  0  0  0  0
    1.8526   -2.0289    2.8042 C   0  0  0  0  0  0  0  0  0  0  0  0
    2.7945   -1.5482    3.1483 H   0  0  0  0  0  0  0  0  0  0  0  0
    1.7281   -2.9585    3.3989 H   0  0  0  0  0  0  0  0  0  0  0  0
    1.0037   -1.3562    3.0291 H   0  0  0  0  0  0  0  0  0  0  0  0
    2.9816   -3.3722    0.9071 C   0  0  0  0  0  0  0  0  0  0  0  0
    2.8337   -4.3337    1.4429 H   0  0  0  0  0  0  0  0  0  0  0  0
    3.9951   -2.9989    1.1714 H   0  0  0  0  0  0  0  0  0  0  0  0
    2.9589   -3.5596   -0.1821 H   0  0  0  0  0  0  0  0  0  0  0  0
    0.7770    1.9161   -0.0993 C   0  0  0  0  0  0  0  0  0  0  0  0
    0.4531    1.7952    1.2657 C   0  0  0  0  0  0  0  0  0  0  0  0
    0.5448    0.8246    1.7740 H   0  0  0  0  0  0  0  0  0  0  0  0
   -0.0315    2.9072    1.9685 C   0  0  0  0  0  0  0  0  0  0  0  0
   -0.3056    2.8028    3.0290 H   0  0  0  0  0  0  0  0  0  0  0  0
   -0.1904    4.1381    1.3116 C   0  0  0  0  0  0  0  0  0  0  0  0
   -0.5813    5.0071    1.8622 H   0  0  0  0  0  0  0  0  0  0  0  0
    0.1267    4.2569   -0.0510 C   0  0  0  0  0  0  0  0  0  0  0  0
   -0.0160    5.2177   -0.5683 H   0  0  0  0  0  0  0  0  0  0  0  0
    0.6056    3.1472   -0.7613 C   0  0  0  0  0  0  0  0  0  0  0  0
    0.8345    3.2088   -1.8363 H   0  0  0  0  0  0  0  0  0  0  0  0
    3.1517    0.2550   -0.6538 C   0  0  0  0  0  0  0  0  0  0  0  0
    3.9891   -0.2209   -1.6808 C   0  0  0  0  0  0  0  0  0  0  0  0
    3.5667   -0.3533   -2.6889 H   0  0  0  0  0  0  0  0  0  0  0  0
    5.3360   -0.5046   -1.4085 C   0  0  0  0  0  0  0  0  0  0  0  0
    5.9909   -0.8759   -2.2115 H   0  0  0  0  0  0  0  0  0  0  0  0
    5.8486   -0.3088   -0.1158 C   0  0  0  0  0  0  0  0  0  0  0  0
    6.9058   -0.5303    0.0963 H   0  0  0  0  0  0  0  0  0  0  0  0
    5.0171    0.1841    0.9045 C   0  0  0  0  0  0  0  0  0  0  0  0
    5.4230    0.3542    1.9135 H   0  0  0  0  0  0  0  0  0  0  0  0
    3.6702    0.4706    0.6373 C   0  0  0  0  0  0  0  0  0  0  0  0
    3.0240    0.8687    1.4339 H   0  0  0  0  0  0  0  0  0  0  0  0
  1 36  1  0  0  0  0
  1 14  1  0  0  0  0
  1 25  1  0  0  0  0
  2  1  2  0  0  0  0
  3 14  1  1  0  0  0
  3  4  1  0  0  0  0
  4  5  1  0  0  0  0
  6  4  1  0  0  0  0
  6  7  1  0  0  0  0
  8  6  1  0  0  0  0
  9  8  1  0  0  0  0
 10 12  2  0  0  0  0
 10  8  1  0  0  0  0
 11 10  1  0  0  0  0
 12  3  1  0  0  0  0
 13 12  1  0  0  0  0
 14 15  2  0  0  0  0
 15 16  2  0  0  0  0
 16 17  1  0  0  0  0
 17 20  1  0  0  0  0
 17 18  1  0  0  0  0
 17 19  1  0  0  0  0
 21 23  1  0  0  0  0
 21 16  1  0  0  0  0
 21 22  1  0  0  0  0
 24 21  1  0  0  0  0
 25 26  1  0  0  0  0
 26 27  1  0  0  0  0
 26 28  2  0  0  0  0
 28 29  1  0  0  0  0
 30 31  1  0  0  0  0
 30 28  1  0  0  0  0
 32 30  2  0  0  0  0
 33 32  1  0  0  0  0
 34 25  2  0  0  0  0
 34 32  1  0  0  0  0
 35 34  1  0  0  0  0
 36 45  1  0  0  0  0
 37 39  1  0  0  0  0
 37 36  2  0  0  0  0
 38 37  1  0  0  0  0
 39 41  2  0  0  0  0
 40 39  1  0  0  0  0
 41 42  1  0  0  0  0
 41 43  1  0  0  0  0
 43 44  1  0  0  0  0
 45 43  2  0  0  0  0
 45 46  1  0  0  0  0
M  END
