12,55
q = 0.0, confidence = 0.984

 69 73  0  0  0  0  0  0  0  0999 V2000
    0.3807    4.5485    0.0743 O   0  0  0  0  0  0  0  0  0  0  0  0
   -4.5835   -0.2090    1.8646 O   0  0  0  0  0  0  0  0  0  0  0  0
    3.5769   -1.5555    0.3191 N   0  0  0  0  0  0  0  0  0  0  0  0
    3.4766    0.4214   -0.6240 N   0  0  0  0  0  0  0  0  0  0  0  0
    0.8731    2.4743    0.9256 N   0  0  0  0  0  0  0  0  0  0  0  0
    0.4331    1.6434    1.3305 H   0  0  0  0  0  0  0  0  0  0  0  0
   -1.7688    1.8954    1.1646 N   0  0  0  0  0  0  0  0  0  0  0  0
   -2.3264   -0.5123    2.2179 N   0  0  0  0  0  0  0  0  0  0  0  0
   -1.4319   -0.0227    2.1140 H   0  0  0  0  0  0  0  0  0  0  0  0
   -2.1364   -2.0347   -0.3759 N   0  0  0  0  0  0  0  0  0  0  0  0
   -2.0911   -0.1636   -1.5123 N   0  0  0  0  0  0  0  0  0  0  0  0
    2.7171   -0.6435   -0.2261 C   0  0  0  0  0  2  0  0  0  0  0  0
    4.8886   -1.0834    0.2671 C   0  0  0  0  0  0  0  0  0  0  0  0
    6.1057   -1.6485    0.6763 C   0  0  0  0  0  0  0  0  0  0  0  0
    6.1560   -2.6396    1.1480 H   0  0  0  0  0  0  0  0  0  0  0  0
    7.2606   -0.8889    0.4487 C   0  0  0  0  0  0  0  0  0  0  0  0
    8.2373   -1.2921    0.7530 H   0  0  0  0  0  0  0  0  0  0  0  0
    7.2011    0.3826   -0.1690 C   0  0  0  0  0  0  0  0  0  0  0  0
    8.1333    0.9416   -0.3353 H   0  0  0  0  0  0  0  0  0  0  0  0
    5.9855    0.9470   -0.5774 C   0  0  0  0  0  0  0  0  0  0  0  0
    5.9504    1.9316   -1.0629 H   0  0  0  0  0  0  0  0  0  0  0  0
    4.8254    0.1917   -0.3428 C   0  0  0  0  0  0  0  0  0  0  0  0
    3.2029   -2.8527    0.8563 C   0  0  0  0  0  0  0  0  0  0  0  0
    3.5042   -2.9303    1.9198 H   0  0  0  0  0  0  0  0  0  0  0  0
    3.6928   -3.6638    0.2817 H   0  0  0  0  0  0  0  0  0  0  0  0
    2.1062   -2.9630    0.7771 H   0  0  0  0  0  0  0  0  0  0  0  0
    2.9501    1.6544   -1.2162 C   0  0  0  0  0  0  0  0  0  0  0  0
    1.8974    1.4421   -1.4878 H   0  0  0  0  0  0  0  0  0  0  0  0
    3.5036    1.8472   -2.1577 H   0  0  0  0  0  0  0  0  0  0  0  0
    3.0336    2.8652   -0.2852 C   0  0  0  0  0  0  0  0  0  0  0  0
    4.0930    3.1154   -0.0705 H   0  0  0  0  0  0  0  0  0  0  0  0
    2.6031    3.7371   -0.8177 H   0  0  0  0  0  0  0  0  0  0  0  0
    2.3017    2.7059    1.0541 C   0  0  0  0  0  0  0  0  0  0  0  0
    2.7280    1.8632    1.6350 H   0  0  0  0  0  0  0  0  0  0  0  0
    2.4707    3.6320    1.6446 H   0  0  0  0  0  0  0  0  0  0  0  0
    0.0165    3.4573    0.5160 C   0  0  0  0  0  0  0  0  0  0  0  0
   -1.4485    3.0942    0.6435 C   0  0  0  0  0  0  0  0  0  0  0  0
   -2.4162    4.0205    0.2133 C   0  0  0  0  0  0  0  0  0  0  0  0
   -2.0752    4.9841   -0.1912 H   0  0  0  0  0  0  0  0  0  0  0  0
   -3.7697    3.6714    0.3225 C   0  0  0  0  0  0  0  0  0  0  0  0
   -4.5547    4.3716   -0.0010 H   0  0  0  0  0  0  0  0  0  0  0  0
   -4.1073    2.4175    0.8513 C   0  0  0  0  0  0  0  0  0  0  0  0
   -5.1440    2.0693    0.9613 H   0  0  0  0  0  0  0  0  0  0  0  0
   -3.0696    1.5638    1.2655 C   0  0  0  0  0  0  0  0  0  0  0  0
   -3.4220    0.1969    1.8202 C   0  0  0  0  0  0  0  0  0  0  0  0
   -2.3627   -1.8872    2.6658 C   0  0  0  0  0  0  0  0  0  0  0  0
   -3.4078   -2.2379    2.5336 H   0  0  0  0  0  0  0  0  0  0  0  0
   -2.1450   -1.9455    3.7553 H   0  0  0  0  0  0  0  0  0  0  0  0
   -1.3535   -2.7675    1.9139 C   0  0  0  0  0  0  0  0  0  0  0  0
   -0.3638   -2.2576    1.9138 H   0  0  0  0  0  0  0  0  0  0  0  0
   -1.2081   -3.7133    2.4758 H   0  0  0  0  0  0  0  0  0  0  0  0
   -1.7225   -3.1530    0.4745 C   0  0  0  0  0  0  0  0  0  0  0  0
   -0.8649   -3.6567   -0.0156 H   0  0  0  0  0  0  0  0  0  0  0  0
   -2.5608   -3.8753    0.4737 H   0  0  0  0  0  0  0  0  0  0  0  0
   -1.3072   -1.0492   -0.8307 C   0  0  0  0  0  2  0  0  0  0  0  0
   -3.4588   -1.7727   -0.7468 C   0  0  0  0  0  0  0  0  0  0  0  0
   -4.6669   -2.4403   -0.4987 C   0  0  0  0  0  0  0  0  0  0  0  0
   -4.7125   -3.3697    0.0848 H   0  0  0  0  0  0  0  0  0  0  0  0
   -5.8305   -1.8521   -1.0058 C   0  0  0  0  0  0  0  0  0  0  0  0
   -6.7990   -2.3383   -0.8214 H   0  0  0  0  0  0  0  0  0  0  0  0
   -5.7951   -0.6426   -1.7391 C   0  0  0  0  0  0  0  0  0  0  0  0
   -6.7362   -0.2166   -2.1156 H   0  0  0  0  0  0  0  0  0  0  0  0
   -4.5909    0.0237   -1.9941 C   0  0  0  0  0  0  0  0  0  0  0  0
   -4.5628    0.9633   -2.5626 H   0  0  0  0  0  0  0  0  0  0  0  0
   -3.4258   -0.5650   -1.4806 C   0  0  0  0  0  0  0  0  0  0  0  0
   -1.6306    1.0382   -2.1859 C   0  0  0  0  0  0  0  0  0  0  0  0
   -2.2105    1.9132   -1.8344 H   0  0  0  0  0  0  0  0  0  0  0  0
   -1.7492    0.9373   -3.2831 H   0  0  0  0  0  0  0  0  0  0  0  0
   -0.5650    1.1952   -1.9430 H   0  0  0  0  0  0  0  0  0  0  0  0
  1 36  2  0  0  0  0
  3 23  1  0  0  0  0
  4 22  1  0  0  0  0
  4 12  1  0  0  0  0
  5 33  1  0  0  0  0
  5  6  1  0  0  0  0
  7 44  1  0  0  0  0
  8 46  1  0  0  0  0
  9  8  1  0  0  0  0
 10 52  1  0  0  0  0
 11 65  1  0  0  0  0
 11 55  1  0  0  0  0
 12  3  1  0  0  0  0
 13  3  1  0  0  0  0
 13 14  1  0  0  0  0
 14 15  1  0  0  0  0
 16 14  2  0  0  0  0
 16 17  1  0  0  0  0
 18 16  1  0  0  0  0
 19 18  1  0  0  0  0
 20 22  1  0  0  0  0
 20 18  2  0  0  0  0
 21 20  1  0  0  0  0
 22 13  2  0  0  0  0
 23 24  1  0  0  0  0
 25 23  1  0  0  0  0
 26 23  1  0  0  0  0
 27  4  1  0  0  0  0
 27 30  1  0  0  0  0
 28 27  1  0  0  0  0
 29 27  1  0  0  0  0
 30 31  1  0  0  0  0
 30 33  1  0  0  0  0
 32 30  1  0  0  0  0
 33 34  1  0  0  0  0
 33 35  1  0  0  0  0
 36 37  1  0  0  0  0
 36  5  1  0  0  0  0
 37  7  2  0  0  0  0
 38 40  2  0  0  0  0
 38 37  1  0  0  0  0
 39 38  1  0  0  0  0
 40 42  1  0  0  0  0
 41 40  1  0  0  0  0
 42 43  1  0  0  0  0
 42 44  2  0  0  0  0
 44 45  1  0  0  0  0
 45  2  2  0  0  0  0
 45  8  1  0  0  0  0
 46 48  1  0  0  0  0
 47 46  1  0  0  0  0
 49 51  1  0  0  0  0
 49 46  1  0  0  0  0
 50 49  1  0  0  0  0
 52 49  1  0  0  0  0
 53 52  1  0  0  0  0
 54 52  1  0  0  0  0
 55 10  1  0  0  0  0
 56 57  1  0  0  0  0
 56 10  1  0  0  0  0
 57 58  1  0  0  0  0
 59 60  1  0  0  0  0
 59 57  2  0  0  0  0
 61 59  1  0  0  0  0
 62 61  1  0  0  0  0
 63 61  2  0  0  0  0
 63 65  1  0  0  0  0
 64 63  1  0  0  0  0
 65 56  2  0  0  0  0
 66 69  1  0  0  0  0
 66 67  1  0  0  0  0
 66 11  1  0  0  0  0
 68 66  1  0  0  0  0
M  END
