8,11
q = -1.0, confidence = 0.0

 42 42  0  0  1  0  0  0  0  0999 V2000
   -1.2345   -0.5325    0.0278 P   0  0  0  0  0  0  0  0  0  0  0  0
   -3.0556    1.5306   -0.5196 C   0  0  0  0  0  0  0  0  0  0  0  0
   -3.1718    1.4792   -1.6193 H   0  0  0  0  0  0  0  0  0  0  0  0
   -3.9484    2.0696   -0.1334 H   0  0  0  0  0  0  0  0  0  0  0  0
   -3.0033    0.1135    0.0840 C   0  0  0  0  0  0  0  0  0  0  0  0
   -3.7311   -0.5839   -0.3820 H   0  0  0  0  0  0  0  0  0  0  0  0
   -3.2554    0.1581    1.1632 H   0  0  0  0  0  0  0  0  0  0  0  0
   -1.7929    2.2964   -0.1986 C   0  0  2  0  0  3  0  0  0  0  0  0
   -0.8121    2.7510   -1.1545 C   0  0  0  0  0  3  0  0  0  0  0  0
   -0.9202    2.7286   -2.2454 H   0  0  0  0  0  0  0  0  0  0  0  0
    0.3144    3.2203   -0.4098 C   0  0  0  0  0  3  0  0  0  0  0  0
    1.2518    3.6051   -0.8295 H   0  0  0  0  0  0  0  0  0  0  0  0
    0.0053    3.1255    1.0030 C   0  0  0  0  0  0  0  0  0  0  0  0
    0.6715    3.4223    1.8220 H   0  0  0  0  0  0  0  0  0  0  0  0
   -1.3031    2.5809    1.1370 C   0  0  0  0  0  0  0  0  0  0  0  0
   -1.8410    2.3952    2.0746 H   0  0  0  0  0  0  0  0  0  0  0  0
   -1.1623   -1.6832    1.5669 C   0  0  0  0  0  0  0  0  0  0  0  0
   -2.4148   -2.5566    1.7571 C   0  0  0  0  0  0  0  0  0  0  0  0
   -2.5474   -3.3040    0.9547 H   0  0  0  0  0  0  0  0  0  0  0  0
   -3.3425   -1.9547    1.8244 H   0  0  0  0  0  0  0  0  0  0  0  0
   -2.3215   -3.1145    2.7140 H   0  0  0  0  0  0  0  0  0  0  0  0
   -1.0296   -0.7345    2.7742 C   0  0  0  0  0  0  0  0  0  0  0  0
   -1.9309   -0.1020    2.9069 H   0  0  0  0  0  0  0  0  0  0  0  0
   -0.1614   -0.0576    2.6552 H   0  0  0  0  0  0  0  0  0  0  0  0
   -0.9066   -1.3361    3.7003 H   0  0  0  0  0  0  0  0  0  0  0  0
    0.0956   -2.5662    1.5006 C   0  0  0  0  0  0  0  0  0  0  0  0
    0.0286   -3.3336    0.7049 H   0  0  0  0  0  0  0  0  0  0  0  0
    0.2126   -3.1053    2.4653 H   0  0  0  0  0  0  0  0  0  0  0  0
    1.0098   -1.9627    1.3382 H   0  0  0  0  0  0  0  0  0  0  0  0
   -1.1450   -1.5752   -1.5861 C   0  0  0  0  0  0  0  0  0  0  0  0
   -1.9761   -2.8648   -1.5612 C   0  0  0  0  0  0  0  0  0  0  0  0
   -3.0363   -2.6782   -1.2950 H   0  0  0  0  0  0  0  0  0  0  0  0
   -1.5668   -3.6160   -0.8589 H   0  0  0  0  0  0  0  0  0  0  0  0
   -1.9685   -3.3255   -2.5728 H   0  0  0  0  0  0  0  0  0  0  0  0
    0.3313   -1.8876   -1.8804 C   0  0  0  0  0  0  0  0  0  0  0  0
    0.9216   -0.9503   -1.8947 H   0  0  0  0  0  0  0  0  0  0  0  0
    0.4168   -2.3778   -2.8738 H   0  0  0  0  0  0  0  0  0  0  0  0
    0.7817   -2.5630   -1.1294 H   0  0  0  0  0  0  0  0  0  0  0  0
   -1.6652   -0.6581   -2.7085 C   0  0  0  0  0  0  0  0  0  0  0  0
   -2.7563   -0.4799   -2.6346 H   0  0  0  0  0  0  0  0  0  0  0  0
   -1.4737   -1.1386   -3.6915 H   0  0  0  0  0  0  0  0  0  0  0  0
   -1.1414    0.3189   -2.6920 H   0  0  0  0  0  0  0  0  0  0  0  0
  1  5  1  0  0  0  0
  1 17  1  0  0  0  0
  2  4  1  0  0  0  0
  2  5  1  0  0  0  0
  3  2  1  0  0  0  0
  5  7  1  0  0  0  0
  6  5  1  0  0  0  0
  8  2  1  1  0  0  0
  8 15  1  0  0  0  0
  9 11  1  0  0  0  0
  9  8  1  0  0  0  0
 10  9  1  0  0  0  0
 11 13  1  0  0  0  0
 12 11  1  0  0  0  0
 13 15  2  0  0  0  0
 13 14  1  0  0  0  0
 15 16  1  0  0  0  0
 17 18  1  0  0  0  0
 17 22  1  0  0  0  0
 18 20  1  0  0  0  0
 18 21  1  0  0  0  0
 19 18  1  0  0  0  0
 22 23  1  0  0  0  0
 22 25  1  0  0  0  0
 24 22  1  0  0  0  0
 26 17  1  0  0  0  0
 26 28  1  0  0  0  0
 27 26  1  0  0  0  0
 29 26  1  0  0  0  0
 30 31  1  0  0  0  0
 30  1  1  0  0  0  0
 31 32  1  0  0  0  0
 31 33  1  0  0  0  0
 34 31  1  0  0  0  0
 35 30  1  0  0  0  0
 35 38  1  0  0  0  0
 36 35  1  0  0  0  0
 37 35  1  0  0  0  0
 39 42  1  0  0  0  0
 39 40  1  0  0  0  0
 39 30  1  0  0  0  0
 41 39  1  0  0  0  0
M  END
