2,22
q = -2.0, confidence = 0.554

 33 33  0  0  1  0  0  0  0  0999 V2000
   -1.6713    1.9239   -0.4905 N   0  0  0  0  0  0  0  0  0  0  0  0
    0.9201    1.1233    0.1030 C   0  0  0  0  0  3  0  0  0  0  0  0
    0.5798    2.4845    0.2923 C   0  0  0  0  0  0  0  0  0  0  0  0
    1.5565    3.4964    0.3480 C   0  0  0  0  0  0  0  0  0  0  0  0
    1.2630    4.5490    0.4974 H   0  0  0  0  0  0  0  0  0  0  0  0
    2.9088    3.1555    0.2020 C   0  0  0  0  0  0  0  0  0  0  0  0
    3.6824    3.9382    0.2445 H   0  0  0  0  0  0  0  0  0  0  0  0
    3.2764    1.8161   -0.0089 C   0  0  0  0  0  0  0  0  0  0  0  0
    4.3418    1.5671   -0.1315 H   0  0  0  0  0  0  0  0  0  0  0  0
    2.2955    0.8062   -0.0574 C   0  0  0  0  0  0  0  0  0  0  0  0
   -0.8877    2.8082    0.4112 C   0  0  0  0  0  0  0  0  0  0  0  0
   -1.2453    2.6425    1.4478 H   0  0  0  0  0  0  0  0  0  0  0  0
   -1.0969    3.8797    0.1714 H   0  0  0  0  0  0  0  0  0  0  0  0
   -1.3683    2.3383   -1.8747 C   0  0  0  0  0  0  0  0  0  0  0  0
   -1.9487    1.7438   -2.6007 H   0  0  0  0  0  0  0  0  0  0  0  0
   -0.2893    2.2090   -2.0705 H   0  0  0  0  0  0  0  0  0  0  0  0
   -1.6291    3.4133   -2.0212 H   0  0  0  0  0  0  0  0  0  0  0  0
   -3.1122    2.0855   -0.2570 C   0  0  0  0  0  0  0  0  0  0  0  0
   -3.3622    1.8663    0.7961 H   0  0  0  0  0  0  0  0  0  0  0  0
   -3.6813    1.3882   -0.9021 H   0  0  0  0  0  0  0  0  0  0  0  0
   -3.4484    3.1254   -0.4846 H   0  0  0  0  0  0  0  0  0  0  0  0
    1.4995   -1.4367    0.4826 C   0  0  0  0  0  3  0  0  0  0  0  0
    1.7026   -1.2799    1.5635 H   0  0  0  0  0  0  0  0  0  0  0  0
    1.5543   -2.5339    0.3069 H   0  0  0  0  0  0  0  0  0  0  0  0
    2.5981   -0.6699   -0.2686 C   0  0  2  0  0  0  0  0  0  0  0  0
    2.4965   -0.8584   -1.3668 H   0  0  0  0  0  0  0  0  0  0  0  0
    4.0353   -1.0888    0.1032 C   0  0  0  0  0  0  0  0  0  0  0  0
    4.7588   -0.4641   -0.4655 H   0  0  0  0  0  0  0  0  0  0  0  0
    4.2077   -0.8532    1.1775 H   0  0  0  0  0  0  0  0  0  0  0  0
    4.3492   -2.5608   -0.1664 C   0  0  0  0  0  0  0  0  0  0  0  0
    3.7169   -3.2341    0.4469 H   0  0  0  0  0  0  0  0  0  0  0  0
    5.4085   -2.7991    0.0594 H   0  0  0  0  0  0  0  0  0  0  0  0
    4.1695   -2.8206   -1.2319 H   0  0  0  0  0  0  0  0  0  0  0  0
  1 18  1  0  0  0  0
  1 11  1  0  0  0  0
  2  3  1  0  0  0  0
  3  4  2  0  0  0  0
  3 11  1  0  0  0  0
  4  5  1  0  0  0  0
  6  7  1  0  0  0  0
  6  4  1  0  0  0  0
  8  6  2  0  0  0  0
  9  8  1  0  0  0  0
 10  8  1  0  0  0  0
 10  2  2  0  0  0  0
 11 12  1  0  0  0  0
 13 11  1  0  0  0  0
 14  1  1  0  0  0  0
 15 14  1  0  0  0  0
 16 14  1  0  0  0  0
 17 14  1  0  0  0  0
 18 19  1  0  0  0  0
 20 18  1  0  0  0  0
 21 18  1  0  0  0  0
 22 23  1  0  0  0  0
 24 22  1  0  0  0  0
 25 26  1  6  0  0  0
 25 10  1  0  0  0  0
 25 27  1  0  0  0  0
 25 22  1  0  0  0  0
 27 29  1  0  0  0  0
 28 27  1  0  0  0  0
 30 32  1  0  0  0  0
 30 27  1  0  0  0  0
 30 31  1  0  0  0  0
 33 30  1  0  0  0  0
M  END
