9,12
q = -1.0, confidence = 0.03

 45 47  0  0  1  0  0  0  0  0999 V2000
    2.6734    0.3560    0.0912 P   0  0  0  0  0  4  0  0  0  0  0  0
    1.9077    0.0925   -2.4197 F   0  0  0  0  0  0  0  0  0  0  0  0
    2.7442   -2.4181   -0.2190 F   0  0  0  0  0  0  0  0  0  0  0  0
    2.6610   -2.2979   -2.4209 F   0  0  0  0  0  0  0  0  0  0  0  0
    0.9083   -4.1431   -1.0539 F   0  0  0  0  0  0  0  0  0  0  0  0
    0.0528   -2.6917   -2.4718 F   0  0  0  0  0  0  0  0  0  0  0  0
    0.2985   -2.4763    1.0617 F   0  0  0  0  0  0  0  0  0  0  0  0
   -1.4348   -2.9127   -0.2203 F   0  0  0  0  0  0  0  0  0  0  0  0
    1.6205   -0.5008   -1.1734 C   0  0  1  0  0  3  0  0  0  0  0  0
    1.9672   -2.0081   -1.2836 C   0  0  0  0  0  0  0  0  0  0  0  0
    0.6577   -2.8190   -1.2487 C   0  0  0  0  0  0  0  0  0  0  0  0
   -0.2453   -2.1826   -0.1841 C   0  0  0  0  0  3  0  0  0  0  0  0
    2.5868    2.1636   -0.1078 C   0  0  0  0  0  0  0  0  0  0  0  0
    2.3444    3.0054    0.9943 C   0  0  0  0  0  0  0  0  0  0  0  0
    2.1278    2.5797    1.9838 H   0  0  0  0  0  0  0  0  0  0  0  0
    2.3596    4.3962    0.8202 C   0  0  0  0  0  0  0  0  0  0  0  0
    2.1561    5.0524    1.6796 H   0  0  0  0  0  0  0  0  0  0  0  0
    2.6258    4.9477   -0.4423 C   0  0  0  0  0  0  0  0  0  0  0  0
    2.6285    6.0400   -0.5761 H   0  0  0  0  0  0  0  0  0  0  0  0
    2.8973    4.1055   -1.5325 C   0  0  0  0  0  0  0  0  0  0  0  0
    3.1111    4.5338   -2.5230 H   0  0  0  0  0  0  0  0  0  0  0  0
    2.8891    2.7156   -1.3707 C   0  0  0  0  0  0  0  0  0  0  0  0
    3.0848    2.0581   -2.2279 H   0  0  0  0  0  0  0  0  0  0  0  0
    4.4760    0.0541   -0.0388 C   0  0  0  0  0  0  0  0  0  0  0  0
    5.3259    0.5204    0.9863 C   0  0  0  0  0  0  0  0  0  0  0  0
    4.9030    1.0039    1.8802 H   0  0  0  0  0  0  0  0  0  0  0  0
    6.7136    0.3707    0.8628 C   0  0  0  0  0  0  0  0  0  0  0  0
    7.3743    0.7263    1.6678 H   0  0  0  0  0  0  0  0  0  0  0  0
    7.2580   -0.2244   -0.2876 C   0  0  0  0  0  0  0  0  0  0  0  0
    8.3484   -0.3384   -0.3836 H   0  0  0  0  0  0  0  0  0  0  0  0
    6.4125   -0.6682   -1.3153 C   0  0  0  0  0  0  0  0  0  0  0  0
    6.8358   -1.1293   -2.2202 H   0  0  0  0  0  0  0  0  0  0  0  0
    5.0208   -0.5319   -1.1973 C   0  0  0  0  0  0  0  0  0  0  0  0
    4.3633   -0.8845   -2.0028 H   0  0  0  0  0  0  0  0  0  0  0  0
    2.0950   -0.1211    1.7361 C   0  0  0  0  0  0  0  0  0  0  0  0
    2.8133   -1.0491    2.5130 C   0  0  0  0  0  0  0  0  0  0  0  0
    3.7771   -1.4404    2.1584 H   0  0  0  0  0  0  0  0  0  0  0  0
    2.2751   -1.4972    3.7274 C   0  0  0  0  0  0  0  0  0  0  0  0
    2.8300   -2.2319    4.3295 H   0  0  0  0  0  0  0  0  0  0  0  0
    1.0272   -1.0234    4.1603 C   0  0  0  0  0  0  0  0  0  0  0  0
    0.6005   -1.3832    5.1089 H   0  0  0  0  0  0  0  0  0  0  0  0
    0.3101   -0.1013    3.3830 C   0  0  0  0  0  0  0  0  0  0  0  0
   -0.6724    0.2586    3.7177 H   0  0  0  0  0  0  0  0  0  0  0  0
    0.8317    0.3473    2.1625 C   0  0  0  0  0  0  0  0  0  0  0  0
    0.2593    1.0466    1.5310 H   0  0  0  0  0  0  0  0  0  0  0  0
  1 35  1  0  0  0  0
  4 10  1  0  0  0  0
  6 11  1  0  0  0  0
  8 12  1  0  0  0  0
  9  2  1  6  0  0  0
  9  1  1  0  0  0  0
 10 11  1  0  0  0  0
 10  9  1  0  0  0  0
 10  3  1  0  0  0  0
 11  5  1  0  0  0  0
 11 12  1  0  0  0  0
 12  7  1  0  0  0  0
 13  1  1  0  0  0  0
 13 14  1  0  0  0  0
 14 15  1  0  0  0  0
 16 14  2  0  0  0  0
 16 17  1  0  0  0  0
 18 16  1  0  0  0  0
 19 18  1  0  0  0  0
 20 22  1  0  0  0  0
 20 18  2  0  0  0  0
 21 20  1  0  0  0  0
 22 13  2  0  0  0  0
 23 22  1  0  0  0  0
 24  1  1  0  0  0  0
 24 25  1  0  0  0  0
 25 26  1  0  0  0  0
 27 25  2  0  0  0  0
 27 28  1  0  0  0  0
 29 27  1  0  0  0  0
 30 29  1  0  0  0  0
 31 33  1  0  0  0  0
 31 29  2  0  0  0  0
 32 31  1  0  0  0  0
 33 24  2  0  0  0  0
 34 33  1  0  0  0  0
 35 44  2  0  0  0  0
 35 36  1  0  0  0  0
 36 38  2  0  0  0  0
 37 36  1  0  0  0  0
 38 40  1  0  0  0  0
 38 39  1  0  0  0  0
 40 41  1  0  0  0  0
 42 43  1  0  0  0  0
 42 40  2  0  0  0  0
 44 42  1  0  0  0  0
 45 44  1  0  0  0  0
M  END
