9,12
q = -1.0, confidence = 0.02

 22 22  0  0  1  0  0  0  0  0999 V2000
   -1.3437   -3.2211    0.2514 F   0  0  0  0  0  0  0  0  0  0  0  0
   -1.6741   -1.6871    1.8061 F   0  0  0  0  0  0  0  0  0  0  0  0
   -4.0062   -2.1483    0.4940 F   0  0  0  0  0  0  0  0  0  0  0  0
   -3.0092   -2.0184   -1.4661 F   0  0  0  0  0  0  0  0  0  0  0  0
   -3.4078    0.3918    1.0696 F   0  0  0  0  0  0  0  0  0  0  0  0
   -4.1277    0.3768   -1.0067 F   0  0  0  0  0  0  0  0  0  0  0  0
   -1.8311    0.7231   -2.0324 F   0  0  0  0  0  0  0  0  0  0  0  0
   -1.4924    1.8606   -0.0544 N   0  0  0  0  0  0  0  0  0  0  0  0
   -1.5881   -1.8816    0.4206 C   0  0  0  0  0  3  0  0  0  0  0  0
   -2.9777   -1.5704   -0.1782 C   0  0  0  0  0  0  0  0  0  0  0  0
   -3.1157   -0.0307   -0.2002 C   0  0  0  0  0  0  0  0  0  0  0  0
   -1.7321    0.5150   -0.6634 C   0  0  1  0  0  3  0  0  0  0  0  0
   -1.5040    2.9834   -0.8173 C   0  0  0  0  0  3  0  0  0  0  0  0
   -1.7223    2.8309   -1.8799 H   0  0  0  0  0  0  0  0  0  0  0  0
   -1.2330    4.2233   -0.2460 C   0  0  0  0  0  0  0  0  0  0  0  0
   -1.2267    5.1134   -0.8892 H   0  0  0  0  0  0  0  0  0  0  0  0
   -0.9510    4.3071    1.1231 C   0  0  0  0  0  0  0  0  0  0  0  0
   -0.7164    5.2762    1.5862 H   0  0  0  0  0  0  0  0  0  0  0  0
   -0.9348    3.1316    1.8859 C   0  0  0  0  0  0  0  0  0  0  0  0
   -0.6793    3.1387    2.9535 H   0  0  0  0  0  0  0  0  0  0  0  0
   -1.1860    1.9114    1.2713 C   0  0  0  0  0  0  0  0  0  0  0  0
   -1.1324    0.9440    1.7849 H   0  0  0  0  0  0  0  0  0  0  0  0
  1  9  1  0  0  0  0
  4 10  1  0  0  0  0
  6 11  1  0  0  0  0
  8 21  1  0  0  0  0
  9  2  1  0  0  0  0
 10  9  1  0  0  0  0
 10  3  1  0  0  0  0
 11 10  1  0  0  0  0
 11  5  1  0  0  0  0
 12  7  1  6  0  0  0
 12 11  1  0  0  0  0
 12  8  1  0  0  0  0
 13 15  1  0  0  0  0
 13  8  1  0  0  0  0
 14 13  1  0  0  0  0
 15 17  2  0  0  0  0
 16 15  1  0  0  0  0
 17 18  1  0  0  0  0
 17 19  1  0  0  0  0
 19 20  1  0  0  0  0
 21 22  1  0  0  0  0
 21 19  2  0  0  0  0
M  END
