1,20
q = -1.0, confidence = 0.002

 34 34  0  0  1  0  0  0  0  0999 V2000
    0.0000    1.0707   -0.5561 C   0  0  1  0  0  3  0  0  0  0  0  0
    0.0000    2.9633   -0.7735 Br  0  0  0  0  0  0  0  0  0  0  0  0
   -1.2090    0.2826   -0.5367 C   0  0  0  0  0  0  0  0  0  0  0  0
   -3.0023    0.9643   -0.5132 Si  0  0  0  0  0  0  0  0  0  0  0  0
   -3.1707    2.2232    0.8848 C   0  0  0  0  0  0  0  0  0  0  0  0
   -3.3145    1.7473   -2.2047 C   0  0  0  0  0  0  0  0  0  0  0  0
   -4.2654   -0.4004   -0.1970 C   0  0  0  0  0  0  0  0  0  0  0  0
   -0.7162   -1.0816   -0.5578 C   0  0  0  0  0  0  0  0  0  0  0  0
   -1.7427   -2.6515   -0.7457 Br  0  0  0  0  0  0  0  0  0  0  0  0
   -2.4034    3.0194    0.8511 H   0  0  0  0  0  0  0  0  0  0  0  0
   -3.1000    1.7156    1.8678 H   0  0  0  0  0  0  0  0  0  0  0  0
   -4.1697    2.7033    0.8213 H   0  0  0  0  0  0  0  0  0  0  0  0
   -2.5949    2.5629   -2.4155 H   0  0  0  0  0  0  0  0  0  0  0  0
   -4.3394    2.1705   -2.2469 H   0  0  0  0  0  0  0  0  0  0  0  0
   -3.2243    0.9902   -3.0102 H   0  0  0  0  0  0  0  0  0  0  0  0
   -4.3293   -1.1299   -1.0265 H   0  0  0  0  0  0  0  0  0  0  0  0
   -5.2582    0.0853   -0.0865 H   0  0  0  0  0  0  0  0  0  0  0  0
   -4.0518   -0.9529    0.7390 H   0  0  0  0  0  0  0  0  0  0  0  0
    1.2090    0.2826   -0.5367 C   0  0  1  0  0  3  0  0  0  0  0  0
    0.7162   -1.0816   -0.5578 C   0  0  2  0  0  3  0  0  0  0  0  0
    3.0023    0.9642   -0.5132 Si  0  0  0  0  0  0  0  0  0  0  0  0
    1.7427   -2.6515   -0.7457 Br  0  0  0  0  0  0  0  0  0  0  0  0
    3.1707    2.2231    0.8848 C   0  0  0  0  0  0  0  0  0  0  0  0
    3.3145    1.7473   -2.2047 C   0  0  0  0  0  0  0  0  0  0  0  0
    4.2654   -0.4004   -0.1971 C   0  0  0  0  0  0  0  0  0  0  0  0
    2.4034    3.0194    0.8511 H   0  0  0  0  0  0  0  0  0  0  0  0
    3.1001    1.7155    1.8678 H   0  0  0  0  0  0  0  0  0  0  0  0
    4.1697    2.7033    0.8213 H   0  0  0  0  0  0  0  0  0  0  0  0
    2.5949    2.5629   -2.4154 H   0  0  0  0  0  0  0  0  0  0  0  0
    4.3395    2.1705   -2.2469 H   0  0  0  0  0  0  0  0  0  0  0  0
    3.2243    0.9902   -3.0102 H   0  0  0  0  0  0  0  0  0  0  0  0
    4.3292   -1.1300   -1.0266 H   0  0  0  0  0  0  0  0  0  0  0  0
    5.2582    0.0853   -0.0866 H   0  0  0  0  0  0  0  0  0  0  0  0
    4.0518   -0.9530    0.7389 H   0  0  0  0  0  0  0  0  0  0  0  0
  1  2  1  6  0  0  0
  1 19  1  0  0  0  0
  1  3  1  0  0  0  0
  3  4  1  0  0  0  0
  4  7  1  0  0  0  0
  4  5  1  0  0  0  0
  5 11  1  0  0  0  0
  6  4  1  0  0  0  0
  7 17  1  0  0  0  0
  7 18  1  0  0  0  0
  8 20  1  0  0  0  0
  8  3  2  0  0  0  0
  9  8  1  0  0  0  0
 10  5  1  0  0  0  0
 12  5  1  0  0  0  0
 13  6  1  0  0  0  0
 14  6  1  0  0  0  0
 15  6  1  0  0  0  0
 16  7  1  0  0  0  0
 19 21  1  6  0  0  0
 20 22  1  6  0  0  0
 20 19  1  0  0  0  0
 21 25  1  0  0  0  0
 21 23  1  0  0  0  0
 23 27  1  0  0  0  0
 24 21  1  0  0  0  0
 25 33  1  0  0  0  0
 25 34  1  0  0  0  0
 26 23  1  0  0  0  0
 28 23  1  0  0  0  0
 29 24  1  0  0  0  0
 30 24  1  0  0  0  0
 31 24  1  0  0  0  0
 32 25  1  0  0  0  0
M  END
