2,5
q = 0.0, confidence = 0.932

 15 15  0  0  0  0  0  0  0  0999 V2000
   -1.6643    0.5147    1.2156 C   0  0  0  0  0  3  0  0  0  0  0  0
   -1.1498   -0.7314    1.5851 C   0  0  0  0  0  3  0  0  0  0  0  0
   -0.8649   -1.8362    0.7104 C   0  0  0  0  0  0  0  0  0  0  0  0
   -0.8649   -1.8375   -0.7072 C   0  0  0  0  0  0  0  0  0  0  0  0
   -1.1499   -0.7342   -1.5839 C   0  0  0  0  0  3  0  0  0  0  0  0
   -1.6643    0.5126   -1.2165 C   0  0  0  0  0  3  0  0  0  0  0  0
   -2.5365    0.7390   -0.0006 C   0  0  0  0  0  0  0  0  0  0  0  0
   -1.6182    1.3090    1.9763 H   0  0  0  0  0  0  0  0  0  0  0  0
   -0.7854   -0.8464    2.6186 H   0  0  0  0  0  0  0  0  0  0  0  0
   -0.4505   -2.7372    1.1885 H   0  0  0  0  0  0  0  0  0  0  0  0
   -0.4506   -2.7393   -1.1838 H   0  0  0  0  0  0  0  0  0  0  0  0
   -0.7855   -0.8510   -2.6172 H   0  0  0  0  0  0  0  0  0  0  0  0
   -1.6183    1.3055   -1.9786 H   0  0  0  0  0  0  0  0  0  0  0  0
   -2.9116    1.7791   -0.0015 H   0  0  0  0  0  0  0  0  0  0  0  0
   -3.4254    0.0690    0.0000 H   0  0  0  0  0  0  0  0  0  0  0  0
  1  2  1  0  0  0  0
  1  8  1  0  0  0  0
  2  9  1  0  0  0  0
  3 10  1  0  0  0  0
  3  2  1  0  0  0  0
  4  3  2  0  0  0  0
  5  6  1  0  0  0  0
  5  4  1  0  0  0  0
  6  7  1  0  0  0  0
  7 15  1  0  0  0  0
  7  1  1  0  0  0  0
 11  4  1  0  0  0  0
 12  5  1  0  0  0  0
 13  6  1  0  0  0  0
 14  7  1  0  0  0  0
M  END
