6,10
q = -2.0, confidence = 0.66

 57 58  0  0  1  0  0  0  0  0999 V2000
    3.0112   -2.5202   -0.3491 O   0  0  0  0  0  0  0  0  0  0  0  0
    1.9929   -2.5180    1.6785 O   0  0  0  0  0  0  0  0  0  0  0  0
   -1.6085    0.4298    2.5812 O   0  0  0  0  0  0  0  0  0  0  0  0
   -5.8483    1.5335   -0.8278 O   0  0  0  0  0  0  0  0  0  0  0  0
    2.2382   -1.9934    0.4426 C   0  0  0  0  0  0  0  0  0  0  0  0
    1.4386   -0.7653    0.2205 C   0  0  0  0  0  3  0  0  0  0  0  0
    1.9440    0.1982   -0.8641 C   0  0  1  0  0  0  0  0  0  0  0  0
    2.6966   -0.3864   -1.4350 H   0  0  0  0  0  0  0  0  0  0  0  0
    0.7459    0.3499   -1.7874 C   0  0  0  0  0  3  0  0  0  0  0  0
   -0.5421    0.7728   -1.3796 C   0  0  0  0  0  3  0  0  0  0  0  0
   -0.9964    0.6954   -0.0293 C   0  0  0  0  0  3  0  0  0  0  0  0
    2.6475   -3.7580    1.9554 C   0  0  0  0  0  0  0  0  0  0  0  0
    2.3137   -4.0635    2.9634 H   0  0  0  0  0  0  0  0  0  0  0  0
    3.7501   -3.6402    1.9336 H   0  0  0  0  0  0  0  0  0  0  0  0
    2.3711   -4.5292    1.2075 H   0  0  0  0  0  0  0  0  0  0  0  0
   -2.3882    0.8901    0.4000 C   0  0  0  0  0  0  0  0  0  0  0  0
   -2.6760    0.7334    1.7845 C   0  0  0  0  0  0  0  0  0  0  0  0
   -3.9990    0.8644    2.2470 C   0  0  0  0  0  0  0  0  0  0  0  0
   -4.2325    0.7431    3.3130 H   0  0  0  0  0  0  0  0  0  0  0  0
   -5.0374    1.1395    1.3505 C   0  0  0  0  0  0  0  0  0  0  0  0
   -6.0758    1.2353    1.6984 H   0  0  0  0  0  0  0  0  0  0  0  0
   -4.7722    1.2858   -0.0261 C   0  0  0  0  0  0  0  0  0  0  0  0
   -3.4496    1.1668   -0.4876 C   0  0  0  0  0  0  0  0  0  0  0  0
   -3.2299    1.2811   -1.5563 H   0  0  0  0  0  0  0  0  0  0  0  0
   -1.8444    0.0753    3.9294 C   0  0  0  0  0  0  0  0  0  0  0  0
   -0.8612   -0.1954    4.3566 H   0  0  0  0  0  0  0  0  0  0  0  0
   -2.5256   -0.8012    4.0066 H   0  0  0  0  0  0  0  0  0  0  0  0
   -2.2731    0.9198    4.5145 H   0  0  0  0  0  0  0  0  0  0  0  0
   -5.6370    1.5775   -2.2245 C   0  0  0  0  0  0  0  0  0  0  0  0
   -4.9740    2.4226   -2.5212 H   0  0  0  0  0  0  0  0  0  0  0  0
   -6.6295    1.7256   -2.6893 H   0  0  0  0  0  0  0  0  0  0  0  0
   -5.1945    0.6292   -2.6063 H   0  0  0  0  0  0  0  0  0  0  0  0
    2.6047    1.5014   -0.4046 C   0  0  0  0  0  0  0  0  0  0  0  0
    1.8966    2.6538   -0.3233 C   0  0  0  0  0  0  0  0  0  0  0  0
    0.8246    2.6335   -0.5741 H   0  0  0  0  0  0  0  0  0  0  0  0
    2.4401    3.9921    0.0956 C   0  0  0  0  0  0  0  0  0  0  0  0
    2.0540    4.2290    1.1157 H   0  0  0  0  0  0  0  0  0  0  0  0
    2.0187    4.7870   -0.5578 H   0  0  0  0  0  0  0  0  0  0  0  0
    3.9695    4.0305    0.0908 C   0  0  0  0  0  0  0  0  0  0  0  0
    4.3410    4.9115    0.6535 H   0  0  0  0  0  0  0  0  0  0  0  0
    4.3352    4.1515   -0.9515 H   0  0  0  0  0  0  0  0  0  0  0  0
    4.5231    2.7375    0.6852 C   0  0  0  0  0  0  0  0  0  0  0  0
    4.1543    2.6340    1.7302 H   0  0  0  0  0  0  0  0  0  0  0  0
    5.6317    2.7724    0.7475 H   0  0  0  0  0  0  0  0  0  0  0  0
    4.1132    1.4668   -0.1014 C   0  0  0  0  0  0  0  0  0  0  0  0
    4.8862    1.3979   -1.4395 C   0  0  0  0  0  0  0  0  0  0  0  0
    5.9781    1.3280   -1.2515 H   0  0  0  0  0  0  0  0  0  0  0  0
    4.6972    2.2899   -2.0685 H   0  0  0  0  0  0  0  0  0  0  0  0
    4.5943    0.5041   -2.0272 H   0  0  0  0  0  0  0  0  0  0  0  0
    4.5113    0.2436    0.7492 C   0  0  0  0  0  0  0  0  0  0  0  0
    3.8982    0.1697    1.6706 H   0  0  0  0  0  0  0  0  0  0  0  0
    5.5728    0.3406    1.0583 H   0  0  0  0  0  0  0  0  0  0  0  0
    4.4170   -0.7049    0.1887 H   0  0  0  0  0  0  0  0  0  0  0  0
    1.1681   -0.3051    1.1856 H   0  0  0  0  0  0  0  0  0  0  0  0
   -0.2664    0.8485    0.7738 H   0  0  0  0  0  0  0  0  0  0  0  0
   -1.2640    0.9979   -2.1827 H   0  0  0  0  0  0  0  0  0  0  0  0
    0.9361    0.3534   -2.8731 H   0  0  0  0  0  0  0  0  0  0  0  0
  1  5  2  0  0  0  0
  2 12  1  0  0  0  0
  3 25  1  0  0  0  0
  4 22  1  0  0  0  0
  5  2  1  0  0  0  0
  6  5  1  0  0  0  0
  6 54  1  0  0  0  0
  7  8  1  6  0  0  0
  7 33  1  0  0  0  0
  7  6  1  0  0  0  0
  9 10  1  0  0  0  0
  9  7  1  0  0  0  0
 10 11  1  0  0  0  0
 11 16  1  0  0  0  0
 11 55  1  0  0  0  0
 12 13  1  0  0  0  0
 14 12  1  0  0  0  0
 15 12  1  0  0  0  0
 16 17  1  0  0  0  0
 17 18  2  0  0  0  0
 17  3  1  0  0  0  0
 18 19  1  0  0  0  0
 20 21  1  0  0  0  0
 20 18  1  0  0  0  0
 22 20  2  0  0  0  0
 23 22  1  0  0  0  0
 23 16  2  0  0  0  0
 24 23  1  0  0  0  0
 25 27  1  0  0  0  0
 25 26  1  0  0  0  0
 25 28  1  0  0  0  0
 29  4  1  0  0  0  0
 30 29  1  0  0  0  0
 31 29  1  0  0  0  0
 32 29  1  0  0  0  0
 33 34  2  0  0  0  0
 33 45  1  0  0  0  0
 34 36  1  0  0  0  0
 35 34  1  0  0  0  0
 36 37  1  0  0  0  0
 38 36  1  0  0  0  0
 39 36  1  0  0  0  0
 39 40  1  0  0  0  0
 39 42  1  0  0  0  0
 41 39  1  0  0  0  0
 42 44  1  0  0  0  0
 42 43  1  0  0  0  0
 45 42  1  0  0  0  0
 45 50  1  0  0  0  0
 46 47  1  0  0  0  0
 46 45  1  0  0  0  0
 48 46  1  0  0  0  0
 49 46  1  0  0  0  0
 50 52  1  0  0  0  0
 50 51  1  0  0  0  0
 53 50  1  0  0  0  0
 56 10  1  0  0  0  0
 57  9  1  0  0  0  0
M  END
