7,8
q = 0.0, confidence = 0.55

 28 28  0  0  0  0  0  0  0  0999 V2000
    2.2439    0.7071   -0.2769 C   0  0  0  0  0  0  0  0  0  0  0  0
    2.2414   -0.7040   -0.3155 C   0  0  0  0  0  0  0  0  0  0  0  0
    3.4731   -1.4140   -0.3006 C   0  0  0  0  0  0  0  0  0  0  0  0
    4.6915   -0.6987   -0.2099 C   0  0  0  0  0  0  0  0  0  0  0  0
    4.6950    0.7240   -0.1823 C   0  0  0  0  0  0  0  0  0  0  0  0
    3.4683    1.4304   -0.2363 C   0  0  0  0  0  0  0  0  0  0  0  0
    0.9087    1.4144   -0.2434 C   0  0  0  0  0  3  0  0  0  0  0  0
    0.8932   -1.3933   -0.3858 C   0  0  0  0  0  3  0  0  0  0  0  0
    3.4769   -2.9264   -0.3789 C   0  0  0  0  0  0  0  0  0  0  0  0
    6.0163   -1.4243   -0.1419 C   0  0  0  0  0  0  0  0  0  0  0  0
    6.0325    1.4227   -0.0866 C   0  0  0  0  0  0  0  0  0  0  0  0
    3.3866    2.9389   -0.2256 C   0  0  0  0  0  0  0  0  0  0  0  0
    0.9257    2.1756    0.5697 H   0  0  0  0  0  0  0  0  0  0  0  0
    0.8104    2.0451   -1.1544 H   0  0  0  0  0  0  0  0  0  0  0  0
    0.8194   -1.8884   -1.3808 H   0  0  0  0  0  0  0  0  0  0  0  0
    0.8686   -2.2578    0.3085 H   0  0  0  0  0  0  0  0  0  0  0  0
    4.1396   -3.2981   -1.1879 H   0  0  0  0  0  0  0  0  0  0  0  0
    3.8350   -3.3964    0.5632 H   0  0  0  0  0  0  0  0  0  0  0  0
    2.4638   -3.3203   -0.5756 H   0  0  0  0  0  0  0  0  0  0  0  0
    6.5851   -1.1518    0.7731 H   0  0  0  0  0  0  0  0  0  0  0  0
    6.6758   -1.1602   -0.9970 H   0  0  0  0  0  0  0  0  0  0  0  0
    5.9028   -2.5223   -0.1411 H   0  0  0  0  0  0  0  0  0  0  0  0
    5.9478    2.5228   -0.0576 H   0  0  0  0  0  0  0  0  0  0  0  0
    6.5871    1.1152    0.8259 H   0  0  0  0  0  0  0  0  0  0  0  0
    6.6920    1.1651   -0.9433 H   0  0  0  0  0  0  0  0  0  0  0  0
    2.9362    3.3127    0.7204 H   0  0  0  0  0  0  0  0  0  0  0  0
    4.3649    3.4373   -0.3457 H   0  0  0  0  0  0  0  0  0  0  0  0
    2.7225    3.3033   -1.0366 H   0  0  0  0  0  0  0  0  0  0  0  0
  1  7  1  0  0  0  0
  1  6  1  0  0  0  0
  2  3  1  0  0  0  0
  2  1  2  0  0  0  0
  3  4  2  0  0  0  0
  4  5  1  0  0  0  0
  4 10  1  0  0  0  0
  5 11  1  0  0  0  0
  6 12  1  0  0  0  0
  6  5  2  0  0  0  0
  7 13  1  0  0  0  0
  8  2  1  0  0  0  0
  8 16  1  0  0  0  0
  9  3  1  0  0  0  0
  9 18  1  0  0  0  0
 10 22  1  0  0  0  0
 10 20  1  0  0  0  0
 11 23  1  0  0  0  0
 11 24  1  0  0  0  0
 12 26  1  0  0  0  0
 14  7  1  0  0  0  0
 15  8  1  0  0  0  0
 17  9  1  0  0  0  0
 19  9  1  0  0  0  0
 21 10  1  0  0  0  0
 25 11  1  0  0  0  0
 27 12  1  0  0  0  0
 28 12  1  0  0  0  0
M  END
