1,12
q = -2.0, confidence = 0.814

 50 55  0  0  0  0  0  0  0  0999 V2000
   -0.3990    1.1707   -1.9384 C   0  0  0  0  0  3  0  0  0  0  0  0
    0.7903    1.0464   -1.1559 C   0  0  0  0  0  0  0  0  0  0  0  0
    0.5788    1.7922    0.0574 C   0  0  0  0  0  0  0  0  0  0  0  0
   -0.6353    2.5418   -0.0784 C   0  0  0  0  0  0  0  0  0  0  0  0
   -1.2430    3.5272    0.7426 C   0  0  0  0  0  0  0  0  0  0  0  0
   -2.4771    4.0282    0.3608 C   0  0  0  0  0  0  0  0  0  0  0  0
   -3.1414    3.5632   -0.8166 C   0  0  0  0  0  0  0  0  0  0  0  0
   -2.5647    2.6135   -1.6439 C   0  0  0  0  0  0  0  0  0  0  0  0
   -1.2778    2.1125   -1.2995 C   0  0  0  0  0  0  0  0  0  0  0  0
    0.5784   -1.7920   -0.0587 C   0  0  0  0  0  0  0  0  0  0  0  0
    0.7901   -1.0475    1.1554 C   0  0  0  0  0  0  0  0  0  0  0  0
   -0.3989   -1.1731    1.9382 C   0  0  0  0  0  3  0  0  0  0  0  0
   -1.2779   -2.1139    1.2982 C   0  0  0  0  0  0  0  0  0  0  0  0
   -2.5647   -2.6151    1.6423 C   0  0  0  0  0  0  0  0  0  0  0  0
   -3.1417   -3.5637    0.8139 C   0  0  0  0  0  0  0  0  0  0  0  0
   -2.4777   -4.0274   -0.3642 C   0  0  0  0  0  0  0  0  0  0  0  0
   -1.2436   -3.5261   -0.7456 C   0  0  0  0  0  0  0  0  0  0  0  0
   -0.6357   -2.5417    0.0764 C   0  0  0  0  0  0  0  0  0  0  0  0
    4.1628    0.7632    1.2912 C   0  0  0  0  0  0  0  0  0  0  0  0
    4.2817    0.9975    2.6667 C   0  0  0  0  0  0  0  0  0  0  0  0
    3.2673    0.5533    3.5259 C   0  0  0  0  0  0  0  0  0  0  0  0
    2.1546   -0.1098    2.9968 C   0  0  0  0  0  0  0  0  0  0  0  0
    2.0069   -0.3434    1.6095 C   0  0  0  0  0  0  0  0  0  0  0  0
    3.0436    0.1031    0.7386 C   0  0  0  0  0  0  0  0  0  0  0  0
    3.0439   -0.1036   -0.7384 C   0  0  0  0  0  0  0  0  0  0  0  0
    4.1635   -0.7634   -1.2908 C   0  0  0  0  0  0  0  0  0  0  0  0
    4.2829   -0.9975   -2.6663 C   0  0  0  0  0  0  0  0  0  0  0  0
    3.2685   -0.5534   -3.5258 C   0  0  0  0  0  0  0  0  0  0  0  0
    2.1555    0.1092   -2.9969 C   0  0  0  0  0  0  0  0  0  0  0  0
    2.0074    0.3427   -1.6097 C   0  0  0  0  0  0  0  0  0  0  0  0
   -0.5983    0.6708   -2.8905 H   0  0  0  0  0  0  0  0  0  0  0  0
    1.2992    1.9206    0.8694 H   0  0  0  0  0  0  0  0  0  0  0  0
   -0.7504    3.8610    1.6671 H   0  0  0  0  0  0  0  0  0  0  0  0
   -2.9693    4.7931    0.9805 H   0  0  0  0  0  0  0  0  0  0  0  0
   -4.1318    3.9728   -1.0654 H   0  0  0  0  0  0  0  0  0  0  0  0
   -3.0757    2.2498   -2.5461 H   0  0  0  0  0  0  0  0  0  0  0  0
    1.2986   -1.9195   -0.8710 H   0  0  0  0  0  0  0  0  0  0  0  0
   -0.5979   -0.6746    2.8910 H   0  0  0  0  0  0  0  0  0  0  0  0
   -3.0755   -2.2525    2.5451 H   0  0  0  0  0  0  0  0  0  0  0  0
   -4.1322   -3.9734    1.0623 H   0  0  0  0  0  0  0  0  0  0  0  0
   -2.9701   -4.7914   -0.9847 H   0  0  0  0  0  0  0  0  0  0  0  0
   -0.7513   -3.8589   -1.6707 H   0  0  0  0  0  0  0  0  0  0  0  0
    4.9473    1.1186    0.6062 H   0  0  0  0  0  0  0  0  0  0  0  0
    5.1637    1.5228    3.0628 H   0  0  0  0  0  0  0  0  0  0  0  0
    3.3426    0.7143    4.6117 H   0  0  0  0  0  0  0  0  0  0  0  0
    1.3798   -0.4807    3.6817 H   0  0  0  0  0  0  0  0  0  0  0  0
    4.9478   -1.1186   -0.6056 H   0  0  0  0  0  0  0  0  0  0  0  0
    5.1650   -1.5225   -3.0621 H   0  0  0  0  0  0  0  0  0  0  0  0
    3.3443   -0.7143   -4.6116 H   0  0  0  0  0  0  0  0  0  0  0  0
    1.3808    0.4801   -3.6820 H   0  0  0  0  0  0  0  0  0  0  0  0
  1  9  1  0  0  0  0
  1  2  1  0  0  0  0
  2  3  2  0  0  0  0
  3 32  1  0  0  0  0
  4  3  1  0  0  0  0
  4  5  1  0  0  0  0
  5 33  1  0  0  0  0
  6  5  2  0  0  0  0
  6 34  1  0  0  0  0
  7  6  1  0  0  0  0
  8  9  1  0  0  0  0
  8  7  2  0  0  0  0
  9  4  2  0  0  0  0
 10 18  1  0  0  0  0
 10 11  2  0  0  0  0
 11 23  1  0  0  0  0
 11 12  1  0  0  0  0
 12 38  1  0  0  0  0
 13 14  1  0  0  0  0
 13 12  1  0  0  0  0
 14 39  1  0  0  0  0
 15 40  1  0  0  0  0
 15 14  2  0  0  0  0
 16 15  1  0  0  0  0
 17 16  2  0  0  0  0
 17 18  1  0  0  0  0
 18 13  2  0  0  0  0
 19 20  1  0  0  0  0
 20 44  1  0  0  0  0
 20 21  2  0  0  0  0
 21 45  1  0  0  0  0
 22 21  1  0  0  0  0
 22 46  1  0  0  0  0
 23 22  2  0  0  0  0
 24 19  2  0  0  0  0
 24 23  1  0  0  0  0
 25 24  1  0  0  0  0
 26 25  1  0  0  0  0
 26 47  1  0  0  0  0
 27 26  2  0  0  0  0
 28 29  2  0  0  0  0
 28 27  1  0  0  0  0
 29 30  1  0  0  0  0
 30  2  1  0  0  0  0
 30 25  2  0  0  0  0
 31  1  1  0  0  0  0
 35  7  1  0  0  0  0
 36  8  1  0  0  0  0
 37 10  1  0  0  0  0
 41 16  1  0  0  0  0
 42 17  1  0  0  0  0
 43 19  1  0  0  0  0
 48 27  1  0  0  0  0
 49 28  1  0  0  0  0
 50 29  1  0  0  0  0
M  END
