5,10
q = -2.0, confidence = 0.896

 60 59  0  0  1  0  0  0  0  0999 V2000
   -4.9403    1.6024   -0.0020 Si  0  0  0  0  0  0  0  0  0  0  0  0
    1.7564   -2.5773    0.0031 Si  0  0  0  0  0  0  0  0  0  0  0  0
    5.9273    0.4075   -0.0039 Si  0  0  0  0  0  0  0  0  0  0  0  0
    1.4942    3.2310    0.0063 Si  0  0  0  0  0  0  0  0  0  0  0  0
    0.6942   -0.9862    0.0036 C   0  0  0  0  0  2  0  0  0  0  0  0
    1.4208    0.2097    0.0047 C   0  0  2  0  0  3  0  0  0  0  0  0
    0.6959    1.4973    0.0067 C   0  0  0  0  0  0  0  0  0  0  0  0
   -0.6466    1.3406    0.0074 C   0  0  0  0  0  0  0  0  0  0  0  0
   -1.9467    1.5742    0.0065 C   0  0  0  0  0  3  0  0  0  0  0  0
   -3.1561    1.0935    0.0030 C   0  0  0  0  0  2  0  0  0  0  0  0
    2.8516    0.2824    0.0031 C   0  0  0  0  0  0  0  0  0  0  0  0
    4.0870    0.3679    0.0009 C   0  0  0  0  0  0  0  0  0  0  0  0
    0.0879    4.4958    0.0091 C   0  0  0  0  0  0  0  0  0  0  0  0
    2.8480   -2.6634   -1.5563 C   0  0  0  0  0  0  0  0  0  0  0  0
    2.5548    3.4422    1.5604 C   0  0  0  0  0  0  0  0  0  0  0  0
   -5.2985    2.6136    1.5593 C   0  0  0  0  0  0  0  0  0  0  0  0
    2.5488    3.4429   -1.5519 C   0  0  0  0  0  0  0  0  0  0  0  0
   -6.0407    0.0632   -0.0306 C   0  0  0  0  0  0  0  0  0  0  0  0
    2.8497   -2.6629    1.5612 C   0  0  0  0  0  0  0  0  0  0  0  0
   -5.2766    2.6566   -1.5394 C   0  0  0  0  0  0  0  0  0  0  0  0
    6.5445   -1.3803    0.0032 C   0  0  0  0  0  0  0  0  0  0  0  0
    6.5174    1.3257    1.5411 C   0  0  0  0  0  0  0  0  0  0  0  0
    0.8006   -4.2235    0.0045 C   0  0  0  0  0  0  0  0  0  0  0  0
    6.5092    1.3103   -1.5612 C   0  0  0  0  0  0  0  0  0  0  0  0
   -0.5574    4.3779   -0.8851 H   0  0  0  0  0  0  0  0  0  0  0  0
   -0.5542    4.3776    0.9056 H   0  0  0  0  0  0  0  0  0  0  0  0
    0.4917    5.5292    0.0085 H   0  0  0  0  0  0  0  0  0  0  0  0
    3.4274   -1.7326   -1.7043 H   0  0  0  0  0  0  0  0  0  0  0  0
    3.5622   -3.5086   -1.4638 H   0  0  0  0  0  0  0  0  0  0  0  0
    2.2394   -2.8431   -2.4670 H   0  0  0  0  0  0  0  0  0  0  0  0
    1.9392    3.3353    2.4766 H   0  0  0  0  0  0  0  0  0  0  0  0
    3.3582    2.6801    1.5915 H   0  0  0  0  0  0  0  0  0  0  0  0
    3.0225    4.4488    1.5761 H   0  0  0  0  0  0  0  0  0  0  0  0
   -6.3548    2.9540    1.5731 H   0  0  0  0  0  0  0  0  0  0  0  0
   -5.1214    2.0197    2.4790 H   0  0  0  0  0  0  0  0  0  0  0  0
   -4.6445    3.5080    1.6025 H   0  0  0  0  0  0  0  0  0  0  0  0
    3.0166    4.4494   -1.5692 H   0  0  0  0  0  0  0  0  0  0  0  0
    3.3520    2.6806   -1.5864 H   0  0  0  0  0  0  0  0  0  0  0  0
    1.9296    3.3363   -2.4657 H   0  0  0  0  0  0  0  0  0  0  0  0
   -7.1123    0.3504   -0.0277 H   0  0  0  0  0  0  0  0  0  0  0  0
   -5.8565   -0.5470   -0.9376 H   0  0  0  0  0  0  0  0  0  0  0  0
   -5.8596   -0.5777    0.8557 H   0  0  0  0  0  0  0  0  0  0  0  0
    2.2413   -2.8371    2.4730 H   0  0  0  0  0  0  0  0  0  0  0  0
    3.5604   -3.5114    1.4704 H   0  0  0  0  0  0  0  0  0  0  0  0
    3.4330   -1.7340    1.7056 H   0  0  0  0  0  0  0  0  0  0  0  0
   -4.6240    3.5530   -1.5468 H   0  0  0  0  0  0  0  0  0  0  0  0
   -5.0828    2.0889   -2.4722 H   0  0  0  0  0  0  0  0  0  0  0  0
   -6.3334    2.9954   -1.5610 H   0  0  0  0  0  0  0  0  0  0  0  0
    6.1742   -1.9251   -0.8890 H   0  0  0  0  0  0  0  0  0  0  0  0
    7.6534   -1.4201    0.0004 H   0  0  0  0  0  0  0  0  0  0  0  0
    6.1791   -1.9166    0.9024 H   0  0  0  0  0  0  0  0  0  0  0  0
    6.1680    0.8151    2.4611 H   0  0  0  0  0  0  0  0  0  0  0  0
    7.6256    1.3761    1.5725 H   0  0  0  0  0  0  0  0  0  0  0  0
    6.1245    2.3627    1.5567 H   0  0  0  0  0  0  0  0  0  0  0  0
    0.1633   -4.3638   -0.8893 H   0  0  0  0  0  0  0  0  0  0  0  0
    1.5580   -5.0355   -0.0059 H   0  0  0  0  0  0  0  0  0  0  0  0
    0.1808   -4.3709    0.9094 H   0  0  0  0  0  0  0  0  0  0  0  0
    6.1158    2.3469   -1.5851 H   0  0  0  0  0  0  0  0  0  0  0  0
    7.6171    1.3607   -1.5988 H   0  0  0  0  0  0  0  0  0  0  0  0
    6.1552    0.7902   -2.4741 H   0  0  0  0  0  0  0  0  0  0  0  0
  1 10  1  0  0  0  0
  1 16  1  0  0  0  0
  2  5  1  0  0  0  0
  2 23  1  0  0  0  0
  2 19  1  0  0  0  0
  3 12  1  0  0  0  0
  3 21  1  0  0  0  0
  3 22  1  0  0  0  0
  4  7  1  0  0  0  0
  4 13  1  0  0  0  0
  4 15  1  0  0  0  0
  5  6  1  0  0  0  0
  6 11  1  6  0  0  0
  6  7  1  0  0  0  0
  7  8  2  0  0  0  0
  9  8  2  0  0  0  0
 10  9  1  0  0  0  0
 12 11  3  0  0  0  0
 13 26  1  0  0  0  0
 14 29  1  0  0  0  0
 14  2  1  0  0  0  0
 15 33  1  0  0  0  0
 15 32  1  0  0  0  0
 15 31  1  0  0  0  0
 16 34  1  0  0  0  0
 16 36  1  0  0  0  0
 16 35  1  0  0  0  0
 17  4  1  0  0  0  0
 18 40  1  0  0  0  0
 18  1  1  0  0  0  0
 18 42  1  0  0  0  0
 19 45  1  0  0  0  0
 19 43  1  0  0  0  0
 20  1  1  0  0  0  0
 21 51  1  0  0  0  0
 22 54  1  0  0  0  0
 22 53  1  0  0  0  0
 22 52  1  0  0  0  0
 23 57  1  0  0  0  0
 24  3  1  0  0  0  0
 25 13  1  0  0  0  0
 27 13  1  0  0  0  0
 28 14  1  0  0  0  0
 30 14  1  0  0  0  0
 37 17  1  0  0  0  0
 38 17  1  0  0  0  0
 39 17  1  0  0  0  0
 41 18  1  0  0  0  0
 44 19  1  0  0  0  0
 46 20  1  0  0  0  0
 47 20  1  0  0  0  0
 48 20  1  0  0  0  0
 49 21  1  0  0  0  0
 50 21  1  0  0  0  0
 55 23  1  0  0  0  0
 56 23  1  0  0  0  0
 58 24  1  0  0  0  0
 59 24  1  0  0  0  0
 60 24  1  0  0  0  0
M  END
