24,38
q = 0.0, confidence = 0.988

 43 45  0  0  1  0  0  0  0  0999 V2000
    0.9472   -0.9824    0.0554 P   0  0  1  0  0  0  0  0  0  0  0  0
    2.3447    0.2429    0.0595 C   0  0  2  0  0  0  0  0  0  0  0  0
    2.2191    0.7538   -0.9246 H   0  0  0  0  0  0  0  0  0  0  0  0
    3.7122   -0.3938    0.0996 C   0  0  0  0  0  0  0  0  0  0  0  0
    3.8337   -1.4165    0.4954 H   0  0  0  0  0  0  0  0  0  0  0  0
    4.8079    0.2827   -0.3583 C   0  0  0  0  0  0  0  0  0  0  0  0
    5.7626   -0.2659   -0.4392 H   0  0  0  0  0  0  0  0  0  0  0  0
    4.8345    1.6865   -0.6864 C   0  0  0  0  0  0  0  0  0  0  0  0
    5.6450    2.0314   -1.3503 H   0  0  0  0  0  0  0  0  0  0  0  0
    4.0616    2.6568   -0.0754 C   0  0  0  0  0  0  0  0  0  0  0  0
    4.3143    3.7077   -0.2981 H   0  0  0  0  0  0  0  0  0  0  0  0
    3.0930    2.4322    0.9682 C   0  0  0  0  0  0  0  0  0  0  0  0
    2.9579    3.2472    1.7002 H   0  0  0  0  0  0  0  0  0  0  0  0
    2.3437    1.3009    1.1315 C   0  0  0  0  0  0  0  0  0  0  0  0
    1.7208    1.1667    2.0264 H   0  0  0  0  0  0  0  0  0  0  0  0
    1.3302   -1.9432   -1.5275 C   0  0  2  0  0  0  0  0  0  0  0  0
    2.3454   -2.3758   -1.4294 H   0  0  0  0  0  0  0  0  0  0  0  0
    1.2940   -0.9372   -2.6599 C   0  0  0  0  0  0  0  0  0  0  0  0
    2.1953   -0.8369   -3.2846 H   0  0  0  0  0  0  0  0  0  0  0  0
    0.2065   -0.1556   -2.9052 C   0  0  0  0  0  0  0  0  0  0  0  0
    0.2887    0.5889   -3.7149 H   0  0  0  0  0  0  0  0  0  0  0  0
   -1.0844   -0.2152   -2.2142 C   0  0  0  0  0  3  0  0  0  0  0  0
   -1.8077    0.5598   -2.5165 H   0  0  0  0  0  0  0  0  0  0  0  0
   -1.6576   -1.4466   -1.7072 C   0  0  0  0  0  3  0  0  0  0  0  0
   -2.7590   -1.4668   -1.6679 H   0  0  0  0  0  0  0  0  0  0  0  0
   -1.0272   -2.7604   -1.8228 C   0  0  0  0  0  0  0  0  0  0  0  0
   -1.7117   -3.6172   -1.9397 H   0  0  0  0  0  0  0  0  0  0  0  0
    0.3053   -3.0224   -1.7599 C   0  0  0  0  0  0  0  0  0  0  0  0
    0.6651   -4.0565   -1.8786 H   0  0  0  0  0  0  0  0  0  0  0  0
    1.1679   -2.0939    1.5640 C   0  0  1  0  0  0  0  0  0  0  0  0
    2.1920   -2.5161    1.5458 H   0  0  0  0  0  0  0  0  0  0  0  0
    0.9659   -1.2429    2.8014 C   0  0  0  0  0  0  0  0  0  0  0  0
    1.7686   -1.2368    3.5553 H   0  0  0  0  0  0  0  0  0  0  0  0
   -0.1578   -0.5009    2.9984 C   0  0  0  0  0  0  0  0  0  0  0  0
   -0.2030    0.1190    3.9102 H   0  0  0  0  0  0  0  0  0  0  0  0
   -1.3406   -0.4588    2.1312 C   0  0  0  0  0  3  0  0  0  0  0  0
   -2.1140    0.2628    2.4425 H   0  0  0  0  0  0  0  0  0  0  0  0
   -1.8296   -1.6286    1.4141 C   0  0  0  0  0  3  0  0  0  0  0  0
   -2.9200   -1.6522    1.2527 H   0  0  0  0  0  0  0  0  0  0  0  0
   -1.1945   -2.9461    1.4591 C   0  0  0  0  0  0  0  0  0  0  0  0
   -1.8727   -3.8131    1.3896 H   0  0  0  0  0  0  0  0  0  0  0  0
    0.1396   -3.1979    1.5338 C   0  0  0  0  0  0  0  0  0  0  0  0
    0.4995   -4.2379    1.5730 H   0  0  0  0  0  0  0  0  0  0  0  0
  1 16  1  6  0  0  0
  1  2  1  0  0  0  0
  1 30  1  0  0  0  0
  2  3  1  6  0  0  0
  2  4  1  0  0  0  0
  2 14  1  0  0  0  0
  4  5  1  0  0  0  0
  6  4  2  0  0  0  0
  7  6  1  0  0  0  0
  8  6  1  0  0  0  0
  8 10  2  0  0  0  0
  9  8  1  0  0  0  0
 10 12  1  0  0  0  0
 11 10  1  0  0  0  0
 12 14  2  0  0  0  0
 12 13  1  0  0  0  0
 14 15  1  0  0  0  0
 16 17  1  1  0  0  0
 18 16  1  0  0  0  0
 19 18  1  0  0  0  0
 20 18  2  0  0  0  0
 20 22  1  0  0  0  0
 21 20  1  0  0  0  0
 22 24  1  0  0  0  0
 23 22  1  0  0  0  0
 24 25  1  0  0  0  0
 26 28  2  0  0  0  0
 26 24  1  0  0  0  0
 27 26  1  0  0  0  0
 28 16  1  0  0  0  0
 29 28  1  0  0  0  0
 30 31  1  1  0  0  0
 30 32  1  0  0  0  0
 32 34  2  0  0  0  0
 32 33  1  0  0  0  0
 34 35  1  0  0  0  0
 36 37  1  0  0  0  0
 36 34  1  0  0  0  0
 38 40  1  0  0  0  0
 38 36  1  0  0  0  0
 39 38  1  0  0  0  0
 40 42  2  0  0  0  0
 41 40  1  0  0  0  0
 42 30  1  0  0  0  0
 42 43  1  0  0  0  0
M  END
