5,9
q = 0.0, confidence = 0.994

 36 37  0  0  1  0  0  0  0  0999 V2000
    5.9114    2.4020    0.1070 O   0  0  0  0  0  0  0  0  0  0  0  0
    6.8895    0.7249    1.1145 O   0  0  0  0  0  0  0  0  0  0  0  0
   -2.8298    2.6995   -0.3977 N   0  0  0  0  0  0  0  0  0  0  0  0
    5.9749    1.2213    0.4551 N   0  0  0  0  0  0  0  0  0  0  0  0
   -0.1575    0.1024    0.0006 C   0  0  0  0  0  3  0  0  0  0  0  0
   -0.9561    1.2493    0.2438 C   0  0  0  0  0  0  0  0  0  0  0  0
   -2.0754    1.5699   -0.6023 C   0  0  0  0  0  0  0  0  0  0  0  0
   -2.4234    0.6044   -1.6095 C   0  0  0  0  0  3  0  0  0  0  0  0
   -1.6121   -0.5387   -1.8370 C   0  0  0  0  0  3  0  0  0  0  0  0
   -0.4179   -0.7935   -1.0877 C   0  0  2  0  0  3  0  0  0  0  0  0
    0.3495   -2.0184   -1.3286 C   0  0  0  0  0  0  0  0  0  0  0  0
    1.6700   -2.2693   -1.0973 C   0  0  0  0  0  0  0  0  0  0  0  0
    2.7416   -1.3488   -0.7011 C   0  0  0  0  0  0  0  0  0  0  0  0
    2.7694    0.0143   -1.0992 C   0  0  0  0  0  0  0  0  0  0  0  0
    3.8193    0.8538   -0.7258 C   0  0  0  0  0  0  0  0  0  0  0  0
    4.8649    0.3320    0.0509 C   0  0  0  0  0  0  0  0  0  0  0  0
    4.8892   -1.0139    0.4411 C   0  0  0  0  0  0  0  0  0  0  0  0
    3.8353   -1.8450    0.0543 C   0  0  0  0  0  0  0  0  0  0  0  0
   -2.6137    3.4988    0.7994 C   0  0  0  0  0  0  0  0  0  0  0  0
   -4.1135    2.8326   -1.0699 C   0  0  0  0  0  0  0  0  0  0  0  0
    0.6757   -0.1108    0.6826 H   0  0  0  0  0  0  0  0  0  0  0  0
   -0.7201    1.8703    1.1138 H   0  0  0  0  0  0  0  0  0  0  0  0
   -3.3331    0.7243   -2.2064 H   0  0  0  0  0  0  0  0  0  0  0  0
   -1.9135   -1.2508   -2.6186 H   0  0  0  0  0  0  0  0  0  0  0  0
   -0.2504   -2.8560   -1.7229 H   0  0  0  0  0  0  0  0  0  0  0  0
    1.9919   -3.3167   -1.2269 H   0  0  0  0  0  0  0  0  0  0  0  0
    1.9609    0.4096   -1.7298 H   0  0  0  0  0  0  0  0  0  0  0  0
    3.8607    1.9083   -1.0291 H   0  0  0  0  0  0  0  0  0  0  0  0
    5.7354   -1.3790    1.0381 H   0  0  0  0  0  0  0  0  0  0  0  0
    3.8427   -2.9046    0.3520 H   0  0  0  0  0  0  0  0  0  0  0  0
   -3.2229    4.4182    0.7312 H   0  0  0  0  0  0  0  0  0  0  0  0
   -1.5537    3.8100    0.8833 H   0  0  0  0  0  0  0  0  0  0  0  0
   -2.9011    2.9577    1.7296 H   0  0  0  0  0  0  0  0  0  0  0  0
   -4.5246    3.8370   -0.8628 H   0  0  0  0  0  0  0  0  0  0  0  0
   -4.8533    2.0744   -0.7252 H   0  0  0  0  0  0  0  0  0  0  0  0
   -3.9992    2.7418   -2.1684 H   0  0  0  0  0  0  0  0  0  0  0  0
  1  4  2  0  0  0  0
  3 19  1  0  0  0  0
  4  2  2  0  0  0  0
  5  6  1  0  0  0  0
  5 21  1  0  0  0  0
  6 22  1  0  0  0  0
  7  3  1  0  0  0  0
  7  6  2  0  0  0  0
  8  7  1  0  0  0  0
  9  8  1  0  0  0  0
  9 10  1  0  0  0  0
 10 11  1  1  0  0  0
 10  5  1  0  0  0  0
 11 12  2  0  0  0  0
 12 13  1  0  0  0  0
 13 18  1  0  0  0  0
 14 15  1  0  0  0  0
 14 13  2  0  0  0  0
 15 16  2  0  0  0  0
 16 17  1  0  0  0  0
 16  4  1  0  0  0  0
 17 29  1  0  0  0  0
 18 30  1  0  0  0  0
 18 17  2  0  0  0  0
 19 32  1  0  0  0  0
 19 33  1  0  0  0  0
 20 34  1  0  0  0  0
 20 35  1  0  0  0  0
 20  3  1  0  0  0  0
 23  8  1  0  0  0  0
 24  9  1  0  0  0  0
 25 11  1  0  0  0  0
 26 12  1  0  0  0  0
 27 14  1  0  0  0  0
 28 15  1  0  0  0  0
 31 19  1  0  0  0  0
 36 20  1  0  0  0  0
M  END
