5,36
q = 0.0, confidence = 0.96

 62 67  0  0  0  0  0  0  0  0999 V2000
   -1.3655   -0.3531    1.4386 N   0  0  0  0  0  0  0  0  0  0  0  0
   -2.7775    0.0548    1.1573 C   0  0  0  0  0  0  0  0  0  0  0  0
   -2.8304    1.4756    0.6249 C   0  0  0  0  0  0  0  0  0  0  0  0
   -2.1736    1.8406   -0.5908 C   0  0  0  0  0  0  0  0  0  0  0  0
   -1.3827    0.9126   -1.4253 C   0  0  0  0  0  3  0  0  0  0  0  0
   -1.5727   -0.5220   -1.5494 C   0  0  0  0  0  3  0  0  0  0  0  0
   -2.7263   -1.2731   -1.0218 C   0  0  0  0  0  0  0  0  0  0  0  0
   -3.3633   -0.9836    0.2221 C   0  0  0  0  0  0  0  0  0  0  0  0
   -2.2529    3.1986   -0.9900 C   0  0  0  0  0  0  0  0  0  0  0  0
   -2.9489    4.1560   -0.2438 C   0  0  0  0  0  0  0  0  0  0  0  0
   -3.6013    3.7820    0.9410 C   0  0  0  0  0  0  0  0  0  0  0  0
   -3.5342    2.4446    1.3602 C   0  0  0  0  0  0  0  0  0  0  0  0
   -4.0370    2.1380    2.2922 H   0  0  0  0  0  0  0  0  0  0  0  0
   -3.2564   -2.3448   -1.7835 C   0  0  0  0  0  0  0  0  0  0  0  0
   -4.3752   -3.0731   -1.3659 C   0  0  0  0  0  0  0  0  0  0  0  0
   -5.0123   -2.7531   -0.1558 C   0  0  0  0  0  0  0  0  0  0  0  0
   -4.4937   -1.7144    0.6292 C   0  0  0  0  0  0  0  0  0  0  0  0
   -0.7445    0.1798    2.6708 C   0  0  0  0  0  0  0  0  0  0  0  0
   -1.3519   -1.3846    1.4753 H   0  0  0  0  0  0  0  0  0  0  0  0
   -3.3613    0.0265    2.1051 H   0  0  0  0  0  0  0  0  0  0  0  0
   -0.9523    1.4127   -2.3140 H   0  0  0  0  0  0  0  0  0  0  0  0
   -1.2165   -0.9413   -2.5096 H   0  0  0  0  0  0  0  0  0  0  0  0
   -1.7501    3.4928   -1.9245 H   0  0  0  0  0  0  0  0  0  0  0  0
   -2.9848    5.2002   -0.5909 H   0  0  0  0  0  0  0  0  0  0  0  0
   -4.1505    4.5242    1.5393 H   0  0  0  0  0  0  0  0  0  0  0  0
   -2.7723   -2.5884   -2.7424 H   0  0  0  0  0  0  0  0  0  0  0  0
   -4.7584   -3.8931   -1.9928 H   0  0  0  0  0  0  0  0  0  0  0  0
   -5.8959   -3.3156    0.1807 H   0  0  0  0  0  0  0  0  0  0  0  0
   -4.9674   -1.4663    1.5931 H   0  0  0  0  0  0  0  0  0  0  0  0
   -1.2401   -0.2083    3.5908 H   0  0  0  0  0  0  0  0  0  0  0  0
   -0.8793    1.2822    2.6664 H   0  0  0  0  0  0  0  0  0  0  0  0
    1.3652    0.3532    1.4385 N   0  0  0  0  0  0  0  0  0  0  0  0
    2.7772   -0.0547    1.1575 C   0  0  0  0  0  0  0  0  0  0  0  0
    2.8303   -1.4755    0.6251 C   0  0  0  0  0  0  0  0  0  0  0  0
    2.1736   -1.8405   -0.5907 C   0  0  0  0  0  0  0  0  0  0  0  0
    1.3828   -0.9125   -1.4252 C   0  0  0  0  0  3  0  0  0  0  0  0
    1.5725    0.5221   -1.5492 C   0  0  0  0  0  3  0  0  0  0  0  0
    2.7263    1.2731   -1.0216 C   0  0  0  0  0  0  0  0  0  0  0  0
    3.3632    0.9836    0.2222 C   0  0  0  0  0  0  0  0  0  0  0  0
    2.2531   -3.1985   -0.9899 C   0  0  0  0  0  0  0  0  0  0  0  0
    2.9490   -4.1559   -0.2437 C   0  0  0  0  0  0  0  0  0  0  0  0
    3.6013   -3.7819    0.9412 C   0  0  0  0  0  0  0  0  0  0  0  0
    3.5341   -2.4445    1.3604 C   0  0  0  0  0  0  0  0  0  0  0  0
    4.0368   -2.1379    2.2924 H   0  0  0  0  0  0  0  0  0  0  0  0
    3.2566    2.3446   -1.7835 C   0  0  0  0  0  0  0  0  0  0  0  0
    4.3756    3.0726   -1.3660 C   0  0  0  0  0  0  0  0  0  0  0  0
    5.0127    2.7526   -0.1560 C   0  0  0  0  0  0  0  0  0  0  0  0
    4.4939    1.7142    0.6292 C   0  0  0  0  0  0  0  0  0  0  0  0
    0.7443   -0.1792    2.6709 C   0  0  0  0  0  0  0  0  0  0  0  0
    1.3514    1.3847    1.4745 H   0  0  0  0  0  0  0  0  0  0  0  0
    3.3610   -0.0263    2.1054 H   0  0  0  0  0  0  0  0  0  0  0  0
    0.9525   -1.4126   -2.3140 H   0  0  0  0  0  0  0  0  0  0  0  0
    1.2166    0.9415   -2.5095 H   0  0  0  0  0  0  0  0  0  0  0  0
    1.7503   -3.4927   -1.9245 H   0  0  0  0  0  0  0  0  0  0  0  0
    2.9850   -5.2000   -0.5907 H   0  0  0  0  0  0  0  0  0  0  0  0
    4.1505   -4.5241    1.5395 H   0  0  0  0  0  0  0  0  0  0  0  0
    2.7726    2.5882   -2.7424 H   0  0  0  0  0  0  0  0  0  0  0  0
    4.7590    3.8925   -1.9930 H   0  0  0  0  0  0  0  0  0  0  0  0
    5.8965    3.3149    0.1804 H   0  0  0  0  0  0  0  0  0  0  0  0
    4.9675    1.4661    1.5932 H   0  0  0  0  0  0  0  0  0  0  0  0
    1.2398    0.2092    3.5907 H   0  0  0  0  0  0  0  0  0  0  0  0
    0.8791   -1.2816    2.6670 H   0  0  0  0  0  0  0  0  0  0  0  0
  1 19  1  0  0  0  0
  1 18  1  0  0  0  0
  2  1  1  0  0  0  0
  2 20  1  0  0  0  0
  3  2  1  0  0  0  0
  3 12  1  0  0  0  0
  4  3  2  0  0  0  0
  5  4  1  0  0  0  0
  6  5  1  0  0  0  0
  6  7  1  0  0  0  0
  7  8  1  0  0  0  0
  8 17  2  0  0  0  0
  8  2  1  0  0  0  0
  9  4  1  0  0  0  0
  9 10  2  0  0  0  0
 10 11  1  0  0  0  0
 11 12  2  0  0  0  0
 11 25  1  0  0  0  0
 12 13  1  0  0  0  0
 14 15  1  0  0  0  0
 14  7  2  0  0  0  0
 15 16  2  0  0  0  0
 16 28  1  0  0  0  0
 16 17  1  0  0  0  0
 17 29  1  0  0  0  0
 18 49  1  0  0  0  0
 18 30  1  0  0  0  0
 21  5  1  0  0  0  0
 22  6  1  0  0  0  0
 23  9  1  0  0  0  0
 24 10  1  0  0  0  0
 26 14  1  0  0  0  0
 27 15  1  0  0  0  0
 31 18  1  0  0  0  0
 32 50  1  0  0  0  0
 32 49  1  0  0  0  0
 33 32  1  0  0  0  0
 33 51  1  0  0  0  0
 34 33  1  0  0  0  0
 34 43  1  0  0  0  0
 35 34  2  0  0  0  0
 36 35  1  0  0  0  0
 37 36  1  0  0  0  0
 37 38  1  0  0  0  0
 38 39  1  0  0  0  0
 39 48  2  0  0  0  0
 39 33  1  0  0  0  0
 40 35  1  0  0  0  0
 40 41  2  0  0  0  0
 41 42  1  0  0  0  0
 42 43  2  0  0  0  0
 42 56  1  0  0  0  0
 43 44  1  0  0  0  0
 45 46  1  0  0  0  0
 45 38  2  0  0  0  0
 46 47  2  0  0  0  0
 47 59  1  0  0  0  0
 47 48  1  0  0  0  0
 48 60  1  0  0  0  0
 49 61  1  0  0  0  0
 52 36  1  0  0  0  0
 53 37  1  0  0  0  0
 54 40  1  0  0  0  0
 55 41  1  0  0  0  0
 57 45  1  0  0  0  0
 58 46  1  0  0  0  0
 62 49  1  0  0  0  0
M  END
