3,14
q = -2.0, confidence = 0.558

 27 28  0  0  0  0  0  0  0  0999 V2000
    0.6983    3.7076    0.2559 C   0  0  0  0  0  0  0  0  0  0  0  0
    0.0854    2.3459    0.0546 C   0  0  0  0  0  0  0  0  0  0  0  0
    0.7782    1.1777   -0.1521 C   0  0  0  0  0  3  0  0  0  0  0  0
    2.9107    0.3681   -1.2138 C   0  0  0  0  0  0  0  0  0  0  0  0
    4.3027    0.2203   -1.2185 C   0  0  0  0  0  0  0  0  0  0  0  0
    5.0771    0.7290   -0.1615 C   0  0  0  0  0  0  0  0  0  0  0  0
    4.4396    1.4046    0.8908 C   0  0  0  0  0  0  0  0  0  0  0  0
    3.0461    1.5671    0.8879 C   0  0  0  0  0  0  0  0  0  0  0  0
    2.2444    1.0493   -0.1633 C   0  0  0  0  0  0  0  0  0  0  0  0
   -2.3027    3.2667    0.1167 C   0  0  0  0  0  0  0  0  0  0  0  0
   -3.6726    3.0389   -0.0946 C   0  0  0  0  0  0  0  0  0  0  0  0
   -4.1205    1.7689   -0.4879 C   0  0  0  0  0  0  0  0  0  0  0  0
   -3.1989    0.7111   -0.6380 C   0  0  0  0  0  0  0  0  0  0  0  0
   -1.8358    0.9163   -0.3932 C   0  0  0  0  0  3  0  0  0  0  0  0
   -1.3735    2.2167   -0.0466 C   0  0  0  0  0  0  0  0  0  0  0  0
    1.7920    3.7024    0.0980 H   0  0  0  0  0  0  0  0  0  0  0  0
    0.2524    4.4420   -0.4481 H   0  0  0  0  0  0  0  0  0  0  0  0
    0.5026    4.0973    1.2789 H   0  0  0  0  0  0  0  0  0  0  0  0
    2.3135   -0.0435   -2.0398 H   0  0  0  0  0  0  0  0  0  0  0  0
    4.7906   -0.3034   -2.0553 H   0  0  0  0  0  0  0  0  0  0  0  0
    6.1700    0.5995   -0.1587 H   0  0  0  0  0  0  0  0  0  0  0  0
    5.0324    1.8087    1.7262 H   0  0  0  0  0  0  0  0  0  0  0  0
    2.5578    2.0903    1.7228 H   0  0  0  0  0  0  0  0  0  0  0  0
   -1.9545    4.2720    0.4003 H   0  0  0  0  0  0  0  0  0  0  0  0
   -4.3915    3.8630    0.0322 H   0  0  0  0  0  0  0  0  0  0  0  0
   -5.1903    1.5956   -0.6844 H   0  0  0  0  0  0  0  0  0  0  0  0
   -3.5612   -0.2796   -0.9552 H   0  0  0  0  0  0  0  0  0  0  0  0
  1 18  1  0  0  0  0
  2  1  1  0  0  0  0
  3  2  2  0  0  0  0
  4  9  1  0  0  0  0
  5  4  2  0  0  0  0
  5  6  1  0  0  0  0
  6 21  1  0  0  0  0
  6  7  2  0  0  0  0
  7 22  1  0  0  0  0
  8  7  1  0  0  0  0
  8 23  1  0  0  0  0
  9  3  1  0  0  0  0
  9  8  2  0  0  0  0
 10 24  1  0  0  0  0
 11 25  1  0  0  0  0
 11 10  2  0  0  0  0
 12 11  1  0  0  0  0
 13 12  2  0  0  0  0
 13 14  1  0  0  0  0
 14 15  2  0  0  0  0
 15  2  1  0  0  0  0
 15 10  1  0  0  0  0
 16  1  1  0  0  0  0
 17  1  1  0  0  0  0
 19  4  1  0  0  0  0
 20  5  1  0  0  0  0
 26 12  1  0  0  0  0
 27 13  1  0  0  0  0
M  END
