8,10
q = 0.0, confidence = 0.998

 26 26  0  0  1  0  0  0  0  0999 V2000
    3.6529   -0.7639   -0.8718 F   0  0  0  0  0  0  0  0  0  0  0  0
    3.4730   -0.6512    1.3080 F   0  0  0  0  0  0  0  0  0  0  0  0
    3.3060   -2.5740    0.2937 F   0  0  0  0  0  0  0  0  0  0  0  0
   -3.3278   -0.0142    0.8696 O   0  0  0  0  0  0  0  0  0  0  0  0
   -3.4648   -1.5434   -0.9105 O   0  0  0  0  0  0  0  0  0  0  0  0
   -1.3111   -0.6679   -0.1833 C   0  0  0  0  0  0  0  0  0  0  0  0
   -0.5127   -0.8544   -1.3487 C   0  0  0  0  0  3  0  0  0  0  0  0
    0.8915   -1.0214   -1.2208 C   0  0  0  0  0  3  0  0  0  0  0  0
    1.5009   -1.0718    0.0671 C   0  0  2  0  0  3  0  0  0  0  0  0
    0.6848   -0.9197    1.2302 C   0  0  0  0  0  3  0  0  0  0  0  0
   -0.7173   -0.7467    1.1117 C   0  0  0  0  0  0  0  0  0  0  0  0
   -2.8050   -0.4189   -0.3628 C   0  0  0  0  0  0  0  0  0  0  0  0
   -4.5911    0.6297    0.7682 C   0  0  0  0  0  0  0  0  0  0  0  0
   -3.3902   -2.7255   -0.1219 C   0  0  0  0  0  0  0  0  0  0  0  0
    2.9913   -1.2560    0.1991 C   0  0  0  0  0  0  0  0  0  0  0  0
   -0.9748   -0.7876   -2.3427 H   0  0  0  0  0  0  0  0  0  0  0  0
    1.5241   -1.0807   -2.1170 H   0  0  0  0  0  0  0  0  0  0  0  0
    1.1604   -0.9012    2.2205 H   0  0  0  0  0  0  0  0  0  0  0  0
   -1.3445   -0.5697    1.9935 H   0  0  0  0  0  0  0  0  0  0  0  0
   -2.9524    0.3704   -1.1355 H   0  0  0  0  0  0  0  0  0  0  0  0
   -4.9390    0.8291    1.7988 H   0  0  0  0  0  0  0  0  0  0  0  0
   -5.3344   -0.0118    0.2473 H   0  0  0  0  0  0  0  0  0  0  0  0
   -4.4982    1.5970    0.2242 H   0  0  0  0  0  0  0  0  0  0  0  0
   -4.0436   -3.4735   -0.6089 H   0  0  0  0  0  0  0  0  0  0  0  0
   -3.7478   -2.5507    0.9159 H   0  0  0  0  0  0  0  0  0  0  0  0
   -2.3544   -3.1328   -0.0758 H   0  0  0  0  0  0  0  0  0  0  0  0
  1 15  1  0  0  0  0
  5 12  1  0  0  0  0
  5 14  1  0  0  0  0
  6 11  2  0  0  0  0
  7  8  1  0  0  0  0
  7  6  1  0  0  0  0
  8  9  1  0  0  0  0
  9 15  1  6  0  0  0
  9 10  1  0  0  0  0
 10 18  1  0  0  0  0
 11 10  1  0  0  0  0
 11 19  1  0  0  0  0
 12  6  1  0  0  0  0
 12  4  1  0  0  0  0
 13  4  1  0  0  0  0
 13 21  1  0  0  0  0
 14 26  1  0  0  0  0
 14 25  1  0  0  0  0
 15  3  1  0  0  0  0
 15  2  1  0  0  0  0
 16  7  1  0  0  0  0
 17  8  1  0  0  0  0
 20 12  1  0  0  0  0
 22 13  1  0  0  0  0
 23 13  1  0  0  0  0
 24 14  1  0  0  0  0
M  END
