12,17
q = -2.0, confidence = 0.598

 28 29  0  0  0  0  0  0  0  0999 V2000
    3.7509   -0.0839   -0.4916 C   0  0  0  0  0  0  0  0  0  0  0  0
    3.2090   -0.9848   -0.8186 H   0  0  0  0  0  0  0  0  0  0  0  0
    5.1518   -0.0770   -0.4893 C   0  0  0  0  0  0  0  0  0  0  0  0
    5.7039   -0.9720   -0.8157 H   0  0  0  0  0  0  0  0  0  0  0  0
    5.8506    1.0654   -0.0674 C   0  0  0  0  0  0  0  0  0  0  0  0
    6.9510    1.0727   -0.0563 H   0  0  0  0  0  0  0  0  0  0  0  0
    5.1281    2.1962    0.3538 C   0  0  0  0  0  0  0  0  0  0  0  0
    5.6658    3.0923    0.7013 H   0  0  0  0  0  0  0  0  0  0  0  0
    3.7292    2.1887    0.3459 C   0  0  0  0  0  0  0  0  0  0  0  0
    3.1832    3.0755    0.7017 H   0  0  0  0  0  0  0  0  0  0  0  0
    2.9971    1.0500   -0.0874 C   0  0  0  0  0  0  0  0  0  0  0  0
    1.5338    0.9955   -0.0951 C   0  0  0  0  0  3  0  0  0  0  0  0
    0.7308    2.1184   -0.0402 C   0  0  0  0  0  0  0  0  0  0  0  0
    1.1900    3.1292   -0.0543 H   0  0  0  0  0  0  0  0  0  0  0  0
   -0.7306    2.1184    0.0394 C   0  0  0  0  0  0  0  0  0  0  0  0
   -1.1897    3.1293    0.0532 H   0  0  0  0  0  0  0  0  0  0  0  0
   -1.5336    0.9955    0.0945 C   0  0  0  0  0  3  0  0  0  0  0  0
   -2.9969    1.0501    0.0871 C   0  0  0  0  0  0  0  0  0  0  0  0
   -3.7290    2.1889   -0.3459 C   0  0  0  0  0  0  0  0  0  0  0  0
   -3.1831    3.0757   -0.7017 H   0  0  0  0  0  0  0  0  0  0  0  0
   -5.1280    2.1964   -0.3535 C   0  0  0  0  0  0  0  0  0  0  0  0
   -5.6656    3.0926   -0.7008 H   0  0  0  0  0  0  0  0  0  0  0  0
   -5.8504    1.0656    0.0676 C   0  0  0  0  0  0  0  0  0  0  0  0
   -6.9508    1.0729    0.0568 H   0  0  0  0  0  0  0  0  0  0  0  0
   -5.1516   -0.0769    0.4892 C   0  0  0  0  0  0  0  0  0  0  0  0
   -5.7037   -0.9719    0.8157 H   0  0  0  0  0  0  0  0  0  0  0  0
   -3.7506   -0.0839    0.4913 C   0  0  0  0  0  0  0  0  0  0  0  0
   -3.2087   -0.9848    0.8180 H   0  0  0  0  0  0  0  0  0  0  0  0
  1  3  2  0  0  0  0
  1 11  1  0  0  0  0
  2  1  1  0  0  0  0
  3  5  1  0  0  0  0
  4  3  1  0  0  0  0
  5  6  1  0  0  0  0
  5  7  2  0  0  0  0
  7  8  1  0  0  0  0
  9  7  1  0  0  0  0
  9 10  1  0  0  0  0
 11  9  2  0  0  0  0
 12 11  1  0  0  0  0
 12 13  2  0  0  0  0
 13 15  1  0  0  0  0
 14 13  1  0  0  0  0
 15 16  1  0  0  0  0
 15 17  2  0  0  0  0
 18 17  1  0  0  0  0
 18 27  1  0  0  0  0
 19 18  2  0  0  0  0
 20 19  1  0  0  0  0
 21 19  1  0  0  0  0
 21 23  2  0  0  0  0
 22 21  1  0  0  0  0
 23 25  1  0  0  0  0
 24 23  1  0  0  0  0
 25 27  2  0  0  0  0
 25 26  1  0  0  0  0
 27 28  1  0  0  0  0
M  END
