69,79
q = 0.0, confidence = 0.724

 81 83  0  0  1  0  0  0  0  0999 V2000
    1.3287    1.9723    0.5964 N   0  0  0  0  0  0  0  0  0  0  0  0
    1.3993    0.6966    0.1220 C   0  0  2  0  0  3  0  0  0  0  0  0
    2.7048    0.3142    0.2357 N   0  0  0  0  0  0  0  0  0  0  0  0
    3.4567    1.3609    0.7647 C   0  0  0  0  0  0  0  0  0  0  0  0
    4.5350    1.2709    0.9157 H   0  0  0  0  0  0  0  0  0  0  0  0
    2.5907    2.3978    0.9934 C   0  0  0  0  0  0  0  0  0  0  0  0
    2.7525    3.4023    1.3922 H   0  0  0  0  0  0  0  0  0  0  0  0
    3.2447   -0.9298   -0.2604 C   0  0  0  0  0  0  0  0  0  0  0  0
    3.4153   -1.0686   -1.6600 C   0  0  0  0  0  0  0  0  0  0  0  0
    3.9326   -2.2920   -2.1256 C   0  0  0  0  0  0  0  0  0  0  0  0
    4.0731   -2.4384   -3.2069 H   0  0  0  0  0  0  0  0  0  0  0  0
    4.2677   -3.3198   -1.2372 C   0  0  0  0  0  0  0  0  0  0  0  0
    4.6672   -4.2694   -1.6238 H   0  0  0  0  0  0  0  0  0  0  0  0
    4.0943   -3.1474    0.1416 C   0  0  0  0  0  0  0  0  0  0  0  0
    4.3596   -3.9642    0.8282 H   0  0  0  0  0  0  0  0  0  0  0  0
    3.5742   -1.9496    0.6661 C   0  0  0  0  0  0  0  0  0  0  0  0
    3.0929    0.0485   -2.6455 C   0  0  0  0  0  0  0  0  0  0  0  0
    2.6260    0.8815   -2.0822 H   0  0  0  0  0  0  0  0  0  0  0  0
    4.3827    0.6052   -3.2748 C   0  0  0  0  0  0  0  0  0  0  0  0
    5.0920    0.9609   -2.5004 H   0  0  0  0  0  0  0  0  0  0  0  0
    4.1500    1.4565   -3.9462 H   0  0  0  0  0  0  0  0  0  0  0  0
    4.9026   -0.1674   -3.8778 H   0  0  0  0  0  0  0  0  0  0  0  0
    2.0804   -0.3904   -3.7164 C   0  0  0  0  0  0  0  0  0  0  0  0
    2.4912   -1.1912   -4.3645 H   0  0  0  0  0  0  0  0  0  0  0  0
    1.8204    0.4662   -4.3704 H   0  0  0  0  0  0  0  0  0  0  0  0
    1.1409   -0.7648   -3.2652 H   0  0  0  0  0  0  0  0  0  0  0  0
    3.4227   -1.7603    2.1706 C   0  0  0  0  0  0  0  0  0  0  0  0
    2.7073   -0.9270    2.3304 H   0  0  0  0  0  0  0  0  0  0  0  0
    2.8478   -2.9975    2.8771 C   0  0  0  0  0  0  0  0  0  0  0  0
    1.9062   -3.3379    2.4053 H   0  0  0  0  0  0  0  0  0  0  0  0
    2.6318   -2.7624    3.9384 H   0  0  0  0  0  0  0  0  0  0  0  0
    3.5630   -3.8451    2.8707 H   0  0  0  0  0  0  0  0  0  0  0  0
    4.7694   -1.3562    2.8018 C   0  0  0  0  0  0  0  0  0  0  0  0
    5.5221   -2.1599    2.6657 H   0  0  0  0  0  0  0  0  0  0  0  0
    4.6537   -1.1783    3.8902 H   0  0  0  0  0  0  0  0  0  0  0  0
    5.1848   -0.4345    2.3486 H   0  0  0  0  0  0  0  0  0  0  0  0
    0.1333    2.7878    0.5896 C   0  0  0  0  0  0  0  0  0  0  0  0
   -0.2493    3.3979   -0.6271 C   0  0  0  0  0  0  0  0  0  0  0  0
   -1.4268    4.1666   -0.6121 C   0  0  0  0  0  0  0  0  0  0  0  0
   -1.7705    4.6404   -1.5422 H   0  0  0  0  0  0  0  0  0  0  0  0
   -2.1784    4.3123    0.5577 C   0  0  0  0  0  0  0  0  0  0  0  0
   -3.1058    4.9038    0.5405 H   0  0  0  0  0  0  0  0  0  0  0  0
   -1.7726    3.6909    1.7446 C   0  0  0  0  0  0  0  0  0  0  0  0
   -2.3843    3.8003    2.6516 H   0  0  0  0  0  0  0  0  0  0  0  0
   -0.6080    2.9049    1.7891 C   0  0  0  0  0  0  0  0  0  0  0  0
    0.5812    3.2706   -1.8980 C   0  0  0  0  0  0  0  0  0  0  0  0
    1.2439    2.3880   -1.7813 H   0  0  0  0  0  0  0  0  0  0  0  0
    1.4963    4.4985   -2.0635 C   0  0  0  0  0  0  0  0  0  0  0  0
    0.8944    5.4234   -2.1778 H   0  0  0  0  0  0  0  0  0  0  0  0
    2.1346    4.3936   -2.9649 H   0  0  0  0  0  0  0  0  0  0  0  0
    2.1606    4.6381   -1.1862 H   0  0  0  0  0  0  0  0  0  0  0  0
   -0.2737    3.0228   -3.1498 C   0  0  0  0  0  0  0  0  0  0  0  0
   -0.9806    2.1827   -2.9933 H   0  0  0  0  0  0  0  0  0  0  0  0
    0.3793    2.7904   -4.0157 H   0  0  0  0  0  0  0  0  0  0  0  0
   -0.8666    3.9195   -3.4234 H   0  0  0  0  0  0  0  0  0  0  0  0
   -0.1689    2.2266    3.0812 C   0  0  0  0  0  0  0  0  0  0  0  0
    0.5442    1.4200    2.8089 H   0  0  0  0  0  0  0  0  0  0  0  0
   -1.3361    1.5623    3.8275 C   0  0  0  0  0  0  0  0  0  0  0  0
   -2.0356    2.3126    4.2486 H   0  0  0  0  0  0  0  0  0  0  0  0
   -0.9549    0.9585    4.6755 H   0  0  0  0  0  0  0  0  0  0  0  0
   -1.9152    0.8953    3.1596 H   0  0  0  0  0  0  0  0  0  0  0  0
    0.5754    3.2197    3.9935 C   0  0  0  0  0  0  0  0  0  0  0  0
    1.4591    3.6626    3.4918 H   0  0  0  0  0  0  0  0  0  0  0  0
    0.9234    2.7190    4.9201 H   0  0  0  0  0  0  0  0  0  0  0  0
   -0.0917    4.0559    4.2878 H   0  0  0  0  0  0  0  0  0  0  0  0
    0.2724   -0.0940   -0.4135 C   0  0  0  0  0  0  0  0  0  0  0  0
    0.6823   -0.9876   -0.9224 H   0  0  0  0  0  0  0  0  0  0  0  0
   -0.2698    0.5224   -1.1666 H   0  0  0  0  0  0  0  0  0  0  0  0
   -0.7886   -0.5117    0.6303 C   0  0  0  0  0  3  0  0  0  0  0  0
   -1.1730    0.4101    1.1164 H   0  0  0  0  0  0  0  0  0  0  0  0
   -0.2720   -1.4928    1.6913 C   0  0  0  0  0  0  0  0  0  0  0  0
    0.3453   -0.9972    2.4776 H   0  0  0  0  0  0  0  0  0  0  0  0
    0.3973   -2.2393    1.2088 H   0  0  0  0  0  0  0  0  0  0  0  0
   -1.4702   -2.2108    2.3183 C   0  0  0  0  0  0  0  0  0  0  0  0
   -1.1522   -3.0423    2.9892 H   0  0  0  0  0  0  0  0  0  0  0  0
   -2.0405   -1.4986    2.9521 H   0  0  0  0  0  0  0  0  0  0  0  0
   -2.3895   -2.7220    1.2218 C   0  0  0  0  0  3  0  0  0  0  0  0
   -3.4175   -2.9904    1.5231 H   0  0  0  0  0  0  0  0  0  0  0  0
   -1.8962   -3.2770    0.0045 C   0  0  0  0  0  3  0  0  0  0  0  0
   -0.8138   -3.4176   -0.1631 H   0  0  0  0  0  0  0  0  0  0  0  0
   -2.5612   -3.9228   -0.5912 H   0  0  0  0  0  0  0  0  0  0  0  0
  1  6  1  0  0  0  0
  2 66  1  6  0  0  0
  2  3  1  0  0  0  0
  2  1  1  0  0  0  0
  3  4  1  0  0  0  0
  4  5  1  0  0  0  0
  4  6  2  0  0  0  0
  6  7  1  0  0  0  0
  8  3  1  0  0  0  0
  8 16  1  0  0  0  0
  9  8  2  0  0  0  0
 10  9  1  0  0  0  0
 10 12  2  0  0  0  0
 11 10  1  0  0  0  0
 12 14  1  0  0  0  0
 13 12  1  0  0  0  0
 14 16  2  0  0  0  0
 14 15  1  0  0  0  0
 16 27  1  0  0  0  0
 17 18  1  0  0  0  0
 17  9  1  0  0  0  0
 19 17  1  0  0  0  0
 19 20  1  0  0  0  0
 21 19  1  0  0  0  0
 22 19  1  0  0  0  0
 23 26  1  0  0  0  0
 23 17  1  0  0  0  0
 24 23  1  0  0  0  0
 25 23  1  0  0  0  0
 27 28  1  0  0  0  0
 27 33  1  0  0  0  0
 27 29  1  0  0  0  0
 29 31  1  0  0  0  0
 30 29  1  0  0  0  0
 32 29  1  0  0  0  0
 33 35  1  0  0  0  0
 34 33  1  0  0  0  0
 36 33  1  0  0  0  0
 37  1  1  0  0  0  0
 37 45  1  0  0  0  0
 38 39  1  0  0  0  0
 38 37  2  0  0  0  0
 39 41  2  0  0  0  0
 40 39  1  0  0  0  0
 41 43  1  0  0  0  0
 42 41  1  0  0  0  0
 43 45  2  0  0  0  0
 43 44  1  0  0  0  0
 45 56  1  0  0  0  0
 46 47  1  0  0  0  0
 46 38  1  0  0  0  0
 48 46  1  0  0  0  0
 48 51  1  0  0  0  0
 49 48  1  0  0  0  0
 50 48  1  0  0  0  0
 52 53  1  0  0  0  0
 52 46  1  0  0  0  0
 54 52  1  0  0  0  0
 55 52  1  0  0  0  0
 56 58  1  0  0  0  0
 56 62  1  0  0  0  0
 57 56  1  0  0  0  0
 58 59  1  0  0  0  0
 58 60  1  0  0  0  0
 61 58  1  0  0  0  0
 62 65  1  0  0  0  0
 62 64  1  0  0  0  0
 63 62  1  0  0  0  0
 66 69  1  0  0  0  0
 67 66  1  0  0  0  0
 68 66  1  0  0  0  0
 69 70  1  0  0  0  0
 69 71  1  0  0  0  0
 71 74  1  0  0  0  0
 71 72  1  0  0  0  0
 73 71  1  0  0  0  0
 74 76  1  0  0  0  0
 74 75  1  0  0  0  0
 77 78  1  0  0  0  0
 77 74  1  0  0  0  0
 79 77  1  0  0  0  0
 80 79  1  0  0  0  0
 81 79  1  0  0  0  0
M  END
