12,16
q = 0.0, confidence = 0.998

 22 23  0  0  1  0  0  0  0  0999 V2000
   -2.3185   -0.1486    2.0675 O   0  0  0  0  0  0  0  0  0  0  0  0
   -2.5867   -1.5392   -0.5337 O   0  0  0  0  0  0  0  0  0  0  0  0
   -2.8420   -1.9290    0.3271 H   0  0  0  0  0  0  0  0  0  0  0  0
   -1.9432    0.2227    0.9647 C   0  0  0  0  0  0  0  0  0  0  0  0
   -2.6799   -0.1247   -0.3645 C   0  0  1  0  0  0  0  0  0  0  0  0
   -1.8478    0.5530   -1.4792 C   0  0  0  0  0  0  0  0  0  0  0  0
   -1.6026   -0.1777   -2.2736 H   0  0  0  0  0  0  0  0  0  0  0  0
   -2.4080    1.3870   -1.9511 H   0  0  0  0  0  0  0  0  0  0  0  0
   -0.6161    1.1009   -0.7943 C   0  0  0  0  0  0  0  0  0  0  0  0
    0.5536    1.6636   -1.3728 C   0  0  0  0  0  0  0  0  0  0  0  0
    0.6780    1.7146   -2.4630 H   0  0  0  0  0  0  0  0  0  0  0  0
    1.6054    2.0794   -0.5063 C   0  0  0  0  0  3  0  0  0  0  0  0
    2.5396    2.4606   -0.9426 H   0  0  0  0  0  0  0  0  0  0  0  0
    1.4891    1.9888    0.9169 C   0  0  0  0  0  3  0  0  0  0  0  0
    2.3336    2.2870    1.5526 H   0  0  0  0  0  0  0  0  0  0  0  0
    0.3355    1.3957    1.4880 C   0  0  0  0  0  3  0  0  0  0  0  0
    0.2452    1.2334    2.5716 H   0  0  0  0  0  0  0  0  0  0  0  0
   -0.7286    0.9917    0.6262 C   0  0  2  0  0  3  0  0  0  0  0  0
   -4.1385    0.3282   -0.3035 C   0  0  0  0  0  0  0  0  0  0  0  0
   -4.6240   -0.1183    0.5878 H   0  0  0  0  0  0  0  0  0  0  0  0
   -4.6736   -0.0095   -1.2129 H   0  0  0  0  0  0  0  0  0  0  0  0
   -4.2251    1.4308   -0.2208 H   0  0  0  0  0  0  0  0  0  0  0  0
  2  3  1  0  0  0  0
  4  1  2  0  0  0  0
  5  2  1  6  0  0  0
  5 19  1  0  0  0  0
  5  4  1  0  0  0  0
  6  9  1  0  0  0  0
  6  5  1  0  0  0  0
  7  6  1  0  0  0  0
  8  6  1  0  0  0  0
 10  9  2  0  0  0  0
 10 12  1  0  0  0  0
 11 10  1  0  0  0  0
 12 14  1  0  0  0  0
 13 12  1  0  0  0  0
 14 16  1  0  0  0  0
 14 15  1  0  0  0  0
 16 17  1  0  0  0  0
 18  9  1  6  0  0  0
 18  4  1  0  0  0  0
 18 16  1  0  0  0  0
 19 22  1  0  0  0  0
 19 20  1  0  0  0  0
 21 19  1  0  0  0  0
M  END
