4,6
q = 0.0, confidence = 1.0

 37 37  0  0  1  0  0  0  0  0999 V2000
   -1.4776   -0.0924    1.8400 O   0  0  0  0  0  0  0  0  0  0  0  0
   -2.9075   -0.0562    0.0567 N   0  0  0  0  0  0  0  0  0  0  0  0
   -0.0491   -1.1741   -1.0079 C   0  0  0  0  0  0  0  0  0  0  0  0
    1.0037   -1.0658   -1.9617 C   0  0  0  0  0  3  0  0  0  0  0  0
    1.5968    0.1908   -2.2777 C   0  0  0  0  0  3  0  0  0  0  0  0
    1.1698    1.3509   -1.5824 C   0  0  0  0  0  3  0  0  0  0  0  0
    0.0886    1.3100   -0.6445 C   0  0  1  0  0  3  0  0  0  0  0  0
   -0.4961    0.0351   -0.3633 C   0  0  0  0  0  0  0  0  0  0  0  0
   -0.3980    2.5741    0.0395 C   0  0  0  0  0  0  0  0  0  0  0  0
   -1.6524   -0.0443    0.6209 C   0  0  0  0  0  0  0  0  0  0  0  0
   -0.6769   -2.5025   -0.6774 C   0  0  0  0  0  0  0  0  0  0  0  0
   -4.0507   -0.1738    0.9667 C   0  0  0  0  0  0  0  0  0  0  0  0
   -4.4082   -1.6283    1.2732 C   0  0  0  0  0  0  0  0  0  0  0  0
   -3.6248    1.3701   -1.8792 C   0  0  0  0  0  0  0  0  0  0  0  0
    0.1442    2.8072    1.4569 C   0  0  0  0  0  0  0  0  0  0  0  0
   -3.1847   -0.0071   -1.3782 C   0  0  0  0  0  0  0  0  0  0  0  0
   -0.8929   -2.5823    0.4052 H   0  0  0  0  0  0  0  0  0  0  0  0
   -1.6351   -2.6444   -1.2224 H   0  0  0  0  0  0  0  0  0  0  0  0
   -0.0030   -3.3349   -0.9551 H   0  0  0  0  0  0  0  0  0  0  0  0
   -5.2937   -1.6807    1.9379 H   0  0  0  0  0  0  0  0  0  0  0  0
   -4.6441   -2.1965    0.3498 H   0  0  0  0  0  0  0  0  0  0  0  0
   -3.5640   -2.1282    1.7874 H   0  0  0  0  0  0  0  0  0  0  0  0
   -2.8134    2.1147   -1.7598 H   0  0  0  0  0  0  0  0  0  0  0  0
   -3.8895    1.3221   -2.9546 H   0  0  0  0  0  0  0  0  0  0  0  0
   -4.5140    1.7410   -1.3305 H   0  0  0  0  0  0  0  0  0  0  0  0
   -0.1179    1.9578    2.1159 H   0  0  0  0  0  0  0  0  0  0  0  0
    1.2456    2.9141    1.4513 H   0  0  0  0  0  0  0  0  0  0  0  0
   -0.2896    3.7331    1.8861 H   0  0  0  0  0  0  0  0  0  0  0  0
   -0.1398    3.4367   -0.6101 H   0  0  0  0  0  0  0  0  0  0  0  0
   -1.5075    2.5430    0.0798 H   0  0  0  0  0  0  0  0  0  0  0  0
   -3.7824    0.3524    1.9034 H   0  0  0  0  0  0  0  0  0  0  0  0
   -4.9088    0.3602    0.5091 H   0  0  0  0  0  0  0  0  0  0  0  0
   -2.2806   -0.3300   -1.9279 H   0  0  0  0  0  0  0  0  0  0  0  0
   -3.9700   -0.7630   -1.5985 H   0  0  0  0  0  0  0  0  0  0  0  0
    1.3853   -1.9802   -2.4391 H   0  0  0  0  0  0  0  0  0  0  0  0
    2.4339    0.2447   -2.9859 H   0  0  0  0  0  0  0  0  0  0  0  0
    1.6723    2.3115   -1.7692 H   0  0  0  0  0  0  0  0  0  0  0  0
  2 10  1  0  0  0  0
  2 12  1  0  0  0  0
  3 11  1  0  0  0  0
  3  8  2  0  0  0  0
  4  3  1  0  0  0  0
  5  4  1  0  0  0  0
  5  6  1  0  0  0  0
  6  7  1  0  0  0  0
  7  8  1  0  0  0  0
  7  9  1  1  0  0  0
  8 10  1  0  0  0  0
  9 30  1  0  0  0  0
  9 15  1  0  0  0  0
 10  1  2  0  0  0  0
 11 17  1  0  0  0  0
 12 13  1  0  0  0  0
 12 31  1  0  0  0  0
 13 22  1  0  0  0  0
 13 20  1  0  0  0  0
 14 23  1  0  0  0  0
 14 16  1  0  0  0  0
 14 25  1  0  0  0  0
 15 28  1  0  0  0  0
 15 26  1  0  0  0  0
 16  2  1  0  0  0  0
 18 11  1  0  0  0  0
 19 11  1  0  0  0  0
 21 13  1  0  0  0  0
 24 14  1  0  0  0  0
 27 15  1  0  0  0  0
 29  9  1  0  0  0  0
 32 12  1  0  0  0  0
 33 16  1  0  0  0  0
 34 16  1  0  0  0  0
 35  4  1  0  0  0  0
 36  5  1  0  0  0  0
 37  6  1  0  0  0  0
M  END
