3,13
q = 0.0, confidence = 0.978

 34 35  0  0  1  0  0  0  0  0999 V2000
    2.4937    1.8206    0.4643 I   0  0  0  0  0  0  0  0  0  0  0  0
    0.6147   -0.4276    1.5950 C   0  0  1  0  0  3  0  0  0  0  0  0
   -0.0268   -1.6786    1.3391 C   0  0  0  0  0  3  0  0  0  0  0  0
    0.4062   -2.2729    0.5222 H   0  0  0  0  0  0  0  0  0  0  0  0
   -0.6947   -2.5311    2.4174 C   0  0  0  0  0  0  0  0  0  0  0  0
   -0.1767   -2.3596    3.3845 H   0  0  0  0  0  0  0  0  0  0  0  0
   -0.5232   -3.5950    2.1629 H   0  0  0  0  0  0  0  0  0  0  0  0
   -2.2116   -2.2837    2.5540 C   0  0  0  0  0  0  0  0  0  0  0  0
   -2.7624   -3.0614    1.9932 H   0  0  0  0  0  0  0  0  0  0  0  0
   -2.5332   -2.3657    3.6182 H   0  0  0  0  0  0  0  0  0  0  0  0
   -2.6271   -0.9302    2.0156 C   0  0  0  0  0  3  0  0  0  0  0  0
   -3.6650   -0.8792    1.6531 H   0  0  0  0  0  0  0  0  0  0  0  0
   -2.0290    0.2677    2.4521 C   0  0  0  0  0  3  0  0  0  0  0  0
   -2.6352    1.1832    2.3615 H   0  0  0  0  0  0  0  0  0  0  0  0
   -0.9369    0.2810    3.5217 C   0  0  0  0  0  0  0  0  0  0  0  0
   -1.1007   -0.5766    4.2057 H   0  0  0  0  0  0  0  0  0  0  0  0
   -1.0606    1.1793    4.1621 H   0  0  0  0  0  0  0  0  0  0  0  0
    0.4988    0.2402    2.9598 C   0  0  0  0  0  0  0  0  0  0  0  0
    0.9176    1.2623    2.8723 H   0  0  0  0  0  0  0  0  0  0  0  0
    1.1808   -0.2896    3.6632 H   0  0  0  0  0  0  0  0  0  0  0  0
    1.9187   -0.2059    0.9055 C   0  0  0  0  0  0  0  0  0  0  0  0
    2.7957   -1.2191    0.6672 C   0  0  0  0  0  0  0  0  0  0  0  0
    2.4784   -2.1876    1.0957 H   0  0  0  0  0  0  0  0  0  0  0  0
    4.0953   -1.2747   -0.0153 C   0  0  0  0  0  0  0  0  0  0  0  0
    4.3927   -0.5413   -1.1889 C   0  0  0  0  0  0  0  0  0  0  0  0
    3.6257    0.1114   -1.6273 H   0  0  0  0  0  0  0  0  0  0  0  0
    5.6399   -0.6701   -1.8140 C   0  0  0  0  0  0  0  0  0  0  0  0
    5.8476   -0.0969   -2.7307 H   0  0  0  0  0  0  0  0  0  0  0  0
    6.6178   -1.5281   -1.2852 C   0  0  0  0  0  0  0  0  0  0  0  0
    7.5981   -1.6217   -1.7770 H   0  0  0  0  0  0  0  0  0  0  0  0
    6.3303   -2.2786   -0.1334 C   0  0  0  0  0  0  0  0  0  0  0  0
    7.0844   -2.9641    0.2824 H   0  0  0  0  0  0  0  0  0  0  0  0
    5.0794   -2.1625    0.4846 C   0  0  0  0  0  0  0  0  0  0  0  0
    4.8535   -2.7597    1.3821 H   0  0  0  0  0  0  0  0  0  0  0  0
  1 21  1  0  0  0  0
  2 21  1  1  0  0  0
  2 18  1  0  0  0  0
  3  2  1  0  0  0  0
  3  5  1  0  0  0  0
  4  3  1  0  0  0  0
  5  8  1  0  0  0  0
  5  6  1  0  0  0  0
  7  5  1  0  0  0  0
  8 10  1  0  0  0  0
  9  8  1  0  0  0  0
 11 13  1  0  0  0  0
 11  8  1  0  0  0  0
 12 11  1  0  0  0  0
 13 15  1  0  0  0  0
 14 13  1  0  0  0  0
 15 17  1  0  0  0  0
 15 16  1  0  0  0  0
 18 15  1  0  0  0  0
 18 20  1  0  0  0  0
 19 18  1  0  0  0  0
 22 21  2  0  0  0  0
 22 23  1  0  0  0  0
 24 33  1  0  0  0  0
 24 22  1  0  0  0  0
 25 24  2  0  0  0  0
 26 25  1  0  0  0  0
 27 29  2  0  0  0  0
 27 25  1  0  0  0  0
 28 27  1  0  0  0  0
 29 31  1  0  0  0  0
 30 29  1  0  0  0  0
 31 32  1  0  0  0  0
 31 33  2  0  0  0  0
 33 34  1  0  0  0  0
M  END
