1,19
q = -2.0, confidence = 0.816

 23 24  0  0  1  0  0  0  0  0999 V2000
    0.2865   -0.0541    2.2797 C   0  0  0  0  0  3  0  0  0  0  0  0
    0.7973    0.6311    2.9879 H   0  0  0  0  0  0  0  0  0  0  0  0
    0.3779   -1.0785    2.6985 H   0  0  0  0  0  0  0  0  0  0  0  0
   -1.2058    0.3045    2.1287 C   0  0  0  0  0  0  0  0  0  0  0  0
   -1.3153    1.3866    1.9010 H   0  0  0  0  0  0  0  0  0  0  0  0
   -1.7554    0.1597    3.0899 H   0  0  0  0  0  0  0  0  0  0  0  0
   -1.9438   -0.5058    1.0317 C   0  0  1  0  0  0  0  0  0  0  0  0
   -2.0118   -1.5581    1.3885 H   0  0  0  0  0  0  0  0  0  0  0  0
   -3.3590    0.0544    0.7504 C   0  0  2  0  0  0  0  0  0  0  0  0
   -3.9062    0.3337    1.6741 H   0  0  0  0  0  0  0  0  0  0  0  0
   -4.1296   -0.9296   -0.1639 C   0  0  0  0  0  0  0  0  0  0  0  0
   -4.0139   -1.9774    0.1813 H   0  0  0  0  0  0  0  0  0  0  0  0
   -5.2154   -0.7055   -0.1604 H   0  0  0  0  0  0  0  0  0  0  0  0
   -3.5005   -0.6853   -1.5735 C   0  0  0  0  0  0  0  0  0  0  0  0
   -4.2376   -0.2282   -2.2680 H   0  0  0  0  0  0  0  0  0  0  0  0
   -3.1311   -1.6153   -2.0512 H   0  0  0  0  0  0  0  0  0  0  0  0
   -2.3488    0.2998   -1.2590 C   0  0  2  0  0  0  0  0  0  0  0  0
   -1.9492    0.8074   -2.1611 H   0  0  0  0  0  0  0  0  0  0  0  0
   -1.2904   -0.4685   -0.4187 C   0  0  0  0  0  3  0  0  0  0  0  0
   -1.2638   -1.5072   -0.8045 H   0  0  0  0  0  0  0  0  0  0  0  0
   -3.0472    1.2090   -0.2257 C   0  0  0  0  0  0  0  0  0  0  0  0
   -3.9575    1.7024   -0.6256 H   0  0  0  0  0  0  0  0  0  0  0  0
   -2.3953    1.9871    0.2169 H   0  0  0  0  0  0  0  0  0  0  0  0
  1  3  1  0  0  0  0
  1  2  1  0  0  0  0
  4  1  1  0  0  0  0
  4  6  1  0  0  0  0
  5  4  1  0  0  0  0
  7  8  1  1  0  0  0
  7  4  1  0  0  0  0
  9  7  1  0  0  0  0
  9 10  1  1  0  0  0
 11 13  1  0  0  0  0
 11 12  1  0  0  0  0
 11  9  1  0  0  0  0
 14 17  1  0  0  0  0
 14 11  1  0  0  0  0
 15 14  1  0  0  0  0
 16 14  1  0  0  0  0
 17 18  1  6  0  0  0
 17 19  1  0  0  0  0
 17 21  1  0  0  0  0
 19  7  1  0  0  0  0
 20 19  1  0  0  0  0
 21 23  1  0  0  0  0
 21  9  1  0  0  0  0
 22 21  1  0  0  0  0
M  END
