1,19
q = -2.0, confidence = 0.852

 23 24  0  0  1  0  0  0  0  0999 V2000
    1.1641    1.0386   -1.8106 C   0  0  0  0  0  3  0  0  0  0  0  0
    2.2633    1.0893   -1.9416 H   0  0  0  0  0  0  0  0  0  0  0  0
    0.7456    0.7158   -2.7875 H   0  0  0  0  0  0  0  0  0  0  0  0
    0.5807    2.4159   -1.4495 C   0  0  0  0  0  0  0  0  0  0  0  0
    0.7569    3.1579   -2.2655 H   0  0  0  0  0  0  0  0  0  0  0  0
    1.1082    2.8362   -0.5669 H   0  0  0  0  0  0  0  0  0  0  0  0
   -0.9379    2.3788   -1.1555 C   0  0  2  0  0  0  0  0  0  0  0  0
   -1.4535    2.1833   -2.1229 H   0  0  0  0  0  0  0  0  0  0  0  0
   -1.4449    3.7040   -0.5390 C   0  0  1  0  0  0  0  0  0  0  0  0
   -0.9991    4.6019   -1.0138 H   0  0  0  0  0  0  0  0  0  0  0  0
   -2.9931    3.7035   -0.5254 C   0  0  0  0  0  0  0  0  0  0  0  0
   -3.4053    3.3608   -1.4967 H   0  0  0  0  0  0  0  0  0  0  0  0
   -3.3894    4.7235   -0.3471 H   0  0  0  0  0  0  0  0  0  0  0  0
   -3.3444    2.7409    0.6530 C   0  0  0  0  0  0  0  0  0  0  0  0
   -3.8271    3.2901    1.4896 H   0  0  0  0  0  0  0  0  0  0  0  0
   -4.0335    1.9237    0.3596 H   0  0  0  0  0  0  0  0  0  0  0  0
   -1.9548    2.2058    1.0742 C   0  0  1  0  0  0  0  0  0  0  0  0
   -1.9637    1.7317    2.0771 H   0  0  0  0  0  0  0  0  0  0  0  0
   -1.4101    1.3109   -0.0752 C   0  0  0  0  0  3  0  0  0  0  0  0
   -2.2716    0.7602   -0.5003 H   0  0  0  0  0  0  0  0  0  0  0  0
   -1.1159    3.4943    0.9550 C   0  0  0  0  0  0  0  0  0  0  0  0
   -1.4832    4.3155    1.6053 H   0  0  0  0  0  0  0  0  0  0  0  0
   -0.0352    3.3496    1.1491 H   0  0  0  0  0  0  0  0  0  0  0  0
  1  4  1  0  0  0  0
  2  1  1  0  0  0  0
  3  1  1  0  0  0  0
  4  7  1  0  0  0  0
  4  6  1  0  0  0  0
  5  4  1  0  0  0  0
  7  8  1  6  0  0  0
  7  9  1  0  0  0  0
  7 19  1  0  0  0  0
  9 10  1  6  0  0  0
  9 11  1  0  0  0  0
  9 21  1  0  0  0  0
 11 13  1  0  0  0  0
 11 14  1  0  0  0  0
 12 11  1  0  0  0  0
 14 17  1  0  0  0  0
 14 15  1  0  0  0  0
 16 14  1  0  0  0  0
 17 18  1  1  0  0  0
 19 17  1  0  0  0  0
 20 19  1  0  0  0  0
 21 17  1  0  0  0  0
 21 23  1  0  0  0  0
 21 22  1  0  0  0  0
M  END
