6,18
q = -2.0, confidence = 0.79

 28 29  0  0  0  0  0  0  0  0999 V2000
   -1.1021   -1.7987   -0.1392 C   0  0  0  0  0  0  0  0  0  0  0  0
    0.0159   -2.4150    0.5137 C   0  0  0  0  0  0  0  0  0  0  0  0
    0.0379   -2.7408    1.5597 H   0  0  0  0  0  0  0  0  0  0  0  0
    1.1006   -2.4717   -0.3975 C   0  0  0  0  0  0  0  0  0  0  0  0
    2.1075   -2.8443   -0.1787 H   0  0  0  0  0  0  0  0  0  0  0  0
    0.6726   -1.8900   -1.6298 C   0  0  0  0  0  3  0  0  0  0  0  0
    1.2817   -1.7761   -2.5350 H   0  0  0  0  0  0  0  0  0  0  0  0
   -0.6909   -1.5045   -1.4760 C   0  0  0  0  0  0  0  0  0  0  0  0
   -1.3341   -1.0766   -2.2507 H   0  0  0  0  0  0  0  0  0  0  0  0
   -2.4641   -1.5485    0.4764 C   0  0  0  0  0  0  0  0  0  0  0  0
   -2.9526   -2.5321    0.6458 H   0  0  0  0  0  0  0  0  0  0  0  0
   -2.3124   -1.1074    1.4856 H   0  0  0  0  0  0  0  0  0  0  0  0
   -3.3662   -0.6750   -0.3606 C   0  0  0  0  0  0  0  0  0  0  0  0
   -4.0604   -1.1913   -1.0459 H   0  0  0  0  0  0  0  0  0  0  0  0
   -1.1021    1.7987   -0.1392 C   0  0  0  0  0  0  0  0  0  0  0  0
   -0.6910    1.5045   -1.4760 C   0  0  0  0  0  0  0  0  0  0  0  0
   -1.3342    1.0765   -2.2506 H   0  0  0  0  0  0  0  0  0  0  0  0
    0.6725    1.8900   -1.6299 C   0  0  0  0  0  3  0  0  0  0  0  0
    1.2817    1.7761   -2.5350 H   0  0  0  0  0  0  0  0  0  0  0  0
    1.1005    2.4717   -0.3975 C   0  0  0  0  0  0  0  0  0  0  0  0
    2.1074    2.8443   -0.1787 H   0  0  0  0  0  0  0  0  0  0  0  0
    0.0159    2.4150    0.5137 C   0  0  0  0  0  0  0  0  0  0  0  0
    0.0379    2.7408    1.5597 H   0  0  0  0  0  0  0  0  0  0  0  0
   -2.4641    1.5485    0.4764 C   0  0  0  0  0  0  0  0  0  0  0  0
   -2.3125    1.1074    1.4856 H   0  0  0  0  0  0  0  0  0  0  0  0
   -2.9526    2.5321    0.6458 H   0  0  0  0  0  0  0  0  0  0  0  0
   -3.3662    0.6749   -0.3606 C   0  0  0  0  0  0  0  0  0  0  0  0
   -4.0604    1.1912   -1.0458 H   0  0  0  0  0  0  0  0  0  0  0  0
  1 10  1  0  0  0  0
  1  2  1  0  0  0  0
  2  3  1  0  0  0  0
  4  5  1  0  0  0  0
  4  2  2  0  0  0  0
  6  8  1  0  0  0  0
  6  4  1  0  0  0  0
  7  6  1  0  0  0  0
  8  1  2  0  0  0  0
  9  8  1  0  0  0  0
 10 11  1  0  0  0  0
 10 12  1  0  0  0  0
 13 27  2  0  0  0  0
 13 10  1  0  0  0  0
 14 13  1  0  0  0  0
 15 24  1  0  0  0  0
 15 22  1  0  0  0  0
 16 15  2  0  0  0  0
 17 16  1  0  0  0  0
 18 16  1  0  0  0  0
 18 20  1  0  0  0  0
 19 18  1  0  0  0  0
 20 21  1  0  0  0  0
 20 22  2  0  0  0  0
 22 23  1  0  0  0  0
 24 26  1  0  0  0  0
 24 25  1  0  0  0  0
 27 24  1  0  0  0  0
 28 27  1  0  0  0  0
M  END
