5,7
q = -1.0, confidence = 0.062

 46 46  0  0  1  0  0  0  0  0999 V2000
    3.0091    0.6923   -1.7080 Si  0  0  0  0  0  0  0  0  0  0  0  0
   -1.6024    3.3037    0.5155 Si  0  0  0  0  0  0  0  0  0  0  0  0
    2.6476   -0.4433    2.0808 Si  0  0  0  0  0  0  0  0  0  0  0  0
    1.5953    0.8465   -0.4362 C   0  0  0  0  0  0  0  0  0  0  0  0
    0.5244    1.7378   -0.7336 C   0  0  0  0  0  3  0  0  0  0  0  0
   -0.3657    1.8712    0.3852 C   0  0  1  0  0  3  0  0  0  0  0  0
    0.1938    1.0320    1.4035 C   0  0  0  0  0  3  0  0  0  0  0  0
    1.3883    0.3919    0.9308 C   0  0  0  0  0  0  0  0  0  0  0  0
    4.1583   -0.8021   -1.5562 C   0  0  0  0  0  0  0  0  0  0  0  0
    2.2533    0.6924   -3.4405 C   0  0  0  0  0  0  0  0  0  0  0  0
    4.0272    2.2828   -1.4954 C   0  0  0  0  0  0  0  0  0  0  0  0
   -3.1980    3.0550   -0.4688 C   0  0  0  0  0  0  0  0  0  0  0  0
   -0.6967    4.7944   -0.2264 C   0  0  0  0  0  0  0  0  0  0  0  0
   -1.9589    3.6647    2.3397 C   0  0  0  0  0  0  0  0  0  0  0  0
    4.2723    0.5276    1.9565 C   0  0  0  0  0  0  0  0  0  0  0  0
    2.0804   -0.2202    3.8772 C   0  0  0  0  0  0  0  0  0  0  0  0
    2.9341   -2.2730    1.7048 C   0  0  0  0  0  0  0  0  0  0  0  0
    0.3895    2.2492   -1.6948 H   0  0  0  0  0  0  0  0  0  0  0  0
   -0.2056    0.9281    2.4211 H   0  0  0  0  0  0  0  0  0  0  0  0
    4.9653   -0.6873   -2.3103 H   0  0  0  0  0  0  0  0  0  0  0  0
    3.6099   -1.7379   -1.7736 H   0  0  0  0  0  0  0  0  0  0  0  0
    4.6405   -0.9009   -0.5656 H   0  0  0  0  0  0  0  0  0  0  0  0
    3.0619    0.6840   -4.2005 H   0  0  0  0  0  0  0  0  0  0  0  0
    1.6258    1.5870   -3.6256 H   0  0  0  0  0  0  0  0  0  0  0  0
    1.6207   -0.2047   -3.5883 H   0  0  0  0  0  0  0  0  0  0  0  0
    4.8460    2.3270   -2.2435 H   0  0  0  0  0  0  0  0  0  0  0  0
    4.4810    2.3510   -0.4864 H   0  0  0  0  0  0  0  0  0  0  0  0
    3.3857    3.1766   -1.6374 H   0  0  0  0  0  0  0  0  0  0  0  0
   -2.9765    2.5988   -1.4547 H   0  0  0  0  0  0  0  0  0  0  0  0
   -3.6921    4.0346   -0.6339 H   0  0  0  0  0  0  0  0  0  0  0  0
   -3.9238    2.3989    0.0499 H   0  0  0  0  0  0  0  0  0  0  0  0
   -0.5037    4.6468   -1.3086 H   0  0  0  0  0  0  0  0  0  0  0  0
    0.2791    4.9593    0.2738 H   0  0  0  0  0  0  0  0  0  0  0  0
   -1.3046    5.7162   -0.1150 H   0  0  0  0  0  0  0  0  0  0  0  0
   -2.5748    4.5833    2.4303 H   0  0  0  0  0  0  0  0  0  0  0  0
   -1.0135    3.8360    2.8942 H   0  0  0  0  0  0  0  0  0  0  0  0
   -2.5065    2.8431    2.8410 H   0  0  0  0  0  0  0  0  0  0  0  0
    4.9961    0.1401    2.7034 H   0  0  0  0  0  0  0  0  0  0  0  0
    4.0916    1.5989    2.1805 H   0  0  0  0  0  0  0  0  0  0  0  0
    4.7484    0.4660    0.9603 H   0  0  0  0  0  0  0  0  0  0  0  0
    2.8743   -0.5943    4.5567 H   0  0  0  0  0  0  0  0  0  0  0  0
    1.1492   -0.7635    4.1229 H   0  0  0  0  0  0  0  0  0  0  0  0
    1.9250    0.8540    4.1067 H   0  0  0  0  0  0  0  0  0  0  0  0
    3.8010   -2.6564    2.2813 H   0  0  0  0  0  0  0  0  0  0  0  0
    3.1222   -2.4361    0.6265 H   0  0  0  0  0  0  0  0  0  0  0  0
    2.0490   -2.8817    1.9783 H   0  0  0  0  0  0  0  0  0  0  0  0
  1  9  1  0  0  0  0
  1 11  1  0  0  0  0
  1  4  1  0  0  0  0
  2 14  1  0  0  0  0
  3 16  1  0  0  0  0
  4  8  2  0  0  0  0
  5  4  1  0  0  0  0
  5  6  1  0  0  0  0
  6  2  1  1  0  0  0
  6  7  1  0  0  0  0
  7 19  1  0  0  0  0
  8  7  1  0  0  0  0
  8  3  1  0  0  0  0
  9 22  1  0  0  0  0
 10  1  1  0  0  0  0
 11 27  1  0  0  0  0
 12 31  1  0  0  0  0
 12  2  1  0  0  0  0
 13 34  1  0  0  0  0
 13 33  1  0  0  0  0
 13  2  1  0  0  0  0
 14 35  1  0  0  0  0
 14 37  1  0  0  0  0
 14 36  1  0  0  0  0
 15  3  1  0  0  0  0
 15 39  1  0  0  0  0
 15 38  1  0  0  0  0
 16 43  1  0  0  0  0
 16 42  1  0  0  0  0
 16 41  1  0  0  0  0
 17 46  1  0  0  0  0
 17  3  1  0  0  0  0
 17 44  1  0  0  0  0
 18  5  1  0  0  0  0
 20  9  1  0  0  0  0
 21  9  1  0  0  0  0
 23 10  1  0  0  0  0
 24 10  1  0  0  0  0
 25 10  1  0  0  0  0
 26 11  1  0  0  0  0
 28 11  1  0  0  0  0
 29 12  1  0  0  0  0
 30 12  1  0  0  0  0
 32 13  1  0  0  0  0
 40 15  1  0  0  0  0
 45 17  1  0  0  0  0
M  END
