1,25
q = 0.0, confidence = 0.992

 48 51  0  0  0  0  0  0  0  0999 V2000
   -1.8458   -0.9885   -0.8074 C   0  0  0  0  0  2  0  0  0  0  0  0
   -2.7760   -1.9816   -0.8790 N   0  0  0  0  0  0  0  0  0  0  0  0
   -1.8057    2.1207   -0.1500 C   0  0  0  0  0  0  0  0  0  0  0  0
   -2.4336    0.0833   -1.4136 N   0  0  0  0  0  0  0  0  0  0  0  0
   -3.9271   -1.5432   -1.5219 C   0  0  0  0  0  0  0  0  0  0  0  0
   -4.7902   -2.1938   -1.6898 H   0  0  0  0  0  0  0  0  0  0  0  0
   -1.7886    1.3936   -1.4865 C   0  0  0  0  0  0  0  0  0  0  0  0
   -2.3210    1.9784   -2.2648 H   0  0  0  0  0  0  0  0  0  0  0  0
   -0.7527    1.2273   -1.8410 H   0  0  0  0  0  0  0  0  0  0  0  0
   -0.6457    2.7498    0.3716 C   0  0  0  0  0  0  0  0  0  0  0  0
   -3.7114   -0.2300   -1.8575 C   0  0  0  0  0  0  0  0  0  0  0  0
   -4.3485    0.4940   -2.3734 H   0  0  0  0  0  0  0  0  0  0  0  0
   -1.9086    3.3946    2.3728 C   0  0  0  0  0  0  0  0  0  0  0  0
   -1.9400    3.8902    3.3547 H   0  0  0  0  0  0  0  0  0  0  0  0
   -2.5537   -3.3163   -0.3421 C   0  0  0  0  0  0  0  0  0  0  0  0
   -1.8222   -3.8652   -0.9672 H   0  0  0  0  0  0  0  0  0  0  0  0
   -3.5124   -3.8662   -0.3237 H   0  0  0  0  0  0  0  0  0  0  0  0
   -2.1528   -3.2206    0.6863 H   0  0  0  0  0  0  0  0  0  0  0  0
   -3.0519    2.7670    1.8567 C   0  0  0  0  0  0  0  0  0  0  0  0
   -3.9891    2.7565    2.4328 H   0  0  0  0  0  0  0  0  0  0  0  0
   -2.9926    2.1407    0.6069 C   0  0  0  0  0  0  0  0  0  0  0  0
   -3.8851    1.6247    0.2198 H   0  0  0  0  0  0  0  0  0  0  0  0
   -0.7219    3.3831    1.6315 C   0  0  0  0  0  0  0  0  0  0  0  0
    0.1779    3.8795    2.0267 H   0  0  0  0  0  0  0  0  0  0  0  0
    1.8451   -0.9900    0.8071 C   0  0  0  0  0  2  0  0  0  0  0  0
    2.7745   -1.9838    0.8782 N   0  0  0  0  0  0  0  0  0  0  0  0
    1.8072    2.1195    0.1508 C   0  0  0  0  0  0  0  0  0  0  0  0
    2.4337    0.0811    1.4135 N   0  0  0  0  0  0  0  0  0  0  0  0
    3.9261   -1.5464    1.5210 C   0  0  0  0  0  0  0  0  0  0  0  0
    4.7888   -2.1977    1.6885 H   0  0  0  0  0  0  0  0  0  0  0  0
    1.7896    1.3919    1.4870 C   0  0  0  0  0  0  0  0  0  0  0  0
    2.3224    1.9759    2.2656 H   0  0  0  0  0  0  0  0  0  0  0  0
    0.7536    1.2260    1.8414 H   0  0  0  0  0  0  0  0  0  0  0  0
    0.6476    2.7495   -0.3705 C   0  0  0  0  0  0  0  0  0  0  0  0
    3.7114   -0.2332    1.8571 C   0  0  0  0  0  0  0  0  0  0  0  0
    4.3491    0.4902    2.3732 H   0  0  0  0  0  0  0  0  0  0  0  0
    1.9109    3.3943   -2.3715 C   0  0  0  0  0  0  0  0  0  0  0  0
    1.9426    3.8903   -3.3532 H   0  0  0  0  0  0  0  0  0  0  0  0
    2.5513   -3.3181    0.3405 C   0  0  0  0  0  0  0  0  0  0  0  0
    1.8177   -3.8660    0.9642 H   0  0  0  0  0  0  0  0  0  0  0  0
    3.5092   -3.8694    0.3240 H   0  0  0  0  0  0  0  0  0  0  0  0
    2.1524   -3.2216   -0.6886 H   0  0  0  0  0  0  0  0  0  0  0  0
    3.0538    2.7659   -1.8556 C   0  0  0  0  0  0  0  0  0  0  0  0
    3.9910    2.7550   -2.4317 H   0  0  0  0  0  0  0  0  0  0  0  0
    2.9941    2.1391   -0.6061 C   0  0  0  0  0  0  0  0  0  0  0  0
    3.8863    1.6224   -0.2191 H   0  0  0  0  0  0  0  0  0  0  0  0
    0.7242    3.3833   -1.6303 C   0  0  0  0  0  0  0  0  0  0  0  0
   -0.1753    3.8803   -2.0252 H   0  0  0  0  0  0  0  0  0  0  0  0
  2  1  1  0  0  0  0
  2 15  1  0  0  0  0
  3 10  2  0  0  0  0
  3 21  1  0  0  0  0
  4  1  1  0  0  0  0
  5  2  1  0  0  0  0
  6  5  1  0  0  0  0
  7  4  1  0  0  0  0
  7  3  1  0  0  0  0
  8  7  1  0  0  0  0
  9  7  1  0  0  0  0
 10 23  1  0  0  0  0
 11  5  2  0  0  0  0
 11  4  1  0  0  0  0
 12 11  1  0  0  0  0
 13 14  1  0  0  0  0
 15 17  1  0  0  0  0
 15 18  1  0  0  0  0
 16 15  1  0  0  0  0
 19 13  1  0  0  0  0
 19 20  1  0  0  0  0
 21 19  2  0  0  0  0
 22 21  1  0  0  0  0
 23 24  1  0  0  0  0
 23 13  2  0  0  0  0
 25 26  1  0  0  0  0
 25 28  1  0  0  0  0
 26 29  1  0  0  0  0
 27 31  1  0  0  0  0
 28 31  1  0  0  0  0
 28 35  1  0  0  0  0
 29 30  1  0  0  0  0
 29 35  2  0  0  0  0
 31 33  1  0  0  0  0
 31 32  1  0  0  0  0
 34 27  1  0  0  0  0
 34 10  1  0  0  0  0
 35 36  1  0  0  0  0
 37 43  2  0  0  0  0
 37 47  1  0  0  0  0
 38 37  1  0  0  0  0
 39 26  1  0  0  0  0
 39 40  1  0  0  0  0
 41 39  1  0  0  0  0
 42 39  1  0  0  0  0
 43 45  1  0  0  0  0
 44 43  1  0  0  0  0
 45 46  1  0  0  0  0
 45 27  2  0  0  0  0
 47 34  2  0  0  0  0
 48 47  1  0  0  0  0
M  END
