15,17
q = 0.0, confidence = 0.98

 27 28  0  0  1  0  0  0  0  0999 V2000
    2.6947    1.6868    0.2091 O   0  0  0  0  0  0  0  0  0  0  0  0
    2.4385   -0.0169    1.7524 O   0  0  0  0  0  0  0  0  0  0  0  0
    1.0569    0.1187    1.7301 C   0  0  2  0  0  3  0  0  0  0  0  0
    1.3246    1.8691   -0.1191 C   0  0  2  0  0  0  0  0  0  0  0  0
    1.3955    0.0569   -1.5482 C   0  0  1  0  0  3  0  0  0  0  0  0
    1.1667   -0.4642   -2.9372 C   0  0  0  0  0  0  0  0  0  0  0  0
    1.9036    0.0084   -3.6216 H   0  0  0  0  0  0  0  0  0  0  0  0
    0.1542   -0.1910   -3.2927 H   0  0  0  0  0  0  0  0  0  0  0  0
    1.2695   -1.5625   -2.9683 H   0  0  0  0  0  0  0  0  0  0  0  0
    2.9677    0.3129    0.4546 C   0  0  1  0  0  0  0  0  0  0  0  0
    1.0252    3.3522   -0.0910 C   0  0  0  0  0  0  0  0  0  0  0  0
    1.1754    3.7408    0.9334 H   0  0  0  0  0  0  0  0  0  0  0  0
   -0.0227    3.5254   -0.3984 H   0  0  0  0  0  0  0  0  0  0  0  0
    1.7072    3.8803   -0.7837 H   0  0  0  0  0  0  0  0  0  0  0  0
    2.2624   -0.5563   -0.5915 C   0  0  0  0  0  3  0  0  0  0  0  0
    2.7489   -1.5086   -0.8546 H   0  0  0  0  0  0  0  0  0  0  0  0
    0.4393    1.0242    0.8031 C   0  0  0  0  0  3  0  0  0  0  0  0
   -0.5480    1.4514    1.0423 H   0  0  0  0  0  0  0  0  0  0  0  0
    0.4744   -0.2265    3.0747 C   0  0  0  0  0  0  0  0  0  0  0  0
    1.0159    0.3448    3.8575 H   0  0  0  0  0  0  0  0  0  0  0  0
    0.5944   -1.3037    3.3081 H   0  0  0  0  0  0  0  0  0  0  0  0
   -0.5940    0.0563    3.1362 H   0  0  0  0  0  0  0  0  0  0  0  0
    4.4691    0.1323    0.5115 C   0  0  0  0  0  0  0  0  0  0  0  0
    4.9117    0.3768   -0.4717 H   0  0  0  0  0  0  0  0  0  0  0  0
    4.7100   -0.9151    0.7724 H   0  0  0  0  0  0  0  0  0  0  0  0
    4.8927    0.8067    1.2795 H   0  0  0  0  0  0  0  0  0  0  0  0
    1.1280    1.4090   -1.4717 O   0  0  0  0  0  0  0  0  0  0  0  0
  1 10  1  0  0  0  0
  3  2  1  0  0  0  0
  3 19  1  1  0  0  0
  4 11  1  1  0  0  0
  4  1  1  0  0  0  0
  4 17  1  0  0  0  0
  5  6  1  6  0  0  0
  5 27  1  0  0  0  0
  5 15  1  0  0  0  0
  7  6  1  0  0  0  0
  8  6  1  0  0  0  0
  9  6  1  0  0  0  0
 10 23  1  6  0  0  0
 10  2  1  0  0  0  0
 11 12  1  0  0  0  0
 13 11  1  0  0  0  0
 14 11  1  0  0  0  0
 15 10  1  0  0  0  0
 16 15  1  0  0  0  0
 17 18  1  0  0  0  0
 17  3  1  0  0  0  0
 19 22  1  0  0  0  0
 19 21  1  0  0  0  0
 19 20  1  0  0  0  0
 23 25  1  0  0  0  0
 23 26  1  0  0  0  0
 24 23  1  0  0  0  0
 27  4  1  0  0  0  0
M  END
