4,9
q = -1.0, confidence = 0.06

 34 34  0  0  1  0  0  0  0  0999 V2000
   -4.3531    0.0287    0.2584 Si  0  0  0  0  0  0  0  0  0  0  0  0
    0.7015    3.1281    0.1127 Si  0  0  0  0  0  0  0  0  0  0  0  0
   -2.6526    0.6585   -0.2959 C   0  0  1  0  0  3  0  0  0  0  0  0
   -2.1874    0.7356   -1.6507 C   0  0  0  0  0  3  0  0  0  0  0  0
   -2.6768    0.2795   -2.5206 H   0  0  0  0  0  0  0  0  0  0  0  0
   -0.9661    1.4608   -1.6790 C   0  0  0  0  0  0  0  0  0  0  0  0
   -0.3647    1.6579   -2.5751 H   0  0  0  0  0  0  0  0  0  0  0  0
   -0.6309    1.8678   -0.3429 C   0  0  0  0  0  0  0  0  0  0  0  0
   -1.6786    1.3571    0.4929 C   0  0  0  0  0  3  0  0  0  0  0  0
   -1.7307    1.4785    1.5831 H   0  0  0  0  0  0  0  0  0  0  0  0
   -4.8189   -1.5422   -0.6769 C   0  0  0  0  0  0  0  0  0  0  0  0
   -5.8607   -1.8412   -0.4395 H   0  0  0  0  0  0  0  0  0  0  0  0
   -4.1393   -2.3734   -0.4057 H   0  0  0  0  0  0  0  0  0  0  0  0
   -4.7535   -1.3874   -1.7734 H   0  0  0  0  0  0  0  0  0  0  0  0
   -4.3749   -0.2174    2.1311 C   0  0  0  0  0  0  0  0  0  0  0  0
   -4.0633    0.7059    2.6617 H   0  0  0  0  0  0  0  0  0  0  0  0
   -3.6946   -1.0406    2.4246 H   0  0  0  0  0  0  0  0  0  0  0  0
   -5.3997   -0.4702    2.4730 H   0  0  0  0  0  0  0  0  0  0  0  0
   -5.5688    1.4126   -0.2003 C   0  0  0  0  0  0  0  0  0  0  0  0
   -5.3062    2.3602    0.3130 H   0  0  0  0  0  0  0  0  0  0  0  0
   -6.6055    1.1409    0.0889 H   0  0  0  0  0  0  0  0  0  0  0  0
   -5.5582    1.6050   -1.2927 H   0  0  0  0  0  0  0  0  0  0  0  0
    1.6095    2.7177    1.7197 C   0  0  0  0  0  0  0  0  0  0  0  0
    2.3523    3.5120    1.9407 H   0  0  0  0  0  0  0  0  0  0  0  0
    2.1404    1.7498    1.6541 H   0  0  0  0  0  0  0  0  0  0  0  0
    0.9083    2.6662    2.5765 H   0  0  0  0  0  0  0  0  0  0  0  0
    1.9376    3.2813   -1.3091 C   0  0  0  0  0  0  0  0  0  0  0  0
    2.7227    4.0262   -1.0658 H   0  0  0  0  0  0  0  0  0  0  0  0
    1.4410    3.6079   -2.2453 H   0  0  0  0  0  0  0  0  0  0  0  0
    2.4263    2.3068   -1.5028 H   0  0  0  0  0  0  0  0  0  0  0  0
   -0.1997    4.7796    0.3426 C   0  0  0  0  0  0  0  0  0  0  0  0
    0.5125    5.5939    0.5906 H   0  0  0  0  0  0  0  0  0  0  0  0
   -0.9432    4.7124    1.1632 H   0  0  0  0  0  0  0  0  0  0  0  0
   -0.7430    5.0651   -0.5811 H   0  0  0  0  0  0  0  0  0  0  0  0
  1 15  1  0  0  0  0
  2 31  1  0  0  0  0
  2 23  1  0  0  0  0
  3  1  1  6  0  0  0
  3  9  1  0  0  0  0
  4  3  1  0  0  0  0
  5  4  1  0  0  0  0
  6  4  1  0  0  0  0
  6  8  2  0  0  0  0
  7  6  1  0  0  0  0
  8  2  1  0  0  0  0
  8  9  1  0  0  0  0
  9 10  1  0  0  0  0
 11 12  1  0  0  0  0
 11 13  1  0  0  0  0
 11  1  1  0  0  0  0
 14 11  1  0  0  0  0
 15 17  1  0  0  0  0
 15 18  1  0  0  0  0
 15 16  1  0  0  0  0
 19 21  1  0  0  0  0
 19  1  1  0  0  0  0
 19 20  1  0  0  0  0
 22 19  1  0  0  0  0
 23 24  1  0  0  0  0
 23 26  1  0  0  0  0
 25 23  1  0  0  0  0
 27 28  1  0  0  0  0
 27  2  1  0  0  0  0
 29 27  1  0  0  0  0
 30 27  1  0  0  0  0
 31 32  1  0  0  0  0
 31 33  1  0  0  0  0
 34 31  1  0  0  0  0
M  END
