7,10
q = 0.0, confidence = 0.51

 38 37  0  0  0  0  0  0  0  0999 V2000
   -4.0038    0.0743    0.1221 P   0  0  0  0  0  0  0  0  0  0  0  0
   -4.1711   -0.0895    1.9819 C   0  0  0  0  0  0  0  0  0  0  0  0
   -4.3730    0.8982    2.4373 H   0  0  0  0  0  0  0  0  0  0  0  0
   -5.0181   -0.7545    2.2438 H   0  0  0  0  0  0  0  0  0  0  0  0
   -2.8119   -0.6487    2.4305 C   0  0  0  0  0  0  0  0  0  0  0  0
   -2.7759   -0.7696    3.5383 H   0  0  0  0  0  0  0  0  0  0  0  0
   -2.4532   -1.8797    1.6087 C   0  0  0  0  0  3  0  0  0  0  0  0
   -3.2441   -2.6145    1.3845 H   0  0  0  0  0  0  0  0  0  0  0  0
   -1.5452   -2.3866    1.9869 H   0  0  0  0  0  0  0  0  0  0  0  0
   -1.7005    0.1927    1.8136 C   0  0  0  0  0  3  0  0  0  0  0  0
   -0.6967   -0.0460    2.2062 H   0  0  0  0  0  0  0  0  0  0  0  0
   -1.8535    1.2853    1.7684 H   0  0  0  0  0  0  0  0  0  0  0  0
   -5.3823   -1.0196   -0.6590 C   0  0  0  0  0  0  0  0  0  0  0  0
   -5.2148   -1.0977   -2.1875 C   0  0  0  0  0  0  0  0  0  0  0  0
   -5.8954   -1.8817   -2.5803 H   0  0  0  0  0  0  0  0  0  0  0  0
   -4.1831   -1.3795   -2.4672 H   0  0  0  0  0  0  0  0  0  0  0  0
   -5.4603   -0.1564   -2.7053 H   0  0  0  0  0  0  0  0  0  0  0  0
   -5.2309   -2.4520   -0.1161 C   0  0  0  0  0  0  0  0  0  0  0  0
   -6.0247   -3.0805   -0.5705 H   0  0  0  0  0  0  0  0  0  0  0  0
   -5.3542   -2.5159    0.9822 H   0  0  0  0  0  0  0  0  0  0  0  0
   -4.2529   -2.8925   -0.3909 H   0  0  0  0  0  0  0  0  0  0  0  0
   -6.7819   -0.4957   -0.2951 C   0  0  0  0  0  0  0  0  0  0  0  0
   -7.0056    0.4798   -0.7654 H   0  0  0  0  0  0  0  0  0  0  0  0
   -6.9239   -0.3986    0.8002 H   0  0  0  0  0  0  0  0  0  0  0  0
   -7.5417   -1.2177   -0.6622 H   0  0  0  0  0  0  0  0  0  0  0  0
   -4.3300    1.9305   -0.3065 C   0  0  0  0  0  0  0  0  0  0  0  0
   -4.7150    2.0979   -1.7869 C   0  0  0  0  0  0  0  0  0  0  0  0
   -4.7328    3.1831   -2.0187 H   0  0  0  0  0  0  0  0  0  0  0  0
   -5.7219    1.7018   -2.0152 H   0  0  0  0  0  0  0  0  0  0  0  0
   -3.9795    1.6277   -2.4668 H   0  0  0  0  0  0  0  0  0  0  0  0
   -5.4300    2.5385    0.5838 C   0  0  0  0  0  0  0  0  0  0  0  0
   -5.1418    2.5646    1.6522 H   0  0  0  0  0  0  0  0  0  0  0  0
   -6.4023    2.0205    0.4982 H   0  0  0  0  0  0  0  0  0  0  0  0
   -5.5859    3.5923    0.2703 H   0  0  0  0  0  0  0  0  0  0  0  0
   -3.0247    2.7072   -0.0728 C   0  0  0  0  0  0  0  0  0  0  0  0
   -3.1567    3.7520   -0.4196 H   0  0  0  0  0  0  0  0  0  0  0  0
   -2.1725    2.2720   -0.6292 H   0  0  0  0  0  0  0  0  0  0  0  0
   -2.7446    2.7665    0.9953 H   0  0  0  0  0  0  0  0  0  0  0  0
  1  2  1  0  0  0  0
  2  4  1  0  0  0  0
  2  5  1  0  0  0  0
  2  3  1  0  0  0  0
  5  6  1  0  0  0  0
  7  9  1  0  0  0  0
  7  5  1  0  0  0  0
  8  7  1  0  0  0  0
 10 11  1  0  0  0  0
 10  5  1  0  0  0  0
 12 10  1  0  0  0  0
 13 22  1  0  0  0  0
 13 18  1  0  0  0  0
 13  1  1  0  0  0  0
 14 13  1  0  0  0  0
 15 14  1  0  0  0  0
 16 14  1  0  0  0  0
 17 14  1  0  0  0  0
 18 20  1  0  0  0  0
 19 18  1  0  0  0  0
 21 18  1  0  0  0  0
 22 24  1  0  0  0  0
 23 22  1  0  0  0  0
 25 22  1  0  0  0  0
 26 35  1  0  0  0  0
 26  1  1  0  0  0  0
 26 31  1  0  0  0  0
 27 26  1  0  0  0  0
 28 27  1  0  0  0  0
 29 27  1  0  0  0  0
 30 27  1  0  0  0  0
 31 32  1  0  0  0  0
 33 31  1  0  0  0  0
 34 31  1  0  0  0  0
 35 38  1  0  0  0  0
 36 35  1  0  0  0  0
 37 35  1  0  0  0  0
M  END
