10,27
q = 0.0, confidence = 0.986

 35 37  0  0  1  0  0  0  0  0999 V2000
    1.0346    1.1956    1.6178 N   0  0  0  0  0  0  0  0  0  0  0  0
    2.8069    0.0000    0.3278 C   0  0  0  0  0  0  0  0  0  0  0  0
   -0.5467    2.6210    1.2934 N   0  0  0  0  0  0  0  0  0  0  0  0
    1.8648    0.0000    1.5280 C   0  0  2  0  0  0  0  0  0  0  0  0
    2.4833    0.0000    2.4497 H   0  0  0  0  0  0  0  0  0  0  0  0
    3.2786    1.2149   -0.1995 C   0  0  0  0  0  0  0  0  0  0  0  0
    2.9015    2.1695    0.1963 H   0  0  0  0  0  0  0  0  0  0  0  0
    4.2060    1.2129   -1.2503 C   0  0  0  0  0  0  0  0  0  0  0  0
    4.5549    2.1684   -1.6694 H   0  0  0  0  0  0  0  0  0  0  0  0
   -0.0763    1.4184    0.8382 C   0  0  0  0  0  2  0  0  0  0  0  0
    1.2514    2.2255    2.5268 C   0  0  0  0  0  0  0  0  0  0  0  0
    2.0871    2.2273    3.2326 H   0  0  0  0  0  0  0  0  0  0  0  0
    0.2467    3.1300    2.3121 C   0  0  0  0  0  0  0  0  0  0  0  0
    0.0270    4.0821    2.8037 H   0  0  0  0  0  0  0  0  0  0  0  0
   -1.7783    3.2509    0.8283 C   0  0  0  0  0  0  0  0  0  0  0  0
   -1.6460    3.6682   -0.1873 H   0  0  0  0  0  0  0  0  0  0  0  0
   -2.0459    4.0632    1.5281 H   0  0  0  0  0  0  0  0  0  0  0  0
   -2.5771    2.4817    0.8177 H   0  0  0  0  0  0  0  0  0  0  0  0
    4.6730   -0.0001   -1.7775 C   0  0  0  0  0  0  0  0  0  0  0  0
    5.3912   -0.0001   -2.6109 H   0  0  0  0  0  0  0  0  0  0  0  0
    1.0346   -1.1955    1.6178 N   0  0  0  0  0  0  0  0  0  0  0  0
   -0.5467   -2.6209    1.2935 N   0  0  0  0  0  0  0  0  0  0  0  0
    3.2786   -1.2149   -0.1995 C   0  0  0  0  0  0  0  0  0  0  0  0
    2.9015   -2.1695    0.1963 H   0  0  0  0  0  0  0  0  0  0  0  0
    4.2060   -1.2130   -1.2502 C   0  0  0  0  0  0  0  0  0  0  0  0
    4.5549   -2.1685   -1.6693 H   0  0  0  0  0  0  0  0  0  0  0  0
   -0.0764   -1.4183    0.8382 C   0  0  0  0  0  2  0  0  0  0  0  0
    1.2514   -2.2254    2.5269 C   0  0  0  0  0  0  0  0  0  0  0  0
    2.0871   -2.2272    3.2327 H   0  0  0  0  0  0  0  0  0  0  0  0
    0.2467   -3.1299    2.3122 C   0  0  0  0  0  0  0  0  0  0  0  0
    0.0270   -4.0820    2.8039 H   0  0  0  0  0  0  0  0  0  0  0  0
   -1.7783   -3.2509    0.8284 C   0  0  0  0  0  0  0  0  0  0  0  0
   -1.6460   -3.6682   -0.1872 H   0  0  0  0  0  0  0  0  0  0  0  0
   -2.0459   -4.0631    1.5282 H   0  0  0  0  0  0  0  0  0  0  0  0
   -2.5771   -2.4816    0.8178 H   0  0  0  0  0  0  0  0  0  0  0  0
  1 11  1  0  0  0  0
  2  4  1  0  0  0  0
  3 13  1  0  0  0  0
  4  1  1  0  0  0  0
  4 21  1  0  0  0  0
  4  5  1  1  0  0  0
  6  7  1  0  0  0  0
  6  2  2  0  0  0  0
  8  6  1  0  0  0  0
  9  8  1  0  0  0  0
 10  3  1  0  0  0  0
 10  1  1  0  0  0  0
 11 12  1  0  0  0  0
 13 11  2  0  0  0  0
 13 14  1  0  0  0  0
 15  3  1  0  0  0  0
 15 17  1  0  0  0  0
 16 15  1  0  0  0  0
 18 15  1  0  0  0  0
 19  8  2  0  0  0  0
 19 25  1  0  0  0  0
 20 19  1  0  0  0  0
 21 28  1  0  0  0  0
 22 30  1  0  0  0  0
 23 24  1  0  0  0  0
 23  2  1  0  0  0  0
 25 23  2  0  0  0  0
 26 25  1  0  0  0  0
 27 22  1  0  0  0  0
 27 21  1  0  0  0  0
 28 29  1  0  0  0  0
 30 28  2  0  0  0  0
 30 31  1  0  0  0  0
 32 22  1  0  0  0  0
 32 34  1  0  0  0  0
 33 32  1  0  0  0  0
 35 32  1  0  0  0  0
M  END
