7
q = -2.0, confidence = 0.882

 39 40  0  0  1  0  0  0  0  0999 V2000
   -3.7427    0.0010   -0.0007 Si  0  0  0  0  0  0  0  0  0  0  0  0
   -2.4349    0.5643    1.2278 C   0  0  1  0  0  3  0  0  0  0  0  0
   -1.7008   -0.3825    2.0250 C   0  0  0  0  0  3  0  0  0  0  0  0
   -0.5194    0.2342    2.5356 C   0  0  0  0  0  0  0  0  0  0  0  0
   -0.4771    1.5389    1.9839 C   0  0  0  0  0  0  0  0  0  0  0  0
   -1.6344    1.7592    1.1756 C   0  0  2  0  0  3  0  0  0  0  0  0
   -2.4344   -0.5635   -1.2282 C   0  0  2  0  0  3  0  0  0  0  0  0
   -1.6347   -1.7589   -1.1752 C   0  0  2  0  0  3  0  0  0  0  0  0
   -0.4769   -1.5397   -1.9831 C   0  0  0  0  0  0  0  0  0  0  0  0
   -0.5180   -0.2351   -2.5351 C   0  0  0  0  0  0  0  0  0  0  0  0
   -1.6993    0.3826   -2.0253 C   0  0  0  0  0  3  0  0  0  0  0  0
   -1.9595    3.0639    0.5053 C   0  0  0  0  0  0  0  0  0  0  0  0
    0.4917   -0.3861    3.4420 C   0  0  0  0  0  0  0  0  0  0  0  0
   -1.9612   -3.0633   -0.5051 C   0  0  0  0  0  0  0  0  0  0  0  0
    0.4940    0.3844   -3.4410 C   0  0  0  0  0  0  0  0  0  0  0  0
   -4.8277    1.3750   -0.6987 C   0  0  0  0  0  0  0  0  0  0  0  0
   -4.8296   -1.3720    0.6964 C   0  0  0  0  0  0  0  0  0  0  0  0
   -2.0123   -1.4123    2.2453 H   0  0  0  0  0  0  0  0  0  0  0  0
    0.0124   -0.8027    4.3511 H   0  0  0  0  0  0  0  0  0  0  0  0
   -2.0099    1.4125   -2.2460 H   0  0  0  0  0  0  0  0  0  0  0  0
   -5.3964   -1.8698   -0.1168 H   0  0  0  0  0  0  0  0  0  0  0  0
    1.0070    1.2143   -2.9123 H   0  0  0  0  0  0  0  0  0  0  0  0
    1.2576    0.3485    3.7548 H   0  0  0  0  0  0  0  0  0  0  0  0
    1.0026   -1.2180    2.9144 H   0  0  0  0  0  0  0  0  0  0  0  0
    0.3233    2.2698    2.1525 H   0  0  0  0  0  0  0  0  0  0  0  0
    0.3229   -2.2713   -2.1512 H   0  0  0  0  0  0  0  0  0  0  0  0
    0.0152    0.8038   -4.3491 H   0  0  0  0  0  0  0  0  0  0  0  0
   -2.2453   -2.9453    0.5582 H   0  0  0  0  0  0  0  0  0  0  0  0
   -2.2418    2.9461   -0.5586 H   0  0  0  0  0  0  0  0  0  0  0  0
   -4.2480   -2.1478    1.2294 H   0  0  0  0  0  0  0  0  0  0  0  0
   -1.0908    3.7476    0.5465 H   0  0  0  0  0  0  0  0  0  0  0  0
   -5.3950    1.8731    0.1141 H   0  0  0  0  0  0  0  0  0  0  0  0
   -2.8113   -3.5653   -1.0136 H   0  0  0  0  0  0  0  0  0  0  0  0
   -5.5600    0.9482   -1.4144 H   0  0  0  0  0  0  0  0  0  0  0  0
   -5.5623   -0.9444    1.4112 H   0  0  0  0  0  0  0  0  0  0  0  0
   -1.0925   -3.7473   -0.5448 H   0  0  0  0  0  0  0  0  0  0  0  0
   -4.2450    2.1505   -1.2310 H   0  0  0  0  0  0  0  0  0  0  0  0
    1.2581   -0.3514   -3.7555 H   0  0  0  0  0  0  0  0  0  0  0  0
   -2.8104    3.5659    1.0125 H   0  0  0  0  0  0  0  0  0  0  0  0
  1 17  1  0  0  0  0
  2  1  1  6  0  0  0
  2  3  1  0  0  0  0
  3 18  1  0  0  0  0
  3  4  1  0  0  0  0
  4 13  1  0  0  0  0
  5 25  1  0  0  0  0
  5  4  2  0  0  0  0
  6 12  1  1  0  0  0
  6  2  1  0  0  0  0
  6  5  1  0  0  0  0
  7  8  1  0  0  0  0
  7  1  1  1  0  0  0
  8 14  1  6  0  0  0
  9  8  1  0  0  0  0
 10 11  1  0  0  0  0
 10  9  2  0  0  0  0
 11  7  1  0  0  0  0
 12 31  1  0  0  0  0
 12 39  1  0  0  0  0
 13 23  1  0  0  0  0
 13 19  1  0  0  0  0
 14 28  1  0  0  0  0
 15 22  1  0  0  0  0
 15 10  1  0  0  0  0
 16  1  1  0  0  0  0
 16 32  1  0  0  0  0
 17 30  1  0  0  0  0
 17 35  1  0  0  0  0
 20 11  1  0  0  0  0
 21 17  1  0  0  0  0
 24 13  1  0  0  0  0
 26  9  1  0  0  0  0
 27 15  1  0  0  0  0
 29 12  1  0  0  0  0
 33 14  1  0  0  0  0
 34 16  1  0  0  0  0
 36 14  1  0  0  0  0
 37 16  1  0  0  0  0
 38 15  1  0  0  0  0
M  END
