5,15
q = 0.0, confidence = 0.988

 49 50  0  0  0  0  0  0  0  0999 V2000
   -1.2206    0.3460    1.8525 N   0  0  0  0  0  0  0  0  0  0  0  0
    0.8055    0.5162    2.5951 N   0  0  0  0  0  0  0  0  0  0  0  0
    2.2142    2.1462   -0.1975 N   0  0  0  0  0  0  0  0  0  0  0  0
    0.4261    2.2140   -1.4161 N   0  0  0  0  0  0  0  0  0  0  0  0
    0.0804    0.0842    1.5154 C   0  0  0  0  0  2  0  0  0  0  0  0
   -0.0253    1.0392    3.5821 C   0  0  0  0  0  0  0  0  0  0  0  0
   -1.3061    0.9291    3.1133 C   0  0  0  0  0  0  0  0  0  0  0  0
   -2.3732    0.0350    1.0086 C   0  0  0  0  0  0  0  0  0  0  0  0
   -3.2731   -1.0713    1.5579 C   0  0  0  0  0  0  0  0  0  0  0  0
   -4.4001   -1.4214    0.5806 C   0  0  0  0  0  0  0  0  0  0  0  0
   -5.3356   -2.5107    1.1039 C   0  0  0  0  0  0  0  0  0  0  0  0
    2.2609    0.4388    2.7028 C   0  0  0  0  0  0  0  0  0  0  0  0
    3.0394    1.6464    2.1574 C   0  0  0  0  0  0  0  0  0  0  0  0
    3.3097    1.6694    0.6456 C   0  0  0  0  0  0  0  0  0  0  0  0
    1.1877    1.3656   -0.6604 C   0  0  0  0  0  2  0  0  0  0  0  0
    2.0936    3.4555   -0.6566 C   0  0  0  0  0  0  0  0  0  0  0  0
    0.9630    3.4976   -1.4265 C   0  0  0  0  0  0  0  0  0  0  0  0
   -0.8167    1.8253   -2.0823 C   0  0  0  0  0  0  0  0  0  0  0  0
   -2.0445    2.5518   -1.5320 C   0  0  0  0  0  0  0  0  0  0  0  0
   -3.3562    1.9750   -2.0735 C   0  0  0  0  0  0  0  0  0  0  0  0
   -4.5965    2.6551   -1.4946 C   0  0  0  0  0  0  0  0  0  0  0  0
    0.3595    1.4278    4.5298 H   0  0  0  0  0  0  0  0  0  0  0  0
   -2.2611    1.2037    3.5708 H   0  0  0  0  0  0  0  0  0  0  0  0
   -2.9608    0.9650    0.8627 H   0  0  0  0  0  0  0  0  0  0  0  0
   -1.9547   -0.2506    0.0221 H   0  0  0  0  0  0  0  0  0  0  0  0
   -2.6604   -1.9743    1.7716 H   0  0  0  0  0  0  0  0  0  0  0  0
   -3.7044   -0.7581    2.5338 H   0  0  0  0  0  0  0  0  0  0  0  0
   -4.9827   -0.5016    0.3496 H   0  0  0  0  0  0  0  0  0  0  0  0
   -3.9512   -1.7424   -0.3866 H   0  0  0  0  0  0  0  0  0  0  0  0
   -5.8275   -2.2004    2.0486 H   0  0  0  0  0  0  0  0  0  0  0  0
   -6.1342   -2.7439    0.3729 H   0  0  0  0  0  0  0  0  0  0  0  0
   -4.7845   -3.4514    1.3097 H   0  0  0  0  0  0  0  0  0  0  0  0
    2.4941    0.3105    3.7779 H   0  0  0  0  0  0  0  0  0  0  0  0
    2.5772   -0.4863    2.1791 H   0  0  0  0  0  0  0  0  0  0  0  0
    2.5581    2.5941    2.4791 H   0  0  0  0  0  0  0  0  0  0  0  0
    4.0337    1.6271    2.6504 H   0  0  0  0  0  0  0  0  0  0  0  0
    3.5796    0.6532    0.2950 H   0  0  0  0  0  0  0  0  0  0  0  0
    4.1751    2.3295    0.4417 H   0  0  0  0  0  0  0  0  0  0  0  0
    2.8253    4.2326   -0.4158 H   0  0  0  0  0  0  0  0  0  0  0  0
    0.5107    4.3212   -1.9865 H   0  0  0  0  0  0  0  0  0  0  0  0
   -0.7095    1.9981   -3.1740 H   0  0  0  0  0  0  0  0  0  0  0  0
   -0.9045    0.7304   -1.9223 H   0  0  0  0  0  0  0  0  0  0  0  0
   -2.0257    2.4857   -0.4227 H   0  0  0  0  0  0  0  0  0  0  0  0
   -1.9863    3.6360   -1.7711 H   0  0  0  0  0  0  0  0  0  0  0  0
   -3.3640    2.0566   -3.1824 H   0  0  0  0  0  0  0  0  0  0  0  0
   -3.3918    0.8839   -1.8555 H   0  0  0  0  0  0  0  0  0  0  0  0
   -4.6088    3.7404   -1.7235 H   0  0  0  0  0  0  0  0  0  0  0  0
   -5.5276    2.2170   -1.9042 H   0  0  0  0  0  0  0  0  0  0  0  0
   -4.6368    2.5518   -0.3895 H   0  0  0  0  0  0  0  0  0  0  0  0
  1  7  1  0  0  0  0
  2 12  1  0  0  0  0
  2  6  1  0  0  0  0
  3 14  1  0  0  0  0
  4 15  1  0  0  0  0
  5  1  1  0  0  0  0
  5  2  1  0  0  0  0
  6 22  1  0  0  0  0
  7 23  1  0  0  0  0
  7  6  2  0  0  0  0
  8  9  1  0  0  0  0
  8  1  1  0  0  0  0
  9 26  1  0  0  0  0
  9 27  1  0  0  0  0
 10 11  1  0  0  0  0
 10  9  1  0  0  0  0
 11 32  1  0  0  0  0
 11 30  1  0  0  0  0
 12 33  1  0  0  0  0
 13 35  1  0  0  0  0
 13 36  1  0  0  0  0
 13 12  1  0  0  0  0
 14 13  1  0  0  0  0
 15  3  1  0  0  0  0
 16 39  1  0  0  0  0
 16  3  1  0  0  0  0
 17  4  1  0  0  0  0
 17 16  2  0  0  0  0
 18 42  1  0  0  0  0
 18 19  1  0  0  0  0
 18  4  1  0  0  0  0
 19 43  1  0  0  0  0
 20 46  1  0  0  0  0
 20 19  1  0  0  0  0
 20 21  1  0  0  0  0
 21 49  1  0  0  0  0
 24  8  1  0  0  0  0
 25  8  1  0  0  0  0
 28 10  1  0  0  0  0
 29 10  1  0  0  0  0
 31 11  1  0  0  0  0
 34 12  1  0  0  0  0
 37 14  1  0  0  0  0
 38 14  1  0  0  0  0
 40 17  1  0  0  0  0
 41 18  1  0  0  0  0
 44 19  1  0  0  0  0
 45 20  1  0  0  0  0
 47 21  1  0  0  0  0
 48 21  1  0  0  0  0
M  END
