10,33
q = 0.0, confidence = 0.978

 55 58  0  0  0  0  0  0  0  0999 V2000
   -1.6989    4.4036   -0.3008 S   0  0  0  0  0  0  0  0  0  0  0  0
   -5.4189   -2.4947   -0.6571 Cl  0  0  0  0  0  0  0  0  0  0  0  0
   -6.0165    0.8805    0.2084 Cl  0  0  0  0  0  0  0  0  0  0  0  0
    3.8692    4.0949   -0.4079 Cl  0  0  0  0  0  0  0  0  0  0  0  0
    5.3293    1.1394    0.9278 Cl  0  0  0  0  0  0  0  0  0  0  0  0
   -2.9116   -1.4224   -0.3324 N   0  0  0  0  0  0  0  0  0  0  0  0
   -3.2865    0.6527    0.2135 N   0  0  0  0  0  0  0  0  0  0  0  0
    2.7061    0.4890    0.5213 N   0  0  0  0  0  0  0  0  0  0  0  0
    1.8156    2.2854   -0.3235 N   0  0  0  0  0  0  0  0  0  0  0  0
   -2.2871   -0.2546   -0.0076 C   0  0  0  0  0  2  0  0  0  0  0  0
   -4.2959   -1.2530   -0.3231 C   0  0  0  0  0  0  0  0  0  0  0  0
   -4.5315    0.0622    0.0160 C   0  0  0  0  0  0  0  0  0  0  0  0
   -2.1992   -2.6233   -0.7797 C   0  0  0  0  0  0  0  0  0  0  0  0
   -1.7678   -2.4010   -1.7775 H   0  0  0  0  0  0  0  0  0  0  0  0
   -2.9660   -3.4149   -0.9011 H   0  0  0  0  0  0  0  0  0  0  0  0
   -1.1060   -3.0735    0.1633 C   0  0  0  0  0  0  0  0  0  0  0  0
    0.1011   -3.5592   -0.3735 C   0  0  0  0  0  0  0  0  0  0  0  0
    0.2592   -3.5354   -1.4625 H   0  0  0  0  0  0  0  0  0  0  0  0
    1.1110   -4.0467    0.4687 C   0  0  0  0  0  0  0  0  0  0  0  0
    2.0515   -4.4163    0.0342 H   0  0  0  0  0  0  0  0  0  0  0  0
    0.9323   -4.0253    1.8606 C   0  0  0  0  0  0  0  0  0  0  0  0
    1.7315   -4.3895    2.5243 H   0  0  0  0  0  0  0  0  0  0  0  0
   -0.2624   -3.5240    2.4036 C   0  0  0  0  0  0  0  0  0  0  0  0
   -0.4005   -3.4830    3.4943 H   0  0  0  0  0  0  0  0  0  0  0  0
   -1.2803   -3.0599    1.5598 C   0  0  0  0  0  0  0  0  0  0  0  0
   -2.2048   -2.6508    1.9942 H   0  0  0  0  0  0  0  0  0  0  0  0
   -3.0294    2.0625    0.5293 C   0  0  0  0  0  0  0  0  0  0  0  0
   -2.2531    2.0598    1.3201 H   0  0  0  0  0  0  0  0  0  0  0  0
   -3.9551    2.4936    0.9536 H   0  0  0  0  0  0  0  0  0  0  0  0
   -2.5588    2.8423   -0.7091 C   0  0  0  0  0  0  0  0  0  0  0  0
   -3.4141    3.1315   -1.3527 H   0  0  0  0  0  0  0  0  0  0  0  0
   -1.8925    2.1985   -1.3221 H   0  0  0  0  0  0  0  0  0  0  0  0
    1.5341    1.0001    0.0529 C   0  0  0  0  0  2  0  0  0  0  0  0
    3.7232    1.4374    0.4406 C   0  0  0  0  0  0  0  0  0  0  0  0
    3.1555    2.5795   -0.0828 C   0  0  0  0  0  0  0  0  0  0  0  0
    2.8654   -0.8787    1.0087 C   0  0  0  0  0  0  0  0  0  0  0  0
    1.8430   -1.2228    1.2728 H   0  0  0  0  0  0  0  0  0  0  0  0
    3.4588   -0.8469    1.9427 H   0  0  0  0  0  0  0  0  0  0  0  0
    3.5028   -1.8040   -0.0050 C   0  0  0  0  0  0  0  0  0  0  0  0
    3.0444   -1.8313   -1.3368 C   0  0  0  0  0  0  0  0  0  0  0  0
    2.2422   -1.1484   -1.6623 H   0  0  0  0  0  0  0  0  0  0  0  0
    3.5833   -2.7516   -2.2469 C   0  0  0  0  0  0  0  0  0  0  0  0
    3.2125   -2.7668   -3.2831 H   0  0  0  0  0  0  0  0  0  0  0  0
    4.5800   -3.6543   -1.8390 C   0  0  0  0  0  0  0  0  0  0  0  0
    4.9985   -4.3778   -2.5552 H   0  0  0  0  0  0  0  0  0  0  0  0
    5.0455   -3.6242   -0.5150 C   0  0  0  0  0  0  0  0  0  0  0  0
    5.8328   -4.3211   -0.1894 H   0  0  0  0  0  0  0  0  0  0  0  0
    4.5121   -2.6977    0.3948 C   0  0  0  0  0  0  0  0  0  0  0  0
    4.8794   -2.6722    1.4332 H   0  0  0  0  0  0  0  0  0  0  0  0
    0.7952    3.2081   -0.8312 C   0  0  0  0  0  0  0  0  0  0  0  0
    0.2041    2.6299   -1.5684 H   0  0  0  0  0  0  0  0  0  0  0  0
    1.3091    4.0268   -1.3684 H   0  0  0  0  0  0  0  0  0  0  0  0
   -0.0994    3.7474    0.2971 C   0  0  0  0  0  0  0  0  0  0  0  0
    0.3874    4.5899    0.8285 H   0  0  0  0  0  0  0  0  0  0  0  0
   -0.2780    2.9478    1.0474 H   0  0  0  0  0  0  0  0  0  0  0  0
  1 53  1  0  0  0  0
  2 11  1  0  0  0  0
  4 35  1  0  0  0  0
  6 11  1  0  0  0  0
  6 10  1  0  0  0  0
  7 27  1  0  0  0  0
  8 36  1  0  0  0  0
  9 35  1  0  0  0  0
  9 33  1  0  0  0  0
 10  7  1  0  0  0  0
 11 12  2  0  0  0  0
 12  3  1  0  0  0  0
 12  7  1  0  0  0  0
 13  6  1  0  0  0  0
 13 16  1  0  0  0  0
 14 13  1  0  0  0  0
 15 13  1  0  0  0  0
 16 25  1  0  0  0  0
 17 16  2  0  0  0  0
 17 19  1  0  0  0  0
 18 17  1  0  0  0  0
 19 21  2  0  0  0  0
 20 19  1  0  0  0  0
 21 23  1  0  0  0  0
 21 22  1  0  0  0  0
 23 24  1  0  0  0  0
 25 26  1  0  0  0  0
 25 23  2  0  0  0  0
 27 29  1  0  0  0  0
 27 28  1  0  0  0  0
 30  1  1  0  0  0  0
 30 27  1  0  0  0  0
 31 30  1  0  0  0  0
 32 30  1  0  0  0  0
 33  8  1  0  0  0  0
 34  8  1  0  0  0  0
 34  5  1  0  0  0  0
 35 34  2  0  0  0  0
 36 37  1  0  0  0  0
 36 38  1  0  0  0  0
 39 48  1  0  0  0  0
 39 36  1  0  0  0  0
 40 39  2  0  0  0  0
 41 40  1  0  0  0  0
 42 44  2  0  0  0  0
 42 40  1  0  0  0  0
 43 42  1  0  0  0  0
 44 46  1  0  0  0  0
 45 44  1  0  0  0  0
 46 47  1  0  0  0  0
 46 48  2  0  0  0  0
 48 49  1  0  0  0  0
 50  9  1  0  0  0  0
 50 53  1  0  0  0  0
 51 50  1  0  0  0  0
 52 50  1  0  0  0  0
 53 54  1  0  0  0  0
 53 55  1  0  0  0  0
M  END
