8,11
q = -1.0, confidence = 0.012

 24 24  0  0  1  0  0  0  0  0999 V2000
    0.9655   -0.5162    1.7971 N   0  0  0  0  0  0  0  0  0  0  0  0
    2.3926   -0.0548    1.7837 C   0  0  0  0  0  0  0  0  0  0  0  0
    2.8681   -0.2867    2.7656 H   0  0  0  0  0  0  0  0  0  0  0  0
    2.3573    1.0476    1.6769 H   0  0  0  0  0  0  0  0  0  0  0  0
    3.2016   -0.6642    0.6235 C   0  0  0  0  0  0  0  0  0  0  0  0
    4.1765   -0.1391    0.5610 H   0  0  0  0  0  0  0  0  0  0  0  0
    3.4312   -1.7313    0.8125 H   0  0  0  0  0  0  0  0  0  0  0  0
    2.4330   -0.5301   -0.6742 C   0  0  2  0  0  3  0  0  0  0  0  0
    2.1160    0.7228   -1.3301 C   0  0  0  0  0  3  0  0  0  0  0  0
    2.5266    1.7098   -1.0848 H   0  0  0  0  0  0  0  0  0  0  0  0
    1.0889    0.4484   -2.3273 C   0  0  0  0  0  3  0  0  0  0  0  0
    0.6029    1.1918   -2.9697 H   0  0  0  0  0  0  0  0  0  0  0  0
    0.8264   -0.9701   -2.3184 C   0  0  0  0  0  0  0  0  0  0  0  0
    0.0831   -1.4858   -2.9389 H   0  0  0  0  0  0  0  0  0  0  0  0
    1.6735   -1.5957   -1.3251 C   0  0  0  0  0  0  0  0  0  0  0  0
    1.7231   -2.6674   -1.0981 H   0  0  0  0  0  0  0  0  0  0  0  0
    0.8791   -1.9641    2.0985 C   0  0  0  0  0  0  0  0  0  0  0  0
    1.2629   -2.1628    3.1244 H   0  0  0  0  0  0  0  0  0  0  0  0
    1.4627   -2.5513    1.3692 H   0  0  0  0  0  0  0  0  0  0  0  0
   -0.1785   -2.2787    2.0178 H   0  0  0  0  0  0  0  0  0  0  0  0
    0.2065    0.2168    2.8321 C   0  0  0  0  0  0  0  0  0  0  0  0
   -0.8522   -0.0994    2.7791 H   0  0  0  0  0  0  0  0  0  0  0  0
    0.2517    1.3019    2.6290 H   0  0  0  0  0  0  0  0  0  0  0  0
    0.6206   -0.0098    3.8400 H   0  0  0  0  0  0  0  0  0  0  0  0
  1 17  1  0  0  0  0
  1 21  1  0  0  0  0
  2  1  1  0  0  0  0
  2  3  1  0  0  0  0
  4  2  1  0  0  0  0
  5  7  1  0  0  0  0
  5  2  1  0  0  0  0
  6  5  1  0  0  0  0
  8  5  1  1  0  0  0
  9 10  1  0  0  0  0
  9  8  1  0  0  0  0
 11 13  1  0  0  0  0
 11  9  1  0  0  0  0
 12 11  1  0  0  0  0
 13 15  2  0  0  0  0
 14 13  1  0  0  0  0
 15 16  1  0  0  0  0
 15  8  1  0  0  0  0
 17 18  1  0  0  0  0
 19 17  1  0  0  0  0
 20 17  1  0  0  0  0
 21 24  1  0  0  0  0
 22 21  1  0  0  0  0
 23 21  1  0  0  0  0
M  END
