1,5
q = -1.0, confidence = 0.016

 16 15  0  0  0  0  0  0  0  0999 V2000
   -0.7808    2.0026   -0.7386 C   0  0  0  0  0  3  0  0  0  0  0  0
   -1.9885    2.4897   -1.2463 C   0  0  0  0  0  0  0  0  0  0  0  0
   -2.9968    1.6369   -1.7599 C   0  0  0  0  0  3  0  0  0  0  0  0
   -2.8743    0.2446   -1.8900 C   0  0  0  0  0  0  0  0  0  0  0  0
   -1.7525   -0.4699   -1.4182 C   0  0  0  0  0  3  0  0  0  0  0  0
   -2.2464    3.9866   -1.2909 C   0  0  0  0  0  0  0  0  0  0  0  0
   -3.9981   -0.5252   -2.5645 C   0  0  0  0  0  0  0  0  0  0  0  0
   -0.1123    2.8338   -0.4376 H   0  0  0  0  0  0  0  0  0  0  0  0
   -3.9188    2.1097   -2.1445 H   0  0  0  0  0  0  0  0  0  0  0  0
   -1.8650   -1.5525   -1.6237 H   0  0  0  0  0  0  0  0  0  0  0  0
   -1.3230    4.5624   -1.0789 H   0  0  0  0  0  0  0  0  0  0  0  0
   -3.0047    4.2936   -0.5367 H   0  0  0  0  0  0  0  0  0  0  0  0
   -2.6313    4.3153   -2.2797 H   0  0  0  0  0  0  0  0  0  0  0  0
   -3.6024   -1.2625   -3.2939 H   0  0  0  0  0  0  0  0  0  0  0  0
   -4.6960    0.1437   -3.1077 H   0  0  0  0  0  0  0  0  0  0  0  0
   -4.6006   -1.1012   -1.8268 H   0  0  0  0  0  0  0  0  0  0  0  0
  1  8  1  0  0  0  0
  2  1  2  0  0  0  0
  3  2  1  0  0  0  0
  4  3  1  0  0  0  0
  4  5  2  0  0  0  0
  6  2  1  0  0  0  0
  6 11  1  0  0  0  0
  6 12  1  0  0  0  0
  7  4  1  0  0  0  0
  7 16  1  0  0  0  0
  9  3  1  0  0  0  0
 10  5  1  0  0  0  0
 13  6  1  0  0  0  0
 14  7  1  0  0  0  0
 15  7  1  0  0  0  0
M  END
