14,18
q = 0.0, confidence = 0.988

 52 54  0  0  1  0  0  0  0  0999 V2000
    4.4363   -0.0826    0.0001 Si  0  0  0  0  0  0  0  0  0  0  0  0
   -4.3505    0.0682    0.0000 Si  0  0  0  0  0  0  0  0  0  0  0  0
    2.8249    0.9308   -0.0001 C   0  0  0  0  0  0  0  0  0  0  0  0
    2.8138    2.3024   -0.0001 C   0  0  0  0  0  0  0  0  0  0  0  0
    1.5061    3.0382   -0.0001 C   0  0  0  0  0  0  0  0  0  0  0  0
    0.7918    3.2149   -1.2053 C   0  0  0  0  0  0  0  0  0  0  0  0
   -0.6110    3.2492   -1.2052 C   0  0  0  0  0  0  0  0  0  0  0  0
   -1.3326    3.1056   -0.0000 C   0  0  0  0  0  0  0  0  0  0  0  0
   -0.6110    3.2493    1.2051 C   0  0  0  0  0  0  0  0  0  0  0  0
    0.7918    3.2150    1.2052 C   0  0  0  0  0  0  0  0  0  0  0  0
   -2.6697    2.4246   -0.0000 C   0  0  0  0  0  0  0  0  0  0  0  0
   -2.7246    1.0549    0.0000 C   0  0  0  0  0  0  0  0  0  0  0  0
   -1.3897    0.3761   -0.0000 C   0  0  2  0  0  3  0  0  0  0  0  0
   -0.6737    0.1601    1.2143 C   0  0  0  0  0  3  0  0  0  0  0  0
    0.7505    0.1396    1.2202 C   0  0  0  0  0  3  0  0  0  0  0  0
    1.4596    0.3118   -0.0001 C   0  0  1  0  0  3  0  0  0  0  0  0
    0.7504    0.1395   -1.2203 C   0  0  0  0  0  3  0  0  0  0  0  0
   -0.6738    0.1601   -1.2144 C   0  0  0  0  0  3  0  0  0  0  0  0
    4.4728   -1.1554    1.5553 C   0  0  0  0  0  0  0  0  0  0  0  0
    5.8969    1.1190    0.0003 C   0  0  0  0  0  0  0  0  0  0  0  0
    4.4732   -1.1553   -1.5552 C   0  0  0  0  0  0  0  0  0  0  0  0
   -5.7969    1.2878   -0.0000 C   0  0  0  0  0  0  0  0  0  0  0  0
   -4.4045   -1.0054   -1.5540 C   0  0  0  0  0  0  0  0  0  0  0  0
   -4.4046   -1.0053    1.5542 C   0  0  0  0  0  0  0  0  0  0  0  0
    3.7711    2.8544   -0.0000 H   0  0  0  0  0  0  0  0  0  0  0  0
    1.3280    3.1533   -2.1652 H   0  0  0  0  0  0  0  0  0  0  0  0
   -1.1497    3.2128   -2.1650 H   0  0  0  0  0  0  0  0  0  0  0  0
   -1.1496    3.2130    2.1649 H   0  0  0  0  0  0  0  0  0  0  0  0
    1.3281    3.1534    2.1650 H   0  0  0  0  0  0  0  0  0  0  0  0
   -3.6060    3.0118    0.0000 H   0  0  0  0  0  0  0  0  0  0  0  0
   -1.2197    0.1762    2.1682 H   0  0  0  0  0  0  0  0  0  0  0  0
    1.2977    0.1384    2.1720 H   0  0  0  0  0  0  0  0  0  0  0  0
    1.2976    0.1383   -2.1721 H   0  0  0  0  0  0  0  0  0  0  0  0
   -1.2198    0.1761   -2.1682 H   0  0  0  0  0  0  0  0  0  0  0  0
    3.6433   -1.8893    1.5573 H   0  0  0  0  0  0  0  0  0  0  0  0
    4.4023   -0.5352    2.4721 H   0  0  0  0  0  0  0  0  0  0  0  0
    5.4231   -1.7267    1.6022 H   0  0  0  0  0  0  0  0  0  0  0  0
    6.8492    0.5496    0.0004 H   0  0  0  0  0  0  0  0  0  0  0  0
    5.8958    1.7688    0.8990 H   0  0  0  0  0  0  0  0  0  0  0  0
    5.8961    1.7688   -0.8985 H   0  0  0  0  0  0  0  0  0  0  0  0
    5.4234   -1.7268   -1.6018 H   0  0  0  0  0  0  0  0  0  0  0  0
    4.4032   -0.5350   -2.4720 H   0  0  0  0  0  0  0  0  0  0  0  0
    3.6435   -1.8890   -1.5577 H   0  0  0  0  0  0  0  0  0  0  0  0
   -6.7587    0.7344   -0.0002 H   0  0  0  0  0  0  0  0  0  0  0  0
   -5.7851    1.9382   -0.8985 H   0  0  0  0  0  0  0  0  0  0  0  0
   -5.7853    1.9379    0.8986 H   0  0  0  0  0  0  0  0  0  0  0  0
   -5.3460   -1.5926   -1.5793 H   0  0  0  0  0  0  0  0  0  0  0  0
   -3.5612   -1.7231   -1.5915 H   0  0  0  0  0  0  0  0  0  0  0  0
   -4.3702   -0.3819   -2.4708 H   0  0  0  0  0  0  0  0  0  0  0  0
   -5.3462   -1.5921    1.5797 H   0  0  0  0  0  0  0  0  0  0  0  0
   -4.3700   -0.3816    2.4709 H   0  0  0  0  0  0  0  0  0  0  0  0
   -3.5615   -1.7232    1.5917 H   0  0  0  0  0  0  0  0  0  0  0  0
  1 20  1  0  0  0  0
  1 19  1  0  0  0  0
  2 24  1  0  0  0  0
  3  4  2  0  0  0  0
  3  1  1  0  0  0  0
  4 25  1  0  0  0  0
  5  4  1  0  0  0  0
  5 10  1  0  0  0  0
  6  7  1  0  0  0  0
  6  5  2  0  0  0  0
  7  8  2  0  0  0  0
  8 11  1  0  0  0  0
  8  9  1  0  0  0  0
  9 10  2  0  0  0  0
  9 28  1  0  0  0  0
 10 29  1  0  0  0  0
 11 12  2  0  0  0  0
 11 30  1  0  0  0  0
 12  2  1  0  0  0  0
 13 18  1  6  0  0  0
 13 12  1  0  0  0  0
 13 14  1  0  0  0  0
 14 15  1  0  0  0  0
 14 31  1  0  0  0  0
 15 32  1  0  0  0  0
 16 17  1  6  0  0  0
 16  3  1  0  0  0  0
 16 15  1  0  0  0  0
 17 18  1  0  0  0  0
 19 35  1  0  0  0  0
 19 37  1  0  0  0  0
 19 36  1  0  0  0  0
 20 38  1  0  0  0  0
 20 39  1  0  0  0  0
 21  1  1  0  0  0  0
 22  2  1  0  0  0  0
 22 46  1  0  0  0  0
 23  2  1  0  0  0  0
 24 50  1  0  0  0  0
 24 52  1  0  0  0  0
 24 51  1  0  0  0  0
 26  6  1  0  0  0  0
 27  7  1  0  0  0  0
 33 17  1  0  0  0  0
 34 18  1  0  0  0  0
 40 20  1  0  0  0  0
 41 21  1  0  0  0  0
 42 21  1  0  0  0  0
 43 21  1  0  0  0  0
 44 22  1  0  0  0  0
 45 22  1  0  0  0  0
 47 23  1  0  0  0  0
 48 23  1  0  0  0  0
 49 23  1  0  0  0  0
M  END
