1,11
q = 0.0, confidence = 1.0

 47 47  0  0  1  0  0  0  0  0999 V2000
   -1.4011   -0.0002   -0.5181 C   0  0  2  0  0  3  0  0  0  0  0  0
   -2.9116   -0.0004   -0.3125 C   0  0  0  0  0  0  0  0  0  0  0  0
   -3.4477   -0.0014    1.0995 C   0  0  0  0  0  0  0  0  0  0  0  0
   -3.6409    0.0005   -1.2957 O   0  0  0  0  0  0  0  0  0  0  0  0
   -0.7056    1.2457   -0.6344 C   0  0  0  0  0  0  0  0  0  0  0  0
   -1.5005    2.5350   -0.5866 C   0  0  0  0  0  0  0  0  0  0  0  0
   -2.0277    2.9205   -1.9774 C   0  0  0  0  0  0  0  0  0  0  0  0
    0.7055    1.2528   -0.8964 C   0  0  0  0  0  0  0  0  0  0  0  0
    1.4423    2.5738   -1.0609 C   0  0  0  0  0  0  0  0  0  0  0  0
    1.9773    3.2021    0.2334 C   0  0  0  0  0  0  0  0  0  0  0  0
    1.4121    0.0003   -0.9677 C   0  0  2  0  0  3  0  0  0  0  0  0
    2.9070    0.0005   -1.2265 C   0  0  0  0  0  0  0  0  0  0  0  0
    3.2414    0.0008   -2.7257 C   0  0  0  0  0  0  0  0  0  0  0  0
    0.7059   -1.2525   -0.8967 C   0  0  0  0  0  0  0  0  0  0  0  0
    1.4431   -2.5732   -1.0615 C   0  0  0  0  0  0  0  0  0  0  0  0
    1.9785   -3.2016    0.2325 C   0  0  0  0  0  0  0  0  0  0  0  0
   -0.7053   -1.2459   -0.6346 C   0  0  0  0  0  0  0  0  0  0  0  0
   -1.4998   -2.5354   -0.5870 C   0  0  0  0  0  0  0  0  0  0  0  0
   -2.0270   -2.9205   -1.9780 C   0  0  0  0  0  0  0  0  0  0  0  0
   -3.0667   -0.8810    1.6575 H   0  0  0  0  0  0  0  0  0  0  0  0
   -4.5529   -0.0026    1.0813 H   0  0  0  0  0  0  0  0  0  0  0  0
   -3.0689    0.8792    1.6575 H   0  0  0  0  0  0  0  0  0  0  0  0
   -2.3529    2.4184    0.1113 H   0  0  0  0  0  0  0  0  0  0  0  0
   -0.8850    3.3497   -0.1599 H   0  0  0  0  0  0  0  0  0  0  0  0
   -2.6135    3.8597   -1.9292 H   0  0  0  0  0  0  0  0  0  0  0  0
   -2.6806    2.1222   -2.3812 H   0  0  0  0  0  0  0  0  0  0  0  0
   -1.1981    3.0734   -2.6973 H   0  0  0  0  0  0  0  0  0  0  0  0
    2.2806    2.4301   -1.7699 H   0  0  0  0  0  0  0  0  0  0  0  0
    0.7661    3.2933   -1.5636 H   0  0  0  0  0  0  0  0  0  0  0  0
    2.4997    4.1562    0.0170 H   0  0  0  0  0  0  0  0  0  0  0  0
    2.6893    2.5275    0.7476 H   0  0  0  0  0  0  0  0  0  0  0  0
    1.1608    3.4119    0.9514 H   0  0  0  0  0  0  0  0  0  0  0  0
    3.3689    0.8779   -0.7359 H   0  0  0  0  0  0  0  0  0  0  0  0
    3.3691   -0.8769   -0.7362 H   0  0  0  0  0  0  0  0  0  0  0  0
    4.3379    0.0009   -2.8861 H   0  0  0  0  0  0  0  0  0  0  0  0
    2.8232    0.8914   -3.2368 H   0  0  0  0  0  0  0  0  0  0  0  0
    2.8235   -0.8898   -3.2371 H   0  0  0  0  0  0  0  0  0  0  0  0
    0.7670   -3.2928   -1.5642 H   0  0  0  0  0  0  0  0  0  0  0  0
    2.2812   -2.4291   -1.7707 H   0  0  0  0  0  0  0  0  0  0  0  0
    2.5014   -4.1553    0.0159 H   0  0  0  0  0  0  0  0  0  0  0  0
    1.1621   -3.4120    0.9506 H   0  0  0  0  0  0  0  0  0  0  0  0
    2.6902   -2.5267    0.7468 H   0  0  0  0  0  0  0  0  0  0  0  0
   -0.8840   -3.3500   -0.1607 H   0  0  0  0  0  0  0  0  0  0  0  0
   -2.3522   -2.4192    0.1109 H   0  0  0  0  0  0  0  0  0  0  0  0
   -2.6127   -3.8599   -1.9300 H   0  0  0  0  0  0  0  0  0  0  0  0
   -1.1974   -3.0730   -2.6980 H   0  0  0  0  0  0  0  0  0  0  0  0
   -2.6801   -2.1222   -2.3815 H   0  0  0  0  0  0  0  0  0  0  0  0
  1  2  1  6  0  0  0
  2  3  1  0  0  0  0
  3 22  1  0  0  0  0
  3 20  1  0  0  0  0
  4  2  2  0  0  0  0
  5  6  1  0  0  0  0
  5  1  1  0  0  0  0
  6 24  1  0  0  0  0
  6 23  1  0  0  0  0
  7 25  1  0  0  0  0
  7  6  1  0  0  0  0
  8  5  2  0  0  0  0
  9  8  1  0  0  0  0
  9 10  1  0  0  0  0
 10 31  1  0  0  0  0
 10 32  1  0  0  0  0
 11 12  1  6  0  0  0
 11 14  1  0  0  0  0
 11  8  1  0  0  0  0
 12 34  1  0  0  0  0
 12 33  1  0  0  0  0
 13 12  1  0  0  0  0
 14 17  2  0  0  0  0
 15 14  1  0  0  0  0
 15 16  1  0  0  0  0
 16 42  1  0  0  0  0
 16 41  1  0  0  0  0
 17 18  1  0  0  0  0
 17  1  1  0  0  0  0
 18 43  1  0  0  0  0
 18 44  1  0  0  0  0
 19 45  1  0  0  0  0
 19 18  1  0  0  0  0
 21  3  1  0  0  0  0
 26  7  1  0  0  0  0
 27  7  1  0  0  0  0
 28  9  1  0  0  0  0
 29  9  1  0  0  0  0
 30 10  1  0  0  0  0
 35 13  1  0  0  0  0
 36 13  1  0  0  0  0
 37 13  1  0  0  0  0
 38 15  1  0  0  0  0
 39 15  1  0  0  0  0
 40 16  1  0  0  0  0
 46 19  1  0  0  0  0
 47 19  1  0  0  0  0
M  END
