2,3
q = -2.0, confidence = 0.73

 44 48  0  0  1  0  0  0  0  0999 V2000
    2.6559   -0.2895   -1.2676 C   0  0  2  0  0  0  0  0  0  0  0  0
    1.7969   -0.5410    0.0254 C   0  0  0  0  0  3  0  0  0  0  0  0
   -1.0386   -0.0571   -0.1119 C   0  0  0  0  0  3  0  0  0  0  0  0
   -0.2593    1.0390    0.1287 C   0  0  0  0  0  0  0  0  0  0  0  0
    1.2389    0.8925    0.3609 C   0  0  2  0  0  0  0  0  0  0  0  0
    2.0213    1.8274   -0.6383 C   0  0  1  0  0  0  0  0  0  0  0  0
    3.4850    1.7226   -0.3101 C   0  0  0  0  0  0  0  0  0  0  0  0
    4.5427    2.3934    0.2172 C   0  0  0  0  0  0  0  0  0  0  0  0
    5.7468    1.4747    0.1493 C   0  0  0  0  0  0  0  0  0  0  0  0
    5.2296    0.2007   -0.4901 C   0  0  0  0  0  0  0  0  0  0  0  0
    3.9047    0.3776   -0.7426 C   0  0  0  0  0  0  0  0  0  0  0  0
    1.9600    0.9410   -1.9143 C   0  0  0  0  0  0  0  0  0  0  0  0
   -2.4972    0.0176   -0.3414 C   0  0  0  0  0  0  0  0  0  0  0  0
   -3.4259    0.0449    0.7269 C   0  0  0  0  0  0  0  0  0  0  0  0
   -4.8076    0.0966    0.4913 C   0  0  0  0  0  0  0  0  0  0  0  0
   -5.3067    0.1221   -0.8201 C   0  0  0  0  0  0  0  0  0  0  0  0
   -4.4035    0.1097   -1.8951 C   0  0  0  0  0  0  0  0  0  0  0  0
   -3.0230    0.0570   -1.6582 C   0  0  0  0  0  0  0  0  0  0  0  0
   -0.8123    2.4210    0.2523 C   0  0  0  0  0  0  0  0  0  0  0  0
   -0.5529    3.1791    1.4187 C   0  0  0  0  0  0  0  0  0  0  0  0
   -1.0783    4.4692    1.5763 C   0  0  0  0  0  0  0  0  0  0  0  0
   -1.8660    5.0398    0.5639 C   0  0  0  0  0  0  0  0  0  0  0  0
   -2.1197    4.3069   -0.6060 C   0  0  0  0  0  0  0  0  0  0  0  0
   -1.5989    3.0144   -0.7601 C   0  0  0  0  0  0  0  0  0  0  0  0
    2.8236   -1.1587   -1.9269 H   0  0  0  0  0  0  0  0  0  0  0  0
    2.5022   -0.8649    0.8153 H   0  0  0  0  0  0  0  0  0  0  0  0
    1.4858    1.1918    1.4038 H   0  0  0  0  0  0  0  0  0  0  0  0
    1.5956    2.8442   -0.7115 H   0  0  0  0  0  0  0  0  0  0  0  0
    4.5705    3.4162    0.6170 H   0  0  0  0  0  0  0  0  0  0  0  0
    6.1673    1.2803    1.1650 H   0  0  0  0  0  0  0  0  0  0  0  0
    6.5873    1.9269   -0.4284 H   0  0  0  0  0  0  0  0  0  0  0  0
    5.8531   -0.6800   -0.6963 H   0  0  0  0  0  0  0  0  0  0  0  0
    2.5328    1.3644   -2.7633 H   0  0  0  0  0  0  0  0  0  0  0  0
    0.9163    0.7402   -2.2286 H   0  0  0  0  0  0  0  0  0  0  0  0
   -3.0562    0.0535    1.7620 H   0  0  0  0  0  0  0  0  0  0  0  0
   -5.5020    0.1278    1.3454 H   0  0  0  0  0  0  0  0  0  0  0  0
   -6.3909    0.1625   -1.0034 H   0  0  0  0  0  0  0  0  0  0  0  0
   -4.7767    0.1505   -2.9303 H   0  0  0  0  0  0  0  0  0  0  0  0
   -2.3222    0.0736   -2.5080 H   0  0  0  0  0  0  0  0  0  0  0  0
    0.0622    2.7432    2.2211 H   0  0  0  0  0  0  0  0  0  0  0  0
   -0.8704    5.0338    2.4985 H   0  0  0  0  0  0  0  0  0  0  0  0
   -2.2763    6.0539    0.6847 H   0  0  0  0  0  0  0  0  0  0  0  0
   -2.7276    4.7470   -1.4115 H   0  0  0  0  0  0  0  0  0  0  0  0
   -1.7955    2.4528   -1.6833 H   0  0  0  0  0  0  0  0  0  0  0  0
  1 25  1  6  0  0  0
  1 11  1  0  0  0  0
  1  2  1  0  0  0  0
  2  5  1  0  0  0  0
  2 26  1  0  0  0  0
  3  4  2  0  0  0  0
  4 19  1  0  0  0  0
  4  5  1  0  0  0  0
  5 27  1  1  0  0  0
  6 28  1  6  0  0  0
  6  7  1  0  0  0  0
  6  5  1  0  0  0  0
  7  8  2  0  0  0  0
  8 29  1  0  0  0  0
  9  8  1  0  0  0  0
  9 30  1  0  0  0  0
 10  9  1  0  0  0  0
 11 10  2  0  0  0  0
 11  7  1  0  0  0  0
 12  1  1  0  0  0  0
 12  6  1  0  0  0  0
 13  3  1  0  0  0  0
 13 14  1  0  0  0  0
 14 35  1  0  0  0  0
 15 14  2  0  0  0  0
 15 36  1  0  0  0  0
 16 15  1  0  0  0  0
 17 18  1  0  0  0  0
 17 16  2  0  0  0  0
 18 13  2  0  0  0  0
 19 20  1  0  0  0  0
 20 21  2  0  0  0  0
 20 40  1  0  0  0  0
 21 41  1  0  0  0  0
 22 42  1  0  0  0  0
 22 21  1  0  0  0  0
 23 22  2  0  0  0  0
 24 23  1  0  0  0  0
 24 19  2  0  0  0  0
 31  9  1  0  0  0  0
 32 10  1  0  0  0  0
 33 12  1  0  0  0  0
 34 12  1  0  0  0  0
 37 16  1  0  0  0  0
 38 17  1  0  0  0  0
 39 18  1  0  0  0  0
 43 23  1  0  0  0  0
 44 24  1  0  0  0  0
M  END
