4,9
q = -1.0, confidence = 0.0

 23 24  0  0  0  0  0  0  0  0999 V2000
   -1.6326   -2.1974    0.0834 N   0  0  0  0  0  0  0  0  0  0  0  0
   -2.7189   -2.8849   -0.2332 N   0  0  0  0  0  2  0  0  0  0  0  0
   -3.3457   -2.0807   -1.0844 N   0  0  0  0  0  0  0  0  0  0  0  0
   -1.5019   -0.9510   -0.5301 C   0  0  0  0  0  3  0  0  0  0  0  0
   -2.6698   -0.8957   -1.3116 C   0  0  0  0  0  0  0  0  0  0  0  0
   -3.1973    0.1542   -2.2285 C   0  0  0  0  0  0  0  0  0  0  0  0
   -4.6133   -2.5025   -1.6550 C   0  0  0  0  0  0  0  0  0  0  0  0
   -0.6172   -2.6220    0.9801 C   0  0  0  0  0  0  0  0  0  0  0  0
    0.4052   -1.6451    1.1231 C   0  0  0  0  0  3  0  0  0  0  0  0
    1.4493   -2.0053    2.0065 C   0  0  0  0  0  0  0  0  0  0  0  0
    1.4515   -3.2380    2.6854 C   0  0  0  0  0  0  0  0  0  0  0  0
    0.4078   -4.1642    2.5062 C   0  0  0  0  0  0  0  0  0  0  0  0
   -0.6498   -3.8583    1.6383 C   0  0  0  0  0  0  0  0  0  0  0  0
   -4.1470    0.5936   -1.8566 H   0  0  0  0  0  0  0  0  0  0  0  0
   -3.3952   -0.2405   -3.2470 H   0  0  0  0  0  0  0  0  0  0  0  0
   -2.4606    0.9708   -2.3186 H   0  0  0  0  0  0  0  0  0  0  0  0
   -4.8537   -3.4989   -1.2462 H   0  0  0  0  0  0  0  0  0  0  0  0
   -4.5381   -2.5610   -2.7584 H   0  0  0  0  0  0  0  0  0  0  0  0
   -5.4127   -1.7856   -1.3842 H   0  0  0  0  0  0  0  0  0  0  0  0
    2.2868   -1.3108    2.1785 H   0  0  0  0  0  0  0  0  0  0  0  0
    2.2824   -3.4824    3.3654 H   0  0  0  0  0  0  0  0  0  0  0  0
    0.4183   -5.1249    3.0413 H   0  0  0  0  0  0  0  0  0  0  0  0
   -1.4818   -4.5573    1.4712 H   0  0  0  0  0  0  0  0  0  0  0  0
  1  8  1  0  0  0  0
  2  1  1  0  0  0  0
  3  2  1  0  0  0  0
  4  1  1  0  0  0  0
  5  3  1  0  0  0  0
  5  4  2  0  0  0  0
  6 14  1  0  0  0  0
  6  5  1  0  0  0  0
  7 19  1  0  0  0  0
  7 17  1  0  0  0  0
  7  3  1  0  0  0  0
  8  9  2  0  0  0  0
  8 13  1  0  0  0  0
  9 10  1  0  0  0  0
 10 20  1  0  0  0  0
 10 11  2  0  0  0  0
 11 21  1  0  0  0  0
 12 11  1  0  0  0  0
 12 22  1  0  0  0  0
 13 12  2  0  0  0  0
 15  6  1  0  0  0  0
 16  6  1  0  0  0  0
 18  7  1  0  0  0  0
 23 13  1  0  0  0  0
M  END
