20,22
q = 0.0, confidence = 0.994

 44 47  0  0  1  0  0  0  0  0999 V2000
    2.7059    0.3671    0.1418 C   0  0  0  0  0  0  0  0  0  0  0  0
    1.5236    0.9800   -0.1806 C   0  0  0  0  0  0  0  0  0  0  0  0
    0.5821    0.0598   -0.8034 C   0  0  1  0  0  3  0  0  0  0  0  0
    1.1916   -1.1986   -0.9762 C   0  0  0  0  0  0  0  0  0  0  0  0
    0.9388   -2.3020   -1.4235 O   0  0  0  0  0  0  0  0  0  0  0  0
    2.6721   -1.0309   -0.2556 N   0  0  0  0  0  4  0  0  0  0  0  0
    3.7194   -1.4004   -1.2658 C   0  0  0  0  0  0  0  0  0  0  0  0
    5.1090   -1.5166   -0.6451 C   0  0  0  0  0  0  0  0  0  0  0  0
    5.1158   -2.4907    0.5389 C   0  0  0  0  0  0  0  0  0  0  0  0
    4.0394   -2.1020    1.5594 C   0  0  0  0  0  0  0  0  0  0  0  0
    2.6680   -1.9995    0.9029 C   0  0  0  0  0  0  0  0  0  0  0  0
    1.3358    2.4349    0.0084 C   0  0  0  0  0  0  0  0  0  0  0  0
    0.8449    3.2376   -1.0463 C   0  0  0  0  0  0  0  0  0  0  0  0
    0.7133    4.6222   -0.8826 C   0  0  0  0  0  0  0  0  0  0  0  0
    1.0632    5.2277    0.3363 C   0  0  0  0  0  0  0  0  0  0  0  0
    1.5504    4.4392    1.3901 C   0  0  0  0  0  0  0  0  0  0  0  0
    1.6880    3.0527    1.2276 C   0  0  0  0  0  0  0  0  0  0  0  0
   -0.8480    0.2456   -1.0359 C   0  0  0  0  0  0  0  0  0  0  0  0
   -1.5947    1.2922   -0.3854 C   0  0  0  0  0  0  0  0  0  0  0  0
   -2.9926    1.4287   -0.5937 C   0  0  0  0  0  3  0  0  0  0  0  0
   -3.7023    0.5335   -1.4432 C   0  0  0  0  0  3  0  0  0  0  0  0
   -2.9864   -0.5453   -2.0270 C   0  0  0  0  0  3  0  0  0  0  0  0
   -1.5838   -0.6878   -1.8419 C   0  0  0  0  0  3  0  0  0  0  0  0
    3.6368    0.8197    0.4975 H   0  0  0  0  0  0  0  0  0  0  0  0
    0.5700    2.7618   -1.9995 H   0  0  0  0  0  0  0  0  0  0  0  0
    0.3332    5.2355   -1.7137 H   0  0  0  0  0  0  0  0  0  0  0  0
    0.9512    6.3149    0.4652 H   0  0  0  0  0  0  0  0  0  0  0  0
    1.8184    4.9055    2.3503 H   0  0  0  0  0  0  0  0  0  0  0  0
    2.0489    2.4270    2.0577 H   0  0  0  0  0  0  0  0  0  0  0  0
   -1.0936    1.9669    0.3162 H   0  0  0  0  0  0  0  0  0  0  0  0
   -3.5354    2.2236   -0.0626 H   0  0  0  0  0  0  0  0  0  0  0  0
   -4.7886    0.6240   -1.5724 H   0  0  0  0  0  0  0  0  0  0  0  0
   -3.5238   -1.2973   -2.6224 H   0  0  0  0  0  0  0  0  0  0  0  0
   -1.0564   -1.5468   -2.2737 H   0  0  0  0  0  0  0  0  0  0  0  0
    3.6747   -0.6316   -2.0612 H   0  0  0  0  0  0  0  0  0  0  0  0
    3.3804   -2.3661   -1.6968 H   0  0  0  0  0  0  0  0  0  0  0  0
    5.4583   -0.5137   -0.3161 H   0  0  0  0  0  0  0  0  0  0  0  0
    5.8141   -1.8442   -1.4363 H   0  0  0  0  0  0  0  0  0  0  0  0
    4.9145   -3.5202    0.1686 H   0  0  0  0  0  0  0  0  0  0  0  0
    6.1171   -2.5149    1.0147 H   0  0  0  0  0  0  0  0  0  0  0  0
    4.2974   -1.1346    2.0426 H   0  0  0  0  0  0  0  0  0  0  0  0
    3.9751   -2.8494    2.3762 H   0  0  0  0  0  0  0  0  0  0  0  0
    1.8722   -1.6605    1.5921 H   0  0  0  0  0  0  0  0  0  0  0  0
    2.3466   -2.9697    0.4687 H   0  0  0  0  0  0  0  0  0  0  0  0
  1 24  1  0  0  0  0
  2 12  1  0  0  0  0
  2  1  2  0  0  0  0
  3 18  1  1  0  0  0
  3  2  1  0  0  0  0
  4  3  1  0  0  0  0
  4  6  1  0  0  0  0
  5  4  2  0  0  0  0
  6  1  1  0  0  0  0
  6 11  1  0  0  0  0
  7  8  1  0  0  0  0
  7  6  1  0  0  0  0
  8 37  1  0  0  0  0
  8  9  1  0  0  0  0
  9 40  1  0  0  0  0
  9 10  1  0  0  0  0
 10 41  1  0  0  0  0
 10 42  1  0  0  0  0
 11 10  1  0  0  0  0
 11 43  1  0  0  0  0
 12 17  1  0  0  0  0
 13 14  1  0  0  0  0
 13 12  2  0  0  0  0
 14 15  2  0  0  0  0
 15 27  1  0  0  0  0
 15 16  1  0  0  0  0
 16 28  1  0  0  0  0
 17 16  2  0  0  0  0
 17 29  1  0  0  0  0
 18 19  2  0  0  0  0
 19 30  1  0  0  0  0
 20 19  1  0  0  0  0
 20 31  1  0  0  0  0
 21 20  1  0  0  0  0
 22 23  1  0  0  0  0
 22 21  1  0  0  0  0
 23 18  1  0  0  0  0
 25 13  1  0  0  0  0
 26 14  1  0  0  0  0
 32 21  1  0  0  0  0
 33 22  1  0  0  0  0
 34 23  1  0  0  0  0
 35  7  1  0  0  0  0
 36  7  1  0  0  0  0
 38  8  1  0  0  0  0
 39  9  1  0  0  0  0
 44 11  1  0  0  0  0
M  END
