2,6
q = -1.0, confidence = 0.0

 25 26  0  0  0  0  0  0  0  0999 V2000
   -1.2894   -0.7308   -0.6846 C   0  0  0  0  0  0  0  0  0  0  0  0
   -0.4377   -0.8676   -1.8318 C   0  0  0  0  0  3  0  0  0  0  0  0
   -0.2096   -1.8152   -2.3337 H   0  0  0  0  0  0  0  0  0  0  0  0
   -0.0059    0.4238   -2.2691 C   0  0  0  0  0  3  0  0  0  0  0  0
    0.6156    0.6393   -3.1451 H   0  0  0  0  0  0  0  0  0  0  0  0
   -0.6015    1.3838   -1.3789 C   0  0  0  0  0  3  0  0  0  0  0  0
   -0.5278    2.4748   -1.4581 H   0  0  0  0  0  0  0  0  0  0  0  0
   -1.3832    0.6858   -0.4172 C   0  0  0  0  0  0  0  0  0  0  0  0
   -2.0006    1.1577    0.3533 H   0  0  0  0  0  0  0  0  0  0  0  0
   -2.1412   -1.8098   -0.0867 C   0  0  0  0  0  0  0  0  0  0  0  0
   -2.2447   -1.6644    1.0079 H   0  0  0  0  0  0  0  0  0  0  0  0
   -1.6607   -2.7986   -0.2360 H   0  0  0  0  0  0  0  0  0  0  0  0
   -3.5648   -1.8256   -0.7155 C   0  0  0  0  0  0  0  0  0  0  0  0
   -3.4722   -1.9831   -1.8096 H   0  0  0  0  0  0  0  0  0  0  0  0
   -4.1039   -2.7076   -0.3069 H   0  0  0  0  0  0  0  0  0  0  0  0
   -4.3313   -0.5678   -0.4482 C   0  0  0  0  0  0  0  0  0  0  0  0
   -4.9028   -0.1945    0.9001 C   0  0  0  0  0  0  0  0  0  0  0  0
   -5.6895   -0.9191    1.2151 H   0  0  0  0  0  0  0  0  0  0  0  0
   -4.1469   -0.2234    1.7197 H   0  0  0  0  0  0  0  0  0  0  0  0
   -5.4759    1.1803    0.6929 C   0  0  0  0  0  0  0  0  0  0  0  0
   -5.9917    1.7590    1.4705 H   0  0  0  0  0  0  0  0  0  0  0  0
   -5.2868    1.5405   -0.6083 C   0  0  0  0  0  0  0  0  0  0  0  0
   -5.6181    2.4785   -1.0753 H   0  0  0  0  0  0  0  0  0  0  0  0
   -4.5810    0.4644   -1.3102 C   0  0  0  0  0  0  0  0  0  0  0  0
   -4.2971    0.4887   -2.3726 H   0  0  0  0  0  0  0  0  0  0  0  0
  1  8  2  0  0  0  0
  1 10  1  0  0  0  0
  2  1  1  0  0  0  0
  3  2  1  0  0  0  0
  4  2  1  0  0  0  0
  4  6  1  0  0  0  0
  5  4  1  0  0  0  0
  6  8  1  0  0  0  0
  7  6  1  0  0  0  0
  8  9  1  0  0  0  0
 10 11  1  0  0  0  0
 12 10  1  0  0  0  0
 13 16  1  0  0  0  0
 13 15  1  0  0  0  0
 13 10  1  0  0  0  0
 14 13  1  0  0  0  0
 16 17  1  0  0  0  0
 17 18  1  0  0  0  0
 17 19  1  0  0  0  0
 20 17  1  0  0  0  0
 20 21  1  0  0  0  0
 22 20  2  0  0  0  0
 23 22  1  0  0  0  0
 24 22  1  0  0  0  0
 24 16  2  0  0  0  0
 25 24  1  0  0  0  0
M  END
