3,6
q = 0.0, confidence = 0.978

 18 18  0  0  0  0  0  0  0  0999 V2000
    1.6127   -0.7467   -0.3066 C   0  0  0  0  0  0  0  0  0  0  0  0
    1.6131    0.6985   -0.4041 C   0  0  0  0  0  0  0  0  0  0  0  0
    0.7324    1.3247   -1.3271 C   0  0  0  0  0  3  0  0  0  0  0  0
   -0.1501    0.5628   -2.1543 C   0  0  0  0  0  0  0  0  0  0  0  0
   -0.1503   -0.8463   -2.0595 C   0  0  0  0  0  0  0  0  0  0  0  0
    0.7319   -1.4908   -1.1376 C   0  0  0  0  0  3  0  0  0  0  0  0
    2.5331   -1.4524    0.6530 C   0  0  0  0  0  0  0  0  0  0  0  0
    2.5344    1.5258    0.4519 C   0  0  0  0  0  0  0  0  0  0  0  0
    0.7017    2.4227   -1.3705 H   0  0  0  0  0  0  0  0  0  0  0  0
   -0.8552    1.0756   -2.8225 H   0  0  0  0  0  0  0  0  0  0  0  0
   -0.8555   -1.4438   -2.6531 H   0  0  0  0  0  0  0  0  0  0  0  0
    0.7009   -2.5846   -1.0335 H   0  0  0  0  0  0  0  0  0  0  0  0
    3.5902   -1.3490    0.3291 H   0  0  0  0  0  0  0  0  0  0  0  0
    2.4606   -1.0366    1.6767 H   0  0  0  0  0  0  0  0  0  0  0  0
    2.2953   -2.5312    0.7077 H   0  0  0  0  0  0  0  0  0  0  0  0
    2.4607    1.2526    1.5224 H   0  0  0  0  0  0  0  0  0  0  0  0
    3.5915    1.3773    0.1458 H   0  0  0  0  0  0  0  0  0  0  0  0
    2.2990    2.6026    0.3599 H   0  0  0  0  0  0  0  0  0  0  0  0
  1  7  1  0  0  0  0
  2  1  2  0  0  0  0
  2  8  1  0  0  0  0
  3  2  1  0  0  0  0
  4  5  2  0  0  0  0
  4  3  1  0  0  0  0
  5  6  1  0  0  0  0
  6 12  1  0  0  0  0
  6  1  1  0  0  0  0
  7 15  1  0  0  0  0
  7 14  1  0  0  0  0
  8 16  1  0  0  0  0
  9  3  1  0  0  0  0
 10  4  1  0  0  0  0
 11  5  1  0  0  0  0
 13  7  1  0  0  0  0
 17  8  1  0  0  0  0
 18  8  1  0  0  0  0
M  END
