12,18
q = 0.0, confidence = 0.932

 41 44  0  0  1  0  0  0  0  0999 V2000
    1.3573    0.5280    1.1614 C   0  0  2  0  0  0  0  0  0  0  0  0
    0.4950    0.4228   -0.1077 C   0  0  2  0  0  3  0  0  0  0  0  0
    1.4304    0.4646   -1.3305 C   0  0  2  0  0  0  0  0  0  0  0  0
    2.4691   -0.6718   -1.2953 C   0  0  0  0  0  0  0  0  0  0  0  0
    3.2967   -0.5539   -0.0140 C   0  0  1  0  0  0  0  0  0  0  0  0
    4.2166   -1.6124    0.0388 F   0  0  0  0  0  0  0  0  0  0  0  0
    4.0636    0.7727   -0.0123 C   0  0  0  0  0  0  0  0  0  0  0  0
    3.0549    1.9383   -0.0544 C   0  0  2  0  0  0  0  0  0  0  0  0
    2.1407    1.8651    1.1773 C   0  0  0  0  0  0  0  0  0  0  0  0
    2.3743   -0.6324    1.2059 C   0  0  0  0  0  0  0  0  0  0  0  0
    2.1813    1.8238   -1.3143 C   0  0  0  0  0  0  0  0  0  0  0  0
   -0.7987    1.0938   -0.1508 C   0  0  2  0  0  3  0  0  0  0  0  0
   -1.2261    2.1294    0.8744 C   0  0  0  0  0  0  0  0  0  0  0  0
   -2.7419    2.2775    1.0016 C   0  0  0  0  0  0  0  0  0  0  0  0
   -3.3492    2.5365   -0.3766 C   0  0  0  0  0  0  0  0  0  0  0  0
   -3.0910    1.3617   -1.3282 C   0  0  0  0  0  0  0  0  0  0  0  0
   -1.7243    0.7050   -1.1852 C   0  0  2  0  0  3  0  0  0  0  0  0
   -1.4271   -0.4475   -2.0036 C   0  0  0  0  0  3  0  0  0  0  0  0
    0.7244    0.4759    2.0672 H   0  0  0  0  0  0  0  0  0  0  0  0
    0.8668    0.4277   -2.2778 H   0  0  0  0  0  0  0  0  0  0  0  0
    1.9841   -1.6653   -1.3282 H   0  0  0  0  0  0  0  0  0  0  0  0
    3.1464   -0.6022   -2.1722 H   0  0  0  0  0  0  0  0  0  0  0  0
    4.6943    0.8291    0.8995 H   0  0  0  0  0  0  0  0  0  0  0  0
    4.7430    0.8004   -0.8899 H   0  0  0  0  0  0  0  0  0  0  0  0
    3.6034    2.9040   -0.0623 H   0  0  0  0  0  0  0  0  0  0  0  0
    2.7384    1.9282    2.1119 H   0  0  0  0  0  0  0  0  0  0  0  0
    1.4418    2.7255    1.1835 H   0  0  0  0  0  0  0  0  0  0  0  0
    2.9879   -0.5697    2.1287 H   0  0  0  0  0  0  0  0  0  0  0  0
    1.8553   -1.6112    1.2122 H   0  0  0  0  0  0  0  0  0  0  0  0
    2.8076    1.8993   -2.2291 H   0  0  0  0  0  0  0  0  0  0  0  0
    1.4493    2.6581   -1.3518 H   0  0  0  0  0  0  0  0  0  0  0  0
   -0.7708    1.8946    1.8559 H   0  0  0  0  0  0  0  0  0  0  0  0
   -0.7899    3.1080    0.5667 H   0  0  0  0  0  0  0  0  0  0  0  0
   -2.9830    3.1039    1.7007 H   0  0  0  0  0  0  0  0  0  0  0  0
   -3.1708    1.3498    1.4399 H   0  0  0  0  0  0  0  0  0  0  0  0
   -4.4389    2.7303   -0.3089 H   0  0  0  0  0  0  0  0  0  0  0  0
   -2.8950    3.4623   -0.7937 H   0  0  0  0  0  0  0  0  0  0  0  0
   -3.8741    0.5841   -1.2058 H   0  0  0  0  0  0  0  0  0  0  0  0
   -3.1813    1.7015   -2.3821 H   0  0  0  0  0  0  0  0  0  0  0  0
   -2.2815   -0.8547   -2.5704 H   0  0  0  0  0  0  0  0  0  0  0  0
   -0.4672   -0.6038   -2.5061 H   0  0  0  0  0  0  0  0  0  0  0  0
  1  9  1  0  0  0  0
  1 10  1  0  0  0  0
  1 19  1  1  0  0  0
  2 12  1  6  0  0  0
  2  1  1  0  0  0  0
  3 20  1  6  0  0  0
  3 11  1  0  0  0  0
  3  4  1  0  0  0  0
  3  2  1  0  0  0  0
  4  5  1  0  0  0  0
  5  7  1  0  0  0  0
  5  6  1  1  0  0  0
  5 10  1  0  0  0  0
  7 23  1  0  0  0  0
  8 25  1  6  0  0  0
  8  7  1  0  0  0  0
  8  9  1  0  0  0  0
  9 27  1  0  0  0  0
  9 26  1  0  0  0  0
 10 29  1  0  0  0  0
 10 28  1  0  0  0  0
 11  8  1  0  0  0  0
 12 13  1  1  0  0  0
 13 14  1  0  0  0  0
 13 32  1  0  0  0  0
 14 35  1  0  0  0  0
 14 34  1  0  0  0  0
 15 36  1  0  0  0  0
 15 14  1  0  0  0  0
 16 38  1  0  0  0  0
 16 17  1  0  0  0  0
 16 15  1  0  0  0  0
 17 18  1  1  0  0  0
 17 12  1  0  0  0  0
 21  4  1  0  0  0  0
 22  4  1  0  0  0  0
 24  7  1  0  0  0  0
 30 11  1  0  0  0  0
 31 11  1  0  0  0  0
 33 13  1  0  0  0  0
 37 15  1  0  0  0  0
 39 16  1  0  0  0  0
 40 18  1  0  0  0  0
 41 18  1  0  0  0  0
M  END
