39,43
q = 0.0, confidence = 0.998

 46 49  0  0  1  0  0  0  0  0999 V2000
    2.1485   -0.8729   -0.7957 O   0  0  0  0  0  0  0  0  0  0  0  0
    1.9779   -0.8401    1.5171 O   0  0  0  0  0  0  0  0  0  0  0  0
    2.8571   -0.4702    0.4169 C   0  0  0  0  0  0  0  0  0  0  0  0
    3.0976    1.0523    0.4283 C   0  0  1  0  0  0  0  0  0  0  0  0
    3.5857    1.2219    1.4146 H   0  0  0  0  0  0  0  0  0  0  0  0
    4.1196    1.4110   -0.6651 C   0  0  0  0  0  0  0  0  0  0  0  0
    3.6680    1.2108   -1.6593 H   0  0  0  0  0  0  0  0  0  0  0  0
    4.3279    2.4997   -0.6274 H   0  0  0  0  0  0  0  0  0  0  0  0
    5.4194    0.6120   -0.5303 C   0  0  0  0  0  0  0  0  0  0  0  0
    5.9248    0.8745    0.4273 H   0  0  0  0  0  0  0  0  0  0  0  0
    6.1254    0.8884   -1.3415 H   0  0  0  0  0  0  0  0  0  0  0  0
    5.1652   -0.9032   -0.5587 C   0  0  2  0  0  0  0  0  0  0  0  0
    4.7040   -1.1491   -1.5418 H   0  0  0  0  0  0  0  0  0  0  0  0
    4.1424   -1.2774    0.5254 C   0  0  0  0  0  0  0  0  0  0  0  0
    3.8776   -2.3536    0.4773 H   0  0  0  0  0  0  0  0  0  0  0  0
    4.5700   -1.0874    1.5330 H   0  0  0  0  0  0  0  0  0  0  0  0
    1.8069    1.9226    0.4174 C   0  0  0  0  0  0  0  0  0  0  0  0
    1.0414    1.3874    1.0169 H   0  0  0  0  0  0  0  0  0  0  0  0
    2.0572    3.2538    1.1417 C   0  0  0  0  0  0  0  0  0  0  0  0
    2.4072    3.0934    2.1819 H   0  0  0  0  0  0  0  0  0  0  0  0
    1.1243    3.8501    1.1885 H   0  0  0  0  0  0  0  0  0  0  0  0
    2.8200    3.8671    0.6165 H   0  0  0  0  0  0  0  0  0  0  0  0
    1.2110    2.1832   -0.9744 C   0  0  0  0  0  0  0  0  0  0  0  0
    1.0463    1.2558   -1.5533 H   0  0  0  0  0  0  0  0  0  0  0  0
    1.8658    2.8455   -1.5776 H   0  0  0  0  0  0  0  0  0  0  0  0
    0.2299    2.6888   -0.8787 H   0  0  0  0  0  0  0  0  0  0  0  0
    6.4528   -1.7153   -0.4103 C   0  0  0  0  0  0  0  0  0  0  0  0
    6.2549   -2.8055   -0.4570 H   0  0  0  0  0  0  0  0  0  0  0  0
    6.9445   -1.5047    0.5632 H   0  0  0  0  0  0  0  0  0  0  0  0
    7.1774   -1.4674   -1.2120 H   0  0  0  0  0  0  0  0  0  0  0  0
   -0.2124   -1.3860   -1.2494 C   0  0  0  0  0  0  0  0  0  0  0  0
   -0.1264   -1.3901   -2.3440 H   0  0  0  0  0  0  0  0  0  0  0  0
    0.8694   -1.1520   -0.4392 C   0  0  0  0  0  0  0  0  0  0  0  0
    0.7627   -1.1206    0.9864 C   0  0  0  0  0  0  0  0  0  0  0  0
   -0.4282   -1.3170    1.6390 C   0  0  0  0  0  0  0  0  0  0  0  0
   -0.5033   -1.2629    2.7327 H   0  0  0  0  0  0  0  0  0  0  0  0
   -2.9126   -1.6007    1.4310 C   0  0  0  0  0  3  0  0  0  0  0  0
   -3.0020   -1.4984    2.5211 H   0  0  0  0  0  0  0  0  0  0  0  0
   -4.0664   -1.7979    0.6427 C   0  0  0  0  0  3  0  0  0  0  0  0
   -5.0537   -1.8451    1.1225 H   0  0  0  0  0  0  0  0  0  0  0  0
   -3.9613   -1.8757   -0.7809 C   0  0  0  0  0  3  0  0  0  0  0  0
   -4.8641   -1.9775   -1.3976 H   0  0  0  0  0  0  0  0  0  0  0  0
   -2.6998   -1.7075   -1.3929 C   0  0  0  0  0  3  0  0  0  0  0  0
   -2.6214   -1.6946   -2.4893 H   0  0  0  0  0  0  0  0  0  0  0  0
   -1.4902   -1.5755   -0.6160 C   0  0  0  0  0  0  0  0  0  0  0  0
   -1.6015   -1.5258    0.8327 C   0  0  0  0  0  0  0  0  0  0  0  0
  1 33  1  0  0  0  0
  1  3  1  0  0  0  0
  3  4  1  0  0  0  0
  3 14  1  0  0  0  0
  3  2  1  0  0  0  0
  4  5  1  1  0  0  0
  6  8  1  0  0  0  0
  6  9  1  0  0  0  0
  6  4  1  0  0  0  0
  7  6  1  0  0  0  0
  9 10  1  0  0  0  0
 11  9  1  0  0  0  0
 12 13  1  6  0  0  0
 12  9  1  0  0  0  0
 12 27  1  0  0  0  0
 12 14  1  0  0  0  0
 14 16  1  0  0  0  0
 15 14  1  0  0  0  0
 17  4  1  0  0  0  0
 17 18  1  0  0  0  0
 17 19  1  0  0  0  0
 19 21  1  0  0  0  0
 19 20  1  0  0  0  0
 22 19  1  0  0  0  0
 23 26  1  0  0  0  0
 23 17  1  0  0  0  0
 24 23  1  0  0  0  0
 25 23  1  0  0  0  0
 27 29  1  0  0  0  0
 28 27  1  0  0  0  0
 30 27  1  0  0  0  0
 31 45  2  0  0  0  0
 31 33  1  0  0  0  0
 32 31  1  0  0  0  0
 33 34  2  0  0  0  0
 34  2  1  0  0  0  0
 34 35  1  0  0  0  0
 35 36  1  0  0  0  0
 37 38  1  0  0  0  0
 39 40  1  0  0  0  0
 39 37  1  0  0  0  0
 41 39  1  0  0  0  0
 42 41  1  0  0  0  0
 43 41  1  0  0  0  0
 43 45  1  0  0  0  0
 44 43  1  0  0  0  0
 45 46  1  0  0  0  0
 46 37  1  0  0  0  0
 46 35  2  0  0  0  0
M  END
