10,12
q = 0.0, confidence = 0.998

 46 47  0  0  1  0  0  0  0  0999 V2000
   -1.7697   -2.5158    1.1353 O   0  0  0  0  0  0  0  0  0  0  0  0
    4.2118   -1.0182    1.1993 O   0  0  0  0  0  0  0  0  0  0  0  0
    4.8436   -2.0311   -0.7316 O   0  0  0  0  0  0  0  0  0  0  0  0
    4.1284    1.0929   -1.2095 O   0  0  0  0  0  0  0  0  0  0  0  0
    2.2389    1.6504   -0.0676 O   0  0  0  0  0  0  0  0  0  0  0  0
    0.7544   -0.2527   -1.3269 N   0  0  0  0  0  0  0  0  0  0  0  0
   -0.8925   -0.4157    0.5115 C   0  0  2  0  0  3  0  0  0  0  0  0
   -1.8964   -1.1688    1.2033 C   0  0  0  0  0  0  0  0  0  0  0  0
   -2.9646   -0.5022    1.8768 C   0  0  0  0  0  0  0  0  0  0  0  0
   -2.9938    0.9220    1.9053 C   0  0  0  0  0  3  0  0  0  0  0  0
   -1.9582    1.6842    1.3009 C   0  0  0  0  0  3  0  0  0  0  0  0
   -0.9393    1.0058    0.5808 C   0  0  0  0  0  3  0  0  0  0  0  0
    0.1869   -1.1185   -0.2927 C   0  0  2  0  0  0  0  0  0  0  0  0
    1.4068   -1.5311    0.5584 C   0  0  0  0  0  0  0  0  0  0  0  0
    2.5392   -1.5884   -0.4676 C   0  0  1  0  0  0  0  0  0  0  0  0
    2.1994   -0.3589   -1.3904 C   0  0  2  0  0  0  0  0  0  0  0  0
   -2.8622   -3.3308    1.5445 C   0  0  0  0  0  0  0  0  0  0  0  0
    3.9336   -1.5183    0.1232 C   0  0  0  0  0  0  0  0  0  0  0  0
    6.2149   -1.8115   -0.3710 C   0  0  0  0  0  0  0  0  0  0  0  0
    2.9670    0.8832   -0.9028 C   0  0  0  0  0  0  0  0  0  0  0  0
    2.9212    2.7694    0.5802 C   0  0  0  0  0  0  0  0  0  0  0  0
    1.9093    3.9008    0.6735 C   0  0  0  0  0  0  0  0  0  0  0  0
    3.4506    2.2924    1.9271 C   0  0  0  0  0  0  0  0  0  0  0  0
    0.2796   -0.3123   -2.2286 H   0  0  0  0  0  0  0  0  0  0  0  0
   -3.7785   -1.0705    2.3409 H   0  0  0  0  0  0  0  0  0  0  0  0
   -3.8369    1.4286    2.3960 H   0  0  0  0  0  0  0  0  0  0  0  0
   -1.9989    2.7814    1.3063 H   0  0  0  0  0  0  0  0  0  0  0  0
   -0.1645    1.5471    0.0199 H   0  0  0  0  0  0  0  0  0  0  0  0
   -0.2734   -2.0362   -0.7235 H   0  0  0  0  0  0  0  0  0  0  0  0
    1.6416   -0.7559    1.3146 H   0  0  0  0  0  0  0  0  0  0  0  0
    1.2396   -2.4886    1.0859 H   0  0  0  0  0  0  0  0  0  0  0  0
    2.4650   -2.4972   -1.0983 H   0  0  0  0  0  0  0  0  0  0  0  0
    2.5761   -0.5406   -2.4171 H   0  0  0  0  0  0  0  0  0  0  0  0
   -3.0660   -3.2264    2.6320 H   0  0  0  0  0  0  0  0  0  0  0  0
   -3.7788   -3.0916    0.9653 H   0  0  0  0  0  0  0  0  0  0  0  0
   -2.5622   -4.3732    1.3339 H   0  0  0  0  0  0  0  0  0  0  0  0
    6.4405   -0.7268   -0.4085 H   0  0  0  0  0  0  0  0  0  0  0  0
    6.4213   -2.1861    0.6510 H   0  0  0  0  0  0  0  0  0  0  0  0
    6.8196   -2.3566   -1.1170 H   0  0  0  0  0  0  0  0  0  0  0  0
    3.7701    3.0506   -0.0766 H   0  0  0  0  0  0  0  0  0  0  0  0
    1.5335    4.1829   -0.3295 H   0  0  0  0  0  0  0  0  0  0  0  0
    1.0447    3.6061    1.3032 H   0  0  0  0  0  0  0  0  0  0  0  0
    2.3786    4.7935    1.1324 H   0  0  0  0  0  0  0  0  0  0  0  0
    2.6133    1.9933    2.5906 H   0  0  0  0  0  0  0  0  0  0  0  0
    4.1192    1.4196    1.8001 H   0  0  0  0  0  0  0  0  0  0  0  0
    4.0151    3.1062    2.4248 H   0  0  0  0  0  0  0  0  0  0  0  0
  1  8  1  0  0  0  0
  1 17  1  0  0  0  0
  3 19  1  0  0  0  0
  3 18  1  0  0  0  0
  4 20  2  0  0  0  0
  5 21  1  0  0  0  0
  6 13  1  0  0  0  0
  7 12  1  6  0  0  0
  7  8  1  0  0  0  0
  8  9  2  0  0  0  0
  9 10  1  0  0  0  0
  9 25  1  0  0  0  0
 10 26  1  0  0  0  0
 11 27  1  0  0  0  0
 11 10  1  0  0  0  0
 12 11  1  0  0  0  0
 13 29  1  6  0  0  0
 13  7  1  0  0  0  0
 13 14  1  0  0  0  0
 14 31  1  0  0  0  0
 14 30  1  0  0  0  0
 15 32  1  6  0  0  0
 15 18  1  0  0  0  0
 15 14  1  0  0  0  0
 16 33  1  6  0  0  0
 16  6  1  0  0  0  0
 16 20  1  0  0  0  0
 16 15  1  0  0  0  0
 17 34  1  0  0  0  0
 18  2  2  0  0  0  0
 19 38  1  0  0  0  0
 20  5  1  0  0  0  0
 21 22  1  0  0  0  0
 21 23  1  0  0  0  0
 22 43  1  0  0  0  0
 22 42  1  0  0  0  0
 23 46  1  0  0  0  0
 23 44  1  0  0  0  0
 24  6  1  0  0  0  0
 28 12  1  0  0  0  0
 35 17  1  0  0  0  0
 36 17  1  0  0  0  0
 37 19  1  0  0  0  0
 39 19  1  0  0  0  0
 40 21  1  0  0  0  0
 41 22  1  0  0  0  0
 45 23  1  0  0  0  0
M  END
