3,26
q = -1.0, confidence = 0.054

 52 53  0  0  1  0  0  0  0  0999 V2000
   -0.9036   -1.7152   -1.3920 C   0  0  2  0  0  0  0  0  0  0  0  0
   -1.6627   -1.9322   -2.1655 H   0  0  0  0  0  0  0  0  0  0  0  0
   -0.1469   -0.4042   -1.6368 C   0  0  0  0  0  3  0  0  0  0  0  0
   -0.4133    0.2170   -2.5043 H   0  0  0  0  0  0  0  0  0  0  0  0
    1.0778   -0.1676   -0.9513 C   0  0  0  0  0  3  0  0  0  0  0  0
    1.7017    0.6652   -1.3166 H   0  0  0  0  0  0  0  0  0  0  0  0
    1.8435   -1.3070   -0.2999 C   0  0  2  0  0  0  0  0  0  0  0  0
    2.4701   -1.7689   -1.1022 H   0  0  0  0  0  0  0  0  0  0  0  0
    0.7857   -2.3292    0.1466 C   0  0  1  0  0  0  0  0  0  0  0  0
    1.2419   -3.1281    0.7665 H   0  0  0  0  0  0  0  0  0  0  0  0
   -0.3670   -1.6249    0.8883 C   0  0  0  0  0  0  0  0  0  0  0  0
   -0.4506   -1.6608    1.9822 H   0  0  0  0  0  0  0  0  0  0  0  0
   -1.4598   -1.4626    0.0213 C   0  0  0  0  0  0  0  0  0  0  0  0
    0.0700   -2.8684   -1.1170 C   0  0  0  0  0  0  0  0  0  0  0  0
   -0.4953   -3.7970   -0.8921 H   0  0  0  0  0  0  0  0  0  0  0  0
    0.7687   -3.0672   -1.9552 H   0  0  0  0  0  0  0  0  0  0  0  0
   -2.8802   -1.0876    0.4301 C   0  0  0  0  0  0  0  0  0  0  0  0
   -3.9775   -1.5565   -0.5390 C   0  0  0  0  0  0  0  0  0  0  0  0
   -3.7855   -1.3243   -1.5973 H   0  0  0  0  0  0  0  0  0  0  0  0
   -4.9464   -1.0931   -0.2636 H   0  0  0  0  0  0  0  0  0  0  0  0
   -4.0943   -2.6561   -0.4600 H   0  0  0  0  0  0  0  0  0  0  0  0
   -3.2482   -1.6917    1.7996 C   0  0  0  0  0  0  0  0  0  0  0  0
   -2.4943   -1.5117    2.5852 H   0  0  0  0  0  0  0  0  0  0  0  0
   -3.3555   -2.7900    1.6982 H   0  0  0  0  0  0  0  0  0  0  0  0
   -4.2132   -1.2768    2.1547 H   0  0  0  0  0  0  0  0  0  0  0  0
   -2.6570    0.4483    0.5075 C   0  0  1  0  0  3  0  0  0  0  0  0
   -2.0406    0.9654    1.7016 C   0  0  0  0  0  3  0  0  0  0  0  0
   -2.0390    0.3512    2.6113 H   0  0  0  0  0  0  0  0  0  0  0  0
   -2.0836    2.0405    1.9166 H   0  0  0  0  0  0  0  0  0  0  0  0
   -2.6274    1.3306   -0.6271 C   0  0  0  0  0  3  0  0  0  0  0  0
   -2.9686    0.9629   -2.0552 C   0  0  0  0  0  0  0  0  0  0  0  0
   -2.6753   -0.0507   -2.3619 H   0  0  0  0  0  0  0  0  0  0  0  0
   -2.4596    1.6726   -2.7387 H   0  0  0  0  0  0  0  0  0  0  0  0
   -4.0603    1.0799   -2.2376 H   0  0  0  0  0  0  0  0  0  0  0  0
   -2.9200    2.8111   -0.4168 C   0  0  0  0  0  0  0  0  0  0  0  0
   -2.6445    3.1983    0.5787 H   0  0  0  0  0  0  0  0  0  0  0  0
   -4.0142    2.9690   -0.5464 H   0  0  0  0  0  0  0  0  0  0  0  0
   -2.4099    3.4377   -1.1738 H   0  0  0  0  0  0  0  0  0  0  0  0
    2.8272   -0.9203    0.8261 C   0  0  0  0  0  0  0  0  0  0  0  0
    2.2571   -0.7038    1.7504 H   0  0  0  0  0  0  0  0  0  0  0  0
    3.4415   -1.8187    1.0477 H   0  0  0  0  0  0  0  0  0  0  0  0
    3.6994    0.2593    0.4966 C   0  0  0  0  0  0  0  0  0  0  0  0
    3.2762    1.2493    0.7416 H   0  0  0  0  0  0  0  0  0  0  0  0
    4.9193    0.2358   -0.0931 C   0  0  0  0  0  0  0  0  0  0  0  0
    5.6287   -1.0281   -0.5066 C   0  0  0  0  0  0  0  0  0  0  0  0
    6.6411   -1.0828   -0.0498 H   0  0  0  0  0  0  0  0  0  0  0  0
    5.7875   -1.0467   -1.6072 H   0  0  0  0  0  0  0  0  0  0  0  0
    5.0781   -1.9473   -0.2313 H   0  0  0  0  0  0  0  0  0  0  0  0
    5.6672    1.5115   -0.3853 C   0  0  0  0  0  0  0  0  0  0  0  0
    5.8905    1.6061   -1.4710 H   0  0  0  0  0  0  0  0  0  0  0  0
    6.6512    1.5275    0.1335 H   0  0  0  0  0  0  0  0  0  0  0  0
    5.0966    2.4072   -0.0717 H   0  0  0  0  0  0  0  0  0  0  0  0
  1  2  1  6  0  0  0
  1 14  1  0  0  0  0
  1 13  1  0  0  0  0
  3  1  1  0  0  0  0
  3  5  1  0  0  0  0
  4  3  1  0  0  0  0
  5  7  1  0  0  0  0
  6  5  1  0  0  0  0
  7  8  1  6  0  0  0
  7  9  1  0  0  0  0
  7 39  1  0  0  0  0
  9 10  1  1  0  0  0
  9 11  1  0  0  0  0
 11 12  1  0  0  0  0
 13 17  1  0  0  0  0
 13 11  2  0  0  0  0
 14 15  1  0  0  0  0
 14  9  1  0  0  0  0
 16 14  1  0  0  0  0
 17 26  1  0  0  0  0
 17 22  1  0  0  0  0
 18 21  1  0  0  0  0
 18 20  1  0  0  0  0
 18 17  1  0  0  0  0
 19 18  1  0  0  0  0
 22 25  1  0  0  0  0
 22 23  1  0  0  0  0
 24 22  1  0  0  0  0
 26 30  1  6  0  0  0
 26 27  1  0  0  0  0
 27 29  1  0  0  0  0
 27 28  1  0  0  0  0
 30 35  1  0  0  0  0
 31 30  1  0  0  0  0
 32 31  1  0  0  0  0
 33 31  1  0  0  0  0
 34 31  1  0  0  0  0
 35 36  1  0  0  0  0
 37 35  1  0  0  0  0
 38 35  1  0  0  0  0
 39 41  1  0  0  0  0
 39 40  1  0  0  0  0
 42 43  1  0  0  0  0
 42 39  1  0  0  0  0
 44 42  2  0  0  0  0
 45 48  1  0  0  0  0
 45 44  1  0  0  0  0
 45 46  1  0  0  0  0
 47 45  1  0  0  0  0
 49 44  1  0  0  0  0
 49 52  1  0  0  0  0
 49 51  1  0  0  0  0
 50 49  1  0  0  0  0
M  END
