6
q = -2.0, confidence = 0.914

 51 54  0  0  1  0  0  0  0  0999 V2000
    2.1747   -1.2002    0.2886 Si  0  0  1  0  0  0  0  0  0  0  0  0
    1.9548    0.1676   -0.9969 C   0  0  2  0  0  3  0  0  0  0  0  0
    2.1388    1.5674   -0.7493 C   0  0  0  0  0  3  0  0  0  0  0  0
    1.4164    2.3160   -1.7304 C   0  0  0  0  0  0  0  0  0  0  0  0
    0.7627    1.3952   -2.5855 C   0  0  0  0  0  0  0  0  0  0  0  0
    1.0628    0.0784   -2.1237 C   0  0  0  0  0  3  0  0  0  0  0  0
    0.4665   -0.9295    1.0649 C   0  0  1  0  0  3  0  0  0  0  0  0
    0.1171    0.0679    2.0523 C   0  0  0  0  0  0  0  0  0  0  0  0
   -1.2922    0.2845    2.0098 C   0  0  0  0  0  0  0  0  0  0  0  0
   -1.8681   -0.6005    1.0520 C   0  0  0  0  0  0  0  0  0  0  0  0
   -0.7824   -1.3374    0.4429 C   0  0  0  0  0  0  0  0  0  0  0  0
   -1.0765   -2.2933   -0.5921 C   0  0  0  0  0  0  0  0  0  0  0  0
   -2.3825   -2.5078   -0.9662 C   0  0  0  0  0  0  0  0  0  0  0  0
   -3.2399   -0.8292    0.6629 C   0  0  0  0  0  0  0  0  0  0  0  0
   -4.3300   -0.1342    1.2362 C   0  0  0  0  0  0  0  0  0  0  0  0
   -5.6343   -0.3874    0.8162 C   0  0  0  0  0  0  0  0  0  0  0  0
   -5.8837   -1.3473   -0.1914 C   0  0  0  0  0  0  0  0  0  0  0  0
   -4.8247   -2.0404   -0.7709 C   0  0  0  0  0  0  0  0  0  0  0  0
   -3.4857   -1.7998   -0.3652 C   0  0  0  0  0  0  0  0  0  0  0  0
    1.0410    0.7720    3.0066 C   0  0  0  0  0  0  0  0  0  0  0  0
    2.3876   -2.8901   -0.5250 C   0  0  0  0  0  0  0  0  0  0  0  0
    3.6025   -0.8669    1.4945 C   0  0  0  0  0  0  0  0  0  0  0  0
    4.9980   -1.2701    0.9870 C   0  0  0  0  0  0  0  0  0  0  0  0
    5.4478   -0.5217   -0.2731 C   0  0  0  0  0  0  0  0  0  0  0  0
    6.8498   -0.9114   -0.7399 C   0  0  0  0  0  0  0  0  0  0  0  0
    2.7258    2.0043    0.0690 H   0  0  0  0  0  0  0  0  0  0  0  0
    1.3540    3.4090   -1.7867 H   0  0  0  0  0  0  0  0  0  0  0  0
    0.1030    1.6483   -3.4229 H   0  0  0  0  0  0  0  0  0  0  0  0
    0.6730   -0.8484   -2.5647 H   0  0  0  0  0  0  0  0  0  0  0  0
   -1.8291    1.0070    2.6353 H   0  0  0  0  0  0  0  0  0  0  0  0
   -0.2669   -2.8719   -1.0547 H   0  0  0  0  0  0  0  0  0  0  0  0
   -2.6123   -3.2491   -1.7471 H   0  0  0  0  0  0  0  0  0  0  0  0
   -4.1396    0.6193    2.0144 H   0  0  0  0  0  0  0  0  0  0  0  0
   -6.4725    0.1646    1.2674 H   0  0  0  0  0  0  0  0  0  0  0  0
   -6.9156   -1.5423   -0.5201 H   0  0  0  0  0  0  0  0  0  0  0  0
   -5.0132   -2.7847   -1.5603 H   0  0  0  0  0  0  0  0  0  0  0  0
    1.9033    1.2464    2.5004 H   0  0  0  0  0  0  0  0  0  0  0  0
    1.4501    0.0564    3.7497 H   0  0  0  0  0  0  0  0  0  0  0  0
    0.5029    1.5709    3.5486 H   0  0  0  0  0  0  0  0  0  0  0  0
    1.7702   -2.9990   -1.4371 H   0  0  0  0  0  0  0  0  0  0  0  0
    2.1196   -3.7074    0.1748 H   0  0  0  0  0  0  0  0  0  0  0  0
    3.4452   -3.0292   -0.8270 H   0  0  0  0  0  0  0  0  0  0  0  0
    3.5983    0.2110    1.7617 H   0  0  0  0  0  0  0  0  0  0  0  0
    3.3640   -1.4061    2.4372 H   0  0  0  0  0  0  0  0  0  0  0  0
    5.7459   -1.0997    1.7932 H   0  0  0  0  0  0  0  0  0  0  0  0
    5.0268   -2.3652    0.7903 H   0  0  0  0  0  0  0  0  0  0  0  0
    5.4034    0.5734   -0.0798 H   0  0  0  0  0  0  0  0  0  0  0  0
    4.7177   -0.6979   -1.0948 H   0  0  0  0  0  0  0  0  0  0  0  0
    7.1503   -0.3521   -1.6483 H   0  0  0  0  0  0  0  0  0  0  0  0
    6.9086   -1.9941   -0.9791 H   0  0  0  0  0  0  0  0  0  0  0  0
    7.6077   -0.7074    0.0452 H   0  0  0  0  0  0  0  0  0  0  0  0
  1 21  1  6  0  0  0
  1 22  1  0  0  0  0
  2  3  1  0  0  0  0
  2  1  1  1  0  0  0
  3 26  1  0  0  0  0
  4  3  1  0  0  0  0
  5  6  1  0  0  0  0
  5  4  2  0  0  0  0
  6  2  1  0  0  0  0
  7  1  1  6  0  0  0
  7  8  1  0  0  0  0
  8 20  1  0  0  0  0
  9  8  2  0  0  0  0
  9 30  1  0  0  0  0
 10  9  1  0  0  0  0
 11 10  2  0  0  0  0
 11  7  1  0  0  0  0
 12 11  1  0  0  0  0
 13 12  2  0  0  0  0
 13 19  1  0  0  0  0
 14 10  1  0  0  0  0
 14 15  1  0  0  0  0
 15 33  1  0  0  0  0
 16 15  2  0  0  0  0
 16 34  1  0  0  0  0
 17 16  1  0  0  0  0
 18 19  1  0  0  0  0
 18 17  2  0  0  0  0
 19 14  2  0  0  0  0
 20 39  1  0  0  0  0
 20 38  1  0  0  0  0
 21 41  1  0  0  0  0
 22 43  1  0  0  0  0
 22 44  1  0  0  0  0
 23 22  1  0  0  0  0
 23 45  1  0  0  0  0
 24 47  1  0  0  0  0
 24 23  1  0  0  0  0
 25 24  1  0  0  0  0
 25 51  1  0  0  0  0
 27  4  1  0  0  0  0
 28  5  1  0  0  0  0
 29  6  1  0  0  0  0
 31 12  1  0  0  0  0
 32 13  1  0  0  0  0
 35 17  1  0  0  0  0
 36 18  1  0  0  0  0
 37 20  1  0  0  0  0
 40 21  1  0  0  0  0
 42 21  1  0  0  0  0
 46 23  1  0  0  0  0
 48 24  1  0  0  0  0
 49 25  1  0  0  0  0
 50 25  1  0  0  0  0
M  END
