10
q = -2.0, confidence = 0.958

 63 66  0  0  1  0  0  0  0  0999 V2000
    3.3240   -0.7461    1.0808 O   0  0  0  0  0  0  0  0  0  0  0  0
    2.2452   -1.7859    1.8567 Si  0  0  0  0  0  0  0  0  0  0  0  0
    3.6642   -0.1506   -0.4628 Si  0  0  0  0  0  0  0  0  0  0  0  0
    0.4664   -1.2017    1.5885 C   0  0  2  0  0  3  0  0  0  0  0  0
   -0.1612    0.0385    1.9856 C   0  0  0  0  0  0  0  0  0  0  0  0
   -1.5243   -0.0088    1.5737 C   0  0  0  0  0  0  0  0  0  0  0  0
   -1.8058   -1.3071    1.0204 C   0  0  0  0  0  0  0  0  0  0  0  0
   -0.5733   -2.0182    1.0249 C   0  0  0  0  0  0  0  0  0  0  0  0
    0.3964    2.3705   -0.6905 C   0  0  2  0  0  3  0  0  0  0  0  0
    1.4806    1.6899   -0.0548 C   0  0  0  0  0  3  0  0  0  0  0  0
    2.1333    0.8232   -0.9905 C   0  0  1  0  0  3  0  0  0  0  0  0
    1.4608    1.0079   -2.2579 C   0  0  0  0  0  0  0  0  0  0  0  0
    0.3913    1.9212   -2.0543 C   0  0  0  0  0  0  0  0  0  0  0  0
    2.6825   -1.7338    3.6850 C   0  0  0  0  0  0  0  0  0  0  0  0
    3.7186   -2.0972    3.8421 H   0  0  0  0  0  0  0  0  0  0  0  0
    1.9959   -2.3804    4.2687 H   0  0  0  0  0  0  0  0  0  0  0  0
    2.6172   -0.7063    4.0939 H   0  0  0  0  0  0  0  0  0  0  0  0
    2.4038   -3.5278    1.1666 C   0  0  0  0  0  0  0  0  0  0  0  0
    2.0656   -3.5674    0.1116 H   0  0  0  0  0  0  0  0  0  0  0  0
    1.7954   -4.2464    1.7531 H   0  0  0  0  0  0  0  0  0  0  0  0
    3.4606   -3.8612    1.2079 H   0  0  0  0  0  0  0  0  0  0  0  0
    5.0868    1.0614   -0.2498 C   0  0  0  0  0  0  0  0  0  0  0  0
    4.8166    1.8627    0.4669 H   0  0  0  0  0  0  0  0  0  0  0  0
    5.3448    1.5394   -1.2170 H   0  0  0  0  0  0  0  0  0  0  0  0
    5.9903    0.5448    0.1336 H   0  0  0  0  0  0  0  0  0  0  0  0
    4.1354   -1.5360   -1.6387 C   0  0  0  0  0  0  0  0  0  0  0  0
    3.2807   -2.2150   -1.8238 H   0  0  0  0  0  0  0  0  0  0  0  0
    4.9716   -2.1223   -1.2056 H   0  0  0  0  0  0  0  0  0  0  0  0
    4.4728   -1.1297   -2.6139 H   0  0  0  0  0  0  0  0  0  0  0  0
    0.4236    1.0916    2.8800 C   0  0  0  0  0  0  0  0  0  0  0  0
    1.5293    1.1135    2.8408 H   0  0  0  0  0  0  0  0  0  0  0  0
    0.1430    0.8640    3.9306 H   0  0  0  0  0  0  0  0  0  0  0  0
    0.0348    2.1022    2.6485 H   0  0  0  0  0  0  0  0  0  0  0  0
   -3.1103   -1.8186    0.5662 C   0  0  0  0  0  0  0  0  0  0  0  0
   -4.3110   -1.2282    1.0151 C   0  0  0  0  0  0  0  0  0  0  0  0
   -4.2711   -0.3787    1.7127 H   0  0  0  0  0  0  0  0  0  0  0  0
   -5.5534   -1.7222    0.5955 C   0  0  0  0  0  0  0  0  0  0  0  0
   -6.4788   -1.2499    0.9589 H   0  0  0  0  0  0  0  0  0  0  0  0
   -5.6187   -2.8158   -0.2815 C   0  0  0  0  0  0  0  0  0  0  0  0
   -6.5942   -3.2029   -0.6129 H   0  0  0  0  0  0  0  0  0  0  0  0
   -4.4300   -3.4086   -0.7391 C   0  0  0  0  0  0  0  0  0  0  0  0
   -4.4706   -4.2567   -1.4394 H   0  0  0  0  0  0  0  0  0  0  0  0
   -3.1887   -2.9149   -0.3221 C   0  0  0  0  0  0  0  0  0  0  0  0
   -2.2639   -3.3581   -0.7203 H   0  0  0  0  0  0  0  0  0  0  0  0
   -0.4882    3.3775   -0.0710 C   0  0  0  0  0  0  0  0  0  0  0  0
   -0.0128    4.1749    0.9972 C   0  0  0  0  0  0  0  0  0  0  0  0
    1.0267    4.0570    1.3379 H   0  0  0  0  0  0  0  0  0  0  0  0
   -0.8361    5.1358    1.5997 C   0  0  0  0  0  0  0  0  0  0  0  0
   -0.4439    5.7493    2.4252 H   0  0  0  0  0  0  0  0  0  0  0  0
   -2.1504    5.3252    1.1435 C   0  0  0  0  0  0  0  0  0  0  0  0
   -2.7975    6.0797    1.6158 H   0  0  0  0  0  0  0  0  0  0  0  0
   -2.6295    4.5498    0.0749 C   0  0  0  0  0  0  0  0  0  0  0  0
   -3.6584    4.6899   -0.2902 H   0  0  0  0  0  0  0  0  0  0  0  0
   -1.8098    3.5870   -0.5284 C   0  0  0  0  0  0  0  0  0  0  0  0
   -2.2056    2.9571   -1.3379 H   0  0  0  0  0  0  0  0  0  0  0  0
    1.8524    0.4208   -3.5800 C   0  0  0  0  0  0  0  0  0  0  0  0
    1.0652    0.5909   -4.3390 H   0  0  0  0  0  0  0  0  0  0  0  0
    2.0247   -0.6698   -3.5074 H   0  0  0  0  0  0  0  0  0  0  0  0
    2.7881    0.8940   -3.9458 H   0  0  0  0  0  0  0  0  0  0  0  0
    1.7883    1.8229    0.9858 H   0  0  0  0  0  0  0  0  0  0  0  0
   -0.4355   -3.0380    0.6515 H   0  0  0  0  0  0  0  0  0  0  0  0
   -2.2499    0.8053    1.7007 H   0  0  0  0  0  0  0  0  0  0  0  0
   -0.3146    2.2456   -2.8274 H   0  0  0  0  0  0  0  0  0  0  0  0
  1  2  1  0  0  0  0
  2 14  1  0  0  0  0
  3 22  1  0  0  0  0
  3  1  1  0  0  0  0
  4  2  1  1  0  0  0
  4  5  1  0  0  0  0
  5 30  1  0  0  0  0
  6 62  1  0  0  0  0
  6  5  2  0  0  0  0
  7  8  2  0  0  0  0
  7  6  1  0  0  0  0
  8  4  1  0  0  0  0
  9 45  1  6  0  0  0
  9 10  1  0  0  0  0
 10 60  1  0  0  0  0
 11  3  1  6  0  0  0
 11 10  1  0  0  0  0
 12 13  2  0  0  0  0
 12 11  1  0  0  0  0
 13  9  1  0  0  0  0
 14 15  1  0  0  0  0
 14 17  1  0  0  0  0
 14 16  1  0  0  0  0
 18 21  1  0  0  0  0
 18 20  1  0  0  0  0
 18  2  1  0  0  0  0
 19 18  1  0  0  0  0
 22 25  1  0  0  0  0
 22 23  1  0  0  0  0
 24 22  1  0  0  0  0
 26 28  1  0  0  0  0
 26  3  1  0  0  0  0
 27 26  1  0  0  0  0
 29 26  1  0  0  0  0
 30 32  1  0  0  0  0
 31 30  1  0  0  0  0
 33 30  1  0  0  0  0
 34 35  1  0  0  0  0
 34  7  1  0  0  0  0
 35 36  1  0  0  0  0
 37 38  1  0  0  0  0
 37 35  2  0  0  0  0
 39 37  1  0  0  0  0
 40 39  1  0  0  0  0
 41 43  1  0  0  0  0
 41 39  2  0  0  0  0
 42 41  1  0  0  0  0
 43 34  2  0  0  0  0
 44 43  1  0  0  0  0
 45 46  1  0  0  0  0
 46 47  1  0  0  0  0
 46 48  2  0  0  0  0
 48 49  1  0  0  0  0
 50 48  1  0  0  0  0
 50 51  1  0  0  0  0
 52 50  2  0  0  0  0
 53 52  1  0  0  0  0
 54 45  2  0  0  0  0
 54 52  1  0  0  0  0
 55 54  1  0  0  0  0
 56 58  1  0  0  0  0
 56 12  1  0  0  0  0
 57 56  1  0  0  0  0
 59 56  1  0  0  0  0
 61  8  1  0  0  0  0
 63 13  1  0  0  0  0
M  END
