4,14
q = -2.0, confidence = 0.776

 28 30  0  0  1  0  0  0  0  0999 V2000
    3.5239   -0.6514   -0.2994 O   0  0  0  0  0  0  0  0  0  0  0  0
   -1.1929    0.5096    0.6679 C   0  0  0  0  0  0  0  0  0  0  0  0
   -0.1105    1.3890    1.0231 C   0  0  0  0  0  3  0  0  0  0  0  0
    0.5278    1.7968   -0.2061 C   0  0  2  0  0  3  0  0  0  0  0  0
   -0.1542    1.1640   -1.3068 C   0  0  0  0  0  3  0  0  0  0  0  0
   -1.2178    0.3695   -0.7491 C   0  0  0  0  0  0  0  0  0  0  0  0
   -2.4814   -0.3827   -1.0909 C   0  0  2  0  0  0  0  0  0  0  0  0
   -3.6387    0.6310   -0.8025 C   0  0  0  0  0  0  0  0  0  0  0  0
   -3.6114    0.7860    0.7522 C   0  0  0  0  0  0  0  0  0  0  0  0
   -2.4415   -0.1554    1.1945 C   0  0  1  0  0  0  0  0  0  0  0  0
   -2.5995   -1.2997    0.1567 C   0  0  0  0  0  0  0  0  0  0  0  0
    1.8568    2.4951   -0.2922 C   0  0  0  0  0  0  0  0  0  0  0  0
    2.9124    1.5792    0.3435 C   0  0  0  0  0  0  0  0  0  0  0  0
    2.6180    0.1081   -0.0387 C   0  0  0  0  0  3  0  0  0  0  0  0
    0.1908    1.6974    2.0317 H   0  0  0  0  0  0  0  0  0  0  0  0
    0.1184    1.2717   -2.3636 H   0  0  0  0  0  0  0  0  0  0  0  0
   -2.5239   -0.8717   -2.0808 H   0  0  0  0  0  0  0  0  0  0  0  0
   -4.6035    0.2093   -1.1484 H   0  0  0  0  0  0  0  0  0  0  0  0
   -3.4863    1.5902   -1.3345 H   0  0  0  0  0  0  0  0  0  0  0  0
   -4.5622    0.4445    1.2079 H   0  0  0  0  0  0  0  0  0  0  0  0
   -3.4436    1.8307    1.0788 H   0  0  0  0  0  0  0  0  0  0  0  0
   -2.4483   -0.4397    2.2622 H   0  0  0  0  0  0  0  0  0  0  0  0
   -1.7862   -2.0481    0.2173 H   0  0  0  0  0  0  0  0  0  0  0  0
   -3.5843   -1.8047    0.2243 H   0  0  0  0  0  0  0  0  0  0  0  0
    2.1029    2.6793   -1.3570 H   0  0  0  0  0  0  0  0  0  0  0  0
    1.8237    3.4819    0.2133 H   0  0  0  0  0  0  0  0  0  0  0  0
    3.9573    1.8362    0.0690 H   0  0  0  0  0  0  0  0  0  0  0  0
    2.8388    1.6224    1.4526 H   0  0  0  0  0  0  0  0  0  0  0  0
  1 14  2  0  0  0  0
  2  3  1  0  0  0  0
  2 10  1  0  0  0  0
  3 15  1  0  0  0  0
  4 12  1  1  0  0  0
  4  3  1  0  0  0  0
  5  6  1  0  0  0  0
  5  4  1  0  0  0  0
  6  2  2  0  0  0  0
  7 17  1  6  0  0  0
  7  8  1  0  0  0  0
  7  6  1  0  0  0  0
  7 11  1  0  0  0  0
  8  9  1  0  0  0  0
  9 21  1  0  0  0  0
  9 10  1  0  0  0  0
  9 20  1  0  0  0  0
 10 22  1  1  0  0  0
 11 23  1  0  0  0  0
 11 24  1  0  0  0  0
 11 10  1  0  0  0  0
 12 26  1  0  0  0  0
 12 13  1  0  0  0  0
 13 28  1  0  0  0  0
 14 13  1  0  0  0  0
 16  5  1  0  0  0  0
 18  8  1  0  0  0  0
 19  8  1  0  0  0  0
 25 12  1  0  0  0  0
 27 13  1  0  0  0  0
M  END
