18
q = -1.0, confidence = 0.05

 26 26  0  0  1  0  0  0  0  0999 V2000
   -0.5271    2.2687   -0.1771 S   0  0  0  0  0  0  0  0  0  0  0  0
    2.4013    2.2848   -0.7069 S   0  0  0  0  0  0  0  0  0  0  0  0
   -3.0662   -1.3188    1.0156 F   0  0  0  0  0  0  0  0  0  0  0  0
   -2.6239   -1.9800   -1.0260 F   0  0  0  0  0  0  0  0  0  0  0  0
   -1.4210   -2.6773    0.6478 F   0  0  0  0  0  0  0  0  0  0  0  0
   -3.8542    0.4609   -0.8419 F   0  0  0  0  0  0  0  0  0  0  0  0
   -3.1819    2.5259   -0.7311 F   0  0  0  0  0  0  0  0  0  0  0  0
   -3.5371    1.4062    1.1040 F   0  0  0  0  0  0  0  0  0  0  0  0
    0.3562    0.0179    2.1310 C   0  0  0  0  0  0  0  0  0  0  0  0
    0.9110   -1.2703    2.3803 C   0  0  0  0  0  0  0  0  0  0  0  0
    2.2870   -1.2435    1.9398 C   0  0  0  0  0  0  0  0  0  0  0  0
    2.5863    0.0619    1.4363 C   0  0  0  0  0  0  0  0  0  0  0  0
    1.3519    0.8469    1.4697 C   0  0  1  0  0  3  0  0  0  0  0  0
    1.0567    1.4752    0.1661 C   0  0  1  0  0  3  0  0  0  0  0  0
    2.4008    3.9347    0.0833 C   0  0  0  0  0  0  0  0  0  0  0  0
   -1.5923    0.8590   -0.1609 C   0  0  0  0  0  0  0  0  0  0  0  0
   -3.0526    1.2995   -0.1572 C   0  0  0  0  0  0  0  0  0  0  0  0
   -1.1052   -0.4105   -0.0341 C   0  0  0  0  0  3  0  0  0  0  0  0
   -2.0507   -1.5752    0.1472 C   0  0  0  0  0  0  0  0  0  0  0  0
   -0.6801    0.3122    2.3235 H   0  0  0  0  0  0  0  0  0  0  0  0
    0.3956   -2.1117    2.8557 H   0  0  0  0  0  0  0  0  0  0  0  0
    2.9949   -2.0746    2.0405 H   0  0  0  0  0  0  0  0  0  0  0  0
    3.5266    0.4315    1.0131 H   0  0  0  0  0  0  0  0  0  0  0  0
    2.5608    3.8459    1.1758 H   0  0  0  0  0  0  0  0  0  0  0  0
    1.4568    4.4785   -0.1198 H   0  0  0  0  0  0  0  0  0  0  0  0
    3.2412    4.4989   -0.3656 H   0  0  0  0  0  0  0  0  0  0  0  0
  1 16  1  0  0  0  0
  1 14  1  0  0  0  0
  2 15  1  0  0  0  0
  4 19  1  0  0  0  0
  6 17  1  0  0  0  0
  7 17  1  0  0  0  0
  9 20  1  0  0  0  0
  9 10  2  0  0  0  0
 10 21  1  0  0  0  0
 11 22  1  0  0  0  0
 11 10  1  0  0  0  0
 12 13  1  0  0  0  0
 12 11  2  0  0  0  0
 13 14  1  6  0  0  0
 13  9  1  0  0  0  0
 14  2  1  1  0  0  0
 15 24  1  0  0  0  0
 16 17  1  0  0  0  0
 16 18  2  0  0  0  0
 17  8  1  0  0  0  0
 18 19  1  0  0  0  0
 19  5  1  0  0  0  0
 19  3  1  0  0  0  0
 23 12  1  0  0  0  0
 25 15  1  0  0  0  0
 26 15  1  0  0  0  0
M  END
