1,18
q = -2.0, confidence = 0.88

 66 69  0  0  1  0  0  0  0  0999 V2000
    1.0115   -0.4050   -2.1083 C   0  0  2  0  0  3  0  0  0  0  0  0
    2.1741   -1.2432   -2.0656 C   0  0  0  0  0  0  0  0  0  0  0  0
    2.0206   -2.1832   -1.0297 C   0  0  0  0  0  0  0  0  0  0  0  0
    0.7344   -1.9830   -0.4153 C   0  0  0  0  0  0  0  0  0  0  0  0
    0.1231   -0.8659   -1.0836 C   0  0  0  0  0  0  0  0  0  0  0  0
    0.7566    0.6630   -3.1252 C   0  0  0  0  0  0  0  0  0  0  0  0
    0.1101   -2.8864    0.5457 C   0  0  0  0  0  0  0  0  0  0  0  0
   -1.2543   -3.0745    0.5904 C   0  0  0  0  0  0  0  0  0  0  0  0
   -2.3060   -2.4944   -0.2266 C   0  0  0  0  0  0  0  0  0  0  0  0
   -2.3299   -1.3038   -0.8983 C   0  0  0  0  0  0  0  0  0  0  0  0
   -1.2161   -0.2872   -0.7278 C   0  0  1  0  0  0  0  0  0  0  0  0
   -3.4829   -0.8679   -1.7842 C   0  0  0  0  0  0  0  0  0  0  0  0
   -3.0339   -0.8319   -3.2604 C   0  0  0  0  0  0  0  0  0  0  0  0
   -4.7666   -1.6858   -1.6278 C   0  0  0  0  0  0  0  0  0  0  0  0
    1.0260   -3.7670    1.3577 C   0  0  0  0  0  0  0  0  0  0  0  0
   -1.2161    0.2872    0.7278 C   0  0  1  0  0  0  0  0  0  0  0  0
    0.1231    0.8659    1.0837 C   0  0  0  0  0  0  0  0  0  0  0  0
    1.0115    0.4049    2.1083 C   0  0  1  0  0  3  0  0  0  0  0  0
    2.1741    1.2432    2.0657 C   0  0  0  0  0  0  0  0  0  0  0  0
    2.0206    2.1832    1.0298 C   0  0  0  0  0  0  0  0  0  0  0  0
    0.7344    1.9830    0.4154 C   0  0  0  0  0  0  0  0  0  0  0  0
    0.7566   -0.6630    3.1252 C   0  0  0  0  0  0  0  0  0  0  0  0
    0.1101    2.8864   -0.5456 C   0  0  0  0  0  0  0  0  0  0  0  0
   -1.2543    3.0745   -0.5903 C   0  0  0  0  0  0  0  0  0  0  0  0
   -2.3060    2.4944    0.2266 C   0  0  0  0  0  0  0  0  0  0  0  0
   -2.3299    1.3038    0.8983 C   0  0  0  0  0  0  0  0  0  0  0  0
   -3.4829    0.8679    1.7842 C   0  0  0  0  0  0  0  0  0  0  0  0
   -3.0340    0.8320    3.2604 C   0  0  0  0  0  0  0  0  0  0  0  0
   -4.7666    1.6857    1.6277 C   0  0  0  0  0  0  0  0  0  0  0  0
    1.0260    3.7670   -1.3576 C   0  0  0  0  0  0  0  0  0  0  0  0
    3.0606   -1.1274   -2.6980 H   0  0  0  0  0  0  0  0  0  0  0  0
    2.7545   -2.9396   -0.7384 H   0  0  0  0  0  0  0  0  0  0  0  0
    0.0347    1.4201   -2.7661 H   0  0  0  0  0  0  0  0  0  0  0  0
    0.3396    0.2126   -4.0517 H   0  0  0  0  0  0  0  0  0  0  0  0
    1.6999    1.1773   -3.3908 H   0  0  0  0  0  0  0  0  0  0  0  0
   -1.5960   -3.8727    1.2727 H   0  0  0  0  0  0  0  0  0  0  0  0
   -3.2116   -3.1198   -0.2870 H   0  0  0  0  0  0  0  0  0  0  0  0
   -1.4011    0.5643   -1.4084 H   0  0  0  0  0  0  0  0  0  0  0  0
   -3.7102    0.1836   -1.4867 H   0  0  0  0  0  0  0  0  0  0  0  0
   -3.8321   -0.4102   -3.9048 H   0  0  0  0  0  0  0  0  0  0  0  0
   -2.8043   -1.8568   -3.6178 H   0  0  0  0  0  0  0  0  0  0  0  0
   -2.1247   -0.2151   -3.4030 H   0  0  0  0  0  0  0  0  0  0  0  0
   -5.1178   -1.7010   -0.5763 H   0  0  0  0  0  0  0  0  0  0  0  0
   -4.6242   -2.7362   -1.9563 H   0  0  0  0  0  0  0  0  0  0  0  0
   -5.5757   -1.2546   -2.2508 H   0  0  0  0  0  0  0  0  0  0  0  0
    1.8594   -3.1848    1.7996 H   0  0  0  0  0  0  0  0  0  0  0  0
    1.4963   -4.5419    0.7136 H   0  0  0  0  0  0  0  0  0  0  0  0
    0.4749   -4.2929    2.1605 H   0  0  0  0  0  0  0  0  0  0  0  0
   -1.4011   -0.5643    1.4084 H   0  0  0  0  0  0  0  0  0  0  0  0
    3.0606    1.1274    2.6980 H   0  0  0  0  0  0  0  0  0  0  0  0
    2.7545    2.9396    0.7385 H   0  0  0  0  0  0  0  0  0  0  0  0
    0.0347   -1.4201    2.7661 H   0  0  0  0  0  0  0  0  0  0  0  0
    0.3397   -0.2126    4.0518 H   0  0  0  0  0  0  0  0  0  0  0  0
    1.7000   -1.1774    3.3908 H   0  0  0  0  0  0  0  0  0  0  0  0
   -1.5960    3.8727   -1.2726 H   0  0  0  0  0  0  0  0  0  0  0  0
   -3.2116    3.1197    0.2870 H   0  0  0  0  0  0  0  0  0  0  0  0
   -3.7102   -0.1836    1.4867 H   0  0  0  0  0  0  0  0  0  0  0  0
   -3.8322    0.4103    3.9047 H   0  0  0  0  0  0  0  0  0  0  0  0
   -2.8045    1.8569    3.6178 H   0  0  0  0  0  0  0  0  0  0  0  0
   -2.1248    0.2152    3.4031 H   0  0  0  0  0  0  0  0  0  0  0  0
   -5.1178    1.7010    0.5762 H   0  0  0  0  0  0  0  0  0  0  0  0
   -4.6243    2.7362    1.9561 H   0  0  0  0  0  0  0  0  0  0  0  0
   -5.5757    1.2546    2.2506 H   0  0  0  0  0  0  0  0  0  0  0  0
    1.8594    3.1848   -1.7996 H   0  0  0  0  0  0  0  0  0  0  0  0
    1.4963    4.5418   -0.7135 H   0  0  0  0  0  0  0  0  0  0  0  0
    0.4750    4.2929   -2.1604 H   0  0  0  0  0  0  0  0  0  0  0  0
  1  6  1  6  0  0  0
  1  2  1  0  0  0  0
  1  5  1  0  0  0  0
  2  3  2  0  0  0  0
  3 32  1  0  0  0  0
  3  4  1  0  0  0  0
  4  7  1  0  0  0  0
  5 11  1  0  0  0  0
  5  4  2  0  0  0  0
  6 33  1  0  0  0  0
  7  8  2  0  0  0  0
  7 15  1  0  0  0  0
  8 36  1  0  0  0  0
  9  8  1  0  0  0  0
 10 11  1  0  0  0  0
 10  9  2  0  0  0  0
 11 38  1  6  0  0  0
 11 16  1  0  0  0  0
 12 14  1  0  0  0  0
 12 39  1  0  0  0  0
 12 10  1  0  0  0  0
 13 12  1  0  0  0  0
 14 43  1  0  0  0  0
 15 46  1  0  0  0  0
 15 48  1  0  0  0  0
 16 26  1  0  0  0  0
 16 17  1  0  0  0  0
 16 49  1  1  0  0  0
 17 18  1  0  0  0  0
 18 22  1  1  0  0  0
 19 18  1  0  0  0  0
 19 50  1  0  0  0  0
 20 19  2  0  0  0  0
 21 20  1  0  0  0  0
 21 17  2  0  0  0  0
 22 54  1  0  0  0  0
 22 53  1  0  0  0  0
 23 21  1  0  0  0  0
 24 23  2  0  0  0  0
 24 25  1  0  0  0  0
 25 56  1  0  0  0  0
 25 26  2  0  0  0  0
 26 27  1  0  0  0  0
 27 28  1  0  0  0  0
 28 60  1  0  0  0  0
 28 59  1  0  0  0  0
 28 58  1  0  0  0  0
 29 27  1  0  0  0  0
 29 62  1  0  0  0  0
 29 63  1  0  0  0  0
 30 65  1  0  0  0  0
 30 23  1  0  0  0  0
 31  2  1  0  0  0  0
 34  6  1  0  0  0  0
 35  6  1  0  0  0  0
 37  9  1  0  0  0  0
 40 13  1  0  0  0  0
 41 13  1  0  0  0  0
 42 13  1  0  0  0  0
 44 14  1  0  0  0  0
 45 14  1  0  0  0  0
 47 15  1  0  0  0  0
 51 20  1  0  0  0  0
 52 22  1  0  0  0  0
 55 24  1  0  0  0  0
 57 27  1  0  0  0  0
 61 29  1  0  0  0  0
 64 30  1  0  0  0  0
 66 30  1  0  0  0  0
M  END
