22,26
q = -1.0, confidence = 0.002

 29 32  0  0  0  0  0  0  0  0999 V2000
   -1.7693   -1.7194   -0.3340 N   0  0  0  0  0  0  0  0  0  0  0  0
   -1.1519   -0.5459   -0.4245 C   0  0  0  0  0  0  0  0  0  0  0  0
   -1.8475    0.7288   -0.1108 C   0  0  0  0  0  0  0  0  0  0  0  0
   -5.0658   -0.6671    0.4003 N   0  0  0  0  0  0  0  0  0  0  0  0
   -3.9382   -2.6695    0.1530 N   0  0  0  0  0  2  0  0  0  0  0  0
   -3.7792   -0.4157    0.1586 C   0  0  0  0  0  0  0  0  0  0  0  0
   -5.1315   -2.0373    0.3951 O   0  0  0  0  0  0  0  0  0  0  0  0
   -3.1513    0.7851    0.1158 N   0  0  0  0  0  0  0  0  0  0  0  0
   -3.0778   -1.6614   -0.0008 C   0  0  0  0  0  0  0  0  0  0  0  0
   -1.1262    2.0261   -0.0309 C   0  0  0  0  0  0  0  0  0  0  0  0
   -0.0722    2.2060    0.8882 C   0  0  0  0  0  0  0  0  0  0  0  0
    0.2346    1.3713    1.5339 H   0  0  0  0  0  0  0  0  0  0  0  0
    0.5694    3.4480    0.9897 C   0  0  0  0  0  0  0  0  0  0  0  0
    1.3935    3.5752    1.7063 H   0  0  0  0  0  0  0  0  0  0  0  0
    0.1686    4.5156    0.1706 C   0  0  0  0  0  0  0  0  0  0  0  0
    0.6813    5.4866    0.2432 H   0  0  0  0  0  0  0  0  0  0  0  0
   -0.8947    4.3475   -0.7323 C   0  0  0  0  0  0  0  0  0  0  0  0
   -1.2195    5.1868   -1.3655 H   0  0  0  0  0  0  0  0  0  0  0  0
   -1.5505    3.1126   -0.8239 C   0  0  0  0  0  0  0  0  0  0  0  0
   -2.3963    2.9735   -1.5131 H   0  0  0  0  0  0  0  0  0  0  0  0
    0.2144   -0.6251   -0.9896 C   0  0  0  0  0  0  0  0  0  0  0  0
    1.0964    0.3983   -1.4927 C   0  0  0  0  0  3  0  0  0  0  0  0
    0.9310    1.4785   -1.4405 H   0  0  0  0  0  0  0  0  0  0  0  0
    2.2269   -0.2390   -2.0997 C   0  0  0  0  0  3  0  0  0  0  0  0
    3.0705    0.2732   -2.5760 H   0  0  0  0  0  0  0  0  0  0  0  0
    2.0590   -1.6559   -1.9614 C   0  0  0  0  0  3  0  0  0  0  0  0
    2.7601   -2.4221   -2.3142 H   0  0  0  0  0  0  0  0  0  0  0  0
    0.8318   -1.9038   -1.2855 C   0  0  0  0  0  3  0  0  0  0  0  0
    0.3855   -2.8721   -1.0393 H   0  0  0  0  0  0  0  0  0  0  0  0
  1  9  2  0  0  0  0
  2  1  1  0  0  0  0
  2  3  1  0  0  0  0
  3 10  1  0  0  0  0
  3  8  2  0  0  0  0
  5  7  1  0  0  0  0
  6  4  2  0  0  0  0
  7  4  1  0  0  0  0
  8  6  1  0  0  0  0
  9  5  1  0  0  0  0
  9  6  1  0  0  0  0
 10 11  1  0  0  0  0
 11 13  2  0  0  0  0
 11 12  1  0  0  0  0
 13 14  1  0  0  0  0
 15 16  1  0  0  0  0
 15 13  1  0  0  0  0
 17 15  2  0  0  0  0
 18 17  1  0  0  0  0
 19 17  1  0  0  0  0
 19 10  2  0  0  0  0
 20 19  1  0  0  0  0
 21  2  2  0  0  0  0
 22 23  1  0  0  0  0
 22 21  1  0  0  0  0
 24 26  1  0  0  0  0
 24 22  1  0  0  0  0
 25 24  1  0  0  0  0
 26 28  1  0  0  0  0
 27 26  1  0  0  0  0
 28 29  1  0  0  0  0
 28 21  1  0  0  0  0
M  END
