1,5
q = 0.0, confidence = 0.996

 21 21  0  0  1  0  0  0  0  0999 V2000
    1.4124   -0.7104   -1.6082 C   0  0  0  0  0  3  0  0  0  0  0  0
    1.8802    0.1756   -2.0613 H   0  0  0  0  0  0  0  0  0  0  0  0
    0.2915   -1.3303   -2.2398 C   0  0  0  0  0  3  0  0  0  0  0  0
   -0.1063   -0.9324   -3.1838 H   0  0  0  0  0  0  0  0  0  0  0  0
   -0.3829   -2.3823   -1.5535 C   0  0  0  0  0  3  0  0  0  0  0  0
   -1.3175   -2.7849   -1.9734 H   0  0  0  0  0  0  0  0  0  0  0  0
    0.1235   -2.9064   -0.3145 C   0  0  0  0  0  0  0  0  0  0  0  0
   -0.4033   -3.7143    0.2121 H   0  0  0  0  0  0  0  0  0  0  0  0
    1.2637   -2.3028    0.2723 C   0  0  0  0  0  0  0  0  0  0  0  0
    1.6099   -2.5974    1.2744 H   0  0  0  0  0  0  0  0  0  0  0  0
    1.9282   -1.1987   -0.3613 C   0  0  2  0  0  3  0  0  0  0  0  0
    3.5930   -1.0570    1.3453 O   0  0  0  0  0  0  0  0  0  0  0  0
    3.0707   -0.5587    0.3704 C   0  0  0  0  0  0  0  0  0  0  0  0
    3.4148    0.6268   -0.1870 O   0  0  0  0  0  0  0  0  0  0  0  0
    4.5589    1.3114    0.4166 C   0  0  0  0  0  0  0  0  0  0  0  0
    4.4017    2.3755    0.1556 H   0  0  0  0  0  0  0  0  0  0  0  0
    4.4910    1.1870    1.5153 H   0  0  0  0  0  0  0  0  0  0  0  0
    5.8706    0.7804   -0.1273 C   0  0  0  0  0  0  0  0  0  0  0  0
    6.7085    1.3691    0.2962 H   0  0  0  0  0  0  0  0  0  0  0  0
    5.9145    0.8665   -1.2309 H   0  0  0  0  0  0  0  0  0  0  0  0
    6.0220   -0.2774    0.1617 H   0  0  0  0  0  0  0  0  0  0  0  0
  1 11  1  0  0  0  0
  2  1  1  0  0  0  0
  3  1  1  0  0  0  0
  3  5  1  0  0  0  0
  4  3  1  0  0  0  0
  5  7  1  0  0  0  0
  6  5  1  0  0  0  0
  7  8  1  0  0  0  0
  7  9  2  0  0  0  0
  9 10  1  0  0  0  0
 11  9  1  0  0  0  0
 11 13  1  1  0  0  0
 13 12  2  0  0  0  0
 14 13  1  0  0  0  0
 14 15  1  0  0  0  0
 15 17  1  0  0  0  0
 16 15  1  0  0  0  0
 18 21  1  0  0  0  0
 18 19  1  0  0  0  0
 18 15  1  0  0  0  0
 20 18  1  0  0  0  0
M  END
