14,18
q = 0.0, confidence = 0.998

 40 42  0  0  1  0  0  0  0  0999 V2000
   -2.7036    3.0340   -0.6246 S   0  0  0  0  0  0  0  0  0  0  0  0
    4.6195   -1.5897    0.0779 S   0  0  0  0  0  0  0  0  0  0  0  0
    0.0508    3.0848   -0.7289 C   0  0  0  0  0  0  0  0  0  0  0  0
    1.3810    2.5934   -0.2025 C   0  0  0  0  0  0  0  0  0  0  0  0
    1.8962    3.0766    1.0167 C   0  0  0  0  0  0  0  0  0  0  0  0
    2.9264    2.3869    1.6763 C   0  0  0  0  0  0  0  0  0  0  0  0
    3.3816    1.1539    1.1833 C   0  0  0  0  0  0  0  0  0  0  0  0
    2.8849    0.6532   -0.0353 C   0  0  0  0  0  0  0  0  0  0  0  0
    3.0364   -0.8084   -0.4274 C   0  0  2  0  0  0  0  0  0  0  0  0
    1.9711    1.4417   -0.7645 C   0  0  0  0  0  0  0  0  0  0  0  0
    1.8806   -1.6655    0.2134 C   0  0  0  0  0  0  0  0  0  0  0  0
    0.5511   -1.1743   -0.2926 C   0  0  2  0  0  3  0  0  0  0  0  0
   -0.0844   -1.7412   -1.4424 C   0  0  0  0  0  3  0  0  0  0  0  0
   -1.1554   -1.0752   -2.0888 C   0  0  0  0  0  3  0  0  0  0  0  0
   -1.5774    0.2037   -1.6130 C   0  0  0  0  0  0  0  0  0  0  0  0
   -0.9715    0.7933   -0.4780 C   0  0  0  0  0  0  0  0  0  0  0  0
   -1.1305    2.2522   -0.1019 C   0  0  2  0  0  0  0  0  0  0  0  0
    0.0059    0.0275    0.2384 C   0  0  0  0  0  3  0  0  0  0  0  0
   -3.8590    2.1991    0.5077 C   0  0  0  0  0  0  0  0  0  0  0  0
    5.7736   -0.5535   -0.8701 C   0  0  0  0  0  0  0  0  0  0  0  0
   -0.0064    2.9942   -1.8334 H   0  0  0  0  0  0  0  0  0  0  0  0
   -0.1193    4.1485   -0.4664 H   0  0  0  0  0  0  0  0  0  0  0  0
    1.4608    3.9814    1.4699 H   0  0  0  0  0  0  0  0  0  0  0  0
    3.3337    2.7825    2.6192 H   0  0  0  0  0  0  0  0  0  0  0  0
    4.1037    0.5451    1.7502 H   0  0  0  0  0  0  0  0  0  0  0  0
    2.9503   -0.9019   -1.5321 H   0  0  0  0  0  0  0  0  0  0  0  0
    1.5869    1.0623   -1.7245 H   0  0  0  0  0  0  0  0  0  0  0  0
    1.9447   -1.5739    1.3165 H   0  0  0  0  0  0  0  0  0  0  0  0
    2.0424   -2.7299   -0.0511 H   0  0  0  0  0  0  0  0  0  0  0  0
    0.2574   -2.7178   -1.8156 H   0  0  0  0  0  0  0  0  0  0  0  0
   -1.6639   -1.5421   -2.9427 H   0  0  0  0  0  0  0  0  0  0  0  0
   -2.3878    0.7567   -2.1121 H   0  0  0  0  0  0  0  0  0  0  0  0
   -1.0594    2.3493    1.0029 H   0  0  0  0  0  0  0  0  0  0  0  0
    0.4272    0.4352    1.1670 H   0  0  0  0  0  0  0  0  0  0  0  0
   -4.8433    2.6834    0.3612 H   0  0  0  0  0  0  0  0  0  0  0  0
   -3.9485    1.1200    0.2823 H   0  0  0  0  0  0  0  0  0  0  0  0
   -3.5455    2.3321    1.5624 H   0  0  0  0  0  0  0  0  0  0  0  0
    6.7920   -0.9242   -0.6458 H   0  0  0  0  0  0  0  0  0  0  0  0
    5.5925   -0.6416   -1.9604 H   0  0  0  0  0  0  0  0  0  0  0  0
    5.7002    0.5096   -0.5647 H   0  0  0  0  0  0  0  0  0  0  0  0
  1 17  1  0  0  0  0
  1 19  1  0  0  0  0
  3 22  1  0  0  0  0
  3  4  1  0  0  0  0
  3 17  1  0  0  0  0
  4  5  1  0  0  0  0
  5 23  1  0  0  0  0
  5  6  2  0  0  0  0
  6 24  1  0  0  0  0
  7  6  1  0  0  0  0
  7 25  1  0  0  0  0
  8  7  2  0  0  0  0
  9 26  1  6  0  0  0
  9  8  1  0  0  0  0
  9  2  1  0  0  0  0
  9 11  1  0  0  0  0
 10  4  2  0  0  0  0
 10  8  1  0  0  0  0
 11 28  1  0  0  0  0
 12 13  1  6  0  0  0
 12 11  1  0  0  0  0
 12 18  1  0  0  0  0
 14 15  1  0  0  0  0
 14 13  1  0  0  0  0
 15 16  2  0  0  0  0
 16 17  1  0  0  0  0
 16 18  1  0  0  0  0
 17 33  1  1  0  0  0
 18 34  1  0  0  0  0
 19 37  1  0  0  0  0
 20 38  1  0  0  0  0
 20 40  1  0  0  0  0
 20  2  1  0  0  0  0
 21  3  1  0  0  0  0
 27 10  1  0  0  0  0
 29 11  1  0  0  0  0
 30 13  1  0  0  0  0
 31 14  1  0  0  0  0
 32 15  1  0  0  0  0
 35 19  1  0  0  0  0
 36 19  1  0  0  0  0
 39 20  1  0  0  0  0
M  END
