1,7
q = 0.0, confidence = 0.96

 30 29  0  0  0  0  0  0  0  0999 V2000
   -2.1711    1.7432    0.0279 C   0  0  0  0  0  3  0  0  0  0  0  0
   -1.4184    1.6569   -1.1965 C   0  0  0  0  0  3  0  0  0  0  0  0
   -0.2382    2.5621   -1.4616 C   0  0  0  0  0  0  0  0  0  0  0  0
    0.6419    2.5532   -0.2193 C   0  0  0  0  0  0  0  0  0  0  0  0
    1.1003    3.5605    0.3048 O   0  0  0  0  0  0  0  0  0  0  0  0
    0.8259    1.2006    0.3805 C   0  0  0  0  0  3  0  0  0  0  0  0
    1.1440    0.0244   -0.3895 C   0  0  0  0  0  3  0  0  0  0  0  0
    2.1313   -0.9806    0.1711 C   0  0  0  0  0  0  0  0  0  0  0  0
    3.6388   -0.6517   -0.0571 C   0  0  0  0  0  0  0  0  0  0  0  0
    4.4578   -1.8141    0.5339 C   0  0  0  0  0  0  0  0  0  0  0  0
    4.0378    0.6557    0.6502 C   0  0  0  0  0  0  0  0  0  0  0  0
    3.9416   -0.5361   -1.5622 C   0  0  0  0  0  0  0  0  0  0  0  0
   -1.8792    2.4934    0.7816 H   0  0  0  0  0  0  0  0  0  0  0  0
   -3.2552    1.5443    0.0095 H   0  0  0  0  0  0  0  0  0  0  0  0
   -1.9623    1.3155   -2.0935 H   0  0  0  0  0  0  0  0  0  0  0  0
   -0.5273    3.6086   -1.6891 H   0  0  0  0  0  0  0  0  0  0  0  0
    0.3532    2.1913   -2.3277 H   0  0  0  0  0  0  0  0  0  0  0  0
    1.2457    1.2577    1.3976 H   0  0  0  0  0  0  0  0  0  0  0  0
    1.2128    0.1688   -1.4842 H   0  0  0  0  0  0  0  0  0  0  0  0
    1.9472   -1.9842   -0.2705 H   0  0  0  0  0  0  0  0  0  0  0  0
    1.9492   -1.0879    1.2623 H   0  0  0  0  0  0  0  0  0  0  0  0
    4.2100   -2.7756    0.0373 H   0  0  0  0  0  0  0  0  0  0  0  0
    5.5461   -1.6387    0.4076 H   0  0  0  0  0  0  0  0  0  0  0  0
    4.2583   -1.9326    1.6191 H   0  0  0  0  0  0  0  0  0  0  0  0
    3.4957    1.5345    0.2488 H   0  0  0  0  0  0  0  0  0  0  0  0
    3.8290    0.6027    1.7388 H   0  0  0  0  0  0  0  0  0  0  0  0
    5.1238    0.8467    0.5258 H   0  0  0  0  0  0  0  0  0  0  0  0
    3.4206    0.3284   -2.0212 H   0  0  0  0  0  0  0  0  0  0  0  0
    5.0285   -0.3938   -1.7336 H   0  0  0  0  0  0  0  0  0  0  0  0
    3.6325   -1.4526   -2.1081 H   0  0  0  0  0  0  0  0  0  0  0  0
  1 13  1  0  0  0  0
  2  1  1  0  0  0  0
  3  2  1  0  0  0  0
  3  4  1  0  0  0  0
  4  5  2  0  0  0  0
  4  6  1  0  0  0  0
  6 18  1  0  0  0  0
  7  8  1  0  0  0  0
  7  6  1  0  0  0  0
  8 21  1  0  0  0  0
  9  8  1  0  0  0  0
  9 10  1  0  0  0  0
  9 11  1  0  0  0  0
 10 24  1  0  0  0  0
 11 26  1  0  0  0  0
 12  9  1  0  0  0  0
 14  1  1  0  0  0  0
 15  2  1  0  0  0  0
 16  3  1  0  0  0  0
 17  3  1  0  0  0  0
 19  7  1  0  0  0  0
 20  8  1  0  0  0  0
 22 10  1  0  0  0  0
 23 10  1  0  0  0  0
 25 11  1  0  0  0  0
 27 11  1  0  0  0  0
 28 12  1  0  0  0  0
 29 12  1  0  0  0  0
 30 12  1  0  0  0  0
M  END
