9,12
q = 0.0, confidence = 0.914

 39 40  0  0  1  0  0  0  0  0999 V2000
    1.5296    1.1908    1.6132 N   0  0  0  0  0  0  0  0  0  0  0  0
   -3.7940    1.7697   -0.1777 C   0  0  0  0  0  0  0  0  0  0  0  0
   -5.0729    1.9023   -0.7315 C   0  0  0  0  0  0  0  0  0  0  0  0
   -5.9439    0.8014   -0.7640 C   0  0  0  0  0  0  0  0  0  0  0  0
   -5.5195   -0.4309   -0.2400 C   0  0  0  0  0  0  0  0  0  0  0  0
   -4.2378   -0.5651    0.3077 C   0  0  0  0  0  0  0  0  0  0  0  0
   -3.3504    0.5359    0.3536 C   0  0  0  0  0  0  0  0  0  0  0  0
   -1.9952    0.4608    0.9279 C   0  0  0  0  0  3  0  0  0  0  0  0
   -1.5044   -0.6368    1.7067 C   0  0  0  0  0  3  0  0  0  0  0  0
   -0.1187   -0.6739    2.0325 C   0  0  1  0  0  3  0  0  0  0  0  0
    0.5214   -1.7207    2.9013 C   0  0  0  0  0  0  0  0  0  0  0  0
    0.6428    0.3397    1.3505 C   0  0  0  0  0  3  0  0  0  0  0  0
    2.2588    1.8874    0.5438 C   0  0  1  0  0  0  0  0  0  0  0  0
    2.9130    3.1495    1.1154 C   0  0  0  0  0  0  0  0  0  0  0  0
    3.2745    0.9566   -0.1032 C   0  0  0  0  0  0  0  0  0  0  0  0
    4.1278    0.1655    0.6924 C   0  0  0  0  0  0  0  0  0  0  0  0
    5.0642   -0.6909    0.0976 C   0  0  0  0  0  0  0  0  0  0  0  0
    5.1645   -0.7654   -1.3015 C   0  0  0  0  0  0  0  0  0  0  0  0
    4.3212    0.0204   -2.1005 C   0  0  0  0  0  0  0  0  0  0  0  0
    3.3803    0.8743   -1.5039 C   0  0  0  0  0  0  0  0  0  0  0  0
   -3.1122    2.6346   -0.1561 H   0  0  0  0  0  0  0  0  0  0  0  0
   -5.3932    2.8725   -1.1407 H   0  0  0  0  0  0  0  0  0  0  0  0
   -6.9497    0.9017   -1.1989 H   0  0  0  0  0  0  0  0  0  0  0  0
   -6.1936   -1.3006   -0.2631 H   0  0  0  0  0  0  0  0  0  0  0  0
   -3.9247   -1.5447    0.6975 H   0  0  0  0  0  0  0  0  0  0  0  0
   -1.5293    1.4424    1.1076 H   0  0  0  0  0  0  0  0  0  0  0  0
   -2.1494   -1.4807    1.9994 H   0  0  0  0  0  0  0  0  0  0  0  0
   -0.0729   -2.6557    2.9190 H   0  0  0  0  0  0  0  0  0  0  0  0
    0.6048   -1.3393    3.9413 H   0  0  0  0  0  0  0  0  0  0  0  0
    1.5450   -1.9566    2.5540 H   0  0  0  0  0  0  0  0  0  0  0  0
    1.5320    2.1853   -0.2454 H   0  0  0  0  0  0  0  0  0  0  0  0
    3.4318    3.7157    0.3175 H   0  0  0  0  0  0  0  0  0  0  0  0
    3.6560    2.8820    1.8929 H   0  0  0  0  0  0  0  0  0  0  0  0
    2.1482    3.8036    1.5799 H   0  0  0  0  0  0  0  0  0  0  0  0
    4.0385    0.2141    1.7888 H   0  0  0  0  0  0  0  0  0  0  0  0
    5.7191   -1.3099    0.7300 H   0  0  0  0  0  0  0  0  0  0  0  0
    5.8955   -1.4430   -1.7682 H   0  0  0  0  0  0  0  0  0  0  0  0
    4.3863   -0.0393   -3.1977 H   0  0  0  0  0  0  0  0  0  0  0  0
    2.7057    1.4760   -2.1333 H   0  0  0  0  0  0  0  0  0  0  0  0
  2 21  1  0  0  0  0
  2  7  1  0  0  0  0
  3  2  2  0  0  0  0
  4  3  1  0  0  0  0
  4  5  2  0  0  0  0
  5  6  1  0  0  0  0
  6  7  2  0  0  0  0
  6 25  1  0  0  0  0
  7  8  1  0  0  0  0
  8 26  1  0  0  0  0
  8  9  1  0  0  0  0
  9 27  1  0  0  0  0
  9 10  1  0  0  0  0
 10 12  1  6  0  0  0
 10 11  1  0  0  0  0
 11 28  1  0  0  0  0
 11 29  1  0  0  0  0
 12  1  2  0  0  0  0
 13 31  1  6  0  0  0
 13 14  1  0  0  0  0
 13  1  1  0  0  0  0
 14 34  1  0  0  0  0
 14 33  1  0  0  0  0
 15 13  1  0  0  0  0
 15 16  1  0  0  0  0
 16 35  1  0  0  0  0
 17 16  2  0  0  0  0
 17 36  1  0  0  0  0
 18 17  1  0  0  0  0
 19 20  1  0  0  0  0
 19 18  2  0  0  0  0
 20 15  2  0  0  0  0
 22  3  1  0  0  0  0
 23  4  1  0  0  0  0
 24  5  1  0  0  0  0
 30 11  1  0  0  0  0
 32 14  1  0  0  0  0
 37 18  1  0  0  0  0
 38 19  1  0  0  0  0
 39 20  1  0  0  0  0
M  END
