2,4
q = -2.0, confidence = 0.59

  9  8  0  0  0  0  0  0  0  0999 V2000
    4.5453    1.0701   -0.5740 O   0  0  0  0  0  0  0  0  0  0  0  0
    2.5608    0.5624    0.7999 C   0  0  0  0  0  3  0  0  0  0  0  0
    3.3983    0.6738   -0.4460 C   0  0  0  0  0  0  0  0  0  0  0  0
    2.4253    0.1482   -1.5071 C   0  0  0  0  0  3  0  0  0  0  0  0
    2.8624   -0.6929   -2.0842 H   0  0  0  0  0  0  0  0  0  0  0  0
    2.1087    0.9243   -2.2343 H   0  0  0  0  0  0  0  0  0  0  0  0
    2.8919    1.0538    2.0110 C   0  0  0  0  0  0  0  0  0  0  0  0
    3.8681    1.5574    2.1392 H   0  0  0  0  0  0  0  0  0  0  0  0
    2.2241    1.0003    2.8856 H   0  0  0  0  0  0  0  0  0  0  0  0
  1  3  2  0  0  0  0
  2  7  2  0  0  0  0
  3  2  1  0  0  0  0
  4  3  1  0  0  0  0
  5  4  1  0  0  0  0
  6  4  1  0  0  0  0
  7  8  1  0  0  0  0
  7  9  1  0  0  0  0
M  END
