4,7
q = 0.0, confidence = 0.93

 31 33  0  0  0  0  0  0  0  0999 V2000
    1.9359   -0.0637    2.0142 S   0  0  0  0  0  0  0  0  0  0  0  0
    3.4156   -0.0879    1.9772 O   0  0  0  0  0  0  0  0  0  0  0  0
    1.2489   -0.0789    3.3273 O   0  0  0  0  0  0  0  0  0  0  0  0
    1.2302    1.1774    0.8815 C   0  0  0  0  0  3  0  0  0  0  0  0
   -0.0959    0.7282    0.5239 C   0  0  0  0  0  0  0  0  0  0  0  0
   -0.1106   -0.7244    0.4828 C   0  0  0  0  0  0  0  0  0  0  0  0
    1.1872   -1.2367    0.8492 C   0  0  0  0  0  3  0  0  0  0  0  0
   -1.2708    1.6198    0.3770 C   0  0  0  0  0  0  0  0  0  0  0  0
   -2.5149    1.2418    0.9292 C   0  0  0  0  0  0  0  0  0  0  0  0
   -3.6140    2.1090    0.8664 C   0  0  0  0  0  0  0  0  0  0  0  0
   -3.4918    3.3646    0.2524 C   0  0  0  0  0  0  0  0  0  0  0  0
   -2.2548    3.7567   -0.2846 C   0  0  0  0  0  0  0  0  0  0  0  0
   -1.1527    2.8955   -0.2164 C   0  0  0  0  0  0  0  0  0  0  0  0
   -1.2794   -1.5811    0.1729 C   0  0  0  0  0  0  0  0  0  0  0  0
   -2.0894   -1.3604   -0.9612 C   0  0  0  0  0  0  0  0  0  0  0  0
   -3.1999   -2.1766   -1.2046 C   0  0  0  0  0  0  0  0  0  0  0  0
   -3.5171   -3.2222   -0.3204 C   0  0  0  0  0  0  0  0  0  0  0  0
   -2.7145   -3.4497    0.8078 C   0  0  0  0  0  0  0  0  0  0  0  0
   -1.5983   -2.6361    1.0531 C   0  0  0  0  0  0  0  0  0  0  0  0
    1.4942    2.2357    1.0171 H   0  0  0  0  0  0  0  0  0  0  0  0
    1.4261   -2.3077    0.9102 H   0  0  0  0  0  0  0  0  0  0  0  0
   -2.6157    0.2693    1.4298 H   0  0  0  0  0  0  0  0  0  0  0  0
   -4.5736    1.7998    1.3073 H   0  0  0  0  0  0  0  0  0  0  0  0
   -4.3575    4.0417    0.1988 H   0  0  0  0  0  0  0  0  0  0  0  0
   -2.1458    4.7423   -0.7613 H   0  0  0  0  0  0  0  0  0  0  0  0
   -0.1909    3.2163   -0.6413 H   0  0  0  0  0  0  0  0  0  0  0  0
   -1.8347   -0.5455   -1.6549 H   0  0  0  0  0  0  0  0  0  0  0  0
   -3.8209   -2.0001   -2.0956 H   0  0  0  0  0  0  0  0  0  0  0  0
   -4.3895   -3.8638   -0.5157 H   0  0  0  0  0  0  0  0  0  0  0  0
   -2.9574   -4.2665    1.5040 H   0  0  0  0  0  0  0  0  0  0  0  0
   -0.9755   -2.7993    1.9458 H   0  0  0  0  0  0  0  0  0  0  0  0
  1  3  2  0  0  0  0
  2  1  2  0  0  0  0
  4 20  1  0  0  0  0
  4  1  1  0  0  0  0
  5  4  1  0  0  0  0
  6  5  2  0  0  0  0
  6  7  1  0  0  0  0
  7 21  1  0  0  0  0
  7  1  1  0  0  0  0
  8  5  1  0  0  0  0
  8  9  1  0  0  0  0
  9 22  1  0  0  0  0
 10  9  2  0  0  0  0
 10 23  1  0  0  0  0
 11 10  1  0  0  0  0
 12 13  1  0  0  0  0
 12 11  2  0  0  0  0
 13  8  2  0  0  0  0
 14  6  1  0  0  0  0
 14 19  1  0  0  0  0
 15 14  2  0  0  0  0
 16 15  1  0  0  0  0
 16 17  2  0  0  0  0
 17 18  1  0  0  0  0
 18 19  2  0  0  0  0
 18 30  1  0  0  0  0
 19 31  1  0  0  0  0
 24 11  1  0  0  0  0
 25 12  1  0  0  0  0
 26 13  1  0  0  0  0
 27 15  1  0  0  0  0
 28 16  1  0  0  0  0
 29 17  1  0  0  0  0
M  END
