8,11
q = -1.0, confidence = 0.01

 52 57  0  0  1  0  0  0  0  0999 V2000
    1.7259    2.1132   -1.5004 N   0  0  0  0  0  0  0  0  0  0  0  0
    3.7824    2.5872   -0.6067 O   0  0  0  0  0  0  0  0  0  0  0  0
   -0.1983    1.5016   -2.6123 O   0  0  0  0  0  0  0  0  0  0  0  0
    2.9574    1.7360   -0.9125 C   0  0  0  0  0  0  0  0  0  0  0  0
    0.7105    1.2059   -1.8532 C   0  0  0  0  0  0  0  0  0  0  0  0
    0.7582   -0.1014   -1.0231 C   0  0  1  0  0  0  0  0  0  0  0  0
    0.2591    0.3397    0.3943 C   0  0  2  0  0  3  0  0  0  0  0  0
   -1.0895    0.8022    0.4293 C   0  0  0  0  0  3  0  0  0  0  0  0
   -1.4140    1.4534    1.2545 H   0  0  0  0  0  0  0  0  0  0  0  0
   -2.0834    0.3243   -0.4882 C   0  0  1  0  0  3  0  0  0  0  0  0
   -1.6602   -0.7392   -1.3567 C   0  0  0  0  0  3  0  0  0  0  0  0
   -2.4110   -1.2932   -1.9393 H   0  0  0  0  0  0  0  0  0  0  0  0
   -0.2994   -1.1367   -1.3971 C   0  0  1  0  0  3  0  0  0  0  0  0
    0.1013   -2.4213   -1.9497 C   0  0  0  0  0  0  0  0  0  0  0  0
   -0.6954   -3.0806   -2.3284 H   0  0  0  0  0  0  0  0  0  0  0  0
    1.3919   -2.8519   -1.8918 C   0  0  0  0  0  0  0  0  0  0  0  0
    1.6615   -3.8588   -2.2433 H   0  0  0  0  0  0  0  0  0  0  0  0
    2.4559   -1.9913   -1.3910 C   0  0  0  0  0  0  0  0  0  0  0  0
    3.7989   -2.4266   -1.3146 C   0  0  0  0  0  0  0  0  0  0  0  0
    4.0271   -3.4791   -1.5438 H   0  0  0  0  0  0  0  0  0  0  0  0
    4.8326   -1.5386   -0.9816 C   0  0  0  0  0  0  0  0  0  0  0  0
    5.8684   -1.9033   -0.9143 H   0  0  0  0  0  0  0  0  0  0  0  0
    4.5533   -0.1785   -0.7996 C   0  0  0  0  0  0  0  0  0  0  0  0
    5.3429    0.5661   -0.6240 H   0  0  0  0  0  0  0  0  0  0  0  0
    3.2208    0.2685   -0.8785 C   0  0  0  0  0  0  0  0  0  0  0  0
    2.1672   -0.6404   -1.0717 C   0  0  0  0  0  0  0  0  0  0  0  0
    1.5704    3.5225   -1.8467 C   0  0  0  0  0  0  0  0  0  0  0  0
    1.6893    4.1408   -0.9359 H   0  0  0  0  0  0  0  0  0  0  0  0
    0.5686    3.6509   -2.2914 H   0  0  0  0  0  0  0  0  0  0  0  0
    2.3458    3.8373   -2.5726 H   0  0  0  0  0  0  0  0  0  0  0  0
    1.2117    0.8295    1.4286 C   0  0  0  0  0  0  0  0  0  0  0  0
    1.1748    2.1898    1.8141 C   0  0  0  0  0  0  0  0  0  0  0  0
    0.4289    2.8598    1.3600 H   0  0  0  0  0  0  0  0  0  0  0  0
    2.0971    2.7064    2.7333 C   0  0  0  0  0  0  0  0  0  0  0  0
    2.0555    3.7712    3.0075 H   0  0  0  0  0  0  0  0  0  0  0  0
    3.0789    1.8721    3.2876 C   0  0  0  0  0  0  0  0  0  0  0  0
    3.8095    2.2769    4.0040 H   0  0  0  0  0  0  0  0  0  0  0  0
    3.1250    0.5184    2.9192 C   0  0  0  0  0  0  0  0  0  0  0  0
    3.8888   -0.1460    3.3505 H   0  0  0  0  0  0  0  0  0  0  0  0
    2.2047    0.0023    1.9984 C   0  0  0  0  0  0  0  0  0  0  0  0
    2.2572   -1.0574    1.7174 H   0  0  0  0  0  0  0  0  0  0  0  0
   -3.4658    0.8581   -0.4819 C   0  0  0  0  0  0  0  0  0  0  0  0
   -4.5873    0.0322   -0.7163 C   0  0  0  0  0  0  0  0  0  0  0  0
   -4.4518   -1.0500   -0.8600 H   0  0  0  0  0  0  0  0  0  0  0  0
   -5.8798    0.5703   -0.7240 C   0  0  0  0  0  0  0  0  0  0  0  0
   -6.7423   -0.0909   -0.8968 H   0  0  0  0  0  0  0  0  0  0  0  0
   -6.0786    1.9427   -0.4972 C   0  0  0  0  0  0  0  0  0  0  0  0
   -7.0957    2.3626   -0.5011 H   0  0  0  0  0  0  0  0  0  0  0  0
   -4.9723    2.7733   -0.2657 C   0  0  0  0  0  0  0  0  0  0  0  0
   -5.1159    3.8512   -0.0960 H   0  0  0  0  0  0  0  0  0  0  0  0
   -3.6770    2.2362   -0.2609 C   0  0  0  0  0  0  0  0  0  0  0  0
   -2.8104    2.8978   -0.1115 H   0  0  0  0  0  0  0  0  0  0  0  0
  1  4  1  0  0  0  0
  3  5  2  0  0  0  0
  4 25  1  0  0  0  0
  4  2  2  0  0  0  0
  5  1  1  0  0  0  0
  6  5  1  6  0  0  0
  6  7  1  0  0  0  0
  7  8  1  0  0  0  0
  7 31  1  6  0  0  0
  8  9  1  0  0  0  0
 10 42  1  1  0  0  0
 10  8  1  0  0  0  0
 11 10  1  0  0  0  0
 12 11  1  0  0  0  0
 13 14  1  6  0  0  0
 13 11  1  0  0  0  0
 13  6  1  0  0  0  0
 14 16  2  0  0  0  0
 15 14  1  0  0  0  0
 16 18  1  0  0  0  0
 17 16  1  0  0  0  0
 18 19  2  0  0  0  0
 18 26  1  0  0  0  0
 19 21  1  0  0  0  0
 20 19  1  0  0  0  0
 21 22  1  0  0  0  0
 21 23  2  0  0  0  0
 23 24  1  0  0  0  0
 25 23  1  0  0  0  0
 26  6  1  0  0  0  0
 26 25  2  0  0  0  0
 27  1  1  0  0  0  0
 27 28  1  0  0  0  0
 29 27  1  0  0  0  0
 30 27  1  0  0  0  0
 31 32  2  0  0  0  0
 31 40  1  0  0  0  0
 32 34  1  0  0  0  0
 33 32  1  0  0  0  0
 34 35  1  0  0  0  0
 34 36  2  0  0  0  0
 36 37  1  0  0  0  0
 38 36  1  0  0  0  0
 38 39  1  0  0  0  0
 40 38  2  0  0  0  0
 41 40  1  0  0  0  0
 42 51  1  0  0  0  0
 43 42  2  0  0  0  0
 44 43  1  0  0  0  0
 45 43  1  0  0  0  0
 45 47  2  0  0  0  0
 46 45  1  0  0  0  0
 47 49  1  0  0  0  0
 48 47  1  0  0  0  0
 49 51  2  0  0  0  0
 49 50  1  0  0  0  0
 51 52  1  0  0  0  0
M  END
