2,6
q = 0.0, confidence = 0.988

 23 24  0  0  0  0  0  0  0  0999 V2000
   -1.3298    0.9141   -0.7270 C   0  0  0  0  0  0  0  0  0  0  0  0
   -0.1736    1.0701   -1.5939 C   0  0  0  0  0  3  0  0  0  0  0  0
    1.1540    1.4153   -1.3286 C   0  0  0  0  0  3  0  0  0  0  0  0
    1.8851    1.6683   -0.0001 B   0  0  0  0  0  0  0  0  0  0  0  0
    1.1540    1.4154    1.3285 C   0  0  0  0  0  0  0  0  0  0  0  0
   -0.1737    1.0704    1.5938 C   0  0  0  0  0  3  0  0  0  0  0  0
   -1.3299    0.9143    0.7268 C   0  0  0  0  0  0  0  0  0  0  0  0
   -2.5665    0.6071    1.3930 C   0  0  0  0  0  0  0  0  0  0  0  0
   -3.7387    0.3539    0.7100 C   0  0  0  0  0  0  0  0  0  0  0  0
   -3.7387    0.3538   -0.7102 C   0  0  0  0  0  0  0  0  0  0  0  0
   -2.5665    0.6068   -1.3932 C   0  0  0  0  0  0  0  0  0  0  0  0
    3.4299    2.0312   -0.0001 C   0  0  0  0  0  0  0  0  0  0  0  0
   -0.4185    0.8330   -2.6442 H   0  0  0  0  0  0  0  0  0  0  0  0
    1.7905    1.3535   -2.2297 H   0  0  0  0  0  0  0  0  0  0  0  0
    1.7904    1.3537    2.2296 H   0  0  0  0  0  0  0  0  0  0  0  0
   -0.4187    0.8335    2.6441 H   0  0  0  0  0  0  0  0  0  0  0  0
   -2.5589    0.5977    2.4933 H   0  0  0  0  0  0  0  0  0  0  0  0
   -4.6663    0.1471    1.2638 H   0  0  0  0  0  0  0  0  0  0  0  0
   -4.6663    0.1469   -1.2640 H   0  0  0  0  0  0  0  0  0  0  0  0
   -2.5588    0.5972   -2.4934 H   0  0  0  0  0  0  0  0  0  0  0  0
    3.9663    1.6636    0.8982 H   0  0  0  0  0  0  0  0  0  0  0  0
    3.5357    3.1397   -0.0003 H   0  0  0  0  0  0  0  0  0  0  0  0
    3.9663    1.6633   -0.8982 H   0  0  0  0  0  0  0  0  0  0  0  0
  1  7  1  0  0  0  0
  2  3  1  0  0  0  0
  2  1  1  0  0  0  0
  3  4  1  0  0  0  0
  4  5  2  0  0  0  0
  5  6  1  0  0  0  0
  5 15  1  0  0  0  0
  6 16  1  0  0  0  0
  7  8  2  0  0  0  0
  7  6  1  0  0  0  0
  8 17  1  0  0  0  0
  9 18  1  0  0  0  0
  9  8  1  0  0  0  0
 10  9  2  0  0  0  0
 11  1  2  0  0  0  0
 11 10  1  0  0  0  0
 12  4  1  0  0  0  0
 12 21  1  0  0  0  0
 13  2  1  0  0  0  0
 14  3  1  0  0  0  0
 19 10  1  0  0  0  0
 20 11  1  0  0  0  0
 22 12  1  0  0  0  0
 23 12  1  0  0  0  0
M  END
