7,12
q = -2.0, confidence = 0.782

 56 58  0  0  1  0  0  0  0  0999 V2000
   -0.0652   -1.3550   -2.9228 O   0  0  0  0  0  0  0  0  0  0  0  0
   -2.7219    2.3098    0.5105 O   0  0  0  0  0  0  0  0  0  0  0  0
   -2.9524    0.5950    1.9785 O   0  0  0  0  0  0  0  0  0  0  0  0
   -0.1229    3.5678   -0.9138 O   0  0  0  0  0  0  0  0  0  0  0  0
    0.1392    2.7393    1.1810 O   0  0  0  0  0  0  0  0  0  0  0  0
    1.0667    0.4219   -0.0921 N   0  0  0  0  0  0  0  0  0  0  0  0
   -1.2627    0.4120    0.3485 C   0  0  2  0  0  3  0  0  0  0  0  0
   -0.5811   -0.6204    1.1101 C   0  0  0  0  0  3  0  0  0  0  0  0
    0.8012   -0.5759    0.7798 C   0  0  2  0  0  3  0  0  0  0  0  0
   -0.1987    1.1314   -0.5208 C   0  0  2  0  0  0  0  0  0  0  0  0
   -0.4840    0.8530   -2.0285 C   0  0  0  0  0  0  0  0  0  0  0  0
   -0.5901   -0.7073   -2.0410 C   0  0  0  0  0  3  0  0  0  0  0  0
   -1.8454    1.4620   -2.4343 C   0  0  0  0  0  0  0  0  0  0  0  0
    0.5578    1.3431   -3.0478 C   0  0  0  0  0  0  0  0  0  0  0  0
   -2.3626    1.2113    0.9193 C   0  0  0  0  0  0  0  0  0  0  0  0
   -4.0847    1.2688    2.5316 C   0  0  0  0  0  0  0  0  0  0  0  0
    1.8263   -1.4046    1.4330 C   0  0  0  0  0  0  0  0  0  0  0  0
    1.5375   -2.7576    1.7232 C   0  0  0  0  0  0  0  0  0  0  0  0
    2.4707   -3.5491    2.4037 C   0  0  0  0  0  0  0  0  0  0  0  0
    3.6945   -2.9993    2.8175 C   0  0  0  0  0  0  0  0  0  0  0  0
    3.9806   -1.6500    2.5502 C   0  0  0  0  0  0  0  0  0  0  0  0
    3.0597   -0.8563    1.8576 C   0  0  0  0  0  0  0  0  0  0  0  0
    2.3330    0.6013   -0.7275 C   0  0  0  0  0  0  0  0  0  0  0  0
    2.9660    1.8564   -0.6943 C   0  0  0  0  0  0  0  0  0  0  0  0
    4.2108    2.0182   -1.3193 C   0  0  0  0  0  0  0  0  0  0  0  0
    4.8315    0.9323   -1.9562 C   0  0  0  0  0  0  0  0  0  0  0  0
    4.2002   -0.3229   -1.9721 C   0  0  0  0  0  0  0  0  0  0  0  0
    2.9506   -0.4923   -1.3655 C   0  0  0  0  0  0  0  0  0  0  0  0
   -0.0771    2.6273   -0.1488 C   0  0  0  0  0  0  0  0  0  0  0  0
    0.1069    4.0827    1.7125 C   0  0  0  0  0  0  0  0  0  0  0  0
    0.1965    3.9810    3.2203 C   0  0  0  0  0  0  0  0  0  0  0  0
   -0.8991   -0.9843    2.0934 H   0  0  0  0  0  0  0  0  0  0  0  0
   -2.6485    1.2698   -1.7046 H   0  0  0  0  0  0  0  0  0  0  0  0
   -1.7336    2.5577   -2.5299 H   0  0  0  0  0  0  0  0  0  0  0  0
   -2.1499    1.0458   -3.4142 H   0  0  0  0  0  0  0  0  0  0  0  0
    1.4943    0.7634   -3.0324 H   0  0  0  0  0  0  0  0  0  0  0  0
    0.7780    2.4144   -2.8869 H   0  0  0  0  0  0  0  0  0  0  0  0
    0.1308    1.2238   -4.0622 H   0  0  0  0  0  0  0  0  0  0  0  0
   -3.7965    2.2572    2.9448 H   0  0  0  0  0  0  0  0  0  0  0  0
   -4.4684    0.6123    3.3327 H   0  0  0  0  0  0  0  0  0  0  0  0
   -4.8647    1.4313    1.7606 H   0  0  0  0  0  0  0  0  0  0  0  0
    0.5854   -3.1889    1.3852 H   0  0  0  0  0  0  0  0  0  0  0  0
    2.2406   -4.6052    2.6081 H   0  0  0  0  0  0  0  0  0  0  0  0
    4.4275   -3.6228    3.3513 H   0  0  0  0  0  0  0  0  0  0  0  0
    4.9322   -1.2105    2.8847 H   0  0  0  0  0  0  0  0  0  0  0  0
    3.2867    0.2003    1.6603 H   0  0  0  0  0  0  0  0  0  0  0  0
    2.4927    2.6990   -0.1739 H   0  0  0  0  0  0  0  0  0  0  0  0
    4.7020    3.0024   -1.2999 H   0  0  0  0  0  0  0  0  0  0  0  0
    5.8087    1.0645   -2.4439 H   0  0  0  0  0  0  0  0  0  0  0  0
    4.6761   -1.1760   -2.4779 H   0  0  0  0  0  0  0  0  0  0  0  0
    2.4267   -1.4570   -1.4110 H   0  0  0  0  0  0  0  0  0  0  0  0
   -0.8352    4.5622    1.3744 H   0  0  0  0  0  0  0  0  0  0  0  0
    0.9468    4.6641    1.2750 H   0  0  0  0  0  0  0  0  0  0  0  0
   -0.6560    3.4003    3.6255 H   0  0  0  0  0  0  0  0  0  0  0  0
    1.1352    3.4823    3.5339 H   0  0  0  0  0  0  0  0  0  0  0  0
    0.1735    4.9925    3.6715 H   0  0  0  0  0  0  0  0  0  0  0  0
  1 12  2  0  0  0  0
  2 15  2  0  0  0  0
  3 16  1  0  0  0  0
  4 29  2  0  0  0  0
  5 30  1  0  0  0  0
  6  9  1  0  0  0  0
  7 15  1  1  0  0  0
  7  8  1  0  0  0  0
  8 32  1  0  0  0  0
  9  8  1  0  0  0  0
  9 17  1  1  0  0  0
 10 29  1  1  0  0  0
 10  6  1  0  0  0  0
 10  7  1  0  0  0  0
 11 10  1  0  0  0  0
 12 11  1  0  0  0  0
 13 11  1  0  0  0  0
 13 33  1  0  0  0  0
 14 36  1  0  0  0  0
 14 37  1  0  0  0  0
 14 11  1  0  0  0  0
 15  3  1  0  0  0  0
 16 39  1  0  0  0  0
 16 40  1  0  0  0  0
 17 18  2  0  0  0  0
 17 22  1  0  0  0  0
 18 19  1  0  0  0  0
 19 43  1  0  0  0  0
 19 20  2  0  0  0  0
 20 44  1  0  0  0  0
 21 20  1  0  0  0  0
 21 45  1  0  0  0  0
 22 21  2  0  0  0  0
 23 24  1  0  0  0  0
 23  6  1  0  0  0  0
 24 47  1  0  0  0  0
 25 48  1  0  0  0  0
 25 24  2  0  0  0  0
 26 25  1  0  0  0  0
 27 26  2  0  0  0  0
 27 28  1  0  0  0  0
 28 23  2  0  0  0  0
 29  5  1  0  0  0  0
 30 31  1  0  0  0  0
 31 55  1  0  0  0  0
 31 54  1  0  0  0  0
 31 56  1  0  0  0  0
 34 13  1  0  0  0  0
 35 13  1  0  0  0  0
 38 14  1  0  0  0  0
 41 16  1  0  0  0  0
 42 18  1  0  0  0  0
 46 22  1  0  0  0  0
 49 26  1  0  0  0  0
 50 27  1  0  0  0  0
 51 28  1  0  0  0  0
 52 30  1  0  0  0  0
 53 30  1  0  0  0  0
M  END
