10,14
q = 0.0, confidence = 1.0

 29 30  0  0  1  0  0  0  0  0999 V2000
   -1.6386   -1.8434    1.8516 O   0  0  0  0  0  0  0  0  0  0  0  0
   -1.8690   -1.1097   -1.1369 O   0  0  0  0  0  0  0  0  0  0  0  0
   -2.0114   -2.0442   -0.8858 H   0  0  0  0  0  0  0  0  0  0  0  0
   -1.4019   -0.8423    1.1937 C   0  0  0  0  0  0  0  0  0  0  0  0
   -2.2651   -0.3310   -0.0099 C   0  0  1  0  0  0  0  0  0  0  0  0
   -1.7548    1.1421   -0.2522 C   0  0  0  0  0  0  0  0  0  0  0  0
   -0.3541    1.1173    0.3584 C   0  0  0  0  0  0  0  0  0  0  0  0
    0.7090    2.0451    0.1951 C   0  0  0  0  0  0  0  0  0  0  0  0
    0.6591    2.8396   -0.5615 H   0  0  0  0  0  0  0  0  0  0  0  0
    1.8791    1.8836    0.9913 C   0  0  0  0  0  3  0  0  0  0  0  0
    2.7290    2.5643    0.8407 H   0  0  0  0  0  0  0  0  0  0  0  0
    1.9860    0.8427    1.9685 C   0  0  0  0  0  3  0  0  0  0  0  0
    2.9142    0.7291    2.5444 H   0  0  0  0  0  0  0  0  0  0  0  0
    0.9431   -0.1081    2.0938 C   0  0  0  0  0  3  0  0  0  0  0  0
    1.0228   -0.9669    2.7753 H   0  0  0  0  0  0  0  0  0  0  0  0
   -0.2359    0.0593    1.3064 C   0  0  2  0  0  3  0  0  0  0  0  0
   -3.7452   -0.4473    0.2609 C   0  0  0  0  0  0  0  0  0  0  0  0
   -4.0885   -0.1104    1.2525 H   0  0  0  0  0  0  0  0  0  0  0  0
   -4.6228   -0.9472   -0.6244 C   0  0  0  0  0  0  0  0  0  0  0  0
   -4.2832   -1.2948   -1.6128 H   0  0  0  0  0  0  0  0  0  0  0  0
   -5.6950   -1.0240   -0.3893 H   0  0  0  0  0  0  0  0  0  0  0  0
   -2.5607    2.1467    0.6054 C   0  0  0  0  0  0  0  0  0  0  0  0
   -3.6048    2.2139    0.2430 H   0  0  0  0  0  0  0  0  0  0  0  0
   -2.1034    3.1537    0.5363 H   0  0  0  0  0  0  0  0  0  0  0  0
   -2.5782    1.8598    1.6762 H   0  0  0  0  0  0  0  0  0  0  0  0
   -1.8264    1.5550   -1.7233 C   0  0  0  0  0  0  0  0  0  0  0  0
   -2.8804    1.5257   -2.0650 H   0  0  0  0  0  0  0  0  0  0  0  0
   -1.2392    0.8847   -2.3725 H   0  0  0  0  0  0  0  0  0  0  0  0
   -1.4630    2.5946   -1.8534 H   0  0  0  0  0  0  0  0  0  0  0  0
  2  3  1  0  0  0  0
  4 16  1  0  0  0  0
  4  1  2  0  0  0  0
  5  2  1  6  0  0  0
  5 17  1  0  0  0  0
  5  4  1  0  0  0  0
  6  5  1  0  0  0  0
  6  7  1  0  0  0  0
  6 22  1  0  0  0  0
  8  7  2  0  0  0  0
  8 10  1  0  0  0  0
  9  8  1  0  0  0  0
 10 12  1  0  0  0  0
 11 10  1  0  0  0  0
 12 14  1  0  0  0  0
 12 13  1  0  0  0  0
 14 15  1  0  0  0  0
 16  7  1  6  0  0  0
 16 14  1  0  0  0  0
 17 18  1  0  0  0  0
 19 21  1  0  0  0  0
 19 17  2  0  0  0  0
 20 19  1  0  0  0  0
 22 25  1  0  0  0  0
 23 22  1  0  0  0  0
 24 22  1  0  0  0  0
 26  6  1  0  0  0  0
 27 26  1  0  0  0  0
 28 26  1  0  0  0  0
 29 26  1  0  0  0  0
M  END
