1,6
q = -2.0, confidence = 0.624

 40 40  0  0  1  0  0  0  0  0999 V2000
    0.9008    1.7435   -0.5444 C   0  0  0  0  0  3  0  0  0  0  0  0
    1.5843    1.3403   -1.6507 C   0  0  0  0  0  0  0  0  0  0  0  0
    1.8733   -0.0864   -1.8030 C   0  0  0  0  0  0  0  0  0  0  0  0
    2.4943   -0.5499   -2.7584 O   0  0  0  0  0  0  0  0  0  0  0  0
    1.3806   -0.9969   -0.6675 C   0  0  1  0  0  3  0  0  0  0  0  0
   -0.0176   -1.2858   -0.6221 C   0  0  0  0  0  3  0  0  0  0  0  0
   -1.0396   -0.3505   -0.9509 C   0  0  0  0  0  3  0  0  0  0  0  0
   -2.4797   -0.6175   -0.7703 C   0  0  0  0  0  0  0  0  0  0  0  0
   -2.9835   -1.6791    0.0177 C   0  0  0  0  0  0  0  0  0  0  0  0
   -4.3621   -1.8774    0.1566 C   0  0  0  0  0  0  0  0  0  0  0  0
   -5.2723   -1.0181   -0.4821 C   0  0  0  0  0  0  0  0  0  0  0  0
   -4.7889    0.0436   -1.2624 C   0  0  0  0  0  0  0  0  0  0  0  0
   -3.4093    0.2403   -1.4024 C   0  0  0  0  0  0  0  0  0  0  0  0
    0.7364    3.1995   -0.2333 C   0  0  0  0  0  0  0  0  0  0  0  0
    0.6505    3.5839    0.9297 O   0  0  0  0  0  0  0  0  0  0  0  0
    0.6862    4.1829   -1.3901 C   0  0  0  0  0  0  0  0  0  0  0  0
    2.3891   -2.0927   -0.2269 C   0  0  0  0  0  0  0  0  0  0  0  0
    2.3657   -3.2242   -1.2863 C   0  0  0  0  0  0  0  0  0  0  0  0
    3.8142   -1.5078   -0.1304 C   0  0  0  0  0  0  0  0  0  0  0  0
    2.0380   -2.7038    1.1408 C   0  0  0  0  0  0  0  0  0  0  0  0
    1.9792    2.0127   -2.4317 H   0  0  0  0  0  0  0  0  0  0  0  0
   -0.3222   -2.2583   -0.2012 H   0  0  0  0  0  0  0  0  0  0  0  0
   -0.8122    0.4293   -1.6922 H   0  0  0  0  0  0  0  0  0  0  0  0
   -2.2937   -2.3573    0.5415 H   0  0  0  0  0  0  0  0  0  0  0  0
   -4.7314   -2.7098    0.7746 H   0  0  0  0  0  0  0  0  0  0  0  0
   -6.3554   -1.1748   -0.3676 H   0  0  0  0  0  0  0  0  0  0  0  0
   -5.4918    0.7248   -1.7652 H   0  0  0  0  0  0  0  0  0  0  0  0
   -3.0333    1.0760   -2.0135 H   0  0  0  0  0  0  0  0  0  0  0  0
    0.4642    5.1908   -0.9965 H   0  0  0  0  0  0  0  0  0  0  0  0
    1.6578    4.2071   -1.9251 H   0  0  0  0  0  0  0  0  0  0  0  0
   -0.0813    3.8833   -2.1323 H   0  0  0  0  0  0  0  0  0  0  0  0
    1.3675   -3.7064   -1.3318 H   0  0  0  0  0  0  0  0  0  0  0  0
    2.6085   -2.8240   -2.2869 H   0  0  0  0  0  0  0  0  0  0  0  0
    3.1066   -4.0055   -1.0188 H   0  0  0  0  0  0  0  0  0  0  0  0
    4.1845   -1.1632   -1.1133 H   0  0  0  0  0  0  0  0  0  0  0  0
    3.8533   -0.6572    0.5789 H   0  0  0  0  0  0  0  0  0  0  0  0
    4.5122   -2.2855    0.2393 H   0  0  0  0  0  0  0  0  0  0  0  0
    1.0162   -3.1304    1.1775 H   0  0  0  0  0  0  0  0  0  0  0  0
    2.7387   -3.5356    1.3561 H   0  0  0  0  0  0  0  0  0  0  0  0
    2.1377   -1.9652    1.9594 H   0  0  0  0  0  0  0  0  0  0  0  0
  1 14  1  0  0  0  0
  2  1  2  0  0  0  0
  3  2  1  0  0  0  0
  4  3  2  0  0  0  0
  5  3  1  6  0  0  0
  5  6  1  0  0  0  0
  5 17  1  0  0  0  0
  6 22  1  0  0  0  0
  7  8  1  0  0  0  0
  7  6  1  0  0  0  0
  8  9  1  0  0  0  0
  9 10  2  0  0  0  0
  9 24  1  0  0  0  0
 10 25  1  0  0  0  0
 11 26  1  0  0  0  0
 11 10  1  0  0  0  0
 12 11  2  0  0  0  0
 13 12  1  0  0  0  0
 13  8  2  0  0  0  0
 14 15  2  0  0  0  0
 16 29  1  0  0  0  0
 16 14  1  0  0  0  0
 17 19  1  0  0  0  0
 17 20  1  0  0  0  0
 18 34  1  0  0  0  0
 18 17  1  0  0  0  0
 19 37  1  0  0  0  0
 19 36  1  0  0  0  0
 20 38  1  0  0  0  0
 20 39  1  0  0  0  0
 20 40  1  0  0  0  0
 21  2  1  0  0  0  0
 23  7  1  0  0  0  0
 27 12  1  0  0  0  0
 28 13  1  0  0  0  0
 30 16  1  0  0  0  0
 31 16  1  0  0  0  0
 32 18  1  0  0  0  0
 33 18  1  0  0  0  0
 35 19  1  0  0  0  0
M  END
