6,8
q = 0.0, confidence = 0.99

 45 46  0  0  1  0  0  0  0  0999 V2000
   -2.1015    1.3331    0.4160 Si  0  0  0  0  0  0  0  0  0  0  0  0
   -2.9261   -1.8887    1.1151 O   0  0  0  0  0  0  0  0  0  0  0  0
   -3.1346   -2.9504   -0.8791 O   0  0  0  0  0  0  0  0  0  0  0  0
   -1.0515   -0.1032    0.0519 N   0  0  0  0  0  0  0  0  0  0  0  0
    0.6463   -1.7002    0.1107 C   0  0  2  0  0  3  0  0  0  0  0  0
    1.7842   -2.3306    0.6568 C   0  0  0  0  0  3  0  0  0  0  0  0
    2.4715   -1.7074    1.7503 C   0  0  0  0  0  3  0  0  0  0  0  0
    2.0314   -0.4469    2.2191 C   0  0  0  0  0  3  0  0  0  0  0  0
    0.8737    0.1968    1.6697 C   0  0  0  0  0  0  0  0  0  0  0  0
    0.1279   -0.4741    0.6672 C   0  0  0  0  0  0  0  0  0  0  0  0
   -1.5121   -1.2260   -0.7784 C   0  0  1  0  0  0  0  0  0  0  0  0
   -0.2590   -2.1180   -1.0227 C   0  0  0  0  0  0  0  0  0  0  0  0
   -3.8078    0.9348   -0.2897 C   0  0  0  0  0  0  0  0  0  0  0  0
   -2.2484    1.5285    2.2869 C   0  0  0  0  0  0  0  0  0  0  0  0
   -1.3989    2.9028   -0.4376 C   0  0  0  0  0  0  0  0  0  0  0  0
    0.0271    3.2092    0.0547 C   0  0  0  0  0  0  0  0  0  0  0  0
   -2.3217    4.0890   -0.0916 C   0  0  0  0  0  0  0  0  0  0  0  0
   -1.3827    2.6788   -1.9620 C   0  0  0  0  0  0  0  0  0  0  0  0
   -2.5969   -2.0316   -0.0463 C   0  0  0  0  0  0  0  0  0  0  0  0
   -4.1445   -3.7923   -0.3037 C   0  0  0  0  0  0  0  0  0  0  0  0
    2.1536   -3.2746    0.2328 H   0  0  0  0  0  0  0  0  0  0  0  0
    3.3778   -2.1671    2.1655 H   0  0  0  0  0  0  0  0  0  0  0  0
    2.6016    0.0699    3.0033 H   0  0  0  0  0  0  0  0  0  0  0  0
    0.5682    1.1786    2.0460 H   0  0  0  0  0  0  0  0  0  0  0  0
   -1.9375   -0.8785   -1.7406 H   0  0  0  0  0  0  0  0  0  0  0  0
   -0.5112   -3.1953   -1.0083 H   0  0  0  0  0  0  0  0  0  0  0  0
    0.1948   -1.8901   -2.0070 H   0  0  0  0  0  0  0  0  0  0  0  0
   -4.3108    0.1565    0.3157 H   0  0  0  0  0  0  0  0  0  0  0  0
   -4.4308    1.8513   -0.2495 H   0  0  0  0  0  0  0  0  0  0  0  0
   -3.7818    0.6032   -1.3466 H   0  0  0  0  0  0  0  0  0  0  0  0
   -2.4104    0.5294    2.7389 H   0  0  0  0  0  0  0  0  0  0  0  0
   -1.3674    1.9984    2.7653 H   0  0  0  0  0  0  0  0  0  0  0  0
   -3.1297    2.1603    2.5204 H   0  0  0  0  0  0  0  0  0  0  0  0
    0.4185    4.1210   -0.4481 H   0  0  0  0  0  0  0  0  0  0  0  0
    0.0566    3.4068    1.1471 H   0  0  0  0  0  0  0  0  0  0  0  0
    0.7332    2.3842   -0.1637 H   0  0  0  0  0  0  0  0  0  0  0  0
   -1.9428    5.0181   -0.5722 H   0  0  0  0  0  0  0  0  0  0  0  0
   -3.3605    3.9377   -0.4515 H   0  0  0  0  0  0  0  0  0  0  0  0
   -2.3645    4.2805    1.0010 H   0  0  0  0  0  0  0  0  0  0  0  0
   -0.9955    3.5847   -2.4787 H   0  0  0  0  0  0  0  0  0  0  0  0
   -0.7232    1.8357   -2.2491 H   0  0  0  0  0  0  0  0  0  0  0  0
   -2.3984    2.4828   -2.3646 H   0  0  0  0  0  0  0  0  0  0  0  0
   -5.0043   -3.1871    0.0477 H   0  0  0  0  0  0  0  0  0  0  0  0
   -3.7406   -4.3570    0.5603 H   0  0  0  0  0  0  0  0  0  0  0  0
   -4.4610   -4.4832   -1.1047 H   0  0  0  0  0  0  0  0  0  0  0  0
  1 14  1  0  0  0  0
  3 20  1  0  0  0  0
  3 19  1  0  0  0  0
  4  1  1  0  0  0  0
  4 10  1  0  0  0  0
  5  6  1  1  0  0  0
  5 10  1  0  0  0  0
  6  7  1  0  0  0  0
  7 22  1  0  0  0  0
  7  8  1  0  0  0  0
  8 23  1  0  0  0  0
  9 24  1  0  0  0  0
  9  8  1  0  0  0  0
 10  9  2  0  0  0  0
 11 25  1  6  0  0  0
 11 19  1  0  0  0  0
 11  4  1  0  0  0  0
 12 26  1  0  0  0  0
 12 11  1  0  0  0  0
 12  5  1  0  0  0  0
 13 29  1  0  0  0  0
 13 28  1  0  0  0  0
 13  1  1  0  0  0  0
 14 33  1  0  0  0  0
 14 31  1  0  0  0  0
 14 32  1  0  0  0  0
 15 17  1  0  0  0  0
 15 16  1  0  0  0  0
 15  1  1  0  0  0  0
 16 35  1  0  0  0  0
 17 39  1  0  0  0  0
 18 15  1  0  0  0  0
 19  2  2  0  0  0  0
 20 43  1  0  0  0  0
 20 44  1  0  0  0  0
 21  6  1  0  0  0  0
 27 12  1  0  0  0  0
 30 13  1  0  0  0  0
 34 16  1  0  0  0  0
 36 16  1  0  0  0  0
 37 17  1  0  0  0  0
 38 17  1  0  0  0  0
 40 18  1  0  0  0  0
 41 18  1  0  0  0  0
 42 18  1  0  0  0  0
 45 20  1  0  0  0  0
M  END
