3,15
q = -1.0, confidence = 0.0

 26 27  0  0  0  0  0  0  0  0999 V2000
   -3.1691    1.1034    1.0762 S   0  0  0  0  0  0  0  0  0  0  0  0
   -2.6349   -0.5759   -0.7423 N   0  0  0  0  0  0  0  0  0  0  0  0
   -2.0041    0.3255    0.0747 C   0  0  0  0  0  2  0  0  0  0  0  0
   -4.5018    0.1904    0.3842 C   0  0  0  0  0  0  0  0  0  0  0  0
   -4.0350   -0.6751   -0.5808 C   0  0  0  0  0  0  0  0  0  0  0  0
   -5.8996    0.4181    0.8649 C   0  0  0  0  0  0  0  0  0  0  0  0
   -6.6151   -0.2606    0.3630 H   0  0  0  0  0  0  0  0  0  0  0  0
   -6.2332    1.4588    0.6689 H   0  0  0  0  0  0  0  0  0  0  0  0
   -5.9865    0.2475    1.9583 H   0  0  0  0  0  0  0  0  0  0  0  0
   -4.8888   -1.6232   -1.3602 C   0  0  0  0  0  0  0  0  0  0  0  0
   -5.9357   -1.5517   -1.0149 H   0  0  0  0  0  0  0  0  0  0  0  0
   -4.5620   -2.6742   -1.2296 H   0  0  0  0  0  0  0  0  0  0  0  0
   -4.8797   -1.3974   -2.4457 H   0  0  0  0  0  0  0  0  0  0  0  0
   -1.7287   -1.2963   -1.6024 C   0  0  0  0  0  0  0  0  0  0  0  0
   -0.3556   -0.9600   -1.3873 C   0  0  0  0  0  3  0  0  0  0  0  0
    0.5948   -1.6284   -2.1792 C   0  0  0  0  0  0  0  0  0  0  0  0
    1.6614   -1.3920   -2.0381 H   0  0  0  0  0  0  0  0  0  0  0  0
    0.2441   -2.5807   -3.1588 C   0  0  0  0  0  0  0  0  0  0  0  0
   -1.1189   -2.8655   -3.3502 C   0  0  0  0  0  0  0  0  0  0  0  0
   -1.4250   -3.5962   -4.1149 H   0  0  0  0  0  0  0  0  0  0  0  0
   -2.1058   -2.2291   -2.5808 C   0  0  0  0  0  0  0  0  0  0  0  0
   -3.1527   -2.4759   -2.7757 H   0  0  0  0  0  0  0  0  0  0  0  0
    1.3134   -3.2737   -3.9665 C   0  0  0  0  0  0  0  0  0  0  0  0
    1.9260   -3.9462   -3.3285 H   0  0  0  0  0  0  0  0  0  0  0  0
    2.0131   -2.5427   -4.4223 H   0  0  0  0  0  0  0  0  0  0  0  0
    0.8813   -3.8873   -4.7812 H   0  0  0  0  0  0  0  0  0  0  0  0
  2  5  1  0  0  0  0
  2  3  1  0  0  0  0
  3  1  1  0  0  0  0
  4  6  1  0  0  0  0
  4  1  1  0  0  0  0
  5  4  2  0  0  0  0
  6  9  1  0  0  0  0
  7  6  1  0  0  0  0
  8  6  1  0  0  0  0
 10 12  1  0  0  0  0
 10 11  1  0  0  0  0
 10  5  1  0  0  0  0
 13 10  1  0  0  0  0
 14 15  1  0  0  0  0
 14  2  1  0  0  0  0
 16 17  1  0  0  0  0
 16 15  2  0  0  0  0
 18 16  1  0  0  0  0
 19 18  2  0  0  0  0
 19 21  1  0  0  0  0
 20 19  1  0  0  0  0
 21 14  2  0  0  0  0
 22 21  1  0  0  0  0
 23 24  1  0  0  0  0
 23 18  1  0  0  0  0
 25 23  1  0  0  0  0
 26 23  1  0  0  0  0
M  END
