4,14
q = -1.0, confidence = 0.002

 30 32  0  0  0  0  0  0  0  0999 V2000
    0.6579    2.3296   -0.1100 N   0  0  0  0  0  0  0  0  0  0  0  0
    1.7423    3.0729   -0.2895 N   0  0  0  0  0  2  0  0  0  0  0  0
    2.7217    2.1719   -0.3262 N   0  0  0  0  0  0  0  0  0  0  0  0
    0.8738    0.9633   -0.0177 C   0  0  0  0  0  3  0  0  0  0  0  0
    2.2692    0.8719   -0.1748 C   0  0  0  0  0  0  0  0  0  0  0  0
    3.1031   -0.3322   -0.2726 C   0  0  0  0  0  0  0  0  0  0  0  0
    4.3225   -0.4780    0.4259 C   0  0  0  0  0  0  0  0  0  0  0  0
    5.0602   -1.6668    0.3227 C   0  0  0  0  0  0  0  0  0  0  0  0
    4.5871   -2.7226   -0.4721 C   0  0  0  0  0  0  0  0  0  0  0  0
    3.3736   -2.5837   -1.1685 C   0  0  0  0  0  0  0  0  0  0  0  0
    2.6318   -1.3994   -1.0757 C   0  0  0  0  0  0  0  0  0  0  0  0
    4.0793    2.6392   -0.5413 C   0  0  0  0  0  0  0  0  0  0  0  0
   -0.6844    2.7671   -0.0928 C   0  0  0  0  0  0  0  0  0  0  0  0
   -1.5740    1.6662    0.0198 C   0  0  0  0  0  3  0  0  0  0  0  0
   -2.9454    2.0015   -0.0193 C   0  0  0  0  0  0  0  0  0  0  0  0
   -3.3713    3.3367   -0.1299 C   0  0  0  0  0  0  0  0  0  0  0  0
   -2.4429    4.3915   -0.2212 C   0  0  0  0  0  0  0  0  0  0  0  0
   -1.0709    4.1083   -0.2116 C   0  0  0  0  0  0  0  0  0  0  0  0
    4.6822    0.3307    1.0801 H   0  0  0  0  0  0  0  0  0  0  0  0
    6.0054   -1.7725    0.8765 H   0  0  0  0  0  0  0  0  0  0  0  0
    5.1659   -3.6556   -0.5494 H   0  0  0  0  0  0  0  0  0  0  0  0
    3.0034   -3.4064   -1.7994 H   0  0  0  0  0  0  0  0  0  0  0  0
    1.6815   -1.2712   -1.6228 H   0  0  0  0  0  0  0  0  0  0  0  0
    4.6064    2.7919    0.4218 H   0  0  0  0  0  0  0  0  0  0  0  0
    4.0271    3.5986   -1.0855 H   0  0  0  0  0  0  0  0  0  0  0  0
    4.6284    1.8901   -1.1403 H   0  0  0  0  0  0  0  0  0  0  0  0
   -3.7023    1.2036    0.0239 H   0  0  0  0  0  0  0  0  0  0  0  0
   -4.4497    3.5601   -0.1530 H   0  0  0  0  0  0  0  0  0  0  0  0
   -2.7895    5.4316   -0.3115 H   0  0  0  0  0  0  0  0  0  0  0  0
   -0.3125    4.8993   -0.3028 H   0  0  0  0  0  0  0  0  0  0  0  0
  1 13  1  0  0  0  0
  1  4  1  0  0  0  0
  2  1  1  0  0  0  0
  3  2  1  0  0  0  0
  3  5  1  0  0  0  0
  5  4  2  0  0  0  0
  6  5  1  0  0  0  0
  6  7  1  0  0  0  0
  7 19  1  0  0  0  0
  8  7  2  0  0  0  0
  8 20  1  0  0  0  0
  9  8  1  0  0  0  0
 10 11  1  0  0  0  0
 10  9  2  0  0  0  0
 11  6  2  0  0  0  0
 12  3  1  0  0  0  0
 12 24  1  0  0  0  0
 13 14  1  0  0  0  0
 15 14  2  0  0  0  0
 15 27  1  0  0  0  0
 16 15  1  0  0  0  0
 17 18  1  0  0  0  0
 17 16  2  0  0  0  0
 18 13  2  0  0  0  0
 21  9  1  0  0  0  0
 22 10  1  0  0  0  0
 23 11  1  0  0  0  0
 25 12  1  0  0  0  0
 26 12  1  0  0  0  0
 28 16  1  0  0  0  0
 29 17  1  0  0  0  0
 30 18  1  0  0  0  0
M  END
