6,9
q = -2.0, confidence = 0.846

 11 10  0  0  0  0  0  0  0  0999 V2000
    0.0399   -3.9458   -0.5473 S   0  0  0  0  0  0  0  0  0  0  0  0
   -0.2873   -4.0999   -1.9870 O   0  0  0  0  0  0  0  0  0  0  0  0
    0.2921   -5.1187    0.3148 O   0  0  0  0  0  0  0  0  0  0  0  0
    3.1796   -3.0380    1.4012 N   0  0  0  0  0  0  0  0  0  0  0  0
   -1.5273   -2.8357    2.7289 N   0  0  0  0  0  0  0  0  0  0  0  0
    1.3571   -2.6772   -0.4250 C   0  0  0  0  0  3  0  0  0  0  0  0
    1.7760   -2.5378   -1.4400 H   0  0  0  0  0  0  0  0  0  0  0  0
    2.3550   -2.9043    0.5722 C   0  0  0  0  0  0  0  0  0  0  0  0
   -1.2120   -2.8103    0.1404 C   0  0  0  0  0  3  0  0  0  0  0  0
   -2.1328   -2.8435   -0.4698 H   0  0  0  0  0  0  0  0  0  0  0  0
   -1.3997   -2.8662    1.5578 C   0  0  0  0  0  0  0  0  0  0  0  0
  1  6  1  0  0  0  0
  1  9  1  0  0  0  0
  1  3  2  0  0  0  0
  2  1  2  0  0  0  0
  6  8  1  0  0  0  0
  7  6  1  0  0  0  0
  8  4  3  0  0  0  0
  9 11  1  0  0  0  0
 10  9  1  0  0  0  0
 11  5  3  0  0  0  0
M  END
