5,9
q = 0.0, confidence = 0.998

 26 26  0  0  1  0  0  0  0  0999 V2000
    1.0717   -0.5729    0.1906 C   0  0  1  0  0  3  0  0  0  0  0  0
    0.5867    0.7279    0.5941 C   0  0  0  0  0  0  0  0  0  0  0  0
   -0.4058    0.8112    1.6148 C   0  0  0  0  0  0  0  0  0  0  0  0
   -0.8303    1.7790    1.9052 H   0  0  0  0  0  0  0  0  0  0  0  0
   -0.9025   -0.3740    2.2328 C   0  0  0  0  0  3  0  0  0  0  0  0
   -1.7026   -0.2872    2.9816 H   0  0  0  0  0  0  0  0  0  0  0  0
   -0.3936   -1.6520    1.8876 C   0  0  0  0  0  3  0  0  0  0  0  0
   -0.7983   -2.5613    2.3505 H   0  0  0  0  0  0  0  0  0  0  0  0
    0.5672   -1.7398    0.8418 C   0  0  0  0  0  3  0  0  0  0  0  0
    0.9307   -2.7174    0.4952 H   0  0  0  0  0  0  0  0  0  0  0  0
    2.2353   -0.7272   -1.1484 S   0  0  0  0  0  0  0  0  0  0  0  0
    3.8174   -0.4421   -0.2379 C   0  0  0  0  0  0  0  0  0  0  0  0
    4.5648   -0.3577   -1.0540 H   0  0  0  0  0  0  0  0  0  0  0  0
    3.7545    0.5530    0.2491 H   0  0  0  0  0  0  0  0  0  0  0  0
    4.1822   -1.5430    0.7476 C   0  0  0  0  0  0  0  0  0  0  0  0
    4.2535   -2.5276    0.2436 H   0  0  0  0  0  0  0  0  0  0  0  0
    3.4276   -1.6256    1.5561 H   0  0  0  0  0  0  0  0  0  0  0  0
    5.1600   -1.3262    1.2268 H   0  0  0  0  0  0  0  0  0  0  0  0
    1.3060    2.1197   -0.2282 S   0  0  0  0  0  0  0  0  0  0  0  0
    0.3628    3.5446    0.4411 C   0  0  0  0  0  0  0  0  0  0  0  0
    0.3637    3.4949    1.5501 H   0  0  0  0  0  0  0  0  0  0  0  0
    1.0151    4.4006    0.1709 H   0  0  0  0  0  0  0  0  0  0  0  0
   -1.0362    3.7190   -0.1436 C   0  0  0  0  0  0  0  0  0  0  0  0
   -1.7056    2.8787    0.1248 H   0  0  0  0  0  0  0  0  0  0  0  0
   -0.9993    3.7658   -1.2490 H   0  0  0  0  0  0  0  0  0  0  0  0
   -1.4933    4.6571    0.2338 H   0  0  0  0  0  0  0  0  0  0  0  0
  1 11  1  6  0  0  0
  1  2  1  0  0  0  0
  1  9  1  0  0  0  0
  2  3  2  0  0  0  0
  3  4  1  0  0  0  0
  3  5  1  0  0  0  0
  5  6  1  0  0  0  0
  7  5  1  0  0  0  0
  7  8  1  0  0  0  0
  9  7  1  0  0  0  0
 10  9  1  0  0  0  0
 11 12  1  0  0  0  0
 12 14  1  0  0  0  0
 12 15  1  0  0  0  0
 13 12  1  0  0  0  0
 15 18  1  0  0  0  0
 15 17  1  0  0  0  0
 16 15  1  0  0  0  0
 19 20  1  0  0  0  0
 19  2  1  0  0  0  0
 20 21  1  0  0  0  0
 22 20  1  0  0  0  0
 23 24  1  0  0  0  0
 23 26  1  0  0  0  0
 23 20  1  0  0  0  0
 25 23  1  0  0  0  0
M  END
