8,10
q = -1.0, confidence = 0.0

 35 37  0  0  1  0  0  0  0  0999 V2000
    1.3309   -0.5224   -0.1824 Si  0  0  2  0  0  0  0  0  0  0  0  0
    2.2045   -1.9536   -0.4736 O   0  0  0  0  0  0  0  0  0  0  0  0
    1.4250    0.6479   -1.4165 O   0  0  0  0  0  0  0  0  0  0  0  0
    1.1825   -0.0787    1.4537 O   0  0  0  0  0  0  0  0  0  0  0  0
    3.4996    0.2984    0.2056 N   0  0  2  0  0  0  0  0  0  0  0  0
   -3.8545   -2.3905    0.5779 C   0  0  0  0  0  0  0  0  0  0  0  0
   -2.6504   -1.7805   -0.0731 C   0  0  0  0  0  0  0  0  0  0  0  0
   -1.3473   -1.6285    0.5030 C   0  0  0  0  0  3  0  0  0  0  0  0
   -0.4391   -1.0672   -0.4658 C   0  0  1  0  0  3  0  0  0  0  0  0
   -1.2189   -0.8612   -1.6626 C   0  0  0  0  0  3  0  0  0  0  0  0
   -2.5582   -1.2946   -1.4309 C   0  0  0  0  0  0  0  0  0  0  0  0
    3.5907   -1.9491   -0.7048 C   0  0  0  0  0  0  0  0  0  0  0  0
    4.2777   -0.9443    0.2311 C   0  0  0  0  0  0  0  0  0  0  0  0
    2.3531    1.7016   -1.4045 C   0  0  0  0  0  0  0  0  0  0  0  0
    3.7201    1.1683   -0.9547 C   0  0  0  0  0  0  0  0  0  0  0  0
    2.2654    0.2293    2.2906 C   0  0  0  0  0  0  0  0  0  0  0  0
    3.3376    0.9821    1.4918 C   0  0  0  0  0  0  0  0  0  0  0  0
   -4.7904   -1.9032    0.2417 H   0  0  0  0  0  0  0  0  0  0  0  0
   -3.7998   -2.3014    1.6800 H   0  0  0  0  0  0  0  0  0  0  0  0
   -3.9285   -3.4706    0.3289 H   0  0  0  0  0  0  0  0  0  0  0  0
   -1.0808   -1.8844    1.5362 H   0  0  0  0  0  0  0  0  0  0  0  0
   -0.8345   -0.4181   -2.5890 H   0  0  0  0  0  0  0  0  0  0  0  0
   -3.3850   -1.2589   -2.1512 H   0  0  0  0  0  0  0  0  0  0  0  0
    3.8112   -1.6921   -1.7698 H   0  0  0  0  0  0  0  0  0  0  0  0
    3.9993   -2.9680   -0.5308 H   0  0  0  0  0  0  0  0  0  0  0  0
    4.2516   -1.3407    1.2658 H   0  0  0  0  0  0  0  0  0  0  0  0
    5.3465   -0.7829   -0.0411 H   0  0  0  0  0  0  0  0  0  0  0  0
    2.0058    2.5201   -0.7294 H   0  0  0  0  0  0  0  0  0  0  0  0
    2.4286    2.1402   -2.4222 H   0  0  0  0  0  0  0  0  0  0  0  0
    4.1490    0.5486   -1.7675 H   0  0  0  0  0  0  0  0  0  0  0  0
    4.4427    1.9884   -0.7384 H   0  0  0  0  0  0  0  0  0  0  0  0
    2.6957   -0.7011    2.7349 H   0  0  0  0  0  0  0  0  0  0  0  0
    1.9072    0.8554    3.1357 H   0  0  0  0  0  0  0  0  0  0  0  0
    2.9752    2.0089    1.2836 H   0  0  0  0  0  0  0  0  0  0  0  0
    4.2960    1.0686    2.0541 H   0  0  0  0  0  0  0  0  0  0  0  0
  1  3  1  6  0  0  0
  1  4  1  0  0  0  0
  2  1  1  0  0  0  0
  3 14  1  0  0  0  0
  4 16  1  0  0  0  0
  5 15  1  6  0  0  0
  5 13  1  0  0  0  0
  5 17  1  0  0  0  0
  6 19  1  0  0  0  0
  7  8  1  0  0  0  0
  7  6  1  0  0  0  0
  8 21  1  0  0  0  0
  9 10  1  1  0  0  0
  9  1  1  0  0  0  0
  9  8  1  0  0  0  0
 10 11  1  0  0  0  0
 11  7  2  0  0  0  0
 12 25  1  0  0  0  0
 12  2  1  0  0  0  0
 12 13  1  0  0  0  0
 13 26  1  0  0  0  0
 14 15  1  0  0  0  0
 14 28  1  0  0  0  0
 15 31  1  0  0  0  0
 16 32  1  0  0  0  0
 16 33  1  0  0  0  0
 17 35  1  0  0  0  0
 17 16  1  0  0  0  0
 18  6  1  0  0  0  0
 20  6  1  0  0  0  0
 22 10  1  0  0  0  0
 23 11  1  0  0  0  0
 24 12  1  0  0  0  0
 27 13  1  0  0  0  0
 29 14  1  0  0  0  0
 30 15  1  0  0  0  0
 34 17  1  0  0  0  0
M  END
