12,14
q = -1.0, confidence = 0.014

 15 14  0  0  0  0  0  0  0  0999 V2000
   -2.0489   -1.5818    1.4666 C   0  0  0  0  0  3  0  0  0  0  0  0
   -2.8326   -2.3419    1.3664 H   0  0  0  0  0  0  0  0  0  0  0  0
   -1.2102   -1.8805    2.1142 H   0  0  0  0  0  0  0  0  0  0  0  0
   -3.4821    1.8946    0.5186 C   0  0  0  0  0  0  0  0  0  0  0  0
   -3.5897    2.3680   -0.4760 H   0  0  0  0  0  0  0  0  0  0  0  0
   -2.7133    2.4404    1.0956 H   0  0  0  0  0  0  0  0  0  0  0  0
   -4.4513    2.0202    1.0474 H   0  0  0  0  0  0  0  0  0  0  0  0
   -3.1801    0.4270    0.4180 C   0  0  0  0  0  3  0  0  0  0  0  0
   -3.5091   -1.6997   -0.9561 C   0  0  0  0  0  3  0  0  0  0  0  0
   -3.6816   -2.0469   -1.9869 H   0  0  0  0  0  0  0  0  0  0  0  0
   -3.7206   -2.4518   -0.1881 H   0  0  0  0  0  0  0  0  0  0  0  0
   -2.3383   -0.1950    1.3967 C   0  0  0  0  0  3  0  0  0  0  0  0
   -1.7848    0.5072    2.0448 H   0  0  0  0  0  0  0  0  0  0  0  0
   -3.6393   -0.3083   -0.7320 C   0  0  0  0  0  3  0  0  0  0  0  0
   -3.9734    0.3222   -1.5753 H   0  0  0  0  0  0  0  0  0  0  0  0
  1  3  1  0  0  0  0
  2  1  1  0  0  0  0
  4  7  1  0  0  0  0
  4  6  1  0  0  0  0
  5  4  1  0  0  0  0
  8  4  1  0  0  0  0
  8 12  1  0  0  0  0
  9 14  1  0  0  0  0
  9 11  1  0  0  0  0
 10  9  1  0  0  0  0
 12  1  1  0  0  0  0
 12 13  1  0  0  0  0
 14  8  1  0  0  0  0
 15 14  1  0  0  0  0
M  END
