7,10
q = -2.0, confidence = 0.7

 28 28  0  0  1  0  0  0  0  0999 V2000
   -1.7902    2.7694    1.4307 O   0  0  0  0  0  0  0  0  0  0  0  0
   -0.8932   -0.8159   -2.7060 O   0  0  0  0  0  0  0  0  0  0  0  0
    0.9630   -0.9047   -1.4887 O   0  0  0  0  0  0  0  0  0  0  0  0
   -1.7665    3.4502   -0.8785 C   0  0  0  0  0  0  0  0  0  0  0  0
   -1.3848    2.5689    0.2906 C   0  0  0  0  0  0  0  0  0  0  0  0
   -0.4845    1.4085   -0.0273 C   0  0  0  0  0  3  0  0  0  0  0  0
    0.0251    0.6509    1.0629 C   0  0  0  0  0  3  0  0  0  0  0  0
    0.5739   -0.6545    0.9218 C   0  0  0  0  0  3  0  0  0  0  0  0
    1.5009   -1.1301   -0.1895 C   0  0  2  0  0  0  0  0  0  0  0  0
   -0.4054   -0.8193   -1.6026 C   0  0  0  0  0  3  0  0  0  0  0  0
    2.8619   -0.4625   -0.0732 C   0  0  0  0  0  0  0  0  0  0  0  0
    3.2108    0.6301   -0.8872 C   0  0  0  0  0  0  0  0  0  0  0  0
    4.4479    1.2694   -0.7166 C   0  0  0  0  0  0  0  0  0  0  0  0
    5.3453    0.8260    0.2675 C   0  0  0  0  0  0  0  0  0  0  0  0
    5.0042   -0.2699    1.0763 C   0  0  0  0  0  0  0  0  0  0  0  0
    3.7703   -0.9128    0.9034 C   0  0  0  0  0  0  0  0  0  0  0  0
   -2.2417    2.8404   -1.6754 H   0  0  0  0  0  0  0  0  0  0  0  0
   -0.8599    3.9063   -1.3286 H   0  0  0  0  0  0  0  0  0  0  0  0
   -2.4593    4.2434   -0.5462 H   0  0  0  0  0  0  0  0  0  0  0  0
    0.0120    1.4208   -1.0074 H   0  0  0  0  0  0  0  0  0  0  0  0
   -0.2396    1.0236    2.0673 H   0  0  0  0  0  0  0  0  0  0  0  0
    0.7526   -1.1867    1.8712 H   0  0  0  0  0  0  0  0  0  0  0  0
    1.6348   -2.2278   -0.0601 H   0  0  0  0  0  0  0  0  0  0  0  0
    2.5151    0.9588   -1.6723 H   0  0  0  0  0  0  0  0  0  0  0  0
    4.7157    2.1182   -1.3641 H   0  0  0  0  0  0  0  0  0  0  0  0
    6.3155    1.3285    0.3984 H   0  0  0  0  0  0  0  0  0  0  0  0
    5.7071   -0.6319    1.8418 H   0  0  0  0  0  0  0  0  0  0  0  0
    3.5114   -1.7796    1.5330 H   0  0  0  0  0  0  0  0  0  0  0  0
  2 10  2  0  0  0  0
  3  9  1  0  0  0  0
  4 19  1  0  0  0  0
  4  5  1  0  0  0  0
  5  1  2  0  0  0  0
  6  5  1  0  0  0  0
  6  7  1  0  0  0  0
  7 21  1  0  0  0  0
  8  7  1  0  0  0  0
  8 22  1  0  0  0  0
  9 11  1  0  0  0  0
  9 23  1  1  0  0  0
  9  8  1  0  0  0  0
 10  3  1  0  0  0  0
 11 16  1  0  0  0  0
 12 13  1  0  0  0  0
 12 11  2  0  0  0  0
 13 14  2  0  0  0  0
 14 26  1  0  0  0  0
 14 15  1  0  0  0  0
 15 27  1  0  0  0  0
 16 15  2  0  0  0  0
 16 28  1  0  0  0  0
 17  4  1  0  0  0  0
 18  4  1  0  0  0  0
 20  6  1  0  0  0  0
 24 12  1  0  0  0  0
 25 13  1  0  0  0  0
M  END
