1,3
q = 0.0, confidence = 0.99

 30 32  0  0  0  0  0  0  0  0999 V2000
   -2.0780   -1.9227   -0.4349 C   0  0  0  0  0  3  0  0  0  0  0  0
   -2.8305   -1.2141   -1.3951 C   0  0  0  0  0  3  0  0  0  0  0  0
   -2.2108   -0.1450   -2.1132 C   0  0  0  0  0  3  0  0  0  0  0  0
   -0.8470    0.1630   -1.9106 C   0  0  0  0  0  3  0  0  0  0  0  0
   -0.0279   -0.6259   -1.0203 C   0  0  0  0  0  0  0  0  0  0  0  0
   -0.6634   -1.6873   -0.2605 C   0  0  0  0  0  0  0  0  0  0  0  0
    0.1129   -2.4198    0.6925 C   0  0  0  0  0  0  0  0  0  0  0  0
    1.4469   -2.1329    0.8949 C   0  0  0  0  0  0  0  0  0  0  0  0
    2.0678   -1.0754    0.1708 C   0  0  0  0  0  0  0  0  0  0  0  0
    1.3700   -0.3495   -0.8099 C   0  0  0  0  0  0  0  0  0  0  0  0
    2.1447    0.5837   -1.6139 C   0  0  0  0  0  0  0  0  0  0  0  0
    3.3931    0.9370   -1.2283 C   0  0  0  0  0  0  0  0  0  0  0  0
    3.9363    0.4708    0.1055 C   0  0  0  0  0  0  0  0  0  0  0  0
    3.3726   -0.8495    0.4304 O   0  0  0  0  0  0  0  0  0  0  0  0
    3.5375    1.4439    1.2240 C   0  0  0  0  0  0  0  0  0  0  0  0
    5.4452    0.2417    0.0605 C   0  0  0  0  0  0  0  0  0  0  0  0
   -2.5593   -2.6972    0.1793 H   0  0  0  0  0  0  0  0  0  0  0  0
   -3.9031   -1.4147   -1.5175 H   0  0  0  0  0  0  0  0  0  0  0  0
   -2.8105    0.4736   -2.7953 H   0  0  0  0  0  0  0  0  0  0  0  0
   -0.4089    1.0241   -2.4298 H   0  0  0  0  0  0  0  0  0  0  0  0
   -0.3777   -3.2210    1.2651 H   0  0  0  0  0  0  0  0  0  0  0  0
    2.0536   -2.6832    1.6276 H   0  0  0  0  0  0  0  0  0  0  0  0
    1.7308    0.9526   -2.5638 H   0  0  0  0  0  0  0  0  0  0  0  0
    4.0227    1.5980   -1.8430 H   0  0  0  0  0  0  0  0  0  0  0  0
    3.9845    2.4404    1.0362 H   0  0  0  0  0  0  0  0  0  0  0  0
    2.4378    1.5706    1.2662 H   0  0  0  0  0  0  0  0  0  0  0  0
    3.8997    1.0723    2.2038 H   0  0  0  0  0  0  0  0  0  0  0  0
    5.7045   -0.4814   -0.7369 H   0  0  0  0  0  0  0  0  0  0  0  0
    5.9688    1.1965   -0.1410 H   0  0  0  0  0  0  0  0  0  0  0  0
    5.8006   -0.1571    1.0304 H   0  0  0  0  0  0  0  0  0  0  0  0
  1  6  1  0  0  0  0
  1 17  1  0  0  0  0
  2  1  1  0  0  0  0
  3  4  1  0  0  0  0
  3  2  1  0  0  0  0
  4  5  1  0  0  0  0
  5 10  2  0  0  0  0
  5  6  1  0  0  0  0
  6  7  2  0  0  0  0
  7  8  1  0  0  0  0
  7 21  1  0  0  0  0
  8 22  1  0  0  0  0
  9 14  1  0  0  0  0
  9  8  2  0  0  0  0
 10  9  1  0  0  0  0
 11 12  2  0  0  0  0
 11 10  1  0  0  0  0
 12 13  1  0  0  0  0
 13 14  1  0  0  0  0
 13 15  1  0  0  0  0
 15 26  1  0  0  0  0
 15 27  1  0  0  0  0
 16 13  1  0  0  0  0
 16 30  1  0  0  0  0
 18  2  1  0  0  0  0
 19  3  1  0  0  0  0
 20  4  1  0  0  0  0
 23 11  1  0  0  0  0
 24 12  1  0  0  0  0
 25 15  1  0  0  0  0
 28 16  1  0  0  0  0
 29 16  1  0  0  0  0
M  END
