23,26
q = 0.0, confidence = 0.958

 45 48  0  0  1  0  0  0  0  0999 V2000
   -0.2234   -0.3496   -1.6436 O   0  0  0  0  0  0  0  0  0  0  0  0
   -1.6599   -0.3366    0.2414 N   0  0  0  0  0  0  0  0  0  0  0  0
   -1.2924   -0.1106   -1.0772 C   0  0  0  0  0  0  0  0  0  0  0  0
   -3.4148    0.6712   -0.8460 C   0  0  0  0  0  0  0  0  0  0  0  0
   -4.3632    0.4243   -1.3573 H   0  0  0  0  0  0  0  0  0  0  0  0
   -3.3895    1.7542   -0.6058 H   0  0  0  0  0  0  0  0  0  0  0  0
   -2.3309    0.3937   -1.7618 O   0  0  0  0  0  0  0  0  0  0  0  0
   -1.4130   -1.1820    2.3489 O   0  0  0  0  0  0  0  0  0  0  0  0
   -3.1225   -0.2096    0.3811 C   0  0  1  0  0  0  0  0  0  0  0  0
   -3.3388    0.3266    1.3267 H   0  0  0  0  0  0  0  0  0  0  0  0
   -3.8486   -1.5751    0.4112 C   0  0  0  0  0  0  0  0  0  0  0  0
   -3.4209   -2.0967    1.2923 H   0  0  0  0  0  0  0  0  0  0  0  0
   -5.3467   -1.3694    0.6619 C   0  0  0  0  0  0  0  0  0  0  0  0
   -5.5319   -0.7759    1.5807 H   0  0  0  0  0  0  0  0  0  0  0  0
   -5.8573   -2.3448    0.7851 H   0  0  0  0  0  0  0  0  0  0  0  0
   -5.8431   -0.8495   -0.1853 H   0  0  0  0  0  0  0  0  0  0  0  0
   -3.5817   -2.4269   -0.8345 C   0  0  0  0  0  0  0  0  0  0  0  0
   -3.9725   -1.9539   -1.7597 H   0  0  0  0  0  0  0  0  0  0  0  0
   -4.0776   -3.4130   -0.7368 H   0  0  0  0  0  0  0  0  0  0  0  0
   -2.5002   -2.6209   -0.9823 H   0  0  0  0  0  0  0  0  0  0  0  0
   -0.8590   -0.6957    1.3679 C   0  0  0  0  0  0  0  0  0  0  0  0
    0.5802   -0.4029    1.3065 C   0  0  1  0  0  3  0  0  0  0  0  0
    1.2265    0.8032    0.8259 C   0  0  2  0  0  3  0  0  0  0  0  0
    2.6494    0.7700    1.4641 C   0  0  2  0  0  0  0  0  0  0  0  0
    3.1955    1.7290    1.4512 H   0  0  0  0  0  0  0  0  0  0  0  0
    3.2521   -0.3988    0.6544 C   0  0  0  0  0  3  0  0  0  0  0  0
    4.1976   -0.3602    0.0948 H   0  0  0  0  0  0  0  0  0  0  0  0
    2.5907   -1.5729    1.1236 C   0  0  0  0  0  3  0  0  0  0  0  0
    2.9216   -2.6115    0.9785 H   0  0  0  0  0  0  0  0  0  0  0  0
    1.6090   -1.1043    2.2237 C   0  0  1  0  0  0  0  0  0  0  0  0
    1.1977   -1.8687    2.9037 H   0  0  0  0  0  0  0  0  0  0  0  0
    2.3596    0.1026    2.8291 C   0  0  0  0  0  0  0  0  0  0  0  0
    3.2852   -0.1863    3.3692 H   0  0  0  0  0  0  0  0  0  0  0  0
    1.7125    0.7221    3.4844 H   0  0  0  0  0  0  0  0  0  0  0  0
    0.5752    2.0443    0.3470 C   0  0  0  0  0  0  0  0  0  0  0  0
    1.0960    2.7363   -0.7690 C   0  0  0  0  0  0  0  0  0  0  0  0
    1.9783    2.3259   -1.2844 H   0  0  0  0  0  0  0  0  0  0  0  0
    0.4752    3.9008   -1.2389 C   0  0  0  0  0  0  0  0  0  0  0  0
    0.8861    4.4204   -2.1176 H   0  0  0  0  0  0  0  0  0  0  0  0
   -0.6742    4.3976   -0.6013 C   0  0  0  0  0  0  0  0  0  0  0  0
   -1.1622    5.3108   -0.9741 H   0  0  0  0  0  0  0  0  0  0  0  0
   -1.1930    3.7267    0.5179 C   0  0  0  0  0  0  0  0  0  0  0  0
   -2.0816    4.1209    1.0352 H   0  0  0  0  0  0  0  0  0  0  0  0
   -0.5730    2.5594    0.9894 C   0  0  0  0  0  0  0  0  0  0  0  0
   -0.9684    2.0459    1.8797 H   0  0  0  0  0  0  0  0  0  0  0  0
  1  3  2  0  0  0  0
  2  9  1  0  0  0  0
  2 21  1  0  0  0  0
  3  2  1  0  0  0  0
  4  6  1  0  0  0  0
  4  9  1  0  0  0  0
  5  4  1  0  0  0  0
  7  3  1  0  0  0  0
  7  4  1  0  0  0  0
  9 11  1  0  0  0  0
  9 10  1  1  0  0  0
 11 13  1  0  0  0  0
 11 12  1  0  0  0  0
 13 15  1  0  0  0  0
 13 14  1  0  0  0  0
 16 13  1  0  0  0  0
 17 19  1  0  0  0  0
 17 11  1  0  0  0  0
 18 17  1  0  0  0  0
 20 17  1  0  0  0  0
 21  8  2  0  0  0  0
 22 21  1  1  0  0  0
 22 30  1  0  0  0  0
 23 35  1  1  0  0  0
 23 22  1  0  0  0  0
 23 24  1  0  0  0  0
 24 25  1  1  0  0  0
 24 32  1  0  0  0  0
 26 28  1  0  0  0  0
 26 24  1  0  0  0  0
 27 26  1  0  0  0  0
 28 30  1  0  0  0  0
 29 28  1  0  0  0  0
 30 32  1  0  0  0  0
 30 31  1  1  0  0  0
 32 33  1  0  0  0  0
 32 34  1  0  0  0  0
 35 44  1  0  0  0  0
 36 35  2  0  0  0  0
 37 36  1  0  0  0  0
 38 36  1  0  0  0  0
 38 40  2  0  0  0  0
 39 38  1  0  0  0  0
 40 42  1  0  0  0  0
 41 40  1  0  0  0  0
 42 44  2  0  0  0  0
 42 43  1  0  0  0  0
 44 45  1  0  0  0  0
M  END
