3,18
q = -2.0, confidence = 0.744

 52 55  0  0  0  0  0  0  0  0999 V2000
    3.1376   -0.5644   -0.0885 C   0  0  0  0  0  0  0  0  0  0  0  0
    1.8024   -0.3545   -0.0426 C   0  0  0  0  0  0  0  0  0  0  0  0
    1.0740    0.9303    0.1451 C   0  0  0  0  0  3  0  0  0  0  0  0
    0.4163    1.3051    1.3604 C   0  0  0  0  0  3  0  0  0  0  0  0
    0.6092    0.8731    2.3491 H   0  0  0  0  0  0  0  0  0  0  0  0
   -0.4732    2.3993    1.0734 C   0  0  0  0  0  0  0  0  0  0  0  0
   -1.3263    3.1796    1.8992 C   0  0  0  0  0  0  0  0  0  0  0  0
   -1.3660    2.9976    2.9823 H   0  0  0  0  0  0  0  0  0  0  0  0
   -2.1053    4.1612    1.3052 C   0  0  0  0  0  0  0  0  0  0  0  0
   -2.7691    4.7800    1.9277 H   0  0  0  0  0  0  0  0  0  0  0  0
   -2.0783    4.3790   -0.1054 C   0  0  0  0  0  0  0  0  0  0  0  0
   -2.7220    5.1602   -0.5369 H   0  0  0  0  0  0  0  0  0  0  0  0
   -1.2710    3.6183   -0.9377 C   0  0  0  0  0  0  0  0  0  0  0  0
   -1.2678    3.7721   -2.0259 H   0  0  0  0  0  0  0  0  0  0  0  0
   -0.4440    2.6211   -0.3538 C   0  0  0  0  0  0  0  0  0  0  0  0
    0.4678    1.6640   -0.9231 C   0  0  0  0  0  3  0  0  0  0  0  0
    0.7013    1.5494   -1.9879 H   0  0  0  0  0  0  0  0  0  0  0  0
    0.6913   -1.3330   -0.2001 C   0  0  0  0  0  3  0  0  0  0  0  0
   -0.0665   -1.4848   -1.4045 C   0  0  0  0  0  3  0  0  0  0  0  0
    0.2454   -1.1487   -2.4000 H   0  0  0  0  0  0  0  0  0  0  0  0
   -1.2667   -2.2161   -1.0946 C   0  0  0  0  0  0  0  0  0  0  0  0
   -2.3421   -2.6754   -1.9020 C   0  0  0  0  0  0  0  0  0  0  0  0
   -2.3341   -2.4991   -2.9868 H   0  0  0  0  0  0  0  0  0  0  0  0
   -3.3935   -3.3393   -1.2883 C   0  0  0  0  0  0  0  0  0  0  0  0
   -4.2336   -3.7077   -1.8962 H   0  0  0  0  0  0  0  0  0  0  0  0
   -3.4194   -3.5444    0.1244 C   0  0  0  0  0  0  0  0  0  0  0  0
   -4.2786   -4.0666    0.5717 H   0  0  0  0  0  0  0  0  0  0  0  0
   -2.3948   -3.0870    0.9391 C   0  0  0  0  0  0  0  0  0  0  0  0
   -2.4275   -3.2252    2.0289 H   0  0  0  0  0  0  0  0  0  0  0  0
   -1.2941   -2.4217    0.3351 C   0  0  0  0  0  0  0  0  0  0  0  0
   -0.1127   -1.8107    0.8838 C   0  0  0  0  0  3  0  0  0  0  0  0
    0.1607   -1.7737    1.9444 H   0  0  0  0  0  0  0  0  0  0  0  0
    4.1006    0.5920    0.0377 C   0  0  0  0  0  0  0  0  0  0  0  0
    4.9729    0.2864    0.6570 H   0  0  0  0  0  0  0  0  0  0  0  0
    3.6114    1.4320    0.5745 H   0  0  0  0  0  0  0  0  0  0  0  0
    4.6112    1.1013   -1.3240 C   0  0  0  0  0  0  0  0  0  0  0  0
    5.0654    0.2585   -1.8895 H   0  0  0  0  0  0  0  0  0  0  0  0
    3.7369    1.4332   -1.9249 H   0  0  0  0  0  0  0  0  0  0  0  0
    5.6209    2.2409   -1.1928 C   0  0  0  0  0  0  0  0  0  0  0  0
    5.9641    2.5986   -2.1843 H   0  0  0  0  0  0  0  0  0  0  0  0
    6.5181    1.9218   -0.6222 H   0  0  0  0  0  0  0  0  0  0  0  0
    5.1807    3.1078   -0.6574 H   0  0  0  0  0  0  0  0  0  0  0  0
    3.7067   -1.9491   -0.2869 C   0  0  0  0  0  0  0  0  0  0  0  0
    4.4758   -1.9125   -1.0895 H   0  0  0  0  0  0  0  0  0  0  0  0
    2.9062   -2.6308   -0.6440 H   0  0  0  0  0  0  0  0  0  0  0  0
    4.3486   -2.5456    0.9841 C   0  0  0  0  0  0  0  0  0  0  0  0
    4.8181   -3.5148    0.7115 H   0  0  0  0  0  0  0  0  0  0  0  0
    5.1844   -1.8931    1.3198 H   0  0  0  0  0  0  0  0  0  0  0  0
    3.3621   -2.7534    2.1330 C   0  0  0  0  0  0  0  0  0  0  0  0
    3.8584   -3.2025    3.0165 H   0  0  0  0  0  0  0  0  0  0  0  0
    2.5312   -3.4252    1.8326 H   0  0  0  0  0  0  0  0  0  0  0  0
    2.9077   -1.7932    2.4535 H   0  0  0  0  0  0  0  0  0  0  0  0
  1  2  2  0  0  0  0
  1 33  1  0  0  0  0
  2  3  1  0  0  0  0
  3  4  1  0  0  0  0
  4  5  1  0  0  0  0
  6  4  1  0  0  0  0
  6  7  1  0  0  0  0
  7  8  1  0  0  0  0
  9  7  2  0  0  0  0
  9 10  1  0  0  0  0
 11  9  1  0  0  0  0
 12 11  1  0  0  0  0
 13 15  1  0  0  0  0
 13 11  2  0  0  0  0
 14 13  1  0  0  0  0
 15  6  2  0  0  0  0
 16 15  1  0  0  0  0
 16  3  1  0  0  0  0
 17 16  1  0  0  0  0
 18  2  1  0  0  0  0
 18 31  1  0  0  0  0
 19 21  1  0  0  0  0
 19 18  1  0  0  0  0
 20 19  1  0  0  0  0
 21 30  1  0  0  0  0
 22 24  1  0  0  0  0
 22 21  2  0  0  0  0
 23 22  1  0  0  0  0
 24 26  2  0  0  0  0
 25 24  1  0  0  0  0
 26 27  1  0  0  0  0
 26 28  1  0  0  0  0
 28 29  1  0  0  0  0
 30 31  1  0  0  0  0
 30 28  2  0  0  0  0
 31 32  1  0  0  0  0
 33 35  1  0  0  0  0
 33 34  1  0  0  0  0
 36 39  1  0  0  0  0
 36 33  1  0  0  0  0
 37 36  1  0  0  0  0
 38 36  1  0  0  0  0
 39 42  1  0  0  0  0
 39 41  1  0  0  0  0
 40 39  1  0  0  0  0
 43  1  1  0  0  0  0
 43 46  1  0  0  0  0
 44 43  1  0  0  0  0
 45 43  1  0  0  0  0
 46 48  1  0  0  0  0
 46 49  1  0  0  0  0
 47 46  1  0  0  0  0
 49 52  1  0  0  0  0
 49 50  1  0  0  0  0
 51 49  1  0  0  0  0
M  END
