3,11
q = -1.0, confidence = 0.002

 37 40  0  0  0  0  0  0  0  0999 V2000
   -2.6956   -2.3967   -0.3177 N   0  0  0  0  0  0  0  0  0  0  0  0
   -3.0860   -0.2456   -0.6325 N   0  0  0  0  0  0  0  0  0  0  0  0
   -2.0848   -1.1600   -0.4516 C   0  0  0  0  0  2  0  0  0  0  0  0
   -4.3296   -0.8815   -0.5937 C   0  0  0  0  0  0  0  0  0  0  0  0
   -5.6256   -0.3655   -0.7043 C   0  0  0  0  0  0  0  0  0  0  0  0
   -6.6881   -1.2794   -0.6279 C   0  0  0  0  0  0  0  0  0  0  0  0
   -6.4515   -2.6576   -0.4432 C   0  0  0  0  0  0  0  0  0  0  0  0
   -5.1518   -3.1754   -0.3244 C   0  0  0  0  0  0  0  0  0  0  0  0
   -4.0820   -2.2689   -0.3991 C   0  0  0  0  0  0  0  0  0  0  0  0
   -1.7990   -3.4855   -0.1373 C   0  0  0  0  0  0  0  0  0  0  0  0
   -0.4428   -3.0569   -0.1218 C   0  0  0  0  0  3  0  0  0  0  0  0
    0.5500   -4.0379    0.0385 C   0  0  0  0  0  0  0  0  0  0  0  0
    0.1994   -5.3935    0.1841 C   0  0  0  0  0  0  0  0  0  0  0  0
   -1.1472   -5.7873    0.1698 C   0  0  0  0  0  0  0  0  0  0  0  0
   -2.1643   -4.8299    0.0064 C   0  0  0  0  0  0  0  0  0  0  0  0
   -2.8890    1.1837   -0.8115 C   0  0  0  0  0  0  0  0  0  0  0  0
   -3.1012    2.0128    0.4414 C   0  0  0  0  0  0  0  0  0  0  0  0
   -3.3510    1.4346    1.6985 C   0  0  0  0  0  0  0  0  0  0  0  0
   -3.5019    2.2446    2.8361 C   0  0  0  0  0  0  0  0  0  0  0  0
   -3.3992    3.6393    2.7301 C   0  0  0  0  0  0  0  0  0  0  0  0
   -3.1408    4.2218    1.4781 C   0  0  0  0  0  0  0  0  0  0  0  0
   -2.9934    3.4143    0.3431 C   0  0  0  0  0  0  0  0  0  0  0  0
   -5.8011    0.7118   -0.8305 H   0  0  0  0  0  0  0  0  0  0  0  0
   -7.7219   -0.9128   -0.7082 H   0  0  0  0  0  0  0  0  0  0  0  0
   -7.3056   -3.3483   -0.3859 H   0  0  0  0  0  0  0  0  0  0  0  0
   -4.9928   -4.2497   -0.1764 H   0  0  0  0  0  0  0  0  0  0  0  0
    1.6067   -3.7294    0.0421 H   0  0  0  0  0  0  0  0  0  0  0  0
    0.9894   -6.1505    0.3080 H   0  0  0  0  0  0  0  0  0  0  0  0
   -1.4174   -6.8477    0.2837 H   0  0  0  0  0  0  0  0  0  0  0  0
   -3.2150   -5.1455   -0.0082 H   0  0  0  0  0  0  0  0  0  0  0  0
   -3.5680    1.5250   -1.6208 H   0  0  0  0  0  0  0  0  0  0  0  0
   -1.8447    1.3300   -1.1515 H   0  0  0  0  0  0  0  0  0  0  0  0
   -3.4195    0.3410    1.7943 H   0  0  0  0  0  0  0  0  0  0  0  0
   -3.6954    1.7771    3.8134 H   0  0  0  0  0  0  0  0  0  0  0  0
   -3.5136    4.2727    3.6227 H   0  0  0  0  0  0  0  0  0  0  0  0
   -3.0408    5.3138    1.3848 H   0  0  0  0  0  0  0  0  0  0  0  0
   -2.7677    3.8767   -0.6309 H   0  0  0  0  0  0  0  0  0  0  0  0
  1 10  1  0  0  0  0
  2  4  1  0  0  0  0
  2  3  1  0  0  0  0
  3  1  1  0  0  0  0
  4  9  1  0  0  0  0
  5  6  1  0  0  0  0
  5  4  2  0  0  0  0
  6  7  2  0  0  0  0
  7 25  1  0  0  0  0
  7  8  1  0  0  0  0
  8 26  1  0  0  0  0
  9  8  2  0  0  0  0
  9  1  1  0  0  0  0
 10 11  2  0  0  0  0
 10 15  1  0  0  0  0
 11 12  1  0  0  0  0
 12 27  1  0  0  0  0
 12 13  2  0  0  0  0
 13 28  1  0  0  0  0
 14 13  1  0  0  0  0
 14 29  1  0  0  0  0
 15 14  2  0  0  0  0
 16  2  1  0  0  0  0
 16 17  1  0  0  0  0
 17 18  1  0  0  0  0
 18 33  1  0  0  0  0
 18 19  2  0  0  0  0
 19 34  1  0  0  0  0
 20 19  1  0  0  0  0
 20 35  1  0  0  0  0
 21 20  2  0  0  0  0
 22 17  2  0  0  0  0
 22 21  1  0  0  0  0
 23  5  1  0  0  0  0
 24  6  1  0  0  0  0
 30 15  1  0  0  0  0
 31 16  1  0  0  0  0
 32 16  1  0  0  0  0
 36 21  1  0  0  0  0
 37 22  1  0  0  0  0
M  END
