6,7
q = -1.0, confidence = 0.0

 37 37  0  0  1  0  0  0  0  0999 V2000
   -0.9784   -0.0170   -0.5825 B   0  0  0  0  0  0  0  0  0  0  0  0
   -2.3637   -0.0641   -0.2367 N   0  0  0  0  0  0  0  0  0  0  0  0
    2.1553    0.0675   -1.8858 P   0  0  0  0  0  2  0  0  0  0  0  0
   -0.1174    1.2773   -0.6239 C   0  0  0  0  0  3  0  0  0  0  0  0
   -0.4833    2.2171   -0.1761 H   0  0  0  0  0  0  0  0  0  0  0  0
    1.1397    1.4126   -1.2433 C   0  0  1  0  0  3  0  0  0  0  0  0
    1.1617   -1.3529   -1.3793 C   0  0  2  0  0  3  0  0  0  0  0  0
   -0.0958   -1.2899   -0.7508 C   0  0  0  0  0  3  0  0  0  0  0  0
   -0.4465   -2.2713   -0.3799 H   0  0  0  0  0  0  0  0  0  0  0  0
    1.7781    2.7808   -1.3708 C   0  0  0  0  0  0  0  0  0  0  0  0
    1.4050    3.2687   -2.2957 H   0  0  0  0  0  0  0  0  0  0  0  0
    2.8823    2.7292   -1.4425 H   0  0  0  0  0  0  0  0  0  0  0  0
    1.5131    3.4321   -0.5143 H   0  0  0  0  0  0  0  0  0  0  0  0
    1.8209   -2.6927   -1.6344 C   0  0  0  0  0  0  0  0  0  0  0  0
    1.5595   -3.4278   -0.8474 H   0  0  0  0  0  0  0  0  0  0  0  0
    2.9247   -2.6193   -1.6914 H   0  0  0  0  0  0  0  0  0  0  0  0
    1.4617   -3.0934   -2.6056 H   0  0  0  0  0  0  0  0  0  0  0  0
   -3.1787    1.1277    0.0897 C   0  0  0  0  0  0  0  0  0  0  0  0
   -4.2097    0.7538    0.2598 H   0  0  0  0  0  0  0  0  0  0  0  0
   -2.7631    1.8048    1.4050 C   0  0  0  0  0  0  0  0  0  0  0  0
   -2.7348    1.0719    2.2335 H   0  0  0  0  0  0  0  0  0  0  0  0
   -3.4845    2.6044    1.6704 H   0  0  0  0  0  0  0  0  0  0  0  0
   -1.7595    2.2683    1.3447 H   0  0  0  0  0  0  0  0  0  0  0  0
   -3.2786    2.1088   -1.0872 C   0  0  0  0  0  0  0  0  0  0  0  0
   -2.2971    2.5526   -1.3431 H   0  0  0  0  0  0  0  0  0  0  0  0
   -3.9724    2.9393   -0.8441 H   0  0  0  0  0  0  0  0  0  0  0  0
   -3.6576    1.5926   -1.9910 H   0  0  0  0  0  0  0  0  0  0  0  0
   -3.0886   -1.3475   -0.1615 C   0  0  0  0  0  0  0  0  0  0  0  0
   -2.3622   -2.1255   -0.4628 H   0  0  0  0  0  0  0  0  0  0  0  0
   -4.2445   -1.4299   -1.1709 C   0  0  0  0  0  0  0  0  0  0  0  0
   -5.0570   -0.7104   -0.9400 H   0  0  0  0  0  0  0  0  0  0  0  0
   -4.6943   -2.4432   -1.1588 H   0  0  0  0  0  0  0  0  0  0  0  0
   -3.8836   -1.2221   -2.1978 H   0  0  0  0  0  0  0  0  0  0  0  0
   -3.5424   -1.6838    1.2673 C   0  0  0  0  0  0  0  0  0  0  0  0
   -2.6858   -1.6556    1.9691 H   0  0  0  0  0  0  0  0  0  0  0  0
   -3.9938   -2.6960    1.3043 H   0  0  0  0  0  0  0  0  0  0  0  0
   -4.3084   -0.9700    1.6353 H   0  0  0  0  0  0  0  0  0  0  0  0
  1  2  1  0  0  0  0
  2 28  1  0  0  0  0
  2 18  1  0  0  0  0
  3  7  1  0  0  0  0
  3  6  1  0  0  0  0
  4  1  1  0  0  0  0
  4  5  1  0  0  0  0
  6 10  1  1  0  0  0
  6  4  1  0  0  0  0
  7 14  1  1  0  0  0
  7  8  1  0  0  0  0
  8  1  1  0  0  0  0
  8  9  1  0  0  0  0
 10 13  1  0  0  0  0
 11 10  1  0  0  0  0
 12 10  1  0  0  0  0
 14 15  1  0  0  0  0
 16 14  1  0  0  0  0
 17 14  1  0  0  0  0
 18 19  1  0  0  0  0
 18 20  1  0  0  0  0
 20 22  1  0  0  0  0
 20 21  1  0  0  0  0
 23 20  1  0  0  0  0
 24 26  1  0  0  0  0
 24 18  1  0  0  0  0
 25 24  1  0  0  0  0
 27 24  1  0  0  0  0
 28 34  1  0  0  0  0
 29 28  1  0  0  0  0
 30 32  1  0  0  0  0
 30 31  1  0  0  0  0
 30 28  1  0  0  0  0
 33 30  1  0  0  0  0
 34 36  1  0  0  0  0
 34 37  1  0  0  0  0
 34 35  1  0  0  0  0
M  END
