3,5
q = -1.0, confidence = 0.002

 38 38  0  0  1  0  0  0  0  0999 V2000
    7.1846    1.9054   -2.0854 O   0  0  0  0  0  0  0  0  0  0  0  0
    8.0768    1.8447   -2.4688 H   0  0  0  0  0  0  0  0  0  0  0  0
    1.6412   -0.1619    1.1444 C   0  0  1  0  0  3  0  0  0  0  0  0
    0.9200   -1.1628    1.8862 C   0  0  2  0  0  3  0  0  0  0  0  0
   -0.3424   -0.5920    2.3337 C   0  0  2  0  0  3  0  0  0  0  0  0
   -0.3504    0.8077    1.9339 C   0  0  0  0  0  0  0  0  0  0  0  0
    0.8399    1.0690    1.1722 C   0  0  0  0  0  0  0  0  0  0  0  0
    1.3842   -2.5521    2.1867 C   0  0  0  0  0  0  0  0  0  0  0  0
    2.2091   -2.8658    1.5201 H   0  0  0  0  0  0  0  0  0  0  0  0
    0.5645   -3.2914    2.0978 H   0  0  0  0  0  0  0  0  0  0  0  0
    1.7635   -2.6027    3.2295 H   0  0  0  0  0  0  0  0  0  0  0  0
   -1.3792   -1.2603    3.1798 C   0  0  0  0  0  0  0  0  0  0  0  0
   -1.2042   -1.0685    4.2611 H   0  0  0  0  0  0  0  0  0  0  0  0
   -1.3796   -2.3571    3.0305 H   0  0  0  0  0  0  0  0  0  0  0  0
   -2.3923   -0.8876    2.9338 H   0  0  0  0  0  0  0  0  0  0  0  0
   -1.3972    1.7950    2.3324 C   0  0  0  0  0  0  0  0  0  0  0  0
   -1.2759    2.0318    3.4114 H   0  0  0  0  0  0  0  0  0  0  0  0
   -2.4212    1.3997    2.1886 H   0  0  0  0  0  0  0  0  0  0  0  0
   -1.3204    2.7374    1.7625 H   0  0  0  0  0  0  0  0  0  0  0  0
    1.2395    2.3590    0.5320 C   0  0  0  0  0  0  0  0  0  0  0  0
    0.3935    3.0681    0.4646 H   0  0  0  0  0  0  0  0  0  0  0  0
    1.5987    2.1742   -0.5002 H   0  0  0  0  0  0  0  0  0  0  0  0
    2.0561    2.8459    1.1056 H   0  0  0  0  0  0  0  0  0  0  0  0
    2.9928   -0.2926    0.5151 C   0  0  0  0  0  0  0  0  0  0  0  0
    2.9803    0.2574   -0.4477 H   0  0  0  0  0  0  0  0  0  0  0  0
    3.1794   -1.3545    0.2459 H   0  0  0  0  0  0  0  0  0  0  0  0
    4.1287    0.2069    1.4265 C   0  0  0  0  0  0  0  0  0  0  0  0
    3.9227    1.2582    1.7252 H   0  0  0  0  0  0  0  0  0  0  0  0
    4.1188   -0.3825    2.3688 H   0  0  0  0  0  0  0  0  0  0  0  0
    5.5191    0.1253    0.7842 C   0  0  0  0  0  0  0  0  0  0  0  0
    6.2834    0.3563    1.5585 H   0  0  0  0  0  0  0  0  0  0  0  0
    5.7155   -0.9254    0.4704 H   0  0  0  0  0  0  0  0  0  0  0  0
    5.7156    1.0617   -0.4102 C   0  0  0  0  0  0  0  0  0  0  0  0
    5.5073    2.1119   -0.1092 H   0  0  0  0  0  0  0  0  0  0  0  0
    4.9967    0.8275   -1.2238 H   0  0  0  0  0  0  0  0  0  0  0  0
    7.1193    1.0024   -0.9970 C   0  0  0  0  0  0  0  0  0  0  0  0
    7.8636    1.2540   -0.1978 H   0  0  0  0  0  0  0  0  0  0  0  0
    7.3397   -0.0503   -1.3110 H   0  0  0  0  0  0  0  0  0  0  0  0
  1 36  1  0  0  0  0
  2  1  1  0  0  0  0
  3 24  1  1  0  0  0
  3  7  1  0  0  0  0
  3  4  1  0  0  0  0
  4  8  1  1  0  0  0
  4  5  1  0  0  0  0
  5 12  1  1  0  0  0
  6 16  1  0  0  0  0
  6  5  1  0  0  0  0
  7  6  2  0  0  0  0
  8 11  1  0  0  0  0
  9  8  1  0  0  0  0
 10  8  1  0  0  0  0
 12 13  1  0  0  0  0
 14 12  1  0  0  0  0
 15 12  1  0  0  0  0
 16 17  1  0  0  0  0
 18 16  1  0  0  0  0
 19 16  1  0  0  0  0
 20 23  1  0  0  0  0
 20  7  1  0  0  0  0
 21 20  1  0  0  0  0
 22 20  1  0  0  0  0
 24 27  1  0  0  0  0
 25 24  1  0  0  0  0
 26 24  1  0  0  0  0
 27 28  1  0  0  0  0
 27 29  1  0  0  0  0
 30 27  1  0  0  0  0
 30 31  1  0  0  0  0
 32 30  1  0  0  0  0
 33 34  1  0  0  0  0
 33 30  1  0  0  0  0
 35 33  1  0  0  0  0
 36 33  1  0  0  0  0
 36 37  1  0  0  0  0
 38 36  1  0  0  0  0
M  END
