1,14
q = -2.0, confidence = 0.678

 20 19  0  0  1  0  0  0  0  0999 V2000
    1.2656   -1.2594    0.7225 C   0  0  0  0  0  3  0  0  0  0  0  0
    1.2864   -1.6771    1.8544 O   0  0  0  0  0  0  0  0  0  0  0  0
    1.8164   -2.0378   -0.2754 O   0  0  0  0  0  0  0  0  0  0  0  0
   -3.0706   -1.3881    0.8165 C   0  0  0  0  0  0  0  0  0  0  0  0
   -4.1800   -1.3788    0.8393 H   0  0  0  0  0  0  0  0  0  0  0  0
   -2.6997   -0.7259    1.6207 H   0  0  0  0  0  0  0  0  0  0  0  0
   -2.7406   -2.4231    1.0369 H   0  0  0  0  0  0  0  0  0  0  0  0
   -2.5590   -0.9284   -0.5480 C   0  0  1  0  0  0  0  0  0  0  0  0
   -2.9954   -1.6170   -1.3222 H   0  0  0  0  0  0  0  0  0  0  0  0
   -2.9242    0.4139   -0.8419 O   0  0  0  0  0  0  0  0  0  0  0  0
   -3.8928    0.4807   -0.7647 H   0  0  0  0  0  0  0  0  0  0  0  0
   -1.0595   -1.0586   -0.7007 C   0  0  0  0  0  3  0  0  0  0  0  0
   -0.6583   -2.0216   -0.3527 H   0  0  0  0  0  0  0  0  0  0  0  0
   -0.3848   -0.3362   -1.7154 C   0  0  0  0  0  3  0  0  0  0  0  0
   -0.9871    0.3671   -2.3138 H   0  0  0  0  0  0  0  0  0  0  0  0
    1.0398   -0.2729   -1.8047 C   0  0  0  0  0  3  0  0  0  0  0  0
    1.4299    0.4540   -2.5371 H   0  0  0  0  0  0  0  0  0  0  0  0
    1.9874   -1.4205   -1.5443 C   0  0  0  0  0  0  0  0  0  0  0  0
    1.8534   -2.2225   -2.3036 H   0  0  0  0  0  0  0  0  0  0  0  0
    3.0346   -1.0549   -1.6320 H   0  0  0  0  0  0  0  0  0  0  0  0
  1  2  2  0  0  0  0
  3  1  1  0  0  0  0
  4  5  1  0  0  0  0
  4  7  1  0  0  0  0
  4  6  1  0  0  0  0
  8  9  1  6  0  0  0
  8  4  1  0  0  0  0
 10 11  1  0  0  0  0
 10  8  1  0  0  0  0
 12  8  1  0  0  0  0
 12 13  1  0  0  0  0
 14 12  1  0  0  0  0
 15 14  1  0  0  0  0
 16 14  1  0  0  0  0
 16 18  1  0  0  0  0
 17 16  1  0  0  0  0
 18  3  1  0  0  0  0
 19 18  1  0  0  0  0
 20 18  1  0  0  0  0
M  END
