2,6
q = -2.0, confidence = 0.524

 35 36  0  0  1  0  0  0  0  0999 V2000
   -0.5328   -1.6354   -0.5212 C   0  0  0  0  0  3  0  0  0  0  0  0
   -0.9761   -0.8891   -1.6351 C   0  0  0  0  0  3  0  0  0  0  0  0
   -0.8058    0.5275   -1.7655 C   0  0  0  0  0  3  0  0  0  0  0  0
    0.4931    1.2592   -1.4796 C   0  0  0  0  0  0  0  0  0  0  0  0
    0.8396    1.3294    0.0247 C   0  0  1  0  0  0  0  0  0  0  0  0
    0.0900    0.2458    0.7794 C   0  0  0  0  0  3  0  0  0  0  0  0
    0.5424   -1.1811    0.4540 C   0  0  2  0  0  0  0  0  0  0  0  0
    2.0451   -1.4227    0.0357 C   0  0  0  0  0  0  0  0  0  0  0  0
    2.8527   -0.1276   -0.2705 C   0  0  0  0  0  0  0  0  0  0  0  0
    2.3749    1.2328    0.2756 C   0  0  0  0  0  0  0  0  0  0  0  0
    3.8902   -0.2116   -0.9125 O   0  0  0  0  0  0  0  0  0  0  0  0
    2.7903   -2.1016    1.2145 C   0  0  0  0  0  0  0  0  0  0  0  0
    2.1517   -2.3457   -1.1915 C   0  0  0  0  0  0  0  0  0  0  0  0
    2.6971    1.3220    1.7845 C   0  0  0  0  0  0  0  0  0  0  0  0
    3.1248    2.3639   -0.4435 C   0  0  0  0  0  0  0  0  0  0  0  0
   -0.8644   -2.6859   -0.4790 H   0  0  0  0  0  0  0  0  0  0  0  0
   -1.6687   -1.3970   -2.3276 H   0  0  0  0  0  0  0  0  0  0  0  0
   -1.4160    0.9744   -2.5682 H   0  0  0  0  0  0  0  0  0  0  0  0
    1.3061    0.7475   -2.0443 H   0  0  0  0  0  0  0  0  0  0  0  0
    0.4370    2.2784   -1.9081 H   0  0  0  0  0  0  0  0  0  0  0  0
    0.5063    2.3178    0.4094 H   0  0  0  0  0  0  0  0  0  0  0  0
    0.0795    0.4513    1.8645 H   0  0  0  0  0  0  0  0  0  0  0  0
    0.3729   -1.7924    1.3640 H   0  0  0  0  0  0  0  0  0  0  0  0
    3.8652   -2.2241    0.9761 H   0  0  0  0  0  0  0  0  0  0  0  0
    2.7079   -1.5191    2.1527 H   0  0  0  0  0  0  0  0  0  0  0  0
    2.3572   -3.1062    1.3996 H   0  0  0  0  0  0  0  0  0  0  0  0
    1.6480   -1.9104   -2.0767 H   0  0  0  0  0  0  0  0  0  0  0  0
    3.2157   -2.4986   -1.4512 H   0  0  0  0  0  0  0  0  0  0  0  0
    1.6867   -3.3297   -0.9824 H   0  0  0  0  0  0  0  0  0  0  0  0
    3.7894    1.2389    1.9524 H   0  0  0  0  0  0  0  0  0  0  0  0
    2.3651    2.3064    2.1752 H   0  0  0  0  0  0  0  0  0  0  0  0
    2.1975    0.5402    2.3857 H   0  0  0  0  0  0  0  0  0  0  0  0
    2.7659    3.3478   -0.0786 H   0  0  0  0  0  0  0  0  0  0  0  0
    2.9837    2.3223   -1.5403 H   0  0  0  0  0  0  0  0  0  0  0  0
    4.2129    2.2908   -0.2571 H   0  0  0  0  0  0  0  0  0  0  0  0
  1 16  1  0  0  0  0
  1  7  1  0  0  0  0
  2  1  1  0  0  0  0
  3  2  1  0  0  0  0
  3  4  1  0  0  0  0
  4  5  1  0  0  0  0
  5 10  1  0  0  0  0
  5 21  1  1  0  0  0
  5  6  1  0  0  0  0
  6 22  1  0  0  0  0
  7  6  1  0  0  0  0
  7 23  1  1  0  0  0
  8  7  1  0  0  0  0
  8 12  1  0  0  0  0
  9  8  1  0  0  0  0
  9 10  1  0  0  0  0
 10 14  1  0  0  0  0
 11  9  2  0  0  0  0
 12 26  1  0  0  0  0
 12 25  1  0  0  0  0
 13 29  1  0  0  0  0
 13  8  1  0  0  0  0
 14 30  1  0  0  0  0
 14 31  1  0  0  0  0
 14 32  1  0  0  0  0
 15 35  1  0  0  0  0
 15 33  1  0  0  0  0
 15 10  1  0  0  0  0
 17  2  1  0  0  0  0
 18  3  1  0  0  0  0
 19  4  1  0  0  0  0
 20  4  1  0  0  0  0
 24 12  1  0  0  0  0
 27 13  1  0  0  0  0
 28 13  1  0  0  0  0
 34 15  1  0  0  0  0
M  END
