6,13
q = 0.0, confidence = 0.996

 56 60  0  0  0  0  0  0  0  0999 V2000
   -1.8826    0.7042    0.7115 C   0  0  0  0  0  0  0  0  0  0  0  0
   -1.8034   -0.6263    0.9654 C   0  0  0  0  0  0  0  0  0  0  0  0
   -2.3397   -1.7439    0.1497 C   0  0  0  0  0  0  0  0  0  0  0  0
   -1.5027   -2.5981   -0.6329 C   0  0  0  0  0  0  0  0  0  0  0  0
   -0.0328   -2.4886   -0.7537 C   0  0  0  0  0  3  0  0  0  0  0  0
    0.9417   -2.2810    0.1973 C   0  0  0  0  0  3  0  0  0  0  0  0
    0.7735   -2.1772    1.6642 C   0  0  0  0  0  0  0  0  0  0  0  0
    1.4245   -1.1202    2.3724 C   0  0  0  0  0  0  0  0  0  0  0  0
    2.3086   -0.2035    1.6114 C   0  0  0  0  0  0  0  0  0  0  0  0
    2.2151    1.1407    1.3999 C   0  0  0  0  0  0  0  0  0  0  0  0
    1.1905    2.1201    1.8405 C   0  0  0  0  0  0  0  0  0  0  0  0
    0.4160    2.7771    0.8350 C   0  0  0  0  0  0  0  0  0  0  0  0
    0.6218    2.4218   -0.5885 C   0  0  0  0  0  3  0  0  0  0  0  0
   -0.3336    2.1497   -1.5493 C   0  0  0  0  0  3  0  0  0  0  0  0
   -1.8076    2.0487   -1.4633 C   0  0  0  0  0  0  0  0  0  0  0  0
   -2.5403    1.3769   -0.4360 C   0  0  0  0  0  0  0  0  0  0  0  0
   -3.7320   -1.9749    0.1469 C   0  0  0  0  0  0  0  0  0  0  0  0
   -4.3118   -2.9984   -0.6133 C   0  0  0  0  0  0  0  0  0  0  0  0
   -3.4967   -3.8103   -1.4153 C   0  0  0  0  0  0  0  0  0  0  0  0
   -2.1153   -3.5964   -1.4298 C   0  0  0  0  0  0  0  0  0  0  0  0
   -0.0392   -3.0885    2.3672 C   0  0  0  0  0  0  0  0  0  0  0  0
   -0.2274   -2.9617    3.7506 C   0  0  0  0  0  0  0  0  0  0  0  0
    0.3962   -1.9148    4.4461 C   0  0  0  0  0  0  0  0  0  0  0  0
    1.2171   -1.0056    3.7602 C   0  0  0  0  0  0  0  0  0  0  0  0
    0.9585    2.4416    3.1908 C   0  0  0  0  0  0  0  0  0  0  0  0
   -0.0081    3.3944    3.5509 C   0  0  0  0  0  0  0  0  0  0  0  0
   -0.7564    4.0473    2.5599 C   0  0  0  0  0  0  0  0  0  0  0  0
   -0.5445    3.7371    1.2089 C   0  0  0  0  0  0  0  0  0  0  0  0
   -2.5243    2.6094   -2.5487 C   0  0  0  0  0  0  0  0  0  0  0  0
   -3.9209    2.5813   -2.6065 C   0  0  0  0  0  0  0  0  0  0  0  0
   -4.6400    1.9552   -1.5783 C   0  0  0  0  0  0  0  0  0  0  0  0
   -3.9490    1.3559   -0.5176 C   0  0  0  0  0  0  0  0  0  0  0  0
   -1.4125    1.3624    1.4596 H   0  0  0  0  0  0  0  0  0  0  0  0
   -1.2742   -0.9062    1.8911 H   0  0  0  0  0  0  0  0  0  0  0  0
    0.3525   -2.6836   -1.7708 H   0  0  0  0  0  0  0  0  0  0  0  0
    1.9836   -2.2765   -0.1787 H   0  0  0  0  0  0  0  0  0  0  0  0
    3.1376   -0.6941    1.0659 H   0  0  0  0  0  0  0  0  0  0  0  0
    2.9852    1.5435    0.7161 H   0  0  0  0  0  0  0  0  0  0  0  0
    1.6614    2.4822   -0.9616 H   0  0  0  0  0  0  0  0  0  0  0  0
    0.0553    2.0992   -2.5825 H   0  0  0  0  0  0  0  0  0  0  0  0
   -4.3692   -1.3348    0.7732 H   0  0  0  0  0  0  0  0  0  0  0  0
   -5.4012   -3.1511   -0.5882 H   0  0  0  0  0  0  0  0  0  0  0  0
   -3.9362   -4.6067   -2.0341 H   0  0  0  0  0  0  0  0  0  0  0  0
   -1.4734   -4.2248   -2.0665 H   0  0  0  0  0  0  0  0  0  0  0  0
   -0.5342   -3.8986    1.8114 H   0  0  0  0  0  0  0  0  0  0  0  0
   -0.8620   -3.6832    4.2864 H   0  0  0  0  0  0  0  0  0  0  0  0
    0.2536   -1.8092    5.5321 H   0  0  0  0  0  0  0  0  0  0  0  0
    1.7309   -0.2071    4.3131 H   0  0  0  0  0  0  0  0  0  0  0  0
    1.5628    1.9541    3.9681 H   0  0  0  0  0  0  0  0  0  0  0  0
   -0.1696    3.6327    4.6129 H   0  0  0  0  0  0  0  0  0  0  0  0
   -1.5080    4.8009    2.8384 H   0  0  0  0  0  0  0  0  0  0  0  0
   -1.1357    4.2334    0.4251 H   0  0  0  0  0  0  0  0  0  0  0  0
   -1.9560    3.0879   -3.3613 H   0  0  0  0  0  0  0  0  0  0  0  0
   -4.4454    3.0414   -3.4570 H   0  0  0  0  0  0  0  0  0  0  0  0
   -5.7393    1.9203   -1.6063 H   0  0  0  0  0  0  0  0  0  0  0  0
   -4.5109    0.8619    0.2870 H   0  0  0  0  0  0  0  0  0  0  0  0
  1  2  2  0  0  0  0
  1 33  1  0  0  0  0
  2 34  1  0  0  0  0
  3  2  1  0  0  0  0
  4  3  2  0  0  0  0
  5  4  1  0  0  0  0
  5  6  1  0  0  0  0
  6  7  1  0  0  0  0
  7 21  2  0  0  0  0
  7  8  1  0  0  0  0
  8 24  2  0  0  0  0
  9  8  1  0  0  0  0
 10  9  2  0  0  0  0
 10 11  1  0  0  0  0
 11 25  1  0  0  0  0
 12 28  1  0  0  0  0
 12 11  2  0  0  0  0
 13 12  1  0  0  0  0
 14 15  1  0  0  0  0
 14 13  1  0  0  0  0
 15 16  1  0  0  0  0
 16  1  1  0  0  0  0
 17  3  1  0  0  0  0
 17 41  1  0  0  0  0
 18 42  1  0  0  0  0
 18 17  2  0  0  0  0
 19 18  1  0  0  0  0
 20 19  2  0  0  0  0
 20  4  1  0  0  0  0
 21 22  1  0  0  0  0
 22 46  1  0  0  0  0
 22 23  2  0  0  0  0
 23 47  1  0  0  0  0
 24 48  1  0  0  0  0
 24 23  1  0  0  0  0
 25 26  2  0  0  0  0
 25 49  1  0  0  0  0
 26 50  1  0  0  0  0
 27 51  1  0  0  0  0
 27 26  1  0  0  0  0
 28 27  2  0  0  0  0
 29 15  2  0  0  0  0
 30 29  1  0  0  0  0
 30 31  2  0  0  0  0
 31 32  1  0  0  0  0
 32 16  2  0  0  0  0
 32 56  1  0  0  0  0
 35  5  1  0  0  0  0
 36  6  1  0  0  0  0
 37  9  1  0  0  0  0
 38 10  1  0  0  0  0
 39 13  1  0  0  0  0
 40 14  1  0  0  0  0
 43 19  1  0  0  0  0
 44 20  1  0  0  0  0
 45 21  1  0  0  0  0
 52 28  1  0  0  0  0
 53 29  1  0  0  0  0
 54 30  1  0  0  0  0
 55 31  1  0  0  0  0
M  END
