12,16
q = 0.0, confidence = 0.974

 19 20  0  0  1  0  0  0  0  0999 V2000
   -2.2281   -0.4666   -0.5671 C   0  0  0  0  0  0  0  0  0  0  0  0
   -3.3610    0.5197   -0.5043 C   0  0  0  0  0  0  0  0  0  0  0  0
   -4.2830   -0.0181   -0.8210 H   0  0  0  0  0  0  0  0  0  0  0  0
   -3.2184    1.3749   -1.1917 H   0  0  0  0  0  0  0  0  0  0  0  0
   -3.4126    0.9337    0.9847 C   0  0  0  0  0  0  0  0  0  0  0  0
   -2.7823    1.8352    1.1166 H   0  0  0  0  0  0  0  0  0  0  0  0
   -4.4351    1.1795    1.3260 H   0  0  0  0  0  0  0  0  0  0  0  0
   -2.7898   -0.2465    1.7683 C   0  0  0  0  0  0  0  0  0  0  0  0
   -2.2616    0.0640    2.6920 H   0  0  0  0  0  0  0  0  0  0  0  0
   -3.5595   -0.9891    2.0765 H   0  0  0  0  0  0  0  0  0  0  0  0
   -1.8857   -0.8983    0.7530 C   0  0  2  0  0  3  0  0  0  0  0  0
   -0.8035   -1.8159    0.9368 C   0  0  0  0  0  3  0  0  0  0  0  0
   -0.5047   -2.1121    1.9554 H   0  0  0  0  0  0  0  0  0  0  0  0
   -0.0996   -2.3413   -0.1898 C   0  0  0  0  0  3  0  0  0  0  0  0
    0.7201   -3.0605   -0.0482 H   0  0  0  0  0  0  0  0  0  0  0  0
   -0.4095   -1.8356   -1.4955 C   0  0  0  0  0  3  0  0  0  0  0  0
    0.2037   -2.1465   -2.3566 H   0  0  0  0  0  0  0  0  0  0  0  0
   -1.4774   -0.9035   -1.7007 C   0  0  0  0  0  0  0  0  0  0  0  0
   -1.6741   -0.4903   -2.6994 H   0  0  0  0  0  0  0  0  0  0  0  0
  1  2  1  0  0  0  0
  2  5  1  0  0  0  0
  3  2  1  0  0  0  0
  4  2  1  0  0  0  0
  5  6  1  0  0  0  0
  5  7  1  0  0  0  0
  5  8  1  0  0  0  0
  8 10  1  0  0  0  0
  8  9  1  0  0  0  0
 11  1  1  1  0  0  0
 11 12  1  0  0  0  0
 11  8  1  0  0  0  0
 12 13  1  0  0  0  0
 14 15  1  0  0  0  0
 14 12  1  0  0  0  0
 16 14  1  0  0  0  0
 17 16  1  0  0  0  0
 18 16  1  0  0  0  0
 18  1  2  0  0  0  0
 19 18  1  0  0  0  0
M  END
