2,8
q = 0.0, confidence = 0.988

 22 23  0  0  0  0  0  0  0  0999 V2000
    1.6562    0.7368   -0.4618 C   0  0  0  0  0  0  0  0  0  0  0  0
    0.8009    1.6277   -1.2154 C   0  0  0  0  0  3  0  0  0  0  0  0
    0.8952    1.6491   -2.3111 H   0  0  0  0  0  0  0  0  0  0  0  0
   -0.2055    2.4020   -0.5856 C   0  0  0  0  0  0  0  0  0  0  0  0
   -0.8661    3.0364   -1.1956 H   0  0  0  0  0  0  0  0  0  0  0  0
   -0.4101    2.2883    0.8346 C   0  0  0  0  0  0  0  0  0  0  0  0
   -1.2163    2.8468    1.3332 H   0  0  0  0  0  0  0  0  0  0  0  0
    0.3932    1.3809    1.5763 C   0  0  0  0  0  3  0  0  0  0  0  0
    0.1940    1.2396    2.6507 H   0  0  0  0  0  0  0  0  0  0  0  0
    1.4313    0.5939    0.9436 C   0  0  0  0  0  0  0  0  0  0  0  0
    2.2231   -0.4056    1.7536 C   0  0  0  0  0  0  0  0  0  0  0  0
    1.5846   -0.8226    2.5615 H   0  0  0  0  0  0  0  0  0  0  0  0
    3.0281    0.1567    2.2785 H   0  0  0  0  0  0  0  0  0  0  0  0
    2.8437   -1.5106    0.8939 C   0  0  0  0  0  0  0  0  0  0  0  0
    3.5096   -2.1393    1.5169 H   0  0  0  0  0  0  0  0  0  0  0  0
    2.0456   -2.1802    0.5012 H   0  0  0  0  0  0  0  0  0  0  0  0
    3.6101   -0.8935   -0.2781 C   0  0  0  0  0  0  0  0  0  0  0  0
    4.1296   -1.6759   -0.8650 H   0  0  0  0  0  0  0  0  0  0  0  0
    4.4029   -0.2239    0.1201 H   0  0  0  0  0  0  0  0  0  0  0  0
    2.6707   -0.1060   -1.1974 C   0  0  0  0  0  0  0  0  0  0  0  0
    3.2446    0.5618   -1.8736 H   0  0  0  0  0  0  0  0  0  0  0  0
    2.1026   -0.7950   -1.8611 H   0  0  0  0  0  0  0  0  0  0  0  0
  1 10  2  0  0  0  0
  2  4  1  0  0  0  0
  2  1  1  0  0  0  0
  3  2  1  0  0  0  0
  4  6  2  0  0  0  0
  5  4  1  0  0  0  0
  6  7  1  0  0  0  0
  6  8  1  0  0  0  0
  8  9  1  0  0  0  0
 10  8  1  0  0  0  0
 10 11  1  0  0  0  0
 11 13  1  0  0  0  0
 11 12  1  0  0  0  0
 14 15  1  0  0  0  0
 14 11  1  0  0  0  0
 16 14  1  0  0  0  0
 17 19  1  0  0  0  0
 17 14  1  0  0  0  0
 18 17  1  0  0  0  0
 20  1  1  0  0  0  0
 20 17  1  0  0  0  0
 21 20  1  0  0  0  0
 22 20  1  0  0  0  0
M  END
