1,2
q = 0.0, confidence = 0.988

 60 62  0  0  1  0  0  0  0  0999 V2000
    1.6968    1.5232   -0.1778 C   0  0  0  0  0  2  0  0  0  0  0  0
    1.7406   -0.7414    1.1622 C   0  0  0  0  0  2  0  0  0  0  0  0
    0.7088    2.3986    0.0952 N   0  0  0  0  0  0  0  0  0  0  0  0
    0.9584    3.2854    0.5474 H   0  0  0  0  0  0  0  0  0  0  0  0
    3.2430    3.1941    0.7699 C   0  0  0  0  0  0  0  0  0  0  0  0
    2.7531    3.2819    1.7670 H   0  0  0  0  0  0  0  0  0  0  0  0
    2.9089    4.0416    0.1338 H   0  0  0  0  0  0  0  0  0  0  0  0
    4.3305    3.3045    0.9175 H   0  0  0  0  0  0  0  0  0  0  0  0
    2.9664   -0.7951    3.2808 C   0  0  0  0  0  0  0  0  0  0  0  0
    2.6682   -1.8442    3.4903 H   0  0  0  0  0  0  0  0  0  0  0  0
    2.3273   -0.1132    3.8866 H   0  0  0  0  0  0  0  0  0  0  0  0
    4.0086   -0.6682    3.6221 H   0  0  0  0  0  0  0  0  0  0  0  0
    4.0097    0.8918   -0.0079 C   0  0  2  0  0  0  0  0  0  0  0  0
    3.6687    0.2684   -0.8649 H   0  0  0  0  0  0  0  0  0  0  0  0
    4.1426   -0.0416    1.2211 C   0  0  2  0  0  0  0  0  0  0  0  0
    4.6535    0.5473    2.0171 H   0  0  0  0  0  0  0  0  0  0  0  0
    5.0310   -1.2367    0.8312 C   0  0  0  0  0  0  0  0  0  0  0  0
    5.1387   -1.9179    1.7012 H   0  0  0  0  0  0  0  0  0  0  0  0
    4.4889   -1.8055    0.0427 H   0  0  0  0  0  0  0  0  0  0  0  0
    6.4083   -0.7695    0.3457 C   0  0  0  0  0  0  0  0  0  0  0  0
    7.0068   -1.6445    0.0199 H   0  0  0  0  0  0  0  0  0  0  0  0
    6.9625   -0.3120    1.1970 H   0  0  0  0  0  0  0  0  0  0  0  0
    6.2984    0.2538   -0.7909 C   0  0  0  0  0  0  0  0  0  0  0  0
    5.8754   -0.2381   -1.6928 H   0  0  0  0  0  0  0  0  0  0  0  0
    7.3026    0.6300   -1.0740 H   0  0  0  0  0  0  0  0  0  0  0  0
    5.3902    1.4292   -0.3988 C   0  0  0  0  0  0  0  0  0  0  0  0
    5.8623    1.9929    0.4388 H   0  0  0  0  0  0  0  0  0  0  0  0
    5.2718    2.1323   -1.2485 H   0  0  0  0  0  0  0  0  0  0  0  0
    0.6669   -1.1256    1.8916 N   0  0  0  0  0  0  0  0  0  0  0  0
    0.7324   -1.1338    2.9148 H   0  0  0  0  0  0  0  0  0  0  0  0
    2.9565    1.9158    0.1352 N   0  0  0  0  0  0  0  0  0  0  0  0
    2.8767   -0.4941    1.8519 N   0  0  0  0  0  0  0  0  0  0  0  0
   -0.6919    2.2097   -0.0150 C   0  0  0  0  0  0  0  0  0  0  0  0
   -1.5001    2.9335    0.8869 C   0  0  0  0  0  0  0  0  0  0  0  0
   -1.0310    3.5921    1.6356 H   0  0  0  0  0  0  0  0  0  0  0  0
   -2.8894    2.8140    0.8372 C   0  0  0  0  0  0  0  0  0  0  0  0
   -3.5171    3.3834    1.5380 H   0  0  0  0  0  0  0  0  0  0  0  0
   -3.4829    1.9576   -0.1071 C   0  0  0  0  0  0  0  0  0  0  0  0
   -2.6753    1.2389   -1.0041 C   0  0  0  0  0  0  0  0  0  0  0  0
   -3.1428    0.5720   -1.7416 H   0  0  0  0  0  0  0  0  0  0  0  0
   -1.2795    1.3663   -0.9749 C   0  0  0  0  0  0  0  0  0  0  0  0
   -0.6442    0.8513   -1.7150 H   0  0  0  0  0  0  0  0  0  0  0  0
   -4.9870    1.8512   -0.1264 C   0  0  0  0  0  0  0  0  0  0  0  0
   -0.6475   -1.3711    1.3923 C   0  0  0  0  0  0  0  0  0  0  0  0
   -1.7399   -0.7916    2.0629 C   0  0  0  0  0  0  0  0  0  0  0  0
   -1.5677   -0.1272    2.9237 H   0  0  0  0  0  0  0  0  0  0  0  0
   -3.0460   -1.0334    1.6162 C   0  0  0  0  0  0  0  0  0  0  0  0
   -3.9012   -0.5622    2.1187 H   0  0  0  0  0  0  0  0  0  0  0  0
   -3.2580   -1.8489    0.4934 C   0  0  0  0  0  0  0  0  0  0  0  0
   -2.1612   -2.4214   -0.1754 C   0  0  0  0  0  0  0  0  0  0  0  0
   -2.3240   -3.0637   -1.0534 H   0  0  0  0  0  0  0  0  0  0  0  0
   -5.4381    1.0202   -1.0864 F   0  0  0  0  0  0  0  0  0  0  0  0
   -5.5651    3.0638   -0.3278 F   0  0  0  0  0  0  0  0  0  0  0  0
   -5.4615    1.3977    1.0688 F   0  0  0  0  0  0  0  0  0  0  0  0
   -4.9288   -3.4680    0.0547 F   0  0  0  0  0  0  0  0  0  0  0  0
   -4.7757   -1.7889   -1.3227 F   0  0  0  0  0  0  0  0  0  0  0  0
   -0.8568   -2.1966    0.2721 C   0  0  0  0  0  0  0  0  0  0  0  0
    0.0044   -2.6592   -0.2387 H   0  0  0  0  0  0  0  0  0  0  0  0
   -4.6474   -2.1418   -0.0169 C   0  0  0  0  0  0  0  0  0  0  0  0
   -5.6039   -1.4885    0.6800 F   0  0  0  0  0  0  0  0  0  0  0  0
  1  3  1  0  0  0  0
  1 31  1  0  0  0  0
  2 32  1  0  0  0  0
  2 29  1  0  0  0  0
  3  4  1  0  0  0  0
  5  8  1  0  0  0  0
  5  6  1  0  0  0  0
  7  5  1  0  0  0  0
  9 10  1  0  0  0  0
  9 12  1  0  0  0  0
  9 11  1  0  0  0  0
 13 14  1  6  0  0  0
 13 31  1  0  0  0  0
 13 15  1  0  0  0  0
 15 32  1  0  0  0  0
 15 16  1  1  0  0  0
 17 15  1  0  0  0  0
 17 18  1  0  0  0  0
 19 17  1  0  0  0  0
 20 17  1  0  0  0  0
 20 22  1  0  0  0  0
 21 20  1  0  0  0  0
 23 26  1  0  0  0  0
 23 20  1  0  0  0  0
 24 23  1  0  0  0  0
 25 23  1  0  0  0  0
 26 13  1  0  0  0  0
 26 27  1  0  0  0  0
 28 26  1  0  0  0  0
 29 30  1  0  0  0  0
 31  5  1  0  0  0  0
 32  9  1  0  0  0  0
 33  3  1  0  0  0  0
 33 34  1  0  0  0  0
 34 35  1  0  0  0  0
 36 34  2  0  0  0  0
 36 37  1  0  0  0  0
 38 36  1  0  0  0  0
 39 41  1  0  0  0  0
 39 38  2  0  0  0  0
 40 39  1  0  0  0  0
 41 33  2  0  0  0  0
 42 41  1  0  0  0  0
 43 38  1  0  0  0  0
 43 54  1  0  0  0  0
 44 29  1  0  0  0  0
 44 45  1  0  0  0  0
 45 46  1  0  0  0  0
 47 45  2  0  0  0  0
 47 48  1  0  0  0  0
 49 47  1  0  0  0  0
 50 57  1  0  0  0  0
 50 49  2  0  0  0  0
 51 50  1  0  0  0  0
 52 43  1  0  0  0  0
 53 43  1  0  0  0  0
 56 59  1  0  0  0  0
 57 44  2  0  0  0  0
 58 57  1  0  0  0  0
 59 55  1  0  0  0  0
 59 49  1  0  0  0  0
 59 60  1  0  0  0  0
M  END
