4,12
q = -1.0, confidence = 0.0

 28 30  0  0  0  0  0  0  0  0999 V2000
   -4.7391    2.0276   -0.6880 O   0  0  0  0  0  0  0  0  0  0  0  0
    0.7448    1.9732    0.1045 N   0  0  0  0  0  0  0  0  0  0  0  0
    2.6205    0.8884    0.0262 N   0  0  0  0  0  0  0  0  0  0  0  0
    1.2598    0.7071   -0.0474 C   0  0  0  0  0  2  0  0  0  0  0  0
    3.6104   -0.0629   -0.1338 C   0  0  0  0  0  0  0  0  0  0  0  0
    4.9278    0.3024   -0.0252 C   0  0  0  0  0  0  0  0  0  0  0  0
    5.2871    1.6670    0.2427 C   0  0  0  0  0  0  0  0  0  0  0  0
    4.3078    2.6311    0.3710 C   0  0  0  0  0  0  0  0  0  0  0  0
    2.9383    2.2626    0.2512 C   0  0  0  0  0  0  0  0  0  0  0  0
    1.7224    2.9313    0.2957 C   0  0  0  0  0  0  0  0  0  0  0  0
   -0.6565    2.0550   -0.0328 C   0  0  0  0  0  0  0  0  0  0  0  0
   -1.2399    0.7958   -0.3246 C   0  0  0  0  0  3  0  0  0  0  0  0
   -2.6279    0.7840   -0.5672 C   0  0  0  0  0  0  0  0  0  0  0  0
   -3.3922    1.9685   -0.4749 C   0  0  0  0  0  0  0  0  0  0  0  0
   -5.4125    0.8425   -1.0589 C   0  0  0  0  0  0  0  0  0  0  0  0
   -2.7748    3.1976   -0.1463 C   0  0  0  0  0  0  0  0  0  0  0  0
   -1.3956    3.2430    0.0657 C   0  0  0  0  0  0  0  0  0  0  0  0
    3.2426   -1.0692   -0.3701 H   0  0  0  0  0  0  0  0  0  0  0  0
    5.7038   -0.4627   -0.1617 H   0  0  0  0  0  0  0  0  0  0  0  0
    6.3478    1.9421    0.3305 H   0  0  0  0  0  0  0  0  0  0  0  0
    4.5559    3.6856    0.5562 H   0  0  0  0  0  0  0  0  0  0  0  0
    1.5045    3.9920    0.4364 H   0  0  0  0  0  0  0  0  0  0  0  0
   -3.1109   -0.1572   -0.8597 H   0  0  0  0  0  0  0  0  0  0  0  0
   -5.0236    0.4229   -2.0139 H   0  0  0  0  0  0  0  0  0  0  0  0
   -6.4766    1.1139   -1.1918 H   0  0  0  0  0  0  0  0  0  0  0  0
   -5.3371    0.0562   -0.2730 H   0  0  0  0  0  0  0  0  0  0  0  0
   -3.3982    4.1000   -0.0828 H   0  0  0  0  0  0  0  0  0  0  0  0
   -0.9061    4.2015    0.2956 H   0  0  0  0  0  0  0  0  0  0  0  0
  1 14  1  0  0  0  0
  2 10  1  0  0  0  0
  3  9  1  0  0  0  0
  4  3  1  0  0  0  0
  4  2  1  0  0  0  0
  5  6  2  0  0  0  0
  5  3  1  0  0  0  0
  6  7  1  0  0  0  0
  7 20  1  0  0  0  0
  7  8  2  0  0  0  0
  8 21  1  0  0  0  0
  9 10  2  0  0  0  0
  9  8  1  0  0  0  0
 10 22  1  0  0  0  0
 11 17  1  0  0  0  0
 11  2  1  0  0  0  0
 12 11  2  0  0  0  0
 13 14  2  0  0  0  0
 13 12  1  0  0  0  0
 14 16  1  0  0  0  0
 15  1  1  0  0  0  0
 15 26  1  0  0  0  0
 16 27  1  0  0  0  0
 16 17  2  0  0  0  0
 17 28  1  0  0  0  0
 18  5  1  0  0  0  0
 19  6  1  0  0  0  0
 23 13  1  0  0  0  0
 24 15  1  0  0  0  0
 25 15  1  0  0  0  0
M  END
