1,6
q = -1.0, confidence = 0.036

  8  7  0  0  0  0  0  0  0  0999 V2000
   -0.2143    0.3694   -2.5847 C   0  0  0  0  0  3  0  0  0  0  0  0
    0.8022    0.7790   -2.7467 H   0  0  0  0  0  0  0  0  0  0  0  0
   -1.0385    1.0269   -2.8949 H   0  0  0  0  0  0  0  0  0  0  0  0
   -0.3800   -1.0248   -2.5650 C   0  0  0  0  0  3  0  0  0  0  0  0
   -1.4131   -1.4037   -2.6478 H   0  0  0  0  0  0  0  0  0  0  0  0
    0.5982   -1.9207   -2.1175 C   0  0  0  0  0  3  0  0  0  0  0  0
    1.6637   -1.6613   -2.2492 H   0  0  0  0  0  0  0  0  0  0  0  0
    0.3754   -2.9929   -2.0275 H   0  0  0  0  0  0  0  0  0  0  0  0
  1  4  1  0  0  0  0
  2  1  1  0  0  0  0
  3  1  1  0  0  0  0
  4  6  1  0  0  0  0
  5  4  1  0  0  0  0
  6  8  1  0  0  0  0
  7  6  1  0  0  0  0
M  END
