5,8
q = -1.0, confidence = 0.038

 59 63  0  0  1  0  0  0  0  0999 V2000
    6.8333    1.4512   -1.4130 Cl  0  0  0  0  0  0  0  0  0  0  0  0
   -4.6436    4.6636   -0.4761 O   0  0  0  0  0  0  0  0  0  0  0  0
   -1.2846    0.1638   -0.9533 N   0  0  0  0  0  0  0  0  0  0  0  0
   -1.5368   -0.9911   -0.1116 C   0  0  1  0  0  3  0  0  0  0  0  0
   -1.1596   -0.8320    1.2582 C   0  0  0  0  0  3  0  0  0  0  0  0
   -1.6298   -1.4121    2.0648 H   0  0  0  0  0  0  0  0  0  0  0  0
   -0.0724    0.0535    1.5801 C   0  0  2  0  0  3  0  0  0  0  0  0
    0.6478    0.5962    0.4538 C   0  0  0  0  0  3  0  0  0  0  0  0
    1.6281    1.0669    0.6172 H   0  0  0  0  0  0  0  0  0  0  0  0
    0.1410    0.3616   -0.8536 C   0  0  2  0  0  3  0  0  0  0  0  0
   -2.4547   -2.0402   -0.6093 C   0  0  0  0  0  0  0  0  0  0  0  0
   -2.9244   -3.0846    0.2209 C   0  0  0  0  0  0  0  0  0  0  0  0
   -2.6041   -3.1469    1.2709 H   0  0  0  0  0  0  0  0  0  0  0  0
   -3.7850   -4.0656   -0.2850 C   0  0  0  0  0  0  0  0  0  0  0  0
   -4.1403   -4.8685    0.3786 H   0  0  0  0  0  0  0  0  0  0  0  0
   -4.1880   -4.0342   -1.6309 C   0  0  0  0  0  0  0  0  0  0  0  0
   -4.8612   -4.8097   -2.0261 H   0  0  0  0  0  0  0  0  0  0  0  0
   -3.7194   -3.0082   -2.4662 C   0  0  0  0  0  0  0  0  0  0  0  0
   -4.0223   -2.9756   -3.5238 H   0  0  0  0  0  0  0  0  0  0  0  0
   -2.8640   -2.0204   -1.9618 C   0  0  0  0  0  0  0  0  0  0  0  0
   -2.4909   -1.2122   -2.6071 H   0  0  0  0  0  0  0  0  0  0  0  0
    0.3441    0.3351    2.9742 C   0  0  0  0  0  0  0  0  0  0  0  0
    0.2929   -0.6554    3.9796 C   0  0  0  0  0  0  0  0  0  0  0  0
   -0.0176   -1.6793    3.7219 H   0  0  0  0  0  0  0  0  0  0  0  0
    0.6771   -0.3578    5.2925 C   0  0  0  0  0  0  0  0  0  0  0  0
    0.6421   -1.1447    6.0611 H   0  0  0  0  0  0  0  0  0  0  0  0
    1.1233    0.9325    5.6255 C   0  0  0  0  0  0  0  0  0  0  0  0
    1.4290    1.1628    6.6572 H   0  0  0  0  0  0  0  0  0  0  0  0
    1.1810    1.9234    4.6343 C   0  0  0  0  0  0  0  0  0  0  0  0
    1.5246    2.9381    4.8863 H   0  0  0  0  0  0  0  0  0  0  0  0
    0.7928    1.6278    3.3194 C   0  0  0  0  0  0  0  0  0  0  0  0
    0.8134    2.4148    2.5502 H   0  0  0  0  0  0  0  0  0  0  0  0
    0.8453    0.7661   -2.1377 C   0  0  0  0  0  0  0  0  0  0  0  0
    0.6046    0.0061   -2.9076 H   0  0  0  0  0  0  0  0  0  0  0  0
    0.3740    1.7086   -2.4941 H   0  0  0  0  0  0  0  0  0  0  0  0
    2.3359    0.9514   -2.0091 C   0  0  0  0  0  0  0  0  0  0  0  0
    3.2271   -0.0920   -2.3271 C   0  0  0  0  0  0  0  0  0  0  0  0
    2.8321   -1.0414   -2.7192 H   0  0  0  0  0  0  0  0  0  0  0  0
    4.6091    0.0523   -2.1482 C   0  0  0  0  0  0  0  0  0  0  0  0
    5.2984   -0.7680   -2.3910 H   0  0  0  0  0  0  0  0  0  0  0  0
    5.1145    1.2615   -1.6458 C   0  0  0  0  0  0  0  0  0  0  0  0
    4.2510    2.3244   -1.3338 C   0  0  0  0  0  0  0  0  0  0  0  0
    4.6642    3.2690   -0.9533 H   0  0  0  0  0  0  0  0  0  0  0  0
    2.8718    2.1603   -1.5197 C   0  0  0  0  0  0  0  0  0  0  0  0
    2.1961    2.9976   -1.2811 H   0  0  0  0  0  0  0  0  0  0  0  0
   -2.1410    1.2953   -0.8049 C   0  0  0  0  0  0  0  0  0  0  0  0
   -3.5376    1.1207   -0.7163 C   0  0  0  0  0  0  0  0  0  0  0  0
   -3.9638    0.1088   -0.7385 H   0  0  0  0  0  0  0  0  0  0  0  0
   -4.4023    2.2188   -0.5985 C   0  0  0  0  0  0  0  0  0  0  0  0
   -5.4823    2.0326   -0.5279 H   0  0  0  0  0  0  0  0  0  0  0  0
   -3.8886    3.5309   -0.5767 C   0  0  0  0  0  0  0  0  0  0  0  0
   -2.4935    3.7126   -0.6548 C   0  0  0  0  0  0  0  0  0  0  0  0
   -2.0974    4.7378   -0.6197 H   0  0  0  0  0  0  0  0  0  0  0  0
   -1.6345    2.6150   -0.7543 C   0  0  0  0  0  0  0  0  0  0  0  0
   -0.5512    2.7943   -0.7787 H   0  0  0  0  0  0  0  0  0  0  0  0
   -6.0464    4.5217   -0.3906 C   0  0  0  0  0  0  0  0  0  0  0  0
   -6.4631    5.5437   -0.3192 H   0  0  0  0  0  0  0  0  0  0  0  0
   -6.3542    3.9441    0.5110 H   0  0  0  0  0  0  0  0  0  0  0  0
   -6.4717    4.0218   -1.2908 H   0  0  0  0  0  0  0  0  0  0  0  0
  2 56  1  0  0  0  0
  3 10  1  0  0  0  0
  3 46  1  0  0  0  0
  3  4  1  0  0  0  0
  4 11  1  1  0  0  0
  4  5  1  0  0  0  0
  5  7  1  0  0  0  0
  5  6  1  0  0  0  0
  7 22  1  1  0  0  0
  8  9  1  0  0  0  0
  8  7  1  0  0  0  0
 10 33  1  6  0  0  0
 10  8  1  0  0  0  0
 11 12  1  0  0  0  0
 12 13  1  0  0  0  0
 14 12  2  0  0  0  0
 14 15  1  0  0  0  0
 16 14  1  0  0  0  0
 17 16  1  0  0  0  0
 18 20  1  0  0  0  0
 18 16  2  0  0  0  0
 19 18  1  0  0  0  0
 20 11  2  0  0  0  0
 21 20  1  0  0  0  0
 22 31  2  0  0  0  0
 22 23  1  0  0  0  0
 23 25  2  0  0  0  0
 24 23  1  0  0  0  0
 25 27  1  0  0  0  0
 25 26  1  0  0  0  0
 27 28  1  0  0  0  0
 29 30  1  0  0  0  0
 29 27  2  0  0  0  0
 31 29  1  0  0  0  0
 32 31  1  0  0  0  0
 33 36  1  0  0  0  0
 34 33  1  0  0  0  0
 35 33  1  0  0  0  0
 36 44  1  0  0  0  0
 37 39  1  0  0  0  0
 37 36  2  0  0  0  0
 38 37  1  0  0  0  0
 39 41  2  0  0  0  0
 40 39  1  0  0  0  0
 41  1  1  0  0  0  0
 41 42  1  0  0  0  0
 42 43  1  0  0  0  0
 44 42  2  0  0  0  0
 44 45  1  0  0  0  0
 46 54  2  0  0  0  0
 46 47  1  0  0  0  0
 47 49  2  0  0  0  0
 48 47  1  0  0  0  0
 49 51  1  0  0  0  0
 49 50  1  0  0  0  0
 51  2  1  0  0  0  0
 52 53  1  0  0  0  0
 52 51  2  0  0  0  0
 54 52  1  0  0  0  0
 55 54  1  0  0  0  0
 56 57  1  0  0  0  0
 56 58  1  0  0  0  0
 59 56  1  0  0  0  0
M  END
