1,3
q = -1.0, confidence = 0.0

 44 46  0  0  1  0  0  0  0  0999 V2000
   -0.5963    1.7050    0.5475 C   0  0  0  0  0  3  0  0  0  0  0  0
   -1.1225    0.5836   -0.1975 C   0  0  0  0  0  3  0  0  0  0  0  0
   -0.2425    0.3633   -1.2935 C   0  0  0  0  0  3  0  0  0  0  0  0
    0.7492    1.4328   -1.3346 C   0  0  0  0  0  0  0  0  0  0  0  0
    1.8064    1.7330   -2.2399 C   0  0  0  0  0  0  0  0  0  0  0  0
    2.5684    2.8709   -2.0143 C   0  0  0  0  0  0  0  0  0  0  0  0
    2.3309    3.7141   -0.8896 C   0  0  0  0  0  0  0  0  0  0  0  0
    1.3278    3.4322    0.0286 C   0  0  0  0  0  0  0  0  0  0  0  0
    0.5043    2.2918   -0.1935 C   0  0  0  0  0  0  0  0  0  0  0  0
   -2.3828   -0.1821    0.1176 C   0  0  2  0  0  0  0  0  0  0  0  0
   -2.2919   -1.6587   -0.3094 C   0  0  0  0  0  0  0  0  0  0  0  0
   -3.5383   -2.4699    0.0654 C   0  0  1  0  0  0  0  0  0  0  0  0
   -4.7821   -1.8098   -0.5445 C   0  0  0  0  0  0  0  0  0  0  0  0
   -4.8907   -0.3329   -0.1573 C   0  0  0  0  0  0  0  0  0  0  0  0
   -3.6389    0.4801   -0.5367 C   0  0  1  0  0  0  0  0  0  0  0  0
   -3.3957   -3.9369   -0.3439 C   0  0  0  0  0  0  0  0  0  0  0  0
   -3.7875    1.9992   -0.2569 C   0  0  0  0  0  0  0  0  0  0  0  0
   -4.8292    2.6480   -1.1792 C   0  0  0  0  0  0  0  0  0  0  0  0
   -4.0833    2.3315    1.2127 C   0  0  0  0  0  0  0  0  0  0  0  0
   -1.0683    2.1443    1.4341 H   0  0  0  0  0  0  0  0  0  0  0  0
   -0.3246   -0.4434   -2.0299 H   0  0  0  0  0  0  0  0  0  0  0  0
    2.0059    1.0685   -3.0920 H   0  0  0  0  0  0  0  0  0  0  0  0
    3.3845    3.1227   -2.7075 H   0  0  0  0  0  0  0  0  0  0  0  0
    2.9653    4.6009   -0.7431 H   0  0  0  0  0  0  0  0  0  0  0  0
    1.1534    4.0788    0.9011 H   0  0  0  0  0  0  0  0  0  0  0  0
   -2.5221   -0.1510    1.2212 H   0  0  0  0  0  0  0  0  0  0  0  0
   -2.1592   -1.7112   -1.4137 H   0  0  0  0  0  0  0  0  0  0  0  0
   -1.3882   -2.1234    0.1313 H   0  0  0  0  0  0  0  0  0  0  0  0
   -3.6431   -2.4268    1.1750 H   0  0  0  0  0  0  0  0  0  0  0  0
   -5.6977   -2.3566   -0.2336 H   0  0  0  0  0  0  0  0  0  0  0  0
   -4.7261   -1.9007   -1.6535 H   0  0  0  0  0  0  0  0  0  0  0  0
   -5.0513   -0.2589    0.9408 H   0  0  0  0  0  0  0  0  0  0  0  0
   -5.7861    0.1176   -0.6326 H   0  0  0  0  0  0  0  0  0  0  0  0
   -3.4934    0.3781   -1.6380 H   0  0  0  0  0  0  0  0  0  0  0  0
   -3.2778   -4.0306   -1.4445 H   0  0  0  0  0  0  0  0  0  0  0  0
   -4.2883   -4.5266   -0.0515 H   0  0  0  0  0  0  0  0  0  0  0  0
   -2.5078   -4.4039    0.1285 H   0  0  0  0  0  0  0  0  0  0  0  0
   -2.8108    2.4631   -0.5160 H   0  0  0  0  0  0  0  0  0  0  0  0
   -5.8560    2.2869   -0.9634 H   0  0  0  0  0  0  0  0  0  0  0  0
   -4.6144    2.4350   -2.2465 H   0  0  0  0  0  0  0  0  0  0  0  0
   -4.8380    3.7494   -1.0504 H   0  0  0  0  0  0  0  0  0  0  0  0
   -5.1003    2.0009    1.5078 H   0  0  0  0  0  0  0  0  0  0  0  0
   -4.0339    3.4258    1.3852 H   0  0  0  0  0  0  0  0  0  0  0  0
   -3.3683    1.8519    1.9119 H   0  0  0  0  0  0  0  0  0  0  0  0
  1 20  1  0  0  0  0
  2 10  1  0  0  0  0
  2  1  1  0  0  0  0
  3  2  1  0  0  0  0
  4  3  1  0  0  0  0
  4  9  1  0  0  0  0
  5  6  1  0  0  0  0
  5  4  2  0  0  0  0
  6  7  2  0  0  0  0
  7 24  1  0  0  0  0
  7  8  1  0  0  0  0
  8 25  1  0  0  0  0
  9  8  2  0  0  0  0
  9  1  1  0  0  0  0
 10 26  1  1  0  0  0
 11 12  1  0  0  0  0
 11 10  1  0  0  0  0
 11 28  1  0  0  0  0
 12 29  1  1  0  0  0
 13 30  1  0  0  0  0
 13 14  1  0  0  0  0
 13 12  1  0  0  0  0
 14 32  1  0  0  0  0
 15 34  1  6  0  0  0
 15 17  1  0  0  0  0
 15 14  1  0  0  0  0
 15 10  1  0  0  0  0
 16 36  1  0  0  0  0
 16 12  1  0  0  0  0
 16 37  1  0  0  0  0
 17 19  1  0  0  0  0
 18 41  1  0  0  0  0
 18 39  1  0  0  0  0
 18 17  1  0  0  0  0
 19 43  1  0  0  0  0
 19 42  1  0  0  0  0
 19 44  1  0  0  0  0
 21  3  1  0  0  0  0
 22  5  1  0  0  0  0
 23  6  1  0  0  0  0
 27 11  1  0  0  0  0
 31 13  1  0  0  0  0
 33 14  1  0  0  0  0
 35 16  1  0  0  0  0
 38 17  1  0  0  0  0
 40 18  1  0  0  0  0
M  END
