17,20
q = 0.0, confidence = 1.0

 46 49  0  0  1  0  0  0  0  0999 V2000
    0.0053    1.2649    1.3639 C   0  0  0  0  0  0  0  0  0  0  0  0
   -1.3646    1.6345    0.7857 C   0  0  1  0  0  0  0  0  0  0  0  0
   -2.1189    1.0702    1.3953 H   0  0  0  0  0  0  0  0  0  0  0  0
   -1.5398    3.0228    0.9542 O   0  0  0  0  0  0  0  0  0  0  0  0
   -2.8188    3.4680    0.5324 C   0  0  0  0  0  0  0  0  0  0  0  0
   -2.8571    4.5516    0.7630 H   0  0  0  0  0  0  0  0  0  0  0  0
   -3.6198    2.9633    1.1326 H   0  0  0  0  0  0  0  0  0  0  0  0
   -3.0446    3.1981   -0.9550 C   0  0  0  0  0  0  0  0  0  0  0  0
   -2.3083    3.7897   -1.5401 H   0  0  0  0  0  0  0  0  0  0  0  0
   -4.0564    3.5420   -1.2560 H   0  0  0  0  0  0  0  0  0  0  0  0
   -2.8667    1.7047   -1.2419 C   0  0  0  0  0  0  0  0  0  0  0  0
   -3.6906    1.1349   -0.7580 H   0  0  0  0  0  0  0  0  0  0  0  0
   -2.9177    1.4851   -2.3264 H   0  0  0  0  0  0  0  0  0  0  0  0
   -1.5222    1.2156   -0.6863 C   0  0  2  0  0  0  0  0  0  0  0  0
   -0.7107    1.7184   -1.2534 H   0  0  0  0  0  0  0  0  0  0  0  0
   -1.2935   -0.3006   -0.8893 C   0  0  2  0  0  0  0  0  0  0  0  0
    0.0177   -0.7567   -0.2164 C   0  0  2  0  0  3  0  0  0  0  0  0
    0.6381   -1.9369   -0.7121 C   0  0  0  0  0  3  0  0  0  0  0  0
    0.2514   -2.4216   -1.6175 H   0  0  0  0  0  0  0  0  0  0  0  0
    1.8392   -2.4031   -0.1284 C   0  0  0  0  0  3  0  0  0  0  0  0
    2.3675   -3.2610   -0.5677 H   0  0  0  0  0  0  0  0  0  0  0  0
    2.3713   -1.7758    1.0322 C   0  0  0  0  0  0  0  0  0  0  0  0
    3.3001   -2.1532    1.4737 H   0  0  0  0  0  0  0  0  0  0  0  0
    1.7189   -0.6371    1.5855 C   0  0  0  0  0  0  0  0  0  0  0  0
    0.5563   -0.0684    0.9286 C   0  0  1  0  0  3  0  0  0  0  0  0
    0.5845    2.0170    2.1271 O   0  0  0  0  0  0  0  0  0  0  0  0
   -1.2486   -0.4873   -2.2940 O   0  0  0  0  0  0  0  0  0  0  0  0
   -1.4013   -1.4346   -2.4708 H   0  0  0  0  0  0  0  0  0  0  0  0
   -2.4173   -1.1570   -0.2858 C   0  0  0  0  0  0  0  0  0  0  0  0
   -3.4044   -1.7372   -1.0124 C   0  0  0  0  0  0  0  0  0  0  0  0
   -3.4209   -1.5612   -2.0971 H   0  0  0  0  0  0  0  0  0  0  0  0
   -4.5313   -2.5021   -0.3686 C   0  0  0  0  0  0  0  0  0  0  0  0
   -5.4977   -2.2075   -0.8303 H   0  0  0  0  0  0  0  0  0  0  0  0
   -4.4304   -3.5939   -0.5672 H   0  0  0  0  0  0  0  0  0  0  0  0
   -4.5583   -2.2327    1.1416 C   0  0  0  0  0  0  0  0  0  0  0  0
   -4.9984   -1.2327    1.3418 H   0  0  0  0  0  0  0  0  0  0  0  0
   -5.1800   -2.9764    1.6800 H   0  0  0  0  0  0  0  0  0  0  0  0
   -3.1375   -2.2575    1.6922 C   0  0  0  0  0  0  0  0  0  0  0  0
   -3.1004   -2.0364    2.7761 H   0  0  0  0  0  0  0  0  0  0  0  0
   -2.6722   -3.2561    1.5227 H   0  0  0  0  0  0  0  0  0  0  0  0
   -2.3058   -1.2666    1.0712 O   0  0  0  0  0  0  0  0  0  0  0  0
    2.1527   -0.0268    2.6975 O   0  0  0  0  0  0  0  0  0  0  0  0
    3.4317   -0.3535    3.2220 C   0  0  0  0  0  0  0  0  0  0  0  0
    3.5976    0.3406    4.0653 H   0  0  0  0  0  0  0  0  0  0  0  0
    4.2264   -0.1985    2.4613 H   0  0  0  0  0  0  0  0  0  0  0  0
    3.4717   -1.3996    3.5973 H   0  0  0  0  0  0  0  0  0  0  0  0
  1 26  2  0  0  0  0
  2  4  1  0  0  0  0
  2  1  1  0  0  0  0
  2  3  1  1  0  0  0
  5  6  1  0  0  0  0
  5  4  1  0  0  0  0
  5  7  1  0  0  0  0
  8  5  1  0  0  0  0
  9  8  1  0  0  0  0
 10  8  1  0  0  0  0
 11  8  1  0  0  0  0
 11 12  1  0  0  0  0
 11 14  1  0  0  0  0
 13 11  1  0  0  0  0
 14 15  1  6  0  0  0
 14  2  1  0  0  0  0
 16 27  1  6  0  0  0
 16 14  1  0  0  0  0
 16 29  1  0  0  0  0
 16 17  1  0  0  0  0
 17 18  1  1  0  0  0
 17 25  1  0  0  0  0
 18 20  1  0  0  0  0
 19 18  1  0  0  0  0
 20 22  1  0  0  0  0
 21 20  1  0  0  0  0
 22 23  1  0  0  0  0
 22 24  2  0  0  0  0
 24 42  1  0  0  0  0
 25  1  1  6  0  0  0
 25 24  1  0  0  0  0
 28 27  1  0  0  0  0
 29 41  1  0  0  0  0
 30 32  1  0  0  0  0
 30 29  2  0  0  0  0
 31 30  1  0  0  0  0
 32 35  1  0  0  0  0
 33 32  1  0  0  0  0
 34 32  1  0  0  0  0
 35 36  1  0  0  0  0
 35 37  1  0  0  0  0
 35 38  1  0  0  0  0
 38 39  1  0  0  0  0
 40 38  1  0  0  0  0
 41 38  1  0  0  0  0
 42 43  1  0  0  0  0
 43 46  1  0  0  0  0
 43 44  1  0  0  0  0
 45 43  1  0  0  0  0
M  END
