27,31
q = 0.0, confidence = 1.0

 37 40  0  0  1  0  0  0  0  0999 V2000
    1.0617    1.1712   -1.6143 O   0  0  0  0  0  0  0  0  0  0  0  0
    0.3880    1.8781   -1.6625 H   0  0  0  0  0  0  0  0  0  0  0  0
    1.6811   -2.2676    1.4744 O   0  0  0  0  0  0  0  0  0  0  0  0
   -1.0581    2.6838   -0.1825 O   0  0  0  0  0  0  0  0  0  0  0  0
    2.5931   -1.1488   -1.2514 C   0  0  0  0  0  0  0  0  0  0  0  0
    2.2038   -0.6208   -2.1425 H   0  0  0  0  0  0  0  0  0  0  0  0
    2.1592   -2.1672   -1.2522 H   0  0  0  0  0  0  0  0  0  0  0  0
    4.1362   -1.1649   -1.2275 C   0  0  0  0  0  0  0  0  0  0  0  0
    4.4942   -2.0560   -0.6700 H   0  0  0  0  0  0  0  0  0  0  0  0
    4.5803   -1.2101   -2.2422 H   0  0  0  0  0  0  0  0  0  0  0  0
    4.5132    0.1024   -0.4521 C   0  0  0  0  0  0  0  0  0  0  0  0
    4.3759    0.9986   -1.0955 H   0  0  0  0  0  0  0  0  0  0  0  0
    5.5614    0.1109   -0.0894 H   0  0  0  0  0  0  0  0  0  0  0  0
    3.4943    0.1120    0.7001 C   0  0  1  0  0  0  0  0  0  0  0  0
    3.8045   -0.6451    1.4503 H   0  0  0  0  0  0  0  0  0  0  0  0
    3.1621    1.4635    1.3461 C   0  0  0  0  0  0  0  0  0  0  0  0
    2.6637    1.2988    2.3255 H   0  0  0  0  0  0  0  0  0  0  0  0
    4.0616    2.0812    1.5436 H   0  0  0  0  0  0  0  0  0  0  0  0
    2.1923    2.1216    0.3585 C   0  0  0  0  0  0  0  0  0  0  0  0
    2.7430    2.5628   -0.4967 H   0  0  0  0  0  0  0  0  0  0  0  0
    1.5729    2.9272    0.8009 H   0  0  0  0  0  0  0  0  0  0  0  0
    1.3329    0.9672   -0.2397 C   0  0  1  0  0  0  0  0  0  0  0  0
    0.0576    0.7404    0.5631 C   0  0  1  0  0  3  0  0  0  0  0  0
   -1.1078    1.5640    0.5872 C   0  0  0  0  0  0  0  0  0  0  0  0
   -2.2307    1.1505    1.3615 C   0  0  0  0  0  0  0  0  0  0  0  0
   -3.1601    1.7318    1.3593 H   0  0  0  0  0  0  0  0  0  0  0  0
   -2.1698   -0.0699    2.1165 C   0  0  0  0  0  3  0  0  0  0  0  0
   -3.0645   -0.3865    2.6714 H   0  0  0  0  0  0  0  0  0  0  0  0
   -1.0128   -0.8865    2.1193 C   0  0  0  0  0  3  0  0  0  0  0  0
   -0.9697   -1.8435    2.6553 H   0  0  0  0  0  0  0  0  0  0  0  0
    0.0832   -0.4629    1.3112 C   0  0  1  0  0  3  0  0  0  0  0  0
    1.3480   -1.1953    0.9994 C   0  0  0  0  0  0  0  0  0  0  0  0
    2.1662   -0.3532    0.0115 C   0  0  1  0  0  0  0  0  0  0  0  0
   -2.2765    3.3775   -0.4446 C   0  0  0  0  0  0  0  0  0  0  0  0
   -2.0260    4.1824   -1.1584 H   0  0  0  0  0  0  0  0  0  0  0  0
   -2.6918    3.8295    0.4810 H   0  0  0  0  0  0  0  0  0  0  0  0
   -3.0264    2.6970   -0.9008 H   0  0  0  0  0  0  0  0  0  0  0  0
  2  1  1  0  0  0  0
  4 24  1  0  0  0  0
  5  8  1  0  0  0  0
  5 33  1  0  0  0  0
  6  5  1  0  0  0  0
  7  5  1  0  0  0  0
  8  9  1  0  0  0  0
  8 11  1  0  0  0  0
 10  8  1  0  0  0  0
 11 13  1  0  0  0  0
 11 14  1  0  0  0  0
 12 11  1  0  0  0  0
 14 16  1  0  0  0  0
 14 15  1  1  0  0  0
 16 18  1  0  0  0  0
 16 17  1  0  0  0  0
 19 21  1  0  0  0  0
 19 16  1  0  0  0  0
 20 19  1  0  0  0  0
 22  1  1  6  0  0  0
 22 33  1  0  0  0  0
 22 19  1  0  0  0  0
 22 23  1  0  0  0  0
 23 24  1  6  0  0  0
 23 31  1  0  0  0  0
 24 25  2  0  0  0  0
 25 27  1  0  0  0  0
 26 25  1  0  0  0  0
 27 29  1  0  0  0  0
 27 28  1  0  0  0  0
 29 30  1  0  0  0  0
 31 32  1  6  0  0  0
 31 29  1  0  0  0  0
 32  3  2  0  0  0  0
 33 14  1  0  0  0  0
 33 32  1  1  0  0  0
 34  4  1  0  0  0  0
 34 36  1  0  0  0  0
 35 34  1  0  0  0  0
 37 34  1  0  0  0  0
M  END
