3,4
q = -1.0, confidence = 0.004

 38 41  0  0  0  0  0  0  0  0999 V2000
    3.2492   -2.2505   -2.6928 S   0  0  0  0  0  0  0  0  0  0  0  0
   -1.1616   -0.7303   -0.9055 N   0  0  0  0  0  0  0  0  0  0  0  0
    0.1866   -0.6103   -0.6996 C   0  0  0  0  0  2  0  0  0  0  0  0
    2.6912   -0.9544   -0.4507 C   0  0  0  0  0  3  0  0  0  0  0  0
    4.1012   -1.2267   -0.4480 C   0  0  0  0  0  0  0  0  0  0  0  0
    4.5420   -1.9056   -1.5715 C   0  0  0  0  0  0  0  0  0  0  0  0
    2.1350   -1.4691   -1.6125 C   0  0  0  0  0  0  0  0  0  0  0  0
    0.7523   -1.3042   -1.7493 N   0  0  0  0  0  0  0  0  0  0  0  0
   -0.2138   -1.8312   -2.5924 C   0  0  0  0  0  0  0  0  0  0  0  0
   -1.4270   -1.4673   -2.0584 C   0  0  0  0  0  0  0  0  0  0  0  0
   -2.1671   -0.2236    0.0340 C   0  0  0  0  0  0  0  0  0  0  0  0
   -2.7028    1.1447   -0.3598 C   0  0  0  0  0  0  0  0  0  0  0  0
   -3.3907    1.9033    0.6102 C   0  0  0  0  0  0  0  0  0  0  0  0
   -3.8753    3.1825    0.3072 C   0  0  0  0  0  0  0  0  0  0  0  0
   -3.6816    3.7244   -0.9753 C   0  0  0  0  0  0  0  0  0  0  0  0
   -3.0056    2.9741   -1.9477 C   0  0  0  0  0  0  0  0  0  0  0  0
   -2.5181    1.6918   -1.6419 C   0  0  0  0  0  0  0  0  0  0  0  0
   -3.2404   -1.2834    0.2711 C   0  0  0  0  0  0  0  0  0  0  0  0
   -4.5403   -1.1645   -0.2526 C   0  0  0  0  0  0  0  0  0  0  0  0
   -5.4813   -2.1870   -0.0456 C   0  0  0  0  0  0  0  0  0  0  0  0
   -5.1281   -3.3308    0.6854 C   0  0  0  0  0  0  0  0  0  0  0  0
   -3.8292   -3.4516    1.2093 C   0  0  0  0  0  0  0  0  0  0  0  0
   -2.8869   -2.4352    1.0044 C   0  0  0  0  0  0  0  0  0  0  0  0
    4.7844   -0.9452    0.3659 H   0  0  0  0  0  0  0  0  0  0  0  0
    5.5564   -2.2422   -1.8186 H   0  0  0  0  0  0  0  0  0  0  0  0
    0.0323   -2.4297   -3.4738 H   0  0  0  0  0  0  0  0  0  0  0  0
   -2.4482   -1.6829   -2.3835 H   0  0  0  0  0  0  0  0  0  0  0  0
   -1.5977   -0.1067    0.9803 H   0  0  0  0  0  0  0  0  0  0  0  0
   -3.5441    1.4802    1.6158 H   0  0  0  0  0  0  0  0  0  0  0  0
   -4.4042    3.7635    1.0778 H   0  0  0  0  0  0  0  0  0  0  0  0
   -4.0575    4.7308   -1.2134 H   0  0  0  0  0  0  0  0  0  0  0  0
   -2.8476    3.3896   -2.9546 H   0  0  0  0  0  0  0  0  0  0  0  0
   -1.9765    1.1160   -2.4069 H   0  0  0  0  0  0  0  0  0  0  0  0
   -4.8209   -0.2636   -0.8192 H   0  0  0  0  0  0  0  0  0  0  0  0
   -6.4971   -2.0858   -0.4576 H   0  0  0  0  0  0  0  0  0  0  0  0
   -5.8667   -4.1303    0.8496 H   0  0  0  0  0  0  0  0  0  0  0  0
   -3.5472   -4.3463    1.7850 H   0  0  0  0  0  0  0  0  0  0  0  0
   -1.8597   -2.5253    1.3998 H   0  0  0  0  0  0  0  0  0  0  0  0
  1  7  1  0  0  0  0
  1  6  1  0  0  0  0
  2  3  1  0  0  0  0
  2 11  1  0  0  0  0
  4  5  1  0  0  0  0
  5 24  1  0  0  0  0
  6  5  2  0  0  0  0
  7  4  2  0  0  0  0
  8  7  1  0  0  0  0
  8  3  1  0  0  0  0
  9 10  2  0  0  0  0
  9  8  1  0  0  0  0
 10  2  1  0  0  0  0
 11 18  1  0  0  0  0
 11 28  1  0  0  0  0
 12 11  1  0  0  0  0
 12 13  1  0  0  0  0
 13 29  1  0  0  0  0
 14 13  2  0  0  0  0
 14 30  1  0  0  0  0
 15 14  1  0  0  0  0
 16 17  1  0  0  0  0
 16 15  2  0  0  0  0
 17 12  2  0  0  0  0
 18 23  1  0  0  0  0
 19 20  1  0  0  0  0
 19 18  2  0  0  0  0
 20 21  2  0  0  0  0
 21 36  1  0  0  0  0
 21 22  1  0  0  0  0
 22 37  1  0  0  0  0
 23 22  2  0  0  0  0
 23 38  1  0  0  0  0
 25  6  1  0  0  0  0
 26  9  1  0  0  0  0
 27 10  1  0  0  0  0
 31 15  1  0  0  0  0
 32 16  1  0  0  0  0
 33 17  1  0  0  0  0
 34 19  1  0  0  0  0
 35 20  1  0  0  0  0
M  END
