10
q = -2.0, confidence = 0.788

 34 36  0  0  1  0  0  0  0  0999 V2000
   -1.6554    1.8511    0.0210 Si  0  0  0  0  0  0  0  0  0  0  0  0
   -1.7949   -1.6618   -0.2056 Si  0  0  0  0  0  0  0  0  0  0  0  0
   -0.9874    0.7201    1.3844 C   0  0  2  0  0  3  0  0  0  0  0  0
    0.1003    1.0252    2.2628 C   0  0  0  0  0  0  0  0  0  0  0  0
    0.6755   -0.1928    2.7274 C   0  0  0  0  0  0  0  0  0  0  0  0
   -0.0556   -1.2659    2.1516 C   0  0  0  0  0  3  0  0  0  0  0  0
   -1.0810   -0.7353    1.2984 C   0  0  2  0  0  3  0  0  0  0  0  0
   -0.9436    3.5918    0.1445 C   0  0  0  0  0  0  0  0  0  0  0  0
   -3.5351    1.9728   -0.0733 C   0  0  0  0  0  0  0  0  0  0  0  0
   -0.8412   -0.5881   -1.4498 C   0  0  2  0  0  3  0  0  0  0  0  0
    0.3238   -1.0059   -2.1749 C   0  0  0  0  0  3  0  0  0  0  0  0
    1.1137    0.1334   -2.4846 C   0  0  0  0  0  0  0  0  0  0  0  0
    0.4393    1.2825   -1.9784 C   0  0  0  0  0  0  0  0  0  0  0  0
   -0.7739    0.8665   -1.3399 C   0  0  2  0  0  3  0  0  0  0  0  0
   -3.6684   -1.7100   -0.4151 C   0  0  0  0  0  0  0  0  0  0  0  0
   -1.1247   -3.4243   -0.2230 C   0  0  0  0  0  0  0  0  0  0  0  0
    0.4466    2.0327    2.5257 H   0  0  0  0  0  0  0  0  0  0  0  0
    1.5402   -0.2888    3.3966 H   0  0  0  0  0  0  0  0  0  0  0  0
    0.1753   -2.3303    2.2874 H   0  0  0  0  0  0  0  0  0  0  0  0
    0.5998   -2.0447   -2.3972 H   0  0  0  0  0  0  0  0  0  0  0  0
    2.0800    0.1255   -3.0041 H   0  0  0  0  0  0  0  0  0  0  0  0
    0.7970    2.3167   -2.0585 H   0  0  0  0  0  0  0  0  0  0  0  0
   -1.3298    4.1026    1.0502 H   0  0  0  0  0  0  0  0  0  0  0  0
    0.1619    3.5851    0.1947 H   0  0  0  0  0  0  0  0  0  0  0  0
   -1.2480    4.1950   -0.7353 H   0  0  0  0  0  0  0  0  0  0  0  0
   -3.8832    2.7328    0.6560 H   0  0  0  0  0  0  0  0  0  0  0  0
   -3.8572    2.2949   -1.0845 H   0  0  0  0  0  0  0  0  0  0  0  0
   -4.0402    1.0205    0.1693 H   0  0  0  0  0  0  0  0  0  0  0  0
   -3.9188   -2.4367   -1.2151 H   0  0  0  0  0  0  0  0  0  0  0  0
   -4.1565   -2.0495    0.5211 H   0  0  0  0  0  0  0  0  0  0  0  0
   -4.0992   -0.7338   -0.7020 H   0  0  0  0  0  0  0  0  0  0  0  0
   -1.3926   -3.9286   -1.1741 H   0  0  0  0  0  0  0  0  0  0  0  0
   -0.0217   -3.4452   -0.1170 H   0  0  0  0  0  0  0  0  0  0  0  0
   -1.5665   -4.0161    0.6049 H   0  0  0  0  0  0  0  0  0  0  0  0
  1  8  1  0  0  0  0
  1  3  1  0  0  0  0
  2  7  1  0  0  0  0
  3  4  1  6  0  0  0
  4 17  1  0  0  0  0
  4  5  2  0  0  0  0
  5 18  1  0  0  0  0
  6 19  1  0  0  0  0
  6  5  1  0  0  0  0
  7  3  1  0  0  0  0
  7  6  1  6  0  0  0
  8 24  1  0  0  0  0
  8 23  1  0  0  0  0
  9  1  1  0  0  0  0
  9 28  1  0  0  0  0
  9 26  1  0  0  0  0
 10 11  1  1  0  0  0
 10 14  1  0  0  0  0
 10  2  1  0  0  0  0
 12 11  1  0  0  0  0
 12 13  2  0  0  0  0
 14 13  1  1  0  0  0
 14  1  1  0  0  0  0
 15  2  1  0  0  0  0
 15 30  1  0  0  0  0
 16  2  1  0  0  0  0
 16 33  1  0  0  0  0
 16 34  1  0  0  0  0
 20 11  1  0  0  0  0
 21 12  1  0  0  0  0
 22 13  1  0  0  0  0
 25  8  1  0  0  0  0
 27  9  1  0  0  0  0
 29 15  1  0  0  0  0
 31 15  1  0  0  0  0
 32 16  1  0  0  0  0
M  END
