12,39
q = -2.0, confidence = 0.978

 52 55  0  0  1  0  0  0  0  0999 V2000
   -2.2982    0.9029    0.2015 C   0  0  1  0  0  0  0  0  0  0  0  0
   -2.9094   -0.2013    1.1597 C   0  0  0  0  0  0  0  0  0  0  0  0
   -2.5992   -0.0269    2.2074 H   0  0  0  0  0  0  0  0  0  0  0  0
   -4.0142   -0.1022    1.1556 H   0  0  0  0  0  0  0  0  0  0  0  0
   -2.5108   -1.6320    0.6674 C   0  0  2  0  0  0  0  0  0  0  0  0
   -1.8726   -2.1343    1.4258 H   0  0  0  0  0  0  0  0  0  0  0  0
   -1.6940   -1.3368   -0.5660 C   0  0  0  0  0  0  0  0  0  0  0  0
   -1.0161   -2.0499   -1.6015 C   0  0  0  0  0  0  0  0  0  0  0  0
   -0.8962   -3.1360   -1.6845 H   0  0  0  0  0  0  0  0  0  0  0  0
   -0.4849   -1.0790   -2.5002 C   0  0  0  0  0  0  0  0  0  0  0  0
    0.1234   -1.2964   -3.3859 H   0  0  0  0  0  0  0  0  0  0  0  0
   -0.7992    0.2316   -2.0119 C   0  0  0  0  0  3  0  0  0  0  0  0
   -0.5230    1.1838   -2.4779 H   0  0  0  0  0  0  0  0  0  0  0  0
   -1.5745    0.0508   -0.8254 C   0  0  0  0  0  0  0  0  0  0  0  0
   -3.3216    1.7506   -0.4460 N   0  0  0  0  0  0  0  0  0  0  0  0
   -4.0952    2.5704    0.4686 C   0  0  0  0  0  0  0  0  0  0  0  0
   -4.7390    3.2593   -0.1155 H   0  0  0  0  0  0  0  0  0  0  0  0
   -3.4369    3.1933    1.1049 H   0  0  0  0  0  0  0  0  0  0  0  0
   -4.7721    1.9865    1.1478 H   0  0  0  0  0  0  0  0  0  0  0  0
   -4.1815    1.0537   -1.3855 C   0  0  0  0  0  0  0  0  0  0  0  0
   -4.8908    0.3268   -0.9053 H   0  0  0  0  0  0  0  0  0  0  0  0
   -3.5776    0.4970   -2.1273 H   0  0  0  0  0  0  0  0  0  0  0  0
   -4.7986    1.7958   -1.9324 H   0  0  0  0  0  0  0  0  0  0  0  0
   -3.7088   -2.5471    0.3824 C   0  0  0  0  0  0  0  0  0  0  0  0
   -4.3756   -2.1005   -0.3841 H   0  0  0  0  0  0  0  0  0  0  0  0
   -4.3052   -2.7167    1.3019 H   0  0  0  0  0  0  0  0  0  0  0  0
   -3.3747   -3.5356    0.0085 H   0  0  0  0  0  0  0  0  0  0  0  0
   -1.2415    1.8119    0.9227 C   0  0  2  0  0  0  0  0  0  0  0  0
   -1.6811    2.2172    1.8610 H   0  0  0  0  0  0  0  0  0  0  0  0
   -0.7753    2.9240   -0.0097 C   0  0  0  0  0  0  0  0  0  0  0  0
   -1.4728    3.6521   -0.4410 H   0  0  0  0  0  0  0  0  0  0  0  0
    0.5403    2.8027   -0.3330 C   0  0  0  0  0  0  0  0  0  0  0  0
    1.0818    3.4519   -1.0326 H   0  0  0  0  0  0  0  0  0  0  0  0
    1.1108    1.6600    0.3844 C   0  0  1  0  0  3  0  0  0  0  0  0
    2.3700    1.0835    0.7719 C   0  0  0  0  0  0  0  0  0  0  0  0
    2.0432    0.0420    1.7106 C   0  0  0  0  0  0  0  0  0  0  0  0
    2.7564   -0.6502    2.1706 H   0  0  0  0  0  0  0  0  0  0  0  0
    0.6404    0.1016    2.0570 C   0  0  2  0  0  3  0  0  0  0  0  0
    0.0643    1.0775    1.2004 C   0  0  1  0  0  3  0  0  0  0  0  0
    3.6218    1.4141    0.3346 N   0  0  0  0  0  0  0  0  0  0  0  0
    3.7550    2.3600   -0.7569 C   0  0  0  0  0  0  0  0  0  0  0  0
    3.2365    2.0088   -1.6773 H   0  0  0  0  0  0  0  0  0  0  0  0
    4.8260    2.4939   -0.9943 H   0  0  0  0  0  0  0  0  0  0  0  0
    3.3443    3.3524   -0.4730 H   0  0  0  0  0  0  0  0  0  0  0  0
    4.7297    0.5489    0.6955 C   0  0  0  0  0  0  0  0  0  0  0  0
    4.7995    0.4428    1.7989 H   0  0  0  0  0  0  0  0  0  0  0  0
    5.6751    0.9981    0.3396 H   0  0  0  0  0  0  0  0  0  0  0  0
    4.6291   -0.4662    0.2488 H   0  0  0  0  0  0  0  0  0  0  0  0
    0.0422   -0.6652    3.1986 C   0  0  0  0  0  0  0  0  0  0  0  0
   -1.0583   -0.7333    3.1349 H   0  0  0  0  0  0  0  0  0  0  0  0
    0.2900   -0.1620    4.1578 H   0  0  0  0  0  0  0  0  0  0  0  0
    0.4475   -1.6947    3.2378 H   0  0  0  0  0  0  0  0  0  0  0  0
  1 15  1  6  0  0  0
  1 28  1  0  0  0  0
  1  2  1  0  0  0  0
  2  3  1  0  0  0  0
  4  2  1  0  0  0  0
  5  2  1  0  0  0  0
  5  6  1  1  0  0  0
  7  5  1  0  0  0  0
  8  7  1  0  0  0  0
  9  8  1  0  0  0  0
 10 12  1  0  0  0  0
 10  8  2  0  0  0  0
 11 10  1  0  0  0  0
 12 14  1  0  0  0  0
 13 12  1  0  0  0  0
 14  7  2  0  0  0  0
 14  1  1  0  0  0  0
 15 16  1  0  0  0  0
 16 18  1  0  0  0  0
 16 19  1  0  0  0  0
 17 16  1  0  0  0  0
 20 21  1  0  0  0  0
 20 15  1  0  0  0  0
 22 20  1  0  0  0  0
 23 20  1  0  0  0  0
 24  5  1  0  0  0  0
 24 26  1  0  0  0  0
 25 24  1  0  0  0  0
 27 24  1  0  0  0  0
 28 39  1  0  0  0  0
 28 29  1  1  0  0  0
 30 28  1  0  0  0  0
 31 30  1  0  0  0  0
 32 30  2  0  0  0  0
 33 32  1  0  0  0  0
 34 32  1  1  0  0  0
 34 35  1  0  0  0  0
 34 39  1  0  0  0  0
 35 36  2  0  0  0  0
 36 38  1  0  0  0  0
 36 37  1  0  0  0  0
 38 49  1  1  0  0  0
 39 38  1  0  0  0  0
 40 45  1  0  0  0  0
 40 35  1  0  0  0  0
 41 44  1  0  0  0  0
 41 40  1  0  0  0  0
 42 41  1  0  0  0  0
 43 41  1  0  0  0  0
 45 46  1  0  0  0  0
 47 45  1  0  0  0  0
 48 45  1  0  0  0  0
 49 52  1  0  0  0  0
 49 51  1  0  0  0  0
 50 49  1  0  0  0  0
M  END
