12,34
q = -2.0, confidence = 0.744

 45 48  0  0  1  0  0  0  0  0999 V2000
   -3.3007   -0.0002   -0.0001 Si  0  0  0  0  0  0  0  0  0  0  0  0
   -4.4902    1.2213    0.8306 C   0  0  0  0  0  0  0  0  0  0  0  0
   -1.7097    1.0070    3.0297 C   0  0  0  0  0  0  0  0  0  0  0  0
   -2.0655   -0.8418    1.1692 C   0  0  2  0  0  3  0  0  0  0  0  0
   -1.3285   -0.2195    2.2422 C   0  0  2  0  0  3  0  0  0  0  0  0
   -0.1421   -0.9639    2.5136 C   0  0  0  0  0  0  0  0  0  0  0  0
   -0.1239   -2.1095    1.6626 C   0  0  0  0  0  0  0  0  0  0  0  0
    0.7828   -3.1997    1.5366 C   0  0  0  0  0  0  0  0  0  0  0  0
    0.5386   -4.1837    0.5864 C   0  0  0  0  0  0  0  0  0  0  0  0
   -0.5965   -4.1043   -0.2691 C   0  0  0  0  0  0  0  0  0  0  0  0
   -1.5008   -3.0517   -0.1731 C   0  0  0  0  0  0  0  0  0  0  0  0
   -1.3065   -2.0309    0.8071 C   0  0  2  0  0  3  0  0  0  0  0  0
   -4.0278    2.0903    1.3314 H   0  0  0  0  0  0  0  0  0  0  0  0
   -5.1002    0.6805    1.5834 H   0  0  0  0  0  0  0  0  0  0  0  0
   -5.1801    1.6147    0.0554 H   0  0  0  0  0  0  0  0  0  0  0  0
   -0.9700    1.8264    2.9153 H   0  0  0  0  0  0  0  0  0  0  0  0
   -2.6982    1.3983    2.7373 H   0  0  0  0  0  0  0  0  0  0  0  0
   -1.7546    0.7617    4.1111 H   0  0  0  0  0  0  0  0  0  0  0  0
    0.5773   -0.7413    3.3113 H   0  0  0  0  0  0  0  0  0  0  0  0
    1.6572   -3.2608    2.2028 H   0  0  0  0  0  0  0  0  0  0  0  0
    1.2302   -5.0341    0.4885 H   0  0  0  0  0  0  0  0  0  0  0  0
   -0.7659   -4.8959   -1.0146 H   0  0  0  0  0  0  0  0  0  0  0  0
   -2.3795   -3.0286   -0.8296 H   0  0  0  0  0  0  0  0  0  0  0  0
   -4.4901   -1.2217   -0.8307 C   0  0  0  0  0  0  0  0  0  0  0  0
   -4.0277   -2.0907   -1.3316 H   0  0  0  0  0  0  0  0  0  0  0  0
   -5.1002   -0.6810   -1.5835 H   0  0  0  0  0  0  0  0  0  0  0  0
   -5.1800   -1.6152   -0.0555 H   0  0  0  0  0  0  0  0  0  0  0  0
   -2.0655    0.8416   -1.1692 C   0  0  2  0  0  3  0  0  0  0  0  0
   -1.3284    0.2195   -2.2423 C   0  0  1  0  0  3  0  0  0  0  0  0
   -1.7094   -1.0070   -3.0300 C   0  0  0  0  0  0  0  0  0  0  0  0
   -0.9699   -1.8266   -2.9152 H   0  0  0  0  0  0  0  0  0  0  0  0
   -2.6981   -1.3982   -2.7381 H   0  0  0  0  0  0  0  0  0  0  0  0
   -1.7538   -0.7617   -4.1114 H   0  0  0  0  0  0  0  0  0  0  0  0
   -1.3067    2.0307   -0.8071 C   0  0  2  0  0  3  0  0  0  0  0  0
   -0.1421    0.9640   -2.5135 C   0  0  0  0  0  0  0  0  0  0  0  0
   -0.1241    2.1095   -1.6625 C   0  0  0  0  0  0  0  0  0  0  0  0
    0.7824    3.1999   -1.5364 C   0  0  0  0  0  0  0  0  0  0  0  0
    0.5380    4.1839   -0.5862 C   0  0  0  0  0  0  0  0  0  0  0  0
   -0.5971    4.1042    0.2693 C   0  0  0  0  0  0  0  0  0  0  0  0
   -1.5012    3.0514    0.1732 C   0  0  0  0  0  0  0  0  0  0  0  0
   -2.3799    3.0282    0.8296 H   0  0  0  0  0  0  0  0  0  0  0  0
   -0.7667    4.8957    1.0148 H   0  0  0  0  0  0  0  0  0  0  0  0
    1.2295    5.0343   -0.4882 H   0  0  0  0  0  0  0  0  0  0  0  0
    1.6568    3.2612   -2.2026 H   0  0  0  0  0  0  0  0  0  0  0  0
    0.5774    0.7416   -3.3112 H   0  0  0  0  0  0  0  0  0  0  0  0
  1  2  1  0  0  0  0
  2 13  1  0  0  0  0
  2 14  1  0  0  0  0
  3 18  1  0  0  0  0
  4  1  1  6  0  0  0
  4  5  1  0  0  0  0
  5  6  1  0  0  0  0
  5  3  1  1  0  0  0
  6 19  1  0  0  0  0
  7  6  2  0  0  0  0
  8  7  1  0  0  0  0
  8 20  1  0  0  0  0
  9  8  2  0  0  0  0
 10 11  2  0  0  0  0
 10  9  1  0  0  0  0
 12 11  1  6  0  0  0
 12  4  1  0  0  0  0
 12  7  1  0  0  0  0
 15  2  1  0  0  0  0
 16  3  1  0  0  0  0
 17  3  1  0  0  0  0
 21  9  1  0  0  0  0
 22 10  1  0  0  0  0
 23 11  1  0  0  0  0
 24 27  1  0  0  0  0
 24  1  1  0  0  0  0
 25 24  1  0  0  0  0
 26 24  1  0  0  0  0
 28 34  1  0  0  0  0
 28  1  1  1  0  0  0
 29 30  1  6  0  0  0
 29 28  1  0  0  0  0
 30 31  1  0  0  0  0
 30 32  1  0  0  0  0
 33 30  1  0  0  0  0
 34 36  1  1  0  0  0
 34 40  1  0  0  0  0
 35 29  1  0  0  0  0
 35 36  2  0  0  0  0
 36 37  1  0  0  0  0
 37 38  2  0  0  0  0
 38 43  1  0  0  0  0
 38 39  1  0  0  0  0
 39 42  1  0  0  0  0
 40 39  2  0  0  0  0
 40 41  1  0  0  0  0
 44 37  1  0  0  0  0
 45 35  1  0  0  0  0
M  END
