13,18
q = -2.0, confidence = 0.73

 18 17  0  0  0  0  0  0  0  0999 V2000
    0.3847   -2.6214   -1.1502 F   0  0  0  0  0  0  0  0  0  0  0  0
   -0.0568   -2.2460    0.9969 F   0  0  0  0  0  0  0  0  0  0  0  0
    2.3053   -2.8623    0.9196 F   0  0  0  0  0  0  0  0  0  0  0  0
    2.7961   -1.8303   -0.9409 F   0  0  0  0  0  0  0  0  0  0  0  0
    3.7446   -0.9632    1.6600 F   0  0  0  0  0  0  0  0  0  0  0  0
    1.6839   -0.2644    2.0229 F   0  0  0  0  0  0  0  0  0  0  0  0
    3.5351    1.5839    1.2817 F   0  0  0  0  0  0  0  0  0  0  0  0
    3.9038    0.5400   -0.6157 F   0  0  0  0  0  0  0  0  0  0  0  0
    2.3924    2.6621   -0.9337 F   0  0  0  0  0  0  0  0  0  0  0  0
    1.0805    2.1293    0.7479 F   0  0  0  0  0  0  0  0  0  0  0  0
    0.2610    1.8435   -2.0448 F   0  0  0  0  0  0  0  0  0  0  0  0
    1.6262    0.1389   -2.1300 F   0  0  0  0  0  0  0  0  0  0  0  0
    0.5300   -1.6804   -0.1327 C   0  0  0  0  0  0  0  0  0  0  0  0
    2.0646   -1.7308    0.1938 C   0  0  0  0  0  0  0  0  0  0  0  0
    2.6029   -0.5464    1.0547 C   0  0  0  0  0  0  0  0  0  0  0  0
    2.9705    0.7856    0.3316 C   0  0  0  0  0  0  0  0  0  0  0  0
    1.8072    1.6085   -0.2938 C   0  0  0  0  0  0  0  0  0  0  0  0
    0.8497    0.8567   -1.2498 C   0  0  0  0  0  0  0  0  0  0  0  0
  1 13  1  0  0  0  0
  4 14  1  0  0  0  0
  8 16  1  0  0  0  0
  9 17  1  0  0  0  0
 11 18  1  0  0  0  0
 12 18  1  0  0  0  0
 13 14  1  0  0  0  0
 13  2  1  0  0  0  0
 14  3  1  0  0  0  0
 14 15  1  0  0  0  0
 15  5  1  0  0  0  0
 15  6  1  0  0  0  0
 16 15  1  0  0  0  0
 16  7  1  0  0  0  0
 17 16  1  0  0  0  0
 17 10  1  0  0  0  0
 18 17  1  0  0  0  0
M  END
