10,22
q = 0.0, confidence = 0.988

 44 48  0  0  1  0  0  0  0  0999 V2000
   -1.7362   -1.6667    2.9598 C   0  0  0  0  0  0  0  0  0  0  0  0
   -2.3784   -1.1182    3.6658 H   0  0  0  0  0  0  0  0  0  0  0  0
   -1.3757   -2.9968    3.2205 C   0  0  0  0  0  0  0  0  0  0  0  0
   -1.7392   -3.4938    4.1320 H   0  0  0  0  0  0  0  0  0  0  0  0
   -0.5417   -3.6872    2.3260 C   0  0  0  0  0  0  0  0  0  0  0  0
   -0.2505   -4.7273    2.5343 H   0  0  0  0  0  0  0  0  0  0  0  0
   -0.0632   -3.0478    1.1738 C   0  0  0  0  0  0  0  0  0  0  0  0
    0.6097   -3.5769    0.4827 H   0  0  0  0  0  0  0  0  0  0  0  0
    0.0737   -1.0107   -0.3255 C   0  0  1  0  0  3  0  0  0  0  0  0
   -0.8471   -0.6102   -1.3550 C   0  0  0  0  0  3  0  0  0  0  0  0
   -0.4143   -0.4425   -2.3581 H   0  0  0  0  0  0  0  0  0  0  0  0
   -2.8394   -1.9241   -2.2154 C   0  0  0  0  0  0  0  0  0  0  0  0
   -2.1814   -2.4654   -2.9127 H   0  0  0  0  0  0  0  0  0  0  0  0
   -4.2173   -2.1884   -2.1971 C   0  0  0  0  0  0  0  0  0  0  0  0
   -4.6383   -2.9437   -2.8770 H   0  0  0  0  0  0  0  0  0  0  0  0
   -5.0604   -1.4789   -1.3259 C   0  0  0  0  0  0  0  0  0  0  0  0
   -6.1422   -1.6781   -1.3229 H   0  0  0  0  0  0  0  0  0  0  0  0
   -4.5279   -0.5060   -0.4670 C   0  0  0  0  0  0  0  0  0  0  0  0
   -5.1884    0.0584    0.2089 H   0  0  0  0  0  0  0  0  0  0  0  0
   -2.5177    0.7557    0.4299 C   0  0  0  0  0  3  0  0  0  0  0  0
   -3.0585    1.7146    0.5309 H   0  0  0  0  0  0  0  0  0  0  0  0
   -1.6287    0.3911    1.4934 C   0  0  0  0  0  3  0  0  0  0  0  0
   -1.5578    1.0896    2.3477 H   0  0  0  0  0  0  0  0  0  0  0  0
   -1.2768   -1.0264    1.7951 C   0  0  0  0  0  0  0  0  0  0  0  0
   -0.4339   -1.7189    0.8996 C   0  0  0  0  0  0  0  0  0  0  0  0
   -2.2986   -0.9606   -1.3469 C   0  0  0  0  0  0  0  0  0  0  0  0
   -3.1450   -0.2525   -0.4687 C   0  0  0  0  0  0  0  0  0  0  0  0
    1.5111   -1.2556   -0.6813 C   0  0  0  0  0  0  0  0  0  0  0  0
    1.8127   -1.8576   -1.9044 C   0  0  0  0  0  0  0  0  0  0  0  0
    0.9929   -2.1408   -2.5808 H   0  0  0  0  0  0  0  0  0  0  0  0
    3.1487   -2.1513   -2.2822 C   0  0  0  0  0  0  0  0  0  0  0  0
    3.3434   -2.6478   -3.2445 H   0  0  0  0  0  0  0  0  0  0  0  0
    4.1953   -1.8325   -1.4315 C   0  0  0  0  0  0  0  0  0  0  0  0
    5.2352   -2.0634   -1.7106 H   0  0  0  0  0  0  0  0  0  0  0  0
    5.0146   -0.8669    0.7070 C   0  0  0  0  0  0  0  0  0  0  0  0
    6.0450   -1.1018    0.3984 H   0  0  0  0  0  0  0  0  0  0  0  0
    4.7677   -0.2546    1.9256 C   0  0  0  0  0  0  0  0  0  0  0  0
    5.6018    0.0008    2.5960 H   0  0  0  0  0  0  0  0  0  0  0  0
    3.4336    0.0395    2.3114 C   0  0  0  0  0  0  0  0  0  0  0  0
    3.2410    0.5232    3.2808 H   0  0  0  0  0  0  0  0  0  0  0  0
    2.3700   -0.2843    1.4809 C   0  0  0  0  0  0  0  0  0  0  0  0
    1.3430   -0.0481    1.7911 H   0  0  0  0  0  0  0  0  0  0  0  0
    2.5846   -0.9211    0.2226 C   0  0  0  0  0  0  0  0  0  0  0  0
    3.9442   -1.2117   -0.1711 C   0  0  0  0  0  0  0  0  0  0  0  0
  1  3  1  0  0  0  0
  1  2  1  0  0  0  0
  3  4  1  0  0  0  0
  5  6  1  0  0  0  0
  5  3  2  0  0  0  0
  7  5  1  0  0  0  0
  8  7  1  0  0  0  0
  9 28  1  6  0  0  0
  9 25  1  0  0  0  0
 10 26  1  0  0  0  0
 10  9  1  0  0  0  0
 11 10  1  0  0  0  0
 12 14  2  0  0  0  0
 12 26  1  0  0  0  0
 13 12  1  0  0  0  0
 14 16  1  0  0  0  0
 15 14  1  0  0  0  0
 16 17  1  0  0  0  0
 16 18  2  0  0  0  0
 18 19  1  0  0  0  0
 20 21  1  0  0  0  0
 20 22  1  0  0  0  0
 22 24  1  0  0  0  0
 22 23  1  0  0  0  0
 24  1  2  0  0  0  0
 25  7  2  0  0  0  0
 25 24  1  0  0  0  0
 26 27  2  0  0  0  0
 27 18  1  0  0  0  0
 27 20  1  0  0  0  0
 28 43  1  0  0  0  0
 29 28  2  0  0  0  0
 30 29  1  0  0  0  0
 31 29  1  0  0  0  0
 31 33  2  0  0  0  0
 32 31  1  0  0  0  0
 33 44  1  0  0  0  0
 34 33  1  0  0  0  0
 35 37  1  0  0  0  0
 36 35  1  0  0  0  0
 37 39  2  0  0  0  0
 37 38  1  0  0  0  0
 39 40  1  0  0  0  0
 41 42  1  0  0  0  0
 41 39  1  0  0  0  0
 43 41  2  0  0  0  0
 44 43  1  0  0  0  0
 44 35  2  0  0  0  0
M  END
