6,8
q = 0.0, confidence = 0.996

 37 38  0  0  1  0  0  0  0  0999 V2000
   -0.0895    2.5025   -0.5213 O   0  0  0  0  0  0  0  0  0  0  0  0
   -0.8613    1.3754   -0.0583 N   0  0  0  0  0  0  0  0  0  0  0  0
   -0.1385    0.1804   -0.3913 C   0  0  2  0  0  3  0  0  0  0  0  0
   -0.1079   -0.9154    0.5372 C   0  0  0  0  0  0  0  0  0  0  0  0
    0.5684   -2.1155    0.1521 C   0  0  0  0  0  0  0  0  0  0  0  0
    1.2505   -2.2067   -1.0897 C   0  0  0  0  0  3  0  0  0  0  0  0
    1.2353   -1.1182   -2.0055 C   0  0  0  0  0  3  0  0  0  0  0  0
    0.5678    0.0762   -1.6321 C   0  0  0  0  0  3  0  0  0  0  0  0
   -0.7901   -0.8387    1.8724 C   0  0  0  0  0  0  0  0  0  0  0  0
    0.4567    3.1855    0.5986 C   0  0  0  0  0  0  0  0  0  0  0  0
   -2.1846    1.4628   -0.7460 C   0  0  2  0  0  0  0  0  0  0  0  0
   -2.8480    2.8021   -0.4282 C   0  0  0  0  0  0  0  0  0  0  0  0
   -3.0333    0.2557   -0.3689 C   0  0  0  0  0  0  0  0  0  0  0  0
   -3.8225    0.2447    0.7980 C   0  0  0  0  0  0  0  0  0  0  0  0
   -4.5727   -0.8883    1.1465 C   0  0  0  0  0  0  0  0  0  0  0  0
   -4.5394   -2.0341    0.3355 C   0  0  0  0  0  0  0  0  0  0  0  0
   -3.7590   -2.0346   -0.8314 C   0  0  0  0  0  0  0  0  0  0  0  0
   -3.0180   -0.8960   -1.1801 C   0  0  0  0  0  0  0  0  0  0  0  0
    0.6201   -2.9487    0.8662 H   0  0  0  0  0  0  0  0  0  0  0  0
    1.8188   -3.1164   -1.3303 H   0  0  0  0  0  0  0  0  0  0  0  0
    1.7967   -1.1710   -2.9477 H   0  0  0  0  0  0  0  0  0  0  0  0
    0.5990    0.9618   -2.2805 H   0  0  0  0  0  0  0  0  0  0  0  0
   -0.2028   -1.3735    2.6428 H   0  0  0  0  0  0  0  0  0  0  0  0
   -0.9298    0.2139    2.1764 H   0  0  0  0  0  0  0  0  0  0  0  0
   -1.7926   -1.3083    1.8100 H   0  0  0  0  0  0  0  0  0  0  0  0
    1.1274    3.9573    0.1733 H   0  0  0  0  0  0  0  0  0  0  0  0
    1.0576    2.5042    1.2376 H   0  0  0  0  0  0  0  0  0  0  0  0
   -0.3361    3.6672    1.2126 H   0  0  0  0  0  0  0  0  0  0  0  0
   -2.0086    1.4134   -1.8496 H   0  0  0  0  0  0  0  0  0  0  0  0
   -3.8547    2.8429   -0.8873 H   0  0  0  0  0  0  0  0  0  0  0  0
   -2.2394    3.6329   -0.8281 H   0  0  0  0  0  0  0  0  0  0  0  0
   -2.9538    2.9485    0.6649 H   0  0  0  0  0  0  0  0  0  0  0  0
   -3.8468    1.1298    1.4499 H   0  0  0  0  0  0  0  0  0  0  0  0
   -5.1853   -0.8776    2.0608 H   0  0  0  0  0  0  0  0  0  0  0  0
   -5.1257   -2.9241    0.6101 H   0  0  0  0  0  0  0  0  0  0  0  0
   -3.7298   -2.9256   -1.4769 H   0  0  0  0  0  0  0  0  0  0  0  0
   -2.4044   -0.9003   -2.0945 H   0  0  0  0  0  0  0  0  0  0  0  0
  1  2  1  0  0  0  0
  1 10  1  0  0  0  0
  3  2  1  1  0  0  0
  3  4  1  0  0  0  0
  4  9  1  0  0  0  0
  5  4  2  0  0  0  0
  5 19  1  0  0  0  0
  6  5  1  0  0  0  0
  7  8  1  0  0  0  0
  7  6  1  0  0  0  0
  8  3  1  0  0  0  0
  9 24  1  0  0  0  0
  9 23  1  0  0  0  0
 10 28  1  0  0  0  0
 10 27  1  0  0  0  0
 11 29  1  6  0  0  0
 11 12  1  0  0  0  0
 11 13  1  0  0  0  0
 11  2  1  0  0  0  0
 12 32  1  0  0  0  0
 13 14  1  0  0  0  0
 14 15  2  0  0  0  0
 14 33  1  0  0  0  0
 15 34  1  0  0  0  0
 16 35  1  0  0  0  0
 16 15  1  0  0  0  0
 17 16  2  0  0  0  0
 18 17  1  0  0  0  0
 18 13  2  0  0  0  0
 20  6  1  0  0  0  0
 21  7  1  0  0  0  0
 22  8  1  0  0  0  0
 25  9  1  0  0  0  0
 26 10  1  0  0  0  0
 30 12  1  0  0  0  0
 31 12  1  0  0  0  0
 36 17  1  0  0  0  0
 37 18  1  0  0  0  0
M  END
