1,3
q = 0.0, confidence = 0.996

 37 40  0  0  1  0  0  0  0  0999 V2000
   -3.2021   -1.8818   -0.5577 C   0  0  0  0  0  3  0  0  0  0  0  0
   -3.9430   -1.1121   -1.4793 C   0  0  0  0  0  3  0  0  0  0  0  0
   -3.3109   -0.0076   -2.1298 C   0  0  0  0  0  3  0  0  0  0  0  0
   -1.9460    0.2774   -1.9018 C   0  0  0  0  0  3  0  0  0  0  0  0
   -1.1397   -0.5676   -1.0527 C   0  0  0  0  0  0  0  0  0  0  0  0
   -1.7870   -1.6677   -0.3610 C   0  0  0  0  0  0  0  0  0  0  0  0
   -1.0231   -2.4589    0.5542 C   0  0  0  0  0  0  0  0  0  0  0  0
    0.3114   -2.1938    0.7825 C   0  0  0  0  0  0  0  0  0  0  0  0
    0.9425   -1.1015    0.1234 C   0  0  0  0  0  0  0  0  0  0  0  0
    0.2586   -0.3135   -0.8160 C   0  0  0  0  0  0  0  0  0  0  0  0
    1.0455    0.6646   -1.5501 C   0  0  0  0  0  0  0  0  0  0  0  0
    2.2928    0.9846   -1.1339 C   0  0  0  0  0  0  0  0  0  0  0  0
    2.8286    0.4196    0.1690 C   0  0  2  0  0  0  0  0  0  0  0  0
    2.2497   -0.9038    0.4029 O   0  0  0  0  0  0  0  0  0  0  0  0
    2.4299    1.3112    1.3583 C   0  0  0  0  0  0  0  0  0  0  0  0
    4.3430    0.2202    0.0928 C   0  0  0  0  0  0  0  0  0  0  0  0
    4.9213   -1.0614    0.1137 C   0  0  0  0  0  0  0  0  0  0  0  0
    6.3143   -1.2145    0.0308 C   0  0  0  0  0  0  0  0  0  0  0  0
    7.1473   -0.0917   -0.0798 C   0  0  0  0  0  0  0  0  0  0  0  0
    6.5766    1.1906   -0.1068 C   0  0  0  0  0  0  0  0  0  0  0  0
    5.1859    1.3446   -0.0201 C   0  0  0  0  0  0  0  0  0  0  0  0
   -3.6932   -2.6872    0.0070 H   0  0  0  0  0  0  0  0  0  0  0  0
   -5.0162   -1.2970   -1.6199 H   0  0  0  0  0  0  0  0  0  0  0  0
   -3.9016    0.6542   -2.7782 H   0  0  0  0  0  0  0  0  0  0  0  0
   -1.4980    1.1634   -2.3679 H   0  0  0  0  0  0  0  0  0  0  0  0
   -1.5237   -3.2876    1.0769 H   0  0  0  0  0  0  0  0  0  0  0  0
    0.9077   -2.7886    1.4885 H   0  0  0  0  0  0  0  0  0  0  0  0
    0.6432    1.1003   -2.4764 H   0  0  0  0  0  0  0  0  0  0  0  0
    2.9346    1.6745   -1.7005 H   0  0  0  0  0  0  0  0  0  0  0  0
    2.8697    2.3211    1.2512 H   0  0  0  0  0  0  0  0  0  0  0  0
    1.3288    1.4262    1.4010 H   0  0  0  0  0  0  0  0  0  0  0  0
    2.7966    0.8641    2.3034 H   0  0  0  0  0  0  0  0  0  0  0  0
    4.2681   -1.9400    0.1955 H   0  0  0  0  0  0  0  0  0  0  0  0
    6.7508   -2.2249    0.0512 H   0  0  0  0  0  0  0  0  0  0  0  0
    8.2389   -0.2140   -0.1460 H   0  0  0  0  0  0  0  0  0  0  0  0
    7.2186    2.0803   -0.1945 H   0  0  0  0  0  0  0  0  0  0  0  0
    4.7554    2.3579   -0.0413 H   0  0  0  0  0  0  0  0  0  0  0  0
  1  6  1  0  0  0  0
  1 22  1  0  0  0  0
  2  1  1  0  0  0  0
  3  4  1  0  0  0  0
  3  2  1  0  0  0  0
  4  5  1  0  0  0  0
  5 10  2  0  0  0  0
  5  6  1  0  0  0  0
  6  7  2  0  0  0  0
  7  8  1  0  0  0  0
  7 26  1  0  0  0  0
  8 27  1  0  0  0  0
  9 14  1  0  0  0  0
  9  8  2  0  0  0  0
 10  9  1  0  0  0  0
 11 12  2  0  0  0  0
 11 10  1  0  0  0  0
 12 13  1  0  0  0  0
 13 14  1  0  0  0  0
 13 15  1  1  0  0  0
 15 31  1  0  0  0  0
 15 32  1  0  0  0  0
 16 17  1  0  0  0  0
 16 13  1  0  0  0  0
 17 33  1  0  0  0  0
 18 34  1  0  0  0  0
 18 17  2  0  0  0  0
 19 18  1  0  0  0  0
 20 19  2  0  0  0  0
 20 21  1  0  0  0  0
 21 16  2  0  0  0  0
 23  2  1  0  0  0  0
 24  3  1  0  0  0  0
 25  4  1  0  0  0  0
 28 11  1  0  0  0  0
 29 12  1  0  0  0  0
 30 15  1  0  0  0  0
 35 19  1  0  0  0  0
 36 20  1  0  0  0  0
 37 21  1  0  0  0  0
M  END
