1,11
q = -1.0, confidence = 0.014

 32 34  0  0  0  0  0  0  0  0999 V2000
    0.5256    0.6667    0.8526 C   0  0  0  0  0  3  0  0  0  0  0  0
   -0.6490    0.4249    1.5756 C   0  0  0  0  0  0  0  0  0  0  0  0
    0.6505    2.0498    0.9920 N   0  0  0  0  0  0  0  0  0  0  0  0
   -0.2800    2.6351    1.7378 N   0  0  0  0  0  2  0  0  0  0  0  0
   -1.0723    1.6321    2.0897 N   0  0  0  0  0  0  0  0  0  0  0  0
   -2.2468    1.8693    2.9144 C   0  0  0  0  0  0  0  0  0  0  0  0
   -2.0589    2.7591    3.5403 H   0  0  0  0  0  0  0  0  0  0  0  0
   -2.4080    0.9650    3.5328 H   0  0  0  0  0  0  0  0  0  0  0  0
   -3.1323    2.0387    2.2700 H   0  0  0  0  0  0  0  0  0  0  0  0
    1.6877    2.6670    0.2588 C   0  0  0  0  0  0  0  0  0  0  0  0
    2.4040    1.7080   -0.5098 C   0  0  0  0  0  3  0  0  0  0  0  0
    3.3981    2.2433   -1.3562 C   0  0  0  0  0  0  0  0  0  0  0  0
    3.9590    1.5744   -2.0249 H   0  0  0  0  0  0  0  0  0  0  0  0
    3.6746    3.6210   -1.3801 C   0  0  0  0  0  0  0  0  0  0  0  0
    4.4612    4.0026   -2.0500 H   0  0  0  0  0  0  0  0  0  0  0  0
    2.9545    4.5235   -0.5731 C   0  0  0  0  0  0  0  0  0  0  0  0
    3.1803    5.5995   -0.6041 H   0  0  0  0  0  0  0  0  0  0  0  0
    1.9308    4.0466    0.2552 C   0  0  0  0  0  0  0  0  0  0  0  0
    1.3235    4.7204    0.8768 H   0  0  0  0  0  0  0  0  0  0  0  0
   -1.4994   -1.1426    1.7724 S   0  0  1  0  0  0  0  0  0  0  0  0
   -1.9212   -1.2829    3.2340 O   0  0  0  0  0  0  0  0  0  0  0  0
   -3.0056   -0.6751    0.8331 C   0  0  0  0  0  0  0  0  0  0  0  0
   -4.2299   -0.8052    1.4975 C   0  0  0  0  0  0  0  0  0  0  0  0
   -4.2348   -1.1218    2.5526 H   0  0  0  0  0  0  0  0  0  0  0  0
   -5.4160   -0.5196    0.8038 C   0  0  0  0  0  0  0  0  0  0  0  0
   -6.3923   -0.6059    1.3015 H   0  0  0  0  0  0  0  0  0  0  0  0
   -5.3418   -0.1248   -0.5426 C   0  0  0  0  0  0  0  0  0  0  0  0
   -4.1063   -0.0156   -1.2074 C   0  0  0  0  0  0  0  0  0  0  0  0
   -4.0697    0.2912   -2.2623 H   0  0  0  0  0  0  0  0  0  0  0  0
   -2.9200   -0.3003   -0.5170 C   0  0  0  0  0  0  0  0  0  0  0  0
   -1.9435   -0.2167   -1.0334 H   0  0  0  0  0  0  0  0  0  0  0  0
   -6.9457    0.2648   -1.4871 Br  0  0  0  0  0  0  0  0  0  0  0  0
  1  3  1  0  0  0  0
  1  2  2  0  0  0  0
  2 20  1  0  0  0  0
  2  5  1  0  0  0  0
  3  4  1  0  0  0  0
  4  5  1  0  0  0  0
  5  6  1  0  0  0  0
  6  8  1  0  0  0  0
  6  7  1  0  0  0  0
  9  6  1  0  0  0  0
 10  3  1  0  0  0  0
 11 10  2  0  0  0  0
 12 11  1  0  0  0  0
 13 12  1  0  0  0  0
 14 12  2  0  0  0  0
 14 16  1  0  0  0  0
 15 14  1  0  0  0  0
 16 18  2  0  0  0  0
 17 16  1  0  0  0  0
 18 10  1  0  0  0  0
 18 19  1  0  0  0  0
 20 21  2  1  0  0  0
 22 23  1  0  0  0  0
 22 20  1  0  0  0  0
 23 24  1  0  0  0  0
 25 26  1  0  0  0  0
 25 23  2  0  0  0  0
 27 25  1  0  0  0  0
 28 27  2  0  0  0  0
 28 30  1  0  0  0  0
 29 28  1  0  0  0  0
 30 22  2  0  0  0  0
 31 30  1  0  0  0  0
 32 27  1  0  0  0  0
M  END
