2,22
q = -2.0, confidence = 0.72

 40 44  0  0  1  0  0  0  0  0999 V2000
    1.5197    1.6797   -0.1652 C   0  0  1  0  0  3  0  0  0  0  0  0
    0.8131    1.5447   -1.4126 C   0  0  1  0  0  3  0  0  0  0  0  0
    1.2472    0.3492   -2.0569 C   0  0  0  0  0  3  0  0  0  0  0  0
    2.2716   -0.2548   -1.2511 C   0  0  0  0  0  0  0  0  0  0  0  0
    2.4588    0.5894   -0.0811 C   0  0  0  0  0  0  0  0  0  0  0  0
    3.0429   -1.4440   -1.4008 C   0  0  0  0  0  0  0  0  0  0  0  0
    3.9913   -1.7470   -0.4371 C   0  0  0  0  0  0  0  0  0  0  0  0
    4.2027   -0.8958    0.6906 C   0  0  0  0  0  0  0  0  0  0  0  0
    3.4526    0.2535    0.8815 C   0  0  0  0  0  0  0  0  0  0  0  0
    1.3393    2.7915    0.8385 C   0  0  0  0  0  0  0  0  0  0  0  0
   -0.2795    2.4545   -1.9216 C   0  0  0  0  0  0  0  0  0  0  0  0
    0.8709   -0.0322   -3.0124 H   0  0  0  0  0  0  0  0  0  0  0  0
    2.8816   -2.0976   -2.2704 H   0  0  0  0  0  0  0  0  0  0  0  0
    4.5967   -2.6602   -0.5370 H   0  0  0  0  0  0  0  0  0  0  0  0
    4.9729   -1.1698    1.4271 H   0  0  0  0  0  0  0  0  0  0  0  0
    3.6102    0.8909    1.7643 H   0  0  0  0  0  0  0  0  0  0  0  0
    1.0591    3.7182    0.2996 H   0  0  0  0  0  0  0  0  0  0  0  0
    2.3090    3.0144    1.3285 H   0  0  0  0  0  0  0  0  0  0  0  0
   -0.7708    1.9495   -2.7775 H   0  0  0  0  0  0  0  0  0  0  0  0
    0.1648    3.3890   -2.3301 H   0  0  0  0  0  0  0  0  0  0  0  0
   -1.5197    1.6797    0.1652 C   0  0  2  0  0  3  0  0  0  0  0  0
   -0.8131    1.5447    1.4126 C   0  0  1  0  0  3  0  0  0  0  0  0
   -1.3393    2.7915   -0.8385 C   0  0  0  0  0  0  0  0  0  0  0  0
   -2.4588    0.5894    0.0811 C   0  0  0  0  0  0  0  0  0  0  0  0
   -1.2472    0.3492    2.0569 C   0  0  0  0  0  3  0  0  0  0  0  0
    0.2795    2.4545    1.9216 C   0  0  0  0  0  0  0  0  0  0  0  0
   -2.2716   -0.2548    1.2511 C   0  0  0  0  0  0  0  0  0  0  0  0
   -0.8709   -0.0322    3.0124 H   0  0  0  0  0  0  0  0  0  0  0  0
   -3.4526    0.2534   -0.8815 C   0  0  0  0  0  0  0  0  0  0  0  0
   -4.2027   -0.8959   -0.6906 C   0  0  0  0  0  0  0  0  0  0  0  0
   -3.9913   -1.7471    0.4371 C   0  0  0  0  0  0  0  0  0  0  0  0
   -3.0429   -1.4440    1.4008 C   0  0  0  0  0  0  0  0  0  0  0  0
   -2.8816   -2.0976    2.2704 H   0  0  0  0  0  0  0  0  0  0  0  0
   -4.5966   -2.6602    0.5370 H   0  0  0  0  0  0  0  0  0  0  0  0
   -4.9729   -1.1698   -1.4271 H   0  0  0  0  0  0  0  0  0  0  0  0
   -3.6102    0.8909   -1.7643 H   0  0  0  0  0  0  0  0  0  0  0  0
    0.7708    1.9496    2.7775 H   0  0  0  0  0  0  0  0  0  0  0  0
   -0.1648    3.3890    2.3301 H   0  0  0  0  0  0  0  0  0  0  0  0
   -1.0591    3.7182   -0.2996 H   0  0  0  0  0  0  0  0  0  0  0  0
   -2.3090    3.0144   -1.3285 H   0  0  0  0  0  0  0  0  0  0  0  0
  1  5  1  6  0  0  0
  1 10  1  0  0  0  0
  2  3  1  1  0  0  0
  2  1  1  0  0  0  0
  3  4  1  0  0  0  0
  4  5  1  0  0  0  0
  5  9  2  0  0  0  0
  6  4  2  0  0  0  0
  6  7  1  0  0  0  0
  7  8  2  0  0  0  0
  8  9  1  0  0  0  0
  8 15  1  0  0  0  0
  9 16  1  0  0  0  0
 10 18  1  0  0  0  0
 10 26  1  0  0  0  0
 11  2  1  0  0  0  0
 11 23  1  0  0  0  0
 12  3  1  0  0  0  0
 13  6  1  0  0  0  0
 14  7  1  0  0  0  0
 17 10  1  0  0  0  0
 19 11  1  0  0  0  0
 20 11  1  0  0  0  0
 21 24  1  1  0  0  0
 21 22  1  0  0  0  0
 22 26  1  0  0  0  0
 22 25  1  6  0  0  0
 23 39  1  0  0  0  0
 23 21  1  0  0  0  0
 24 27  1  0  0  0  0
 25 28  1  0  0  0  0
 26 38  1  0  0  0  0
 26 37  1  0  0  0  0
 27 32  2  0  0  0  0
 27 25  1  0  0  0  0
 29 30  1  0  0  0  0
 29 24  2  0  0  0  0
 30 31  2  0  0  0  0
 31 34  1  0  0  0  0
 31 32  1  0  0  0  0
 32 33  1  0  0  0  0
 35 30  1  0  0  0  0
 36 29  1  0  0  0  0
 40 23  1  0  0  0  0
M  END
