2
q = -2.0, confidence = 0.854

 43 46  0  0  1  0  0  0  0  0999 V2000
   -2.5401   -0.8303    1.7160 Si  0  0  0  0  0  0  0  0  0  0  0  0
   -2.7401   -0.8691   -0.1625 C   0  0  1  0  0  3  0  0  0  0  0  0
   -2.8491    0.3096   -0.9875 C   0  0  0  0  0  3  0  0  0  0  0  0
   -2.4437   -0.0131   -2.3159 C   0  0  0  0  0  0  0  0  0  0  0  0
   -2.0359   -1.3716   -2.3298 C   0  0  0  0  0  0  0  0  0  0  0  0
   -2.2151   -1.8967   -1.0122 C   0  0  0  0  0  3  0  0  0  0  0  0
   -0.8464    0.0027    1.6842 C   0  0  2  0  0  3  0  0  0  0  0  0
   -0.5614    1.3736    1.2944 C   0  0  0  0  0  0  0  0  0  0  0  0
   -1.3895    2.5333    1.1919 C   0  0  0  0  0  0  0  0  0  0  0  0
   -0.8162    3.7456    0.8380 C   0  0  0  0  0  0  0  0  0  0  0  0
    0.5828    3.8549    0.5851 C   0  0  0  0  0  0  0  0  0  0  0  0
    1.4159    2.7496    0.6577 C   0  0  0  0  0  0  0  0  0  0  0  0
    0.8554    1.4846    0.9859 C   0  0  0  0  0  0  0  0  0  0  0  0
    1.4448    0.1741    1.1305 C   0  0  0  0  0  0  0  0  0  0  0  0
    0.4070   -0.6931    1.5883 C   0  0  0  0  0  0  0  0  0  0  0  0
   -2.3953   -2.5733    2.4110 C   0  0  0  0  0  0  0  0  0  0  0  0
   -3.8867    0.1618    2.5797 C   0  0  0  0  0  0  0  0  0  0  0  0
    5.5581   -0.9272    0.5149 C   0  0  0  0  0  0  0  0  0  0  0  0
    4.8309   -1.4703    1.5858 C   0  0  0  0  0  0  0  0  0  0  0  0
    3.4926   -1.1058    1.7855 C   0  0  0  0  0  0  0  0  0  0  0  0
    2.8553   -0.1918    0.9174 C   0  0  0  0  0  0  0  0  0  0  0  0
    3.5945    0.3393   -0.1653 C   0  0  0  0  0  0  0  0  0  0  0  0
    4.9330   -0.0238   -0.3601 C   0  0  0  0  0  0  0  0  0  0  0  0
   -2.4600    2.4726    1.4340 H   0  0  0  0  0  0  0  0  0  0  0  0
   -1.4459    4.6454    0.7710 H   0  0  0  0  0  0  0  0  0  0  0  0
    1.0053    4.8386    0.3316 H   0  0  0  0  0  0  0  0  0  0  0  0
    2.4944    2.8409    0.4690 H   0  0  0  0  0  0  0  0  0  0  0  0
    0.5498   -1.7654    1.7780 H   0  0  0  0  0  0  0  0  0  0  0  0
   -3.3527   -3.1204    2.2938 H   0  0  0  0  0  0  0  0  0  0  0  0
   -1.6053   -3.1553    1.8958 H   0  0  0  0  0  0  0  0  0  0  0  0
   -2.1462   -2.5430    3.4912 H   0  0  0  0  0  0  0  0  0  0  0  0
   -4.8306   -0.4205    2.5957 H   0  0  0  0  0  0  0  0  0  0  0  0
   -3.6001    0.3869    3.6270 H   0  0  0  0  0  0  0  0  0  0  0  0
   -4.0945    1.1212    2.0669 H   0  0  0  0  0  0  0  0  0  0  0  0
    6.6093   -1.2129    0.3581 H   0  0  0  0  0  0  0  0  0  0  0  0
    5.3117   -2.1808    2.2755 H   0  0  0  0  0  0  0  0  0  0  0  0
    2.9317   -1.5187    2.6377 H   0  0  0  0  0  0  0  0  0  0  0  0
    3.0960    1.0050   -0.8856 H   0  0  0  0  0  0  0  0  0  0  0  0
    5.4892    0.3906   -1.2147 H   0  0  0  0  0  0  0  0  0  0  0  0
   -3.1940    1.2975   -0.6576 H   0  0  0  0  0  0  0  0  0  0  0  0
   -2.4129    0.6783   -3.1657 H   0  0  0  0  0  0  0  0  0  0  0  0
   -1.6334   -1.9183   -3.1908 H   0  0  0  0  0  0  0  0  0  0  0  0
   -1.9582   -2.9171   -0.7009 H   0  0  0  0  0  0  0  0  0  0  0  0
  1 16  1  0  0  0  0
  1 17  1  0  0  0  0
  2  1  1  1  0  0  0
  3 40  1  0  0  0  0
  3  2  1  0  0  0  0
  4  3  1  0  0  0  0
  5  4  2  0  0  0  0
  5  6  1  0  0  0  0
  6 43  1  0  0  0  0
  6  2  1  0  0  0  0
  7  1  1  6  0  0  0
  8  7  1  0  0  0  0
  9  8  1  0  0  0  0
  9 24  1  0  0  0  0
 10  9  2  0  0  0  0
 11 12  2  0  0  0  0
 11 10  1  0  0  0  0
 12 13  1  0  0  0  0
 13 14  1  0  0  0  0
 13  8  2  0  0  0  0
 14 15  2  0  0  0  0
 15  7  1  0  0  0  0
 15 28  1  0  0  0  0
 16 31  1  0  0  0  0
 17 32  1  0  0  0  0
 17 33  1  0  0  0  0
 18 19  1  0  0  0  0
 19 20  2  0  0  0  0
 19 36  1  0  0  0  0
 20 37  1  0  0  0  0
 21 14  1  0  0  0  0
 21 20  1  0  0  0  0
 22 21  2  0  0  0  0
 23 22  1  0  0  0  0
 23 18  2  0  0  0  0
 25 10  1  0  0  0  0
 26 11  1  0  0  0  0
 27 12  1  0  0  0  0
 29 16  1  0  0  0  0
 30 16  1  0  0  0  0
 34 17  1  0  0  0  0
 35 18  1  0  0  0  0
 38 22  1  0  0  0  0
 39 23  1  0  0  0  0
 41  4  1  0  0  0  0
 42  5  1  0  0  0  0
M  END
