1,5
q = -1.0, confidence = 0.0

 31 30  0  0  0  0  0  0  0  0999 V2000
    0.8750   -1.4703   -0.6131 C   0  0  0  0  0  3  0  0  0  0  0  0
    0.7499   -2.3560    0.0408 H   0  0  0  0  0  0  0  0  0  0  0  0
    1.0385   -1.8234   -1.6499 H   0  0  0  0  0  0  0  0  0  0  0  0
    1.8683   -0.4314   -0.1822 C   0  0  0  0  0  0  0  0  0  0  0  0
    1.1659    0.7427   -0.0821 C   0  0  0  0  0  3  0  0  0  0  0  0
    3.6129   -0.9188   -0.0386 P   0  0  0  0  0  4  0  0  0  0  0  0
    4.2326   -0.9714    1.6792 C   0  0  0  0  0  0  0  0  0  0  0  0
    5.2559   -1.3961    1.6989 H   0  0  0  0  0  0  0  0  0  0  0  0
    3.5552   -1.6160    2.2725 H   0  0  0  0  0  0  0  0  0  0  0  0
    4.2423    0.0412    2.1204 H   0  0  0  0  0  0  0  0  0  0  0  0
    4.8347   -0.0218   -1.0609 C   0  0  0  0  0  0  0  0  0  0  0  0
    5.8159   -0.5306   -0.9798 H   0  0  0  0  0  0  0  0  0  0  0  0
    4.9423    1.0297   -0.7392 H   0  0  0  0  0  0  0  0  0  0  0  0
    4.4950   -0.0421   -2.1145 H   0  0  0  0  0  0  0  0  0  0  0  0
    3.6993   -2.6398   -0.6279 C   0  0  0  0  0  0  0  0  0  0  0  0
    4.7384   -3.0084   -0.5267 H   0  0  0  0  0  0  0  0  0  0  0  0
    3.3928   -2.6898   -1.6897 H   0  0  0  0  0  0  0  0  0  0  0  0
    3.0221   -3.2781   -0.0306 H   0  0  0  0  0  0  0  0  0  0  0  0
    1.6817    2.1686    0.0962 C   0  0  0  0  0  0  0  0  0  0  0  0
    2.8595    2.2320    1.0920 C   0  0  0  0  0  0  0  0  0  0  0  0
    3.1856    3.2826    1.2278 H   0  0  0  0  0  0  0  0  0  0  0  0
    3.7479    1.6771    0.7393 H   0  0  0  0  0  0  0  0  0  0  0  0
    2.5697    1.8387    2.0872 H   0  0  0  0  0  0  0  0  0  0  0  0
    0.6107    3.1492    0.6104 C   0  0  0  0  0  0  0  0  0  0  0  0
    1.0360    4.1710    0.6625 H   0  0  0  0  0  0  0  0  0  0  0  0
    0.2745    2.8770    1.6268 H   0  0  0  0  0  0  0  0  0  0  0  0
   -0.2729    3.1928   -0.0491 H   0  0  0  0  0  0  0  0  0  0  0  0
    2.1549    2.6534   -1.2992 C   0  0  0  0  0  0  0  0  0  0  0  0
    2.5612    3.6827   -1.2222 H   0  0  0  0  0  0  0  0  0  0  0  0
    1.3202    2.6743   -2.0245 H   0  0  0  0  0  0  0  0  0  0  0  0
    2.9444    1.9979   -1.7142 H   0  0  0  0  0  0  0  0  0  0  0  0
  1  4  1  0  0  0  0
  1  2  1  0  0  0  0
  3  1  1  0  0  0  0
  4  5  2  0  0  0  0
  4  6  1  0  0  0  0
  5 19  1  0  0  0  0
  6  7  1  0  0  0  0
  7  8  1  0  0  0  0
  7 10  1  0  0  0  0
  7  9  1  0  0  0  0
 11 12  1  0  0  0  0
 11 13  1  0  0  0  0
 11  6  1  0  0  0  0
 14 11  1  0  0  0  0
 15 16  1  0  0  0  0
 15  6  1  0  0  0  0
 15 18  1  0  0  0  0
 17 15  1  0  0  0  0
 19 24  1  0  0  0  0
 19 20  1  0  0  0  0
 20 21  1  0  0  0  0
 20 23  1  0  0  0  0
 22 20  1  0  0  0  0
 24 25  1  0  0  0  0
 24 26  1  0  0  0  0
 27 24  1  0  0  0  0
 28 29  1  0  0  0  0
 28 19  1  0  0  0  0
 30 28  1  0  0  0  0
 31 28  1  0  0  0  0
M  END
