12,14
q = 0.0, confidence = 0.936

 35 37  0  0  1  0  0  0  0  0999 V2000
    2.6202    2.9490   -0.1268 O   0  0  0  0  0  0  0  0  0  0  0  0
    4.7747    3.0729    0.1796 O   0  0  0  0  0  0  0  0  0  0  0  0
    7.5409   -0.7749    0.5144 O   0  0  0  0  0  0  0  0  0  0  0  0
    6.6913   -2.7840    0.3227 O   0  0  0  0  0  0  0  0  0  0  0  0
    0.3625   -0.1360   -0.5775 N   0  0  0  0  0  0  0  0  0  0  0  0
    1.4394    0.6506   -0.3751 N   0  0  0  0  0  0  0  0  0  0  0  0
    3.7475    2.4221    0.0202 N   0  0  0  0  0  0  0  0  0  0  0  0
    6.6021   -1.5544    0.3473 N   0  0  0  0  0  0  0  0  0  0  0  0
   -2.0176   -0.2609   -1.0035 C   0  0  2  0  0  3  0  0  0  0  0  0
   -2.0340   -1.6583   -1.6039 C   0  0  0  0  0  0  0  0  0  0  0  0
   -3.5022   -2.2407   -1.8229 C   0  0  0  0  0  0  0  0  0  0  0  0
   -4.3229   -1.1553   -1.2434 C   0  0  0  0  0  2  0  0  0  0  0  0
   -4.2834    0.1194   -1.5424 C   0  0  0  0  0  2  0  0  0  0  0  0
   -3.0409    0.7496   -1.3137 C   0  0  2  0  0  3  0  0  0  0  0  0
   -2.4584    2.1358   -1.4117 C   0  0  0  0  0  0  0  0  0  0  0  0
   -1.0356    1.9759   -0.8104 C   0  0  0  0  0  0  0  0  0  0  0  0
   -0.7761    0.4721   -0.7561 C   0  0  0  0  0  0  0  0  0  0  0  0
    2.6858    0.1241   -0.2007 C   0  0  0  0  0  0  0  0  0  0  0  0
    3.8365    0.9631   -0.0021 C   0  0  0  0  0  0  0  0  0  0  0  0
    5.1109    0.4069    0.1764 C   0  0  0  0  0  0  0  0  0  0  0  0
    5.2601   -0.9750    0.1600 C   0  0  0  0  0  0  0  0  0  0  0  0
    4.1527   -1.8299   -0.0333 C   0  0  0  0  0  0  0  0  0  0  0  0
    2.8908   -1.2877   -0.2110 C   0  0  0  0  0  0  0  0  0  0  0  0
    1.4086    1.6894   -0.3325 H   0  0  0  0  0  0  0  0  0  0  0  0
   -1.5021   -1.6389   -2.5805 H   0  0  0  0  0  0  0  0  0  0  0  0
   -1.4644   -2.3406   -0.9445 H   0  0  0  0  0  0  0  0  0  0  0  0
   -3.6180   -3.2165   -1.3148 H   0  0  0  0  0  0  0  0  0  0  0  0
   -3.6998   -2.3836   -2.9050 H   0  0  0  0  0  0  0  0  0  0  0  0
   -2.3974    2.4251   -2.4824 H   0  0  0  0  0  0  0  0  0  0  0  0
   -3.0688    2.9032   -0.8999 H   0  0  0  0  0  0  0  0  0  0  0  0
   -0.2634    2.4890   -1.4218 H   0  0  0  0  0  0  0  0  0  0  0  0
   -0.9655    2.4170    0.2074 H   0  0  0  0  0  0  0  0  0  0  0  0
    5.9766    1.0636    0.3258 H   0  0  0  0  0  0  0  0  0  0  0  0
    4.3216   -2.9151   -0.0373 H   0  0  0  0  0  0  0  0  0  0  0  0
    2.0078   -1.9207   -0.3628 H   0  0  0  0  0  0  0  0  0  0  0  0
  1  7  2  0  0  0  0
  4  8  2  0  0  0  0
  5  6  1  0  0  0  0
  6 24  1  0  0  0  0
  6 18  1  0  0  0  0
  7  2  2  0  0  0  0
  8  3  2  0  0  0  0
  9 17  1  6  0  0  0
 10  9  1  0  0  0  0
 10 26  1  0  0  0  0
 11 10  1  0  0  0  0
 11 27  1  0  0  0  0
 11 12  1  0  0  0  0
 13 12  1  0  0  0  0
 14 13  1  6  0  0  0
 14  9  1  0  0  0  0
 15 14  1  0  0  0  0
 15 30  1  0  0  0  0
 15 16  1  0  0  0  0
 16 17  1  0  0  0  0
 16 32  1  0  0  0  0
 17  5  2  0  0  0  0
 18 19  1  0  0  0  0
 19  7  1  0  0  0  0
 19 20  2  0  0  0  0
 20 33  1  0  0  0  0
 21 20  1  0  0  0  0
 21  8  1  0  0  0  0
 22 21  2  0  0  0  0
 23 18  2  0  0  0  0
 23 22  1  0  0  0  0
 25 10  1  0  0  0  0
 28 11  1  0  0  0  0
 29 15  1  0  0  0  0
 31 16  1  0  0  0  0
 34 22  1  0  0  0  0
 35 23  1  0  0  0  0
M  END
