1,8
q = 0.0, confidence = 0.988

 31 32  0  0  1  0  0  0  0  0999 V2000
   -0.3698    0.5947    0.2399 C   0  0  1  0  0  3  0  0  0  0  0  0
   -0.0944   -0.3628    1.2703 C   0  0  0  0  0  3  0  0  0  0  0  0
   -0.7001   -1.2767    1.3218 H   0  0  0  0  0  0  0  0  0  0  0  0
    1.0013   -0.1614    2.1484 C   0  0  0  0  0  0  0  0  0  0  0  0
    1.2573   -0.9399    2.8819 H   0  0  0  0  0  0  0  0  0  0  0  0
    1.8184    0.9924    2.0347 C   0  0  0  0  0  0  0  0  0  0  0  0
    2.7050    1.1121    2.6712 H   0  0  0  0  0  0  0  0  0  0  0  0
    1.4995    1.9734    1.0459 C   0  0  0  0  0  3  0  0  0  0  0  0
    2.1466    2.8542    0.9242 H   0  0  0  0  0  0  0  0  0  0  0  0
    0.3865    1.7997    0.1832 C   0  0  0  0  0  3  0  0  0  0  0  0
    0.1840    2.5364   -0.6075 H   0  0  0  0  0  0  0  0  0  0  0  0
   -1.3293    0.2211   -0.8821 C   0  0  2  0  0  0  0  0  0  0  0  0
   -1.2927    1.0341   -1.6343 H   0  0  0  0  0  0  0  0  0  0  0  0
   -2.7690    0.0907   -0.4099 C   0  0  0  0  0  0  0  0  0  0  0  0
   -3.7448    1.0422   -0.7677 C   0  0  0  0  0  0  0  0  0  0  0  0
   -3.4743    1.8922   -1.4125 H   0  0  0  0  0  0  0  0  0  0  0  0
   -5.0544    0.8868   -0.2941 C   0  0  0  0  0  0  0  0  0  0  0  0
   -5.8352    1.6149   -0.5624 H   0  0  0  0  0  0  0  0  0  0  0  0
   -5.3499   -0.2120    0.5249 C   0  0  0  0  0  0  0  0  0  0  0  0
   -6.3629   -0.3773    0.9203 H   0  0  0  0  0  0  0  0  0  0  0  0
   -4.3108   -1.1060    0.8295 C   0  0  0  0  0  0  0  0  0  0  0  0
   -4.5024   -1.9838    1.4724 H   0  0  0  0  0  0  0  0  0  0  0  0
   -3.0574   -0.9647    0.3764 N   0  0  0  0  0  0  0  0  0  0  0  0
   -0.7761   -1.0864   -1.4896 C   0  0  0  0  0  0  0  0  0  0  0  0
   -1.2422   -1.2785   -2.4839 H   0  0  0  0  0  0  0  0  0  0  0  0
   -1.1010   -1.9196   -0.8344 H   0  0  0  0  0  0  0  0  0  0  0  0
    0.7395   -1.0701   -1.5996 C   0  0  0  0  0  3  0  0  0  0  0  0
    1.1838   -2.0715   -1.7238 H   0  0  0  0  0  0  0  0  0  0  0  0
    1.4672    0.0226   -2.1241 C   0  0  0  0  0  3  0  0  0  0  0  0
    0.9449    0.9404   -2.4402 H   0  0  0  0  0  0  0  0  0  0  0  0
    2.4033   -0.1637   -2.6703 H   0  0  0  0  0  0  0  0  0  0  0  0
  1 12  1  6  0  0  0
  1  2  1  0  0  0  0
  2  3  1  0  0  0  0
  2  4  1  0  0  0  0
  4  5  1  0  0  0  0
  6  4  2  0  0  0  0
  6  7  1  0  0  0  0
  8  6  1  0  0  0  0
  9  8  1  0  0  0  0
 10  1  1  0  0  0  0
 10  8  1  0  0  0  0
 11 10  1  0  0  0  0
 12 13  1  6  0  0  0
 12 14  1  0  0  0  0
 14 23  1  0  0  0  0
 15 14  2  0  0  0  0
 15 17  1  0  0  0  0
 16 15  1  0  0  0  0
 17 19  2  0  0  0  0
 18 17  1  0  0  0  0
 19 21  1  0  0  0  0
 19 20  1  0  0  0  0
 21 22  1  0  0  0  0
 23 21  2  0  0  0  0
 24 12  1  0  0  0  0
 24 26  1  0  0  0  0
 25 24  1  0  0  0  0
 27 24  1  0  0  0  0
 28 27  1  0  0  0  0
 29 27  1  0  0  0  0
 30 29  1  0  0  0  0
 31 29  1  0  0  0  0
M  END
