5,24
q = 0.0, confidence = 0.988

 38 40  0  0  0  0  0  0  0  0999 V2000
   -4.1929   -2.2575    1.8317 Cl  0  0  0  0  0  0  0  0  0  0  0  0
   -4.1522   -2.9069   -1.6431 Cl  0  0  0  0  0  0  0  0  0  0  0  0
   -2.1067   -0.7525    0.8905 N   0  0  0  0  0  0  0  0  0  0  0  0
   -2.0738   -1.1572   -1.2520 N   0  0  0  0  0  0  0  0  0  0  0  0
   -1.4488   -0.4401   -0.2678 C   0  0  0  0  0  2  0  0  0  0  0  0
   -3.1514   -1.6410    0.6271 C   0  0  0  0  0  0  0  0  0  0  0  0
   -3.1331   -1.8912   -0.7255 C   0  0  0  0  0  0  0  0  0  0  0  0
   -1.7729   -0.9874   -2.6667 C   0  0  0  0  0  0  0  0  0  0  0  0
   -2.0016    0.0596   -2.9527 H   0  0  0  0  0  0  0  0  0  0  0  0
   -2.3824   -1.6990   -3.2513 H   0  0  0  0  0  0  0  0  0  0  0  0
   -0.6970   -1.1757   -2.8386 H   0  0  0  0  0  0  0  0  0  0  0  0
   -1.9132   -0.1603    2.2294 C   0  0  0  0  0  0  0  0  0  0  0  0
   -1.8195   -1.0049    2.9440 H   0  0  0  0  0  0  0  0  0  0  0  0
   -2.8571    0.3609    2.4848 H   0  0  0  0  0  0  0  0  0  0  0  0
   -0.7659    0.8099    2.3808 C   0  0  0  0  0  0  0  0  0  0  0  0
   -1.0635    2.1752    2.5535 C   0  0  0  0  0  0  0  0  0  0  0  0
   -2.1104    2.5051    2.4850 H   0  0  0  0  0  0  0  0  0  0  0  0
   -0.0483    3.1156    2.7624 C   0  0  0  0  0  0  0  0  0  0  0  0
   -0.3023    4.1807    2.8608 H   0  0  0  0  0  0  0  0  0  0  0  0
    3.4753   -3.0296    1.9284 Cl  0  0  0  0  0  0  0  0  0  0  0  0
    4.4893   -2.6717   -1.4311 Cl  0  0  0  0  0  0  0  0  0  0  0  0
    1.7397   -1.1715    0.8903 N   0  0  0  0  0  0  0  0  0  0  0  0
    2.3710   -0.9488   -1.1837 N   0  0  0  0  0  0  0  0  0  0  0  0
    1.4605   -0.4916   -0.2678 C   0  0  0  0  0  2  0  0  0  0  0  0
    2.8177   -2.0359    0.7045 C   0  0  0  0  0  0  0  0  0  0  0  0
    3.2134   -1.8954   -0.6060 C   0  0  0  0  0  0  0  0  0  0  0  0
    2.4478   -0.4964   -2.5668 C   0  0  0  0  0  0  0  0  0  0  0  0
    2.1826    0.5801   -2.5817 H   0  0  0  0  0  0  0  0  0  0  0  0
    3.4806   -0.6365   -2.9326 H   0  0  0  0  0  0  0  0  0  0  0  0
    1.7530   -1.0786   -3.2054 H   0  0  0  0  0  0  0  0  0  0  0  0
    0.9917   -1.0368    2.1517 C   0  0  0  0  0  0  0  0  0  0  0  0
    0.1183   -1.7175    2.1115 H   0  0  0  0  0  0  0  0  0  0  0  0
    1.6622   -1.4145    2.9478 H   0  0  0  0  0  0  0  0  0  0  0  0
    0.5875    0.3926    2.4247 C   0  0  0  0  0  0  0  0  0  0  0  0
    1.5970    1.3418    2.6596 C   0  0  0  0  0  0  0  0  0  0  0  0
    2.6488    1.0165    2.6689 H   0  0  0  0  0  0  0  0  0  0  0  0
    1.2877    2.6972    2.8206 C   0  0  0  0  0  0  0  0  0  0  0  0
    2.0942    3.4294    2.9690 H   0  0  0  0  0  0  0  0  0  0  0  0
  2  7  1  0  0  0  0
  3 12  1  0  0  0  0
  4  7  1  0  0  0  0
  4  5  1  0  0  0  0
  5  3  1  0  0  0  0
  6  3  1  0  0  0  0
  6  1  1  0  0  0  0
  7  6  2  0  0  0  0
  8  4  1  0  0  0  0
  9  8  1  0  0  0  0
 10  8  1  0  0  0  0
 11  8  1  0  0  0  0
 12 15  1  0  0  0  0
 12 14  1  0  0  0  0
 12 13  1  0  0  0  0
 15 34  2  0  0  0  0
 15 16  1  0  0  0  0
 16 18  2  0  0  0  0
 17 16  1  0  0  0  0
 18 37  1  0  0  0  0
 18 19  1  0  0  0  0
 21 26  1  0  0  0  0
 22 31  1  0  0  0  0
 23 26  1  0  0  0  0
 23 24  1  0  0  0  0
 24 22  1  0  0  0  0
 25 22  1  0  0  0  0
 25 20  1  0  0  0  0
 26 25  2  0  0  0  0
 27 23  1  0  0  0  0
 28 27  1  0  0  0  0
 29 27  1  0  0  0  0
 30 27  1  0  0  0  0
 31 34  1  0  0  0  0
 31 33  1  0  0  0  0
 32 31  1  0  0  0  0
 34 35  1  0  0  0  0
 35 36  1  0  0  0  0
 35 37  2  0  0  0  0
 37 38  1  0  0  0  0
M  END
