5,9
q = 0.0, confidence = 0.964

 59 63  0  0  1  0  0  0  0  0999 V2000
   -0.0307    2.0892   -0.2371 N   0  0  2  0  0  0  0  0  0  0  0  0
    1.3319    2.4364    0.0018 N   0  0  0  0  0  0  0  0  0  0  0  0
    2.7298   -1.5522   -0.2065 O   0  0  0  0  0  0  0  0  0  0  0  0
    2.5623    4.4105    0.2866 O   0  0  0  0  0  0  0  0  0  0  0  0
    1.4856   -1.1700   -0.4884 C   0  0  0  0  0  2  0  0  0  0  0  0
    1.3566    0.2575   -0.5503 C   0  0  1  0  0  3  0  0  0  0  0  0
    0.0090    0.8158   -0.9793 C   0  0  1  0  0  0  0  0  0  0  0  0
    0.0097    1.0147   -2.0855 H   0  0  0  0  0  0  0  0  0  0  0  0
   -1.1254   -0.1243   -0.6471 C   0  0  0  0  0  3  0  0  0  0  0  0
   -2.0280   -0.0320   -1.2687 H   0  0  0  0  0  0  0  0  0  0  0  0
   -1.2371   -0.6241    0.6602 C   0  0  0  0  0  3  0  0  0  0  0  0
   -0.4082   -0.3810    1.3454 H   0  0  0  0  0  0  0  0  0  0  0  0
   -2.4978   -0.9791    1.3423 C   0  0  0  0  0  0  0  0  0  0  0  0
   -3.7574   -0.9402    0.7005 C   0  0  0  0  0  0  0  0  0  0  0  0
   -3.8247   -0.6675   -0.3621 H   0  0  0  0  0  0  0  0  0  0  0  0
   -4.9304   -1.2372    1.4044 C   0  0  0  0  0  0  0  0  0  0  0  0
   -5.8991   -1.2011    0.8832 H   0  0  0  0  0  0  0  0  0  0  0  0
   -4.8761   -1.5765    2.7669 C   0  0  0  0  0  0  0  0  0  0  0  0
   -5.7999   -1.8102    3.3173 H   0  0  0  0  0  0  0  0  0  0  0  0
   -3.6339   -1.6138    3.4201 C   0  0  0  0  0  0  0  0  0  0  0  0
   -3.5782   -1.8768    4.4873 H   0  0  0  0  0  0  0  0  0  0  0  0
   -2.4603   -1.3174    2.7152 C   0  0  0  0  0  0  0  0  0  0  0  0
   -1.4882   -1.3519    3.2309 H   0  0  0  0  0  0  0  0  0  0  0  0
    2.1399    1.3136   -0.0675 C   0  0  2  0  0  3  0  0  0  0  0  0
    3.5325    1.3523    0.3948 C   0  0  0  0  0  0  0  0  0  0  0  0
    4.5412    0.7020   -0.3507 C   0  0  0  0  0  0  0  0  0  0  0  0
    4.2704    0.1862   -1.2813 H   0  0  0  0  0  0  0  0  0  0  0  0
    5.8698    0.7245    0.0885 C   0  0  0  0  0  0  0  0  0  0  0  0
    6.6492    0.2233   -0.5051 H   0  0  0  0  0  0  0  0  0  0  0  0
    6.2073    1.3850    1.2811 C   0  0  0  0  0  0  0  0  0  0  0  0
    7.2517    1.3979    1.6279 H   0  0  0  0  0  0  0  0  0  0  0  0
    5.2106    2.0352    2.0277 C   0  0  0  0  0  0  0  0  0  0  0  0
    5.4710    2.5564    2.9609 H   0  0  0  0  0  0  0  0  0  0  0  0
    3.8835    2.0296    1.5849 C   0  0  0  0  0  0  0  0  0  0  0  0
    3.1071    2.5422    2.1691 H   0  0  0  0  0  0  0  0  0  0  0  0
    1.5143    3.8300    0.0737 C   0  0  0  0  0  0  0  0  0  0  0  0
    0.1138    4.4072   -0.1466 C   0  0  0  0  0  0  0  0  0  0  0  0
    0.1574    5.3506   -0.7192 H   0  0  0  0  0  0  0  0  0  0  0  0
   -0.3354    4.6244    0.8467 H   0  0  0  0  0  0  0  0  0  0  0  0
   -0.6503    3.2671   -0.8490 C   0  0  2  0  0  0  0  0  0  0  0  0
   -0.4022    3.2997   -1.9431 H   0  0  0  0  0  0  0  0  0  0  0  0
   -2.1562    3.2596   -0.6925 C   0  0  0  0  0  0  0  0  0  0  0  0
   -2.7628    2.6764    0.4374 C   0  0  0  0  0  0  0  0  0  0  0  0
   -2.1285    2.1942    1.1950 H   0  0  0  0  0  0  0  0  0  0  0  0
   -4.1587    2.6756    0.5720 C   0  0  0  0  0  0  0  0  0  0  0  0
   -4.6186    2.1914    1.4466 H   0  0  0  0  0  0  0  0  0  0  0  0
   -4.9628    3.2709   -0.4133 C   0  0  0  0  0  0  0  0  0  0  0  0
   -6.0585    3.2675   -0.3093 H   0  0  0  0  0  0  0  0  0  0  0  0
   -4.3644    3.8600   -1.5387 C   0  0  0  0  0  0  0  0  0  0  0  0
   -4.9890    4.3210   -2.3188 H   0  0  0  0  0  0  0  0  0  0  0  0
   -2.9686    3.8476   -1.6801 C   0  0  0  0  0  0  0  0  0  0  0  0
   -2.5023    4.2911   -2.5746 H   0  0  0  0  0  0  0  0  0  0  0  0
    3.0723   -2.9251    0.0660 C   0  0  0  0  0  0  0  0  0  0  0  0
    2.9866   -3.5032   -0.8761 H   0  0  0  0  0  0  0  0  0  0  0  0
    2.3446   -3.3437    0.7889 H   0  0  0  0  0  0  0  0  0  0  0  0
    4.4856   -2.9476    0.6135 C   0  0  0  0  0  0  0  0  0  0  0  0
    5.2075   -2.5361   -0.1192 H   0  0  0  0  0  0  0  0  0  0  0  0
    4.7800   -3.9905    0.8429 H   0  0  0  0  0  0  0  0  0  0  0  0
    4.5615   -2.3487    1.5424 H   0  0  0  0  0  0  0  0  0  0  0  0
  1  2  1  6  0  0  0
  2 36  1  0  0  0  0
  3 53  1  0  0  0  0
  5  3  1  0  0  0  0
  6  5  1  1  0  0  0
  6 24  1  0  0  0  0
  7  8  1  6  0  0  0
  7  9  1  0  0  0  0
  7  6  1  0  0  0  0
  7  1  1  0  0  0  0
  9 11  1  0  0  0  0
 10  9  1  0  0  0  0
 11 13  1  0  0  0  0
 11 12  1  0  0  0  0
 13 22  1  0  0  0  0
 14 13  2  0  0  0  0
 14 16  1  0  0  0  0
 15 14  1  0  0  0  0
 16 18  2  0  0  0  0
 17 16  1  0  0  0  0
 18 19  1  0  0  0  0
 18 20  1  0  0  0  0
 20 21  1  0  0  0  0
 22 23  1  0  0  0  0
 22 20  2  0  0  0  0
 24  2  1  0  0  0  0
 24 25  1  1  0  0  0
 25 34  1  0  0  0  0
 26 28  1  0  0  0  0
 26 25  2  0  0  0  0
 27 26  1  0  0  0  0
 28 30  2  0  0  0  0
 29 28  1  0  0  0  0
 30 31  1  0  0  0  0
 30 32  1  0  0  0  0
 32 33  1  0  0  0  0
 34 32  2  0  0  0  0
 34 35  1  0  0  0  0
 36  4  2  0  0  0  0
 37 36  1  0  0  0  0
 37 39  1  0  0  0  0
 38 37  1  0  0  0  0
 40 41  1  6  0  0  0
 40 42  1  0  0  0  0
 40  1  1  0  0  0  0
 40 37  1  0  0  0  0
 42 43  1  0  0  0  0
 43 45  2  0  0  0  0
 43 44  1  0  0  0  0
 45 46  1  0  0  0  0
 47 48  1  0  0  0  0
 47 45  1  0  0  0  0
 49 47  2  0  0  0  0
 50 49  1  0  0  0  0
 51 49  1  0  0  0  0
 51 42  2  0  0  0  0
 52 51  1  0  0  0  0
 53 56  1  0  0  0  0
 53 55  1  0  0  0  0
 54 53  1  0  0  0  0
 56 58  1  0  0  0  0
 56 59  1  0  0  0  0
 57 56  1  0  0  0  0
M  END
