3,18
q = -1.0, confidence = 0.0

 31 31  0  0  1  0  0  0  0  0999 V2000
    0.0000    1.6078    0.8258 P   0  0  0  0  0  2  0  0  0  0  0  0
    1.0812    0.5873   -1.9287 P   0  0  0  0  0  0  0  0  0  0  0  0
    1.3622    1.1640   -0.2450 C   0  0  1  0  0  3  0  0  0  0  0  0
    2.8045    1.4087    0.2525 C   0  0  0  0  0  0  0  0  0  0  0  0
    3.0828    2.9220    0.0900 C   0  0  0  0  0  0  0  0  0  0  0  0
    2.3832    3.5248    0.7044 H   0  0  0  0  0  0  0  0  0  0  0  0
    2.9661    3.2359   -0.9670 H   0  0  0  0  0  0  0  0  0  0  0  0
    4.1178    3.1604    0.4098 H   0  0  0  0  0  0  0  0  0  0  0  0
    2.9556    1.0119    1.7348 C   0  0  0  0  0  0  0  0  0  0  0  0
    3.9858    1.2285    2.0832 H   0  0  0  0  0  0  0  0  0  0  0  0
    2.7608   -0.0703    1.8722 H   0  0  0  0  0  0  0  0  0  0  0  0
    2.2539    1.5705    2.3870 H   0  0  0  0  0  0  0  0  0  0  0  0
    3.8342    0.6159   -0.5748 C   0  0  0  0  0  0  0  0  0  0  0  0
    3.8135    0.9016   -1.6459 H   0  0  0  0  0  0  0  0  0  0  0  0
    3.6563   -0.4755   -0.5068 H   0  0  0  0  0  0  0  0  0  0  0  0
    4.8555    0.8190   -0.1940 H   0  0  0  0  0  0  0  0  0  0  0  0
   -1.0812    0.5874   -1.9287 P   0  0  0  0  0  0  0  0  0  0  0  0
   -1.3621    1.1641   -0.2450 C   0  0  2  0  0  3  0  0  0  0  0  0
   -2.8044    1.4088    0.2526 C   0  0  0  0  0  0  0  0  0  0  0  0
   -3.0826    2.9221    0.0903 C   0  0  0  0  0  0  0  0  0  0  0  0
   -2.3830    3.5247    0.7048 H   0  0  0  0  0  0  0  0  0  0  0  0
   -2.9659    3.2361   -0.9667 H   0  0  0  0  0  0  0  0  0  0  0  0
   -4.1177    3.1605    0.4101 H   0  0  0  0  0  0  0  0  0  0  0  0
   -2.9555    1.0118    1.7348 C   0  0  0  0  0  0  0  0  0  0  0  0
   -3.9857    1.2284    2.0833 H   0  0  0  0  0  0  0  0  0  0  0  0
   -2.7607   -0.0705    1.8721 H   0  0  0  0  0  0  0  0  0  0  0  0
   -2.2537    1.5702    2.3871 H   0  0  0  0  0  0  0  0  0  0  0  0
   -3.8341    0.6161   -0.5748 C   0  0  0  0  0  0  0  0  0  0  0  0
   -3.8134    0.9020   -1.6459 H   0  0  0  0  0  0  0  0  0  0  0  0
   -3.6563   -0.4753   -0.5070 H   0  0  0  0  0  0  0  0  0  0  0  0
   -4.8555    0.8193   -0.1940 H   0  0  0  0  0  0  0  0  0  0  0  0
  2  3  1  0  0  0  0
  3  4  1  6  0  0  0
  3  1  1  0  0  0  0
  4  9  1  0  0  0  0
  5  4  1  0  0  0  0
  5  8  1  0  0  0  0
  5  6  1  0  0  0  0
  7  5  1  0  0  0  0
  9 11  1  0  0  0  0
  9 10  1  0  0  0  0
  9 12  1  0  0  0  0
 13 15  1  0  0  0  0
 13 16  1  0  0  0  0
 13  4  1  0  0  0  0
 14 13  1  0  0  0  0
 17  2  2  3  0  0  0
 17 18  1  0  0  0  0
 18 19  1  6  0  0  0
 18  1  1  0  0  0  0
 19 24  1  0  0  0  0
 20 19  1  0  0  0  0
 20 23  1  0  0  0  0
 20 21  1  0  0  0  0
 22 20  1  0  0  0  0
 24 26  1  0  0  0  0
 24 25  1  0  0  0  0
 24 27  1  0  0  0  0
 28 30  1  0  0  0  0
 28 31  1  0  0  0  0
 28 19  1  0  0  0  0
 29 28  1  0  0  0  0
M  END
