8,14
q = -1.0, confidence = 0.002

 15 16  0  0  1  0  0  0  0  0999 V2000
   -2.2113   -0.4208   -1.2969 C   0  0  0  0  0  0  0  0  0  0  0  0
   -3.4959   -0.0809   -0.7751 C   0  0  0  0  0  0  0  0  0  0  0  0
   -4.1348    0.7596   -1.0705 H   0  0  0  0  0  0  0  0  0  0  0  0
   -3.7868   -1.0908    0.1578 C   0  0  0  0  0  0  0  0  0  0  0  0
   -4.7078   -1.1764    0.7567 H   0  0  0  0  0  0  0  0  0  0  0  0
   -2.7945   -2.0230    0.3011 N   0  0  0  0  0  0  0  0  0  0  0  0
   -1.8441   -1.6512   -0.5930 C   0  0  2  0  0  3  0  0  0  0  0  0
   -0.5776   -2.2859   -0.8727 C   0  0  0  0  0  3  0  0  0  0  0  0
   -0.2827   -3.1956   -0.3324 H   0  0  0  0  0  0  0  0  0  0  0  0
    0.1419   -1.8744   -2.0359 C   0  0  0  0  0  0  0  0  0  0  0  0
    1.0178   -2.4506   -2.3701 H   0  0  0  0  0  0  0  0  0  0  0  0
   -0.2362   -0.7022   -2.7502 C   0  0  0  0  0  0  0  0  0  0  0  0
    0.3820   -0.3674   -3.5965 H   0  0  0  0  0  0  0  0  0  0  0  0
   -1.3276    0.1096   -2.3068 C   0  0  0  0  0  3  0  0  0  0  0  0
   -1.5879    1.0203   -2.8675 H   0  0  0  0  0  0  0  0  0  0  0  0
  1  2  2  0  0  0  0
  2  4  1  0  0  0  0
  3  2  1  0  0  0  0
  4  6  2  0  0  0  0
  4  5  1  0  0  0  0
  7  1  1  1  0  0  0
  7  6  1  0  0  0  0
  8  7  1  0  0  0  0
  8  9  1  0  0  0  0
 10  8  1  0  0  0  0
 11 10  1  0  0  0  0
 12 14  1  0  0  0  0
 12 10  2  0  0  0  0
 13 12  1  0  0  0  0
 14  1  1  0  0  0  0
 15 14  1  0  0  0  0
M  END
