2,4
q = 0.0, confidence = 0.994

 56 57  0  0  1  0  0  0  0  0999 V2000
    0.3412    0.0333   -0.7547 C   0  0  2  0  0  3  0  0  0  0  0  0
   -0.3281   -1.2303   -0.6946 C   0  0  1  0  0  3  0  0  0  0  0  0
   -1.7645   -1.3023   -0.8433 C   0  0  2  0  0  3  0  0  0  0  0  0
   -2.5061   -0.0921   -0.9152 C   0  0  1  0  0  3  0  0  0  0  0  0
   -1.8583    1.2006   -0.9853 C   0  0  0  0  0  0  0  0  0  0  0  0
   -2.6016    2.4237   -1.0317 C   0  0  0  0  0  0  0  0  0  0  0  0
   -3.6975    2.3645   -0.9813 H   0  0  0  0  0  0  0  0  0  0  0  0
   -1.9520    3.6388   -1.1315 C   0  0  0  0  0  0  0  0  0  0  0  0
   -2.5330    4.5718   -1.1721 H   0  0  0  0  0  0  0  0  0  0  0  0
   -0.5276    3.6876   -1.1734 C   0  0  0  0  0  0  0  0  0  0  0  0
   -0.0206    4.6584   -1.2804 H   0  0  0  0  0  0  0  0  0  0  0  0
    0.2226    2.5335   -1.0695 C   0  0  0  0  0  0  0  0  0  0  0  0
    1.3177    2.5653   -1.1020 H   0  0  0  0  0  0  0  0  0  0  0  0
   -0.4138    1.2546   -0.9432 C   0  0  0  0  0  0  0  0  0  0  0  0
    1.6930    0.0820   -0.7634 O   0  0  0  0  0  0  0  0  0  0  0  0
    2.9594    0.3300    0.3907 Si  0  0  0  0  0  0  0  0  0  0  0  0
    2.6583   -0.6341    1.9773 C   0  0  0  0  0  0  0  0  0  0  0  0
    2.3326   -1.6790    1.8145 H   0  0  0  0  0  0  0  0  0  0  0  0
    1.8979   -0.1369    2.6087 H   0  0  0  0  0  0  0  0  0  0  0  0
    3.6065   -0.6593    2.5543 H   0  0  0  0  0  0  0  0  0  0  0  0
    3.1358    2.1585    0.8068 C   0  0  0  0  0  0  0  0  0  0  0  0
    3.3845    2.7783   -0.0777 H   0  0  0  0  0  0  0  0  0  0  0  0
    3.9598    2.2752    1.5413 H   0  0  0  0  0  0  0  0  0  0  0  0
    2.2157    2.5538    1.2797 H   0  0  0  0  0  0  0  0  0  0  0  0
    4.4892   -0.3056   -0.5711 C   0  0  0  0  0  0  0  0  0  0  0  0
    4.3917   -1.8305   -0.7623 C   0  0  0  0  0  0  0  0  0  0  0  0
    3.4992   -2.1126   -1.3548 H   0  0  0  0  0  0  0  0  0  0  0  0
    4.3428   -2.3695    0.2066 H   0  0  0  0  0  0  0  0  0  0  0  0
    5.2852   -2.2099   -1.3063 H   0  0  0  0  0  0  0  0  0  0  0  0
    4.5534    0.3850   -1.9465 C   0  0  0  0  0  0  0  0  0  0  0  0
    3.6469    0.1743   -2.5486 H   0  0  0  0  0  0  0  0  0  0  0  0
    5.4366    0.0257   -2.5199 H   0  0  0  0  0  0  0  0  0  0  0  0
    4.6488    1.4870   -1.8539 H   0  0  0  0  0  0  0  0  0  0  0  0
    5.7557    0.0310    0.2408 C   0  0  0  0  0  0  0  0  0  0  0  0
    5.8877    1.1240    0.3768 H   0  0  0  0  0  0  0  0  0  0  0  0
    6.6602   -0.3467   -0.2853 H   0  0  0  0  0  0  0  0  0  0  0  0
    5.7459   -0.4373    1.2474 H   0  0  0  0  0  0  0  0  0  0  0  0
    0.5025   -2.4896   -0.6122 C   0  0  0  0  0  0  0  0  0  0  0  0
   -0.0435   -3.2669   -0.0436 H   0  0  0  0  0  0  0  0  0  0  0  0
    1.4190   -2.2767   -0.0335 H   0  0  0  0  0  0  0  0  0  0  0  0
    0.8888   -3.0029   -2.0063 C   0  0  0  0  0  0  0  0  0  0  0  0
    1.5278   -3.9056   -1.9343 H   0  0  0  0  0  0  0  0  0  0  0  0
    1.4505   -2.2289   -2.5662 H   0  0  0  0  0  0  0  0  0  0  0  0
   -0.0046   -3.2653   -2.6087 H   0  0  0  0  0  0  0  0  0  0  0  0
   -2.5198   -2.6194   -0.8791 C   0  0  0  0  0  0  0  0  0  0  0  0
   -1.8288   -3.4258   -1.1911 H   0  0  0  0  0  0  0  0  0  0  0  0
   -3.2793   -2.5488   -1.6847 H   0  0  0  0  0  0  0  0  0  0  0  0
   -3.2231   -3.0131    0.4262 C   0  0  0  0  0  0  0  0  0  0  0  0
   -3.7963   -3.9522    0.2868 H   0  0  0  0  0  0  0  0  0  0  0  0
   -3.9265   -2.2208    0.7453 H   0  0  0  0  0  0  0  0  0  0  0  0
   -2.4967   -3.1719    1.2457 H   0  0  0  0  0  0  0  0  0  0  0  0
   -3.8797   -0.1467   -0.9838 O   0  0  0  0  0  0  0  0  0  0  0  0
   -4.3965   -0.0640   -2.3117 C   0  0  0  0  0  0  0  0  0  0  0  0
   -5.4978   -0.1218   -2.2277 H   0  0  0  0  0  0  0  0  0  0  0  0
   -4.0352   -0.9042   -2.9457 H   0  0  0  0  0  0  0  0  0  0  0  0
   -4.1167    0.8929   -2.8052 H   0  0  0  0  0  0  0  0  0  0  0  0
  1 15  1  6  0  0  0
  1  2  1  0  0  0  0
  2 38  1  6  0  0  0
  3 45  1  1  0  0  0
  3  2  1  0  0  0  0
  4 52  1  6  0  0  0
  4  3  1  0  0  0  0
  5 14  1  0  0  0  0
  5  4  1  0  0  0  0
  6  5  2  0  0  0  0
  6  7  1  0  0  0  0
  8  6  1  0  0  0  0
  9  8  1  0  0  0  0
 10  8  2  0  0  0  0
 10 12  1  0  0  0  0
 11 10  1  0  0  0  0
 12 14  2  0  0  0  0
 13 12  1  0  0  0  0
 14  1  1  0  0  0  0
 15 16  1  0  0  0  0
 16 21  1  0  0  0  0
 16 17  1  0  0  0  0
 17 20  1  0  0  0  0
 17 19  1  0  0  0  0
 18 17  1  0  0  0  0
 21 24  1  0  0  0  0
 21 23  1  0  0  0  0
 22 21  1  0  0  0  0
 25 34  1  0  0  0  0
 25 16  1  0  0  0  0
 26 25  1  0  0  0  0
 26 28  1  0  0  0  0
 27 26  1  0  0  0  0
 29 26  1  0  0  0  0
 30 33  1  0  0  0  0
 30 25  1  0  0  0  0
 31 30  1  0  0  0  0
 32 30  1  0  0  0  0
 34 35  1  0  0  0  0
 34 37  1  0  0  0  0
 36 34  1  0  0  0  0
 38 39  1  0  0  0  0
 38 40  1  0  0  0  0
 41 42  1  0  0  0  0
 41 38  1  0  0  0  0
 43 41  1  0  0  0  0
 44 41  1  0  0  0  0
 45 48  1  0  0  0  0
 46 45  1  0  0  0  0
 47 45  1  0  0  0  0
 48 50  1  0  0  0  0
 48 51  1  0  0  0  0
 49 48  1  0  0  0  0
 53 54  1  0  0  0  0
 53 52  1  0  0  0  0
 55 53  1  0  0  0  0
 56 53  1  0  0  0  0
M  END
