1,3
q = 0.0, confidence = 0.994

 54 56  0  0  0  0  0  0  0  0999 V2000
   -0.2926   -1.5690    0.6280 C   0  0  0  0  0  2  0  0  0  0  0  0
    0.2069   -2.1451    1.7514 N   0  0  0  0  0  0  0  0  0  0  0  0
   -0.8970    1.2344    0.5866 C   0  0  0  0  0  2  0  0  0  0  0  0
   -0.4969   -3.2397    2.1689 N   0  0  0  0  0  0  0  0  0  0  0  0
   -1.3931   -2.3468    0.3449 N   0  0  0  0  0  0  0  0  0  0  0  0
   -1.4716   -3.3401    1.2967 C   0  0  0  0  0  0  0  0  0  0  0  0
   -2.2517   -4.1092    1.3187 H   0  0  0  0  0  0  0  0  0  0  0  0
   -0.6934    1.9950    1.6931 N   0  0  0  0  0  0  0  0  0  0  0  0
   -2.7313    2.3170    1.2470 C   0  0  0  0  0  0  0  0  0  0  0  0
   -3.7682    2.6706    1.2659 H   0  0  0  0  0  0  0  0  0  0  0  0
   -2.9405    0.8735   -0.8428 C   0  0  0  0  0  0  0  0  0  0  0  0
   -2.1467    0.5073   -1.5217 H   0  0  0  0  0  0  0  0  0  0  0  0
   -3.4620    1.7027   -1.3600 H   0  0  0  0  0  0  0  0  0  0  0  0
   -1.8085    2.6648    2.1116 N   0  0  0  0  0  0  0  0  0  0  0  0
   -2.2282    1.4474    0.3047 N   0  0  0  0  0  0  0  0  0  0  0  0
   -3.9414   -0.2006   -0.4561 C   0  0  0  0  0  0  0  0  0  0  0  0
   -5.2424    0.2128   -0.1008 C   0  0  0  0  0  0  0  0  0  0  0  0
   -5.4915    1.2851   -0.1471 H   0  0  0  0  0  0  0  0  0  0  0  0
   -6.2285   -0.7024    0.2875 C   0  0  0  0  0  0  0  0  0  0  0  0
   -7.2339   -0.3480    0.5589 H   0  0  0  0  0  0  0  0  0  0  0  0
   -5.9280   -2.0715    0.3043 C   0  0  0  0  0  0  0  0  0  0  0  0
   -6.6941   -2.8079    0.5893 H   0  0  0  0  0  0  0  0  0  0  0  0
   -4.6475   -2.4988   -0.0681 C   0  0  0  0  0  0  0  0  0  0  0  0
   -4.4246   -3.5777   -0.0877 H   0  0  0  0  0  0  0  0  0  0  0  0
   -3.6374   -1.5873   -0.4400 C   0  0  0  0  0  0  0  0  0  0  0  0
   -2.2775   -2.1529   -0.8092 C   0  0  0  0  0  0  0  0  0  0  0  0
   -2.4027   -3.1373   -1.3012 H   0  0  0  0  0  0  0  0  0  0  0  0
   -1.7094   -1.5061   -1.5050 H   0  0  0  0  0  0  0  0  0  0  0  0
    1.4502   -1.7798    2.4222 C   0  0  0  0  0  0  0  0  0  0  0  0
    1.2369   -1.7044    3.5086 H   0  0  0  0  0  0  0  0  0  0  0  0
    1.7091   -0.7733    2.0370 H   0  0  0  0  0  0  0  0  0  0  0  0
    2.5748   -2.7732    2.1353 C   0  0  0  0  0  0  0  0  0  0  0  0
    2.2656   -3.7791    2.4928 H   0  0  0  0  0  0  0  0  0  0  0  0
    2.6987   -2.8401    1.0323 H   0  0  0  0  0  0  0  0  0  0  0  0
    3.8950   -2.3565    2.7873 C   0  0  0  0  0  0  0  0  0  0  0  0
    4.1757   -1.3441    2.4210 H   0  0  0  0  0  0  0  0  0  0  0  0
    3.7544   -2.2551    3.8873 H   0  0  0  0  0  0  0  0  0  0  0  0
    5.0319   -3.3372    2.4985 C   0  0  0  0  0  0  0  0  0  0  0  0
    5.9798   -3.0155    2.9745 H   0  0  0  0  0  0  0  0  0  0  0  0
    5.2144   -3.4236    1.4077 H   0  0  0  0  0  0  0  0  0  0  0  0
    4.7933   -4.3532    2.8766 H   0  0  0  0  0  0  0  0  0  0  0  0
    0.5736    2.1501    2.4112 C   0  0  0  0  0  0  0  0  0  0  0  0
    1.3393    1.7175    1.7361 H   0  0  0  0  0  0  0  0  0  0  0  0
    0.5262    1.5279    3.3303 H   0  0  0  0  0  0  0  0  0  0  0  0
    0.8850    3.6050    2.7556 C   0  0  0  0  0  0  0  0  0  0  0  0
    1.8152    3.5993    3.3645 H   0  0  0  0  0  0  0  0  0  0  0  0
    0.0830    3.9980    3.4165 H   0  0  0  0  0  0  0  0  0  0  0  0
    1.0613    4.5170    1.5389 C   0  0  0  0  0  0  0  0  0  0  0  0
    0.1327    4.4990    0.9293 H   0  0  0  0  0  0  0  0  0  0  0  0
    1.8460    4.0981    0.8732 H   0  0  0  0  0  0  0  0  0  0  0  0
    1.3994    5.9568    1.9230 C   0  0  0  0  0  0  0  0  0  0  0  0
    1.5187    6.5967    1.0262 H   0  0  0  0  0  0  0  0  0  0  0  0
    2.3466    6.0120    2.5000 H   0  0  0  0  0  0  0  0  0  0  0  0
    0.6034    6.4071    2.5529 H   0  0  0  0  0  0  0  0  0  0  0  0
  1  2  1  0  0  0  0
  2  4  1  0  0  0  0
  2 29  1  0  0  0  0
  3  8  1  0  0  0  0
  5  1  1  0  0  0  0
  5  6  1  0  0  0  0
  6  7  1  0  0  0  0
  6  4  2  0  0  0  0
  8 14  1  0  0  0  0
  8 42  1  0  0  0  0
  9 10  1  0  0  0  0
  9 14  2  0  0  0  0
 11 16  1  0  0  0  0
 11 15  1  0  0  0  0
 12 11  1  0  0  0  0
 13 11  1  0  0  0  0
 15  3  1  0  0  0  0
 15  9  1  0  0  0  0
 16 25  2  0  0  0  0
 16 17  1  0  0  0  0
 17 19  2  0  0  0  0
 18 17  1  0  0  0  0
 19 21  1  0  0  0  0
 19 20  1  0  0  0  0
 21 22  1  0  0  0  0
 23 21  2  0  0  0  0
 24 23  1  0  0  0  0
 25 23  1  0  0  0  0
 26 25  1  0  0  0  0
 26  5  1  0  0  0  0
 27 26  1  0  0  0  0
 28 26  1  0  0  0  0
 29 30  1  0  0  0  0
 31 29  1  0  0  0  0
 32 29  1  0  0  0  0
 32 33  1  0  0  0  0
 32 35  1  0  0  0  0
 34 32  1  0  0  0  0
 35 37  1  0  0  0  0
 36 35  1  0  0  0  0
 38 35  1  0  0  0  0
 38 41  1  0  0  0  0
 38 39  1  0  0  0  0
 40 38  1  0  0  0  0
 42 45  1  0  0  0  0
 42 44  1  0  0  0  0
 43 42  1  0  0  0  0
 45 46  1  0  0  0  0
 45 47  1  0  0  0  0
 48 51  1  0  0  0  0
 48 45  1  0  0  0  0
 49 48  1  0  0  0  0
 50 48  1  0  0  0  0
 51 53  1  0  0  0  0
 51 54  1  0  0  0  0
 52 51  1  0  0  0  0
M  END
