1,4
q = -1.0, confidence = 0.0

 34 35  0  0  1  0  0  0  0  0999 V2000
   -1.1880    0.0455   -1.6864 C   0  0  1  0  0  3  0  0  0  0  0  0
   -1.2145   -1.2710   -2.2848 C   0  0  0  0  0  0  0  0  0  0  0  0
    0.1298   -1.6364   -2.5771 C   0  0  0  0  0  0  0  0  0  0  0  0
    0.9935   -0.5450   -2.1919 C   0  0  2  0  0  3  0  0  0  0  0  0
    0.1855    0.5108   -1.6766 C   0  0  1  0  0  3  0  0  0  0  0  0
    0.6333    1.9291   -1.4949 C   0  0  0  0  0  0  0  0  0  0  0  0
    1.4723    2.0301   -0.7808 H   0  0  0  0  0  0  0  0  0  0  0  0
   -0.2002    2.5728   -1.1635 H   0  0  0  0  0  0  0  0  0  0  0  0
    0.9900    2.3199   -2.4719 H   0  0  0  0  0  0  0  0  0  0  0  0
   -2.4542   -2.0098   -2.6708 C   0  0  0  0  0  0  0  0  0  0  0  0
   -3.3111   -1.7052   -2.0413 H   0  0  0  0  0  0  0  0  0  0  0  0
   -2.3323   -3.1045   -2.5725 H   0  0  0  0  0  0  0  0  0  0  0  0
   -2.7090   -1.7817   -3.7285 H   0  0  0  0  0  0  0  0  0  0  0  0
    0.5598   -2.8818   -3.2881 C   0  0  0  0  0  0  0  0  0  0  0  0
    0.6670   -2.6876   -4.3772 H   0  0  0  0  0  0  0  0  0  0  0  0
   -0.1796   -3.6953   -3.1617 H   0  0  0  0  0  0  0  0  0  0  0  0
    1.5315   -3.2488   -2.9069 H   0  0  0  0  0  0  0  0  0  0  0  0
    2.4698   -0.4596   -2.4368 C   0  0  0  0  0  0  0  0  0  0  0  0
    2.9484   -1.4543   -2.3631 H   0  0  0  0  0  0  0  0  0  0  0  0
    2.9661    0.2098   -1.7075 H   0  0  0  0  0  0  0  0  0  0  0  0
    2.6724   -0.0568   -3.4532 H   0  0  0  0  0  0  0  0  0  0  0  0
   -2.3331    0.7735   -1.2864 C   0  0  0  0  0  0  0  0  0  0  0  0
   -3.3405    1.3871   -0.9234 C   0  0  0  0  0  0  0  0  0  0  0  0
   -4.4860    2.0913   -0.4580 C   0  0  0  0  0  0  0  0  0  0  0  0
   -4.3859    3.4476   -0.0488 C   0  0  0  0  0  0  0  0  0  0  0  0
   -3.4115    3.9539   -0.1120 H   0  0  0  0  0  0  0  0  0  0  0  0
   -5.5116    4.1293    0.4262 C   0  0  0  0  0  0  0  0  0  0  0  0
   -5.4180    5.1801    0.7399 H   0  0  0  0  0  0  0  0  0  0  0  0
   -6.7558    3.4808    0.5026 C   0  0  0  0  0  0  0  0  0  0  0  0
   -7.6386    4.0210    0.8763 H   0  0  0  0  0  0  0  0  0  0  0  0
   -6.8672    2.1392    0.0998 C   0  0  0  0  0  0  0  0  0  0  0  0
   -7.8390    1.6257    0.1583 H   0  0  0  0  0  0  0  0  0  0  0  0
   -5.7485    1.4464   -0.3754 C   0  0  0  0  0  0  0  0  0  0  0  0
   -5.8312    0.3953   -0.6875 H   0  0  0  0  0  0  0  0  0  0  0  0
  1  5  1  0  0  0  0
  1 22  1  6  0  0  0
  2  1  1  0  0  0  0
  3  2  2  0  0  0  0
  3  4  1  0  0  0  0
  4 18  1  6  0  0  0
  4  5  1  0  0  0  0
  5  6  1  6  0  0  0
  6  8  1  0  0  0  0
  6  7  1  0  0  0  0
  9  6  1  0  0  0  0
 10 12  1  0  0  0  0
 10  2  1  0  0  0  0
 10 11  1  0  0  0  0
 13 10  1  0  0  0  0
 14 16  1  0  0  0  0
 14 17  1  0  0  0  0
 14  3  1  0  0  0  0
 15 14  1  0  0  0  0
 18 19  1  0  0  0  0
 18 20  1  0  0  0  0
 21 18  1  0  0  0  0
 22 23  3  0  0  0  0
 23 24  1  0  0  0  0
 24 33  2  0  0  0  0
 24 25  1  0  0  0  0
 25 27  2  0  0  0  0
 26 25  1  0  0  0  0
 27 29  1  0  0  0  0
 27 28  1  0  0  0  0
 29 30  1  0  0  0  0
 31 32  1  0  0  0  0
 31 29  2  0  0  0  0
 33 31  1  0  0  0  0
 34 33  1  0  0  0  0
M  END
