5,8
q = 0.0, confidence = 0.958

 70 71  0  0  1  0  0  0  0  0999 V2000
    2.9835    0.7510   -0.1961 Si  0  0  0  0  0  0  0  0  0  0  0  0
    1.4431    0.1722    0.3063 O   0  0  0  0  0  0  0  0  0  0  0  0
   -3.1135   -2.0930   -1.9132 O   0  0  0  0  0  0  0  0  0  0  0  0
    0.3352   -0.3523   -0.2611 C   0  0  0  0  0  0  0  0  0  0  0  0
    0.2242   -1.7870   -0.4163 C   0  0  2  0  0  3  0  0  0  0  0  0
   -0.9495   -2.3514   -0.9973 C   0  0  0  0  0  0  0  0  0  0  0  0
   -2.0310   -1.4784   -1.3715 C   0  0  0  0  0  0  0  0  0  0  0  0
   -1.9443   -0.0826   -1.1448 C   0  0  0  0  0  3  0  0  0  0  0  0
   -2.7987    0.5613   -1.3794 H   0  0  0  0  0  0  0  0  0  0  0  0
   -0.7602    0.5031   -0.5843 C   0  0  0  0  0  0  0  0  0  0  0  0
   -1.1095   -3.8408   -1.2259 C   0  0  0  0  0  0  0  0  0  0  0  0
   -1.4751   -3.9940   -2.2625 H   0  0  0  0  0  0  0  0  0  0  0  0
   -1.9302   -4.2086   -0.5752 H   0  0  0  0  0  0  0  0  0  0  0  0
    0.1736   -4.6397   -0.9738 C   0  0  0  0  0  0  0  0  0  0  0  0
    0.8494   -4.5552   -1.8540 H   0  0  0  0  0  0  0  0  0  0  0  0
   -0.0752   -5.7154   -0.8737 H   0  0  0  0  0  0  0  0  0  0  0  0
    0.9097   -4.1243    0.2637 C   0  0  0  0  0  0  0  0  0  0  0  0
    1.7922   -4.7556    0.4920 H   0  0  0  0  0  0  0  0  0  0  0  0
    0.2401   -4.1704    1.1497 H   0  0  0  0  0  0  0  0  0  0  0  0
    1.3552   -2.6784    0.0429 C   0  0  0  0  0  0  0  0  0  0  0  0
    1.7988   -2.2505    0.9618 H   0  0  0  0  0  0  0  0  0  0  0  0
    2.1571   -2.6539   -0.7288 H   0  0  0  0  0  0  0  0  0  0  0  0
   -0.6379    1.9897   -0.3314 C   0  0  0  0  0  0  0  0  0  0  0  0
    0.1846    2.3822   -0.9691 H   0  0  0  0  0  0  0  0  0  0  0  0
   -0.2905    2.1321    0.7125 H   0  0  0  0  0  0  0  0  0  0  0  0
   -1.8944    2.8238   -0.5794 C   0  0  0  0  0  0  0  0  0  0  0  0
   -2.7527    2.4020   -0.0161 H   0  0  0  0  0  0  0  0  0  0  0  0
   -2.1691    2.7826   -1.6571 H   0  0  0  0  0  0  0  0  0  0  0  0
   -1.7038    4.2834   -0.1603 C   0  0  0  0  0  0  0  0  0  0  0  0
   -0.7825    4.6990   -0.6223 H   0  0  0  0  0  0  0  0  0  0  0  0
   -1.5538    4.3339    0.9389 H   0  0  0  0  0  0  0  0  0  0  0  0
   -2.8779    5.1988   -0.5596 C   0  0  0  0  0  0  0  0  0  0  0  0
   -2.9617    5.2515   -1.6672 H   0  0  0  0  0  0  0  0  0  0  0  0
   -2.6965    6.2372   -0.2106 H   0  0  0  0  0  0  0  0  0  0  0  0
   -4.1725    4.7576   -0.0368 C   0  0  0  0  0  0  0  0  0  0  0  0
    3.1507   -0.7441   -2.6683 C   0  0  0  0  0  0  0  0  0  0  0  0
    3.3818   -0.7403   -3.7551 H   0  0  0  0  0  0  0  0  0  0  0  0
    3.8900   -1.4086   -2.1771 H   0  0  0  0  0  0  0  0  0  0  0  0
    2.1496   -1.2091   -2.5532 H   0  0  0  0  0  0  0  0  0  0  0  0
    3.1691    0.6835   -2.0980 C   0  0  0  0  0  0  0  0  0  0  0  0
    4.1924    1.0991   -2.2596 H   0  0  0  0  0  0  0  0  0  0  0  0
    2.1761    1.5867   -2.8477 C   0  0  0  0  0  0  0  0  0  0  0  0
    2.4008    1.6059   -3.9357 H   0  0  0  0  0  0  0  0  0  0  0  0
    1.1359    1.2145   -2.7406 H   0  0  0  0  0  0  0  0  0  0  0  0
    2.1998    2.6359   -2.4893 H   0  0  0  0  0  0  0  0  0  0  0  0
    4.3093    3.3043    0.0631 C   0  0  0  0  0  0  0  0  0  0  0  0
    4.2281    4.3843    0.3115 H   0  0  0  0  0  0  0  0  0  0  0  0
    5.1670    2.9055    0.6427 H   0  0  0  0  0  0  0  0  0  0  0  0
    4.5747    3.2332   -1.0121 H   0  0  0  0  0  0  0  0  0  0  0  0
    3.0058    2.5629    0.4014 C   0  0  0  0  0  0  0  0  0  0  0  0
    2.1905    3.0278   -0.1998 H   0  0  0  0  0  0  0  0  0  0  0  0
    2.6227    2.7182    1.8823 C   0  0  0  0  0  0  0  0  0  0  0  0
    2.4338    3.7839    2.1341 H   0  0  0  0  0  0  0  0  0  0  0  0
    1.7129    2.1398    2.1397 H   0  0  0  0  0  0  0  0  0  0  0  0
    3.4354    2.3670    2.5501 H   0  0  0  0  0  0  0  0  0  0  0  0
    5.6960   -0.1077    0.2900 C   0  0  0  0  0  0  0  0  0  0  0  0
    6.3752   -0.8882    0.6951 H   0  0  0  0  0  0  0  0  0  0  0  0
    5.8733   -0.0537   -0.8041 H   0  0  0  0  0  0  0  0  0  0  0  0
    6.0216    0.8589    0.7265 H   0  0  0  0  0  0  0  0  0  0  0  0
    4.2317   -0.4229    0.6377 C   0  0  0  0  0  0  0  0  0  0  0  0
    3.9846   -1.4075    0.1785 H   0  0  0  0  0  0  0  0  0  0  0  0
    4.0157   -0.5581    2.1546 C   0  0  0  0  0  0  0  0  0  0  0  0
    4.6161   -1.3977    2.5653 H   0  0  0  0  0  0  0  0  0  0  0  0
    4.3345    0.3591    2.6908 H   0  0  0  0  0  0  0  0  0  0  0  0
    2.9542   -0.7417    2.4169 H   0  0  0  0  0  0  0  0  0  0  0  0
   -4.3476   -1.3896   -1.9122 C   0  0  0  0  0  0  0  0  0  0  0  0
   -5.1182   -2.1112   -2.2389 H   0  0  0  0  0  0  0  0  0  0  0  0
   -4.5889   -1.0240   -0.8901 H   0  0  0  0  0  0  0  0  0  0  0  0
   -4.3377   -0.5305   -2.6189 H   0  0  0  0  0  0  0  0  0  0  0  0
   -5.2018    4.3802    0.3754 N   0  0  0  0  0  0  0  0  0  0  0  0
  1  2  1  0  0  0  0
  1 50  1  0  0  0  0
  1 60  1  0  0  0  0
  3 66  1  0  0  0  0
  3  7  1  0  0  0  0
  4  2  1  0  0  0  0
  5  6  1  1  0  0  0
  5  4  1  0  0  0  0
  5 20  1  0  0  0  0
  7  8  1  0  0  0  0
  7  6  2  0  0  0  0
  8 10  1  0  0  0  0
  9  8  1  0  0  0  0
 10 23  1  0  0  0  0
 10  4  2  0  0  0  0
 11  6  1  0  0  0  0
 11 14  1  0  0  0  0
 11 13  1  0  0  0  0
 12 11  1  0  0  0  0
 14 16  1  0  0  0  0
 14 17  1  0  0  0  0
 15 14  1  0  0  0  0
 17 18  1  0  0  0  0
 17 19  1  0  0  0  0
 20 17  1  0  0  0  0
 20 21  1  0  0  0  0
 22 20  1  0  0  0  0
 23 25  1  0  0  0  0
 24 23  1  0  0  0  0
 26 23  1  0  0  0  0
 26 29  1  0  0  0  0
 26 27  1  0  0  0  0
 28 26  1  0  0  0  0
 29 31  1  0  0  0  0
 30 29  1  0  0  0  0
 32 34  1  0  0  0  0
 32 29  1  0  0  0  0
 32 35  1  0  0  0  0
 33 32  1  0  0  0  0
 35 70  3  0  0  0  0
 36 39  1  0  0  0  0
 36 38  1  0  0  0  0
 36 40  1  0  0  0  0
 37 36  1  0  0  0  0
 40  1  1  0  0  0  0
 41 40  1  0  0  0  0
 42 44  1  0  0  0  0
 42 45  1  0  0  0  0
 42 40  1  0  0  0  0
 43 42  1  0  0  0  0
 46 47  1  0  0  0  0
 46 50  1  0  0  0  0
 46 48  1  0  0  0  0
 49 46  1  0  0  0  0
 50 52  1  0  0  0  0
 51 50  1  0  0  0  0
 52 53  1  0  0  0  0
 52 54  1  0  0  0  0
 52 55  1  0  0  0  0
 56 60  1  0  0  0  0
 56 57  1  0  0  0  0
 56 59  1  0  0  0  0
 58 56  1  0  0  0  0
 60 62  1  0  0  0  0
 61 60  1  0  0  0  0
 62 65  1  0  0  0  0
 62 63  1  0  0  0  0
 62 64  1  0  0  0  0
 66 68  1  0  0  0  0
 67 66  1  0  0  0  0
 69 66  1  0  0  0  0
M  END
