5,19
q = 0.0, confidence = 0.994

 43 44  0  0  0  0  0  0  0  0999 V2000
   -2.1268   -2.1338    0.7895 N   0  0  0  0  0  0  0  0  0  0  0  0
   -1.7634   -2.4530   -1.3256 N   0  0  0  0  0  0  0  0  0  0  0  0
    1.9288   -2.4270   -1.5085 N   0  0  0  0  0  0  0  0  0  0  0  0
    2.4640   -2.1867    0.5726 N   0  0  0  0  0  0  0  0  0  0  0  0
   -1.3436   -1.7075   -0.2519 C   0  0  0  0  0  2  0  0  0  0  0  0
   -3.0044   -3.1304    0.3789 C   0  0  0  0  0  0  0  0  0  0  0  0
   -3.7221   -3.6010    1.0562 H   0  0  0  0  0  0  0  0  0  0  0  0
   -2.7769   -3.3320   -0.9562 C   0  0  0  0  0  0  0  0  0  0  0  0
   -3.2594   -4.0047   -1.6713 H   0  0  0  0  0  0  0  0  0  0  0  0
   -1.3005   -2.2509   -2.6957 C   0  0  0  0  0  0  0  0  0  0  0  0
   -1.2033   -1.1562   -2.8480 H   0  0  0  0  0  0  0  0  0  0  0  0
   -2.1183   -2.6062   -3.3526 H   0  0  0  0  0  0  0  0  0  0  0  0
    0.0060   -2.9574   -3.0960 C   0  0  0  0  0  0  0  0  0  0  0  0
    0.0436   -3.9780   -2.6596 H   0  0  0  0  0  0  0  0  0  0  0  0
   -0.0456   -3.0971   -4.1962 H   0  0  0  0  0  0  0  0  0  0  0  0
    1.3205   -2.2075   -2.8172 C   0  0  0  0  0  0  0  0  0  0  0  0
    2.0771   -2.5149   -3.5651 H   0  0  0  0  0  0  0  0  0  0  0  0
    1.1688   -1.1147   -2.9304 H   0  0  0  0  0  0  0  0  0  0  0  0
    1.5838   -1.7428   -0.3727 C   0  0  0  0  0  2  0  0  0  0  0  0
    3.0058   -3.2754   -1.2763 C   0  0  0  0  0  0  0  0  0  0  0  0
    3.4456   -3.8974   -2.0615 H   0  0  0  0  0  0  0  0  0  0  0  0
    3.3454   -3.1196    0.0411 C   0  0  0  0  0  0  0  0  0  0  0  0
    4.1433   -3.5820    0.6285 H   0  0  0  0  0  0  0  0  0  0  0  0
   -2.0397   -1.5896    2.1595 C   0  0  0  0  0  0  0  0  0  0  0  0
   -1.3150   -0.7537    2.0551 H   0  0  0  0  0  0  0  0  0  0  0  0
   -1.4696   -2.6423    3.1114 C   0  0  0  0  0  0  0  0  0  0  0  0
   -2.1632   -3.5003    3.2320 H   0  0  0  0  0  0  0  0  0  0  0  0
   -1.3036   -2.2001    4.1133 H   0  0  0  0  0  0  0  0  0  0  0  0
   -0.5012   -3.0275    2.7389 H   0  0  0  0  0  0  0  0  0  0  0  0
   -3.3859   -1.0335    2.6250 C   0  0  0  0  0  0  0  0  0  0  0  0
   -3.7699   -0.2565    1.9379 H   0  0  0  0  0  0  0  0  0  0  0  0
   -3.2653   -0.5709    3.6241 H   0  0  0  0  0  0  0  0  0  0  0  0
   -4.1500   -1.8329    2.7214 H   0  0  0  0  0  0  0  0  0  0  0  0
    2.5286   -1.6646    1.9529 C   0  0  0  0  0  0  0  0  0  0  0  0
    1.6276   -1.0192    2.0258 H   0  0  0  0  0  0  0  0  0  0  0  0
    2.4302   -2.8078    2.9651 C   0  0  0  0  0  0  0  0  0  0  0  0
    1.5548   -3.4568    2.7665 H   0  0  0  0  0  0  0  0  0  0  0  0
    2.3315   -2.3952    3.9882 H   0  0  0  0  0  0  0  0  0  0  0  0
    3.3399   -3.4431    2.9529 H   0  0  0  0  0  0  0  0  0  0  0  0
    3.7774   -0.8026    2.1443 C   0  0  0  0  0  0  0  0  0  0  0  0
    4.7007   -1.4141    2.0653 H   0  0  0  0  0  0  0  0  0  0  0  0
    3.7636   -0.3426    3.1522 H   0  0  0  0  0  0  0  0  0  0  0  0
    3.8072    0.0041    1.3853 H   0  0  0  0  0  0  0  0  0  0  0  0
  1 24  1  0  0  0  0
  2  8  1  0  0  0  0
  2  5  1  0  0  0  0
  3 20  1  0  0  0  0
  3 19  1  0  0  0  0
  4 34  1  0  0  0  0
  5  1  1  0  0  0  0
  6  1  1  0  0  0  0
  6  7  1  0  0  0  0
  8  6  2  0  0  0  0
  9  8  1  0  0  0  0
 10  2  1  0  0  0  0
 11 10  1  0  0  0  0
 12 10  1  0  0  0  0
 13 16  1  0  0  0  0
 13 10  1  0  0  0  0
 13 14  1  0  0  0  0
 15 13  1  0  0  0  0
 16  3  1  0  0  0  0
 17 16  1  0  0  0  0
 18 16  1  0  0  0  0
 19  4  1  0  0  0  0
 20 22  2  0  0  0  0
 21 20  1  0  0  0  0
 22  4  1  0  0  0  0
 22 23  1  0  0  0  0
 24 30  1  0  0  0  0
 24 26  1  0  0  0  0
 25 24  1  0  0  0  0
 26 27  1  0  0  0  0
 26 28  1  0  0  0  0
 29 26  1  0  0  0  0
 30 33  1  0  0  0  0
 30 32  1  0  0  0  0
 31 30  1  0  0  0  0
 34 35  1  0  0  0  0
 34 40  1  0  0  0  0
 34 36  1  0  0  0  0
 36 38  1  0  0  0  0
 37 36  1  0  0  0  0
 39 36  1  0  0  0  0
 40 42  1  0  0  0  0
 41 40  1  0  0  0  0
 43 40  1  0  0  0  0
M  END
