4,13
q = -2.0, confidence = 0.882

 37 38  0  0  1  0  0  0  0  0999 V2000
    2.5786   -1.5759   -0.1798 Si  0  0  0  0  0  0  0  0  0  0  0  0
    2.5786    1.5759   -0.1798 Si  0  0  0  0  0  0  0  0  0  0  0  0
    3.0497   -0.0000   -0.5431 O   0  0  0  0  0  0  0  0  0  0  0  0
    0.7531   -1.7893   -0.6161 C   0  0  2  0  0  3  0  0  0  0  0  0
   -0.2576   -2.4135    0.1958 C   0  0  0  0  0  0  0  0  0  0  0  0
   -0.1239   -2.7396    1.2335 H   0  0  0  0  0  0  0  0  0  0  0  0
   -1.4667   -2.4880   -0.5372 C   0  0  0  0  0  0  0  0  0  0  0  0
   -2.4259   -2.8701   -0.1700 H   0  0  0  0  0  0  0  0  0  0  0  0
   -1.2306   -1.9264   -1.8315 C   0  0  0  0  0  0  0  0  0  0  0  0
   -1.9735   -1.8271   -2.6329 H   0  0  0  0  0  0  0  0  0  0  0  0
    0.1305   -1.5225   -1.8852 C   0  0  0  0  0  0  0  0  0  0  0  0
    0.6341   -1.0994   -2.7615 H   0  0  0  0  0  0  0  0  0  0  0  0
    0.7531    1.7893   -0.6162 C   0  0  2  0  0  3  0  0  0  0  0  0
    0.1305    1.5224   -1.8852 C   0  0  0  0  0  0  0  0  0  0  0  0
    0.6341    1.0992   -2.7615 H   0  0  0  0  0  0  0  0  0  0  0  0
   -1.2305    1.9262   -1.8317 C   0  0  0  0  0  0  0  0  0  0  0  0
   -1.9734    1.8269   -2.6330 H   0  0  0  0  0  0  0  0  0  0  0  0
   -1.4667    2.4880   -0.5374 C   0  0  0  0  0  0  0  0  0  0  0  0
   -2.4259    2.8701   -0.1702 H   0  0  0  0  0  0  0  0  0  0  0  0
   -0.2577    2.4136    0.1957 C   0  0  0  0  0  0  0  0  0  0  0  0
   -0.1240    2.7397    1.2333 H   0  0  0  0  0  0  0  0  0  0  0  0
    2.8333   -1.9599    1.6407 C   0  0  0  0  0  0  0  0  0  0  0  0
    2.1443   -1.3650    2.2737 H   0  0  0  0  0  0  0  0  0  0  0  0
    3.8756   -1.7289    1.9406 H   0  0  0  0  0  0  0  0  0  0  0  0
    2.6496   -3.0342    1.8485 H   0  0  0  0  0  0  0  0  0  0  0  0
    3.6014   -2.6967   -1.2877 C   0  0  0  0  0  0  0  0  0  0  0  0
    3.3291   -3.7605   -1.1334 H   0  0  0  0  0  0  0  0  0  0  0  0
    4.6827   -2.5785   -1.0714 H   0  0  0  0  0  0  0  0  0  0  0  0
    3.4372   -2.4505   -2.3562 H   0  0  0  0  0  0  0  0  0  0  0  0
    2.8332    1.9599    1.6407 C   0  0  0  0  0  0  0  0  0  0  0  0
    2.6497    3.0342    1.8485 H   0  0  0  0  0  0  0  0  0  0  0  0
    3.8755    1.7288    1.9406 H   0  0  0  0  0  0  0  0  0  0  0  0
    2.1442    1.3650    2.2737 H   0  0  0  0  0  0  0  0  0  0  0  0
    3.6014    2.6967   -1.2877 C   0  0  0  0  0  0  0  0  0  0  0  0
    3.4372    2.4506   -2.3561 H   0  0  0  0  0  0  0  0  0  0  0  0
    4.6827    2.5785   -1.0714 H   0  0  0  0  0  0  0  0  0  0  0  0
    3.3291    3.7605   -1.1333 H   0  0  0  0  0  0  0  0  0  0  0  0
  1 22  1  0  0  0  0
  2 30  1  0  0  0  0
  3  2  1  0  0  0  0
  3  1  1  0  0  0  0
  4  1  1  6  0  0  0
  4  5  1  0  0  0  0
  5  6  1  0  0  0  0
  7  8  1  0  0  0  0
  7  5  2  0  0  0  0
  9  7  1  0  0  0  0
 10  9  1  0  0  0  0
 11  9  2  0  0  0  0
 11  4  1  0  0  0  0
 12 11  1  0  0  0  0
 13  2  1  6  0  0  0
 13 20  1  0  0  0  0
 14 16  2  0  0  0  0
 14 13  1  0  0  0  0
 15 14  1  0  0  0  0
 16 18  1  0  0  0  0
 17 16  1  0  0  0  0
 18 19  1  0  0  0  0
 18 20  2  0  0  0  0
 20 21  1  0  0  0  0
 22 25  1  0  0  0  0
 22 24  1  0  0  0  0
 22 23  1  0  0  0  0
 26 27  1  0  0  0  0
 26 28  1  0  0  0  0
 26  1  1  0  0  0  0
 29 26  1  0  0  0  0
 30 31  1  0  0  0  0
 30 32  1  0  0  0  0
 30 33  1  0  0  0  0
 34 37  1  0  0  0  0
 34 36  1  0  0  0  0
 34  2  1  0  0  0  0
 35 34  1  0  0  0  0
M  END
