8,12
q = -1.0, confidence = 0.006

 27 27  0  0  0  0  0  0  0  0999 V2000
    3.6565    1.0652   -0.6920 O   0  0  0  0  0  0  0  0  0  0  0  0
    2.2117   -0.0574    0.6787 N   0  0  0  0  0  0  0  0  0  0  0  0
    0.3028    1.4877    0.5074 C   0  0  0  0  0  0  0  0  0  0  0  0
    0.0513    1.6140   -0.9000 C   0  0  0  0  0  0  0  0  0  0  0  0
    0.8142    1.5360   -1.6832 H   0  0  0  0  0  0  0  0  0  0  0  0
   -1.3388    1.8694   -1.0886 C   0  0  0  0  0  0  0  0  0  0  0  0
   -1.8400    2.0145   -2.0533 H   0  0  0  0  0  0  0  0  0  0  0  0
   -1.9685    1.9095    0.2016 C   0  0  0  0  0  3  0  0  0  0  0  0
   -3.0298    2.0972    0.4003 H   0  0  0  0  0  0  0  0  0  0  0  0
   -0.9486    1.6678    1.1825 C   0  0  0  0  0  0  0  0  0  0  0  0
   -1.0930    1.6377    2.2698 H   0  0  0  0  0  0  0  0  0  0  0  0
    0.1351   -1.3390   -1.1453 C   0  0  0  0  0  3  0  0  0  0  0  0
   -0.3738   -2.0704   -1.7918 H   0  0  0  0  0  0  0  0  0  0  0  0
    0.9172   -0.7601   -1.6598 H   0  0  0  0  0  0  0  0  0  0  0  0
    0.2572   -1.5955    0.2458 C   0  0  0  0  0  3  0  0  0  0  0  0
   -0.2245   -2.5132    0.6265 H   0  0  0  0  0  0  0  0  0  0  0  0
    1.4970   -1.2602    1.0636 C   0  0  0  0  0  0  0  0  0  0  0  0
    1.2199   -1.1740    2.1373 H   0  0  0  0  0  0  0  0  0  0  0  0
    2.1930   -2.1228    1.0038 H   0  0  0  0  0  0  0  0  0  0  0  0
    1.6353    1.2027    1.1367 C   0  0  0  0  0  0  0  0  0  0  0  0
    2.3621    1.9936    0.8650 H   0  0  0  0  0  0  0  0  0  0  0  0
    1.5293    1.1708    2.2415 H   0  0  0  0  0  0  0  0  0  0  0  0
    3.2289   -0.0078   -0.2631 C   0  0  0  0  0  0  0  0  0  0  0  0
    3.8110   -1.3379   -0.7202 C   0  0  0  0  0  0  0  0  0  0  0  0
    4.6120   -1.1159   -1.4461 H   0  0  0  0  0  0  0  0  0  0  0  0
    3.0491   -1.9802   -1.2051 H   0  0  0  0  0  0  0  0  0  0  0  0
    4.2403   -1.9081    0.1286 H   0  0  0  0  0  0  0  0  0  0  0  0
  1 23  2  0  0  0  0
  2 17  1  0  0  0  0
  2 20  1  0  0  0  0
  3 20  1  0  0  0  0
  3 10  2  0  0  0  0
  4  3  1  0  0  0  0
  5  4  1  0  0  0  0
  6  4  2  0  0  0  0
  6  8  1  0  0  0  0
  7  6  1  0  0  0  0
  8  9  1  0  0  0  0
  8 10  1  0  0  0  0
 10 11  1  0  0  0  0
 12 15  1  0  0  0  0
 13 12  1  0  0  0  0
 14 12  1  0  0  0  0
 15 16  1  0  0  0  0
 15 17  1  0  0  0  0
 17 18  1  0  0  0  0
 19 17  1  0  0  0  0
 20 22  1  0  0  0  0
 21 20  1  0  0  0  0
 23  2  1  0  0  0  0
 24 23  1  0  0  0  0
 24 27  1  0  0  0  0
 25 24  1  0  0  0  0
 26 24  1  0  0  0  0
M  END
