2,4
q = 0.0, confidence = 0.99

 66 69  0  0  1  0  0  0  0  0999 V2000
    3.2427   -0.2855   -1.5898 C   0  0  0  0  0  3  0  0  0  0  0  0
    1.8579    0.0129   -1.5438 C   0  0  0  0  0  3  0  0  0  0  0  0
    1.0834   -0.1582   -0.3488 C   0  0  1  0  0  3  0  0  0  0  0  0
    1.8042   -0.5191    0.8294 C   0  0  0  0  0  3  0  0  0  0  0  0
    3.1963   -0.8324    0.8112 C   0  0  0  0  0  0  0  0  0  0  0  0
    3.9172   -0.7420   -0.4147 C   0  0  0  0  0  0  0  0  0  0  0  0
    5.2287   -1.0188   -0.5580 O   0  0  0  0  0  0  0  0  0  0  0  0
    6.0318   -1.1896    0.6280 C   0  0  0  0  0  0  0  0  0  0  0  0
    8.1863   -2.4528    0.2080 C   0  0  0  0  0  0  0  0  0  0  0  0
    9.5306   -2.4908   -0.1930 C   0  0  0  0  0  0  0  0  0  0  0  0
   10.1744   -1.3105   -0.5947 C   0  0  0  0  0  0  0  0  0  0  0  0
    9.4723   -0.0933   -0.5912 C   0  0  0  0  0  0  0  0  0  0  0  0
    8.1316   -0.0542   -0.1853 C   0  0  0  0  0  0  0  0  0  0  0  0
    7.4789   -1.2368    0.2188 C   0  0  0  0  0  0  0  0  0  0  0  0
   -0.3933    0.0408   -0.3451 C   0  0  0  0  0  0  0  0  0  0  0  0
   -0.9262    1.3598   -0.8756 C   0  0  0  0  0  0  0  0  0  0  0  0
   -0.9850    2.4810    0.1720 C   0  0  0  0  0  0  0  0  0  0  0  0
   -1.2217   -0.9645    0.0712 C   0  0  0  0  0  0  0  0  0  0  0  0
   -0.7646   -2.3489    0.4882 C   0  0  0  0  0  0  0  0  0  0  0  0
   -1.0041   -2.6582    1.9731 C   0  0  0  0  0  0  0  0  0  0  0  0
   -4.7256    0.1095    1.1670 C   0  0  0  0  0  0  0  0  0  0  0  0
   -3.3375   -0.0418    1.1299 C   0  0  0  0  0  0  0  0  0  0  0  0
   -2.7048   -0.7734    0.0983 C   0  0  0  0  0  0  0  0  0  0  0  0
   -3.5251   -1.3633   -0.8828 C   0  0  0  0  0  0  0  0  0  0  0  0
   -4.9211   -1.2156   -0.8663 C   0  0  0  0  0  0  0  0  0  0  0  0
   -5.5309   -0.4717    0.1649 C   0  0  0  0  0  0  0  0  0  0  0  0
   -6.8722   -0.2668    0.2807 O   0  0  0  0  0  0  0  0  0  0  0  0
   -7.7328   -0.8092   -0.7060 C   0  0  0  0  0  0  0  0  0  0  0  0
  -10.2083   -1.1107   -1.0632 C   0  0  0  0  0  0  0  0  0  0  0  0
  -11.5446   -0.7512   -0.8396 C   0  0  0  0  0  0  0  0  0  0  0  0
  -11.8536    0.2929    0.0475 C   0  0  0  0  0  0  0  0  0  0  0  0
  -10.8175    0.9721    0.7058 C   0  0  0  0  0  0  0  0  0  0  0  0
   -9.4787    0.6167    0.4780 C   0  0  0  0  0  0  0  0  0  0  0  0
   -9.1641   -0.4273   -0.4098 C   0  0  0  0  0  0  0  0  0  0  0  0
    3.8284   -0.1507   -2.5079 H   0  0  0  0  0  0  0  0  0  0  0  0
    1.3610    0.3672   -2.4579 H   0  0  0  0  0  0  0  0  0  0  0  0
    1.2627   -0.5627    1.7843 H   0  0  0  0  0  0  0  0  0  0  0  0
    3.6977   -1.1074    1.7460 H   0  0  0  0  0  0  0  0  0  0  0  0
   -5.2173    0.6765    1.9707 H   0  0  0  0  0  0  0  0  0  0  0  0
   -2.7222    0.4080    1.9234 H   0  0  0  0  0  0  0  0  0  0  0  0
   -3.0600   -1.9425   -1.6959 H   0  0  0  0  0  0  0  0  0  0  0  0
   -5.5196   -1.6824   -1.6595 H   0  0  0  0  0  0  0  0  0  0  0  0
    7.6777   -3.3794    0.5188 H   0  0  0  0  0  0  0  0  0  0  0  0
   10.0765   -3.4464   -0.1941 H   0  0  0  0  0  0  0  0  0  0  0  0
   11.2286   -1.3380   -0.9101 H   0  0  0  0  0  0  0  0  0  0  0  0
    9.9757    0.8343   -0.9033 H   0  0  0  0  0  0  0  0  0  0  0  0
    7.5785    0.8977   -0.1782 H   0  0  0  0  0  0  0  0  0  0  0  0
   -9.9723   -1.9367   -1.7539 H   0  0  0  0  0  0  0  0  0  0  0  0
  -12.3506   -1.2944   -1.3561 H   0  0  0  0  0  0  0  0  0  0  0  0
  -12.9026    0.5732    0.2276 H   0  0  0  0  0  0  0  0  0  0  0  0
  -11.0518    1.7886    1.4060 H   0  0  0  0  0  0  0  0  0  0  0  0
   -8.6628    1.1418    0.9936 H   0  0  0  0  0  0  0  0  0  0  0  0
    5.8426   -0.3318    1.3102 H   0  0  0  0  0  0  0  0  0  0  0  0
    5.7367   -2.1277    1.1475 H   0  0  0  0  0  0  0  0  0  0  0  0
   -7.4415   -0.4287   -1.7155 H   0  0  0  0  0  0  0  0  0  0  0  0
   -7.6344   -1.9201   -0.7423 H   0  0  0  0  0  0  0  0  0  0  0  0
   -1.9374    1.1988   -1.3007 H   0  0  0  0  0  0  0  0  0  0  0  0
   -0.2810    1.6981   -1.7138 H   0  0  0  0  0  0  0  0  0  0  0  0
   -1.7467    2.2622    0.9453 H   0  0  0  0  0  0  0  0  0  0  0  0
   -1.2455    3.4480   -0.3026 H   0  0  0  0  0  0  0  0  0  0  0  0
   -0.0101    2.6094    0.6797 H   0  0  0  0  0  0  0  0  0  0  0  0
   -1.3414   -3.0839   -0.1176 H   0  0  0  0  0  0  0  0  0  0  0  0
    0.3017   -2.5047    0.2314 H   0  0  0  0  0  0  0  0  0  0  0  0
   -0.4174   -1.9803    2.6269 H   0  0  0  0  0  0  0  0  0  0  0  0
   -0.7132   -3.7000    2.2159 H   0  0  0  0  0  0  0  0  0  0  0  0
   -2.0722   -2.5320    2.2426 H   0  0  0  0  0  0  0  0  0  0  0  0
  1  2  1  0  0  0  0
  1  6  1  0  0  0  0
  2  3  1  0  0  0  0
  3 15  1  1  0  0  0
  3  4  1  0  0  0  0
  4 37  1  0  0  0  0
  5  4  1  0  0  0  0
  5 38  1  0  0  0  0
  6  5  2  0  0  0  0
  7  6  1  0  0  0  0
  7  8  1  0  0  0  0
  8 54  1  0  0  0  0
  8 53  1  0  0  0  0
  9 14  1  0  0  0  0
  9 43  1  0  0  0  0
 10  9  2  0  0  0  0
 11 12  2  0  0  0  0
 11 10  1  0  0  0  0
 12 13  1  0  0  0  0
 13 47  1  0  0  0  0
 13 14  2  0  0  0  0
 14  8  1  0  0  0  0
 15 18  2  0  0  0  0
 16 15  1  0  0  0  0
 16 17  1  0  0  0  0
 17 61  1  0  0  0  0
 17 59  1  0  0  0  0
 18 23  1  0  0  0  0
 18 19  1  0  0  0  0
 19 20  1  0  0  0  0
 20 65  1  0  0  0  0
 20 66  1  0  0  0  0
 20 64  1  0  0  0  0
 21 39  1  0  0  0  0
 22 21  1  0  0  0  0
 22 40  1  0  0  0  0
 23 22  2  0  0  0  0
 24 25  2  0  0  0  0
 24 23  1  0  0  0  0
 25 26  1  0  0  0  0
 26 27  1  0  0  0  0
 26 21  2  0  0  0  0
 28 34  1  0  0  0  0
 28 27  1  0  0  0  0
 29 30  2  0  0  0  0
 29 34  1  0  0  0  0
 30 31  1  0  0  0  0
 31 50  1  0  0  0  0
 31 32  2  0  0  0  0
 32 51  1  0  0  0  0
 33 32  1  0  0  0  0
 33 52  1  0  0  0  0
 34 33  2  0  0  0  0
 35  1  1  0  0  0  0
 36  2  1  0  0  0  0
 41 24  1  0  0  0  0
 42 25  1  0  0  0  0
 44 10  1  0  0  0  0
 45 11  1  0  0  0  0
 46 12  1  0  0  0  0
 48 29  1  0  0  0  0
 49 30  1  0  0  0  0
 55 28  1  0  0  0  0
 56 28  1  0  0  0  0
 57 16  1  0  0  0  0
 58 16  1  0  0  0  0
 60 17  1  0  0  0  0
 62 19  1  0  0  0  0
 63 19  1  0  0  0  0
M  END
