6,12
q = -1.0, confidence = 0.0

 22 23  0  0  1  0  0  0  0  0999 V2000
   -0.6329    0.3040   -1.6612 S   0  0  0  0  0  1  0  0  0  0  0  0
   -0.6204   -2.3335   -0.0579 C   0  0  0  0  0  0  0  0  0  0  0  0
   -0.9838   -2.6367   -1.0503 H   0  0  0  0  0  0  0  0  0  0  0  0
    0.6118   -2.8082    0.4120 C   0  0  0  0  0  0  0  0  0  0  0  0
    1.1837   -3.5430   -0.1718 H   0  0  0  0  0  0  0  0  0  0  0  0
    1.1395   -2.2662    1.6279 C   0  0  0  0  0  3  0  0  0  0  0  0
    2.1312   -2.5689    1.9893 H   0  0  0  0  0  0  0  0  0  0  0  0
    0.2932   -1.4315    2.4572 C   0  0  0  0  0  0  0  0  0  0  0  0
    0.6722   -1.0748    3.4260 H   0  0  0  0  0  0  0  0  0  0  0  0
   -0.9877   -1.0094    2.0186 C   0  0  0  0  0  0  0  0  0  0  0  0
   -1.6164   -0.3668    2.6510 H   0  0  0  0  0  0  0  0  0  0  0  0
   -1.4083   -1.3517    0.6936 C   0  0  1  0  0  3  0  0  0  0  0  0
   -2.5763   -0.7422    0.0117 C   0  0  0  0  0  0  0  0  0  0  0  0
   -3.8987   -0.8685    0.4735 C   0  0  0  0  0  0  0  0  0  0  0  0
   -4.0886   -1.4188    1.4087 H   0  0  0  0  0  0  0  0  0  0  0  0
   -4.9664   -0.3273   -0.2588 C   0  0  0  0  0  0  0  0  0  0  0  0
   -5.9982   -0.4305    0.1089 H   0  0  0  0  0  0  0  0  0  0  0  0
   -4.7079    0.3285   -1.4770 C   0  0  0  0  0  0  0  0  0  0  0  0
   -5.5413    0.7450   -2.0641 H   0  0  0  0  0  0  0  0  0  0  0  0
   -3.3957    0.4745   -1.9452 C   0  0  0  0  0  0  0  0  0  0  0  0
   -3.1929    1.0147   -2.8827 H   0  0  0  0  0  0  0  0  0  0  0  0
   -2.3090   -0.0266   -1.1923 C   0  0  0  0  0  0  0  0  0  0  0  0
  1 22  1  0  0  0  0
  2  4  2  0  0  0  0
  2 12  1  0  0  0  0
  3  2  1  0  0  0  0
  4  6  1  0  0  0  0
  5  4  1  0  0  0  0
  6  7  1  0  0  0  0
  6  8  1  0  0  0  0
  8  9  1  0  0  0  0
 10  8  2  0  0  0  0
 10 11  1  0  0  0  0
 12 13  1  6  0  0  0
 12 10  1  0  0  0  0
 13 14  1  0  0  0  0
 14 15  1  0  0  0  0
 16 17  1  0  0  0  0
 16 14  2  0  0  0  0
 18 16  1  0  0  0  0
 19 18  1  0  0  0  0
 20 18  2  0  0  0  0
 20 22  1  0  0  0  0
 21 20  1  0  0  0  0
 22 13  2  0  0  0  0
M  END
