5,12
q = 0.0, confidence = 1.0

 37 37  0  0  1  0  0  0  0  0999 V2000
    0.2192   -0.0994    0.7160 C   0  0  2  0  0  3  0  0  0  0  0  0
    1.2771    0.6304   -0.1245 C   0  0  0  0  0  0  0  0  0  0  0  0
   -1.5511   -0.1124    2.4600 C   0  0  0  0  0  3  0  0  0  0  0  0
   -0.0923   -1.4784    0.4339 C   0  0  0  0  0  0  0  0  0  0  0  0
   -1.8898   -1.4451    2.1246 C   0  0  0  0  0  3  0  0  0  0  0  0
   -1.1430   -2.1378    1.1265 C   0  0  0  0  0  0  0  0  0  0  0  0
    2.7010    0.3724    0.4579 C   0  0  0  0  0  0  0  0  0  0  0  0
    0.6816   -2.3101   -0.5556 C   0  0  0  0  0  0  0  0  0  0  0  0
    3.9157   -0.0341    2.4263 C   0  0  0  0  0  0  0  0  0  0  0  0
    1.9520    0.6395   -2.4861 C   0  0  0  0  0  0  0  0  0  0  0  0
    2.8779   -2.8843   -1.2076 C   0  0  0  0  0  0  0  0  0  0  0  0
   -0.5159    0.5558    1.7407 C   0  0  0  0  0  3  0  0  0  0  0  0
    1.0280    2.1653   -0.0208 C   0  0  0  0  0  0  0  0  0  0  0  0
   -0.1278    3.9861   -0.9946 C   0  0  0  0  0  0  0  0  0  0  0  0
    1.1351    0.1412   -1.4310 O   0  0  0  0  0  0  0  0  0  0  0  0
    2.6501    0.1733    1.7843 O   0  0  0  0  0  0  0  0  0  0  0  0
    3.7205    0.3750   -0.2020 O   0  0  0  0  0  0  0  0  0  0  0  0
    2.0066   -2.2205   -0.2840 O   0  0  0  0  0  0  0  0  0  0  0  0
    0.1986   -3.0348   -1.3994 O   0  0  0  0  0  0  0  0  0  0  0  0
    0.2458    2.5961   -1.0187 O   0  0  0  0  0  0  0  0  0  0  0  0
    1.4753    2.8566    0.8755 O   0  0  0  0  0  0  0  0  0  0  0  0
   -0.3024    1.6088    1.9670 H   0  0  0  0  0  0  0  0  0  0  0  0
   -2.7343   -1.9429    2.6207 H   0  0  0  0  0  0  0  0  0  0  0  0
    4.3973   -0.9552    2.0414 H   0  0  0  0  0  0  0  0  0  0  0  0
   -1.3969   -3.1666    0.8384 H   0  0  0  0  0  0  0  0  0  0  0  0
   -2.1326    0.4369    3.2120 H   0  0  0  0  0  0  0  0  0  0  0  0
    0.7000    4.6047   -0.5987 H   0  0  0  0  0  0  0  0  0  0  0  0
    4.5913    0.8244    2.2418 H   0  0  0  0  0  0  0  0  0  0  0  0
    2.0466    1.7449   -2.4513 H   0  0  0  0  0  0  0  0  0  0  0  0
    2.9651    0.1925   -2.4697 H   0  0  0  0  0  0  0  0  0  0  0  0
   -1.0275    4.1082   -0.3600 H   0  0  0  0  0  0  0  0  0  0  0  0
    2.7935   -3.9849   -1.1055 H   0  0  0  0  0  0  0  0  0  0  0  0
    3.6980   -0.1337    3.5039 H   0  0  0  0  0  0  0  0  0  0  0  0
   -0.3703    4.2563   -2.0373 H   0  0  0  0  0  0  0  0  0  0  0  0
    3.8980   -2.5435   -0.9574 H   0  0  0  0  0  0  0  0  0  0  0  0
    2.6207   -2.6052   -2.2484 H   0  0  0  0  0  0  0  0  0  0  0  0
    1.4205    0.3621   -3.4166 H   0  0  0  0  0  0  0  0  0  0  0  0
  1  2  1  6  0  0  0
  1 12  1  0  0  0  0
  2 13  1  0  0  0  0
  2  7  1  0  0  0  0
  3 26  1  0  0  0  0
  4  1  1  0  0  0  0
  4  6  2  0  0  0  0
  5  3  1  0  0  0  0
  5 23  1  0  0  0  0
  6  5  1  0  0  0  0
  7 16  1  0  0  0  0
  8 18  1  0  0  0  0
  8  4  1  0  0  0  0
  9 33  1  0  0  0  0
 10 30  1  0  0  0  0
 10 29  1  0  0  0  0
 10 15  1  0  0  0  0
 11 32  1  0  0  0  0
 11 35  1  0  0  0  0
 11 18  1  0  0  0  0
 12 22  1  0  0  0  0
 12  3  1  0  0  0  0
 13 21  2  0  0  0  0
 14 27  1  0  0  0  0
 14 31  1  0  0  0  0
 15  2  1  0  0  0  0
 16  9  1  0  0  0  0
 17  7  2  0  0  0  0
 19  8  2  0  0  0  0
 20 14  1  0  0  0  0
 20 13  1  0  0  0  0
 24  9  1  0  0  0  0
 25  6  1  0  0  0  0
 28  9  1  0  0  0  0
 34 14  1  0  0  0  0
 36 11  1  0  0  0  0
 37 10  1  0  0  0  0
M  END
