3,6
q = 0.0, confidence = 0.976

 17 17  0  0  1  0  0  0  0  0999 V2000
   -2.0358    0.9682   -0.0002 C   0  0  2  0  0  0  0  0  0  0  0  0
   -1.1785    0.6446   -1.2188 C   0  0  0  0  0  3  0  0  0  0  0  0
   -0.7809   -0.6466   -1.5806 C   0  0  0  0  0  3  0  0  0  0  0  0
   -0.5821   -1.7674   -0.7075 C   0  0  0  0  0  0  0  0  0  0  0  0
   -0.5820   -1.7671    0.7082 C   0  0  0  0  0  0  0  0  0  0  0  0
   -0.7809   -0.6460    1.5809 C   0  0  0  0  0  3  0  0  0  0  0  0
   -1.1785    0.6450    1.2185 C   0  0  0  0  0  3  0  0  0  0  0  0
   -3.3457    0.3092   -0.0001 C   0  0  0  0  0  0  0  0  0  0  0  0
   -4.4248   -0.2660    0.0000 C   0  0  0  0  0  0  0  0  0  0  0  0
   -2.2014    2.0653   -0.0004 H   0  0  0  0  0  0  0  0  0  0  0  0
   -1.0912    1.4228   -1.9914 H   0  0  0  0  0  0  0  0  0  0  0  0
   -0.4430   -0.7961   -2.6185 H   0  0  0  0  0  0  0  0  0  0  0  0
   -0.2412   -2.6982   -1.1863 H   0  0  0  0  0  0  0  0  0  0  0  0
   -0.2412   -2.6977    1.1873 H   0  0  0  0  0  0  0  0  0  0  0  0
   -0.4430   -0.7951    2.6189 H   0  0  0  0  0  0  0  0  0  0  0  0
   -1.0912    1.4235    1.9909 H   0  0  0  0  0  0  0  0  0  0  0  0
   -5.3811   -0.7698   -0.0000 H   0  0  0  0  0  0  0  0  0  0  0  0
  1 10  1  6  0  0  0
  1  8  1  0  0  0  0
  1  7  1  0  0  0  0
  2  1  1  0  0  0  0
  3  2  1  0  0  0  0
  3  4  1  0  0  0  0
  4  5  2  0  0  0  0
  5 14  1  0  0  0  0
  5  6  1  0  0  0  0
  6 15  1  0  0  0  0
  7  6  1  0  0  0  0
  7 16  1  0  0  0  0
  8  9  3  0  0  0  0
 11  2  1  0  0  0  0
 12  3  1  0  0  0  0
 13  4  1  0  0  0  0
 17  9  1  0  0  0  0
M  END
