1,18
q = 0.0, confidence = 0.532

 44 45  0  0  0  0  0  0  0  0999 V2000
   -1.3189   -0.7980    0.0000 C   0  0  0  0  0  2  0  0  0  0  0  0
   -2.6981   -0.6152   -0.0000 C   0  0  0  0  0  0  0  0  0  0  0  0
   -3.0986    0.4100    0.0000 H   0  0  0  0  0  0  0  0  0  0  0  0
   -3.5712   -1.7339   -0.0001 C   0  0  0  0  0  0  0  0  0  0  0  0
   -2.9911   -3.0178   -0.0001 C   0  0  0  0  0  0  0  0  0  0  0  0
   -3.6320   -3.9097   -0.0002 H   0  0  0  0  0  0  0  0  0  0  0  0
   -1.5973   -3.1986   -0.0001 C   0  0  0  0  0  0  0  0  0  0  0  0
   -1.1836   -4.2193   -0.0001 H   0  0  0  0  0  0  0  0  0  0  0  0
   -0.7334   -2.0918   -0.0000 C   0  0  0  0  0  0  0  0  0  0  0  0
    0.7334   -2.0918    0.0000 C   0  0  0  0  0  0  0  0  0  0  0  0
    1.5973   -3.1986   -0.0000 C   0  0  0  0  0  3  0  0  0  0  0  0
    1.1836   -4.2193   -0.0001 H   0  0  0  0  0  0  0  0  0  0  0  0
    2.9911   -3.0178   -0.0000 C   0  0  0  0  0  0  0  0  0  0  0  0
    3.6320   -3.9097   -0.0000 H   0  0  0  0  0  0  0  0  0  0  0  0
    3.5712   -1.7339    0.0000 C   0  0  0  0  0  0  0  0  0  0  0  0
    2.6981   -0.6152    0.0001 C   0  0  0  0  0  0  0  0  0  0  0  0
    3.0986    0.4100    0.0001 H   0  0  0  0  0  0  0  0  0  0  0  0
    1.3189   -0.7980    0.0001 C   0  0  0  0  0  3  0  0  0  0  0  0
   -5.0914   -1.4974   -0.0001 C   0  0  0  0  0  0  0  0  0  0  0  0
   -5.4790   -0.6931   -1.2621 C   0  0  0  0  0  0  0  0  0  0  0  0
   -5.2120   -1.2497   -2.1831 H   0  0  0  0  0  0  0  0  0  0  0  0
   -4.9616    0.2860   -1.2987 H   0  0  0  0  0  0  0  0  0  0  0  0
   -6.5719   -0.5001   -1.2788 H   0  0  0  0  0  0  0  0  0  0  0  0
   -5.4791   -0.6932    1.2619 C   0  0  0  0  0  0  0  0  0  0  0  0
   -4.9617    0.2860    1.2986 H   0  0  0  0  0  0  0  0  0  0  0  0
   -5.2122   -1.2498    2.1829 H   0  0  0  0  0  0  0  0  0  0  0  0
   -6.5720   -0.5002    1.2785 H   0  0  0  0  0  0  0  0  0  0  0  0
   -5.8847   -2.8153   -0.0002 C   0  0  0  0  0  0  0  0  0  0  0  0
   -6.9722   -2.5991   -0.0002 H   0  0  0  0  0  0  0  0  0  0  0  0
   -5.6661   -3.4279    0.8977 H   0  0  0  0  0  0  0  0  0  0  0  0
   -5.6661   -3.4278   -0.8980 H   0  0  0  0  0  0  0  0  0  0  0  0
    5.0914   -1.4974    0.0000 C   0  0  0  0  0  0  0  0  0  0  0  0
    5.4790   -0.6931   -1.2620 C   0  0  0  0  0  0  0  0  0  0  0  0
    5.2121   -1.2497   -2.1830 H   0  0  0  0  0  0  0  0  0  0  0  0
    6.5719   -0.5001   -1.2786 H   0  0  0  0  0  0  0  0  0  0  0  0
    4.9616    0.2861   -1.2986 H   0  0  0  0  0  0  0  0  0  0  0  0
    5.4790   -0.6932    1.2620 C   0  0  0  0  0  0  0  0  0  0  0  0
    4.9617    0.2860    1.2987 H   0  0  0  0  0  0  0  0  0  0  0  0
    6.5720   -0.5002    1.2787 H   0  0  0  0  0  0  0  0  0  0  0  0
    5.2121   -1.2498    2.1831 H   0  0  0  0  0  0  0  0  0  0  0  0
    5.8847   -2.8153   -0.0000 C   0  0  0  0  0  0  0  0  0  0  0  0
    5.6661   -3.4279    0.8978 H   0  0  0  0  0  0  0  0  0  0  0  0
    6.9722   -2.5991   -0.0000 H   0  0  0  0  0  0  0  0  0  0  0  0
    5.6661   -3.4278   -0.8979 H   0  0  0  0  0  0  0  0  0  0  0  0
  2  3  1  0  0  0  0
  2  1  1  0  0  0  0
  4  2  2  0  0  0  0
  5  7  2  0  0  0  0
  5  4  1  0  0  0  0
  6  5  1  0  0  0  0
  7  9  1  0  0  0  0
  8  7  1  0  0  0  0
  9 10  2  0  0  0  0
  9  1  1  0  0  0  0
 10 18  1  0  0  0  0
 11 13  1  0  0  0  0
 11 10  1  0  0  0  0
 12 11  1  0  0  0  0
 13 15  2  0  0  0  0
 14 13  1  0  0  0  0
 15 16  1  0  0  0  0
 16 17  1  0  0  0  0
 18 16  2  0  0  0  0
 19  4  1  0  0  0  0
 19 24  1  0  0  0  0
 20 19  1  0  0  0  0
 21 20  1  0  0  0  0
 22 20  1  0  0  0  0
 23 20  1  0  0  0  0
 24 27  1  0  0  0  0
 24 25  1  0  0  0  0
 24 26  1  0  0  0  0
 28 19  1  0  0  0  0
 28 30  1  0  0  0  0
 29 28  1  0  0  0  0
 31 28  1  0  0  0  0
 32 15  1  0  0  0  0
 32 37  1  0  0  0  0
 33 32  1  0  0  0  0
 34 33  1  0  0  0  0
 35 33  1  0  0  0  0
 36 33  1  0  0  0  0
 37 39  1  0  0  0  0
 37 38  1  0  0  0  0
 37 40  1  0  0  0  0
 41 43  1  0  0  0  0
 41 32  1  0  0  0  0
 41 42  1  0  0  0  0
 44 41  1  0  0  0  0
M  END
