2,15
q = 0.0, confidence = 0.994

 27 30  0  0  1  0  0  0  0  0999 V2000
   -1.4966    1.1369   -1.7343 C   0  0  0  0  0  0  0  0  0  0  0  0
   -2.0488   -0.1639   -1.9589 C   0  0  0  0  0  3  0  0  0  0  0  0
   -1.3253   -1.3775   -1.7044 C   0  0  0  0  0  0  0  0  0  0  0  0
   -0.0112   -1.2627   -1.1828 C   0  0  0  0  0  0  0  0  0  0  0  0
    1.0817   -2.2694   -0.8163 C   0  0  0  0  0  0  0  0  0  0  0  0
    2.2281   -1.3846   -0.3176 C   0  0  0  0  0  0  0  0  0  0  0  0
    3.4945   -1.6448    0.2204 C   0  0  0  0  0  0  0  0  0  0  0  0
    4.2745   -0.5462    0.6507 C   0  0  0  0  0  0  0  0  0  0  0  0
    3.8109    0.7877    0.5949 C   0  0  0  0  0  0  0  0  0  0  0  0
    2.5368    1.0687    0.0682 C   0  0  0  0  0  0  0  0  0  0  0  0
    1.7740    2.3845    0.0984 C   0  0  0  0  0  0  0  0  0  0  0  0
    0.6183    2.5184   -0.9386 C   0  0  0  0  0  0  0  0  0  0  0  0
   -0.1853    1.2531   -1.1807 C   0  0  0  0  0  0  0  0  0  0  0  0
    1.8267   -0.0395   -0.3960 C   0  0  0  0  0  0  0  0  0  0  0  0
    0.5081    0.0438   -0.9596 C   0  0  1  0  0  3  0  0  0  0  0  0
   -2.1098    2.0285   -1.9239 H   0  0  0  0  0  0  0  0  0  0  0  0
   -3.0844   -0.2375   -2.3208 H   0  0  0  0  0  0  0  0  0  0  0  0
   -1.8055   -2.3504   -1.8729 H   0  0  0  0  0  0  0  0  0  0  0  0
    1.3664   -2.8701   -1.7075 H   0  0  0  0  0  0  0  0  0  0  0  0
    0.7472   -2.9888   -0.0399 H   0  0  0  0  0  0  0  0  0  0  0  0
    3.8842   -2.6690    0.3226 H   0  0  0  0  0  0  0  0  0  0  0  0
    5.2746   -0.7395    1.0679 H   0  0  0  0  0  0  0  0  0  0  0  0
    4.4457    1.5981    0.9869 H   0  0  0  0  0  0  0  0  0  0  0  0
    2.4614    3.2470   -0.0156 H   0  0  0  0  0  0  0  0  0  0  0  0
    1.3354    2.4797    1.1166 H   0  0  0  0  0  0  0  0  0  0  0  0
    1.0436    2.8043   -1.9273 H   0  0  0  0  0  0  0  0  0  0  0  0
   -0.0490    3.3501   -0.6366 H   0  0  0  0  0  0  0  0  0  0  0  0
  1 13  2  0  0  0  0
  2  1  1  0  0  0  0
  2  3  1  0  0  0  0
  3  4  2  0  0  0  0
  4  5  1  0  0  0  0
  5  6  1  0  0  0  0
  5 20  1  0  0  0  0
  6  7  1  0  0  0  0
  7 21  1  0  0  0  0
  7  8  2  0  0  0  0
  8 22  1  0  0  0  0
  9  8  1  0  0  0  0
  9 23  1  0  0  0  0
 10 11  1  0  0  0  0
 10  9  2  0  0  0  0
 11 25  1  0  0  0  0
 12 27  1  0  0  0  0
 12 11  1  0  0  0  0
 13 15  1  0  0  0  0
 13 12  1  0  0  0  0
 14  6  2  0  0  0  0
 14 10  1  0  0  0  0
 15  4  1  1  0  0  0
 15 14  1  0  0  0  0
 16  1  1  0  0  0  0
 17  2  1  0  0  0  0
 18  3  1  0  0  0  0
 19  5  1  0  0  0  0
 24 11  1  0  0  0  0
 26 12  1  0  0  0  0
M  END
