1,18
q = -2.0, confidence = 0.578

 40 42  0  0  1  0  0  0  0  0999 V2000
    0.4443   -2.0357   -1.6167 C   0  0  0  0  0  3  0  0  0  0  0  0
    0.3175   -2.9386   -0.9957 H   0  0  0  0  0  0  0  0  0  0  0  0
   -0.0879   -2.1910   -2.5770 H   0  0  0  0  0  0  0  0  0  0  0  0
    1.9015   -1.6106   -1.7783 C   0  0  2  0  0  0  0  0  0  0  0  0
    1.8638   -0.5132   -2.8851 C   0  0  1  0  0  0  0  0  0  0  0  0
    1.2737   -0.8954   -3.7462 H   0  0  0  0  0  0  0  0  0  0  0  0
    1.1326    0.5973   -2.1280 C   0  0  0  0  0  3  0  0  0  0  0  0
    0.8780    1.5263   -2.6643 H   0  0  0  0  0  0  0  0  0  0  0  0
    2.8901   -2.7477   -2.0012 C   0  0  0  0  0  0  0  0  0  0  0  0
    2.5785   -3.3327   -2.8918 H   0  0  0  0  0  0  0  0  0  0  0  0
    2.9059   -3.4402   -1.1358 H   0  0  0  0  0  0  0  0  0  0  0  0
    3.9291   -2.4034   -2.1755 H   0  0  0  0  0  0  0  0  0  0  0  0
    3.2337   -0.0544   -3.3919 C   0  0  0  0  0  0  0  0  0  0  0  0
    3.1380    0.8421   -4.0389 H   0  0  0  0  0  0  0  0  0  0  0  0
    3.7394   -0.8413   -3.9879 H   0  0  0  0  0  0  0  0  0  0  0  0
    3.9022    0.2131   -2.5463 H   0  0  0  0  0  0  0  0  0  0  0  0
    2.0028   -0.7347   -0.4589 C   0  0  2  0  0  3  0  0  0  0  0  0
    1.7265    0.6442   -0.7918 C   0  0  1  0  0  3  0  0  0  0  0  0
    2.7883   -1.0759    0.7564 C   0  0  0  0  0  0  0  0  0  0  0  0
    4.1499   -1.4391    0.6372 C   0  0  0  0  0  0  0  0  0  0  0  0
    4.6092   -1.4990   -0.3586 H   0  0  0  0  0  0  0  0  0  0  0  0
    4.9338   -1.6903    1.7725 C   0  0  0  0  0  0  0  0  0  0  0  0
    5.9925   -1.9665    1.6507 H   0  0  0  0  0  0  0  0  0  0  0  0
    4.3785   -1.5791    3.0567 C   0  0  0  0  0  0  0  0  0  0  0  0
    4.9941   -1.7776    3.9473 H   0  0  0  0  0  0  0  0  0  0  0  0
    3.0321   -1.2070    3.1924 C   0  0  0  0  0  0  0  0  0  0  0  0
    2.5817   -1.1130    4.1926 H   0  0  0  0  0  0  0  0  0  0  0  0
    2.2495   -0.9588    2.0573 C   0  0  0  0  0  0  0  0  0  0  0  0
    1.1880   -0.6974    2.1618 H   0  0  0  0  0  0  0  0  0  0  0  0
    2.2524    1.8078   -0.0342 C   0  0  0  0  0  0  0  0  0  0  0  0
    3.2108    2.6255   -0.6725 C   0  0  0  0  0  0  0  0  0  0  0  0
    3.4919    2.4067   -1.7135 H   0  0  0  0  0  0  0  0  0  0  0  0
    3.7945    3.7080   -0.0004 C   0  0  0  0  0  0  0  0  0  0  0  0
    4.5385    4.3346   -0.5158 H   0  0  0  0  0  0  0  0  0  0  0  0
    3.4262    3.9948    1.3245 C   0  0  0  0  0  0  0  0  0  0  0  0
    3.8774    4.8487    1.8526 H   0  0  0  0  0  0  0  0  0  0  0  0
    2.4750    3.1874    1.9682 C   0  0  0  0  0  0  0  0  0  0  0  0
    2.1716    3.4101    3.0025 H   0  0  0  0  0  0  0  0  0  0  0  0
    1.8939    2.1028    1.2966 C   0  0  0  0  0  0  0  0  0  0  0  0
    1.1178    1.5016    1.7846 H   0  0  0  0  0  0  0  0  0  0  0  0
  1  2  1  0  0  0  0
  3  1  1  0  0  0  0
  4  1  1  1  0  0  0
  4 17  1  0  0  0  0
  5  6  1  6  0  0  0
  5  7  1  0  0  0  0
  5  4  1  0  0  0  0
  7 18  1  0  0  0  0
  8  7  1  0  0  0  0
  9  4  1  0  0  0  0
  9 11  1  0  0  0  0
 10  9  1  0  0  0  0
 12  9  1  0  0  0  0
 13  5  1  0  0  0  0
 13 16  1  0  0  0  0
 14 13  1  0  0  0  0
 15 13  1  0  0  0  0
 17 19  1  6  0  0  0
 18 17  1  0  0  0  0
 18 30  1  6  0  0  0
 19 28  1  0  0  0  0
 20 19  2  0  0  0  0
 20 22  1  0  0  0  0
 21 20  1  0  0  0  0
 22 24  2  0  0  0  0
 23 22  1  0  0  0  0
 24 26  1  0  0  0  0
 24 25  1  0  0  0  0
 26 27  1  0  0  0  0
 28 29  1  0  0  0  0
 28 26  2  0  0  0  0
 30 39  1  0  0  0  0
 31 30  2  0  0  0  0
 31 33  1  0  0  0  0
 32 31  1  0  0  0  0
 33 35  2  0  0  0  0
 34 33  1  0  0  0  0
 35 36  1  0  0  0  0
 35 37  1  0  0  0  0
 37 38  1  0  0  0  0
 39 40  1  0  0  0  0
 39 37  2  0  0  0  0
M  END
