3,5
q = -2.0, confidence = 0.634

 56 56  0  0  1  0  0  0  0  0999 V2000
    2.8498   -0.0171   -0.3893 Si  0  0  0  0  0  0  0  0  0  0  0  0
    0.9257    0.0124   -0.2781 C   0  0  2  0  0  3  0  0  0  0  0  0
   -0.1158   -1.0275   -0.5141 C   0  0  1  0  0  3  0  0  0  0  0  0
   -1.1407    0.0339   -0.7074 C   0  0  1  0  0  3  0  0  0  0  0  0
   -0.1060    1.0567   -0.4445 C   0  0  2  0  0  3  0  0  0  0  0  0
    3.7495   -1.0791    0.8985 C   0  0  0  0  0  0  0  0  0  0  0  0
    3.3921   -2.1159    1.0142 H   0  0  0  0  0  0  0  0  0  0  0  0
    3.6934   -0.5901    1.8910 H   0  0  0  0  0  0  0  0  0  0  0  0
    4.8192   -1.1141    0.6025 H   0  0  0  0  0  0  0  0  0  0  0  0
    3.2588   -0.5709   -2.1654 C   0  0  0  0  0  0  0  0  0  0  0  0
    2.9533   -1.6077   -2.4020 H   0  0  0  0  0  0  0  0  0  0  0  0
    4.3544   -0.4972   -2.3255 H   0  0  0  0  0  0  0  0  0  0  0  0
    2.7661    0.0980   -2.9008 H   0  0  0  0  0  0  0  0  0  0  0  0
    3.7812    1.6335   -0.2083 C   0  0  0  0  0  0  0  0  0  0  0  0
    3.4620    2.4439   -0.8884 H   0  0  0  0  0  0  0  0  0  0  0  0
    4.8363    1.3865   -0.4545 H   0  0  0  0  0  0  0  0  0  0  0  0
    3.7735    2.0229    0.8284 H   0  0  0  0  0  0  0  0  0  0  0  0
    0.0030   -2.5146   -0.8489 C   0  0  0  0  0  0  0  0  0  0  0  0
   -0.0199   -2.6494   -2.3921 C   0  0  0  0  0  0  0  0  0  0  0  0
    0.1527   -3.7039   -2.6906 H   0  0  0  0  0  0  0  0  0  0  0  0
    0.7685   -2.0259   -2.8578 H   0  0  0  0  0  0  0  0  0  0  0  0
   -0.9915   -2.3317   -2.8174 H   0  0  0  0  0  0  0  0  0  0  0  0
    1.3337   -3.0834   -0.3283 C   0  0  0  0  0  0  0  0  0  0  0  0
    2.2115   -2.6248   -0.8137 H   0  0  0  0  0  0  0  0  0  0  0  0
    1.3769   -4.1708   -0.5379 H   0  0  0  0  0  0  0  0  0  0  0  0
    1.4191   -2.9458    0.7667 H   0  0  0  0  0  0  0  0  0  0  0  0
   -1.0890   -3.4054   -0.2218 C   0  0  0  0  0  0  0  0  0  0  0  0
   -2.1133   -3.0871   -0.4628 H   0  0  0  0  0  0  0  0  0  0  0  0
   -0.9861   -3.4253    0.8799 H   0  0  0  0  0  0  0  0  0  0  0  0
   -0.9645   -4.4443   -0.5901 H   0  0  0  0  0  0  0  0  0  0  0  0
   -2.5517    0.1303   -1.2967 C   0  0  0  0  0  0  0  0  0  0  0  0
   -3.2944   -1.2147   -1.3955 C   0  0  0  0  0  0  0  0  0  0  0  0
   -2.7748   -1.9439   -2.0433 H   0  0  0  0  0  0  0  0  0  0  0  0
   -4.2929   -1.0332   -1.8417 H   0  0  0  0  0  0  0  0  0  0  0  0
   -3.4585   -1.6678   -0.4003 H   0  0  0  0  0  0  0  0  0  0  0  0
   -2.4099    0.6780   -2.7394 C   0  0  0  0  0  0  0  0  0  0  0  0
   -1.9664    1.6905   -2.7597 H   0  0  0  0  0  0  0  0  0  0  0  0
   -3.4039    0.7330   -3.2286 H   0  0  0  0  0  0  0  0  0  0  0  0
   -1.7639    0.0154   -3.3502 H   0  0  0  0  0  0  0  0  0  0  0  0
   -3.4628    1.0472   -0.4519 C   0  0  0  0  0  0  0  0  0  0  0  0
   -3.0226    2.0367   -0.2620 H   0  0  0  0  0  0  0  0  0  0  0  0
   -3.6761    0.5794    0.5285 H   0  0  0  0  0  0  0  0  0  0  0  0
   -4.4288    1.1991   -0.9758 H   0  0  0  0  0  0  0  0  0  0  0  0
    0.1104    2.5578   -0.6586 C   0  0  0  0  0  0  0  0  0  0  0  0
    1.0133    3.1307    0.4597 C   0  0  0  0  0  0  0  0  0  0  0  0
    1.7588    2.4036    0.8143 H   0  0  0  0  0  0  0  0  0  0  0  0
    0.4055    3.4261    1.3344 H   0  0  0  0  0  0  0  0  0  0  0  0
    1.5492    4.0328    0.1017 H   0  0  0  0  0  0  0  0  0  0  0  0
   -1.1486    3.4440   -0.6845 C   0  0  0  0  0  0  0  0  0  0  0  0
   -1.8339    3.2063   -1.5185 H   0  0  0  0  0  0  0  0  0  0  0  0
   -0.8289    4.4979   -0.8150 H   0  0  0  0  0  0  0  0  0  0  0  0
   -1.7085    3.3891    0.2681 H   0  0  0  0  0  0  0  0  0  0  0  0
    0.7987    2.6905   -2.0431 C   0  0  0  0  0  0  0  0  0  0  0  0
    1.0069    3.7563   -2.2683 H   0  0  0  0  0  0  0  0  0  0  0  0
    0.1502    2.2905   -2.8476 H   0  0  0  0  0  0  0  0  0  0  0  0
    1.7556    2.1388   -2.0828 H   0  0  0  0  0  0  0  0  0  0  0  0
  1 14  1  0  0  0  0
  1  6  1  0  0  0  0
  2  1  1  6  0  0  0
  3 18  1  6  0  0  0
  3  2  1  0  0  0  0
  4 31  1  6  0  0  0
  4  3  1  0  0  0  0
  4  5  1  0  0  0  0
  5 44  1  6  0  0  0
  5  2  1  0  0  0  0
  6  7  1  0  0  0  0
  6  8  1  0  0  0  0
  9  6  1  0  0  0  0
 10  1  1  0  0  0  0
 11 10  1  0  0  0  0
 12 10  1  0  0  0  0
 13 10  1  0  0  0  0
 14 17  1  0  0  0  0
 15 14  1  0  0  0  0
 16 14  1  0  0  0  0
 18 23  1  0  0  0  0
 18 27  1  0  0  0  0
 19 18  1  0  0  0  0
 20 19  1  0  0  0  0
 21 19  1  0  0  0  0
 22 19  1  0  0  0  0
 23 26  1  0  0  0  0
 24 23  1  0  0  0  0
 25 23  1  0  0  0  0
 27 29  1  0  0  0  0
 28 27  1  0  0  0  0
 30 27  1  0  0  0  0
 31 40  1  0  0  0  0
 32 31  1  0  0  0  0
 32 35  1  0  0  0  0
 33 32  1  0  0  0  0
 34 32  1  0  0  0  0
 36 31  1  0  0  0  0
 37 36  1  0  0  0  0
 38 36  1  0  0  0  0
 39 36  1  0  0  0  0
 40 41  1  0  0  0  0
 40 42  1  0  0  0  0
 43 40  1  0  0  0  0
 44 45  1  0  0  0  0
 45 46  1  0  0  0  0
 45 47  1  0  0  0  0
 48 45  1  0  0  0  0
 49 44  1  0  0  0  0
 49 52  1  0  0  0  0
 50 49  1  0  0  0  0
 51 49  1  0  0  0  0
 53 44  1  0  0  0  0
 54 53  1  0  0  0  0
 55 53  1  0  0  0  0
 56 53  1  0  0  0  0
M  END
