6,8
q = 0.0, confidence = 0.988

 24 24  0  0  1  0  0  0  0  0999 V2000
   -5.1995    0.1235    0.9514 C   0  0  0  0  0  0  0  0  0  0  0  0
   -3.9102    0.4286    0.1632 C   0  0  2  0  0  0  0  0  0  0  0  0
   -4.1852    1.1399   -1.1737 C   0  0  0  0  0  0  0  0  0  0  0  0
   -4.8309    2.5183   -1.0270 C   0  0  0  0  0  0  0  0  0  0  0  0
   -3.1255   -0.8616    0.0098 C   0  0  1  0  0  3  0  0  0  0  0  0
   -2.3398   -1.3583    1.1031 C   0  0  0  0  0  3  0  0  0  0  0  0
   -1.6831   -2.6338    1.0620 C   0  0  0  0  0  3  0  0  0  0  0  0
   -1.7416   -3.3871   -0.1439 C   0  0  0  0  0  3  0  0  0  0  0  0
   -2.5129   -2.9285   -1.2644 C   0  0  0  0  0  0  0  0  0  0  0  0
   -3.1575   -1.6652   -1.1836 C   0  0  0  0  0  0  0  0  0  0  0  0
   -5.8654   -0.5512    0.3736 H   0  0  0  0  0  0  0  0  0  0  0  0
   -5.7613    1.0523    1.1720 H   0  0  0  0  0  0  0  0  0  0  0  0
   -4.9758   -0.3709    1.9180 H   0  0  0  0  0  0  0  0  0  0  0  0
   -3.2875    1.1073    0.7844 H   0  0  0  0  0  0  0  0  0  0  0  0
   -4.8455    0.5010   -1.8018 H   0  0  0  0  0  0  0  0  0  0  0  0
   -3.2234    1.2234   -1.7227 H   0  0  0  0  0  0  0  0  0  0  0  0
   -4.9200    3.0188   -2.0118 H   0  0  0  0  0  0  0  0  0  0  0  0
   -4.2260    3.1757   -0.3702 H   0  0  0  0  0  0  0  0  0  0  0  0
   -5.8505    2.4647   -0.5937 H   0  0  0  0  0  0  0  0  0  0  0  0
   -2.2313   -0.7237    1.9959 H   0  0  0  0  0  0  0  0  0  0  0  0
   -1.0686   -2.9727    1.9071 H   0  0  0  0  0  0  0  0  0  0  0  0
   -1.1239   -4.2901   -0.2498 H   0  0  0  0  0  0  0  0  0  0  0  0
   -2.4862   -3.4787   -2.2142 H   0  0  0  0  0  0  0  0  0  0  0  0
   -3.6271   -1.2563   -2.0885 H   0  0  0  0  0  0  0  0  0  0  0  0
  1 12  1  0  0  0  0
  1 13  1  0  0  0  0
  2 14  1  1  0  0  0
  2  1  1  0  0  0  0
  3  4  1  0  0  0  0
  3  2  1  0  0  0  0
  4 19  1  0  0  0  0
  4 18  1  0  0  0  0
  5  2  1  1  0  0  0
  5  6  1  0  0  0  0
  6 20  1  0  0  0  0
  7  6  1  0  0  0  0
  7 21  1  0  0  0  0
  8  7  1  0  0  0  0
  9 10  2  0  0  0  0
  9  8  1  0  0  0  0
 10  5  1  0  0  0  0
 11  1  1  0  0  0  0
 15  3  1  0  0  0  0
 16  3  1  0  0  0  0
 17  4  1  0  0  0  0
 22  8  1  0  0  0  0
 23  9  1  0  0  0  0
 24 10  1  0  0  0  0
M  END
