42
q = -2.0, confidence = 0.698

 79 88  0  0  1  0  0  0  0  0999 V2000
    0.0000   -3.4127    0.0001 Si  0  0  0  0  0  0  0  0  0  0  0  0
   -3.5623    0.4851    0.4629 N   0  0  0  0  0  0  0  0  0  0  0  0
   -1.1440   -2.1479    0.8150 C   0  0  2  0  0  3  0  0  0  0  0  0
   -2.2267   -1.3938    0.2054 C   0  0  0  0  0  0  0  0  0  0  0  0
   -2.4899   -0.2193    0.9849 C   0  0  0  0  0  0  0  0  0  0  0  0
   -1.6528   -0.2010    2.1435 C   0  0  0  0  0  0  0  0  0  0  0  0
   -1.5460    0.6588    3.2692 C   0  0  0  0  0  0  0  0  0  0  0  0
   -0.5889    0.3834    4.2340 C   0  0  0  0  0  0  0  0  0  0  0  0
    0.2739   -0.7417    4.1100 C   0  0  0  0  0  0  0  0  0  0  0  0
    0.1760   -1.6133    3.0360 C   0  0  0  0  0  0  0  0  0  0  0  0
   -0.8104   -1.3962    2.0255 C   0  0  0  0  0  0  0  0  0  0  0  0
   -0.8370   -4.5952   -1.2145 C   0  0  0  0  0  0  0  0  0  0  0  0
   -3.9911   -0.1954   -0.6862 C   0  0  0  0  0  0  0  0  0  0  0  0
   -3.2058   -1.3853   -0.8693 C   0  0  0  0  0  0  0  0  0  0  0  0
   -3.5153   -2.2436   -1.9417 C   0  0  0  0  0  0  0  0  0  0  0  0
   -4.5387   -1.8967   -2.8308 C   0  0  0  0  0  0  0  0  0  0  0  0
   -5.2594   -0.6932   -2.6662 C   0  0  0  0  0  0  0  0  0  0  0  0
   -4.9983    0.1687   -1.5943 C   0  0  0  0  0  0  0  0  0  0  0  0
   -4.0370    1.7396    0.9289 C   0  0  0  0  0  0  0  0  0  0  0  0
   -3.1272    2.7841    1.1872 C   0  0  0  0  0  0  0  0  0  0  0  0
   -3.6022    4.0105    1.6715 C   0  0  0  0  0  0  0  0  0  0  0  0
   -4.9764    4.2114    1.8811 C   0  0  0  0  0  0  0  0  0  0  0  0
   -5.8798    3.1706    1.6129 C   0  0  0  0  0  0  0  0  0  0  0  0
   -5.4153    1.9323    1.1473 C   0  0  0  0  0  0  0  0  0  0  0  0
   -0.0911   -5.3586   -1.5181 H   0  0  0  0  0  0  0  0  0  0  0  0
   -1.6677   -5.1190   -0.6982 H   0  0  0  0  0  0  0  0  0  0  0  0
   -1.2374   -4.1439   -2.1379 H   0  0  0  0  0  0  0  0  0  0  0  0
   -2.2072    1.5306    3.3607 H   0  0  0  0  0  0  0  0  0  0  0  0
   -0.4894    1.0461    5.1062 H   0  0  0  0  0  0  0  0  0  0  0  0
    1.0368   -0.9253    4.8808 H   0  0  0  0  0  0  0  0  0  0  0  0
    0.8470   -2.4766    2.9766 H   0  0  0  0  0  0  0  0  0  0  0  0
   -2.9647   -3.1830   -2.0732 H   0  0  0  0  0  0  0  0  0  0  0  0
   -4.7832   -2.5674   -3.6677 H   0  0  0  0  0  0  0  0  0  0  0  0
   -6.0452   -0.4270   -3.3890 H   0  0  0  0  0  0  0  0  0  0  0  0
   -5.5580    1.1057   -1.4699 H   0  0  0  0  0  0  0  0  0  0  0  0
   -2.0570    2.6322    0.9875 H   0  0  0  0  0  0  0  0  0  0  0  0
   -2.8874    4.8229    1.8722 H   0  0  0  0  0  0  0  0  0  0  0  0
   -5.3436    5.1792    2.2542 H   0  0  0  0  0  0  0  0  0  0  0  0
   -6.9573    3.3160    1.7834 H   0  0  0  0  0  0  0  0  0  0  0  0
   -6.1132    1.1018    0.9688 H   0  0  0  0  0  0  0  0  0  0  0  0
    3.5623    0.4851   -0.4630 N   0  0  0  0  0  0  0  0  0  0  0  0
    1.1440   -2.1479   -0.8150 C   0  0  2  0  0  3  0  0  0  0  0  0
    2.2267   -1.3938   -0.2054 C   0  0  0  0  0  0  0  0  0  0  0  0
    2.4899   -0.2193   -0.9850 C   0  0  0  0  0  0  0  0  0  0  0  0
    1.6528   -0.2010   -2.1435 C   0  0  0  0  0  0  0  0  0  0  0  0
    1.5459    0.6587   -3.2693 C   0  0  0  0  0  0  0  0  0  0  0  0
    0.5888    0.3833   -4.2340 C   0  0  0  0  0  0  0  0  0  0  0  0
   -0.2740   -0.7418   -4.1099 C   0  0  0  0  0  0  0  0  0  0  0  0
   -0.1760   -1.6133   -3.0359 C   0  0  0  0  0  0  0  0  0  0  0  0
    0.8104   -1.3962   -2.0255 C   0  0  0  0  0  0  0  0  0  0  0  0
    0.8371   -4.5951    1.2147 C   0  0  0  0  0  0  0  0  0  0  0  0
    3.9911   -0.1954    0.6861 C   0  0  0  0  0  0  0  0  0  0  0  0
    3.2059   -1.3853    0.8693 C   0  0  0  0  0  0  0  0  0  0  0  0
    3.5153   -2.2435    1.9417 C   0  0  0  0  0  0  0  0  0  0  0  0
    4.5388   -1.8966    2.8308 C   0  0  0  0  0  0  0  0  0  0  0  0
    5.2595   -0.6932    2.6661 C   0  0  0  0  0  0  0  0  0  0  0  0
    4.9984    0.1688    1.5942 C   0  0  0  0  0  0  0  0  0  0  0  0
    4.0370    1.7396   -0.9290 C   0  0  0  0  0  0  0  0  0  0  0  0
    3.1270    2.7841   -1.1871 C   0  0  0  0  0  0  0  0  0  0  0  0
    3.6020    4.0106   -1.6714 C   0  0  0  0  0  0  0  0  0  0  0  0
    4.9762    4.2116   -1.8811 C   0  0  0  0  0  0  0  0  0  0  0  0
    5.8796    3.1707   -1.6130 C   0  0  0  0  0  0  0  0  0  0  0  0
    5.4152    1.9325   -1.1474 C   0  0  0  0  0  0  0  0  0  0  0  0
    0.0912   -5.3584    1.5184 H   0  0  0  0  0  0  0  0  0  0  0  0
    1.6677   -5.1189    0.6984 H   0  0  0  0  0  0  0  0  0  0  0  0
    1.2375   -4.1436    2.1380 H   0  0  0  0  0  0  0  0  0  0  0  0
    2.2071    1.5305   -3.3609 H   0  0  0  0  0  0  0  0  0  0  0  0
    0.4893    1.0460   -5.1062 H   0  0  0  0  0  0  0  0  0  0  0  0
   -1.0369   -0.9254   -4.8808 H   0  0  0  0  0  0  0  0  0  0  0  0
   -0.8471   -2.4767   -2.9765 H   0  0  0  0  0  0  0  0  0  0  0  0
    2.9647   -3.1830    2.0732 H   0  0  0  0  0  0  0  0  0  0  0  0
    4.7833   -2.5673    3.6677 H   0  0  0  0  0  0  0  0  0  0  0  0
    6.0453   -0.4269    3.3889 H   0  0  0  0  0  0  0  0  0  0  0  0
    5.5581    1.1057    1.4698 H   0  0  0  0  0  0  0  0  0  0  0  0
    2.0569    2.6322   -0.9874 H   0  0  0  0  0  0  0  0  0  0  0  0
    2.8871    4.8229   -1.8720 H   0  0  0  0  0  0  0  0  0  0  0  0
    5.3433    5.1794   -2.2542 H   0  0  0  0  0  0  0  0  0  0  0  0
    6.9571    3.3162   -1.7836 H   0  0  0  0  0  0  0  0  0  0  0  0
    6.1132    1.1020   -0.9690 H   0  0  0  0  0  0  0  0  0  0  0  0
  1 51  1  0  0  0  0
  2 19  1  0  0  0  0
  2  5  1  0  0  0  0
  3  1  1  6  0  0  0
  3 11  1  0  0  0  0
  4  3  1  0  0  0  0
  4  5  2  0  0  0  0
  5  6  1  0  0  0  0
  6  7  1  0  0  0  0
  7 28  1  0  0  0  0
  7  8  2  0  0  0  0
  8 29  1  0  0  0  0
  9  8  1  0  0  0  0
  9 30  1  0  0  0  0
 10  9  2  0  0  0  0
 11  6  2  0  0  0  0
 11 10  1  0  0  0  0
 12 26  1  0  0  0  0
 12  1  1  0  0  0  0
 13  2  1  0  0  0  0
 14 13  1  0  0  0  0
 14  4  1  0  0  0  0
 15 14  2  0  0  0  0
 16 17  2  0  0  0  0
 16 15  1  0  0  0  0
 17 18  1  0  0  0  0
 18 35  1  0  0  0  0
 18 13  2  0  0  0  0
 19 24  2  0  0  0  0
 19 20  1  0  0  0  0
 20 21  2  0  0  0  0
 21 37  1  0  0  0  0
 21 22  1  0  0  0  0
 22 38  1  0  0  0  0
 23 39  1  0  0  0  0
 23 22  2  0  0  0  0
 24 23  1  0  0  0  0
 25 12  1  0  0  0  0
 27 12  1  0  0  0  0
 31 10  1  0  0  0  0
 32 15  1  0  0  0  0
 33 16  1  0  0  0  0
 34 17  1  0  0  0  0
 36 20  1  0  0  0  0
 40 24  1  0  0  0  0
 41 52  1  0  0  0  0
 42 43  1  0  0  0  0
 42  1  1  1  0  0  0
 43 53  1  0  0  0  0
 44 41  1  0  0  0  0
 44 43  2  0  0  0  0
 45 50  1  0  0  0  0
 45 44  1  0  0  0  0
 46 45  2  0  0  0  0
 47 48  2  0  0  0  0
 47 46  1  0  0  0  0
 48 49  1  0  0  0  0
 49 70  1  0  0  0  0
 49 50  2  0  0  0  0
 50 42  1  0  0  0  0
 51 64  1  0  0  0  0
 51 66  1  0  0  0  0
 52 53  2  0  0  0  0
 52 57  1  0  0  0  0
 53 54  1  0  0  0  0
 54 71  1  0  0  0  0
 54 55  2  0  0  0  0
 55 72  1  0  0  0  0
 56 55  1  0  0  0  0
 56 73  1  0  0  0  0
 57 56  2  0  0  0  0
 58 41  1  0  0  0  0
 59 75  1  0  0  0  0
 59 58  2  0  0  0  0
 60 59  1  0  0  0  0
 61 60  2  0  0  0  0
 61 62  1  0  0  0  0
 62 63  2  0  0  0  0
 63 79  1  0  0  0  0
 63 58  1  0  0  0  0
 65 51  1  0  0  0  0
 67 46  1  0  0  0  0
 68 47  1  0  0  0  0
 69 48  1  0  0  0  0
 74 57  1  0  0  0  0
 76 60  1  0  0  0  0
 77 61  1  0  0  0  0
 78 62  1  0  0  0  0
M  END
