5,9
q = 0.0, confidence = 0.992

 36 37  0  0  1  0  0  0  0  0999 V2000
   -7.8018    0.9106   -0.9030 O   0  0  0  0  0  0  0  0  0  0  0  0
   -8.0962   -0.5577    0.6918 O   0  0  0  0  0  0  0  0  0  0  0  0
    4.8976   -1.4761   -0.4949 N   0  0  0  0  0  0  0  0  0  0  0  0
   -7.3889    0.0815   -0.0895 N   0  0  0  0  0  0  0  0  0  0  0  0
    1.5529   -0.2634   -1.6676 C   0  0  0  0  0  3  0  0  0  0  0  0
    2.9518   -0.4977   -1.6265 C   0  0  0  0  0  3  0  0  0  0  0  0
    3.5502   -1.2102   -0.5310 C   0  0  0  0  0  0  0  0  0  0  0  0
    2.6854   -1.5523    0.5675 C   0  0  0  0  0  0  0  0  0  0  0  0
    1.2894   -1.3098    0.5075 C   0  0  0  0  0  3  0  0  0  0  0  0
    0.6647   -0.7108   -0.6355 C   0  0  1  0  0  3  0  0  0  0  0  0
   -0.7612   -0.4251   -0.7214 C   0  0  0  0  0  0  0  0  0  0  0  0
   -1.7333   -0.9293    0.0900 C   0  0  0  0  0  0  0  0  0  0  0  0
   -3.1611   -0.6392    0.0183 C   0  0  0  0  0  0  0  0  0  0  0  0
   -3.7198    0.3075   -0.8824 C   0  0  0  0  0  0  0  0  0  0  0  0
   -5.0926    0.5441   -0.9215 C   0  0  0  0  0  0  0  0  0  0  0  0
   -5.9333   -0.1666   -0.0495 C   0  0  0  0  0  0  0  0  0  0  0  0
   -5.4230   -1.1030    0.8599 C   0  0  0  0  0  0  0  0  0  0  0  0
   -4.0462   -1.3303    0.8874 C   0  0  0  0  0  0  0  0  0  0  0  0
    5.7742   -0.8523   -1.4749 C   0  0  0  0  0  0  0  0  0  0  0  0
    5.5026   -1.9454    0.7427 C   0  0  0  0  0  0  0  0  0  0  0  0
    1.1368    0.2851   -2.5251 H   0  0  0  0  0  0  0  0  0  0  0  0
    3.5698   -0.1040   -2.4397 H   0  0  0  0  0  0  0  0  0  0  0  0
    3.0987   -1.9800    1.4866 H   0  0  0  0  0  0  0  0  0  0  0  0
    0.6793   -1.5741    1.3818 H   0  0  0  0  0  0  0  0  0  0  0  0
   -1.0435    0.2542   -1.5428 H   0  0  0  0  0  0  0  0  0  0  0  0
   -1.4443   -1.6396    0.8827 H   0  0  0  0  0  0  0  0  0  0  0  0
   -3.0646    0.8759   -1.5581 H   0  0  0  0  0  0  0  0  0  0  0  0
   -5.5402    1.2730   -1.6099 H   0  0  0  0  0  0  0  0  0  0  0  0
   -6.1189   -1.6313    1.5250 H   0  0  0  0  0  0  0  0  0  0  0  0
   -3.6323   -2.0633    1.5970 H   0  0  0  0  0  0  0  0  0  0  0  0
    6.7958   -1.2540   -1.3499 H   0  0  0  0  0  0  0  0  0  0  0  0
    5.8176    0.2550   -1.3608 H   0  0  0  0  0  0  0  0  0  0  0  0
    5.4495   -1.0894   -2.5076 H   0  0  0  0  0  0  0  0  0  0  0  0
    6.5572   -2.2115    0.5477 H   0  0  0  0  0  0  0  0  0  0  0  0
    4.9945   -2.8581    1.1121 H   0  0  0  0  0  0  0  0  0  0  0  0
    5.4801   -1.1744    1.5465 H   0  0  0  0  0  0  0  0  0  0  0  0
  1  4  2  0  0  0  0
  3 20  1  0  0  0  0
  4 16  1  0  0  0  0
  4  2  2  0  0  0  0
  5  6  1  0  0  0  0
  5 10  1  0  0  0  0
  6  7  1  0  0  0  0
  7  3  1  0  0  0  0
  7  8  2  0  0  0  0
  8 23  1  0  0  0  0
  9  8  1  0  0  0  0
  9 24  1  0  0  0  0
 10 11  1  1  0  0  0
 10  9  1  0  0  0  0
 11 12  2  0  0  0  0
 12 26  1  0  0  0  0
 13 12  1  0  0  0  0
 13 18  1  0  0  0  0
 14 13  2  0  0  0  0
 15 14  1  0  0  0  0
 15 16  2  0  0  0  0
 16 17  1  0  0  0  0
 17 18  2  0  0  0  0
 17 29  1  0  0  0  0
 18 30  1  0  0  0  0
 19 32  1  0  0  0  0
 19 31  1  0  0  0  0
 19  3  1  0  0  0  0
 20 35  1  0  0  0  0
 20 36  1  0  0  0  0
 21  5  1  0  0  0  0
 22  6  1  0  0  0  0
 25 11  1  0  0  0  0
 27 14  1  0  0  0  0
 28 15  1  0  0  0  0
 33 19  1  0  0  0  0
 34 20  1  0  0  0  0
M  END
