8,11
q = -2.0, confidence = 0.798

 31 33  0  0  1  0  0  0  0  0999 V2000
   -2.5122   -1.1021   -0.4830 C   0  0  2  0  0  0  0  0  0  0  0  0
   -2.8139    0.1938   -1.2562 C   0  0  0  0  0  0  0  0  0  0  0  0
   -2.3389    1.2956   -0.2860 C   0  0  1  0  0  0  0  0  0  0  0  0
   -2.7213    0.7416    1.1254 C   0  0  0  0  0  0  0  0  0  0  0  0
   -3.0724   -0.7529    0.9110 C   0  0  0  0  0  0  0  0  0  0  0  0
   -1.0438   -1.4677   -0.4845 C   0  0  0  0  0  0  0  0  0  0  0  0
   -0.3113   -2.0676    0.5800 C   0  0  0  0  0  0  0  0  0  0  0  0
    0.9926   -2.3966    0.1202 C   0  0  0  0  0  3  0  0  0  0  0  0
    1.0718   -2.0373   -1.2561 C   0  0  0  0  0  0  0  0  0  0  0  0
   -0.1662   -1.4560   -1.6263 C   0  0  0  0  0  0  0  0  0  0  0  0
   -0.8621    1.5883   -0.4242 C   0  0  1  0  0  3  0  0  0  0  0  0
   -0.0572    1.4730   -1.6118 C   0  0  0  0  0  3  0  0  0  0  0  0
    1.2523    1.9281   -1.3204 C   0  0  0  0  0  0  0  0  0  0  0  0
    1.2794    2.3413    0.0434 C   0  0  0  0  0  0  0  0  0  0  0  0
   -0.0209    2.1578    0.5780 C   0  0  0  0  0  3  0  0  0  0  0  0
   -3.0558   -1.9659   -0.9253 H   0  0  0  0  0  0  0  0  0  0  0  0
   -2.3484    0.2463   -2.2591 H   0  0  0  0  0  0  0  0  0  0  0  0
   -3.9094    0.2751   -1.4080 H   0  0  0  0  0  0  0  0  0  0  0  0
   -2.8752    2.2472   -0.4911 H   0  0  0  0  0  0  0  0  0  0  0  0
   -1.8763    0.8409    1.8327 H   0  0  0  0  0  0  0  0  0  0  0  0
   -3.5753    1.2983    1.5574 H   0  0  0  0  0  0  0  0  0  0  0  0
   -4.1718   -0.8956    0.8899 H   0  0  0  0  0  0  0  0  0  0  0  0
   -2.6848   -1.4042    1.7172 H   0  0  0  0  0  0  0  0  0  0  0  0
   -0.6674   -2.2004    1.6057 H   0  0  0  0  0  0  0  0  0  0  0  0
    1.8086   -2.7989    0.7299 H   0  0  0  0  0  0  0  0  0  0  0  0
    1.9562   -2.1319   -1.8945 H   0  0  0  0  0  0  0  0  0  0  0  0
   -0.4263   -1.1049   -2.6300 H   0  0  0  0  0  0  0  0  0  0  0  0
   -0.3996    1.1210   -2.5891 H   0  0  0  0  0  0  0  0  0  0  0  0
    2.1087    1.9079   -2.0025 H   0  0  0  0  0  0  0  0  0  0  0  0
    2.1624    2.6781    0.5971 H   0  0  0  0  0  0  0  0  0  0  0  0
   -0.3103    2.3620    1.6131 H   0  0  0  0  0  0  0  0  0  0  0  0
  1 16  1  6  0  0  0
  1  5  1  0  0  0  0
  2  1  1  0  0  0  0
  2  3  1  0  0  0  0
  3 19  1  6  0  0  0
  3  4  1  0  0  0  0
  4 21  1  0  0  0  0
  4 20  1  0  0  0  0
  5  4  1  0  0  0  0
  5 23  1  0  0  0  0
  6  1  1  0  0  0  0
  6  7  2  0  0  0  0
  7 24  1  0  0  0  0
  8  7  1  0  0  0  0
  8 25  1  0  0  0  0
  9  8  1  0  0  0  0
 10  9  2  0  0  0  0
 10  6  1  0  0  0  0
 11 12  1  6  0  0  0
 11  3  1  0  0  0  0
 11 15  1  0  0  0  0
 12 13  1  0  0  0  0
 13 14  2  0  0  0  0
 14 15  1  0  0  0  0
 14 30  1  0  0  0  0
 15 31  1  0  0  0  0
 17  2  1  0  0  0  0
 18  2  1  0  0  0  0
 22  5  1  0  0  0  0
 26  9  1  0  0  0  0
 27 10  1  0  0  0  0
 28 12  1  0  0  0  0
 29 13  1  0  0  0  0
M  END
