1,13
q = -2.0, confidence = 0.582

 50 50  0  0  1  0  0  0  0  0999 V2000
    1.1767    2.0093   -0.1056 C   0  0  0  0  0  3  0  0  0  0  0  0
   -2.1843   -2.3931    0.7438 C   0  0  0  0  0  0  0  0  0  0  0  0
   -3.0407   -2.2393    0.0535 H   0  0  0  0  0  0  0  0  0  0  0  0
   -0.6742   -1.7748   -0.2326 P   0  0  0  0  0  0  0  0  0  0  0  0
   -2.5367    1.3160   -0.0907 C   0  0  0  0  0  0  0  0  0  0  0  0
   -0.1534    2.3227   -0.2983 C   0  0  0  0  0  0  0  0  0  0  0  0
   -2.3047   -2.7658   -2.4052 C   0  0  0  0  0  0  0  0  0  0  0  0
   -2.3191   -3.0916   -3.4669 H   0  0  0  0  0  0  0  0  0  0  0  0
   -2.8713   -1.8168   -2.3381 H   0  0  0  0  0  0  0  0  0  0  0  0
   -2.8544   -3.5337   -1.8239 H   0  0  0  0  0  0  0  0  0  0  0  0
   -3.4885    0.7135   -0.9430 C   0  0  0  0  0  0  0  0  0  0  0  0
   -3.1301    0.2045   -1.8500 H   0  0  0  0  0  0  0  0  0  0  0  0
   -0.4877   -0.0641   -0.5314 C   0  0  0  0  0  2  0  0  0  0  0  0
   -1.0783    1.1632   -0.3470 C   0  0  1  0  0  3  0  0  0  0  0  0
   -1.2089    3.9155   -1.9774 C   0  0  0  0  0  0  0  0  0  0  0  0
   -1.6073    4.9394   -2.1330 H   0  0  0  0  0  0  0  0  0  0  0  0
   -2.0201    3.1990   -2.2211 H   0  0  0  0  0  0  0  0  0  0  0  0
   -0.3915    3.7488   -2.7088 H   0  0  0  0  0  0  0  0  0  0  0  0
   -5.3079    1.4360    0.5010 C   0  0  0  0  0  0  0  0  0  0  0  0
   -6.3831    1.4809    0.7315 H   0  0  0  0  0  0  0  0  0  0  0  0
   -0.8573   -2.6086   -1.9304 C   0  0  0  0  0  0  0  0  0  0  0  0
   -0.3709   -1.8530   -2.5809 H   0  0  0  0  0  0  0  0  0  0  0  0
   -2.4553   -1.5767    2.0081 C   0  0  0  0  0  0  0  0  0  0  0  0
   -3.4169   -1.9011    2.4585 H   0  0  0  0  0  0  0  0  0  0  0  0
   -2.5393   -0.4957    1.7920 H   0  0  0  0  0  0  0  0  0  0  0  0
   -1.6697   -1.7254    2.7745 H   0  0  0  0  0  0  0  0  0  0  0  0
   -0.0786   -3.9260   -2.0274 C   0  0  0  0  0  0  0  0  0  0  0  0
   -0.0889   -4.3066   -3.0707 H   0  0  0  0  0  0  0  0  0  0  0  0
   -0.5236   -4.7138   -1.3867 H   0  0  0  0  0  0  0  0  0  0  0  0
    0.9769   -3.8060   -1.7175 H   0  0  0  0  0  0  0  0  0  0  0  0
   -4.8586    0.7738   -0.6538 C   0  0  0  0  0  0  0  0  0  0  0  0
   -5.5831    0.3029   -1.3361 H   0  0  0  0  0  0  0  0  0  0  0  0
   -4.3754    2.0453    1.3563 C   0  0  0  0  0  0  0  0  0  0  0  0
   -4.7179    2.5623    2.2660 H   0  0  0  0  0  0  0  0  0  0  0  0
   -3.0058    1.9938    1.0596 C   0  0  0  0  0  0  0  0  0  0  0  0
   -2.2770    2.4546    1.7443 H   0  0  0  0  0  0  0  0  0  0  0  0
    2.2218    3.1068   -0.0120 C   0  0  0  0  0  0  0  0  0  0  0  0
    1.8439    3.9446    0.6210 H   0  0  0  0  0  0  0  0  0  0  0  0
    3.1224    2.7304    0.5210 H   0  0  0  0  0  0  0  0  0  0  0  0
   -0.7116    3.7159   -0.5368 C   0  0  0  0  0  0  0  0  0  0  0  0
    0.0583    4.4778   -0.2997 H   0  0  0  0  0  0  0  0  0  0  0  0
   -1.5586    3.9186    0.1529 H   0  0  0  0  0  0  0  0  0  0  0  0
    2.6694    3.7009   -1.3592 C   0  0  0  0  0  0  0  0  0  0  0  0
    3.4044    4.5192   -1.2105 H   0  0  0  0  0  0  0  0  0  0  0  0
    1.8103    4.1160   -1.9225 H   0  0  0  0  0  0  0  0  0  0  0  0
    3.1472    2.9396   -2.0062 H   0  0  0  0  0  0  0  0  0  0  0  0
   -2.0431   -3.8869    1.0583 C   0  0  0  0  0  0  0  0  0  0  0  0
   -2.9215   -4.2449    1.6364 H   0  0  0  0  0  0  0  0  0  0  0  0
   -1.1378   -4.0832    1.6707 H   0  0  0  0  0  0  0  0  0  0  0  0
   -1.9714   -4.5116    0.1467 H   0  0  0  0  0  0  0  0  0  0  0  0
  1 37  1  0  0  0  0
  2 47  1  0  0  0  0
  2 23  1  0  0  0  0
  3  2  1  0  0  0  0
  4  2  1  0  0  0  0
  5 35  1  0  0  0  0
  6  1  2  0  0  0  0
  7  9  1  0  0  0  0
  7 21  1  0  0  0  0
  7 10  1  0  0  0  0
  8  7  1  0  0  0  0
 11 31  1  0  0  0  0
 11  5  2  0  0  0  0
 12 11  1  0  0  0  0
 13  4  1  0  0  0  0
 14 13  1  1  0  0  0
 14  6  1  0  0  0  0
 14  5  1  0  0  0  0
 15 40  1  0  0  0  0
 16 15  1  0  0  0  0
 17 15  1  0  0  0  0
 18 15  1  0  0  0  0
 19 20  1  0  0  0  0
 19 33  1  0  0  0  0
 21  4  1  0  0  0  0
 22 21  1  0  0  0  0
 23 24  1  0  0  0  0
 23 26  1  0  0  0  0
 25 23  1  0  0  0  0
 27 21  1  0  0  0  0
 27 30  1  0  0  0  0
 27 29  1  0  0  0  0
 28 27  1  0  0  0  0
 31 19  2  0  0  0  0
 32 31  1  0  0  0  0
 33 34  1  0  0  0  0
 35 33  2  0  0  0  0
 35 36  1  0  0  0  0
 37 39  1  0  0  0  0
 37 38  1  0  0  0  0
 40 41  1  0  0  0  0
 40  6  1  0  0  0  0
 40 42  1  0  0  0  0
 43 44  1  0  0  0  0
 43 37  1  0  0  0  0
 45 43  1  0  0  0  0
 46 43  1  0  0  0  0
 47 48  1  0  0  0  0
 47 49  1  0  0  0  0
 50 47  1  0  0  0  0
M  END
