28,53
q = 0.0, confidence = 0.996

 62 66  0  0  0  0  0  0  0  0999 V2000
   -2.0949   -1.3328   -0.7140 N   0  0  0  0  0  0  0  0  0  0  0  0
   -0.6423   -1.6476   -2.2862 N   0  0  0  0  0  0  0  0  0  0  0  0
   -2.8243   -0.7844    0.3977 C   0  0  0  0  0  0  0  0  0  0  0  0
    3.4443   -2.7447    1.6538 C   0  0  0  0  0  0  0  0  0  0  0  0
    4.2697   -2.6410    2.3751 H   0  0  0  0  0  0  0  0  0  0  0  0
   -4.6829    0.5172    1.2320 C   0  0  0  0  0  0  0  0  0  0  0  0
   -5.5756    1.1358    1.0573 H   0  0  0  0  0  0  0  0  0  0  0  0
   -2.3853   -1.0654    1.7143 C   0  0  0  0  0  0  0  0  0  0  0  0
   -1.1503   -1.9082    1.9917 C   0  0  0  0  0  0  0  0  0  0  0  0
   -0.8741   -2.4186    1.0489 H   0  0  0  0  0  0  0  0  0  0  0  0
   -4.8098    1.7859   -1.4934 C   0  0  0  0  0  0  0  0  0  0  0  0
   -5.0174    1.9846   -2.5643 H   0  0  0  0  0  0  0  0  0  0  0  0
   -3.9969    2.4651   -1.1694 H   0  0  0  0  0  0  0  0  0  0  0  0
   -5.7244    2.0596   -0.9285 H   0  0  0  0  0  0  0  0  0  0  0  0
    2.1987   -0.6860   -1.1670 C   0  0  0  0  0  0  0  0  0  0  0  0
    2.5982   -3.8640    1.6982 C   0  0  0  0  0  0  0  0  0  0  0  0
    2.7489   -4.6399    2.4640 H   0  0  0  0  0  0  0  0  0  0  0  0
   -1.6036   -2.6313   -2.4522 C   0  0  0  0  0  0  0  0  0  0  0  0
   -1.5582   -3.3839   -3.2449 H   0  0  0  0  0  0  0  0  0  0  0  0
    2.1675   -1.8769   -0.2792 C   0  0  0  0  0  0  0  0  0  0  0  0
    5.8251    1.0422    0.3167 C   0  0  0  0  0  0  0  0  0  0  0  0
    6.7474    1.4568    0.7510 H   0  0  0  0  0  0  0  0  0  0  0  0
   -2.5237   -2.4377   -1.4537 C   0  0  0  0  0  0  0  0  0  0  0  0
   -3.4299   -2.9906   -1.1928 H   0  0  0  0  0  0  0  0  0  0  0  0
   -3.1256   -0.5156    2.7788 C   0  0  0  0  0  0  0  0  0  0  0  0
   -2.8010   -0.7083    3.8121 H   0  0  0  0  0  0  0  0  0  0  0  0
   -3.9679    0.0108    0.1305 C   0  0  0  0  0  0  0  0  0  0  0  0
    1.4387   -0.3785   -2.3480 C   0  0  0  0  0  3  0  0  0  0  0  0
    1.9150    0.3329   -3.0450 H   0  0  0  0  0  0  0  0  0  0  0  0
   -4.4308    0.3101   -1.2910 C   0  0  0  0  0  0  0  0  0  0  0  0
   -3.5794    0.0911   -1.9677 H   0  0  0  0  0  0  0  0  0  0  0  0
    5.2877    1.6093   -0.8583 C   0  0  0  0  0  0  0  0  0  0  0  0
    5.8041    2.4543   -1.3392 H   0  0  0  0  0  0  0  0  0  0  0  0
   -4.2653    0.2614    2.5442 C   0  0  0  0  0  0  0  0  0  0  0  0
   -4.8324    0.6763    3.3913 H   0  0  0  0  0  0  0  0  0  0  0  0
    3.4452    0.0335   -0.8046 C   0  0  0  0  0  0  0  0  0  0  0  0
    3.2441   -1.7695    0.6648 C   0  0  0  0  0  0  0  0  0  0  0  0
   -5.6034   -0.6052   -1.6912 C   0  0  0  0  0  0  0  0  0  0  0  0
   -5.3364   -1.6772   -1.6138 H   0  0  0  0  0  0  0  0  0  0  0  0
   -5.9184   -0.4075   -2.7363 H   0  0  0  0  0  0  0  0  0  0  0  0
   -6.4795   -0.4308   -1.0325 H   0  0  0  0  0  0  0  0  0  0  0  0
   -1.4032   -3.0013    3.0410 C   0  0  0  0  0  0  0  0  0  0  0  0
   -0.5128   -3.6579    3.1151 H   0  0  0  0  0  0  0  0  0  0  0  0
   -2.2774   -3.6300    2.7759 H   0  0  0  0  0  0  0  0  0  0  0  0
   -1.5840   -2.5775    4.0506 H   0  0  0  0  0  0  0  0  0  0  0  0
    5.2056   -0.0657    0.9139 C   0  0  0  0  0  0  0  0  0  0  0  0
    5.6459   -0.5361    1.8068 H   0  0  0  0  0  0  0  0  0  0  0  0
    4.0304   -0.5811    0.3415 C   0  0  0  0  0  0  0  0  0  0  0  0
    1.5692   -4.0037    0.7476 C   0  0  0  0  0  0  0  0  0  0  0  0
    0.9223   -4.8943    0.7707 H   0  0  0  0  0  0  0  0  0  0  0  0
    4.1064    1.1071   -1.4255 C   0  0  0  0  0  3  0  0  0  0  0  0
    3.7061    1.5565   -2.3468 H   0  0  0  0  0  0  0  0  0  0  0  0
   -0.9096   -0.8302   -1.2119 C   0  0  0  0  0  2  0  0  0  0  0  0
    0.5637   -1.4009   -3.0682 C   0  0  0  0  0  0  0  0  0  0  0  0
    0.2724   -1.0098   -4.0656 H   0  0  0  0  0  0  0  0  0  0  0  0
    1.0979   -2.3646   -3.2237 H   0  0  0  0  0  0  0  0  0  0  0  0
    1.3477   -3.0221   -0.2336 C   0  0  0  0  0  0  0  0  0  0  0  0
    0.5296   -3.1714   -0.9477 H   0  0  0  0  0  0  0  0  0  0  0  0
    0.0466   -1.0252    2.3794 C   0  0  0  0  0  0  0  0  0  0  0  0
   -0.1791   -0.4039    3.2714 H   0  0  0  0  0  0  0  0  0  0  0  0
    0.3172   -0.3505    1.5374 H   0  0  0  0  0  0  0  0  0  0  0  0
    0.9358   -1.6489    2.5970 H   0  0  0  0  0  0  0  0  0  0  0  0
  1  3  1  0  0  0  0
  2 53  1  0  0  0  0
  3  8  1  0  0  0  0
  4 16  1  0  0  0  0
  4  5  1  0  0  0  0
  6 34  2  0  0  0  0
  7  6  1  0  0  0  0
  8  9  1  0  0  0  0
  8 25  2  0  0  0  0
  9 59  1  0  0  0  0
  9 42  1  0  0  0  0
 10  9  1  0  0  0  0
 11 30  1  0  0  0  0
 11 13  1  0  0  0  0
 11 14  1  0  0  0  0
 12 11  1  0  0  0  0
 15 36  2  0  0  0  0
 15 20  1  0  0  0  0
 16 17  1  0  0  0  0
 18  2  1  0  0  0  0
 18 23  2  0  0  0  0
 19 18  1  0  0  0  0
 20 57  2  0  0  0  0
 20 37  1  0  0  0  0
 21 22  1  0  0  0  0
 21 46  1  0  0  0  0
 23 24  1  0  0  0  0
 23  1  1  0  0  0  0
 25 26  1  0  0  0  0
 27  3  2  0  0  0  0
 27  6  1  0  0  0  0
 28 15  1  0  0  0  0
 29 28  1  0  0  0  0
 30 27  1  0  0  0  0
 31 30  1  0  0  0  0
 32 21  2  0  0  0  0
 33 32  1  0  0  0  0
 34 25  1  0  0  0  0
 34 35  1  0  0  0  0
 36 48  1  0  0  0  0
 37  4  2  0  0  0  0
 38 39  1  0  0  0  0
 38 30  1  0  0  0  0
 38 41  1  0  0  0  0
 40 38  1  0  0  0  0
 42 43  1  0  0  0  0
 42 45  1  0  0  0  0
 44 42  1  0  0  0  0
 46 47  1  0  0  0  0
 48 37  1  0  0  0  0
 48 46  2  0  0  0  0
 49 50  1  0  0  0  0
 49 16  2  0  0  0  0
 51 32  1  0  0  0  0
 51 36  1  0  0  0  0
 52 51  1  0  0  0  0
 53  1  1  0  0  0  0
 54 28  1  0  0  0  0
 54  2  1  0  0  0  0
 55 54  1  0  0  0  0
 56 54  1  0  0  0  0
 57 49  1  0  0  0  0
 58 57  1  0  0  0  0
 59 62  1  0  0  0  0
 59 60  1  0  0  0  0
 61 59  1  0  0  0  0
M  END
