1
q = -2.0, confidence = 0.784

 80 89  0  0  1  0  0  0  0  0999 V2000
   -0.2272    0.1576   -1.5395 C   0  0  1  0  0  3  0  0  0  0  0  0
    0.7230    1.2286   -1.3247 C   0  0  1  0  0  3  0  0  0  0  0  0
    1.9736    0.6123   -0.9955 C   0  0  0  0  0  0  0  0  0  0  0  0
    1.8075   -0.8196   -1.0363 C   0  0  0  0  0  0  0  0  0  0  0  0
    0.4465   -1.1167   -1.3672 C   0  0  2  0  0  3  0  0  0  0  0  0
    3.3992    0.9136   -0.8015 C   0  0  0  0  0  0  0  0  0  0  0  0
    4.1767    2.0599   -0.6806 C   0  0  0  0  0  0  0  0  0  0  0  0
    3.7285    3.0625   -0.7152 H   0  0  0  0  0  0  0  0  0  0  0  0
    5.5853    1.9157   -0.5058 C   0  0  0  0  0  0  0  0  0  0  0  0
    6.1975    2.8256   -0.4122 H   0  0  0  0  0  0  0  0  0  0  0  0
    6.2091    0.6706   -0.4430 C   0  0  0  0  0  0  0  0  0  0  0  0
    7.2993    0.6046   -0.3038 H   0  0  0  0  0  0  0  0  0  0  0  0
    5.4378   -0.5275   -0.5610 C   0  0  0  0  0  0  0  0  0  0  0  0
    5.9159   -1.8744   -0.5306 C   0  0  0  0  0  0  0  0  0  0  0  0
    6.9918   -2.0671   -0.3968 H   0  0  0  0  0  0  0  0  0  0  0  0
    5.0267   -2.9387   -0.6721 C   0  0  0  0  0  0  0  0  0  0  0  0
    5.4160   -3.9679   -0.6462 H   0  0  0  0  0  0  0  0  0  0  0  0
    3.6233   -2.7475   -0.8413 C   0  0  0  0  0  0  0  0  0  0  0  0
    2.9595   -3.6180   -0.9366 H   0  0  0  0  0  0  0  0  0  0  0  0
    3.1270   -1.4491   -0.8774 C   0  0  0  0  0  0  0  0  0  0  0  0
    4.0455   -0.3612   -0.7409 C   0  0  0  0  0  0  0  0  0  0  0  0
    0.4896    2.6658   -1.5937 C   0  0  0  0  0  0  0  0  0  0  0  0
    0.9731    3.6814   -0.7389 C   0  0  0  0  0  0  0  0  0  0  0  0
    1.4819    3.3971    0.1931 H   0  0  0  0  0  0  0  0  0  0  0  0
    0.7603    5.0323   -1.0435 C   0  0  0  0  0  0  0  0  0  0  0  0
    1.1367    5.8066   -0.3574 H   0  0  0  0  0  0  0  0  0  0  0  0
    0.0616    5.4000   -2.2050 C   0  0  0  0  0  0  0  0  0  0  0  0
   -0.1076    6.4619   -2.4392 H   0  0  0  0  0  0  0  0  0  0  0  0
   -0.4115    4.4014   -3.0705 C   0  0  0  0  0  0  0  0  0  0  0  0
   -0.9439    4.6761   -3.9938 H   0  0  0  0  0  0  0  0  0  0  0  0
   -0.1950    3.0488   -2.7712 C   0  0  0  0  0  0  0  0  0  0  0  0
   -0.5358    2.2749   -3.4745 H   0  0  0  0  0  0  0  0  0  0  0  0
   -0.1115   -2.4612   -1.6444 C   0  0  0  0  0  0  0  0  0  0  0  0
   -0.8865   -2.6776   -2.8080 C   0  0  0  0  0  0  0  0  0  0  0  0
   -1.0597   -1.8446   -3.5042 H   0  0  0  0  0  0  0  0  0  0  0  0
   -1.4103   -3.9448   -3.0989 C   0  0  0  0  0  0  0  0  0  0  0  0
   -2.0083   -4.0906   -4.0114 H   0  0  0  0  0  0  0  0  0  0  0  0
   -1.1625   -5.0263   -2.2382 C   0  0  0  0  0  0  0  0  0  0  0  0
   -1.5755   -6.0208   -2.4650 H   0  0  0  0  0  0  0  0  0  0  0  0
   -0.3774   -4.8290   -1.0911 C   0  0  0  0  0  0  0  0  0  0  0  0
   -0.1750   -5.6690   -0.4091 H   0  0  0  0  0  0  0  0  0  0  0  0
    0.1446   -3.5620   -0.7955 C   0  0  0  0  0  0  0  0  0  0  0  0
    0.7285   -3.4047    0.1233 H   0  0  0  0  0  0  0  0  0  0  0  0
   -2.0198   -0.0975    0.6291 C   0  0  0  0  0  3  0  0  0  0  0  0
   -1.8651   -1.0971    1.6669 C   0  0  0  0  0  0  0  0  0  0  0  0
   -1.4542   -0.4513    2.8956 C   0  0  0  0  0  0  0  0  0  0  0  0
   -1.4502    0.9776    2.6542 C   0  0  0  0  0  0  0  0  0  0  0  0
   -1.8278    1.1947    1.2676 C   0  0  0  0  0  0  0  0  0  0  0  0
   -2.0080   -2.5121    1.6323 C   0  0  0  0  0  0  0  0  0  0  0  0
   -2.3343   -3.0175    0.7124 H   0  0  0  0  0  0  0  0  0  0  0  0
   -1.7327   -3.2394    2.7834 C   0  0  0  0  0  0  0  0  0  0  0  0
   -1.8416   -4.3345    2.7687 H   0  0  0  0  0  0  0  0  0  0  0  0
   -1.3082   -2.6023    3.9834 C   0  0  0  0  0  0  0  0  0  0  0  0
   -1.0887   -3.2162    4.8693 H   0  0  0  0  0  0  0  0  0  0  0  0
   -1.1737   -1.2204    4.0509 C   0  0  0  0  0  0  0  0  0  0  0  0
   -0.8482   -0.7288    4.9793 H   0  0  0  0  0  0  0  0  0  0  0  0
   -1.1890    2.0712    3.5130 C   0  0  0  0  0  0  0  0  0  0  0  0
   -0.9061    1.8927    4.5605 H   0  0  0  0  0  0  0  0  0  0  0  0
   -1.2771    3.3627    3.0073 C   0  0  0  0  0  0  0  0  0  0  0  0
   -1.0709    4.2224    3.6616 H   0  0  0  0  0  0  0  0  0  0  0  0
   -1.6277    3.5875    1.6486 C   0  0  0  0  0  0  0  0  0  0  0  0
   -1.6865    4.6184    1.2691 H   0  0  0  0  0  0  0  0  0  0  0  0
   -1.8970    2.5347    0.7813 C   0  0  0  0  0  0  0  0  0  0  0  0
   -2.1882    2.7423   -0.2563 H   0  0  0  0  0  0  0  0  0  0  0  0
   -1.6993    0.3423   -1.8140 C   0  0  0  0  0  0  0  0  0  0  0  0
   -1.9422    1.4202   -1.7972 H   0  0  0  0  0  0  0  0  0  0  0  0
   -1.9743   -0.0064   -2.8306 H   0  0  0  0  0  0  0  0  0  0  0  0
   -2.5529   -0.3958   -0.7529 C   0  0  2  0  0  0  0  0  0  0  0  0
   -2.3884   -1.4798   -0.9222 H   0  0  0  0  0  0  0  0  0  0  0  0
   -4.0443   -0.1569   -0.9548 C   0  0  0  0  0  0  0  0  0  0  0  0
   -4.6790   -0.7485   -2.0681 C   0  0  0  0  0  0  0  0  0  0  0  0
   -4.0929   -1.3959   -2.7411 H   0  0  0  0  0  0  0  0  0  0  0  0
   -6.0417   -0.5384   -2.3188 C   0  0  0  0  0  0  0  0  0  0  0  0
   -6.5179   -1.0125   -3.1909 H   0  0  0  0  0  0  0  0  0  0  0  0
   -6.7998    0.2669   -1.4528 C   0  0  0  0  0  0  0  0  0  0  0  0
   -7.8708    0.4321   -1.6450 H   0  0  0  0  0  0  0  0  0  0  0  0
   -6.1830    0.8498   -0.3362 C   0  0  0  0  0  0  0  0  0  0  0  0
   -6.7701    1.4736    0.3552 H   0  0  0  0  0  0  0  0  0  0  0  0
   -4.8166    0.6393   -0.0886 C   0  0  0  0  0  0  0  0  0  0  0  0
   -4.3472    1.0937    0.7956 H   0  0  0  0  0  0  0  0  0  0  0  0
  1 65  1  1  0  0  0
  1  5  1  0  0  0  0
  1  2  1  0  0  0  0
  2 22  1  6  0  0  0
  2  3  1  0  0  0  0
  3  6  1  0  0  0  0
  4  3  2  0  0  0  0
  4 20  1  0  0  0  0
  5 33  1  6  0  0  0
  5  4  1  0  0  0  0
  6 21  2  0  0  0  0
  6  7  1  0  0  0  0
  7  9  2  0  0  0  0
  8  7  1  0  0  0  0
  9 11  1  0  0  0  0
  9 10  1  0  0  0  0
 11 12  1  0  0  0  0
 13 14  1  0  0  0  0
 13 11  2  0  0  0  0
 14 15  1  0  0  0  0
 16 17  1  0  0  0  0
 16 14  2  0  0  0  0
 18 16  1  0  0  0  0
 19 18  1  0  0  0  0
 20 18  2  0  0  0  0
 20 21  1  0  0  0  0
 21 13  1  0  0  0  0
 22 23  1  0  0  0  0
 23 24  1  0  0  0  0
 25 23  2  0  0  0  0
 25 26  1  0  0  0  0
 27 25  1  0  0  0  0
 28 27  1  0  0  0  0
 29 31  1  0  0  0  0
 29 27  2  0  0  0  0
 30 29  1  0  0  0  0
 31 22  2  0  0  0  0
 32 31  1  0  0  0  0
 33 42  1  0  0  0  0
 34 33  2  0  0  0  0
 35 34  1  0  0  0  0
 36 34  1  0  0  0  0
 36 38  2  0  0  0  0
 37 36  1  0  0  0  0
 38 40  1  0  0  0  0
 39 38  1  0  0  0  0
 40 42  2  0  0  0  0
 40 41  1  0  0  0  0
 42 43  1  0  0  0  0
 44 48  1  0  0  0  0
 44 45  1  0  0  0  0
 45 46  1  0  0  0  0
 46 55  2  0  0  0  0
 47 46  1  0  0  0  0
 47 57  1  0  0  0  0
 48 47  2  0  0  0  0
 49 45  2  0  0  0  0
 49 51  1  0  0  0  0
 50 49  1  0  0  0  0
 51 53  2  0  0  0  0
 52 51  1  0  0  0  0
 53 55  1  0  0  0  0
 53 54  1  0  0  0  0
 55 56  1  0  0  0  0
 57 58  1  0  0  0  0
 59 57  2  0  0  0  0
 59 60  1  0  0  0  0
 61 59  1  0  0  0  0
 62 61  1  0  0  0  0
 63 48  1  0  0  0  0
 63 61  2  0  0  0  0
 64 63  1  0  0  0  0
 65 66  1  0  0  0  0
 65 68  1  0  0  0  0
 67 65  1  0  0  0  0
 68 69  1  6  0  0  0
 68 44  1  0  0  0  0
 70 68  1  0  0  0  0
 70 79  1  0  0  0  0
 71 70  2  0  0  0  0
 72 71  1  0  0  0  0
 73 71  1  0  0  0  0
 73 75  2  0  0  0  0
 74 73  1  0  0  0  0
 75 77  1  0  0  0  0
 76 75  1  0  0  0  0
 77 79  2  0  0  0  0
 77 78  1  0  0  0  0
 79 80  1  0  0  0  0
M  END
