2,4
q = 0.0, confidence = 0.996

 39 42  0  0  1  0  0  0  0  0999 V2000
    1.7515    4.2429    0.5565 O   0  0  0  0  0  0  0  0  0  0  0  0
   -2.2843    1.4920   -1.0041 C   0  0  0  0  0  3  0  0  0  0  0  0
   -3.5474    1.0085   -1.4050 C   0  0  0  0  0  3  0  0  0  0  0  0
   -3.6798   -0.3496   -1.8239 C   0  0  0  0  0  3  0  0  0  0  0  0
   -2.5378   -1.1799   -1.8808 C   0  0  0  0  0  0  0  0  0  0  0  0
   -1.2510   -0.6960   -1.4801 C   0  0  0  0  0  0  0  0  0  0  0  0
   -1.0990    0.6689   -1.0524 C   0  0  2  0  0  3  0  0  0  0  0  0
    0.2150    1.1875   -0.6134 C   0  0  0  0  0  0  0  0  0  0  0  0
    1.4145    0.2511   -0.6825 C   0  0  2  0  0  0  0  0  0  0  0  0
    1.0079   -1.2153   -0.5018 C   0  0  0  0  0  0  0  0  0  0  0  0
   -0.0601   -1.6187   -1.5114 C   0  0  0  0  0  0  0  0  0  0  0  0
    0.3722    2.4787   -0.1880 C   0  0  0  0  0  0  0  0  0  0  0  0
    1.6629    3.0682    0.2041 C   0  0  0  0  0  0  0  0  0  0  0  0
    2.8781    2.1564    0.1139 C   0  0  0  0  0  0  0  0  0  0  0  0
    2.5208    0.6761    0.3137 C   0  0  2  0  0  0  0  0  0  0  0  0
    3.7420   -0.2225    0.2435 C   0  0  0  0  0  0  0  0  0  0  0  0
    4.1268   -0.9964    1.3554 C   0  0  0  0  0  0  0  0  0  0  0  0
    5.2514   -1.8346    1.2994 C   0  0  0  0  0  0  0  0  0  0  0  0
    6.0112   -1.9144    0.1229 C   0  0  0  0  0  0  0  0  0  0  0  0
    5.6394   -1.1485   -0.9942 C   0  0  0  0  0  0  0  0  0  0  0  0
    4.5172   -0.3101   -0.9320 C   0  0  0  0  0  0  0  0  0  0  0  0
    1.8330    0.3529   -1.7144 H   0  0  0  0  0  0  0  0  0  0  0  0
    1.9009   -1.8602   -0.6132 H   0  0  0  0  0  0  0  0  0  0  0  0
    0.6273   -1.3699    0.5298 H   0  0  0  0  0  0  0  0  0  0  0  0
   -0.3964   -2.6607   -1.3392 H   0  0  0  0  0  0  0  0  0  0  0  0
    0.3673   -1.5927   -2.5400 H   0  0  0  0  0  0  0  0  0  0  0  0
   -0.4676    3.1856   -0.1282 H   0  0  0  0  0  0  0  0  0  0  0  0
    3.3256    2.3039   -0.8954 H   0  0  0  0  0  0  0  0  0  0  0  0
    3.6332    2.5052    0.8448 H   0  0  0  0  0  0  0  0  0  0  0  0
    2.0824    0.5692    1.3308 H   0  0  0  0  0  0  0  0  0  0  0  0
    3.5304   -0.9397    2.2800 H   0  0  0  0  0  0  0  0  0  0  0  0
    5.5340   -2.4297    2.1812 H   0  0  0  0  0  0  0  0  0  0  0  0
    6.8930   -2.5711    0.0755 H   0  0  0  0  0  0  0  0  0  0  0  0
    6.2305   -1.2027   -1.9212 H   0  0  0  0  0  0  0  0  0  0  0  0
    4.2422    0.2871   -1.8162 H   0  0  0  0  0  0  0  0  0  0  0  0
   -2.2112    2.5191   -0.6267 H   0  0  0  0  0  0  0  0  0  0  0  0
   -4.4323    1.6536   -1.3225 H   0  0  0  0  0  0  0  0  0  0  0  0
   -4.6693   -0.7570   -2.0732 H   0  0  0  0  0  0  0  0  0  0  0  0
   -2.6417   -2.2367   -2.1644 H   0  0  0  0  0  0  0  0  0  0  0  0
  2 36  1  0  0  0  0
  3 37  1  0  0  0  0
  3  2  1  0  0  0  0
  4  3  1  0  0  0  0
  5  4  1  0  0  0  0
  5  6  2  0  0  0  0
  7  6  1  1  0  0  0
  7  2  1  0  0  0  0
  7  8  1  0  0  0  0
  8 12  2  0  0  0  0
  9 22  1  6  0  0  0
  9  8  1  0  0  0  0
  9 10  1  0  0  0  0
  9 15  1  0  0  0  0
 10 24  1  0  0  0  0
 11  6  1  0  0  0  0
 11 25  1  0  0  0  0
 11 10  1  0  0  0  0
 12 27  1  0  0  0  0
 12 13  1  0  0  0  0
 13  1  2  0  0  0  0
 14 13  1  0  0  0  0
 14 15  1  0  0  0  0
 14 29  1  0  0  0  0
 15 30  1  1  0  0  0
 16 15  1  0  0  0  0
 16 17  1  0  0  0  0
 17 31  1  0  0  0  0
 18 17  2  0  0  0  0
 18 32  1  0  0  0  0
 19 18  1  0  0  0  0
 20 21  1  0  0  0  0
 20 19  2  0  0  0  0
 21 16  2  0  0  0  0
 23 10  1  0  0  0  0
 26 11  1  0  0  0  0
 28 14  1  0  0  0  0
 33 19  1  0  0  0  0
 34 20  1  0  0  0  0
 35 21  1  0  0  0  0
 38  4  1  0  0  0  0
 39  5  1  0  0  0  0
M  END
