1,7
q = -2.0, confidence = 0.742

 30 30  0  0  0  0  0  0  0  0999 V2000
   -1.1288    1.2356   -1.7489 C   0  0  0  0  0  3  0  0  0  0  0  0
   -0.6912    2.5451   -2.1482 O   0  0  0  0  0  0  0  0  0  0  0  0
    1.1974    3.9502   -2.4783 C   0  0  0  0  0  0  0  0  0  0  0  0
    2.5620    4.1969   -2.2769 C   0  0  0  0  0  0  0  0  0  0  0  0
    3.3577    3.2603   -1.5961 C   0  0  0  0  0  0  0  0  0  0  0  0
    2.7817    2.0688   -1.1182 C   0  0  0  0  0  0  0  0  0  0  0  0
    1.4097    1.7860   -1.2872 C   0  0  0  0  0  3  0  0  0  0  0  0
    0.6351    2.7572   -1.9822 C   0  0  0  0  0  0  0  0  0  0  0  0
   -2.4782    1.2601   -1.0741 C   0  0  0  0  0  0  0  0  0  0  0  0
   -3.3384    0.4140   -1.3790 O   0  0  0  0  0  0  0  0  0  0  0  0
   -2.7244    2.2114   -0.1077 N   0  0  0  0  0  0  0  0  0  0  0  0
   -4.0912    2.2966    0.4083 C   0  0  0  0  0  0  0  0  0  0  0  0
   -5.0438    3.0525   -0.5198 C   0  0  0  0  0  0  0  0  0  0  0  0
   -1.7000    3.0497    0.5055 C   0  0  0  0  0  0  0  0  0  0  0  0
   -1.7375    4.5192    0.0874 C   0  0  0  0  0  0  0  0  0  0  0  0
   -1.2556    0.6257   -2.6696 H   0  0  0  0  0  0  0  0  0  0  0  0
    0.5574    4.6632   -3.0189 H   0  0  0  0  0  0  0  0  0  0  0  0
    3.0076    5.1284   -2.6595 H   0  0  0  0  0  0  0  0  0  0  0  0
    4.4297    3.4536   -1.4366 H   0  0  0  0  0  0  0  0  0  0  0  0
    3.4336    1.3492   -0.5995 H   0  0  0  0  0  0  0  0  0  0  0  0
   -4.0401    2.7804    1.4053 H   0  0  0  0  0  0  0  0  0  0  0  0
   -4.4649    1.2648    0.5553 H   0  0  0  0  0  0  0  0  0  0  0  0
   -4.7048    4.0920   -0.7009 H   0  0  0  0  0  0  0  0  0  0  0  0
   -6.0636    3.0903   -0.0841 H   0  0  0  0  0  0  0  0  0  0  0  0
   -5.1084    2.5308   -1.4947 H   0  0  0  0  0  0  0  0  0  0  0  0
   -0.7097    2.6037    0.2841 H   0  0  0  0  0  0  0  0  0  0  0  0
   -1.8267    2.9670    1.6098 H   0  0  0  0  0  0  0  0  0  0  0  0
   -1.6268    4.6023   -1.0105 H   0  0  0  0  0  0  0  0  0  0  0  0
   -0.9061    5.0768    0.5648 H   0  0  0  0  0  0  0  0  0  0  0  0
   -2.6883    5.0067    0.3857 H   0  0  0  0  0  0  0  0  0  0  0  0
  1  9  1  0  0  0  0
  2  8  1  0  0  0  0
  2  1  1  0  0  0  0
  3  4  2  0  0  0  0
  3  8  1  0  0  0  0
  4  5  1  0  0  0  0
  5 19  1  0  0  0  0
  5  6  2  0  0  0  0
  6 20  1  0  0  0  0
  7  6  1  0  0  0  0
  8  7  2  0  0  0  0
  9 11  1  0  0  0  0
 10  9  2  0  0  0  0
 11 12  1  0  0  0  0
 11 14  1  0  0  0  0
 12 22  1  0  0  0  0
 12 21  1  0  0  0  0
 13 24  1  0  0  0  0
 13 12  1  0  0  0  0
 14 27  1  0  0  0  0
 15 30  1  0  0  0  0
 15 14  1  0  0  0  0
 15 29  1  0  0  0  0
 16  1  1  0  0  0  0
 17  3  1  0  0  0  0
 18  4  1  0  0  0  0
 23 13  1  0  0  0  0
 25 13  1  0  0  0  0
 26 14  1  0  0  0  0
 28 15  1  0  0  0  0
M  END
