4,29
q = -2.0, confidence = 0.712

 40 43  0  0  0  0  0  0  0  0999 V2000
    1.9621    0.9686    1.0461 C   0  0  0  0  0  0  0  0  0  0  0  0
    1.6261    0.1698    2.1841 C   0  0  0  0  0  0  0  0  0  0  0  0
    1.2527    0.5702    3.1336 H   0  0  0  0  0  0  0  0  0  0  0  0
    1.7488   -1.2070    1.8701 C   0  0  0  0  0  3  0  0  0  0  0  0
    1.5150   -2.0492    2.5299 H   0  0  0  0  0  0  0  0  0  0  0  0
    2.2710   -1.2981    0.5303 C   0  0  0  0  0  0  0  0  0  0  0  0
    2.5967   -2.4145   -0.2953 C   0  0  0  0  0  0  0  0  0  0  0  0
    2.4048   -3.4343    0.0676 H   0  0  0  0  0  0  0  0  0  0  0  0
    3.1775   -2.1850   -1.5337 C   0  0  0  0  0  0  0  0  0  0  0  0
    3.4544   -3.0363   -2.1733 H   0  0  0  0  0  0  0  0  0  0  0  0
    3.4483   -0.8576   -1.9836 C   0  0  0  0  0  0  0  0  0  0  0  0
    3.9496   -0.7134   -2.9527 H   0  0  0  0  0  0  0  0  0  0  0  0
    3.0928    0.2503   -1.2277 C   0  0  0  0  0  0  0  0  0  0  0  0
    3.3050    1.2671   -1.5865 H   0  0  0  0  0  0  0  0  0  0  0  0
    2.4589    0.0563    0.0360 C   0  0  0  0  0  0  0  0  0  0  0  0
    1.9935    2.4839    1.0682 C   0  0  0  0  0  0  0  0  0  0  0  0
    2.9168    2.7993    1.6017 H   0  0  0  0  0  0  0  0  0  0  0  0
    1.1482    2.8221    1.7069 H   0  0  0  0  0  0  0  0  0  0  0  0
    1.9396    3.1909   -0.2668 C   0  0  0  0  0  0  0  0  0  0  0  0
    2.8979    3.5636   -0.6675 H   0  0  0  0  0  0  0  0  0  0  0  0
    0.8257    3.4173   -0.9941 C   0  0  0  0  0  0  0  0  0  0  0  0
    0.9365    3.9420   -1.9585 H   0  0  0  0  0  0  0  0  0  0  0  0
   -0.5628    2.9587   -0.6286 C   0  0  0  0  0  0  0  0  0  0  0  0
   -1.3164    3.6196   -1.1095 H   0  0  0  0  0  0  0  0  0  0  0  0
   -0.7356    3.0533    0.4667 H   0  0  0  0  0  0  0  0  0  0  0  0
   -0.8424    1.5315   -1.0451 C   0  0  0  0  0  0  0  0  0  0  0  0
    0.0188    0.6714   -1.7842 C   0  0  0  0  0  0  0  0  0  0  0  0
    1.0191    0.9400   -2.1343 H   0  0  0  0  0  0  0  0  0  0  0  0
   -0.5945   -0.6040   -1.9494 C   0  0  0  0  0  3  0  0  0  0  0  0
   -0.1603   -1.4678   -2.4670 H   0  0  0  0  0  0  0  0  0  0  0  0
   -1.9410   -0.5007   -1.4389 C   0  0  0  0  0  0  0  0  0  0  0  0
   -3.0277   -1.4192   -1.3941 C   0  0  0  0  0  0  0  0  0  0  0  0
   -2.9061   -2.4364   -1.7921 H   0  0  0  0  0  0  0  0  0  0  0  0
   -4.2317   -0.9999   -0.8489 C   0  0  0  0  0  0  0  0  0  0  0  0
   -5.0855   -1.6934   -0.8191 H   0  0  0  0  0  0  0  0  0  0  0  0
   -4.3883    0.3149   -0.3167 C   0  0  0  0  0  0  0  0  0  0  0  0
   -5.3602    0.6064    0.1090 H   0  0  0  0  0  0  0  0  0  0  0  0
   -3.3394    1.2220   -0.3154 C   0  0  0  0  0  0  0  0  0  0  0  0
   -3.4596    2.2265    0.1145 H   0  0  0  0  0  0  0  0  0  0  0  0
   -2.0967    0.8268   -0.8820 C   0  0  0  0  0  0  0  0  0  0  0  0
  1 16  1  0  0  0  0
  1  2  2  0  0  0  0
  2  3  1  0  0  0  0
  4  2  1  0  0  0  0
  4  5  1  0  0  0  0
  6  4  1  0  0  0  0
  7  8  1  0  0  0  0
  7  6  2  0  0  0  0
  9  7  1  0  0  0  0
 10  9  1  0  0  0  0
 11  9  2  0  0  0  0
 11 13  1  0  0  0  0
 12 11  1  0  0  0  0
 13 15  2  0  0  0  0
 14 13  1  0  0  0  0
 15  6  1  0  0  0  0
 15  1  1  0  0  0  0
 16 17  1  0  0  0  0
 16 18  1  0  0  0  0
 19 16  1  0  0  0  0
 20 19  1  0  0  0  0
 21 23  1  0  0  0  0
 21 19  2  0  0  0  0
 22 21  1  0  0  0  0
 23 25  1  0  0  0  0
 24 23  1  0  0  0  0
 26 40  1  0  0  0  0
 26 23  1  0  0  0  0
 27 26  2  0  0  0  0
 28 27  1  0  0  0  0
 29 27  1  0  0  0  0
 29 31  1  0  0  0  0
 30 29  1  0  0  0  0
 31 32  2  0  0  0  0
 31 40  1  0  0  0  0
 32 34  1  0  0  0  0
 33 32  1  0  0  0  0
 34 35  1  0  0  0  0
 34 36  2  0  0  0  0
 36 38  1  0  0  0  0
 36 37  1  0  0  0  0
 38 39  1  0  0  0  0
 40 38  2  0  0  0  0
M  END
