1
q = -2.0, confidence = 0.678

 33 36  0  0  1  0  0  0  0  0999 V2000
   -0.8353    1.7829   -0.8294 C   0  0  1  0  0  3  0  0  0  0  0  0
   -0.3822    1.0573   -1.9790 C   0  0  0  0  0  0  0  0  0  0  0  0
   -1.2537   -0.0412   -2.2316 C   0  0  0  0  0  0  0  0  0  0  0  0
   -2.3061    0.0059   -1.2636 C   0  0  0  0  0  0  0  0  0  0  0  0
   -3.4605   -0.8023   -1.0529 C   0  0  0  0  0  0  0  0  0  0  0  0
   -4.2947   -0.5120    0.0129 C   0  0  0  0  0  0  0  0  0  0  0  0
   -4.0233    0.5779    0.8976 C   0  0  0  0  0  0  0  0  0  0  0  0
   -2.9139    1.3887    0.7247 C   0  0  0  0  0  0  0  0  0  0  0  0
   -2.0357    1.1279   -0.3712 C   0  0  0  0  0  0  0  0  0  0  0  0
    0.0000    2.7378    0.0001 C   0  0  0  0  0  0  0  0  0  0  0  0
    0.5306    1.2791   -2.5474 H   0  0  0  0  0  0  0  0  0  0  0  0
   -1.1476   -0.7734   -3.0393 H   0  0  0  0  0  0  0  0  0  0  0  0
   -3.6701   -1.6461   -1.7264 H   0  0  0  0  0  0  0  0  0  0  0  0
   -5.1872   -1.1305    0.1895 H   0  0  0  0  0  0  0  0  0  0  0  0
   -4.7150    0.7734    1.7306 H   0  0  0  0  0  0  0  0  0  0  0  0
   -2.7246    2.2357    1.4012 H   0  0  0  0  0  0  0  0  0  0  0  0
   -0.6307    3.3908    0.6333 H   0  0  0  0  0  0  0  0  0  0  0  0
    0.8354    1.7828    0.8296 C   0  0  1  0  0  3  0  0  0  0  0  0
    0.3823    1.0571    1.9792 C   0  0  0  0  0  0  0  0  0  0  0  0
    1.2538   -0.0414    2.2316 C   0  0  0  0  0  0  0  0  0  0  0  0
   -0.5305    1.2789    2.5476 H   0  0  0  0  0  0  0  0  0  0  0  0
    2.3062    0.0057    1.2635 C   0  0  0  0  0  0  0  0  0  0  0  0
    2.0358    1.1279    0.3713 C   0  0  0  0  0  0  0  0  0  0  0  0
    3.4605   -0.8025    1.0527 C   0  0  0  0  0  0  0  0  0  0  0  0
    4.2947   -0.5120   -0.0132 C   0  0  0  0  0  0  0  0  0  0  0  0
    4.0233    0.5780   -0.8977 C   0  0  0  0  0  0  0  0  0  0  0  0
    2.9139    1.3888   -0.7246 C   0  0  0  0  0  0  0  0  0  0  0  0
    2.7245    2.2358   -1.4011 H   0  0  0  0  0  0  0  0  0  0  0  0
    4.7149    0.7736   -1.7307 H   0  0  0  0  0  0  0  0  0  0  0  0
    5.1872   -1.1305   -0.1898 H   0  0  0  0  0  0  0  0  0  0  0  0
    3.6702   -1.6462    1.7261 H   0  0  0  0  0  0  0  0  0  0  0  0
    0.6307    3.3909   -0.6329 H   0  0  0  0  0  0  0  0  0  0  0  0
    1.1477   -0.7737    3.0392 H   0  0  0  0  0  0  0  0  0  0  0  0
  1  9  1  0  0  0  0
  1 10  1  1  0  0  0
  2  1  1  0  0  0  0
  3  2  2  0  0  0  0
  3  4  1  0  0  0  0
  4  5  2  0  0  0  0
  4  9  1  0  0  0  0
  5  6  1  0  0  0  0
  6 14  1  0  0  0  0
  6  7  2  0  0  0  0
  7 15  1  0  0  0  0
  8  7  1  0  0  0  0
  8 16  1  0  0  0  0
  9  8  2  0  0  0  0
 10 17  1  0  0  0  0
 11  2  1  0  0  0  0
 12  3  1  0  0  0  0
 13  5  1  0  0  0  0
 18 10  1  6  0  0  0
 18 19  1  0  0  0  0
 19 20  2  0  0  0  0
 19 21  1  0  0  0  0
 20 33  1  0  0  0  0
 22 20  1  0  0  0  0
 23 18  1  0  0  0  0
 23 22  2  0  0  0  0
 24 22  1  0  0  0  0
 24 31  1  0  0  0  0
 25 24  2  0  0  0  0
 26 27  2  0  0  0  0
 26 25  1  0  0  0  0
 27 23  1  0  0  0  0
 28 27  1  0  0  0  0
 29 26  1  0  0  0  0
 30 25  1  0  0  0  0
 32 10  1  0  0  0  0
M  END
