3,6
q = -1.0, confidence = 0.002

 45 47  0  0  1  0  0  0  0  0999 V2000
   -1.5116    0.1387    0.4867 P   0  0  0  0  0  4  0  0  0  0  0  0
   -1.5081    0.4348    2.5894 Se  0  0  0  0  0  1  0  0  0  0  0  0
    0.3445   -1.1923   -1.4189 C   0  0  0  0  0  3  0  0  0  0  0  0
    0.0295   -0.6684   -2.3294 H   0  0  0  0  0  0  0  0  0  0  0  0
   -0.1238   -0.9176   -0.0788 C   0  0  2  0  0  3  0  0  0  0  0  0
    0.5592   -1.8424    0.8004 C   0  0  0  0  0  3  0  0  0  0  0  0
    0.4051   -1.8695    1.8873 H   0  0  0  0  0  0  0  0  0  0  0  0
   -3.0150   -0.8040   -0.1065 C   0  0  0  0  0  0  0  0  0  0  0  0
   -3.8503   -0.1370    0.2062 H   0  0  0  0  0  0  0  0  0  0  0  0
    1.4112   -2.6725    0.0151 C   0  0  0  0  0  0  0  0  0  0  0  0
    2.0534   -3.4765    0.3941 H   0  0  0  0  0  0  0  0  0  0  0  0
    1.2790   -2.2757   -1.3670 C   0  0  0  0  0  0  0  0  0  0  0  0
    1.7939   -2.7261   -2.2239 H   0  0  0  0  0  0  0  0  0  0  0  0
   -0.3619    2.6580    0.0300 C   0  0  0  0  0  0  0  0  0  0  0  0
   -0.6239    2.8915    1.0846 H   0  0  0  0  0  0  0  0  0  0  0  0
    0.6186    2.1470    0.0660 H   0  0  0  0  0  0  0  0  0  0  0  0
   -3.1637   -2.1347    0.6497 C   0  0  0  0  0  0  0  0  0  0  0  0
   -2.2975   -2.7900    0.4041 H   0  0  0  0  0  0  0  0  0  0  0  0
   -3.1212   -1.9445    1.7416 H   0  0  0  0  0  0  0  0  0  0  0  0
   -1.4357    1.7066   -0.5245 C   0  0  0  0  0  0  0  0  0  0  0  0
   -1.1483    1.3874   -1.5534 H   0  0  0  0  0  0  0  0  0  0  0  0
   -4.4668   -2.8435    0.2566 C   0  0  0  0  0  0  0  0  0  0  0  0
   -4.5423   -3.8150    0.7881 H   0  0  0  0  0  0  0  0  0  0  0  0
   -5.3300   -2.2313    0.6015 H   0  0  0  0  0  0  0  0  0  0  0  0
   -2.8031    2.4142   -0.5755 C   0  0  0  0  0  0  0  0  0  0  0  0
   -3.1176    2.6365    0.4683 H   0  0  0  0  0  0  0  0  0  0  0  0
   -3.5815    1.7545   -1.0097 H   0  0  0  0  0  0  0  0  0  0  0  0
   -2.7212    3.7150   -1.3894 C   0  0  0  0  0  0  0  0  0  0  0  0
   -2.5059    3.4617   -2.4523 H   0  0  0  0  0  0  0  0  0  0  0  0
   -3.7103    4.2192   -1.3841 H   0  0  0  0  0  0  0  0  0  0  0  0
   -1.6308    4.6559   -0.8646 C   0  0  0  0  0  0  0  0  0  0  0  0
   -1.5672    5.5642   -1.4997 H   0  0  0  0  0  0  0  0  0  0  0  0
   -1.9102    5.0032    0.1551 H   0  0  0  0  0  0  0  0  0  0  0  0
   -3.0831   -1.0222   -1.6271 C   0  0  0  0  0  0  0  0  0  0  0  0
   -2.9887   -0.0630   -2.1775 H   0  0  0  0  0  0  0  0  0  0  0  0
   -2.2272   -1.6587   -1.9407 H   0  0  0  0  0  0  0  0  0  0  0  0
   -4.3928   -1.7270   -2.0163 C   0  0  0  0  0  0  0  0  0  0  0  0
   -5.2487   -1.0543   -1.7841 H   0  0  0  0  0  0  0  0  0  0  0  0
   -4.4173   -1.8967   -3.1131 H   0  0  0  0  0  0  0  0  0  0  0  0
   -4.5653   -3.0502   -1.2603 C   0  0  0  0  0  0  0  0  0  0  0  0
   -5.5329   -3.5242   -1.5274 H   0  0  0  0  0  0  0  0  0  0  0  0
   -3.7700   -3.7592   -1.5841 H   0  0  0  0  0  0  0  0  0  0  0  0
   -0.2741    3.9456   -0.7968 C   0  0  0  0  0  0  0  0  0  0  0  0
    0.4962    4.6142   -0.3597 H   0  0  0  0  0  0  0  0  0  0  0  0
    0.0765    3.7017   -1.8248 H   0  0  0  0  0  0  0  0  0  0  0  0
  1  2  1  0  0  0  0
  3 12  1  0  0  0  0
  3  5  1  0  0  0  0
  4  3  1  0  0  0  0
  5  1  1  6  0  0  0
  5  6  1  0  0  0  0
  6  7  1  0  0  0  0
  8  9  1  0  0  0  0
  8  1  1  0  0  0  0
  8 17  1  0  0  0  0
 10 11  1  0  0  0  0
 10  6  1  0  0  0  0
 12 10  2  0  0  0  0
 13 12  1  0  0  0  0
 14 16  1  0  0  0  0
 14 15  1  0  0  0  0
 17 19  1  0  0  0  0
 18 17  1  0  0  0  0
 20 14  1  0  0  0  0
 20  1  1  0  0  0  0
 21 20  1  0  0  0  0
 22 24  1  0  0  0  0
 22 17  1  0  0  0  0
 22 23  1  0  0  0  0
 25 20  1  0  0  0  0
 25 26  1  0  0  0  0
 27 25  1  0  0  0  0
 28 30  1  0  0  0  0
 28 31  1  0  0  0  0
 28 25  1  0  0  0  0
 29 28  1  0  0  0  0
 31 43  1  0  0  0  0
 31 33  1  0  0  0  0
 32 31  1  0  0  0  0
 34  8  1  0  0  0  0
 35 34  1  0  0  0  0
 36 34  1  0  0  0  0
 37 38  1  0  0  0  0
 37 34  1  0  0  0  0
 37 40  1  0  0  0  0
 39 37  1  0  0  0  0
 40 22  1  0  0  0  0
 41 40  1  0  0  0  0
 42 40  1  0  0  0  0
 43 44  1  0  0  0  0
 43 14  1  0  0  0  0
 45 43  1  0  0  0  0
M  END
