4,6
q = 0.0, confidence = 0.998

 48 51  0  0  1  0  0  0  0  0999 V2000
    0.2513    1.2396    0.9231 P   0  0  0  0  0  0  0  0  0  0  0  0
   -0.0182   -1.2080   -0.4792 C   0  0  2  0  0  3  0  0  0  0  0  0
    2.4366   -1.8440   -1.5058 O   0  0  0  0  0  0  0  0  0  0  0  0
   -0.5868   -2.0805   -1.4643 C   0  0  0  0  0  3  0  0  0  0  0  0
   -1.5955   -1.6398   -2.3524 C   0  0  0  0  0  3  0  0  0  0  0  0
   -2.0800   -0.3021   -2.2415 C   0  0  0  0  0  3  0  0  0  0  0  0
   -1.5198    0.5896   -1.2934 C   0  0  0  0  0  0  0  0  0  0  0  0
   -0.4946    0.1445   -0.3976 C   0  0  0  0  0  0  0  0  0  0  0  0
    0.9045   -1.8074    1.8028 C   0  0  0  0  0  0  0  0  0  0  0  0
    1.9720   -2.1795    2.6335 C   0  0  0  0  0  0  0  0  0  0  0  0
    3.2268   -2.4396    2.0666 C   0  0  0  0  0  0  0  0  0  0  0  0
    3.4204   -2.3432    0.6796 C   0  0  0  0  0  0  0  0  0  0  0  0
    2.3469   -1.9721   -0.1521 C   0  0  0  0  0  0  0  0  0  0  0  0
    1.0742   -1.6878    0.4128 C   0  0  0  0  0  0  0  0  0  0  0  0
    3.6908   -2.0613   -2.1240 C   0  0  0  0  0  0  0  0  0  0  0  0
    3.0217    1.4465    1.1754 C   0  0  0  0  0  0  0  0  0  0  0  0
    4.3537    1.5276    0.7428 C   0  0  0  0  0  0  0  0  0  0  0  0
    4.6476    1.5235   -0.6300 C   0  0  0  0  0  0  0  0  0  0  0  0
    3.6052    1.4341   -1.5680 C   0  0  0  0  0  0  0  0  0  0  0  0
    2.2734    1.3480   -1.1364 C   0  0  0  0  0  0  0  0  0  0  0  0
    1.9686    1.3620    0.2416 C   0  0  0  0  0  0  0  0  0  0  0  0
   -1.7637    3.1584    1.0389 C   0  0  0  0  0  0  0  0  0  0  0  0
   -2.4058    4.3750    0.7650 C   0  0  0  0  0  0  0  0  0  0  0  0
   -1.7826    5.3344   -0.0496 C   0  0  0  0  0  0  0  0  0  0  0  0
   -0.5148    5.0692   -0.5907 C   0  0  0  0  0  0  0  0  0  0  0  0
    0.1237    3.8455   -0.3344 C   0  0  0  0  0  0  0  0  0  0  0  0
   -0.4986    2.8724    0.4747 C   0  0  0  0  0  0  0  0  0  0  0  0
   -0.2408   -3.1228   -1.4986 H   0  0  0  0  0  0  0  0  0  0  0  0
   -2.0479   -2.3385   -3.0683 H   0  0  0  0  0  0  0  0  0  0  0  0
   -2.9040    0.0383   -2.8846 H   0  0  0  0  0  0  0  0  0  0  0  0
   -1.9072    1.6133   -1.2066 H   0  0  0  0  0  0  0  0  0  0  0  0
   -0.0888   -1.5998    2.2255 H   0  0  0  0  0  0  0  0  0  0  0  0
    1.8186   -2.2693    3.7185 H   0  0  0  0  0  0  0  0  0  0  0  0
    4.0739   -2.7302    2.7067 H   0  0  0  0  0  0  0  0  0  0  0  0
    4.4105   -2.5501    0.2536 H   0  0  0  0  0  0  0  0  0  0  0  0
    4.4576   -1.3468   -1.7515 H   0  0  0  0  0  0  0  0  0  0  0  0
    3.5370   -1.8926   -3.2059 H   0  0  0  0  0  0  0  0  0  0  0  0
    4.0542   -3.1014   -1.9673 H   0  0  0  0  0  0  0  0  0  0  0  0
    2.7892    1.4298    2.2516 H   0  0  0  0  0  0  0  0  0  0  0  0
    5.1669    1.5866    1.4821 H   0  0  0  0  0  0  0  0  0  0  0  0
    5.6924    1.5883   -0.9710 H   0  0  0  0  0  0  0  0  0  0  0  0
    3.8315    1.4265   -2.6456 H   0  0  0  0  0  0  0  0  0  0  0  0
    1.4639    1.2582   -1.8762 H   0  0  0  0  0  0  0  0  0  0  0  0
   -2.2472    2.4200    1.6977 H   0  0  0  0  0  0  0  0  0  0  0  0
   -3.3949    4.5788    1.2030 H   0  0  0  0  0  0  0  0  0  0  0  0
   -2.2819    6.2935   -0.2554 H   0  0  0  0  0  0  0  0  0  0  0  0
   -0.0157    5.8215   -1.2209 H   0  0  0  0  0  0  0  0  0  0  0  0
    1.1165    3.6479   -0.7647 H   0  0  0  0  0  0  0  0  0  0  0  0
  2  8  1  0  0  0  0
  2 14  1  6  0  0  0
  3 13  1  0  0  0  0
  4  2  1  0  0  0  0
  5  6  1  0  0  0  0
  5  4  1  0  0  0  0
  6  7  1  0  0  0  0
  7 31  1  0  0  0  0
  7  8  2  0  0  0  0
  8  1  1  0  0  0  0
  9 32  1  0  0  0  0
  9 10  1  0  0  0  0
 10 33  1  0  0  0  0
 11 10  2  0  0  0  0
 11 34  1  0  0  0  0
 12 11  1  0  0  0  0
 13 14  1  0  0  0  0
 13 12  2  0  0  0  0
 14  9  2  0  0  0  0
 15 38  1  0  0  0  0
 15 36  1  0  0  0  0
 15  3  1  0  0  0  0
 16 39  1  0  0  0  0
 17 16  1  0  0  0  0
 17 40  1  0  0  0  0
 18 17  2  0  0  0  0
 19 20  2  0  0  0  0
 19 18  1  0  0  0  0
 20 21  1  0  0  0  0
 21  1  1  0  0  0  0
 21 16  2  0  0  0  0
 22 44  1  0  0  0  0
 23 22  1  0  0  0  0
 23 45  1  0  0  0  0
 24 23  2  0  0  0  0
 25 26  2  0  0  0  0
 25 24  1  0  0  0  0
 26 27  1  0  0  0  0
 27  1  1  0  0  0  0
 27 22  2  0  0  0  0
 28  4  1  0  0  0  0
 29  5  1  0  0  0  0
 30  6  1  0  0  0  0
 35 12  1  0  0  0  0
 37 15  1  0  0  0  0
 41 18  1  0  0  0  0
 42 19  1  0  0  0  0
 43 20  1  0  0  0  0
 46 24  1  0  0  0  0
 47 25  1  0  0  0  0
 48 26  1  0  0  0  0
M  END
