3,32
q = -2.0, confidence = 0.84

 57 60  0  0  1  0  0  0  0  0999 V2000
   -2.1243   -0.1268    1.0231 C   0  0  2  0  0  3  0  0  0  0  0  0
   -1.0457    0.5606    1.6864 C   0  0  2  0  0  3  0  0  0  0  0  0
   -0.7595    1.7739    0.9764 C   0  0  0  0  0  3  0  0  0  0  0  0
    0.0209    2.4963    1.2421 H   0  0  0  0  0  0  0  0  0  0  0  0
   -1.7067    1.9167   -0.0899 C   0  0  0  0  0  0  0  0  0  0  0  0
   -1.8971    2.9407   -1.0611 C   0  0  0  0  0  0  0  0  0  0  0  0
   -1.2454    3.8259   -1.0571 H   0  0  0  0  0  0  0  0  0  0  0  0
   -2.9025    2.7902   -2.0011 C   0  0  0  0  0  0  0  0  0  0  0  0
   -3.0656    3.5711   -2.7586 H   0  0  0  0  0  0  0  0  0  0  0  0
   -3.7220    1.6240   -2.0118 C   0  0  0  0  0  0  0  0  0  0  0  0
   -4.5017    1.5242   -2.7816 H   0  0  0  0  0  0  0  0  0  0  0  0
   -3.5504    0.6071   -1.0850 C   0  0  0  0  0  0  0  0  0  0  0  0
   -4.1877   -0.2845   -1.1329 H   0  0  0  0  0  0  0  0  0  0  0  0
   -2.5360    0.7297   -0.0869 C   0  0  0  0  0  0  0  0  0  0  0  0
   -0.0000   -0.0047    2.6402 C   0  0  0  0  0  0  0  0  0  0  0  0
    0.3936    0.7905    3.2887 H   0  0  0  0  0  0  0  0  0  0  0  0
   -2.9829   -1.3046    1.5264 C   0  0  0  0  0  0  0  0  0  0  0  0
   -3.1215   -2.4347    0.4848 C   0  0  0  0  0  0  0  0  0  0  0  0
   -2.1496   -2.9291    0.2938 H   0  0  0  0  0  0  0  0  0  0  0  0
   -3.4843   -2.0753   -0.4946 H   0  0  0  0  0  0  0  0  0  0  0  0
   -3.8328   -3.1999    0.8578 H   0  0  0  0  0  0  0  0  0  0  0  0
   -4.3847   -0.7175    1.8461 C   0  0  0  0  0  0  0  0  0  0  0  0
   -4.8725   -0.2796    0.9561 H   0  0  0  0  0  0  0  0  0  0  0  0
   -4.3087    0.0794    2.6131 H   0  0  0  0  0  0  0  0  0  0  0  0
   -5.0468   -1.5152    2.2412 H   0  0  0  0  0  0  0  0  0  0  0  0
   -2.4814   -1.9424    2.8363 C   0  0  0  0  0  0  0  0  0  0  0  0
   -3.2121   -2.7116    3.1577 H   0  0  0  0  0  0  0  0  0  0  0  0
   -2.4014   -1.2021    3.6565 H   0  0  0  0  0  0  0  0  0  0  0  0
   -1.5075   -2.4560    2.7235 H   0  0  0  0  0  0  0  0  0  0  0  0
    2.1242    0.1231    1.0236 C   0  0  2  0  0  3  0  0  0  0  0  0
    1.0457   -0.5666    1.6843 C   0  0  2  0  0  3  0  0  0  0  0  0
    0.7594   -1.7774    0.9701 C   0  0  0  0  0  3  0  0  0  0  0  0
   -0.0210   -2.5007    1.2331 H   0  0  0  0  0  0  0  0  0  0  0  0
    1.7066   -1.9163   -0.0968 C   0  0  0  0  0  0  0  0  0  0  0  0
    1.8969   -2.9368   -1.0717 C   0  0  0  0  0  0  0  0  0  0  0  0
    1.2452   -3.8220   -1.0708 H   0  0  0  0  0  0  0  0  0  0  0  0
    2.9023   -2.7830   -2.0112 C   0  0  0  0  0  0  0  0  0  0  0  0
    3.0654   -3.5611   -2.7715 H   0  0  0  0  0  0  0  0  0  0  0  0
    3.7218   -1.6167   -2.0177 C   0  0  0  0  0  0  0  0  0  0  0  0
    4.5016   -1.5142   -2.7872 H   0  0  0  0  0  0  0  0  0  0  0  0
    3.5503   -0.6032   -1.0872 C   0  0  0  0  0  0  0  0  0  0  0  0
    4.1876    0.2885   -1.1319 H   0  0  0  0  0  0  0  0  0  0  0  0
    2.5359   -0.7294   -0.0896 C   0  0  0  0  0  0  0  0  0  0  0  0
   -0.3937   -0.8023    3.2858 H   0  0  0  0  0  0  0  0  0  0  0  0
    2.9831    1.2991    1.5309 C   0  0  0  0  0  0  0  0  0  0  0  0
    3.1218    2.4328    0.4933 C   0  0  0  0  0  0  0  0  0  0  0  0
    2.1500    2.9281    0.3041 H   0  0  0  0  0  0  0  0  0  0  0  0
    3.4844    2.0767   -0.4874 H   0  0  0  0  0  0  0  0  0  0  0  0
    3.8334    3.1964    0.8688 H   0  0  0  0  0  0  0  0  0  0  0  0
    4.3849    0.7106    1.8483 C   0  0  0  0  0  0  0  0  0  0  0  0
    4.8724    0.2757    0.9567 H   0  0  0  0  0  0  0  0  0  0  0  0
    4.3088   -0.0890    2.6125 H   0  0  0  0  0  0  0  0  0  0  0  0
    5.0472    1.5068    2.2461 H   0  0  0  0  0  0  0  0  0  0  0  0
    2.4821    1.9324    2.8432 C   0  0  0  0  0  0  0  0  0  0  0  0
    3.2131    2.7002    3.1672 H   0  0  0  0  0  0  0  0  0  0  0  0
    2.4020    1.1892    3.6608 H   0  0  0  0  0  0  0  0  0  0  0  0
    1.5083    2.4467    2.7323 H   0  0  0  0  0  0  0  0  0  0  0  0
  1 17  1  1  0  0  0
  1  2  1  0  0  0  0
  2 15  1  6  0  0  0
  3  4  1  0  0  0  0
  3  2  1  0  0  0  0
  5 14  1  0  0  0  0
  5  3  1  0  0  0  0
  6  7  1  0  0  0  0
  6  5  2  0  0  0  0
  8  6  1  0  0  0  0
  9  8  1  0  0  0  0
 10  8  2  0  0  0  0
 10 12  1  0  0  0  0
 11 10  1  0  0  0  0
 12 14  2  0  0  0  0
 13 12  1  0  0  0  0
 14  1  1  0  0  0  0
 15 44  1  0  0  0  0
 15 16  1  0  0  0  0
 17 22  1  0  0  0  0
 17 26  1  0  0  0  0
 18 21  1  0  0  0  0
 18 17  1  0  0  0  0
 19 18  1  0  0  0  0
 20 18  1  0  0  0  0
 22 25  1  0  0  0  0
 22 24  1  0  0  0  0
 23 22  1  0  0  0  0
 26 27  1  0  0  0  0
 26 28  1  0  0  0  0
 29 26  1  0  0  0  0
 30 45  1  1  0  0  0
 30 31  1  0  0  0  0
 31 15  1  6  0  0  0
 32 33  1  0  0  0  0
 32 31  1  0  0  0  0
 34 43  1  0  0  0  0
 34 32  1  0  0  0  0
 35 36  1  0  0  0  0
 35 34  2  0  0  0  0
 37 35  1  0  0  0  0
 38 37  1  0  0  0  0
 39 37  2  0  0  0  0
 39 41  1  0  0  0  0
 40 39  1  0  0  0  0
 41 43  2  0  0  0  0
 42 41  1  0  0  0  0
 43 30  1  0  0  0  0
 45 50  1  0  0  0  0
 45 54  1  0  0  0  0
 46 49  1  0  0  0  0
 46 45  1  0  0  0  0
 47 46  1  0  0  0  0
 48 46  1  0  0  0  0
 50 53  1  0  0  0  0
 50 52  1  0  0  0  0
 51 50  1  0  0  0  0
 54 55  1  0  0  0  0
 54 56  1  0  0  0  0
 57 54  1  0  0  0  0
M  END
