15
q = -2.0, confidence = 0.708

 57 60  0  0  1  0  0  0  0  0999 V2000
    1.1720    0.0942    2.0266 C   0  0  1  0  0  3  0  0  0  0  0  0
    1.7787   -0.9858    1.3077 C   0  0  0  0  0  0  0  0  0  0  0  0
    2.5821   -0.4928    0.2295 C   0  0  0  0  0  0  0  0  0  0  0  0
    2.4913    0.9472    0.2850 C   0  0  0  0  0  0  0  0  0  0  0  0
    3.1011    1.9948   -0.4684 C   0  0  0  0  0  0  0  0  0  0  0  0
    2.8011    3.3135   -0.1704 C   0  0  0  0  0  0  0  0  0  0  0  0
    1.8997    3.6569    0.8826 C   0  0  0  0  0  0  0  0  0  0  0  0
    1.2995    2.6761    1.6527 C   0  0  0  0  0  0  0  0  0  0  0  0
    1.6004    1.3064    1.3828 C   0  0  0  0  0  0  0  0  0  0  0  0
   -0.0000   -0.0000    2.9794 C   0  0  0  0  0  0  0  0  0  0  0  0
    3.5562   -1.3204   -0.6083 C   0  0  0  0  0  0  0  0  0  0  0  0
    3.3100   -2.8257   -0.3935 C   0  0  0  0  0  0  0  0  0  0  0  0
    3.4395   -1.0119   -2.1168 C   0  0  0  0  0  0  0  0  0  0  0  0
    4.9862   -0.9805   -0.1201 C   0  0  0  0  0  0  0  0  0  0  0  0
   -1.1720   -0.0941    2.0266 C   0  0  1  0  0  3  0  0  0  0  0  0
   -1.7785    0.9859    1.3076 C   0  0  0  0  0  0  0  0  0  0  0  0
   -2.5821    0.4930    0.2294 C   0  0  0  0  0  0  0  0  0  0  0  0
   -2.4914   -0.9470    0.2850 C   0  0  0  0  0  0  0  0  0  0  0  0
   -3.1014   -1.9946   -0.4684 C   0  0  0  0  0  0  0  0  0  0  0  0
   -2.8014   -3.3134   -0.1704 C   0  0  0  0  0  0  0  0  0  0  0  0
   -1.9001   -3.6568    0.8827 C   0  0  0  0  0  0  0  0  0  0  0  0
   -1.2997   -2.6761    1.6528 C   0  0  0  0  0  0  0  0  0  0  0  0
   -1.6005   -1.3063    1.3828 C   0  0  0  0  0  0  0  0  0  0  0  0
   -3.5561    1.3207   -0.6084 C   0  0  0  0  0  0  0  0  0  0  0  0
   -3.3096    2.8259   -0.3935 C   0  0  0  0  0  0  0  0  0  0  0  0
   -3.4394    1.0122   -2.1169 C   0  0  0  0  0  0  0  0  0  0  0  0
   -4.9861    0.9810   -0.1202 C   0  0  0  0  0  0  0  0  0  0  0  0
    1.6344   -2.0478    1.5406 H   0  0  0  0  0  0  0  0  0  0  0  0
    3.7969    1.7618   -1.2847 H   0  0  0  0  0  0  0  0  0  0  0  0
    3.2670    4.1192   -0.7571 H   0  0  0  0  0  0  0  0  0  0  0  0
    1.6884    4.7175    1.0848 H   0  0  0  0  0  0  0  0  0  0  0  0
    0.6250    2.9431    2.4802 H   0  0  0  0  0  0  0  0  0  0  0  0
   -0.0675    0.8908    3.6329 H   0  0  0  0  0  0  0  0  0  0  0  0
    0.0674   -0.8908    3.6328 H   0  0  0  0  0  0  0  0  0  0  0  0
    2.2762   -3.1061   -0.6747 H   0  0  0  0  0  0  0  0  0  0  0  0
    3.4865   -3.1221    0.6607 H   0  0  0  0  0  0  0  0  0  0  0  0
    4.0081   -3.4134   -1.0228 H   0  0  0  0  0  0  0  0  0  0  0  0
    3.6161    0.0563   -2.3439 H   0  0  0  0  0  0  0  0  0  0  0  0
    2.4350   -1.2774   -2.4961 H   0  0  0  0  0  0  0  0  0  0  0  0
    4.1934   -1.6007   -2.6784 H   0  0  0  0  0  0  0  0  0  0  0  0
    5.0993   -1.2013    0.9607 H   0  0  0  0  0  0  0  0  0  0  0  0
    5.2303    0.0893   -0.2731 H   0  0  0  0  0  0  0  0  0  0  0  0
    5.7333   -1.5844   -0.6757 H   0  0  0  0  0  0  0  0  0  0  0  0
   -1.6341    2.0479    1.5404 H   0  0  0  0  0  0  0  0  0  0  0  0
   -3.7971   -1.7616   -1.2847 H   0  0  0  0  0  0  0  0  0  0  0  0
   -3.2675   -4.1190   -0.7570 H   0  0  0  0  0  0  0  0  0  0  0  0
   -1.6889   -4.7174    1.0849 H   0  0  0  0  0  0  0  0  0  0  0  0
   -0.6253   -2.9430    2.4802 H   0  0  0  0  0  0  0  0  0  0  0  0
   -2.2757    3.1062   -0.6748 H   0  0  0  0  0  0  0  0  0  0  0  0
   -3.4859    3.1223    0.6606 H   0  0  0  0  0  0  0  0  0  0  0  0
   -4.0077    3.4137   -1.0228 H   0  0  0  0  0  0  0  0  0  0  0  0
   -3.6163   -0.0560   -2.3440 H   0  0  0  0  0  0  0  0  0  0  0  0
   -2.4348    1.2775   -2.4962 H   0  0  0  0  0  0  0  0  0  0  0  0
   -4.1931    1.6011   -2.6785 H   0  0  0  0  0  0  0  0  0  0  0  0
   -5.0991    1.2018    0.9606 H   0  0  0  0  0  0  0  0  0  0  0  0
   -5.2304   -0.0887   -0.2732 H   0  0  0  0  0  0  0  0  0  0  0  0
   -5.7331    1.5851   -0.6758 H   0  0  0  0  0  0  0  0  0  0  0  0
  1 10  1  6  0  0  0
  2 28  1  0  0  0  0
  2  1  1  0  0  0  0
  3  4  1  0  0  0  0
  3  2  2  0  0  0  0
  4  9  1  0  0  0  0
  5  6  1  0  0  0  0
  5  4  2  0  0  0  0
  6  7  2  0  0  0  0
  7 31  1  0  0  0  0
  7  8  1  0  0  0  0
  8 32  1  0  0  0  0
  9  8  2  0  0  0  0
  9  1  1  0  0  0  0
 10 34  1  0  0  0  0
 10 33  1  0  0  0  0
 11 12  1  0  0  0  0
 11 14  1  0  0  0  0
 11  3  1  0  0  0  0
 12 36  1  0  0  0  0
 13 11  1  0  0  0  0
 14 41  1  0  0  0  0
 15 10  1  6  0  0  0
 16 44  1  0  0  0  0
 16 15  1  0  0  0  0
 17 18  1  0  0  0  0
 17 16  2  0  0  0  0
 18 23  1  0  0  0  0
 19 20  1  0  0  0  0
 19 18  2  0  0  0  0
 20 21  2  0  0  0  0
 21 47  1  0  0  0  0
 21 22  1  0  0  0  0
 22 48  1  0  0  0  0
 23 22  2  0  0  0  0
 23 15  1  0  0  0  0
 24 25  1  0  0  0  0
 24 27  1  0  0  0  0
 24 17  1  0  0  0  0
 25 50  1  0  0  0  0
 26 24  1  0  0  0  0
 27 55  1  0  0  0  0
 29  5  1  0  0  0  0
 30  6  1  0  0  0  0
 35 12  1  0  0  0  0
 37 12  1  0  0  0  0
 38 13  1  0  0  0  0
 39 13  1  0  0  0  0
 40 13  1  0  0  0  0
 42 14  1  0  0  0  0
 43 14  1  0  0  0  0
 45 19  1  0  0  0  0
 46 20  1  0  0  0  0
 49 25  1  0  0  0  0
 51 25  1  0  0  0  0
 52 26  1  0  0  0  0
 53 26  1  0  0  0  0
 54 26  1  0  0  0  0
 56 27  1  0  0  0  0
 57 27  1  0  0  0  0
M  END
