3,37
q = -2.0, confidence = 0.894

 42 43  0  0  1  0  0  0  0  0999 V2000
   -3.0751   -0.2510    0.5974 Si  0  0  0  0  0  0  0  0  0  0  0  0
   -1.9059    1.1704    0.1465 C   0  0  1  0  0  3  0  0  0  0  0  0
   -0.8606    1.6189    1.0709 C   0  0  1  0  0  3  0  0  0  0  0  0
    0.1432    2.3133    0.3139 C   0  0  0  0  0  0  0  0  0  0  0  0
   -0.1713    2.1704   -1.0621 C   0  0  0  0  0  0  0  0  0  0  0  0
   -1.4590    1.4992   -1.1621 C   0  0  2  0  0  3  0  0  0  0  0  0
   -0.9355    1.7035    2.5717 C   0  0  0  0  0  0  0  0  0  0  0  0
    0.0628    1.5870    3.0376 H   0  0  0  0  0  0  0  0  0  0  0  0
   -1.6042    0.9441    3.0128 H   0  0  0  0  0  0  0  0  0  0  0  0
   -1.3283    2.6970    2.8811 H   0  0  0  0  0  0  0  0  0  0  0  0
    1.2608    3.1124    0.9030 C   0  0  0  0  0  0  0  0  0  0  0  0
    2.0144    3.3838    0.1409 H   0  0  0  0  0  0  0  0  0  0  0  0
    1.7799    2.5626    1.7117 H   0  0  0  0  0  0  0  0  0  0  0  0
    0.8699    4.0569    1.3395 H   0  0  0  0  0  0  0  0  0  0  0  0
    0.5839    2.7371   -2.2232 C   0  0  0  0  0  0  0  0  0  0  0  0
    0.0878    3.6529   -2.6119 H   0  0  0  0  0  0  0  0  0  0  0  0
    0.6432    2.0018   -3.0495 H   0  0  0  0  0  0  0  0  0  0  0  0
    1.6203    3.0051   -1.9420 H   0  0  0  0  0  0  0  0  0  0  0  0
   -2.1384    1.2742   -2.4785 C   0  0  0  0  0  0  0  0  0  0  0  0
   -1.5724    0.5464   -3.0993 H   0  0  0  0  0  0  0  0  0  0  0  0
   -2.1750    2.2232   -3.0530 H   0  0  0  0  0  0  0  0  0  0  0  0
   -3.1737    0.9139   -2.3589 H   0  0  0  0  0  0  0  0  0  0  0  0
   -4.0375   -0.0167    2.2078 C   0  0  0  0  0  0  0  0  0  0  0  0
   -3.3932   -0.0151    3.1077 H   0  0  0  0  0  0  0  0  0  0  0  0
   -4.7679   -0.8439    2.3217 H   0  0  0  0  0  0  0  0  0  0  0  0
   -4.6022    0.9380    2.1916 H   0  0  0  0  0  0  0  0  0  0  0  0
   -4.3038   -0.7542   -0.7448 C   0  0  0  0  0  0  0  0  0  0  0  0
   -3.8074   -1.0672   -1.6830 H   0  0  0  0  0  0  0  0  0  0  0  0
   -5.0088    0.0679   -0.9825 H   0  0  0  0  0  0  0  0  0  0  0  0
   -4.8995   -1.6130   -0.3721 H   0  0  0  0  0  0  0  0  0  0  0  0
   -1.7033   -1.5403    0.7221 C   0  0  1  0  0  3  0  0  0  0  0  0
   -1.1986   -2.2629   -0.3866 C   0  0  0  0  0  3  0  0  0  0  0  0
   -1.7080   -2.4045   -1.3488 H   0  0  0  0  0  0  0  0  0  0  0  0
    0.1282   -2.7612   -0.0920 C   0  0  0  0  0  0  0  0  0  0  0  0
    0.4451   -2.3210    1.2150 C   0  0  0  0  0  0  0  0  0  0  0  0
    1.3814   -2.5250    1.7467 H   0  0  0  0  0  0  0  0  0  0  0  0
   -0.6303   -1.5132    1.6963 C   0  0  0  0  0  3  0  0  0  0  0  0
   -0.6714   -1.0515    2.6902 H   0  0  0  0  0  0  0  0  0  0  0  0
    0.9478   -3.6490   -0.9750 C   0  0  0  0  0  0  0  0  0  0  0  0
    1.9873   -3.7364   -0.6064 H   0  0  0  0  0  0  0  0  0  0  0  0
    0.9805   -3.2481   -2.0079 H   0  0  0  0  0  0  0  0  0  0  0  0
    0.5098   -4.6687   -1.0153 H   0  0  0  0  0  0  0  0  0  0  0  0
  1 23  1  0  0  0  0
  2  1  1  6  0  0  0
  2  3  1  0  0  0  0
  3  7  1  1  0  0  0
  4 11  1  0  0  0  0
  4  3  1  0  0  0  0
  5  4  2  0  0  0  0
  6 19  1  1  0  0  0
  6  5  1  0  0  0  0
  6  2  1  0  0  0  0
  7 10  1  0  0  0  0
  7  9  1  0  0  0  0
  7  8  1  0  0  0  0
 11 14  1  0  0  0  0
 11 13  1  0  0  0  0
 12 11  1  0  0  0  0
 15 18  1  0  0  0  0
 15  5  1  0  0  0  0
 16 15  1  0  0  0  0
 17 15  1  0  0  0  0
 19 22  1  0  0  0  0
 20 19  1  0  0  0  0
 21 19  1  0  0  0  0
 23 25  1  0  0  0  0
 23 24  1  0  0  0  0
 26 23  1  0  0  0  0
 27 30  1  0  0  0  0
 27  1  1  0  0  0  0
 28 27  1  0  0  0  0
 29 27  1  0  0  0  0
 31  1  1  6  0  0  0
 31 37  1  0  0  0  0
 32 34  1  0  0  0  0
 32 31  1  0  0  0  0
 33 32  1  0  0  0  0
 34 35  2  0  0  0  0
 35 37  1  0  0  0  0
 35 36  1  0  0  0  0
 37 38  1  0  0  0  0
 39 40  1  0  0  0  0
 39 34  1  0  0  0  0
 41 39  1  0  0  0  0
 42 39  1  0  0  0  0
M  END
