38
q = -2.0, confidence = 0.554

 82 86  0  0  1  0  0  0  0  0999 V2000
   -0.9324    1.2099    2.1242 C   0  0  1  0  0  3  0  0  0  0  0  0
   -0.3893    2.4900    1.7673 C   0  0  0  0  0  0  0  0  0  0  0  0
   -0.9486    3.4319    1.8110 H   0  0  0  0  0  0  0  0  0  0  0  0
    0.9820    2.3491    1.4166 C   0  0  0  0  0  0  0  0  0  0  0  0
    1.2739    0.9493    1.4821 C   0  0  0  0  0  3  0  0  0  0  0  0
    2.2412    0.4932    1.2510 H   0  0  0  0  0  0  0  0  0  0  0  0
    0.1113    0.2404    1.9446 C   0  0  2  0  0  3  0  0  0  0  0  0
   -2.3162    0.9984    2.6691 C   0  0  0  0  0  0  0  0  0  0  0  0
   -2.4973   -0.0583    2.9397 H   0  0  0  0  0  0  0  0  0  0  0  0
   -3.0946    1.3118    1.9452 H   0  0  0  0  0  0  0  0  0  0  0  0
   -2.4508    1.6030    3.5899 H   0  0  0  0  0  0  0  0  0  0  0  0
    1.9922    3.4805    1.2622 C   0  0  0  0  0  0  0  0  0  0  0  0
    2.3389    3.9437    2.6998 C   0  0  0  0  0  0  0  0  0  0  0  0
    1.4414    4.3286    3.2245 H   0  0  0  0  0  0  0  0  0  0  0  0
    3.0961    4.7545    2.6690 H   0  0  0  0  0  0  0  0  0  0  0  0
    2.7526    3.1076    3.2995 H   0  0  0  0  0  0  0  0  0  0  0  0
    1.3946    4.6658    0.4810 C   0  0  0  0  0  0  0  0  0  0  0  0
    1.1341    4.3686   -0.5526 H   0  0  0  0  0  0  0  0  0  0  0  0
    2.1275    5.4968    0.4346 H   0  0  0  0  0  0  0  0  0  0  0  0
    0.4809    5.0578    0.9714 H   0  0  0  0  0  0  0  0  0  0  0  0
    3.2813    2.9916    0.5767 C   0  0  0  0  0  0  0  0  0  0  0  0
    3.7839    2.2013    1.1713 H   0  0  0  0  0  0  0  0  0  0  0  0
    3.9974    3.8319    0.4761 H   0  0  0  0  0  0  0  0  0  0  0  0
    3.0691    2.5922   -0.4333 H   0  0  0  0  0  0  0  0  0  0  0  0
   -0.0992   -1.2572    1.7655 C   0  0  2  0  0  0  0  0  0  0  0  0
   -1.0239   -1.5479    2.3087 H   0  0  0  0  0  0  0  0  0  0  0  0
    1.0268   -2.1529    2.2580 C   0  0  0  0  0  0  0  0  0  0  0  0
    1.2055   -3.4331    1.6971 C   0  0  0  0  0  0  0  0  0  0  0  0
    0.5419   -3.7588    0.8811 H   0  0  0  0  0  0  0  0  0  0  0  0
    2.2285   -4.2774    2.1512 C   0  0  0  0  0  0  0  0  0  0  0  0
    2.3573   -5.2717    1.6969 H   0  0  0  0  0  0  0  0  0  0  0  0
    3.0913   -3.8539    3.1757 C   0  0  0  0  0  0  0  0  0  0  0  0
    3.8998   -4.5126    3.5271 H   0  0  0  0  0  0  0  0  0  0  0  0
    2.9158   -2.5838    3.7459 C   0  0  0  0  0  0  0  0  0  0  0  0
    3.5852   -2.2428    4.5505 H   0  0  0  0  0  0  0  0  0  0  0  0
    1.8903   -1.7402    3.2903 C   0  0  0  0  0  0  0  0  0  0  0  0
    1.7614   -0.7419    3.7352 H   0  0  0  0  0  0  0  0  0  0  0  0
   -0.3881   -1.3371    0.2721 C   0  0  0  0  0  3  0  0  0  0  0  0
    0.5857   -1.2613   -0.7989 C   0  0  0  0  0  0  0  0  0  0  0  0
   -0.1138   -1.0514   -2.0517 C   0  0  0  0  0  0  0  0  0  0  0  0
   -1.5305   -1.0139   -1.7633 C   0  0  0  0  0  0  0  0  0  0  0  0
   -1.6963   -1.2324   -0.3397 C   0  0  0  0  0  0  0  0  0  0  0  0
   -2.6717   -0.8239   -2.5777 C   0  0  0  0  0  0  0  0  0  0  0  0
   -2.5590   -0.6539   -3.6586 H   0  0  0  0  0  0  0  0  0  0  0  0
   -3.9293   -0.8360   -1.9924 C   0  0  0  0  0  0  0  0  0  0  0  0
   -4.8082   -0.6673   -2.6312 H   0  0  0  0  0  0  0  0  0  0  0  0
   -4.1222   -1.0615   -0.5908 C   0  0  0  0  0  0  0  0  0  0  0  0
   -3.0050   -1.2664    0.2172 C   0  0  0  0  0  0  0  0  0  0  0  0
   -3.1220   -1.4587    1.2900 H   0  0  0  0  0  0  0  0  0  0  0  0
   -5.5509   -1.0313   -0.0247 C   0  0  0  0  0  0  0  0  0  0  0  0
   -6.1405    0.3789   -0.2636 C   0  0  0  0  0  0  0  0  0  0  0  0
   -7.1676    0.4425    0.1518 H   0  0  0  0  0  0  0  0  0  0  0  0
   -6.1947    0.6250   -1.3422 H   0  0  0  0  0  0  0  0  0  0  0  0
   -5.5146    1.1555    0.2197 H   0  0  0  0  0  0  0  0  0  0  0  0
   -6.4182   -2.0896   -0.7426 C   0  0  0  0  0  0  0  0  0  0  0  0
   -6.0146   -3.1095   -0.5800 H   0  0  0  0  0  0  0  0  0  0  0  0
   -6.4660   -1.9154   -1.8356 H   0  0  0  0  0  0  0  0  0  0  0  0
   -7.4571   -2.0635   -0.3540 H   0  0  0  0  0  0  0  0  0  0  0  0
   -5.5843   -1.3213    1.4855 C   0  0  0  0  0  0  0  0  0  0  0  0
   -5.0146   -0.5651    2.0619 H   0  0  0  0  0  0  0  0  0  0  0  0
   -5.1723   -2.3230    1.7230 H   0  0  0  0  0  0  0  0  0  0  0  0
   -6.6309   -1.2958    1.8493 H   0  0  0  0  0  0  0  0  0  0  0  0
    2.0111   -1.2912   -0.7907 C   0  0  0  0  0  0  0  0  0  0  0  0
    2.5300   -1.4658    0.1579 H   0  0  0  0  0  0  0  0  0  0  0  0
    2.7283   -1.1401   -1.9766 C   0  0  0  0  0  0  0  0  0  0  0  0
    2.0098   -0.9707   -3.2033 C   0  0  0  0  0  0  0  0  0  0  0  0
    2.5728   -0.8572   -4.1411 H   0  0  0  0  0  0  0  0  0  0  0  0
    0.6235   -0.9315   -3.2525 C   0  0  0  0  0  0  0  0  0  0  0  0
    0.1022   -0.7835   -4.2096 H   0  0  0  0  0  0  0  0  0  0  0  0
    4.2650   -1.1244   -1.9985 C   0  0  0  0  0  0  0  0  0  0  0  0
    4.8665   -1.3234   -0.5963 C   0  0  0  0  0  0  0  0  0  0  0  0
    4.5656   -0.5128    0.0982 H   0  0  0  0  0  0  0  0  0  0  0  0
    5.9731   -1.3113   -0.6584 H   0  0  0  0  0  0  0  0  0  0  0  0
    4.5655   -2.2911   -0.1467 H   0  0  0  0  0  0  0  0  0  0  0  0
    4.7358    0.2457   -2.5402 C   0  0  0  0  0  0  0  0  0  0  0  0
    4.3668    0.4333   -3.5677 H   0  0  0  0  0  0  0  0  0  0  0  0
    5.8443    0.2902   -2.5637 H   0  0  0  0  0  0  0  0  0  0  0  0
    4.3662    1.0705   -1.8986 H   0  0  0  0  0  0  0  0  0  0  0  0
    4.7797   -2.2554   -2.9170 C   0  0  0  0  0  0  0  0  0  0  0  0
    4.4577   -3.2476   -2.5411 H   0  0  0  0  0  0  0  0  0  0  0  0
    5.8885   -2.2446   -2.9574 H   0  0  0  0  0  0  0  0  0  0  0  0
    4.4059   -2.1490   -3.9545 H   0  0  0  0  0  0  0  0  0  0  0  0
  1  8  1  1  0  0  0
  2  3  1  0  0  0  0
  2  1  1  0  0  0  0
  4  5  1  0  0  0  0
  4  2  2  0  0  0  0
  5  7  1  0  0  0  0
  6  5  1  0  0  0  0
  7 25  1  6  0  0  0
  7  1  1  0  0  0  0
  8  9  1  0  0  0  0
  8 11  1  0  0  0  0
 10  8  1  0  0  0  0
 12  4  1  0  0  0  0
 12 13  1  0  0  0  0
 13 14  1  0  0  0  0
 13 16  1  0  0  0  0
 15 13  1  0  0  0  0
 17 20  1  0  0  0  0
 17 12  1  0  0  0  0
 18 17  1  0  0  0  0
 19 17  1  0  0  0  0
 21 22  1  0  0  0  0
 21 12  1  0  0  0  0
 23 21  1  0  0  0  0
 24 21  1  0  0  0  0
 25 27  1  0  0  0  0
 25 26  1  1  0  0  0
 27 36  1  0  0  0  0
 28 30  1  0  0  0  0
 28 27  2  0  0  0  0
 29 28  1  0  0  0  0
 30 32  2  0  0  0  0
 31 30  1  0  0  0  0
 32 33  1  0  0  0  0
 32 34  1  0  0  0  0
 34 35  1  0  0  0  0
 36 37  1  0  0  0  0
 36 34  2  0  0  0  0
 38 25  1  0  0  0  0
 39 63  1  0  0  0  0
 39 38  1  0  0  0  0
 40 41  1  0  0  0  0
 40 39  2  0  0  0  0
 41 42  1  0  0  0  0
 42 48  2  0  0  0  0
 42 38  1  0  0  0  0
 43 45  1  0  0  0  0
 43 41  2  0  0  0  0
 44 43  1  0  0  0  0
 45 47  2  0  0  0  0
 46 45  1  0  0  0  0
 47 50  1  0  0  0  0
 47 48  1  0  0  0  0
 48 49  1  0  0  0  0
 50 59  1  0  0  0  0
 51 50  1  0  0  0  0
 51 52  1  0  0  0  0
 51 54  1  0  0  0  0
 53 51  1  0  0  0  0
 55 56  1  0  0  0  0
 55 58  1  0  0  0  0
 55 50  1  0  0  0  0
 57 55  1  0  0  0  0
 59 61  1  0  0  0  0
 59 62  1  0  0  0  0
 59 60  1  0  0  0  0
 63 64  1  0  0  0  0
 65 63  2  0  0  0  0
 66 65  1  0  0  0  0
 67 66  1  0  0  0  0
 68 66  2  0  0  0  0
 68 40  1  0  0  0  0
 69 68  1  0  0  0  0
 70 65  1  0  0  0  0
 70 71  1  0  0  0  0
 71 74  1  0  0  0  0
 71 72  1  0  0  0  0
 73 71  1  0  0  0  0
 75 70  1  0  0  0  0
 75 78  1  0  0  0  0
 76 75  1  0  0  0  0
 77 75  1  0  0  0  0
 79 80  1  0  0  0  0
 79 70  1  0  0  0  0
 81 79  1  0  0  0  0
 82 79  1  0  0  0  0
M  END
