8,12
q = 0.0, confidence = 1.0

 46 47  0  0  1  0  0  0  0  0999 V2000
    0.4315   -0.2857   -2.1273 O   0  0  0  0  0  0  0  0  0  0  0  0
   -3.2740    2.8063   -0.5002 O   0  0  0  0  0  0  0  0  0  0  0  0
   -2.0982    2.9716    1.4291 O   0  0  0  0  0  0  0  0  0  0  0  0
    1.2367    1.0627   -0.3565 C   0  0  2  0  0  3  0  0  0  0  0  0
    1.5040    0.1902   -1.4694 C   0  0  0  0  0  0  0  0  0  0  0  0
    2.8478   -0.1554   -1.8108 C   0  0  0  0  0  0  0  0  0  0  0  0
    3.0477   -0.8804   -2.6078 H   0  0  0  0  0  0  0  0  0  0  0  0
    3.9335    0.4146   -1.0883 C   0  0  0  0  0  3  0  0  0  0  0  0
    4.9610    0.1183   -1.3423 H   0  0  0  0  0  0  0  0  0  0  0  0
    3.6996    1.3469   -0.0437 C   0  0  0  0  0  3  0  0  0  0  0  0
    4.5351    1.7681    0.5296 H   0  0  0  0  0  0  0  0  0  0  0  0
    2.3571    1.6227    0.3316 C   0  0  0  0  0  3  0  0  0  0  0  0
    2.1620    2.2696    1.1989 H   0  0  0  0  0  0  0  0  0  0  0  0
    0.5696   -1.4088   -2.9883 C   0  0  0  0  0  0  0  0  0  0  0  0
   -0.4563   -1.6795   -3.2966 H   0  0  0  0  0  0  0  0  0  0  0  0
    1.0271   -2.2672   -2.4535 H   0  0  0  0  0  0  0  0  0  0  0  0
    1.1689   -1.1629   -3.8915 H   0  0  0  0  0  0  0  0  0  0  0  0
   -0.1666    1.3909    0.1352 C   0  0  2  0  0  0  0  0  0  0  0  0
   -0.0454    1.6860    1.2002 H   0  0  0  0  0  0  0  0  0  0  0  0
   -1.0974    0.2654    0.1236 C   0  0  0  0  0  0  0  0  0  0  0  0
   -1.9777   -0.5888    0.1283 C   0  0  0  0  0  0  0  0  0  0  0  0
   -3.0261   -1.5566    0.1080 C   0  0  0  0  0  0  0  0  0  0  0  0
   -2.7562   -2.9348    0.3011 C   0  0  0  0  0  0  0  0  0  0  0  0
   -1.7175   -3.2557    0.4652 H   0  0  0  0  0  0  0  0  0  0  0  0
   -3.8038   -3.8638    0.2751 C   0  0  0  0  0  0  0  0  0  0  0  0
   -3.5852   -4.9319    0.4268 H   0  0  0  0  0  0  0  0  0  0  0  0
   -5.1262   -3.4414    0.0585 C   0  0  0  0  0  0  0  0  0  0  0  0
   -5.9448   -4.1769    0.0405 H   0  0  0  0  0  0  0  0  0  0  0  0
   -5.4005   -2.0770   -0.1367 C   0  0  0  0  0  0  0  0  0  0  0  0
   -6.4347   -1.7418   -0.3100 H   0  0  0  0  0  0  0  0  0  0  0  0
   -4.3633   -1.1374   -0.1143 C   0  0  0  0  0  0  0  0  0  0  0  0
   -4.5636   -0.0667   -0.2723 H   0  0  0  0  0  0  0  0  0  0  0  0
   -0.8227    2.6563   -0.5659 C   0  0  0  0  0  0  0  0  0  0  0  0
   -2.2086    2.8176    0.0853 C   0  0  0  0  0  0  0  0  0  0  0  0
   -3.3357    3.0183    2.1491 C   0  0  0  0  0  0  0  0  0  0  0  0
   -3.0726    3.2323    3.2001 H   0  0  0  0  0  0  0  0  0  0  0  0
   -3.8585    2.0426    2.0768 H   0  0  0  0  0  0  0  0  0  0  0  0
   -4.0010    3.8055    1.7424 H   0  0  0  0  0  0  0  0  0  0  0  0
   -1.0091    2.4549   -2.0715 C   0  0  0  0  0  0  0  0  0  0  0  0
   -0.0268    2.3768   -2.5761 H   0  0  0  0  0  0  0  0  0  0  0  0
   -1.5604    3.3124   -2.5025 H   0  0  0  0  0  0  0  0  0  0  0  0
   -1.5876    1.5367   -2.2801 H   0  0  0  0  0  0  0  0  0  0  0  0
    0.0194    3.9147   -0.2851 C   0  0  0  0  0  0  0  0  0  0  0  0
    1.0165    3.8290   -0.7611 H   0  0  0  0  0  0  0  0  0  0  0  0
    0.1547    4.0797    0.8014 H   0  0  0  0  0  0  0  0  0  0  0  0
   -0.4776    4.8103   -0.7085 H   0  0  0  0  0  0  0  0  0  0  0  0
  1  5  1  0  0  0  0
  2 34  2  0  0  0  0
  3 35  1  0  0  0  0
  4 18  1  1  0  0  0
  4 12  1  0  0  0  0
  5  4  1  0  0  0  0
  6  5  2  0  0  0  0
  6  8  1  0  0  0  0
  7  6  1  0  0  0  0
  8 10  1  0  0  0  0
  9  8  1  0  0  0  0
 10 12  1  0  0  0  0
 10 11  1  0  0  0  0
 12 13  1  0  0  0  0
 14 16  1  0  0  0  0
 14  1  1  0  0  0  0
 15 14  1  0  0  0  0
 17 14  1  0  0  0  0
 18 19  1  1  0  0  0
 20 21  3  0  0  0  0
 20 18  1  0  0  0  0
 22 21  1  0  0  0  0
 22 23  1  0  0  0  0
 23 24  1  0  0  0  0
 25 23  2  0  0  0  0
 25 26  1  0  0  0  0
 27 25  1  0  0  0  0
 28 27  1  0  0  0  0
 29 31  1  0  0  0  0
 29 27  2  0  0  0  0
 30 29  1  0  0  0  0
 31 22  2  0  0  0  0
 32 31  1  0  0  0  0
 33 43  1  0  0  0  0
 33 34  1  0  0  0  0
 33 18  1  0  0  0  0
 34  3  1  0  0  0  0
 35 36  1  0  0  0  0
 37 35  1  0  0  0  0
 38 35  1  0  0  0  0
 39 33  1  0  0  0  0
 40 39  1  0  0  0  0
 41 39  1  0  0  0  0
 42 39  1  0  0  0  0
 43 45  1  0  0  0  0
 44 43  1  0  0  0  0
 46 43  1  0  0  0  0
M  END
