17,21
q = 0.0, confidence = 1.0

 38 39  0  0  1  0  0  0  0  0999 V2000
   -0.8276    1.9179    0.4728 N   0  0  0  0  0  0  0  0  0  0  0  0
   -2.8802   -1.8255    0.2552 N   0  0  0  0  0  0  0  0  0  0  0  0
   -0.3022    0.7025    0.8657 C   0  0  0  0  0  0  0  0  0  0  0  0
   -1.4722    2.1793   -0.8317 C   0  0  0  0  0  0  0  0  0  0  0  0
   -2.5777    2.0805   -0.7578 H   0  0  0  0  0  0  0  0  0  0  0  0
   -1.1128    1.4662   -1.5972 H   0  0  0  0  0  0  0  0  0  0  0  0
   -1.0888    3.6259   -1.1616 C   0  0  0  0  0  0  0  0  0  0  0  0
   -0.0983    3.6406   -1.6607 H   0  0  0  0  0  0  0  0  0  0  0  0
   -1.8229    4.1138   -1.8314 H   0  0  0  0  0  0  0  0  0  0  0  0
   -0.9921    4.2658    0.2268 C   0  0  0  0  0  0  0  0  0  0  0  0
   -0.4323    5.2206    0.2418 H   0  0  0  0  0  0  0  0  0  0  0  0
   -2.0046    4.4559    0.6412 H   0  0  0  0  0  0  0  0  0  0  0  0
   -0.2851    3.1701    1.0243 C   0  0  0  0  0  0  0  0  0  0  0  0
    0.8159    3.2341    0.8546 H   0  0  0  0  0  0  0  0  0  0  0  0
   -0.4634    3.2324    2.1182 H   0  0  0  0  0  0  0  0  0  0  0  0
   -0.7857   -0.5854    0.4135 C   0  0  1  0  0  3  0  0  0  0  0  0
   -0.1353   -1.7683    0.8829 C   0  0  0  0  0  3  0  0  0  0  0  0
   -0.5413   -2.7235    0.5228 H   0  0  0  0  0  0  0  0  0  0  0  0
    0.9311   -1.7578    1.8144 C   0  0  0  0  0  3  0  0  0  0  0  0
    1.4059   -2.6921    2.1396 H   0  0  0  0  0  0  0  0  0  0  0  0
    1.4207   -0.4956    2.2364 C   0  0  0  0  0  3  0  0  0  0  0  0
    2.2878   -0.4321    2.9089 H   0  0  0  0  0  0  0  0  0  0  0  0
    0.8226    0.7030    1.7723 C   0  0  0  0  0  0  0  0  0  0  0  0
    1.2600    1.6539    2.0909 H   0  0  0  0  0  0  0  0  0  0  0  0
   -2.0403   -0.8288   -0.4394 C   0  0  1  0  0  0  0  0  0  0  0  0
   -2.6127    0.1258   -0.5070 H   0  0  0  0  0  0  0  0  0  0  0  0
   -3.9783   -2.3467   -0.5403 C   0  0  0  0  0  0  0  0  0  0  0  0
   -4.5564   -3.0666    0.0730 H   0  0  0  0  0  0  0  0  0  0  0  0
   -3.6107   -2.8922   -1.4293 H   0  0  0  0  0  0  0  0  0  0  0  0
   -4.6958   -1.5547   -0.8897 H   0  0  0  0  0  0  0  0  0  0  0  0
   -3.3639   -1.3126    1.5274 C   0  0  0  0  0  0  0  0  0  0  0  0
   -4.0579   -0.4361    1.4114 H   0  0  0  0  0  0  0  0  0  0  0  0
   -2.5166   -0.9869    2.1619 H   0  0  0  0  0  0  0  0  0  0  0  0
   -3.9117   -2.1078    2.0717 H   0  0  0  0  0  0  0  0  0  0  0  0
   -1.6737   -1.2651   -1.8647 C   0  0  0  0  0  0  0  0  0  0  0  0
   -1.2030   -2.2683   -1.8642 H   0  0  0  0  0  0  0  0  0  0  0  0
   -0.9337   -0.5644   -2.2922 H   0  0  0  0  0  0  0  0  0  0  0  0
   -2.5562   -1.2872   -2.5327 H   0  0  0  0  0  0  0  0  0  0  0  0
  1  3  1  0  0  0  0
  1 13  1  0  0  0  0
  2 31  1  0  0  0  0
  3 23  2  0  0  0  0
  4  5  1  0  0  0  0
  4  1  1  0  0  0  0
  6  4  1  0  0  0  0
  7  4  1  0  0  0  0
  7 10  1  0  0  0  0
  8  7  1  0  0  0  0
  9  7  1  0  0  0  0
 10 11  1  0  0  0  0
 10 12  1  0  0  0  0
 10 13  1  0  0  0  0
 13 15  1  0  0  0  0
 14 13  1  0  0  0  0
 16 25  1  1  0  0  0
 16  3  1  0  0  0  0
 16 17  1  0  0  0  0
 17 19  1  0  0  0  0
 18 17  1  0  0  0  0
 19 20  1  0  0  0  0
 19 21  1  0  0  0  0
 21 22  1  0  0  0  0
 23 24  1  0  0  0  0
 23 21  1  0  0  0  0
 25 26  1  6  0  0  0
 25  2  1  0  0  0  0
 27 28  1  0  0  0  0
 27  2  1  0  0  0  0
 29 27  1  0  0  0  0
 30 27  1  0  0  0  0
 31 34  1  0  0  0  0
 31 33  1  0  0  0  0
 32 31  1  0  0  0  0
 35 36  1  0  0  0  0
 35 25  1  0  0  0  0
 37 35  1  0  0  0  0
 38 35  1  0  0  0  0
M  END
