14,15
q = -2.0, confidence = 0.644

 71 76  0  0  1  0  0  0  0  0999 V2000
    2.9771    1.6561   -1.7979 S   0  0  0  0  0  0  0  0  0  0  0  0
   -2.9567    1.7908    1.5957 S   0  0  0  0  0  0  0  0  0  0  0  0
    0.0242    3.5146   -0.1502 Si  0  0  0  0  0  0  0  0  0  0  0  0
    3.8993    0.1733   -1.4970 C   0  0  0  0  0  0  0  0  0  0  0  0
   -3.8829    0.2940    1.3919 C   0  0  0  0  0  0  0  0  0  0  0  0
   -3.6041   -0.3684    0.2082 C   0  0  0  0  0  0  0  0  0  0  0  0
    3.6308   -0.3989   -0.2666 C   0  0  0  0  0  0  0  0  0  0  0  0
    1.9504    0.3222    1.7015 C   0  0  0  0  0  0  0  0  0  0  0  0
    2.0414   -0.4528    2.4712 H   0  0  0  0  0  0  0  0  0  0  0  0
   -1.8978    0.2035   -1.7854 C   0  0  0  0  0  0  0  0  0  0  0  0
   -1.9991   -0.6160   -2.5059 H   0  0  0  0  0  0  0  0  0  0  0  0
    1.1311    1.4910    1.7970 C   0  0  0  0  0  0  0  0  0  0  0  0
   -1.0760    1.3615   -1.9575 C   0  0  0  0  0  0  0  0  0  0  0  0
   -1.1965    2.2191   -0.7889 C   0  0  1  0  0  3  0  0  0  0  0  0
    1.2464    2.2647    0.5707 C   0  0  1  0  0  3  0  0  0  0  0  0
   -2.5841    0.3220   -0.5444 C   0  0  0  0  0  0  0  0  0  0  0  0
    2.6363    0.3572    0.4543 C   0  0  0  0  0  0  0  0  0  0  0  0
    2.1676    1.5174   -0.2479 C   0  0  0  0  0  0  0  0  0  0  0  0
   -2.1190    1.5293    0.0769 C   0  0  0  0  0  0  0  0  0  0  0  0
    4.2563   -1.6440    0.2474 C   0  0  0  0  0  0  0  0  0  0  0  0
   -4.2104   -1.6458   -0.2387 C   0  0  0  0  0  0  0  0  0  0  0  0
   -4.7835   -0.1394    2.5029 C   0  0  0  0  0  0  0  0  0  0  0  0
   -5.1166   -1.1800    2.3279 H   0  0  0  0  0  0  0  0  0  0  0  0
   -5.6842    0.5050    2.5906 H   0  0  0  0  0  0  0  0  0  0  0  0
   -4.2558   -0.1084    3.4779 H   0  0  0  0  0  0  0  0  0  0  0  0
    4.8192   -0.3237   -2.5652 C   0  0  0  0  0  0  0  0  0  0  0  0
    5.4691   -1.1214   -2.1577 H   0  0  0  0  0  0  0  0  0  0  0  0
    5.4622    0.4849   -2.9692 H   0  0  0  0  0  0  0  0  0  0  0  0
    4.2485   -0.7532   -3.4157 H   0  0  0  0  0  0  0  0  0  0  0  0
   -3.3516   -2.7400   -0.4959 C   0  0  0  0  0  0  0  0  0  0  0  0
   -2.2725   -2.6166   -0.3207 H   0  0  0  0  0  0  0  0  0  0  0  0
    3.9664   -2.8791   -0.3682 C   0  0  0  0  0  0  0  0  0  0  0  0
    3.2623   -2.8901   -1.2129 H   0  0  0  0  0  0  0  0  0  0  0  0
    4.5323   -4.0701    0.1083 C   0  0  0  0  0  0  0  0  0  0  0  0
    4.2903   -5.0267   -0.3791 H   0  0  0  0  0  0  0  0  0  0  0  0
   -3.8583   -3.9687   -0.9331 C   0  0  0  0  0  0  0  0  0  0  0  0
   -3.1727   -4.8095   -1.1176 H   0  0  0  0  0  0  0  0  0  0  0  0
    5.3968   -4.0333    1.2116 C   0  0  0  0  0  0  0  0  0  0  0  0
    5.8463   -4.9614    1.5966 H   0  0  0  0  0  0  0  0  0  0  0  0
   -5.2401   -4.1182   -1.1299 C   0  0  0  0  0  0  0  0  0  0  0  0
   -5.6524   -5.0785   -1.4760 H   0  0  0  0  0  0  0  0  0  0  0  0
    5.6922   -2.8071    1.8258 C   0  0  0  0  0  0  0  0  0  0  0  0
    6.3807   -2.7797    2.6856 H   0  0  0  0  0  0  0  0  0  0  0  0
   -6.0954   -3.0337   -0.8982 C   0  0  0  0  0  0  0  0  0  0  0  0
   -7.1769   -3.1463   -1.0769 H   0  0  0  0  0  0  0  0  0  0  0  0
    5.1370   -1.5984    1.3633 C   0  0  0  0  0  0  0  0  0  0  0  0
   -5.6092   -1.7847   -0.4575 C   0  0  0  0  0  0  0  0  0  0  0  0
   -6.5720   -0.6381   -0.2672 C   0  0  0  0  0  0  0  0  0  0  0  0
   -6.0802    0.3411   -0.4256 H   0  0  0  0  0  0  0  0  0  0  0  0
   -6.9976   -0.6228    0.7588 H   0  0  0  0  0  0  0  0  0  0  0  0
   -7.4267   -0.7215   -0.9670 H   0  0  0  0  0  0  0  0  0  0  0  0
    5.4893   -0.2879    2.0211 C   0  0  0  0  0  0  0  0  0  0  0  0
    6.3108   -0.4134    2.7524 H   0  0  0  0  0  0  0  0  0  0  0  0
    4.6211    0.1490    2.5577 H   0  0  0  0  0  0  0  0  0  0  0  0
    5.7987    0.4685    1.2712 H   0  0  0  0  0  0  0  0  0  0  0  0
    0.3713    1.8636    3.0388 C   0  0  0  0  0  0  0  0  0  0  0  0
    1.0125    2.4821    3.7027 H   0  0  0  0  0  0  0  0  0  0  0  0
    0.0689    0.9568    3.5964 H   0  0  0  0  0  0  0  0  0  0  0  0
   -0.5450    2.4416    2.8276 H   0  0  0  0  0  0  0  0  0  0  0  0
   -0.3159    1.6470   -3.2221 C   0  0  0  0  0  0  0  0  0  0  0  0
   -0.9944    2.1114   -3.9693 H   0  0  0  0  0  0  0  0  0  0  0  0
    0.0875    0.7128   -3.6579 H   0  0  0  0  0  0  0  0  0  0  0  0
    0.5308    2.3372   -3.0682 H   0  0  0  0  0  0  0  0  0  0  0  0
   -0.7931    4.6505    1.1119 C   0  0  0  0  0  0  0  0  0  0  0  0
   -0.0228    5.1827    1.7064 H   0  0  0  0  0  0  0  0  0  0  0  0
   -1.4645    4.1211    1.8146 H   0  0  0  0  0  0  0  0  0  0  0  0
   -1.4008    5.4093    0.5774 H   0  0  0  0  0  0  0  0  0  0  0  0
    0.8447    4.5711   -1.4778 C   0  0  0  0  0  0  0  0  0  0  0  0
    1.4399    5.3694   -0.9884 H   0  0  0  0  0  0  0  0  0  0  0  0
    0.0782    5.0554   -2.1164 H   0  0  0  0  0  0  0  0  0  0  0  0
    1.5301    4.0011   -2.1339 H   0  0  0  0  0  0  0  0  0  0  0  0
  1  4  1  0  0  0  0
  1 18  1  0  0  0  0
  3 64  1  0  0  0  0
  4  7  2  0  0  0  0
  5  2  1  0  0  0  0
  5 22  1  0  0  0  0
  6  5  2  0  0  0  0
  7 20  1  0  0  0  0
  7 17  1  0  0  0  0
  8 12  2  0  0  0  0
  8  9  1  0  0  0  0
 10 16  1  0  0  0  0
 11 10  1  0  0  0  0
 12 56  1  0  0  0  0
 13 10  2  0  0  0  0
 13 14  1  0  0  0  0
 14  3  1  1  0  0  0
 14 19  1  0  0  0  0
 15  3  1  6  0  0  0
 15 12  1  0  0  0  0
 16 19  2  0  0  0  0
 16  6  1  0  0  0  0
 17  8  1  0  0  0  0
 18 17  2  0  0  0  0
 18 15  1  0  0  0  0
 19  2  1  0  0  0  0
 20 46  1  0  0  0  0
 21  6  1  0  0  0  0
 22 24  1  0  0  0  0
 22 25  1  0  0  0  0
 23 22  1  0  0  0  0
 26 27  1  0  0  0  0
 26  4  1  0  0  0  0
 28 26  1  0  0  0  0
 29 26  1  0  0  0  0
 30 31  1  0  0  0  0
 30 21  2  0  0  0  0
 32 34  1  0  0  0  0
 32 20  2  0  0  0  0
 33 32  1  0  0  0  0
 34 38  2  0  0  0  0
 35 34  1  0  0  0  0
 36 30  1  0  0  0  0
 37 36  1  0  0  0  0
 38 39  1  0  0  0  0
 38 42  1  0  0  0  0
 40 36  2  0  0  0  0
 40 44  1  0  0  0  0
 41 40  1  0  0  0  0
 42 43  1  0  0  0  0
 44 47  2  0  0  0  0
 45 44  1  0  0  0  0
 46 42  2  0  0  0  0
 46 52  1  0  0  0  0
 47 48  1  0  0  0  0
 47 21  1  0  0  0  0
 48 50  1  0  0  0  0
 49 48  1  0  0  0  0
 51 48  1  0  0  0  0
 52 54  1  0  0  0  0
 52 53  1  0  0  0  0
 55 52  1  0  0  0  0
 56 58  1  0  0  0  0
 56 57  1  0  0  0  0
 59 56  1  0  0  0  0
 60 63  1  0  0  0  0
 60 13  1  0  0  0  0
 61 60  1  0  0  0  0
 62 60  1  0  0  0  0
 64 65  1  0  0  0  0
 64 66  1  0  0  0  0
 67 64  1  0  0  0  0
 68 69  1  0  0  0  0
 68  3  1  0  0  0  0
 70 68  1  0  0  0  0
 71 68  1  0  0  0  0
M  END
