2,3
q = -2.0, confidence = 0.638

 48 52  0  0  1  0  0  0  0  0999 V2000
    0.0046    1.0399   -0.5443 C   0  0  1  0  0  3  0  0  0  0  0  0
   -1.0458   -0.0001   -0.4550 C   0  0  2  0  0  3  0  0  0  0  0  0
    1.0368    0.0003   -0.6044 C   0  0  1  0  0  3  0  0  0  0  0  0
    0.0050   -1.0398   -0.5447 C   0  0  2  0  0  3  0  0  0  0  0  0
    0.0342    2.5013   -0.8037 C   0  0  0  0  0  0  0  0  0  0  0  0
    2.4266    0.0008   -1.1433 C   0  0  0  0  0  0  0  0  0  0  0  0
    0.0350   -2.5010   -0.8047 C   0  0  0  0  0  0  0  0  0  0  0  0
   -0.4379    2.9478   -2.1892 C   0  0  0  0  0  0  0  0  0  0  0  0
   -0.7754    2.1707   -2.8922 H   0  0  0  0  0  0  0  0  0  0  0  0
    0.1132    3.7770   -2.6599 H   0  0  0  0  0  0  0  0  0  0  0  0
   -0.4364   -2.9469   -2.1907 C   0  0  0  0  0  0  0  0  0  0  0  0
    0.1151   -3.7758   -2.6616 H   0  0  0  0  0  0  0  0  0  0  0  0
   -0.7737   -2.1695   -2.8934 H   0  0  0  0  0  0  0  0  0  0  0  0
   -2.5237   -0.0002   -0.6736 C   0  0  0  0  0  0  0  0  0  0  0  0
   -1.2832   -3.2304   -0.9771 C   0  0  0  0  0  0  0  0  0  0  0  0
   -2.2131   -2.6601   -0.8488 H   0  0  0  0  0  0  0  0  0  0  0  0
   -1.3284   -4.2641   -0.6011 H   0  0  0  0  0  0  0  0  0  0  0  0
   -1.2842    3.2305   -0.9751 C   0  0  0  0  0  0  0  0  0  0  0  0
   -1.3294    4.2640   -0.5985 H   0  0  0  0  0  0  0  0  0  0  0  0
   -2.2139    2.6600   -0.8466 H   0  0  0  0  0  0  0  0  0  0  0  0
   -3.4408    0.7526    0.2772 C   0  0  0  0  0  0  0  0  0  0  0  0
   -4.3016    1.2756   -0.1688 H   0  0  0  0  0  0  0  0  0  0  0  0
   -2.9944    1.2661    1.1391 H   0  0  0  0  0  0  0  0  0  0  0  0
   -3.4407   -0.7539    0.2766 C   0  0  0  0  0  0  0  0  0  0  0  0
   -2.9944   -1.2681    1.1382 H   0  0  0  0  0  0  0  0  0  0  0  0
   -4.3014   -1.2767   -0.1699 H   0  0  0  0  0  0  0  0  0  0  0  0
    3.5595    0.7547   -0.4734 C   0  0  0  0  0  0  0  0  0  0  0  0
    3.3636    1.2573    0.4836 H   0  0  0  0  0  0  0  0  0  0  0  0
    4.2670    1.2846   -1.1305 H   0  0  0  0  0  0  0  0  0  0  0  0
    3.5597   -0.7535   -0.4742 C   0  0  0  0  0  0  0  0  0  0  0  0
    4.2674   -1.2824   -1.1318 H   0  0  0  0  0  0  0  0  0  0  0  0
    3.3640   -1.2571    0.4823 H   0  0  0  0  0  0  0  0  0  0  0  0
    1.1932   -3.2746   -0.1977 C   0  0  0  0  0  0  0  0  0  0  0  0
    2.1650   -2.9218   -0.5921 H   0  0  0  0  0  0  0  0  0  0  0  0
    1.1028   -4.3538   -0.4322 H   0  0  0  0  0  0  0  0  0  0  0  0
    1.2081   -3.1614    0.9048 H   0  0  0  0  0  0  0  0  0  0  0  0
    1.1926    3.2748   -0.1970 C   0  0  0  0  0  0  0  0  0  0  0  0
    1.2082    3.1610    0.9055 H   0  0  0  0  0  0  0  0  0  0  0  0
    1.1018    4.3541   -0.4308 H   0  0  0  0  0  0  0  0  0  0  0  0
    2.1642    2.9225   -0.5921 H   0  0  0  0  0  0  0  0  0  0  0  0
    2.3940    0.0015   -2.6704 C   0  0  0  0  0  0  0  0  0  0  0  0
    1.8651   -0.8959   -3.0532 H   0  0  0  0  0  0  0  0  0  0  0  0
    3.4198    0.0019   -3.0904 H   0  0  0  0  0  0  0  0  0  0  0  0
    1.8649    0.8991   -3.0523 H   0  0  0  0  0  0  0  0  0  0  0  0
   -2.9174    0.0002   -2.1491 C   0  0  0  0  0  0  0  0  0  0  0  0
   -2.5255    0.8970   -2.6704 H   0  0  0  0  0  0  0  0  0  0  0  0
   -4.0198   -0.0000   -2.2633 H   0  0  0  0  0  0  0  0  0  0  0  0
   -2.5250   -0.8959   -2.6711 H   0  0  0  0  0  0  0  0  0  0  0  0
  1  5  1  6  0  0  0
  1  2  1  0  0  0  0
  2 14  1  6  0  0  0
  3  6  1  6  0  0  0
  3  4  1  0  0  0  0
  3  1  1  0  0  0  0
  4  7  1  6  0  0  0
  4  2  1  0  0  0  0
  5 37  1  0  0  0  0
  6 30  1  0  0  0  0
  6 27  1  0  0  0  0
  7 33  1  0  0  0  0
  8 18  1  0  0  0  0
  8  5  1  0  0  0  0
  9  8  1  0  0  0  0
 10  8  1  0  0  0  0
 11 15  1  0  0  0  0
 11  7  1  0  0  0  0
 12 11  1  0  0  0  0
 13 11  1  0  0  0  0
 14 24  1  0  0  0  0
 14 21  1  0  0  0  0
 15 16  1  0  0  0  0
 15  7  1  0  0  0  0
 15 17  1  0  0  0  0
 18 20  1  0  0  0  0
 18  5  1  0  0  0  0
 18 19  1  0  0  0  0
 21 23  1  0  0  0  0
 22 21  1  0  0  0  0
 24 21  1  0  0  0  0
 24 25  1  0  0  0  0
 26 24  1  0  0  0  0
 27 28  1  0  0  0  0
 29 27  1  0  0  0  0
 30 27  1  0  0  0  0
 30 32  1  0  0  0  0
 31 30  1  0  0  0  0
 33 36  1  0  0  0  0
 34 33  1  0  0  0  0
 35 33  1  0  0  0  0
 37 38  1  0  0  0  0
 39 37  1  0  0  0  0
 40 37  1  0  0  0  0
 41  6  1  0  0  0  0
 42 41  1  0  0  0  0
 43 41  1  0  0  0  0
 44 41  1  0  0  0  0
 45 14  1  0  0  0  0
 46 45  1  0  0  0  0
 47 45  1  0  0  0  0
 48 45  1  0  0  0  0
M  END
