4,7
q = 0.0, confidence = 0.998

 23 25  0  0  1  0  0  0  0  0999 V2000
    2.6393   -2.7058   -0.6757 O   0  0  0  0  0  0  0  0  0  0  0  0
    3.0274   -2.0878   -1.3250 H   0  0  0  0  0  0  0  0  0  0  0  0
    1.1431    0.2734   -0.4730 C   0  0  0  0  0  0  0  0  0  0  0  0
    0.8028   -1.1153   -0.6072 C   0  0  1  0  0  3  0  0  0  0  0  0
   -0.2191   -1.4943   -1.5012 C   0  0  0  0  0  3  0  0  0  0  0  0
   -0.4878   -2.5492   -1.6479 H   0  0  0  0  0  0  0  0  0  0  0  0
   -0.9655   -0.4534   -2.1578 C   0  0  0  0  0  3  0  0  0  0  0  0
   -1.8170   -0.7309   -2.7950 H   0  0  0  0  0  0  0  0  0  0  0  0
   -0.6925    0.9217   -1.9399 C   0  0  0  0  0  3  0  0  0  0  0  0
   -1.3245    1.6844   -2.4155 H   0  0  0  0  0  0  0  0  0  0  0  0
    0.4267    1.3274   -1.1162 C   0  0  0  0  0  0  0  0  0  0  0  0
    0.8642    2.6574   -0.8153 C   0  0  0  0  0  0  0  0  0  0  0  0
    0.3547    3.5145   -1.2798 H   0  0  0  0  0  0  0  0  0  0  0  0
    1.9301    2.8556    0.0544 C   0  0  0  0  0  0  0  0  0  0  0  0
    2.2573    3.8852    0.2650 H   0  0  0  0  0  0  0  0  0  0  0  0
    2.6058    1.7784    0.7111 C   0  0  0  0  0  0  0  0  0  0  0  0
    3.4216    1.9979    1.4162 H   0  0  0  0  0  0  0  0  0  0  0  0
    2.1951    0.4797    0.4651 C   0  0  0  0  0  0  0  0  0  0  0  0
    2.5901   -0.8680    1.0316 C   0  0  0  0  0  0  0  0  0  0  0  0
    2.2970   -0.9252    2.1012 H   0  0  0  0  0  0  0  0  0  0  0  0
    3.6784   -1.0763    0.9848 H   0  0  0  0  0  0  0  0  0  0  0  0
    1.8116   -1.9401    0.1868 C   0  0  2  0  0  0  0  0  0  0  0  0
    1.3124   -2.6791    0.8434 H   0  0  0  0  0  0  0  0  0  0  0  0
  1 22  1  0  0  0  0
  2  1  1  0  0  0  0
  3 18  1  0  0  0  0
  4  5  1  6  0  0  0
  4  3  1  0  0  0  0
  4 22  1  0  0  0  0
  6  5  1  0  0  0  0
  7  9  1  0  0  0  0
  7  5  1  0  0  0  0
  8  7  1  0  0  0  0
  9 11  1  0  0  0  0
 10  9  1  0  0  0  0
 11 12  1  0  0  0  0
 11  3  2  0  0  0  0
 12 14  2  0  0  0  0
 13 12  1  0  0  0  0
 14 15  1  0  0  0  0
 14 16  1  0  0  0  0
 16 17  1  0  0  0  0
 18 16  2  0  0  0  0
 18 19  1  0  0  0  0
 19 20  1  0  0  0  0
 21 19  1  0  0  0  0
 22 23  1  1  0  0  0
 22 19  1  0  0  0  0
M  END
