6,16
q = 0.0, confidence = 0.864

 21 20  0  0  0  0  0  0  0  0999 V2000
    0.3964    3.0366   -0.8792 C   0  0  0  0  0  0  0  0  0  0  0  0
    0.9421    2.7553   -1.8038 H   0  0  0  0  0  0  0  0  0  0  0  0
    1.1709    3.3323   -0.1440 H   0  0  0  0  0  0  0  0  0  0  0  0
   -0.2518    3.9075   -1.1072 H   0  0  0  0  0  0  0  0  0  0  0  0
   -0.3934    1.8836   -0.3905 C   0  0  0  0  0  3  0  0  0  0  0  0
   -1.5846    1.3188   -0.3764 C   0  0  0  0  0  3  0  0  0  0  0  0
   -3.0125    1.2804   -0.7912 C   0  0  0  0  0  0  0  0  0  0  0  0
   -3.0630    1.3681   -1.9006 H   0  0  0  0  0  0  0  0  0  0  0  0
   -3.5331    2.1776   -0.3917 H   0  0  0  0  0  0  0  0  0  0  0  0
   -3.7274   -0.0000   -0.3230 C   0  0  0  0  0  0  0  0  0  0  0  0
   -3.7658   -0.0002    0.7871 H   0  0  0  0  0  0  0  0  0  0  0  0
   -4.7759   -0.0000   -0.6828 H   0  0  0  0  0  0  0  0  0  0  0  0
   -3.0124   -1.2803   -0.7915 C   0  0  0  0  0  0  0  0  0  0  0  0
   -3.5329   -2.1777   -0.3923 H   0  0  0  0  0  0  0  0  0  0  0  0
   -3.0629   -1.3676   -1.9009 H   0  0  0  0  0  0  0  0  0  0  0  0
   -1.5845   -1.3188   -0.3766 C   0  0  0  0  0  3  0  0  0  0  0  0
   -0.3934   -1.8836   -0.3905 C   0  0  0  0  0  3  0  0  0  0  0  0
    0.3963   -3.0368   -0.8791 C   0  0  0  0  0  0  0  0  0  0  0  0
   -0.2521   -3.9073   -1.1077 H   0  0  0  0  0  0  0  0  0  0  0  0
    1.1701   -3.3330   -0.1434 H   0  0  0  0  0  0  0  0  0  0  0  0
    0.9428   -2.7554   -1.8032 H   0  0  0  0  0  0  0  0  0  0  0  0
  1  5  1  0  0  0  0
  1  3  1  0  0  0  0
  2  1  1  0  0  0  0
  4  1  1  0  0  0  0
  5  6  2  0  0  0  0
  7  9  1  0  0  0  0
  7  6  1  0  0  0  0
  7 10  1  0  0  0  0
  8  7  1  0  0  0  0
 10 11  1  0  0  0  0
 12 10  1  0  0  0  0
 13 14  1  0  0  0  0
 13 16  1  0  0  0  0
 13 10  1  0  0  0  0
 15 13  1  0  0  0  0
 17 16  2  0  0  0  0
 18 17  1  0  0  0  0
 18 20  1  0  0  0  0
 19 18  1  0  0  0  0
 21 18  1  0  0  0  0
M  END
