11,13
q = 0.0, confidence = 0.998

 31 32  0  0  1  0  0  0  0  0999 V2000
    2.9595    2.3819   -0.9714 O   0  0  0  0  0  0  0  0  0  0  0  0
    2.4278    3.5529   -0.3626 C   0  0  0  0  0  0  0  0  0  0  0  0
   -4.7607   -1.1157   -0.4464 C   0  0  0  0  0  0  0  0  0  0  0  0
   -6.1374   -1.1125   -0.1979 C   0  0  0  0  0  0  0  0  0  0  0  0
   -6.7806    0.0649    0.2196 C   0  0  0  0  0  0  0  0  0  0  0  0
   -6.0370    1.2450    0.3890 C   0  0  0  0  0  0  0  0  0  0  0  0
   -4.6598    1.2537    0.1434 C   0  0  0  0  0  0  0  0  0  0  0  0
   -4.0003    0.0706   -0.2794 C   0  0  0  0  0  0  0  0  0  0  0  0
   -2.5983    0.0729   -0.5292 C   0  0  0  0  0  0  0  0  0  0  0  0
   -1.3866    0.0719   -0.7440 C   0  0  0  0  0  0  0  0  0  0  0  0
    0.0165    0.0767   -0.9917 C   0  0  2  0  0  3  0  0  0  0  0  0
    0.6852   -1.1198   -1.4106 C   0  0  0  0  0  3  0  0  0  0  0  0
    2.0964   -1.1249   -1.6197 C   0  0  2  0  0  3  0  0  0  0  0  0
    2.8304    0.0836   -1.4512 C   0  0  0  0  0  3  0  0  0  0  0  0
    2.1667    1.2937   -1.0832 C   0  0  0  0  0  0  0  0  0  0  0  0
    0.7699    1.2925   -0.8165 C   0  0  0  0  0  0  0  0  0  0  0  0
    2.7987   -2.3861   -2.0465 C   0  0  0  0  0  0  0  0  0  0  0  0
    3.2598    4.2781   -0.3148 H   0  0  0  0  0  0  0  0  0  0  0  0
    1.6009    3.9893   -0.9638 H   0  0  0  0  0  0  0  0  0  0  0  0
    2.0696    3.3405    0.6671 H   0  0  0  0  0  0  0  0  0  0  0  0
   -4.2521   -2.0350   -0.7705 H   0  0  0  0  0  0  0  0  0  0  0  0
   -6.7160   -2.0393   -0.3295 H   0  0  0  0  0  0  0  0  0  0  0  0
   -7.8635    0.0624    0.4149 H   0  0  0  0  0  0  0  0  0  0  0  0
   -6.5368    2.1687    0.7180 H   0  0  0  0  0  0  0  0  0  0  0  0
   -4.0729    2.1738    0.2774 H   0  0  0  0  0  0  0  0  0  0  0  0
    0.1078   -2.0478   -1.5072 H   0  0  0  0  0  0  0  0  0  0  0  0
    3.9200    0.1091   -1.5795 H   0  0  0  0  0  0  0  0  0  0  0  0
    0.2467    2.1913   -0.4744 H   0  0  0  0  0  0  0  0  0  0  0  0
    2.8131   -2.4561   -3.1545 H   0  0  0  0  0  0  0  0  0  0  0  0
    3.8455   -2.4024   -1.6888 H   0  0  0  0  0  0  0  0  0  0  0  0
    2.2866   -3.2846   -1.6535 H   0  0  0  0  0  0  0  0  0  0  0  0
  1  2  1  0  0  0  0
  2 18  1  0  0  0  0
  2 20  1  0  0  0  0
  3  8  2  0  0  0  0
  3  4  1  0  0  0  0
  4  5  2  0  0  0  0
  5  6  1  0  0  0  0
  5 23  1  0  0  0  0
  6 24  1  0  0  0  0
  7 25  1  0  0  0  0
  7  6  2  0  0  0  0
  8  7  1  0  0  0  0
  9  8  1  0  0  0  0
 10  9  3  0  0  0  0
 11 16  1  0  0  0  0
 11 10  1  1  0  0  0
 12 11  1  0  0  0  0
 13 17  1  6  0  0  0
 13 14  1  0  0  0  0
 13 12  1  0  0  0  0
 14 15  1  0  0  0  0
 15  1  1  0  0  0  0
 15 16  2  0  0  0  0
 16 28  1  0  0  0  0
 17 30  1  0  0  0  0
 17 31  1  0  0  0  0
 19  2  1  0  0  0  0
 21  3  1  0  0  0  0
 22  4  1  0  0  0  0
 26 12  1  0  0  0  0
 27 14  1  0  0  0  0
 29 17  1  0  0  0  0
M  END
