1,5
q = -1.0, confidence = 0.018

 30 31  0  0  0  0  0  0  0  0999 V2000
   -0.8728   -0.3922   -0.1584 C   0  0  0  0  0  3  0  0  0  0  0  0
   -1.8353   -1.4264   -0.2108 C   0  0  0  0  0  0  0  0  0  0  0  0
   -1.4851   -2.7918   -0.3088 C   0  0  0  0  0  0  0  0  0  0  0  0
   -0.1668   -3.2729   -0.3732 C   0  0  0  0  0  0  0  0  0  0  0  0
    0.9578   -2.4642   -0.3119 C   0  0  0  0  0  2  0  0  0  0  0  0
   -1.3550    1.0111   -0.0331 C   0  0  0  0  0  0  0  0  0  0  0  0
   -1.9676    1.4623    1.1588 C   0  0  0  0  0  0  0  0  0  0  0  0
   -2.4420    2.7767    1.2699 C   0  0  0  0  0  0  0  0  0  0  0  0
   -2.3240    3.6676    0.1907 C   0  0  0  0  0  0  0  0  0  0  0  0
   -1.7215    3.2310   -1.0014 C   0  0  0  0  0  0  0  0  0  0  0  0
   -1.2371    1.9193   -1.1090 C   0  0  0  0  0  0  0  0  0  0  0  0
   -3.3014   -1.1179   -0.1543 C   0  0  0  0  0  0  0  0  0  0  0  0
   -3.9240   -0.2653   -1.0918 C   0  0  0  0  0  0  0  0  0  0  0  0
   -5.2979    0.0015   -1.0205 C   0  0  0  0  0  0  0  0  0  0  0  0
   -6.0822   -0.5806   -0.0113 C   0  0  0  0  0  0  0  0  0  0  0  0
   -5.4798   -1.4385    0.9217 C   0  0  0  0  0  0  0  0  0  0  0  0
   -4.1041   -1.7047    0.8484 C   0  0  0  0  0  0  0  0  0  0  0  0
   -2.3099   -3.5203   -0.3665 H   0  0  0  0  0  0  0  0  0  0  0  0
   -0.0259   -4.3630   -0.4811 H   0  0  0  0  0  0  0  0  0  0  0  0
    1.9399   -2.9775   -0.3612 H   0  0  0  0  0  0  0  0  0  0  0  0
   -2.0778    0.7595    1.9983 H   0  0  0  0  0  0  0  0  0  0  0  0
   -2.9164    3.1069    2.2070 H   0  0  0  0  0  0  0  0  0  0  0  0
   -2.7039    4.6969    0.2761 H   0  0  0  0  0  0  0  0  0  0  0  0
   -1.6329    3.9173   -1.8582 H   0  0  0  0  0  0  0  0  0  0  0  0
   -0.7727    1.5705   -2.0435 H   0  0  0  0  0  0  0  0  0  0  0  0
   -3.3187    0.1901   -1.8883 H   0  0  0  0  0  0  0  0  0  0  0  0
   -5.7616    0.6688   -1.7632 H   0  0  0  0  0  0  0  0  0  0  0  0
   -7.1606   -0.3672    0.0462 H   0  0  0  0  0  0  0  0  0  0  0  0
   -6.0840   -1.9006    1.7179 H   0  0  0  0  0  0  0  0  0  0  0  0
   -3.6307   -2.3668    1.5902 H   0  0  0  0  0  0  0  0  0  0  0  0
  1  6  1  0  0  0  0
  2  1  2  0  0  0  0
  2 12  1  0  0  0  0
  3  2  1  0  0  0  0
  4  5  1  0  0  0  0
  4  3  2  0  0  0  0
  6  7  1  0  0  0  0
  7  8  2  0  0  0  0
  7 21  1  0  0  0  0
  8 22  1  0  0  0  0
  9 23  1  0  0  0  0
  9  8  1  0  0  0  0
 10  9  2  0  0  0  0
 11 10  1  0  0  0  0
 11  6  2  0  0  0  0
 12 17  1  0  0  0  0
 13 14  1  0  0  0  0
 13 12  2  0  0  0  0
 14 15  2  0  0  0  0
 15 28  1  0  0  0  0
 15 16  1  0  0  0  0
 16 29  1  0  0  0  0
 17 16  2  0  0  0  0
 17 30  1  0  0  0  0
 18  3  1  0  0  0  0
 19  4  1  0  0  0  0
 20  5  1  0  0  0  0
 24 10  1  0  0  0  0
 25 11  1  0  0  0  0
 26 13  1  0  0  0  0
 27 14  1  0  0  0  0
M  END
