6,10
q = 0.0, confidence = 1.0

 29 29  0  0  1  0  0  0  0  0999 V2000
    1.6635   -0.3898   -0.1367 P   0  0  0  0  0  0  0  0  0  0  0  0
    2.5012    1.1214    0.5300 C   0  0  0  0  0  0  0  0  0  0  0  0
    2.0061    2.4505   -0.0605 C   0  0  0  0  0  0  0  0  0  0  0  0
    0.5937    2.8817    0.3776 C   0  0  0  0  0  0  0  0  0  0  0  0
   -0.5503    1.9846   -0.0341 C   0  0  1  0  0  3  0  0  0  0  0  0
   -0.6772    1.4753   -1.3845 C   0  0  0  0  0  3  0  0  0  0  0  0
   -1.7141    0.5580   -1.7231 C   0  0  0  0  0  3  0  0  0  0  0  0
   -2.7178    0.1954   -0.7509 C   0  0  0  0  0  0  0  0  0  0  0  0
   -2.6311    0.7076    0.5570 C   0  0  0  0  0  0  0  0  0  0  0  0
   -1.5259    1.5613    0.9237 C   0  0  0  0  0  3  0  0  0  0  0  0
    2.4817   -1.7840    0.7170 C   0  0  0  0  0  0  0  0  0  0  0  0
    2.2674   -0.5414   -1.8674 C   0  0  0  0  0  0  0  0  0  0  0  0
    3.5931    1.0080    0.3599 H   0  0  0  0  0  0  0  0  0  0  0  0
    2.3323    1.0947    1.6280 H   0  0  0  0  0  0  0  0  0  0  0  0
    2.7075    3.2521    0.2517 H   0  0  0  0  0  0  0  0  0  0  0  0
    2.0765    2.4238   -1.1700 H   0  0  0  0  0  0  0  0  0  0  0  0
    0.5744    2.9795    1.4827 H   0  0  0  0  0  0  0  0  0  0  0  0
    0.3970    3.8991   -0.0274 H   0  0  0  0  0  0  0  0  0  0  0  0
    0.0766    1.7311   -2.1440 H   0  0  0  0  0  0  0  0  0  0  0  0
   -1.7229    0.0906   -2.7177 H   0  0  0  0  0  0  0  0  0  0  0  0
   -3.4713   -0.5638   -1.0023 H   0  0  0  0  0  0  0  0  0  0  0  0
   -3.3146    0.3475    1.3385 H   0  0  0  0  0  0  0  0  0  0  0  0
   -1.3956    1.8429    1.9783 H   0  0  0  0  0  0  0  0  0  0  0  0
    2.2172   -1.7399    1.7891 H   0  0  0  0  0  0  0  0  0  0  0  0
    3.5779   -1.7431    0.5611 H   0  0  0  0  0  0  0  0  0  0  0  0
    2.0535   -2.7121    0.2931 H   0  0  0  0  0  0  0  0  0  0  0  0
    3.3685   -0.6633   -1.9016 H   0  0  0  0  0  0  0  0  0  0  0  0
    1.7649   -1.4337   -2.2897 H   0  0  0  0  0  0  0  0  0  0  0  0
    1.9731    0.3436   -2.4625 H   0  0  0  0  0  0  0  0  0  0  0  0
  1  2  1  0  0  0  0
  1 11  1  0  0  0  0
  2 14  1  0  0  0  0
  3 15  1  0  0  0  0
  3  4  1  0  0  0  0
  3  2  1  0  0  0  0
  4 17  1  0  0  0  0
  5  4  1  1  0  0  0
  5 10  1  0  0  0  0
  6  5  1  0  0  0  0
  7  6  1  0  0  0  0
  7  8  1  0  0  0  0
  8  9  2  0  0  0  0
  9 10  1  0  0  0  0
  9 22  1  0  0  0  0
 10 23  1  0  0  0  0
 11 24  1  0  0  0  0
 12  1  1  0  0  0  0
 13  2  1  0  0  0  0
 16  3  1  0  0  0  0
 18  4  1  0  0  0  0
 19  6  1  0  0  0  0
 20  7  1  0  0  0  0
 21  8  1  0  0  0  0
 25 11  1  0  0  0  0
 26 11  1  0  0  0  0
 27 12  1  0  0  0  0
 28 12  1  0  0  0  0
 29 12  1  0  0  0  0
M  END
