4,6
q = 0.0, confidence = 0.984

 28 28  0  0  1  0  0  0  0  0999 V2000
   -2.5873   -0.1536    0.6842 C   0  0  1  0  0  3  0  0  0  0  0  0
   -3.1837   -1.0606   -1.5687 C   0  0  0  0  0  0  0  0  0  0  0  0
   -2.0640    0.9893    1.5154 C   0  0  0  0  0  0  0  0  0  0  0  0
   -2.8309    0.0250   -0.7256 C   0  0  0  0  0  3  0  0  0  0  0  0
   -3.0552    2.1523    1.6692 C   0  0  0  0  0  0  0  0  0  0  0  0
   -2.7225   -1.4832    1.1960 C   0  0  0  0  0  3  0  0  0  0  0  0
   -4.3448    1.7763    2.4010 C   0  0  0  0  0  0  0  0  0  0  0  0
   -5.3303    2.9373    2.5438 C   0  0  0  0  0  0  0  0  0  0  0  0
   -6.5528    2.5637    3.1511 O   0  0  0  0  0  0  0  0  0  0  0  0
   -3.1427   -2.5822    0.3636 C   0  0  0  0  0  3  0  0  0  0  0  0
   -3.3541   -2.3941   -1.0301 C   0  0  0  0  0  0  0  0  0  0  0  0
   -3.6596   -3.5408   -1.9476 C   0  0  0  0  0  0  0  0  0  0  0  0
   -6.3402    2.2396    4.0455 H   0  0  0  0  0  0  0  0  0  0  0  0
   -3.2223   -0.8985   -2.6545 H   0  0  0  0  0  0  0  0  0  0  0  0
   -1.1322    1.3447    1.0241 H   0  0  0  0  0  0  0  0  0  0  0  0
   -1.7692    0.6072    2.5163 H   0  0  0  0  0  0  0  0  0  0  0  0
   -2.5998    0.9859   -1.2043 H   0  0  0  0  0  0  0  0  0  0  0  0
   -2.5464    2.9861    2.2007 H   0  0  0  0  0  0  0  0  0  0  0  0
   -3.3082    2.5493    0.6606 H   0  0  0  0  0  0  0  0  0  0  0  0
   -2.4609   -1.6733    2.2502 H   0  0  0  0  0  0  0  0  0  0  0  0
   -4.8600    0.9450    1.8725 H   0  0  0  0  0  0  0  0  0  0  0  0
   -4.0922    1.3876    3.4157 H   0  0  0  0  0  0  0  0  0  0  0  0
   -4.8332    3.7849    3.0824 H   0  0  0  0  0  0  0  0  0  0  0  0
   -5.5941    3.3245    1.5360 H   0  0  0  0  0  0  0  0  0  0  0  0
   -3.1973   -3.5984    0.7830 H   0  0  0  0  0  0  0  0  0  0  0  0
   -2.9109   -3.5704   -2.7652 H   0  0  0  0  0  0  0  0  0  0  0  0
   -3.6232   -4.5089   -1.4135 H   0  0  0  0  0  0  0  0  0  0  0  0
   -4.6678   -3.4199   -2.3948 H   0  0  0  0  0  0  0  0  0  0  0  0
  1  6  1  0  0  0  0
  1  3  1  6  0  0  0
  2 11  2  0  0  0  0
  2  4  1  0  0  0  0
  3  5  1  0  0  0  0
  3 16  1  0  0  0  0
  4  1  1  0  0  0  0
  5 18  1  0  0  0  0
  5  7  1  0  0  0  0
  6 20  1  0  0  0  0
  7  8  1  0  0  0  0
  7 22  1  0  0  0  0
  8 23  1  0  0  0  0
  8  9  1  0  0  0  0
  9 13  1  0  0  0  0
 10 25  1  0  0  0  0
 10  6  1  0  0  0  0
 11 10  1  0  0  0  0
 12 27  1  0  0  0  0
 12 11  1  0  0  0  0
 14  2  1  0  0  0  0
 15  3  1  0  0  0  0
 17  4  1  0  0  0  0
 19  5  1  0  0  0  0
 21  7  1  0  0  0  0
 24  8  1  0  0  0  0
 26 12  1  0  0  0  0
 28 12  1  0  0  0  0
M  END
