6,34
q = 0.0, confidence = 0.99

 53 58  0  0  0  0  0  0  0  0999 V2000
   -0.6015   -0.0008   -1.4776 S   0  0  0  0  0  0  0  0  0  0  0  0
   -1.7084   -1.5230   -1.4592 C   0  0  0  0  0  0  0  0  0  0  0  0
   -2.3306   -1.4077   -2.3688 H   0  0  0  0  0  0  0  0  0  0  0  0
   -2.5931   -1.6375   -0.2521 C   0  0  0  0  0  0  0  0  0  0  0  0
   -2.0462   -1.6664    1.0584 C   0  0  0  0  0  0  0  0  0  0  0  0
   -0.6027   -1.6016    1.3361 C   0  0  0  0  0  3  0  0  0  0  0  0
   -0.3962   -1.5818    2.4194 H   0  0  0  0  0  0  0  0  0  0  0  0
    0.4515   -2.1843    0.5449 C   0  0  0  0  0  3  0  0  0  0  0  0
    1.3320   -2.5193    1.1198 H   0  0  0  0  0  0  0  0  0  0  0  0
    0.2944   -2.9236   -0.7210 C   0  0  0  0  0  0  0  0  0  0  0  0
   -0.7369   -2.6619   -1.6680 C   0  0  0  0  0  0  0  0  0  0  0  0
   -0.8236   -3.4336   -2.8409 C   0  0  0  0  0  0  0  0  0  0  0  0
   -1.6250   -3.2172   -3.5647 H   0  0  0  0  0  0  0  0  0  0  0  0
    0.0917   -4.4618   -3.1015 C   0  0  0  0  0  0  0  0  0  0  0  0
    0.0053   -5.0559   -4.0229 H   0  0  0  0  0  0  0  0  0  0  0  0
    1.1229   -4.7158   -2.1833 C   0  0  0  0  0  0  0  0  0  0  0  0
    1.8528   -5.5158   -2.3774 H   0  0  0  0  0  0  0  0  0  0  0  0
    1.2198   -3.9527   -1.0147 C   0  0  0  0  0  0  0  0  0  0  0  0
    2.0229   -4.1615   -0.2906 H   0  0  0  0  0  0  0  0  0  0  0  0
   -2.9382   -1.7633    2.1503 C   0  0  0  0  0  0  0  0  0  0  0  0
   -2.5247   -1.7785    3.1708 H   0  0  0  0  0  0  0  0  0  0  0  0
   -4.3206   -1.8597    1.9617 C   0  0  0  0  0  0  0  0  0  0  0  0
   -4.9884   -1.9427    2.8319 H   0  0  0  0  0  0  0  0  0  0  0  0
   -4.8503   -1.8469    0.6624 C   0  0  0  0  0  0  0  0  0  0  0  0
   -5.9359   -1.9167    0.5013 H   0  0  0  0  0  0  0  0  0  0  0  0
   -3.9846   -1.7304   -0.4321 C   0  0  0  0  0  0  0  0  0  0  0  0
   -4.3945   -1.7029   -1.4540 H   0  0  0  0  0  0  0  0  0  0  0  0
   -1.7100    1.5204   -1.4603 C   0  0  0  0  0  0  0  0  0  0  0  0
   -2.3322    1.4036   -2.3697 H   0  0  0  0  0  0  0  0  0  0  0  0
   -0.7396    2.6600   -1.6704 C   0  0  0  0  0  0  0  0  0  0  0  0
    0.2918    2.9234   -0.7240 C   0  0  0  0  0  0  0  0  0  0  0  0
    0.4500    2.1852    0.5424 C   0  0  0  0  0  3  0  0  0  0  0  0
    1.3304    2.5216    1.1167 H   0  0  0  0  0  0  0  0  0  0  0  0
   -0.6037    1.6026    1.3345 C   0  0  0  0  0  3  0  0  0  0  0  0
   -0.3969    1.5842    2.4179 H   0  0  0  0  0  0  0  0  0  0  0  0
   -2.0473    1.6660    1.0572 C   0  0  0  0  0  0  0  0  0  0  0  0
   -2.5944    1.6352   -0.2531 C   0  0  0  0  0  0  0  0  0  0  0  0
   -3.9861    1.7266   -0.4329 C   0  0  0  0  0  0  0  0  0  0  0  0
   -4.3962    1.6975   -1.4546 H   0  0  0  0  0  0  0  0  0  0  0  0
   -4.8516    1.8435    0.6617 C   0  0  0  0  0  0  0  0  0  0  0  0
   -5.9374    1.9121    0.5009 H   0  0  0  0  0  0  0  0  0  0  0  0
   -4.3216    1.8583    1.9608 C   0  0  0  0  0  0  0  0  0  0  0  0
   -4.9892    1.9418    2.8311 H   0  0  0  0  0  0  0  0  0  0  0  0
   -2.9390    1.7634    2.1492 C   0  0  0  0  0  0  0  0  0  0  0  0
   -2.5252    1.7802    3.1696 H   0  0  0  0  0  0  0  0  0  0  0  0
    1.2161    3.9532   -1.0187 C   0  0  0  0  0  0  0  0  0  0  0  0
    2.0192    4.1633   -0.2952 H   0  0  0  0  0  0  0  0  0  0  0  0
    1.1179    4.7154   -2.1878 C   0  0  0  0  0  0  0  0  0  0  0  0
    1.8470    5.5160   -2.3829 H   0  0  0  0  0  0  0  0  0  0  0  0
    0.0867    4.4597   -3.1055 C   0  0  0  0  0  0  0  0  0  0  0  0
   -0.0007    5.0532   -4.0273 H   0  0  0  0  0  0  0  0  0  0  0  0
   -0.8275    3.4308   -2.8438 C   0  0  0  0  0  0  0  0  0  0  0  0
   -1.6290    3.2131   -3.5671 H   0  0  0  0  0  0  0  0  0  0  0  0
  1 28  1  0  0  0  0
  1  2  1  0  0  0  0
  2  4  1  0  0  0  0
  3  2  1  0  0  0  0
  4  5  1  0  0  0  0
  5  6  1  0  0  0  0
  5 20  2  0  0  0  0
  6  7  1  0  0  0  0
  8  9  1  0  0  0  0
  8  6  1  0  0  0  0
 10  8  1  0  0  0  0
 11  2  1  0  0  0  0
 11 10  2  0  0  0  0
 12 11  1  0  0  0  0
 13 12  1  0  0  0  0
 14 12  2  0  0  0  0
 14 16  1  0  0  0  0
 15 14  1  0  0  0  0
 16 18  2  0  0  0  0
 17 16  1  0  0  0  0
 18 10  1  0  0  0  0
 18 19  1  0  0  0  0
 20 21  1  0  0  0  0
 22 20  1  0  0  0  0
 22 23  1  0  0  0  0
 24 22  2  0  0  0  0
 25 24  1  0  0  0  0
 26  4  2  0  0  0  0
 26 24  1  0  0  0  0
 27 26  1  0  0  0  0
 28 37  1  0  0  0  0
 29 28  1  0  0  0  0
 30 28  1  0  0  0  0
 30 31  1  0  0  0  0
 31 32  1  0  0  0  0
 32 33  1  0  0  0  0
 32 34  1  0  0  0  0
 34 35  1  0  0  0  0
 36 34  1  0  0  0  0
 36 44  1  0  0  0  0
 37 36  2  0  0  0  0
 38 37  1  0  0  0  0
 38 40  2  0  0  0  0
 39 38  1  0  0  0  0
 40 42  1  0  0  0  0
 41 40  1  0  0  0  0
 42 44  2  0  0  0  0
 42 43  1  0  0  0  0
 44 45  1  0  0  0  0
 46 31  2  0  0  0  0
 46 47  1  0  0  0  0
 48 46  1  0  0  0  0
 49 48  1  0  0  0  0
 50 52  1  0  0  0  0
 50 48  2  0  0  0  0
 51 50  1  0  0  0  0
 52 30  2  0  0  0  0
 53 52  1  0  0  0  0
M  END
