3,7
q = 0.0, confidence = 0.998

 46 48  0  0  1  0  0  0  0  0999 V2000
   -0.8304    0.0377    0.5585 P   0  0  0  0  0  0  0  0  0  0  0  0
    2.2125    0.6275    1.5898 C   0  0  1  0  0  3  0  0  0  0  0  0
    2.9890   -0.5249    1.2523 C   0  0  0  0  0  3  0  0  0  0  0  0
    3.5735   -0.7082   -0.0537 C   0  0  0  0  0  0  0  0  0  0  0  0
    3.3037    0.2089   -1.0972 C   0  0  0  0  0  0  0  0  0  0  0  0
    2.4627    1.3487   -0.7950 C   0  0  0  0  0  3  0  0  0  0  0  0
    1.9554    1.5668    0.5204 C   0  0  0  0  0  3  0  0  0  0  0  0
    3.7253   -0.0455   -2.5131 C   0  0  0  0  0  0  0  0  0  0  0  0
    1.6099    0.7872    2.9654 C   0  0  0  0  0  0  0  0  0  0  0  0
    0.1115    1.1411    3.0200 C   0  0  0  0  0  0  0  0  0  0  0  0
   -0.8373    0.0960    2.4104 C   0  0  0  0  0  0  0  0  0  0  0  0
   -1.4459    1.6976    0.0324 C   0  0  0  0  0  0  0  0  0  0  0  0
   -1.0248    2.2187   -1.2097 C   0  0  0  0  0  0  0  0  0  0  0  0
   -1.4837    3.4739   -1.6380 C   0  0  0  0  0  0  0  0  0  0  0  0
   -2.3560    4.2226   -0.8319 C   0  0  0  0  0  0  0  0  0  0  0  0
   -2.7837    3.7049    0.4009 C   0  0  0  0  0  0  0  0  0  0  0  0
   -2.3372    2.4453    0.8293 C   0  0  0  0  0  0  0  0  0  0  0  0
   -2.2179   -1.0755    0.1158 C   0  0  0  0  0  0  0  0  0  0  0  0
   -2.9424   -0.8372   -1.0695 C   0  0  0  0  0  0  0  0  0  0  0  0
   -3.9928   -1.6904   -1.4346 C   0  0  0  0  0  0  0  0  0  0  0  0
   -4.3282   -2.7856   -0.6236 C   0  0  0  0  0  0  0  0  0  0  0  0
   -3.6032   -3.0302    0.5529 C   0  0  0  0  0  0  0  0  0  0  0  0
   -2.5464   -2.1852    0.9206 C   0  0  0  0  0  0  0  0  0  0  0  0
    3.0991   -1.3271    1.9967 H   0  0  0  0  0  0  0  0  0  0  0  0
    4.1166   -1.6382   -0.2729 H   0  0  0  0  0  0  0  0  0  0  0  0
    2.1760    2.0366   -1.6034 H   0  0  0  0  0  0  0  0  0  0  0  0
    1.2933    2.4295    0.6913 H   0  0  0  0  0  0  0  0  0  0  0  0
    4.2950    0.8152   -2.9187 H   0  0  0  0  0  0  0  0  0  0  0  0
    2.8126   -0.1873   -3.1329 H   0  0  0  0  0  0  0  0  0  0  0  0
    4.3443   -0.9581   -2.5944 H   0  0  0  0  0  0  0  0  0  0  0  0
    2.1755    1.5765    3.5086 H   0  0  0  0  0  0  0  0  0  0  0  0
    1.7786   -0.1555    3.5258 H   0  0  0  0  0  0  0  0  0  0  0  0
   -0.0718    2.1350    2.5577 H   0  0  0  0  0  0  0  0  0  0  0  0
   -0.1586    1.2635    4.0896 H   0  0  0  0  0  0  0  0  0  0  0  0
   -1.8781    0.2542    2.7592 H   0  0  0  0  0  0  0  0  0  0  0  0
   -0.5369   -0.9271    2.7196 H   0  0  0  0  0  0  0  0  0  0  0  0
   -0.3605    1.6071   -1.8439 H   0  0  0  0  0  0  0  0  0  0  0  0
   -1.1577    3.8681   -2.6127 H   0  0  0  0  0  0  0  0  0  0  0  0
   -2.7089    5.2100   -1.1669 H   0  0  0  0  0  0  0  0  0  0  0  0
   -3.4740    4.2831    1.0339 H   0  0  0  0  0  0  0  0  0  0  0  0
   -2.6945    2.0469    1.7906 H   0  0  0  0  0  0  0  0  0  0  0  0
   -2.6787    0.0130   -1.7135 H   0  0  0  0  0  0  0  0  0  0  0  0
   -4.5502   -1.4982   -2.3639 H   0  0  0  0  0  0  0  0  0  0  0  0
   -5.1533   -3.4545   -0.9123 H   0  0  0  0  0  0  0  0  0  0  0  0
   -3.8524   -3.8945    1.1870 H   0  0  0  0  0  0  0  0  0  0  0  0
   -1.9635   -2.4091    1.8236 H   0  0  0  0  0  0  0  0  0  0  0  0
  1 11  1  0  0  0  0
  2  9  1  6  0  0  0
  3  2  1  0  0  0  0
  3 24  1  0  0  0  0
  4  3  1  0  0  0  0
  5  6  1  0  0  0  0
  5  4  2  0  0  0  0
  6  7  1  0  0  0  0
  7 27  1  0  0  0  0
  7  2  1  0  0  0  0
  8  5  1  0  0  0  0
  9 10  1  0  0  0  0
  9 31  1  0  0  0  0
  9 32  1  0  0  0  0
 10 34  1  0  0  0  0
 11 36  1  0  0  0  0
 11 35  1  0  0  0  0
 11 10  1  0  0  0  0
 12  1  1  0  0  0  0
 12 17  1  0  0  0  0
 13 12  2  0  0  0  0
 14 13  1  0  0  0  0
 14 15  2  0  0  0  0
 15 16  1  0  0  0  0
 16 17  2  0  0  0  0
 16 40  1  0  0  0  0
 17 41  1  0  0  0  0
 18  1  1  0  0  0  0
 18 23  1  0  0  0  0
 19 18  2  0  0  0  0
 20 19  1  0  0  0  0
 20 21  2  0  0  0  0
 21 22  1  0  0  0  0
 22 23  2  0  0  0  0
 22 45  1  0  0  0  0
 23 46  1  0  0  0  0
 25  4  1  0  0  0  0
 26  6  1  0  0  0  0
 28  8  1  0  0  0  0
 29  8  1  0  0  0  0
 30  8  1  0  0  0  0
 33 10  1  0  0  0  0
 37 13  1  0  0  0  0
 38 14  1  0  0  0  0
 39 15  1  0  0  0  0
 42 19  1  0  0  0  0
 43 20  1  0  0  0  0
 44 21  1  0  0  0  0
M  END
