1,3
q = -2.0, confidence = 0.6

 18 17  0  0  0  0  0  0  0  0999 V2000
    1.5218   -0.1180   -1.2801 C   0  0  0  0  0  3  0  0  0  0  0  0
    2.3556    0.2022   -0.0055 C   0  0  0  0  0  0  0  0  0  0  0  0
    1.5237   -0.0948    1.2763 C   0  0  0  0  0  3  0  0  0  0  0  0
    3.7604   -0.4745   -0.0004 C   0  0  0  0  0  0  0  0  0  0  0  0
    4.5535   -0.1227   -1.2640 C   0  0  0  0  0  0  0  0  0  0  0  0
    4.5557   -0.0996    1.2551 C   0  0  0  0  0  0  0  0  0  0  0  0
    1.6927    0.5964   -2.1035 H   0  0  0  0  0  0  0  0  0  0  0  0
    1.7440   -1.1329   -1.6560 H   0  0  0  0  0  0  0  0  0  0  0  0
    2.5632    1.2931   -0.0163 H   0  0  0  0  0  0  0  0  0  0  0  0
    1.6956    0.6349    2.0860 H   0  0  0  0  0  0  0  0  0  0  0  0
    1.7457   -1.1025    1.6716 H   0  0  0  0  0  0  0  0  0  0  0  0
    3.5978   -1.5753    0.0099 H   0  0  0  0  0  0  0  0  0  0  0  0
    4.0199   -0.4321   -2.1839 H   0  0  0  0  0  0  0  0  0  0  0  0
    4.7214    0.9747   -1.3283 H   0  0  0  0  0  0  0  0  0  0  0  0
    5.5497   -0.6116   -1.2638 H   0  0  0  0  0  0  0  0  0  0  0  0
    4.7241    0.9987    1.2988 H   0  0  0  0  0  0  0  0  0  0  0  0
    5.5518   -0.5888    1.2623 H   0  0  0  0  0  0  0  0  0  0  0  0
    4.0235   -0.3918    2.1814 H   0  0  0  0  0  0  0  0  0  0  0  0
  1  2  1  0  0  0  0
  2  4  1  0  0  0  0
  2  3  1  0  0  0  0
  3 11  1  0  0  0  0
  3 10  1  0  0  0  0
  4 12  1  0  0  0  0
  4  6  1  0  0  0  0
  5 15  1  0  0  0  0
  5  4  1  0  0  0  0
  6 17  1  0  0  0  0
  6 16  1  0  0  0  0
  6 18  1  0  0  0  0
  7  1  1  0  0  0  0
  8  1  1  0  0  0  0
  9  2  1  0  0  0  0
 13  5  1  0  0  0  0
 14  5  1  0  0  0  0
M  END
