3,7
q = 0.0, confidence = 0.99

 55 57  0  0  0  0  0  0  0  0999 V2000
    3.1031    2.2204    0.1721 S   0  0  0  0  0  3  0  0  0  0  0  0
   -1.8788    0.2381   -0.1182 P   0  0  0  0  0  4  0  0  0  0  0  0
    1.8803    1.4421   -0.8784 C   0  0  0  0  0  3  0  0  0  0  0  0
    2.1228    1.5217   -1.9566 H   0  0  0  0  0  0  0  0  0  0  0  0
    0.4800    1.7409   -0.4432 C   0  0  0  0  0  0  0  0  0  0  0  0
    0.1371    2.5867    0.3911 O   0  0  0  0  0  0  0  0  0  0  0  0
   -0.3115    0.5792   -0.9462 C   0  0  0  0  0  3  0  0  0  0  0  0
   -0.3980    0.4833   -2.0475 H   0  0  0  0  0  0  0  0  0  0  0  0
   -2.4274   -1.4363   -0.5547 C   0  0  0  0  0  0  0  0  0  0  0  0
   -2.1897   -1.9485   -1.8456 C   0  0  0  0  0  0  0  0  0  0  0  0
   -1.6251   -1.3652   -2.5871 H   0  0  0  0  0  0  0  0  0  0  0  0
   -2.6642   -3.2222   -2.1848 C   0  0  0  0  0  0  0  0  0  0  0  0
   -2.4755   -3.6233   -3.1915 H   0  0  0  0  0  0  0  0  0  0  0  0
   -3.3730   -3.9855   -1.2419 C   0  0  0  0  0  0  0  0  0  0  0  0
   -3.7423   -4.9863   -1.5118 H   0  0  0  0  0  0  0  0  0  0  0  0
   -3.6111   -3.4737    0.0433 C   0  0  0  0  0  0  0  0  0  0  0  0
   -4.1665   -4.0698    0.7824 H   0  0  0  0  0  0  0  0  0  0  0  0
   -3.1412   -2.1986    0.3913 C   0  0  0  0  0  0  0  0  0  0  0  0
   -3.3224   -1.8003    1.4007 H   0  0  0  0  0  0  0  0  0  0  0  0
   -3.1716    1.3977   -0.6583 C   0  0  0  0  0  0  0  0  0  0  0  0
   -4.4157    0.9191   -1.1185 C   0  0  0  0  0  0  0  0  0  0  0  0
   -4.6145   -0.1618   -1.1620 H   0  0  0  0  0  0  0  0  0  0  0  0
   -5.4001    1.8321   -1.5250 C   0  0  0  0  0  0  0  0  0  0  0  0
   -6.3706    1.4605   -1.8856 H   0  0  0  0  0  0  0  0  0  0  0  0
   -5.1476    3.2118   -1.4727 C   0  0  0  0  0  0  0  0  0  0  0  0
   -5.9229    3.9236   -1.7936 H   0  0  0  0  0  0  0  0  0  0  0  0
   -3.9072    3.6861   -1.0131 C   0  0  0  0  0  0  0  0  0  0  0  0
   -3.7115    4.7679   -0.9713 H   0  0  0  0  0  0  0  0  0  0  0  0
   -2.9127    2.7865   -0.6059 C   0  0  0  0  0  0  0  0  0  0  0  0
   -1.9397    3.1451   -0.2346 H   0  0  0  0  0  0  0  0  0  0  0  0
   -1.6920    0.3371    1.6839 C   0  0  0  0  0  0  0  0  0  0  0  0
   -2.4367    1.2648    2.4376 C   0  0  0  0  0  0  0  0  0  0  0  0
   -3.1408    1.9479    1.9418 H   0  0  0  0  0  0  0  0  0  0  0  0
   -2.2713    1.3153    3.8293 C   0  0  0  0  0  0  0  0  0  0  0  0
   -2.8511    2.0407    4.4189 H   0  0  0  0  0  0  0  0  0  0  0  0
   -1.3705    0.4473    4.4655 C   0  0  0  0  0  0  0  0  0  0  0  0
   -1.2434    0.4924    5.5575 H   0  0  0  0  0  0  0  0  0  0  0  0
   -0.6368   -0.4841    3.7118 C   0  0  0  0  0  0  0  0  0  0  0  0
    0.0627   -1.1716    4.2102 H   0  0  0  0  0  0  0  0  0  0  0  0
   -0.7948   -0.5479    2.3211 C   0  0  0  0  0  0  0  0  0  0  0  0
   -0.2342   -1.2857    1.7279 H   0  0  0  0  0  0  0  0  0  0  0  0
    3.3224    3.9507   -0.4531 C   0  0  0  0  0  0  0  0  0  0  0  0
    4.3953    4.1739   -0.2764 H   0  0  0  0  0  0  0  0  0  0  0  0
    3.1481    3.9169   -1.5472 H   0  0  0  0  0  0  0  0  0  0  0  0
    2.4013    4.9222    0.2696 C   0  0  0  0  0  0  0  0  0  0  0  0
    2.6408    4.9765    1.3493 H   0  0  0  0  0  0  0  0  0  0  0  0
    1.3415    4.6218    0.1711 H   0  0  0  0  0  0  0  0  0  0  0  0
    2.5346    5.9339   -0.1630 H   0  0  0  0  0  0  0  0  0  0  0  0
    4.6584    1.4040   -0.3614 C   0  0  0  0  0  0  0  0  0  0  0  0
    5.4256    1.8611    0.2966 H   0  0  0  0  0  0  0  0  0  0  0  0
    4.4867    0.3520   -0.0438 H   0  0  0  0  0  0  0  0  0  0  0  0
    5.0096    1.4950   -1.8362 C   0  0  0  0  0  0  0  0  0  0  0  0
    5.9760    0.9756   -1.9955 H   0  0  0  0  0  0  0  0  0  0  0  0
    5.1347    2.5358   -2.1935 H   0  0  0  0  0  0  0  0  0  0  0  0
    4.2599    0.9801   -2.4677 H   0  0  0  0  0  0  0  0  0  0  0  0
  2 31  1  0  0  0  0
  3  5  1  0  0  0  0
  3  1  1  0  0  0  0
  4  3  1  0  0  0  0
  5  6  2  0  0  0  0
  7  5  1  0  0  0  0
  7  2  1  0  0  0  0
  8  7  1  0  0  0  0
  9  2  1  0  0  0  0
  9 18  1  0  0  0  0
 10  9  2  0  0  0  0
 11 10  1  0  0  0  0
 12 10  1  0  0  0  0
 12 14  2  0  0  0  0
 13 12  1  0  0  0  0
 14 16  1  0  0  0  0
 15 14  1  0  0  0  0
 16 18  2  0  0  0  0
 16 17  1  0  0  0  0
 18 19  1  0  0  0  0
 20 29  1  0  0  0  0
 20  2  1  0  0  0  0
 21 20  2  0  0  0  0
 22 21  1  0  0  0  0
 23 25  2  0  0  0  0
 23 21  1  0  0  0  0
 24 23  1  0  0  0  0
 25 27  1  0  0  0  0
 26 25  1  0  0  0  0
 27 28  1  0  0  0  0
 27 29  2  0  0  0  0
 29 30  1  0  0  0  0
 31 40  2  0  0  0  0
 31 32  1  0  0  0  0
 32 34  2  0  0  0  0
 33 32  1  0  0  0  0
 34 35  1  0  0  0  0
 34 36  1  0  0  0  0
 36 37  1  0  0  0  0
 38 39  1  0  0  0  0
 38 36  2  0  0  0  0
 40 38  1  0  0  0  0
 41 40  1  0  0  0  0
 42 43  1  0  0  0  0
 42  1  1  0  0  0  0
 42 45  1  0  0  0  0
 44 42  1  0  0  0  0
 45 46  1  0  0  0  0
 47 45  1  0  0  0  0
 48 45  1  0  0  0  0
 49 51  1  0  0  0  0
 49  1  1  0  0  0  0
 49 50  1  0  0  0  0
 52 49  1  0  0  0  0
 53 52  1  0  0  0  0
 54 52  1  0  0  0  0
 55 52  1  0  0  0  0
M  END
