1,4
q = 0.0, confidence = 0.95

 26 26  0  0  1  0  0  0  0  0999 V2000
   -0.2206   -1.9720    1.3684 C   0  0  2  0  0  3  0  0  0  0  0  0
   -1.2726   -2.6589    0.4995 C   0  0  0  0  0  0  0  0  0  0  0  0
   -1.1003   -1.9705   -0.8516 C   0  0  1  0  0  3  0  0  0  0  0  0
    0.2214   -1.9721   -1.3682 C   0  0  1  0  0  3  0  0  0  0  0  0
    1.2736   -2.6585   -0.4993 C   0  0  0  0  0  0  0  0  0  0  0  0
    1.1011   -1.9700    0.8517 C   0  0  2  0  0  3  0  0  0  0  0  0
   -0.5603   -1.7025    2.8082 C   0  0  0  0  0  0  0  0  0  0  0  0
   -2.3222   -1.7068   -1.6895 C   0  0  0  0  0  0  0  0  0  0  0  0
    2.3229   -1.7057    1.6896 C   0  0  0  0  0  0  0  0  0  0  0  0
    0.5610   -1.7025   -2.8080 C   0  0  0  0  0  0  0  0  0  0  0  0
   -2.2829   -2.4611    0.9040 H   0  0  0  0  0  0  0  0  0  0  0  0
   -1.1381   -3.7675    0.4453 H   0  0  0  0  0  0  0  0  0  0  0  0
    2.2839   -2.4603   -0.9038 H   0  0  0  0  0  0  0  0  0  0  0  0
    1.1397   -3.7671   -0.4450 H   0  0  0  0  0  0  0  0  0  0  0  0
   -0.6692   -2.6618    3.3617 H   0  0  0  0  0  0  0  0  0  0  0  0
    0.2090   -1.0956    3.3196 H   0  0  0  0  0  0  0  0  0  0  0  0
   -1.5236   -1.1603    2.8723 H   0  0  0  0  0  0  0  0  0  0  0  0
   -2.6980   -2.6544   -2.1368 H   0  0  0  0  0  0  0  0  0  0  0  0
   -3.1398   -1.2873   -1.0717 H   0  0  0  0  0  0  0  0  0  0  0  0
   -2.1222   -0.9994   -2.5158 H   0  0  0  0  0  0  0  0  0  0  0  0
    2.6989   -2.6531    2.1372 H   0  0  0  0  0  0  0  0  0  0  0  0
    3.1404   -1.2861    1.0717 H   0  0  0  0  0  0  0  0  0  0  0  0
    2.1226   -0.9982    2.5157 H   0  0  0  0  0  0  0  0  0  0  0  0
    0.6702   -2.6618   -3.3616 H   0  0  0  0  0  0  0  0  0  0  0  0
   -0.2085   -1.0959   -3.3195 H   0  0  0  0  0  0  0  0  0  0  0  0
    1.5242   -1.1600   -2.8722 H   0  0  0  0  0  0  0  0  0  0  0  0
  1  7  1  1  0  0  0
  2 11  1  0  0  0  0
  2  1  1  0  0  0  0
  3  8  1  6  0  0  0
  3  2  1  0  0  0  0
  4 10  1  6  0  0  0
  4  3  1  0  0  0  0
  4  5  1  0  0  0  0
  5 14  1  0  0  0  0
  5  6  1  0  0  0  0
  6  1  1  0  0  0  0
  6  9  1  1  0  0  0
  7 17  1  0  0  0  0
  7 16  1  0  0  0  0
  7 15  1  0  0  0  0
  8 19  1  0  0  0  0
  9 21  1  0  0  0  0
  9 23  1  0  0  0  0
 12  2  1  0  0  0  0
 13  5  1  0  0  0  0
 18  8  1  0  0  0  0
 20  8  1  0  0  0  0
 22  9  1  0  0  0  0
 24 10  1  0  0  0  0
 25 10  1  0  0  0  0
 26 10  1  0  0  0  0
M  END
