30,49
q = 0.0, confidence = 0.996

 72 75  0  0  1  0  0  0  0  0999 V2000
    0.9817    1.0112    2.1107 O   0  0  0  0  0  0  0  0  0  0  0  0
   -1.0927   -0.7954    2.1640 O   0  0  0  0  0  0  0  0  0  0  0  0
    2.6846    1.3165   -0.0672 N   0  0  0  0  0  0  0  0  0  0  0  0
    2.9664   -0.6705   -0.9360 N   0  0  0  0  0  0  0  0  0  0  0  0
   -3.1184    0.6523   -0.9951 N   0  0  0  0  0  0  0  0  0  0  0  0
   -2.7663   -1.2688   -0.0210 N   0  0  0  0  0  0  0  0  0  0  0  0
    2.2217   -2.8777    0.8961 C   0  0  0  0  0  0  0  0  0  0  0  0
    2.5953   -1.9621    1.3978 H   0  0  0  0  0  0  0  0  0  0  0  0
    2.3973   -3.7314    1.5791 H   0  0  0  0  0  0  0  0  0  0  0  0
    1.1246   -2.7547    0.7787 H   0  0  0  0  0  0  0  0  0  0  0  0
    2.9043   -3.1051   -0.4525 C   0  0  0  0  0  0  0  0  0  0  0  0
    2.5592   -4.0594   -0.9030 H   0  0  0  0  0  0  0  0  0  0  0  0
    3.9996   -3.2209   -0.3095 H   0  0  0  0  0  0  0  0  0  0  0  0
    2.6283   -1.9982   -1.4853 C   0  0  2  0  0  0  0  0  0  0  0  0
    1.5277   -1.9384   -1.6327 H   0  0  0  0  0  0  0  0  0  0  0  0
    3.2824   -2.2365   -2.8463 C   0  0  0  0  0  0  0  0  0  0  0  0
    4.3840   -2.3223   -2.7782 H   0  0  0  0  0  0  0  0  0  0  0  0
    3.0427   -1.4144   -3.5483 H   0  0  0  0  0  0  0  0  0  0  0  0
    2.9015   -3.1814   -3.2799 H   0  0  0  0  0  0  0  0  0  0  0  0
    4.2413   -0.2269   -0.5605 C   0  0  0  0  0  0  0  0  0  0  0  0
    5.5253   -0.7934   -0.6448 C   0  0  0  0  0  0  0  0  0  0  0  0
    5.6964   -1.7856   -1.0805 H   0  0  0  0  0  0  0  0  0  0  0  0
    6.5953   -0.0388   -0.1465 C   0  0  0  0  0  0  0  0  0  0  0  0
    7.6117   -0.4554   -0.1973 H   0  0  0  0  0  0  0  0  0  0  0  0
    6.4017    1.2426    0.4177 C   0  0  0  0  0  0  0  0  0  0  0  0
    7.2695    1.8017    0.7962 H   0  0  0  0  0  0  0  0  0  0  0  0
    5.1260    1.8141    0.5044 C   0  0  0  0  0  0  0  0  0  0  0  0
    4.9779    2.8098    0.9454 H   0  0  0  0  0  0  0  0  0  0  0  0
    4.0540    1.0581    0.0068 C   0  0  0  0  0  0  0  0  0  0  0  0
    2.0188    0.2600   -0.6246 C   0  0  0  0  0  2  0  0  0  0  0  0
    2.0175    2.4604    0.5368 C   0  0  0  0  0  0  0  0  0  0  0  0
    1.0844    2.6318   -0.0338 H   0  0  0  0  0  0  0  0  0  0  0  0
    2.6568    3.3580    0.4236 H   0  0  0  0  0  0  0  0  0  0  0  0
    1.6821    2.2294    2.0117 C   0  0  0  0  0  0  0  0  0  0  0  0
    2.6114    2.2063    2.6323 H   0  0  0  0  0  0  0  0  0  0  0  0
    1.0673    3.0919    2.3652 H   0  0  0  0  0  0  0  0  0  0  0  0
    0.2263    0.8412    3.2946 C   0  0  0  0  0  0  0  0  0  0  0  0
   -0.6134    1.5772    3.3284 H   0  0  0  0  0  0  0  0  0  0  0  0
    0.8523    0.9987    4.2057 H   0  0  0  0  0  0  0  0  0  0  0  0
   -0.3201   -0.5729    3.3284 C   0  0  0  0  0  0  0  0  0  0  0  0
    0.5222   -1.3050    3.3790 H   0  0  0  0  0  0  0  0  0  0  0  0
   -0.9318   -0.6934    4.2547 H   0  0  0  0  0  0  0  0  0  0  0  0
   -1.7582   -2.0368    2.1140 C   0  0  0  0  0  0  0  0  0  0  0  0
   -2.6971   -2.0101    2.7193 H   0  0  0  0  0  0  0  0  0  0  0  0
   -1.1244   -2.8621    2.5183 H   0  0  0  0  0  0  0  0  0  0  0  0
   -2.0644   -2.3533    0.6488 C   0  0  0  0  0  0  0  0  0  0  0  0
   -1.1181   -2.5172    0.0968 H   0  0  0  0  0  0  0  0  0  0  0  0
   -2.6690   -3.2788    0.5751 H   0  0  0  0  0  0  0  0  0  0  0  0
   -2.1352   -0.2191   -0.6318 C   0  0  0  0  0  2  0  0  0  0  0  0
   -2.8918    1.9494   -1.6683 C   0  0  1  0  0  0  0  0  0  0  0  0
   -3.8924    2.4261   -1.6996 H   0  0  0  0  0  0  0  0  0  0  0  0
   -1.9682    2.8582   -0.8397 C   0  0  0  0  0  0  0  0  0  0  0  0
   -1.9532    3.8481   -1.3419 H   0  0  0  0  0  0  0  0  0  0  0  0
   -0.9298    2.4609   -0.9193 H   0  0  0  0  0  0  0  0  0  0  0  0
   -2.3626    3.0051    0.6284 C   0  0  0  0  0  0  0  0  0  0  0  0
   -3.4005    3.3811    0.7377 H   0  0  0  0  0  0  0  0  0  0  0  0
   -1.6957    3.7231    1.1462 H   0  0  0  0  0  0  0  0  0  0  0  0
   -2.2940    2.0368    1.1652 H   0  0  0  0  0  0  0  0  0  0  0  0
   -2.3974    1.7419   -3.1001 C   0  0  0  0  0  0  0  0  0  0  0  0
   -2.2999    2.7174   -3.6150 H   0  0  0  0  0  0  0  0  0  0  0  0
   -3.1003    1.1121   -3.6792 H   0  0  0  0  0  0  0  0  0  0  0  0
   -1.4041    1.2483   -3.1016 H   0  0  0  0  0  0  0  0  0  0  0  0
   -4.3768    0.1747   -0.6134 C   0  0  0  0  0  0  0  0  0  0  0  0
   -5.6761    0.6859   -0.7599 C   0  0  0  0  0  0  0  0  0  0  0  0
   -5.8720    1.6440   -1.2608 H   0  0  0  0  0  0  0  0  0  0  0  0
   -6.7265   -0.0812   -0.2390 C   0  0  0  0  0  0  0  0  0  0  0  0
   -7.7578    0.2881   -0.3343 H   0  0  0  0  0  0  0  0  0  0  0  0
   -6.4930   -1.3185    0.4047 C   0  0  0  0  0  0  0  0  0  0  0  0
   -7.3462   -1.8885    0.7999 H   0  0  0  0  0  0  0  0  0  0  0  0
   -5.1984   -1.8342    0.5487 C   0  0  0  0  0  0  0  0  0  0  0  0
   -5.0225   -2.7961    1.0503 H   0  0  0  0  0  0  0  0  0  0  0  0
   -4.1465   -1.0666    0.0260 C   0  0  0  0  0  0  0  0  0  0  0  0
  1 37  1  0  0  0  0
  2 40  1  0  0  0  0
  3 29  1  0  0  0  0
  3 31  1  0  0  0  0
  4 30  1  0  0  0  0
  4 20  1  0  0  0  0
  5 49  1  0  0  0  0
  5 63  1  0  0  0  0
  6 72  1  0  0  0  0
  6 46  1  0  0  0  0
  7  8  1  0  0  0  0
  7  9  1  0  0  0  0
 10  7  1  0  0  0  0
 11 13  1  0  0  0  0
 11  7  1  0  0  0  0
 12 11  1  0  0  0  0
 14 15  1  6  0  0  0
 14  4  1  0  0  0  0
 14 11  1  0  0  0  0
 16 17  1  0  0  0  0
 16 14  1  0  0  0  0
 18 16  1  0  0  0  0
 19 16  1  0  0  0  0
 20 29  1  0  0  0  0
 21 20  2  0  0  0  0
 21 23  1  0  0  0  0
 22 21  1  0  0  0  0
 23 25  2  0  0  0  0
 24 23  1  0  0  0  0
 25 27  1  0  0  0  0
 25 26  1  0  0  0  0
 27 28  1  0  0  0  0
 29 27  2  0  0  0  0
 30  3  1  0  0  0  0
 31 34  1  0  0  0  0
 32 31  1  0  0  0  0
 33 31  1  0  0  0  0
 34  1  1  0  0  0  0
 34 36  1  0  0  0  0
 34 35  1  0  0  0  0
 37 40  1  0  0  0  0
 37 38  1  0  0  0  0
 37 39  1  0  0  0  0
 40 41  1  0  0  0  0
 40 42  1  0  0  0  0
 43  2  1  0  0  0  0
 43 45  1  0  0  0  0
 43 44  1  0  0  0  0
 46 43  1  0  0  0  0
 47 46  1  0  0  0  0
 48 46  1  0  0  0  0
 49  6  1  0  0  0  0
 50 51  1  6  0  0  0
 50  5  1  0  0  0  0
 50 52  1  0  0  0  0
 52 55  1  0  0  0  0
 53 52  1  0  0  0  0
 54 52  1  0  0  0  0
 55 56  1  0  0  0  0
 55 57  1  0  0  0  0
 55 58  1  0  0  0  0
 59 50  1  0  0  0  0
 60 59  1  0  0  0  0
 61 59  1  0  0  0  0
 62 59  1  0  0  0  0
 63 72  1  0  0  0  0
 64 63  2  0  0  0  0
 64 66  1  0  0  0  0
 65 64  1  0  0  0  0
 66 68  2  0  0  0  0
 67 66  1  0  0  0  0
 68 70  1  0  0  0  0
 68 69  1  0  0  0  0
 70 71  1  0  0  0  0
 72 70  2  0  0  0  0
M  END
