2,29
q = 0.0, confidence = 0.996

 31 32  0  0  1  0  0  0  0  0999 V2000
   -2.6148    2.3471    1.1059 N   0  0  0  0  0  0  0  0  0  0  0  0
   -1.0034    1.0784    0.1220 C   0  0  0  0  0  3  0  0  0  0  0  0
   -2.1797    1.1590   -0.6583 N   0  0  0  0  0  0  0  0  0  0  0  0
   -1.3229    1.8502    1.2344 C   0  0  0  0  0  0  0  0  0  0  0  0
   -0.7349    2.0351    2.1375 H   0  0  0  0  0  0  0  0  0  0  0  0
   -2.4874   -1.0387   -1.5281 N   0  0  0  0  0  0  0  0  0  0  0  0
   -3.2782    3.2054    2.0821 C   0  0  0  0  0  0  0  0  0  0  0  0
   -3.4597    4.2147    1.6636 H   0  0  0  0  0  0  0  0  0  0  0  0
   -2.6212    3.3005    2.9639 H   0  0  0  0  0  0  0  0  0  0  0  0
   -4.2379    2.7607    2.4070 H   0  0  0  0  0  0  0  0  0  0  0  0
   -3.1484    1.9155   -0.0564 C   0  0  2  0  0  3  0  0  0  0  0  0
   -1.8486   -2.9835   -0.7706 N   0  0  0  0  0  0  0  0  0  0  0  0
   -4.5082    2.2157   -0.5783 C   0  0  0  0  0  0  0  0  0  0  0  0
   -5.0075    2.9725    0.0531 H   0  0  0  0  0  0  0  0  0  0  0  0
   -5.1620    1.3175   -0.5889 H   0  0  0  0  0  0  0  0  0  0  0  0
   -4.4742    2.6236   -1.6095 H   0  0  0  0  0  0  0  0  0  0  0  0
   -2.3780    0.3701   -1.8587 C   0  0  0  0  0  0  0  0  0  0  0  0
   -1.5056    0.5116   -2.5219 H   0  0  0  0  0  0  0  0  0  0  0  0
   -3.2933    0.6950   -2.3843 H   0  0  0  0  0  0  0  0  0  0  0  0
   -3.6358   -1.6991   -1.0965 C   0  0  0  0  0  0  0  0  0  0  0  0
   -4.6339   -1.2611   -1.1835 H   0  0  0  0  0  0  0  0  0  0  0  0
   -3.2310   -2.9189   -0.6290 C   0  0  0  0  0  0  0  0  0  0  0  0
   -3.8088   -3.7539   -0.2229 H   0  0  0  0  0  0  0  0  0  0  0  0
   -1.0108   -4.1200   -0.4001 C   0  0  0  0  0  0  0  0  0  0  0  0
   -0.4690   -4.5006   -1.2874 H   0  0  0  0  0  0  0  0  0  0  0  0
   -1.6584   -4.9191    0.0000 H   0  0  0  0  0  0  0  0  0  0  0  0
   -0.2932   -3.7997    0.3832 H   0  0  0  0  0  0  0  0  0  0  0  0
   -1.3835   -1.8217   -1.3028 C   0  0  2  0  0  3  0  0  0  0  0  0
   -0.0140   -1.4166   -1.5484 C   0  0  0  0  0  3  0  0  0  0  0  0
    0.0806   -1.0254   -2.5826 H   0  0  0  0  0  0  0  0  0  0  0  0
    0.6646   -2.2807   -1.4348 H   0  0  0  0  0  0  0  0  0  0  0  0
  1  4  1  0  0  0  0
  1  7  1  0  0  0  0
  2  4  2  0  0  0  0
  3 11  1  0  0  0  0
  3  2  1  0  0  0  0
  4  5  1  0  0  0  0
  6 28  1  0  0  0  0
  6 20  1  0  0  0  0
  7 10  1  0  0  0  0
  7  9  1  0  0  0  0
  8  7  1  0  0  0  0
 11 13  1  6  0  0  0
 11  1  1  0  0  0  0
 12 22  1  0  0  0  0
 12 24  1  0  0  0  0
 13 14  1  0  0  0  0
 15 13  1  0  0  0  0
 16 13  1  0  0  0  0
 17  6  1  0  0  0  0
 17  3  1  0  0  0  0
 18 17  1  0  0  0  0
 19 17  1  0  0  0  0
 20 22  2  0  0  0  0
 21 20  1  0  0  0  0
 22 23  1  0  0  0  0
 24 26  1  0  0  0  0
 24 27  1  0  0  0  0
 25 24  1  0  0  0  0
 28 29  1  1  0  0  0
 28 12  1  0  0  0  0
 29 31  1  0  0  0  0
 30 29  1  0  0  0  0
M  END
