1,4
q = 0.0, confidence = 1.0

 31 32  0  0  1  0  0  0  0  0999 V2000
    0.6632    1.7468   -0.2718 C   0  0  0  0  0  2  0  0  0  0  0  0
   -0.0066    2.7636    0.3680 N   0  0  0  0  0  0  0  0  0  0  0  0
    1.5526    2.3992   -1.0907 N   0  0  0  0  0  0  0  0  0  0  0  0
   -1.5942   -0.1255    0.0199 C   0  0  0  0  0  3  0  0  0  0  0  0
   -2.3430   -1.2156   -0.4095 C   0  0  0  0  0  0  0  0  0  0  0  0
   -1.9929   -2.1754   -0.7984 H   0  0  0  0  0  0  0  0  0  0  0  0
   -2.5759    0.8482    0.3000 N   0  0  0  0  0  0  0  0  0  0  0  0
   -4.7711   -1.7892   -0.7951 C   0  0  0  0  0  0  0  0  0  0  0  0
   -5.4402   -2.0122    0.0585 H   0  0  0  0  0  0  0  0  0  0  0  0
   -4.3258   -2.7333   -1.1536 H   0  0  0  0  0  0  0  0  0  0  0  0
   -5.3600   -1.3444   -1.6202 H   0  0  0  0  0  0  0  0  0  0  0  0
   -3.6905   -0.8961   -0.3922 N   0  0  0  0  0  0  0  0  0  0  0  0
   -3.8322    0.3744    0.0417 C   0  0  1  0  0  3  0  0  0  0  0  0
   -5.1053    1.1215    0.2092 C   0  0  0  0  0  0  0  0  0  0  0  0
   -5.9622    0.5166   -0.1369 H   0  0  0  0  0  0  0  0  0  0  0  0
   -5.1043    2.0655   -0.3743 H   0  0  0  0  0  0  0  0  0  0  0  0
   -5.2945    1.3878    1.2712 H   0  0  0  0  0  0  0  0  0  0  0  0
   -2.4076    2.2267    0.7702 C   0  0  0  0  0  0  0  0  0  0  0  0
   -2.6225    2.9263   -0.0660 H   0  0  0  0  0  0  0  0  0  0  0  0
   -3.1704    2.4102    1.5537 H   0  0  0  0  0  0  0  0  0  0  0  0
   -1.0424    2.5439    1.3611 C   0  0  0  0  0  0  0  0  0  0  0  0
   -1.1353    3.4705    1.9588 H   0  0  0  0  0  0  0  0  0  0  0  0
   -0.7138    1.7295    2.0330 H   0  0  0  0  0  0  0  0  0  0  0  0
    0.4415    4.0126   -0.0478 C   0  0  0  0  0  0  0  0  0  0  0  0
    0.0300    4.9487    0.3412 H   0  0  0  0  0  0  0  0  0  0  0  0
    1.4277    3.7778   -0.9651 C   0  0  0  0  0  0  0  0  0  0  0  0
    2.0521    4.4710   -1.5364 H   0  0  0  0  0  0  0  0  0  0  0  0
    2.5718    1.7786   -1.9288 C   0  0  0  0  0  0  0  0  0  0  0  0
    2.2799    0.7321   -2.1297 H   0  0  0  0  0  0  0  0  0  0  0  0
    3.5583    1.8211   -1.4259 H   0  0  0  0  0  0  0  0  0  0  0  0
    2.6316    2.3203   -2.8909 H   0  0  0  0  0  0  0  0  0  0  0  0
  1  2  1  0  0  0  0
  2 21  1  0  0  0  0
  3 26  1  0  0  0  0
  3  1  1  0  0  0  0
  4  7  1  0  0  0  0
  5 12  1  0  0  0  0
  5  4  2  0  0  0  0
  6  5  1  0  0  0  0
  7 18  1  0  0  0  0
  8 12  1  0  0  0  0
  8  9  1  0  0  0  0
 10  8  1  0  0  0  0
 11  8  1  0  0  0  0
 12 13  1  0  0  0  0
 13 14  1  1  0  0  0
 13  7  1  0  0  0  0
 14 17  1  0  0  0  0
 15 14  1  0  0  0  0
 16 14  1  0  0  0  0
 18 21  1  0  0  0  0
 18 20  1  0  0  0  0
 19 18  1  0  0  0  0
 21 22  1  0  0  0  0
 21 23  1  0  0  0  0
 24 25  1  0  0  0  0
 24  2  1  0  0  0  0
 26 24  2  0  0  0  0
 27 26  1  0  0  0  0
 28 30  1  0  0  0  0
 28  3  1  0  0  0  0
 29 28  1  0  0  0  0
 31 28  1  0  0  0  0
M  END
