1,23
q = 0.0, confidence = 0.992

 34 35  0  0  1  0  0  0  0  0999 V2000
    0.3937    1.5167   -0.1512 C   0  0  0  0  0  3  0  0  0  0  0  0
    0.9463    3.6448   -0.7190 N   0  0  0  0  0  0  0  0  0  0  0  0
    1.6221    1.9125    0.4265 N   0  0  0  0  0  0  0  0  0  0  0  0
    0.0020    2.6415   -0.8676 C   0  0  0  0  0  0  0  0  0  0  0  0
   -0.8575    2.7574   -1.5334 H   0  0  0  0  0  0  0  0  0  0  0  0
    1.9405    3.1967    0.0766 C   0  0  2  0  0  3  0  0  0  0  0  0
    2.0855   -1.1794    0.5599 N   0  0  0  0  0  0  0  0  0  0  0  0
    2.6311   -2.6640   -0.9298 N   0  0  0  0  0  0  0  0  0  0  0  0
    3.1464    3.9496    0.5073 C   0  0  0  0  0  0  0  0  0  0  0  0
    4.0827    3.4416    0.1934 H   0  0  0  0  0  0  0  0  0  0  0  0
    3.1893    4.0665    1.6111 H   0  0  0  0  0  0  0  0  0  0  0  0
    3.1546    4.9624    0.0665 H   0  0  0  0  0  0  0  0  0  0  0  0
    0.8717    4.9654   -1.3334 C   0  0  0  0  0  0  0  0  0  0  0  0
    0.7957    5.7575   -0.5632 H   0  0  0  0  0  0  0  0  0  0  0  0
   -0.0304    5.0014   -1.9686 H   0  0  0  0  0  0  0  0  0  0  0  0
    1.7571    5.1534   -1.9705 H   0  0  0  0  0  0  0  0  0  0  0  0
    2.5449    1.1625    1.2882 C   0  0  0  0  0  0  0  0  0  0  0  0
    3.5350    1.1204    0.7855 H   0  0  0  0  0  0  0  0  0  0  0  0
    2.6869    1.7361    2.2286 H   0  0  0  0  0  0  0  0  0  0  0  0
    2.1127   -0.2460    1.6732 C   0  0  0  0  0  0  0  0  0  0  0  0
    1.0910   -0.2286    2.0940 H   0  0  0  0  0  0  0  0  0  0  0  0
    2.8090   -0.6144    2.4503 H   0  0  0  0  0  0  0  0  0  0  0  0
    0.9750   -1.2624   -0.3008 C   0  0  0  0  0  3  0  0  0  0  0  0
    1.3514   -2.2153   -1.2359 C   0  0  0  0  0  0  0  0  0  0  0  0
    0.8133   -2.5556   -2.1249 H   0  0  0  0  0  0  0  0  0  0  0  0
    3.3716   -3.6825   -1.6625 C   0  0  0  0  0  0  0  0  0  0  0  0
    4.3825   -3.3162   -1.9258 H   0  0  0  0  0  0  0  0  0  0  0  0
    2.8258   -3.9132   -2.5939 H   0  0  0  0  0  0  0  0  0  0  0  0
    3.4667   -4.6108   -1.0644 H   0  0  0  0  0  0  0  0  0  0  0  0
    3.0835   -2.0253    0.1744 C   0  0  1  0  0  3  0  0  0  0  0  0
    4.4137   -2.2392    0.8030 C   0  0  0  0  0  0  0  0  0  0  0  0
    5.2407   -1.8914    0.1473 H   0  0  0  0  0  0  0  0  0  0  0  0
    4.5926   -3.3135    1.0155 H   0  0  0  0  0  0  0  0  0  0  0  0
    4.4966   -1.6940    1.7601 H   0  0  0  0  0  0  0  0  0  0  0  0
  1  3  1  0  0  0  0
  2  6  1  0  0  0  0
  3 17  1  0  0  0  0
  4  2  1  0  0  0  0
  4  1  2  0  0  0  0
  5  4  1  0  0  0  0
  6  3  1  0  0  0  0
  6  9  1  1  0  0  0
  7 20  1  0  0  0  0
  8 30  1  0  0  0  0
  9 11  1  0  0  0  0
 10  9  1  0  0  0  0
 12  9  1  0  0  0  0
 13  2  1  0  0  0  0
 13 14  1  0  0  0  0
 15 13  1  0  0  0  0
 16 13  1  0  0  0  0
 17 20  1  0  0  0  0
 17 19  1  0  0  0  0
 18 17  1  0  0  0  0
 20 21  1  0  0  0  0
 20 22  1  0  0  0  0
 23  7  1  0  0  0  0
 24  8  1  0  0  0  0
 24 23  2  0  0  0  0
 25 24  1  0  0  0  0
 26 29  1  0  0  0  0
 26  8  1  0  0  0  0
 27 26  1  0  0  0  0
 28 26  1  0  0  0  0
 30  7  1  0  0  0  0
 30 31  1  6  0  0  0
 31 33  1  0  0  0  0
 31 34  1  0  0  0  0
 32 31  1  0  0  0  0
M  END
