4,6
q = 0.0, confidence = 1.0

 44 46  0  0  1  0  0  0  0  0999 V2000
   -0.2068    0.4052    2.5486 O   0  0  0  0  0  0  0  0  0  0  0  0
   -1.6625   -1.7541   -0.0321 C   0  0  0  0  0  0  0  0  0  0  0  0
   -2.9506   -2.2534   -0.4061 C   0  0  0  0  0  0  0  0  0  0  0  0
   -4.1037   -1.9034    0.3380 C   0  0  0  0  0  3  0  0  0  0  0  0
   -3.9937   -1.0965    1.5142 C   0  0  0  0  0  3  0  0  0  0  0  0
   -2.7288   -0.6057    1.8954 C   0  0  0  0  0  3  0  0  0  0  0  0
   -1.5532   -0.9332    1.1375 C   0  0  2  0  0  3  0  0  0  0  0  0
   -0.2609   -0.2950    1.5415 C   0  0  0  0  0  0  0  0  0  0  0  0
    0.9726   -0.5935    0.6877 C   0  0  1  0  0  0  0  0  0  0  0  0
    0.6237   -0.9699   -0.7577 C   0  0  0  0  0  0  0  0  0  0  0  0
   -0.4240   -2.0826   -0.8256 C   0  0  0  0  0  0  0  0  0  0  0  0
    2.0332    0.5312    0.8366 C   0  0  1  0  0  0  0  0  0  0  0  0
    3.3952    0.0500    0.3656 C   0  0  0  0  0  0  0  0  0  0  0  0
    4.2361   -0.6420    1.2612 C   0  0  0  0  0  0  0  0  0  0  0  0
    5.4751   -1.1514    0.8534 C   0  0  0  0  0  0  0  0  0  0  0  0
    5.9301   -0.9857   -0.4712 C   0  0  0  0  0  0  0  0  0  0  0  0
    5.0918   -0.2926   -1.3654 C   0  0  0  0  0  0  0  0  0  0  0  0
    3.8503    0.2172   -0.9566 C   0  0  0  0  0  0  0  0  0  0  0  0
    7.2806   -1.5026   -0.8996 C   0  0  0  0  0  0  0  0  0  0  0  0
    1.5667    1.8605    0.1999 C   0  0  0  0  0  0  0  0  0  0  0  0
    2.4806    3.0081    0.5193 C   0  0  0  0  0  0  0  0  0  0  0  0
    3.0877    3.7986   -0.3815 C   0  0  0  0  0  0  0  0  0  0  0  0
   -3.0511   -2.8459   -1.3263 H   0  0  0  0  0  0  0  0  0  0  0  0
   -5.0932   -2.2357   -0.0060 H   0  0  0  0  0  0  0  0  0  0  0  0
   -4.8951   -0.8034    2.0692 H   0  0  0  0  0  0  0  0  0  0  0  0
   -2.5997    0.0675    2.7545 H   0  0  0  0  0  0  0  0  0  0  0  0
    1.4069   -1.5045    1.1691 H   0  0  0  0  0  0  0  0  0  0  0  0
    1.5451   -1.2876   -1.2850 H   0  0  0  0  0  0  0  0  0  0  0  0
    0.2393   -0.0802   -1.2955 H   0  0  0  0  0  0  0  0  0  0  0  0
    0.0017   -3.0256   -0.4119 H   0  0  0  0  0  0  0  0  0  0  0  0
   -0.7015   -2.2985   -1.8768 H   0  0  0  0  0  0  0  0  0  0  0  0
    2.1009    0.7111    1.9299 H   0  0  0  0  0  0  0  0  0  0  0  0
    3.9089   -0.7797    2.3050 H   0  0  0  0  0  0  0  0  0  0  0  0
    6.1085   -1.6852    1.5802 H   0  0  0  0  0  0  0  0  0  0  0  0
    5.4204   -0.1438   -2.4065 H   0  0  0  0  0  0  0  0  0  0  0  0
    3.2323    0.7627   -1.6848 H   0  0  0  0  0  0  0  0  0  0  0  0
    8.0924   -0.8143   -0.5792 H   0  0  0  0  0  0  0  0  0  0  0  0
    7.5015   -2.4913   -0.4492 H   0  0  0  0  0  0  0  0  0  0  0  0
    7.3503   -1.6018   -2.0005 H   0  0  0  0  0  0  0  0  0  0  0  0
    1.4527    1.7660   -0.8998 H   0  0  0  0  0  0  0  0  0  0  0  0
    0.5546    2.0885    0.6009 H   0  0  0  0  0  0  0  0  0  0  0  0
    2.6518    3.1926    1.5963 H   0  0  0  0  0  0  0  0  0  0  0  0
    2.9495    3.6455   -1.4653 H   0  0  0  0  0  0  0  0  0  0  0  0
    3.7419    4.6288   -0.0736 H   0  0  0  0  0  0  0  0  0  0  0  0
  3  2  2  0  0  0  0
  3  4  1  0  0  0  0
  4  5  1  0  0  0  0
  5  6  1  0  0  0  0
  5 25  1  0  0  0  0
  6 26  1  0  0  0  0
  7  2  1  6  0  0  0
  7  8  1  0  0  0  0
  7  6  1  0  0  0  0
  8  1  2  0  0  0  0
  9 12  1  0  0  0  0
  9 27  1  1  0  0  0
  9  8  1  0  0  0  0
 10  9  1  0  0  0  0
 11 10  1  0  0  0  0
 11 30  1  0  0  0  0
 11  2  1  0  0  0  0
 12 32  1  1  0  0  0
 13 12  1  0  0  0  0
 13 14  1  0  0  0  0
 14 33  1  0  0  0  0
 15 14  2  0  0  0  0
 15 34  1  0  0  0  0
 16 15  1  0  0  0  0
 17 18  1  0  0  0  0
 17 16  2  0  0  0  0
 18 13  2  0  0  0  0
 19 37  1  0  0  0  0
 19 16  1  0  0  0  0
 19 38  1  0  0  0  0
 20 21  1  0  0  0  0
 20 41  1  0  0  0  0
 20 12  1  0  0  0  0
 21 42  1  0  0  0  0
 22 44  1  0  0  0  0
 22 21  2  0  0  0  0
 23  3  1  0  0  0  0
 24  4  1  0  0  0  0
 28 10  1  0  0  0  0
 29 10  1  0  0  0  0
 31 11  1  0  0  0  0
 35 17  1  0  0  0  0
 36 18  1  0  0  0  0
 39 19  1  0  0  0  0
 40 20  1  0  0  0  0
 43 22  1  0  0  0  0
M  END
