1,3
q = -2.0, confidence = 0.548

 12 11  0  0  0  0  0  0  0  0999 V2000
   -0.6782    2.0651   -1.4612 C   0  0  0  0  0  3  0  0  0  0  0  0
   -0.1499    1.5050   -2.7873 C   0  0  0  0  0  0  0  0  0  0  0  0
   -0.1403    0.0290   -2.3998 C   0  0  0  0  0  3  0  0  0  0  0  0
   -0.9148    1.8889   -4.0574 C   0  0  0  0  0  0  0  0  0  0  0  0
   -0.2794    3.0679   -1.1833 H   0  0  0  0  0  0  0  0  0  0  0  0
   -1.7863    2.1481   -1.4942 H   0  0  0  0  0  0  0  0  0  0  0  0
    0.9061    1.8337   -2.9161 H   0  0  0  0  0  0  0  0  0  0  0  0
   -1.1153   -0.4500   -2.6491 H   0  0  0  0  0  0  0  0  0  0  0  0
    0.6561   -0.5942   -2.8539 H   0  0  0  0  0  0  0  0  0  0  0  0
   -0.9067    2.9877   -4.2271 H   0  0  0  0  0  0  0  0  0  0  0  0
   -0.4907    1.3985   -4.9603 H   0  0  0  0  0  0  0  0  0  0  0  0
   -1.9783    1.5736   -3.9772 H   0  0  0  0  0  0  0  0  0  0  0  0
  1  5  1  0  0  0  0
  2  3  1  0  0  0  0
  2  1  1  0  0  0  0
  4 12  1  0  0  0  0
  4  2  1  0  0  0  0
  6  1  1  0  0  0  0
  7  2  1  0  0  0  0
  8  3  1  0  0  0  0
  9  3  1  0  0  0  0
 10  4  1  0  0  0  0
 11  4  1  0  0  0  0
M  END
