4,7
q = 0.0, confidence = 0.984

 28 28  0  0  1  0  0  0  0  0999 V2000
   -1.1640    1.7122   -1.2879 S   0  0  0  0  0  0  0  0  0  0  0  0
    2.3563   -0.9150   -0.0382 Si  0  0  0  0  0  0  0  0  0  0  0  0
   -0.3126    2.9048    1.1697 O   0  0  0  0  0  0  0  0  0  0  0  0
    0.2570    1.1848   -0.3167 C   0  0  1  0  0  3  0  0  0  0  0  0
    0.8427   -0.0218   -0.7858 C   0  0  0  0  0  0  0  0  0  0  0  0
    0.0315   -0.5909   -1.8368 C   0  0  0  0  0  0  0  0  0  0  0  0
   -1.1089    0.1723   -2.1609 C   0  0  0  0  0  3  0  0  0  0  0  0
    0.8068    2.2200    0.6277 C   0  0  1  0  0  0  0  0  0  0  0  0
    1.7577    3.1871   -0.0889 C   0  0  0  0  0  0  0  0  0  0  0  0
    3.9231    0.0856   -0.4112 C   0  0  0  0  0  0  0  0  0  0  0  0
    2.4676   -2.6020   -0.8785 C   0  0  0  0  0  0  0  0  0  0  0  0
    2.1720   -1.1384    1.8273 C   0  0  0  0  0  0  0  0  0  0  0  0
    0.2445   -1.5551   -2.3161 H   0  0  0  0  0  0  0  0  0  0  0  0
   -1.8605   -0.0399   -2.9306 H   0  0  0  0  0  0  0  0  0  0  0  0
    1.3687    1.6706    1.4215 H   0  0  0  0  0  0  0  0  0  0  0  0
    2.1751    3.9239    0.6290 H   0  0  0  0  0  0  0  0  0  0  0  0
    2.6046    2.6496   -0.5563 H   0  0  0  0  0  0  0  0  0  0  0  0
    1.2086    3.7365   -0.8795 H   0  0  0  0  0  0  0  0  0  0  0  0
    4.8208   -0.5149   -0.1551 H   0  0  0  0  0  0  0  0  0  0  0  0
    3.9913    0.3561   -1.4846 H   0  0  0  0  0  0  0  0  0  0  0  0
    3.9706    1.0193    0.1845 H   0  0  0  0  0  0  0  0  0  0  0  0
    3.3500   -3.1514   -0.4905 H   0  0  0  0  0  0  0  0  0  0  0  0
    1.5690   -3.2133   -0.6610 H   0  0  0  0  0  0  0  0  0  0  0  0
    2.5855   -2.5149   -1.9778 H   0  0  0  0  0  0  0  0  0  0  0  0
    3.1235   -1.5202    2.2527 H   0  0  0  0  0  0  0  0  0  0  0  0
    1.9209   -0.1953    2.3524 H   0  0  0  0  0  0  0  0  0  0  0  0
    1.3723   -1.8707    2.0515 H   0  0  0  0  0  0  0  0  0  0  0  0
    0.0206    3.6533    1.6964 H   0  0  0  0  0  0  0  0  0  0  0  0
  1  4  1  0  0  0  0
  2 12  1  0  0  0  0
  3 28  1  0  0  0  0
  4  8  1  6  0  0  0
  5  4  1  0  0  0  0
  5  2  1  0  0  0  0
  6  5  2  0  0  0  0
  7  6  1  0  0  0  0
  7  1  1  0  0  0  0
  8  3  1  0  0  0  0
  8 15  1  1  0  0  0
  9  8  1  0  0  0  0
  9 16  1  0  0  0  0
 10 19  1  0  0  0  0
 10  2  1  0  0  0  0
 10 21  1  0  0  0  0
 11 23  1  0  0  0  0
 11 22  1  0  0  0  0
 11  2  1  0  0  0  0
 12 27  1  0  0  0  0
 12 25  1  0  0  0  0
 12 26  1  0  0  0  0
 13  6  1  0  0  0  0
 14  7  1  0  0  0  0
 17  9  1  0  0  0  0
 18  9  1  0  0  0  0
 20 10  1  0  0  0  0
 24 11  1  0  0  0  0
M  END
