9,25
q = 0.0, confidence = 0.54

 52 55  0  0  0  0  0  0  0  0999 V2000
   -3.8901   -0.4542   -0.1411 C   0  0  0  0  0  0  0  0  0  0  0  0
   -5.2682   -0.7634   -0.0128 C   0  0  0  0  0  0  0  0  0  0  0  0
   -5.7356   -2.0971   -0.1756 C   0  0  0  0  0  0  0  0  0  0  0  0
   -7.0970   -2.3910   -0.0472 C   0  0  0  0  0  0  0  0  0  0  0  0
   -8.0209   -1.3724    0.2447 C   0  0  0  0  0  0  0  0  0  0  0  0
   -7.5724   -0.0496    0.4065 C   0  0  0  0  0  0  0  0  0  0  0  0
   -6.2141    0.2581    0.2803 C   0  0  0  0  0  0  0  0  0  0  0  0
   -2.6950   -0.1382   -0.2635 C   0  0  0  0  0  0  0  0  0  0  0  0
   -1.3238    0.0914   -0.3641 C   0  0  0  0  0  3  0  0  0  0  0  0
   -0.7120    1.3406   -0.2719 C   0  0  0  0  0  0  0  0  0  0  0  0
   -1.5149    2.5748   -0.0816 C   0  0  0  0  0  0  0  0  0  0  0  0
   -1.2242    3.4784    0.9673 C   0  0  0  0  0  0  0  0  0  0  0  0
   -2.0180    4.6134    1.1780 C   0  0  0  0  0  0  0  0  0  0  0  0
   -3.1135    4.8767    0.3396 C   0  0  0  0  0  0  0  0  0  0  0  0
   -3.4104    3.9918   -0.7096 C   0  0  0  0  0  0  0  0  0  0  0  0
   -2.6218    2.8515   -0.9161 C   0  0  0  0  0  0  0  0  0  0  0  0
    3.9256   -0.4678   -0.0952 C   0  0  0  0  0  0  0  0  0  0  0  0
    5.3068   -0.7765   -0.0063 C   0  0  0  0  0  0  0  0  0  0  0  0
    6.2709    0.2588    0.1434 C   0  0  0  0  0  0  0  0  0  0  0  0
    7.6317   -0.0487    0.2392 C   0  0  0  0  0  0  0  0  0  0  0  0
    8.0647   -1.3854    0.1878 C   0  0  0  0  0  0  0  0  0  0  0  0
    7.1228   -2.4182    0.0371 C   0  0  0  0  0  0  0  0  0  0  0  0
    5.7589   -2.1243   -0.0604 C   0  0  0  0  0  0  0  0  0  0  0  0
    2.7260   -0.1532   -0.1620 C   0  0  0  0  0  0  0  0  0  0  0  0
    1.3514    0.0747   -0.2137 C   0  0  0  0  0  3  0  0  0  0  0  0
    0.7484    1.3335   -0.2109 C   0  0  0  0  0  0  0  0  0  0  0  0
    1.5415    2.5882   -0.1713 C   0  0  0  0  0  0  0  0  0  0  0  0
    1.2743    3.6357   -1.0830 C   0  0  0  0  0  0  0  0  0  0  0  0
    2.0375    4.8103   -1.0699 C   0  0  0  0  0  0  0  0  0  0  0  0
    3.0758    4.9704   -0.1378 C   0  0  0  0  0  0  0  0  0  0  0  0
    3.3468    3.9423    0.7792 C   0  0  0  0  0  0  0  0  0  0  0  0
    2.5897    2.7624    0.7607 C   0  0  0  0  0  0  0  0  0  0  0  0
   -5.0089   -2.8890   -0.4092 H   0  0  0  0  0  0  0  0  0  0  0  0
   -7.4442   -3.4274   -0.1779 H   0  0  0  0  0  0  0  0  0  0  0  0
   -9.0910   -1.6090    0.3448 H   0  0  0  0  0  0  0  0  0  0  0  0
   -8.2927    0.7513    0.6335 H   0  0  0  0  0  0  0  0  0  0  0  0
   -5.8554    1.2906    0.4043 H   0  0  0  0  0  0  0  0  0  0  0  0
   -0.3667    3.2819    1.6274 H   0  0  0  0  0  0  0  0  0  0  0  0
   -1.7771    5.3004    2.0036 H   0  0  0  0  0  0  0  0  0  0  0  0
   -3.7321    5.7727    0.5013 H   0  0  0  0  0  0  0  0  0  0  0  0
   -4.2616    4.1936   -1.3781 H   0  0  0  0  0  0  0  0  0  0  0  0
   -2.8522    2.1643   -1.7430 H   0  0  0  0  0  0  0  0  0  0  0  0
    5.9246    1.3024    0.1779 H   0  0  0  0  0  0  0  0  0  0  0  0
    8.3663    0.7632    0.3531 H   0  0  0  0  0  0  0  0  0  0  0  0
    9.1369   -1.6221    0.2623 H   0  0  0  0  0  0  0  0  0  0  0  0
    7.4579   -3.4658   -0.0076 H   0  0  0  0  0  0  0  0  0  0  0  0
    5.0177   -2.9274   -0.1843 H   0  0  0  0  0  0  0  0  0  0  0  0
    0.4618    3.5175   -1.8146 H   0  0  0  0  0  0  0  0  0  0  0  0
    1.8181    5.6096   -1.7940 H   0  0  0  0  0  0  0  0  0  0  0  0
    3.6705    5.8965   -0.1243 H   0  0  0  0  0  0  0  0  0  0  0  0
    4.1527    4.0612    1.5200 H   0  0  0  0  0  0  0  0  0  0  0  0
    2.8019    1.9628    1.4850 H   0  0  0  0  0  0  0  0  0  0  0  0
  1  2  1  0  0  0  0
  2  7  1  0  0  0  0
  3  4  1  0  0  0  0
  3  2  2  0  0  0  0
  4  5  2  0  0  0  0
  5 35  1  0  0  0  0
  5  6  1  0  0  0  0
  6 36  1  0  0  0  0
  7 37  1  0  0  0  0
  7  6  2  0  0  0  0
  8  1  3  0  0  0  0
  9 10  2  0  0  0  0
  9  8  1  0  0  0  0
 10 26  1  0  0  0  0
 10 11  1  0  0  0  0
 11 12  1  0  0  0  0
 12 13  2  0  0  0  0
 12 38  1  0  0  0  0
 13 39  1  0  0  0  0
 14 40  1  0  0  0  0
 14 13  1  0  0  0  0
 15 14  2  0  0  0  0
 16 15  1  0  0  0  0
 16 11  2  0  0  0  0
 17 18  1  0  0  0  0
 18 19  1  0  0  0  0
 19 43  1  0  0  0  0
 19 20  2  0  0  0  0
 20 44  1  0  0  0  0
 21 20  1  0  0  0  0
 21 45  1  0  0  0  0
 22 21  2  0  0  0  0
 23 18  2  0  0  0  0
 23 22  1  0  0  0  0
 24 17  3  0  0  0  0
 25 26  2  0  0  0  0
 25 24  1  0  0  0  0
 26 27  1  0  0  0  0
 27 32  1  0  0  0  0
 28 29  1  0  0  0  0
 28 27  2  0  0  0  0
 29 30  2  0  0  0  0
 30 50  1  0  0  0  0
 30 31  1  0  0  0  0
 31 51  1  0  0  0  0
 32 31  2  0  0  0  0
 32 52  1  0  0  0  0
 33  3  1  0  0  0  0
 34  4  1  0  0  0  0
 41 15  1  0  0  0  0
 42 16  1  0  0  0  0
 46 22  1  0  0  0  0
 47 23  1  0  0  0  0
 48 28  1  0  0  0  0
 49 29  1  0  0  0  0
M  END
