4
q = -2.0, confidence = 0.874

 53 56  0  0  1  0  0  0  0  0999 V2000
   -0.0002    2.2516    0.0003 Si  0  0  0  0  0  0  0  0  0  0  0  0
   -3.4853    1.9348   -0.4230 O   0  0  0  0  0  0  0  0  0  0  0  0
    3.4851    1.9351    0.4226 O   0  0  0  0  0  0  0  0  0  0  0  0
   -0.7053    0.9543   -1.2107 C   0  0  2  0  0  3  0  0  0  0  0  0
   -1.9340    0.1937   -1.0623 C   0  0  2  0  0  3  0  0  0  0  0  0
   -1.8593   -0.9956   -1.8760 C   0  0  0  0  0  0  0  0  0  0  0  0
   -0.5883   -0.9795   -2.4993 C   0  0  0  0  0  0  0  0  0  0  0  0
    0.1267    0.1989   -2.1239 C   0  0  1  0  0  3  0  0  0  0  0  0
    0.7053    0.9542    1.2109 C   0  0  2  0  0  3  0  0  0  0  0  0
    1.9341    0.1938    1.0622 C   0  0  2  0  0  3  0  0  0  0  0  0
    1.8598   -0.9956    1.8759 C   0  0  0  0  0  0  0  0  0  0  0  0
    0.5888   -0.9798    2.4993 C   0  0  0  0  0  0  0  0  0  0  0  0
   -0.1264    0.1986    2.1242 C   0  0  1  0  0  3  0  0  0  0  0  0
   -3.1467    0.6016   -0.3652 C   0  0  0  0  0  0  0  0  0  0  0  0
   -4.1334   -0.0877    0.3217 C   0  0  0  0  0  0  0  0  0  0  0  0
   -5.1138    0.8800    0.7139 C   0  0  0  0  0  0  0  0  0  0  0  0
   -4.6680    2.0912    0.2356 C   0  0  0  0  0  0  0  0  0  0  0  0
   -2.9452   -1.9993   -2.1005 C   0  0  0  0  0  0  0  0  0  0  0  0
    1.4661    0.5614   -2.7052 C   0  0  0  0  0  0  0  0  0  0  0  0
    3.1466    0.6018    0.3649 C   0  0  0  0  0  0  0  0  0  0  0  0
    4.1333   -0.0874   -0.3222 C   0  0  0  0  0  0  0  0  0  0  0  0
    5.1136    0.8804   -0.7145 C   0  0  0  0  0  0  0  0  0  0  0  0
    4.6676    2.0916   -0.2362 C   0  0  0  0  0  0  0  0  0  0  0  0
    2.9458   -1.9991    2.1002 C   0  0  0  0  0  0  0  0  0  0  0  0
   -1.4659    0.5608    2.7055 C   0  0  0  0  0  0  0  0  0  0  0  0
   -1.2158    3.4073    0.8608 C   0  0  0  0  0  0  0  0  0  0  0  0
    1.2149    3.4082   -0.8598 C   0  0  0  0  0  0  0  0  0  0  0  0
   -0.2138   -1.7493   -3.1852 H   0  0  0  0  0  0  0  0  0  0  0  0
    0.2145   -1.7497    3.1852 H   0  0  0  0  0  0  0  0  0  0  0  0
   -4.1114   -1.1563    0.5571 H   0  0  0  0  0  0  0  0  0  0  0  0
   -6.0328    0.7013    1.2827 H   0  0  0  0  0  0  0  0  0  0  0  0
   -5.0620    3.1117    0.2720 H   0  0  0  0  0  0  0  0  0  0  0  0
   -3.0524   -2.6789   -1.2293 H   0  0  0  0  0  0  0  0  0  0  0  0
   -3.9202   -1.4912   -2.2446 H   0  0  0  0  0  0  0  0  0  0  0  0
   -2.7281   -2.6184   -2.9915 H   0  0  0  0  0  0  0  0  0  0  0  0
    1.8814   -0.2980   -3.2638 H   0  0  0  0  0  0  0  0  0  0  0  0
    1.3643    1.4155   -3.4066 H   0  0  0  0  0  0  0  0  0  0  0  0
    2.2180    0.8402   -1.9451 H   0  0  0  0  0  0  0  0  0  0  0  0
    4.1113   -1.1560   -0.5576 H   0  0  0  0  0  0  0  0  0  0  0  0
    6.0325    0.7017   -1.2834 H   0  0  0  0  0  0  0  0  0  0  0  0
    5.0615    3.1121   -0.2728 H   0  0  0  0  0  0  0  0  0  0  0  0
    2.7289   -2.6183    2.9911 H   0  0  0  0  0  0  0  0  0  0  0  0
    3.0531   -2.6785    1.2288 H   0  0  0  0  0  0  0  0  0  0  0  0
    3.9207   -1.4909    2.2443 H   0  0  0  0  0  0  0  0  0  0  0  0
   -1.3646    1.4156    3.4060 H   0  0  0  0  0  0  0  0  0  0  0  0
   -2.2183    0.8382    1.9453 H   0  0  0  0  0  0  0  0  0  0  0  0
   -1.8804   -0.2983    3.2651 H   0  0  0  0  0  0  0  0  0  0  0  0
   -0.6294    4.0449    1.5555 H   0  0  0  0  0  0  0  0  0  0  0  0
   -1.6934    4.0653    0.1078 H   0  0  0  0  0  0  0  0  0  0  0  0
   -2.0142    2.9103    1.4352 H   0  0  0  0  0  0  0  0  0  0  0  0
    2.0132    2.9118   -1.4348 H   0  0  0  0  0  0  0  0  0  0  0  0
    0.6282    4.0462   -1.5538 H   0  0  0  0  0  0  0  0  0  0  0  0
    1.6926    4.0657   -0.1064 H   0  0  0  0  0  0  0  0  0  0  0  0
  1 26  1  0  0  0  0
  2 14  1  0  0  0  0
  2 17  1  0  0  0  0
  4  5  1  0  0  0  0
  4  1  1  1  0  0  0
  5 14  1  6  0  0  0
  6  5  1  0  0  0  0
  7  8  1  0  0  0  0
  7  6  2  0  0  0  0
  8 19  1  6  0  0  0
  8  4  1  0  0  0  0
  9  1  1  6  0  0  0
  9 13  1  0  0  0  0
 10 20  1  1  0  0  0
 10  9  1  0  0  0  0
 10 11  1  0  0  0  0
 11 24  1  0  0  0  0
 11 12  2  0  0  0  0
 12 29  1  0  0  0  0
 13 12  1  0  0  0  0
 13 25  1  1  0  0  0
 14 15  2  0  0  0  0
 15 30  1  0  0  0  0
 15 16  1  0  0  0  0
 16 31  1  0  0  0  0
 17 32  1  0  0  0  0
 17 16  2  0  0  0  0
 18  6  1  0  0  0  0
 18 33  1  0  0  0  0
 19 38  1  0  0  0  0
 20  3  1  0  0  0  0
 21 20  2  0  0  0  0
 22 21  1  0  0  0  0
 22 23  2  0  0  0  0
 23  3  1  0  0  0  0
 24 44  1  0  0  0  0
 24 42  1  0  0  0  0
 25 47  1  0  0  0  0
 25 45  1  0  0  0  0
 26 50  1  0  0  0  0
 26 48  1  0  0  0  0
 27 53  1  0  0  0  0
 27  1  1  0  0  0  0
 28  7  1  0  0  0  0
 34 18  1  0  0  0  0
 35 18  1  0  0  0  0
 36 19  1  0  0  0  0
 37 19  1  0  0  0  0
 39 21  1  0  0  0  0
 40 22  1  0  0  0  0
 41 23  1  0  0  0  0
 43 24  1  0  0  0  0
 46 25  1  0  0  0  0
 49 26  1  0  0  0  0
 51 27  1  0  0  0  0
 52 27  1  0  0  0  0
M  END
