3,5
q = 0.0, confidence = 1.0

 36 39  0  0  1  0  0  0  0  0999 V2000
   -2.3810   -1.8125   -1.0426 C   0  0  0  0  0  0  0  0  0  0  0  0
   -1.5120   -0.9480   -1.7607 C   0  0  0  0  0  3  0  0  0  0  0  0
   -0.3497   -0.3935   -1.1421 C   0  0  0  0  0  3  0  0  0  0  0  0
   -0.0122   -0.7066    0.2000 C   0  0  1  0  0  3  0  0  0  0  0  0
   -0.8914   -1.5784    0.9239 C   0  0  0  0  0  3  0  0  0  0  0  0
   -2.0442   -2.1303    0.3165 C   0  0  0  0  0  0  0  0  0  0  0  0
   -3.6120   -2.3921   -1.6836 C   0  0  0  0  0  0  0  0  0  0  0  0
    1.2571   -0.1860    0.8508 C   0  0  0  0  0  0  0  0  0  0  0  0
    1.7570    1.1562    0.3393 C   0  0  0  0  0  0  0  0  0  0  0  0
    1.1168    2.3990    0.3552 C   0  0  0  0  0  0  0  0  0  0  0  0
    1.7852    3.5118   -0.1874 C   0  0  0  0  0  0  0  0  0  0  0  0
    3.0770    3.3799   -0.7299 C   0  0  0  0  0  0  0  0  0  0  0  0
    3.7281    2.1360   -0.7372 C   0  0  0  0  0  0  0  0  0  0  0  0
    3.0627    1.0213   -0.2004 C   0  0  0  0  0  0  0  0  0  0  0  0
    3.4847   -0.3799   -0.0651 C   0  0  0  0  0  0  0  0  0  0  0  0
    4.6753   -1.0266   -0.4355 C   0  0  0  0  0  0  0  0  0  0  0  0
    4.8068   -2.4018   -0.1834 C   0  0  0  0  0  0  0  0  0  0  0  0
    3.7653   -3.1237    0.4281 C   0  0  0  0  0  0  0  0  0  0  0  0
    2.5711   -2.4788    0.8012 C   0  0  0  0  0  0  0  0  0  0  0  0
    2.4396   -1.1093    0.5579 C   0  0  0  0  0  0  0  0  0  0  0  0
   -1.7705   -0.6529   -2.7873 H   0  0  0  0  0  0  0  0  0  0  0  0
    0.2776    0.3184   -1.6972 H   0  0  0  0  0  0  0  0  0  0  0  0
   -0.6856   -1.7888    1.9836 H   0  0  0  0  0  0  0  0  0  0  0  0
   -2.7230   -2.7598    0.9088 H   0  0  0  0  0  0  0  0  0  0  0  0
   -3.3977   -3.4083   -2.0768 H   0  0  0  0  0  0  0  0  0  0  0  0
   -4.4427   -2.4788   -0.9572 H   0  0  0  0  0  0  0  0  0  0  0  0
   -3.9576   -1.7644   -2.5267 H   0  0  0  0  0  0  0  0  0  0  0  0
    1.0784   -0.1307    1.9480 H   0  0  0  0  0  0  0  0  0  0  0  0
    0.1106    2.5064    0.7832 H   0  0  0  0  0  0  0  0  0  0  0  0
    1.2896    4.4941   -0.1870 H   0  0  0  0  0  0  0  0  0  0  0  0
    3.5833    4.2623   -1.1500 H   0  0  0  0  0  0  0  0  0  0  0  0
    4.7414    2.0381   -1.1556 H   0  0  0  0  0  0  0  0  0  0  0  0
    5.4923   -0.4668   -0.9156 H   0  0  0  0  0  0  0  0  0  0  0  0
    5.7340   -2.9218   -0.4686 H   0  0  0  0  0  0  0  0  0  0  0  0
    3.8851   -4.2014    0.6158 H   0  0  0  0  0  0  0  0  0  0  0  0
    1.7563   -3.0494    1.2733 H   0  0  0  0  0  0  0  0  0  0  0  0
  1  6  2  0  0  0  0
  2  3  1  0  0  0  0
  2  1  1  0  0  0  0
  3  4  1  0  0  0  0
  4  8  1  6  0  0  0
  4  5  1  0  0  0  0
  5 23  1  0  0  0  0
  6 24  1  0  0  0  0
  6  5  1  0  0  0  0
  7  1  1  0  0  0  0
  7 26  1  0  0  0  0
  8 28  1  0  0  0  0
  9 10  1  0  0  0  0
  9  8  1  0  0  0  0
 10 29  1  0  0  0  0
 11 30  1  0  0  0  0
 11 10  2  0  0  0  0
 12 11  1  0  0  0  0
 13 12  2  0  0  0  0
 13 14  1  0  0  0  0
 14 15  1  0  0  0  0
 14  9  2  0  0  0  0
 15 20  1  0  0  0  0
 16 17  1  0  0  0  0
 16 15  2  0  0  0  0
 17 18  2  0  0  0  0
 18 35  1  0  0  0  0
 18 19  1  0  0  0  0
 19 36  1  0  0  0  0
 20 19  2  0  0  0  0
 20  8  1  0  0  0  0
 21  2  1  0  0  0  0
 22  3  1  0  0  0  0
 25  7  1  0  0  0  0
 27  7  1  0  0  0  0
 31 12  1  0  0  0  0
 32 13  1  0  0  0  0
 33 16  1  0  0  0  0
 34 17  1  0  0  0  0
M  END
