2,17
q = -2.0, confidence = 0.944

 75 79  0  0  1  0  0  0  0  0999 V2000
    1.6011    2.7991   -0.4066 Si  0  0  0  0  0  0  0  0  0  0  0  0
    2.5258    1.2295    0.1139 C   0  0  2  0  0  3  0  0  0  0  0  0
    3.0018    0.2225   -0.8145 C   0  0  1  0  0  3  0  0  0  0  0  0
    3.4455    0.3633   -2.2547 C   0  0  0  0  0  0  0  0  0  0  0  0
    4.5340   -0.6748   -2.5788 C   0  0  0  0  0  0  0  0  0  0  0  0
    4.0881   -2.0903   -2.1937 C   0  0  0  0  0  0  0  0  0  0  0  0
    3.8441   -2.2254   -0.6815 C   0  0  0  0  0  0  0  0  0  0  0  0
    3.1887   -1.0053   -0.1019 C   0  0  0  0  0  0  0  0  0  0  0  0
    2.8099   -0.7923    1.2556 C   0  0  0  0  0  0  0  0  0  0  0  0
    2.4083    0.5754    1.3961 C   0  0  1  0  0  3  0  0  0  0  0  0
    2.0809    1.1553    2.7521 C   0  0  0  0  0  0  0  0  0  0  0  0
    2.8011    0.3519    3.8508 C   0  0  0  0  0  0  0  0  0  0  0  0
    2.5044   -1.1490    3.7429 C   0  0  0  0  0  0  0  0  0  0  0  0
    2.9815   -1.7456    2.4057 C   0  0  0  0  0  0  0  0  0  0  0  0
    1.2708    4.0083    1.0004 C   0  0  0  0  0  0  0  0  0  0  0  0
    2.3676    3.7030   -1.8730 C   0  0  0  0  0  0  0  0  0  0  0  0
    0.0187    1.8977   -0.8973 C   0  0  1  0  0  3  0  0  0  0  0  0
   -0.0948    1.0478   -2.0515 C   0  0  0  0  0  3  0  0  0  0  0  0
   -1.2058    0.1719   -1.8747 C   0  0  0  0  0  0  0  0  0  0  0  0
   -1.7892    0.4252   -0.6023 C   0  0  0  0  0  0  0  0  0  0  0  0
   -1.0091    1.4690    0.0037 C   0  0  0  0  0  3  0  0  0  0  0  0
   -3.0212   -0.2246   -0.0262 C   0  0  1  0  0  0  0  0  0  0  0  0
   -4.3263    0.5439   -0.4011 C   0  0  1  0  0  0  0  0  0  0  0  0
   -5.5332   -0.1648    0.2411 C   0  0  0  0  0  0  0  0  0  0  0  0
   -5.6291   -1.6425   -0.1471 C   0  0  0  0  0  0  0  0  0  0  0  0
   -4.3437   -2.4077    0.1961 C   0  0  2  0  0  0  0  0  0  0  0  0
   -3.1384   -1.7037   -0.4385 C   0  0  0  0  0  0  0  0  0  0  0  0
   -4.2775    2.0652   -0.0997 C   0  0  0  0  0  0  0  0  0  0  0  0
   -5.4307    2.8195   -0.7758 C   0  0  0  0  0  0  0  0  0  0  0  0
   -4.2172    2.3958    1.3985 C   0  0  0  0  0  0  0  0  0  0  0  0
   -4.4172   -3.8790   -0.2162 C   0  0  0  0  0  0  0  0  0  0  0  0
    2.5984    0.2197   -2.9609 H   0  0  0  0  0  0  0  0  0  0  0  0
    3.8251    1.3890   -2.4298 H   0  0  0  0  0  0  0  0  0  0  0  0
    4.7806   -0.6284   -3.6595 H   0  0  0  0  0  0  0  0  0  0  0  0
    5.4652   -0.4111   -2.0291 H   0  0  0  0  0  0  0  0  0  0  0  0
    3.1465   -2.3309   -2.7304 H   0  0  0  0  0  0  0  0  0  0  0  0
    4.8406   -2.8372   -2.5187 H   0  0  0  0  0  0  0  0  0  0  0  0
    3.2350   -3.1287   -0.4681 H   0  0  0  0  0  0  0  0  0  0  0  0
    4.8120   -2.3704   -0.1480 H   0  0  0  0  0  0  0  0  0  0  0  0
    2.3890    2.2182    2.7888 H   0  0  0  0  0  0  0  0  0  0  0  0
    0.9860    1.1306    2.9451 H   0  0  0  0  0  0  0  0  0  0  0  0
    3.8973    0.5273    3.7685 H   0  0  0  0  0  0  0  0  0  0  0  0
    2.4948    0.7300    4.8479 H   0  0  0  0  0  0  0  0  0  0  0  0
    2.9778   -1.6970    4.5830 H   0  0  0  0  0  0  0  0  0  0  0  0
    1.4103   -1.3029    3.8346 H   0  0  0  0  0  0  0  0  0  0  0  0
    2.4584   -2.7035    2.2009 H   0  0  0  0  0  0  0  0  0  0  0  0
    4.0647   -2.0011    2.4652 H   0  0  0  0  0  0  0  0  0  0  0  0
    0.6860    3.5487    1.8199 H   0  0  0  0  0  0  0  0  0  0  0  0
    2.2157    4.3998    1.4286 H   0  0  0  0  0  0  0  0  0  0  0  0
    0.6910    4.8693    0.6085 H   0  0  0  0  0  0  0  0  0  0  0  0
    3.4150    3.9981   -1.6582 H   0  0  0  0  0  0  0  0  0  0  0  0
    2.3650    3.0888   -2.7938 H   0  0  0  0  0  0  0  0  0  0  0  0
    1.7867    4.6251   -2.0801 H   0  0  0  0  0  0  0  0  0  0  0  0
    0.5508    1.0783   -2.9390 H   0  0  0  0  0  0  0  0  0  0  0  0
   -1.5360   -0.5888   -2.5907 H   0  0  0  0  0  0  0  0  0  0  0  0
   -1.1824    1.8683    1.0117 H   0  0  0  0  0  0  0  0  0  0  0  0
   -2.9141   -0.1970    1.0805 H   0  0  0  0  0  0  0  0  0  0  0  0
   -4.4320    0.4486   -1.5078 H   0  0  0  0  0  0  0  0  0  0  0  0
   -5.4497   -0.0895    1.3476 H   0  0  0  0  0  0  0  0  0  0  0  0
   -6.4705    0.3606   -0.0365 H   0  0  0  0  0  0  0  0  0  0  0  0
   -6.5025   -2.1153    0.3514 H   0  0  0  0  0  0  0  0  0  0  0  0
   -5.8118   -1.7276   -1.2431 H   0  0  0  0  0  0  0  0  0  0  0  0
   -4.2081   -2.3621    1.3022 H   0  0  0  0  0  0  0  0  0  0  0  0
   -3.2351   -1.7714   -1.5461 H   0  0  0  0  0  0  0  0  0  0  0  0
   -2.2028   -2.2352   -0.1710 H   0  0  0  0  0  0  0  0  0  0  0  0
   -3.3388    2.4419   -0.5612 H   0  0  0  0  0  0  0  0  0  0  0  0
   -5.3159    3.9154   -0.6476 H   0  0  0  0  0  0  0  0  0  0  0  0
   -5.4688    2.6093   -1.8645 H   0  0  0  0  0  0  0  0  0  0  0  0
   -6.4157    2.5429   -0.3453 H   0  0  0  0  0  0  0  0  0  0  0  0
   -5.1717    2.1516    1.9091 H   0  0  0  0  0  0  0  0  0  0  0  0
   -3.4130    1.8402    1.9221 H   0  0  0  0  0  0  0  0  0  0  0  0
   -4.0315    3.4782    1.5544 H   0  0  0  0  0  0  0  0  0  0  0  0
   -4.5444   -3.9750   -1.3157 H   0  0  0  0  0  0  0  0  0  0  0  0
   -3.4913   -4.4228    0.0609 H   0  0  0  0  0  0  0  0  0  0  0  0
   -5.2738   -4.3937    0.2658 H   0  0  0  0  0  0  0  0  0  0  0  0
  1 15  1  0  0  0  0
  2  1  1  6  0  0  0
  2 10  1  0  0  0  0
  3  8  1  1  0  0  0
  3  2  1  0  0  0  0
  4  3  1  0  0  0  0
  5  4  1  0  0  0  0
  5  6  1  0  0  0  0
  5 35  1  0  0  0  0
  6  7  1  0  0  0  0
  7 38  1  0  0  0  0
  7 39  1  0  0  0  0
  7  8  1  0  0  0  0
  8  9  2  0  0  0  0
  9 14  1  0  0  0  0
 10  9  1  1  0  0  0
 10 11  1  0  0  0  0
 11 40  1  0  0  0  0
 11 41  1  0  0  0  0
 11 12  1  0  0  0  0
 12 43  1  0  0  0  0
 13 45  1  0  0  0  0
 13 12  1  0  0  0  0
 13 44  1  0  0  0  0
 14 47  1  0  0  0  0
 14 13  1  0  0  0  0
 15 49  1  0  0  0  0
 15 48  1  0  0  0  0
 16 51  1  0  0  0  0
 16  1  1  0  0  0  0
 17  1  1  1  0  0  0
 17 21  1  0  0  0  0
 18 19  1  0  0  0  0
 18 17  1  0  0  0  0
 19 20  2  0  0  0  0
 20 22  1  0  0  0  0
 20 21  1  0  0  0  0
 21 56  1  0  0  0  0
 22 57  1  1  0  0  0
 23 58  1  6  0  0  0
 23 28  1  0  0  0  0
 23 22  1  0  0  0  0
 23 24  1  0  0  0  0
 24 59  1  0  0  0  0
 25 26  1  0  0  0  0
 25 24  1  0  0  0  0
 25 61  1  0  0  0  0
 26 63  1  1  0  0  0
 27 65  1  0  0  0  0
 27 22  1  0  0  0  0
 27 26  1  0  0  0  0
 28 30  1  0  0  0  0
 29 67  1  0  0  0  0
 29 69  1  0  0  0  0
 29 28  1  0  0  0  0
 30 72  1  0  0  0  0
 30 70  1  0  0  0  0
 30 71  1  0  0  0  0
 31 74  1  0  0  0  0
 31 26  1  0  0  0  0
 31 75  1  0  0  0  0
 32  4  1  0  0  0  0
 33  4  1  0  0  0  0
 34  5  1  0  0  0  0
 36  6  1  0  0  0  0
 37  6  1  0  0  0  0
 42 12  1  0  0  0  0
 46 14  1  0  0  0  0
 50 15  1  0  0  0  0
 52 16  1  0  0  0  0
 53 16  1  0  0  0  0
 54 18  1  0  0  0  0
 55 19  1  0  0  0  0
 60 24  1  0  0  0  0
 62 25  1  0  0  0  0
 64 27  1  0  0  0  0
 66 28  1  0  0  0  0
 68 29  1  0  0  0  0
 73 31  1  0  0  0  0
M  END
