5,8
q = 0.0, confidence = 0.994

 72 74  0  0  0  0  0  0  0  0999 V2000
    2.2624    0.8962   -0.1021 P   0  0  0  0  0  0  0  0  0  0  0  0
   -2.2222    0.7629    0.1241 P   0  0  0  0  0  0  0  0  0  0  0  0
    1.5370   -1.9820    0.1002 C   0  0  0  0  0  0  0  0  0  0  0  0
    0.7445   -1.9924    1.2710 C   0  0  0  0  0  0  0  0  0  0  0  0
   -0.6958   -1.9593    1.1723 C   0  0  0  0  0  3  0  0  0  0  0  0
   -1.3313   -2.0610   -0.1153 C   0  0  0  0  0  0  0  0  0  0  0  0
   -0.5408   -2.0293   -1.2872 C   0  0  0  0  0  0  0  0  0  0  0  0
    0.8968   -1.9142   -1.1880 C   0  0  0  0  0  3  0  0  0  0  0  0
    3.0151   -1.7850    0.1737 C   0  0  0  0  0  0  0  0  0  0  0  0
    3.5093   -0.4648    0.0595 C   0  0  0  0  0  0  0  0  0  0  0  0
    4.8991   -0.2399    0.0880 C   0  0  0  0  0  0  0  0  0  0  0  0
    5.7834   -1.3186    0.2358 C   0  0  0  0  0  0  0  0  0  0  0  0
    5.2871   -2.6270    0.3563 C   0  0  0  0  0  0  0  0  0  0  0  0
    3.9047   -2.8637    0.3236 C   0  0  0  0  0  0  0  0  0  0  0  0
   -2.8181   -1.9488   -0.1878 C   0  0  0  0  0  0  0  0  0  0  0  0
   -3.3935   -0.6608   -0.0603 C   0  0  0  0  0  0  0  0  0  0  0  0
   -4.7936   -0.5234   -0.1441 C   0  0  0  0  0  0  0  0  0  0  0  0
   -5.6048   -1.6530   -0.3307 C   0  0  0  0  0  0  0  0  0  0  0  0
   -5.0275   -2.9273   -0.4449 C   0  0  0  0  0  0  0  0  0  0  0  0
   -3.6342   -3.0772   -0.3783 C   0  0  0  0  0  0  0  0  0  0  0  0
    2.8272    1.7332   -1.6902 C   0  0  0  0  0  0  0  0  0  0  0  0
    2.8085    0.7339   -2.8515 C   0  0  0  0  0  0  0  0  0  0  0  0
    2.0355    2.9965   -2.0353 C   0  0  0  0  0  0  0  0  0  0  0  0
    2.7207    2.0742    1.2945 C   0  0  0  0  0  0  0  0  0  0  0  0
    2.9622    1.3065    2.5999 C   0  0  0  0  0  0  0  0  0  0  0  0
    1.6802    3.1801    1.5073 C   0  0  0  0  0  0  0  0  0  0  0  0
   -2.7801    1.9453   -1.2190 C   0  0  0  0  0  0  0  0  0  0  0  0
   -2.0353    3.2802   -1.1327 C   0  0  0  0  0  0  0  0  0  0  0  0
   -2.6783    1.3044   -2.6054 C   0  0  0  0  0  0  0  0  0  0  0  0
   -2.6531    1.6226    1.7435 C   0  0  0  0  0  0  0  0  0  0  0  0
   -2.4804    0.6670    2.9282 C   0  0  0  0  0  0  0  0  0  0  0  0
   -4.0234    2.3084    1.7768 C   0  0  0  0  0  0  0  0  0  0  0  0
    1.2309   -1.9654    2.2551 H   0  0  0  0  0  0  0  0  0  0  0  0
   -1.3140   -1.9567    2.0776 H   0  0  0  0  0  0  0  0  0  0  0  0
   -1.0279   -2.0272   -2.2713 H   0  0  0  0  0  0  0  0  0  0  0  0
    1.5125   -1.8743   -2.0940 H   0  0  0  0  0  0  0  0  0  0  0  0
    5.3002    0.7822    0.0059 H   0  0  0  0  0  0  0  0  0  0  0  0
    6.8680   -1.1365    0.2615 H   0  0  0  0  0  0  0  0  0  0  0  0
    5.9825   -3.4709    0.4751 H   0  0  0  0  0  0  0  0  0  0  0  0
    3.5127   -3.8881    0.4097 H   0  0  0  0  0  0  0  0  0  0  0  0
   -5.2609    0.4695   -0.0827 H   0  0  0  0  0  0  0  0  0  0  0  0
   -6.6966   -1.5348   -0.3957 H   0  0  0  0  0  0  0  0  0  0  0  0
   -5.6655   -3.8106   -0.5951 H   0  0  0  0  0  0  0  0  0  0  0  0
   -3.1756   -4.0726   -0.4757 H   0  0  0  0  0  0  0  0  0  0  0  0
    3.8823    2.0145   -1.4731 H   0  0  0  0  0  0  0  0  0  0  0  0
    3.4087   -0.1727   -2.6392 H   0  0  0  0  0  0  0  0  0  0  0  0
    3.2297    1.2107   -3.7593 H   0  0  0  0  0  0  0  0  0  0  0  0
    1.7683    0.4263   -3.0825 H   0  0  0  0  0  0  0  0  0  0  0  0
    0.9582    2.7663   -2.1587 H   0  0  0  0  0  0  0  0  0  0  0  0
    2.3999    3.4087   -2.9981 H   0  0  0  0  0  0  0  0  0  0  0  0
    2.1405    3.7940   -1.2765 H   0  0  0  0  0  0  0  0  0  0  0  0
    3.6767    2.5328    0.9544 H   0  0  0  0  0  0  0  0  0  0  0  0
    2.0393    0.7773    2.9151 H   0  0  0  0  0  0  0  0  0  0  0  0
    3.2300    2.0203    3.4050 H   0  0  0  0  0  0  0  0  0  0  0  0
    3.7787    0.5648    2.5176 H   0  0  0  0  0  0  0  0  0  0  0  0
    1.4491    3.7522    0.5900 H   0  0  0  0  0  0  0  0  0  0  0  0
    2.0561    3.8967    2.2653 H   0  0  0  0  0  0  0  0  0  0  0  0
    0.7323    2.7501    1.8879 H   0  0  0  0  0  0  0  0  0  0  0  0
   -3.8545    2.1180   -0.9909 H   0  0  0  0  0  0  0  0  0  0  0  0
   -2.1604    3.7806   -0.1523 H   0  0  0  0  0  0  0  0  0  0  0  0
   -2.4144    3.9730   -1.9110 H   0  0  0  0  0  0  0  0  0  0  0  0
   -0.9504    3.1399   -1.3078 H   0  0  0  0  0  0  0  0  0  0  0  0
   -1.6219    1.0941   -2.8671 H   0  0  0  0  0  0  0  0  0  0  0  0
   -3.0918    1.9949   -3.3678 H   0  0  0  0  0  0  0  0  0  0  0  0
   -3.2441    0.3536   -2.6667 H   0  0  0  0  0  0  0  0  0  0  0  0
   -1.8567    2.3981    1.8007 H   0  0  0  0  0  0  0  0  0  0  0  0
   -3.2017   -0.1748    2.8739 H   0  0  0  0  0  0  0  0  0  0  0  0
   -2.6726    1.2081    3.8764 H   0  0  0  0  0  0  0  0  0  0  0  0
   -1.4533    0.2574    2.9706 H   0  0  0  0  0  0  0  0  0  0  0  0
   -4.1827    3.0170    0.9416 H   0  0  0  0  0  0  0  0  0  0  0  0
   -4.1163    2.8882    2.7177 H   0  0  0  0  0  0  0  0  0  0  0  0
   -4.8486    1.5692    1.7749 H   0  0  0  0  0  0  0  0  0  0  0  0
  1 10  1  0  0  0  0
  1 24  1  0  0  0  0
  2 30  1  0  0  0  0
  3  9  1  0  0  0  0
  3  4  2  0  0  0  0
  4 33  1  0  0  0  0
  5  4  1  0  0  0  0
  5 34  1  0  0  0  0
  6  5  1  0  0  0  0
  7  8  1  0  0  0  0
  7  6  2  0  0  0  0
  8  3  1  0  0  0  0
  9 14  1  0  0  0  0
 10 11  1  0  0  0  0
 10  9  2  0  0  0  0
 11 12  2  0  0  0  0
 12 38  1  0  0  0  0
 12 13  1  0  0  0  0
 13 39  1  0  0  0  0
 14 13  2  0  0  0  0
 14 40  1  0  0  0  0
 15  6  1  0  0  0  0
 15 16  1  0  0  0  0
 16  2  1  0  0  0  0
 17 41  1  0  0  0  0
 17 16  2  0  0  0  0
 18 17  1  0  0  0  0
 19 20  1  0  0  0  0
 19 18  2  0  0  0  0
 20 15  2  0  0  0  0
 21 45  1  0  0  0  0
 21  1  1  0  0  0  0
 22 46  1  0  0  0  0
 22 21  1  0  0  0  0
 23 21  1  0  0  0  0
 23 51  1  0  0  0  0
 24 26  1  0  0  0  0
 24 25  1  0  0  0  0
 25 53  1  0  0  0  0
 25 54  1  0  0  0  0
 26 58  1  0  0  0  0
 26 57  1  0  0  0  0
 27 28  1  0  0  0  0
 27 59  1  0  0  0  0
 27  2  1  0  0  0  0
 28 60  1  0  0  0  0
 29 27  1  0  0  0  0
 30 32  1  0  0  0  0
 30 66  1  0  0  0  0
 30 31  1  0  0  0  0
 31 69  1  0  0  0  0
 31 68  1  0  0  0  0
 32 71  1  0  0  0  0
 35  7  1  0  0  0  0
 36  8  1  0  0  0  0
 37 11  1  0  0  0  0
 42 18  1  0  0  0  0
 43 19  1  0  0  0  0
 44 20  1  0  0  0  0
 47 22  1  0  0  0  0
 48 22  1  0  0  0  0
 49 23  1  0  0  0  0
 50 23  1  0  0  0  0
 52 24  1  0  0  0  0
 55 25  1  0  0  0  0
 56 26  1  0  0  0  0
 61 28  1  0  0  0  0
 62 28  1  0  0  0  0
 63 29  1  0  0  0  0
 64 29  1  0  0  0  0
 65 29  1  0  0  0  0
 67 31  1  0  0  0  0
 70 32  1  0  0  0  0
 72 32  1  0  0  0  0
M  END
