5,10
q = -1.0, confidence = 0.0

 40 40  0  0  1  0  0  0  0  0999 V2000
   -5.8300    0.0217    0.1333 O   0  0  0  0  0  0  0  0  0  0  0  0
   -4.3538    1.5601   -0.6251 O   0  0  0  0  0  0  0  0  0  0  0  0
   -1.4105    1.3491   -1.6660 O   0  0  0  0  0  0  0  0  0  0  0  0
   -1.8135    1.8503    0.5184 O   0  0  0  0  0  0  0  0  0  0  0  0
   -0.0619   -0.8896    0.9358 C   0  0  0  0  0  3  0  0  0  0  0  0
   -1.1144   -1.3544   -0.1128 C   0  0  2  0  0  0  0  0  0  0  0  0
   -0.5734   -1.6473   -1.5358 C   0  0  0  0  0  0  0  0  0  0  0  0
    0.5026   -2.7432   -1.5597 C   0  0  0  0  0  0  0  0  0  0  0  0
    1.7986   -2.3968   -0.8531 C   0  0  0  0  0  3  0  0  0  0  0  0
    2.0458   -2.6065    0.5210 C   0  0  0  0  0  3  0  0  0  0  0  0
    0.9831   -3.1099    1.4887 C   0  0  0  0  0  0  0  0  0  0  0  0
    0.1913   -1.9162    2.0475 C   0  0  0  0  0  0  0  0  0  0  0  0
   -2.2565   -0.3603   -0.1974 C   0  0  0  0  0  0  0  0  0  0  0  0
   -3.5779   -0.6653   -0.0357 C   0  0  0  0  0  0  0  0  0  0  0  0
   -4.5781    0.4318   -0.2122 C   0  0  0  0  0  0  0  0  0  0  0  0
   -6.8541    1.0077   -0.0201 C   0  0  0  0  0  0  0  0  0  0  0  0
   -4.1223   -2.0316    0.2886 C   0  0  0  0  0  0  0  0  0  0  0  0
   -1.8187    1.0386   -0.5612 C   0  0  0  0  0  0  0  0  0  0  0  0
   -1.4716    3.2134    0.2525 C   0  0  0  0  0  0  0  0  0  0  0  0
   -0.3540    0.0861    1.3716 H   0  0  0  0  0  0  0  0  0  0  0  0
   -1.5361   -2.3157    0.2525 H   0  0  0  0  0  0  0  0  0  0  0  0
   -1.4264   -1.9616   -2.1743 H   0  0  0  0  0  0  0  0  0  0  0  0
   -0.1811   -0.7106   -1.9801 H   0  0  0  0  0  0  0  0  0  0  0  0
    0.0763   -3.6749   -1.1228 H   0  0  0  0  0  0  0  0  0  0  0  0
    0.7367   -2.9745   -2.6184 H   0  0  0  0  0  0  0  0  0  0  0  0
    2.6856   -2.2654   -1.4967 H   0  0  0  0  0  0  0  0  0  0  0  0
    3.0988   -2.6649    0.8480 H   0  0  0  0  0  0  0  0  0  0  0  0
    1.4487   -3.7013    2.3021 H   0  0  0  0  0  0  0  0  0  0  0  0
    0.2963   -3.8000    0.9500 H   0  0  0  0  0  0  0  0  0  0  0  0
   -0.7648   -2.2501    2.5173 H   0  0  0  0  0  0  0  0  0  0  0  0
    0.7815   -1.4303    2.8524 H   0  0  0  0  0  0  0  0  0  0  0  0
   -7.7982    0.5203    0.2826 H   0  0  0  0  0  0  0  0  0  0  0  0
   -6.9154    1.3545   -1.0717 H   0  0  0  0  0  0  0  0  0  0  0  0
   -6.6522    1.8909    0.6195 H   0  0  0  0  0  0  0  0  0  0  0  0
   -4.7198   -1.9991    1.2219 H   0  0  0  0  0  0  0  0  0  0  0  0
   -3.3270   -2.7887    0.4086 H   0  0  0  0  0  0  0  0  0  0  0  0
   -4.8146   -2.3793   -0.5054 H   0  0  0  0  0  0  0  0  0  0  0  0
   -1.2365    3.6731    1.2287 H   0  0  0  0  0  0  0  0  0  0  0  0
   -2.3381    3.7220   -0.2178 H   0  0  0  0  0  0  0  0  0  0  0  0
   -0.6021    3.2724   -0.4297 H   0  0  0  0  0  0  0  0  0  0  0  0
  2 15  2  0  0  0  0
  3 18  2  0  0  0  0
  5 20  1  0  0  0  0
  5 12  1  0  0  0  0
  6 21  1  1  0  0  0
  6  5  1  0  0  0  0
  7  6  1  0  0  0  0
  8  7  1  0  0  0  0
  8 24  1  0  0  0  0
  8  9  1  0  0  0  0
  9 10  1  0  0  0  0
 10 27  1  0  0  0  0
 10 11  1  0  0  0  0
 11 12  1  0  0  0  0
 11 28  1  0  0  0  0
 12 30  1  0  0  0  0
 12 31  1  0  0  0  0
 13  6  1  0  0  0  0
 13 14  2  0  0  0  0
 14 17  1  0  0  0  0
 15 14  1  0  0  0  0
 15  1  1  0  0  0  0
 16  1  1  0  0  0  0
 16 32  1  0  0  0  0
 16 34  1  0  0  0  0
 17 36  1  0  0  0  0
 17 35  1  0  0  0  0
 18 13  1  0  0  0  0
 18  4  1  0  0  0  0
 19  4  1  0  0  0  0
 19 38  1  0  0  0  0
 22  7  1  0  0  0  0
 23  7  1  0  0  0  0
 25  8  1  0  0  0  0
 26  9  1  0  0  0  0
 29 11  1  0  0  0  0
 33 16  1  0  0  0  0
 37 17  1  0  0  0  0
 39 19  1  0  0  0  0
 40 19  1  0  0  0  0
M  END
