5,9
q = 0.0, confidence = 0.998

 23 24  0  0  1  0  0  0  0  0999 V2000
   -2.6181   -0.3840   -0.4101 O   0  0  0  0  0  0  0  0  0  0  0  0
   -1.8632   -1.4941   -0.0321 C   0  0  1  0  0  0  0  0  0  0  0  0
   -1.0348   -2.0963   -1.2246 C   0  0  0  0  0  0  0  0  0  0  0  0
    1.6295   -1.8982   -0.4033 C   0  0  0  0  0  3  0  0  0  0  0  0
    2.2807   -1.4069    0.7670 C   0  0  0  0  0  3  0  0  0  0  0  0
    1.5522   -0.8621    1.8774 C   0  0  0  0  0  3  0  0  0  0  0  0
    0.1323   -0.7408    1.8349 C   0  0  0  0  0  0  0  0  0  0  0  0
   -0.5188   -1.2621    0.6832 C   0  0  0  0  0  0  0  0  0  0  0  0
    0.2114   -1.8110   -0.4025 C   0  0  1  0  0  3  0  0  0  0  0  0
   -3.3168    0.2304    0.6675 C   0  0  0  0  0  0  0  0  0  0  0  0
   -4.0311    1.4609    0.1437 C   0  0  0  0  0  0  0  0  0  0  0  0
   -2.4922   -2.2526    0.4984 H   0  0  0  0  0  0  0  0  0  0  0  0
   -1.2279   -3.1690   -1.4251 H   0  0  0  0  0  0  0  0  0  0  0  0
   -1.1405   -1.5155   -2.1603 H   0  0  0  0  0  0  0  0  0  0  0  0
    2.2092   -2.2747   -1.2567 H   0  0  0  0  0  0  0  0  0  0  0  0
    3.3793   -1.4060    0.8087 H   0  0  0  0  0  0  0  0  0  0  0  0
    2.1094   -0.4551    2.7322 H   0  0  0  0  0  0  0  0  0  0  0  0
   -0.4084   -0.2589    2.6616 H   0  0  0  0  0  0  0  0  0  0  0  0
   -4.0382   -0.4994    1.1135 H   0  0  0  0  0  0  0  0  0  0  0  0
   -2.6018    0.5185    1.4749 H   0  0  0  0  0  0  0  0  0  0  0  0
   -3.2973    2.2000   -0.2322 H   0  0  0  0  0  0  0  0  0  0  0  0
   -4.7177    1.1905   -0.6829 H   0  0  0  0  0  0  0  0  0  0  0  0
   -4.6219    1.9365    0.9511 H   0  0  0  0  0  0  0  0  0  0  0  0
  1  2  1  0  0  0  0
  1 10  1  0  0  0  0
  2 12  1  1  0  0  0
  2  8  1  0  0  0  0
  3  9  1  0  0  0  0
  3  2  1  0  0  0  0
  4  5  1  0  0  0  0
  5 16  1  0  0  0  0
  5  6  1  0  0  0  0
  6 17  1  0  0  0  0
  7  6  1  0  0  0  0
  7 18  1  0  0  0  0
  8  7  2  0  0  0  0
  9  4  1  6  0  0  0
  9  8  1  0  0  0  0
 10 19  1  0  0  0  0
 10 20  1  0  0  0  0
 11 10  1  0  0  0  0
 11 23  1  0  0  0  0
 13  3  1  0  0  0  0
 14  3  1  0  0  0  0
 15  4  1  0  0  0  0
 21 11  1  0  0  0  0
 22 11  1  0  0  0  0
M  END
