5,11
q = -1.0, confidence = 0.002

 20 20  0  0  1  0  0  0  0  0999 V2000
    2.4723   -1.1648    1.3648 O   0  0  0  0  0  0  0  0  0  0  0  0
    4.6094    0.0139    1.0457 O   0  0  0  0  0  0  0  0  0  0  0  0
    3.7951   -0.5436    1.4281 H   0  0  0  0  0  0  0  0  0  0  0  0
    0.7923   -1.2776   -0.2883 C   0  0  2  0  0  3  0  0  0  0  0  0
    0.1739   -1.0960   -1.5852 C   0  0  0  0  0  3  0  0  0  0  0  0
    0.6233   -0.5929   -2.4490 H   0  0  0  0  0  0  0  0  0  0  0  0
   -1.1122   -1.7145   -1.5621 C   0  0  0  0  0  0  0  0  0  0  0  0
   -1.8158   -1.7667   -2.4012 H   0  0  0  0  0  0  0  0  0  0  0  0
   -1.3147   -2.2764   -0.2453 C   0  0  0  0  0  0  0  0  0  0  0  0
   -2.2005   -2.8288    0.0890 H   0  0  0  0  0  0  0  0  0  0  0  0
   -0.1513   -2.0011    0.5317 C   0  0  0  0  0  3  0  0  0  0  0  0
    0.0407   -2.2898    1.5715 H   0  0  0  0  0  0  0  0  0  0  0  0
    2.1252   -0.8365    0.1880 C   0  0  0  0  0  0  0  0  0  0  0  0
    2.9867   -0.0674   -0.6646 C   0  0  0  0  0  0  0  0  0  0  0  0
    2.6808    0.2225   -1.6765 H   0  0  0  0  0  0  0  0  0  0  0  0
    4.2263    0.3370   -0.1705 C   0  0  0  0  0  0  0  0  0  0  0  0
    5.2041    1.1554   -0.9547 C   0  0  0  0  0  0  0  0  0  0  0  0
    5.4136    2.1022   -0.4156 H   0  0  0  0  0  0  0  0  0  0  0  0
    4.8314    1.3874   -1.9682 H   0  0  0  0  0  0  0  0  0  0  0  0
    6.1693    0.6139   -1.0310 H   0  0  0  0  0  0  0  0  0  0  0  0
  2  3  1  0  0  0  0
  4 13  1  1  0  0  0
  4 11  1  0  0  0  0
  5  7  1  0  0  0  0
  5  4  1  0  0  0  0
  6  5  1  0  0  0  0
  7  9  2  0  0  0  0
  8  7  1  0  0  0  0
  9 10  1  0  0  0  0
  9 11  1  0  0  0  0
 11 12  1  0  0  0  0
 13  1  2  0  0  0  0
 14 16  2  0  0  0  0
 14 13  1  0  0  0  0
 15 14  1  0  0  0  0
 16  2  1  0  0  0  0
 17 18  1  0  0  0  0
 17 16  1  0  0  0  0
 19 17  1  0  0  0  0
 20 17  1  0  0  0  0
M  END
