8,24
q = 0.0, confidence = 0.994

 32 34  0  0  0  0  0  0  0  0999 V2000
   -1.1548    1.3215    2.4539 C   0  0  0  0  0  0  0  0  0  0  0  0
   -1.4844    2.1553    3.1054 H   0  0  0  0  0  0  0  0  0  0  0  0
   -0.0460    1.2908    2.4730 H   0  0  0  0  0  0  0  0  0  0  0  0
   -1.7517    0.0028    2.9793 C   0  0  0  0  0  0  0  0  0  0  0  0
   -1.5935    0.0038    4.0784 H   0  0  0  0  0  0  0  0  0  0  0  0
   -2.8536    0.0027    2.8291 H   0  0  0  0  0  0  0  0  0  0  0  0
   -1.5319    1.6613    1.0828 N   0  0  0  0  0  0  0  0  0  0  0  0
   -0.7998    1.2727   -0.0012 C   0  0  0  0  0  2  0  0  0  0  0  0
   -1.5335    1.6592   -1.0848 N   0  0  0  0  0  0  0  0  0  0  0  0
   -2.7040    2.2989   -0.6867 C   0  0  0  0  0  0  0  0  0  0  0  0
   -3.4130    2.7272   -1.4014 H   0  0  0  0  0  0  0  0  0  0  0  0
   -2.7029    2.3002    0.6852 C   0  0  0  0  0  0  0  0  0  0  0  0
   -3.4109    2.7298    1.4002 H   0  0  0  0  0  0  0  0  0  0  0  0
   -1.1584    1.3169   -2.4558 C   0  0  0  0  0  0  0  0  0  0  0  0
   -0.0497    1.2861   -2.4765 H   0  0  0  0  0  0  0  0  0  0  0  0
   -1.4890    2.1496   -3.1084 H   0  0  0  0  0  0  0  0  0  0  0  0
   -1.1583   -1.3214   -2.4534 C   0  0  0  0  0  0  0  0  0  0  0  0
   -1.4887   -2.1554   -3.1045 H   0  0  0  0  0  0  0  0  0  0  0  0
   -0.0496   -1.2905   -2.4740 H   0  0  0  0  0  0  0  0  0  0  0  0
   -1.7560   -0.0028   -2.9780 C   0  0  0  0  0  0  0  0  0  0  0  0
   -1.5995   -0.0038   -4.0773 H   0  0  0  0  0  0  0  0  0  0  0  0
   -2.8577   -0.0027   -2.8262 H   0  0  0  0  0  0  0  0  0  0  0  0
   -1.5334   -1.6613   -1.0817 N   0  0  0  0  0  0  0  0  0  0  0  0
   -0.7998   -1.2728    0.0012 C   0  0  0  0  0  2  0  0  0  0  0  0
   -1.5320   -1.6593    1.0858 N   0  0  0  0  0  0  0  0  0  0  0  0
   -2.7030   -2.2989    0.6894 C   0  0  0  0  0  0  0  0  0  0  0  0
   -3.4111   -2.7271    1.4051 H   0  0  0  0  0  0  0  0  0  0  0  0
   -2.7039   -2.3003   -0.6825 C   0  0  0  0  0  0  0  0  0  0  0  0
   -3.4129   -2.7299   -1.3965 H   0  0  0  0  0  0  0  0  0  0  0  0
   -1.1549   -1.3170    2.4563 C   0  0  0  0  0  0  0  0  0  0  0  0
   -0.0461   -1.2863    2.4755 H   0  0  0  0  0  0  0  0  0  0  0  0
   -1.4847   -2.1496    3.1094 H   0  0  0  0  0  0  0  0  0  0  0  0
  1  3  1  0  0  0  0
  1  4  1  0  0  0  0
  1  2  1  0  0  0  0
  4  5  1  0  0  0  0
  6  4  1  0  0  0  0
  7  1  1  0  0  0  0
  8  7  1  0  0  0  0
  9 10  1  0  0  0  0
  9  8  1  0  0  0  0
 10 12  2  0  0  0  0
 11 10  1  0  0  0  0
 12  7  1  0  0  0  0
 12 13  1  0  0  0  0
 14  9  1  0  0  0  0
 15 14  1  0  0  0  0
 16 14  1  0  0  0  0
 17 23  1  0  0  0  0
 18 17  1  0  0  0  0
 19 17  1  0  0  0  0
 20 22  1  0  0  0  0
 20 14  1  0  0  0  0
 20 17  1  0  0  0  0
 21 20  1  0  0  0  0
 23 28  1  0  0  0  0
 23 24  1  0  0  0  0
 24 25  1  0  0  0  0
 25 30  1  0  0  0  0
 26 25  1  0  0  0  0
 26 27  1  0  0  0  0
 28 26  2  0  0  0  0
 29 28  1  0  0  0  0
 30 31  1  0  0  0  0
 30  4  1  0  0  0  0
 30 32  1  0  0  0  0
M  END
