9,18
q = -2.0, confidence = 0.89

 64 68  0  0  1  0  0  0  0  0999 V2000
   -2.1511    1.2753   -0.1461 C   0  0  1  0  0  0  0  0  0  0  0  0
   -2.7462    0.3527   -1.2436 C   0  0  2  0  0  0  0  0  0  0  0  0
   -2.0635   -1.0308   -1.1971 C   0  0  0  0  0  0  0  0  0  0  0  0
   -1.6877   -1.5004    0.2431 C   0  0  2  0  0  0  0  0  0  0  0  0
   -2.6736   -0.8789    1.2529 C   0  0  2  0  0  0  0  0  0  0  0  0
   -2.5910    0.6669    1.2186 C   0  0  0  0  0  0  0  0  0  0  0  0
   -0.6842    1.6506   -0.2940 C   0  0  0  0  0  0  0  0  0  0  0  0
    0.0090    1.7790   -1.5348 C   0  0  0  0  0  0  0  0  0  0  0  0
    1.2978    2.3400   -1.3328 C   0  0  0  0  0  3  0  0  0  0  0  0
    1.3895    2.7115    0.0507 C   0  0  0  0  0  0  0  0  0  0  0  0
    2.4307    3.3478    0.7834 C   0  0  0  0  0  0  0  0  0  0  0  0
    2.2229    3.6505    2.1191 C   0  0  0  0  0  0  0  0  0  0  0  0
    0.9869    3.3310    2.7517 C   0  0  0  0  0  0  0  0  0  0  0  0
   -0.0291    2.6738    2.0697 C   0  0  0  0  0  0  0  0  0  0  0  0
    0.1586    2.3134    0.7019 C   0  0  0  0  0  0  0  0  0  0  0  0
   -0.2240   -1.3509    0.6013 C   0  0  0  0  0  0  0  0  0  0  0  0
    0.4045   -0.5587    1.6138 C   0  0  0  0  0  0  0  0  0  0  0  0
    1.7958   -0.8320    1.6487 C   0  0  0  0  0  3  0  0  0  0  0  0
    2.0477   -1.9234    0.7390 C   0  0  0  0  0  0  0  0  0  0  0  0
    3.2336   -2.6167    0.3755 C   0  0  0  0  0  0  0  0  0  0  0  0
    3.1391   -3.6585   -0.5356 C   0  0  0  0  0  0  0  0  0  0  0  0
    1.8869   -4.0260   -1.1116 C   0  0  0  0  0  0  0  0  0  0  0  0
    0.7200   -3.3411   -0.8023 C   0  0  0  0  0  0  0  0  0  0  0  0
    0.7915   -2.2659    0.1186 C   0  0  0  0  0  0  0  0  0  0  0  0
   -2.8822    0.8983   -2.6925 C   0  0  0  0  0  0  0  0  0  0  0  0
   -3.9225    0.0788   -3.4727 C   0  0  0  0  0  0  0  0  0  0  0  0
   -3.2383    2.3881   -2.7429 C   0  0  0  0  0  0  0  0  0  0  0  0
   -2.6020   -1.4433    2.6952 C   0  0  0  0  0  0  0  0  0  0  0  0
   -3.7722   -0.9245    3.5442 C   0  0  0  0  0  0  0  0  0  0  0  0
   -2.5594   -2.9764    2.7261 C   0  0  0  0  0  0  0  0  0  0  0  0
   -2.6731    2.2551   -0.2185 H   0  0  0  0  0  0  0  0  0  0  0  0
   -3.8003    0.2153   -0.9080 H   0  0  0  0  0  0  0  0  0  0  0  0
   -2.7490   -1.7805   -1.6413 H   0  0  0  0  0  0  0  0  0  0  0  0
   -1.1549   -1.0273   -1.8324 H   0  0  0  0  0  0  0  0  0  0  0  0
   -1.8574   -2.5967    0.2539 H   0  0  0  0  0  0  0  0  0  0  0  0
   -3.6803   -1.1695    0.8731 H   0  0  0  0  0  0  0  0  0  0  0  0
   -1.9320    1.0102    2.0342 H   0  0  0  0  0  0  0  0  0  0  0  0
   -3.5908    1.0809    1.4587 H   0  0  0  0  0  0  0  0  0  0  0  0
   -0.3559    1.4222   -2.4992 H   0  0  0  0  0  0  0  0  0  0  0  0
    2.0595    2.5058   -2.1014 H   0  0  0  0  0  0  0  0  0  0  0  0
    3.3722    3.6012    0.2774 H   0  0  0  0  0  0  0  0  0  0  0  0
    3.0097    4.1586    2.6965 H   0  0  0  0  0  0  0  0  0  0  0  0
    0.8295    3.6225    3.8012 H   0  0  0  0  0  0  0  0  0  0  0  0
   -0.9792    2.4790    2.5838 H   0  0  0  0  0  0  0  0  0  0  0  0
   -0.0827    0.1839    2.2480 H   0  0  0  0  0  0  0  0  0  0  0  0
    2.5325   -0.3414    2.2935 H   0  0  0  0  0  0  0  0  0  0  0  0
    4.1983   -2.3253    0.8134 H   0  0  0  0  0  0  0  0  0  0  0  0
    4.0439   -4.2140   -0.8245 H   0  0  0  0  0  0  0  0  0  0  0  0
    1.8535   -4.8637   -1.8247 H   0  0  0  0  0  0  0  0  0  0  0  0
   -0.2348   -3.6087   -1.2776 H   0  0  0  0  0  0  0  0  0  0  0  0
   -1.9135    0.7541   -3.2186 H   0  0  0  0  0  0  0  0  0  0  0  0
   -3.9987    0.4295   -4.5218 H   0  0  0  0  0  0  0  0  0  0  0  0
   -3.6699   -0.9993   -3.5018 H   0  0  0  0  0  0  0  0  0  0  0  0
   -4.9289    0.1782   -3.0122 H   0  0  0  0  0  0  0  0  0  0  0  0
   -4.1785    2.5926   -2.1870 H   0  0  0  0  0  0  0  0  0  0  0  0
   -2.4428    3.0281   -2.3115 H   0  0  0  0  0  0  0  0  0  0  0  0
   -3.3969    2.7180   -3.7896 H   0  0  0  0  0  0  0  0  0  0  0  0
   -1.6612   -1.0778    3.1632 H   0  0  0  0  0  0  0  0  0  0  0  0
   -4.7450   -1.2450    3.1129 H   0  0  0  0  0  0  0  0  0  0  0  0
   -3.7194   -1.3220    4.5779 H   0  0  0  0  0  0  0  0  0  0  0  0
   -3.7859    0.1811    3.6157 H   0  0  0  0  0  0  0  0  0  0  0  0
   -3.4289   -3.4127    2.1886 H   0  0  0  0  0  0  0  0  0  0  0  0
   -1.6357   -3.3803    2.2667 H   0  0  0  0  0  0  0  0  0  0  0  0
   -2.5962   -3.3476    3.7703 H   0  0  0  0  0  0  0  0  0  0  0  0
  1 31  1  6  0  0  0
  1  6  1  0  0  0  0
  2  3  1  0  0  0  0
  2 32  1  1  0  0  0
  2  1  1  0  0  0  0
  3  4  1  0  0  0  0
  4 35  1  1  0  0  0
  4 16  1  0  0  0  0
  4  5  1  0  0  0  0
  5 36  1  6  0  0  0
  5 28  1  0  0  0  0
  6  5  1  0  0  0  0
  6 38  1  0  0  0  0
  6 37  1  0  0  0  0
  7  1  1  0  0  0  0
  7 15  1  0  0  0  0
  8  9  1  0  0  0  0
  8  7  2  0  0  0  0
  9 10  1  0  0  0  0
 10 15  2  0  0  0  0
 10 11  1  0  0  0  0
 11 12  2  0  0  0  0
 12 42  1  0  0  0  0
 12 13  1  0  0  0  0
 13 43  1  0  0  0  0
 14 44  1  0  0  0  0
 14 13  2  0  0  0  0
 15 14  1  0  0  0  0
 16 17  2  0  0  0  0
 17 18  1  0  0  0  0
 17 45  1  0  0  0  0
 18 46  1  0  0  0  0
 19 18  1  0  0  0  0
 20 19  1  0  0  0  0
 20 47  1  0  0  0  0
 21 20  2  0  0  0  0
 22 23  2  0  0  0  0
 22 21  1  0  0  0  0
 23 24  1  0  0  0  0
 24 16  1  0  0  0  0
 24 19  2  0  0  0  0
 25  2  1  0  0  0  0
 26 54  1  0  0  0  0
 26 25  1  0  0  0  0
 27 25  1  0  0  0  0
 27 56  1  0  0  0  0
 27 55  1  0  0  0  0
 28 30  1  0  0  0  0
 28 58  1  0  0  0  0
 28 29  1  0  0  0  0
 29 61  1  0  0  0  0
 29 60  1  0  0  0  0
 30 64  1  0  0  0  0
 33  3  1  0  0  0  0
 34  3  1  0  0  0  0
 39  8  1  0  0  0  0
 40  9  1  0  0  0  0
 41 11  1  0  0  0  0
 48 21  1  0  0  0  0
 49 22  1  0  0  0  0
 50 23  1  0  0  0  0
 51 25  1  0  0  0  0
 52 26  1  0  0  0  0
 53 26  1  0  0  0  0
 57 27  1  0  0  0  0
 59 29  1  0  0  0  0
 62 30  1  0  0  0  0
 63 30  1  0  0  0  0
M  END
