31,47
q = 0.0, confidence = 0.98

 48 51  0  0  1  0  0  0  0  0999 V2000
    3.4867   -1.8913   -1.8803 C   0  0  0  0  0  0  0  0  0  0  0  0
    4.4936   -1.8761   -2.3470 H   0  0  0  0  0  0  0  0  0  0  0  0
    2.8782   -2.6226   -2.4508 H   0  0  0  0  0  0  0  0  0  0  0  0
    3.6350   -2.3845   -0.4164 C   0  0  0  0  0  0  0  0  0  0  0  0
    4.1259   -3.3812   -0.4371 H   0  0  0  0  0  0  0  0  0  0  0  0
    4.3242   -1.7026    0.1239 H   0  0  0  0  0  0  0  0  0  0  0  0
    2.3301   -2.4833    0.3420 C   0  0  0  0  0  0  0  0  0  0  0  0
    1.3568   -3.4361   -0.0130 C   0  0  0  0  0  0  0  0  0  0  0  0
    1.5464   -4.1226   -0.8530 H   0  0  0  0  0  0  0  0  0  0  0  0
    0.1375   -3.5027    0.6769 C   0  0  0  0  0  0  0  0  0  0  0  0
   -0.6439   -4.2068    0.3581 H   0  0  0  0  0  0  0  0  0  0  0  0
   -0.1151   -2.6461    1.7554 C   0  0  0  0  0  0  0  0  0  0  0  0
   -1.0853   -2.6937    2.2704 H   0  0  0  0  0  0  0  0  0  0  0  0
    0.8433   -1.6882    2.1570 C   0  0  0  0  0  0  0  0  0  0  0  0
    2.0502   -1.6012    1.4134 C   0  0  0  0  0  0  0  0  0  0  0  0
    2.8305   -0.8847    1.7179 H   0  0  0  0  0  0  0  0  0  0  0  0
    0.6120   -0.8740    3.4164 C   0  0  0  0  0  0  0  0  0  0  0  0
    1.0961   -1.4141    4.2604 H   0  0  0  0  0  0  0  0  0  0  0  0
   -0.4744   -0.8814    3.6394 H   0  0  0  0  0  0  0  0  0  0  0  0
    1.1278    0.5781    3.4209 C   0  0  0  0  0  0  0  0  0  0  0  0
    1.0607    0.9558    4.4634 H   0  0  0  0  0  0  0  0  0  0  0  0
    2.2063    0.6078    3.1624 H   0  0  0  0  0  0  0  0  0  0  0  0
    0.3640    1.5316    2.5228 C   0  0  1  0  0  3  0  0  0  0  0  0
   -1.0055    1.7837    2.7517 C   0  0  0  0  0  0  0  0  0  0  0  0
   -1.5322    1.2415    3.5510 H   0  0  0  0  0  0  0  0  0  0  0  0
   -1.7032    2.7053    1.9644 C   0  0  0  0  0  0  0  0  0  0  0  0
   -2.7747    2.8748    2.1448 H   0  0  0  0  0  0  0  0  0  0  0  0
   -1.0459    3.4130    0.9468 C   0  0  0  0  0  0  0  0  0  0  0  0
   -1.6007    4.1505    0.3457 H   0  0  0  0  0  0  0  0  0  0  0  0
    0.3225    3.2058    0.6945 C   0  0  0  0  0  0  0  0  0  0  0  0
    1.0104    2.2373    1.4730 C   0  0  0  0  0  3  0  0  0  0  0  0
    2.0970    2.1096    1.3291 H   0  0  0  0  0  0  0  0  0  0  0  0
    1.0353    4.0002   -0.3747 C   0  0  0  0  0  0  0  0  0  0  0  0
    2.1066    4.1084   -0.1050 H   0  0  0  0  0  0  0  0  0  0  0  0
    0.6124    5.0257   -0.4042 H   0  0  0  0  0  0  0  0  0  0  0  0
    0.9367    3.3982   -1.8013 C   0  0  0  0  0  0  0  0  0  0  0  0
   -0.1308    3.3158   -2.0905 H   0  0  0  0  0  0  0  0  0  0  0  0
    1.4095    4.1136   -2.5077 H   0  0  0  0  0  0  0  0  0  0  0  0
    1.5998    2.0492   -1.9190 C   0  0  1  0  0  3  0  0  0  0  0  0
    2.9946    1.9102   -1.7729 C   0  0  0  0  0  0  0  0  0  0  0  0
    3.6160    2.8098   -1.6357 H   0  0  0  0  0  0  0  0  0  0  0  0
    3.6075    0.6489   -1.7962 C   0  0  0  0  0  0  0  0  0  0  0  0
    4.7004    0.5748   -1.6746 H   0  0  0  0  0  0  0  0  0  0  0  0
    2.8510   -0.5271   -1.9684 C   0  0  0  0  0  0  0  0  0  0  0  0
    1.4563   -0.3981   -2.1482 C   0  0  0  0  0  0  0  0  0  0  0  0
    0.8303   -1.2847   -2.3277 H   0  0  0  0  0  0  0  0  0  0  0  0
    0.8342    0.8748   -2.1206 C   0  0  0  0  0  3  0  0  0  0  0  0
   -0.2453    0.9447   -2.3335 H   0  0  0  0  0  0  0  0  0  0  0  0
  1  4  1  0  0  0  0
  2  1  1  0  0  0  0
  3  1  1  0  0  0  0
  4  6  1  0  0  0  0
  4  7  1  0  0  0  0
  5  4  1  0  0  0  0
  7 15  1  0  0  0  0
  8  7  2  0  0  0  0
  8 10  1  0  0  0  0
  9  8  1  0  0  0  0
 10 12  2  0  0  0  0
 11 10  1  0  0  0  0
 12 14  1  0  0  0  0
 12 13  1  0  0  0  0
 14 17  1  0  0  0  0
 15 16  1  0  0  0  0
 15 14  2  0  0  0  0
 17 20  1  0  0  0  0
 17 19  1  0  0  0  0
 17 18  1  0  0  0  0
 20 21  1  0  0  0  0
 22 20  1  0  0  0  0
 23 31  1  1  0  0  0
 23 24  1  0  0  0  0
 23 20  1  0  0  0  0
 24 25  1  0  0  0  0
 26 27  1  0  0  0  0
 26 24  2  0  0  0  0
 28 26  1  0  0  0  0
 29 28  1  0  0  0  0
 30 28  2  0  0  0  0
 30 31  1  0  0  0  0
 32 31  1  0  0  0  0
 33 34  1  0  0  0  0
 33 30  1  0  0  0  0
 35 33  1  0  0  0  0
 36 33  1  0  0  0  0
 37 36  1  0  0  0  0
 38 36  1  0  0  0  0
 39 47  1  1  0  0  0
 39 36  1  0  0  0  0
 39 40  1  0  0  0  0
 40 41  1  0  0  0  0
 42 40  2  0  0  0  0
 42 43  1  0  0  0  0
 44  1  1  0  0  0  0
 44 42  1  0  0  0  0
 45 47  1  0  0  0  0
 45 44  2  0  0  0  0
 46 45  1  0  0  0  0
 48 47  1  0  0  0  0
M  END
