1,5
q = -1.0, confidence = 0.004

 26 28  0  0  1  0  0  0  0  0999 V2000
   -1.8380    1.0153   -0.7578 C   0  0  0  0  0  3  0  0  0  0  0  0
   -1.2136    1.8014   -1.2180 H   0  0  0  0  0  0  0  0  0  0  0  0
   -2.9530    0.4634   -1.6866 C   0  0  1  0  0  0  0  0  0  0  0  0
   -3.0302    0.9746   -2.6661 H   0  0  0  0  0  0  0  0  0  0  0  0
   -2.5367   -1.0083   -1.7353 C   0  0  0  0  0  3  0  0  0  0  0  0
   -2.0987   -1.5347   -2.5967 H   0  0  0  0  0  0  0  0  0  0  0  0
   -2.9312   -1.5711   -0.5280 C   0  0  0  0  0  3  0  0  0  0  0  0
   -2.8170   -2.6315   -0.2574 H   0  0  0  0  0  0  0  0  0  0  0  0
   -3.8545   -0.6087    0.2496 C   0  0  2  0  0  0  0  0  0  0  0  0
   -4.2672    0.4011   -0.8816 C   0  0  1  0  0  0  0  0  0  0  0  0
   -5.0617   -0.0645   -1.5039 H   0  0  0  0  0  0  0  0  0  0  0  0
   -4.7120    1.7683   -0.3505 C   0  0  0  0  0  0  0  0  0  0  0  0
   -5.5541    1.6259    0.3595 H   0  0  0  0  0  0  0  0  0  0  0  0
   -5.1173    2.3807   -1.1820 H   0  0  0  0  0  0  0  0  0  0  0  0
   -3.5196    2.4799    0.3411 C   0  0  0  0  0  0  0  0  0  0  0  0
   -3.1121    3.2914   -0.2974 H   0  0  0  0  0  0  0  0  0  0  0  0
   -3.8342    2.9553    1.2939 H   0  0  0  0  0  0  0  0  0  0  0  0
   -2.4123    1.4344    0.6036 C   0  0  1  0  0  0  0  0  0  0  0  0
   -1.6106    1.8693    1.2342 H   0  0  0  0  0  0  0  0  0  0  0  0
   -3.0636    0.2169    1.3064 C   0  0  0  0  0  0  0  0  0  0  0  0
   -3.7531    0.5725    2.1029 H   0  0  0  0  0  0  0  0  0  0  0  0
   -2.3054   -0.4260    1.8008 H   0  0  0  0  0  0  0  0  0  0  0  0
   -5.0283   -1.3596    0.8772 C   0  0  0  0  0  0  0  0  0  0  0  0
   -5.5560   -1.9837    0.1272 H   0  0  0  0  0  0  0  0  0  0  0  0
   -5.7634   -0.6505    1.3110 H   0  0  0  0  0  0  0  0  0  0  0  0
   -4.6816   -2.0259    1.6940 H   0  0  0  0  0  0  0  0  0  0  0  0
  1 18  1  0  0  0  0
  2  1  1  0  0  0  0
  3  4  1  6  0  0  0
  3 10  1  0  0  0  0
  3  1  1  0  0  0  0
  5  3  1  0  0  0  0
  5  7  1  0  0  0  0
  6  5  1  0  0  0  0
  7  8  1  0  0  0  0
  7  9  1  0  0  0  0
  9 23  1  1  0  0  0
  9 20  1  0  0  0  0
 10 11  1  6  0  0  0
 10 12  1  0  0  0  0
 10  9  1  0  0  0  0
 12 15  1  0  0  0  0
 12 13  1  0  0  0  0
 14 12  1  0  0  0  0
 15 18  1  0  0  0  0
 15 17  1  0  0  0  0
 16 15  1  0  0  0  0
 18 19  1  1  0  0  0
 18 20  1  0  0  0  0
 20 22  1  0  0  0  0
 20 21  1  0  0  0  0
 23 25  1  0  0  0  0
 23 26  1  0  0  0  0
 24 23  1  0  0  0  0
M  END
