5,6
q = 0.0, confidence = 0.864

 17 17  0  0  0  0  0  0  0  0999 V2000
   -0.8442   -3.0671   -0.0001 O   0  0  0  0  0  0  0  0  0  0  0  0
   -2.4977   -1.5902    0.0000 O   0  0  0  0  0  0  0  0  0  0  0  0
   -1.8009    1.8714   -0.0000 O   0  0  0  0  0  0  0  0  0  0  0  0
   -2.7722   -0.2130    0.0000 N   0  0  0  0  0  0  0  0  0  0  0  0
   -1.1281   -1.8848   -0.0001 C   0  0  0  0  0  3  0  0  0  0  0  0
   -1.6728    0.6428   -0.0001 C   0  0  0  0  0  3  0  0  0  0  0  0
   -4.1546    0.0686    0.0000 C   0  0  0  0  0  0  0  0  0  0  0  0
   -5.0875   -0.9955    0.0001 C   0  0  0  0  0  0  0  0  0  0  0  0
   -6.4608   -0.7206    0.0001 C   0  0  0  0  0  0  0  0  0  0  0  0
   -6.9326    0.6006    0.0001 C   0  0  0  0  0  0  0  0  0  0  0  0
   -6.0024    1.6520    0.0001 C   0  0  0  0  0  0  0  0  0  0  0  0
   -4.6241    1.4045    0.0001 C   0  0  0  0  0  0  0  0  0  0  0  0
   -4.7256   -2.0298    0.0000 H   0  0  0  0  0  0  0  0  0  0  0  0
   -7.1713   -1.5616    0.0001 H   0  0  0  0  0  0  0  0  0  0  0  0
   -8.0128    0.8090    0.0002 H   0  0  0  0  0  0  0  0  0  0  0  0
   -6.3512    2.6963    0.0002 H   0  0  0  0  0  0  0  0  0  0  0  0
   -3.8991    2.2253    0.0001 H   0  0  0  0  0  0  0  0  0  0  0  0
  2  4  1  0  0  0  0
  4  7  1  0  0  0  0
  5  1  2  0  0  0  0
  5  2  1  0  0  0  0
  6  3  2  0  0  0  0
  6  4  1  0  0  0  0
  7  8  2  0  0  0  0
  7 12  1  0  0  0  0
  8  9  1  0  0  0  0
  9 10  2  0  0  0  0
 10 11  1  0  0  0  0
 10 15  1  0  0  0  0
 11 16  1  0  0  0  0
 12 17  1  0  0  0  0
 12 11  2  0  0  0  0
 13  8  1  0  0  0  0
 14  9  1  0  0  0  0
M  END
