1,3
q = 0.0, confidence = 0.998

 44 48  0  0  0  0  0  0  0  0999 V2000
   -3.5113    1.6182    1.0857 C   0  0  0  0  0  3  0  0  0  0  0  0
   -4.2210    1.9089   -0.0972 C   0  0  0  0  0  3  0  0  0  0  0  0
   -3.6258    1.6073   -1.3619 C   0  0  0  0  0  3  0  0  0  0  0  0
   -2.3303    1.0502   -1.4284 C   0  0  0  0  0  3  0  0  0  0  0  0
   -1.5424    0.8392   -0.2357 C   0  0  0  0  0  0  0  0  0  0  0  0
   -2.1498    1.1348    1.0473 C   0  0  0  0  0  0  0  0  0  0  0  0
   -1.4120    0.8700    2.2445 C   0  0  0  0  0  0  0  0  0  0  0  0
   -0.1191    0.3915    2.1922 C   0  0  0  0  0  0  0  0  0  0  0  0
    0.4881    0.1239    0.9347 C   0  0  0  0  0  0  0  0  0  0  0  0
   -0.2096    0.2921   -0.2726 C   0  0  0  0  0  0  0  0  0  0  0  0
    0.4357   -0.2129   -1.4733 C   0  0  0  0  0  0  0  0  0  0  0  0
    1.7585   -0.5034   -1.4631 C   0  0  0  0  0  0  0  0  0  0  0  0
    2.5833   -0.2132   -0.2248 C   0  0  0  0  0  0  0  0  0  0  0  0
    1.7421   -0.3839    0.9654 O   0  0  0  0  0  0  0  0  0  0  0  0
    3.1357    1.2202   -0.1755 C   0  0  0  0  0  0  0  0  0  0  0  0
    2.8877    2.1633   -1.1858 C   0  0  0  0  0  0  0  0  0  0  0  0
    3.4006    3.4677   -1.0818 C   0  0  0  0  0  0  0  0  0  0  0  0
    4.1553    3.8404    0.0389 C   0  0  0  0  0  0  0  0  0  0  0  0
    4.4000    2.9025    1.0578 C   0  0  0  0  0  0  0  0  0  0  0  0
    3.8974    1.6008    0.9488 C   0  0  0  0  0  0  0  0  0  0  0  0
    3.7027   -1.2500   -0.1018 C   0  0  0  0  0  0  0  0  0  0  0  0
    4.8961   -1.0738   -0.8281 C   0  0  0  0  0  0  0  0  0  0  0  0
    5.9035   -2.0481   -0.7835 C   0  0  0  0  0  0  0  0  0  0  0  0
    5.7322   -3.2049   -0.0064 C   0  0  0  0  0  0  0  0  0  0  0  0
    4.5450   -3.3824    0.7199 C   0  0  0  0  0  0  0  0  0  0  0  0
    3.5307   -2.4136    0.6681 C   0  0  0  0  0  0  0  0  0  0  0  0
   -3.9810    1.7854    2.0654 H   0  0  0  0  0  0  0  0  0  0  0  0
   -5.2516    2.2848   -0.0471 H   0  0  0  0  0  0  0  0  0  0  0  0
   -4.1986    1.7602   -2.2868 H   0  0  0  0  0  0  0  0  0  0  0  0
   -1.9100    0.7915   -2.4081 H   0  0  0  0  0  0  0  0  0  0  0  0
   -1.8888    1.0814    3.2131 H   0  0  0  0  0  0  0  0  0  0  0  0
    0.4674    0.2039    3.1024 H   0  0  0  0  0  0  0  0  0  0  0  0
   -0.1698   -0.4277   -2.3660 H   0  0  0  0  0  0  0  0  0  0  0  0
    2.2649   -0.9531   -2.3287 H   0  0  0  0  0  0  0  0  0  0  0  0
    2.2850    1.8744   -2.0592 H   0  0  0  0  0  0  0  0  0  0  0  0
    3.2021    4.1973   -1.8816 H   0  0  0  0  0  0  0  0  0  0  0  0
    4.5545    4.8627    0.1220 H   0  0  0  0  0  0  0  0  0  0  0  0
    4.9911    3.1893    1.9409 H   0  0  0  0  0  0  0  0  0  0  0  0
    4.0906    0.8616    1.7409 H   0  0  0  0  0  0  0  0  0  0  0  0
    5.0406   -0.1598   -1.4243 H   0  0  0  0  0  0  0  0  0  0  0  0
    6.8327   -1.8979   -1.3540 H   0  0  0  0  0  0  0  0  0  0  0  0
    6.5253   -3.9669    0.0336 H   0  0  0  0  0  0  0  0  0  0  0  0
    4.4021   -4.2861    1.3319 H   0  0  0  0  0  0  0  0  0  0  0  0
    2.5967   -2.5513    1.2297 H   0  0  0  0  0  0  0  0  0  0  0  0
  1 27  1  0  0  0  0
  2 28  1  0  0  0  0
  2  1  1  0  0  0  0
  3  2  1  0  0  0  0
  4  3  1  0  0  0  0
  4  5  1  0  0  0  0
  5  6  1  0  0  0  0
  6  1  1  0  0  0  0
  6  7  2  0  0  0  0
  7 31  1  0  0  0  0
  8  7  1  0  0  0  0
  8 32  1  0  0  0  0
  9 14  1  0  0  0  0
  9  8  2  0  0  0  0
 10  5  2  0  0  0  0
 10  9  1  0  0  0  0
 11 12  2  0  0  0  0
 11 10  1  0  0  0  0
 12 13  1  0  0  0  0
 13 15  1  0  0  0  0
 13 21  1  0  0  0  0
 13 14  1  0  0  0  0
 15 20  1  0  0  0  0
 16 17  1  0  0  0  0
 16 15  2  0  0  0  0
 17 18  2  0  0  0  0
 18 37  1  0  0  0  0
 18 19  1  0  0  0  0
 19 38  1  0  0  0  0
 20 19  2  0  0  0  0
 20 39  1  0  0  0  0
 21 26  1  0  0  0  0
 22 23  1  0  0  0  0
 22 21  2  0  0  0  0
 23 24  2  0  0  0  0
 24 42  1  0  0  0  0
 24 25  1  0  0  0  0
 25 43  1  0  0  0  0
 26 25  2  0  0  0  0
 26 44  1  0  0  0  0
 29  3  1  0  0  0  0
 30  4  1  0  0  0  0
 33 11  1  0  0  0  0
 34 12  1  0  0  0  0
 35 16  1  0  0  0  0
 36 17  1  0  0  0  0
 40 22  1  0  0  0  0
 41 23  1  0  0  0  0
M  END
