5,8
q = -2.0, confidence = 0.814

 60 61  0  0  1  0  0  0  0  0999 V2000
   -1.5543    1.3475   -0.5110 C   0  0  0  0  0  0  0  0  0  0  0  0
   -2.0949    0.4170    0.4213 C   0  0  0  0  0  0  0  0  0  0  0  0
   -2.3727   -0.8282   -0.2287 C   0  0  0  0  0  0  0  0  0  0  0  0
   -1.9695   -0.6697   -1.5843 C   0  0  0  0  0  0  0  0  0  0  0  0
   -1.4684    0.6473   -1.7664 C   0  0  0  0  0  3  0  0  0  0  0  0
   -1.1842    2.8060   -0.2343 C   0  0  0  0  0  0  0  0  0  0  0  0
    0.2388    2.8458    0.5093 C   0  0  0  0  0  0  0  0  0  0  0  0
    1.0996    1.7039   -0.0271 C   0  0  2  0  0  3  0  0  0  0  0  0
    1.9008    0.7941    0.7329 C   0  0  0  0  0  0  0  0  0  0  0  0
    2.5638   -0.1218   -0.1392 C   0  0  0  0  0  0  0  0  0  0  0  0
    2.1679    0.2312   -1.4643 C   0  0  0  0  0  0  0  0  0  0  0  0
    1.2990    1.3451   -1.4062 C   0  0  0  0  0  0  0  0  0  0  0  0
   -2.2974    3.4444    0.6247 C   0  0  0  0  0  0  0  0  0  0  0  0
   -1.1787    3.5933   -1.5644 C   0  0  0  0  0  0  0  0  0  0  0  0
    0.0851    2.6741    2.0335 C   0  0  0  0  0  0  0  0  0  0  0  0
    0.9810    4.1779    0.2632 C   0  0  0  0  0  0  0  0  0  0  0  0
   -3.1352   -2.0180    0.3471 C   0  0  0  0  0  0  0  0  0  0  0  0
   -2.3476   -3.3347    0.1962 C   0  0  0  0  0  0  0  0  0  0  0  0
   -3.4698   -1.7860    1.8313 C   0  0  0  0  0  0  0  0  0  0  0  0
   -4.4581   -2.1266   -0.4506 C   0  0  0  0  0  0  0  0  0  0  0  0
    3.6367   -1.1389    0.2414 C   0  0  0  0  0  0  0  0  0  0  0  0
    4.8147   -0.3380    0.8475 C   0  0  0  0  0  0  0  0  0  0  0  0
    4.1299   -1.8901   -1.0086 C   0  0  0  0  0  0  0  0  0  0  0  0
    3.1396   -2.1662    1.2761 C   0  0  0  0  0  0  0  0  0  0  0  0
   -2.2747    0.6150    1.4818 H   0  0  0  0  0  0  0  0  0  0  0  0
   -2.0166   -1.4390   -2.3621 H   0  0  0  0  0  0  0  0  0  0  0  0
   -1.1343    1.0619   -2.7218 H   0  0  0  0  0  0  0  0  0  0  0  0
    1.9704    0.7750    1.8239 H   0  0  0  0  0  0  0  0  0  0  0  0
    2.4644   -0.2883   -2.3805 H   0  0  0  0  0  0  0  0  0  0  0  0
    0.8888    1.8557   -2.2796 H   0  0  0  0  0  0  0  0  0  0  0  0
   -3.2465    3.4620    0.0523 H   0  0  0  0  0  0  0  0  0  0  0  0
   -2.4875    2.8959    1.5645 H   0  0  0  0  0  0  0  0  0  0  0  0
   -2.0423    4.4918    0.8855 H   0  0  0  0  0  0  0  0  0  0  0  0
   -2.1360    3.4290   -2.0973 H   0  0  0  0  0  0  0  0  0  0  0  0
   -1.0854    4.6798   -1.3767 H   0  0  0  0  0  0  0  0  0  0  0  0
   -0.3626    3.3098   -2.2530 H   0  0  0  0  0  0  0  0  0  0  0  0
    1.0817    2.6974    2.5159 H   0  0  0  0  0  0  0  0  0  0  0  0
   -0.5023    3.4994    2.4759 H   0  0  0  0  0  0  0  0  0  0  0  0
   -0.3848    1.7082    2.3025 H   0  0  0  0  0  0  0  0  0  0  0  0
    1.9231    4.1931    0.8467 H   0  0  0  0  0  0  0  0  0  0  0  0
    1.2489    4.3224   -0.8002 H   0  0  0  0  0  0  0  0  0  0  0  0
    0.3689    5.0438    0.5903 H   0  0  0  0  0  0  0  0  0  0  0  0
   -2.9658   -4.1828    0.5563 H   0  0  0  0  0  0  0  0  0  0  0  0
   -2.0726   -3.5299   -0.8585 H   0  0  0  0  0  0  0  0  0  0  0  0
   -1.4100   -3.3009    0.7824 H   0  0  0  0  0  0  0  0  0  0  0  0
   -4.0313   -2.6546    2.2304 H   0  0  0  0  0  0  0  0  0  0  0  0
   -2.5466   -1.6639    2.4296 H   0  0  0  0  0  0  0  0  0  0  0  0
   -4.1039   -0.8861    1.9696 H   0  0  0  0  0  0  0  0  0  0  0  0
   -5.0801   -2.9509   -0.0444 H   0  0  0  0  0  0  0  0  0  0  0  0
   -5.0448   -1.1875   -0.3861 H   0  0  0  0  0  0  0  0  0  0  0  0
   -4.2701   -2.3399   -1.5221 H   0  0  0  0  0  0  0  0  0  0  0  0
    5.6499   -1.0228    1.1025 H   0  0  0  0  0  0  0  0  0  0  0  0
    5.1953    0.4203    0.1333 H   0  0  0  0  0  0  0  0  0  0  0  0
    4.5112    0.1874    1.7755 H   0  0  0  0  0  0  0  0  0  0  0  0
    4.9109   -2.6231   -0.7228 H   0  0  0  0  0  0  0  0  0  0  0  0
    3.2973   -2.4395   -1.4899 H   0  0  0  0  0  0  0  0  0  0  0  0
    4.5760   -1.1996   -1.7533 H   0  0  0  0  0  0  0  0  0  0  0  0
    3.9733   -2.8432    1.5551 H   0  0  0  0  0  0  0  0  0  0  0  0
    2.7653   -1.6790    2.1968 H   0  0  0  0  0  0  0  0  0  0  0  0
    2.3109   -2.7715    0.8625 H   0  0  0  0  0  0  0  0  0  0  0  0
  1  6  1  0  0  0  0
  1  2  2  0  0  0  0
  2 25  1  0  0  0  0
  3 17  1  0  0  0  0
  3  2  1  0  0  0  0
  4  3  2  0  0  0  0
  5  4  1  0  0  0  0
  5  1  1  0  0  0  0
  6  7  1  0  0  0  0
  6 13  1  0  0  0  0
  7 15  1  0  0  0  0
  8  7  1  6  0  0  0
  8  9  1  0  0  0  0
  9 28  1  0  0  0  0
 10 21  1  0  0  0  0
 10  9  2  0  0  0  0
 11 12  2  0  0  0  0
 11 10  1  0  0  0  0
 12  8  1  0  0  0  0
 13 33  1  0  0  0  0
 13 32  1  0  0  0  0
 14 35  1  0  0  0  0
 14  6  1  0  0  0  0
 15 39  1  0  0  0  0
 15 38  1  0  0  0  0
 15 37  1  0  0  0  0
 16  7  1  0  0  0  0
 16 42  1  0  0  0  0
 16 40  1  0  0  0  0
 17 19  1  0  0  0  0
 18 17  1  0  0  0  0
 18 43  1  0  0  0  0
 18 45  1  0  0  0  0
 19 48  1  0  0  0  0
 19 46  1  0  0  0  0
 19 47  1  0  0  0  0
 20 50  1  0  0  0  0
 20 49  1  0  0  0  0
 20 17  1  0  0  0  0
 21 22  1  0  0  0  0
 21 24  1  0  0  0  0
 22 52  1  0  0  0  0
 22 54  1  0  0  0  0
 23 55  1  0  0  0  0
 23 21  1  0  0  0  0
 24 58  1  0  0  0  0
 24 59  1  0  0  0  0
 26  4  1  0  0  0  0
 27  5  1  0  0  0  0
 29 11  1  0  0  0  0
 30 12  1  0  0  0  0
 31 13  1  0  0  0  0
 34 14  1  0  0  0  0
 36 14  1  0  0  0  0
 41 16  1  0  0  0  0
 44 18  1  0  0  0  0
 51 20  1  0  0  0  0
 53 22  1  0  0  0  0
 56 23  1  0  0  0  0
 57 23  1  0  0  0  0
 60 24  1  0  0  0  0
M  END
