5
q = -2.0, confidence = 0.892

 44 46  0  0  1  0  0  0  0  0999 V2000
    2.1285   -0.5156   -1.5745 Si  0  0  0  0  0  0  0  0  0  0  0  0
    0.2636    2.4913    0.0000 Si  0  0  0  0  0  0  0  0  0  0  0  0
    2.1285   -0.5156    1.5744 Si  0  0  0  0  0  0  0  0  0  0  0  0
    2.6656   -0.2330   -0.0000 O   0  0  0  0  0  0  0  0  0  0  0  0
    0.3296    0.0399   -1.7422 C   0  0  1  0  0  3  0  0  0  0  0  0
   -0.2715    1.3146   -1.3894 C   0  0  1  0  0  3  0  0  0  0  0  0
   -1.6303    1.2742   -1.8434 C   0  0  0  0  0  3  0  0  0  0  0  0
   -2.3840    2.0576   -1.6886 H   0  0  0  0  0  0  0  0  0  0  0  0
   -1.8680    0.0312   -2.5041 C   0  0  0  0  0  0  0  0  0  0  0  0
   -2.8216   -0.2969   -2.9344 H   0  0  0  0  0  0  0  0  0  0  0  0
   -0.6701   -0.7165   -2.4500 C   0  0  0  0  0  0  0  0  0  0  0  0
   -0.5362   -1.7310   -2.8447 H   0  0  0  0  0  0  0  0  0  0  0  0
    3.2071    0.5341   -2.7012 C   0  0  0  0  0  0  0  0  0  0  0  0
    2.9266    0.3786   -3.7628 H   0  0  0  0  0  0  0  0  0  0  0  0
    4.2754    0.2618   -2.5801 H   0  0  0  0  0  0  0  0  0  0  0  0
    3.0962    1.6120   -2.4716 H   0  0  0  0  0  0  0  0  0  0  0  0
    2.2646   -2.3394   -2.0016 C   0  0  0  0  0  0  0  0  0  0  0  0
    2.0569   -2.5150   -3.0772 H   0  0  0  0  0  0  0  0  0  0  0  0
    1.5481   -2.9410   -1.4073 H   0  0  0  0  0  0  0  0  0  0  0  0
    3.2915   -2.7014   -1.7913 H   0  0  0  0  0  0  0  0  0  0  0  0
   -0.8487    4.0141    0.0000 C   0  0  0  0  0  0  0  0  0  0  0  0
   -1.9264    3.7587    0.0000 H   0  0  0  0  0  0  0  0  0  0  0  0
   -0.6473    4.6355   -0.8964 H   0  0  0  0  0  0  0  0  0  0  0  0
   -0.6473    4.6354    0.8965 H   0  0  0  0  0  0  0  0  0  0  0  0
    2.0671    3.0169    0.0000 C   0  0  0  0  0  0  0  0  0  0  0  0
    2.7529    2.1492    0.0000 H   0  0  0  0  0  0  0  0  0  0  0  0
    2.2759    3.6358    0.8967 H   0  0  0  0  0  0  0  0  0  0  0  0
    2.2759    3.6358   -0.8967 H   0  0  0  0  0  0  0  0  0  0  0  0
    2.2646   -2.3394    2.0016 C   0  0  0  0  0  0  0  0  0  0  0  0
    1.5481   -2.9410    1.4073 H   0  0  0  0  0  0  0  0  0  0  0  0
    2.0569   -2.5150    3.0771 H   0  0  0  0  0  0  0  0  0  0  0  0
    3.2915   -2.7014    1.7913 H   0  0  0  0  0  0  0  0  0  0  0  0
    3.2071    0.5341    2.7012 C   0  0  0  0  0  0  0  0  0  0  0  0
    2.9266    0.3786    3.7628 H   0  0  0  0  0  0  0  0  0  0  0  0
    3.0962    1.6120    2.4716 H   0  0  0  0  0  0  0  0  0  0  0  0
    4.2754    0.2618    2.5800 H   0  0  0  0  0  0  0  0  0  0  0  0
    0.3296    0.0399    1.7422 C   0  0  2  0  0  3  0  0  0  0  0  0
   -0.2715    1.3145    1.3894 C   0  0  2  0  0  3  0  0  0  0  0  0
   -1.6303    1.2742    1.8434 C   0  0  0  0  0  3  0  0  0  0  0  0
   -2.3840    2.0576    1.6886 H   0  0  0  0  0  0  0  0  0  0  0  0
   -1.8680    0.0311    2.5041 C   0  0  0  0  0  0  0  0  0  0  0  0
   -2.8215   -0.2969    2.9344 H   0  0  0  0  0  0  0  0  0  0  0  0
   -0.6701   -0.7165    2.4500 C   0  0  0  0  0  0  0  0  0  0  0  0
   -0.5362   -1.7310    2.8447 H   0  0  0  0  0  0  0  0  0  0  0  0
  1  4  1  0  0  0  0
  2 21  1  0  0  0  0
  2 38  1  0  0  0  0
  3 37  1  0  0  0  0
  3 29  1  0  0  0  0
  3 33  1  0  0  0  0
  4  3  1  0  0  0  0
  5 11  1  6  0  0  0
  5  1  1  0  0  0  0
  5  6  1  0  0  0  0
  6  7  1  1  0  0  0
  6  2  1  0  0  0  0
  7  8  1  0  0  0  0
  9 11  2  0  0  0  0
  9  7  1  0  0  0  0
 10  9  1  0  0  0  0
 12 11  1  0  0  0  0
 13 15  1  0  0  0  0
 13 16  1  0  0  0  0
 13  1  1  0  0  0  0
 14 13  1  0  0  0  0
 17 20  1  0  0  0  0
 17  1  1  0  0  0  0
 17 19  1  0  0  0  0
 18 17  1  0  0  0  0
 21 24  1  0  0  0  0
 22 21  1  0  0  0  0
 23 21  1  0  0  0  0
 25  2  1  0  0  0  0
 25 27  1  0  0  0  0
 26 25  1  0  0  0  0
 28 25  1  0  0  0  0
 29 31  1  0  0  0  0
 30 29  1  0  0  0  0
 32 29  1  0  0  0  0
 33 34  1  0  0  0  0
 35 33  1  0  0  0  0
 36 33  1  0  0  0  0
 37 43  1  1  0  0  0
 38 37  1  0  0  0  0
 38 39  1  6  0  0  0
 39 41  1  0  0  0  0
 40 39  1  0  0  0  0
 41 42  1  0  0  0  0
 43 41  2  0  0  0  0
 43 44  1  0  0  0  0
M  END
