2,13
q = -2.0, confidence = 0.822

 54 55  0  0  1  0  0  0  0  0999 V2000
   -1.0566    1.8331    0.8503 C   0  0  1  0  0  3  0  0  0  0  0  0
   -1.9230    1.2528   -0.1331 C   0  0  0  0  0  3  0  0  0  0  0  0
   -2.4710    0.0366    0.3869 C   0  0  1  0  0  3  0  0  0  0  0  0
   -1.8267   -0.1903    1.6296 C   0  0  0  0  0  0  0  0  0  0  0  0
   -0.9626    0.9144    1.9386 C   0  0  0  0  0  0  0  0  0  0  0  0
   -0.3521    3.1504    0.6886 C   0  0  0  0  0  0  0  0  0  0  0  0
   -3.7021   -0.6986   -0.1286 C   0  0  0  0  0  0  0  0  0  0  0  0
   -3.6511   -2.2028    0.1968 C   0  0  0  0  0  0  0  0  0  0  0  0
   -3.9176   -0.4771   -1.6367 C   0  0  0  0  0  0  0  0  0  0  0  0
   -4.8961   -0.0654    0.6337 C   0  0  0  0  0  0  0  0  0  0  0  0
   -0.1895    1.0817    3.2103 C   0  0  0  0  0  0  0  0  0  0  0  0
    1.0571    1.8364   -0.8431 C   0  0  1  0  0  3  0  0  0  0  0  0
    1.9231    1.2520    0.1383 C   0  0  0  0  0  3  0  0  0  0  0  0
    2.4711    0.0378   -0.3864 C   0  0  1  0  0  3  0  0  0  0  0  0
    1.8271   -0.1840   -1.6303 C   0  0  0  0  0  0  0  0  0  0  0  0
    0.9634    0.9222   -1.9351 C   0  0  0  0  0  0  0  0  0  0  0  0
    0.3527    3.1531   -0.6762 C   0  0  0  0  0  0  0  0  0  0  0  0
    3.7019   -0.6995    0.1268 C   0  0  0  0  0  0  0  0  0  0  0  0
    3.9161   -0.4849    1.6361 C   0  0  0  0  0  0  0  0  0  0  0  0
    4.8964   -0.0625   -0.6317 C   0  0  0  0  0  0  0  0  0  0  0  0
    3.6515   -2.2021   -0.2056 C   0  0  0  0  0  0  0  0  0  0  0  0
    0.1909    1.0949   -3.2064 C   0  0  0  0  0  0  0  0  0  0  0  0
   -2.1952    1.7125   -1.0904 H   0  0  0  0  0  0  0  0  0  0  0  0
   -1.9586   -1.0712    2.2665 H   0  0  0  0  0  0  0  0  0  0  0  0
   -1.0710    3.9932    0.7760 H   0  0  0  0  0  0  0  0  0  0  0  0
    0.3849    3.2852    1.5052 H   0  0  0  0  0  0  0  0  0  0  0  0
   -2.7837   -2.6838   -0.2918 H   0  0  0  0  0  0  0  0  0  0  0  0
   -3.5792   -2.3779    1.2892 H   0  0  0  0  0  0  0  0  0  0  0  0
   -4.5795   -2.6961   -0.1560 H   0  0  0  0  0  0  0  0  0  0  0  0
   -3.0585   -0.8541   -2.2217 H   0  0  0  0  0  0  0  0  0  0  0  0
   -4.8312   -1.0111   -1.9678 H   0  0  0  0  0  0  0  0  0  0  0  0
   -4.0637    0.5974   -1.8707 H   0  0  0  0  0  0  0  0  0  0  0  0
   -5.8466   -0.5357    0.3063 H   0  0  0  0  0  0  0  0  0  0  0  0
   -4.7965   -0.2112    1.7282 H   0  0  0  0  0  0  0  0  0  0  0  0
   -4.9648    1.0243    0.4391 H   0  0  0  0  0  0  0  0  0  0  0  0
   -0.8366    1.5084    4.0062 H   0  0  0  0  0  0  0  0  0  0  0  0
    0.1926    0.1041    3.5611 H   0  0  0  0  0  0  0  0  0  0  0  0
    0.6757    1.7624    3.0883 H   0  0  0  0  0  0  0  0  0  0  0  0
    2.1952    1.7079    1.0974 H   0  0  0  0  0  0  0  0  0  0  0  0
    1.9590   -1.0624   -2.2706 H   0  0  0  0  0  0  0  0  0  0  0  0
   -0.3843    3.2911   -1.4924 H   0  0  0  0  0  0  0  0  0  0  0  0
    1.0715    3.9962   -0.7604 H   0  0  0  0  0  0  0  0  0  0  0  0
    4.0621    0.5885    1.8751 H   0  0  0  0  0  0  0  0  0  0  0  0
    3.0563   -0.8644    2.2185 H   0  0  0  0  0  0  0  0  0  0  0  0
    4.8292   -1.0205    1.9655 H   0  0  0  0  0  0  0  0  0  0  0  0
    4.9648    1.0262   -0.4320 H   0  0  0  0  0  0  0  0  0  0  0  0
    5.8467   -0.5343   -0.3056 H   0  0  0  0  0  0  0  0  0  0  0  0
    4.7978   -0.2033   -1.7268 H   0  0  0  0  0  0  0  0  0  0  0  0
    2.7837   -2.6856    0.2799 H   0  0  0  0  0  0  0  0  0  0  0  0
    3.5807   -2.3722   -1.2989 H   0  0  0  0  0  0  0  0  0  0  0  0
    4.5796   -2.6970    0.1458 H   0  0  0  0  0  0  0  0  0  0  0  0
    0.8386    1.5243   -4.0003 H   0  0  0  0  0  0  0  0  0  0  0  0
   -0.1916    0.1188   -3.5612 H   0  0  0  0  0  0  0  0  0  0  0  0
   -0.6741    1.7755   -3.0821 H   0  0  0  0  0  0  0  0  0  0  0  0
  1  6  1  6  0  0  0
  1  5  1  0  0  0  0
  2  3  1  0  0  0  0
  2  1  1  0  0  0  0
  3  7  1  1  0  0  0
  3  4  1  0  0  0  0
  4  5  2  0  0  0  0
  4 24  1  0  0  0  0
  5 11  1  0  0  0  0
  6 25  1  0  0  0  0
  6 26  1  0  0  0  0
  7  8  1  0  0  0  0
  7 10  1  0  0  0  0
  8 28  1  0  0  0  0
  9  7  1  0  0  0  0
 10 34  1  0  0  0  0
 11 37  1  0  0  0  0
 11 36  1  0  0  0  0
 12 17  1  1  0  0  0
 12 13  1  0  0  0  0
 13 39  1  0  0  0  0
 14 18  1  6  0  0  0
 14 13  1  0  0  0  0
 15 14  1  0  0  0  0
 16 15  2  0  0  0  0
 16 12  1  0  0  0  0
 17  6  1  0  0  0  0
 18 19  1  0  0  0  0
 19 43  1  0  0  0  0
 19 45  1  0  0  0  0
 19 44  1  0  0  0  0
 20 46  1  0  0  0  0
 20 47  1  0  0  0  0
 20 18  1  0  0  0  0
 21 18  1  0  0  0  0
 21 51  1  0  0  0  0
 21 49  1  0  0  0  0
 22 54  1  0  0  0  0
 22 16  1  0  0  0  0
 23  2  1  0  0  0  0
 27  8  1  0  0  0  0
 29  8  1  0  0  0  0
 30  9  1  0  0  0  0
 31  9  1  0  0  0  0
 32  9  1  0  0  0  0
 33 10  1  0  0  0  0
 35 10  1  0  0  0  0
 38 11  1  0  0  0  0
 40 15  1  0  0  0  0
 41 17  1  0  0  0  0
 42 17  1  0  0  0  0
 48 20  1  0  0  0  0
 50 21  1  0  0  0  0
 52 22  1  0  0  0  0
 53 22  1  0  0  0  0
M  END
