6,10
q = 0.0, confidence = 0.95

 37 38  0  0  1  0  0  0  0  0999 V2000
   -2.8368   -1.2729    1.0113 S   0  0  0  0  0  0  0  0  0  0  0  0
    0.8891    2.6162    1.9149 O   0  0  0  0  0  0  0  0  0  0  0  0
   -2.8418   -2.6749    0.5407 O   0  0  0  0  0  0  0  0  0  0  0  0
   -2.7257   -0.9078    2.4380 O   0  0  0  0  0  0  0  0  0  0  0  0
   -1.5263   -0.5484    0.2449 N   0  0  0  0  0  0  0  0  0  0  0  0
    0.8953   -0.0372   -2.4750 C   0  0  0  0  0  3  0  0  0  0  0  0
    0.9184   -0.9752   -3.0538 H   0  0  0  0  0  0  0  0  0  0  0  0
    1.2789    0.8472   -3.0049 H   0  0  0  0  0  0  0  0  0  0  0  0
   -0.0888    0.0845   -1.4606 C   0  0  2  0  0  3  0  0  0  0  0  0
   -0.0308    1.0875   -0.4283 C   0  0  2  0  0  3  0  0  0  0  0  0
    0.9860    2.0875   -0.4220 C   0  0  0  0  0  3  0  0  0  0  0  0
    1.3173    2.5158   -1.3803 H   0  0  0  0  0  0  0  0  0  0  0  0
    1.3800    2.8269    0.7988 C   0  0  0  0  0  0  0  0  0  0  0  0
    2.4935    3.8338    0.5928 C   0  0  0  0  0  0  0  0  0  0  0  0
    2.1131    4.6987    0.0088 H   0  0  0  0  0  0  0  0  0  0  0  0
    3.3042    3.3764   -0.0139 H   0  0  0  0  0  0  0  0  0  0  0  0
    2.8692    4.1926    1.5681 H   0  0  0  0  0  0  0  0  0  0  0  0
   -1.2320   -0.8534   -1.1570 C   0  0  0  0  0  0  0  0  0  0  0  0
   -2.0819   -0.5932   -1.8389 H   0  0  0  0  0  0  0  0  0  0  0  0
   -1.0020   -1.9245   -1.2985 H   0  0  0  0  0  0  0  0  0  0  0  0
   -1.1285    0.8269    0.5751 C   0  0  0  0  0  0  0  0  0  0  0  0
   -0.8126    0.9356    1.6246 H   0  0  0  0  0  0  0  0  0  0  0  0
   -1.9499    1.5643    0.3872 H   0  0  0  0  0  0  0  0  0  0  0  0
   -4.2864   -0.4584    0.3424 C   0  0  0  0  0  0  0  0  0  0  0  0
   -4.7551    0.7206    0.9480 C   0  0  0  0  0  0  0  0  0  0  0  0
   -4.2818    1.0812    1.8727 H   0  0  0  0  0  0  0  0  0  0  0  0
   -5.8373    1.3945    0.3713 C   0  0  0  0  0  0  0  0  0  0  0  0
   -6.2124    2.3159    0.8441 H   0  0  0  0  0  0  0  0  0  0  0  0
   -6.4644    0.9108   -0.7987 C   0  0  0  0  0  0  0  0  0  0  0  0
   -5.9779   -0.2808   -1.3746 C   0  0  0  0  0  0  0  0  0  0  0  0
   -6.4642   -0.6808   -2.2780 H   0  0  0  0  0  0  0  0  0  0  0  0
   -4.8946   -0.9715   -0.8137 C   0  0  0  0  0  0  0  0  0  0  0  0
   -4.5298   -1.9145   -1.2458 H   0  0  0  0  0  0  0  0  0  0  0  0
   -7.6335    1.6487   -1.3978 C   0  0  0  0  0  0  0  0  0  0  0  0
   -7.3718    2.7045   -1.6170 H   0  0  0  0  0  0  0  0  0  0  0  0
   -8.4925    1.6718   -0.6950 H   0  0  0  0  0  0  0  0  0  0  0  0
   -7.9777    1.1784   -2.3385 H   0  0  0  0  0  0  0  0  0  0  0  0
  1  4  2  0  0  0  0
  3  1  2  0  0  0  0
  5 21  1  0  0  0  0
  5  1  1  0  0  0  0
  7  6  1  0  0  0  0
  8  6  1  0  0  0  0
  9  6  1  1  0  0  0
  9 18  1  0  0  0  0
  9 10  1  0  0  0  0
 10 11  1  1  0  0  0
 10 21  1  0  0  0  0
 11 13  1  0  0  0  0
 12 11  1  0  0  0  0
 13  2  2  0  0  0  0
 14 13  1  0  0  0  0
 14 17  1  0  0  0  0
 15 14  1  0  0  0  0
 16 14  1  0  0  0  0
 18  5  1  0  0  0  0
 19 18  1  0  0  0  0
 20 18  1  0  0  0  0
 21 22  1  0  0  0  0
 23 21  1  0  0  0  0
 24 25  1  0  0  0  0
 24  1  1  0  0  0  0
 25 26  1  0  0  0  0
 27 28  1  0  0  0  0
 27 25  2  0  0  0  0
 29 27  1  0  0  0  0
 30 32  1  0  0  0  0
 30 29  2  0  0  0  0
 31 30  1  0  0  0  0
 32 24  2  0  0  0  0
 33 32  1  0  0  0  0
 34 29  1  0  0  0  0
 34 36  1  0  0  0  0
 35 34  1  0  0  0  0
 37 34  1  0  0  0  0
M  END
