13,21
q = 0.0, confidence = 0.894

 45 45  0  0  1  0  0  0  0  0999 V2000
    3.2236   -2.1964   -0.5175 S   0  0  0  0  0  0  0  0  0  0  0  0
   -4.0088   -1.2296    1.6235 O   0  0  0  0  0  0  0  0  0  0  0  0
   -4.1540   -0.9296    0.6899 H   0  0  0  0  0  0  0  0  0  0  0  0
    3.3784   -3.1886    0.5638 O   0  0  0  0  0  0  0  0  0  0  0  0
    3.6370   -2.4581   -1.9089 O   0  0  0  0  0  0  0  0  0  0  0  0
    1.5687   -1.7906   -0.5602 N   0  0  0  0  0  0  0  0  0  0  0  0
   -2.4839   -2.4170    3.0098 C   0  0  0  0  0  0  0  0  0  0  0  0
   -2.2789   -1.5131    3.6132 H   0  0  0  0  0  0  0  0  0  0  0  0
   -1.5941   -3.0754    3.0386 H   0  0  0  0  0  0  0  0  0  0  0  0
   -3.3427   -2.9527    3.4609 H   0  0  0  0  0  0  0  0  0  0  0  0
   -2.8374   -2.0396    1.5625 C   0  0  0  0  0  0  0  0  0  0  0  0
   -1.6776   -1.3002    0.9545 C   0  0  0  0  0  3  0  0  0  0  0  0
   -0.4340   -1.1782    0.6962 C   0  0  0  0  0  3  0  0  0  0  0  0
    0.9791   -1.5830    0.7743 C   0  0  0  0  0  0  0  0  0  0  0  0
    1.0754   -2.5327    1.3378 H   0  0  0  0  0  0  0  0  0  0  0  0
    1.5470   -0.8051    1.3401 H   0  0  0  0  0  0  0  0  0  0  0  0
    1.1757   -0.8716   -1.6331 C   0  0  0  0  0  0  0  0  0  0  0  0
    1.7120   -1.2259   -2.5386 H   0  0  0  0  0  0  0  0  0  0  0  0
    1.5001    0.1741   -1.4256 H   0  0  0  0  0  0  0  0  0  0  0  0
   -0.3182   -0.8950   -1.9040 C   0  0  1  0  0  3  0  0  0  0  0  0
   -0.8816    0.2646   -2.5082 C   0  0  0  0  0  3  0  0  0  0  0  0
   -1.7770    0.1598   -3.1408 H   0  0  0  0  0  0  0  0  0  0  0  0
   -0.2103    1.0923   -2.7849 H   0  0  0  0  0  0  0  0  0  0  0  0
   -3.1180   -3.3114    0.7326 C   0  0  0  0  0  0  0  0  0  0  0  0
   -3.9635   -3.8587    1.1958 H   0  0  0  0  0  0  0  0  0  0  0  0
   -2.2313   -3.9752    0.6953 H   0  0  0  0  0  0  0  0  0  0  0  0
   -3.3950   -3.0312   -0.3007 H   0  0  0  0  0  0  0  0  0  0  0  0
   -0.8798   -2.2730   -2.1710 C   0  0  0  0  0  0  0  0  0  0  0  0
   -0.7009   -2.9599   -1.3220 H   0  0  0  0  0  0  0  0  0  0  0  0
   -0.3617   -2.7099   -3.0527 H   0  0  0  0  0  0  0  0  0  0  0  0
   -1.9642   -2.2299   -2.3743 H   0  0  0  0  0  0  0  0  0  0  0  0
    3.9968   -0.6630    0.0216 C   0  0  0  0  0  0  0  0  0  0  0  0
    4.2687    0.3416   -0.9233 C   0  0  0  0  0  0  0  0  0  0  0  0
    4.1469    0.1258   -1.9944 H   0  0  0  0  0  0  0  0  0  0  0  0
    4.7060    1.5953   -0.4790 C   0  0  0  0  0  0  0  0  0  0  0  0
    4.9210    2.3850   -1.2165 H   0  0  0  0  0  0  0  0  0  0  0  0
    4.8842    1.8654    0.8965 C   0  0  0  0  0  0  0  0  0  0  0  0
    4.6275    0.8299    1.8189 C   0  0  0  0  0  0  0  0  0  0  0  0
    4.7776    1.0155    2.8941 H   0  0  0  0  0  0  0  0  0  0  0  0
    4.1861   -0.4314    1.3933 C   0  0  0  0  0  0  0  0  0  0  0  0
    3.9981   -1.2458    2.1078 H   0  0  0  0  0  0  0  0  0  0  0  0
    5.3707    3.2156    1.3558 C   0  0  0  0  0  0  0  0  0  0  0  0
    4.8755    4.0370    0.8000 H   0  0  0  0  0  0  0  0  0  0  0  0
    6.4628    3.3223    1.1815 H   0  0  0  0  0  0  0  0  0  0  0  0
    5.1915    3.3701    2.4372 H   0  0  0  0  0  0  0  0  0  0  0  0
  1 32  1  0  0  0  0
  1  4  2  0  0  0  0
  3  2  1  0  0  0  0
  5  1  2  0  0  0  0
  6  1  1  0  0  0  0
  6 14  1  0  0  0  0
  7  9  1  0  0  0  0
  7 10  1  0  0  0  0
  7  8  1  0  0  0  0
 11  2  1  0  0  0  0
 11  7  1  0  0  0  0
 12 11  1  0  0  0  0
 13 14  1  0  0  0  0
 13 12  2  0  0  0  0
 14 15  1  0  0  0  0
 14 16  1  0  0  0  0
 17 19  1  0  0  0  0
 17  6  1  0  0  0  0
 18 17  1  0  0  0  0
 20 21  1  6  0  0  0
 20 17  1  0  0  0  0
 22 21  1  0  0  0  0
 23 21  1  0  0  0  0
 24 25  1  0  0  0  0
 24 11  1  0  0  0  0
 26 24  1  0  0  0  0
 27 24  1  0  0  0  0
 28 20  1  0  0  0  0
 28 29  1  0  0  0  0
 30 28  1  0  0  0  0
 31 28  1  0  0  0  0
 32 40  1  0  0  0  0
 33 35  1  0  0  0  0
 33 32  2  0  0  0  0
 34 33  1  0  0  0  0
 35 37  2  0  0  0  0
 36 35  1  0  0  0  0
 37 42  1  0  0  0  0
 37 38  1  0  0  0  0
 38 39  1  0  0  0  0
 40 38  2  0  0  0  0
 40 41  1  0  0  0  0
 42 45  1  0  0  0  0
 43 42  1  0  0  0  0
 44 42  1  0  0  0  0
M  END
