9,21
q = 0.0, confidence = 0.994

 61 64  0  0  0  0  0  0  0  0999 V2000
   -3.8285    3.2999    0.0805 O   0  0  0  0  0  0  0  0  0  0  0  0
    0.4810    1.4498   -2.8922 O   0  0  0  0  0  0  0  0  0  0  0  0
    3.1986    2.9812    0.2413 O   0  0  0  0  0  0  0  0  0  0  0  0
    5.8711   -1.8916    0.2071 O   0  0  0  0  0  0  0  0  0  0  0  0
   -2.7004   -0.6105    2.4175 N   0  0  0  0  0  0  0  0  0  0  0  0
   -3.6428    0.2149    0.6534 N   0  0  0  0  0  0  0  0  0  0  0  0
   -0.3539   -0.5991    2.7723 N   0  0  0  0  0  0  0  0  0  0  0  0
    1.0771    0.2090    1.3648 N   0  0  0  0  0  0  0  0  0  0  0  0
   -2.6369   -0.6128    1.0464 C   0  0  0  0  0  2  0  0  0  0  0  0
   -3.7260    0.2144    2.8747 C   0  0  0  0  0  0  0  0  0  0  0  0
   -4.3236    0.7263    1.7522 C   0  0  0  0  0  0  0  0  0  0  0  0
   -3.8235    0.6552   -0.7439 C   0  0  0  0  0  0  0  0  0  0  0  0
   -2.7177    1.6063   -1.1424 C   0  0  0  0  0  0  0  0  0  0  0  0
   -2.7276    2.9418   -0.6587 C   0  0  0  0  0  0  0  0  0  0  0  0
   -1.6470    3.7908   -0.9389 C   0  0  0  0  0  0  0  0  0  0  0  0
   -0.5499    3.3235   -1.6903 C   0  0  0  0  0  0  0  0  0  0  0  0
   -0.5383    2.0048   -2.1780 C   0  0  0  0  0  0  0  0  0  0  0  0
   -1.6333    1.1554   -1.9001 C   0  0  0  0  0  0  0  0  0  0  0  0
   -3.8877    4.6150    0.5906 C   0  0  0  0  0  0  0  0  0  0  0  0
    1.6213    2.2427   -3.1580 C   0  0  0  0  0  0  0  0  0  0  0  0
   -0.0044   -0.6103    1.4438 C   0  0  0  0  0  2  0  0  0  0  0  0
    0.4960    0.2213    3.5099 C   0  0  0  0  0  0  0  0  0  0  0  0
    1.4081    0.7192    2.6157 C   0  0  0  0  0  0  0  0  0  0  0  0
    1.7054    0.6241    0.1005 C   0  0  0  0  0  0  0  0  0  0  0  0
    3.2114    0.6089    0.1677 C   0  0  0  0  0  0  0  0  0  0  0  0
    3.9433    1.8245    0.2380 C   0  0  0  0  0  0  0  0  0  0  0  0
    5.3452    1.7875    0.2945 C   0  0  0  0  0  0  0  0  0  0  0  0
    6.0273    0.5560    0.2902 C   0  0  0  0  0  0  0  0  0  0  0  0
    5.3068   -0.6510    0.2223 C   0  0  0  0  0  0  0  0  0  0  0  0
    3.8980   -0.6096    0.1582 C   0  0  0  0  0  0  0  0  0  0  0  0
    3.8826    4.2159    0.2829 C   0  0  0  0  0  0  0  0  0  0  0  0
    7.2792   -1.9845    0.2370 C   0  0  0  0  0  0  0  0  0  0  0  0
   -1.6133   -1.2024    3.1864 C   0  0  0  0  0  0  0  0  0  0  0  0
   -3.9593    0.3404    3.9360 H   0  0  0  0  0  0  0  0  0  0  0  0
   -5.1642    1.4150    1.6371 H   0  0  0  0  0  0  0  0  0  0  0  0
   -4.8168    1.1363   -0.8056 H   0  0  0  0  0  0  0  0  0  0  0  0
   -3.8017   -0.2612   -1.3685 H   0  0  0  0  0  0  0  0  0  0  0  0
   -1.6341    4.8267   -0.5747 H   0  0  0  0  0  0  0  0  0  0  0  0
    0.2889    4.0055   -1.8830 H   0  0  0  0  0  0  0  0  0  0  0  0
   -1.6111    0.1174   -2.2670 H   0  0  0  0  0  0  0  0  0  0  0  0
   -4.8411    4.6982    1.1456 H   0  0  0  0  0  0  0  0  0  0  0  0
   -3.0448    4.8294    1.2867 H   0  0  0  0  0  0  0  0  0  0  0  0
   -3.8768    5.3770   -0.2214 H   0  0  0  0  0  0  0  0  0  0  0  0
    2.3274    1.5967   -3.7114 H   0  0  0  0  0  0  0  0  0  0  0  0
    1.3713    3.1295   -3.7844 H   0  0  0  0  0  0  0  0  0  0  0  0
    2.1116    2.5938   -2.2213 H   0  0  0  0  0  0  0  0  0  0  0  0
    0.4044    0.3523    4.5923 H   0  0  0  0  0  0  0  0  0  0  0  0
    2.2680    1.3805    2.7554 H   0  0  0  0  0  0  0  0  0  0  0  0
    1.3310    1.6374   -0.1364 H   0  0  0  0  0  0  0  0  0  0  0  0
    1.3401   -0.0889   -0.6659 H   0  0  0  0  0  0  0  0  0  0  0  0
    5.9317    2.7146    0.3443 H   0  0  0  0  0  0  0  0  0  0  0  0
    7.1244    0.5609    0.3369 H   0  0  0  0  0  0  0  0  0  0  0  0
    3.3279   -1.5502    0.0778 H   0  0  0  0  0  0  0  0  0  0  0  0
    3.1081    5.0056    0.2694 H   0  0  0  0  0  0  0  0  0  0  0  0
    4.4922    4.3235    1.2091 H   0  0  0  0  0  0  0  0  0  0  0  0
    4.5525    4.3506   -0.5966 H   0  0  0  0  0  0  0  0  0  0  0  0
    7.5247   -3.0623    0.2048 H   0  0  0  0  0  0  0  0  0  0  0  0
    7.7498   -1.4818   -0.6390 H   0  0  0  0  0  0  0  0  0  0  0  0
    7.7083   -1.5454    1.1672 H   0  0  0  0  0  0  0  0  0  0  0  0
   -1.5769   -2.2898    2.9789 H   0  0  0  0  0  0  0  0  0  0  0  0
   -1.7773   -1.0236    4.2643 H   0  0  0  0  0  0  0  0  0  0  0  0
  1 19  1  0  0  0  0
  2 17  1  0  0  0  0
  3 31  1  0  0  0  0
  4 29  1  0  0  0  0
  4 32  1  0  0  0  0
  5 10  1  0  0  0  0
  5 33  1  0  0  0  0
  6  9  1  0  0  0  0
  6 11  1  0  0  0  0
  7 33  1  0  0  0  0
  7 22  1  0  0  0  0
  8 21  1  0  0  0  0
  8 23  1  0  0  0  0
  9  5  1  0  0  0  0
 10 34  1  0  0  0  0
 11 10  2  0  0  0  0
 12  6  1  0  0  0  0
 13 12  1  0  0  0  0
 13 14  1  0  0  0  0
 14  1  1  0  0  0  0
 15 14  2  0  0  0  0
 15 38  1  0  0  0  0
 16 15  1  0  0  0  0
 17 18  1  0  0  0  0
 17 16  2  0  0  0  0
 18 13  2  0  0  0  0
 19 41  1  0  0  0  0
 19 42  1  0  0  0  0
 20  2  1  0  0  0  0
 20 46  1  0  0  0  0
 21  7  1  0  0  0  0
 22 47  1  0  0  0  0
 23 48  1  0  0  0  0
 23 22  2  0  0  0  0
 24 25  1  0  0  0  0
 24  8  1  0  0  0  0
 25 26  1  0  0  0  0
 26  3  1  0  0  0  0
 26 27  2  0  0  0  0
 27 51  1  0  0  0  0
 28 27  1  0  0  0  0
 28 52  1  0  0  0  0
 29 28  2  0  0  0  0
 30 25  2  0  0  0  0
 30 29  1  0  0  0  0
 31 55  1  0  0  0  0
 32 59  1  0  0  0  0
 33 61  1  0  0  0  0
 35 11  1  0  0  0  0
 36 12  1  0  0  0  0
 37 12  1  0  0  0  0
 39 16  1  0  0  0  0
 40 18  1  0  0  0  0
 43 19  1  0  0  0  0
 44 20  1  0  0  0  0
 45 20  1  0  0  0  0
 49 24  1  0  0  0  0
 50 24  1  0  0  0  0
 53 30  1  0  0  0  0
 54 31  1  0  0  0  0
 56 31  1  0  0  0  0
 57 32  1  0  0  0  0
 58 32  1  0  0  0  0
 60 33  1  0  0  0  0
M  END
