17
q = -2.0, confidence = 0.784

 33 35  0  0  1  0  0  0  0  0999 V2000
   -0.6133    1.2686    0.9955 C   0  0  1  0  0  3  0  0  0  0  0  0
   -0.3301    0.4026    2.1078 C   0  0  0  0  0  0  0  0  0  0  0  0
    1.0692    0.1997    2.2348 C   0  0  0  0  0  0  0  0  0  0  0  0
    1.7198    1.0002    1.2412 C   0  0  0  0  0  0  0  0  0  0  0  0
    3.0919    1.2249    0.9414 C   0  0  0  0  0  0  0  0  0  0  0  0
    3.4165    2.0388   -0.1317 C   0  0  0  0  0  0  0  0  0  0  0  0
    2.4043    2.6462   -0.9336 C   0  0  0  0  0  0  0  0  0  0  0  0
    1.0574    2.4538   -0.6649 C   0  0  0  0  0  0  0  0  0  0  0  0
    0.6799    1.6346    0.4430 C   0  0  0  0  0  0  0  0  0  0  0  0
   -2.2864    1.3581    0.1271 Si  0  0  0  0  0  0  0  0  0  0  0  0
   -3.6752    0.9516    1.3303 C   0  0  0  0  0  0  0  0  0  0  0  0
   -2.6071    2.9644   -0.8005 C   0  0  0  0  0  0  0  0  0  0  0  0
   -1.9408   -0.0969   -1.0258 C   0  0  2  0  0  3  0  0  0  0  0  0
   -2.1201   -1.4744   -0.6749 C   0  0  0  0  0  3  0  0  0  0  0  0
   -1.2912   -2.2837   -1.5131 C   0  0  0  0  0  0  0  0  0  0  0  0
   -0.5816   -1.4221   -2.3859 C   0  0  0  0  0  0  0  0  0  0  0  0
   -0.9497   -0.0803   -2.0725 C   0  0  0  0  0  3  0  0  0  0  0  0
   -1.0875   -0.0855    2.7355 H   0  0  0  0  0  0  0  0  0  0  0  0
    1.5636   -0.4362    2.9781 H   0  0  0  0  0  0  0  0  0  0  0  0
    3.8731    0.7454    1.5486 H   0  0  0  0  0  0  0  0  0  0  0  0
    4.4731    2.2203   -0.3785 H   0  0  0  0  0  0  0  0  0  0  0  0
    2.7031    3.2868   -1.7769 H   0  0  0  0  0  0  0  0  0  0  0  0
    0.2899    2.9542   -1.2723 H   0  0  0  0  0  0  0  0  0  0  0  0
   -3.4907   -0.0024    1.8633 H   0  0  0  0  0  0  0  0  0  0  0  0
   -4.6406    0.8591    0.7924 H   0  0  0  0  0  0  0  0  0  0  0  0
   -3.7799    1.7517    2.0910 H   0  0  0  0  0  0  0  0  0  0  0  0
   -1.8959    3.1133   -1.6363 H   0  0  0  0  0  0  0  0  0  0  0  0
   -3.6298    2.9533   -1.2297 H   0  0  0  0  0  0  0  0  0  0  0  0
   -2.5264    3.8366   -0.1204 H   0  0  0  0  0  0  0  0  0  0  0  0
   -2.7675   -1.8541    0.1260 H   0  0  0  0  0  0  0  0  0  0  0  0
   -1.2010   -3.3753   -1.4657 H   0  0  0  0  0  0  0  0  0  0  0  0
    0.1577   -1.7284   -3.1345 H   0  0  0  0  0  0  0  0  0  0  0  0
   -0.5408    0.8152   -2.5582 H   0  0  0  0  0  0  0  0  0  0  0  0
  1 10  1  6  0  0  0
  1  2  1  0  0  0  0
  2  3  2  0  0  0  0
  2 18  1  0  0  0  0
  3 19  1  0  0  0  0
  4  3  1  0  0  0  0
  5  4  1  0  0  0  0
  5 20  1  0  0  0  0
  6  5  2  0  0  0  0
  7  8  2  0  0  0  0
  7  6  1  0  0  0  0
  8  9  1  0  0  0  0
  9  1  1  0  0  0  0
  9  4  2  0  0  0  0
 10 11  1  0  0  0  0
 11 24  1  0  0  0  0
 11 26  1  0  0  0  0
 12 29  1  0  0  0  0
 12 10  1  0  0  0  0
 13 14  1  0  0  0  0
 13 10  1  1  0  0  0
 14 30  1  0  0  0  0
 15 31  1  0  0  0  0
 15 14  1  0  0  0  0
 16 17  1  0  0  0  0
 16 15  2  0  0  0  0
 17 13  1  0  0  0  0
 21  6  1  0  0  0  0
 22  7  1  0  0  0  0
 23  8  1  0  0  0  0
 25 11  1  0  0  0  0
 27 12  1  0  0  0  0
 28 12  1  0  0  0  0
 32 16  1  0  0  0  0
 33 17  1  0  0  0  0
M  END
