15,37
q = 0.0, confidence = 0.57

 45 48  0  0  1  0  0  0  0  0999 V2000
   -0.1445    2.6717   -1.0985 C   0  0  0  0  0  0  0  0  0  0  0  0
   -1.1364    3.0757   -1.3151 H   0  0  0  0  0  0  0  0  0  0  0  0
    0.8865    3.5413   -0.7820 C   0  0  0  0  0  0  0  0  0  0  0  0
    0.6855    4.6206   -0.7122 H   0  0  0  0  0  0  0  0  0  0  0  0
    2.2045    3.0661   -0.6179 C   0  0  0  0  0  0  0  0  0  0  0  0
    3.0185    3.7912   -0.4645 H   0  0  0  0  0  0  0  0  0  0  0  0
    2.5316    1.7106   -0.7036 C   0  0  0  0  0  0  0  0  0  0  0  0
    2.3217   -1.7332   -0.6150 C   0  0  0  0  0  0  0  0  0  0  0  0
    1.9747   -3.0432   -0.9497 C   0  0  0  0  0  0  0  0  0  0  0  0
    2.6612   -3.8549   -0.6649 H   0  0  0  0  0  0  0  0  0  0  0  0
    0.7482   -3.3673   -1.5700 C   0  0  0  0  0  0  0  0  0  0  0  0
    0.5327   -4.4145   -1.8306 H   0  0  0  0  0  0  0  0  0  0  0  0
   -0.2179   -2.3980   -1.7850 C   0  0  0  0  0  0  0  0  0  0  0  0
   -1.1775   -2.6855   -2.2215 H   0  0  0  0  0  0  0  0  0  0  0  0
   -0.7583    0.1584   -1.5218 C   0  0  0  0  0  3  0  0  0  0  0  0
    0.1175    1.2724   -1.1983 C   0  0  0  0  0  0  0  0  0  0  0  0
    1.4623    0.7737   -0.8965 C   0  0  0  0  0  0  0  0  0  0  0  0
    1.4072   -0.6849   -0.9843 C   0  0  0  0  0  0  0  0  0  0  0  0
    0.0710   -1.0346   -1.4765 C   0  0  0  0  0  0  0  0  0  0  0  0
    3.9922    1.3460   -0.6890 C   0  0  0  0  0  0  0  0  0  0  0  0
    4.5994    2.2258   -0.9759 H   0  0  0  0  0  0  0  0  0  0  0  0
    4.3396    1.0235    0.3119 H   0  0  0  0  0  0  0  0  0  0  0  0
    4.2156    0.5301   -1.4009 H   0  0  0  0  0  0  0  0  0  0  0  0
    3.5364   -1.5341    0.2541 C   0  0  0  0  0  0  0  0  0  0  0  0
    3.7400   -2.4674    0.8121 H   0  0  0  0  0  0  0  0  0  0  0  0
    4.4517   -1.2839   -0.3163 H   0  0  0  0  0  0  0  0  0  0  0  0
    3.3655   -0.7341    0.9980 H   0  0  0  0  0  0  0  0  0  0  0  0
   -2.3098    0.2192   -1.5954 C   0  0  0  0  0  0  0  0  0  0  0  0
   -2.9543   -0.9594   -2.3485 C   0  0  0  0  0  0  0  0  0  0  0  0
   -4.0474   -0.7926   -2.4110 H   0  0  0  0  0  0  0  0  0  0  0  0
   -2.5552   -1.0328   -3.3792 H   0  0  0  0  0  0  0  0  0  0  0  0
   -2.8112   -1.9314   -1.8492 H   0  0  0  0  0  0  0  0  0  0  0  0
   -2.8641    1.4987   -2.2554 C   0  0  0  0  0  0  0  0  0  0  0  0
   -3.9494    1.3757   -2.4394 H   0  0  0  0  0  0  0  0  0  0  0  0
   -2.7574    2.4028   -1.6338 H   0  0  0  0  0  0  0  0  0  0  0  0
   -2.3663    1.6851   -3.2272 H   0  0  0  0  0  0  0  0  0  0  0  0
   -2.6221    0.1513   -0.0941 C   0  0  2  0  0  3  0  0  0  0  0  0
   -2.4804    1.2369    0.8343 C   0  0  0  0  0  3  0  0  0  0  0  0
   -2.3949    2.2998    0.5832 H   0  0  0  0  0  0  0  0  0  0  0  0
   -2.4451    0.7062    2.1621 C   0  0  0  0  0  0  0  0  0  0  0  0
   -2.3318    1.2924    3.0810 H   0  0  0  0  0  0  0  0  0  0  0  0
   -2.5379   -0.7019    2.0717 C   0  0  0  0  0  0  0  0  0  0  0  0
   -2.5074   -1.4100    2.9073 H   0  0  0  0  0  0  0  0  0  0  0  0
   -2.6325   -1.0509    0.6875 C   0  0  0  0  0  3  0  0  0  0  0  0
   -2.6700   -2.0760    0.3007 H   0  0  0  0  0  0  0  0  0  0  0  0
  1  3  1  0  0  0  0
  2  1  1  0  0  0  0
  3  4  1  0  0  0  0
  3  5  2  0  0  0  0
  5  6  1  0  0  0  0
  7 20  1  0  0  0  0
  7  5  1  0  0  0  0
  8 24  1  0  0  0  0
  9 10  1  0  0  0  0
  9  8  1  0  0  0  0
 11  9  2  0  0  0  0
 12 11  1  0  0  0  0
 13 11  1  0  0  0  0
 13 19  2  0  0  0  0
 14 13  1  0  0  0  0
 15 19  1  0  0  0  0
 15 16  1  0  0  0  0
 16  1  2  0  0  0  0
 16 17  1  0  0  0  0
 17  7  2  0  0  0  0
 18 17  1  0  0  0  0
 18  8  2  0  0  0  0
 19 18  1  0  0  0  0
 20 22  1  0  0  0  0
 21 20  1  0  0  0  0
 23 20  1  0  0  0  0
 24 25  1  0  0  0  0
 24 27  1  0  0  0  0
 26 24  1  0  0  0  0
 28 15  1  0  0  0  0
 29 32  1  0  0  0  0
 29 28  1  0  0  0  0
 30 29  1  0  0  0  0
 31 29  1  0  0  0  0
 33 35  1  0  0  0  0
 33 28  1  0  0  0  0
 34 33  1  0  0  0  0
 36 33  1  0  0  0  0
 37 28  1  6  0  0  0
 37 44  1  0  0  0  0
 37 38  1  0  0  0  0
 38 40  1  0  0  0  0
 39 38  1  0  0  0  0
 40 41  1  0  0  0  0
 42 40  2  0  0  0  0
 42 43  1  0  0  0  0
 44 42  1  0  0  0  0
 45 44  1  0  0  0  0
M  END
