5,22
q = 0.0, confidence = 1.0

 40 43  0  0  0  0  0  0  0  0999 V2000
   -0.4637    2.3057    0.9627 N   0  0  0  0  0  0  0  0  0  0  0  0
   -1.3365    1.4509   -0.8609 N   0  0  0  0  0  0  0  0  0  0  0  0
   -1.1791   -1.5603   -0.8696 N   0  0  0  0  0  0  0  0  0  0  0  0
   -0.7955   -2.1955    1.1919 N   0  0  0  0  0  0  0  0  0  0  0  0
   -0.2883    1.3178    0.0270 C   0  0  0  0  0  2  0  0  0  0  0  0
   -2.1445    2.5406   -0.5072 C   0  0  0  0  0  0  0  0  0  0  0  0
   -1.5842    3.0838    0.6690 C   0  0  0  0  0  0  0  0  0  0  0  0
   -2.1541    4.1890    1.3151 C   0  0  0  0  0  0  0  0  0  0  0  0
   -1.7187    4.6127    2.2307 H   0  0  0  0  0  0  0  0  0  0  0  0
   -3.3067    4.7379    0.7329 C   0  0  0  0  0  0  0  0  0  0  0  0
   -3.7835    5.6094    1.2044 H   0  0  0  0  0  0  0  0  0  0  0  0
   -3.8649    4.1994   -0.4471 C   0  0  0  0  0  0  0  0  0  0  0  0
   -4.7667    4.6610   -0.8744 H   0  0  0  0  0  0  0  0  0  0  0  0
   -3.2941    3.0905   -1.0913 C   0  0  0  0  0  0  0  0  0  0  0  0
   -3.7334    2.6852   -2.0131 H   0  0  0  0  0  0  0  0  0  0  0  0
   -1.6988    0.6055   -2.0027 C   0  0  0  0  0  0  0  0  0  0  0  0
   -1.4851    1.1506   -2.9475 H   0  0  0  0  0  0  0  0  0  0  0  0
   -2.7989    0.4684   -1.9506 H   0  0  0  0  0  0  0  0  0  0  0  0
   -1.0263   -0.7659   -2.0788 C   0  0  0  0  0  0  0  0  0  0  0  0
   -1.4610   -1.3160   -2.9365 H   0  0  0  0  0  0  0  0  0  0  0  0
    0.0661   -0.6574   -2.2486 H   0  0  0  0  0  0  0  0  0  0  0  0
   -0.3107   -1.4091    0.1859 C   0  0  0  0  0  2  0  0  0  0  0  0
   -1.9656   -2.8503    0.7854 C   0  0  0  0  0  0  0  0  0  0  0  0
   -2.2195   -2.4329   -0.5437 C   0  0  0  0  0  0  0  0  0  0  0  0
   -3.3317   -2.8993   -1.2570 C   0  0  0  0  0  0  0  0  0  0  0  0
   -3.5367   -2.5806   -2.2887 H   0  0  0  0  0  0  0  0  0  0  0  0
   -4.1807   -3.7989   -0.5931 C   0  0  0  0  0  0  0  0  0  0  0  0
   -5.0649   -4.1878   -1.1185 H   0  0  0  0  0  0  0  0  0  0  0  0
   -3.9254   -4.2171    0.7312 C   0  0  0  0  0  0  0  0  0  0  0  0
   -4.6143   -4.9253    1.2136 H   0  0  0  0  0  0  0  0  0  0  0  0
   -2.8108   -3.7511    1.4460 C   0  0  0  0  0  0  0  0  0  0  0  0
   -2.6134   -4.0822    2.4750 H   0  0  0  0  0  0  0  0  0  0  0  0
    0.3301    2.4682    2.1698 C   0  0  0  0  0  0  0  0  0  0  0  0
    1.0300    1.6141    2.2338 H   0  0  0  0  0  0  0  0  0  0  0  0
   -0.3349    2.4678    3.0563 H   0  0  0  0  0  0  0  0  0  0  0  0
    0.8966    3.4207    2.1484 H   0  0  0  0  0  0  0  0  0  0  0  0
   -0.2267   -2.2971    2.5247 C   0  0  0  0  0  0  0  0  0  0  0  0
    0.5766   -1.5442    2.6163 H   0  0  0  0  0  0  0  0  0  0  0  0
    0.1869   -3.3099    2.7039 H   0  0  0  0  0  0  0  0  0  0  0  0
   -1.0064   -2.0897    3.2841 H   0  0  0  0  0  0  0  0  0  0  0  0
  1 33  1  0  0  0  0
  2  6  1  0  0  0  0
  2  5  1  0  0  0  0
  3 24  1  0  0  0  0
  3 22  1  0  0  0  0
  4 37  1  0  0  0  0
  5  1  1  0  0  0  0
  6  7  1  0  0  0  0
  7  1  1  0  0  0  0
  7  8  2  0  0  0  0
  8  9  1  0  0  0  0
 10 11  1  0  0  0  0
 10  8  1  0  0  0  0
 12 10  2  0  0  0  0
 13 12  1  0  0  0  0
 14  6  2  0  0  0  0
 14 12  1  0  0  0  0
 15 14  1  0  0  0  0
 16 18  1  0  0  0  0
 16  2  1  0  0  0  0
 17 16  1  0  0  0  0
 19 16  1  0  0  0  0
 19  3  1  0  0  0  0
 20 19  1  0  0  0  0
 21 19  1  0  0  0  0
 22  4  1  0  0  0  0
 23  4  1  0  0  0  0
 23 31  1  0  0  0  0
 24 23  2  0  0  0  0
 25 27  2  0  0  0  0
 25 24  1  0  0  0  0
 26 25  1  0  0  0  0
 27 29  1  0  0  0  0
 28 27  1  0  0  0  0
 29 30  1  0  0  0  0
 29 31  2  0  0  0  0
 31 32  1  0  0  0  0
 33 34  1  0  0  0  0
 33 35  1  0  0  0  0
 36 33  1  0  0  0  0
 37 38  1  0  0  0  0
 37 39  1  0  0  0  0
 37 40  1  0  0  0  0
M  END
