3,13
q = -1.0, confidence = 0.008

 34 34  0  0  1  0  0  0  0  0999 V2000
   -4.8146    0.9713    0.6757 O   0  0  0  0  0  0  0  0  0  0  0  0
   -3.8745   -2.9773    0.4407 O   0  0  0  0  0  0  0  0  0  0  0  0
   -1.0128   -0.7461   -0.7134 C   0  0  0  0  0  3  0  0  0  0  0  0
   -1.0521   -1.5691    0.0335 H   0  0  0  0  0  0  0  0  0  0  0  0
   -2.2818    0.1180   -0.5401 C   0  0  1  0  0  0  0  0  0  0  0  0
   -2.2086    0.6893    0.4075 H   0  0  0  0  0  0  0  0  0  0  0  0
   -2.4638    1.1353   -1.6823 C   0  0  0  0  0  0  0  0  0  0  0  0
   -2.5974    0.5833   -2.6357 H   0  0  0  0  0  0  0  0  0  0  0  0
   -3.4123    1.6896   -1.5250 H   0  0  0  0  0  0  0  0  0  0  0  0
   -1.3560    2.1901   -1.8157 C   0  0  0  0  0  0  0  0  0  0  0  0
   -1.5362    2.7728   -2.7496 H   0  0  0  0  0  0  0  0  0  0  0  0
   -1.4663    2.9210   -0.9910 H   0  0  0  0  0  0  0  0  0  0  0  0
    0.0967    1.7591   -1.8630 C   0  0  0  0  0  3  0  0  0  0  0  0
    0.7924    2.6133   -1.7701 H   0  0  0  0  0  0  0  0  0  0  0  0
    0.6259    0.6088   -2.4908 C   0  0  0  0  0  3  0  0  0  0  0  0
    1.6523    0.7283   -2.8693 H   0  0  0  0  0  0  0  0  0  0  0  0
   -0.2213   -0.4760   -3.1474 C   0  0  0  0  0  0  0  0  0  0  0  0
    0.4202   -1.0738   -3.8246 H   0  0  0  0  0  0  0  0  0  0  0  0
   -0.9784    0.0082   -3.8003 H   0  0  0  0  0  0  0  0  0  0  0  0
   -0.8815   -1.4048   -2.1040 C   0  0  0  0  0  0  0  0  0  0  0  0
   -1.8608   -1.7816   -2.4765 H   0  0  0  0  0  0  0  0  0  0  0  0
   -0.2405   -2.2999   -1.9852 H   0  0  0  0  0  0  0  0  0  0  0  0
   -3.5551   -0.7621   -0.4401 C   0  0  0  0  0  0  0  0  0  0  0  0
   -3.7120   -1.3342   -1.3763 H   0  0  0  0  0  0  0  0  0  0  0  0
   -4.8172    0.0697   -0.1514 C   0  0  0  0  0  0  0  0  0  0  0  0
   -6.0583   -0.3417   -0.9104 C   0  0  0  0  0  0  0  0  0  0  0  0
   -6.9405    0.2165   -0.5480 H   0  0  0  0  0  0  0  0  0  0  0  0
   -6.2138   -1.4360   -0.8042 H   0  0  0  0  0  0  0  0  0  0  0  0
   -5.9106   -0.1514   -1.9945 H   0  0  0  0  0  0  0  0  0  0  0  0
   -3.5143   -1.8333    0.6728 C   0  0  0  0  0  0  0  0  0  0  0  0
   -3.0858   -1.3721    2.0478 C   0  0  0  0  0  0  0  0  0  0  0  0
   -3.5713   -0.4082    2.3010 H   0  0  0  0  0  0  0  0  0  0  0  0
   -1.9933   -1.1874    2.0576 H   0  0  0  0  0  0  0  0  0  0  0  0
   -3.3244   -2.1529    2.7922 H   0  0  0  0  0  0  0  0  0  0  0  0
  2 30  2  0  0  0  0
  3  5  1  0  0  0  0
  3  4  1  0  0  0  0
  5 23  1  0  0  0  0
  5  6  1  1  0  0  0
  7  9  1  0  0  0  0
  7  5  1  0  0  0  0
  8  7  1  0  0  0  0
 10  7  1  0  0  0  0
 10 12  1  0  0  0  0
 11 10  1  0  0  0  0
 13 10  1  0  0  0  0
 13 14  1  0  0  0  0
 15 13  1  0  0  0  0
 16 15  1  0  0  0  0
 17 15  1  0  0  0  0
 17 20  1  0  0  0  0
 18 17  1  0  0  0  0
 19 17  1  0  0  0  0
 20 22  1  0  0  0  0
 20  3  1  0  0  0  0
 21 20  1  0  0  0  0
 23 25  1  0  0  0  0
 23 30  1  0  0  0  0
 24 23  1  0  0  0  0
 25  1  2  0  0  0  0
 26 28  1  0  0  0  0
 26 27  1  0  0  0  0
 26 25  1  0  0  0  0
 29 26  1  0  0  0  0
 30 31  1  0  0  0  0
 31 33  1  0  0  0  0
 31 32  1  0  0  0  0
 31 34  1  0  0  0  0
M  END
