5,7
q = 0.0, confidence = 0.978

 14 14  0  0  1  0  0  0  0  0999 V2000
    2.9000   -1.2384    0.1057 O   0  0  0  0  0  0  0  0  0  0  0  0
   -2.6135   -1.7566   -0.1043 O   0  0  0  0  0  0  0  0  0  0  0  0
    1.5741   -1.2946    0.0143 C   0  0  0  0  0  0  0  0  0  0  0  0
    0.8340   -1.2636    1.2358 C   0  0  0  0  0  0  0  0  0  0  0  0
   -0.5822   -1.3856    1.2164 C   0  0  0  0  0  3  0  0  0  0  0  0
   -1.2989   -1.5509   -0.0088 C   0  0  2  0  0  3  0  0  0  0  0  0
   -0.5638   -1.3869   -1.2219 C   0  0  0  0  0  3  0  0  0  0  0  0
    0.8526   -1.2670   -1.2195 C   0  0  0  0  0  3  0  0  0  0  0  0
    3.3256   -1.2193   -0.7755 H   0  0  0  0  0  0  0  0  0  0  0  0
   -3.0380   -1.8051    0.7756 H   0  0  0  0  0  0  0  0  0  0  0  0
    1.3789   -1.1660    2.1847 H   0  0  0  0  0  0  0  0  0  0  0  0
   -1.1288   -1.3796    2.1726 H   0  0  0  0  0  0  0  0  0  0  0  0
   -1.1185   -1.3894   -2.1717 H   0  0  0  0  0  0  0  0  0  0  0  0
    1.3886   -1.1692   -2.1752 H   0  0  0  0  0  0  0  0  0  0  0  0
  2 10  1  0  0  0  0
  3  1  1  0  0  0  0
  3  4  2  0  0  0  0
  4 11  1  0  0  0  0
  5  4  1  0  0  0  0
  5 12  1  0  0  0  0
  6  2  1  6  0  0  0
  6  5  1  0  0  0  0
  7  8  1  0  0  0  0
  7  6  1  0  0  0  0
  8  3  1  0  0  0  0
  9  1  1  0  0  0  0
 13  7  1  0  0  0  0
 14  8  1  0  0  0  0
M  END
