5,14
q = -1.0, confidence = 0.002

 33 33  0  0  1  0  0  0  0  0999 V2000
   -3.0556   -0.6649   -0.1413 O   0  0  0  0  0  0  0  0  0  0  0  0
   -0.8812   -1.1483    0.8520 C   0  0  0  0  0  0  0  0  0  0  0  0
   -0.1591   -1.7960   -0.2347 C   0  0  0  0  0  0  0  0  0  0  0  0
    1.2445   -1.5580   -0.0308 C   0  0  0  0  0  0  0  0  0  0  0  0
    1.4029   -0.7489    1.1698 C   0  0  1  0  0  3  0  0  0  0  0  0
    0.0779   -0.5368    1.7382 C   0  0  0  0  0  0  0  0  0  0  0  0
   -2.3779   -1.1743    0.9998 C   0  0  0  0  0  0  0  0  0  0  0  0
   -0.7702   -2.6877   -1.2673 C   0  0  0  0  0  0  0  0  0  0  0  0
    2.3572   -2.1345   -0.8468 C   0  0  0  0  0  0  0  0  0  0  0  0
    2.7036   -0.3887    1.8163 C   0  0  0  0  0  0  0  0  0  0  0  0
   -0.2072    0.1084    3.0583 C   0  0  0  0  0  0  0  0  0  0  0  0
   -2.9852    0.7369   -0.2736 C   0  0  0  0  0  0  0  0  0  0  0  0
   -1.7811    1.2843   -1.0135 C   0  0  0  0  0  3  0  0  0  0  0  0
   -1.1264    0.6114   -2.0645 C   0  0  0  0  0  3  0  0  0  0  0  0
   -2.7206   -2.2235    1.1123 H   0  0  0  0  0  0  0  0  0  0  0  0
   -2.6850   -0.6239    1.9175 H   0  0  0  0  0  0  0  0  0  0  0  0
   -0.7719   -3.7329   -0.8905 H   0  0  0  0  0  0  0  0  0  0  0  0
   -1.8203   -2.4085   -1.4727 H   0  0  0  0  0  0  0  0  0  0  0  0
   -0.2001   -2.6839   -2.2153 H   0  0  0  0  0  0  0  0  0  0  0  0
    2.6420   -3.1226   -0.4271 H   0  0  0  0  0  0  0  0  0  0  0  0
    2.0594   -2.2968   -1.8993 H   0  0  0  0  0  0  0  0  0  0  0  0
    3.2617   -1.4987   -0.8319 H   0  0  0  0  0  0  0  0  0  0  0  0
    3.0315   -1.2097    2.4886 H   0  0  0  0  0  0  0  0  0  0  0  0
    3.5047   -0.2313    1.0703 H   0  0  0  0  0  0  0  0  0  0  0  0
    2.6214    0.5288    2.4281 H   0  0  0  0  0  0  0  0  0  0  0  0
   -0.1643   -0.6612    3.8575 H   0  0  0  0  0  0  0  0  0  0  0  0
    0.5389    0.8843    3.3109 H   0  0  0  0  0  0  0  0  0  0  0  0
   -1.2118    0.5691    3.0936 H   0  0  0  0  0  0  0  0  0  0  0  0
   -3.0935    1.2439    0.7141 H   0  0  0  0  0  0  0  0  0  0  0  0
   -3.8739    1.0294   -0.8782 H   0  0  0  0  0  0  0  0  0  0  0  0
   -1.7558    2.3879   -1.0218 H   0  0  0  0  0  0  0  0  0  0  0  0
   -1.4308   -0.4138   -2.3235 H   0  0  0  0  0  0  0  0  0  0  0  0
   -0.6659    1.1901   -2.8781 H   0  0  0  0  0  0  0  0  0  0  0  0
  1  7  1  0  0  0  0
  2  7  1  0  0  0  0
  2  6  2  0  0  0  0
  3  4  2  0  0  0  0
  3  2  1  0  0  0  0
  4  5  1  0  0  0  0
  5  6  1  0  0  0  0
  5 10  1  1  0  0  0
  6 11  1  0  0  0  0
  7 15  1  0  0  0  0
  7 16  1  0  0  0  0
  8 17  1  0  0  0  0
  8  3  1  0  0  0  0
  9 22  1  0  0  0  0
  9 20  1  0  0  0  0
  9  4  1  0  0  0  0
 10 25  1  0  0  0  0
 10 23  1  0  0  0  0
 11 28  1  0  0  0  0
 11 27  1  0  0  0  0
 11 26  1  0  0  0  0
 12  1  1  0  0  0  0
 12 29  1  0  0  0  0
 13 12  1  0  0  0  0
 14 13  1  0  0  0  0
 18  8  1  0  0  0  0
 19  8  1  0  0  0  0
 21  9  1  0  0  0  0
 24 10  1  0  0  0  0
 30 12  1  0  0  0  0
 31 13  1  0  0  0  0
 32 14  1  0  0  0  0
 33 14  1  0  0  0  0
M  END
