21,24
q = 0.0, confidence = 0.99

 76 78  0  0  1  0  0  0  0  0999 V2000
   -5.9832    1.3684    0.8085 C   0  0  0  0  0  0  0  0  0  0  0  0
   -5.9741    2.3767    0.3504 H   0  0  0  0  0  0  0  0  0  0  0  0
   -6.1975    1.5193    1.8891 H   0  0  0  0  0  0  0  0  0  0  0  0
   -7.0939    0.5356    0.1540 C   0  0  0  0  0  0  0  0  0  0  0  0
   -8.0781    1.0324    0.2910 H   0  0  0  0  0  0  0  0  0  0  0  0
   -6.9088    0.5061   -0.9423 H   0  0  0  0  0  0  0  0  0  0  0  0
   -7.1803   -0.9222    0.6683 C   0  0  0  0  0  0  0  0  0  0  0  0
   -5.7712   -1.5538    0.5751 C   0  0  0  0  0  0  0  0  0  0  0  0
   -5.7925   -2.5701    1.0303 H   0  0  0  0  0  0  0  0  0  0  0  0
   -5.4916   -1.6824   -0.4926 H   0  0  0  0  0  0  0  0  0  0  0  0
   -4.6836   -0.7093    1.2512 C   0  0  1  0  0  0  0  0  0  0  0  0
   -4.9514   -0.5927    2.3276 H   0  0  0  0  0  0  0  0  0  0  0  0
   -3.3920   -1.3858    1.1652 N   0  0  0  0  0  0  0  0  0  0  0  0
   -3.4246   -2.3997    1.0630 H   0  0  0  0  0  0  0  0  0  0  0  0
   -2.2273   -0.7746    0.7962 C   0  0  0  0  0  0  0  0  0  0  0  0
   -1.0973   -1.5805    0.3894 C   0  0  2  0  0  3  0  0  0  0  0  0
   -1.2216   -3.0789    0.3221 C   0  0  0  0  0  0  0  0  0  0  0  0
   -2.1220   -3.3906   -0.2471 H   0  0  0  0  0  0  0  0  0  0  0  0
   -1.2837   -3.5277    1.3379 H   0  0  0  0  0  0  0  0  0  0  0  0
   -0.3457   -3.5208   -0.1876 H   0  0  0  0  0  0  0  0  0  0  0  0
    0.1441   -0.9460    0.1073 C   0  0  0  0  0  3  0  0  0  0  0  0
    1.0104   -1.5583   -0.1658 H   0  0  0  0  0  0  0  0  0  0  0  0
    0.2684    0.4694    0.1854 C   0  0  2  0  0  3  0  0  0  0  0  0
   -0.8803    1.2533    0.4423 C   0  0  0  0  0  3  0  0  0  0  0  0
   -0.7724    2.3443    0.4073 H   0  0  0  0  0  0  0  0  0  0  0  0
   -2.1421    0.6586    0.7449 C   0  0  0  0  0  0  0  0  0  0  0  0
   -3.3719    1.4820    1.1402 C   0  0  0  0  0  0  0  0  0  0  0  0
   -4.6165    0.6933    0.6291 C   0  0  2  0  0  0  0  0  0  0  0  0
   -4.4518    0.5602   -0.4634 H   0  0  0  0  0  0  0  0  0  0  0  0
   -3.3436    2.8838    0.5122 C   0  0  0  0  0  0  0  0  0  0  0  0
   -4.2209    3.4725    0.8418 H   0  0  0  0  0  0  0  0  0  0  0  0
   -3.3479    2.8376   -0.5941 H   0  0  0  0  0  0  0  0  0  0  0  0
   -2.4494    3.4549    0.8295 H   0  0  0  0  0  0  0  0  0  0  0  0
   -3.3635    1.6170    2.6816 C   0  0  0  0  0  0  0  0  0  0  0  0
   -4.2749    2.1362    3.0419 H   0  0  0  0  0  0  0  0  0  0  0  0
   -2.4855    2.2100    3.0069 H   0  0  0  0  0  0  0  0  0  0  0  0
   -3.3006    0.6330    3.1862 H   0  0  0  0  0  0  0  0  0  0  0  0
   -7.7064   -0.9581    2.1162 C   0  0  0  0  0  0  0  0  0  0  0  0
   -7.7507   -2.0005    2.4940 H   0  0  0  0  0  0  0  0  0  0  0  0
   -8.7321   -0.5384    2.1673 H   0  0  0  0  0  0  0  0  0  0  0  0
   -7.0774   -0.3760    2.8185 H   0  0  0  0  0  0  0  0  0  0  0  0
   -8.1429   -1.7215   -0.2246 C   0  0  0  0  0  0  0  0  0  0  0  0
   -8.2211   -2.7755    0.1139 H   0  0  0  0  0  0  0  0  0  0  0  0
   -7.7980   -1.7281   -1.2788 H   0  0  0  0  0  0  0  0  0  0  0  0
   -9.1619   -1.2829   -0.2015 H   0  0  0  0  0  0  0  0  0  0  0  0
    1.4363    1.1570   -0.1084 O   0  0  0  0  0  0  0  0  0  0  0  0
    2.6651    0.6666    0.2834 C   0  0  0  0  0  0  0  0  0  0  0  0
    2.8150   -0.3444    0.9346 O   0  0  0  0  0  0  0  0  0  0  0  0
    3.7587    1.5666   -0.2427 C   0  0  0  0  0  0  0  0  0  0  0  0
    3.7575    1.4555   -1.3509 H   0  0  0  0  0  0  0  0  0  0  0  0
    3.4599    2.6218   -0.0657 H   0  0  0  0  0  0  0  0  0  0  0  0
    5.1344    1.2508    0.3381 C   0  0  0  0  0  0  0  0  0  0  0  0
    5.3435    0.1723    0.1836 H   0  0  0  0  0  0  0  0  0  0  0  0
    5.1080    1.3907    1.4409 H   0  0  0  0  0  0  0  0  0  0  0  0
    6.2467    2.1130   -0.2662 C   0  0  0  0  0  0  0  0  0  0  0  0
    6.2818    1.9476   -1.3672 H   0  0  0  0  0  0  0  0  0  0  0  0
    5.9850    3.1860   -0.1332 H   0  0  0  0  0  0  0  0  0  0  0  0
    7.6381    1.8598    0.3285 C   0  0  0  0  0  0  0  0  0  0  0  0
    8.3446    2.6184   -0.0740 H   0  0  0  0  0  0  0  0  0  0  0  0
    7.6044    2.0356    1.4279 H   0  0  0  0  0  0  0  0  0  0  0  0
    8.2080    0.4632    0.0587 C   0  0  0  0  0  0  0  0  0  0  0  0
    8.2155    0.2774   -1.0397 H   0  0  0  0  0  0  0  0  0  0  0  0
    7.5350   -0.3117    0.4878 H   0  0  0  0  0  0  0  0  0  0  0  0
    9.6187    0.2587    0.6171 C   0  0  0  0  0  0  0  0  0  0  0  0
   10.3007    1.0267    0.1861 H   0  0  0  0  0  0  0  0  0  0  0  0
    9.6105    0.4515    1.7140 H   0  0  0  0  0  0  0  0  0  0  0  0
   10.1941   -1.1349    0.3532 C   0  0  0  0  0  0  0  0  0  0  0  0
   10.2019   -1.3283   -0.7438 H   0  0  0  0  0  0  0  0  0  0  0  0
    9.5114   -1.9024    0.7844 H   0  0  0  0  0  0  0  0  0  0  0  0
   11.6048   -1.3420    0.9129 C   0  0  0  0  0  0  0  0  0  0  0  0
   12.2838   -0.5731    0.4810 H   0  0  0  0  0  0  0  0  0  0  0  0
   11.5934   -1.1465    2.0085 H   0  0  0  0  0  0  0  0  0  0  0  0
   12.1696   -2.7373    0.6443 C   0  0  0  0  0  0  0  0  0  0  0  0
   13.1902   -2.8565    1.0606 H   0  0  0  0  0  0  0  0  0  0  0  0
   12.2262   -2.9463   -0.4446 H   0  0  0  0  0  0  0  0  0  0  0  0
   11.5302   -3.5246    1.0959 H   0  0  0  0  0  0  0  0  0  0  0  0
  1  3  1  0  0  0  0
  2  1  1  0  0  0  0
  4  5  1  0  0  0  0
  4  7  1  0  0  0  0
  4  1  1  0  0  0  0
  6  4  1  0  0  0  0
  7 38  1  0  0  0  0
  8  7  1  0  0  0  0
  8  9  1  0  0  0  0
  8 11  1  0  0  0  0
 10  8  1  0  0  0  0
 11 12  1  1  0  0  0
 13 11  1  0  0  0  0
 14 13  1  0  0  0  0
 15 13  1  0  0  0  0
 16 17  1  1  0  0  0
 16 15  1  0  0  0  0
 17 19  1  0  0  0  0
 18 17  1  0  0  0  0
 20 17  1  0  0  0  0
 21 23  1  0  0  0  0
 21 16  1  0  0  0  0
 22 21  1  0  0  0  0
 23 46  1  6  0  0  0
 23 24  1  0  0  0  0
 24 26  1  0  0  0  0
 25 24  1  0  0  0  0
 26 15  2  0  0  0  0
 26 27  1  0  0  0  0
 27 34  1  0  0  0  0
 28 29  1  6  0  0  0
 28  1  1  0  0  0  0
 28 27  1  0  0  0  0
 28 11  1  0  0  0  0
 30 33  1  0  0  0  0
 30 31  1  0  0  0  0
 30 27  1  0  0  0  0
 32 30  1  0  0  0  0
 34 36  1  0  0  0  0
 34 35  1  0  0  0  0
 34 37  1  0  0  0  0
 38 40  1  0  0  0  0
 38 39  1  0  0  0  0
 38 41  1  0  0  0  0
 42 45  1  0  0  0  0
 42 43  1  0  0  0  0
 42  7  1  0  0  0  0
 44 42  1  0  0  0  0
 46 47  1  0  0  0  0
 47 48  2  0  0  0  0
 49 51  1  0  0  0  0
 49 47  1  0  0  0  0
 49 52  1  0  0  0  0
 50 49  1  0  0  0  0
 52 54  1  0  0  0  0
 53 52  1  0  0  0  0
 55 57  1  0  0  0  0
 55 58  1  0  0  0  0
 55 52  1  0  0  0  0
 56 55  1  0  0  0  0
 58 60  1  0  0  0  0
 59 58  1  0  0  0  0
 61 58  1  0  0  0  0
 61 63  1  0  0  0  0
 61 64  1  0  0  0  0
 62 61  1  0  0  0  0
 64 66  1  0  0  0  0
 65 64  1  0  0  0  0
 67 64  1  0  0  0  0
 67 69  1  0  0  0  0
 67 70  1  0  0  0  0
 68 67  1  0  0  0  0
 70 72  1  0  0  0  0
 71 70  1  0  0  0  0
 73 70  1  0  0  0  0
 73 74  1  0  0  0  0
 73 76  1  0  0  0  0
 75 73  1  0  0  0  0
M  END
