2,5
q = 0.0, confidence = 0.89

 22 23  0  0  1  0  0  0  0  0999 V2000
    0.1616   -0.0012   -1.3079 C   0  0  1  0  0  3  0  0  0  0  0  0
   -0.6864   -1.1646   -1.5221 C   0  0  0  0  0  3  0  0  0  0  0  0
   -1.9862   -0.7212   -1.8805 C   0  0  0  0  0  0  0  0  0  0  0  0
   -1.9862    0.7176   -1.8817 C   0  0  0  0  0  0  0  0  0  0  0  0
   -0.6865    1.1617   -1.5242 C   0  0  0  0  0  3  0  0  0  0  0  0
    1.5115   -0.0007   -0.7568 C   0  0  0  0  0  0  0  0  0  0  0  0
    2.1433    1.2598   -0.5148 C   0  0  0  0  0  0  0  0  0  0  0  0
    3.3881    1.5592    0.0262 C   0  0  0  0  0  0  0  0  0  0  0  0
    4.4097    0.6953    0.4995 C   0  0  0  0  0  0  0  0  0  0  0  0
    4.4099   -0.6943    0.5004 C   0  0  0  0  0  0  0  0  0  0  0  0
    3.3884   -1.5591    0.0284 C   0  0  0  0  0  0  0  0  0  0  0  0
    2.1435   -1.2606   -0.5128 C   0  0  0  0  0  3  0  0  0  0  0  0
   -0.3904    2.2142   -1.4506 H   0  0  0  0  0  0  0  0  0  0  0  0
   -2.8413    1.3638   -2.1133 H   0  0  0  0  0  0  0  0  0  0  0  0
   -2.8411   -1.3679   -2.1110 H   0  0  0  0  0  0  0  0  0  0  0  0
   -0.3901   -2.2169   -1.4468 H   0  0  0  0  0  0  0  0  0  0  0  0
    1.5515    2.1434   -0.7949 H   0  0  0  0  0  0  0  0  0  0  0  0
    5.3078    1.1898    0.9029 H   0  0  0  0  0  0  0  0  0  0  0  0
    3.6145    2.6352    0.1019 H   0  0  0  0  0  0  0  0  0  0  0  0
    5.3081   -1.1881    0.9043 H   0  0  0  0  0  0  0  0  0  0  0  0
    3.6150   -2.6350    0.1056 H   0  0  0  0  0  0  0  0  0  0  0  0
    1.5517   -2.1447   -0.7913 H   0  0  0  0  0  0  0  0  0  0  0  0
  1  6  1  1  0  0  0
  2 16  1  0  0  0  0
  2  1  1  0  0  0  0
  3  2  1  0  0  0  0
  4  3  2  0  0  0  0
  4  5  1  0  0  0  0
  5 13  1  0  0  0  0
  5  1  1  0  0  0  0
  6  7  2  0  0  0  0
  6 12  1  0  0  0  0
  7  8  1  0  0  0  0
  8 19  1  0  0  0  0
  8  9  2  0  0  0  0
  9 10  1  0  0  0  0
  9 18  1  0  0  0  0
 10 20  1  0  0  0  0
 11 21  1  0  0  0  0
 11 10  2  0  0  0  0
 12 11  1  0  0  0  0
 14  4  1  0  0  0  0
 15  3  1  0  0  0  0
 17  7  1  0  0  0  0
 22 12  1  0  0  0  0
M  END
