3,21
q = -2.0, confidence = 0.702

 25 25  0  0  0  0  0  0  0  0999 V2000
   -0.7301    1.5957    1.1692 C   0  0  0  0  0  3  0  0  0  0  0  0
   -0.9908    1.4293    2.2217 H   0  0  0  0  0  0  0  0  0  0  0  0
    0.4761    2.2159    0.6902 C   0  0  0  0  0  3  0  0  0  0  0  0
    1.2938    2.6080    1.3056 H   0  0  0  0  0  0  0  0  0  0  0  0
    0.3899    2.2647   -0.7435 C   0  0  0  0  0  3  0  0  0  0  0  0
    1.1406    2.6887   -1.4208 H   0  0  0  0  0  0  0  0  0  0  0  0
   -0.8770    1.7173   -1.1297 C   0  0  0  0  0  0  0  0  0  0  0  0
   -1.2565    1.6355   -2.1559 H   0  0  0  0  0  0  0  0  0  0  0  0
   -1.5835    1.3108    0.0435 C   0  0  0  0  0  0  0  0  0  0  0  0
   -2.9758    0.7482    0.0899 C   0  0  0  0  0  0  0  0  0  0  0  0
   -3.5894    1.3853    0.7624 H   0  0  0  0  0  0  0  0  0  0  0  0
   -3.4244    0.8425   -0.9213 H   0  0  0  0  0  0  0  0  0  0  0  0
   -3.0886   -0.7175    0.5438 C   0  0  0  0  0  0  0  0  0  0  0  0
   -4.1612   -1.0024    0.5156 H   0  0  0  0  0  0  0  0  0  0  0  0
   -2.7683   -0.8166    1.6039 H   0  0  0  0  0  0  0  0  0  0  0  0
   -2.2700   -1.6797   -0.3311 C   0  0  0  0  0  0  0  0  0  0  0  0
   -2.7483   -2.6845   -0.2821 H   0  0  0  0  0  0  0  0  0  0  0  0
   -2.3435   -1.3668   -1.3946 H   0  0  0  0  0  0  0  0  0  0  0  0
   -0.8226   -1.8801    0.0784 C   0  0  0  0  0  3  0  0  0  0  0  0
   -0.7279   -2.4422    1.0241 H   0  0  0  0  0  0  0  0  0  0  0  0
    0.2485   -2.0737   -0.8501 C   0  0  0  0  0  3  0  0  0  0  0  0
    1.0864   -2.7403   -0.5923 H   0  0  0  0  0  0  0  0  0  0  0  0
    0.3411   -1.2193   -1.9836 C   0  0  0  0  0  3  0  0  0  0  0  0
   -0.5792   -0.8554   -2.4672 H   0  0  0  0  0  0  0  0  0  0  0  0
    1.2088   -1.3120   -2.6534 H   0  0  0  0  0  0  0  0  0  0  0  0
  1  2  1  0  0  0  0
  3  1  1  0  0  0  0
  3  4  1  0  0  0  0
  5  3  1  0  0  0  0
  6  5  1  0  0  0  0
  7  5  1  0  0  0  0
  7  9  2  0  0  0  0
  8  7  1  0  0  0  0
  9 10  1  0  0  0  0
  9  1  1  0  0  0  0
 10 13  1  0  0  0  0
 10 11  1  0  0  0  0
 12 10  1  0  0  0  0
 13 15  1  0  0  0  0
 14 13  1  0  0  0  0
 16 17  1  0  0  0  0
 16 19  1  0  0  0  0
 16 13  1  0  0  0  0
 18 16  1  0  0  0  0
 19 20  1  0  0  0  0
 21 22  1  0  0  0  0
 21 19  1  0  0  0  0
 23 21  1  0  0  0  0
 24 23  1  0  0  0  0
 25 23  1  0  0  0  0
M  END
