12,16
q = -2.0, confidence = 0.898

 64 69  0  0  1  0  0  0  0  0999 V2000
   -2.3347   -3.1457    1.0537 C   0  0  0  0  0  0  0  0  0  0  0  0
   -3.3864   -2.1241    0.6240 C   0  0  2  0  0  0  0  0  0  0  0  0
   -3.3470   -1.8555   -0.9075 C   0  0  0  0  0  0  0  0  0  0  0  0
   -3.5276   -0.3546   -1.2144 C   0  0  1  0  0  0  0  0  0  0  0  0
   -4.8664    0.0985   -0.5245 C   0  0  2  0  0  0  0  0  0  0  0  0
   -5.2929    1.5132   -0.9175 C   0  0  0  0  0  0  0  0  0  0  0  0
   -4.7226   -0.0693    1.0255 C   0  0  0  0  0  0  0  0  0  0  0  0
   -3.3678   -0.7623    1.3812 C   0  0  2  0  0  0  0  0  0  0  0  0
   -2.3701    0.2327    0.8548 C   0  0  0  0  0  0  0  0  0  0  0  0
   -2.4676    0.4617   -0.5371 C   0  0  0  0  0  0  0  0  0  0  0  0
   -1.7522    1.6546   -0.8508 C   0  0  0  0  0  3  0  0  0  0  0  0
   -1.2976    2.2278    0.3874 C   0  0  1  0  0  3  0  0  0  0  0  0
   -1.6342    1.3179    1.4322 C   0  0  0  0  0  3  0  0  0  0  0  0
   -0.5748    3.5410    0.5071 C   0  0  0  0  0  0  0  0  0  0  0  0
    0.5741    3.5409   -0.5085 C   0  0  0  0  0  0  0  0  0  0  0  0
    1.2971    2.2278   -0.3884 C   0  0  2  0  0  3  0  0  0  0  0  0
    1.6334    1.3174   -1.4329 C   0  0  0  0  0  3  0  0  0  0  0  0
    2.3696    0.2326   -0.8552 C   0  0  0  0  0  0  0  0  0  0  0  0
    2.4675    0.4623    0.5366 C   0  0  0  0  0  0  0  0  0  0  0  0
    1.7522    1.6553    0.8499 C   0  0  0  0  0  3  0  0  0  0  0  0
    3.5275   -0.3538    1.2141 C   0  0  1  0  0  0  0  0  0  0  0  0
    3.3466   -1.8548    0.9075 C   0  0  0  0  0  0  0  0  0  0  0  0
    3.3871   -2.1239   -0.6238 C   0  0  1  0  0  0  0  0  0  0  0  0
    2.3368   -3.1468   -1.0538 C   0  0  0  0  0  0  0  0  0  0  0  0
    3.3676   -0.7622   -1.3814 C   0  0  2  0  0  0  0  0  0  0  0  0
    4.7221   -0.0685   -1.0260 C   0  0  0  0  0  0  0  0  0  0  0  0
    4.8663    0.0990    0.5240 C   0  0  1  0  0  0  0  0  0  0  0  0
    5.2933    1.5135    0.9171 C   0  0  0  0  0  0  0  0  0  0  0  0
   -2.3655   -3.3291    2.1472 H   0  0  0  0  0  0  0  0  0  0  0  0
   -1.3129   -2.8086    0.8002 H   0  0  0  0  0  0  0  0  0  0  0  0
   -2.5158   -4.1131    0.5409 H   0  0  0  0  0  0  0  0  0  0  0  0
   -4.3791   -2.5589    0.8759 H   0  0  0  0  0  0  0  0  0  0  0  0
   -4.1472   -2.4249   -1.4234 H   0  0  0  0  0  0  0  0  0  0  0  0
   -2.3800   -2.1892   -1.3260 H   0  0  0  0  0  0  0  0  0  0  0  0
   -3.5694   -0.1723   -2.3063 H   0  0  0  0  0  0  0  0  0  0  0  0
   -5.6420   -0.6104   -0.8869 H   0  0  0  0  0  0  0  0  0  0  0  0
   -5.4284    1.6073   -2.0148 H   0  0  0  0  0  0  0  0  0  0  0  0
   -4.5336    2.2599   -0.6040 H   0  0  0  0  0  0  0  0  0  0  0  0
   -6.2524    1.7895   -0.4339 H   0  0  0  0  0  0  0  0  0  0  0  0
   -4.7687    0.9231    1.5199 H   0  0  0  0  0  0  0  0  0  0  0  0
   -5.5603   -0.6733    1.4313 H   0  0  0  0  0  0  0  0  0  0  0  0
   -3.2735   -0.9179    2.4737 H   0  0  0  0  0  0  0  0  0  0  0  0
   -1.6439    2.0965   -1.8488 H   0  0  0  0  0  0  0  0  0  0  0  0
   -1.3848    1.4438    2.4926 H   0  0  0  0  0  0  0  0  0  0  0  0
   -0.1837    3.6561    1.5380 H   0  0  0  0  0  0  0  0  0  0  0  0
   -1.2728    4.3893    0.3380 H   0  0  0  0  0  0  0  0  0  0  0  0
    0.1829    3.6557   -1.5395 H   0  0  0  0  0  0  0  0  0  0  0  0
    1.2719    4.3893   -0.3397 H   0  0  0  0  0  0  0  0  0  0  0  0
    1.3836    1.4428   -2.4933 H   0  0  0  0  0  0  0  0  0  0  0  0
    1.6440    2.0977    1.8478 H   0  0  0  0  0  0  0  0  0  0  0  0
    3.5692   -0.1713    2.3059 H   0  0  0  0  0  0  0  0  0  0  0  0
    4.1461   -2.4245    1.4242 H   0  0  0  0  0  0  0  0  0  0  0  0
    2.3791   -2.1879    1.3254 H   0  0  0  0  0  0  0  0  0  0  0  0
    4.3804   -2.5577   -0.8750 H   0  0  0  0  0  0  0  0  0  0  0  0
    2.3685   -3.3306   -2.1472 H   0  0  0  0  0  0  0  0  0  0  0  0
    1.3145   -2.8109   -0.8011 H   0  0  0  0  0  0  0  0  0  0  0  0
    2.5188   -4.1138   -0.5406 H   0  0  0  0  0  0  0  0  0  0  0  0
    3.2732   -0.9182   -2.4739 H   0  0  0  0  0  0  0  0  0  0  0  0
    4.7675    0.9240   -1.5202 H   0  0  0  0  0  0  0  0  0  0  0  0
    5.5601   -0.6720   -1.4322 H   0  0  0  0  0  0  0  0  0  0  0  0
    5.6418   -0.6103    0.8861 H   0  0  0  0  0  0  0  0  0  0  0  0
    5.4292    1.6073    2.0144 H   0  0  0  0  0  0  0  0  0  0  0  0
    4.5340    2.2604    0.6041 H   0  0  0  0  0  0  0  0  0  0  0  0
    6.2526    1.7897    0.4332 H   0  0  0  0  0  0  0  0  0  0  0  0
  1 29  1  0  0  0  0
  2 32  1  1  0  0  0
  2  1  1  0  0  0  0
  2  8  1  0  0  0  0
  3  2  1  0  0  0  0
  4 35  1  6  0  0  0
  4  3  1  0  0  0  0
  4 10  1  0  0  0  0
  4  5  1  0  0  0  0
  5 36  1  6  0  0  0
  5  7  1  0  0  0  0
  6 38  1  0  0  0  0
  6  5  1  0  0  0  0
  6 39  1  0  0  0  0
  7  8  1  0  0  0  0
  7 41  1  0  0  0  0
  7 40  1  0  0  0  0
  8 42  1  1  0  0  0
  9  8  1  0  0  0  0
  9 13  1  0  0  0  0
 10  9  2  0  0  0  0
 11 10  1  0  0  0  0
 11 12  1  0  0  0  0
 12 14  1  6  0  0  0
 12 13  1  0  0  0  0
 13 44  1  0  0  0  0
 14 45  1  0  0  0  0
 15 48  1  0  0  0  0
 15 14  1  0  0  0  0
 16 15  1  1  0  0  0
 16 20  1  0  0  0  0
 17 18  1  0  0  0  0
 17 16  1  0  0  0  0
 18 19  2  0  0  0  0
 19 20  1  0  0  0  0
 19 21  1  0  0  0  0
 20 50  1  0  0  0  0
 21 51  1  1  0  0  0
 22 21  1  0  0  0  0
 22 53  1  0  0  0  0
 22 52  1  0  0  0  0
 23 54  1  6  0  0  0
 23 22  1  0  0  0  0
 24 56  1  0  0  0  0
 24 23  1  0  0  0  0
 24 57  1  0  0  0  0
 25 58  1  6  0  0  0
 25 26  1  0  0  0  0
 25 18  1  0  0  0  0
 25 23  1  0  0  0  0
 26 27  1  0  0  0  0
 27 61  1  1  0  0  0
 27 28  1  0  0  0  0
 27 21  1  0  0  0  0
 28 62  1  0  0  0  0
 30  1  1  0  0  0  0
 31  1  1  0  0  0  0
 33  3  1  0  0  0  0
 34  3  1  0  0  0  0
 37  6  1  0  0  0  0
 43 11  1  0  0  0  0
 46 14  1  0  0  0  0
 47 15  1  0  0  0  0
 49 17  1  0  0  0  0
 55 24  1  0  0  0  0
 59 26  1  0  0  0  0
 60 26  1  0  0  0  0
 63 28  1  0  0  0  0
 64 28  1  0  0  0  0
M  END
