6,10
q = -1.0, confidence = 0.022

 44 48  0  0  1  0  0  0  0  0999 V2000
    0.0242    0.0438    1.7195 C   0  0  2  0  0  0  0  0  0  0  0  0
    1.2528   -0.2443    0.8417 C   0  0  0  0  0  0  0  0  0  0  0  0
    1.5052   -1.6175    0.8399 C   0  0  0  0  0  0  0  0  0  0  0  0
    0.4794   -2.3459    1.7086 C   0  0  2  0  0  0  0  0  0  0  0  0
   -0.5096   -2.8853    0.6937 C   0  0  0  0  0  3  0  0  0  0  0  0
   -1.7526   -2.2958    0.5252 C   0  0  0  0  0  3  0  0  0  0  0  0
   -2.1319   -1.1111    1.3962 C   0  0  1  0  0  0  0  0  0  0  0  0
   -1.6220   -1.3512    2.8251 C   0  0  0  0  0  0  0  0  0  0  0  0
   -0.1161   -1.2222    2.6029 C   0  0  2  0  0  0  0  0  0  0  0  0
   -1.2423    0.0262    0.8367 C   0  0  1  0  0  3  0  0  0  0  0  0
    2.7331   -2.3469    0.3909 C   0  0  0  0  0  0  0  0  0  0  0  0
   -1.8703    1.3088    0.4429 C   0  0  0  0  0  0  0  0  0  0  0  0
   -1.1525    2.5306    0.4912 C   0  0  0  0  0  0  0  0  0  0  0  0
   -1.7442    3.7430    0.1125 C   0  0  0  0  0  0  0  0  0  0  0  0
   -3.0743    3.7809   -0.3318 C   0  0  0  0  0  0  0  0  0  0  0  0
   -3.7992    2.5801   -0.4028 C   0  0  0  0  0  0  0  0  0  0  0  0
   -3.2077    1.3682   -0.0267 C   0  0  0  0  0  0  0  0  0  0  0  0
    2.2247    0.7980    0.4222 C   0  0  0  0  0  0  0  0  0  0  0  0
    2.4694    1.8913    1.2854 C   0  0  0  0  0  0  0  0  0  0  0  0
    3.4365    2.8579    0.9747 C   0  0  0  0  0  0  0  0  0  0  0  0
    4.1776    2.7605   -0.2119 C   0  0  0  0  0  0  0  0  0  0  0  0
    3.9408    1.6865   -1.0846 C   0  0  0  0  0  0  0  0  0  0  0  0
    2.9762    0.7207   -0.7741 C   0  0  0  0  0  0  0  0  0  0  0  0
    0.1106    0.9697    2.3256 H   0  0  0  0  0  0  0  0  0  0  0  0
    0.9390   -3.1697    2.2951 H   0  0  0  0  0  0  0  0  0  0  0  0
   -0.2716   -3.8321    0.1860 H   0  0  0  0  0  0  0  0  0  0  0  0
   -2.5108   -2.8044   -0.0902 H   0  0  0  0  0  0  0  0  0  0  0  0
   -3.2145   -0.8994    1.3392 H   0  0  0  0  0  0  0  0  0  0  0  0
   -1.9313   -2.3337    3.2395 H   0  0  0  0  0  0  0  0  0  0  0  0
   -1.9830   -0.5526    3.5052 H   0  0  0  0  0  0  0  0  0  0  0  0
    0.4807   -1.1456    3.5336 H   0  0  0  0  0  0  0  0  0  0  0  0
    3.3215   -2.6188    1.2953 H   0  0  0  0  0  0  0  0  0  0  0  0
    2.4896   -3.2947   -0.1278 H   0  0  0  0  0  0  0  0  0  0  0  0
    3.3807   -1.7483   -0.2716 H   0  0  0  0  0  0  0  0  0  0  0  0
   -0.1000    2.5347    0.8074 H   0  0  0  0  0  0  0  0  0  0  0  0
   -1.1516    4.6697    0.1616 H   0  0  0  0  0  0  0  0  0  0  0  0
   -3.5382    4.7328   -0.6306 H   0  0  0  0  0  0  0  0  0  0  0  0
   -4.8398    2.5843   -0.7624 H   0  0  0  0  0  0  0  0  0  0  0  0
   -3.7938    0.4425   -0.1233 H   0  0  0  0  0  0  0  0  0  0  0  0
    1.9080    1.9782    2.2269 H   0  0  0  0  0  0  0  0  0  0  0  0
    3.6082    3.6957    1.6674 H   0  0  0  0  0  0  0  0  0  0  0  0
    4.9296    3.5240   -0.4618 H   0  0  0  0  0  0  0  0  0  0  0  0
    4.5016    1.6075   -2.0281 H   0  0  0  0  0  0  0  0  0  0  0  0
    2.7758   -0.0885   -1.4900 H   0  0  0  0  0  0  0  0  0  0  0  0
  1 24  1  1  0  0  0
  1  9  1  0  0  0  0
  2  1  1  0  0  0  0
  3  2  2  0  0  0  0
  3  4  1  0  0  0  0
  4 25  1  1  0  0  0
  4  9  1  0  0  0  0
  5  4  1  0  0  0  0
  6  5  1  0  0  0  0
  6  7  1  0  0  0  0
  7 28  1  6  0  0  0
  7  8  1  0  0  0  0
  8 29  1  0  0  0  0
  8 30  1  0  0  0  0
  9  8  1  0  0  0  0
  9 31  1  1  0  0  0
 10 12  1  1  0  0  0
 10  7  1  0  0  0  0
 10  1  1  0  0  0  0
 11  3  1  0  0  0  0
 11 32  1  0  0  0  0
 12 13  1  0  0  0  0
 13 35  1  0  0  0  0
 14 36  1  0  0  0  0
 14 13  2  0  0  0  0
 15 14  1  0  0  0  0
 16 15  2  0  0  0  0
 16 17  1  0  0  0  0
 17 12  2  0  0  0  0
 18  2  1  0  0  0  0
 18 19  1  0  0  0  0
 19 40  1  0  0  0  0
 20 19  2  0  0  0  0
 20 41  1  0  0  0  0
 21 20  1  0  0  0  0
 22 23  1  0  0  0  0
 22 21  2  0  0  0  0
 23 18  2  0  0  0  0
 26  5  1  0  0  0  0
 27  6  1  0  0  0  0
 33 11  1  0  0  0  0
 34 11  1  0  0  0  0
 37 15  1  0  0  0  0
 38 16  1  0  0  0  0
 39 17  1  0  0  0  0
 42 21  1  0  0  0  0
 43 22  1  0  0  0  0
 44 23  1  0  0  0  0
M  END
