5,13
 OpenBabel05122313053D

 37 39  0  0  1  0  0  0  0  0999 V2000
   -4.2314   -1.5271   -1.0480 O   0  0  0  0  0  0  0  0  0  0  0  0
   -3.9143   -2.0664    1.1366 O   0  0  0  0  0  0  0  0  0  0  0  0
    0.1149   -0.6896    0.8791 C   0  0  0  0  0  0  0  0  0  0  0  0
    0.7723   -0.6445    1.7583 H   0  0  0  0  0  0  0  0  0  0  0  0
   -1.1986   -1.1918    1.0001 C   0  0  0  0  0  3  0  0  0  0  0  0
   -1.5934   -1.5478    1.9612 H   0  0  0  0  0  0  0  0  0  0  0  0
   -2.0811   -1.1848   -0.1333 C   0  0  1  0  0  3  0  0  0  0  0  0
   -3.4889   -1.6393    0.0778 C   0  0  0  0  0  0  0  0  0  0  0  0
   -5.6076   -1.9027   -0.9093 C   0  0  0  0  0  0  0  0  0  0  0  0
   -5.6964   -2.9601   -0.5890 H   0  0  0  0  0  0  0  0  0  0  0  0
   -6.0657   -1.7579   -1.9033 H   0  0  0  0  0  0  0  0  0  0  0  0
   -6.1108   -1.2667   -0.1535 H   0  0  0  0  0  0  0  0  0  0  0  0
   -1.6228   -0.6530   -1.3697 C   0  0  0  0  0  3  0  0  0  0  0  0
   -2.3168   -0.5948   -2.2175 H   0  0  0  0  0  0  0  0  0  0  0  0
   -0.2841   -0.1730   -1.4896 C   0  0  0  0  0  3  0  0  0  0  0  0
    0.0639    0.2452   -2.4442 H   0  0  0  0  0  0  0  0  0  0  0  0
    0.6075   -0.1992   -0.3824 C   0  0  0  0  0  0  0  0  0  0  0  0
    1.9975    0.3311   -0.5035 C   0  0  0  0  0  0  0  0  0  0  0  0
    3.1689   -0.4538   -0.1786 C   0  0  0  0  0  0  0  0  0  0  0  0
    4.4319    0.2572   -0.0877 C   0  0  0  0  0  0  0  0  0  0  0  0
    4.5081    1.6369   -0.4357 C   0  0  0  0  0  0  0  0  0  0  0  0
    5.4840    2.1410   -0.3615 H   0  0  0  0  0  0  0  0  0  0  0  0
    3.3885    2.3246   -0.8671 C   0  0  0  0  0  0  0  0  0  0  0  0
    3.4520    3.3849   -1.1524 H   0  0  0  0  0  0  0  0  0  0  0  0
    2.1366    1.6699   -0.8768 C   0  0  0  0  0  0  0  0  0  0  0  0
    1.2281    2.2385   -1.1230 H   0  0  0  0  0  0  0  0  0  0  0  0
    5.6132   -0.4257    0.3227 C   0  0  0  0  0  0  0  0  0  0  0  0
    6.5495    0.1476    0.4030 H   0  0  0  0  0  0  0  0  0  0  0  0
    5.5835   -1.7810    0.5919 C   0  0  0  0  0  0  0  0  0  0  0  0
    6.4936   -2.3113    0.9100 H   0  0  0  0  0  0  0  0  0  0  0  0
    4.3801   -2.4992    0.3998 C   0  0  0  0  0  0  0  0  0  0  0  0
    4.3854   -3.5925    0.5341 H   0  0  0  0  0  0  0  0  0  0  0  0
    3.1874   -1.8882    0.0077 C   0  0  0  0  0  0  0  0  0  0  0  0
    2.0136   -2.7949   -0.2844 C   0  0  0  0  0  0  0  0  0  0  0  0
    2.3732   -3.8291   -0.4468 H   0  0  0  0  0  0  0  0  0  0  0  0
    1.4574   -2.4832   -1.1887 H   0  0  0  0  0  0  0  0  0  0  0  0
    1.2752   -2.8322    0.5415 H   0  0  0  0  0  0  0  0  0  0  0  0
  1  9  1  0  0  0  0
  1  8  1  0  0  0  0
  3  5  1  0  0  0  0
  3  4  1  0  0  0  0
  5  6  1  0  0  0  0
  7  8  1  1  0  0  0
  7  5  1  0  0  0  0
  8  2  2  0  0  0  0
  9 10  1  0  0  0  0
  9 12  1  0  0  0  0
 11  9  1  0  0  0  0
 13  7  1  0  0  0  0
 14 13  1  0  0  0  0
 15 13  1  0  0  0  0
 15 17  1  0  0  0  0
 16 15  1  0  0  0  0
 17  3  2  0  0  0  0
 18 17  1  0  0  0  0
 18 19  1  0  0  0  0
 19 20  2  0  0  0  0
 19 33  1  0  0  0  0
 20 27  1  0  0  0  0
 21 22  1  0  0  0  0
 21 20  1  0  0  0  0
 23 21  2  0  0  0  0
 24 23  1  0  0  0  0
 25 23  1  0  0  0  0
 25 18  2  0  0  0  0
 26 25  1  0  0  0  0
 27 28  1  0  0  0  0
 27 29  2  0  0  0  0
 29 30  1  0  0  0  0
 31 32  1  0  0  0  0
 31 29  1  0  0  0  0
 33 31  2  0  0  0  0
 34 33  1  0  0  0  0
 34 37  1  0  0  0  0
 35 34  1  0  0  0  0
 36 34  1  0  0  0  0
M  END
