9,12
 OpenBabel05122313053D

 35 37  0  0  1  0  0  0  0  0999 V2000
   -3.2946    2.4221   -0.3276 O   0  0  0  0  0  0  0  0  0  0  0  0
   -2.1634    1.7106   -0.1405 C   0  0  0  0  0  0  0  0  0  0  0  0
   -4.1495    2.6507    0.7869 C   0  0  0  0  0  0  0  0  0  0  0  0
   -4.4812    1.6922    1.2396 H   0  0  0  0  0  0  0  0  0  0  0  0
   -5.0301    3.1887    0.3923 H   0  0  0  0  0  0  0  0  0  0  0  0
   -3.6571    3.2797    1.5600 H   0  0  0  0  0  0  0  0  0  0  0  0
   -1.6531    1.3236    1.1333 C   0  0  0  0  0  0  0  0  0  0  0  0
   -2.1939    1.5600    2.0567 H   0  0  0  0  0  0  0  0  0  0  0  0
   -0.4374    0.5774    1.2015 C   0  0  0  0  0  3  0  0  0  0  0  0
   -0.0504    0.2708    2.1837 H   0  0  0  0  0  0  0  0  0  0  0  0
    0.3097    0.2439    0.0341 C   0  0  2  0  0  3  0  0  0  0  0  0
   -0.2774    0.5585   -1.2311 C   0  0  0  0  0  3  0  0  0  0  0  0
    0.2312    0.2278   -2.1478 H   0  0  0  0  0  0  0  0  0  0  0  0
   -1.4880    1.2935   -1.3286 C   0  0  0  0  0  3  0  0  0  0  0  0
   -1.9422    1.5294   -2.2992 H   0  0  0  0  0  0  0  0  0  0  0  0
    1.6183   -0.4777    0.1233 C   0  0  0  0  0  0  0  0  0  0  0  0
    1.5704   -1.8655    0.2668 C   0  0  0  0  0  0  0  0  0  0  0  0
    0.5829   -2.3442    0.3200 H   0  0  0  0  0  0  0  0  0  0  0  0
    2.7408   -2.6563    0.3259 C   0  0  0  0  0  0  0  0  0  0  0  0
    2.6568   -3.7473    0.4375 H   0  0  0  0  0  0  0  0  0  0  0  0
    3.9755   -2.0449    0.2254 C   0  0  0  0  0  0  0  0  0  0  0  0
    4.9023   -2.6387    0.2530 H   0  0  0  0  0  0  0  0  0  0  0  0
    4.0849   -0.6311    0.0849 C   0  0  0  0  0  0  0  0  0  0  0  0
    5.3811   -0.0466   -0.0109 C   0  0  0  0  0  0  0  0  0  0  0  0
    6.2582   -0.7112    0.0169 H   0  0  0  0  0  0  0  0  0  0  0  0
    5.5288    1.3213   -0.1309 C   0  0  0  0  0  0  0  0  0  0  0  0
    6.5279    1.7761   -0.2056 H   0  0  0  0  0  0  0  0  0  0  0  0
    4.3773    2.1426   -0.1441 C   0  0  0  0  0  0  0  0  0  0  0  0
    4.5034    3.2339   -0.2202 H   0  0  0  0  0  0  0  0  0  0  0  0
    3.0798    1.6351   -0.0561 C   0  0  0  0  0  0  0  0  0  0  0  0
    1.9546    2.6435   -0.0540 C   0  0  0  0  0  0  0  0  0  0  0  0
    1.2997    2.5479    0.8332 H   0  0  0  0  0  0  0  0  0  0  0  0
    1.2940    2.5515   -0.9379 H   0  0  0  0  0  0  0  0  0  0  0  0
    2.3717    3.6687   -0.0555 H   0  0  0  0  0  0  0  0  0  0  0  0
    2.8944    0.2021    0.0458 C   0  0  0  0  0  0  0  0  0  0  0  0
  1  2  1  0  0  0  0
  1  3  1  0  0  0  0
  2  7  2  0  0  0  0
  3  4  1  0  0  0  0
  3  6  1  0  0  0  0
  5  3  1  0  0  0  0
  7  9  1  0  0  0  0
  7  8  1  0  0  0  0
  9 10  1  0  0  0  0
 11 16  1  6  0  0  0
 11  9  1  0  0  0  0
 12 11  1  0  0  0  0
 13 12  1  0  0  0  0
 14 12  1  0  0  0  0
 14  2  1  0  0  0  0
 15 14  1  0  0  0  0
 16 17  1  0  0  0  0
 17 18  1  0  0  0  0
 17 19  2  0  0  0  0
 19 20  1  0  0  0  0
 21 22  1  0  0  0  0
 21 19  1  0  0  0  0
 23 21  2  0  0  0  0
 24 25  1  0  0  0  0
 24 23  1  0  0  0  0
 26 24  2  0  0  0  0
 27 26  1  0  0  0  0
 28 26  1  0  0  0  0
 28 30  2  0  0  0  0
 29 28  1  0  0  0  0
 30 31  1  0  0  0  0
 30 35  1  0  0  0  0
 31 32  1  0  0  0  0
 33 31  1  0  0  0  0
 34 31  1  0  0  0  0
 35 23  1  0  0  0  0
 35 16  2  0  0  0  0
M  END
