15,18
 OpenBabel05122313053D

 39 41  0  0  1  0  0  0  0  0999 V2000
   -3.3238   -2.1715   -0.0001 N   0  0  0  0  0  0  0  0  0  0  0  0
   -1.4979   -1.0805    1.2260 C   0  0  0  0  0  0  0  0  0  0  0  0
   -1.9906   -1.2456    2.1893 H   0  0  0  0  0  0  0  0  0  0  0  0
   -2.1271   -1.4934    0.0000 C   0  0  0  0  0  0  0  0  0  0  0  0
   -4.0678   -2.3051    1.2430 C   0  0  0  0  0  0  0  0  0  0  0  0
   -3.4481   -2.7829    2.0277 H   0  0  0  0  0  0  0  0  0  0  0  0
   -4.9419   -2.9586    1.0695 H   0  0  0  0  0  0  0  0  0  0  0  0
   -4.4348   -1.3257    1.6269 H   0  0  0  0  0  0  0  0  0  0  0  0
   -4.0677   -2.3050   -1.2432 C   0  0  0  0  0  0  0  0  0  0  0  0
   -4.4343   -1.3256   -1.6272 H   0  0  0  0  0  0  0  0  0  0  0  0
   -4.9420   -2.9582   -1.0696 H   0  0  0  0  0  0  0  0  0  0  0  0
   -3.4482   -2.7832   -2.0278 H   0  0  0  0  0  0  0  0  0  0  0  0
   -1.4977   -1.0806   -1.2259 C   0  0  0  0  0  3  0  0  0  0  0  0
   -1.9902   -1.2458   -2.1893 H   0  0  0  0  0  0  0  0  0  0  0  0
   -0.2322   -0.4306   -1.2126 C   0  0  0  0  0  3  0  0  0  0  0  0
    0.2293   -0.1416   -2.1676 H   0  0  0  0  0  0  0  0  0  0  0  0
    0.4643   -0.1538    0.0002 C   0  0  2  0  0  3  0  0  0  0  0  0
   -0.2324   -0.4305    1.2129 C   0  0  0  0  0  3  0  0  0  0  0  0
    0.2289   -0.1414    2.1679 H   0  0  0  0  0  0  0  0  0  0  0  0
    1.8261    0.4672    0.0002 C   0  0  0  0  0  0  0  0  0  0  0  0
    1.8888    1.8618    0.0003 C   0  0  0  0  0  0  0  0  0  0  0  0
    0.9417    2.4188    0.0003 H   0  0  0  0  0  0  0  0  0  0  0  0
    3.1185    2.5597    0.0002 C   0  0  0  0  0  0  0  0  0  0  0  0
    3.1212    3.6597    0.0003 H   0  0  0  0  0  0  0  0  0  0  0  0
    4.3012    1.8459    0.0000 C   0  0  0  0  0  0  0  0  0  0  0  0
    5.2726    2.3643   -0.0001 H   0  0  0  0  0  0  0  0  0  0  0  0
    4.2979    0.4208   -0.0000 C   0  0  0  0  0  0  0  0  0  0  0  0
    3.0445   -0.3153    0.0001 C   0  0  0  0  0  0  0  0  0  0  0  0
    3.1150   -1.7624    0.0001 C   0  0  0  0  0  0  0  0  0  0  0  0
    4.3686   -2.3767   -0.0001 C   0  0  0  0  0  0  0  0  0  0  0  0
    4.4069   -3.4773   -0.0001 H   0  0  0  0  0  0  0  0  0  0  0  0
    5.5827   -1.6511   -0.0003 C   0  0  0  0  0  0  0  0  0  0  0  0
    6.5430   -2.1883   -0.0004 H   0  0  0  0  0  0  0  0  0  0  0  0
    5.5441   -0.2706   -0.0002 C   0  0  0  0  0  0  0  0  0  0  0  0
    6.4715    0.3225   -0.0003 H   0  0  0  0  0  0  0  0  0  0  0  0
    1.9112   -2.6756    0.0004 C   0  0  0  0  0  0  0  0  0  0  0  0
    2.2434   -3.7314    0.0005 H   0  0  0  0  0  0  0  0  0  0  0  0
    1.2627   -2.5276   -0.8846 H   0  0  0  0  0  0  0  0  0  0  0  0
    1.2629   -2.5272    0.8854 H   0  0  0  0  0  0  0  0  0  0  0  0
  1  4  1  0  0  0  0
  1  5  1  0  0  0  0
  2  3  1  0  0  0  0
  4  2  2  0  0  0  0
  5  8  1  0  0  0  0
  5  6  1  0  0  0  0
  7  5  1  0  0  0  0
  9 11  1  0  0  0  0
  9  1  1  0  0  0  0
 10  9  1  0  0  0  0
 12  9  1  0  0  0  0
 13 15  1  0  0  0  0
 13  4  1  0  0  0  0
 14 13  1  0  0  0  0
 15 17  1  0  0  0  0
 16 15  1  0  0  0  0
 17 20  1  6  0  0  0
 17 18  1  0  0  0  0
 18  2  1  0  0  0  0
 18 19  1  0  0  0  0
 20 21  1  0  0  0  0
 21 22  1  0  0  0  0
 23 24  1  0  0  0  0
 23 21  2  0  0  0  0
 25 23  1  0  0  0  0
 26 25  1  0  0  0  0
 27 25  2  0  0  0  0
 27 28  1  0  0  0  0
 28 29  1  0  0  0  0
 28 20  2  0  0  0  0
 29 36  1  0  0  0  0
 30 31  1  0  0  0  0
 30 29  2  0  0  0  0
 32 34  2  0  0  0  0
 32 30  1  0  0  0  0
 33 32  1  0  0  0  0
 34 27  1  0  0  0  0
 35 34  1  0  0  0  0
 36 37  1  0  0  0  0
 36 39  1  0  0  0  0
 38 36  1  0  0  0  0
M  END
