1,8
 OpenBabel05122313053D

 21 22  0  0  1  0  0  0  0  0999 V2000
   -2.0537    0.2859   -1.1341 C   0  0  0  0  0  3  0  0  0  0  0  0
   -1.9460    1.1199   -1.8417 H   0  0  0  0  0  0  0  0  0  0  0  0
   -2.2829    0.4073    0.2626 C   0  0  2  0  0  3  0  0  0  0  0  0
   -2.7678   -0.9965    0.7181 C   0  0  2  0  0  0  0  0  0  0  0  0
   -3.2461   -1.0391    1.7112 H   0  0  0  0  0  0  0  0  0  0  0  0
   -1.4811   -1.8296    0.5429 C   0  0  0  0  0  3  0  0  0  0  0  0
   -1.0046   -2.4377    1.3240 H   0  0  0  0  0  0  0  0  0  0  0  0
   -1.2788   -1.9458   -0.8548 C   0  0  0  0  0  3  0  0  0  0  0  0
   -0.6218   -2.6653   -1.3628 H   0  0  0  0  0  0  0  0  0  0  0  0
   -2.4364   -1.1651   -1.5180 C   0  0  1  0  0  0  0  0  0  0  0  0
   -2.6051   -1.3589   -2.5906 H   0  0  0  0  0  0  0  0  0  0  0  0
   -3.5886   -1.4387   -0.5197 C   0  0  0  0  0  0  0  0  0  0  0  0
   -4.4775   -0.7989   -0.6997 H   0  0  0  0  0  0  0  0  0  0  0  0
   -3.8918   -2.5057   -0.4824 H   0  0  0  0  0  0  0  0  0  0  0  0
   -2.4832    1.6527    1.0733 C   0  0  0  0  0  0  0  0  0  0  0  0
   -3.5859    1.8133    1.1280 H   0  0  0  0  0  0  0  0  0  0  0  0
   -2.0589    2.5114    0.5140 H   0  0  0  0  0  0  0  0  0  0  0  0
   -1.8982    1.6010    2.4873 C   0  0  0  0  0  0  0  0  0  0  0  0
   -2.2964    0.7463    3.0711 H   0  0  0  0  0  0  0  0  0  0  0  0
   -2.1404    2.5283    3.0420 H   0  0  0  0  0  0  0  0  0  0  0  0
   -0.7950    1.5047    2.4454 H   0  0  0  0  0  0  0  0  0  0  0  0
  1  3  1  0  0  0  0
  2  1  1  0  0  0  0
  3  4  1  0  0  0  0
  3 15  1  6  0  0  0
  4  5  1  1  0  0  0
  6  4  1  0  0  0  0
  6  7  1  0  0  0  0
  8  6  1  0  0  0  0
  9  8  1  0  0  0  0
 10 11  1  6  0  0  0
 10  1  1  0  0  0  0
 10  8  1  0  0  0  0
 10 12  1  0  0  0  0
 12 14  1  0  0  0  0
 12  4  1  0  0  0  0
 13 12  1  0  0  0  0
 15 16  1  0  0  0  0
 15 18  1  0  0  0  0
 17 15  1  0  0  0  0
 18 20  1  0  0  0  0
 18 19  1  0  0  0  0
 21 18  1  0  0  0  0
M  END
