2,4
 OpenBabel05122313053D

 25 25  0  0  1  0  0  0  0  0999 V2000
    2.5317   -0.5111    1.1006 C   0  0  0  0  0  0  0  0  0  0  0  0
    1.2445   -1.0205    1.5948 C   0  0  1  0  0  3  0  0  0  0  0  0
    0.8146   -2.0849    0.6942 C   0  0  1  0  0  3  0  0  0  0  0  0
    1.7124   -2.0965   -0.4178 C   0  0  1  0  0  3  0  0  0  0  0  0
    2.7927   -1.1239   -0.1526 C   0  0  0  0  0  0  0  0  0  0  0  0
    3.4493    0.3638    1.8903 C   0  0  0  0  0  0  0  0  0  0  0  0
    3.9397   -0.2493    2.6768 H   0  0  0  0  0  0  0  0  0  0  0  0
    2.9171    1.1786    2.4170 H   0  0  0  0  0  0  0  0  0  0  0  0
    4.2546    0.8030    1.2733 H   0  0  0  0  0  0  0  0  0  0  0  0
    0.7222   -0.7799    2.9743 C   0  0  0  0  0  0  0  0  0  0  0  0
    1.3588   -1.3210    3.7077 H   0  0  0  0  0  0  0  0  0  0  0  0
   -0.3131   -1.1403    3.0949 H   0  0  0  0  0  0  0  0  0  0  0  0
    0.7451    0.2910    3.2493 H   0  0  0  0  0  0  0  0  0  0  0  0
   -0.3060   -3.0398    0.9432 C   0  0  0  0  0  0  0  0  0  0  0  0
    0.0495   -3.8340    1.6341 H   0  0  0  0  0  0  0  0  0  0  0  0
   -0.6486   -3.5297    0.0149 H   0  0  0  0  0  0  0  0  0  0  0  0
   -1.1767   -2.5523    1.4152 H   0  0  0  0  0  0  0  0  0  0  0  0
    1.6520   -3.0153   -1.5956 C   0  0  0  0  0  0  0  0  0  0  0  0
    2.2132   -3.9518   -1.3885 H   0  0  0  0  0  0  0  0  0  0  0  0
    2.1188   -2.5704   -2.4975 H   0  0  0  0  0  0  0  0  0  0  0  0
    0.6107   -3.2974   -1.8405 H   0  0  0  0  0  0  0  0  0  0  0  0
    3.9857   -0.9072   -1.0265 C   0  0  0  0  0  0  0  0  0  0  0  0
    4.7390   -1.7064   -0.8586 H   0  0  0  0  0  0  0  0  0  0  0  0
    4.4747    0.0638   -0.8240 H   0  0  0  0  0  0  0  0  0  0  0  0
    3.7257   -0.9364   -2.1028 H   0  0  0  0  0  0  0  0  0  0  0  0
  1  2  1  0  0  0  0
  1  6  1  0  0  0  0
  2 10  1  1  0  0  0
  3 14  1  1  0  0  0
  3  2  1  0  0  0  0
  4 18  1  1  0  0  0
  4  5  1  0  0  0  0
  4  3  1  0  0  0  0
  5  1  2  0  0  0  0
  6  8  1  0  0  0  0
  6  7  1  0  0  0  0
  9  6  1  0  0  0  0
 10 12  1  0  0  0  0
 10 13  1  0  0  0  0
 10 11  1  0  0  0  0
 14 17  1  0  0  0  0
 14 15  1  0  0  0  0
 16 14  1  0  0  0  0
 18 19  1  0  0  0  0
 20 18  1  0  0  0  0
 21 18  1  0  0  0  0
 22 23  1  0  0  0  0
 22 24  1  0  0  0  0
 22  5  1  0  0  0  0
 25 22  1  0  0  0  0
M  END
