6,31
 OpenBabel05122313053D

 33 33  0  0  1  0  0  0  0  0999 V2000
    3.7750    0.4736   -1.2449 Si  0  0  0  0  0  0  0  0  0  0  0  0
   -0.8326    2.7255    1.5974 Si  0  0  0  0  0  0  0  0  0  0  0  0
    2.0663    1.1927   -0.8853 C   0  0  0  0  0  0  0  0  0  0  0  0
    0.9741    1.3356   -1.7990 C   0  0  0  0  0  0  0  0  0  0  0  0
    0.9451    0.9432   -2.8247 H   0  0  0  0  0  0  0  0  0  0  0  0
   -0.0562    2.0968   -1.1714 C   0  0  0  0  0  3  0  0  0  0  0  0
   -1.0269    2.3426   -1.6215 H   0  0  0  0  0  0  0  0  0  0  0  0
    0.3755    2.4701    0.1505 C   0  0  2  0  0  3  0  0  0  0  0  0
    1.6755    1.8916    0.3068 C   0  0  0  0  0  3  0  0  0  0  0  0
    2.2833    1.9498    1.2196 H   0  0  0  0  0  0  0  0  0  0  0  0
    4.5114    1.4592   -2.6854 C   0  0  0  0  0  0  0  0  0  0  0  0
    4.5804    2.5366   -2.4314 H   0  0  0  0  0  0  0  0  0  0  0  0
    3.8809    1.3670   -3.5936 H   0  0  0  0  0  0  0  0  0  0  0  0
    5.5295    1.0978   -2.9389 H   0  0  0  0  0  0  0  0  0  0  0  0
    4.8619    0.6794    0.2888 C   0  0  0  0  0  0  0  0  0  0  0  0
    4.4613    0.1180    1.1571 H   0  0  0  0  0  0  0  0  0  0  0  0
    5.8879    0.3078    0.0891 H   0  0  0  0  0  0  0  0  0  0  0  0
    4.9386    1.7471    0.5795 H   0  0  0  0  0  0  0  0  0  0  0  0
    3.6904   -1.3522   -1.7405 C   0  0  0  0  0  0  0  0  0  0  0  0
    3.0451   -1.4987   -2.6308 H   0  0  0  0  0  0  0  0  0  0  0  0
    3.2902   -1.9735   -0.9150 H   0  0  0  0  0  0  0  0  0  0  0  0
    4.7025   -1.7303   -1.9935 H   0  0  0  0  0  0  0  0  0  0  0  0
   -2.1247    4.0387    1.1712 C   0  0  0  0  0  0  0  0  0  0  0  0
   -2.6778    3.7774    0.2461 H   0  0  0  0  0  0  0  0  0  0  0  0
   -2.8672    4.1394    1.9895 H   0  0  0  0  0  0  0  0  0  0  0  0
   -1.6460    5.0267    1.0116 H   0  0  0  0  0  0  0  0  0  0  0  0
    0.1513    3.2114    3.1374 C   0  0  0  0  0  0  0  0  0  0  0  0
    0.8952    2.4284    3.3911 H   0  0  0  0  0  0  0  0  0  0  0  0
   -0.5223    3.3282    4.0111 H   0  0  0  0  0  0  0  0  0  0  0  0
    0.6945    4.1673    2.9893 H   0  0  0  0  0  0  0  0  0  0  0  0
   -1.4761    0.9683    1.6387 C   0  0  0  0  0  3  0  0  0  0  0  0
   -1.3037    0.4140    2.5889 H   0  0  0  0  0  0  0  0  0  0  0  0
   -2.5464    0.8669    1.3747 H   0  0  0  0  0  0  0  0  0  0  0  0
  1  3  1  0  0  0  0
  1 15  1  0  0  0  0
  2 31  1  0  0  0  0
  2 27  1  0  0  0  0
  3  9  1  0  0  0  0
  4  6  1  0  0  0  0
  4  3  2  0  0  0  0
  5  4  1  0  0  0  0
  6  8  1  0  0  0  0
  7  6  1  0  0  0  0
  8  9  1  0  0  0  0
  8  2  1  1  0  0  0
  9 10  1  0  0  0  0
 11 12  1  0  0  0  0
 11  1  1  0  0  0  0
 13 11  1  0  0  0  0
 14 11  1  0  0  0  0
 15 18  1  0  0  0  0
 15 16  1  0  0  0  0
 17 15  1  0  0  0  0
 19  1  1  0  0  0  0
 19 21  1  0  0  0  0
 20 19  1  0  0  0  0
 22 19  1  0  0  0  0
 23  2  1  0  0  0  0
 23 25  1  0  0  0  0
 24 23  1  0  0  0  0
 26 23  1  0  0  0  0
 27 28  1  0  0  0  0
 27 29  1  0  0  0  0
 30 27  1  0  0  0  0
 31 32  1  0  0  0  0
 33 31  1  0  0  0  0
M  END
