3,9
 OpenBabel05122313053D

 15 16  0  0  1  0  0  0  0  0999 V2000
    3.1078    0.1712    1.1211 C   0  0  2  0  0  0  0  0  0  0  0  0
    3.4495    0.3303    2.1573 H   0  0  0  0  0  0  0  0  0  0  0  0
    2.2079   -1.0627    0.8759 C   0  0  0  0  0  3  0  0  0  0  0  0
    1.9070   -1.7763    1.6539 H   0  0  0  0  0  0  0  0  0  0  0  0
    2.2106   -1.2768   -0.5171 C   0  0  0  0  0  3  0  0  0  0  0  0
    1.9444   -2.2028   -1.0434 H   0  0  0  0  0  0  0  0  0  0  0  0
    3.1079   -0.1711   -1.1211 C   0  0  1  0  0  0  0  0  0  0  0  0
    3.4495   -0.3303   -2.1573 H   0  0  0  0  0  0  0  0  0  0  0  0
    2.2079    1.0628   -0.8759 C   0  0  0  0  0  3  0  0  0  0  0  0
    1.9070    1.7763   -1.6539 H   0  0  0  0  0  0  0  0  0  0  0  0
    2.2105    1.2769    0.5171 C   0  0  0  0  0  3  0  0  0  0  0  0
    1.9443    2.2028    1.0434 H   0  0  0  0  0  0  0  0  0  0  0  0
    4.1621    0.0000    0.0000 C   0  0  0  0  0  0  0  0  0  0  0  0
    4.7981   -0.8999    0.1362 H   0  0  0  0  0  0  0  0  0  0  0  0
    4.7981    0.9000   -0.1362 H   0  0  0  0  0  0  0  0  0  0  0  0
  1  2  1  1  0  0  0
  3  1  1  0  0  0  0
  3  4  1  0  0  0  0
  5  3  1  0  0  0  0
  6  5  1  0  0  0  0
  7  8  1  6  0  0  0
  7  9  1  0  0  0  0
  7  5  1  0  0  0  0
  7 13  1  0  0  0  0
  9 11  1  0  0  0  0
 10  9  1  0  0  0  0
 11 12  1  0  0  0  0
 11  1  1  0  0  0  0
 13 14  1  0  0  0  0
 13  1  1  0  0  0  0
 15 13  1  0  0  0  0
M  END
