5,8
 OpenBabel05122313053D

 46 47  0  0  1  0  0  0  0  0999 V2000
   -0.0367    2.5855   -0.6580 C   0  0  1  0  0  0  0  0  0  0  0  0
    1.4854    2.6636   -0.8348 C   0  0  0  0  0  0  0  0  0  0  0  0
    2.2109    2.5362    0.5066 C   0  0  0  0  0  0  0  0  0  0  0  0
    1.9378    1.1967    1.2273 C   0  0  1  0  0  0  0  0  0  0  0  0
    0.0587   -0.4512    1.7347 C   0  0  0  0  0  3  0  0  0  0  0  0
   -1.2880   -0.9086    1.7242 C   0  0  0  0  0  0  0  0  0  0  0  0
   -2.2137   -0.2046    0.8903 C   0  0  0  0  0  0  0  0  0  0  0  0
   -1.7869    0.9079    0.0935 C   0  0  2  0  0  3  0  0  0  0  0  0
   -0.4235    1.3607    0.1508 C   0  0  0  0  0  0  0  0  0  0  0  0
    0.5104    0.6958    1.0100 C   0  0  0  0  0  0  0  0  0  0  0  0
    3.0492    0.1236    1.0055 C   0  0  1  0  0  0  0  0  0  0  0  0
    3.3731   -0.1064   -0.4895 C   0  0  0  0  0  0  0  0  0  0  0  0
    4.3164   -1.2014   -0.7010 C   0  0  0  0  0  0  0  0  0  0  0  0
    4.3143    0.4671    1.8002 C   0  0  0  0  0  0  0  0  0  0  0  0
   -0.6253    3.8524   -0.0066 C   0  0  0  0  0  0  0  0  0  0  0  0
   -3.3153    0.9119   -1.7538 C   0  0  0  0  0  0  0  0  0  0  0  0
   -4.4438    0.2500    1.4826 C   0  0  0  0  0  0  0  0  0  0  0  0
   -1.7379   -2.0897    2.5377 C   0  0  0  0  0  0  0  0  0  0  0  0
    5.0915   -2.0684   -0.8422 N   0  0  0  0  0  0  0  0  0  0  0  0
   -2.6686    1.6097   -0.6801 O   0  0  0  0  0  0  0  0  0  0  0  0
   -3.5146   -0.6297    0.8410 O   0  0  0  0  0  0  0  0  0  0  0  0
   -0.5072    2.4800   -1.6565 H   0  0  0  0  0  0  0  0  0  0  0  0
    1.8089    1.8689   -1.5356 H   0  0  0  0  0  0  0  0  0  0  0  0
    1.7464    3.6286   -1.3163 H   0  0  0  0  0  0  0  0  0  0  0  0
    3.3035    2.6710    0.3732 H   0  0  0  0  0  0  0  0  0  0  0  0
    1.8951    3.3721    1.1643 H   0  0  0  0  0  0  0  0  0  0  0  0
    1.9845    1.4025    2.3199 H   0  0  0  0  0  0  0  0  0  0  0  0
    0.7823   -1.0039    2.3527 H   0  0  0  0  0  0  0  0  0  0  0  0
    2.4391   -0.3311   -1.0447 H   0  0  0  0  0  0  0  0  0  0  0  0
    3.8114    0.8101   -0.9389 H   0  0  0  0  0  0  0  0  0  0  0  0
    2.6631   -0.8422    1.3933 H   0  0  0  0  0  0  0  0  0  0  0  0
    5.0905   -0.3109    1.6611 H   0  0  0  0  0  0  0  0  0  0  0  0
    4.0954    0.5432    2.8844 H   0  0  0  0  0  0  0  0  0  0  0  0
    4.7508    1.4347    1.4759 H   0  0  0  0  0  0  0  0  0  0  0  0
   -1.7282    3.7863    0.0477 H   0  0  0  0  0  0  0  0  0  0  0  0
   -0.3617    4.7475   -0.6054 H   0  0  0  0  0  0  0  0  0  0  0  0
   -0.2400    4.0043    1.0218 H   0  0  0  0  0  0  0  0  0  0  0  0
   -2.5556    0.5212   -2.4628 H   0  0  0  0  0  0  0  0  0  0  0  0
   -3.9564    1.6576   -2.2595 H   0  0  0  0  0  0  0  0  0  0  0  0
   -3.9298    0.0656   -1.3869 H   0  0  0  0  0  0  0  0  0  0  0  0
   -4.2195    0.3446    2.5677 H   0  0  0  0  0  0  0  0  0  0  0  0
   -5.4429   -0.2070    1.3584 H   0  0  0  0  0  0  0  0  0  0  0  0
   -4.4353    1.2588    1.0184 H   0  0  0  0  0  0  0  0  0  0  0  0
   -0.8957   -2.7833    2.7212 H   0  0  0  0  0  0  0  0  0  0  0  0
   -2.5462   -2.6382    2.0208 H   0  0  0  0  0  0  0  0  0  0  0  0
   -2.1318   -1.7620    3.5238 H   0  0  0  0  0  0  0  0  0  0  0  0
  1 22  1  6  0  0  0
  1 15  1  0  0  0  0
  1  9  1  0  0  0  0
  2  1  1  0  0  0  0
  2  3  1  0  0  0  0
  3 26  1  0  0  0  0
  3  4  1  0  0  0  0
  4 27  1  1  0  0  0
  5 28  1  0  0  0  0
  6  5  1  0  0  0  0
  6 18  1  0  0  0  0
  7  6  2  0  0  0  0
  8 20  1  1  0  0  0
  8  9  1  0  0  0  0
  8  7  1  0  0  0  0
  9 10  2  0  0  0  0
 10  4  1  0  0  0  0
 10  5  1  0  0  0  0
 11  4  1  0  0  0  0
 11 31  1  1  0  0  0
 11 14  1  0  0  0  0
 12 11  1  0  0  0  0
 13 12  1  0  0  0  0
 14 33  1  0  0  0  0
 15 35  1  0  0  0  0
 15 37  1  0  0  0  0
 16 40  1  0  0  0  0
 16 20  1  0  0  0  0
 17 41  1  0  0  0  0
 18 44  1  0  0  0  0
 18 46  1  0  0  0  0
 19 13  3  0  0  0  0
 21  7  1  0  0  0  0
 21 17  1  0  0  0  0
 23  2  1  0  0  0  0
 24  2  1  0  0  0  0
 25  3  1  0  0  0  0
 29 12  1  0  0  0  0
 30 12  1  0  0  0  0
 32 14  1  0  0  0  0
 34 14  1  0  0  0  0
 36 15  1  0  0  0  0
 38 16  1  0  0  0  0
 39 16  1  0  0  0  0
 42 17  1  0  0  0  0
 43 17  1  0  0  0  0
 45 18  1  0  0  0  0
M  END
