3,7
 OpenBabel05122313053D

 52 54  0  0  1  0  0  0  0  0999 V2000
   -1.1627   -1.3498    0.4310 C   0  0  0  0  0  0  0  0  0  0  0  0
   -0.3640   -0.1542    0.4557 C   0  0  1  0  0  3  0  0  0  0  0  0
   -0.6022    0.7705    1.5123 C   0  0  0  0  0  3  0  0  0  0  0  0
   -0.0150    1.6986    1.5287 H   0  0  0  0  0  0  0  0  0  0  0  0
   -1.5799    0.5302    2.5210 C   0  0  0  0  0  3  0  0  0  0  0  0
   -1.7626    1.2801    3.3016 H   0  0  0  0  0  0  0  0  0  0  0  0
   -2.3947   -0.6260    2.4285 C   0  0  0  0  0  3  0  0  0  0  0  0
   -3.2101   -0.7848    3.1482 H   0  0  0  0  0  0  0  0  0  0  0  0
   -2.1857   -1.5838    1.3917 C   0  0  0  0  0  0  0  0  0  0  0  0
   -2.8449   -2.4530    1.2817 H   0  0  0  0  0  0  0  0  0  0  0  0
   -0.9032   -2.2228   -0.5928 O   0  0  0  0  0  0  0  0  0  0  0  0
   -1.2565   -3.6100   -0.4333 C   0  0  0  0  0  0  0  0  0  0  0  0
   -0.6446   -4.1160   -1.2143 H   0  0  0  0  0  0  0  0  0  0  0  0
   -0.9540   -3.9414    0.5817 H   0  0  0  0  0  0  0  0  0  0  0  0
   -2.6044   -3.8735   -0.5650 O   0  0  0  0  0  0  0  0  0  0  0  0
   -3.1179   -3.7077   -1.8863 C   0  0  0  0  0  0  0  0  0  0  0  0
   -4.1715   -4.0413   -1.8642 H   0  0  0  0  0  0  0  0  0  0  0  0
   -2.5529   -4.3366   -2.6125 H   0  0  0  0  0  0  0  0  0  0  0  0
   -3.0795   -2.6487   -2.2161 H   0  0  0  0  0  0  0  0  0  0  0  0
    0.7445    0.0464   -0.6053 C   0  0  0  0  0  0  0  0  0  0  0  0
    0.2171   -0.1426   -1.9159 O   0  0  0  0  0  0  0  0  0  0  0  0
   -0.2100   -1.0246   -1.9061 H   0  0  0  0  0  0  0  0  0  0  0  0
    1.8765   -0.9630   -0.3368 C   0  0  0  0  0  0  0  0  0  0  0  0
    2.1543   -1.4872    0.9354 C   0  0  0  0  0  0  0  0  0  0  0  0
    1.5327   -1.1976    1.7961 H   0  0  0  0  0  0  0  0  0  0  0  0
    3.2179   -2.3838    1.1439 C   0  0  0  0  0  0  0  0  0  0  0  0
    3.4014   -2.7728    2.1544 H   0  0  0  0  0  0  0  0  0  0  0  0
    4.0275   -2.7702    0.0578 C   0  0  0  0  0  0  0  0  0  0  0  0
    3.7557   -2.2460   -1.2259 C   0  0  0  0  0  0  0  0  0  0  0  0
    4.3990   -2.5575   -2.0619 H   0  0  0  0  0  0  0  0  0  0  0  0
    2.6982   -1.3565   -1.4143 C   0  0  0  0  0  0  0  0  0  0  0  0
    2.4818   -0.9506   -2.4129 H   0  0  0  0  0  0  0  0  0  0  0  0
    5.0784   -3.6326    0.1430 O   0  0  0  0  0  0  0  0  0  0  0  0
    5.3976   -4.1769    1.4079 C   0  0  0  0  0  0  0  0  0  0  0  0
    6.2723   -4.8362    1.2554 H   0  0  0  0  0  0  0  0  0  0  0  0
    4.5599   -4.7804    1.8257 H   0  0  0  0  0  0  0  0  0  0  0  0
    5.6656   -3.3870    2.1458 H   0  0  0  0  0  0  0  0  0  0  0  0
    1.2612    1.4878   -0.5629 C   0  0  0  0  0  0  0  0  0  0  0  0
    2.3706    1.8713    0.2061 C   0  0  0  0  0  0  0  0  0  0  0  0
    2.9430    1.1096    0.7559 H   0  0  0  0  0  0  0  0  0  0  0  0
    2.7730    3.2156    0.2866 C   0  0  0  0  0  0  0  0  0  0  0  0
    3.6495    3.4768    0.8943 H   0  0  0  0  0  0  0  0  0  0  0  0
    2.0556    4.2028   -0.4188 C   0  0  0  0  0  0  0  0  0  0  0  0
    0.9446    3.8221   -1.2034 C   0  0  0  0  0  0  0  0  0  0  0  0
    0.3953    4.6037   -1.7475 H   0  0  0  0  0  0  0  0  0  0  0  0
    0.5583    2.4843   -1.2738 C   0  0  0  0  0  0  0  0  0  0  0  0
   -0.3014    2.1867   -1.8882 H   0  0  0  0  0  0  0  0  0  0  0  0
    2.3573    5.5306   -0.4107 O   0  0  0  0  0  0  0  0  0  0  0  0
    3.4615    5.9630    0.3582 C   0  0  0  0  0  0  0  0  0  0  0  0
    3.3305    5.7353    1.4405 H   0  0  0  0  0  0  0  0  0  0  0  0
    3.5253    7.0594    0.2283 H   0  0  0  0  0  0  0  0  0  0  0  0
    4.4153    5.5029    0.0135 H   0  0  0  0  0  0  0  0  0  0  0  0
  1  2  1  0  0  0  0
  1  9  2  0  0  0  0
  2 20  1  1  0  0  0
  2  3  1  0  0  0  0
  3  4  1  0  0  0  0
  3  5  1  0  0  0  0
  5  6  1  0  0  0  0
  7  5  1  0  0  0  0
  7  8  1  0  0  0  0
  9  7  1  0  0  0  0
 10  9  1  0  0  0  0
 11 12  1  0  0  0  0
 11  1  1  0  0  0  0
 12 14  1  0  0  0  0
 13 12  1  0  0  0  0
 15 12  1  0  0  0  0
 16 17  1  0  0  0  0
 16 15  1  0  0  0  0
 18 16  1  0  0  0  0
 19 16  1  0  0  0  0
 20 38  1  0  0  0  0
 20 23  1  0  0  0  0
 21 22  1  0  0  0  0
 21 20  1  0  0  0  0
 23 24  1  0  0  0  0
 24 26  2  0  0  0  0
 24 25  1  0  0  0  0
 26 27  1  0  0  0  0
 28 33  1  0  0  0  0
 28 26  1  0  0  0  0
 29 28  2  0  0  0  0
 30 29  1  0  0  0  0
 31 29  1  0  0  0  0
 31 23  2  0  0  0  0
 32 31  1  0  0  0  0
 33 34  1  0  0  0  0
 34 36  1  0  0  0  0
 34 37  1  0  0  0  0
 35 34  1  0  0  0  0
 38 39  1  0  0  0  0
 39 41  2  0  0  0  0
 39 40  1  0  0  0  0
 41 42  1  0  0  0  0
 43 48  1  0  0  0  0
 43 41  1  0  0  0  0
 44 43  2  0  0  0  0
 45 44  1  0  0  0  0
 46 44  1  0  0  0  0
 46 38  2  0  0  0  0
 47 46  1  0  0  0  0
 48 49  1  0  0  0  0
 49 50  1  0  0  0  0
 51 49  1  0  0  0  0
 52 49  1  0  0  0  0
M  END
