3,7
 OpenBabel05122313053D

 44 46  0  0  1  0  0  0  0  0999 V2000
    0.3802   -1.3217   -0.2788 C   0  0  0  0  0  0  0  0  0  0  0  0
   -0.0041    0.0542   -0.4429 C   0  0  1  0  0  3  0  0  0  0  0  0
    0.6419    0.8003   -1.4697 C   0  0  0  0  0  3  0  0  0  0  0  0
    0.3826    1.8616   -1.5818 H   0  0  0  0  0  0  0  0  0  0  0  0
    1.6181    0.2177   -2.3265 C   0  0  0  0  0  3  0  0  0  0  0  0
    2.1253    0.8297   -3.0833 H   0  0  0  0  0  0  0  0  0  0  0  0
    2.0015   -1.1304   -2.1124 C   0  0  0  0  0  3  0  0  0  0  0  0
    2.7993   -1.5799   -2.7203 H   0  0  0  0  0  0  0  0  0  0  0  0
    1.3675   -1.9206   -1.1101 C   0  0  0  0  0  0  0  0  0  0  0  0
    1.6459   -2.9715   -0.9757 H   0  0  0  0  0  0  0  0  0  0  0  0
   -0.2611   -1.9898    0.7293 O   0  0  0  0  0  0  0  0  0  0  0  0
    0.1793   -3.3118    1.0934 C   0  0  0  0  0  0  0  0  0  0  0  0
    1.2771   -3.3076    1.2544 H   0  0  0  0  0  0  0  0  0  0  0  0
   -0.3579   -3.4990    2.0509 H   0  0  0  0  0  0  0  0  0  0  0  0
   -0.1022   -4.2589    0.1299 O   0  0  0  0  0  0  0  0  0  0  0  0
   -1.4962   -4.4720   -0.0826 C   0  0  0  0  0  0  0  0  0  0  0  0
   -1.5878   -5.2758   -0.8360 H   0  0  0  0  0  0  0  0  0  0  0  0
   -2.0017   -3.5549   -0.4559 H   0  0  0  0  0  0  0  0  0  0  0  0
   -1.9993   -4.7950    0.8579 H   0  0  0  0  0  0  0  0  0  0  0  0
   -1.1199    0.6391    0.4550 C   0  0  0  0  0  0  0  0  0  0  0  0
   -0.8124    0.4389    1.8300 O   0  0  0  0  0  0  0  0  0  0  0  0
   -0.6402   -0.5214    1.9225 H   0  0  0  0  0  0  0  0  0  0  0  0
   -2.7170   -0.5956   -1.1692 C   0  0  0  0  0  0  0  0  0  0  0  0
   -1.9512   -0.5414   -1.9575 H   0  0  0  0  0  0  0  0  0  0  0  0
   -3.9490   -1.2139   -1.4414 C   0  0  0  0  0  0  0  0  0  0  0  0
   -4.1386   -1.6345   -2.4410 H   0  0  0  0  0  0  0  0  0  0  0  0
   -4.9327   -1.2957   -0.4444 C   0  0  0  0  0  0  0  0  0  0  0  0
   -5.8974   -1.7815   -0.6564 H   0  0  0  0  0  0  0  0  0  0  0  0
   -4.6778   -0.7511    0.8253 C   0  0  0  0  0  0  0  0  0  0  0  0
   -5.4450   -0.8071    1.6128 H   0  0  0  0  0  0  0  0  0  0  0  0
   -3.4481   -0.1351    1.0963 C   0  0  0  0  0  0  0  0  0  0  0  0
   -3.2318    0.2854    2.0888 H   0  0  0  0  0  0  0  0  0  0  0  0
   -2.4536   -0.0544    0.1035 C   0  0  0  0  0  0  0  0  0  0  0  0
   -2.0597    2.7361   -0.7089 C   0  0  0  0  0  0  0  0  0  0  0  0
   -2.7301    2.0977   -1.3028 H   0  0  0  0  0  0  0  0  0  0  0  0
   -2.0558    4.1251   -0.9134 C   0  0  0  0  0  0  0  0  0  0  0  0
   -2.7243    4.5660   -1.6686 H   0  0  0  0  0  0  0  0  0  0  0  0
   -1.2088    4.9483   -0.1552 C   0  0  0  0  0  0  0  0  0  0  0  0
   -1.2052    6.0369   -0.3175 H   0  0  0  0  0  0  0  0  0  0  0  0
   -0.3710    4.3755    0.8150 C   0  0  0  0  0  0  0  0  0  0  0  0
    0.2982    5.0113    1.4142 H   0  0  0  0  0  0  0  0  0  0  0  0
   -0.3750    2.9890    1.0219 C   0  0  0  0  0  0  0  0  0  0  0  0
    0.2730    2.5297    1.7796 H   0  0  0  0  0  0  0  0  0  0  0  0
   -1.2137    2.1574    0.2554 C   0  0  0  0  0  0  0  0  0  0  0  0
  1 11  1  0  0  0  0
  2  1  1  0  0  0  0
  2 20  1  6  0  0  0
  3  2  1  0  0  0  0
  4  3  1  0  0  0  0
  5  7  1  0  0  0  0
  5  3  1  0  0  0  0
  6  5  1  0  0  0  0
  7  9  1  0  0  0  0
  8  7  1  0  0  0  0
  9 10  1  0  0  0  0
  9  1  2  0  0  0  0
 11 12  1  0  0  0  0
 12 13  1  0  0  0  0
 12 14  1  0  0  0  0
 15 12  1  0  0  0  0
 16 15  1  0  0  0  0
 16 19  1  0  0  0  0
 17 16  1  0  0  0  0
 18 16  1  0  0  0  0
 20 21  1  0  0  0  0
 21 22  1  0  0  0  0
 23 33  1  0  0  0  0
 24 23  1  0  0  0  0
 25 23  2  0  0  0  0
 25 27  1  0  0  0  0
 26 25  1  0  0  0  0
 27 29  2  0  0  0  0
 28 27  1  0  0  0  0
 29 31  1  0  0  0  0
 29 30  1  0  0  0  0
 31 32  1  0  0  0  0
 33 20  1  0  0  0  0
 33 31  2  0  0  0  0
 34 44  1  0  0  0  0
 35 34  1  0  0  0  0
 36 34  2  0  0  0  0
 36 38  1  0  0  0  0
 37 36  1  0  0  0  0
 38 40  2  0  0  0  0
 39 38  1  0  0  0  0
 40 42  1  0  0  0  0
 40 41  1  0  0  0  0
 42 43  1  0  0  0  0
 44 20  1  0  0  0  0
 44 42  2  0  0  0  0
M  END
