2,16
 OpenBabel05122313053D

 23 23  0  0  0  0  0  0  0  0999 V2000
   -2.2995    0.5163   -1.2665 C   0  0  0  0  0  0  0  0  0  0  0  0
   -0.9080    0.8233   -1.3399 C   0  0  0  0  0  2  0  0  0  0  0  0
    0.0580    0.9411   -2.1026 N   0  0  0  0  0  1  0  0  0  0  0  0
   -2.9598    0.3188   -2.5201 C   0  0  0  0  0  0  0  0  0  0  0  0
   -3.4287    0.1617   -3.5869 N   0  0  0  0  0  0  0  0  0  0  0  0
   -2.9249    0.3208   -0.0320 C   0  0  0  0  0  0  0  0  0  0  0  0
   -4.3790    0.0227   -0.0027 C   0  0  0  0  0  0  0  0  0  0  0  0
   -5.2824    0.8498   -0.7076 C   0  0  0  0  0  0  0  0  0  0  0  0
   -6.6546    0.5705   -0.7070 C   0  0  0  0  0  0  0  0  0  0  0  0
   -7.1461   -0.5454   -0.0121 C   0  0  0  0  0  0  0  0  0  0  0  0
   -6.2581   -1.3753    0.6903 C   0  0  0  0  0  0  0  0  0  0  0  0
   -4.8872   -1.0910    0.7027 C   0  0  0  0  0  0  0  0  0  0  0  0
   -2.1726    0.4033    1.2071 C   0  0  0  0  0  0  0  0  0  0  0  0
   -2.9134    0.2441    2.4307 C   0  0  0  0  0  0  0  0  0  0  0  0
   -3.4884    0.1210    3.4486 N   0  0  0  0  0  0  0  0  0  0  0  0
   -0.7907    0.6807    1.3232 C   0  0  0  0  0  3  0  0  0  0  0  0
   -0.3081    0.7128    2.6632 C   0  0  0  0  0  0  0  0  0  0  0  0
    0.1281    0.7383    3.7601 N   0  0  0  0  0  0  0  0  0  0  0  0
   -4.9030    1.7300   -1.2466 H   0  0  0  0  0  0  0  0  0  0  0  0
   -7.3443    1.2309   -1.2535 H   0  0  0  0  0  0  0  0  0  0  0  0
   -8.2241   -0.7666   -0.0142 H   0  0  0  0  0  0  0  0  0  0  0  0
   -6.6359   -2.2510    1.2389 H   0  0  0  0  0  0  0  0  0  0  0  0
   -4.2003   -1.7439    1.2569 H   0  0  0  0  0  0  0  0  0  0  0  0
  1  6  2  0  0  0  0
  2  1  1  0  0  0  0
  3  2  1  0  0  0  0
  4  1  1  0  0  0  0
  5  4  3  0  0  0  0
  6  7  1  0  0  0  0
  6 13  1  0  0  0  0
  7 12  1  0  0  0  0
  8  9  1  0  0  0  0
  8  7  2  0  0  0  0
  9 10  2  0  0  0  0
 10 11  1  0  0  0  0
 11 12  2  0  0  0  0
 11 22  1  0  0  0  0
 12 23  1  0  0  0  0
 13 16  2  0  0  0  0
 13 14  1  0  0  0  0
 14 15  3  0  0  0  0
 16 17  1  0  0  0  0
 17 18  3  0  0  0  0
 19  8  1  0  0  0  0
 20  9  1  0  0  0  0
 21 10  1  0  0  0  0
M  END
