10,12
 OpenBabel05122313053D

 60 63  0  0  1  0  0  0  0  0999 V2000
   -0.7596   -2.6792   -1.7602 O   0  0  0  0  0  0  0  0  0  0  0  0
    2.4026    0.8779   -0.7075 O   0  0  0  0  0  0  0  0  0  0  0  0
   -0.9415   -1.4632   -1.1988 C   0  0  0  0  0  0  0  0  0  0  0  0
   -1.7349   -3.6842   -1.5144 C   0  0  0  0  0  0  0  0  0  0  0  0
   -1.8370   -3.8829   -0.4258 H   0  0  0  0  0  0  0  0  0  0  0  0
   -1.3694   -4.5978   -2.0170 H   0  0  0  0  0  0  0  0  0  0  0  0
   -2.7250   -3.4064   -1.9376 H   0  0  0  0  0  0  0  0  0  0  0  0
    0.1628   -0.5681   -1.2686 C   0  0  0  0  0  3  0  0  0  0  0  0
    1.1032   -0.9077   -1.7184 H   0  0  0  0  0  0  0  0  0  0  0  0
    0.0643    0.7429   -0.7283 C   0  0  2  0  0  3  0  0  0  0  0  0
   -1.1397    1.1799   -0.0766 C   0  0  1  0  0  3  0  0  0  0  0  0
   -2.2369    0.2627    0.0172 C   0  0  2  0  0  3  0  0  0  0  0  0
   -2.1253   -1.0570   -0.5315 C   0  0  0  0  0  0  0  0  0  0  0  0
   -2.9633   -1.7490   -0.4113 H   0  0  0  0  0  0  0  0  0  0  0  0
   -3.5806    0.6840    0.5910 C   0  0  1  0  0  0  0  0  0  0  0  0
   -3.9522   -0.1424    1.2325 H   0  0  0  0  0  0  0  0  0  0  0  0
   -3.4734    1.9499    1.4585 C   0  0  0  0  0  0  0  0  0  0  0  0
   -4.4933    2.3242    1.6829 H   0  0  0  0  0  0  0  0  0  0  0  0
   -3.0130    1.6819    2.4324 H   0  0  0  0  0  0  0  0  0  0  0  0
   -2.6242    3.0323    0.7879 C   0  0  0  0  0  0  0  0  0  0  0  0
   -3.0433    3.3064   -0.2057 H   0  0  0  0  0  0  0  0  0  0  0  0
   -2.6263    3.9604    1.3961 H   0  0  0  0  0  0  0  0  0  0  0  0
   -1.1879    2.5319    0.6346 C   0  0  2  0  0  0  0  0  0  0  0  0
   -0.8097    2.3503    1.6646 H   0  0  0  0  0  0  0  0  0  0  0  0
   -0.2224    3.5282   -0.0061 C   0  0  0  0  0  0  0  0  0  0  0  0
   -0.2130    4.4643    0.5894 H   0  0  0  0  0  0  0  0  0  0  0  0
   -0.5771    3.8076   -1.0226 H   0  0  0  0  0  0  0  0  0  0  0  0
    1.1853    2.9305   -0.0639 C   0  0  0  0  0  0  0  0  0  0  0  0
    1.5005    2.6341    0.9581 H   0  0  0  0  0  0  0  0  0  0  0  0
    1.9130    3.6844   -0.4266 H   0  0  0  0  0  0  0  0  0  0  0  0
    1.2512    1.6859   -0.9701 C   0  0  1  0  0  0  0  0  0  0  0  0
    3.6787    1.4781   -0.7147 C   0  0  0  0  0  0  0  0  0  0  0  0
    3.7594    2.2572    0.0820 H   0  0  0  0  0  0  0  0  0  0  0  0
    3.8946    1.9893   -1.6845 H   0  0  0  0  0  0  0  0  0  0  0  0
    4.7245    0.4131   -0.4650 C   0  0  0  0  0  0  0  0  0  0  0  0
    6.0778    0.6827   -0.7466 C   0  0  0  0  0  0  0  0  0  0  0  0
    6.3618    1.6567   -1.1782 H   0  0  0  0  0  0  0  0  0  0  0  0
    7.0657   -0.2773   -0.4853 C   0  0  0  0  0  0  0  0  0  0  0  0
    8.1196   -0.0536   -0.7113 H   0  0  0  0  0  0  0  0  0  0  0  0
    6.7097   -1.5236    0.0561 C   0  0  0  0  0  0  0  0  0  0  0  0
    7.4836   -2.2797    0.2587 H   0  0  0  0  0  0  0  0  0  0  0  0
    5.3620   -1.7990    0.3330 C   0  0  0  0  0  0  0  0  0  0  0  0
    5.0728   -2.7736    0.7556 H   0  0  0  0  0  0  0  0  0  0  0  0
    4.3725   -0.8370    0.0765 C   0  0  0  0  0  0  0  0  0  0  0  0
    3.3156   -1.0485    0.2903 H   0  0  0  0  0  0  0  0  0  0  0  0
    1.2244    2.0944   -2.4597 C   0  0  0  0  0  0  0  0  0  0  0  0
    2.0674    2.7750   -2.6933 H   0  0  0  0  0  0  0  0  0  0  0  0
    0.2844    2.6208   -2.7142 H   0  0  0  0  0  0  0  0  0  0  0  0
    1.3028    1.1991   -3.1053 H   0  0  0  0  0  0  0  0  0  0  0  0
   -4.6068    0.8953   -0.5663 C   0  0  0  0  0  0  0  0  0  0  0  0
   -5.5099    1.3556   -0.1060 H   0  0  0  0  0  0  0  0  0  0  0  0
   -4.1982    1.6382   -1.2806 H   0  0  0  0  0  0  0  0  0  0  0  0
   -5.0380   -0.3420   -1.3200 C   0  0  0  0  0  0  0  0  0  0  0  0
   -4.7367   -0.5158   -2.6243 C   0  0  0  0  0  0  0  0  0  0  0  0
   -5.0667   -1.4101   -3.1773 H   0  0  0  0  0  0  0  0  0  0  0  0
   -4.1515    0.2332   -3.1809 H   0  0  0  0  0  0  0  0  0  0  0  0
   -5.8376   -1.3576   -0.5443 C   0  0  0  0  0  0  0  0  0  0  0  0
   -6.1281   -2.2225   -1.1709 H   0  0  0  0  0  0  0  0  0  0  0  0
   -6.7630   -0.9014   -0.1311 H   0  0  0  0  0  0  0  0  0  0  0  0
   -5.2736   -1.7444    0.3327 H   0  0  0  0  0  0  0  0  0  0  0  0
  1  4  1  0  0  0  0
  1  3  1  0  0  0  0
  3 13  2  0  0  0  0
  4  5  1  0  0  0  0
  6  4  1  0  0  0  0
  7  4  1  0  0  0  0
  8  3  1  0  0  0  0
  9  8  1  0  0  0  0
 10  8  1  6  0  0  0
 10 11  1  0  0  0  0
 11 12  1  0  0  0  0
 11 23  1  0  0  0  0
 12 15  1  0  0  0  0
 13 14  1  0  0  0  0
 13 12  1  0  0  0  0
 15 16  1  0  0  0  0
 15 17  1  0  0  0  0
 17 18  1  0  0  0  0
 17 19  1  0  0  0  0
 20 22  1  0  0  0  0
 20 17  1  0  0  0  0
 21 20  1  0  0  0  0
 23 20  1  0  0  0  0
 23 24  1  0  0  0  0
 25 26  1  0  0  0  0
 25 23  1  0  0  0  0
 27 25  1  0  0  0  0
 28 25  1  0  0  0  0
 28 29  1  0  0  0  0
 30 28  1  0  0  0  0
 31 10  1  0  0  0  0
 31  2  1  0  0  0  0
 31 28  1  0  0  0  0
 32  2  1  0  0  0  0
 32 35  1  0  0  0  0
 32 33  1  0  0  0  0
 34 32  1  0  0  0  0
 35 44  1  0  0  0  0
 36 38  1  0  0  0  0
 36 35  2  0  0  0  0
 37 36  1  0  0  0  0
 38 40  2  0  0  0  0
 39 38  1  0  0  0  0
 40 41  1  0  0  0  0
 40 42  1  0  0  0  0
 42 43  1  0  0  0  0
 44 45  1  0  0  0  0
 44 42  2  0  0  0  0
 46 31  1  0  0  0  0
 47 46  1  0  0  0  0
 48 46  1  0  0  0  0
 49 46  1  0  0  0  0
 50 51  1  0  0  0  0
 50 15  1  0  0  0  0
 52 50  1  0  0  0  0
 53 50  1  0  0  0  0
 53 57  1  0  0  0  0
 54 53  2  0  0  0  0
 55 54  1  0  0  0  0
 56 54  1  0  0  0  0
 57 59  1  0  0  0  0
 57 60  1  0  0  0  0
 58 57  1  0  0  0  0
M  END
