5
 OpenBabel05122313053D

 63 66  0  0  1  0  0  0  0  0999 V2000
   -2.1008    1.2900    0.3670 O   0  0  0  0  0  0  0  0  0  0  0  0
    0.3967   -2.6052    2.2776 O   0  0  0  0  0  0  0  0  0  0  0  0
    0.1684    0.7375    0.6321 C   0  0  1  0  0  3  0  0  0  0  0  0
    1.4922    0.8482    0.0958 C   0  0  1  0  0  3  0  0  0  0  0  0
    2.4060   -0.2389    0.3072 C   0  0  2  0  0  3  0  0  0  0  0  0
    1.9916   -1.3917    1.0393 C   0  0  0  0  0  3  0  0  0  0  0  0
    2.6718   -2.2422    1.1781 H   0  0  0  0  0  0  0  0  0  0  0  0
    0.6827   -1.4777    1.5902 C   0  0  0  0  0  0  0  0  0  0  0  0
   -0.2380   -0.4200    1.3638 C   0  0  0  0  0  0  0  0  0  0  0  0
   -1.2804   -0.4698    1.6968 H   0  0  0  0  0  0  0  0  0  0  0  0
   -0.9579   -2.8458    2.6445 C   0  0  0  0  0  0  0  0  0  0  0  0
   -1.3323   -2.0797    3.3573 H   0  0  0  0  0  0  0  0  0  0  0  0
   -0.9704   -3.8348    3.1369 H   0  0  0  0  0  0  0  0  0  0  0  0
   -1.6164   -2.8742    1.7508 H   0  0  0  0  0  0  0  0  0  0  0  0
    3.8578   -0.1586   -0.1392 C   0  0  1  0  0  0  0  0  0  0  0  0
    4.1170   -1.1390   -0.5910 H   0  0  0  0  0  0  0  0  0  0  0  0
    4.1039    0.9442   -1.1816 C   0  0  0  0  0  0  0  0  0  0  0  0
    5.1955    1.1113   -1.2792 H   0  0  0  0  0  0  0  0  0  0  0  0
    3.7409    0.5976   -2.1713 H   0  0  0  0  0  0  0  0  0  0  0  0
    3.3864    2.2450   -0.8137 C   0  0  0  0  0  0  0  0  0  0  0  0
    3.7187    2.6114    0.1831 H   0  0  0  0  0  0  0  0  0  0  0  0
    3.6371    3.0447   -1.5410 H   0  0  0  0  0  0  0  0  0  0  0  0
    1.8741    2.0163   -0.8127 C   0  0  2  0  0  0  0  0  0  0  0  0
    1.6049    1.7004   -1.8445 H   0  0  0  0  0  0  0  0  0  0  0  0
    1.0344    3.2575   -0.5124 C   0  0  0  0  0  0  0  0  0  0  0  0
    1.2496    4.0361   -1.2730 H   0  0  0  0  0  0  0  0  0  0  0  0
    1.3279    3.6917    0.4683 H   0  0  0  0  0  0  0  0  0  0  0  0
   -0.4563    2.9086   -0.5270 C   0  0  0  0  0  0  0  0  0  0  0  0
   -0.7236    2.4576   -1.5055 H   0  0  0  0  0  0  0  0  0  0  0  0
   -1.0693    3.8249   -0.4091 H   0  0  0  0  0  0  0  0  0  0  0  0
   -0.8246    1.9052    0.5813 C   0  0  1  0  0  0  0  0  0  0  0  0
   -3.2300    2.1321    0.1659 C   0  0  0  0  0  0  0  0  0  0  0  0
   -3.1202    2.7082   -0.7831 H   0  0  0  0  0  0  0  0  0  0  0  0
   -3.3460    2.8722    0.9918 H   0  0  0  0  0  0  0  0  0  0  0  0
   -4.4556    1.2558    0.0922 C   0  0  0  0  0  0  0  0  0  0  0  0
   -5.5037    1.3849    1.0180 C   0  0  0  0  0  0  0  0  0  0  0  0
   -5.4367    2.1458    1.8125 H   0  0  0  0  0  0  0  0  0  0  0  0
   -6.6341    0.5554    0.9437 C   0  0  0  0  0  0  0  0  0  0  0  0
   -7.4467    0.6752    1.6780 H   0  0  0  0  0  0  0  0  0  0  0  0
   -6.7426   -0.4349   -0.0502 C   0  0  0  0  0  0  0  0  0  0  0  0
   -5.6800   -0.5641   -0.9721 C   0  0  0  0  0  0  0  0  0  0  0  0
   -5.7389   -1.3333   -1.7590 H   0  0  0  0  0  0  0  0  0  0  0  0
   -4.5560    0.2659   -0.9078 C   0  0  0  0  0  0  0  0  0  0  0  0
   -3.7379    0.1469   -1.6341 H   0  0  0  0  0  0  0  0  0  0  0  0
   -7.9521   -1.3314   -0.1410 C   0  0  0  0  0  0  0  0  0  0  0  0
   -7.6642   -2.4029   -0.1108 H   0  0  0  0  0  0  0  0  0  0  0  0
   -8.4977   -1.1753   -1.0955 H   0  0  0  0  0  0  0  0  0  0  0  0
   -8.6630   -1.1461    0.6875 H   0  0  0  0  0  0  0  0  0  0  0  0
   -0.7979    2.5840    1.9701 C   0  0  0  0  0  0  0  0  0  0  0  0
   -1.4825    3.4552    1.9952 H   0  0  0  0  0  0  0  0  0  0  0  0
    0.2172    2.9446    2.2237 H   0  0  0  0  0  0  0  0  0  0  0  0
   -1.1110    1.8650    2.7511 H   0  0  0  0  0  0  0  0  0  0  0  0
    4.7474    0.0314    1.1257 C   0  0  0  0  0  0  0  0  0  0  0  0
    4.4550    0.9687    1.6423 H   0  0  0  0  0  0  0  0  0  0  0  0
    4.5219   -0.7964    1.8337 H   0  0  0  0  0  0  0  0  0  0  0  0
    6.2319    0.0442    0.8427 C   0  0  0  0  0  0  0  0  0  0  0  0
    6.8109   -1.2032    0.2268 C   0  0  0  0  0  0  0  0  0  0  0  0
    7.9128   -1.1469    0.1403 H   0  0  0  0  0  0  0  0  0  0  0  0
    6.4005   -1.3813   -0.7907 H   0  0  0  0  0  0  0  0  0  0  0  0
    6.5522   -2.1021    0.8273 H   0  0  0  0  0  0  0  0  0  0  0  0
    6.9921    1.1212    1.1319 C   0  0  0  0  0  0  0  0  0  0  0  0
    8.0772    1.1275    0.9413 H   0  0  0  0  0  0  0  0  0  0  0  0
    6.5529    2.0287    1.5762 H   0  0  0  0  0  0  0  0  0  0  0  0
  1 31  1  0  0  0  0
  2 11  1  0  0  0  0
  3  9  1  1  0  0  0
  4  5  1  0  0  0  0
  4  3  1  0  0  0  0
  5  6  1  0  0  0  0
  6  7  1  0  0  0  0
  6  8  1  0  0  0  0
  8  2  1  0  0  0  0
  9  8  2  0  0  0  0
  9 10  1  0  0  0  0
 11 13  1  0  0  0  0
 11 12  1  0  0  0  0
 14 11  1  0  0  0  0
 15  5  1  0  0  0  0
 15 53  1  0  0  0  0
 16 15  1  0  0  0  0
 17 20  1  0  0  0  0
 17 15  1  0  0  0  0
 18 17  1  0  0  0  0
 19 17  1  0  0  0  0
 20 23  1  0  0  0  0
 20 21  1  0  0  0  0
 22 20  1  0  0  0  0
 23 25  1  0  0  0  0
 23  4  1  0  0  0  0
 24 23  1  0  0  0  0
 25 27  1  0  0  0  0
 26 25  1  0  0  0  0
 28 25  1  0  0  0  0
 28 30  1  0  0  0  0
 28 31  1  0  0  0  0
 29 28  1  0  0  0  0
 31  3  1  0  0  0  0
 31 49  1  0  0  0  0
 32  1  1  0  0  0  0
 32 34  1  0  0  0  0
 33 32  1  0  0  0  0
 35 32  1  0  0  0  0
 35 36  1  0  0  0  0
 36 37  1  0  0  0  0
 38 36  2  0  0  0  0
 38 39  1  0  0  0  0
 40 38  1  0  0  0  0
 41 43  1  0  0  0  0
 41 40  2  0  0  0  0
 42 41  1  0  0  0  0
 43 35  2  0  0  0  0
 44 43  1  0  0  0  0
 45 46  1  0  0  0  0
 45 40  1  0  0  0  0
 45 48  1  0  0  0  0
 47 45  1  0  0  0  0
 49 50  1  0  0  0  0
 49 51  1  0  0  0  0
 49 52  1  0  0  0  0
 53 54  1  0  0  0  0
 53 55  1  0  0  0  0
 56 53  1  0  0  0  0
 56 61  2  0  0  0  0
 57 60  1  0  0  0  0
 57 56  1  0  0  0  0
 58 57  1  0  0  0  0
 59 57  1  0  0  0  0
 61 63  1  0  0  0  0
 62 61  1  0  0  0  0
M  END
