1,4
 OpenBabel05122313053D

 20 20  0  0  1  0  0  0  0  0999 V2000
    0.1963   -0.3484    1.5343 C   0  0  0  0  0  3  0  0  0  0  0  0
   -1.0074   -0.8680    2.1454 C   0  0  0  0  0  0  0  0  0  0  0  0
   -1.5365   -1.8652    1.2846 C   0  0  0  0  0  0  0  0  0  0  0  0
   -0.6636   -1.9684    0.1377 C   0  0  0  0  0  3  0  0  0  0  0  0
    0.4576   -1.0897    0.3289 C   0  0  1  0  0  3  0  0  0  0  0  0
    1.5867   -0.9648   -0.6124 C   0  0  0  0  0  0  0  0  0  0  0  0
    1.7206   -1.6165   -1.6332 O   0  0  0  0  0  0  0  0  0  0  0  0
    2.4816   -0.0253   -0.1907 O   0  0  0  0  0  0  0  0  0  0  0  0
    3.6223    0.1891   -1.0487 C   0  0  0  0  0  0  0  0  0  0  0  0
    4.5414    1.1373   -0.3003 C   0  0  0  0  0  0  0  0  0  0  0  0
    4.9878    0.5888    0.9212 O   0  0  0  0  0  0  0  0  0  0  0  0
    0.8498    0.4252    1.9534 H   0  0  0  0  0  0  0  0  0  0  0  0
   -1.4394   -0.5338    3.0960 H   0  0  0  0  0  0  0  0  0  0  0  0
   -2.4533   -2.4436    1.4473 H   0  0  0  0  0  0  0  0  0  0  0  0
   -0.7719   -2.6556   -0.7100 H   0  0  0  0  0  0  0  0  0  0  0  0
    3.2851    0.6078   -2.0213 H   0  0  0  0  0  0  0  0  0  0  0  0
    4.1159   -0.7850   -1.2458 H   0  0  0  0  0  0  0  0  0  0  0  0
    5.4367    1.3341   -0.9265 H   0  0  0  0  0  0  0  0  0  0  0  0
    4.0175    2.1166   -0.1613 H   0  0  0  0  0  0  0  0  0  0  0  0
    4.1799    0.3129    1.3951 H   0  0  0  0  0  0  0  0  0  0  0  0
  1 12  1  0  0  0  0
  1  2  1  0  0  0  0
  2 13  1  0  0  0  0
  3 14  1  0  0  0  0
  3  2  2  0  0  0  0
  4  5  1  0  0  0  0
  4  3  1  0  0  0  0
  5  6  1  6  0  0  0
  5  1  1  0  0  0  0
  6  8  1  0  0  0  0
  7  6  2  0  0  0  0
  9 10  1  0  0  0  0
  9  8  1  0  0  0  0
 10 19  1  0  0  0  0
 10 11  1  0  0  0  0
 11 20  1  0  0  0  0
 15  4  1  0  0  0  0
 16  9  1  0  0  0  0
 17  9  1  0  0  0  0
 18 10  1  0  0  0  0
M  END
