1,12
 OpenBabel05122313053D

 40 41  0  0  1  0  0  0  0  0999 V2000
   -0.8633   -1.8996    0.4052 C   0  0  1  0  0  3  0  0  0  0  0  0
   -0.4951   -2.1999   -0.9464 C   0  0  0  0  0  3  0  0  0  0  0  0
   -1.0955   -2.0052   -1.8429 H   0  0  0  0  0  0  0  0  0  0  0  0
    0.8094   -2.7864   -0.9430 C   0  0  0  0  0  0  0  0  0  0  0  0
    1.3644   -3.1128   -1.8298 H   0  0  0  0  0  0  0  0  0  0  0  0
    1.2692   -2.8263    0.3947 C   0  0  0  0  0  0  0  0  0  0  0  0
    2.2456   -3.1892    0.7352 H   0  0  0  0  0  0  0  0  0  0  0  0
    0.2487   -2.2692    1.2271 C   0  0  0  0  0  3  0  0  0  0  0  0
    0.3166   -2.1269    2.3127 H   0  0  0  0  0  0  0  0  0  0  0  0
   -1.9467   -0.9198    0.8350 C   0  0  1  0  0  0  0  0  0  0  0  0
   -2.0595   -1.0066    1.9348 H   0  0  0  0  0  0  0  0  0  0  0  0
   -1.2624    0.4205    0.5589 C   0  0  1  0  0  3  0  0  0  0  0  0
   -0.3391    1.0093    1.4944 C   0  0  1  0  0  3  0  0  0  0  0  0
    0.4108    2.0285    0.8089 C   0  0  0  0  0  0  0  0  0  0  0  0
   -0.0213    2.0542   -0.5481 C   0  0  0  0  0  0  0  0  0  0  0  0
   -1.0366    1.0441   -0.7215 C   0  0  2  0  0  3  0  0  0  0  0  0
   -0.2102    0.7369    2.9663 C   0  0  0  0  0  0  0  0  0  0  0  0
   -0.5281    1.6284    3.5482 H   0  0  0  0  0  0  0  0  0  0  0  0
    0.8389    0.5181    3.2504 H   0  0  0  0  0  0  0  0  0  0  0  0
   -0.8384   -0.1109    3.2985 H   0  0  0  0  0  0  0  0  0  0  0  0
    1.3950    2.9405    1.4709 C   0  0  0  0  0  0  0  0  0  0  0  0
    0.8866    3.5943    2.2112 H   0  0  0  0  0  0  0  0  0  0  0  0
    1.9077    3.5920    0.7388 H   0  0  0  0  0  0  0  0  0  0  0  0
    2.1746    2.3630    2.0087 H   0  0  0  0  0  0  0  0  0  0  0  0
    0.4154    3.0073   -1.6163 C   0  0  0  0  0  0  0  0  0  0  0  0
    0.7642    2.4654   -2.5195 H   0  0  0  0  0  0  0  0  0  0  0  0
    1.2470    3.6503   -1.2728 H   0  0  0  0  0  0  0  0  0  0  0  0
   -0.4237    3.6682   -1.9203 H   0  0  0  0  0  0  0  0  0  0  0  0
   -1.7703    0.8657   -2.0213 C   0  0  0  0  0  0  0  0  0  0  0  0
   -2.5577    1.6433   -2.1228 H   0  0  0  0  0  0  0  0  0  0  0  0
   -2.2712   -0.1130   -2.1104 H   0  0  0  0  0  0  0  0  0  0  0  0
   -1.0798    0.9680   -2.8805 H   0  0  0  0  0  0  0  0  0  0  0  0
   -3.3397   -1.1531    0.2229 C   0  0  0  0  0  0  0  0  0  0  0  0
   -3.2886   -1.2533   -0.8786 H   0  0  0  0  0  0  0  0  0  0  0  0
   -3.6982   -2.1365    0.6017 H   0  0  0  0  0  0  0  0  0  0  0  0
   -4.3173   -0.0760    0.5981 C   0  0  0  0  0  0  0  0  0  0  0  0
   -4.4149    0.1257    1.6815 H   0  0  0  0  0  0  0  0  0  0  0  0
   -5.0539    0.6436   -0.2652 C   0  0  0  0  0  0  0  0  0  0  0  0
   -4.9862    0.4804   -1.3538 H   0  0  0  0  0  0  0  0  0  0  0  0
   -5.7550    1.4182    0.0816 H   0  0  0  0  0  0  0  0  0  0  0  0
  1 10  1  6  0  0  0
  1  8  1  0  0  0  0
  2  4  1  0  0  0  0
  2  1  1  0  0  0  0
  3  2  1  0  0  0  0
  4  6  2  0  0  0  0
  5  4  1  0  0  0  0
  6  7  1  0  0  0  0
  6  8  1  0  0  0  0
  8  9  1  0  0  0  0
 10 11  1  1  0  0  0
 12 10  1  6  0  0  0
 12 13  1  0  0  0  0
 13 17  1  1  0  0  0
 14 21  1  0  0  0  0
 14 13  1  0  0  0  0
 15 14  2  0  0  0  0
 16 29  1  1  0  0  0
 16 15  1  0  0  0  0
 16 12  1  0  0  0  0
 17 19  1  0  0  0  0
 17 20  1  0  0  0  0
 17 18  1  0  0  0  0
 21 24  1  0  0  0  0
 21 22  1  0  0  0  0
 23 21  1  0  0  0  0
 25 27  1  0  0  0  0
 25 15  1  0  0  0  0
 26 25  1  0  0  0  0
 28 25  1  0  0  0  0
 30 29  1  0  0  0  0
 31 29  1  0  0  0  0
 32 29  1  0  0  0  0
 33 36  1  0  0  0  0
 33 35  1  0  0  0  0
 33 10  1  0  0  0  0
 34 33  1  0  0  0  0
 36 37  1  0  0  0  0
 38 40  1  0  0  0  0
 38 36  2  0  0  0  0
 39 38  1  0  0  0  0
M  END
