1,12
 OpenBabel05122313053D

 45 46  0  0  1  0  0  0  0  0999 V2000
    0.7441   -1.7805   -0.5301 C   0  0  2  0  0  3  0  0  0  0  0  0
   -0.2512   -2.0570   -1.5204 C   0  0  0  0  0  3  0  0  0  0  0  0
   -0.2062   -1.7532   -2.5737 H   0  0  0  0  0  0  0  0  0  0  0  0
   -1.3289   -2.7665   -0.9034 C   0  0  0  0  0  0  0  0  0  0  0  0
   -2.2429   -3.1051   -1.4045 H   0  0  0  0  0  0  0  0  0  0  0  0
   -1.0211   -2.9152    0.4699 C   0  0  0  0  0  0  0  0  0  0  0  0
   -1.6535   -3.3899    1.2286 H   0  0  0  0  0  0  0  0  0  0  0  0
    0.2446   -2.2939    0.7108 C   0  0  0  0  0  3  0  0  0  0  0  0
    0.7329   -2.2161    1.6894 H   0  0  0  0  0  0  0  0  0  0  0  0
    1.8209   -0.7146   -0.6843 C   0  0  1  0  0  0  0  0  0  0  0  0
    2.0397   -0.6265   -1.7663 H   0  0  0  0  0  0  0  0  0  0  0  0
    1.0449    0.5431   -0.2832 C   0  0  1  0  0  3  0  0  0  0  0  0
    0.2037    1.2506   -1.2140 C   0  0  1  0  0  3  0  0  0  0  0  0
   -0.6647    2.1225   -0.4674 C   0  0  0  0  0  0  0  0  0  0  0  0
   -0.3866    1.9390    0.9175 C   0  0  0  0  0  0  0  0  0  0  0  0
    0.6506    0.9448    1.0446 C   0  0  2  0  0  3  0  0  0  0  0  0
    0.2545    1.2182   -2.7151 C   0  0  0  0  0  0  0  0  0  0  0  0
   -0.7456    1.0261   -3.1531 H   0  0  0  0  0  0  0  0  0  0  0  0
    0.9496    0.4480   -3.0992 H   0  0  0  0  0  0  0  0  0  0  0  0
    0.6015    2.1985   -3.1065 H   0  0  0  0  0  0  0  0  0  0  0  0
   -1.6134    3.1006   -1.0855 C   0  0  0  0  0  0  0  0  0  0  0  0
   -2.2323    3.6097   -0.3231 H   0  0  0  0  0  0  0  0  0  0  0  0
   -2.3020    2.5952   -1.7933 H   0  0  0  0  0  0  0  0  0  0  0  0
   -1.0597    3.8805   -1.6507 H   0  0  0  0  0  0  0  0  0  0  0  0
   -0.9779    2.6918    2.0678 C   0  0  0  0  0  0  0  0  0  0  0  0
   -0.2071    3.3194    2.5636 H   0  0  0  0  0  0  0  0  0  0  0  0
   -1.3919    1.9999    2.8298 H   0  0  0  0  0  0  0  0  0  0  0  0
   -1.7987    3.3572    1.7411 H   0  0  0  0  0  0  0  0  0  0  0  0
    1.2416    0.5742    2.3773 C   0  0  0  0  0  0  0  0  0  0  0  0
    1.9017   -0.3081    2.3285 H   0  0  0  0  0  0  0  0  0  0  0  0
    0.4473    0.3660    3.1212 H   0  0  0  0  0  0  0  0  0  0  0  0
    1.8496    1.4171    2.7719 H   0  0  0  0  0  0  0  0  0  0  0  0
    3.1473   -0.9973    0.0334 C   0  0  0  0  0  0  0  0  0  0  0  0
    3.6417   -1.8456   -0.4900 H   0  0  0  0  0  0  0  0  0  0  0  0
    2.9604   -1.3615    1.0643 H   0  0  0  0  0  0  0  0  0  0  0  0
    4.1132    0.1989    0.0912 C   0  0  0  0  0  0  0  0  0  0  0  0
    3.6046    1.0090    0.6615 H   0  0  0  0  0  0  0  0  0  0  0  0
    4.4402    0.7507   -1.3023 C   0  0  0  0  0  0  0  0  0  0  0  0
    5.1689    1.5840   -1.2383 H   0  0  0  0  0  0  0  0  0  0  0  0
    3.5398    1.1420   -1.8175 H   0  0  0  0  0  0  0  0  0  0  0  0
    4.8885   -0.0357   -1.9471 H   0  0  0  0  0  0  0  0  0  0  0  0
    5.3886   -0.1833    0.8511 C   0  0  0  0  0  0  0  0  0  0  0  0
    5.9412   -0.9878    0.3202 H   0  0  0  0  0  0  0  0  0  0  0  0
    5.1593   -0.5543    1.8713 H   0  0  0  0  0  0  0  0  0  0  0  0
    6.0745    0.6821    0.9521 H   0  0  0  0  0  0  0  0  0  0  0  0
  1 10  1  1  0  0  0
  1  8  1  0  0  0  0
  2  4  1  0  0  0  0
  2  1  1  0  0  0  0
  3  2  1  0  0  0  0
  4  6  2  0  0  0  0
  5  4  1  0  0  0  0
  6  8  1  0  0  0  0
  6  7  1  0  0  0  0
  8  9  1  0  0  0  0
 10 11  1  6  0  0  0
 10 33  1  0  0  0  0
 12 10  1  1  0  0  0
 12 16  1  0  0  0  0
 13 17  1  6  0  0  0
 13 14  1  0  0  0  0
 13 12  1  0  0  0  0
 14 15  2  0  0  0  0
 15 16  1  0  0  0  0
 15 25  1  0  0  0  0
 16 29  1  6  0  0  0
 18 17  1  0  0  0  0
 19 17  1  0  0  0  0
 20 17  1  0  0  0  0
 21 14  1  0  0  0  0
 21 22  1  0  0  0  0
 23 21  1  0  0  0  0
 24 21  1  0  0  0  0
 25 26  1  0  0  0  0
 25 27  1  0  0  0  0
 28 25  1  0  0  0  0
 29 32  1  0  0  0  0
 29 31  1  0  0  0  0
 30 29  1  0  0  0  0
 33 36  1  0  0  0  0
 33 35  1  0  0  0  0
 34 33  1  0  0  0  0
 36 37  1  0  0  0  0
 36 42  1  0  0  0  0
 38 39  1  0  0  0  0
 38 36  1  0  0  0  0
 40 38  1  0  0  0  0
 41 38  1  0  0  0  0
 42 45  1  0  0  0  0
 42 44  1  0  0  0  0
 43 42  1  0  0  0  0
M  END
