14,18
 OpenBabel05122313053D

 61 63  0  0  1  0  0  0  0  0999 V2000
    4.4200   -0.5549   -0.6315 N   0  0  0  0  0  0  0  0  0  0  0  0
    1.0767   -0.8234    1.9633 N   0  0  0  0  0  0  0  0  0  0  0  0
   -1.0641   -0.8525    2.3154 N   0  0  0  0  0  0  0  0  0  0  0  0
    1.2177    2.1168    0.2347 N   0  0  0  0  0  0  0  0  0  0  0  0
   -0.8952    2.5954    0.3542 N   0  0  0  0  0  0  0  0  0  0  0  0
    3.1693    1.3264    2.3934 C   0  0  0  0  0  0  0  0  0  0  0  0
    3.0881    0.5466    1.0797 C   0  0  1  0  0  0  0  0  0  0  0  0
    4.4677    0.1508    0.5181 C   0  0  0  0  0  0  0  0  0  0  0  0
    5.6857    0.4900    1.1345 C   0  0  0  0  0  0  0  0  0  0  0  0
    6.8852    0.0804    0.5309 C   0  0  0  0  0  0  0  0  0  0  0  0
    6.8325   -0.6508   -0.6620 C   0  0  0  0  0  0  0  0  0  0  0  0
    5.5694   -0.9424   -1.2020 C   0  0  0  0  0  0  0  0  0  0  0  0
    2.3690   -0.8225    1.2847 C   0  0  0  0  0  0  0  0  0  0  0  0
   -0.1319   -0.7446    1.3205 C   0  0  0  0  0  2  0  0  0  0  0  0
    0.8969   -0.9845    3.3354 C   0  0  0  0  0  0  0  0  0  0  0  0
   -0.4538   -1.0033    3.5568 C   0  0  0  0  0  0  0  0  0  0  0  0
    2.4650    1.4176   -0.0567 C   0  0  0  0  0  0  0  0  0  0  0  0
   -0.0283    1.6112   -0.0339 C   0  0  0  0  0  2  0  0  0  0  0  0
    1.1258    3.3989    0.7708 C   0  0  0  0  0  0  0  0  0  0  0  0
   -0.2073    3.7007    0.8459 C   0  0  0  0  0  0  0  0  0  0  0  0
   -2.5071   -0.8694    2.0791 C   0  0  0  0  0  0  0  0  0  0  0  0
   -3.1431   -2.2426    2.2955 C   0  0  0  0  0  0  0  0  0  0  0  0
   -4.6255   -2.2598    1.9103 C   0  0  0  0  0  0  0  0  0  0  0  0
   -5.2856   -3.6219    2.1226 C   0  0  0  0  0  0  0  0  0  0  0  0
   -2.3501    2.4905    0.2480 C   0  0  0  0  0  0  0  0  0  0  0  0
   -2.9588    3.4617   -0.7664 C   0  0  0  0  0  0  0  0  0  0  0  0
   -4.4460    3.1912   -1.0333 C   0  0  0  0  0  0  0  0  0  0  0  0
   -5.3541    3.3421    0.1896 C   0  0  0  0  0  0  0  0  0  0  0  0
    2.1562    1.5820    2.7610 H   0  0  0  0  0  0  0  0  0  0  0  0
    3.7296    2.2746    2.2715 H   0  0  0  0  0  0  0  0  0  0  0  0
    3.6740    0.7369    3.1846 H   0  0  0  0  0  0  0  0  0  0  0  0
    5.7104    1.0641    2.0702 H   0  0  0  0  0  0  0  0  0  0  0  0
    7.8515    0.3328    0.9929 H   0  0  0  0  0  0  0  0  0  0  0  0
    7.7480   -0.9908   -1.1673 H   0  0  0  0  0  0  0  0  0  0  0  0
    5.4810   -1.5173   -2.1404 H   0  0  0  0  0  0  0  0  0  0  0  0
    3.0430   -1.4711    1.8785 H   0  0  0  0  0  0  0  0  0  0  0  0
    2.2371   -1.2953    0.2951 H   0  0  0  0  0  0  0  0  0  0  0  0
    1.7370   -1.0882    4.0279 H   0  0  0  0  0  0  0  0  0  0  0  0
   -1.0255   -1.1214    4.4820 H   0  0  0  0  0  0  0  0  0  0  0  0
    3.2090    2.1888   -0.3385 H   0  0  0  0  0  0  0  0  0  0  0  0
    2.2951    0.7712   -0.9382 H   0  0  0  0  0  0  0  0  0  0  0  0
    2.0083    3.9887    1.0340 H   0  0  0  0  0  0  0  0  0  0  0  0
   -0.7174    4.6038    1.1935 H   0  0  0  0  0  0  0  0  0  0  0  0
   -2.9820   -0.1049    2.7298 H   0  0  0  0  0  0  0  0  0  0  0  0
   -2.6352   -0.5455    1.0248 H   0  0  0  0  0  0  0  0  0  0  0  0
   -3.0245   -2.5534    3.3567 H   0  0  0  0  0  0  0  0  0  0  0  0
   -2.5861   -2.9930    1.6925 H   0  0  0  0  0  0  0  0  0  0  0  0
   -5.1662   -1.4836    2.4962 H   0  0  0  0  0  0  0  0  0  0  0  0
   -4.7241   -1.9548    0.8441 H   0  0  0  0  0  0  0  0  0  0  0  0
   -6.3538   -3.6042    1.8303 H   0  0  0  0  0  0  0  0  0  0  0  0
   -5.2354   -3.9336    3.1861 H   0  0  0  0  0  0  0  0  0  0  0  0
   -4.7867   -4.4102    1.5219 H   0  0  0  0  0  0  0  0  0  0  0  0
   -2.7843    2.6381    1.2582 H   0  0  0  0  0  0  0  0  0  0  0  0
   -2.5485    1.4403   -0.0522 H   0  0  0  0  0  0  0  0  0  0  0  0
   -2.8240    4.5077   -0.4128 H   0  0  0  0  0  0  0  0  0  0  0  0
   -2.3876    3.3808   -1.7158 H   0  0  0  0  0  0  0  0  0  0  0  0
   -4.7843    3.8843   -1.8314 H   0  0  0  0  0  0  0  0  0  0  0  0
   -4.5550    2.1686   -1.4601 H   0  0  0  0  0  0  0  0  0  0  0  0
   -6.4192    3.2135   -0.0863 H   0  0  0  0  0  0  0  0  0  0  0  0
   -5.2504    4.3477    0.6481 H   0  0  0  0  0  0  0  0  0  0  0  0
   -5.1325    2.5917    0.9767 H   0  0  0  0  0  0  0  0  0  0  0  0
  1  8  1  0  0  0  0
  2 15  1  0  0  0  0
  3 16  1  0  0  0  0
  4 19  1  0  0  0  0
  5 20  1  0  0  0  0
  6 29  1  0  0  0  0
  6 31  1  0  0  0  0
  7 17  1  6  0  0  0
  7 13  1  0  0  0  0
  7  6  1  0  0  0  0
  8  7  1  0  0  0  0
  8  9  2  0  0  0  0
  9 32  1  0  0  0  0
 10 33  1  0  0  0  0
 10  9  1  0  0  0  0
 11 10  2  0  0  0  0
 12 11  1  0  0  0  0
 12  1  2  0  0  0  0
 13 36  1  0  0  0  0
 13  2  1  0  0  0  0
 14  2  1  0  0  0  0
 14  3  1  0  0  0  0
 15 16  2  0  0  0  0
 15 38  1  0  0  0  0
 16 39  1  0  0  0  0
 17  4  1  0  0  0  0
 18  4  1  0  0  0  0
 18  5  1  0  0  0  0
 19 20  2  0  0  0  0
 19 42  1  0  0  0  0
 20 43  1  0  0  0  0
 21 22  1  0  0  0  0
 21  3  1  0  0  0  0
 21 44  1  0  0  0  0
 22 46  1  0  0  0  0
 23 24  1  0  0  0  0
 23 22  1  0  0  0  0
 23 48  1  0  0  0  0
 24 51  1  0  0  0  0
 25  5  1  0  0  0  0
 25 53  1  0  0  0  0
 26 55  1  0  0  0  0
 26 25  1  0  0  0  0
 27 26  1  0  0  0  0
 27 28  1  0  0  0  0
 28 60  1  0  0  0  0
 28 61  1  0  0  0  0
 30  6  1  0  0  0  0
 34 11  1  0  0  0  0
 35 12  1  0  0  0  0
 37 13  1  0  0  0  0
 40 17  1  0  0  0  0
 41 17  1  0  0  0  0
 45 21  1  0  0  0  0
 47 22  1  0  0  0  0
 49 23  1  0  0  0  0
 50 24  1  0  0  0  0
 52 24  1  0  0  0  0
 54 25  1  0  0  0  0
 56 26  1  0  0  0  0
 57 27  1  0  0  0  0
 58 27  1  0  0  0  0
 59 28  1  0  0  0  0
M  END
