2,4
 OpenBabel05122313053D

 16 17  0  0  0  0  0  0  0  0999 V2000
    1.9927    1.1063    1.5436 C   0  0  0  0  0  0  0  0  0  0  0  0
    3.3410    0.7166    1.2089 C   0  0  0  0  0  3  0  0  0  0  0  0
    3.4386   -0.6894    1.3686 C   0  0  0  0  0  3  0  0  0  0  0  0
    2.1564   -1.2105    1.7142 C   0  0  0  0  0  3  0  0  0  0  0  0
    1.2617   -0.0997    1.8961 C   0  0  0  0  0  0  0  0  0  0  0  0
   -0.1031   -0.0119    2.2958 C   0  0  0  0  0  0  0  0  0  0  0  0
   -0.7135    1.2322    2.3006 C   0  0  0  0  0  0  0  0  0  0  0  0
   -0.0125    2.4089    1.8937 C   0  0  0  0  0  0  0  0  0  0  0  0
    1.3199    2.3614    1.5135 C   0  0  0  0  0  0  0  0  0  0  0  0
    4.1423    1.3910    0.8893 H   0  0  0  0  0  0  0  0  0  0  0  0
    4.3280   -1.2937    1.1547 H   0  0  0  0  0  0  0  0  0  0  0  0
    1.9023   -2.2693    1.8389 H   0  0  0  0  0  0  0  0  0  0  0  0
   -0.6509   -0.9190    2.5873 H   0  0  0  0  0  0  0  0  0  0  0  0
   -1.7673    1.3179    2.6051 H   0  0  0  0  0  0  0  0  0  0  0  0
   -0.5472    3.3700    1.8817 H   0  0  0  0  0  0  0  0  0  0  0  0
    1.8576    3.2668    1.1978 H   0  0  0  0  0  0  0  0  0  0  0  0
  1  5  1  0  0  0  0
  2  3  1  0  0  0  0
  2  1  1  0  0  0  0
  3  4  1  0  0  0  0
  4 12  1  0  0  0  0
  4  5  1  0  0  0  0
  5  6  2  0  0  0  0
  6  7  1  0  0  0  0
  6 13  1  0  0  0  0
  7 14  1  0  0  0  0
  8  7  2  0  0  0  0
  9  1  2  0  0  0  0
  9  8  1  0  0  0  0
 10  2  1  0  0  0  0
 11  3  1  0  0  0  0
 15  8  1  0  0  0  0
 16  9  1  0  0  0  0
M  END
