5,9
 OpenBabel05122313053D

 34 35  0  0  0  0  0  0  0  0999 V2000
    0.0308   -1.4339   -1.4934 C   0  0  0  0  0  3  0  0  0  0  0  0
   -0.0013   -2.5306   -1.4910 H   0  0  0  0  0  0  0  0  0  0  0  0
    0.9659   -0.7569   -0.6507 C   0  0  0  0  0  0  0  0  0  0  0  0
    1.0185    0.6947   -0.6799 C   0  0  0  0  0  0  0  0  0  0  0  0
    0.0571    1.3806   -1.4823 C   0  0  0  0  0  3  0  0  0  0  0  0
    0.0480    2.4791   -1.4763 H   0  0  0  0  0  0  0  0  0  0  0  0
   -0.8736    0.6983   -2.3289 C   0  0  0  0  0  3  0  0  0  0  0  0
   -1.5833    1.2665   -2.9443 H   0  0  0  0  0  0  0  0  0  0  0  0
   -0.8939   -0.7158   -2.3125 C   0  0  0  0  0  3  0  0  0  0  0  0
   -1.6225   -1.2665   -2.9239 H   0  0  0  0  0  0  0  0  0  0  0  0
    1.9822   -1.5843    0.1468 C   0  0  0  0  0  0  0  0  0  0  0  0
    2.6104   -0.7013    1.2462 C   0  0  0  0  0  0  0  0  0  0  0  0
    1.8485   -0.5085    2.0300 H   0  0  0  0  0  0  0  0  0  0  0  0
    3.4235   -1.2752    1.7379 H   0  0  0  0  0  0  0  0  0  0  0  0
    3.1503    0.6126    0.6981 C   0  0  0  0  0  0  0  0  0  0  0  0
    3.9142    0.4017   -0.0798 H   0  0  0  0  0  0  0  0  0  0  0  0
    3.6792    1.1774    1.4934 H   0  0  0  0  0  0  0  0  0  0  0  0
    2.0546    1.5273    0.1005 C   0  0  0  0  0  0  0  0  0  0  0  0
    3.0626   -2.0662   -0.8526 C   0  0  0  0  0  0  0  0  0  0  0  0
    2.6209   -2.7410   -1.6127 H   0  0  0  0  0  0  0  0  0  0  0  0
    3.8562   -2.6263   -0.3168 H   0  0  0  0  0  0  0  0  0  0  0  0
    3.5390   -1.2260   -1.3946 H   0  0  0  0  0  0  0  0  0  0  0  0
    1.3444   -2.8172    0.8132 C   0  0  0  0  0  0  0  0  0  0  0  0
    0.5217   -2.5267    1.4933 H   0  0  0  0  0  0  0  0  0  0  0  0
    2.1136   -3.3510    1.4069 H   0  0  0  0  0  0  0  0  0  0  0  0
    0.9443   -3.5408    0.0761 H   0  0  0  0  0  0  0  0  0  0  0  0
    2.7409    2.5218   -0.8634 C   0  0  0  0  0  0  0  0  0  0  0  0
    3.1640    2.0004   -1.7459 H   0  0  0  0  0  0  0  0  0  0  0  0
    3.5717    3.0362   -0.3389 H   0  0  0  0  0  0  0  0  0  0  0  0
    2.0467    3.3052   -1.2266 H   0  0  0  0  0  0  0  0  0  0  0  0
    1.3682    2.3223    1.2329 C   0  0  0  0  0  0  0  0  0  0  0  0
    0.5349    2.9431    0.8493 H   0  0  0  0  0  0  0  0  0  0  0  0
    2.1031    2.9958    1.7201 H   0  0  0  0  0  0  0  0  0  0  0  0
    0.9454    1.6473    2.0007 H   0  0  0  0  0  0  0  0  0  0  0  0
  1  2  1  0  0  0  0
  1  3  1  0  0  0  0
  3 11  1  0  0  0  0
  4  3  2  0  0  0  0
  4 18  1  0  0  0  0
  5  6  1  0  0  0  0
  5  4  1  0  0  0  0
  7  9  1  0  0  0  0
  7  5  1  0  0  0  0
  8  7  1  0  0  0  0
  9  1  1  0  0  0  0
 10  9  1  0  0  0  0
 11 23  1  0  0  0  0
 11 12  1  0  0  0  0
 12 14  1  0  0  0  0
 12 13  1  0  0  0  0
 15 12  1  0  0  0  0
 15 17  1  0  0  0  0
 16 15  1  0  0  0  0
 18 15  1  0  0  0  0
 18 31  1  0  0  0  0
 19 21  1  0  0  0  0
 19 11  1  0  0  0  0
 20 19  1  0  0  0  0
 22 19  1  0  0  0  0
 23 25  1  0  0  0  0
 23 24  1  0  0  0  0
 26 23  1  0  0  0  0
 27 29  1  0  0  0  0
 27 18  1  0  0  0  0
 28 27  1  0  0  0  0
 30 27  1  0  0  0  0
 31 33  1  0  0  0  0
 31 34  1  0  0  0  0
 32 31  1  0  0  0  0
M  END
