2,18
 OpenBabel05122313053D

 32 31  0  0  0  0  0  0  0  0999 V2000
    1.0837    2.6909    0.7042 C   0  0  0  0  0  0  0  0  0  0  0  0
    1.2905    1.3309    0.1390 C   0  0  0  0  0  2  0  0  0  0  0  0
    2.5580    0.7895   -0.0585 C   0  0  0  0  0  0  0  0  0  0  0  0
    3.7813    1.5953    0.1579 C   0  0  0  0  0  0  0  0  0  0  0  0
    0.7614    2.9055    1.8616 O   0  0  0  0  0  0  0  0  0  0  0  0
    1.2177    3.6739   -0.2246 O   0  0  0  0  0  0  0  0  0  0  0  0
    1.1368    5.0104    0.2825 C   0  0  0  0  0  0  0  0  0  0  0  0
    1.1310    5.6756   -0.5998 H   0  0  0  0  0  0  0  0  0  0  0  0
    2.0216    5.2217    0.9164 H   0  0  0  0  0  0  0  0  0  0  0  0
    0.2193    5.1525    0.8873 H   0  0  0  0  0  0  0  0  0  0  0  0
    3.8147    2.7237    0.6315 O   0  0  0  0  0  0  0  0  0  0  0  0
    4.9054    0.9331   -0.2322 O   0  0  0  0  0  0  0  0  0  0  0  0
    6.1357    1.6226   -0.0129 C   0  0  0  0  0  0  0  0  0  0  0  0
    6.9316    0.9570   -0.3923 H   0  0  0  0  0  0  0  0  0  0  0  0
    6.2864    1.8310    1.0661 H   0  0  0  0  0  0  0  0  0  0  0  0
    6.1503    2.5906   -0.5539 H   0  0  0  0  0  0  0  0  0  0  0  0
    1.1731   -2.7041    0.1566 C   0  0  0  0  0  0  0  0  0  0  0  0
    1.2951   -1.2494   -0.0744 C   0  0  0  0  0  2  0  0  0  0  0  0
    2.5487   -0.6725   -0.2361 C   0  0  0  0  0  0  0  0  0  0  0  0
    3.7746   -1.4839   -0.5360 C   0  0  0  0  0  0  0  0  0  0  0  0
    1.9839   -3.5669   -0.1692 O   0  0  0  0  0  0  0  0  0  0  0  0
    0.0180   -3.0059    0.8145 O   0  0  0  0  0  0  0  0  0  0  0  0
   -0.1956   -4.3918    1.0752 C   0  0  0  0  0  0  0  0  0  0  0  0
   -1.1308   -4.4517    1.6603 H   0  0  0  0  0  0  0  0  0  0  0  0
    0.6504   -4.8285    1.6441 H   0  0  0  0  0  0  0  0  0  0  0  0
   -0.3021   -4.9597    0.1276 H   0  0  0  0  0  0  0  0  0  0  0  0
    4.1604   -1.6928   -1.6727 O   0  0  0  0  0  0  0  0  0  0  0  0
    4.3700   -1.9568    0.5778 O   0  0  0  0  0  0  0  0  0  0  0  0
    5.4578   -2.8553    0.3420 C   0  0  0  0  0  0  0  0  0  0  0  0
    5.8692   -3.1102    1.3351 H   0  0  0  0  0  0  0  0  0  0  0  0
    6.2346   -2.3817   -0.2921 H   0  0  0  0  0  0  0  0  0  0  0  0
    5.0909   -3.7680   -0.1700 H   0  0  0  0  0  0  0  0  0  0  0  0
  1  5  2  0  0  0  0
  2  1  1  0  0  0  0
  3  2  1  0  0  0  0
  3  4  1  0  0  0  0
  4 11  2  0  0  0  0
  6  7  1  0  0  0  0
  6  1  1  0  0  0  0
  7 10  1  0  0  0  0
  7  9  1  0  0  0  0
  8  7  1  0  0  0  0
 12 13  1  0  0  0  0
 12  4  1  0  0  0  0
 13 15  1  0  0  0  0
 14 13  1  0  0  0  0
 16 13  1  0  0  0  0
 17 22  1  0  0  0  0
 18 17  1  0  0  0  0
 19 18  1  0  0  0  0
 19  3  2  0  0  0  0
 20 19  1  0  0  0  0
 20 28  1  0  0  0  0
 21 17  2  0  0  0  0
 22 23  1  0  0  0  0
 23 25  1  0  0  0  0
 23 24  1  0  0  0  0
 26 23  1  0  0  0  0
 27 20  2  0  0  0  0
 29 28  1  0  0  0  0
 29 30  1  0  0  0  0
 31 29  1  0  0  0  0
 32 29  1  0  0  0  0
M  END
