6,12
 OpenBabel05122313053D

 15 15  0  0  1  0  0  0  0  0999 V2000
   -0.4196    2.2307   -2.2942 C   0  0  0  0  0  3  0  0  0  0  0  0
    0.3036    2.3677   -3.1080 H   0  0  0  0  0  0  0  0  0  0  0  0
   -2.2063    1.4684   -1.0462 C   0  0  0  0  0  0  0  0  0  0  0  0
   -3.0935    0.9093   -0.7258 H   0  0  0  0  0  0  0  0  0  0  0  0
   -0.4615    3.0174   -1.0947 C   0  0  2  0  0  3  0  0  0  0  0  0
    1.2923    2.4746    0.2311 C   0  0  0  0  0  3  0  0  0  0  0  0
    1.0986    2.5332    1.3163 H   0  0  0  0  0  0  0  0  0  0  0  0
    2.3549    2.2589    0.0259 H   0  0  0  0  0  0  0  0  0  0  0  0
    0.7445    3.7039   -0.5110 C   0  0  0  0  0  0  0  0  0  0  0  0
    0.4828    4.5565    0.1441 H   0  0  0  0  0  0  0  0  0  0  0  0
    1.4153    4.0709   -1.3104 H   0  0  0  0  0  0  0  0  0  0  0  0
   -1.4915    1.2647   -2.2689 C   0  0  0  0  0  3  0  0  0  0  0  0
   -1.7493    0.5648   -3.0714 H   0  0  0  0  0  0  0  0  0  0  0  0
   -1.5730    2.5405   -0.3249 C   0  0  0  0  0  0  0  0  0  0  0  0
   -1.8557    2.9078    0.6698 H   0  0  0  0  0  0  0  0  0  0  0  0
  1 12  1  0  0  0  0
  1  5  1  0  0  0  0
  2  1  1  0  0  0  0
  3  4  1  0  0  0  0
  3 14  2  0  0  0  0
  5  9  1  1  0  0  0
  5 14  1  0  0  0  0
  6  7  1  0  0  0  0
  8  6  1  0  0  0  0
  9 10  1  0  0  0  0
  9  6  1  0  0  0  0
 11  9  1  0  0  0  0
 12  3  1  0  0  0  0
 13 12  1  0  0  0  0
 14 15  1  0  0  0  0
M  END
