1
 OpenBabel05122313053D

 72 75  0  0  1  0  0  0  0  0999 V2000
    0.8064    1.6799   -1.1832 C   0  0  2  0  0  3  0  0  0  0  0  0
    2.0405    1.0503   -0.7452 C   0  0  0  0  0  0  0  0  0  0  0  0
    2.1727   -0.2107   -1.4645 C   0  0  0  0  0  0  0  0  0  0  0  0
    1.0461   -0.3323   -2.3639 C   0  0  0  0  0  0  0  0  0  0  0  0
    0.2464    0.8428   -2.2130 C   0  0  0  0  0  0  0  0  0  0  0  0
   -0.9729    1.1270   -3.0438 C   0  0  0  0  0  0  0  0  0  0  0  0
    0.7832   -1.3725   -3.4156 C   0  0  0  0  0  0  0  0  0  0  0  0
    3.2909   -1.0825   -1.2307 C   0  0  0  0  0  0  0  0  0  0  0  0
    3.3615   -2.3912   -1.9712 C   0  0  0  0  0  0  0  0  0  0  0  0
    4.2246   -0.7046   -0.2604 C   0  0  0  0  0  0  0  0  0  0  0  0
    4.1286    0.5737    0.4075 C   0  0  0  0  0  0  0  0  0  0  0  0
    3.0909    1.4744    0.1420 C   0  0  0  0  0  0  0  0  0  0  0  0
    3.1731    2.8936    0.6602 C   0  0  0  0  0  0  0  0  0  0  0  0
    5.2145    0.9353    1.3935 C   0  0  0  0  0  0  0  0  0  0  0  0
    5.3774   -1.5955    0.1356 C   0  0  0  0  0  0  0  0  0  0  0  0
    0.2069    2.9954   -0.7431 C   0  0  0  0  0  0  0  0  0  0  0  0
   -0.7108    1.1260   -4.1219 H   0  0  0  0  0  0  0  0  0  0  0  0
   -1.4100    2.1143   -2.8130 H   0  0  0  0  0  0  0  0  0  0  0  0
   -1.7619    0.3626   -2.8916 H   0  0  0  0  0  0  0  0  0  0  0  0
   -0.2440   -1.2740   -3.8103 H   0  0  0  0  0  0  0  0  0  0  0  0
    1.4857   -1.2556   -4.2689 H   0  0  0  0  0  0  0  0  0  0  0  0
    0.8759   -2.4036   -3.0336 H   0  0  0  0  0  0  0  0  0  0  0  0
    4.3239   -2.9116   -1.8322 H   0  0  0  0  0  0  0  0  0  0  0  0
    3.2180   -2.2540   -3.0589 H   0  0  0  0  0  0  0  0  0  0  0  0
    2.5610   -3.0741   -1.6141 H   0  0  0  0  0  0  0  0  0  0  0  0
    4.1809    3.3164    0.4755 H   0  0  0  0  0  0  0  0  0  0  0  0
    2.4559    3.5600    0.1559 H   0  0  0  0  0  0  0  0  0  0  0  0
    2.9966    2.9727    1.7538 H   0  0  0  0  0  0  0  0  0  0  0  0
    5.0174    1.8844    1.9203 H   0  0  0  0  0  0  0  0  0  0  0  0
    6.2091    1.0232    0.9054 H   0  0  0  0  0  0  0  0  0  0  0  0
    5.3221    0.1477    2.1675 H   0  0  0  0  0  0  0  0  0  0  0  0
    5.3096   -1.8636    1.2109 H   0  0  0  0  0  0  0  0  0  0  0  0
    6.3572   -1.0922   -0.0010 H   0  0  0  0  0  0  0  0  0  0  0  0
    5.4094   -2.5422   -0.4279 H   0  0  0  0  0  0  0  0  0  0  0  0
   -0.6835    3.1845   -1.3694 H   0  0  0  0  0  0  0  0  0  0  0  0
    0.8918    3.8450   -0.9559 H   0  0  0  0  0  0  0  0  0  0  0  0
   -0.8065    1.6802    1.1828 C   0  0  2  0  0  3  0  0  0  0  0  0
   -2.0405    1.0506    0.7449 C   0  0  0  0  0  0  0  0  0  0  0  0
   -2.1728   -0.2102    1.4645 C   0  0  0  0  0  0  0  0  0  0  0  0
   -1.0463   -0.3315    2.3641 C   0  0  0  0  0  0  0  0  0  0  0  0
   -0.2466    0.8435    2.2128 C   0  0  0  0  0  0  0  0  0  0  0  0
    0.9728    1.1280    3.0437 C   0  0  0  0  0  0  0  0  0  0  0  0
   -0.7834   -1.3715    3.4161 C   0  0  0  0  0  0  0  0  0  0  0  0
   -3.2909   -1.0821    1.2310 C   0  0  0  0  0  0  0  0  0  0  0  0
   -3.3617   -2.3905    1.9718 C   0  0  0  0  0  0  0  0  0  0  0  0
   -4.2246   -0.7045    0.2604 C   0  0  0  0  0  0  0  0  0  0  0  0
   -4.1285    0.5736   -0.4079 C   0  0  0  0  0  0  0  0  0  0  0  0
   -3.0908    1.4744   -0.1425 C   0  0  0  0  0  0  0  0  0  0  0  0
   -3.1730    2.8935   -0.6611 C   0  0  0  0  0  0  0  0  0  0  0  0
   -5.2143    0.9349   -1.3941 C   0  0  0  0  0  0  0  0  0  0  0  0
   -5.3773   -1.5955   -0.1355 C   0  0  0  0  0  0  0  0  0  0  0  0
   -0.2070    2.9957    0.7422 C   0  0  0  0  0  0  0  0  0  0  0  0
    0.7106    1.1271    4.1217 H   0  0  0  0  0  0  0  0  0  0  0  0
    1.4098    2.1153    2.8127 H   0  0  0  0  0  0  0  0  0  0  0  0
    1.7619    0.3636    2.8916 H   0  0  0  0  0  0  0  0  0  0  0  0
    0.2439   -1.2729    3.8107 H   0  0  0  0  0  0  0  0  0  0  0  0
   -1.4859   -1.2543    4.2693 H   0  0  0  0  0  0  0  0  0  0  0  0
   -0.8761   -2.4027    3.0343 H   0  0  0  0  0  0  0  0  0  0  0  0
   -4.3242   -2.9109    1.8331 H   0  0  0  0  0  0  0  0  0  0  0  0
   -3.2181   -2.2529    3.0595 H   0  0  0  0  0  0  0  0  0  0  0  0
   -2.5613   -3.0737    1.6150 H   0  0  0  0  0  0  0  0  0  0  0  0
   -4.1807    3.3163   -0.4766 H   0  0  0  0  0  0  0  0  0  0  0  0
   -2.4558    3.5600   -0.1570 H   0  0  0  0  0  0  0  0  0  0  0  0
   -2.9964    2.9722   -1.7548 H   0  0  0  0  0  0  0  0  0  0  0  0
   -5.0172    1.8839   -1.9211 H   0  0  0  0  0  0  0  0  0  0  0  0
   -6.2090    1.0229   -0.9062 H   0  0  0  0  0  0  0  0  0  0  0  0
   -5.3218    0.1471   -2.1678 H   0  0  0  0  0  0  0  0  0  0  0  0
   -5.3094   -1.8638   -1.2108 H   0  0  0  0  0  0  0  0  0  0  0  0
   -6.3571   -1.0923    0.0009 H   0  0  0  0  0  0  0  0  0  0  0  0
   -5.4092   -2.5422    0.4282 H   0  0  0  0  0  0  0  0  0  0  0  0
    0.6834    3.1849    1.3685 H   0  0  0  0  0  0  0  0  0  0  0  0
   -0.8918    3.8453    0.9548 H   0  0  0  0  0  0  0  0  0  0  0  0
  1  2  1  0  0  0  0
  1 16  1  6  0  0  0
  2 12  1  0  0  0  0
  3  8  1  0  0  0  0
  3  2  2  0  0  0  0
  4  5  2  0  0  0  0
  4  3  1  0  0  0  0
  5  1  1  0  0  0  0
  6 19  1  0  0  0  0
  6 18  1  0  0  0  0
  6  5  1  0  0  0  0
  7 22  1  0  0  0  0
  7  4  1  0  0  0  0
  8 10  2  0  0  0  0
  9 23  1  0  0  0  0
  9 25  1  0  0  0  0
  9  8  1  0  0  0  0
 10 15  1  0  0  0  0
 10 11  1  0  0  0  0
 11 14  1  0  0  0  0
 12 11  2  0  0  0  0
 12 13  1  0  0  0  0
 13 28  1  0  0  0  0
 14 29  1  0  0  0  0
 14 31  1  0  0  0  0
 15 32  1  0  0  0  0
 16 52  1  0  0  0  0
 17  6  1  0  0  0  0
 20  7  1  0  0  0  0
 21  7  1  0  0  0  0
 24  9  1  0  0  0  0
 26 13  1  0  0  0  0
 27 13  1  0  0  0  0
 30 14  1  0  0  0  0
 33 15  1  0  0  0  0
 34 15  1  0  0  0  0
 35 16  1  0  0  0  0
 36 16  1  0  0  0  0
 37 52  1  1  0  0  0
 37 41  1  0  0  0  0
 38 37  1  0  0  0  0
 38 39  1  0  0  0  0
 39 40  1  0  0  0  0
 40 43  1  0  0  0  0
 41 40  2  0  0  0  0
 41 42  1  0  0  0  0
 42 53  1  0  0  0  0
 43 56  1  0  0  0  0
 43 57  1  0  0  0  0
 44 39  2  0  0  0  0
 44 45  1  0  0  0  0
 45 60  1  0  0  0  0
 46 44  1  0  0  0  0
 47 48  1  0  0  0  0
 47 46  2  0  0  0  0
 48 38  2  0  0  0  0
 49 62  1  0  0  0  0
 49 63  1  0  0  0  0
 49 48  1  0  0  0  0
 50 66  1  0  0  0  0
 50 47  1  0  0  0  0
 51 69  1  0  0  0  0
 51 46  1  0  0  0  0
 51 70  1  0  0  0  0
 52 72  1  0  0  0  0
 52 71  1  0  0  0  0
 54 42  1  0  0  0  0
 55 42  1  0  0  0  0
 58 43  1  0  0  0  0
 59 45  1  0  0  0  0
 61 45  1  0  0  0  0
 64 49  1  0  0  0  0
 65 50  1  0  0  0  0
 67 50  1  0  0  0  0
 68 51  1  0  0  0  0
M  END
