1,9
 OpenBabel05122313053D

 12 12  0  0  0  0  0  0  0  0999 V2000
   -2.0342   -0.5017    1.2858 C   0  0  0  0  0  3  0  0  0  0  0  0
   -2.1192   -1.2392    2.0986 H   0  0  0  0  0  0  0  0  0  0  0  0
   -1.5589    0.8299    1.5675 C   0  0  0  0  0  3  0  0  0  0  0  0
   -1.3022    1.1236    2.5964 H   0  0  0  0  0  0  0  0  0  0  0  0
   -1.3661    1.7482    0.4994 C   0  0  0  0  0  0  0  0  0  0  0  0
   -0.9578    2.7480    0.7082 H   0  0  0  0  0  0  0  0  0  0  0  0
   -1.6549    1.3511   -0.8550 C   0  0  0  0  0  0  0  0  0  0  0  0
   -1.4563    2.0406   -1.6878 H   0  0  0  0  0  0  0  0  0  0  0  0
   -2.1120    0.0372   -1.1255 C   0  0  0  0  0  3  0  0  0  0  0  0
   -2.2310   -0.2989   -2.1653 H   0  0  0  0  0  0  0  0  0  0  0  0
   -2.3103   -0.8977   -0.0474 C   0  0  0  0  0  3  0  0  0  0  0  0
   -2.5837   -1.9387   -0.2689 H   0  0  0  0  0  0  0  0  0  0  0  0
  1  3  1  0  0  0  0
  1  2  1  0  0  0  0
  3  4  1  0  0  0  0
  5  6  1  0  0  0  0
  5  3  1  0  0  0  0
  7  5  2  0  0  0  0
  8  7  1  0  0  0  0
  9  7  1  0  0  0  0
  9 11  1  0  0  0  0
 10  9  1  0  0  0  0
 11  1  1  0  0  0  0
 12 11  1  0  0  0  0
M  END
