2,5
 OpenBabel05122313053D

 35 36  0  0  0  0  0  0  0  0999 V2000
    1.9767    2.7214   -0.4003 O   0  0  0  0  0  0  0  0  0  0  0  0
    0.1668    1.3510    0.4626 C   0  0  0  0  0  3  0  0  0  0  0  0
    1.5722    1.6156   -0.0482 C   0  0  0  0  0  0  0  0  0  0  0  0
    2.3964    0.3538   -0.1182 C   0  0  0  0  0  0  0  0  0  0  0  0
    1.6282   -0.7594   -0.3074 C   0  0  0  0  0  3  0  0  0  0  0  0
   -0.8377    2.4431    0.3539 C   0  0  0  0  0  0  0  0  0  0  0  0
   -0.9632    3.2448   -0.8051 C   0  0  0  0  0  0  0  0  0  0  0  0
   -1.9786    4.2030   -0.9116 C   0  0  0  0  0  0  0  0  0  0  0  0
   -2.9080    4.4140    0.1304 C   0  0  0  0  0  0  0  0  0  0  0  0
   -2.7751    3.6242    1.2894 C   0  0  0  0  0  0  0  0  0  0  0  0
   -1.7613    2.6633    1.3984 C   0  0  0  0  0  0  0  0  0  0  0  0
   -3.9784    5.4701    0.0163 C   0  0  0  0  0  0  0  0  0  0  0  0
    3.8727    0.3945   -0.0391 C   0  0  0  0  0  0  0  0  0  0  0  0
    4.5521    1.5048    0.5147 C   0  0  0  0  0  0  0  0  0  0  0  0
    5.9485    1.5131    0.6271 C   0  0  0  0  0  0  0  0  0  0  0  0
    6.7303    0.4271    0.1886 C   0  0  0  0  0  0  0  0  0  0  0  0
    6.0536   -0.6778   -0.3725 C   0  0  0  0  0  0  0  0  0  0  0  0
    4.6612   -0.6921   -0.4883 C   0  0  0  0  0  0  0  0  0  0  0  0
    8.2349    0.4506    0.2789 C   0  0  0  0  0  0  0  0  0  0  0  0
    0.2555    1.0268    1.5182 H   0  0  0  0  0  0  0  0  0  0  0  0
    2.0764   -1.7698   -0.3802 H   0  0  0  0  0  0  0  0  0  0  0  0
   -0.2508    3.1159   -1.6319 H   0  0  0  0  0  0  0  0  0  0  0  0
   -2.0524    4.8094   -1.8290 H   0  0  0  0  0  0  0  0  0  0  0  0
   -3.4856    3.7604    2.1206 H   0  0  0  0  0  0  0  0  0  0  0  0
   -1.6922    2.0467    2.3090 H   0  0  0  0  0  0  0  0  0  0  0  0
   -3.5780    6.4760    0.2693 H   0  0  0  0  0  0  0  0  0  0  0  0
   -4.3807    5.5358   -1.0148 H   0  0  0  0  0  0  0  0  0  0  0  0
   -4.8237    5.2724    0.7047 H   0  0  0  0  0  0  0  0  0  0  0  0
    3.9752    2.3765    0.8499 H   0  0  0  0  0  0  0  0  0  0  0  0
    6.4470    2.3917    1.0673 H   0  0  0  0  0  0  0  0  0  0  0  0
    6.6357   -1.5409   -0.7342 H   0  0  0  0  0  0  0  0  0  0  0  0
    4.1690   -1.5615   -0.9497 H   0  0  0  0  0  0  0  0  0  0  0  0
    8.6391   -0.5246    0.6195 H   0  0  0  0  0  0  0  0  0  0  0  0
    8.6929    0.6588   -0.7124 H   0  0  0  0  0  0  0  0  0  0  0  0
    8.5904    1.2337    0.9767 H   0  0  0  0  0  0  0  0  0  0  0  0
  1  3  2  0  0  0  0
  2 20  1  0  0  0  0
  3  2  1  0  0  0  0
  4  3  1  0  0  0  0
  4 13  1  0  0  0  0
  5  4  2  0  0  0  0
  6  2  1  0  0  0  0
  6 11  1  0  0  0  0
  7  6  2  0  0  0  0
  8  7  1  0  0  0  0
  8  9  2  0  0  0  0
  9 10  1  0  0  0  0
 10 11  2  0  0  0  0
 10 24  1  0  0  0  0
 11 25  1  0  0  0  0
 12  9  1  0  0  0  0
 12 26  1  0  0  0  0
 12 28  1  0  0  0  0
 13 14  1  0  0  0  0
 14 15  2  0  0  0  0
 14 29  1  0  0  0  0
 15 30  1  0  0  0  0
 16 19  1  0  0  0  0
 16 15  1  0  0  0  0
 17 16  2  0  0  0  0
 18 17  1  0  0  0  0
 18 13  2  0  0  0  0
 19 33  1  0  0  0  0
 19 35  1  0  0  0  0
 21  5  1  0  0  0  0
 22  7  1  0  0  0  0
 23  8  1  0  0  0  0
 27 12  1  0  0  0  0
 31 17  1  0  0  0  0
 32 18  1  0  0  0  0
 34 19  1  0  0  0  0
M  END
