2,6
 OpenBabel05122313053D

 32 36  0  0  1  0  0  0  0  0999 V2000
   -0.0322   -0.5428   -1.0878 C   0  0  2  0  0  3  0  0  0  0  0  0
    0.9761   -1.4047   -1.6044 C   0  0  0  0  0  3  0  0  0  0  0  0
    0.7572   -2.4678   -1.7580 H   0  0  0  0  0  0  0  0  0  0  0  0
    2.2911   -0.9364   -1.8933 C   0  0  0  0  0  3  0  0  0  0  0  0
    3.0556   -1.6425   -2.2441 H   0  0  0  0  0  0  0  0  0  0  0  0
    2.6310    0.3998   -1.6167 C   0  0  0  0  0  3  0  0  0  0  0  0
    3.6591    0.7560   -1.7708 H   0  0  0  0  0  0  0  0  0  0  0  0
    1.6311    1.3391   -1.1669 C   0  0  0  0  0  0  0  0  0  0  0  0
    0.2934    0.8599   -0.8744 C   0  0  0  0  0  0  0  0  0  0  0  0
    1.9567    2.7073   -0.9269 C   0  0  0  0  0  0  0  0  0  0  0  0
    2.9781    3.0521   -1.1452 H   0  0  0  0  0  0  0  0  0  0  0  0
    0.9947    3.5757   -0.4436 C   0  0  0  0  0  0  0  0  0  0  0  0
    1.2418    4.6336   -0.2719 H   0  0  0  0  0  0  0  0  0  0  0  0
   -0.3079    3.1120   -0.1498 C   0  0  0  0  0  0  0  0  0  0  0  0
   -1.0353    3.8322    0.2470 H   0  0  0  0  0  0  0  0  0  0  0  0
   -0.6845    1.7789   -0.3361 C   0  0  0  0  0  0  0  0  0  0  0  0
   -2.0301    1.2795   -0.0079 C   0  0  0  0  0  0  0  0  0  0  0  0
   -3.0183    2.1202    0.5244 C   0  0  0  0  0  0  0  0  0  0  0  0
   -2.7964    3.1804    0.7052 H   0  0  0  0  0  0  0  0  0  0  0  0
   -4.3070    1.6461    0.8453 C   0  0  0  0  0  0  0  0  0  0  0  0
   -5.0503    2.3410    1.2635 H   0  0  0  0  0  0  0  0  0  0  0  0
   -4.6330    0.3148    0.6353 C   0  0  0  0  0  0  0  0  0  0  0  0
   -5.6360   -0.0660    0.8810 H   0  0  0  0  0  0  0  0  0  0  0  0
   -3.6715   -0.5865    0.0977 C   0  0  0  0  0  0  0  0  0  0  0  0
   -3.9974   -1.9546   -0.1233 C   0  0  0  0  0  0  0  0  0  0  0  0
   -5.0088   -2.3056    0.1321 H   0  0  0  0  0  0  0  0  0  0  0  0
   -3.0557   -2.8244   -0.6506 C   0  0  0  0  0  0  0  0  0  0  0  0
   -3.3087   -3.8811   -0.8225 H   0  0  0  0  0  0  0  0  0  0  0  0
   -1.7616   -2.3610   -0.9692 C   0  0  0  0  0  0  0  0  0  0  0  0
   -1.0402   -3.0797   -1.3800 H   0  0  0  0  0  0  0  0  0  0  0  0
   -1.3862   -1.0275   -0.7639 C   0  0  0  0  0  0  0  0  0  0  0  0
   -2.3489   -0.1063   -0.2276 C   0  0  0  0  0  0  0  0  0  0  0  0
  1  2  1  1  0  0  0
  1  9  1  0  0  0  0
  1 31  1  0  0  0  0
  3  2  1  0  0  0  0
  4  6  1  0  0  0  0
  4  2  1  0  0  0  0
  5  4  1  0  0  0  0
  6  8  1  0  0  0  0
  7  6  1  0  0  0  0
  8 10  2  0  0  0  0
  8  9  1  0  0  0  0
  9 16  2  0  0  0  0
 10 12  1  0  0  0  0
 11 10  1  0  0  0  0
 12 13  1  0  0  0  0
 12 14  2  0  0  0  0
 14 15  1  0  0  0  0
 16 14  1  0  0  0  0
 16 17  1  0  0  0  0
 17 18  1  0  0  0  0
 18 19  1  0  0  0  0
 18 20  2  0  0  0  0
 20 21  1  0  0  0  0
 22 20  1  0  0  0  0
 22 23  1  0  0  0  0
 24 22  2  0  0  0  0
 25 24  1  0  0  0  0
 25 26  1  0  0  0  0
 27 25  2  0  0  0  0
 28 27  1  0  0  0  0
 29 31  2  0  0  0  0
 29 27  1  0  0  0  0
 30 29  1  0  0  0  0
 31 32  1  0  0  0  0
 32 17  2  0  0  0  0
 32 24  1  0  0  0  0
M  END
