1,7
 OpenBabel05122313053D

 30 31  0  0  0  0  0  0  0  0999 V2000
   -1.5368   -1.5622   -1.3412 C   0  0  0  0  0  3  0  0  0  0  0  0
   -1.2417   -2.5807   -1.0136 H   0  0  0  0  0  0  0  0  0  0  0  0
   -0.7016   -0.9319   -2.3521 C   0  0  0  0  0  0  0  0  0  0  0  0
   -1.1925   -0.2757   -3.0915 H   0  0  0  0  0  0  0  0  0  0  0  0
    0.7020   -0.9318   -2.3521 C   0  0  0  0  0  0  0  0  0  0  0  0
    1.1930   -0.2756   -3.0914 H   0  0  0  0  0  0  0  0  0  0  0  0
    1.5372   -1.5621   -1.3410 C   0  0  0  0  0  3  0  0  0  0  0  0
    1.2421   -2.5806   -1.0135 H   0  0  0  0  0  0  0  0  0  0  0  0
   -2.9780   -1.2784   -1.2297 C   0  0  0  0  0  0  0  0  0  0  0  0
   -3.5303   -0.0248   -1.6026 C   0  0  0  0  0  0  0  0  0  0  0  0
   -2.8729    0.7545   -2.0177 H   0  0  0  0  0  0  0  0  0  0  0  0
   -4.8922    0.2534   -1.4287 C   0  0  0  0  0  0  0  0  0  0  0  0
   -5.2843    1.2389   -1.7254 H   0  0  0  0  0  0  0  0  0  0  0  0
   -5.7531   -0.7066   -0.8709 C   0  0  0  0  0  0  0  0  0  0  0  0
   -6.8210   -0.4844   -0.7277 H   0  0  0  0  0  0  0  0  0  0  0  0
   -5.2287   -1.9583   -0.5074 C   0  0  0  0  0  0  0  0  0  0  0  0
   -5.8907   -2.7304   -0.0850 H   0  0  0  0  0  0  0  0  0  0  0  0
   -3.8689   -2.2415   -0.6909 C   0  0  0  0  0  0  0  0  0  0  0  0
   -3.4783   -3.2357   -0.4231 H   0  0  0  0  0  0  0  0  0  0  0  0
    2.9784   -1.2782   -1.2295 C   0  0  0  0  0  0  0  0  0  0  0  0
    3.5305   -0.0244   -1.6021 C   0  0  0  0  0  0  0  0  0  0  0  0
    2.8730    0.7549   -2.0171 H   0  0  0  0  0  0  0  0  0  0  0  0
    4.8924    0.2538   -1.4282 C   0  0  0  0  0  0  0  0  0  0  0  0
    5.2844    1.2394   -1.7247 H   0  0  0  0  0  0  0  0  0  0  0  0
    5.7534   -0.7062   -0.8706 C   0  0  0  0  0  0  0  0  0  0  0  0
    6.8212   -0.4839   -0.7273 H   0  0  0  0  0  0  0  0  0  0  0  0
    5.2291   -1.9580   -0.5072 C   0  0  0  0  0  0  0  0  0  0  0  0
    5.8912   -2.7301   -0.0850 H   0  0  0  0  0  0  0  0  0  0  0  0
    3.8694   -2.2413   -0.6908 C   0  0  0  0  0  0  0  0  0  0  0  0
    3.4789   -3.2356   -0.4232 H   0  0  0  0  0  0  0  0  0  0  0  0
  1  9  1  0  0  0  0
  1  2  1  0  0  0  0
  3  5  2  0  0  0  0
  3  1  1  0  0  0  0
  4  3  1  0  0  0  0
  5  7  1  0  0  0  0
  6  5  1  0  0  0  0
  7 20  1  0  0  0  0
  7  8  1  0  0  0  0
  9 18  1  0  0  0  0
 10 12  1  0  0  0  0
 10  9  2  0  0  0  0
 11 10  1  0  0  0  0
 12 14  2  0  0  0  0
 13 12  1  0  0  0  0
 14 15  1  0  0  0  0
 14 16  1  0  0  0  0
 16 17  1  0  0  0  0
 18 16  2  0  0  0  0
 18 19  1  0  0  0  0
 20 29  1  0  0  0  0
 21 23  1  0  0  0  0
 21 20  2  0  0  0  0
 22 21  1  0  0  0  0
 23 25  2  0  0  0  0
 24 23  1  0  0  0  0
 25 26  1  0  0  0  0
 25 27  1  0  0  0  0
 27 28  1  0  0  0  0
 29 27  2  0  0  0  0
 29 30  1  0  0  0  0
M  END
