3,10
 OpenBabel05122313053D

 30 31  0  0  0  0  0  0  0  0999 V2000
    0.2703    2.0836   -0.6972 C   0  0  0  0  0  0  0  0  0  0  0  0
    0.4236    2.9816    0.1716 O   0  0  0  0  0  0  0  0  0  0  0  0
   -1.0053    1.4933   -1.1497 C   0  0  0  0  0  3  0  0  0  0  0  0
   -2.2260    1.8830   -0.5168 N   0  0  0  0  0  0  0  0  0  0  0  0
   -3.4000    1.2523   -0.7517 C   0  0  0  0  0  3  0  0  0  0  0  0
   -4.3123    1.6894    0.1484 N   0  0  0  0  0  0  0  0  0  0  0  0
   -5.6088    1.0656    0.3439 C   0  0  0  0  0  0  0  0  0  0  0  0
   -3.6822    2.5679    1.0185 C   0  0  0  0  0  0  0  0  0  0  0  0
   -2.3787    2.6983    0.6029 C   0  0  0  0  0  0  0  0  0  0  0  0
    1.3319    1.1942   -1.2260 C   0  0  0  0  0  3  0  0  0  0  0  0
    2.6531    1.3345   -0.6972 N   0  0  0  0  0  0  0  0  0  0  0  0
    3.0154    2.0745    0.3740 C   0  0  0  0  0  3  0  0  0  0  0  0
    4.3193    1.8242    0.6380 N   0  0  0  0  0  0  0  0  0  0  0  0
    5.0729    2.3919    1.7445 C   0  0  0  0  0  0  0  0  0  0  0  0
    4.7959    0.9036   -0.2804 C   0  0  0  0  0  0  0  0  0  0  0  0
    3.7445    0.5788   -1.1059 C   0  0  0  0  0  0  0  0  0  0  0  0
   -1.1447    1.2847   -2.2247 H   0  0  0  0  0  0  0  0  0  0  0  0
   -3.5768    0.5167   -1.5390 H   0  0  0  0  0  0  0  0  0  0  0  0
   -6.2292    1.7050    0.9969 H   0  0  0  0  0  0  0  0  0  0  0  0
   -5.4698    0.0677    0.8129 H   0  0  0  0  0  0  0  0  0  0  0  0
   -6.1222    0.9404   -0.6279 H   0  0  0  0  0  0  0  0  0  0  0  0
   -4.2147    3.0320    1.8533 H   0  0  0  0  0  0  0  0  0  0  0  0
   -1.5164    3.2673    0.9648 H   0  0  0  0  0  0  0  0  0  0  0  0
    1.3568    0.9647   -2.3055 H   0  0  0  0  0  0  0  0  0  0  0  0
    2.3144    2.7517    0.8794 H   0  0  0  0  0  0  0  0  0  0  0  0
    5.3301    1.6028    2.4785 H   0  0  0  0  0  0  0  0  0  0  0  0
    4.4559    3.1590    2.2450 H   0  0  0  0  0  0  0  0  0  0  0  0
    6.0030    2.8637    1.3728 H   0  0  0  0  0  0  0  0  0  0  0  0
    5.8205    0.5241   -0.2470 H   0  0  0  0  0  0  0  0  0  0  0  0
    3.6636   -0.1463   -1.9190 H   0  0  0  0  0  0  0  0  0  0  0  0
  1  2  2  0  0  0  0
  3  1  1  0  0  0  0
  3  4  1  0  0  0  0
  4  9  1  0  0  0  0
  5  4  1  0  0  0  0
  5  6  1  0  0  0  0
  6  7  1  0  0  0  0
  6  8  1  0  0  0  0
  7 20  1  0  0  0  0
  7 19  1  0  0  0  0
  8 22  1  0  0  0  0
  9 23  1  0  0  0  0
  9  8  2  0  0  0  0
 10  1  1  0  0  0  0
 10 11  1  0  0  0  0
 11 12  1  0  0  0  0
 12 13  1  0  0  0  0
 12 25  1  0  0  0  0
 13 14  1  0  0  0  0
 14 27  1  0  0  0  0
 14 26  1  0  0  0  0
 15 29  1  0  0  0  0
 15 13  1  0  0  0  0
 16 11  1  0  0  0  0
 16 15  2  0  0  0  0
 17  3  1  0  0  0  0
 18  5  1  0  0  0  0
 21  7  1  0  0  0  0
 24 10  1  0  0  0  0
 28 14  1  0  0  0  0
 30 16  1  0  0  0  0
M  END
