3,6
 OpenBabel05122313053D

  9  9  0  0  0  0  0  0  0  0999 V2000
   -0.5044   -2.7630    1.0692 C   0  0  0  0  0  0  0  0  0  0  0  0
   -0.9720   -2.7923    2.0588 H   0  0  0  0  0  0  0  0  0  0  0  0
    0.8896   -2.7101    0.7893 C   0  0  0  0  0  3  0  0  0  0  0  0
    1.7065   -2.6896    1.5215 H   0  0  0  0  0  0  0  0  0  0  0  0
    1.1666   -2.8392   -0.5772 N   0  0  0  0  0  2  0  0  0  0  0  0
   -0.0820   -2.8946   -1.1859 C   0  0  0  0  0  3  0  0  0  0  0  0
   -0.1684   -3.0277   -2.2720 H   0  0  0  0  0  0  0  0  0  0  0  0
   -1.1464   -2.8669   -0.2252 C   0  0  0  0  0  0  0  0  0  0  0  0
   -2.2152   -2.9936   -0.4311 H   0  0  0  0  0  0  0  0  0  0  0  0
  1  2  1  0  0  0  0
  3  1  1  0  0  0  0
  3  4  1  0  0  0  0
  5  3  1  0  0  0  0
  6  5  1  0  0  0  0
  6  8  1  0  0  0  0
  7  6  1  0  0  0  0
  8  1  2  0  0  0  0
  9  8  1  0  0  0  0
M  END
