2,4
 OpenBabel05122313053D

 20 20  0  0  0  0  0  0  0  0999 V2000
    1.0155    1.6042   -0.0517 C   0  0  0  0  0  3  0  0  0  0  0  0
    0.8779    1.1826    1.2783 C   0  0  0  0  0  3  0  0  0  0  0  0
    1.5959   -0.0002    1.9191 C   0  0  0  0  0  0  0  0  0  0  0  0
    0.8778   -1.1828    1.2781 C   0  0  0  0  0  3  0  0  0  0  0  0
    1.0154   -1.6041   -0.0520 C   0  0  0  0  0  3  0  0  0  0  0  0
    2.0628   -1.2855   -1.0869 C   0  0  0  0  0  0  0  0  0  0  0  0
    2.8858    0.0001   -0.9680 C   0  0  0  0  0  0  0  0  0  0  0  0
    2.0627    1.2857   -1.0868 C   0  0  0  0  0  0  0  0  0  0  0  0
    0.4116    2.4924   -0.3058 H   0  0  0  0  0  0  0  0  0  0  0  0
    0.2249    1.7900    1.9268 H   0  0  0  0  0  0  0  0  0  0  0  0
    1.4178   -0.0003    3.0094 H   0  0  0  0  0  0  0  0  0  0  0  0
    2.6900   -0.0002    1.7575 H   0  0  0  0  0  0  0  0  0  0  0  0
    0.2248   -1.7904    1.9264 H   0  0  0  0  0  0  0  0  0  0  0  0
    0.4115   -2.4922   -0.3063 H   0  0  0  0  0  0  0  0  0  0  0  0
    1.5623   -1.3122   -2.0801 H   0  0  0  0  0  0  0  0  0  0  0  0
    2.7527   -2.1617   -1.0986 H   0  0  0  0  0  0  0  0  0  0  0  0
    3.6283    0.0002   -1.7925 H   0  0  0  0  0  0  0  0  0  0  0  0
    3.4894    0.0001   -0.0393 H   0  0  0  0  0  0  0  0  0  0  0  0
    1.5620    1.3123   -2.0799 H   0  0  0  0  0  0  0  0  0  0  0  0
    2.7525    2.1619   -1.0986 H   0  0  0  0  0  0  0  0  0  0  0  0
  1  2  1  0  0  0  0
  2  3  1  0  0  0  0
  2 10  1  0  0  0  0
  3 11  1  0  0  0  0
  4  3  1  0  0  0  0
  4 13  1  0  0  0  0
  5  4  1  0  0  0  0
  6  7  1  0  0  0  0
  6  5  1  0  0  0  0
  7 18  1  0  0  0  0
  8  7  1  0  0  0  0
  8  1  1  0  0  0  0
  9  1  1  0  0  0  0
 12  3  1  0  0  0  0
 14  5  1  0  0  0  0
 15  6  1  0  0  0  0
 16  6  1  0  0  0  0
 17  7  1  0  0  0  0
 19  8  1  0  0  0  0
 20  8  1  0  0  0  0
M  END
