2,5
 OpenBabel05122313053D

 23 23  0  0  0  0  0  0  0  0999 V2000
   -0.9284   -1.5300   -0.5433 C   0  0  0  0  0  3  0  0  0  0  0  0
   -0.6197   -1.6407    0.8234 C   0  0  0  0  0  3  0  0  0  0  0  0
   -1.4226   -1.1261    1.9997 C   0  0  0  0  0  0  0  0  0  0  0  0
   -1.9238    0.3207    1.8163 C   0  0  0  0  0  0  0  0  0  0  0  0
   -0.8609    1.2006    1.1923 C   0  0  0  0  0  3  0  0  0  0  0  0
   -0.9079    1.6821   -0.1251 C   0  0  0  0  0  3  0  0  0  0  0  0
   -2.0598    1.5220   -1.0941 C   0  0  0  0  0  0  0  0  0  0  0  0
   -2.0756    0.2647   -1.9815 C   0  0  0  0  0  0  0  0  0  0  0  0
   -2.2072   -1.0415   -1.1807 C   0  0  0  0  0  0  0  0  0  0  0  0
   -0.2769   -2.1226   -1.2087 H   0  0  0  0  0  0  0  0  0  0  0  0
    0.1839   -2.3555    1.0709 H   0  0  0  0  0  0  0  0  0  0  0  0
   -0.7676   -1.1748    2.8931 H   0  0  0  0  0  0  0  0  0  0  0  0
   -2.2745   -1.8134    2.2073 H   0  0  0  0  0  0  0  0  0  0  0  0
   -2.2112    0.7370    2.8036 H   0  0  0  0  0  0  0  0  0  0  0  0
   -2.8379    0.3358    1.1908 H   0  0  0  0  0  0  0  0  0  0  0  0
   -0.1302    1.6725    1.8723 H   0  0  0  0  0  0  0  0  0  0  0  0
   -0.1667    2.4590   -0.3745 H   0  0  0  0  0  0  0  0  0  0  0  0
   -2.0566    2.4120   -1.7549 H   0  0  0  0  0  0  0  0  0  0  0  0
   -3.0184    1.5547   -0.5295 H   0  0  0  0  0  0  0  0  0  0  0  0
   -1.1564    0.2290   -2.6047 H   0  0  0  0  0  0  0  0  0  0  0  0
   -2.9320    0.3495   -2.6821 H   0  0  0  0  0  0  0  0  0  0  0  0
   -2.5270   -1.8465   -1.8762 H   0  0  0  0  0  0  0  0  0  0  0  0
   -3.0217   -0.9411   -0.4337 H   0  0  0  0  0  0  0  0  0  0  0  0
  1  2  1  0  0  0  0
  2 11  1  0  0  0  0
  2  3  1  0  0  0  0
  3 13  1  0  0  0  0
  3 12  1  0  0  0  0
  4  3  1  0  0  0  0
  4 14  1  0  0  0  0
  5  4  1  0  0  0  0
  5 16  1  0  0  0  0
  6  5  1  0  0  0  0
  7 19  1  0  0  0  0
  7  6  1  0  0  0  0
  8  9  1  0  0  0  0
  8  7  1  0  0  0  0
  9  1  1  0  0  0  0
  9 23  1  0  0  0  0
 10  1  1  0  0  0  0
 15  4  1  0  0  0  0
 17  6  1  0  0  0  0
 18  7  1  0  0  0  0
 20  8  1  0  0  0  0
 21  8  1  0  0  0  0
 22  9  1  0  0  0  0
M  END
