3,7
 OpenBabel05122313053D

 34 36  0  0  0  0  0  0  0  0999 V2000
    1.3498    1.9543    0.4395 N   0  0  0  0  0  0  0  0  0  0  0  0
   -0.8000    2.2319    0.2892 N   0  0  0  0  0  0  0  0  0  0  0  0
    0.1857    1.2860    0.1395 C   0  0  0  0  0  2  0  0  0  0  0  0
   -0.2807    3.4539    0.6907 C   0  0  0  0  0  0  0  0  0  0  0  0
    1.0761    3.2813    0.7901 C   0  0  0  0  0  0  0  0  0  0  0  0
   -2.1030    1.7962   -0.0448 C   0  0  0  0  0  0  0  0  0  0  0  0
   -2.1161    0.4425   -0.4739 C   0  0  0  0  0  3  0  0  0  0  0  0
   -3.3614   -0.0570   -0.8940 C   0  0  0  0  0  0  0  0  0  0  0  0
   -4.5445    0.7182   -0.8522 C   0  0  0  0  0  0  0  0  0  0  0  0
   -4.4725    2.0452   -0.3846 C   0  0  0  0  0  0  0  0  0  0  0  0
   -3.2457    2.5989    0.0150 C   0  0  0  0  0  0  0  0  0  0  0  0
   -5.8520    0.1292   -1.3238 C   0  0  0  0  0  0  0  0  0  0  0  0
    2.6616    1.4040    0.3268 C   0  0  0  0  0  0  0  0  0  0  0  0
    3.0506    0.7854   -0.8751 C   0  0  0  0  0  0  0  0  0  0  0  0
    4.3370    0.2444   -0.9758 C   0  0  0  0  0  0  0  0  0  0  0  0
    5.2558    0.3088    0.0954 C   0  0  0  0  0  0  0  0  0  0  0  0
    4.8403    0.9390    1.2853 C   0  0  0  0  0  0  0  0  0  0  0  0
    3.5528    1.4829    1.4080 C   0  0  0  0  0  0  0  0  0  0  0  0
    6.6444   -0.2613   -0.0460 C   0  0  0  0  0  0  0  0  0  0  0  0
   -0.8997    4.3397    0.8549 H   0  0  0  0  0  0  0  0  0  0  0  0
    1.8746    3.9849    1.0401 H   0  0  0  0  0  0  0  0  0  0  0  0
   -3.4263   -1.0839   -1.2888 H   0  0  0  0  0  0  0  0  0  0  0  0
   -5.3852    2.6595   -0.3441 H   0  0  0  0  0  0  0  0  0  0  0  0
   -3.1930    3.6432    0.3590 H   0  0  0  0  0  0  0  0  0  0  0  0
   -6.0662   -0.8396   -0.8264 H   0  0  0  0  0  0  0  0  0  0  0  0
   -5.8298   -0.0716   -2.4162 H   0  0  0  0  0  0  0  0  0  0  0  0
   -6.7039    0.8086   -1.1255 H   0  0  0  0  0  0  0  0  0  0  0  0
    2.3262    0.7194   -1.7050 H   0  0  0  0  0  0  0  0  0  0  0  0
    4.6388   -0.2398   -1.9183 H   0  0  0  0  0  0  0  0  0  0  0  0
    5.5345    0.9971    2.1381 H   0  0  0  0  0  0  0  0  0  0  0  0
    3.2305    1.9526    2.3494 H   0  0  0  0  0  0  0  0  0  0  0  0
    7.1608   -0.3317    0.9308 H   0  0  0  0  0  0  0  0  0  0  0  0
    7.2697    0.3736   -0.7094 H   0  0  0  0  0  0  0  0  0  0  0  0
    6.6237   -1.2732   -0.4991 H   0  0  0  0  0  0  0  0  0  0  0  0
  1  5  1  0  0  0  0
  2  4  1  0  0  0  0
  3  2  1  0  0  0  0
  3  1  1  0  0  0  0
  4  5  2  0  0  0  0
  4 20  1  0  0  0  0
  5 21  1  0  0  0  0
  6 11  1  0  0  0  0
  6  2  1  0  0  0  0
  7  6  2  0  0  0  0
  8  9  2  0  0  0  0
  8  7  1  0  0  0  0
  9 10  1  0  0  0  0
 10 23  1  0  0  0  0
 10 11  2  0  0  0  0
 11 24  1  0  0  0  0
 12 27  1  0  0  0  0
 12  9  1  0  0  0  0
 12 25  1  0  0  0  0
 13  1  1  0  0  0  0
 13 18  1  0  0  0  0
 14 13  2  0  0  0  0
 15 14  1  0  0  0  0
 15 16  2  0  0  0  0
 16 17  1  0  0  0  0
 17 18  2  0  0  0  0
 17 30  1  0  0  0  0
 18 31  1  0  0  0  0
 19 16  1  0  0  0  0
 19 32  1  0  0  0  0
 22  8  1  0  0  0  0
 26 12  1  0  0  0  0
 28 14  1  0  0  0  0
 29 15  1  0  0  0  0
 33 19  1  0  0  0  0
 34 19  1  0  0  0  0
M  END
