4,12
 OpenBabel05122313053D

 34 35  0  0  0  0  0  0  0  0999 V2000
    1.0598    1.4125    0.0490 N   0  0  0  0  0  0  0  0  0  0  0  0
    2.4091   -0.2911    0.0082 N   0  0  0  0  0  0  0  0  0  0  0  0
   -5.1581    3.8049   -1.1929 N   0  0  0  0  0  0  0  0  0  0  0  0
    1.0822    0.0435   -0.0549 C   0  0  0  0  0  2  0  0  0  0  0  0
    3.2114    0.8597    0.1780 C   0  0  0  0  0  0  0  0  0  0  0  0
    4.7256    0.8936    0.2992 C   0  0  0  0  0  0  0  0  0  0  0  0
    5.3942    0.5183   -1.0457 C   0  0  0  0  0  0  0  0  0  0  0  0
    5.2160   -0.0413    1.4287 C   0  0  0  0  0  0  0  0  0  0  0  0
    5.1536    2.3334    0.6522 C   0  0  0  0  0  0  0  0  0  0  0  0
    2.3382    1.9249    0.1992 C   0  0  0  0  0  0  0  0  0  0  0  0
   -0.1984    2.0095   -0.1560 C   0  0  0  0  0  0  0  0  0  0  0  0
   -1.2024    1.0433   -0.4420 C   0  0  0  0  0  3  0  0  0  0  0  0
   -2.4767    1.5530   -0.7382 C   0  0  0  0  0  0  0  0  0  0  0  0
   -2.7461    2.9468   -0.6929 C   0  0  0  0  0  0  0  0  0  0  0  0
   -4.0688    3.4228   -0.9721 C   0  0  0  0  0  0  0  0  0  0  0  0
   -1.7192    3.8652   -0.3709 C   0  0  0  0  0  0  0  0  0  0  0  0
   -0.4292    3.3904   -0.1102 C   0  0  0  0  0  0  0  0  0  0  0  0
    2.8459   -1.6677   -0.1564 C   0  0  0  0  0  0  0  0  0  0  0  0
    5.1745   -0.5198   -1.3612 H   0  0  0  0  0  0  0  0  0  0  0  0
    6.4961    0.6099   -0.9585 H   0  0  0  0  0  0  0  0  0  0  0  0
    5.0516    1.1933   -1.8545 H   0  0  0  0  0  0  0  0  0  0  0  0
    4.7349    0.2186    2.3929 H   0  0  0  0  0  0  0  0  0  0  0  0
    6.3127    0.0642    1.5536 H   0  0  0  0  0  0  0  0  0  0  0  0
    5.0109   -1.1079    1.2198 H   0  0  0  0  0  0  0  0  0  0  0  0
    4.8654    3.0508   -0.1417 H   0  0  0  0  0  0  0  0  0  0  0  0
    6.2555    2.3792    0.7580 H   0  0  0  0  0  0  0  0  0  0  0  0
    4.7044    2.6679    1.6084 H   0  0  0  0  0  0  0  0  0  0  0  0
    2.5343    2.9938    0.3001 H   0  0  0  0  0  0  0  0  0  0  0  0
   -3.2927    0.8763   -1.0286 H   0  0  0  0  0  0  0  0  0  0  0  0
   -1.9374    4.9413   -0.3383 H   0  0  0  0  0  0  0  0  0  0  0  0
    0.3830    4.0957    0.1203 H   0  0  0  0  0  0  0  0  0  0  0  0
    2.9541   -2.1813    0.8208 H   0  0  0  0  0  0  0  0  0  0  0  0
    3.8094   -1.7058   -0.6913 H   0  0  0  0  0  0  0  0  0  0  0  0
    2.0802   -2.1848   -0.7629 H   0  0  0  0  0  0  0  0  0  0  0  0
  1 10  1  0  0  0  0
  2  5  1  0  0  0  0
  3 15  3  0  0  0  0
  4  2  1  0  0  0  0
  4  1  1  0  0  0  0
  5 10  2  0  0  0  0
  5  6  1  0  0  0  0
  6  9  1  0  0  0  0
  6  8  1  0  0  0  0
  7 20  1  0  0  0  0
  7  6  1  0  0  0  0
  8 23  1  0  0  0  0
  8 22  1  0  0  0  0
  9 26  1  0  0  0  0
  9 27  1  0  0  0  0
 10 28  1  0  0  0  0
 11 17  1  0  0  0  0
 11  1  1  0  0  0  0
 12 11  2  0  0  0  0
 13 14  2  0  0  0  0
 13 12  1  0  0  0  0
 14 16  1  0  0  0  0
 15 14  1  0  0  0  0
 16 30  1  0  0  0  0
 16 17  2  0  0  0  0
 17 31  1  0  0  0  0
 18  2  1  0  0  0  0
 18 32  1  0  0  0  0
 19  7  1  0  0  0  0
 21  7  1  0  0  0  0
 24  8  1  0  0  0  0
 25  9  1  0  0  0  0
 29 13  1  0  0  0  0
 33 18  1  0  0  0  0
 34 18  1  0  0  0  0
M  END
