5,8
 OpenBabel05122313053D

 44 47  0  0  1  0  0  0  0  0999 V2000
    1.5058    1.9483   -1.3990 N   0  0  0  0  0  0  0  0  0  0  0  0
   -1.4033    1.9607   -1.4616 N   0  0  0  0  0  0  0  0  0  0  0  0
    0.0033   -2.6089   -0.8306 O   0  0  0  0  0  0  0  0  0  0  0  0
    0.0157   -1.3910   -0.7403 C   0  0  0  0  0  0  0  0  0  0  0  0
   -1.1692   -0.4520   -0.6070 C   0  0  1  0  0  3  0  0  0  0  0  0
   -0.7056    0.8655   -1.0202 C   0  0  0  0  0  0  0  0  0  0  0  0
    0.7535    0.8709   -0.9482 C   0  0  0  0  0  0  0  0  0  0  0  0
    1.1977   -0.4698   -0.5717 C   0  0  2  0  0  3  0  0  0  0  0  0
    0.7285    2.9826   -2.0815 C   0  0  0  0  0  0  0  0  0  0  0  0
    0.5790    2.6980   -3.1464 H   0  0  0  0  0  0  0  0  0  0  0  0
    1.3046    3.9272   -2.0672 H   0  0  0  0  0  0  0  0  0  0  0  0
   -0.6414    3.2024   -1.4375 C   0  0  0  0  0  0  0  0  0  0  0  0
   -0.5161    3.5642   -0.3851 H   0  0  0  0  0  0  0  0  0  0  0  0
   -1.2052    3.9747   -1.9976 H   0  0  0  0  0  0  0  0  0  0  0  0
   -2.8347    2.0740   -1.2442 C   0  0  0  0  0  0  0  0  0  0  0  0
   -3.3508    1.1538   -1.5685 H   0  0  0  0  0  0  0  0  0  0  0  0
   -3.2177    2.9239   -1.8415 H   0  0  0  0  0  0  0  0  0  0  0  0
   -3.0850    2.2522   -0.1720 H   0  0  0  0  0  0  0  0  0  0  0  0
    2.6328    2.3974   -0.5997 C   0  0  0  0  0  0  0  0  0  0  0  0
    3.2159    1.5318   -0.2380 H   0  0  0  0  0  0  0  0  0  0  0  0
    2.2956    2.9857    0.2892 H   0  0  0  0  0  0  0  0  0  0  0  0
    3.3062    3.0257   -1.2154 H   0  0  0  0  0  0  0  0  0  0  0  0
   -2.5503   -0.9954   -0.6515 C   0  0  0  0  0  0  0  0  0  0  0  0
   -3.4656   -0.8516    0.4110 C   0  0  0  0  0  0  0  0  0  0  0  0
   -3.1493   -0.3160    1.3178 H   0  0  0  0  0  0  0  0  0  0  0  0
   -4.7594   -1.3839    0.3185 C   0  0  0  0  0  0  0  0  0  0  0  0
   -5.4616   -1.2578    1.1566 H   0  0  0  0  0  0  0  0  0  0  0  0
   -5.1526   -2.0864   -0.8316 C   0  0  0  0  0  0  0  0  0  0  0  0
   -6.1661   -2.5097   -0.9020 H   0  0  0  0  0  0  0  0  0  0  0  0
   -4.2401   -2.2611   -1.8842 C   0  0  0  0  0  0  0  0  0  0  0  0
   -4.5342   -2.8268   -2.7815 H   0  0  0  0  0  0  0  0  0  0  0  0
   -2.9478   -1.7247   -1.7944 C   0  0  0  0  0  0  0  0  0  0  0  0
   -2.2280   -1.8736   -2.6123 H   0  0  0  0  0  0  0  0  0  0  0  0
    2.5779   -0.9973   -0.6247 C   0  0  0  0  0  0  0  0  0  0  0  0
    3.0056   -1.9583    0.3167 C   0  0  0  0  0  0  0  0  0  0  0  0
    2.3202   -2.2532    1.1244 H   0  0  0  0  0  0  0  0  0  0  0  0
    4.2838   -2.5240    0.2293 C   0  0  0  0  0  0  0  0  0  0  0  0
    4.6018   -3.2692    0.9741 H   0  0  0  0  0  0  0  0  0  0  0  0
    5.1591   -2.1402   -0.8003 C   0  0  0  0  0  0  0  0  0  0  0  0
    6.1656   -2.5807   -0.8642 H   0  0  0  0  0  0  0  0  0  0  0  0
    4.7410   -1.1938   -1.7488 C   0  0  0  0  0  0  0  0  0  0  0  0
    5.4166   -0.8948   -2.5650 H   0  0  0  0  0  0  0  0  0  0  0  0
    3.4592   -0.6309   -1.6668 C   0  0  0  0  0  0  0  0  0  0  0  0
    3.1256    0.0993   -2.4193 H   0  0  0  0  0  0  0  0  0  0  0  0
  1  7  1  0  0  0  0
  1 19  1  0  0  0  0
  2 12  1  0  0  0  0
  2 15  1  0  0  0  0
  2  6  1  0  0  0  0
  3  4  2  0  0  0  0
  4  5  1  0  0  0  0
  4  8  1  0  0  0  0
  5 23  1  6  0  0  0
  6  7  2  0  0  0  0
  6  5  1  0  0  0  0
  7  8  1  0  0  0  0
  8 34  1  6  0  0  0
  9 11  1  0  0  0  0
  9 12  1  0  0  0  0
  9  1  1  0  0  0  0
 10  9  1  0  0  0  0
 12 13  1  0  0  0  0
 14 12  1  0  0  0  0
 15 18  1  0  0  0  0
 16 15  1  0  0  0  0
 17 15  1  0  0  0  0
 19 20  1  0  0  0  0
 19 21  1  0  0  0  0
 22 19  1  0  0  0  0
 23 24  1  0  0  0  0
 24 25  1  0  0  0  0
 26 24  2  0  0  0  0
 26 27  1  0  0  0  0
 28 26  1  0  0  0  0
 29 28  1  0  0  0  0
 30 32  1  0  0  0  0
 30 28  2  0  0  0  0
 31 30  1  0  0  0  0
 32 23  2  0  0  0  0
 33 32  1  0  0  0  0
 34 35  1  0  0  0  0
 35 36  1  0  0  0  0
 37 35  2  0  0  0  0
 37 38  1  0  0  0  0
 39 37  1  0  0  0  0
 40 39  1  0  0  0  0
 41 43  1  0  0  0  0
 41 39  2  0  0  0  0
 42 41  1  0  0  0  0
 43 34  2  0  0  0  0
 44 43  1  0  0  0  0
M  END
