5,10
 OpenBabel05122313053D

 28 30  0  0  0  0  0  0  0  0999 V2000
   -1.4216   -1.3608   -2.1313 N   0  0  0  0  0  0  0  0  0  0  0  0
   -2.8299    0.1679   -1.5184 N   0  0  0  0  0  0  0  0  0  0  0  0
    3.5029   -3.8382   -1.9001 F   0  0  0  0  0  0  0  0  0  0  0  0
   -4.9984    4.6467    0.9361 F   0  0  0  0  0  0  0  0  0  0  0  0
   -1.5487   -0.2730   -1.3022 C   0  0  0  0  0  2  0  0  0  0  0  0
   -2.5937   -1.6082   -2.8331 C   0  0  0  0  0  0  0  0  0  0  0  0
   -2.7013   -2.4320   -3.5430 H   0  0  0  0  0  0  0  0  0  0  0  0
   -3.4884   -0.6442   -2.4472 C   0  0  0  0  0  0  0  0  0  0  0  0
   -4.5145   -0.4422   -2.7662 H   0  0  0  0  0  0  0  0  0  0  0  0
    0.7549   -1.5228   -1.1891 C   0  0  0  0  0  3  0  0  0  0  0  0
    2.0090   -2.1570   -1.1445 C   0  0  0  0  0  0  0  0  0  0  0  0
    2.8062   -1.8171   -0.4662 H   0  0  0  0  0  0  0  0  0  0  0  0
    2.2846   -3.2556   -1.9714 C   0  0  0  0  0  0  0  0  0  0  0  0
    1.3423   -3.7709   -2.8690 C   0  0  0  0  0  0  0  0  0  0  0  0
    1.5998   -4.6357   -3.4956 H   0  0  0  0  0  0  0  0  0  0  0  0
    0.0843   -3.1539   -2.9412 C   0  0  0  0  0  0  0  0  0  0  0  0
   -0.6707   -3.5408   -3.6419 H   0  0  0  0  0  0  0  0  0  0  0  0
   -0.1802   -2.0535   -2.1148 C   0  0  0  0  0  0  0  0  0  0  0  0
   -3.4012    1.3209   -0.8999 C   0  0  0  0  0  0  0  0  0  0  0  0
   -4.5355    1.1872   -0.0824 C   0  0  0  0  0  0  0  0  0  0  0  0
   -4.9718    0.1917    0.0851 H   0  0  0  0  0  0  0  0  0  0  0  0
   -5.0853    2.3166    0.5372 C   0  0  0  0  0  0  0  0  0  0  0  0
   -5.9657    2.2430    1.1907 H   0  0  0  0  0  0  0  0  0  0  0  0
   -4.4799    3.5633    0.3349 C   0  0  0  0  0  0  0  0  0  0  0  0
   -3.3484    3.7099   -0.4781 C   0  0  0  0  0  0  0  0  0  0  0  0
   -2.9028    4.7059   -0.6089 H   0  0  0  0  0  0  0  0  0  0  0  0
   -2.8104    2.5800   -1.1033 C   0  0  0  0  0  0  0  0  0  0  0  0
   -1.9186    2.6613   -1.7401 H   0  0  0  0  0  0  0  0  0  0  0  0
  1 18  1  0  0  0  0
  1  5  1  0  0  0  0
  2  5  1  0  0  0  0
  2 19  1  0  0  0  0
  6  8  2  0  0  0  0
  6  1  1  0  0  0  0
  7  6  1  0  0  0  0
  8  2  1  0  0  0  0
  9  8  1  0  0  0  0
 10 11  1  0  0  0  0
 11 12  1  0  0  0  0
 13  3  1  0  0  0  0
 13 11  2  0  0  0  0
 14 13  1  0  0  0  0
 15 14  1  0  0  0  0
 16 14  2  0  0  0  0
 16 18  1  0  0  0  0
 17 16  1  0  0  0  0
 18 10  2  0  0  0  0
 19 20  1  0  0  0  0
 20 21  1  0  0  0  0
 20 22  2  0  0  0  0
 22 23  1  0  0  0  0
 24 22  1  0  0  0  0
 24  4  1  0  0  0  0
 25 24  2  0  0  0  0
 26 25  1  0  0  0  0
 27 19  2  0  0  0  0
 27 25  1  0  0  0  0
 28 27  1  0  0  0  0
M  END
