6,8
 OpenBabel05122313053D

 27 26  0  0  1  0  0  0  0  0999 V2000
   -1.3596    1.8202   -2.0834 O   0  0  0  0  0  0  0  0  0  0  0  0
    1.9166   -1.0412    1.5276 O   0  0  0  0  0  0  0  0  0  0  0  0
    2.6597   -1.7841   -0.4871 O   0  0  0  0  0  0  0  0  0  0  0  0
    2.6917    1.3841   -0.2525 O   0  0  0  0  0  0  0  0  0  0  0  0
    1.0078    2.9131   -0.3031 O   0  0  0  0  0  0  0  0  0  0  0  0
   -0.8612    1.0776   -1.2883 C   0  0  0  0  0  3  0  0  0  0  0  0
    0.4638    0.6852   -0.7931 C   0  0  2  0  0  3  0  0  0  0  0  0
    0.5978   -0.7085   -0.5054 C   0  0  2  0  0  3  0  0  0  0  0  0
   -0.3954   -1.6370   -0.9805 C   0  0  0  0  0  3  0  0  0  0  0  0
   -0.3873   -3.0317   -0.3903 C   0  0  0  0  0  0  0  0  0  0  0  0
   -0.8951   -1.6068   -2.4120 C   0  0  0  0  0  0  0  0  0  0  0  0
    1.7810   -1.1701    0.3283 C   0  0  0  0  0  0  0  0  0  0  0  0
    3.8998   -2.1623    0.1308 C   0  0  0  0  0  0  0  0  0  0  0  0
    1.5163    1.6684   -0.4141 C   0  0  0  0  0  0  0  0  0  0  0  0
    1.9512    3.9384    0.0344 C   0  0  0  0  0  0  0  0  0  0  0  0
    0.2864   -3.6858   -0.9859 H   0  0  0  0  0  0  0  0  0  0  0  0
   -1.3997   -3.4799   -0.4331 H   0  0  0  0  0  0  0  0  0  0  0  0
   -0.0471   -3.0541    0.6617 H   0  0  0  0  0  0  0  0  0  0  0  0
   -0.8245   -0.6135   -2.8891 H   0  0  0  0  0  0  0  0  0  0  0  0
   -1.9455   -1.9514   -2.4846 H   0  0  0  0  0  0  0  0  0  0  0  0
   -0.2755   -2.3112   -3.0099 H   0  0  0  0  0  0  0  0  0  0  0  0
    4.4363   -1.2568    0.4776 H   0  0  0  0  0  0  0  0  0  0  0  0
    4.4824   -2.6842   -0.6481 H   0  0  0  0  0  0  0  0  0  0  0  0
    3.7202   -2.8258    0.9999 H   0  0  0  0  0  0  0  0  0  0  0  0
    2.7439    4.0111   -0.7369 H   0  0  0  0  0  0  0  0  0  0  0  0
    2.4299    3.7225    1.0105 H   0  0  0  0  0  0  0  0  0  0  0  0
    1.3730    4.8772    0.0855 H   0  0  0  0  0  0  0  0  0  0  0  0
  1  6  2  0  0  0  0
  3 13  1  0  0  0  0
  3 12  1  0  0  0  0
  5 15  1  0  0  0  0
  7  6  1  1  0  0  0
  7  8  1  0  0  0  0
  7 14  1  0  0  0  0
  8  9  1  1  0  0  0
  8 12  1  0  0  0  0
  9 10  1  0  0  0  0
 10 18  1  0  0  0  0
 11  9  1  0  0  0  0
 12  2  2  0  0  0  0
 13 22  1  0  0  0  0
 13 24  1  0  0  0  0
 14  5  1  0  0  0  0
 14  4  2  0  0  0  0
 15 27  1  0  0  0  0
 15 26  1  0  0  0  0
 16 10  1  0  0  0  0
 17 10  1  0  0  0  0
 19 11  1  0  0  0  0
 20 11  1  0  0  0  0
 21 11  1  0  0  0  0
 23 13  1  0  0  0  0
 25 15  1  0  0  0  0
M  END
