2,5
 OpenBabel05122313053D

 25 25  0  0  0  0  0  0  0  0999 V2000
    1.8805    0.9205   -1.9637 C   0  0  0  0  0  3  0  0  0  0  0  0
    1.9078    1.8654   -0.9239 C   0  0  0  0  0  3  0  0  0  0  0  0
    0.8093    2.8931   -0.7515 C   0  0  0  0  0  0  0  0  0  0  0  0
   -0.5043    2.2553   -0.7445 N   0  0  0  0  0  0  0  0  0  0  0  0
   -0.6694    0.9844   -0.3715 C   0  0  0  0  0  2  0  0  0  0  0  0
   -2.0810    0.5711   -0.2348 C   0  0  0  0  0  0  0  0  0  0  0  0
   -3.0597    1.4545    0.2834 C   0  0  0  0  0  0  0  0  0  0  0  0
   -4.3907    1.0482    0.4358 C   0  0  0  0  0  0  0  0  0  0  0  0
   -4.8049   -0.2457    0.0621 C   0  0  0  0  0  0  0  0  0  0  0  0
   -6.2310   -0.6967    0.2389 C   0  0  0  0  0  0  0  0  0  0  0  0
   -3.8291   -1.1243   -0.4588 C   0  0  0  0  0  0  0  0  0  0  0  0
   -2.4944   -0.7353   -0.5874 C   0  0  0  0  0  0  0  0  0  0  0  0
    1.0401    0.9121   -2.6759 H   0  0  0  0  0  0  0  0  0  0  0  0
    2.8116    0.4493   -2.3094 H   0  0  0  0  0  0  0  0  0  0  0  0
    2.8750    2.1287   -0.4687 H   0  0  0  0  0  0  0  0  0  0  0  0
    0.8283    3.6496   -1.5683 H   0  0  0  0  0  0  0  0  0  0  0  0
    0.9520    3.4419    0.2065 H   0  0  0  0  0  0  0  0  0  0  0  0
   -2.7662    2.4612    0.6219 H   0  0  0  0  0  0  0  0  0  0  0  0
   -5.1258    1.7475    0.8647 H   0  0  0  0  0  0  0  0  0  0  0  0
   -4.1242   -2.1422   -0.7589 H   0  0  0  0  0  0  0  0  0  0  0  0
   -1.7493   -1.4387   -0.9827 H   0  0  0  0  0  0  0  0  0  0  0  0
   -6.9018    0.1480    0.4875 H   0  0  0  0  0  0  0  0  0  0  0  0
   -6.3121   -1.4426    1.0581 H   0  0  0  0  0  0  0  0  0  0  0  0
   -6.6162   -1.1874   -0.6781 H   0  0  0  0  0  0  0  0  0  0  0  0
   -1.3167    2.8475   -0.9675 H   0  0  0  0  0  0  0  0  0  0  0  0
  1  2  1  0  0  0  0
  2  3  1  0  0  0  0
  2 15  1  0  0  0  0
  3  4  1  0  0  0  0
  3 17  1  0  0  0  0
  4  5  1  0  0  0  0
  5  6  1  0  0  0  0
  6  7  1  0  0  0  0
  7  8  2  0  0  0  0
  7 18  1  0  0  0  0
  8 19  1  0  0  0  0
  9 10  1  0  0  0  0
  9  8  1  0  0  0  0
 10 22  1  0  0  0  0
 10 23  1  0  0  0  0
 11  9  2  0  0  0  0
 12 11  1  0  0  0  0
 12  6  2  0  0  0  0
 13  1  1  0  0  0  0
 14  1  1  0  0  0  0
 16  3  1  0  0  0  0
 20 11  1  0  0  0  0
 21 12  1  0  0  0  0
 24 10  1  0  0  0  0
 25  4  1  0  0  0  0
M  END
