1,4
 OpenBabel05122313053D

 10  9  0  0  0  0  0  0  0  0999 V2000
    0.9459   -1.4773   -0.0964 C   0  0  0  0  0  0  0  0  0  0  0  0
    0.7196   -0.7118   -1.3075 C   0  0  0  0  0  0  0  0  0  0  0  0
    0.7215    0.7059   -1.3096 C   0  0  0  0  0  0  0  0  0  0  0  0
    0.9505    1.4742   -0.1008 C   0  0  0  0  0  0  0  0  0  0  0  0
    0.5331   -2.7673   -0.1779 F   0  0  0  0  0  0  0  0  0  0  0  0
    2.1822   -1.4764    0.4676 F   0  0  0  0  0  0  0  0  0  0  0  0
    0.1469   -1.3218   -2.3686 F   0  0  0  0  0  0  0  0  0  0  0  0
    0.1500    1.3143   -2.3723 F   0  0  0  0  0  0  0  0  0  0  0  0
    0.5414    2.7651   -0.1853 F   0  0  0  0  0  0  0  0  0  0  0  0
    2.1870    1.4708    0.4629 F   0  0  0  0  0  0  0  0  0  0  0  0
  1  6  1  0  0  0  0
  2  1  1  0  0  0  0
  3  2  2  0  0  0  0
  3  4  1  0  0  0  0
  4 10  1  0  0  0  0
  5  1  1  0  0  0  0
  7  2  1  0  0  0  0
  8  3  1  0  0  0  0
  9  4  1  0  0  0  0
M  END
