5,7
 OpenBabel05122313053D

 46 48  0  0  0  0  0  0  0  0999 V2000
   -1.0205    0.6205   -2.5468 C   0  0  0  0  0  0  0  0  0  0  0  0
   -1.4604    1.6423   -2.5342 H   0  0  0  0  0  0  0  0  0  0  0  0
   -1.4734    0.1042   -3.4193 H   0  0  0  0  0  0  0  0  0  0  0  0
    0.0649    0.7370   -2.7233 H   0  0  0  0  0  0  0  0  0  0  0  0
   -1.3670   -0.0873   -1.2924 C   0  0  0  0  0  3  0  0  0  0  0  0
   -0.5465   -0.3784   -0.2263 C   0  0  0  0  0  0  0  0  0  0  0  0
   -0.9842   -1.0112    0.9664 C   0  0  0  0  0  2  0  0  0  0  0  0
   -1.5049   -1.5229    1.9804 C   0  0  0  0  0  2  0  0  0  0  0  0
   -1.7854   -2.1292    3.2751 C   0  0  0  0  0  0  0  0  0  0  0  0
   -2.5104   -1.5256    3.8601 H   0  0  0  0  0  0  0  0  0  0  0  0
   -0.8484   -2.2064    3.8659 H   0  0  0  0  0  0  0  0  0  0  0  0
   -2.2085   -3.1502    3.1677 H   0  0  0  0  0  0  0  0  0  0  0  0
    1.0622    0.2569   -0.0452 B   0  0  0  0  0  0  0  0  0  0  0  0
    0.6807    1.8485    0.1023 C   0  0  0  0  0  0  0  0  0  0  0  0
    0.8361    2.8206   -0.9014 C   0  0  0  0  0  0  0  0  0  0  0  0
    1.4541    2.5358   -2.0664 F   0  0  0  0  0  0  0  0  0  0  0  0
    0.3630    4.1423   -0.7857 C   0  0  0  0  0  0  0  0  0  0  0  0
    0.5450    5.0189   -1.7808 F   0  0  0  0  0  0  0  0  0  0  0  0
   -0.3124    4.5394    0.3776 C   0  0  0  0  0  0  0  0  0  0  0  0
   -0.7749    5.7870    0.5023 F   0  0  0  0  0  0  0  0  0  0  0  0
   -0.4904    3.6063    1.4119 C   0  0  0  0  0  0  0  0  0  0  0  0
   -1.1534    3.9511    2.5254 F   0  0  0  0  0  0  0  0  0  0  0  0
    0.0002    2.3051    1.2465 C   0  0  0  0  0  0  0  0  0  0  0  0
   -0.2446    1.4557    2.2739 F   0  0  0  0  0  0  0  0  0  0  0  0
    2.0376   -0.1423   -1.3037 C   0  0  0  0  0  0  0  0  0  0  0  0
    1.8430   -1.1536   -2.2573 C   0  0  0  0  0  0  0  0  0  0  0  0
    0.6894   -1.8624   -2.3171 F   0  0  0  0  0  0  0  0  0  0  0  0
    2.8033   -1.5054   -3.2233 C   0  0  0  0  0  0  0  0  0  0  0  0
    2.5490   -2.4736   -4.1146 F   0  0  0  0  0  0  0  0  0  0  0  0
    4.0355   -0.8381   -3.2471 C   0  0  0  0  0  0  0  0  0  0  0  0
    4.9613   -1.1587   -4.1567 F   0  0  0  0  0  0  0  0  0  0  0  0
    4.2864    0.1733   -2.3052 C   0  0  0  0  0  0  0  0  0  0  0  0
    5.4602    0.8159   -2.3126 F   0  0  0  0  0  0  0  0  0  0  0  0
    3.2979    0.4843   -1.3605 C   0  0  0  0  0  0  0  0  0  0  0  0
    3.5994    1.4465   -0.4672 F   0  0  0  0  0  0  0  0  0  0  0  0
    1.8124   -0.3883    1.2690 C   0  0  0  0  0  0  0  0  0  0  0  0
    2.4865    0.3374    2.2677 C   0  0  0  0  0  0  0  0  0  0  0  0
    2.5334    1.6808    2.2461 F   0  0  0  0  0  0  0  0  0  0  0  0
    3.1474   -0.2727    3.3501 C   0  0  0  0  0  0  0  0  0  0  0  0
    3.7597    0.4698    4.2808 F   0  0  0  0  0  0  0  0  0  0  0  0
    3.1766   -1.6717    3.4481 C   0  0  0  0  0  0  0  0  0  0  0  0
    3.8013   -2.2661    4.4703 F   0  0  0  0  0  0  0  0  0  0  0  0
    2.5419   -2.4415    2.4607 C   0  0  0  0  0  0  0  0  0  0  0  0
    2.5677   -3.7805    2.5300 F   0  0  0  0  0  0  0  0  0  0  0  0
    1.9073   -1.7858    1.3949 C   0  0  0  0  0  0  0  0  0  0  0  0
    1.3537   -2.5844    0.4534 F   0  0  0  0  0  0  0  0  0  0  0  0
  1  2  1  0  0  0  0
  1  5  1  0  0  0  0
  3  1  1  0  0  0  0
  4  1  1  0  0  0  0
  5  6  2  0  0  0  0
  6 13  1  0  0  0  0
  6  7  1  0  0  0  0
  7  8  1  0  0  0  0
  8  9  1  0  0  0  0
  9 10  1  0  0  0  0
  9 11  1  0  0  0  0
 12  9  1  0  0  0  0
 13 14  1  0  0  0  0
 13 36  1  0  0  0  0
 14 23  1  0  0  0  0
 15 17  1  0  0  0  0
 15 14  2  0  0  0  0
 16 15  1  0  0  0  0
 17 19  2  0  0  0  0
 18 17  1  0  0  0  0
 19 20  1  0  0  0  0
 19 21  1  0  0  0  0
 21 22  1  0  0  0  0
 23 21  2  0  0  0  0
 23 24  1  0  0  0  0
 25 13  1  0  0  0  0
 26 25  2  0  0  0  0
 27 26  1  0  0  0  0
 28 26  1  0  0  0  0
 29 28  1  0  0  0  0
 30 28  2  0  0  0  0
 30 32  1  0  0  0  0
 31 30  1  0  0  0  0
 32 34  2  0  0  0  0
 33 32  1  0  0  0  0
 34 25  1  0  0  0  0
 34 35  1  0  0  0  0
 36 45  2  0  0  0  0
 36 37  1  0  0  0  0
 37 39  2  0  0  0  0
 38 37  1  0  0  0  0
 39 41  1  0  0  0  0
 39 40  1  0  0  0  0
 41 42  1  0  0  0  0
 43 44  1  0  0  0  0
 43 41  2  0  0  0  0
 45 43  1  0  0  0  0
 46 45  1  0  0  0  0
M  END
