7,9
 OpenBabel05122313053D

 45 46  0  0  1  0  0  0  0  0999 V2000
   -1.8630    1.4928    1.7981 O   0  0  0  0  0  0  0  0  0  0  0  0
    1.5989    0.3878   -1.5022 O   0  0  0  0  0  0  0  0  0  0  0  0
    1.6850    3.5749    0.0049 O   0  0  0  0  0  0  0  0  0  0  0  0
    1.5385    0.9350   -0.1717 N   0  0  0  0  0  0  0  0  0  0  0  0
   -2.1262    0.9752    0.5749 C   0  0  0  0  0  0  0  0  0  0  0  0
   -1.0288    0.9780   -0.3624 C   0  0  1  0  0  3  0  0  0  0  0  0
   -1.2745    0.4346   -1.6605 C   0  0  0  0  0  3  0  0  0  0  0  0
   -2.5493   -0.0611   -2.0475 C   0  0  0  0  0  3  0  0  0  0  0  0
   -3.5976   -0.0847   -1.0933 C   0  0  0  0  0  3  0  0  0  0  0  0
   -3.3992    0.4447    0.2142 C   0  0  0  0  0  0  0  0  0  0  0  0
    0.2723    1.6514    0.0379 C   0  0  2  0  0  0  0  0  0  0  0  0
    0.4358    3.1281   -0.5018 C   0  0  0  0  0  0  0  0  0  0  0  0
    0.4233    3.2269   -2.0371 C   0  0  0  0  0  0  0  0  0  0  0  0
   -0.6495    4.0296    0.0923 C   0  0  0  0  0  0  0  0  0  0  0  0
    1.8153   -0.1530    0.7831 C   0  0  0  0  0  0  0  0  0  0  0  0
    3.2252   -0.6613    0.5907 C   0  0  0  0  0  0  0  0  0  0  0  0
    4.3209    0.0860    1.0689 C   0  0  0  0  0  0  0  0  0  0  0  0
    5.6347   -0.3504    0.8468 C   0  0  0  0  0  0  0  0  0  0  0  0
    5.8683   -1.5398    0.1360 C   0  0  0  0  0  0  0  0  0  0  0  0
    4.7840   -2.2858   -0.3513 C   0  0  0  0  0  0  0  0  0  0  0  0
    3.4685   -1.8482   -0.1279 C   0  0  0  0  0  0  0  0  0  0  0  0
   -2.8114    1.3215    2.8442 C   0  0  0  0  0  0  0  0  0  0  0  0
    2.5472    0.4705   -1.7264 H   0  0  0  0  0  0  0  0  0  0  0  0
    2.2333    2.7508   -0.0229 H   0  0  0  0  0  0  0  0  0  0  0  0
   -0.4327    0.3873   -2.3600 H   0  0  0  0  0  0  0  0  0  0  0  0
   -2.6916   -0.4990   -3.0438 H   0  0  0  0  0  0  0  0  0  0  0  0
   -4.5722   -0.5218   -1.3523 H   0  0  0  0  0  0  0  0  0  0  0  0
   -4.2146    0.4006    0.9449 H   0  0  0  0  0  0  0  0  0  0  0  0
    0.2380    1.7778    1.1359 H   0  0  0  0  0  0  0  0  0  0  0  0
   -0.5608    2.9554   -2.4690 H   0  0  0  0  0  0  0  0  0  0  0  0
    0.6511    4.2727   -2.3222 H   0  0  0  0  0  0  0  0  0  0  0  0
    1.1915    2.5660   -2.4789 H   0  0  0  0  0  0  0  0  0  0  0  0
   -1.6571    3.7527   -0.2760 H   0  0  0  0  0  0  0  0  0  0  0  0
   -0.6447    3.9735    1.1976 H   0  0  0  0  0  0  0  0  0  0  0  0
   -0.4487    5.0783   -0.2028 H   0  0  0  0  0  0  0  0  0  0  0  0
    1.0792   -0.9767    0.6725 H   0  0  0  0  0  0  0  0  0  0  0  0
    1.6939    0.2822    1.7956 H   0  0  0  0  0  0  0  0  0  0  0  0
    4.1356    1.0198    1.6239 H   0  0  0  0  0  0  0  0  0  0  0  0
    6.4816    0.2377    1.2323 H   0  0  0  0  0  0  0  0  0  0  0  0
    6.8991   -1.8851   -0.0370 H   0  0  0  0  0  0  0  0  0  0  0  0
    4.9620   -3.2170   -0.9105 H   0  0  0  0  0  0  0  0  0  0  0  0
    2.6156   -2.4251   -0.5172 H   0  0  0  0  0  0  0  0  0  0  0  0
   -2.3502    1.7591    3.7477 H   0  0  0  0  0  0  0  0  0  0  0  0
   -3.7608    1.8571    2.6276 H   0  0  0  0  0  0  0  0  0  0  0  0
   -3.0184    0.2455    3.0246 H   0  0  0  0  0  0  0  0  0  0  0  0
  1 22  1  0  0  0  0
  2  4  1  0  0  0  0
  4 11  1  0  0  0  0
  4 15  1  0  0  0  0
  5  1  1  0  0  0  0
  6 11  1  6  0  0  0
  6  5  1  0  0  0  0
  7  6  1  0  0  0  0
  8  7  1  0  0  0  0
  8  9  1  0  0  0  0
  9 10  1  0  0  0  0
 10  5  2  0  0  0  0
 10 28  1  0  0  0  0
 11 29  1  1  0  0  0
 12  3  1  0  0  0  0
 12 11  1  0  0  0  0
 12 14  1  0  0  0  0
 13 12  1  0  0  0  0
 14 34  1  0  0  0  0
 15 37  1  0  0  0  0
 16 15  1  0  0  0  0
 16 17  1  0  0  0  0
 17 38  1  0  0  0  0
 18 17  2  0  0  0  0
 18 39  1  0  0  0  0
 19 18  1  0  0  0  0
 20 21  1  0  0  0  0
 20 19  2  0  0  0  0
 21 16  2  0  0  0  0
 22 45  1  0  0  0  0
 22 43  1  0  0  0  0
 23  2  1  0  0  0  0
 24  3  1  0  0  0  0
 25  7  1  0  0  0  0
 26  8  1  0  0  0  0
 27  9  1  0  0  0  0
 30 13  1  0  0  0  0
 31 13  1  0  0  0  0
 32 13  1  0  0  0  0
 33 14  1  0  0  0  0
 35 14  1  0  0  0  0
 36 15  1  0  0  0  0
 40 19  1  0  0  0  0
 41 20  1  0  0  0  0
 42 21  1  0  0  0  0
 44 22  1  0  0  0  0
M  END
