4,5
 OpenBabel05122313053D

 45 47  0  0  0  0  0  0  0  0999 V2000
   -1.1093    1.0393   -0.2985 N   0  0  0  0  0  0  0  0  0  0  0  0
   -1.7811   -1.0621   -0.3755 N   0  0  0  0  0  0  0  0  0  0  0  0
   -0.0831    2.0011   -0.1422 C   0  0  0  0  0  0  0  0  0  0  0  0
    1.2065    1.4046   -0.1319 C   0  0  0  0  0  3  0  0  0  0  0  0
   -0.6643   -0.2642   -0.4093 C   0  0  0  0  0  2  0  0  0  0  0  0
    2.1358    3.6504    0.3077 C   0  0  0  0  0  0  0  0  0  0  0  0
    2.2935    2.2587    0.1213 C   0  0  0  0  0  0  0  0  0  0  0  0
    3.3074    1.8355    0.2063 H   0  0  0  0  0  0  0  0  0  0  0  0
   -2.5022    1.0799   -0.2165 C   0  0  0  0  0  0  0  0  0  0  0  0
   -2.9322   -0.2714   -0.2695 C   0  0  0  0  0  0  0  0  0  0  0  0
   -1.7168   -2.5292   -0.2957 C   0  0  0  0  0  0  0  0  0  0  0  0
   -0.6268   -2.7279   -0.2740 H   0  0  0  0  0  0  0  0  0  0  0  0
   -0.2784    3.3770    0.0361 C   0  0  0  0  0  0  0  0  0  0  0  0
   -1.2817    3.8205    0.0241 H   0  0  0  0  0  0  0  0  0  0  0  0
   -3.4375    2.1193   -0.1124 C   0  0  0  0  0  0  0  0  0  0  0  0
   -3.1245    3.1695   -0.0723 H   0  0  0  0  0  0  0  0  0  0  0  0
   -4.8083    1.8075   -0.0609 C   0  0  0  0  0  0  0  0  0  0  0  0
   -2.3151   -3.1866   -1.5425 C   0  0  0  0  0  0  0  0  0  0  0  0
   -3.4076   -3.0185   -1.6230 H   0  0  0  0  0  0  0  0  0  0  0  0
   -2.1463   -4.2816   -1.5102 H   0  0  0  0  0  0  0  0  0  0  0  0
   -1.8438   -2.7897   -2.4639 H   0  0  0  0  0  0  0  0  0  0  0  0
   -5.2406    0.4485   -0.1198 C   0  0  0  0  0  0  0  0  0  0  0  0
   -4.2965   -0.5890   -0.2267 C   0  0  0  0  0  0  0  0  0  0  0  0
   -4.6408   -1.6305   -0.2748 H   0  0  0  0  0  0  0  0  0  0  0  0
   -5.8233    2.9165    0.0546 C   0  0  0  0  0  0  0  0  0  0  0  0
   -6.4406    2.8131    0.9723 H   0  0  0  0  0  0  0  0  0  0  0  0
   -6.5335    2.9150   -0.7996 H   0  0  0  0  0  0  0  0  0  0  0  0
   -5.3365    3.9098    0.0868 H   0  0  0  0  0  0  0  0  0  0  0  0
   -6.7113    0.1209   -0.0679 C   0  0  0  0  0  0  0  0  0  0  0  0
   -7.1804    0.4885    0.8695 H   0  0  0  0  0  0  0  0  0  0  0  0
   -6.8860   -0.9705   -0.1258 H   0  0  0  0  0  0  0  0  0  0  0  0
   -7.2690    0.5978   -0.9018 H   0  0  0  0  0  0  0  0  0  0  0  0
    0.8402    4.1972    0.2496 C   0  0  0  0  0  0  0  0  0  0  0  0
    0.6973    5.2798    0.3926 H   0  0  0  0  0  0  0  0  0  0  0  0
    3.3472    4.5343    0.5101 C   0  0  0  0  0  0  0  0  0  0  0  0
    3.0520    5.4436    1.0754 H   0  0  0  0  0  0  0  0  0  0  0  0
    4.0891    4.0012    1.1425 H   0  0  0  0  0  0  0  0  0  0  0  0
    4.0103    4.9477   -0.8128 C   0  0  0  0  0  0  0  0  0  0  0  0
    4.3388    4.0568   -1.3867 H   0  0  0  0  0  0  0  0  0  0  0  0
    4.8986    5.5900   -0.6409 H   0  0  0  0  0  0  0  0  0  0  0  0
    3.3003    5.5082   -1.4547 H   0  0  0  0  0  0  0  0  0  0  0  0
   -2.2961   -3.0457    1.0245 C   0  0  0  0  0  0  0  0  0  0  0  0
   -1.7859   -2.5524    1.8749 H   0  0  0  0  0  0  0  0  0  0  0  0
   -2.1181   -4.1367    1.1018 H   0  0  0  0  0  0  0  0  0  0  0  0
   -3.3866   -2.8732    1.1105 H   0  0  0  0  0  0  0  0  0  0  0  0
  1  9  1  0  0  0  0
  1  3  1  0  0  0  0
  2 11  1  0  0  0  0
  2 10  1  0  0  0  0
  3  4  2  0  0  0  0
  3 13  1  0  0  0  0
  4  7  1  0  0  0  0
  5  2  1  0  0  0  0
  5  1  1  0  0  0  0
  6 35  1  0  0  0  0
  7  8  1  0  0  0  0
  7  6  2  0  0  0  0
  9 15  1  0  0  0  0
 10 23  1  0  0  0  0
 10  9  2  0  0  0  0
 11 12  1  0  0  0  0
 11 42  1  0  0  0  0
 13 33  2  0  0  0  0
 14 13  1  0  0  0  0
 15 16  1  0  0  0  0
 15 17  2  0  0  0  0
 17 25  1  0  0  0  0
 18 20  1  0  0  0  0
 18 11  1  0  0  0  0
 19 18  1  0  0  0  0
 21 18  1  0  0  0  0
 22 29  1  0  0  0  0
 22 17  1  0  0  0  0
 23 22  2  0  0  0  0
 24 23  1  0  0  0  0
 25 28  1  0  0  0  0
 25 26  1  0  0  0  0
 27 25  1  0  0  0  0
 29 30  1  0  0  0  0
 31 29  1  0  0  0  0
 32 29  1  0  0  0  0
 33  6  1  0  0  0  0
 33 34  1  0  0  0  0
 35 36  1  0  0  0  0
 35 37  1  0  0  0  0
 38 40  1  0  0  0  0
 38 35  1  0  0  0  0
 39 38  1  0  0  0  0
 41 38  1  0  0  0  0
 42 44  1  0  0  0  0
 42 45  1  0  0  0  0
 42 43  1  0  0  0  0
M  END
