4,6
 OpenBabel05122313053D

 39 39  0  0  1  0  0  0  0  0999 V2000
   -0.4759   -0.5853    0.1285 C   0  0  2  0  0  3  0  0  0  0  0  0
    0.0433   -0.8104   -1.1863 C   0  0  0  0  0  0  0  0  0  0  0  0
    1.1427   -1.6819   -1.4266 C   0  0  0  0  0  0  0  0  0  0  0  0
    1.8105   -2.2905   -0.3289 C   0  0  0  0  0  3  0  0  0  0  0  0
    1.3641   -2.0461    0.9977 C   0  0  0  0  0  3  0  0  0  0  0  0
    0.2656   -1.1661    1.2061 C   0  0  0  0  0  3  0  0  0  0  0  0
   -1.8407    0.0401    0.4236 C   0  0  0  0  0  0  0  0  0  0  0  0
   -2.0094    1.5613    0.0066 C   0  0  0  0  0  0  0  0  0  0  0  0
   -2.9741   -1.0313    0.0491 C   0  0  0  0  0  0  0  0  0  0  0  0
   -1.0484    2.3830    0.8918 C   0  0  0  0  0  0  0  0  0  0  0  0
   -1.6830    1.8804   -1.4680 C   0  0  0  0  0  0  0  0  0  0  0  0
   -3.4273    2.0944    0.2975 C   0  0  0  0  0  0  0  0  0  0  0  0
   -3.3953   -0.9990   -1.4307 C   0  0  0  0  0  0  0  0  0  0  0  0
   -2.4698   -2.4623    0.3604 C   0  0  0  0  0  0  0  0  0  0  0  0
   -4.2274   -0.8410    0.9352 C   0  0  0  0  0  0  0  0  0  0  0  0
   -0.4334   -0.3259   -2.0462 H   0  0  0  0  0  0  0  0  0  0  0  0
    1.5115   -1.8283   -2.4503 H   0  0  0  0  0  0  0  0  0  0  0  0
    2.6897   -2.9262   -0.5049 H   0  0  0  0  0  0  0  0  0  0  0  0
    1.9003   -2.4742    1.8548 H   0  0  0  0  0  0  0  0  0  0  0  0
   -0.0536   -0.9475    2.2360 H   0  0  0  0  0  0  0  0  0  0  0  0
   -1.8900    0.0736    1.5335 H   0  0  0  0  0  0  0  0  0  0  0  0
   -1.3034    2.2794    1.9669 H   0  0  0  0  0  0  0  0  0  0  0  0
   -0.0008    2.0604    0.7555 H   0  0  0  0  0  0  0  0  0  0  0  0
   -1.1095    3.4589    0.6316 H   0  0  0  0  0  0  0  0  0  0  0  0
   -1.9121    2.9475   -1.6651 H   0  0  0  0  0  0  0  0  0  0  0  0
   -0.6119    1.7479   -1.7002 H   0  0  0  0  0  0  0  0  0  0  0  0
   -2.2806    1.2827   -2.1813 H   0  0  0  0  0  0  0  0  0  0  0  0
   -4.1945    1.6766   -0.3823 H   0  0  0  0  0  0  0  0  0  0  0  0
   -3.7388    1.9003    1.3427 H   0  0  0  0  0  0  0  0  0  0  0  0
   -3.4305    3.1938    0.1517 H   0  0  0  0  0  0  0  0  0  0  0  0
   -2.5383   -1.1680   -2.1123 H   0  0  0  0  0  0  0  0  0  0  0  0
   -3.8779   -0.0436   -1.7113 H   0  0  0  0  0  0  0  0  0  0  0  0
   -4.1290   -1.8082   -1.6264 H   0  0  0  0  0  0  0  0  0  0  0  0
   -1.6347   -2.7790   -0.2924 H   0  0  0  0  0  0  0  0  0  0  0  0
   -3.3011   -3.1809    0.2122 H   0  0  0  0  0  0  0  0  0  0  0  0
   -2.1317   -2.5586    1.4125 H   0  0  0  0  0  0  0  0  0  0  0  0
   -4.9114   -1.7030    0.7952 H   0  0  0  0  0  0  0  0  0  0  0  0
   -4.8004    0.0704    0.6993 H   0  0  0  0  0  0  0  0  0  0  0  0
   -3.9554   -0.8059    2.0103 H   0  0  0  0  0  0  0  0  0  0  0  0
  1  7  1  6  0  0  0
  1  6  1  0  0  0  0
  2  1  1  0  0  0  0
  3  2  2  0  0  0  0
  3  4  1  0  0  0  0
  4  5  1  0  0  0  0
  5  6  1  0  0  0  0
  5 19  1  0  0  0  0
  6 20  1  0  0  0  0
  7 21  1  0  0  0  0
  8 12  1  0  0  0  0
  8  7  1  0  0  0  0
  8 10  1  0  0  0  0
  9 14  1  0  0  0  0
  9  7  1  0  0  0  0
  9 15  1  0  0  0  0
 10 22  1  0  0  0  0
 11  8  1  0  0  0  0
 12 29  1  0  0  0  0
 13  9  1  0  0  0  0
 14 36  1  0  0  0  0
 15 39  1  0  0  0  0
 16  2  1  0  0  0  0
 17  3  1  0  0  0  0
 18  4  1  0  0  0  0
 23 10  1  0  0  0  0
 24 10  1  0  0  0  0
 25 11  1  0  0  0  0
 26 11  1  0  0  0  0
 27 11  1  0  0  0  0
 28 12  1  0  0  0  0
 30 12  1  0  0  0  0
 31 13  1  0  0  0  0
 32 13  1  0  0  0  0
 33 13  1  0  0  0  0
 34 14  1  0  0  0  0
 35 14  1  0  0  0  0
 37 15  1  0  0  0  0
 38 15  1  0  0  0  0
M  END
