3,4
 OpenBabel05122313053D

 27 26  0  0  0  0  0  0  0  0999 V2000
   -1.6182    1.6038    0.0020 P   0  0  0  0  0  4  0  0  0  0  0  0
   -1.6351   -1.5900    0.0064 P   0  0  0  0  0  4  0  0  0  0  0  0
   -0.1265    1.5404   -0.9883 C   0  0  0  0  0  3  0  0  0  0  0  0
   -0.1308   -1.5523   -0.9674 C   0  0  0  0  0  3  0  0  0  0  0  0
   -2.6776    3.0355   -0.4660 C   0  0  0  0  0  0  0  0  0  0  0  0
   -1.1217    1.9910    1.7248 C   0  0  0  0  0  0  0  0  0  0  0  0
   -1.1695   -1.9794    1.7372 C   0  0  0  0  0  0  0  0  0  0  0  0
   -2.7074   -3.0091   -0.4709 C   0  0  0  0  0  0  0  0  0  0  0  0
   -2.7009    0.0126   -0.1380 B   0  0  0  0  0  0  0  0  0  0  0  0
    0.3668    2.5338   -0.9885 H   0  0  0  0  0  0  0  0  0  0  0  0
   -0.4205    1.2788   -2.0263 H   0  0  0  0  0  0  0  0  0  0  0  0
   -0.4116   -1.3134   -2.0143 H   0  0  0  0  0  0  0  0  0  0  0  0
    0.3575   -2.5480   -0.9388 H   0  0  0  0  0  0  0  0  0  0  0  0
   -3.1646    0.0158   -1.2768 H   0  0  0  0  0  0  0  0  0  0  0  0
   -3.5674    0.0153    0.7317 H   0  0  0  0  0  0  0  0  0  0  0  0
   -3.5779    3.0746    0.1788 H   0  0  0  0  0  0  0  0  0  0  0  0
   -2.1075    3.9807   -0.3700 H   0  0  0  0  0  0  0  0  0  0  0  0
   -2.9990    2.9082   -1.5176 H   0  0  0  0  0  0  0  0  0  0  0  0
   -2.0197    2.0846    2.3652 H   0  0  0  0  0  0  0  0  0  0  0  0
   -0.5434    2.9355    1.7474 H   0  0  0  0  0  0  0  0  0  0  0  0
   -0.4727    1.1806    2.1070 H   0  0  0  0  0  0  0  0  0  0  0  0
   -0.6188   -2.9398    1.7751 H   0  0  0  0  0  0  0  0  0  0  0  0
   -0.5059   -1.1836    2.1248 H   0  0  0  0  0  0  0  0  0  0  0  0
   -2.0792   -2.0442    2.3645 H   0  0  0  0  0  0  0  0  0  0  0  0
   -2.1509   -3.9615   -0.3663 H   0  0  0  0  0  0  0  0  0  0  0  0
   -3.0149   -2.8802   -1.5264 H   0  0  0  0  0  0  0  0  0  0  0  0
   -3.6156   -3.0348    0.1634 H   0  0  0  0  0  0  0  0  0  0  0  0
  1  6  1  0  0  0  0
  2  7  1  0  0  0  0
  3  1  1  0  0  0  0
  4 13  1  0  0  0  0
  4  2  1  0  0  0  0
  5 17  1  0  0  0  0
  5  1  1  0  0  0  0
  5 16  1  0  0  0  0
  6 20  1  0  0  0  0
  6 21  1  0  0  0  0
  6 19  1  0  0  0  0
  7 22  1  0  0  0  0
  7 23  1  0  0  0  0
  7 24  1  0  0  0  0
  8 25  1  0  0  0  0
  8  2  1  0  0  0  0
  8 27  1  0  0  0  0
  9  1  1  0  0  0  0
  9  2  1  0  0  0  0
  9 15  1  0  0  0  0
 10  3  1  0  0  0  0
 11  3  1  0  0  0  0
 12  4  1  0  0  0  0
 14  9  1  0  0  0  0
 18  5  1  0  0  0  0
 26  8  1  0  0  0  0
M  END
