3,6
 OpenBabel05122313053D

 14 13  0  0  0  0  0  0  0  0999 V2000
   -4.0205    2.3216   -0.1851 N   0  0  0  0  0  0  0  0  0  0  0  0
    0.2273   -3.8072    0.3980 N   0  0  0  0  0  0  0  0  0  0  0  0
   -2.3844    0.5355    0.8111 C   0  0  0  0  0  3  0  0  0  0  0  0
   -3.0508   -0.4337    1.8021 C   0  0  0  0  0  0  0  0  0  0  0  0
   -2.0768   -1.5805    2.0306 C   0  0  0  0  0  0  0  0  0  0  0  0
   -1.7336   -2.0953    0.6313 C   0  0  0  0  0  3  0  0  0  0  0  0
   -3.2892    1.5227    0.2782 C   0  0  0  0  0  0  0  0  0  0  0  0
   -0.6637   -3.0462    0.5270 C   0  0  0  0  0  0  0  0  0  0  0  0
   -1.5853    1.0940    1.3410 H   0  0  0  0  0  0  0  0  0  0  0  0
   -3.9920   -0.8254    1.3602 H   0  0  0  0  0  0  0  0  0  0  0  0
   -3.3290    0.0812    2.7479 H   0  0  0  0  0  0  0  0  0  0  0  0
   -2.5158   -2.3839    2.6622 H   0  0  0  0  0  0  0  0  0  0  0  0
   -1.1706   -1.2191    2.5528 H   0  0  0  0  0  0  0  0  0  0  0  0
   -2.6447   -2.5697    0.2122 H   0  0  0  0  0  0  0  0  0  0  0  0
  1  7  3  0  0  0  0
  2  8  3  0  0  0  0
  3  9  1  0  0  0  0
  3  4  1  0  0  0  0
  4  5  1  0  0  0  0
  4 11  1  0  0  0  0
  5 13  1  0  0  0  0
  5 12  1  0  0  0  0
  6  5  1  0  0  0  0
  7  3  1  0  0  0  0
  8  6  1  0  0  0  0
 10  4  1  0  0  0  0
 14  6  1  0  0  0  0
M  END
