2,25
 OpenBabel05122313053D

 43 43  0  0  1  0  0  0  0  0999 V2000
    3.1720    0.1303   -0.3514 Si  0  0  0  0  0  0  0  0  0  0  0  0
   -0.6164   -2.0625    0.8379 C   0  0  2  0  0  3  0  0  0  0  0  0
   -0.4491   -2.3454   -0.5609 C   0  0  0  0  0  0  0  0  0  0  0  0
   -1.6498   -1.9531   -1.2213 C   0  0  0  0  0  0  0  0  0  0  0  0
   -2.5563   -1.4333   -0.2454 C   0  0  0  0  0  0  0  0  0  0  0  0
   -1.9330   -1.5533    1.0448 C   0  0  0  0  0  0  0  0  0  0  0  0
    0.4581   -2.2216    1.8664 C   0  0  0  0  0  0  0  0  0  0  0  0
    0.6997   -3.0340   -1.2284 C   0  0  0  0  0  0  0  0  0  0  0  0
    0.3887   -4.0390   -1.5863 H   0  0  0  0  0  0  0  0  0  0  0  0
    1.5590   -3.1576   -0.5467 H   0  0  0  0  0  0  0  0  0  0  0  0
    1.0484   -2.4583   -2.1089 H   0  0  0  0  0  0  0  0  0  0  0  0
   -1.9883   -2.1847   -2.6592 C   0  0  0  0  0  0  0  0  0  0  0  0
   -2.5734   -3.1259   -2.7624 H   0  0  0  0  0  0  0  0  0  0  0  0
   -1.0812   -2.2741   -3.2837 H   0  0  0  0  0  0  0  0  0  0  0  0
   -2.6000   -1.3622   -3.0773 H   0  0  0  0  0  0  0  0  0  0  0  0
   -3.9916   -1.1212   -0.5533 C   0  0  0  0  0  0  0  0  0  0  0  0
   -4.1043   -0.2522   -1.2329 H   0  0  0  0  0  0  0  0  0  0  0  0
   -4.5840   -0.9212    0.3584 H   0  0  0  0  0  0  0  0  0  0  0  0
   -4.4663   -1.9846   -1.0663 H   0  0  0  0  0  0  0  0  0  0  0  0
   -2.6212   -1.5109    2.3766 C   0  0  0  0  0  0  0  0  0  0  0  0
   -2.7961   -2.5531    2.7212 H   0  0  0  0  0  0  0  0  0  0  0  0
   -3.6067   -1.0162    2.3304 H   0  0  0  0  0  0  0  0  0  0  0  0
   -2.0234   -1.0136    3.1618 H   0  0  0  0  0  0  0  0  0  0  0  0
    1.6694   -1.4014    1.4459 C   0  0  0  0  0  0  0  0  0  0  0  0
    1.5353   -0.4386    0.4753 C   0  0  0  0  0  3  0  0  0  0  0  0
    2.9344   -1.8499    2.1469 C   0  0  0  0  0  0  0  0  0  0  0  0
    3.8215   -1.2398    1.9125 H   0  0  0  0  0  0  0  0  0  0  0  0
    3.1654   -2.9093    1.8947 H   0  0  0  0  0  0  0  0  0  0  0  0
    2.7918   -1.8267    3.2503 H   0  0  0  0  0  0  0  0  0  0  0  0
    4.5117    0.8133    0.8555 C   0  0  0  0  0  0  0  0  0  0  0  0
    5.3576    0.1010    0.9498 H   0  0  0  0  0  0  0  0  0  0  0  0
    4.1346    1.0218    1.8755 H   0  0  0  0  0  0  0  0  0  0  0  0
    4.9261    1.7616    0.4545 H   0  0  0  0  0  0  0  0  0  0  0  0
    3.9186   -1.4132   -1.1852 C   0  0  0  0  0  0  0  0  0  0  0  0
    3.2897   -1.7392   -2.0374 H   0  0  0  0  0  0  0  0  0  0  0  0
    4.0229   -2.2693   -0.4896 H   0  0  0  0  0  0  0  0  0  0  0  0
    4.9262   -1.1695   -1.5830 H   0  0  0  0  0  0  0  0  0  0  0  0
    3.0978    1.4017   -1.7548 C   0  0  0  0  0  0  0  0  0  0  0  0
    4.0906    1.3780   -2.2524 H   0  0  0  0  0  0  0  0  0  0  0  0
    2.9307    2.4394   -1.4109 H   0  0  0  0  0  0  0  0  0  0  0  0
    2.3215    1.1549   -2.5023 H   0  0  0  0  0  0  0  0  0  0  0  0
    0.0920   -1.9208    2.8731 H   0  0  0  0  0  0  0  0  0  0  0  0
    0.7553   -3.2909    1.9769 H   0  0  0  0  0  0  0  0  0  0  0  0
  1 25  1  0  0  0  0
  1 30  1  0  0  0  0
  2  6  1  0  0  0  0
  2  7  1  6  0  0  0
  3  2  1  0  0  0  0
  4  3  2  0  0  0  0
  4  5  1  0  0  0  0
  5  6  2  0  0  0  0
  6 20  1  0  0  0  0
  7 43  1  0  0  0  0
  7 42  1  0  0  0  0
  8  3  1  0  0  0  0
  8 10  1  0  0  0  0
  9  8  1  0  0  0  0
 11  8  1  0  0  0  0
 12  4  1  0  0  0  0
 13 12  1  0  0  0  0
 14 12  1  0  0  0  0
 15 12  1  0  0  0  0
 16  5  1  0  0  0  0
 16 18  1  0  0  0  0
 17 16  1  0  0  0  0
 19 16  1  0  0  0  0
 20 21  1  0  0  0  0
 20 23  1  0  0  0  0
 22 20  1  0  0  0  0
 24  7  1  0  0  0  0
 24 26  1  0  0  0  0
 25 24  2  0  0  0  0
 26 29  1  0  0  0  0
 27 26  1  0  0  0  0
 28 26  1  0  0  0  0
 30 31  1  0  0  0  0
 30 32  1  0  0  0  0
 33 30  1  0  0  0  0
 34 36  1  0  0  0  0
 34  1  1  0  0  0  0
 35 34  1  0  0  0  0
 37 34  1  0  0  0  0
 38 40  1  0  0  0  0
 38  1  1  0  0  0  0
 39 38  1  0  0  0  0
 41 38  1  0  0  0  0
M  END
