26
 OpenBabel05122313053D

 54 54  0  0  1  0  0  0  0  0999 V2000
   -2.2766    3.0918   -0.3596 Si  0  0  0  0  0  0  0  0  0  0  0  0
   -4.1949   -1.8661    0.3660 Si  0  0  0  0  0  0  0  0  0  0  0  0
    1.6343    1.9345    0.7648 C   0  0  2  0  0  3  0  0  0  0  0  0
    2.9030    1.5134    0.2655 C   0  0  0  0  0  0  0  0  0  0  0  0
    3.3967    0.4879    1.1474 C   0  0  0  0  0  0  0  0  0  0  0  0
    2.4674    0.3525    2.2277 C   0  0  0  0  0  0  0  0  0  0  0  0
    1.3734    1.2366    1.9964 C   0  0  0  0  0  0  0  0  0  0  0  0
    0.6552    2.8747    0.1196 C   0  0  0  0  0  0  0  0  0  0  0  0
    3.7102    2.2429   -0.7647 C   0  0  0  0  0  0  0  0  0  0  0  0
    3.0788    2.8157   -1.4672 H   0  0  0  0  0  0  0  0  0  0  0  0
    4.3681    1.5829   -1.3583 H   0  0  0  0  0  0  0  0  0  0  0  0
    4.3711    2.9747   -0.2507 H   0  0  0  0  0  0  0  0  0  0  0  0
    4.7725   -0.1106    1.1673 C   0  0  0  0  0  0  0  0  0  0  0  0
    5.3326    0.2595    2.0533 H   0  0  0  0  0  0  0  0  0  0  0  0
    5.3619    0.1548    0.2724 H   0  0  0  0  0  0  0  0  0  0  0  0
    4.7534   -1.2166    1.2472 H   0  0  0  0  0  0  0  0  0  0  0  0
    2.6946   -0.4728    3.4543 C   0  0  0  0  0  0  0  0  0  0  0  0
    3.3353    0.0859    4.1725 H   0  0  0  0  0  0  0  0  0  0  0  0
    3.2069   -1.4263    3.2217 H   0  0  0  0  0  0  0  0  0  0  0  0
    1.7436   -0.7218    3.9589 H   0  0  0  0  0  0  0  0  0  0  0  0
    0.2159    1.4312    2.9284 C   0  0  0  0  0  0  0  0  0  0  0  0
   -0.3467    0.4849    3.0619 H   0  0  0  0  0  0  0  0  0  0  0  0
   -0.4924    2.1896    2.5495 H   0  0  0  0  0  0  0  0  0  0  0  0
    0.5756    1.7551    3.9277 H   0  0  0  0  0  0  0  0  0  0  0  0
   -0.6478    2.1347   -0.1157 C   0  0  0  0  0  0  0  0  0  0  0  0
   -0.5926    0.7604   -0.0395 C   0  0  0  0  0  3  0  0  0  0  0  0
   -1.7516   -0.0329    0.0066 C   0  0  0  0  0  0  0  0  0  0  0  0
   -2.7487   -0.7660    0.1215 C   0  0  0  0  0  0  0  0  0  0  0  0
   -1.8652    4.9307   -0.6011 C   0  0  0  0  0  0  0  0  0  0  0  0
   -1.1902    5.0863   -1.4682 H   0  0  0  0  0  0  0  0  0  0  0  0
   -1.3737    5.3650    0.2937 H   0  0  0  0  0  0  0  0  0  0  0  0
   -2.7911    5.5132   -0.7884 H   0  0  0  0  0  0  0  0  0  0  0  0
   -3.3632    2.8919    1.1802 C   0  0  0  0  0  0  0  0  0  0  0  0
   -4.3297    3.4233    1.0544 H   0  0  0  0  0  0  0  0  0  0  0  0
   -2.8622    3.3019    2.0810 H   0  0  0  0  0  0  0  0  0  0  0  0
   -3.5729    1.8185    1.3595 H   0  0  0  0  0  0  0  0  0  0  0  0
   -3.2058    2.4716   -1.8888 C   0  0  0  0  0  0  0  0  0  0  0  0
   -3.4185    1.3880   -1.8001 H   0  0  0  0  0  0  0  0  0  0  0  0
   -2.6142    2.6370   -2.8124 H   0  0  0  0  0  0  0  0  0  0  0  0
   -4.1701    3.0098   -2.0002 H   0  0  0  0  0  0  0  0  0  0  0  0
   -5.5392   -0.9032    1.2881 C   0  0  0  0  0  0  0  0  0  0  0  0
   -5.1704   -0.5668    2.2783 H   0  0  0  0  0  0  0  0  0  0  0  0
   -6.4402   -1.5306    1.4497 H   0  0  0  0  0  0  0  0  0  0  0  0
   -5.8409   -0.0034    0.7145 H   0  0  0  0  0  0  0  0  0  0  0  0
   -4.8388   -2.4081   -1.3320 C   0  0  0  0  0  0  0  0  0  0  0  0
   -5.1379   -1.5298   -1.9396 H   0  0  0  0  0  0  0  0  0  0  0  0
   -5.7217   -3.0723   -1.2267 H   0  0  0  0  0  0  0  0  0  0  0  0
   -4.0592   -2.9626   -1.8933 H   0  0  0  0  0  0  0  0  0  0  0  0
   -3.6531   -3.3736    1.3720 C   0  0  0  0  0  0  0  0  0  0  0  0
   -2.9157   -3.9764    0.8051 H   0  0  0  0  0  0  0  0  0  0  0  0
   -4.5180   -4.0228    1.6206 H   0  0  0  0  0  0  0  0  0  0  0  0
   -3.1675   -3.0541    2.3160 H   0  0  0  0  0  0  0  0  0  0  0  0
    1.0678    3.2873   -0.8280 H   0  0  0  0  0  0  0  0  0  0  0  0
    0.4840    3.7681    0.7628 H   0  0  0  0  0  0  0  0  0  0  0  0
  1 25  1  0  0  0  0
  1 33  1  0  0  0  0
  2 41  1  0  0  0  0
  2 49  1  0  0  0  0
  3  8  1  6  0  0  0
  3  7  1  0  0  0  0
  4  3  1  0  0  0  0
  4  5  2  0  0  0  0
  5 13  1  0  0  0  0
  5  6  1  0  0  0  0
  6 17  1  0  0  0  0
  7  6  2  0  0  0  0
  7 21  1  0  0  0  0
  8 54  1  0  0  0  0
  9 12  1  0  0  0  0
  9  4  1  0  0  0  0
 10  9  1  0  0  0  0
 11  9  1  0  0  0  0
 13 16  1  0  0  0  0
 13 14  1  0  0  0  0
 15 13  1  0  0  0  0
 17 20  1  0  0  0  0
 17 18  1  0  0  0  0
 19 17  1  0  0  0  0
 21 22  1  0  0  0  0
 21 24  1  0  0  0  0
 23 21  1  0  0  0  0
 25 26  2  0  0  0  0
 25  8  1  0  0  0  0
 26 27  1  0  0  0  0
 27 28  3  0  0  0  0
 28  2  1  0  0  0  0
 29  1  1  0  0  0  0
 29 31  1  0  0  0  0
 30 29  1  0  0  0  0
 32 29  1  0  0  0  0
 33 36  1  0  0  0  0
 33 35  1  0  0  0  0
 34 33  1  0  0  0  0
 37 38  1  0  0  0  0
 37  1  1  0  0  0  0
 39 37  1  0  0  0  0
 40 37  1  0  0  0  0
 41 43  1  0  0  0  0
 41 42  1  0  0  0  0
 44 41  1  0  0  0  0
 45 47  1  0  0  0  0
 45  2  1  0  0  0  0
 46 45  1  0  0  0  0
 48 45  1  0  0  0  0
 49 51  1  0  0  0  0
 49 52  1  0  0  0  0
 50 49  1  0  0  0  0
 53  8  1  0  0  0  0
M  END
