2,5
 OpenBabel05122313053D

 36 39  0  0  0  0  0  0  0  0999 V2000
   -1.3667    1.2526   -1.5323 N   0  0  0  0  0  0  0  0  0  0  0  0
   -0.2002   -0.9867   -1.4336 C   0  0  0  0  0  3  0  0  0  0  0  0
   -0.9947   -1.5859   -0.9867 H   0  0  0  0  0  0  0  0  0  0  0  0
   -0.2610    0.4160   -1.7449 C   0  0  0  0  0  3  0  0  0  0  0  0
    0.9767    0.8026   -2.3351 C   0  0  0  0  0  3  0  0  0  0  0  0
    1.2456    1.8048   -2.6784 H   0  0  0  0  0  0  0  0  0  0  0  0
    3.0379   -0.6050   -3.1281 C   0  0  0  0  0  0  0  0  0  0  0  0
    3.6351    0.2495   -3.4763 H   0  0  0  0  0  0  0  0  0  0  0  0
    3.4936   -1.9084   -3.2581 C   0  0  0  0  0  0  0  0  0  0  0  0
    4.4754   -2.0959   -3.7179 H   0  0  0  0  0  0  0  0  0  0  0  0
    2.7149   -3.0177   -2.8118 C   0  0  0  0  0  0  0  0  0  0  0  0
    3.1099   -4.0354   -2.9493 H   0  0  0  0  0  0  0  0  0  0  0  0
    1.4838   -2.8394   -2.1986 C   0  0  0  0  0  0  0  0  0  0  0  0
    0.8936   -3.6908   -1.8310 H   0  0  0  0  0  0  0  0  0  0  0  0
    0.9949   -1.5146   -2.0367 C   0  0  0  0  0  0  0  0  0  0  0  0
    1.7574   -0.3903   -2.5421 C   0  0  0  0  0  0  0  0  0  0  0  0
   -2.7253    0.8655   -1.6337 C   0  0  0  0  0  0  0  0  0  0  0  0
   -3.5308    1.9583   -1.3424 C   0  0  0  0  0  0  0  0  0  0  0  0
   -2.6572    3.0721   -1.0577 C   0  0  0  0  0  0  0  0  0  0  0  0
   -2.9003    4.4095   -0.6800 C   0  0  0  0  0  0  0  0  0  0  0  0
   -3.9323    4.7754   -0.5682 H   0  0  0  0  0  0  0  0  0  0  0  0
   -1.8116    5.2564   -0.4447 C   0  0  0  0  0  0  0  0  0  0  0  0
   -1.9857    6.3026   -0.1517 H   0  0  0  0  0  0  0  0  0  0  0  0
   -0.4865    4.7805   -0.5714 C   0  0  0  0  0  0  0  0  0  0  0  0
    0.3573    5.4586   -0.3736 H   0  0  0  0  0  0  0  0  0  0  0  0
   -0.2149    3.4560   -0.9451 C   0  0  0  0  0  0  0  0  0  0  0  0
    0.8245    3.1057   -1.0024 H   0  0  0  0  0  0  0  0  0  0  0  0
   -1.3117    2.6130   -1.1975 C   0  0  0  0  0  0  0  0  0  0  0  0
   -3.1504   -0.4994   -2.0644 C   0  0  0  0  0  0  0  0  0  0  0  0
   -4.1993   -0.4618   -2.4131 H   0  0  0  0  0  0  0  0  0  0  0  0
   -3.1063   -1.2420   -1.2398 H   0  0  0  0  0  0  0  0  0  0  0  0
   -2.5271   -0.8830   -2.8959 H   0  0  0  0  0  0  0  0  0  0  0  0
   -5.0255    2.0108   -1.3161 C   0  0  0  0  0  0  0  0  0  0  0  0
   -5.4839    1.0677   -1.6704 H   0  0  0  0  0  0  0  0  0  0  0  0
   -5.4146    2.8348   -1.9505 H   0  0  0  0  0  0  0  0  0  0  0  0
   -5.4064    2.1942   -0.2876 H   0  0  0  0  0  0  0  0  0  0  0  0
  1 28  1  0  0  0  0
  2  3  1  0  0  0  0
  4  1  1  0  0  0  0
  4  2  1  0  0  0  0
  5  4  1  0  0  0  0
  6  5  1  0  0  0  0
  7 16  1  0  0  0  0
  8  7  1  0  0  0  0
  9  7  2  0  0  0  0
  9 11  1  0  0  0  0
 10  9  1  0  0  0  0
 11 13  2  0  0  0  0
 12 11  1  0  0  0  0
 13 15  1  0  0  0  0
 13 14  1  0  0  0  0
 15  2  1  0  0  0  0
 16  5  1  0  0  0  0
 16 15  2  0  0  0  0
 17  1  1  0  0  0  0
 17 18  2  0  0  0  0
 18 33  1  0  0  0  0
 18 19  1  0  0  0  0
 19 20  1  0  0  0  0
 20 21  1  0  0  0  0
 20 22  2  0  0  0  0
 22 23  1  0  0  0  0
 24 22  1  0  0  0  0
 24 25  1  0  0  0  0
 26 24  2  0  0  0  0
 27 26  1  0  0  0  0
 28 19  2  0  0  0  0
 28 26  1  0  0  0  0
 29 17  1  0  0  0  0
 29 31  1  0  0  0  0
 30 29  1  0  0  0  0
 32 29  1  0  0  0  0
 33 36  1  0  0  0  0
 34 33  1  0  0  0  0
 35 33  1  0  0  0  0
M  END
