1,4
 OpenBabel05122313053D

 48 51  0  0  0  0  0  0  0  0999 V2000
   -0.1556    0.7911   -0.6013 C   0  0  0  0  0  2  0  0  0  0  0  0
    1.0577    1.3882   -0.3820 C   0  0  0  0  0  0  0  0  0  0  0  0
    2.1774    0.4557   -0.1212 C   0  0  0  0  0  0  0  0  0  0  0  0
    1.8615   -0.8833   -0.1327 C   0  0  0  0  0  2  0  0  0  0  0  0
   -1.4275    1.4637   -0.8999 C   0  0  0  0  0  0  0  0  0  0  0  0
   -2.1328    1.1763   -2.0943 C   0  0  0  0  0  0  0  0  0  0  0  0
   -3.3728    1.7699   -2.3613 C   0  0  0  0  0  0  0  0  0  0  0  0
   -3.9410    2.6657   -1.4393 C   0  0  0  0  0  0  0  0  0  0  0  0
   -3.2489    2.9705   -0.2560 C   0  0  0  0  0  0  0  0  0  0  0  0
   -2.0071    2.3788    0.0118 C   0  0  0  0  0  0  0  0  0  0  0  0
    1.2320    2.8650   -0.3884 C   0  0  0  0  0  0  0  0  0  0  0  0
    1.8548    3.5172    0.7007 C   0  0  0  0  0  0  0  0  0  0  0  0
    1.9924    4.9116    0.7178 C   0  0  0  0  0  0  0  0  0  0  0  0
    1.5203    5.6830   -0.3566 C   0  0  0  0  0  0  0  0  0  0  0  0
    0.9079    5.0468   -1.4483 C   0  0  0  0  0  0  0  0  0  0  0  0
    0.7653    3.6525   -1.4641 C   0  0  0  0  0  0  0  0  0  0  0  0
    3.5686    0.9418    0.0889 C   0  0  0  0  0  0  0  0  0  0  0  0
    4.3280    0.5062    1.1975 C   0  0  0  0  0  0  0  0  0  0  0  0
    5.6394    0.9591    1.3926 C   0  0  0  0  0  0  0  0  0  0  0  0
    6.2198    1.8580    0.4829 C   0  0  0  0  0  0  0  0  0  0  0  0
    5.4756    2.3005   -0.6223 C   0  0  0  0  0  0  0  0  0  0  0  0
    4.1622    1.8511   -0.8158 C   0  0  0  0  0  0  0  0  0  0  0  0
    2.8375   -1.9797   -0.0450 C   0  0  0  0  0  0  0  0  0  0  0  0
    3.9077   -2.0333   -0.9707 C   0  0  0  0  0  0  0  0  0  0  0  0
    4.8920   -3.0245   -0.8729 C   0  0  0  0  0  0  0  0  0  0  0  0
    4.8280   -3.9834    0.1509 C   0  0  0  0  0  0  0  0  0  0  0  0
    3.7651   -3.9484    1.0690 C   0  0  0  0  0  0  0  0  0  0  0  0
    2.7736   -2.9654    0.9679 C   0  0  0  0  0  0  0  0  0  0  0  0
   -1.6883    0.4721   -2.8141 H   0  0  0  0  0  0  0  0  0  0  0  0
   -3.9014    1.5319   -3.2973 H   0  0  0  0  0  0  0  0  0  0  0  0
   -4.9192    3.1266   -1.6439 H   0  0  0  0  0  0  0  0  0  0  0  0
   -3.6840    3.6732    0.4714 H   0  0  0  0  0  0  0  0  0  0  0  0
   -1.4691    2.6117    0.9426 H   0  0  0  0  0  0  0  0  0  0  0  0
    2.2326    2.9178    1.5421 H   0  0  0  0  0  0  0  0  0  0  0  0
    2.4776    5.4002    1.5768 H   0  0  0  0  0  0  0  0  0  0  0  0
    1.6341    6.7778   -0.3451 H   0  0  0  0  0  0  0  0  0  0  0  0
    0.5404    5.6417   -2.2987 H   0  0  0  0  0  0  0  0  0  0  0  0
    0.2899    3.1559   -2.3223 H   0  0  0  0  0  0  0  0  0  0  0  0
    3.8761   -0.2019    1.9073 H   0  0  0  0  0  0  0  0  0  0  0  0
    6.2139    0.6062    2.2629 H   0  0  0  0  0  0  0  0  0  0  0  0
    7.2503    2.2136    0.6356 H   0  0  0  0  0  0  0  0  0  0  0  0
    5.9215    3.0040   -1.3422 H   0  0  0  0  0  0  0  0  0  0  0  0
    3.5860    2.2021   -1.6843 H   0  0  0  0  0  0  0  0  0  0  0  0
    3.9599   -1.2764   -1.7668 H   0  0  0  0  0  0  0  0  0  0  0  0
    5.7165   -3.0477   -1.6021 H   0  0  0  0  0  0  0  0  0  0  0  0
    5.6018   -4.7624    0.2292 H   0  0  0  0  0  0  0  0  0  0  0  0
    3.7024   -4.7025    1.8685 H   0  0  0  0  0  0  0  0  0  0  0  0
    1.9311   -2.9540    1.6728 H   0  0  0  0  0  0  0  0  0  0  0  0
  1  2  1  0  0  0  0
  2  3  2  0  0  0  0
  3 17  1  0  0  0  0
  4  3  1  0  0  0  0
  4 23  1  0  0  0  0
  5  1  1  0  0  0  0
  5 10  1  0  0  0  0
  6  5  2  0  0  0  0
  7  6  1  0  0  0  0
  7  8  2  0  0  0  0
  8  9  1  0  0  0  0
  9 10  2  0  0  0  0
  9 32  1  0  0  0  0
 10 33  1  0  0  0  0
 11  2  1  0  0  0  0
 11 12  1  0  0  0  0
 12 13  2  0  0  0  0
 12 34  1  0  0  0  0
 13 35  1  0  0  0  0
 14 36  1  0  0  0  0
 14 13  1  0  0  0  0
 15 14  2  0  0  0  0
 16 15  1  0  0  0  0
 16 11  2  0  0  0  0
 17 18  1  0  0  0  0
 18 19  2  0  0  0  0
 18 39  1  0  0  0  0
 19 40  1  0  0  0  0
 20 41  1  0  0  0  0
 20 19  1  0  0  0  0
 21 20  2  0  0  0  0
 22 21  1  0  0  0  0
 22 17  2  0  0  0  0
 23 28  1  0  0  0  0
 24 25  1  0  0  0  0
 24 23  2  0  0  0  0
 25 26  2  0  0  0  0
 26 46  1  0  0  0  0
 26 27  1  0  0  0  0
 27 47  1  0  0  0  0
 28 27  2  0  0  0  0
 28 48  1  0  0  0  0
 29  6  1  0  0  0  0
 30  7  1  0  0  0  0
 31  8  1  0  0  0  0
 37 15  1  0  0  0  0
 38 16  1  0  0  0  0
 42 21  1  0  0  0  0
 43 22  1  0  0  0  0
 44 24  1  0  0  0  0
 45 25  1  0  0  0  0
M  END
