1,8
 OpenBabel05122313053D

 43 44  0  0  0  0  0  0  0  0999 V2000
    1.3781   -0.8079    0.6305 C   0  0  0  0  0  2  0  0  0  0  0  0
    2.3056   -1.7633    0.2798 N   0  0  0  0  0  0  0  0  0  0  0  0
    2.6848   -2.5272    1.3899 C   0  0  0  0  0  0  0  0  0  0  0  0
    3.4362   -3.3187    1.3343 H   0  0  0  0  0  0  0  0  0  0  0  0
    1.9754   -2.0724    2.4639 C   0  0  0  0  0  0  0  0  0  0  0  0
    1.9853   -2.3831    3.5131 H   0  0  0  0  0  0  0  0  0  0  0  0
    1.2027   -1.0182    1.9904 N   0  0  0  0  0  0  0  0  0  0  0  0
   -1.3465   -0.8229    0.6282 C   0  0  0  0  0  2  0  0  0  0  0  0
   -2.4187   -1.6387    0.3430 N   0  0  0  0  0  0  0  0  0  0  0  0
   -2.9091   -2.2448    1.5042 C   0  0  0  0  0  0  0  0  0  0  0  0
   -3.7791   -2.9044    1.5094 H   0  0  0  0  0  0  0  0  0  0  0  0
   -2.1096   -1.8513    2.5407 C   0  0  0  0  0  0  0  0  0  0  0  0
   -2.1450   -2.0975    3.6064 H   0  0  0  0  0  0  0  0  0  0  0  0
   -1.1720   -0.9915    1.9892 N   0  0  0  0  0  0  0  0  0  0  0  0
    0.0240   -0.4602    2.6345 C   0  0  0  0  0  0  0  0  0  0  0  0
    0.0384    0.6404    2.5048 H   0  0  0  0  0  0  0  0  0  0  0  0
    0.0173   -0.7371    3.7053 H   0  0  0  0  0  0  0  0  0  0  0  0
    2.7231   -2.1679   -1.1021 C   0  0  0  0  0  0  0  0  0  0  0  0
    2.2702   -1.1469   -2.1469 C   0  0  0  0  0  0  0  0  0  0  0  0
    1.1805   -0.9518   -2.0850 H   0  0  0  0  0  0  0  0  0  0  0  0
    2.5209   -1.5417   -3.1510 H   0  0  0  0  0  0  0  0  0  0  0  0
    2.7759   -0.1759   -2.0121 H   0  0  0  0  0  0  0  0  0  0  0  0
    4.2571   -2.2914   -1.1406 C   0  0  0  0  0  0  0  0  0  0  0  0
    4.7311   -1.3306   -0.8609 H   0  0  0  0  0  0  0  0  0  0  0  0
    4.5789   -2.5500   -2.1681 H   0  0  0  0  0  0  0  0  0  0  0  0
    4.6394   -3.0835   -0.4664 H   0  0  0  0  0  0  0  0  0  0  0  0
    2.0560   -3.5269   -1.3943 C   0  0  0  0  0  0  0  0  0  0  0  0
    2.3591   -4.3033   -0.6637 H   0  0  0  0  0  0  0  0  0  0  0  0
    2.3390   -3.8781   -2.4060 H   0  0  0  0  0  0  0  0  0  0  0  0
    0.9531   -3.4254   -1.3562 H   0  0  0  0  0  0  0  0  0  0  0  0
   -2.9983   -1.9195   -1.0124 C   0  0  0  0  0  0  0  0  0  0  0  0
   -1.9131   -1.7544   -2.0841 C   0  0  0  0  0  0  0  0  0  0  0  0
   -1.4463   -0.7515   -2.0445 H   0  0  0  0  0  0  0  0  0  0  0  0
   -2.3656   -1.9127   -3.0825 H   0  0  0  0  0  0  0  0  0  0  0  0
   -1.1075   -2.5019   -1.9415 H   0  0  0  0  0  0  0  0  0  0  0  0
   -3.4969   -3.3771   -1.0467 C   0  0  0  0  0  0  0  0  0  0  0  0
   -2.6990   -4.0824   -0.7403 H   0  0  0  0  0  0  0  0  0  0  0  0
   -3.7951   -3.6253   -2.0835 H   0  0  0  0  0  0  0  0  0  0  0  0
   -4.3858   -3.5437   -0.4067 H   0  0  0  0  0  0  0  0  0  0  0  0
   -4.1795   -0.9660   -1.2614 C   0  0  0  0  0  0  0  0  0  0  0  0
   -4.9373   -1.0571   -0.4573 H   0  0  0  0  0  0  0  0  0  0  0  0
   -4.6671   -1.2113   -2.2257 H   0  0  0  0  0  0  0  0  0  0  0  0
   -3.8362    0.0843   -1.3017 H   0  0  0  0  0  0  0  0  0  0  0  0
  1  7  1  0  0  0  0
  2  1  1  0  0  0  0
  2  3  1  0  0  0  0
  3  5  2  0  0  0  0
  4  3  1  0  0  0  0
  5  6  1  0  0  0  0
  7  5  1  0  0  0  0
  7 15  1  0  0  0  0
  8 14  1  0  0  0  0
  9  8  1  0  0  0  0
  9 10  1  0  0  0  0
 10 11  1  0  0  0  0
 10 12  2  0  0  0  0
 12 13  1  0  0  0  0
 14 12  1  0  0  0  0
 14 15  1  0  0  0  0
 15 17  1  0  0  0  0
 16 15  1  0  0  0  0
 18  2  1  0  0  0  0
 19 20  1  0  0  0  0
 19 22  1  0  0  0  0
 19 18  1  0  0  0  0
 21 19  1  0  0  0  0
 23 18  1  0  0  0  0
 23 24  1  0  0  0  0
 23 26  1  0  0  0  0
 25 23  1  0  0  0  0
 27 30  1  0  0  0  0
 27 18  1  0  0  0  0
 27 28  1  0  0  0  0
 29 27  1  0  0  0  0
 31  9  1  0  0  0  0
 32 33  1  0  0  0  0
 32 35  1  0  0  0  0
 32 31  1  0  0  0  0
 34 32  1  0  0  0  0
 36 31  1  0  0  0  0
 36 37  1  0  0  0  0
 36 39  1  0  0  0  0
 38 36  1  0  0  0  0
 40 31  1  0  0  0  0
 40 41  1  0  0  0  0
 42 40  1  0  0  0  0
 43 40  1  0  0  0  0
M  END
