12,14
 OpenBabel05122313053D

 16 17  0  0  1  0  0  0  0  0999 V2000
    3.3258   -0.0001    1.1683 F   0  0  0  0  0  0  0  0  0  0  0  0
    3.0303    1.6116   -1.3051 F   0  0  0  0  0  0  0  0  0  0  0  0
    0.5167    2.9962   -0.9088 F   0  0  0  0  0  0  0  0  0  0  0  0
   -0.4698    2.0283    1.6791 F   0  0  0  0  0  0  0  0  0  0  0  0
    1.0666   -0.0032    2.5253 F   0  0  0  0  0  0  0  0  0  0  0  0
   -0.4683   -2.0333    1.6736 F   0  0  0  0  0  0  0  0  0  0  0  0
    0.5201   -2.9946   -0.9155 F   0  0  0  0  0  0  0  0  0  0  0  0
    3.0325   -1.6066   -1.3082 F   0  0  0  0  0  0  0  0  0  0  0  0
    2.1939    0.0004    0.3638 C   0  0  2  0  0  0  0  0  0  0  0  0
    2.0831    1.2593   -0.4377 C   0  0  0  0  0  0  0  0  0  0  0  0
    0.8939    1.8921   -0.2582 C   0  0  0  0  0  0  0  0  0  0  0  0
    0.0037    1.1929    0.6847 C   0  0  1  0  0  0  0  0  0  0  0  0
    0.8380   -0.0014    1.1854 C   0  0  2  0  0  0  0  0  0  0  0  0
    0.0047   -1.1949    0.6813 C   0  0  1  0  0  0  0  0  0  0  0  0
    0.8958   -1.8911   -0.2629 C   0  0  0  0  0  0  0  0  0  0  0  0
    2.0844   -1.2568   -0.4407 C   0  0  0  0  0  0  0  0  0  0  0  0
  2 10  1  0  0  0  0
  3 11  1  0  0  0  0
  7 15  1  0  0  0  0
  8 16  1  0  0  0  0
  9  1  1  1  0  0  0
  9 13  1  0  0  0  0
 10 11  2  0  0  0  0
 10  9  1  0  0  0  0
 11 12  1  0  0  0  0
 12 13  1  0  0  0  0
 12  4  1  1  0  0  0
 13  5  1  1  0  0  0
 14 13  1  0  0  0  0
 14  6  1  1  0  0  0
 15 14  1  0  0  0  0
 16 15  2  0  0  0  0
 16  9  1  0  0  0  0
M  END
