9,22
 OpenBabel05122313053D

 62 65  0  0  1  0  0  0  0  0999 V2000
   -1.4937    0.3826   -0.1684 P   0  0  0  0  0  0  0  0  0  0  0  0
    2.1601   -1.5012   -1.9467 O   0  0  0  0  0  0  0  0  0  0  0  0
   -0.8220   -2.4651    1.5680 O   0  0  0  0  0  0  0  0  0  0  0  0
    0.2884    1.4885   -2.0354 C   0  0  0  0  0  0  0  0  0  0  0  0
   -0.4881    2.4901   -2.9092 C   0  0  0  0  0  0  0  0  0  0  0  0
   -0.4552    3.8995   -2.3041 C   0  0  0  0  0  0  0  0  0  0  0  0
   -0.9773    3.9118   -0.8610 C   0  0  0  0  0  0  0  0  0  0  0  0
   -0.2139    2.9057    0.0215 C   0  0  0  0  0  0  0  0  0  0  0  0
   -0.2192    1.5121   -0.5948 C   0  0  0  0  0  3  0  0  0  0  0  0
   -2.8641    0.5681    0.8026 C   0  0  0  0  0  3  0  0  0  0  0  0
   -3.3356    1.8830    1.3724 C   0  0  0  0  0  0  0  0  0  0  0  0
   -4.8500    2.0497    1.1233 C   0  0  0  0  0  0  0  0  0  0  0  0
   -5.6451    0.8447    1.6401 C   0  0  0  0  0  0  0  0  0  0  0  0
   -5.1344   -0.4696    1.0366 C   0  0  0  0  0  0  0  0  0  0  0  0
   -3.6243   -0.6466    1.2839 C   0  0  0  0  0  0  0  0  0  0  0  0
   -1.5135   -1.1073   -1.1988 C   0  0  0  0  0  0  0  0  0  0  0  0
   -2.5920   -1.3034   -2.0871 C   0  0  0  0  0  0  0  0  0  0  0  0
   -2.6022   -2.4068   -2.9488 C   0  0  0  0  0  0  0  0  0  0  0  0
   -1.5298   -3.3139   -2.9256 C   0  0  0  0  0  0  0  0  0  0  0  0
   -0.4654   -3.1261   -2.0347 C   0  0  0  0  0  0  0  0  0  0  0  0
   -0.4411   -2.0285   -1.1494 C   0  0  0  0  0  0  0  0  0  0  0  0
    0.6846   -1.9220   -0.1656 C   0  0  2  0  0  3  0  0  0  0  0  0
    2.0382   -1.8527   -0.6396 C   0  0  0  0  0  0  0  0  0  0  0  0
    3.1219   -2.1302    0.2111 C   0  0  0  0  0  0  0  0  0  0  0  0
    2.8753   -2.4824    1.5440 C   0  0  0  0  0  3  0  0  0  0  0  0
    1.5731   -2.5778    2.0496 C   0  0  0  0  0  0  0  0  0  0  0  0
    0.4797   -2.3205    1.1992 C   0  0  0  0  0  0  0  0  0  0  0  0
    3.4572   -1.2054   -2.4512 C   0  0  0  0  0  0  0  0  0  0  0  0
   -1.1097   -2.7660    2.9235 C   0  0  0  0  0  0  0  0  0  0  0  0
    0.2524    0.4692   -2.4681 H   0  0  0  0  0  0  0  0  0  0  0  0
    1.3613    1.7804   -2.0083 H   0  0  0  0  0  0  0  0  0  0  0  0
   -0.0701    2.4983   -3.9385 H   0  0  0  0  0  0  0  0  0  0  0  0
   -1.5437    2.1451   -2.9966 H   0  0  0  0  0  0  0  0  0  0  0  0
   -1.0395    4.6050   -2.9318 H   0  0  0  0  0  0  0  0  0  0  0  0
    0.5946    4.2697   -2.3114 H   0  0  0  0  0  0  0  0  0  0  0  0
   -2.0605    3.6526   -0.8645 H   0  0  0  0  0  0  0  0  0  0  0  0
   -0.8963    4.9310   -0.4271 H   0  0  0  0  0  0  0  0  0  0  0  0
    0.8477    3.2208    0.1056 H   0  0  0  0  0  0  0  0  0  0  0  0
   -0.6062    2.8944    1.0580 H   0  0  0  0  0  0  0  0  0  0  0  0
   -2.7870    2.7427    0.9450 H   0  0  0  0  0  0  0  0  0  0  0  0
   -3.1547    1.9089    2.4745 H   0  0  0  0  0  0  0  0  0  0  0  0
   -5.2072    2.9865    1.6012 H   0  0  0  0  0  0  0  0  0  0  0  0
   -5.0182    2.1610    0.0294 H   0  0  0  0  0  0  0  0  0  0  0  0
   -5.5495    0.7952    2.7489 H   0  0  0  0  0  0  0  0  0  0  0  0
   -6.7269    0.9755    1.4272 H   0  0  0  0  0  0  0  0  0  0  0  0
   -5.3197   -0.4708   -0.0605 H   0  0  0  0  0  0  0  0  0  0  0  0
   -5.6910   -1.3343    1.4567 H   0  0  0  0  0  0  0  0  0  0  0  0
   -3.4656   -0.7652    2.3847 H   0  0  0  0  0  0  0  0  0  0  0  0
   -3.2502   -1.5769    0.8128 H   0  0  0  0  0  0  0  0  0  0  0  0
   -3.4163   -0.5741   -2.0984 H   0  0  0  0  0  0  0  0  0  0  0  0
   -3.4411   -2.5538   -3.6454 H   0  0  0  0  0  0  0  0  0  0  0  0
   -1.5267   -4.1813   -3.6032 H   0  0  0  0  0  0  0  0  0  0  0  0
    0.3656   -3.8461   -2.0061 H   0  0  0  0  0  0  0  0  0  0  0  0
    4.1532   -2.0218   -0.1418 H   0  0  0  0  0  0  0  0  0  0  0  0
    3.7258   -2.6656    2.2159 H   0  0  0  0  0  0  0  0  0  0  0  0
    1.4142   -2.8441    3.1012 H   0  0  0  0  0  0  0  0  0  0  0  0
    3.9393   -0.3992   -1.8604 H   0  0  0  0  0  0  0  0  0  0  0  0
    3.3087   -0.8675   -3.4931 H   0  0  0  0  0  0  0  0  0  0  0  0
    4.1109   -2.1053   -2.4527 H   0  0  0  0  0  0  0  0  0  0  0  0
   -0.6769   -3.7439    3.2286 H   0  0  0  0  0  0  0  0  0  0  0  0
   -2.2108   -2.8165    3.0006 H   0  0  0  0  0  0  0  0  0  0  0  0
   -0.7322   -1.9726    3.6052 H   0  0  0  0  0  0  0  0  0  0  0  0
  1 10  1  0  0  0  0
  2 23  1  0  0  0  0
  3 29  1  0  0  0  0
  4 31  1  0  0  0  0
  4  9  1  0  0  0  0
  5  6  1  0  0  0  0
  5  4  1  0  0  0  0
  6  7  1  0  0  0  0
  7 37  1  0  0  0  0
  7  8  1  0  0  0  0
  8 38  1  0  0  0  0
  8 39  1  0  0  0  0
  9  1  1  0  0  0  0
  9  8  1  0  0  0  0
 10 15  1  0  0  0  0
 10 11  1  0  0  0  0
 11 41  1  0  0  0  0
 12 11  1  0  0  0  0
 12 42  1  0  0  0  0
 12 13  1  0  0  0  0
 13 44  1  0  0  0  0
 14 15  1  0  0  0  0
 14 47  1  0  0  0  0
 14 13  1  0  0  0  0
 15 48  1  0  0  0  0
 16 21  1  0  0  0  0
 16  1  1  0  0  0  0
 17 16  2  0  0  0  0
 18 19  2  0  0  0  0
 18 17  1  0  0  0  0
 19 20  1  0  0  0  0
 20 53  1  0  0  0  0
 20 21  2  0  0  0  0
 22 21  1  6  0  0  0
 22 27  1  0  0  0  0
 23 22  1  0  0  0  0
 23 24  2  0  0  0  0
 24 25  1  0  0  0  0
 25 26  1  0  0  0  0
 25 55  1  0  0  0  0
 26 56  1  0  0  0  0
 27  3  1  0  0  0  0
 27 26  2  0  0  0  0
 28  2  1  0  0  0  0
 28 57  1  0  0  0  0
 29 61  1  0  0  0  0
 29 60  1  0  0  0  0
 29 62  1  0  0  0  0
 30  4  1  0  0  0  0
 32  5  1  0  0  0  0
 33  5  1  0  0  0  0
 34  6  1  0  0  0  0
 35  6  1  0  0  0  0
 36  7  1  0  0  0  0
 40 11  1  0  0  0  0
 43 12  1  0  0  0  0
 45 13  1  0  0  0  0
 46 14  1  0  0  0  0
 49 15  1  0  0  0  0
 50 17  1  0  0  0  0
 51 18  1  0  0  0  0
 52 19  1  0  0  0  0
 54 24  1  0  0  0  0
 58 28  1  0  0  0  0
 59 28  1  0  0  0  0
M  END
