6,8
 OpenBabel05122313053D

 46 55  0  0  1  0  0  0  0  0999 V2000
   -2.1547   -1.9467   -1.0196 Si  0  0  0  0  0  0  0  0  0  0  0  0
   -2.6403   -0.5097    0.1552 C   0  0  0  0  0  0  0  0  0  0  0  0
   -1.3890    0.5700    0.5362 C   0  0  1  0  0  0  0  0  0  0  0  0
   -3.1588   -1.8330   -2.6069 C   0  0  0  0  0  0  0  0  0  0  0  0
   -2.4696   -3.5931   -0.1619 C   0  0  0  0  0  0  0  0  0  0  0  0
   -0.3399   -1.6400   -1.3941 C   0  0  2  0  0  3  0  0  0  0  0  0
    0.1285   -0.8194   -2.4730 C   0  0  0  0  0  3  0  0  0  0  0  0
    1.5443   -0.7627   -2.4717 C   0  0  0  0  0  3  0  0  0  0  0  0
    3.3228   -2.0798   -1.0667 C   0  0  0  0  0  0  0  0  0  0  0  0
    3.4574   -3.0138   -0.0475 C   0  0  0  0  0  0  0  0  0  0  0  0
    2.3175   -3.5265    0.6345 C   0  0  0  0  0  0  0  0  0  0  0  0
    1.0303   -3.1277    0.2950 C   0  0  0  0  0  0  0  0  0  0  0  0
    0.8483   -2.2078   -0.7777 C   0  0  0  0  0  0  0  0  0  0  0  0
    2.0167   -1.6644   -1.4510 C   0  0  0  0  0  0  0  0  0  0  0  0
   -2.6407    1.0440   -0.5314 B   0  0  2  0  0  0  0  0  0  0  0  0
   -2.0583    2.1337    0.7355 B   0  0  2  0  0  0  0  0  0  0  0  0
   -1.6266    1.1464    2.1299 B   0  0  1  0  0  0  0  0  0  0  0  0
   -1.9541   -0.5426    1.7080 B   0  0  1  0  0  0  0  0  0  0  0  0
   -3.7139   -0.7143    1.4623 B   0  0  1  0  0  0  0  0  0  0  0  0
   -4.1451    0.2803    0.0597 B   0  0  1  0  0  0  0  0  0  0  0  0
   -3.8071    1.9807    0.4487 B   0  0  1  0  0  0  0  0  0  0  0  0
   -3.1732    2.0336    2.1235 B   0  0  2  0  0  0  0  0  0  0  0  0
   -3.0992    0.3546    2.7445 B   0  0  1  0  0  0  0  0  0  0  0  0
   -4.4644    0.8815    1.7058 B   0  0  2  0  0  0  0  0  0  0  0  0
   -2.8184   -2.6043   -3.3273 H   0  0  0  0  0  0  0  0  0  0  0  0
   -3.0619   -0.8387   -3.0846 H   0  0  0  0  0  0  0  0  0  0  0  0
   -4.2333   -2.0025   -2.3961 H   0  0  0  0  0  0  0  0  0  0  0  0
   -1.9856   -4.4209   -0.7185 H   0  0  0  0  0  0  0  0  0  0  0  0
   -3.5597   -3.7902   -0.1261 H   0  0  0  0  0  0  0  0  0  0  0  0
   -2.0962   -3.5988    0.8802 H   0  0  0  0  0  0  0  0  0  0  0  0
   -0.5251   -0.2550   -3.1514 H   0  0  0  0  0  0  0  0  0  0  0  0
    2.1774   -0.2065   -3.1737 H   0  0  0  0  0  0  0  0  0  0  0  0
    4.2042   -1.6836   -1.5934 H   0  0  0  0  0  0  0  0  0  0  0  0
    4.4594   -3.3617    0.2454 H   0  0  0  0  0  0  0  0  0  0  0  0
    2.4613   -4.2576    1.4442 H   0  0  0  0  0  0  0  0  0  0  0  0
    0.1602   -3.5391    0.8246 H   0  0  0  0  0  0  0  0  0  0  0  0
   -2.3980    1.1700   -1.7072 H   0  0  0  0  0  0  0  0  0  0  0  0
   -1.3983    3.0894    0.4145 H   0  0  0  0  0  0  0  0  0  0  0  0
   -0.6473    1.3990    2.7865 H   0  0  0  0  0  0  0  0  0  0  0  0
   -1.2549   -1.4779    2.0196 H   0  0  0  0  0  0  0  0  0  0  0  0
   -4.2050   -1.8060    1.6225 H   0  0  0  0  0  0  0  0  0  0  0  0
   -4.9395   -0.1162   -0.7588 H   0  0  0  0  0  0  0  0  0  0  0  0
   -4.4426    2.8778   -0.0554 H   0  0  0  0  0  0  0  0  0  0  0  0
   -3.3460    2.9850    2.8511 H   0  0  0  0  0  0  0  0  0  0  0  0
   -3.2190    0.0648    3.9126 H   0  0  0  0  0  0  0  0  0  0  0  0
   -5.5961    0.9775    2.1229 H   0  0  0  0  0  0  0  0  0  0  0  0
  1  5  1  0  0  0  0
  1  2  1  0  0  0  0
  2 18  1  0  0  0  0
  3  2  1  1  0  0  0
  3 18  1  0  0  0  0
  3 17  1  0  0  0  0
  4 27  1  0  0  0  0
  4  1  1  0  0  0  0
  5 29  1  0  0  0  0
  5 30  1  0  0  0  0
  6  1  1  6  0  0  0
  6 13  1  0  0  0  0
  7  8  1  0  0  0  0
  7  6  1  0  0  0  0
  8 14  1  0  0  0  0
  9 10  1  0  0  0  0
 10 34  1  0  0  0  0
 10 11  2  0  0  0  0
 11 35  1  0  0  0  0
 12 11  1  0  0  0  0
 12 36  1  0  0  0  0
 13 12  2  0  0  0  0
 14  9  2  0  0  0  0
 14 13  1  0  0  0  0
 15 37  1  6  0  0  0
 15  2  1  0  0  0  0
 15  3  1  0  0  0  0
 15 16  1  0  0  0  0
 16 38  1  6  0  0  0
 16 17  1  0  0  0  0
 17 39  1  1  0  0  0
 18 40  1  1  0  0  0
 18 17  1  0  0  0  0
 19 41  1  1  0  0  0
 19 24  1  0  0  0  0
 19 23  1  0  0  0  0
 20 42  1  6  0  0  0
 20  2  1  0  0  0  0
 20 21  1  0  0  0  0
 20 19  1  0  0  0  0
 21 43  1  6  0  0  0
 21 16  1  0  0  0  0
 21 22  1  0  0  0  0
 22 23  1  0  0  0  0
 22 44  1  1  0  0  0
 23 45  1  1  0  0  0
 24 46  1  1  0  0  0
 24 22  1  0  0  0  0
 24 23  1  0  0  0  0
 25  4  1  0  0  0  0
 26  4  1  0  0  0  0
 28  5  1  0  0  0  0
 31  7  1  0  0  0  0
 32  8  1  0  0  0  0
 33  9  1  0  0  0  0
M  HYD  3   6   0   7   0   8   0
M  ZBO  1   2   0
M  END
