4,6
 OpenBabel05122313053D

 24 25  0  0  1  0  0  0  0  0999 V2000
    3.2883   -1.1346   -0.2054 O   0  0  0  0  0  0  0  0  0  0  0  0
    1.1953   -0.0325    0.3184 C   0  0  0  0  0  0  0  0  0  0  0  0
    0.2979    1.1834    0.1812 C   0  0  0  0  0  3  0  0  0  0  0  0
   -0.3573    1.4328   -1.0465 C   0  0  0  0  0  3  0  0  0  0  0  0
   -0.6637    0.3435   -1.9256 C   0  0  0  0  0  3  0  0  0  0  0  0
   -0.3351   -0.9745   -1.4669 C   0  0  0  0  0  3  0  0  0  0  0  0
    0.3217   -1.1465   -0.2293 C   0  0  0  0  0  3  0  0  0  0  0  0
    2.5699    0.0982   -0.3623 C   0  0  1  0  0  0  0  0  0  0  0  0
    3.4690    1.1977    0.2263 C   0  0  0  0  0  0  0  0  0  0  0  0
    4.8698    0.6006    0.0429 C   0  0  0  0  0  0  0  0  0  0  0  0
    4.5958   -0.8818    0.3096 C   0  0  0  0  0  0  0  0  0  0  0  0
    1.3848   -0.2270    1.3945 H   0  0  0  0  0  0  0  0  0  0  0  0
    0.3857    2.0112    0.9010 H   0  0  0  0  0  0  0  0  0  0  0  0
   -0.7560    2.4335   -1.2746 H   0  0  0  0  0  0  0  0  0  0  0  0
   -1.1970    0.5044   -2.8714 H   0  0  0  0  0  0  0  0  0  0  0  0
   -0.7153   -1.8452   -2.0232 H   0  0  0  0  0  0  0  0  0  0  0  0
    0.4417   -2.1665    0.1629 H   0  0  0  0  0  0  0  0  0  0  0  0
    2.4045    0.2756   -1.4530 H   0  0  0  0  0  0  0  0  0  0  0  0
    3.2464    1.3300    1.3077 H   0  0  0  0  0  0  0  0  0  0  0  0
    3.3300    2.1775   -0.2694 H   0  0  0  0  0  0  0  0  0  0  0  0
    5.6301    1.0342    0.7218 H   0  0  0  0  0  0  0  0  0  0  0  0
    5.2184    0.7465   -1.0008 H   0  0  0  0  0  0  0  0  0  0  0  0
    4.6336   -1.1005    1.4049 H   0  0  0  0  0  0  0  0  0  0  0  0
    5.3148   -1.5628   -0.1931 H   0  0  0  0  0  0  0  0  0  0  0  0
  1 11  1  0  0  0  0
  2 12  1  0  0  0  0
  3  2  1  0  0  0  0
  3 13  1  0  0  0  0
  4  3  1  0  0  0  0
  5  6  1  0  0  0  0
  5  4  1  0  0  0  0
  6  7  1  0  0  0  0
  7 17  1  0  0  0  0
  7  2  1  0  0  0  0
  8 18  1  6  0  0  0
  8  1  1  0  0  0  0
  8  9  1  0  0  0  0
  8  2  1  0  0  0  0
  9 19  1  0  0  0  0
 10  9  1  0  0  0  0
 10 11  1  0  0  0  0
 10 21  1  0  0  0  0
 11 23  1  0  0  0  0
 14  4  1  0  0  0  0
 15  5  1  0  0  0  0
 16  6  1  0  0  0  0
 20  9  1  0  0  0  0
 22 10  1  0  0  0  0
 24 11  1  0  0  0  0
M  END
