6,13
 OpenBabel05122313053D

 38 39  0  0  0  0  0  0  0  0999 V2000
    0.1203    1.0990    0.7217 C   0  0  0  0  0  3  0  0  0  0  0  0
    0.1456    1.8836    2.0418 C   0  0  0  0  0  0  0  0  0  0  0  0
   -0.1524    3.3775    1.7806 C   0  0  0  0  0  0  0  0  0  0  0  0
   -0.9574    1.3181    2.9613 C   0  0  0  0  0  0  0  0  0  0  0  0
    1.5160    1.7217    2.7247 C   0  0  0  0  0  0  0  0  0  0  0  0
   -1.1042    0.5474    0.0960 C   0  0  0  0  0  2  0  0  0  0  0  0
   -2.2445    1.2885   -0.4115 C   0  0  0  0  0  0  0  0  0  0  0  0
   -3.5520    0.7592   -0.2652 C   0  0  0  0  0  0  0  0  0  0  0  0
   -4.6614    1.4516   -0.7673 C   0  0  0  0  0  0  0  0  0  0  0  0
   -4.4900    2.6751   -1.4360 C   0  0  0  0  0  0  0  0  0  0  0  0
   -3.1991    3.2118   -1.5879 C   0  0  0  0  0  0  0  0  0  0  0  0
   -2.0880    2.5356   -1.0711 C   0  0  0  0  0  0  0  0  0  0  0  0
    1.1475    0.5679   -0.0474 C   0  0  0  0  0  2  0  0  0  0  0  0
    2.4575    1.0243   -0.4533 C   0  0  0  0  0  0  0  0  0  0  0  0
    3.4702    0.1398   -0.9173 C   0  0  0  0  0  0  0  0  0  0  0  0
    4.6756    0.6344   -1.4199 C   0  0  0  0  0  0  0  0  0  0  0  0
    4.9047    2.0211   -1.4922 C   0  0  0  0  0  0  0  0  0  0  0  0
    3.9103    2.9129   -1.0584 C   0  0  0  0  0  0  0  0  0  0  0  0
    2.7044    2.4231   -0.5458 C   0  0  0  0  0  0  0  0  0  0  0  0
   -0.1356    3.9310    2.7421 H   0  0  0  0  0  0  0  0  0  0  0  0
    0.6020    3.8446    1.1161 H   0  0  0  0  0  0  0  0  0  0  0  0
   -1.1515    3.5197    1.3244 H   0  0  0  0  0  0  0  0  0  0  0  0
   -0.9651    1.8762    3.9197 H   0  0  0  0  0  0  0  0  0  0  0  0
   -1.9600    1.4202    2.4989 H   0  0  0  0  0  0  0  0  0  0  0  0
   -0.7944    0.2442    3.1734 H   0  0  0  0  0  0  0  0  0  0  0  0
    1.4994    2.2030    3.7236 H   0  0  0  0  0  0  0  0  0  0  0  0
    1.7651    0.6495    2.8544 H   0  0  0  0  0  0  0  0  0  0  0  0
    2.3305    2.1890    2.1378 H   0  0  0  0  0  0  0  0  0  0  0  0
   -3.6735   -0.1863    0.2843 H   0  0  0  0  0  0  0  0  0  0  0  0
   -5.6710    1.0348   -0.6315 H   0  0  0  0  0  0  0  0  0  0  0  0
   -5.3623    3.2148   -1.8342 H   0  0  0  0  0  0  0  0  0  0  0  0
   -3.0598    4.1700   -2.1115 H   0  0  0  0  0  0  0  0  0  0  0  0
   -1.0766    2.9528   -1.1904 H   0  0  0  0  0  0  0  0  0  0  0  0
    3.2981   -0.9412   -0.8249 H   0  0  0  0  0  0  0  0  0  0  0  0
    5.4525   -0.0685   -1.7573 H   0  0  0  0  0  0  0  0  0  0  0  0
    5.8563    2.4049   -1.8903 H   0  0  0  0  0  0  0  0  0  0  0  0
    4.0752    3.9992   -1.1222 H   0  0  0  0  0  0  0  0  0  0  0  0
    1.9171    3.1227   -0.2315 H   0  0  0  0  0  0  0  0  0  0  0  0
  1  2  1  0  0  0  0
  2  5  1  0  0  0  0
  2  4  1  0  0  0  0
  3  2  1  0  0  0  0
  3 20  1  0  0  0  0
  4 25  1  0  0  0  0
  4 23  1  0  0  0  0
  5 27  1  0  0  0  0
  5 26  1  0  0  0  0
  6  1  1  0  0  0  0
  7  8  1  0  0  0  0
  7  6  1  0  0  0  0
  8 29  1  0  0  0  0
  9 30  1  0  0  0  0
  9  8  2  0  0  0  0
 10  9  1  0  0  0  0
 11 10  2  0  0  0  0
 11 12  1  0  0  0  0
 12  7  2  0  0  0  0
 13  1  1  0  0  0  0
 14 13  1  0  0  0  0
 15 34  1  0  0  0  0
 15 14  2  0  0  0  0
 16 15  1  0  0  0  0
 17 16  2  0  0  0  0
 17 18  1  0  0  0  0
 18 19  2  0  0  0  0
 19 14  1  0  0  0  0
 19 38  1  0  0  0  0
 21  3  1  0  0  0  0
 22  3  1  0  0  0  0
 24  4  1  0  0  0  0
 28  5  1  0  0  0  0
 31 10  1  0  0  0  0
 32 11  1  0  0  0  0
 33 12  1  0  0  0  0
 35 16  1  0  0  0  0
 36 17  1  0  0  0  0
 37 18  1  0  0  0  0
M  END
