12,13
 OpenBabel05122313053D

 27 29  0  0  0  0  0  0  0  0999 V2000
   -3.0911    0.7098   -0.0000 C   0  0  0  0  0  0  0  0  0  0  0  0
   -2.5809    1.6837   -0.0002 H   0  0  0  0  0  0  0  0  0  0  0  0
   -0.3759   -3.8998    0.0006 N   0  0  0  0  0  0  0  0  0  0  0  0
   -4.4874   -1.7483    0.0004 C   0  0  0  0  0  0  0  0  0  0  0  0
   -5.0281   -2.7066    0.0006 H   0  0  0  0  0  0  0  0  0  0  0  0
   -2.2789   -2.8509    0.0005 N   0  0  0  0  0  0  0  0  0  0  0  0
   -4.5216    0.7192    0.0000 C   0  0  0  0  0  0  0  0  0  0  0  0
    1.0510   -4.1945    0.0005 C   0  0  0  0  0  0  0  0  0  0  0  0
    1.5321   -3.7701   -0.9008 H   0  0  0  0  0  0  0  0  0  0  0  0
    1.1904   -5.2898    0.0000 H   0  0  0  0  0  0  0  0  0  0  0  0
    1.5321   -3.7709    0.9021 H   0  0  0  0  0  0  0  0  0  0  0  0
   -2.3571   -0.4688    0.0001 C   0  0  0  0  0  3  0  0  0  0  0  0
   -0.9236   -2.6521    0.0004 C   0  0  0  0  0  2  0  0  0  0  0  0
   -1.3791   -4.8625    0.0009 C   0  0  0  0  0  0  0  0  0  0  0  0
   -1.1579   -5.9339    0.0010 H   0  0  0  0  0  0  0  0  0  0  0  0
   -5.2359   -0.5336    0.0002 C   0  0  0  0  0  0  0  0  0  0  0  0
   -7.3549    0.6816    0.0001 C   0  0  0  0  0  0  0  0  0  0  0  0
   -8.4550    0.6797    0.0001 H   0  0  0  0  0  0  0  0  0  0  0  0
   -3.1071   -1.6942    0.0004 C   0  0  0  0  0  0  0  0  0  0  0  0
   -5.2655    1.9329   -0.0002 C   0  0  0  0  0  0  0  0  0  0  0  0
   -4.7198    2.8895   -0.0003 H   0  0  0  0  0  0  0  0  0  0  0  0
   -6.6591   -0.5202    0.0003 C   0  0  0  0  0  0  0  0  0  0  0  0
   -7.2021   -1.4780    0.0004 H   0  0  0  0  0  0  0  0  0  0  0  0
   -2.5825   -4.1996    0.0009 C   0  0  0  0  0  0  0  0  0  0  0  0
   -3.6055   -4.5842    0.0010 H   0  0  0  0  0  0  0  0  0  0  0  0
   -6.6541    1.9160   -0.0001 C   0  0  0  0  0  0  0  0  0  0  0  0
   -7.2169    2.8613   -0.0003 H   0  0  0  0  0  0  0  0  0  0  0  0
  1  7  2  0  0  0  0
  1 12  1  0  0  0  0
  2  1  1  0  0  0  0
  3 14  1  0  0  0  0
  4  5  1  0  0  0  0
  6 24  1  0  0  0  0
  7 16  1  0  0  0  0
  8  3  1  0  0  0  0
  8 11  1  0  0  0  0
  9  8  1  0  0  0  0
 10  8  1  0  0  0  0
 12 19  2  0  0  0  0
 13  6  1  0  0  0  0
 13  3  1  0  0  0  0
 14 15  1  0  0  0  0
 16 22  1  0  0  0  0
 16  4  2  0  0  0  0
 17 18  1  0  0  0  0
 17 22  2  0  0  0  0
 19  4  1  0  0  0  0
 19  6  1  0  0  0  0
 20 26  2  0  0  0  0
 20  7  1  0  0  0  0
 21 20  1  0  0  0  0
 22 23  1  0  0  0  0
 24 14  2  0  0  0  0
 24 25  1  0  0  0  0
 26 17  1  0  0  0  0
 27 26  1  0  0  0  0
M  END
