2,7
 OpenBabel05122313053D

 33 32  0  0  1  0  0  0  0  0999 V2000
   -1.0426    1.6804   -1.6791 C   0  0  0  0  0  3  0  0  0  0  0  0
    0.3682    1.5590   -1.4756 C   0  0  0  0  0  3  0  0  0  0  0  0
    0.9111    1.5754   -0.1328 C   0  0  1  0  0  3  0  0  0  0  0  0
   -0.0501    1.7897    0.9167 C   0  0  0  0  0  3  0  0  0  0  0  0
    0.2866    1.7540    2.3850 C   0  0  0  0  0  0  0  0  0  0  0  0
   -1.0403   -1.6847   -1.6764 C   0  0  0  0  0  3  0  0  0  0  0  0
    0.3704   -1.5611   -1.4731 C   0  0  0  0  0  3  0  0  0  0  0  0
    0.9132   -1.5747   -0.1303 C   0  0  2  0  0  3  0  0  0  0  0  0
   -0.0478   -1.7886    0.9195 C   0  0  0  0  0  3  0  0  0  0  0  0
    0.2887   -1.7502    2.3877 C   0  0  0  0  0  0  0  0  0  0  0  0
    2.3823    1.2933    0.1032 C   0  0  0  0  0  0  0  0  0  0  0  0
    2.9427    0.0014   -0.5180 C   0  0  0  0  0  0  0  0  0  0  0  0
    2.3840   -1.2901    0.1054 C   0  0  0  0  0  0  0  0  0  0  0  0
   -0.6035    1.4759    2.9834 H   0  0  0  0  0  0  0  0  0  0  0  0
    1.0851    1.0298    2.6314 H   0  0  0  0  0  0  0  0  0  0  0  0
    0.6195    2.7538    2.7427 H   0  0  0  0  0  0  0  0  0  0  0  0
   -0.8603    2.5028    0.6854 H   0  0  0  0  0  0  0  0  0  0  0  0
    1.0328    1.2972   -2.3162 H   0  0  0  0  0  0  0  0  0  0  0  0
   -1.6301    2.4258   -1.1201 H   0  0  0  0  0  0  0  0  0  0  0  0
   -1.4282    1.4707   -2.6899 H   0  0  0  0  0  0  0  0  0  0  0  0
    2.5836    1.2833    1.1933 H   0  0  0  0  0  0  0  0  0  0  0  0
    2.9560    2.1571   -0.2990 H   0  0  0  0  0  0  0  0  0  0  0  0
    4.0460    0.0023   -0.3915 H   0  0  0  0  0  0  0  0  0  0  0  0
    2.7742    0.0004   -1.6163 H   0  0  0  0  0  0  0  0  0  0  0  0
    2.5852   -1.2780    1.1955 H   0  0  0  0  0  0  0  0  0  0  0  0
    2.9589   -2.1539   -0.2952 H   0  0  0  0  0  0  0  0  0  0  0  0
    1.0863   -1.0248    2.6331 H   0  0  0  0  0  0  0  0  0  0  0  0
   -0.6018   -1.4722    2.9856 H   0  0  0  0  0  0  0  0  0  0  0  0
    0.6227   -2.7491    2.7470 H   0  0  0  0  0  0  0  0  0  0  0  0
   -0.8571   -2.5031    0.6891 H   0  0  0  0  0  0  0  0  0  0  0  0
    1.0347   -1.2998   -2.3141 H   0  0  0  0  0  0  0  0  0  0  0  0
   -1.4262   -1.4771   -2.6875 H   0  0  0  0  0  0  0  0  0  0  0  0
   -1.6267   -2.4301   -1.1162 H   0  0  0  0  0  0  0  0  0  0  0  0
  1  2  1  0  0  0  0
  1 19  1  0  0  0  0
  3  2  1  1  0  0  0
  3 11  1  0  0  0  0
  3  4  1  0  0  0  0
  4  5  1  0  0  0  0
  5 15  1  0  0  0  0
  5 16  1  0  0  0  0
  5 14  1  0  0  0  0
  6  7  1  0  0  0  0
  6 33  1  0  0  0  0
  8  7  1  1  0  0  0
  8 13  1  0  0  0  0
  8  9  1  0  0  0  0
  9 10  1  0  0  0  0
 10 27  1  0  0  0  0
 10 29  1  0  0  0  0
 10 28  1  0  0  0  0
 11 21  1  0  0  0  0
 12 23  1  0  0  0  0
 12 11  1  0  0  0  0
 12 13  1  0  0  0  0
 13 25  1  0  0  0  0
 17  4  1  0  0  0  0
 18  2  1  0  0  0  0
 20  1  1  0  0  0  0
 22 11  1  0  0  0  0
 24 12  1  0  0  0  0
 26 13  1  0  0  0  0
 30  9  1  0  0  0  0
 31  7  1  0  0  0  0
 32  6  1  0  0  0  0
M  END
