4,33
 OpenBabel05122313053D

 55 58  0  0  1  0  0  0  0  0999 V2000
   -3.7588    1.2954   -0.6417 N   0  0  0  0  0  0  0  0  0  0  0  0
    2.3744    2.6561   -0.7423 Si  0  0  0  0  0  0  0  0  0  0  0  0
   -2.3860    1.7243   -0.7222 B   0  0  0  0  0  0  0  0  0  0  0  0
    2.7246    0.9156   -0.0820 C   0  0  0  0  0  3  0  0  0  0  0  0
    2.8286   -0.3014   -0.8645 C   0  0  0  0  0  0  0  0  0  0  0  0
    2.8998   -0.5237   -2.2727 C   0  0  0  0  0  0  0  0  0  0  0  0
    2.9516    0.3265   -2.9660 H   0  0  0  0  0  0  0  0  0  0  0  0
    2.9535   -1.8279   -2.7671 C   0  0  0  0  0  0  0  0  0  0  0  0
    3.0283   -1.9871   -3.8539 H   0  0  0  0  0  0  0  0  0  0  0  0
    2.9287   -2.9534   -1.9016 C   0  0  0  0  0  0  0  0  0  0  0  0
    2.9882   -3.9669   -2.3252 H   0  0  0  0  0  0  0  0  0  0  0  0
    2.8151   -2.7766   -0.5228 C   0  0  0  0  0  0  0  0  0  0  0  0
    2.7739   -3.6462    0.1514 H   0  0  0  0  0  0  0  0  0  0  0  0
    2.7467   -1.4671    0.0069 C   0  0  0  0  0  0  0  0  0  0  0  0
    2.5832   -0.9800    1.3585 C   0  0  0  0  0  0  0  0  0  0  0  0
    2.4171   -1.6538    2.5912 C   0  0  0  0  0  0  0  0  0  0  0  0
    2.4438   -2.7541    2.6248 H   0  0  0  0  0  0  0  0  0  0  0  0
    2.2075   -0.9139    3.7548 C   0  0  0  0  0  0  0  0  0  0  0  0
    2.0766   -1.4267    4.7191 H   0  0  0  0  0  0  0  0  0  0  0  0
    2.1471    0.5040    3.6987 C   0  0  0  0  0  0  0  0  0  0  0  0
    1.9680    1.0714    4.6250 H   0  0  0  0  0  0  0  0  0  0  0  0
    2.3226    1.1973    2.4997 C   0  0  0  0  0  0  0  0  0  0  0  0
    2.2991    2.2955    2.4948 H   0  0  0  0  0  0  0  0  0  0  0  0
    2.5763    0.4771    1.2931 C   0  0  0  0  0  0  0  0  0  0  0  0
    3.1685    2.9648   -2.4319 C   0  0  0  0  0  0  0  0  0  0  0  0
    2.6787    2.4074   -3.2543 H   0  0  0  0  0  0  0  0  0  0  0  0
    4.2414    2.6849   -2.4217 H   0  0  0  0  0  0  0  0  0  0  0  0
    3.0945    4.0443   -2.6762 H   0  0  0  0  0  0  0  0  0  0  0  0
    2.9707    4.0070    0.4411 C   0  0  0  0  0  0  0  0  0  0  0  0
    2.9119    4.9913   -0.0672 H   0  0  0  0  0  0  0  0  0  0  0  0
    4.0252    3.8308    0.7358 H   0  0  0  0  0  0  0  0  0  0  0  0
    2.3677    4.0788    1.3673 H   0  0  0  0  0  0  0  0  0  0  0  0
    0.4811    2.6293   -0.8652 C   0  0  2  0  0  3  0  0  0  0  0  0
   -0.3037    2.8128    0.3231 C   0  0  0  0  0  3  0  0  0  0  0  0
    0.1912    3.2899    1.1896 H   0  0  0  0  0  0  0  0  0  0  0  0
   -1.6286    2.3729    0.4650 C   0  0  0  0  0  0  0  0  0  0  0  0
   -2.0982    2.5777    1.4432 H   0  0  0  0  0  0  0  0  0  0  0  0
   -0.1676    2.0211   -1.9921 C   0  0  0  0  0  0  0  0  0  0  0  0
    0.4356    1.8790   -2.9090 H   0  0  0  0  0  0  0  0  0  0  0  0
   -1.4873    1.5381   -1.9728 C   0  0  0  0  0  0  0  0  0  0  0  0
   -1.8399    1.0693   -2.9091 H   0  0  0  0  0  0  0  0  0  0  0  0
   -4.5457    1.4456    0.5766 C   0  0  0  0  0  0  0  0  0  0  0  0
   -5.3075    0.6352    0.6218 H   0  0  0  0  0  0  0  0  0  0  0  0
   -3.8914    1.2793    1.4577 H   0  0  0  0  0  0  0  0  0  0  0  0
   -5.2362    2.8081    0.6962 C   0  0  0  0  0  0  0  0  0  0  0  0
   -5.8429    2.8735    1.6232 H   0  0  0  0  0  0  0  0  0  0  0  0
   -4.4858    3.6241    0.7123 H   0  0  0  0  0  0  0  0  0  0  0  0
   -5.9113    2.9911   -0.1650 H   0  0  0  0  0  0  0  0  0  0  0  0
   -4.4867    0.7524   -1.7807 C   0  0  0  0  0  0  0  0  0  0  0  0
   -4.0128    1.1107   -2.7172 H   0  0  0  0  0  0  0  0  0  0  0  0
   -5.5201    1.1698   -1.7925 H   0  0  0  0  0  0  0  0  0  0  0  0
   -4.5514   -0.7783   -1.7915 C   0  0  0  0  0  0  0  0  0  0  0  0
   -3.5299   -1.2041   -1.8184 H   0  0  0  0  0  0  0  0  0  0  0  0
   -5.1145   -1.1539   -2.6707 H   0  0  0  0  0  0  0  0  0  0  0  0
   -5.0507   -1.1675   -0.8799 H   0  0  0  0  0  0  0  0  0  0  0  0
  1 42  1  0  0  0  0
  2  4  1  0  0  0  0
  2 29  1  0  0  0  0
  3  1  1  0  0  0  0
  3 36  2  0  0  0  0
  4 24  1  0  0  0  0
  5  4  1  0  0  0  0
  5 14  1  0  0  0  0
  6  5  2  0  0  0  0
  7  6  1  0  0  0  0
  8  6  1  0  0  0  0
  8 10  2  0  0  0  0
  9  8  1  0  0  0  0
 10 12  1  0  0  0  0
 11 10  1  0  0  0  0
 12 14  2  0  0  0  0
 12 13  1  0  0  0  0
 14 15  1  0  0  0  0
 15 16  1  0  0  0  0
 16 17  1  0  0  0  0
 16 18  2  0  0  0  0
 18 19  1  0  0  0  0
 20 18  1  0  0  0  0
 20 21  1  0  0  0  0
 22 20  2  0  0  0  0
 23 22  1  0  0  0  0
 24 15  2  0  0  0  0
 24 22  1  0  0  0  0
 25 27  1  0  0  0  0
 25  2  1  0  0  0  0
 26 25  1  0  0  0  0
 28 25  1  0  0  0  0
 29 31  1  0  0  0  0
 29 32  1  0  0  0  0
 30 29  1  0  0  0  0
 33  2  1  1  0  0  0
 33 34  1  0  0  0  0
 34 36  1  0  0  0  0
 34 35  1  0  0  0  0
 36 37  1  0  0  0  0
 38 40  2  0  0  0  0
 38 33  1  0  0  0  0
 39 38  1  0  0  0  0
 40  3  1  0  0  0  0
 41 40  1  0  0  0  0
 42 43  1  0  0  0  0
 42 45  1  0  0  0  0
 42 44  1  0  0  0  0
 45 47  1  0  0  0  0
 45 46  1  0  0  0  0
 48 45  1  0  0  0  0
 49  1  1  0  0  0  0
 50 49  1  0  0  0  0
 51 49  1  0  0  0  0
 52 49  1  0  0  0  0
 52 55  1  0  0  0  0
 53 52  1  0  0  0  0
 54 52  1  0  0  0  0
M  END
