3,6
q = -1.0, confidence = 0.01

 23 25  0  0  1  0  0  0  0  0999 V2000
    2.3377    2.1092   -0.2033 C   0  0  0  0  0  0  0  0  0  0  0  0
    1.1385    1.7271    0.6427 C   0  0  0  0  0  3  0  0  0  0  0  0
    1.4530    0.6527    1.5026 C   0  0  0  0  0  3  0  0  0  0  0  0
    2.8582    0.1413    1.2401 C   0  0  1  0  0  0  0  0  0  0  0  0
    2.8714   -1.3255    0.7540 C   0  0  1  0  0  0  0  0  0  0  0  0
    1.6418   -1.4762   -0.1520 C   0  0  0  0  0  3  0  0  0  0  0  0
    1.9893   -0.6762   -1.4064 C   0  0  0  0  0  0  0  0  0  0  0  0
    3.4105   -0.1443   -1.1143 C   0  0  1  0  0  0  0  0  0  0  0  0
    3.3442    0.9517   -0.0204 C   0  0  1  0  0  0  0  0  0  0  0  0
    4.0045   -1.3238   -0.3054 C   0  0  0  0  0  0  0  0  0  0  0  0
    2.7622    3.0528    0.2056 H   0  0  0  0  0  0  0  0  0  0  0  0
    2.0924    2.3294   -1.2646 H   0  0  0  0  0  0  0  0  0  0  0  0
    0.3269    2.4467    0.8255 H   0  0  0  0  0  0  0  0  0  0  0  0
    0.9487    0.4657    2.4615 H   0  0  0  0  0  0  0  0  0  0  0  0
    3.5109    0.2959    2.1244 H   0  0  0  0  0  0  0  0  0  0  0  0
    2.9338   -2.0841    1.5551 H   0  0  0  0  0  0  0  0  0  0  0  0
    1.2896   -2.5076   -0.3082 H   0  0  0  0  0  0  0  0  0  0  0  0
    1.8827   -1.2587   -2.3425 H   0  0  0  0  0  0  0  0  0  0  0  0
    1.2668    0.2144   -1.5963 H   0  0  0  0  0  0  0  0  0  0  0  0
    3.9653    0.1652   -2.0209 H   0  0  0  0  0  0  0  0  0  0  0  0
    4.3701    1.3416    0.1269 H   0  0  0  0  0  0  0  0  0  0  0  0
    5.0070   -1.1029    0.1155 H   0  0  0  0  0  0  0  0  0  0  0  0
    4.0607   -2.2683   -0.8841 H   0  0  0  0  0  0  0  0  0  0  0  0
  1  9  1  0  0  0  0
  1 11  1  0  0  0  0
  1  2  1  0  0  0  0
  2 13  1  0  0  0  0
  2  3  1  0  0  0  0
  3 14  1  0  0  0  0
  4  3  1  0  0  0  0
  4 15  1  1  0  0  0
  5  4  1  0  0  0  0
  5 16  1  1  0  0  0
  6  5  1  0  0  0  0
  7  8  1  0  0  0  0
  7  6  1  0  0  0  0
  8 20  1  6  0  0  0
  8 10  1  0  0  0  0
  8  9  1  0  0  0  0
  9 21  1  1  0  0  0
  9  4  1  0  0  0  0
 10 22  1  0  0  0  0
 10  5  1  0  0  0  0
 12  1  1  0  0  0  0
 17  6  1  0  0  0  0
 18  7  1  0  0  0  0
 19  7  1  0  0  0  0
 23 10  1  0  0  0  0
M  END
