7,30
 OpenBabel05122313053D

 59 62  0  0  1  0  0  0  0  0999 V2000
   -0.1134    2.3188   -0.6631 Si  0  0  0  0  0  0  0  0  0  0  0  0
    2.3601   -0.9558   -1.4571 N   0  0  0  0  0  0  0  0  0  0  0  0
   -1.6317   -0.8228    1.6487 N   0  0  0  0  0  0  0  0  0  0  0  0
    2.2919    0.3704   -0.8028 B   0  0  0  0  0  0  0  0  0  0  0  0
   -2.0558    0.3168    0.7726 B   0  0  0  0  0  0  0  0  0  0  0  0
    1.0425    1.0248   -1.4219 C   0  0  1  0  0  3  0  0  0  0  0  0
    0.5773    0.1008   -2.4258 C   0  0  0  0  0  3  0  0  0  0  0  0
   -0.3146    0.2144   -3.0590 H   0  0  0  0  0  0  0  0  0  0  0  0
    1.3454   -1.0782   -2.4073 C   0  0  0  0  0  3  0  0  0  0  0  0
    1.2536   -1.9786   -3.0279 H   0  0  0  0  0  0  0  0  0  0  0  0
    3.4255   -1.9590   -1.3743 C   0  0  0  0  0  0  0  0  0  0  0  0
    2.9811   -2.9590   -1.5521 H   0  0  0  0  0  0  0  0  0  0  0  0
    3.8100   -1.9647   -0.3384 H   0  0  0  0  0  0  0  0  0  0  0  0
    4.5492   -1.6554   -2.3627 C   0  0  0  0  0  0  0  0  0  0  0  0
    4.1791   -1.6462   -3.4078 H   0  0  0  0  0  0  0  0  0  0  0  0
    5.3435   -2.4242   -2.2857 H   0  0  0  0  0  0  0  0  0  0  0  0
    5.0028   -0.6672   -2.1479 H   0  0  0  0  0  0  0  0  0  0  0  0
    3.3288    0.8513    0.2753 C   0  0  0  0  0  0  0  0  0  0  0  0
    3.9324    2.1244    0.1395 C   0  0  0  0  0  0  0  0  0  0  0  0
    3.6646    2.7535   -0.7238 H   0  0  0  0  0  0  0  0  0  0  0  0
    4.8640    2.5984    1.0766 C   0  0  0  0  0  0  0  0  0  0  0  0
    5.3190    3.5923    0.9443 H   0  0  0  0  0  0  0  0  0  0  0  0
    5.2138    1.8072    2.1821 C   0  0  0  0  0  0  0  0  0  0  0  0
    5.9415    2.1776    2.9205 H   0  0  0  0  0  0  0  0  0  0  0  0
    4.6265    0.5412    2.3423 C   0  0  0  0  0  0  0  0  0  0  0  0
    4.8896   -0.0828    3.2105 H   0  0  0  0  0  0  0  0  0  0  0  0
    3.6987    0.0720    1.4003 C   0  0  0  0  0  0  0  0  0  0  0  0
    3.2286   -0.9135    1.5564 H   0  0  0  0  0  0  0  0  0  0  0  0
   -0.7929    1.1782    0.6749 C   0  0  1  0  0  3  0  0  0  0  0  0
    0.1454    0.6169    1.6352 C   0  0  0  0  0  3  0  0  0  0  0  0
    1.1462    1.0001    1.8805 H   0  0  0  0  0  0  0  0  0  0  0  0
   -0.3751   -0.5547    2.1941 C   0  0  0  0  0  3  0  0  0  0  0  0
    0.0689   -1.2248    2.9397 H   0  0  0  0  0  0  0  0  0  0  0  0
   -2.4242   -1.9687    2.1099 C   0  0  0  0  0  0  0  0  0  0  0  0
   -1.7220   -2.7524    2.4611 H   0  0  0  0  0  0  0  0  0  0  0  0
   -2.9485   -2.3905    1.2310 H   0  0  0  0  0  0  0  0  0  0  0  0
   -3.4151   -1.5759    3.2021 C   0  0  0  0  0  0  0  0  0  0  0  0
   -2.8919   -1.1615    4.0875 H   0  0  0  0  0  0  0  0  0  0  0  0
   -3.9965   -2.4612    3.5282 H   0  0  0  0  0  0  0  0  0  0  0  0
   -4.1268   -0.8127    2.8302 H   0  0  0  0  0  0  0  0  0  0  0  0
   -3.5075    0.5849    0.2421 C   0  0  0  0  0  0  0  0  0  0  0  0
   -3.9580    1.9281    0.2964 C   0  0  0  0  0  0  0  0  0  0  0  0
   -3.2698    2.7023    0.6710 H   0  0  0  0  0  0  0  0  0  0  0  0
   -5.2542    2.2901   -0.0989 C   0  0  0  0  0  0  0  0  0  0  0  0
   -5.5729    3.3426   -0.0427 H   0  0  0  0  0  0  0  0  0  0  0  0
   -6.1435    1.3086   -0.5633 C   0  0  0  0  0  0  0  0  0  0  0  0
   -7.1621    1.5857   -0.8762 H   0  0  0  0  0  0  0  0  0  0  0  0
   -5.7234   -0.0301   -0.6270 C   0  0  0  0  0  0  0  0  0  0  0  0
   -6.4116   -0.8056   -0.9977 H   0  0  0  0  0  0  0  0  0  0  0  0
   -4.4263   -0.3840   -0.2282 C   0  0  0  0  0  0  0  0  0  0  0  0
   -4.1093   -1.4326   -0.3210 H   0  0  0  0  0  0  0  0  0  0  0  0
   -1.4250    2.8338   -1.9165 C   0  0  0  0  0  0  0  0  0  0  0  0
   -2.1113    3.5933   -1.4925 H   0  0  0  0  0  0  0  0  0  0  0  0
   -2.0455    1.9692   -2.2262 H   0  0  0  0  0  0  0  0  0  0  0  0
   -0.9472    3.2677   -2.8190 H   0  0  0  0  0  0  0  0  0  0  0  0
    0.7916    3.8121    0.0485 C   0  0  0  0  0  0  0  0  0  0  0  0
    1.3140    4.3775   -0.7505 H   0  0  0  0  0  0  0  0  0  0  0  0
    1.5473    3.5061    0.7985 H   0  0  0  0  0  0  0  0  0  0  0  0
    0.0705    4.4967    0.5407 H   0  0  0  0  0  0  0  0  0  0  0  0
  1 56  1  0  0  0  0
  2 11  1  0  0  0  0
  2  4  1  0  0  0  0
  3 34  1  0  0  0  0
  3 32  1  0  0  0  0
  4 18  1  0  0  0  0
  5  3  1  0  0  0  0
  6  4  1  0  0  0  0
  6  1  1  1  0  0  0
  7  9  1  0  0  0  0
  7  6  1  0  0  0  0
  8  7  1  0  0  0  0
  9  2  1  0  0  0  0
 10  9  1  0  0  0  0
 11 13  1  0  0  0  0
 12 11  1  0  0  0  0
 14 16  1  0  0  0  0
 14 17  1  0  0  0  0
 14 11  1  0  0  0  0
 15 14  1  0  0  0  0
 18 27  1  0  0  0  0
 19 18  2  0  0  0  0
 19 21  1  0  0  0  0
 20 19  1  0  0  0  0
 21 23  2  0  0  0  0
 22 21  1  0  0  0  0
 23 25  1  0  0  0  0
 23 24  1  0  0  0  0
 25 26  1  0  0  0  0
 27 28  1  0  0  0  0
 27 25  2  0  0  0  0
 29  1  1  6  0  0  0
 29  5  1  0  0  0  0
 29 30  1  0  0  0  0
 30 31  1  0  0  0  0
 30 32  1  0  0  0  0
 32 33  1  0  0  0  0
 34 35  1  0  0  0  0
 34 37  1  0  0  0  0
 36 34  1  0  0  0  0
 37 39  1  0  0  0  0
 37 38  1  0  0  0  0
 40 37  1  0  0  0  0
 41 42  1  0  0  0  0
 41  5  1  0  0  0  0
 42 43  1  0  0  0  0
 44 45  1  0  0  0  0
 44 42  2  0  0  0  0
 46 44  1  0  0  0  0
 47 46  1  0  0  0  0
 48 46  2  0  0  0  0
 48 50  1  0  0  0  0
 49 48  1  0  0  0  0
 50 41  2  0  0  0  0
 51 50  1  0  0  0  0
 52 53  1  0  0  0  0
 52  1  1  0  0  0  0
 54 52  1  0  0  0  0
 55 52  1  0  0  0  0
 56 59  1  0  0  0  0
 56 58  1  0  0  0  0
 57 56  1  0  0  0  0
M  END
