1,2
 OpenBabel05122313053D

 52 54  0  0  1  0  0  0  0  0999 V2000
   -1.2744    0.2884    0.3047 C   0  0  0  0  0  3  0  0  0  0  0  0
    1.4893    0.2126    0.1140 C   0  0  0  0  0  2  0  0  0  0  0  0
   -3.5481   -0.2697   -0.6015 C   0  0  0  0  0  0  0  0  0  0  0  0
   -2.4270    0.5563   -0.3033 N   0  0  0  0  0  0  0  0  0  0  0  0
   -2.4904    1.5849   -0.5421 H   0  0  0  0  0  0  0  0  0  0  0  0
   -3.3845   -1.4709   -1.3367 C   0  0  0  0  0  0  0  0  0  0  0  0
   -4.5451   -2.2129   -1.6311 C   0  0  0  0  0  0  0  0  0  0  0  0
   -4.4434   -3.1468   -2.2054 H   0  0  0  0  0  0  0  0  0  0  0  0
   -5.8122   -1.7769   -1.2257 C   0  0  0  0  0  0  0  0  0  0  0  0
   -6.7032   -2.3742   -1.4707 H   0  0  0  0  0  0  0  0  0  0  0  0
   -5.9484   -0.5708   -0.5227 C   0  0  0  0  0  0  0  0  0  0  0  0
   -6.9447   -0.2208   -0.2116 H   0  0  0  0  0  0  0  0  0  0  0  0
   -4.8239    0.2082   -0.2030 C   0  0  0  0  0  0  0  0  0  0  0  0
   -4.9444    1.4976    0.5671 C   0  0  0  0  0  0  0  0  0  0  0  0
   -4.5602    2.3672   -0.0061 H   0  0  0  0  0  0  0  0  0  0  0  0
   -4.3405    1.4739    1.4988 H   0  0  0  0  0  0  0  0  0  0  0  0
   -5.9969    1.7020    0.8382 H   0  0  0  0  0  0  0  0  0  0  0  0
   -2.0371   -1.9490   -1.8104 C   0  0  0  0  0  0  0  0  0  0  0  0
   -1.3523   -1.1069   -2.0341 H   0  0  0  0  0  0  0  0  0  0  0  0
   -2.1424   -2.5661   -2.7233 H   0  0  0  0  0  0  0  0  0  0  0  0
   -1.5365   -2.5743   -1.0406 H   0  0  0  0  0  0  0  0  0  0  0  0
    3.8012   -0.4175   -0.4903 C   0  0  0  0  0  0  0  0  0  0  0  0
    2.6887    0.4706   -0.4213 N   0  0  0  0  0  0  0  0  0  0  0  0
    2.8082    1.5094   -0.5814 H   0  0  0  0  0  0  0  0  0  0  0  0
    3.7778   -1.5121   -1.3926 C   0  0  0  0  0  0  0  0  0  0  0  0
    4.9075   -2.3536   -1.4289 C   0  0  0  0  0  0  0  0  0  0  0  0
    4.9147   -3.2055   -2.1265 H   0  0  0  0  0  0  0  0  0  0  0  0
    6.0208   -2.1030   -0.6164 C   0  0  0  0  0  0  0  0  0  0  0  0
    6.8971   -2.7666   -0.6681 H   0  0  0  0  0  0  0  0  0  0  0  0
    6.0285   -1.0018    0.2524 C   0  0  0  0  0  0  0  0  0  0  0  0
    6.9081   -0.8030    0.8841 H   0  0  0  0  0  0  0  0  0  0  0  0
    4.9205   -0.1401    0.3364 C   0  0  0  0  0  0  0  0  0  0  0  0
    4.8884    1.0305    1.2843 C   0  0  0  0  0  0  0  0  0  0  0  0
    5.8728    1.1832    1.7647 H   0  0  0  0  0  0  0  0  0  0  0  0
    4.1356    0.8713    2.0859 H   0  0  0  0  0  0  0  0  0  0  0  0
    4.5877    1.9736    0.7838 H   0  0  0  0  0  0  0  0  0  0  0  0
    2.5994   -1.7448   -2.3039 C   0  0  0  0  0  0  0  0  0  0  0  0
    1.7516   -2.2320   -1.7754 H   0  0  0  0  0  0  0  0  0  0  0  0
    2.8786   -2.3964   -3.1530 H   0  0  0  0  0  0  0  0  0  0  0  0
    2.2072   -0.7878   -2.7022 H   0  0  0  0  0  0  0  0  0  0  0  0
   -1.1091   -0.9508    1.0666 C   0  0  0  0  0  0  0  0  0  0  0  0
    1.3154   -1.0404    0.6070 N   0  0  0  0  0  0  0  0  0  0  0  0
    2.1513   -1.6409    0.6462 H   0  0  0  0  0  0  0  0  0  0  0  0
    0.1667   -1.5721    1.1929 C   0  0  2  0  0  3  0  0  0  0  0  0
    0.2961   -2.7787    1.9122 C   0  0  0  0  0  0  0  0  0  0  0  0
    1.2859   -3.2569    1.9783 H   0  0  0  0  0  0  0  0  0  0  0  0
   -0.8051   -3.3469    2.5568 C   0  0  0  0  0  0  0  0  0  0  0  0
   -0.6798   -4.2814    3.1236 H   0  0  0  0  0  0  0  0  0  0  0  0
   -2.0583   -2.7103    2.5008 C   0  0  0  0  0  0  0  0  0  0  0  0
   -2.9228   -3.1322    3.0329 H   0  0  0  0  0  0  0  0  0  0  0  0
   -2.2004   -1.5370    1.7592 C   0  0  0  0  0  0  0  0  0  0  0  0
   -3.1796   -1.0425    1.7149 H   0  0  0  0  0  0  0  0  0  0  0  0
  1 41  2  0  0  0  0
  2 42  1  0  0  0  0
  3  4  1  0  0  0  0
  3 13  1  0  0  0  0
  4  1  1  0  0  0  0
  5  4  1  0  0  0  0
  6  3  2  0  0  0  0
  7  6  1  0  0  0  0
  7  9  2  0  0  0  0
  8  7  1  0  0  0  0
  9 11  1  0  0  0  0
 10  9  1  0  0  0  0
 11 12  1  0  0  0  0
 11 13  2  0  0  0  0
 13 14  1  0  0  0  0
 14 17  1  0  0  0  0
 14 16  1  0  0  0  0
 15 14  1  0  0  0  0
 18  6  1  0  0  0  0
 18 21  1  0  0  0  0
 19 18  1  0  0  0  0
 20 18  1  0  0  0  0
 22 23  1  0  0  0  0
 22 32  1  0  0  0  0
 23  2  1  0  0  0  0
 24 23  1  0  0  0  0
 25 22  2  0  0  0  0
 26 25  1  0  0  0  0
 26 28  2  0  0  0  0
 27 26  1  0  0  0  0
 28 30  1  0  0  0  0
 29 28  1  0  0  0  0
 30 32  2  0  0  0  0
 30 31  1  0  0  0  0
 32 33  1  0  0  0  0
 33 34  1  0  0  0  0
 33 35  1  0  0  0  0
 36 33  1  0  0  0  0
 37 38  1  0  0  0  0
 37 25  1  0  0  0  0
 39 37  1  0  0  0  0
 40 37  1  0  0  0  0
 41 44  1  0  0  0  0
 41 51  1  0  0  0  0
 42 43  1  0  0  0  0
 44 42  1  6  0  0  0
 44 45  1  0  0  0  0
 45 46  1  0  0  0  0
 45 47  2  0  0  0  0
 47 48  1  0  0  0  0
 49 47  1  0  0  0  0
 49 50  1  0  0  0  0
 51 49  2  0  0  0  0
 52 51  1  0  0  0  0
M  END
