1,18
 OpenBabel05122313053D

 47 49  0  0  0  0  0  0  0  0999 V2000
   -1.0146    1.1391    0.3930 C   0  0  0  0  0  2  0  0  0  0  0  0
   -2.3460    1.5222    0.5213 N   0  0  0  0  0  0  0  0  0  0  0  0
   -0.2633    2.1497    0.9507 N   0  0  0  0  0  0  0  0  0  0  0  0
   -2.4869    2.8363    1.1827 C   0  0  0  0  0  0  0  0  0  0  0  0
   -3.2483    2.7795    1.9844 H   0  0  0  0  0  0  0  0  0  0  0  0
   -2.8000    3.6155    0.4618 H   0  0  0  0  0  0  0  0  0  0  0  0
   -1.0781    3.1095    1.7078 C   0  0  0  0  0  0  0  0  0  0  0  0
   -0.7435    4.1470    1.5147 H   0  0  0  0  0  0  0  0  0  0  0  0
   -0.9846    2.9196    2.8010 H   0  0  0  0  0  0  0  0  0  0  0  0
   -3.4659    0.7194    0.2457 C   0  0  0  0  0  0  0  0  0  0  0  0
   -3.3207   -0.7064    0.2547 C   0  0  0  0  0  0  0  0  0  0  0  0
   -4.4798   -1.5236    0.1984 C   0  0  0  0  0  0  0  0  0  0  0  0
   -4.3330   -2.6151    0.2369 H   0  0  0  0  0  0  0  0  0  0  0  0
   -5.7625   -0.9934    0.0559 C   0  0  0  0  0  0  0  0  0  0  0  0
   -5.8550    0.4074   -0.0822 C   0  0  0  0  0  0  0  0  0  0  0  0
   -6.8419    0.8533   -0.2900 H   0  0  0  0  0  0  0  0  0  0  0  0
   -4.7524    1.2780   -0.0127 C   0  0  0  0  0  0  0  0  0  0  0  0
   -2.0294   -1.3267    0.2053 C   0  0  0  0  0  2  0  0  0  0  0  0
   -2.0737   -2.4318    0.3554 H   0  0  0  0  0  0  0  0  0  0  0  0
   -6.9933   -1.8615   -0.0008 C   0  0  0  0  0  0  0  0  0  0  0  0
   -6.7325   -2.9371    0.0229 H   0  0  0  0  0  0  0  0  0  0  0  0
   -7.5802   -1.6743   -0.9240 H   0  0  0  0  0  0  0  0  0  0  0  0
   -7.6701   -1.6595    0.8563 H   0  0  0  0  0  0  0  0  0  0  0  0
   -4.9931    2.7320   -0.3570 C   0  0  0  0  0  0  0  0  0  0  0  0
   -5.9736    2.8332   -0.8597 H   0  0  0  0  0  0  0  0  0  0  0  0
   -4.2239    3.1094   -1.0598 H   0  0  0  0  0  0  0  0  0  0  0  0
   -5.0112    3.4095    0.5210 H   0  0  0  0  0  0  0  0  0  0  0  0
    1.0348    2.5637    0.4968 C   0  0  0  0  0  0  0  0  0  0  0  0
    2.1836    2.3667    1.2911 C   0  0  0  0  0  0  0  0  0  0  0  0
    3.4163    2.8451    0.8075 C   0  0  0  0  0  0  0  0  0  0  0  0
    4.3216    2.6742    1.4126 H   0  0  0  0  0  0  0  0  0  0  0  0
    3.5252    3.5293   -0.4132 C   0  0  0  0  0  0  0  0  0  0  0  0
    2.3504    3.7529   -1.1548 C   0  0  0  0  0  0  0  0  0  0  0  0
    2.4113    4.2964   -2.1118 H   0  0  0  0  0  0  0  0  0  0  0  0
    1.1005    3.2773   -0.7281 C   0  0  0  0  0  0  0  0  0  0  0  0
    2.1307    1.6522    2.6137 C   0  0  0  0  0  0  0  0  0  0  0  0
    1.1020    1.5766    3.0076 H   0  0  0  0  0  0  0  0  0  0  0  0
    2.7649    2.1619    3.3658 H   0  0  0  0  0  0  0  0  0  0  0  0
    2.5131    0.6157    2.5145 H   0  0  0  0  0  0  0  0  0  0  0  0
    4.8677    3.9662   -0.9393 C   0  0  0  0  0  0  0  0  0  0  0  0
    4.7820    4.8402   -1.6145 H   0  0  0  0  0  0  0  0  0  0  0  0
    5.3370    3.1437   -1.5221 H   0  0  0  0  0  0  0  0  0  0  0  0
    5.5680    4.2245   -0.1204 H   0  0  0  0  0  0  0  0  0  0  0  0
   -0.1284    3.4776   -1.5763 C   0  0  0  0  0  0  0  0  0  0  0  0
    0.1024    4.0981   -2.4630 H   0  0  0  0  0  0  0  0  0  0  0  0
   -0.9429    3.9850   -1.0179 H   0  0  0  0  0  0  0  0  0  0  0  0
   -0.5399    2.5043   -1.9302 H   0  0  0  0  0  0  0  0  0  0  0  0
  1  2  1  0  0  0  0
  1  3  1  0  0  0  0
  2  4  1  0  0  0  0
  3  7  1  0  0  0  0
  4  7  1  0  0  0  0
  4  5  1  0  0  0  0
  6  4  1  0  0  0  0
  7  9  1  0  0  0  0
  8  7  1  0  0  0  0
 10 11  1  0  0  0  0
 10  2  1  0  0  0  0
 12 13  1  0  0  0  0
 12 11  2  0  0  0  0
 14 12  1  0  0  0  0
 15 17  1  0  0  0  0
 15 14  2  0  0  0  0
 16 15  1  0  0  0  0
 17 10  2  0  0  0  0
 18 11  1  0  0  0  0
 18 19  1  0  0  0  0
 20 21  1  0  0  0  0
 20 14  1  0  0  0  0
 20 23  1  0  0  0  0
 22 20  1  0  0  0  0
 24 17  1  0  0  0  0
 24 27  1  0  0  0  0
 25 24  1  0  0  0  0
 26 24  1  0  0  0  0
 28  3  1  0  0  0  0
 28 29  1  0  0  0  0
 29 36  1  0  0  0  0
 30 29  2  0  0  0  0
 30 31  1  0  0  0  0
 32 30  1  0  0  0  0
 33 35  1  0  0  0  0
 33 32  2  0  0  0  0
 34 33  1  0  0  0  0
 35 28  2  0  0  0  0
 36 37  1  0  0  0  0
 36 38  1  0  0  0  0
 39 36  1  0  0  0  0
 40 32  1  0  0  0  0
 40 43  1  0  0  0  0
 41 40  1  0  0  0  0
 42 40  1  0  0  0  0
 44 46  1  0  0  0  0
 44 35  1  0  0  0  0
 45 44  1  0  0  0  0
 47 44  1  0  0  0  0
M  END
