5,6
 OpenBabel05122313053D

 26 26  0  0  0  0  0  0  0  0999 V2000
    1.2885    0.1441    1.2344 O   0  0  0  0  0  0  0  0  0  0  0  0
    1.2553   -0.0716   -1.2796 N   0  0  0  0  0  0  0  0  0  0  0  0
    1.9715    0.5691   -0.0587 B   0  0  1  0  0  0  0  0  0  0  0  0
    1.8056    2.4243   -0.1707 Cl  0  0  0  0  0  0  0  0  0  0  0  0
    0.0527   -0.1055    1.4583 C   0  0  0  0  0  2  0  0  0  0  0  0
    0.0033   -0.3898   -1.4808 C   0  0  0  0  0  2  0  0  0  0  0  0
   -0.1875   -0.4368    2.9048 C   0  0  0  0  0  0  0  0  0  0  0  0
   -0.3117   -0.9973   -2.8192 C   0  0  0  0  0  0  0  0  0  0  0  0
    3.4879    0.0365   -0.0080 C   0  0  0  0  0  0  0  0  0  0  0  0
    4.6112    0.8882   -0.0059 C   0  0  0  0  0  0  0  0  0  0  0  0
    5.9169    0.3735    0.0363 C   0  0  0  0  0  0  0  0  0  0  0  0
    6.1271   -1.0137    0.0772 C   0  0  0  0  0  0  0  0  0  0  0  0
    5.0236   -1.8826    0.0761 C   0  0  0  0  0  0  0  0  0  0  0  0
    3.7230   -1.3579    0.0328 C   0  0  0  0  0  0  0  0  0  0  0  0
   -0.7373    0.4150    3.3609 H   0  0  0  0  0  0  0  0  0  0  0  0
   -0.8567   -1.3144    3.0013 H   0  0  0  0  0  0  0  0  0  0  0  0
    0.7597   -0.5936    3.4574 H   0  0  0  0  0  0  0  0  0  0  0  0
   -0.8604   -1.9523   -2.6904 H   0  0  0  0  0  0  0  0  0  0  0  0
   -1.0005   -0.3274   -3.3745 H   0  0  0  0  0  0  0  0  0  0  0  0
    0.5898   -1.1779   -3.4455 H   0  0  0  0  0  0  0  0  0  0  0  0
    1.9112   -0.2730   -2.0521 H   0  0  0  0  0  0  0  0  0  0  0  0
    4.4481    1.9769   -0.0373 H   0  0  0  0  0  0  0  0  0  0  0  0
    6.7777    1.0604    0.0379 H   0  0  0  0  0  0  0  0  0  0  0  0
    7.1503   -1.4191    0.1104 H   0  0  0  0  0  0  0  0  0  0  0  0
    5.1792   -2.9723    0.1111 H   0  0  0  0  0  0  0  0  0  0  0  0
    2.8674   -2.0553    0.0374 H   0  0  0  0  0  0  0  0  0  0  0  0
  1  5  1  0  0  0  0
  2  3  1  0  0  0  0
  3  4  1  6  0  0  0
  3  9  1  0  0  0  0
  3  1  1  0  0  0  0
  5  7  1  0  0  0  0
  6  2  1  0  0  0  0
  7 16  1  0  0  0  0
  7 15  1  0  0  0  0
  7 17  1  0  0  0  0
  8 18  1  0  0  0  0
  8  6  1  0  0  0  0
  9 10  2  0  0  0  0
  9 14  1  0  0  0  0
 10 11  1  0  0  0  0
 11 23  1  0  0  0  0
 11 12  2  0  0  0  0
 12 24  1  0  0  0  0
 13 12  1  0  0  0  0
 13 25  1  0  0  0  0
 14 26  1  0  0  0  0
 14 13  2  0  0  0  0
 19  8  1  0  0  0  0
 20  8  1  0  0  0  0
 21  2  1  0  0  0  0
 22 10  1  0  0  0  0
M  END
