1,8
 OpenBabel05122313053D

 16 16  0  0  0  0  0  0  0  0999 V2000
   -0.5064   -0.9526   -1.3971 C   0  0  0  0  0  3  0  0  0  0  0  0
   -1.8146   -0.7200   -0.7158 C   0  0  0  0  0  0  0  0  0  0  0  0
   -1.8144   -0.7183    0.7168 C   0  0  0  0  0  0  0  0  0  0  0  0
   -3.0058   -0.3964    1.4008 C   0  0  0  0  0  0  0  0  0  0  0  0
   -4.1842   -0.0888    0.7026 C   0  0  0  0  0  0  0  0  0  0  0  0
   -4.1845   -0.0909   -0.7025 C   0  0  0  0  0  0  0  0  0  0  0  0
   -3.0064   -0.4004   -1.4003 C   0  0  0  0  0  0  0  0  0  0  0  0
   -0.5063   -0.9503    1.3982 C   0  0  0  0  0  3  0  0  0  0  0  0
   -0.2162   -2.0221   -1.3428 H   0  0  0  0  0  0  0  0  0  0  0  0
   -0.5102   -0.6538   -2.4648 H   0  0  0  0  0  0  0  0  0  0  0  0
   -2.9996   -0.3814    2.5030 H   0  0  0  0  0  0  0  0  0  0  0  0
   -5.1040    0.1559    1.2559 H   0  0  0  0  0  0  0  0  0  0  0  0
   -5.1046    0.1520   -1.2561 H   0  0  0  0  0  0  0  0  0  0  0  0
   -3.0005   -0.3883   -2.5025 H   0  0  0  0  0  0  0  0  0  0  0  0
   -0.5096   -0.6505    2.4656 H   0  0  0  0  0  0  0  0  0  0  0  0
   -0.2161   -2.0199    1.3448 H   0  0  0  0  0  0  0  0  0  0  0  0
  1  9  1  0  0  0  0
  1  2  1  0  0  0  0
  2  3  1  0  0  0  0
  3  8  1  0  0  0  0
  3  4  2  0  0  0  0
  4 11  1  0  0  0  0
  5 12  1  0  0  0  0
  5  4  1  0  0  0  0
  6  5  2  0  0  0  0
  7  2  2  0  0  0  0
  7  6  1  0  0  0  0
  8 15  1  0  0  0  0
 10  1  1  0  0  0  0
 13  6  1  0  0  0  0
 14  7  1  0  0  0  0
 16  8  1  0  0  0  0
M  END
