1,8
 OpenBabel05122313053D

 32 32  0  0  1  0  0  0  0  0999 V2000
   -0.6565    0.7354   -1.4460 C   0  0  0  0  0  3  0  0  0  0  0  0
    0.5049    1.6485   -1.4063 C   0  0  0  0  0  0  0  0  0  0  0  0
    1.7803    1.2463   -1.1988 C   0  0  0  0  0  0  0  0  0  0  0  0
    2.1595   -0.1952   -0.9673 C   0  0  2  0  0  0  0  0  0  0  0  0
    0.9508   -1.0454   -0.5457 C   0  0  0  0  0  0  0  0  0  0  0  0
   -0.2785   -0.7425   -1.4109 C   0  0  1  0  0  0  0  0  0  0  0  0
   -1.5037   -1.5432   -0.9918 C   0  0  0  0  0  0  0  0  0  0  0  0
   -2.1595   -0.9849    0.2969 C   0  0  1  0  0  3  0  0  0  0  0  0
   -3.5282   -1.6396    0.6042 C   0  0  0  0  0  0  0  0  0  0  0  0
    3.2790   -0.3517    0.0720 C   0  0  0  0  0  0  0  0  0  0  0  0
    4.5599    0.4484   -0.2538 C   0  0  1  0  0  0  0  0  0  0  0  0
    5.8270   -0.0351    0.4763 C   0  0  0  0  0  0  0  0  0  0  0  0
   -2.4423   -1.4722   -2.0047 F   0  0  0  0  0  0  0  0  0  0  0  0
   -1.1880   -2.8662   -0.8468 F   0  0  0  0  0  0  0  0  0  0  0  0
   -1.3571   -1.4116    1.3632 F   0  0  0  0  0  0  0  0  0  0  0  0
   -3.9022   -1.3483    1.8722 F   0  0  0  0  0  0  0  0  0  0  0  0
   -4.5120   -1.2112   -0.2192 F   0  0  0  0  0  0  0  0  0  0  0  0
   -3.4761   -2.9828    0.5068 F   0  0  0  0  0  0  0  0  0  0  0  0
    2.8515    0.0727    1.3065 F   0  0  0  0  0  0  0  0  0  0  0  0
    3.5827   -1.6848    0.1893 F   0  0  0  0  0  0  0  0  0  0  0  0
    4.8111    0.4020   -1.6100 F   0  0  0  0  0  0  0  0  0  0  0  0
    6.8180    0.8653    0.2885 F   0  0  0  0  0  0  0  0  0  0  0  0
    6.2529   -1.2193    0.0130 F   0  0  0  0  0  0  0  0  0  0  0  0
    5.5975   -0.1355    1.7996 F   0  0  0  0  0  0  0  0  0  0  0  0
   -1.2641    0.9545   -2.3428 H   0  0  0  0  0  0  0  0  0  0  0  0
    0.3192    2.7160   -1.6104 H   0  0  0  0  0  0  0  0  0  0  0  0
    2.5872    1.9925   -1.2691 H   0  0  0  0  0  0  0  0  0  0  0  0
    2.5965   -0.5976   -1.9097 H   0  0  0  0  0  0  0  0  0  0  0  0
    4.3873    1.5013    0.0547 H   0  0  0  0  0  0  0  0  0  0  0  0
    1.1940   -2.1207   -0.6203 H   0  0  0  0  0  0  0  0  0  0  0  0
    0.7313   -0.8532    0.5197 H   0  0  0  0  0  0  0  0  0  0  0  0
   -0.0582   -1.0697   -2.4533 H   0  0  0  0  0  0  0  0  0  0  0  0
  1  6  1  0  0  0  0
  1  2  1  0  0  0  0
  2  3  2  0  0  0  0
  3  4  1  0  0  0  0
  4 28  1  6  0  0  0
  4  5  1  0  0  0  0
  4 10  1  0  0  0  0
  5 31  1  0  0  0  0
  6 32  1  6  0  0  0
  6  7  1  0  0  0  0
  6  5  1  0  0  0  0
  7 14  1  0  0  0  0
  7  8  1  0  0  0  0
  8  9  1  0  0  0  0
  8 15  1  1  0  0  0
  9 16  1  0  0  0  0
 10 20  1  0  0  0  0
 10 19  1  0  0  0  0
 11 29  1  1  0  0  0
 11 10  1  0  0  0  0
 11 12  1  0  0  0  0
 12 24  1  0  0  0  0
 13  7  1  0  0  0  0
 17  9  1  0  0  0  0
 18  9  1  0  0  0  0
 21 11  1  0  0  0  0
 22 12  1  0  0  0  0
 23 12  1  0  0  0  0
 25  1  1  0  0  0  0
 26  2  1  0  0  0  0
 27  3  1  0  0  0  0
 30  5  1  0  0  0  0
M  END
