11,17
 OpenBabel05122313053D

 44 46  0  0  0  0  0  0  0  0999 V2000
    6.4261    2.9715   -0.8140 Br  0  0  0  0  0  0  0  0  0  0  0  0
    3.3965   -3.5383   -2.2061 Cl  0  0  0  0  0  0  0  0  0  0  0  0
    0.0848   -4.6506   -2.7797 Cl  0  0  0  0  0  0  0  0  0  0  0  0
   -5.1868    0.8796   -1.5084 Cl  0  0  0  0  0  0  0  0  0  0  0  0
   -4.2655   -2.4105   -2.4230 Cl  0  0  0  0  0  0  0  0  0  0  0  0
   -4.4013    4.0854    0.6335 F   0  0  0  0  0  0  0  0  0  0  0  0
    1.8650   -1.9438   -0.5909 N   0  0  0  0  0  0  0  0  0  0  0  0
   -0.1623   -2.6601   -0.9202 N   0  0  0  0  0  0  0  0  0  0  0  0
   -2.2712   -1.5705   -0.7507 N   0  0  0  0  0  0  0  0  0  0  0  0
   -2.8057    0.4690   -0.2193 N   0  0  0  0  0  0  0  0  0  0  0  0
    0.5694   -1.7525   -0.1910 C   0  0  0  0  0  2  0  0  0  0  0  0
    1.9400   -2.9678   -1.5402 C   0  0  0  0  0  0  0  0  0  0  0  0
    0.6575   -3.4187   -1.7570 C   0  0  0  0  0  0  0  0  0  0  0  0
   -1.5855   -2.8459   -0.7238 C   0  0  0  0  0  0  0  0  0  0  0  0
   -1.9823   -3.4874   -1.5319 H   0  0  0  0  0  0  0  0  0  0  0  0
   -1.7596   -3.3370    0.2557 H   0  0  0  0  0  0  0  0  0  0  0  0
   -1.8600   -0.4960    0.0014 C   0  0  0  0  0  2  0  0  0  0  0  0
   -3.8074   -0.0071   -1.0739 C   0  0  0  0  0  0  0  0  0  0  0  0
   -3.4645   -1.2943   -1.4207 C   0  0  0  0  0  0  0  0  0  0  0  0
   -2.7887    1.8259    0.3408 C   0  0  0  0  0  0  0  0  0  0  0  0
   -3.6459    1.9331    1.0336 H   0  0  0  0  0  0  0  0  0  0  0  0
   -1.8472    1.8886    0.9215 H   0  0  0  0  0  0  0  0  0  0  0  0
   -2.8403    2.9101   -0.7090 C   0  0  0  0  0  0  0  0  0  0  0  0
   -3.6645    4.0295   -0.4986 C   0  0  0  0  0  0  0  0  0  0  0  0
   -3.7506    5.0781   -1.4184 C   0  0  0  0  0  0  0  0  0  0  0  0
   -4.4126    5.9282   -1.2007 H   0  0  0  0  0  0  0  0  0  0  0  0
   -2.9898    5.0080   -2.5941 C   0  0  0  0  0  0  0  0  0  0  0  0
   -3.0490    5.8260   -3.3272 H   0  0  0  0  0  0  0  0  0  0  0  0
   -2.1580    3.9015   -2.8333 C   0  0  0  0  0  0  0  0  0  0  0  0
   -1.5597    3.8500   -3.7544 H   0  0  0  0  0  0  0  0  0  0  0  0
   -2.0832    2.8637   -1.8944 C   0  0  0  0  0  0  0  0  0  0  0  0
   -1.4201    2.0038   -2.0706 H   0  0  0  0  0  0  0  0  0  0  0  0
    3.0166   -1.1541   -0.1420 C   0  0  0  0  0  0  0  0  0  0  0  0
    3.7926   -1.8611    0.2175 H   0  0  0  0  0  0  0  0  0  0  0  0
    2.6488   -0.5637    0.7167 H   0  0  0  0  0  0  0  0  0  0  0  0
    3.5758   -0.2150   -1.2132 C   0  0  0  0  0  0  0  0  0  0  0  0
    2.7292    0.3568   -1.6453 H   0  0  0  0  0  0  0  0  0  0  0  0
    4.0451   -0.7999   -2.0310 H   0  0  0  0  0  0  0  0  0  0  0  0
    4.5899    0.7537   -0.5935 C   0  0  0  0  0  0  0  0  0  0  0  0
    4.0930    1.3359    0.2118 H   0  0  0  0  0  0  0  0  0  0  0  0
    5.4233    0.1932   -0.1178 H   0  0  0  0  0  0  0  0  0  0  0  0
    5.1559    1.7184   -1.6246 C   0  0  0  0  0  0  0  0  0  0  0  0
    4.3627    2.3381   -2.0845 H   0  0  0  0  0  0  0  0  0  0  0  0
    5.7092    1.1952   -2.4278 H   0  0  0  0  0  0  0  0  0  0  0  0
  2 12  1  0  0  0  0
  3 13  1  0  0  0  0
  4 18  1  0  0  0  0
  5 19  1  0  0  0  0
  7 11  1  0  0  0  0
  7 33  1  0  0  0  0
  8 14  1  0  0  0  0
  8 11  1  0  0  0  0
  9 14  1  0  0  0  0
  9 17  1  0  0  0  0
 10 17  1  0  0  0  0
 10 20  1  0  0  0  0
 12  7  1  0  0  0  0
 13 12  2  0  0  0  0
 13  8  1  0  0  0  0
 14 16  1  0  0  0  0
 15 14  1  0  0  0  0
 18 10  1  0  0  0  0
 19 18  2  0  0  0  0
 19  9  1  0  0  0  0
 20 22  1  0  0  0  0
 20 21  1  0  0  0  0
 23 24  1  0  0  0  0
 23 20  1  0  0  0  0
 24  6  1  0  0  0  0
 25 26  1  0  0  0  0
 25 24  2  0  0  0  0
 27 25  1  0  0  0  0
 28 27  1  0  0  0  0
 29 27  2  0  0  0  0
 29 31  1  0  0  0  0
 30 29  1  0  0  0  0
 31 23  2  0  0  0  0
 32 31  1  0  0  0  0
 33 34  1  0  0  0  0
 33 35  1  0  0  0  0
 36 39  1  0  0  0  0
 36 33  1  0  0  0  0
 37 36  1  0  0  0  0
 38 36  1  0  0  0  0
 39 41  1  0  0  0  0
 39 40  1  0  0  0  0
 42  1  1  0  0  0  0
 42 39  1  0  0  0  0
 43 42  1  0  0  0  0
 44 42  1  0  0  0  0
M  END
