7,11
 OpenBabel05122313053D

 20 20  0  0  0  0  0  0  0  0999 V2000
   -2.5620   -1.8406    0.0072 O   0  0  0  0  0  0  0  0  0  0  0  0
   -5.4513   -1.6682   -0.1431 O   0  0  0  0  0  0  0  0  0  0  0  0
   -5.6624   -2.1074   -0.9873 H   0  0  0  0  0  0  0  0  0  0  0  0
   -1.2556   -2.1070   -0.1333 C   0  0  0  0  0  0  0  0  0  0  0  0
   -0.5585   -2.4593    1.0642 C   0  0  0  0  0  0  0  0  0  0  0  0
   -1.1116   -2.4544    2.0122 H   0  0  0  0  0  0  0  0  0  0  0  0
    0.8588   -2.6651    1.0286 C   0  0  0  0  0  3  0  0  0  0  0  0
    1.3959   -2.8180    1.9758 H   0  0  0  0  0  0  0  0  0  0  0  0
    1.5931   -2.5894   -0.1949 C   0  0  0  0  0  3  0  0  0  0  0  0
    2.6815   -2.7371   -0.2108 H   0  0  0  0  0  0  0  0  0  0  0  0
    0.8840   -2.1716   -1.3681 C   0  0  0  0  0  3  0  0  0  0  0  0
    1.4370   -1.9921   -2.3037 H   0  0  0  0  0  0  0  0  0  0  0  0
   -0.5277   -1.9325   -1.3638 C   0  0  0  0  0  3  0  0  0  0  0  0
   -1.0262   -1.5934   -2.2802 H   0  0  0  0  0  0  0  0  0  0  0  0
   -3.2221   -1.0382   -0.9812 C   0  0  0  0  0  0  0  0  0  0  0  0
   -3.3605   -1.6312   -1.9167 H   0  0  0  0  0  0  0  0  0  0  0  0
   -2.6029   -0.1441   -1.2053 H   0  0  0  0  0  0  0  0  0  0  0  0
   -4.5681   -0.6056   -0.4226 C   0  0  0  0  0  0  0  0  0  0  0  0
   -4.3888   -0.0786    0.5372 H   0  0  0  0  0  0  0  0  0  0  0  0
   -4.9948    0.1469   -1.1331 H   0  0  0  0  0  0  0  0  0  0  0  0
  3  2  1  0  0  0  0
  4  1  1  0  0  0  0
  4  5  2  0  0  0  0
  5  6  1  0  0  0  0
  7  5  1  0  0  0  0
  7  8  1  0  0  0  0
  9  7  1  0  0  0  0
 10  9  1  0  0  0  0
 11 13  1  0  0  0  0
 11  9  1  0  0  0  0
 12 11  1  0  0  0  0
 13  4  1  0  0  0  0
 14 13  1  0  0  0  0
 15 18  1  0  0  0  0
 15  1  1  0  0  0  0
 16 15  1  0  0  0  0
 17 15  1  0  0  0  0
 18  2  1  0  0  0  0
 18 19  1  0  0  0  0
 20 18  1  0  0  0  0
M  END
