4,8
 OpenBabel05122313053D

 70 74  0  0  1  0  0  0  0  0999 V2000
    3.4902   -2.0353    0.7582 Si  0  0  0  0  0  0  0  0  0  0  0  0
    3.5106   -0.7721   -0.4259 O   0  0  0  0  0  0  0  0  0  0  0  0
    0.8754    4.1097    0.0033 O   0  0  0  0  0  0  0  0  0  0  0  0
   -5.0377    1.2881   -0.6381 C   0  0  0  0  0  3  0  0  0  0  0  0
   -5.6599    2.0870   -0.2104 H   0  0  0  0  0  0  0  0  0  0  0  0
   -5.6431    0.1566   -1.2271 C   0  0  0  0  0  3  0  0  0  0  0  0
   -6.7369    0.0599   -1.2411 H   0  0  0  0  0  0  0  0  0  0  0  0
   -4.8277   -0.9149   -1.6924 C   0  0  0  0  0  3  0  0  0  0  0  0
   -5.2954   -1.8297   -2.0831 H   0  0  0  0  0  0  0  0  0  0  0  0
   -3.4042   -0.8370   -1.6471 C   0  0  0  0  0  0  0  0  0  0  0  0
   -2.7814    0.3592   -1.1005 C   0  0  0  0  0  0  0  0  0  0  0  0
   -1.3431    0.4534   -1.0095 C   0  0  2  0  0  3  0  0  0  0  0  0
   -2.5591   -1.9256   -2.0877 C   0  0  0  0  0  0  0  0  0  0  0  0
   -3.0428   -2.8245   -2.4979 H   0  0  0  0  0  0  0  0  0  0  0  0
   -1.2003   -1.8434   -1.9784 C   0  0  0  0  0  0  0  0  0  0  0  0
   -0.5638   -2.6827   -2.2985 H   0  0  0  0  0  0  0  0  0  0  0  0
   -0.5512   -0.6810   -1.4141 C   0  0  0  0  0  0  0  0  0  0  0  0
    0.8213   -0.6532   -1.1854 C   0  0  0  0  0  0  0  0  0  0  0  0
    1.4294   -1.5310   -1.4380 H   0  0  0  0  0  0  0  0  0  0  0  0
    1.4685    0.4831   -0.6391 C   0  0  0  0  0  0  0  0  0  0  0  0
    2.8687    0.4294   -0.3299 C   0  0  0  0  0  0  0  0  0  0  0  0
    3.5777    1.5840    0.0252 C   0  0  0  0  0  0  0  0  0  0  0  0
    2.8777    2.8294    0.0806 C   0  0  0  0  0  0  0  0  0  0  0  0
    1.4862    2.8699   -0.1090 C   0  0  0  0  0  0  0  0  0  0  0  0
    0.7258    1.6993   -0.4190 C   0  0  0  0  0  0  0  0  0  0  0  0
   -0.7259    1.6325   -0.5001 C   0  0  0  0  0  0  0  0  0  0  0  0
   -1.5842    2.6787   -0.0047 C   0  0  0  0  0  0  0  0  0  0  0  0
   -1.1157    3.5546    0.4575 H   0  0  0  0  0  0  0  0  0  0  0  0
   -2.9548    2.5773   -0.0379 C   0  0  0  0  0  0  0  0  0  0  0  0
   -3.5797    3.3791    0.3835 H   0  0  0  0  0  0  0  0  0  0  0  0
   -3.6052    1.4372   -0.6123 C   0  0  0  0  0  0  0  0  0  0  0  0
    1.7679   -2.2689    1.4831 C   0  0  0  0  0  0  0  0  0  0  0  0
    1.3506   -1.3041    1.8363 H   0  0  0  0  0  0  0  0  0  0  0  0
    1.8325   -2.9431    2.3623 H   0  0  0  0  0  0  0  0  0  0  0  0
    1.0329   -2.6989    0.7766 H   0  0  0  0  0  0  0  0  0  0  0  0
    4.6616   -1.5782    2.1652 C   0  0  0  0  0  0  0  0  0  0  0  0
    5.7057   -1.4380    1.8220 H   0  0  0  0  0  0  0  0  0  0  0  0
    4.6586   -2.3771    2.9351 H   0  0  0  0  0  0  0  0  0  0  0  0
    4.3291   -0.6415    2.6575 H   0  0  0  0  0  0  0  0  0  0  0  0
    4.1148   -3.5444   -0.2340 C   0  0  0  0  0  0  0  0  0  0  0  0
    3.1744   -3.8015   -1.4267 C   0  0  0  0  0  0  0  0  0  0  0  0
    3.5107   -4.6935   -2.0002 H   0  0  0  0  0  0  0  0  0  0  0  0
    3.1636   -2.9401   -2.1249 H   0  0  0  0  0  0  0  0  0  0  0  0
    2.1308   -3.9953   -1.1010 H   0  0  0  0  0  0  0  0  0  0  0  0
    4.1291   -4.7736    0.6952 C   0  0  0  0  0  0  0  0  0  0  0  0
    3.1165   -5.0171    1.0790 H   0  0  0  0  0  0  0  0  0  0  0  0
    4.7968   -4.6280    1.5699 H   0  0  0  0  0  0  0  0  0  0  0  0
    4.4978   -5.6689    0.1472 H   0  0  0  0  0  0  0  0  0  0  0  0
    5.5361   -3.2568   -0.7543 C   0  0  0  0  0  0  0  0  0  0  0  0
    5.9053   -4.1096   -1.3662 H   0  0  0  0  0  0  0  0  0  0  0  0
    6.2595   -3.1097    0.0740 H   0  0  0  0  0  0  0  0  0  0  0  0
    5.5591   -2.3488   -1.3908 H   0  0  0  0  0  0  0  0  0  0  0  0
    5.0746    1.5006    0.2270 C   0  0  0  0  0  0  0  0  0  0  0  0
    5.3209    0.5257    0.6860 H   0  0  0  0  0  0  0  0  0  0  0  0
    5.4116    2.2755    0.9435 H   0  0  0  0  0  0  0  0  0  0  0  0
    5.8484    1.6311   -1.0946 C   0  0  0  0  0  0  0  0  0  0  0  0
    5.5537    0.8247   -1.7955 H   0  0  0  0  0  0  0  0  0  0  0  0
    6.9426    1.5602   -0.9283 H   0  0  0  0  0  0  0  0  0  0  0  0
    5.6406    2.5999   -1.5932 H   0  0  0  0  0  0  0  0  0  0  0  0
    3.5999    4.1136    0.4311 C   0  0  0  0  0  0  0  0  0  0  0  0
    3.1203    4.9595   -0.0981 H   0  0  0  0  0  0  0  0  0  0  0  0
    4.6460    4.0708    0.0690 H   0  0  0  0  0  0  0  0  0  0  0  0
    3.5787    4.4024    1.9405 C   0  0  0  0  0  0  0  0  0  0  0  0
    2.5350    4.5088    2.2966 H   0  0  0  0  0  0  0  0  0  0  0  0
    4.1222    5.3396    2.1775 H   0  0  0  0  0  0  0  0  0  0  0  0
    4.0488    3.5792    2.5165 H   0  0  0  0  0  0  0  0  0  0  0  0
    0.5789    4.7249   -1.2491 C   0  0  0  0  0  0  0  0  0  0  0  0
    1.5045    4.8819   -1.8470 H   0  0  0  0  0  0  0  0  0  0  0  0
    0.1187    5.7067   -1.0266 H   0  0  0  0  0  0  0  0  0  0  0  0
   -0.1334    4.1185   -1.8513 H   0  0  0  0  0  0  0  0  0  0  0  0
  1 32  1  0  0  0  0
  1 36  1  0  0  0  0
  2 21  1  0  0  0  0
  2  1  1  0  0  0  0
  4 31  1  0  0  0  0
  4  5  1  0  0  0  0
  6  4  1  0  0  0  0
  7  6  1  0  0  0  0
  8 10  1  0  0  0  0
  8  6  1  0  0  0  0
  9  8  1  0  0  0  0
 10 11  1  0  0  0  0
 11 12  1  0  0  0  0
 11 31  2  0  0  0  0
 12 17  1  1  0  0  0
 12 26  1  0  0  0  0
 13 15  1  0  0  0  0
 13 10  2  0  0  0  0
 14 13  1  0  0  0  0
 15 17  2  0  0  0  0
 16 15  1  0  0  0  0
 17 18  1  0  0  0  0
 18 20  2  0  0  0  0
 19 18  1  0  0  0  0
 20 25  1  0  0  0  0
 20 21  1  0  0  0  0
 21 22  2  0  0  0  0
 22 23  1  0  0  0  0
 22 53  1  0  0  0  0
 23 60  1  0  0  0  0
 24  3  1  0  0  0  0
 24 23  2  0  0  0  0
 25 24  1  0  0  0  0
 26 25  2  0  0  0  0
 26 27  1  0  0  0  0
 27 28  1  0  0  0  0
 29 27  2  0  0  0  0
 29 30  1  0  0  0  0
 31 29  1  0  0  0  0
 32 33  1  0  0  0  0
 32 34  1  0  0  0  0
 35 32  1  0  0  0  0
 36 39  1  0  0  0  0
 36 38  1  0  0  0  0
 37 36  1  0  0  0  0
 40 45  1  0  0  0  0
 40  1  1  0  0  0  0
 41 44  1  0  0  0  0
 41 40  1  0  0  0  0
 42 41  1  0  0  0  0
 43 41  1  0  0  0  0
 45 46  1  0  0  0  0
 45 47  1  0  0  0  0
 48 45  1  0  0  0  0
 49 40  1  0  0  0  0
 49 51  1  0  0  0  0
 50 49  1  0  0  0  0
 52 49  1  0  0  0  0
 53 54  1  0  0  0  0
 53 55  1  0  0  0  0
 56 58  1  0  0  0  0
 56 53  1  0  0  0  0
 57 56  1  0  0  0  0
 59 56  1  0  0  0  0
 60 63  1  0  0  0  0
 61 60  1  0  0  0  0
 62 60  1  0  0  0  0
 63 65  1  0  0  0  0
 63 64  1  0  0  0  0
 63 66  1  0  0  0  0
 67 69  1  0  0  0  0
 67  3  1  0  0  0  0
 68 67  1  0  0  0  0
 70 67  1  0  0  0  0
M  END
