1,3
 OpenBabel05122313053D

 40 42  0  0  0  0  0  0  0  0999 V2000
   -1.0023   -2.2717   -1.4657 C   0  0  0  0  0  3  0  0  0  0  0  0
   -2.3756   -2.1585   -1.7594 C   0  0  0  0  0  3  0  0  0  0  0  0
   -3.0083   -0.8767   -1.6953 C   0  0  0  0  0  3  0  0  0  0  0  0
   -2.2556    0.2724   -1.3729 C   0  0  0  0  0  3  0  0  0  0  0  0
   -0.8275    0.2044   -1.1627 C   0  0  0  0  0  0  0  0  0  0  0  0
   -0.1991   -1.0989   -1.2030 C   0  0  0  0  0  0  0  0  0  0  0  0
    1.1925   -1.2264   -0.8680 C   0  0  0  0  0  0  0  0  0  0  0  0
    1.6847   -2.4891   -0.8597 O   0  0  0  0  0  0  0  0  0  0  0  0
    1.9526   -0.0924   -0.5529 C   0  0  0  0  0  0  0  0  0  0  0  0
    1.3101    1.1792   -0.5417 C   0  0  0  0  0  0  0  0  0  0  0  0
   -0.0414    1.3705   -0.8172 C   0  0  0  0  0  0  0  0  0  0  0  0
   -0.6705    2.6963   -0.7902 C   0  0  0  0  0  0  0  0  0  0  0  0
   -0.5060    3.6281    0.1962 C   0  0  0  0  0  0  0  0  0  0  0  0
    0.2572    3.4435    1.4742 C   0  0  0  0  0  0  0  0  0  0  0  0
   -1.0639    4.8702    0.1620 O   0  0  0  0  0  0  0  0  0  0  0  0
   -1.8280    5.2462   -0.9671 C   0  0  0  0  0  0  0  0  0  0  0  0
   -0.5122   -3.2528   -1.4402 H   0  0  0  0  0  0  0  0  0  0  0  0
   -2.9735   -3.0597   -1.9509 H   0  0  0  0  0  0  0  0  0  0  0  0
   -4.0945   -0.7947   -1.8393 H   0  0  0  0  0  0  0  0  0  0  0  0
   -2.7593    1.2399   -1.2555 H   0  0  0  0  0  0  0  0  0  0  0  0
    2.6048   -2.4552   -0.5193 H   0  0  0  0  0  0  0  0  0  0  0  0
    1.9344    2.0609   -0.3383 H   0  0  0  0  0  0  0  0  0  0  0  0
   -1.3442    2.9343   -1.6272 H   0  0  0  0  0  0  0  0  0  0  0  0
    0.4391    2.3756    1.6859 H   0  0  0  0  0  0  0  0  0  0  0  0
   -0.3313    3.8784    2.3061 H   0  0  0  0  0  0  0  0  0  0  0  0
    1.2299    3.9784    1.4452 H   0  0  0  0  0  0  0  0  0  0  0  0
   -2.7323    4.6067   -1.0828 H   0  0  0  0  0  0  0  0  0  0  0  0
   -2.1461    6.2917   -0.7985 H   0  0  0  0  0  0  0  0  0  0  0  0
   -1.2318    5.1876   -1.9053 H   0  0  0  0  0  0  0  0  0  0  0  0
    3.3837   -0.2162   -0.1824 C   0  0  0  0  0  0  0  0  0  0  0  0
    3.8893    0.4635    0.9504 C   0  0  0  0  0  0  0  0  0  0  0  0
    5.2359    0.3474    1.3175 C   0  0  0  0  0  0  0  0  0  0  0  0
    6.1101   -0.4559    0.5661 C   0  0  0  0  0  0  0  0  0  0  0  0
    5.6277   -1.1328   -0.5638 C   0  0  0  0  0  0  0  0  0  0  0  0
    4.2805   -1.0116   -0.9389 C   0  0  0  0  0  0  0  0  0  0  0  0
    3.2035    1.0742    1.5572 H   0  0  0  0  0  0  0  0  0  0  0  0
    5.6057    0.8812    2.2061 H   0  0  0  0  0  0  0  0  0  0  0  0
    7.1663   -0.5503    0.8597 H   0  0  0  0  0  0  0  0  0  0  0  0
    6.3080   -1.7488   -1.1713 H   0  0  0  0  0  0  0  0  0  0  0  0
    3.9282   -1.5042   -1.8591 H   0  0  0  0  0  0  0  0  0  0  0  0
  1 17  1  0  0  0  0
  1  6  1  0  0  0  0
  2  3  1  0  0  0  0
  2  1  1  0  0  0  0
  3  4  1  0  0  0  0
  4 20  1  0  0  0  0
  4  5  1  0  0  0  0
  5 11  1  0  0  0  0
  6  5  2  0  0  0  0
  6  7  1  0  0  0  0
  7  8  1  0  0  0  0
  7  9  2  0  0  0  0
  8 21  1  0  0  0  0
  9 10  1  0  0  0  0
  9 30  1  0  0  0  0
 10 22  1  0  0  0  0
 11 12  1  0  0  0  0
 11 10  2  0  0  0  0
 12 13  2  0  0  0  0
 13 14  1  0  0  0  0
 14 24  1  0  0  0  0
 14 25  1  0  0  0  0
 15 13  1  0  0  0  0
 16 28  1  0  0  0  0
 16 15  1  0  0  0  0
 18  2  1  0  0  0  0
 19  3  1  0  0  0  0
 23 12  1  0  0  0  0
 26 14  1  0  0  0  0
 27 16  1  0  0  0  0
 29 16  1  0  0  0  0
 30 31  1  0  0  0  0
 31 32  2  0  0  0  0
 31 36  1  0  0  0  0
 32 37  1  0  0  0  0
 33 38  1  0  0  0  0
 33 32  1  0  0  0  0
 34 33  2  0  0  0  0
 35 34  1  0  0  0  0
 35 30  2  0  0  0  0
 39 34  1  0  0  0  0
 40 35  1  0  0  0  0
M  END
