4,10
 OpenBabel05122313053D

 24 24  0  0  1  0  0  0  0  0999 V2000
   -2.1291    4.9429    0.4515 O   0  0  0  0  0  0  0  0  0  0  0  0
    0.0943    4.5756    0.6850 O   0  0  0  0  0  0  0  0  0  0  0  0
    0.0287    5.5107    0.9778 H   0  0  0  0  0  0  0  0  0  0  0  0
   -2.3151   -2.0616   -1.4288 C   0  0  1  0  0  3  0  0  0  0  0  0
   -3.2134   -1.5585   -0.4072 C   0  0  0  0  0  0  0  0  0  0  0  0
   -3.7283   -2.2686    0.2561 H   0  0  0  0  0  0  0  0  0  0  0  0
   -3.3083   -0.1694   -0.1570 C   0  0  0  0  0  0  0  0  0  0  0  0
   -3.8859    0.1811    0.7122 H   0  0  0  0  0  0  0  0  0  0  0  0
   -2.5466    0.7946   -0.9141 C   0  0  2  0  0  3  0  0  0  0  0  0
   -1.7291    0.2902   -1.9746 C   0  0  0  0  0  3  0  0  0  0  0  0
   -1.1224    0.9965   -2.5619 H   0  0  0  0  0  0  0  0  0  0  0  0
   -1.6327   -1.1174   -2.2548 C   0  0  0  0  0  3  0  0  0  0  0  0
   -0.9557   -1.4776   -3.0430 H   0  0  0  0  0  0  0  0  0  0  0  0
   -2.0921   -3.5404   -1.5633 C   0  0  0  0  0  0  0  0  0  0  0  0
   -3.0334   -4.0582   -1.8393 H   0  0  0  0  0  0  0  0  0  0  0  0
   -1.7361   -3.9497   -0.5956 H   0  0  0  0  0  0  0  0  0  0  0  0
   -1.3286   -3.7648   -2.3317 H   0  0  0  0  0  0  0  0  0  0  0  0
   -2.5612    2.2687   -0.5665 C   0  0  0  0  0  0  0  0  0  0  0  0
   -2.8406    2.8658   -1.4599 H   0  0  0  0  0  0  0  0  0  0  0  0
   -3.3452    2.4667    0.1900 H   0  0  0  0  0  0  0  0  0  0  0  0
   -1.2126    2.7369   -0.0156 C   0  0  0  0  0  0  0  0  0  0  0  0
   -0.3924    2.5627   -0.7424 H   0  0  0  0  0  0  0  0  0  0  0  0
   -0.9523    2.1270    0.8795 H   0  0  0  0  0  0  0  0  0  0  0  0
   -1.1763    4.1912    0.3829 C   0  0  0  0  0  0  0  0  0  0  0  0
  2  3  1  0  0  0  0
  4 14  1  1  0  0  0
  4  5  1  0  0  0  0
  5  7  2  0  0  0  0
  5  6  1  0  0  0  0
  7  8  1  0  0  0  0
  9 18  1  1  0  0  0
  9  7  1  0  0  0  0
 10  9  1  0  0  0  0
 11 10  1  0  0  0  0
 12 10  1  0  0  0  0
 12  4  1  0  0  0  0
 13 12  1  0  0  0  0
 14 16  1  0  0  0  0
 15 14  1  0  0  0  0
 17 14  1  0  0  0  0
 18 21  1  0  0  0  0
 18 20  1  0  0  0  0
 19 18  1  0  0  0  0
 21 24  1  0  0  0  0
 21 23  1  0  0  0  0
 22 21  1  0  0  0  0
 24  1  2  0  0  0  0
 24  2  1  0  0  0  0
M  END
