3,7
 OpenBabel05122313053D

 32 36  0  0  1  0  0  0  0  0999 V2000
   -0.9146    1.8248   -1.0742 C   0  0  1  0  0  0  0  0  0  0  0  0
   -0.9708    1.9193    0.4821 C   0  0  2  0  0  0  0  0  0  0  0  0
   -0.2779    0.8329    1.2701 C   0  0  0  0  0  3  0  0  0  0  0  0
   -0.4985   -0.5483    1.2215 C   0  0  0  0  0  3  0  0  0  0  0  0
   -1.4645   -1.3454    0.3567 C   0  0  2  0  0  0  0  0  0  0  0  0
   -1.4266   -1.0236   -1.1611 C   0  0  2  0  0  0  0  0  0  0  0  0
   -0.1100   -0.4760   -1.6834 C   0  0  0  0  0  3  0  0  0  0  0  0
    0.1138    0.9013   -1.6773 C   0  0  0  0  0  3  0  0  0  0  0  0
   -2.5435    1.7921    0.4127 C   0  0  1  0  0  0  0  0  0  0  0  0
   -2.4217    1.3509   -1.0942 C   0  0  2  0  0  0  0  0  0  0  0  0
   -2.5860   -0.0911   -1.6020 C   0  0  2  0  0  0  0  0  0  0  0  0
   -3.8909   -0.7625   -1.2583 C   0  0  0  0  0  0  0  0  0  0  0  0
   -4.0149   -1.4331   -0.0991 C   0  0  0  0  0  0  0  0  0  0  0  0
   -2.9283   -1.3751    0.9594 C   0  0  2  0  0  0  0  0  0  0  0  0
   -3.3007   -0.2068    1.8576 C   0  0  0  0  0  0  0  0  0  0  0  0
   -3.2018    1.1078    1.5700 C   0  0  0  0  0  0  0  0  0  0  0  0
   -0.8008    2.8365   -1.5078 H   0  0  0  0  0  0  0  0  0  0  0  0
   -0.6159    2.8938    0.8692 H   0  0  0  0  0  0  0  0  0  0  0  0
    0.1907    1.1887    2.2016 H   0  0  0  0  0  0  0  0  0  0  0  0
   -0.1689   -1.0972    2.1197 H   0  0  0  0  0  0  0  0  0  0  0  0
   -1.1127   -2.3920    0.4320 H   0  0  0  0  0  0  0  0  0  0  0  0
   -1.6090   -1.9855   -1.6783 H   0  0  0  0  0  0  0  0  0  0  0  0
    0.4395   -1.0937   -2.4098 H   0  0  0  0  0  0  0  0  0  0  0  0
    0.8397    1.3275   -2.3863 H   0  0  0  0  0  0  0  0  0  0  0  0
   -2.9434    2.8251    0.3789 H   0  0  0  0  0  0  0  0  0  0  0  0
   -3.0635    1.9946   -1.7272 H   0  0  0  0  0  0  0  0  0  0  0  0
   -2.5107   -0.0118   -2.7081 H   0  0  0  0  0  0  0  0  0  0  0  0
   -4.7215   -0.7267   -1.9811 H   0  0  0  0  0  0  0  0  0  0  0  0
   -4.9566   -1.9389    0.1676 H   0  0  0  0  0  0  0  0  0  0  0  0
   -2.9959   -2.2866    1.5854 H   0  0  0  0  0  0  0  0  0  0  0  0
   -3.7762   -0.4768    2.8156 H   0  0  0  0  0  0  0  0  0  0  0  0
   -3.5726    1.8022    2.3443 H   0  0  0  0  0  0  0  0  0  0  0  0
  1 17  1  6  0  0  0
  1  2  1  0  0  0  0
  2 18  1  1  0  0  0
  2  3  1  0  0  0  0
  3 19  1  0  0  0  0
  4  3  1  0  0  0  0
  4 20  1  0  0  0  0
  5 21  1  1  0  0  0
  5 14  1  0  0  0  0
  5  4  1  0  0  0  0
  6 22  1  6  0  0  0
  6  5  1  0  0  0  0
  7  8  1  0  0  0  0
  7  6  1  0  0  0  0
  8  1  1  0  0  0  0
  9 25  1  6  0  0  0
  9  2  1  0  0  0  0
  9 16  1  0  0  0  0
 10 26  1  6  0  0  0
 10  1  1  0  0  0  0
 10  9  1  0  0  0  0
 11 27  1  6  0  0  0
 11 12  1  0  0  0  0
 11  6  1  0  0  0  0
 11 10  1  0  0  0  0
 12 13  2  0  0  0  0
 13 29  1  0  0  0  0
 13 14  1  0  0  0  0
 14 30  1  1  0  0  0
 14 15  1  0  0  0  0
 15 31  1  0  0  0  0
 16 15  2  0  0  0  0
 16 32  1  0  0  0  0
 23  7  1  0  0  0  0
 24  8  1  0  0  0  0
 28 12  1  0  0  0  0
M  END
