2,15
 OpenBabel05122313053D

 34 37  0  0  0  0  0  0  0  0999 V2000
    1.8109   -1.1752    0.0246 N   0  0  0  0  0  0  0  0  0  0  0  0
    0.9265   -0.1076    0.0206 C   0  0  0  0  0  2  0  0  0  0  0  0
    1.6995    1.0262   -0.0337 N   0  0  0  0  0  0  0  0  0  0  0  0
    3.0591    0.6903   -0.0771 C   0  0  0  0  0  0  0  0  0  0  0  0
    3.1307   -0.7289   -0.0402 C   0  0  0  0  0  0  0  0  0  0  0  0
    4.1999    1.4969   -0.1345 C   0  0  0  0  0  0  0  0  0  0  0  0
    4.1163    2.5925   -0.1572 H   0  0  0  0  0  0  0  0  0  0  0  0
    5.4424    0.8442   -0.1639 C   0  0  0  0  0  0  0  0  0  0  0  0
    6.3649    1.4411   -0.2109 H   0  0  0  0  0  0  0  0  0  0  0  0
    5.5254   -0.5635   -0.1342 C   0  0  0  0  0  0  0  0  0  0  0  0
    6.5136   -1.0456   -0.1606 H   0  0  0  0  0  0  0  0  0  0  0  0
    4.3790   -1.3718   -0.0710 C   0  0  0  0  0  0  0  0  0  0  0  0
    4.4697   -2.4638   -0.0489 H   0  0  0  0  0  0  0  0  0  0  0  0
    1.1946   -2.4574    0.0708 C   0  0  0  0  0  0  0  0  0  0  0  0
   -0.2215   -2.3661    0.0800 C   0  0  0  0  0  3  0  0  0  0  0  0
   -0.9662   -3.5531    0.1270 C   0  0  0  0  0  0  0  0  0  0  0  0
   -2.0650   -3.4902    0.1310 H   0  0  0  0  0  0  0  0  0  0  0  0
   -0.3079   -4.7979    0.1656 C   0  0  0  0  0  0  0  0  0  0  0  0
   -0.8993   -5.7258    0.2025 H   0  0  0  0  0  0  0  0  0  0  0  0
    1.0933   -4.8643    0.1572 C   0  0  0  0  0  0  0  0  0  0  0  0
    1.6024   -5.8391    0.1882 H   0  0  0  0  0  0  0  0  0  0  0  0
    1.8628   -3.6876    0.1097 C   0  0  0  0  0  0  0  0  0  0  0  0
    2.9581   -3.7506    0.1071 H   0  0  0  0  0  0  0  0  0  0  0  0
    1.1939    2.3635   -0.0035 C   0  0  0  0  0  0  0  0  0  0  0  0
    0.7661    2.9106    1.2174 C   0  0  0  0  0  0  0  0  0  0  0  0
    0.8364    2.3023    2.1308 H   0  0  0  0  0  0  0  0  0  0  0  0
    0.2507    4.2148    1.2441 C   0  0  0  0  0  0  0  0  0  0  0  0
   -0.0921    4.6469    2.1962 H   0  0  0  0  0  0  0  0  0  0  0  0
    0.1740    4.9661    0.0605 C   0  0  0  0  0  0  0  0  0  0  0  0
   -0.2337    5.9877    0.0840 H   0  0  0  0  0  0  0  0  0  0  0  0
    0.6171    4.4161   -1.1527 C   0  0  0  0  0  0  0  0  0  0  0  0
    0.5540    5.0031   -2.0810 H   0  0  0  0  0  0  0  0  0  0  0  0
    1.1289    3.1110   -1.1898 C   0  0  0  0  0  0  0  0  0  0  0  0
    1.4632    2.6559   -2.1332 H   0  0  0  0  0  0  0  0  0  0  0  0
  1 14  1  0  0  0  0
  2  1  1  0  0  0  0
  3 24  1  0  0  0  0
  3  2  1  0  0  0  0
  4  5  1  0  0  0  0
  4  3  1  0  0  0  0
  5  1  1  0  0  0  0
  6  4  2  0  0  0  0
  7  6  1  0  0  0  0
  8  6  1  0  0  0  0
  8 10  2  0  0  0  0
  9  8  1  0  0  0  0
 10 12  1  0  0  0  0
 11 10  1  0  0  0  0
 12 13  1  0  0  0  0
 12  5  2  0  0  0  0
 14 15  2  0  0  0  0
 14 22  1  0  0  0  0
 15 16  1  0  0  0  0
 16 17  1  0  0  0  0
 16 18  2  0  0  0  0
 18 19  1  0  0  0  0
 20 18  1  0  0  0  0
 20 21  1  0  0  0  0
 22 20  2  0  0  0  0
 23 22  1  0  0  0  0
 24 25  1  0  0  0  0
 25 27  2  0  0  0  0
 25 26  1  0  0  0  0
 27 28  1  0  0  0  0
 29 30  1  0  0  0  0
 29 27  1  0  0  0  0
 31 29  2  0  0  0  0
 32 31  1  0  0  0  0
 33 31  1  0  0  0  0
 33 24  2  0  0  0  0
 34 33  1  0  0  0  0
M  END
