1,2
 OpenBabel05122313053D

 47 49  0  0  0  0  0  0  0  0999 V2000
    2.0455    0.6330   -0.0617 C   0  0  0  0  0  3  0  0  0  0  0  0
   -0.1405    2.0745   -0.0915 C   0  0  0  0  0  2  0  0  0  0  0  0
    3.0690   -0.2653   -0.0634 N   0  0  0  0  0  0  0  0  0  0  0  0
    2.2584    1.9243   -0.0170 N   0  0  0  0  0  0  0  0  0  0  0  0
    4.4620   -0.0926   -0.0365 C   0  0  0  0  0  0  0  0  0  0  0  0
    1.0786    2.6599   -0.0060 N   0  0  0  0  0  0  0  0  0  0  0  0
    5.2584   -1.2622   -0.0614 C   0  0  0  0  0  0  0  0  0  0  0  0
   -1.2236    2.8760   -0.1091 N   0  0  0  0  0  0  0  0  0  0  0  0
    6.6508   -1.1744   -0.0352 C   0  0  0  0  0  0  0  0  0  0  0  0
    7.3065    0.0755    0.0160 C   0  0  0  0  0  0  0  0  0  0  0  0
    6.4999    1.2286    0.0401 C   0  0  0  0  0  0  0  0  0  0  0  0
    5.0991    1.1652    0.0146 C   0  0  0  0  0  0  0  0  0  0  0  0
    8.8117    0.1580    0.0441 C   0  0  0  0  0  0  0  0  0  0  0  0
    1.2813    4.0814    0.0504 C   0  0  0  0  0  0  0  0  0  0  0  0
    0.8296    4.8124    1.1643 C   0  0  0  0  0  0  0  0  0  0  0  0
    1.0136    6.2041    1.1974 C   0  0  0  0  0  0  0  0  0  0  0  0
    1.6601    6.8545    0.1354 C   0  0  0  0  0  0  0  0  0  0  0  0
    2.1277    6.1127   -0.9631 C   0  0  0  0  0  0  0  0  0  0  0  0
    1.9391    4.7253   -1.0115 C   0  0  0  0  0  0  0  0  0  0  0  0
   -2.5677    2.5072   -0.3836 C   0  0  0  0  0  0  0  0  0  0  0  0
   -2.8892    1.7131   -1.4976 C   0  0  0  0  0  0  0  0  0  0  0  0
   -4.2181    1.3347   -1.7177 C   0  0  0  0  0  0  0  0  0  0  0  0
   -5.2522    1.7454   -0.8511 C   0  0  0  0  0  0  0  0  0  0  0  0
   -4.9139    2.5824    0.2325 C   0  0  0  0  0  0  0  0  0  0  0  0
   -3.5880    2.9626    0.4692 C   0  0  0  0  0  0  0  0  0  0  0  0
   -6.6624    1.2525   -1.0437 C   0  0  0  0  0  0  0  0  0  0  0  0
    2.7537   -1.2387   -0.0733 H   0  0  0  0  0  0  0  0  0  0  0  0
   -1.0676    3.8777    0.0689 H   0  0  0  0  0  0  0  0  0  0  0  0
    4.7691   -2.2492   -0.1029 H   0  0  0  0  0  0  0  0  0  0  0  0
    7.2467   -2.1008   -0.0556 H   0  0  0  0  0  0  0  0  0  0  0  0
    6.9823    2.2184    0.0817 H   0  0  0  0  0  0  0  0  0  0  0  0
    4.4869    2.0739    0.0378 H   0  0  0  0  0  0  0  0  0  0  0  0
    9.2312   -0.3703    0.9262 H   0  0  0  0  0  0  0  0  0  0  0  0
    9.1613    1.2078    0.0829 H   0  0  0  0  0  0  0  0  0  0  0  0
    9.2616   -0.3149   -0.8544 H   0  0  0  0  0  0  0  0  0  0  0  0
    0.3596    4.2851    2.0083 H   0  0  0  0  0  0  0  0  0  0  0  0
    0.6647    6.7785    2.0686 H   0  0  0  0  0  0  0  0  0  0  0  0
    1.8086    7.9441    0.1666 H   0  0  0  0  0  0  0  0  0  0  0  0
    2.6436    6.6204   -1.7917 H   0  0  0  0  0  0  0  0  0  0  0  0
    2.3034    4.1245   -1.8566 H   0  0  0  0  0  0  0  0  0  0  0  0
   -2.0906    1.3819   -2.1766 H   0  0  0  0  0  0  0  0  0  0  0  0
   -4.4570    0.6916   -2.5789 H   0  0  0  0  0  0  0  0  0  0  0  0
   -5.7027    2.9188    0.9226 H   0  0  0  0  0  0  0  0  0  0  0  0
   -3.3320    3.5782    1.3443 H   0  0  0  0  0  0  0  0  0  0  0  0
   -7.4050    1.9413   -0.5964 H   0  0  0  0  0  0  0  0  0  0  0  0
   -6.7893    0.2637   -0.5535 H   0  0  0  0  0  0  0  0  0  0  0  0
   -6.9082    1.1191   -2.1156 H   0  0  0  0  0  0  0  0  0  0  0  0
  1  4  2  0  0  0  0
  2  6  1  0  0  0  0
  3  1  1  0  0  0  0
  3  5  1  0  0  0  0
  4  6  1  0  0  0  0
  5 12  1  0  0  0  0
  6 14  1  0  0  0  0
  7  5  2  0  0  0  0
  7  9  1  0  0  0  0
  8  2  1  0  0  0  0
  8 28  1  0  0  0  0
  9 10  2  0  0  0  0
 10 11  1  0  0  0  0
 10 13  1  0  0  0  0
 11 31  1  0  0  0  0
 12 32  1  0  0  0  0
 12 11  2  0  0  0  0
 13 34  1  0  0  0  0
 13 33  1  0  0  0  0
 14 15  1  0  0  0  0
 15 16  2  0  0  0  0
 15 36  1  0  0  0  0
 16 37  1  0  0  0  0
 17 38  1  0  0  0  0
 17 16  1  0  0  0  0
 18 17  2  0  0  0  0
 19 18  1  0  0  0  0
 19 14  2  0  0  0  0
 20  8  1  0  0  0  0
 20 25  1  0  0  0  0
 21 20  2  0  0  0  0
 22 21  1  0  0  0  0
 22 23  2  0  0  0  0
 23 24  1  0  0  0  0
 24 25  2  0  0  0  0
 24 43  1  0  0  0  0
 25 44  1  0  0  0  0
 26 23  1  0  0  0  0
 26 45  1  0  0  0  0
 26 46  1  0  0  0  0
 27  3  1  0  0  0  0
 29  7  1  0  0  0  0
 30  9  1  0  0  0  0
 35 13  1  0  0  0  0
 39 18  1  0  0  0  0
 40 19  1  0  0  0  0
 41 21  1  0  0  0  0
 42 22  1  0  0  0  0
 47 26  1  0  0  0  0
M  END
