2,24
 OpenBabel05122313053D

 47 50  0  0  0  0  0  0  0  0999 V2000
   -1.2270   -0.2157   -0.2610 P   0  0  0  0  0  4  0  0  0  0  0  0
    1.7152    0.6583    0.3653 C   0  0  0  0  0  2  0  0  0  0  0  0
    1.3386    2.1957    2.0135 C   0  0  0  0  0  0  0  0  0  0  0  0
    2.1313    2.7823    1.0656 C   0  0  0  0  0  0  0  0  0  0  0  0
    3.1285    2.0733   -1.1303 C   0  0  0  0  0  0  0  0  0  0  0  0
    0.1804    0.0071    2.2130 C   0  0  0  0  0  0  0  0  0  0  0  0
    0.3854   -0.2982    3.5664 C   0  0  0  0  0  0  0  0  0  0  0  0
   -0.5190   -1.1281    4.2444 C   0  0  0  0  0  0  0  0  0  0  0  0
   -1.6322   -1.6510    3.5713 C   0  0  0  0  0  0  0  0  0  0  0  0
   -1.8447   -1.3397    2.2206 C   0  0  0  0  0  0  0  0  0  0  0  0
   -0.9478   -0.5054    1.5233 C   0  0  0  0  0  0  0  0  0  0  0  0
   -2.9882   -0.5897   -0.5740 C   0  0  0  0  0  0  0  0  0  0  0  0
   -3.9973    0.3229   -0.1974 C   0  0  0  0  0  0  0  0  0  0  0  0
   -5.3433    0.0067   -0.4225 C   0  0  0  0  0  0  0  0  0  0  0  0
   -5.6908   -1.2135   -1.0263 C   0  0  0  0  0  0  0  0  0  0  0  0
   -4.6898   -2.1193   -1.4086 C   0  0  0  0  0  0  0  0  0  0  0  0
   -3.3392   -1.8118   -1.1847 C   0  0  0  0  0  0  0  0  0  0  0  0
   -0.9994    1.5454   -0.6511 C   0  0  0  0  0  0  0  0  0  0  0  0
   -0.5292    1.9114   -1.9294 C   0  0  0  0  0  0  0  0  0  0  0  0
   -0.4442    3.2670   -2.2765 C   0  0  0  0  0  0  0  0  0  0  0  0
   -0.8312    4.2582   -1.3582 C   0  0  0  0  0  0  0  0  0  0  0  0
   -1.2949    3.8944   -0.0848 C   0  0  0  0  0  0  0  0  0  0  0  0
   -1.3770    2.5404    0.2743 C   0  0  0  0  0  0  0  0  0  0  0  0
   -0.1300   -1.2709   -1.1796 C   0  0  0  0  0  3  0  0  0  0  0  0
    1.0865    0.8995    1.5633 N   0  0  0  0  0  0  0  0  0  0  0  0
    2.3460    1.8336    0.0757 N   0  0  0  0  0  0  0  0  0  0  0  0
    0.9088    2.5867    2.9398 H   0  0  0  0  0  0  0  0  0  0  0  0
    2.5472    3.7927    1.0092 H   0  0  0  0  0  0  0  0  0  0  0  0
    2.6960    2.9228   -1.6938 H   0  0  0  0  0  0  0  0  0  0  0  0
    3.0854    1.1592   -1.7514 H   0  0  0  0  0  0  0  0  0  0  0  0
    4.1819    2.2951   -0.8712 H   0  0  0  0  0  0  0  0  0  0  0  0
    1.2707    0.1059    4.0786 H   0  0  0  0  0  0  0  0  0  0  0  0
   -0.3452   -1.3714    5.3027 H   0  0  0  0  0  0  0  0  0  0  0  0
   -2.3432   -2.3037    4.0981 H   0  0  0  0  0  0  0  0  0  0  0  0
   -2.7257   -1.7420    1.6991 H   0  0  0  0  0  0  0  0  0  0  0  0
   -3.7367    1.2879    0.2609 H   0  0  0  0  0  0  0  0  0  0  0  0
   -6.1268    0.7216   -0.1308 H   0  0  0  0  0  0  0  0  0  0  0  0
   -6.7489   -1.4561   -1.2051 H   0  0  0  0  0  0  0  0  0  0  0  0
   -4.9583   -3.0719   -1.8885 H   0  0  0  0  0  0  0  0  0  0  0  0
   -2.5620   -2.5256   -1.4941 H   0  0  0  0  0  0  0  0  0  0  0  0
   -0.2221    1.1421   -2.6527 H   0  0  0  0  0  0  0  0  0  0  0  0
   -0.0821    3.5507   -3.2760 H   0  0  0  0  0  0  0  0  0  0  0  0
   -0.7719    5.3204   -1.6387 H   0  0  0  0  0  0  0  0  0  0  0  0
   -1.5935    4.6688    0.6372 H   0  0  0  0  0  0  0  0  0  0  0  0
   -1.7313    2.2600    1.2784 H   0  0  0  0  0  0  0  0  0  0  0  0
   -0.2929   -1.1043   -2.2654 H   0  0  0  0  0  0  0  0  0  0  0  0
   -0.4574   -2.3053   -0.9448 H   0  0  0  0  0  0  0  0  0  0  0  0
  1 11  1  0  0  0  0
  2 25  1  0  0  0  0
  3 27  1  0  0  0  0
  4  3  2  0  0  0  0
  5 31  1  0  0  0  0
  5 26  1  0  0  0  0
  6  7  1  0  0  0  0
  7 32  1  0  0  0  0
  7  8  2  0  0  0  0
  8 33  1  0  0  0  0
  9 34  1  0  0  0  0
  9  8  1  0  0  0  0
 10  9  2  0  0  0  0
 11  6  2  0  0  0  0
 11 10  1  0  0  0  0
 12  1  1  0  0  0  0
 12 13  1  0  0  0  0
 13 36  1  0  0  0  0
 14 13  2  0  0  0  0
 14 37  1  0  0  0  0
 15 14  1  0  0  0  0
 16 17  1  0  0  0  0
 16 15  2  0  0  0  0
 17 12  2  0  0  0  0
 18  1  1  0  0  0  0
 18 23  1  0  0  0  0
 19 18  2  0  0  0  0
 20 19  1  0  0  0  0
 20 21  2  0  0  0  0
 21 22  1  0  0  0  0
 22 23  2  0  0  0  0
 22 44  1  0  0  0  0
 23 45  1  0  0  0  0
 24 47  1  0  0  0  0
 24  1  1  0  0  0  0
 25  3  1  0  0  0  0
 25  6  1  0  0  0  0
 26  2  1  0  0  0  0
 26  4  1  0  0  0  0
 28  4  1  0  0  0  0
 29  5  1  0  0  0  0
 30  5  1  0  0  0  0
 35 10  1  0  0  0  0
 38 15  1  0  0  0  0
 39 16  1  0  0  0  0
 40 17  1  0  0  0  0
 41 19  1  0  0  0  0
 42 20  1  0  0  0  0
 43 21  1  0  0  0  0
 46 24  1  0  0  0  0
M  END
