7,9
 OpenBabel05122313053D

 58 60  0  0  0  0  0  0  0  0999 V2000
    1.5690    1.2288   -0.8256 N   0  0  0  0  0  0  0  0  0  0  0  0
    1.1885    2.1098   -1.2087 H   0  0  0  0  0  0  0  0  0  0  0  0
    7.1561    1.1875   -0.7392 O   0  0  0  0  0  0  0  0  0  0  0  0
   -2.3396    1.3735   -2.0183 O   0  0  0  0  0  0  0  0  0  0  0  0
   -0.1402    4.9238    0.2620 O   0  0  0  0  0  0  0  0  0  0  0  0
    0.0790    2.8380    1.1385 O   0  0  0  0  0  0  0  0  0  0  0  0
   -1.3582   -0.5964   -0.1534 C   0  0  0  0  0  2  0  0  0  0  0  0
   -0.7397    0.5932   -0.5392 C   0  0  0  0  0  0  0  0  0  0  0  0
    0.6773    0.3208   -0.4486 C   0  0  0  0  0  3  0  0  0  0  0  0
   -1.4025    1.7767   -1.1322 C   0  0  0  0  0  0  0  0  0  0  0  0
   -1.1411    3.1078   -0.8907 C   0  0  0  0  0  0  0  0  0  0  0  0
   -1.6309    3.8670   -1.5150 H   0  0  0  0  0  0  0  0  0  0  0  0
   -2.7881   -0.8406   -0.0649 C   0  0  0  0  0  0  0  0  0  0  0  0
   -3.2980   -2.0197   -0.6266 C   0  0  0  0  0  0  0  0  0  0  0  0
   -2.5892   -2.7538   -1.0362 H   0  0  0  0  0  0  0  0  0  0  0  0
   -4.6895   -2.2458   -0.7338 C   0  0  0  0  0  0  0  0  0  0  0  0
   -5.0526   -3.1649   -1.2177 H   0  0  0  0  0  0  0  0  0  0  0  0
   -5.5897   -1.3147   -0.2361 C   0  0  0  0  0  0  0  0  0  0  0  0
   -6.6748   -1.4821   -0.3205 H   0  0  0  0  0  0  0  0  0  0  0  0
   -5.1274   -0.1345    0.4183 C   0  0  0  0  0  0  0  0  0  0  0  0
   -6.0396    0.8122    0.9718 C   0  0  0  0  0  0  0  0  0  0  0  0
   -7.1196    0.6186    0.8758 H   0  0  0  0  0  0  0  0  0  0  0  0
   -5.5830    1.9449    1.6288 C   0  0  0  0  0  0  0  0  0  0  0  0
   -6.2989    2.6661    2.0514 H   0  0  0  0  0  0  0  0  0  0  0  0
   -4.1886    2.1608    1.7782 C   0  0  0  0  0  0  0  0  0  0  0  0
   -3.8263    3.0437    2.3265 H   0  0  0  0  0  0  0  0  0  0  0  0
   -3.2734    1.2608    1.2466 C   0  0  0  0  0  0  0  0  0  0  0  0
   -2.1982    1.4330    1.3931 H   0  0  0  0  0  0  0  0  0  0  0  0
   -3.7086    0.1089    0.5285 C   0  0  0  0  0  0  0  0  0  0  0  0
    2.9799    1.1857   -0.7595 C   0  0  0  0  0  0  0  0  0  0  0  0
    3.7262    2.0057   -1.6336 C   0  0  0  0  0  0  0  0  0  0  0  0
    3.2040    2.6538   -2.3548 H   0  0  0  0  0  0  0  0  0  0  0  0
    5.1189    1.9882   -1.5981 C   0  0  0  0  0  0  0  0  0  0  0  0
    5.7142    2.6156   -2.2764 H   0  0  0  0  0  0  0  0  0  0  0  0
    5.8004    1.1470   -0.6886 C   0  0  0  0  0  0  0  0  0  0  0  0
    5.0543    0.3448    0.2012 C   0  0  0  0  0  0  0  0  0  0  0  0
    5.5497   -0.3085    0.9309 H   0  0  0  0  0  0  0  0  0  0  0  0
    3.6550    0.3769    0.1685 C   0  0  0  0  0  0  0  0  0  0  0  0
    3.0731   -0.2247    0.8764 H   0  0  0  0  0  0  0  0  0  0  0  0
    7.8888    0.3553    0.1430 C   0  0  0  0  0  0  0  0  0  0  0  0
    7.6594   -0.7215   -0.0188 H   0  0  0  0  0  0  0  0  0  0  0  0
    7.6908    0.6066    1.2090 H   0  0  0  0  0  0  0  0  0  0  0  0
    8.9577    0.5333   -0.0756 H   0  0  0  0  0  0  0  0  0  0  0  0
   -3.3589    2.2843   -2.4545 C   0  0  0  0  0  0  0  0  0  0  0  0
   -2.9213    3.0243   -3.1624 H   0  0  0  0  0  0  0  0  0  0  0  0
   -3.7388    2.8413   -1.5690 H   0  0  0  0  0  0  0  0  0  0  0  0
   -4.4507    1.4645   -3.1136 C   0  0  0  0  0  0  0  0  0  0  0  0
   -4.8807    0.7406   -2.3938 H   0  0  0  0  0  0  0  0  0  0  0  0
   -4.0530    0.9011   -3.9806 H   0  0  0  0  0  0  0  0  0  0  0  0
   -5.2603    2.1307   -3.4712 H   0  0  0  0  0  0  0  0  0  0  0  0
   -0.3614    3.7220    0.1903 C   0  0  0  0  0  0  0  0  0  0  0  0
    0.8793    3.4162    2.1912 C   0  0  0  0  0  0  0  0  0  0  0  0
    0.2316    4.0719    2.8122 H   0  0  0  0  0  0  0  0  0  0  0  0
    1.6472    4.0752    1.7346 H   0  0  0  0  0  0  0  0  0  0  0  0
    1.4940    2.2938    2.9997 C   0  0  0  0  0  0  0  0  0  0  0  0
    0.7207    1.6398    3.4459 H   0  0  0  0  0  0  0  0  0  0  0  0
    2.1053    2.7169    3.8213 H   0  0  0  0  0  0  0  0  0  0  0  0
    2.1559    1.6666    2.3698 H   0  0  0  0  0  0  0  0  0  0  0  0
  1 30  1  0  0  0  0
  1  9  1  0  0  0  0
  2  1  1  0  0  0  0
  3 35  1  0  0  0  0
  3 40  1  0  0  0  0
  4 10  1  0  0  0  0
  6 52  1  0  0  0  0
  7 13  1  0  0  0  0
  8  9  2  0  0  0  0
  8  7  1  0  0  0  0
 10 11  2  0  0  0  0
 10  8  1  0  0  0  0
 11 51  1  0  0  0  0
 12 11  1  0  0  0  0
 13 29  1  0  0  0  0
 14 13  2  0  0  0  0
 15 14  1  0  0  0  0
 16 14  1  0  0  0  0
 16 18  2  0  0  0  0
 17 16  1  0  0  0  0
 18 20  1  0  0  0  0
 19 18  1  0  0  0  0
 20 29  2  0  0  0  0
 20 21  1  0  0  0  0
 21 23  2  0  0  0  0
 22 21  1  0  0  0  0
 23 25  1  0  0  0  0
 23 24  1  0  0  0  0
 25 26  1  0  0  0  0
 27 28  1  0  0  0  0
 27 25  2  0  0  0  0
 29 27  1  0  0  0  0
 30 38  1  0  0  0  0
 31 33  1  0  0  0  0
 31 30  2  0  0  0  0
 32 31  1  0  0  0  0
 33 35  2  0  0  0  0
 34 33  1  0  0  0  0
 35 36  1  0  0  0  0
 36 37  1  0  0  0  0
 38 36  2  0  0  0  0
 38 39  1  0  0  0  0
 40 42  1  0  0  0  0
 41 40  1  0  0  0  0
 43 40  1  0  0  0  0
 44  4  1  0  0  0  0
 44 46  1  0  0  0  0
 45 44  1  0  0  0  0
 47 44  1  0  0  0  0
 47 48  1  0  0  0  0
 49 47  1  0  0  0  0
 50 47  1  0  0  0  0
 51  5  2  0  0  0  0
 51  6  1  0  0  0  0
 52 53  1  0  0  0  0
 52 55  1  0  0  0  0
 54 52  1  0  0  0  0
 55 56  1  0  0  0  0
 55 57  1  0  0  0  0
 58 55  1  0  0  0  0
M  END
