43,59
 OpenBabel05122313053D

 66 69  0  0  1  0  0  0  0  0999 V2000
   -4.1874    0.3189   -0.2242 C   0  0  0  0  0  0  0  0  0  0  0  0
   -4.3995   -0.7538   -0.1514 H   0  0  0  0  0  0  0  0  0  0  0  0
   -5.2167    1.2460   -0.0133 C   0  0  0  0  0  0  0  0  0  0  0  0
   -6.2299    0.8661    0.1896 H   0  0  0  0  0  0  0  0  0  0  0  0
   -5.0000    2.6448   -0.0337 C   0  0  0  0  0  0  0  0  0  0  0  0
   -5.8374    3.3385    0.1370 H   0  0  0  0  0  0  0  0  0  0  0  0
   -3.7022    3.1061   -0.2478 C   0  0  0  0  0  0  0  0  0  0  0  0
   -2.6677    2.1660   -0.4525 C   0  0  0  0  0  0  0  0  0  0  0  0
   -3.1241    4.5074   -0.2766 C   0  0  0  0  0  0  0  0  0  0  0  0
   -3.2942    5.0231    0.6921 H   0  0  0  0  0  0  0  0  0  0  0  0
   -3.6160    5.1348   -1.0491 H   0  0  0  0  0  0  0  0  0  0  0  0
   -1.6011    4.3101   -0.5618 C   0  0  0  0  0  0  0  0  0  0  0  0
   -1.3026    4.7701   -1.5273 H   0  0  0  0  0  0  0  0  0  0  0  0
   -0.9641    4.7814    0.2146 H   0  0  0  0  0  0  0  0  0  0  0  0
   -1.3952    2.8091   -0.5991 C   0  0  0  0  0  0  0  0  0  0  0  0
   -0.2622    2.0498   -0.7024 C   0  0  0  0  0  0  0  0  0  0  0  0
    0.7356    2.4910   -0.7997 H   0  0  0  0  0  0  0  0  0  0  0  0
   -0.3663    0.6056   -0.7155 C   0  0  0  0  0  0  0  0  0  0  0  0
    0.8422   -0.1893   -0.7212 C   0  0  2  0  0  3  0  0  0  0  0  0
    2.0457    0.4332   -0.7352 O   0  0  0  0  0  0  0  0  0  0  0  0
    3.1412    1.0650    0.4476 Si  0  0  0  0  0  0  0  0  0  0  0  0
    2.5342    2.7144    1.1279 C   0  0  0  0  0  0  0  0  0  0  0  0
    2.4461    3.4987    0.3499 H   0  0  0  0  0  0  0  0  0  0  0  0
    3.2652    3.0704    1.8837 H   0  0  0  0  0  0  0  0  0  0  0  0
    1.5587    2.6007    1.6396 H   0  0  0  0  0  0  0  0  0  0  0  0
    3.3820   -0.1233    1.8845 C   0  0  0  0  0  0  0  0  0  0  0  0
    3.5594   -1.1719    1.5797 H   0  0  0  0  0  0  0  0  0  0  0  0
    2.5049   -0.1112    2.5587 H   0  0  0  0  0  0  0  0  0  0  0  0
    4.2612    0.2145    2.4724 H   0  0  0  0  0  0  0  0  0  0  0  0
    4.7340    1.2934   -0.5918 C   0  0  0  0  0  0  0  0  0  0  0  0
    5.2946   -0.0820   -0.9984 C   0  0  0  0  0  0  0  0  0  0  0  0
    5.5450   -0.7062   -0.1157 H   0  0  0  0  0  0  0  0  0  0  0  0
    6.2280    0.0404   -1.5916 H   0  0  0  0  0  0  0  0  0  0  0  0
    4.5768   -0.6487   -1.6237 H   0  0  0  0  0  0  0  0  0  0  0  0
    5.7767    2.0423    0.2612 C   0  0  0  0  0  0  0  0  0  0  0  0
    6.0315    1.4919    1.1911 H   0  0  0  0  0  0  0  0  0  0  0  0
    5.4303    3.0555    0.5514 H   0  0  0  0  0  0  0  0  0  0  0  0
    6.7219    2.1694   -0.3117 H   0  0  0  0  0  0  0  0  0  0  0  0
    4.4074    2.1134   -1.8542 C   0  0  0  0  0  0  0  0  0  0  0  0
    4.0213    3.1237   -1.6044 H   0  0  0  0  0  0  0  0  0  0  0  0
    3.6460    1.6066   -2.4806 H   0  0  0  0  0  0  0  0  0  0  0  0
    5.3213    2.2545   -2.4729 H   0  0  0  0  0  0  0  0  0  0  0  0
    0.7856   -1.6149   -0.8244 C   0  0  2  0  0  3  0  0  0  0  0  0
    2.0762   -2.3935   -0.9239 C   0  0  0  0  0  0  0  0  0  0  0  0
    1.9476   -3.3965   -0.4735 H   0  0  0  0  0  0  0  0  0  0  0  0
    2.8485   -1.8849   -0.3196 H   0  0  0  0  0  0  0  0  0  0  0  0
    2.5586   -2.5046   -2.3769 C   0  0  0  0  0  0  0  0  0  0  0  0
    3.5247   -3.0446   -2.4347 H   0  0  0  0  0  0  0  0  0  0  0  0
    2.7010   -1.4985   -2.8193 H   0  0  0  0  0  0  0  0  0  0  0  0
    1.8275   -3.0457   -3.0114 H   0  0  0  0  0  0  0  0  0  0  0  0
   -0.4892   -2.2649   -0.9871 C   0  0  1  0  0  3  0  0  0  0  0  0
   -0.6189   -3.7599   -1.2198 C   0  0  0  0  0  0  0  0  0  0  0  0
    0.3277   -4.1434   -1.6464 H   0  0  0  0  0  0  0  0  0  0  0  0
   -1.3872   -3.9155   -2.0044 H   0  0  0  0  0  0  0  0  0  0  0  0
   -1.0030   -4.5828    0.0164 C   0  0  0  0  0  0  0  0  0  0  0  0
   -1.1216   -5.6525   -0.2516 H   0  0  0  0  0  0  0  0  0  0  0  0
   -1.9587   -4.2228    0.4424 H   0  0  0  0  0  0  0  0  0  0  0  0
   -0.2313   -4.5079    0.8064 H   0  0  0  0  0  0  0  0  0  0  0  0
   -1.6789   -1.4885   -0.8815 C   0  0  2  0  0  3  0  0  0  0  0  0
   -2.8776   -2.1558   -1.0092 O   0  0  0  0  0  0  0  0  0  0  0  0
   -3.4387   -2.0504   -2.3189 C   0  0  0  0  0  0  0  0  0  0  0  0
   -4.3758   -2.6378   -2.3108 H   0  0  0  0  0  0  0  0  0  0  0  0
   -2.7512   -2.4693   -3.0868 H   0  0  0  0  0  0  0  0  0  0  0  0
   -3.6714   -0.9958   -2.5828 H   0  0  0  0  0  0  0  0  0  0  0  0
   -1.6625   -0.0524   -0.7030 C   0  0  0  0  0  0  0  0  0  0  0  0
   -2.8605    0.7630   -0.4715 C   0  0  0  0  0  0  0  0  0  0  0  0
  1  2  1  0  0  0  0
  1  3  1  0  0  0  0
  3  4  1  0  0  0  0
  5  3  2  0  0  0  0
  5  6  1  0  0  0  0
  7  5  1  0  0  0  0
  8  7  2  0  0  0  0
  9  7  1  0  0  0  0
  9 10  1  0  0  0  0
 11  9  1  0  0  0  0
 12  9  1  0  0  0  0
 12 14  1  0  0  0  0
 13 12  1  0  0  0  0
 15 12  1  0  0  0  0
 15  8  1  0  0  0  0
 16 15  2  0  0  0  0
 17 16  1  0  0  0  0
 18 65  2  0  0  0  0
 18 16  1  0  0  0  0
 19 20  1  6  0  0  0
 19 18  1  0  0  0  0
 20 21  1  0  0  0  0
 21 22  1  0  0  0  0
 21 26  1  0  0  0  0
 22 25  1  0  0  0  0
 22 24  1  0  0  0  0
 23 22  1  0  0  0  0
 26 29  1  0  0  0  0
 26 28  1  0  0  0  0
 27 26  1  0  0  0  0
 30 35  1  0  0  0  0
 30 21  1  0  0  0  0
 31 30  1  0  0  0  0
 31 32  1  0  0  0  0
 33 31  1  0  0  0  0
 34 31  1  0  0  0  0
 35 37  1  0  0  0  0
 35 36  1  0  0  0  0
 38 35  1  0  0  0  0
 39 40  1  0  0  0  0
 39 30  1  0  0  0  0
 41 39  1  0  0  0  0
 42 39  1  0  0  0  0
 43 44  1  6  0  0  0
 43 19  1  0  0  0  0
 44 45  1  0  0  0  0
 44 46  1  0  0  0  0
 47 44  1  0  0  0  0
 48 47  1  0  0  0  0
 49 47  1  0  0  0  0
 50 47  1  0  0  0  0
 51 52  1  1  0  0  0
 51 59  1  0  0  0  0
 51 43  1  0  0  0  0
 52 55  1  0  0  0  0
 53 52  1  0  0  0  0
 54 52  1  0  0  0  0
 55 57  1  0  0  0  0
 55 58  1  0  0  0  0
 56 55  1  0  0  0  0
 59 60  1  6  0  0  0
 59 65  1  0  0  0  0
 61 62  1  0  0  0  0
 61 60  1  0  0  0  0
 63 61  1  0  0  0  0
 64 61  1  0  0  0  0
 65 66  1  0  0  0  0
 66  8  1  0  0  0  0
 66  1  2  0  0  0  0
M  END
