2,5
 OpenBabel05122313053D

 21 21  0  0  1  0  0  0  0  0999 V2000
   -2.8420   -1.4968   -0.2001 S   0  0  0  0  0  0  0  0  0  0  0  0
   -2.3012   -0.4667    1.2008 C   0  0  2  0  0  3  0  0  0  0  0  0
   -0.9982   -0.8506    1.6676 C   0  0  0  0  0  0  0  0  0  0  0  0
   -0.3139   -1.7298    0.7338 C   0  0  0  0  0  0  0  0  0  0  0  0
   -1.1035   -1.9850   -0.4344 C   0  0  1  0  0  3  0  0  0  0  0  0
   -3.3292    0.3458    1.9201 C   0  0  0  0  0  0  0  0  0  0  0  0
   -3.9455   -0.2846    2.5960 H   0  0  0  0  0  0  0  0  0  0  0  0
   -3.9872    0.8688    1.2014 H   0  0  0  0  0  0  0  0  0  0  0  0
   -2.8312    1.1306    2.5205 H   0  0  0  0  0  0  0  0  0  0  0  0
   -0.4553   -0.4831    3.0171 C   0  0  0  0  0  0  0  0  0  0  0  0
   -0.7043   -1.2762    3.7550 H   0  0  0  0  0  0  0  0  0  0  0  0
   -0.8876    0.4643    3.3889 H   0  0  0  0  0  0  0  0  0  0  0  0
    0.6471   -0.3837    3.0013 H   0  0  0  0  0  0  0  0  0  0  0  0
    1.0116   -2.3778    0.9975 C   0  0  0  0  0  0  0  0  0  0  0  0
    0.8629   -3.3017    1.5977 H   0  0  0  0  0  0  0  0  0  0  0  0
    1.6987   -1.7154    1.5557 H   0  0  0  0  0  0  0  0  0  0  0  0
    1.5215   -2.6616    0.0596 H   0  0  0  0  0  0  0  0  0  0  0  0
   -0.7721   -2.8854   -1.5801 C   0  0  0  0  0  0  0  0  0  0  0  0
   -1.0675   -3.9347   -1.3667 H   0  0  0  0  0  0  0  0  0  0  0  0
    0.3168   -2.8543   -1.7732 H   0  0  0  0  0  0  0  0  0  0  0  0
   -1.2687   -2.5404   -2.5058 H   0  0  0  0  0  0  0  0  0  0  0  0
  1  2  1  0  0  0  0
  2  3  1  0  0  0  0
  2  6  1  1  0  0  0
  3 10  1  0  0  0  0
  4 14  1  0  0  0  0
  4  3  2  0  0  0  0
  5 18  1  1  0  0  0
  5  1  1  0  0  0  0
  5  4  1  0  0  0  0
  6  9  1  0  0  0  0
  6  7  1  0  0  0  0
  8  6  1  0  0  0  0
 10 12  1  0  0  0  0
 10 11  1  0  0  0  0
 13 10  1  0  0  0  0
 14 16  1  0  0  0  0
 14 15  1  0  0  0  0
 17 14  1  0  0  0  0
 18 19  1  0  0  0  0
 20 18  1  0  0  0  0
 21 18  1  0  0  0  0
M  END
