4,6
 OpenBabel05122313053D

 36 37  0  0  0  0  0  0  0  0999 V2000
   -3.5640   -0.9367   -2.2698 O   0  0  0  0  0  0  0  0  0  0  0  0
   -3.7061   -0.6080   -0.0231 O   0  0  0  0  0  0  0  0  0  0  0  0
    0.7132    2.4199   -0.3140 N   0  0  0  0  0  0  0  0  0  0  0  0
   -1.8546    0.3027   -1.1231 C   0  0  0  0  0  3  0  0  0  0  0  0
   -1.5803    1.5769   -0.6803 C   0  0  0  0  0  0  0  0  0  0  0  0
   -0.1125    1.5450   -0.7451 C   0  0  0  0  0  3  0  0  0  0  0  0
   -3.1123   -0.4468   -1.2435 C   0  0  0  0  0  0  0  0  0  0  0  0
   -4.8990   -1.3981   -0.0138 C   0  0  0  0  0  0  0  0  0  0  0  0
   -2.4732    2.6482   -0.2140 C   0  0  0  0  0  0  0  0  0  0  0  0
   -3.8401    2.6673   -0.5830 C   0  0  0  0  0  0  0  0  0  0  0  0
   -4.7015    3.6540   -0.0895 C   0  0  0  0  0  0  0  0  0  0  0  0
   -4.2158    4.6503    0.7751 C   0  0  0  0  0  0  0  0  0  0  0  0
   -2.8572    4.6543    1.1313 C   0  0  0  0  0  0  0  0  0  0  0  0
   -1.9904    3.6683    0.6412 C   0  0  0  0  0  0  0  0  0  0  0  0
    2.1000    2.3965   -0.2957 C   0  0  0  0  0  0  0  0  0  0  0  0
    2.8953    2.3308   -1.4634 C   0  0  0  0  0  0  0  0  0  0  0  0
    4.2946    2.2963   -1.3739 C   0  0  0  0  0  0  0  0  0  0  0  0
    4.9581    2.3322   -0.1321 C   0  0  0  0  0  0  0  0  0  0  0  0
    4.1588    2.4524    1.0271 C   0  0  0  0  0  0  0  0  0  0  0  0
    2.7649    2.5041    0.9526 C   0  0  0  0  0  0  0  0  0  0  0  0
    6.4614    2.2614   -0.0331 C   0  0  0  0  0  0  0  0  0  0  0  0
   -5.2237   -1.4473    1.0407 H   0  0  0  0  0  0  0  0  0  0  0  0
   -4.6964   -2.4171   -0.4011 H   0  0  0  0  0  0  0  0  0  0  0  0
   -5.6860   -0.9324   -0.6410 H   0  0  0  0  0  0  0  0  0  0  0  0
   -4.2228    1.9124   -1.2862 H   0  0  0  0  0  0  0  0  0  0  0  0
   -5.7606    3.6541   -0.3906 H   0  0  0  0  0  0  0  0  0  0  0  0
   -4.8933    5.4279    1.1597 H   0  0  0  0  0  0  0  0  0  0  0  0
   -2.4661    5.4374    1.7994 H   0  0  0  0  0  0  0  0  0  0  0  0
   -0.9244    3.6662    0.9080 H   0  0  0  0  0  0  0  0  0  0  0  0
    2.4048    2.3204   -2.4442 H   0  0  0  0  0  0  0  0  0  0  0  0
    4.8890    2.2376   -2.3002 H   0  0  0  0  0  0  0  0  0  0  0  0
    4.6454    2.5087    2.0146 H   0  0  0  0  0  0  0  0  0  0  0  0
    2.1536    2.5993    1.8603 H   0  0  0  0  0  0  0  0  0  0  0  0
    6.7894    1.3725    0.5477 H   0  0  0  0  0  0  0  0  0  0  0  0
    6.8796    3.1496    0.4855 H   0  0  0  0  0  0  0  0  0  0  0  0
    6.9338    2.2022   -1.0330 H   0  0  0  0  0  0  0  0  0  0  0  0
  1  7  2  0  0  0  0
  2  8  1  0  0  0  0
  3 15  1  0  0  0  0
  4  5  2  0  0  0  0
  5  9  1  0  0  0  0
  6  5  1  0  0  0  0
  6  3  2  0  0  0  0
  7  4  1  0  0  0  0
  7  2  1  0  0  0  0
  8 22  1  0  0  0  0
  9 14  1  0  0  0  0
 10  9  2  0  0  0  0
 10 11  1  0  0  0  0
 11 12  2  0  0  0  0
 12 13  1  0  0  0  0
 12 27  1  0  0  0  0
 13 28  1  0  0  0  0
 14 29  1  0  0  0  0
 14 13  2  0  0  0  0
 15 20  1  0  0  0  0
 16 17  1  0  0  0  0
 16 15  2  0  0  0  0
 17 18  2  0  0  0  0
 18 21  1  0  0  0  0
 18 19  1  0  0  0  0
 19 32  1  0  0  0  0
 20 19  2  0  0  0  0
 20 33  1  0  0  0  0
 21 35  1  0  0  0  0
 21 34  1  0  0  0  0
 23  8  1  0  0  0  0
 24  8  1  0  0  0  0
 25 10  1  0  0  0  0
 26 11  1  0  0  0  0
 30 16  1  0  0  0  0
 31 17  1  0  0  0  0
 36 21  1  0  0  0  0
M  END
