5,7
 OpenBabel05122313053D

 32 34  0  0  1  0  0  0  0  0999 V2000
    2.3405    2.8050    0.0003 C   0  0  0  0  0  0  0  0  0  0  0  0
    0.7344    2.8316   -0.0003 C   0  0  0  0  0  0  0  0  0  0  0  0
    0.1889    1.4266   -0.0002 C   0  0  2  0  0  3  0  0  0  0  0  0
    0.0370    0.7180    1.2224 C   0  0  0  0  0  3  0  0  0  0  0  0
   -0.0087   -0.7031    1.2137 C   0  0  0  0  0  3  0  0  0  0  0  0
    0.1439   -1.4328   -0.0004 C   0  0  1  0  0  3  0  0  0  0  0  0
   -0.0092   -0.7029   -1.2143 C   0  0  0  0  0  3  0  0  0  0  0  0
    0.0365    0.7181   -1.2229 C   0  0  0  0  0  3  0  0  0  0  0  0
    0.6843   -2.8389   -0.0006 C   0  0  0  0  0  0  0  0  0  0  0  0
    2.2902   -2.8408    0.0001 C   0  0  0  0  0  0  0  0  0  0  0  0
    2.8852   -1.4473   -0.0000 C   0  0  0  0  0  0  0  0  0  0  0  0
    3.0420   -0.7257    1.2018 C   0  0  0  0  0  0  0  0  0  0  0  0
    3.0556    0.6769    1.2018 C   0  0  0  0  0  0  0  0  0  0  0  0
    2.9141    1.4019    0.0001 C   0  0  0  0  0  0  0  0  0  0  0  0
    3.0552    0.6770   -1.2018 C   0  0  0  0  0  0  0  0  0  0  0  0
    3.0415   -0.7256   -1.2019 C   0  0  0  0  0  0  0  0  0  0  0  0
    2.6940    3.3616    0.8909 H   0  0  0  0  0  0  0  0  0  0  0  0
    2.6946    3.3623   -0.8897 H   0  0  0  0  0  0  0  0  0  0  0  0
    0.3788    3.3842   -0.8914 H   0  0  0  0  0  0  0  0  0  0  0  0
    0.3783    3.3846    0.8904 H   0  0  0  0  0  0  0  0  0  0  0  0
    0.3230   -3.3890   -0.8915 H   0  0  0  0  0  0  0  0  0  0  0  0
    0.3223   -3.3897    0.8895 H   0  0  0  0  0  0  0  0  0  0  0  0
    2.6365   -3.4034   -0.8897 H   0  0  0  0  0  0  0  0  0  0  0  0
    2.6358   -3.4027    0.8906 H   0  0  0  0  0  0  0  0  0  0  0  0
    0.0356    1.2643    2.1751 H   0  0  0  0  0  0  0  0  0  0  0  0
   -0.0378   -1.2490    2.1681 H   0  0  0  0  0  0  0  0  0  0  0  0
   -0.0388   -1.2486   -2.1688 H   0  0  0  0  0  0  0  0  0  0  0  0
    0.0344    1.2646   -2.1755 H   0  0  0  0  0  0  0  0  0  0  0  0
    3.0166   -1.2634    2.1634 H   0  0  0  0  0  0  0  0  0  0  0  0
    3.0407    1.2149    2.1635 H   0  0  0  0  0  0  0  0  0  0  0  0
    3.0399    1.2151   -2.1634 H   0  0  0  0  0  0  0  0  0  0  0  0
    3.0159   -1.2632   -2.1635 H   0  0  0  0  0  0  0  0  0  0  0  0
  1 17  1  0  0  0  0
  2  3  1  0  0  0  0
  2  1  1  0  0  0  0
  2 20  1  0  0  0  0
  3  8  1  6  0  0  0
  3  4  1  0  0  0  0
  4 25  1  0  0  0  0
  5  4  1  0  0  0  0
  5 26  1  0  0  0  0
  6  7  1  6  0  0  0
  6  5  1  0  0  0  0
  8  7  1  0  0  0  0
  9  6  1  0  0  0  0
  9 10  1  0  0  0  0
  9 22  1  0  0  0  0
 10 24  1  0  0  0  0
 11 10  1  0  0  0  0
 11 12  1  0  0  0  0
 12 13  2  0  0  0  0
 12 29  1  0  0  0  0
 13 30  1  0  0  0  0
 14  1  1  0  0  0  0
 14 13  1  0  0  0  0
 15 14  2  0  0  0  0
 16 15  1  0  0  0  0
 16 11  2  0  0  0  0
 18  1  1  0  0  0  0
 19  2  1  0  0  0  0
 21  9  1  0  0  0  0
 23 10  1  0  0  0  0
 27  7  1  0  0  0  0
 28  8  1  0  0  0  0
 31 15  1  0  0  0  0
 32 16  1  0  0  0  0
M  END
