2,12
 OpenBabel05122313053D

 14 14  0  0  0  0  0  0  0  0999 V2000
   -0.3871    2.7411   -1.0984 C   0  0  0  0  0  0  0  0  0  0  0  0
   -0.1583    2.1198    0.1554 C   0  0  0  0  0  3  0  0  0  0  0  0
   -0.1496    2.9854    1.2692 C   0  0  0  0  0  0  0  0  0  0  0  0
   -0.0054    2.5711    2.2826 H   0  0  0  0  0  0  0  0  0  0  0  0
   -0.3474    4.3769    1.1463 C   0  0  0  0  0  0  0  0  0  0  0  0
   -0.3468    5.0151    2.0439 H   0  0  0  0  0  0  0  0  0  0  0  0
   -0.5483    4.9452   -0.1211 C   0  0  0  0  0  0  0  0  0  0  0  0
   -0.6958    6.0310   -0.2279 H   0  0  0  0  0  0  0  0  0  0  0  0
   -0.5694    4.1230   -1.2612 C   0  0  0  0  0  0  0  0  0  0  0  0
   -0.7398    4.5366   -2.2667 H   0  0  0  0  0  0  0  0  0  0  0  0
   -0.5207    1.9309   -2.2040 O   0  0  0  0  0  0  0  0  0  0  0  0
   -0.0693    0.5895   -2.0217 C   0  0  0  0  0  3  0  0  0  0  0  0
    0.9477    0.4997   -2.4451 H   0  0  0  0  0  0  0  0  0  0  0  0
   -0.7521   -0.0641   -2.6042 H   0  0  0  0  0  0  0  0  0  0  0  0
  1  2  1  0  0  0  0
  2  3  2  0  0  0  0
  3  4  1  0  0  0  0
  5  3  1  0  0  0  0
  5  6  1  0  0  0  0
  7  5  2  0  0  0  0
  8  7  1  0  0  0  0
  9  1  2  0  0  0  0
  9  7  1  0  0  0  0
 10  9  1  0  0  0  0
 11 12  1  0  0  0  0
 11  1  1  0  0  0  0
 13 12  1  0  0  0  0
 14 12  1  0  0  0  0
M  END
