5,7
 OpenBabel05122313053D

 10  9  0  0  0  0  0  0  0  0999 V2000
   -0.5887   -2.9651   -0.8791 F   0  0  0  0  0  0  0  0  0  0  0  0
   -0.3575   -2.5743    1.2648 F   0  0  0  0  0  0  0  0  0  0  0  0
   -2.2101    2.1852   -0.8359 F   0  0  0  0  0  0  0  0  0  0  0  0
   -3.9143    0.8672   -0.4735 F   0  0  0  0  0  0  0  0  0  0  0  0
   -1.7487    0.0010   -0.0670 C   0  0  0  0  0  0  0  0  0  0  0  0
   -2.7936    1.6870    1.2115 F   0  0  0  0  0  0  0  0  0  0  0  0
   -0.6978   -1.9789    0.0608 C   0  0  0  0  0  0  0  0  0  0  0  0
   -2.6654    1.1723   -0.0527 C   0  0  0  0  0  0  0  0  0  0  0  0
   -3.1966   -1.9278    0.3409 F   0  0  0  0  0  0  0  0  0  0  0  0
   -2.0315   -1.3022    0.1232 C   0  0  0  0  0  0  0  0  0  0  0  0
  1  7  1  0  0  0  0
  3  8  1  0  0  0  0
  4  8  1  0  0  0  0
  5  8  1  0  0  0  0
  5 10  2  0  0  0  0
  7 10  1  0  0  0  0
  7  2  1  0  0  0  0
  8  6  1  0  0  0  0
 10  9  1  0  0  0  0
M  END
