5,13
q = 0.0, confidence = 0.986

 75 78  0  0  0  0  0  0  0  0999 V2000
   -1.1824   -0.7081    2.5694 N   0  0  0  0  0  0  0  0  0  0  0  0
   -2.5888    0.0269    1.0828 N   0  0  0  0  0  0  0  0  0  0  0  0
    1.1827   -0.7069    2.5695 N   0  0  0  0  0  0  0  0  0  0  0  0
    2.5885    0.0292    1.0829 N   0  0  0  0  0  0  0  0  0  0  0  0
   -1.2912   -0.4511    1.2115 C   0  0  0  0  0  2  0  0  0  0  0  0
   -2.3628   -0.4313    3.2504 C   0  0  0  0  0  0  0  0  0  0  0  0
   -2.4742   -0.5851    4.3280 H   0  0  0  0  0  0  0  0  0  0  0  0
   -3.2480    0.0248    2.3137 C   0  0  0  0  0  0  0  0  0  0  0  0
   -4.2870    0.3514    2.4054 H   0  0  0  0  0  0  0  0  0  0  0  0
    0.0005   -1.3448    3.1083 C   0  0  0  0  0  0  0  0  0  0  0  0
    0.0004   -1.2483    4.2105 H   0  0  0  0  0  0  0  0  0  0  0  0
    0.0010   -2.4190    2.8181 H   0  0  0  0  0  0  0  0  0  0  0  0
    1.2914   -0.4500    1.2116 C   0  0  0  0  0  2  0  0  0  0  0  0
    3.2477    0.0279    2.3139 C   0  0  0  0  0  0  0  0  0  0  0  0
    4.2864    0.3554    2.4056 H   0  0  0  0  0  0  0  0  0  0  0  0
    2.3628   -0.4290    3.2506 C   0  0  0  0  0  0  0  0  0  0  0  0
    2.4743   -0.5825    4.3281 H   0  0  0  0  0  0  0  0  0  0  0  0
   -3.2030    0.4782   -0.1371 C   0  0  0  0  0  0  0  0  0  0  0  0
   -3.6748   -0.4856   -1.0602 C   0  0  0  0  0  0  0  0  0  0  0  0
   -4.3016   -0.0117   -2.2278 C   0  0  0  0  0  0  0  0  0  0  0  0
   -4.6750   -0.7338   -2.9684 H   0  0  0  0  0  0  0  0  0  0  0  0
   -4.4542    1.3600   -2.4601 C   0  0  0  0  0  0  0  0  0  0  0  0
   -4.9480    1.7088   -3.3800 H   0  0  0  0  0  0  0  0  0  0  0  0
   -3.9683    2.2904   -1.5338 C   0  0  0  0  0  0  0  0  0  0  0  0
   -4.0741    3.3662   -1.7372 H   0  0  0  0  0  0  0  0  0  0  0  0
   -3.3216    1.8716   -0.3572 C   0  0  0  0  0  0  0  0  0  0  0  0
   -3.5555   -1.9788   -0.7867 C   0  0  0  0  0  0  0  0  0  0  0  0
   -2.7255   -2.1281   -0.0674 H   0  0  0  0  0  0  0  0  0  0  0  0
   -4.8428   -2.5046   -0.1255 C   0  0  0  0  0  0  0  0  0  0  0  0
   -5.0657   -1.9637    0.8166 H   0  0  0  0  0  0  0  0  0  0  0  0
   -4.7461   -3.5833    0.1153 H   0  0  0  0  0  0  0  0  0  0  0  0
   -5.7158   -2.3798   -0.8000 H   0  0  0  0  0  0  0  0  0  0  0  0
   -3.1893   -2.7898   -2.0363 C   0  0  0  0  0  0  0  0  0  0  0  0
   -4.0105   -2.8075   -2.7829 H   0  0  0  0  0  0  0  0  0  0  0  0
   -2.9701   -3.8384   -1.7533 H   0  0  0  0  0  0  0  0  0  0  0  0
   -2.2822   -2.3807   -2.5234 H   0  0  0  0  0  0  0  0  0  0  0  0
   -2.7678    2.8932    0.6288 C   0  0  0  0  0  0  0  0  0  0  0  0
   -2.0584    2.3558    1.2912 H   0  0  0  0  0  0  0  0  0  0  0  0
   -1.9758    4.0083   -0.0709 C   0  0  0  0  0  0  0  0  0  0  0  0
   -1.2031    3.5781   -0.7366 H   0  0  0  0  0  0  0  0  0  0  0  0
   -1.4723    4.6509    0.6801 H   0  0  0  0  0  0  0  0  0  0  0  0
   -2.6340    4.6659   -0.6755 H   0  0  0  0  0  0  0  0  0  0  0  0
   -3.8885    3.4825    1.5049 C   0  0  0  0  0  0  0  0  0  0  0  0
   -4.6332    4.0193    0.8810 H   0  0  0  0  0  0  0  0  0  0  0  0
   -3.4757    4.2061    2.2378 H   0  0  0  0  0  0  0  0  0  0  0  0
   -4.4309    2.6987    2.0698 H   0  0  0  0  0  0  0  0  0  0  0  0
    3.2026    0.4802   -0.1372 C   0  0  0  0  0  0  0  0  0  0  0  0
    3.3195    1.8736   -0.3585 C   0  0  0  0  0  0  0  0  0  0  0  0
    3.9660    2.2921   -1.5353 C   0  0  0  0  0  0  0  0  0  0  0  0
    4.0705    3.3679   -1.7396 H   0  0  0  0  0  0  0  0  0  0  0  0
    4.4533    1.3616   -2.4606 C   0  0  0  0  0  0  0  0  0  0  0  0
    4.9469    1.7101   -3.3807 H   0  0  0  0  0  0  0  0  0  0  0  0
    4.3023   -0.0102   -2.2272 C   0  0  0  0  0  0  0  0  0  0  0  0
    4.6767   -0.7324   -2.9670 H   0  0  0  0  0  0  0  0  0  0  0  0
    3.6758   -0.4838   -1.0594 C   0  0  0  0  0  0  0  0  0  0  0  0
    2.7642    2.8953    0.6266 C   0  0  0  0  0  0  0  0  0  0  0  0
    2.0541    2.3579    1.2882 H   0  0  0  0  0  0  0  0  0  0  0  0
    1.9729    4.0102   -0.0743 C   0  0  0  0  0  0  0  0  0  0  0  0
    2.6319    4.6682   -0.6777 H   0  0  0  0  0  0  0  0  0  0  0  0
    1.4679    4.6524    0.6759 H   0  0  0  0  0  0  0  0  0  0  0  0
    1.2015    3.5798   -0.7413 H   0  0  0  0  0  0  0  0  0  0  0  0
    3.8837    3.4851    1.5039 C   0  0  0  0  0  0  0  0  0  0  0  0
    4.4255    2.7017    2.0698 H   0  0  0  0  0  0  0  0  0  0  0  0
    3.4698    4.2089    2.2360 H   0  0  0  0  0  0  0  0  0  0  0  0
    4.6291    4.0219    0.8807 H   0  0  0  0  0  0  0  0  0  0  0  0
    3.5583   -1.9768   -0.7845 C   0  0  0  0  0  0  0  0  0  0  0  0
    2.7280   -2.1266   -0.0656 H   0  0  0  0  0  0  0  0  0  0  0  0
    4.8458   -2.5005   -0.1222 C   0  0  0  0  0  0  0  0  0  0  0  0
    4.7503   -3.5790    0.1195 H   0  0  0  0  0  0  0  0  0  0  0  0
    5.0677   -1.9585    0.8195 H   0  0  0  0  0  0  0  0  0  0  0  0
    5.7190   -2.3752   -0.7964 H   0  0  0  0  0  0  0  0  0  0  0  0
    3.1937   -2.7895   -2.0335 C   0  0  0  0  0  0  0  0  0  0  0  0
    2.2864   -2.3822   -2.5216 H   0  0  0  0  0  0  0  0  0  0  0  0
    2.9758   -3.8381   -1.7497 H   0  0  0  0  0  0  0  0  0  0  0  0
    4.0153   -2.8069   -2.7797 H   0  0  0  0  0  0  0  0  0  0  0  0
  1 10  1  0  0  0  0
  1  6  1  0  0  0  0
  2  5  1  0  0  0  0
  2  8  1  0  0  0  0
  3 10  1  0  0  0  0
  3 16  1  0  0  0  0
  4 13  1  0  0  0  0
  4 14  1  0  0  0  0
  5  1  1  0  0  0  0
  6  7  1  0  0  0  0
  8  9  1  0  0  0  0
  8  6  2  0  0  0  0
 10 11  1  0  0  0  0
 12 10  1  0  0  0  0
 13  3  1  0  0  0  0
 14 15  1  0  0  0  0
 14 16  2  0  0  0  0
 16 17  1  0  0  0  0
 18  2  1  0  0  0  0
 19 27  1  0  0  0  0
 19 18  2  0  0  0  0
 20 19  1  0  0  0  0
 21 20  1  0  0  0  0
 22 20  2  0  0  0  0
 22 24  1  0  0  0  0
 23 22  1  0  0  0  0
 24 26  2  0  0  0  0
 25 24  1  0  0  0  0
 26 18  1  0  0  0  0
 26 37  1  0  0  0  0
 27 29  1  0  0  0  0
 27 28  1  0  0  0  0
 29 31  1  0  0  0  0
 29 30  1  0  0  0  0
 32 29  1  0  0  0  0
 33 35  1  0  0  0  0
 33 27  1  0  0  0  0
 34 33  1  0  0  0  0
 36 33  1  0  0  0  0
 37 38  1  0  0  0  0
 37 43  1  0  0  0  0
 39 37  1  0  0  0  0
 39 41  1  0  0  0  0
 40 39  1  0  0  0  0
 42 39  1  0  0  0  0
 43 46  1  0  0  0  0
 43 45  1  0  0  0  0
 44 43  1  0  0  0  0
 47  4  1  0  0  0  0
 48 47  1  0  0  0  0
 48 56  1  0  0  0  0
 49 48  2  0  0  0  0
 50 49  1  0  0  0  0
 51 53  2  0  0  0  0
 51 49  1  0  0  0  0
 52 51  1  0  0  0  0
 53 55  1  0  0  0  0
 54 53  1  0  0  0  0
 55 66  1  0  0  0  0
 55 47  2  0  0  0  0
 56 57  1  0  0  0  0
 56 62  1  0  0  0  0
 58 56  1  0  0  0  0
 58 60  1  0  0  0  0
 59 58  1  0  0  0  0
 61 58  1  0  0  0  0
 62 63  1  0  0  0  0
 62 64  1  0  0  0  0
 65 62  1  0  0  0  0
 66 68  1  0  0  0  0
 66 67  1  0  0  0  0
 68 69  1  0  0  0  0
 68 70  1  0  0  0  0
 71 68  1  0  0  0  0
 72 74  1  0  0  0  0
 72 66  1  0  0  0  0
 73 72  1  0  0  0  0
 75 72  1  0  0  0  0
M  END
