5,20
 OpenBabel05122313053D

 37 40  0  0  0  0  0  0  0  0999 V2000
    2.5346    0.9347    0.9684 N   0  0  0  0  0  0  0  0  0  0  0  0
    1.1872    1.8407   -0.5006 N   0  0  0  0  0  0  0  0  0  0  0  0
   -2.5348    0.9336    0.9688 N   0  0  0  0  0  0  0  0  0  0  0  0
   -1.1879    1.8404   -0.5002 N   0  0  0  0  0  0  0  0  0  0  0  0
    1.3498    0.7559    0.3227 C   0  0  0  0  0  2  0  0  0  0  0  0
    3.1572    2.1032    0.5236 C   0  0  0  0  0  0  0  0  0  0  0  0
    4.3832    2.6919    0.8585 C   0  0  0  0  0  0  0  0  0  0  0  0
    5.0640    2.2253    1.5837 H   0  0  0  0  0  0  0  0  0  0  0  0
    4.7077    3.8985    0.2193 C   0  0  0  0  0  0  0  0  0  0  0  0
    5.6637    4.3895    0.4523 H   0  0  0  0  0  0  0  0  0  0  0  0
    3.8376    4.4917   -0.7209 C   0  0  0  0  0  0  0  0  0  0  0  0
    4.1288    5.4357   -1.2040 H   0  0  0  0  0  0  0  0  0  0  0  0
    2.6104    3.9005   -1.0610 C   0  0  0  0  0  0  0  0  0  0  0  0
    1.9445    4.3646   -1.8024 H   0  0  0  0  0  0  0  0  0  0  0  0
    2.2850    2.6977   -0.4220 C   0  0  0  0  0  0  0  0  0  0  0  0
    3.1210    0.0126    1.9275 C   0  0  0  0  0  0  0  0  0  0  0  0
    2.3900   -0.7868    2.1374 H   0  0  0  0  0  0  0  0  0  0  0  0
    3.3807    0.5530    2.8590 H   0  0  0  0  0  0  0  0  0  0  0  0
    4.0272   -0.4563    1.4974 H   0  0  0  0  0  0  0  0  0  0  0  0
   -1.3499    0.7555    0.3231 C   0  0  0  0  0  2  0  0  0  0  0  0
   -3.1580    2.1018    0.5241 C   0  0  0  0  0  0  0  0  0  0  0  0
   -4.3842    2.6899    0.8592 C   0  0  0  0  0  0  0  0  0  0  0  0
   -5.0647    2.2230    1.5844 H   0  0  0  0  0  0  0  0  0  0  0  0
   -4.7094    3.8963    0.2200 C   0  0  0  0  0  0  0  0  0  0  0  0
   -5.6656    4.3868    0.4530 H   0  0  0  0  0  0  0  0  0  0  0  0
   -3.8397    4.4899   -0.7203 C   0  0  0  0  0  0  0  0  0  0  0  0
   -4.1314    5.4338   -1.2034 H   0  0  0  0  0  0  0  0  0  0  0  0
   -2.6122    3.8993   -1.0605 C   0  0  0  0  0  0  0  0  0  0  0  0
   -1.9466    4.3639   -1.8020 H   0  0  0  0  0  0  0  0  0  0  0  0
   -2.2862    2.6968   -0.4216 C   0  0  0  0  0  0  0  0  0  0  0  0
   -3.1205    0.0113    1.9281 C   0  0  0  0  0  0  0  0  0  0  0  0
   -2.3891   -0.7878    2.1379 H   0  0  0  0  0  0  0  0  0  0  0  0
   -4.0266   -0.4580    1.4983 H   0  0  0  0  0  0  0  0  0  0  0  0
   -3.3803    0.5517    2.8596 H   0  0  0  0  0  0  0  0  0  0  0  0
   -0.0005    1.9754   -1.3260 C   0  0  0  0  0  0  0  0  0  0  0  0
   -0.0005    1.1856   -2.1054 H   0  0  0  0  0  0  0  0  0  0  0  0
   -0.0007    2.9703   -1.8054 H   0  0  0  0  0  0  0  0  0  0  0  0
  1 16  1  0  0  0  0
  2 15  1  0  0  0  0
  2  5  1  0  0  0  0
  3 31  1  0  0  0  0
  4 30  1  0  0  0  0
  4 20  1  0  0  0  0
  5  1  1  0  0  0  0
  6  7  1  0  0  0  0
  6  1  1  0  0  0  0
  7  8  1  0  0  0  0
  9 10  1  0  0  0  0
  9  7  2  0  0  0  0
 11  9  1  0  0  0  0
 12 11  1  0  0  0  0
 13 11  2  0  0  0  0
 13 15  1  0  0  0  0
 14 13  1  0  0  0  0
 15  6  2  0  0  0  0
 16 17  1  0  0  0  0
 16 18  1  0  0  0  0
 19 16  1  0  0  0  0
 20  3  1  0  0  0  0
 21 22  1  0  0  0  0
 21  3  1  0  0  0  0
 22 23  1  0  0  0  0
 24 25  1  0  0  0  0
 24 22  2  0  0  0  0
 26 24  1  0  0  0  0
 27 26  1  0  0  0  0
 28 26  2  0  0  0  0
 28 30  1  0  0  0  0
 29 28  1  0  0  0  0
 30 21  2  0  0  0  0
 31 32  1  0  0  0  0
 31 34  1  0  0  0  0
 33 31  1  0  0  0  0
 35  2  1  0  0  0  0
 35  4  1  0  0  0  0
 36 35  1  0  0  0  0
 37 35  1  0  0  0  0
M  END
