1,25
 OpenBabel05122313053D

 55 61  0  0  1  0  0  0  0  0999 V2000
    1.1279    0.4310    0.1866 C   0  0  2  0  0  3  0  0  0  0  0  0
    0.8732    1.4286   -0.8408 C   0  0  0  0  0  0  0  0  0  0  0  0
    1.2025    1.4592   -2.2355 C   0  0  0  0  0  0  0  0  0  0  0  0
    0.7561    2.5619   -2.9631 C   0  0  0  0  0  0  0  0  0  0  0  0
   -0.0052    3.6132   -2.3848 C   0  0  0  0  0  0  0  0  0  0  0  0
   -0.3294    3.6029   -1.0351 C   0  0  0  0  0  0  0  0  0  0  0  0
    0.1140    2.5135   -0.2474 C   0  0  0  0  0  0  0  0  0  0  0  0
   -0.0096    2.2468    1.1738 C   0  0  0  0  0  0  0  0  0  0  0  0
   -0.5863    2.9854    2.2346 C   0  0  0  0  0  0  0  0  0  0  0  0
   -0.5241    2.4681    3.5237 C   0  0  0  0  0  0  0  0  0  0  0  0
    0.1062    1.2194    3.7852 C   0  0  0  0  0  0  0  0  0  0  0  0
    0.6819    0.4714    2.7642 C   0  0  0  0  0  0  0  0  0  0  0  0
    0.6440    0.9851    1.4378 C   0  0  0  0  0  0  0  0  0  0  0  0
    1.9943   -0.7737    0.1055 C   0  0  0  0  0  0  0  0  0  0  0  0
    3.4232   -0.6875    0.1801 C   0  0  0  0  0  0  0  0  0  0  0  0
    4.1040    0.5581    0.3123 C   0  0  0  0  0  0  0  0  0  0  0  0
    5.4896    0.6048    0.3675 C   0  0  0  0  0  0  0  0  0  0  0  0
    6.2531   -0.5913    0.2943 C   0  0  0  0  0  0  0  0  0  0  0  0
    5.6185   -1.8183    0.1695 C   0  0  0  0  0  0  0  0  0  0  0  0
    4.1964   -1.9042    0.1100 C   0  0  0  0  0  0  0  0  0  0  0  0
    3.5180   -3.1532   -0.0158 C   0  0  0  0  0  0  0  0  0  0  0  0
    2.1348   -3.2125   -0.0701 C   0  0  0  0  0  0  0  0  0  0  0  0
    1.3687   -2.0139   -0.0103 C   0  0  0  0  0  0  0  0  0  0  0  0
   -0.1166   -2.0273   -0.0793 C   0  0  0  0  0  0  0  0  0  0  0  0
   -0.9056   -1.9405   -1.2692 C   0  0  0  0  0  3  0  0  0  0  0  0
   -2.2937   -2.0704   -0.8972 C   0  0  0  0  0  0  0  0  0  0  0  0
   -3.4958   -2.1087   -1.6613 C   0  0  0  0  0  0  0  0  0  0  0  0
   -4.6995   -2.2780   -0.9957 C   0  0  0  0  0  0  0  0  0  0  0  0
   -4.7538   -2.3908    0.4266 C   0  0  0  0  0  0  0  0  0  0  0  0
   -3.6063   -2.3248    1.2001 C   0  0  0  0  0  0  0  0  0  0  0  0
   -2.3523   -2.1666    0.5462 C   0  0  0  0  0  0  0  0  0  0  0  0
   -1.0035   -2.0693    1.0423 C   0  0  0  0  0  0  0  0  0  0  0  0
    2.0084    0.3659   -2.8811 C   0  0  0  0  0  0  0  0  0  0  0  0
    0.9983    2.6125   -4.0363 H   0  0  0  0  0  0  0  0  0  0  0  0
   -0.3395    4.4443   -3.0230 H   0  0  0  0  0  0  0  0  0  0  0  0
   -0.9198    4.4128   -0.5830 H   0  0  0  0  0  0  0  0  0  0  0  0
   -1.0867    3.9439    2.0350 H   0  0  0  0  0  0  0  0  0  0  0  0
   -0.9716    3.0284    4.3577 H   0  0  0  0  0  0  0  0  0  0  0  0
    0.1409    0.8431    4.8187 H   0  0  0  0  0  0  0  0  0  0  0  0
    1.1911   -0.4824    2.9683 H   0  0  0  0  0  0  0  0  0  0  0  0
    3.5100    1.4824    0.3692 H   0  0  0  0  0  0  0  0  0  0  0  0
    6.0023    1.5732    0.4701 H   0  0  0  0  0  0  0  0  0  0  0  0
    7.3516   -0.5409    0.3385 H   0  0  0  0  0  0  0  0  0  0  0  0
    6.2061   -2.7480    0.1143 H   0  0  0  0  0  0  0  0  0  0  0  0
    4.1160   -4.0763   -0.0682 H   0  0  0  0  0  0  0  0  0  0  0  0
    1.6161   -4.1779   -0.1661 H   0  0  0  0  0  0  0  0  0  0  0  0
   -0.5164   -1.8770   -2.2923 H   0  0  0  0  0  0  0  0  0  0  0  0
   -3.4569   -2.0110   -2.7552 H   0  0  0  0  0  0  0  0  0  0  0  0
   -5.6364   -2.3211   -1.5710 H   0  0  0  0  0  0  0  0  0  0  0  0
   -5.7314   -2.5211    0.9145 H   0  0  0  0  0  0  0  0  0  0  0  0
   -3.6528   -2.3898    2.2964 H   0  0  0  0  0  0  0  0  0  0  0  0
   -0.6971   -2.1238    2.0935 H   0  0  0  0  0  0  0  0  0  0  0  0
    3.0240    0.2943   -2.4403 H   0  0  0  0  0  0  0  0  0  0  0  0
    1.5411   -0.6289   -2.7353 H   0  0  0  0  0  0  0  0  0  0  0  0
    2.1140    0.5413   -3.9685 H   0  0  0  0  0  0  0  0  0  0  0  0
  1 14  1  1  0  0  0
  1 13  1  0  0  0  0
  2  7  1  0  0  0  0
  2  1  1  0  0  0  0
  3  2  2  0  0  0  0
  4  5  2  0  0  0  0
  4  3  1  0  0  0  0
  5  6  1  0  0  0  0
  6 36  1  0  0  0  0
  6  7  2  0  0  0  0
  7  8  1  0  0  0  0
  8 13  2  0  0  0  0
  8  9  1  0  0  0  0
  9 10  2  0  0  0  0
 10 11  1  0  0  0  0
 10 38  1  0  0  0  0
 11 39  1  0  0  0  0
 12 40  1  0  0  0  0
 12 11  2  0  0  0  0
 13 12  1  0  0  0  0
 14 15  1  0  0  0  0
 15 16  1  0  0  0  0
 16 17  2  0  0  0  0
 16 41  1  0  0  0  0
 17 42  1  0  0  0  0
 18 43  1  0  0  0  0
 18 17  1  0  0  0  0
 19 18  2  0  0  0  0
 20 19  1  0  0  0  0
 20 15  2  0  0  0  0
 21 20  1  0  0  0  0
 22 21  2  0  0  0  0
 22 23  1  0  0  0  0
 23 14  2  0  0  0  0
 24 23  1  0  0  0  0
 24 32  2  0  0  0  0
 25 26  1  0  0  0  0
 25 24  1  0  0  0  0
 26 31  1  0  0  0  0
 27 28  1  0  0  0  0
 27 26  2  0  0  0  0
 28 29  2  0  0  0  0
 29 50  1  0  0  0  0
 29 30  1  0  0  0  0
 30 51  1  0  0  0  0
 31 32  1  0  0  0  0
 31 30  2  0  0  0  0
 32 52  1  0  0  0  0
 33 54  1  0  0  0  0
 33 53  1  0  0  0  0
 33  3  1  0  0  0  0
 34  4  1  0  0  0  0
 35  5  1  0  0  0  0
 37  9  1  0  0  0  0
 44 19  1  0  0  0  0
 45 21  1  0  0  0  0
 46 22  1  0  0  0  0
 47 25  1  0  0  0  0
 48 27  1  0  0  0  0
 49 28  1  0  0  0  0
 55 33  1  0  0  0  0
M  END
