1,12
 OpenBabel05122313053D

 22 23  0  0  0  0  0  0  0  0999 V2000
    0.1559   -1.3375    0.0001 C   0  0  0  0  0  3  0  0  0  0  0  0
    1.5043   -0.6900   -0.0001 C   0  0  0  0  0  0  0  0  0  0  0  0
    2.7246   -1.5234   -0.0003 C   0  0  0  0  0  0  0  0  0  0  0  0
    2.8348   -2.8538    0.7474 C   0  0  0  0  0  0  0  0  0  0  0  0
    2.8343   -2.8542   -0.7474 C   0  0  0  0  0  0  0  0  0  0  0  0
   -0.0081   -2.5418    0.0004 O   0  0  0  0  0  0  0  0  0  0  0  0
    3.6550   -0.9369   -0.0009 H   0  0  0  0  0  0  0  0  0  0  0  0
    1.9298   -3.2232    1.2489 H   0  0  0  0  0  0  0  0  0  0  0  0
    3.7794   -3.0261    1.2860 H   0  0  0  0  0  0  0  0  0  0  0  0
    3.7786   -3.0268   -1.2865 H   0  0  0  0  0  0  0  0  0  0  0  0
    1.9290   -3.2240   -1.2480 H   0  0  0  0  0  0  0  0  0  0  0  0
    0.1559    1.3375   -0.0001 C   0  0  0  0  0  3  0  0  0  0  0  0
    1.5043    0.6900    0.0001 C   0  0  0  0  0  0  0  0  0  0  0  0
   -0.0081    2.5418   -0.0004 O   0  0  0  0  0  0  0  0  0  0  0  0
    2.7246    1.5234    0.0003 C   0  0  0  0  0  0  0  0  0  0  0  0
    2.8348    2.8538   -0.7474 C   0  0  0  0  0  0  0  0  0  0  0  0
    2.8343    2.8542    0.7474 C   0  0  0  0  0  0  0  0  0  0  0  0
    3.6550    0.9369    0.0009 H   0  0  0  0  0  0  0  0  0  0  0  0
    1.9298    3.2232   -1.2489 H   0  0  0  0  0  0  0  0  0  0  0  0
    3.7794    3.0261   -1.2860 H   0  0  0  0  0  0  0  0  0  0  0  0
    3.7786    3.0268    1.2865 H   0  0  0  0  0  0  0  0  0  0  0  0
    1.9290    3.2240    1.2480 H   0  0  0  0  0  0  0  0  0  0  0  0
  1  6  2  0  0  0  0
  2 13  2  0  0  0  0
  2  1  1  0  0  0  0
  3  2  1  0  0  0  0
  3  4  1  0  0  0  0
  4  8  1  0  0  0  0
  4  9  1  0  0  0  0
  5  3  1  0  0  0  0
  5  4  1  0  0  0  0
  7  3  1  0  0  0  0
 10  5  1  0  0  0  0
 11  5  1  0  0  0  0
 12 13  1  0  0  0  0
 13 15  1  0  0  0  0
 14 12  2  0  0  0  0
 15 18  1  0  0  0  0
 15 17  1  0  0  0  0
 16 15  1  0  0  0  0
 16 17  1  0  0  0  0
 17 22  1  0  0  0  0
 17 21  1  0  0  0  0
 19 16  1  0  0  0  0
 20 16  1  0  0  0  0
M  END
