1,7
 OpenBabel05122313053D

 21 20  0  0  1  0  0  0  0  0999 V2000
   -1.2029   -0.9712    0.9707 C   0  0  0  0  0  2  0  0  0  0  0  0
   -2.1419   -1.9176    1.4045 C   0  0  0  0  0  0  0  0  0  0  0  0
   -2.2084   -2.2526    2.4494 H   0  0  0  0  0  0  0  0  0  0  0  0
   -2.9983   -2.4103    0.4081 C   0  0  1  0  0  3  0  0  0  0  0  0
   -2.8906   -1.9430   -0.9563 C   0  0  0  0  0  0  0  0  0  0  0  0
   -3.6042   -2.3831   -1.6753 H   0  0  0  0  0  0  0  0  0  0  0  0
   -1.9775   -1.0018   -1.4245 C   0  0  0  0  0  3  0  0  0  0  0  0
   -2.0647   -0.7819   -2.5106 H   0  0  0  0  0  0  0  0  0  0  0  0
   -4.0763   -3.4615    0.7343 C   0  0  0  0  0  0  0  0  0  0  0  0
   -4.0808   -3.8642    2.2184 C   0  0  0  0  0  0  0  0  0  0  0  0
   -4.2874   -2.9982    2.8789 H   0  0  0  0  0  0  0  0  0  0  0  0
   -3.1137   -4.3103    2.5261 H   0  0  0  0  0  0  0  0  0  0  0  0
   -4.8711   -4.6203    2.4009 H   0  0  0  0  0  0  0  0  0  0  0  0
   -5.4682   -2.8842    0.3864 C   0  0  0  0  0  0  0  0  0  0  0  0
   -5.6751   -1.9725    0.9835 H   0  0  0  0  0  0  0  0  0  0  0  0
   -6.2616   -3.6280    0.6086 H   0  0  0  0  0  0  0  0  0  0  0  0
   -5.5463   -2.6118   -0.6839 H   0  0  0  0  0  0  0  0  0  0  0  0
   -3.8133   -4.7309   -0.1094 C   0  0  0  0  0  0  0  0  0  0  0  0
   -4.5817   -5.5030    0.1042 H   0  0  0  0  0  0  0  0  0  0  0  0
   -2.8188   -5.1609    0.1285 H   0  0  0  0  0  0  0  0  0  0  0  0
   -3.8374   -4.5167   -1.1954 H   0  0  0  0  0  0  0  0  0  0  0  0
  1  2  2  0  0  0  0
  2  3  1  0  0  0  0
  4  5  1  6  0  0  0
  4  9  1  0  0  0  0
  4  2  1  0  0  0  0
  6  5  1  0  0  0  0
  7  5  2  0  0  0  0
  8  7  1  0  0  0  0
  9 10  1  0  0  0  0
 10 13  1  0  0  0  0
 10 12  1  0  0  0  0
 10 11  1  0  0  0  0
 14 16  1  0  0  0  0
 14  9  1  0  0  0  0
 14 15  1  0  0  0  0
 17 14  1  0  0  0  0
 18 19  1  0  0  0  0
 18 20  1  0  0  0  0
 18  9  1  0  0  0  0
 21 18  1  0  0  0  0
M  END
