3,16
 OpenBabel05122313053D

 24 25  0  0  0  0  0  0  0  0999 V2000
   -0.2267   -1.1461   -2.9973 N   0  0  0  0  0  0  0  0  0  0  0  0
   -0.6163    0.9507   -2.5874 N   0  0  0  0  0  0  0  0  0  0  0  0
   -0.2757   -0.2372   -1.9802 C   0  0  0  0  0  2  0  0  0  0  0  0
   -0.5260   -0.5364   -4.2145 C   0  0  0  0  0  0  0  0  0  0  0  0
   -0.5401   -1.0934   -5.1560 H   0  0  0  0  0  0  0  0  0  0  0  0
   -0.7755    0.7895   -3.9551 C   0  0  0  0  0  0  0  0  0  0  0  0
   -1.0588    1.6048   -4.6256 H   0  0  0  0  0  0  0  0  0  0  0  0
   -0.8023    2.0703   -1.7308 C   0  0  0  0  0  0  0  0  0  0  0  0
   -1.0873    3.3565   -2.2003 C   0  0  0  0  0  0  0  0  0  0  0  0
   -1.1841    3.5612   -3.2777 H   0  0  0  0  0  0  0  0  0  0  0  0
   -1.2437    4.3970   -1.2700 C   0  0  0  0  0  0  0  0  0  0  0  0
   -1.4687    5.4147   -1.6253 H   0  0  0  0  0  0  0  0  0  0  0  0
   -1.1170    4.1492    0.1109 C   0  0  0  0  0  0  0  0  0  0  0  0
   -0.8225    2.8345    0.5408 C   0  0  0  0  0  0  0  0  0  0  0  0
   -0.7285    2.6517    1.6249 H   0  0  0  0  0  0  0  0  0  0  0  0
   -0.6512    1.7545   -0.3488 C   0  0  0  0  0  3  0  0  0  0  0  0
    0.0847   -2.5578   -2.8157 C   0  0  0  0  0  0  0  0  0  0  0  0
   -0.4439   -2.9467   -1.9246 H   0  0  0  0  0  0  0  0  0  0  0  0
    1.1714   -2.7045   -2.6538 H   0  0  0  0  0  0  0  0  0  0  0  0
   -0.2316   -3.1148   -3.7166 H   0  0  0  0  0  0  0  0  0  0  0  0
   -1.3265    5.2527    1.1193 C   0  0  0  0  0  0  0  0  0  0  0  0
   -0.5993    5.1864    1.9542 H   0  0  0  0  0  0  0  0  0  0  0  0
   -2.3397    5.1932    1.5731 H   0  0  0  0  0  0  0  0  0  0  0  0
   -1.2311    6.2560    0.6589 H   0  0  0  0  0  0  0  0  0  0  0  0
  1 17  1  0  0  0  0
  1  3  1  0  0  0  0
  2  3  1  0  0  0  0
  2  8  1  0  0  0  0
  4  6  2  0  0  0  0
  4  1  1  0  0  0  0
  5  4  1  0  0  0  0
  6  2  1  0  0  0  0
  7  6  1  0  0  0  0
  8 16  1  0  0  0  0
  9  8  2  0  0  0  0
  9 11  1  0  0  0  0
 10  9  1  0  0  0  0
 11 13  2  0  0  0  0
 12 11  1  0  0  0  0
 13 14  1  0  0  0  0
 13 21  1  0  0  0  0
 14 15  1  0  0  0  0
 16 14  2  0  0  0  0
 17 19  1  0  0  0  0
 17 18  1  0  0  0  0
 20 17  1  0  0  0  0
 21 23  1  0  0  0  0
 21 22  1  0  0  0  0
 24 21  1  0  0  0  0
M  END
