2,4
 OpenBabel05122313053D

 23 23  0  0  0  0  0  0  0  0999 V2000
    0.8709    0.4453    1.6150 C   0  0  0  0  0  3  0  0  0  0  0  0
    1.0741   -0.8668    1.1643 C   0  0  0  0  0  3  0  0  0  0  0  0
    1.9949   -1.2231    0.0009 C   0  0  0  0  0  0  0  0  0  0  0  0
    1.0741   -0.8686   -1.1630 C   0  0  0  0  0  3  0  0  0  0  0  0
    0.8708    0.4427   -1.6157 C   0  0  0  0  0  3  0  0  0  0  0  0
    1.7306    1.6479   -1.2918 C   0  0  0  0  0  0  0  0  0  0  0  0
    1.4058    2.4207   -0.0019 C   0  0  0  0  0  0  0  0  0  0  0  0
    1.7307    1.6500    1.2892 C   0  0  0  0  0  0  0  0  0  0  0  0
    2.4418   -2.6817    0.0021 C   0  0  0  0  0  0  0  0  0  0  0  0
    0.1963    0.5474    2.4810 H   0  0  0  0  0  0  0  0  0  0  0  0
    0.6037   -1.6973    1.7188 H   0  0  0  0  0  0  0  0  0  0  0  0
    2.8809   -0.5491    0.0004 H   0  0  0  0  0  0  0  0  0  0  0  0
    0.6037   -1.7001   -1.7161 H   0  0  0  0  0  0  0  0  0  0  0  0
    0.1962    0.5435   -2.4818 H   0  0  0  0  0  0  0  0  0  0  0  0
    1.6476    2.3492   -2.1458 H   0  0  0  0  0  0  0  0  0  0  0  0
    2.7973    1.3294   -1.2501 H   0  0  0  0  0  0  0  0  0  0  0  0
    0.3361    2.7185   -0.0022 H   0  0  0  0  0  0  0  0  0  0  0  0
    1.9979    3.3597   -0.0027 H   0  0  0  0  0  0  0  0  0  0  0  0
    1.6476    2.3526    2.1420 H   0  0  0  0  0  0  0  0  0  0  0  0
    2.7973    1.3315    1.2480 H   0  0  0  0  0  0  0  0  0  0  0  0
    3.0500   -2.9125   -0.8945 H   0  0  0  0  0  0  0  0  0  0  0  0
    3.0500   -2.9111    0.8991 H   0  0  0  0  0  0  0  0  0  0  0  0
    1.5634   -3.3594    0.0027 H   0  0  0  0  0  0  0  0  0  0  0  0
  1 10  1  0  0  0  0
  2  1  1  0  0  0  0
  2 11  1  0  0  0  0
  3  9  1  0  0  0  0
  3  2  1  0  0  0  0
  4  3  1  0  0  0  0
  5  6  1  0  0  0  0
  5  4  1  0  0  0  0
  6 16  1  0  0  0  0
  6  7  1  0  0  0  0
  7  8  1  0  0  0  0
  8  1  1  0  0  0  0
  8 19  1  0  0  0  0
  9 23  1  0  0  0  0
  9 22  1  0  0  0  0
 12  3  1  0  0  0  0
 13  4  1  0  0  0  0
 14  5  1  0  0  0  0
 15  6  1  0  0  0  0
 17  7  1  0  0  0  0
 18  7  1  0  0  0  0
 20  8  1  0  0  0  0
 21  9  1  0  0  0  0
M  END
