2,6
 OpenBabel05122313053D

 21 21  0  0  1  0  0  0  0  0999 V2000
    3.3839   -0.5065    0.8235 O   0  0  0  0  0  0  0  0  0  0  0  0
    1.3426   -1.6673    1.1957 C   0  0  0  0  0  3  0  0  0  0  0  0
    2.5954   -1.1019    1.8591 C   0  0  2  0  0  0  0  0  0  0  0  0
    2.2041   -0.0664    2.9169 C   0  0  0  0  0  0  0  0  0  0  0  0
    1.0607    0.8071    2.4161 C   0  0  0  0  0  3  0  0  0  0  0  0
   -0.3278    0.5573    2.6460 C   0  0  0  0  0  3  0  0  0  0  0  0
   -0.9026   -0.7475    2.5698 C   0  0  0  0  0  3  0  0  0  0  0  0
   -0.2797   -2.0378    3.0918 C   0  0  0  0  0  0  0  0  0  0  0  0
    0.5641   -2.7040    2.0013 C   0  0  0  0  0  0  0  0  0  0  0  0
    1.6851   -2.1308    0.2521 H   0  0  0  0  0  0  0  0  0  0  0  0
    3.1688   -1.9413    2.3303 H   0  0  0  0  0  0  0  0  0  0  0  0
    1.9249   -0.5764    3.8600 H   0  0  0  0  0  0  0  0  0  0  0  0
    3.0789    0.5698    3.1629 H   0  0  0  0  0  0  0  0  0  0  0  0
    1.3109    1.8692    2.2738 H   0  0  0  0  0  0  0  0  0  0  0  0
   -1.0144    1.4218    2.6355 H   0  0  0  0  0  0  0  0  0  0  0  0
   -2.0031   -0.7481    2.5281 H   0  0  0  0  0  0  0  0  0  0  0  0
    0.3321   -1.8267    3.9917 H   0  0  0  0  0  0  0  0  0  0  0  0
   -1.0866   -2.7173    3.4298 H   0  0  0  0  0  0  0  0  0  0  0  0
   -0.1142   -3.2416    1.3052 H   0  0  0  0  0  0  0  0  0  0  0  0
    1.2447   -3.4772    2.4272 H   0  0  0  0  0  0  0  0  0  0  0  0
    4.2313   -0.2389    1.2236 H   0  0  0  0  0  0  0  0  0  0  0  0
  1 21  1  0  0  0  0
  1  3  1  0  0  0  0
  2  3  1  0  0  0  0
  2  9  1  0  0  0  0
  3 11  1  1  0  0  0
  3  4  1  0  0  0  0
  4 13  1  0  0  0  0
  4 12  1  0  0  0  0
  5  6  1  0  0  0  0
  5  4  1  0  0  0  0
  7  6  1  0  0  0  0
  7  8  1  0  0  0  0
  8 18  1  0  0  0  0
  8 17  1  0  0  0  0
  9 20  1  0  0  0  0
  9  8  1  0  0  0  0
 10  2  1  0  0  0  0
 14  5  1  0  0  0  0
 15  6  1  0  0  0  0
 16  7  1  0  0  0  0
 19  9  1  0  0  0  0
M  END
