18,29
 OpenBabel05122313053D

 46 45  0  0  1  0  0  0  0  0999 V2000
    2.5282    0.3678    1.1781 S   0  0  0  0  0  0  0  0  0  0  0  0
   -1.1513   -0.3967    2.6594 F   0  0  0  0  0  0  0  0  0  0  0  0
    0.7580   -0.1098    3.6523 F   0  0  0  0  0  0  0  0  0  0  0  0
    0.4081   -1.9171    2.4829 F   0  0  0  0  0  0  0  0  0  0  0  0
    1.5369    3.3567    0.4691 F   0  0  0  0  0  0  0  0  0  0  0  0
   -0.5161    3.5235    1.2035 F   0  0  0  0  0  0  0  0  0  0  0  0
    1.0013    2.5866    2.4325 F   0  0  0  0  0  0  0  0  0  0  0  0
   -3.3814   -1.8453    1.5460 F   0  0  0  0  0  0  0  0  0  0  0  0
   -2.1003   -3.3700    0.7022 F   0  0  0  0  0  0  0  0  0  0  0  0
   -3.7930   -2.6132   -0.4562 F   0  0  0  0  0  0  0  0  0  0  0  0
    0.4414   -3.0863   -2.4000 F   0  0  0  0  0  0  0  0  0  0  0  0
   -1.5855   -3.5809   -1.8575 F   0  0  0  0  0  0  0  0  0  0  0  0
   -2.5534    2.1624   -1.6753 O   0  0  0  0  0  0  0  0  0  0  0  0
   -0.5548    3.1766   -1.3938 O   0  0  0  0  0  0  0  0  0  0  0  0
   -3.0696    1.7500    1.4868 O   0  0  0  0  0  0  0  0  0  0  0  0
   -4.3809    0.2999    0.3283 O   0  0  0  0  0  0  0  0  0  0  0  0
    0.1702   -0.5799    2.5152 C   0  0  0  0  0  0  0  0  0  0  0  0
    0.7198    0.1102    1.2866 C   0  0  1  0  0  3  0  0  0  0  0  0
    0.2022    1.3206    0.6008 C   0  0  2  0  0  3  0  0  0  0  0  0
    0.5529    2.7090    1.1582 C   0  0  0  0  0  0  0  0  0  0  0  0
   -0.9127    1.0577   -0.3160 C   0  0  2  0  0  3  0  0  0  0  0  0
   -1.4364    2.1682   -1.1826 C   0  0  0  0  0  0  0  0  0  0  0  0
   -1.0682    4.3107   -2.0993 C   0  0  0  0  0  0  0  0  0  0  0  0
   -2.0376    0.1382    0.0539 C   0  0  0  0  0  0  0  0  0  0  0  0
   -3.1947    0.8120    0.7169 C   0  0  0  0  0  0  0  0  0  0  0  0
   -5.5275    0.8717    0.9626 C   0  0  0  0  0  0  0  0  0  0  0  0
   -1.8786   -1.1904   -0.1990 C   0  0  0  0  0  0  0  0  0  0  0  0
   -2.8049   -2.2524    0.3913 C   0  0  0  0  0  0  0  0  0  0  0  0
   -0.6750   -1.5602   -0.9506 C   0  0  0  0  0  3  0  0  0  0  0  0
   -0.6090   -2.6980   -1.6794 C   0  0  0  0  0  0  0  0  0  0  0  0
    3.4124   -1.1777    1.7408 C   0  0  0  0  0  0  0  0  0  0  0  0
    3.8080   -1.0051    3.2063 C   0  0  0  0  0  0  0  0  0  0  0  0
    4.6118   -1.3656    0.8132 C   0  0  0  0  0  0  0  0  0  0  0  0
   -1.4184    4.0256   -3.1120 H   0  0  0  0  0  0  0  0  0  0  0  0
   -0.2337    5.0311   -2.1639 H   0  0  0  0  0  0  0  0  0  0  0  0
   -1.9201    4.7553   -1.5476 H   0  0  0  0  0  0  0  0  0  0  0  0
   -6.4056    0.3826    0.5054 H   0  0  0  0  0  0  0  0  0  0  0  0
   -5.5601    1.9675    0.7987 H   0  0  0  0  0  0  0  0  0  0  0  0
   -5.5060    0.6822    2.0553 H   0  0  0  0  0  0  0  0  0  0  0  0
    2.6878   -2.0002    1.6026 H   0  0  0  0  0  0  0  0  0  0  0  0
    2.9285   -0.8732    3.8612 H   0  0  0  0  0  0  0  0  0  0  0  0
    4.3518   -1.9140    3.5374 H   0  0  0  0  0  0  0  0  0  0  0  0
    4.4841   -0.1369    3.3459 H   0  0  0  0  0  0  0  0  0  0  0  0
    5.2034   -2.2376    1.1595 H   0  0  0  0  0  0  0  0  0  0  0  0
    5.2855   -0.4830    0.8292 H   0  0  0  0  0  0  0  0  0  0  0  0
    4.2834   -1.5651   -0.2232 H   0  0  0  0  0  0  0  0  0  0  0  0
  1 31  1  0  0  0  0
  4 17  1  0  0  0  0
  5 20  1  0  0  0  0
 10 28  1  0  0  0  0
 11 30  1  0  0  0  0
 12 30  1  0  0  0  0
 13 22  2  0  0  0  0
 14 22  1  0  0  0  0
 16 25  1  0  0  0  0
 16 26  1  0  0  0  0
 17  2  1  0  0  0  0
 17  3  1  0  0  0  0
 18  1  1  1  0  0  0
 18 17  1  0  0  0  0
 19 20  1  1  0  0  0
 19 18  1  0  0  0  0
 20  6  1  0  0  0  0
 20  7  1  0  0  0  0
 21 22  1  1  0  0  0
 21 24  1  0  0  0  0
 21 19  1  0  0  0  0
 23 36  1  0  0  0  0
 23 14  1  0  0  0  0
 24 25  1  0  0  0  0
 25 15  2  0  0  0  0
 26 39  1  0  0  0  0
 27 24  2  0  0  0  0
 27 28  1  0  0  0  0
 28  9  1  0  0  0  0
 28  8  1  0  0  0  0
 29 27  1  0  0  0  0
 30 29  2  0  0  0  0
 31 32  1  0  0  0  0
 32 43  1  0  0  0  0
 32 42  1  0  0  0  0
 32 41  1  0  0  0  0
 33 45  1  0  0  0  0
 33 44  1  0  0  0  0
 33 31  1  0  0  0  0
 34 23  1  0  0  0  0
 35 23  1  0  0  0  0
 37 26  1  0  0  0  0
 38 26  1  0  0  0  0
 40 31  1  0  0  0  0
 46 33  1  0  0  0  0
M  END
