5,16
 OpenBabel05122313053D

 60 63  0  0  0  0  0  0  0  0999 V2000
   -1.5341   -2.8842   -0.3333 N   0  0  0  0  0  0  0  0  0  0  0  0
   -2.7282   -1.0729   -0.2317 N   0  0  0  0  0  0  0  0  0  0  0  0
    1.5282   -2.5618   -1.3841 N   0  0  0  0  0  0  0  0  0  0  0  0
    2.6948   -0.8086   -0.8380 N   0  0  0  0  0  0  0  0  0  0  0  0
   -1.4063   -1.5148   -0.1744 C   0  0  0  0  0  2  0  0  0  0  0  0
   -3.6102   -2.1349   -0.4251 C   0  0  0  0  0  0  0  0  0  0  0  0
   -4.6900   -1.9739   -0.4855 H   0  0  0  0  0  0  0  0  0  0  0  0
   -2.8579   -3.2721   -0.5000 C   0  0  0  0  0  0  0  0  0  0  0  0
   -3.1469   -4.3170   -0.6462 H   0  0  0  0  0  0  0  0  0  0  0  0
   -0.4056   -3.7909   -0.3837 C   0  0  0  0  0  0  0  0  0  0  0  0
   -0.8126   -4.8188   -0.4323 H   0  0  0  0  0  0  0  0  0  0  0  0
    0.1867   -3.6899    0.5496 H   0  0  0  0  0  0  0  0  0  0  0  0
    0.4774   -3.5398   -1.6057 C   0  0  0  0  0  0  0  0  0  0  0  0
    0.9812   -4.4839   -1.8922 H   0  0  0  0  0  0  0  0  0  0  0  0
   -0.1643   -3.2335   -2.4616 H   0  0  0  0  0  0  0  0  0  0  0  0
    1.4126   -1.3561   -0.7040 C   0  0  0  0  0  2  0  0  0  0  0  0
    2.8067   -2.7417   -1.9110 C   0  0  0  0  0  0  0  0  0  0  0  0
    3.0793   -3.6369   -2.4775 H   0  0  0  0  0  0  0  0  0  0  0  0
    3.5372   -1.6447   -1.5639 C   0  0  0  0  0  0  0  0  0  0  0  0
    4.5806   -1.3785   -1.7545 H   0  0  0  0  0  0  0  0  0  0  0  0
   -3.2095    0.2750   -0.1042 C   0  0  0  0  0  0  0  0  0  0  0  0
   -3.4757    1.0085   -1.2807 C   0  0  0  0  0  0  0  0  0  0  0  0
   -3.9745    2.3128   -1.1402 C   0  0  0  0  0  0  0  0  0  0  0  0
   -4.1731    2.9044   -2.0484 H   0  0  0  0  0  0  0  0  0  0  0  0
   -4.2008    2.8892    0.1240 C   0  0  0  0  0  0  0  0  0  0  0  0
   -3.9390    2.1153    1.2682 C   0  0  0  0  0  0  0  0  0  0  0  0
   -4.1227    2.5458    2.2658 H   0  0  0  0  0  0  0  0  0  0  0  0
   -3.4488    0.7996    1.1829 C   0  0  0  0  0  0  0  0  0  0  0  0
   -3.1590    0.4282   -2.6325 C   0  0  0  0  0  0  0  0  0  0  0  0
   -3.4841    1.1057   -3.4444 H   0  0  0  0  0  0  0  0  0  0  0  0
   -3.6374   -0.5604   -2.7892 H   0  0  0  0  0  0  0  0  0  0  0  0
   -2.0614    0.2805   -2.7209 H   0  0  0  0  0  0  0  0  0  0  0  0
   -4.6801    4.3139    0.2450 C   0  0  0  0  0  0  0  0  0  0  0  0
   -3.8247    5.0213    0.1900 H   0  0  0  0  0  0  0  0  0  0  0  0
   -5.1927    4.4941    1.2102 H   0  0  0  0  0  0  0  0  0  0  0  0
   -5.3763    4.5832   -0.5742 H   0  0  0  0  0  0  0  0  0  0  0  0
   -3.1781   -0.0170    2.4180 C   0  0  0  0  0  0  0  0  0  0  0  0
   -3.5314    0.5072    3.3258 H   0  0  0  0  0  0  0  0  0  0  0  0
   -2.0939   -0.2281    2.5417 H   0  0  0  0  0  0  0  0  0  0  0  0
   -3.6758   -1.0075    2.3709 H   0  0  0  0  0  0  0  0  0  0  0  0
    3.1313    0.4779   -0.3671 C   0  0  0  0  0  0  0  0  0  0  0  0
    3.1173    1.5627   -1.2755 C   0  0  0  0  0  0  0  0  0  0  0  0
    3.5389    2.8159   -0.8064 C   0  0  0  0  0  0  0  0  0  0  0  0
    3.5125    3.6742   -1.4967 H   0  0  0  0  0  0  0  0  0  0  0  0
    3.9823    3.0050    0.5166 C   0  0  0  0  0  0  0  0  0  0  0  0
    4.0463    1.8862    1.3637 C   0  0  0  0  0  0  0  0  0  0  0  0
    4.4365    2.0047    2.3874 H   0  0  0  0  0  0  0  0  0  0  0  0
    3.6440    0.6037    0.9429 C   0  0  0  0  0  0  0  0  0  0  0  0
    2.6617    1.3742   -2.6978 C   0  0  0  0  0  0  0  0  0  0  0  0
    1.6197    0.9952   -2.7213 H   0  0  0  0  0  0  0  0  0  0  0  0
    3.2960    0.6409   -3.2384 H   0  0  0  0  0  0  0  0  0  0  0  0
    2.6919    2.3310   -3.2521 H   0  0  0  0  0  0  0  0  0  0  0  0
    4.3685    4.3767    1.0091 C   0  0  0  0  0  0  0  0  0  0  0  0
    4.8815    4.9651    0.2221 H   0  0  0  0  0  0  0  0  0  0  0  0
    5.0335    4.3236    1.8932 H   0  0  0  0  0  0  0  0  0  0  0  0
    3.4670    4.9534    1.3086 H   0  0  0  0  0  0  0  0  0  0  0  0
    3.7955   -0.5873    1.8495 C   0  0  0  0  0  0  0  0  0  0  0  0
    4.4382   -0.3411    2.7159 H   0  0  0  0  0  0  0  0  0  0  0  0
    4.2437   -1.4496    1.3150 H   0  0  0  0  0  0  0  0  0  0  0  0
    2.8126   -0.9346    2.2353 H   0  0  0  0  0  0  0  0  0  0  0  0
  1  5  1  0  0  0  0
  2  5  1  0  0  0  0
  2 21  1  0  0  0  0
  3 16  1  0  0  0  0
  4 16  1  0  0  0  0
  4 41  1  0  0  0  0
  6  2  1  0  0  0  0
  7  6  1  0  0  0  0
  8  6  2  0  0  0  0
  8  1  1  0  0  0  0
  9  8  1  0  0  0  0
 10  1  1  0  0  0  0
 10 12  1  0  0  0  0
 11 10  1  0  0  0  0
 13  3  1  0  0  0  0
 13 10  1  0  0  0  0
 14 13  1  0  0  0  0
 15 13  1  0  0  0  0
 17 19  2  0  0  0  0
 17  3  1  0  0  0  0
 18 17  1  0  0  0  0
 19  4  1  0  0  0  0
 20 19  1  0  0  0  0
 21 28  1  0  0  0  0
 22 23  1  0  0  0  0
 22 21  2  0  0  0  0
 23 25  2  0  0  0  0
 24 23  1  0  0  0  0
 25 33  1  0  0  0  0
 25 26  1  0  0  0  0
 26 27  1  0  0  0  0
 28 26  2  0  0  0  0
 28 37  1  0  0  0  0
 29 22  1  0  0  0  0
 30 29  1  0  0  0  0
 31 29  1  0  0  0  0
 32 29  1  0  0  0  0
 33 35  1  0  0  0  0
 34 33  1  0  0  0  0
 36 33  1  0  0  0  0
 37 39  1  0  0  0  0
 37 38  1  0  0  0  0
 40 37  1  0  0  0  0
 41 48  1  0  0  0  0
 42 43  1  0  0  0  0
 42 41  2  0  0  0  0
 43 45  2  0  0  0  0
 44 43  1  0  0  0  0
 45 53  1  0  0  0  0
 45 46  1  0  0  0  0
 46 47  1  0  0  0  0
 48 46  2  0  0  0  0
 48 57  1  0  0  0  0
 49 42  1  0  0  0  0
 50 49  1  0  0  0  0
 51 49  1  0  0  0  0
 52 49  1  0  0  0  0
 53 56  1  0  0  0  0
 53 55  1  0  0  0  0
 54 53  1  0  0  0  0
 57 60  1  0  0  0  0
 57 58  1  0  0  0  0
 59 57  1  0  0  0  0
M  END
