2,4
 OpenBabel05122313053D

 23 24  0  0  0  0  0  0  0  0999 V2000
    2.4757    0.2635    0.1102 C   0  0  0  0  0  3  0  0  0  0  0  0
    1.6972    0.5117    1.2702 C   0  0  0  0  0  3  0  0  0  0  0  0
    0.8856   -0.5345    1.8172 C   0  0  0  0  0  3  0  0  0  0  0  0
    0.8322   -1.7658    1.0886 C   0  0  0  0  0  3  0  0  0  0  0  0
    1.6324   -1.9283   -0.0656 C   0  0  0  0  0  3  0  0  0  0  0  0
    2.9348   -1.1457   -0.2174 C   0  0  0  0  0  0  0  0  0  0  0  0
    4.1136   -1.7218    0.5612 C   0  0  0  0  0  0  0  0  0  0  0  0
    4.8753   -2.7615   -0.0117 C   0  0  0  0  0  0  0  0  0  0  0  0
    5.9347   -3.3551    0.6891 C   0  0  0  0  0  0  0  0  0  0  0  0
    6.2576   -2.9112    1.9819 C   0  0  0  0  0  0  0  0  0  0  0  0
    5.5128   -1.8718    2.5605 C   0  0  0  0  0  0  0  0  0  0  0  0
    4.4501   -1.2839    1.8567 C   0  0  0  0  0  0  0  0  0  0  0  0
    2.9849    1.1187   -0.3621 H   0  0  0  0  0  0  0  0  0  0  0  0
    1.6408    1.5237    1.7031 H   0  0  0  0  0  0  0  0  0  0  0  0
    0.2780   -0.3917    2.7212 H   0  0  0  0  0  0  0  0  0  0  0  0
    0.0993   -2.5318    1.3854 H   0  0  0  0  0  0  0  0  0  0  0  0
    1.4942   -2.8428   -0.6643 H   0  0  0  0  0  0  0  0  0  0  0  0
    3.2083   -1.1734   -1.2923 H   0  0  0  0  0  0  0  0  0  0  0  0
    4.6304   -3.1072   -1.0297 H   0  0  0  0  0  0  0  0  0  0  0  0
    6.5177   -4.1638    0.2214 H   0  0  0  0  0  0  0  0  0  0  0  0
    7.0913   -3.3713    2.5342 H   0  0  0  0  0  0  0  0  0  0  0  0
    5.7627   -1.5128    3.5712 H   0  0  0  0  0  0  0  0  0  0  0  0
    3.8718   -0.4685    2.3147 H   0  0  0  0  0  0  0  0  0  0  0  0
  1  2  1  0  0  0  0
  2 14  1  0  0  0  0
  2  3  1  0  0  0  0
  3 15  1  0  0  0  0
  4 16  1  0  0  0  0
  4  3  1  0  0  0  0
  5  4  1  0  0  0  0
  6  5  1  0  0  0  0
  6  1  1  0  0  0  0
  6  7  1  0  0  0  0
  7 12  1  0  0  0  0
  8  7  2  0  0  0  0
  8  9  1  0  0  0  0
  9 10  2  0  0  0  0
 10 21  1  0  0  0  0
 10 11  1  0  0  0  0
 11 22  1  0  0  0  0
 12 23  1  0  0  0  0
 12 11  2  0  0  0  0
 13  1  1  0  0  0  0
 17  5  1  0  0  0  0
 18  6  1  0  0  0  0
 19  8  1  0  0  0  0
 20  9  1  0  0  0  0
M  END
