1,15
 OpenBabel05122313053D

 21 22  0  0  0  0  0  0  0  0999 V2000
   -1.0899    0.0695    0.0647 C   0  0  0  0  0  2  0  0  0  0  0  0
   -3.3264   -0.6233   -0.0394 C   0  0  0  0  0  0  0  0  0  0  0  0
   -3.4821    0.6386    0.5896 C   0  0  0  0  0  0  0  0  0  0  0  0
   -4.7549    1.1010    0.9551 C   0  0  0  0  0  0  0  0  0  0  0  0
   -4.8776    2.0817    1.4373 H   0  0  0  0  0  0  0  0  0  0  0  0
   -5.8632    0.2829    0.6916 C   0  0  0  0  0  0  0  0  0  0  0  0
   -6.8687    0.6274    0.9746 H   0  0  0  0  0  0  0  0  0  0  0  0
   -5.7049   -0.9730    0.0705 C   0  0  0  0  0  0  0  0  0  0  0  0
   -6.5886   -1.5979   -0.1252 H   0  0  0  0  0  0  0  0  0  0  0  0
   -4.4378   -1.4418   -0.3027 C   0  0  0  0  0  0  0  0  0  0  0  0
   -4.3156   -2.4221   -0.7841 H   0  0  0  0  0  0  0  0  0  0  0  0
   -1.4451   -2.0980   -0.9329 C   0  0  0  0  0  0  0  0  0  0  0  0
   -2.1065   -2.3813   -1.7812 H   0  0  0  0  0  0  0  0  0  0  0  0
   -1.4776   -2.9216   -0.1870 H   0  0  0  0  0  0  0  0  0  0  0  0
   -0.0185   -1.8244   -1.3826 C   0  0  0  0  0  3  0  0  0  0  0  0
    0.5931   -2.7390   -1.4429 H   0  0  0  0  0  0  0  0  0  0  0  0
    0.2808   -0.7160   -2.2621 C   0  0  0  0  0  3  0  0  0  0  0  0
   -0.5364   -0.0776   -2.6372 H   0  0  0  0  0  0  0  0  0  0  0  0
    1.1329   -0.7950   -2.9564 H   0  0  0  0  0  0  0  0  0  0  0  0
   -1.9845   -0.8832   -0.3140 N   0  0  0  0  0  0  0  0  0  0  0  0
   -1.9155    1.4348    0.7567 S   0  0  0  0  0  0  0  0  0  0  0  0
  1 21  1  0  0  0  0
  2  3  1  0  0  0  0
  3 21  1  0  0  0  0
  3  4  2  0  0  0  0
  4  5  1  0  0  0  0
  6  4  1  0  0  0  0
  6  7  1  0  0  0  0
  8  6  2  0  0  0  0
  9  8  1  0  0  0  0
 10  2  2  0  0  0  0
 10  8  1  0  0  0  0
 11 10  1  0  0  0  0
 12 20  1  0  0  0  0
 12 14  1  0  0  0  0
 13 12  1  0  0  0  0
 15 12  1  0  0  0  0
 16 15  1  0  0  0  0
 17 15  1  0  0  0  0
 18 17  1  0  0  0  0
 19 17  1  0  0  0  0
 20  2  1  0  0  0  0
 20  1  1  0  0  0  0
M  END
