2,4
 OpenBabel05122313053D

 17 17  0  0  0  0  0  0  0  0999 V2000
   -2.3883    0.8990   -0.0140 C   0  0  0  0  0  3  0  0  0  0  0  0
   -1.9769    0.7426    1.3405 C   0  0  0  0  0  3  0  0  0  0  0  0
   -1.3003   -0.4014    1.8824 C   0  0  0  0  0  3  0  0  0  0  0  0
   -0.8274   -1.4815    1.1027 C   0  0  0  0  0  3  0  0  0  0  0  0
   -1.3326   -1.7405   -0.2850 C   0  0  0  0  0  0  0  0  0  0  0  0
   -2.8469   -1.5627   -0.5128 C   0  0  0  0  0  0  0  0  0  0  0  0
   -3.1529   -0.1052   -0.8553 C   0  0  0  0  0  0  0  0  0  0  0  0
   -2.6369    1.9418   -0.2740 H   0  0  0  0  0  0  0  0  0  0  0  0
   -1.9891    1.6317    1.9923 H   0  0  0  0  0  0  0  0  0  0  0  0
   -0.9355   -0.3224    2.9190 H   0  0  0  0  0  0  0  0  0  0  0  0
   -0.2025   -2.2458    1.5916 H   0  0  0  0  0  0  0  0  0  0  0  0
   -0.9583   -2.7220   -0.6360 H   0  0  0  0  0  0  0  0  0  0  0  0
   -3.3871   -1.8726    0.4044 H   0  0  0  0  0  0  0  0  0  0  0  0
   -4.2455    0.0916   -0.7529 H   0  0  0  0  0  0  0  0  0  0  0  0
   -0.8016   -1.0350   -1.0647 H   0  0  0  0  0  0  0  0  0  0  0  0
   -3.1934   -2.2280   -1.3295 H   0  0  0  0  0  0  0  0  0  0  0  0
   -2.9163    0.0845   -1.9249 H   0  0  0  0  0  0  0  0  0  0  0  0
  1  2  1  0  0  0  0
  2  3  1  0  0  0  0
  2  9  1  0  0  0  0
  3 10  1  0  0  0  0
  4 11  1  0  0  0  0
  4  3  1  0  0  0  0
  5  4  1  0  0  0  0
  6  5  1  0  0  0  0
  6 13  1  0  0  0  0
  7 14  1  0  0  0  0
  7  6  1  0  0  0  0
  7  1  1  0  0  0  0
  8  1  1  0  0  0  0
 12  5  1  0  0  0  0
 15  5  1  0  0  0  0
 16  6  1  0  0  0  0
 17  7  1  0  0  0  0
M  END
