2,4
 OpenBabel05122313053D

 22 22  0  0  0  0  0  0  0  0999 V2000
   -0.6784    2.3205    0.3320 N   0  0  0  0  0  0  0  0  0  0  0  0
   -0.6180    0.9938    0.1377 C   0  0  0  0  0  2  0  0  0  0  0  0
    0.6029    3.0138    0.4134 C   0  0  0  0  0  0  0  0  0  0  0  0
    1.5987    2.1448   -0.3222 C   0  0  0  0  0  3  0  0  0  0  0  0
    2.6491    1.4622    0.3542 C   0  0  0  0  0  3  0  0  0  0  0  0
   -1.9490    0.3379    0.0911 C   0  0  0  0  0  0  0  0  0  0  0  0
   -2.2684   -0.7402    0.9470 C   0  0  0  0  0  0  0  0  0  0  0  0
   -3.5285   -1.3497    0.8806 C   0  0  0  0  0  0  0  0  0  0  0  0
   -4.4834   -0.9111   -0.0525 C   0  0  0  0  0  0  0  0  0  0  0  0
   -4.1760    0.1563   -0.9104 C   0  0  0  0  0  0  0  0  0  0  0  0
   -2.9241    0.7843   -0.8318 C   0  0  0  0  0  0  0  0  0  0  0  0
   -1.5556    2.7891    0.5950 H   0  0  0  0  0  0  0  0  0  0  0  0
    0.5014    4.0350   -0.0148 H   0  0  0  0  0  0  0  0  0  0  0  0
    0.8965    3.1258    1.4832 H   0  0  0  0  0  0  0  0  0  0  0  0
    1.7223    2.3879   -1.3917 H   0  0  0  0  0  0  0  0  0  0  0  0
    3.5769    1.2293   -0.1922 H   0  0  0  0  0  0  0  0  0  0  0  0
    2.8135    1.6549    1.4279 H   0  0  0  0  0  0  0  0  0  0  0  0
   -1.5208   -1.0791    1.6784 H   0  0  0  0  0  0  0  0  0  0  0  0
   -3.7676   -2.1787    1.5642 H   0  0  0  0  0  0  0  0  0  0  0  0
   -5.4664   -1.4024   -0.1108 H   0  0  0  0  0  0  0  0  0  0  0  0
   -4.9159    0.5030   -1.6481 H   0  0  0  0  0  0  0  0  0  0  0  0
   -2.6787    1.6158   -1.5109 H   0  0  0  0  0  0  0  0  0  0  0  0
  1  3  1  0  0  0  0
  1 12  1  0  0  0  0
  2  1  1  0  0  0  0
  3 14  1  0  0  0  0
  4  5  1  0  0  0  0
  4  3  1  0  0  0  0
  5 17  1  0  0  0  0
  6  2  1  0  0  0  0
  6  7  1  0  0  0  0
  7 18  1  0  0  0  0
  8  7  2  0  0  0  0
  8 19  1  0  0  0  0
  9  8  1  0  0  0  0
 10 11  1  0  0  0  0
 10  9  2  0  0  0  0
 11  6  2  0  0  0  0
 13  3  1  0  0  0  0
 15  4  1  0  0  0  0
 16  5  1  0  0  0  0
 20  9  1  0  0  0  0
 21 10  1  0  0  0  0
 22 11  1  0  0  0  0
M  END
