1,7
 OpenBabel05122313053D

 12 11  0  0  0  0  0  0  0  0999 V2000
   -2.4790   -1.2813    0.1999 C   0  0  0  0  0  3  0  0  0  0  0  0
   -3.8377   -0.6164    0.4481 C   0  0  0  0  0  0  0  0  0  0  0  0
   -2.2110   -2.0218    0.9891 H   0  0  0  0  0  0  0  0  0  0  0  0
   -2.4883   -1.8178   -0.7812 H   0  0  0  0  0  0  0  0  0  0  0  0
   -4.7040   -1.2967    0.2723 H   0  0  0  0  0  0  0  0  0  0  0  0
   -3.9057   -0.2901    1.5104 H   0  0  0  0  0  0  0  0  0  0  0  0
   -2.4789    1.2813   -0.2001 C   0  0  0  0  0  3  0  0  0  0  0  0
   -3.8376    0.6164   -0.4488 C   0  0  0  0  0  0  0  0  0  0  0  0
   -2.2106    2.0218   -0.9892 H   0  0  0  0  0  0  0  0  0  0  0  0
   -2.4885    1.8178    0.7810 H   0  0  0  0  0  0  0  0  0  0  0  0
   -4.7039    1.2968   -0.2732 H   0  0  0  0  0  0  0  0  0  0  0  0
   -3.9053    0.2902   -1.5110 H   0  0  0  0  0  0  0  0  0  0  0  0
  1  2  1  0  0  0  0
  1  3  1  0  0  0  0
  2  6  1  0  0  0  0
  4  1  1  0  0  0  0
  5  2  1  0  0  0  0
  7 10  1  0  0  0  0
  8 11  1  0  0  0  0
  8  7  1  0  0  0  0
  8  2  1  0  0  0  0
  9  7  1  0  0  0  0
 12  8  1  0  0  0  0
M  END
