4,7
 OpenBabel05122313053D

 42 43  0  0  1  0  0  0  0  0999 V2000
   -0.1778   -0.0080   -1.0483 C   0  0  0  0  0  0  0  0  0  0  0  0
   -1.0513    1.0826   -0.7814 C   0  0  0  0  0  0  0  0  0  0  0  0
   -0.6344    2.0046   -0.3413 H   0  0  0  0  0  0  0  0  0  0  0  0
   -2.4724    1.0567   -1.0286 C   0  0  0  0  0  3  0  0  0  0  0  0
   -3.0500    1.9865   -0.9513 H   0  0  0  0  0  0  0  0  0  0  0  0
   -3.0773   -0.1949   -1.3790 C   0  0  1  0  0  3  0  0  0  0  0  0
   -2.2140   -1.3333   -1.2769 C   0  0  0  0  0  3  0  0  0  0  0  0
   -2.7078   -2.3160   -1.3322 H   0  0  0  0  0  0  0  0  0  0  0  0
   -0.7914   -1.1921   -1.7773 C   0  0  0  0  0  0  0  0  0  0  0  0
   -0.7264   -1.0309   -2.8797 H   0  0  0  0  0  0  0  0  0  0  0  0
   -0.2341   -2.1244   -1.5805 H   0  0  0  0  0  0  0  0  0  0  0  0
   -4.3729   -0.3950   -1.6094 O   0  0  0  0  0  0  0  0  0  0  0  0
   -5.2942    0.6955   -1.4608 C   0  0  0  0  0  0  0  0  0  0  0  0
   -6.2903    0.2834   -1.6974 H   0  0  0  0  0  0  0  0  0  0  0  0
   -5.0562    1.5163   -2.1676 H   0  0  0  0  0  0  0  0  0  0  0  0
   -5.2907    1.0763   -0.4180 H   0  0  0  0  0  0  0  0  0  0  0  0
    1.2553    0.0259   -0.7614 C   0  0  0  0  0  0  0  0  0  0  0  0
    2.0505    1.2189   -0.7470 C   0  0  0  0  0  0  0  0  0  0  0  0
    3.4262    1.1087   -0.4806 C   0  0  0  0  0  0  0  0  0  0  0  0
    4.0325    2.0243   -0.5103 H   0  0  0  0  0  0  0  0  0  0  0  0
    4.0554   -0.1166   -0.1959 C   0  0  0  0  0  0  0  0  0  0  0  0
    3.2652   -1.3147   -0.1991 C   0  0  0  0  0  0  0  0  0  0  0  0
    1.9089   -1.2178   -0.5042 C   0  0  0  0  0  0  0  0  0  0  0  0
    1.3167   -2.1391   -0.4886 H   0  0  0  0  0  0  0  0  0  0  0  0
    1.5274    2.6128   -1.0506 C   0  0  0  0  0  0  0  0  0  0  0  0
    2.3877    3.2663   -1.3218 H   0  0  0  0  0  0  0  0  0  0  0  0
    0.8421    2.5991   -1.9221 H   0  0  0  0  0  0  0  0  0  0  0  0
    0.7856    3.2103    0.0092 O   0  0  0  0  0  0  0  0  0  0  0  0
    1.5394    3.4991    1.1764 C   0  0  0  0  0  0  0  0  0  0  0  0
    0.8492    3.9793    1.8949 H   0  0  0  0  0  0  0  0  0  0  0  0
    2.3739    4.2036    0.9537 H   0  0  0  0  0  0  0  0  0  0  0  0
    1.9655    2.5826    1.6444 H   0  0  0  0  0  0  0  0  0  0  0  0
    5.3516   -0.2772    0.0831 O   0  0  0  0  0  0  0  0  0  0  0  0
    6.2098    0.8617    0.1125 C   0  0  0  0  0  0  0  0  0  0  0  0
    7.2139    0.4797    0.3673 H   0  0  0  0  0  0  0  0  0  0  0  0
    5.8851    1.5897    0.8861 H   0  0  0  0  0  0  0  0  0  0  0  0
    6.2471    1.3625   -0.8783 H   0  0  0  0  0  0  0  0  0  0  0  0
    3.9233   -2.4462    0.1048 O   0  0  0  0  0  0  0  0  0  0  0  0
    3.1971   -3.6681    0.1383 C   0  0  0  0  0  0  0  0  0  0  0  0
    3.9210   -4.4495    0.4298 H   0  0  0  0  0  0  0  0  0  0  0  0
    2.7752   -3.9170   -0.8604 H   0  0  0  0  0  0  0  0  0  0  0  0
    2.3748   -3.6320    0.8864 H   0  0  0  0  0  0  0  0  0  0  0  0
  1  2  2  0  0  0  0
  1 17  1  0  0  0  0
  2  3  1  0  0  0  0
  4  5  1  0  0  0  0
  4  2  1  0  0  0  0
  6 12  1  1  0  0  0
  6  7  1  0  0  0  0
  6  4  1  0  0  0  0
  8  7  1  0  0  0  0
  9 11  1  0  0  0  0
  9  7  1  0  0  0  0
  9  1  1  0  0  0  0
 10  9  1  0  0  0  0
 12 13  1  0  0  0  0
 13 16  1  0  0  0  0
 14 13  1  0  0  0  0
 15 13  1  0  0  0  0
 17 18  2  0  0  0  0
 17 23  1  0  0  0  0
 18 19  1  0  0  0  0
 19 21  2  0  0  0  0
 20 19  1  0  0  0  0
 21 33  1  0  0  0  0
 22 21  1  0  0  0  0
 22 38  1  0  0  0  0
 23 24  1  0  0  0  0
 23 22  2  0  0  0  0
 25 18  1  0  0  0  0
 25 28  1  0  0  0  0
 26 25  1  0  0  0  0
 27 25  1  0  0  0  0
 28 29  1  0  0  0  0
 29 32  1  0  0  0  0
 29 30  1  0  0  0  0
 31 29  1  0  0  0  0
 33 34  1  0  0  0  0
 34 35  1  0  0  0  0
 34 36  1  0  0  0  0
 37 34  1  0  0  0  0
 38 39  1  0  0  0  0
 39 40  1  0  0  0  0
 39 42  1  0  0  0  0
 41 39  1  0  0  0  0
M  END
