8,14
 OpenBabel05122313053D

 77 81  0  0  1  0  0  0  0  0999 V2000
   -0.5216    1.4245    0.0621 P   0  0  0  0  0  0  0  0  0  0  0  0
    2.1867   -0.1944   -0.2855 P   0  0  0  0  0  0  0  0  0  0  0  0
   -3.5468   -2.2328    2.6659 C   0  0  0  0  0  0  0  0  0  0  0  0
   -4.0192   -3.2166    2.4815 H   0  0  0  0  0  0  0  0  0  0  0  0
   -4.3302   -1.4543    2.5877 H   0  0  0  0  0  0  0  0  0  0  0  0
   -3.1680   -2.2257    3.7103 H   0  0  0  0  0  0  0  0  0  0  0  0
   -2.4279   -1.9740    1.6953 C   0  0  1  0  0  3  0  0  0  0  0  0
   -1.7469   -3.0265    1.0311 C   0  0  0  0  0  3  0  0  0  0  0  0
   -2.0652   -4.0659    1.1979 H   0  0  0  0  0  0  0  0  0  0  0  0
   -0.6846   -2.7633    0.1143 C   0  0  0  0  0  0  0  0  0  0  0  0
   -0.2176   -3.6067   -0.4088 H   0  0  0  0  0  0  0  0  0  0  0  0
   -0.2877   -1.4345   -0.1970 C   0  0  0  0  0  0  0  0  0  0  0  0
   -0.9724   -0.3422    0.4669 C   0  0  2  0  0  3  0  0  0  0  0  0
   -2.0277   -0.6366    1.3750 C   0  0  0  0  0  3  0  0  0  0  0  0
   -2.5829    0.2002    1.8238 H   0  0  0  0  0  0  0  0  0  0  0  0
    0.8125   -1.1476   -1.1987 C   0  0  2  0  0  0  0  0  0  0  0  0
    0.4138   -0.3477   -1.8553 H   0  0  0  0  0  0  0  0  0  0  0  0
    1.2289   -2.3244   -2.0756 C   0  0  0  0  0  0  0  0  0  0  0  0
    1.6841   -3.1529   -1.4970 H   0  0  0  0  0  0  0  0  0  0  0  0
    1.9774   -2.0021   -2.8256 H   0  0  0  0  0  0  0  0  0  0  0  0
    0.3553   -2.7327   -2.6255 H   0  0  0  0  0  0  0  0  0  0  0  0
   -2.1991    2.2185    0.1198 C   0  0  0  0  0  0  0  0  0  0  0  0
   -2.8995    2.3047   -1.1026 C   0  0  0  0  0  0  0  0  0  0  0  0
   -2.4320    1.9258   -2.0245 H   0  0  0  0  0  0  0  0  0  0  0  0
   -4.1877    2.8551   -1.1480 C   0  0  0  0  0  0  0  0  0  0  0  0
   -4.7283    2.9004   -2.1055 H   0  0  0  0  0  0  0  0  0  0  0  0
   -4.7861    3.3451    0.0237 C   0  0  0  0  0  0  0  0  0  0  0  0
   -5.7977    3.7770   -0.0121 H   0  0  0  0  0  0  0  0  0  0  0  0
   -4.0881    3.2866    1.2398 C   0  0  0  0  0  0  0  0  0  0  0  0
   -4.5494    3.6765    2.1604 H   0  0  0  0  0  0  0  0  0  0  0  0
   -2.8012    2.7272    1.2901 C   0  0  0  0  0  0  0  0  0  0  0  0
   -2.2569    2.6901    2.2463 H   0  0  0  0  0  0  0  0  0  0  0  0
    0.2009    2.0148    1.6556 C   0  0  0  0  0  0  0  0  0  0  0  0
    0.5758    1.1623    2.7128 C   0  0  0  0  0  0  0  0  0  0  0  0
    0.3798    0.0827    2.6396 H   0  0  0  0  0  0  0  0  0  0  0  0
    1.2071    1.6802    3.8549 C   0  0  0  0  0  0  0  0  0  0  0  0
    1.4945    1.0009    4.6723 H   0  0  0  0  0  0  0  0  0  0  0  0
    1.4744    3.0541    3.9558 C   0  0  0  0  0  0  0  0  0  0  0  0
    1.9704    3.4578    4.8515 H   0  0  0  0  0  0  0  0  0  0  0  0
    1.1082    3.9111    2.9045 C   0  0  0  0  0  0  0  0  0  0  0  0
    1.3162    4.9900    2.9725 H   0  0  0  0  0  0  0  0  0  0  0  0
    0.4824    3.3946    1.7610 C   0  0  0  0  0  0  0  0  0  0  0  0
    0.2046    4.0722    0.9375 H   0  0  0  0  0  0  0  0  0  0  0  0
    3.0763    0.7184   -1.6899 C   0  0  0  0  0  0  0  0  0  0  0  0
    3.8886    0.0566   -2.0725 H   0  0  0  0  0  0  0  0  0  0  0  0
    3.7131    1.9855   -1.0744 C   0  0  0  0  0  0  0  0  0  0  0  0
    4.3755    1.7172   -0.2260 H   0  0  0  0  0  0  0  0  0  0  0  0
    2.8972    2.6020   -0.6349 H   0  0  0  0  0  0  0  0  0  0  0  0
    4.4829    2.8109   -2.1130 C   0  0  0  0  0  0  0  0  0  0  0  0
    4.9076    3.7193   -1.6360 H   0  0  0  0  0  0  0  0  0  0  0  0
    5.3498    2.2181   -2.4842 H   0  0  0  0  0  0  0  0  0  0  0  0
    3.5852    3.1899   -3.2959 C   0  0  0  0  0  0  0  0  0  0  0  0
    2.7824    3.8734   -2.9384 H   0  0  0  0  0  0  0  0  0  0  0  0
    4.1602    3.7537   -4.0604 H   0  0  0  0  0  0  0  0  0  0  0  0
    2.9436    1.9443   -3.9170 C   0  0  0  0  0  0  0  0  0  0  0  0
    3.7401    1.3127   -4.3721 H   0  0  0  0  0  0  0  0  0  0  0  0
    2.2603    2.2280   -4.7449 H   0  0  0  0  0  0  0  0  0  0  0  0
    2.1781    1.1114   -2.8772 C   0  0  0  0  0  0  0  0  0  0  0  0
    1.3115    1.6959   -2.4951 H   0  0  0  0  0  0  0  0  0  0  0  0
    1.7585    0.2120   -3.3715 H   0  0  0  0  0  0  0  0  0  0  0  0
    3.4175   -1.5593    0.1372 C   0  0  0  0  0  0  0  0  0  0  0  0
    3.6105   -2.1696   -0.7750 H   0  0  0  0  0  0  0  0  0  0  0  0
    2.8183   -2.4653    1.2300 C   0  0  0  0  0  0  0  0  0  0  0  0
    2.5390   -1.8282    2.0999 H   0  0  0  0  0  0  0  0  0  0  0  0
    1.8742   -2.9285    0.8787 H   0  0  0  0  0  0  0  0  0  0  0  0
    3.7996   -3.5540    1.6859 C   0  0  0  0  0  0  0  0  0  0  0  0
    3.3410   -4.1645    2.4923 H   0  0  0  0  0  0  0  0  0  0  0  0
    3.9920   -4.2499    0.8382 H   0  0  0  0  0  0  0  0  0  0  0  0
    5.1285   -2.9503    2.1537 C   0  0  0  0  0  0  0  0  0  0  0  0
    5.8400   -3.7506    2.4469 H   0  0  0  0  0  0  0  0  0  0  0  0
    4.9494   -2.3391    3.0670 H   0  0  0  0  0  0  0  0  0  0  0  0
    5.7383   -2.0597    1.0653 C   0  0  0  0  0  0  0  0  0  0  0  0
    6.0129   -2.6900    0.1895 H   0  0  0  0  0  0  0  0  0  0  0  0
    6.6815   -1.5953    1.4229 H   0  0  0  0  0  0  0  0  0  0  0  0
    4.7593   -0.9678    0.6091 C   0  0  0  0  0  0  0  0  0  0  0  0
    4.5665   -0.2664    1.4529 H   0  0  0  0  0  0  0  0  0  0  0  0
    5.2236   -0.3668   -0.1995 H   0  0  0  0  0  0  0  0  0  0  0  0
  1 22  1  0  0  0  0
  1 33  1  0  0  0  0
  2 61  1  0  0  0  0
  3  6  1  0  0  0  0
  4  3  1  0  0  0  0
  5  3  1  0  0  0  0
  7  3  1  6  0  0  0
  8  9  1  0  0  0  0
  8  7  1  0  0  0  0
 10  8  1  0  0  0  0
 11 10  1  0  0  0  0
 12 10  2  0  0  0  0
 12 13  1  0  0  0  0
 13  1  1  6  0  0  0
 13 14  1  0  0  0  0
 14  7  1  0  0  0  0
 14 15  1  0  0  0  0
 16 17  1  6  0  0  0
 16  2  1  0  0  0  0
 16 12  1  0  0  0  0
 18 19  1  0  0  0  0
 18 16  1  0  0  0  0
 20 18  1  0  0  0  0
 21 18  1  0  0  0  0
 22 31  1  0  0  0  0
 23 22  2  0  0  0  0
 24 23  1  0  0  0  0
 25 23  1  0  0  0  0
 25 27  2  0  0  0  0
 26 25  1  0  0  0  0
 27 29  1  0  0  0  0
 28 27  1  0  0  0  0
 29 31  2  0  0  0  0
 29 30  1  0  0  0  0
 31 32  1  0  0  0  0
 33 42  2  0  0  0  0
 33 34  1  0  0  0  0
 34 36  2  0  0  0  0
 35 34  1  0  0  0  0
 36 38  1  0  0  0  0
 36 37  1  0  0  0  0
 38 39  1  0  0  0  0
 40 41  1  0  0  0  0
 40 38  2  0  0  0  0
 42 40  1  0  0  0  0
 43 42  1  0  0  0  0
 44 46  1  0  0  0  0
 44  2  1  0  0  0  0
 45 44  1  0  0  0  0
 46 48  1  0  0  0  0
 46 47  1  0  0  0  0
 49 50  1  0  0  0  0
 49 46  1  0  0  0  0
 51 49  1  0  0  0  0
 52 53  1  0  0  0  0
 52 49  1  0  0  0  0
 54 52  1  0  0  0  0
 55 52  1  0  0  0  0
 55 58  1  0  0  0  0
 56 55  1  0  0  0  0
 57 55  1  0  0  0  0
 58 59  1  0  0  0  0
 58 44  1  0  0  0  0
 60 58  1  0  0  0  0
 61 75  1  0  0  0  0
 61 63  1  0  0  0  0
 62 61  1  0  0  0  0
 63 66  1  0  0  0  0
 63 64  1  0  0  0  0
 65 63  1  0  0  0  0
 66 69  1  0  0  0  0
 66 67  1  0  0  0  0
 68 66  1  0  0  0  0
 69 70  1  0  0  0  0
 69 71  1  0  0  0  0
 72 74  1  0  0  0  0
 72 69  1  0  0  0  0
 73 72  1  0  0  0  0
 75 72  1  0  0  0  0
 75 76  1  0  0  0  0
 77 75  1  0  0  0  0
M  END
