3,4
 OpenBabel05122313053D

 39 42  0  0  0  0  0  0  0  0999 V2000
   -1.5731   -1.6155   -0.6684 N   0  0  0  0  0  0  0  0  0  0  0  0
   -2.2207    0.5889   -0.3563 N   0  0  0  0  0  0  0  0  0  0  0  0
   -1.2042   -0.3184   -0.4850 C   0  0  0  0  0  2  0  0  0  0  0  0
   -0.2990   -2.3571   -0.7470 C   0  0  0  0  0  3  0  0  0  0  0  0
   -0.2049   -2.8537   -1.7407 H   0  0  0  0  0  0  0  0  0  0  0  0
   -0.2621   -3.1431    0.0387 H   0  0  0  0  0  0  0  0  0  0  0  0
   -2.8729   -2.1120   -0.7119 C   0  0  0  0  0  0  0  0  0  0  0  0
   -3.1663   -3.4658   -0.8842 C   0  0  0  0  0  0  0  0  0  0  0  0
   -2.3506   -4.1918   -0.9995 H   0  0  0  0  0  0  0  0  0  0  0  0
   -4.5211   -3.8769   -0.9065 C   0  0  0  0  0  0  0  0  0  0  0  0
   -4.7497   -4.9450   -1.0430 H   0  0  0  0  0  0  0  0  0  0  0  0
   -5.5600   -2.9658   -0.7599 C   0  0  0  0  0  0  0  0  0  0  0  0
   -6.6070   -3.3032   -0.7791 H   0  0  0  0  0  0  0  0  0  0  0  0
   -5.2894   -1.5758   -0.5801 C   0  0  0  0  0  0  0  0  0  0  0  0
   -6.3062   -0.5885   -0.4208 C   0  0  0  0  0  0  0  0  0  0  0  0
   -7.3606   -0.9023   -0.4375 H   0  0  0  0  0  0  0  0  0  0  0  0
   -5.9677    0.7463   -0.2464 C   0  0  0  0  0  0  0  0  0  0  0  0
   -6.7610    1.4992   -0.1231 H   0  0  0  0  0  0  0  0  0  0  0  0
   -4.6172    1.1733   -0.2208 C   0  0  0  0  0  0  0  0  0  0  0  0
   -4.3737    2.2339   -0.0787 H   0  0  0  0  0  0  0  0  0  0  0  0
   -3.5967    0.2320   -0.3764 C   0  0  0  0  0  0  0  0  0  0  0  0
   -3.9183   -1.1488   -0.5574 C   0  0  0  0  0  0  0  0  0  0  0  0
   -1.8809    1.9723   -0.1504 C   0  0  0  0  0  0  0  0  0  0  0  0
   -1.6657    2.4404    1.1516 C   0  0  0  0  0  0  0  0  0  0  0  0
   -1.7581    1.7409    1.9948 H   0  0  0  0  0  0  0  0  0  0  0  0
   -1.3114    3.7874    1.3686 C   0  0  0  0  0  0  0  0  0  0  0  0
   -1.2040    4.6368    0.2506 C   0  0  0  0  0  0  0  0  0  0  0  0
   -0.9274    5.6920    0.4095 H   0  0  0  0  0  0  0  0  0  0  0  0
   -1.4310    4.1821   -1.0654 C   0  0  0  0  0  0  0  0  0  0  0  0
   -1.7804    2.8317   -1.2544 C   0  0  0  0  0  0  0  0  0  0  0  0
   -1.9562    2.4304   -2.2634 H   0  0  0  0  0  0  0  0  0  0  0  0
   -1.0262    4.2781    2.7645 C   0  0  0  0  0  0  0  0  0  0  0  0
   -1.8798    4.0791    3.4445 H   0  0  0  0  0  0  0  0  0  0  0  0
   -0.8159    5.3644    2.7840 H   0  0  0  0  0  0  0  0  0  0  0  0
   -0.1475    3.7498    3.1912 H   0  0  0  0  0  0  0  0  0  0  0  0
   -1.2400    5.1000   -2.2456 C   0  0  0  0  0  0  0  0  0  0  0  0
   -1.4259    6.1581   -1.9765 H   0  0  0  0  0  0  0  0  0  0  0  0
   -1.9082    4.8308   -3.0868 H   0  0  0  0  0  0  0  0  0  0  0  0
   -0.1968    5.0335   -2.6237 H   0  0  0  0  0  0  0  0  0  0  0  0
  1  3  1  0  0  0  0
  2 23  1  0  0  0  0
  3  2  1  0  0  0  0
  4  1  1  0  0  0  0
  4  6  1  0  0  0  0
  5  4  1  0  0  0  0
  7  1  1  0  0  0  0
  7 22  1  0  0  0  0
  8  7  2  0  0  0  0
  9  8  1  0  0  0  0
 10  8  1  0  0  0  0
 10 12  2  0  0  0  0
 11 10  1  0  0  0  0
 12 14  1  0  0  0  0
 13 12  1  0  0  0  0
 14 22  2  0  0  0  0
 14 15  1  0  0  0  0
 15 17  2  0  0  0  0
 16 15  1  0  0  0  0
 17 19  1  0  0  0  0
 17 18  1  0  0  0  0
 19 20  1  0  0  0  0
 21  2  1  0  0  0  0
 21 19  2  0  0  0  0
 22 21  1  0  0  0  0
 23 24  1  0  0  0  0
 24 26  2  0  0  0  0
 24 25  1  0  0  0  0
 26 32  1  0  0  0  0
 27 28  1  0  0  0  0
 27 26  1  0  0  0  0
 29 27  2  0  0  0  0
 30 29  1  0  0  0  0
 30 23  2  0  0  0  0
 31 30  1  0  0  0  0
 32 34  1  0  0  0  0
 32 35  1  0  0  0  0
 32 33  1  0  0  0  0
 36 37  1  0  0  0  0
 36 29  1  0  0  0  0
 38 36  1  0  0  0  0
 39 36  1  0  0  0  0
M  END
