3,6
 OpenBabel05122313053D

 54 55  0  0  0  0  0  0  0  0999 V2000
    1.3413   -1.8721    3.3549 Si  0  0  0  0  0  0  0  0  0  0  0  0
    0.9620   -0.9320    1.7934 C   0  0  0  0  0  2  0  0  0  0  0  0
    0.1711   -0.4099    0.9792 C   0  0  0  0  0  2  0  0  0  0  0  0
    0.0673    0.9336   -1.4356 C   0  0  0  0  0  0  0  0  0  0  0  0
   -0.7824    1.2442   -2.0761 H   0  0  0  0  0  0  0  0  0  0  0  0
    1.2954    1.2743   -1.8634 C   0  0  0  0  0  3  0  0  0  0  0  0
    1.5634    2.0658   -3.1489 C   0  0  0  0  0  0  0  0  0  0  0  0
    3.0654    2.1389   -3.4882 C   0  0  0  0  0  0  0  0  0  0  0  0
    3.2282    2.7720   -4.3844 H   0  0  0  0  0  0  0  0  0  0  0  0
    3.4787    1.1367   -3.7140 H   0  0  0  0  0  0  0  0  0  0  0  0
    3.6600    2.5699   -2.6595 H   0  0  0  0  0  0  0  0  0  0  0  0
    0.8313    1.4013   -4.3373 C   0  0  0  0  0  0  0  0  0  0  0  0
   -0.2623    1.3561   -4.1702 H   0  0  0  0  0  0  0  0  0  0  0  0
    1.1813    0.3625   -4.5014 H   0  0  0  0  0  0  0  0  0  0  0  0
    1.0125    1.9734   -5.2707 H   0  0  0  0  0  0  0  0  0  0  0  0
    1.0104    3.4995   -2.9748 C   0  0  0  0  0  0  0  0  0  0  0  0
    1.5069    4.0363   -2.1419 H   0  0  0  0  0  0  0  0  0  0  0  0
   -0.0757    3.4795   -2.7564 H   0  0  0  0  0  0  0  0  0  0  0  0
    1.1668    4.0924   -3.9001 H   0  0  0  0  0  0  0  0  0  0  0  0
    3.1976   -1.9463    3.6950 C   0  0  0  0  0  0  0  0  0  0  0  0
    3.6079   -0.9341    3.8846 H   0  0  0  0  0  0  0  0  0  0  0  0
    3.7616   -2.3968    2.8543 H   0  0  0  0  0  0  0  0  0  0  0  0
    3.3904   -2.5605    4.5986 H   0  0  0  0  0  0  0  0  0  0  0  0
    0.4399   -0.9443    4.7280 C   0  0  0  0  0  0  0  0  0  0  0  0
    0.5130   -1.4910    5.6907 H   0  0  0  0  0  0  0  0  0  0  0  0
   -0.6305   -0.8307    4.4644 H   0  0  0  0  0  0  0  0  0  0  0  0
    0.8599    0.0712    4.8743 H   0  0  0  0  0  0  0  0  0  0  0  0
    0.5970   -3.5877    3.0929 C   0  0  0  0  0  0  0  0  0  0  0  0
    1.1081   -4.1375    2.2769 H   0  0  0  0  0  0  0  0  0  0  0  0
   -0.4729   -3.4866    2.8178 H   0  0  0  0  0  0  0  0  0  0  0  0
    0.6669   -4.1988    4.0163 H   0  0  0  0  0  0  0  0  0  0  0  0
   -1.5027   -1.2137   -0.7057 C   0  0  0  0  0  0  0  0  0  0  0  0
   -0.7861   -1.1511   -2.9964 F   0  0  0  0  0  0  0  0  0  0  0  0
   -1.4687   -1.7556   -1.9999 C   0  0  0  0  0  0  0  0  0  0  0  0
   -2.0394   -3.4333   -3.5976 F   0  0  0  0  0  0  0  0  0  0  0  0
   -2.1078   -2.9603   -2.3468 C   0  0  0  0  0  0  0  0  0  0  0  0
   -3.4218   -4.8245   -1.6785 F   0  0  0  0  0  0  0  0  0  0  0  0
   -2.8148   -3.6751   -1.3681 C   0  0  0  0  0  0  0  0  0  0  0  0
   -3.5191   -3.8594    0.8951 F   0  0  0  0  0  0  0  0  0  0  0  0
   -2.8698   -3.1762   -0.0564 C   0  0  0  0  0  0  0  0  0  0  0  0
   -2.2989   -1.5484    1.5229 F   0  0  0  0  0  0  0  0  0  0  0  0
   -2.2251   -1.9657    0.2390 C   0  0  0  0  0  0  0  0  0  0  0  0
   -1.8067    1.2597    0.3715 C   0  0  0  0  0  0  0  0  0  0  0  0
   -3.0494    1.0599   -1.6586 F   0  0  0  0  0  0  0  0  0  0  0  0
   -2.8994    1.6196   -0.4373 C   0  0  0  0  0  0  0  0  0  0  0  0
   -4.8952    2.8552   -0.8700 F   0  0  0  0  0  0  0  0  0  0  0  0
   -3.8756    2.5546   -0.0572 C   0  0  0  0  0  0  0  0  0  0  0  0
   -4.6809    4.0788    1.5796 F   0  0  0  0  0  0  0  0  0  0  0  0
   -3.7680    3.1820    1.1945 C   0  0  0  0  0  0  0  0  0  0  0  0
   -2.5736    3.4614    3.2268 F   0  0  0  0  0  0  0  0  0  0  0  0
   -2.6899    2.8635    2.0340 C   0  0  0  0  0  0  0  0  0  0  0  0
   -0.7268    1.6802    2.4743 F   0  0  0  0  0  0  0  0  0  0  0  0
   -1.7389    1.9194    1.6086 C   0  0  0  0  0  0  0  0  0  0  0  0
   -0.7241    0.1474   -0.1783 B   0  0  0  0  0  0  0  0  0  0  0  0
  1 20  1  0  0  0  0
  1 24  1  0  0  0  0
  2  1  1  0  0  0  0
  3  2  1  0  0  0  0
  4 54  1  0  0  0  0
  5  4  1  0  0  0  0
  6  4  2  0  0  0  0
  7 16  1  0  0  0  0
  7  6  1  0  0  0  0
  8  7  1  0  0  0  0
  8 11  1  0  0  0  0
  9  8  1  0  0  0  0
 10  8  1  0  0  0  0
 12 13  1  0  0  0  0
 12  7  1  0  0  0  0
 14 12  1  0  0  0  0
 15 12  1  0  0  0  0
 16 18  1  0  0  0  0
 16 17  1  0  0  0  0
 19 16  1  0  0  0  0
 20 21  1  0  0  0  0
 20 23  1  0  0  0  0
 22 20  1  0  0  0  0
 24 27  1  0  0  0  0
 24 25  1  0  0  0  0
 26 24  1  0  0  0  0
 28  1  1  0  0  0  0
 28 31  1  0  0  0  0
 29 28  1  0  0  0  0
 30 28  1  0  0  0  0
 32 54  1  0  0  0  0
 32 42  1  0  0  0  0
 33 34  1  0  0  0  0
 34 32  2  0  0  0  0
 35 36  1  0  0  0  0
 36 34  1  0  0  0  0
 36 38  2  0  0  0  0
 37 38  1  0  0  0  0
 38 40  1  0  0  0  0
 40 42  2  0  0  0  0
 40 39  1  0  0  0  0
 42 41  1  0  0  0  0
 43 53  1  0  0  0  0
 44 45  1  0  0  0  0
 45 47  1  0  0  0  0
 45 43  2  0  0  0  0
 46 47  1  0  0  0  0
 47 49  2  0  0  0  0
 49 48  1  0  0  0  0
 49 51  1  0  0  0  0
 51 50  1  0  0  0  0
 53 51  2  0  0  0  0
 53 52  1  0  0  0  0
 54 43  1  0  0  0  0
 54  3  1  0  0  0  0
M  END
