3,9
 OpenBabel05122313053D

 22 24  0  0  1  0  0  0  0  0999 V2000
   -2.2622    0.2188   -1.2250 N   0  0  0  0  0  0  0  0  0  0  0  0
   -2.3427   -1.4215    0.8284 S   0  0  0  0  0  0  0  0  0  0  0  0
    0.5904   -0.3710   -1.9787 C   0  0  0  0  0  3  0  0  0  0  0  0
    0.2001    0.4228   -2.6255 H   0  0  0  0  0  0  0  0  0  0  0  0
    1.8698   -0.9990   -2.0508 C   0  0  0  0  0  0  0  0  0  0  0  0
    2.6599   -0.7690   -2.7748 H   0  0  0  0  0  0  0  0  0  0  0  0
    1.9350   -2.0013   -1.0130 C   0  0  0  0  0  0  0  0  0  0  0  0
    2.7794   -2.6698   -0.8106 H   0  0  0  0  0  0  0  0  0  0  0  0
    0.6927   -1.9845   -0.3069 C   0  0  0  0  0  3  0  0  0  0  0  0
    0.4199   -2.6404    0.5290 H   0  0  0  0  0  0  0  0  0  0  0  0
   -0.1647   -0.9888   -0.9113 C   0  0  2  0  0  3  0  0  0  0  0  0
   -1.5394   -0.6486   -0.5656 C   0  0  0  0  0  0  0  0  0  0  0  0
   -3.5190    0.3481   -0.6734 C   0  0  0  0  0  0  0  0  0  0  0  0
   -3.7693   -0.4745    0.4722 C   0  0  0  0  0  0  0  0  0  0  0  0
   -5.0043   -0.4523    1.1390 C   0  0  0  0  0  0  0  0  0  0  0  0
   -5.1878   -1.0863    2.0183 H   0  0  0  0  0  0  0  0  0  0  0  0
   -5.9984    0.4065    0.6519 C   0  0  0  0  0  0  0  0  0  0  0  0
   -6.9738    0.4424    1.1598 H   0  0  0  0  0  0  0  0  0  0  0  0
   -5.7679    1.2254   -0.4765 C   0  0  0  0  0  0  0  0  0  0  0  0
   -6.5681    1.8903   -0.8340 H   0  0  0  0  0  0  0  0  0  0  0  0
   -4.5396    1.2034   -1.1421 C   0  0  0  0  0  0  0  0  0  0  0  0
   -4.3432    1.8344   -2.0204 H   0  0  0  0  0  0  0  0  0  0  0  0
  1 13  1  0  0  0  0
  1 12  2  0  0  0  0
  3 11  1  0  0  0  0
  4  3  1  0  0  0  0
  5  3  1  0  0  0  0
  5  7  2  0  0  0  0
  6  5  1  0  0  0  0
  7  8  1  0  0  0  0
  7  9  1  0  0  0  0
  9 10  1  0  0  0  0
 11 12  1  6  0  0  0
 11  9  1  0  0  0  0
 12  2  1  0  0  0  0
 13 14  1  0  0  0  0
 14  2  1  0  0  0  0
 14 15  2  0  0  0  0
 15 16  1  0  0  0  0
 17 15  1  0  0  0  0
 17 18  1  0  0  0  0
 19 17  2  0  0  0  0
 20 19  1  0  0  0  0
 21 13  2  0  0  0  0
 21 19  1  0  0  0  0
 22 21  1  0  0  0  0
M  END
