1,2
 OpenBabel05122313053D

 80 80  0  0  1  0  0  0  0  0999 V2000
    2.7869    0.3505    0.0002 C   0  0  0  0  0  3  0  0  0  0  0  0
    0.5116   -0.0804    2.6504 C   0  0  0  0  0  3  0  0  0  0  0  0
    0.6141   -0.5664   -1.2467 C   0  0  0  0  0  0  0  0  0  0  0  0
    0.3084   -1.3642   -0.0868 C   0  0  1  0  0  3  0  0  0  0  0  0
   -0.9116   -0.8680    0.4850 C   0  0  0  0  0  0  0  0  0  0  0  0
   -1.4271    0.1570   -0.3761 C   0  0  0  0  0  0  0  0  0  0  0  0
   -0.4649    0.3832   -1.4441 C   0  0  0  0  0  0  0  0  0  0  0  0
    1.8678   -0.7794   -2.0678 C   0  0  0  0  0  0  0  0  0  0  0  0
    3.1649   -0.2408   -1.3699 C   0  0  0  0  0  0  0  0  0  0  0  0
    3.8397    0.8726   -2.1998 C   0  0  0  0  0  0  0  0  0  0  0  0
    4.2069   -1.3715   -1.2205 C   0  0  0  0  0  0  0  0  0  0  0  0
   -1.4801   -1.3251    1.8055 C   0  0  0  0  0  0  0  0  0  0  0  0
   -0.9223   -0.5052    3.0034 C   0  0  0  0  0  0  0  0  0  0  0  0
   -1.7708    0.7535    3.2691 C   0  0  0  0  0  0  0  0  0  0  0  0
   -0.9401   -1.3797    4.2717 C   0  0  0  0  0  0  0  0  0  0  0  0
    1.0164   -2.6217    0.3474 C   0  0  0  0  0  0  0  0  0  0  0  0
    0.4853   -3.9652   -0.2653 C   0  0  0  0  0  0  0  0  0  0  0  0
    0.5953   -3.9764   -1.7997 C   0  0  0  0  0  0  0  0  0  0  0  0
   -0.9815   -4.2331    0.1146 C   0  0  0  0  0  0  0  0  0  0  0  0
    1.3648   -5.0921    0.3088 C   0  0  0  0  0  0  0  0  0  0  0  0
   -2.7985    0.7551   -0.1773 C   0  0  0  0  0  0  0  0  0  0  0  0
   -4.0338   -0.0400   -0.7536 C   0  0  0  0  0  0  0  0  0  0  0  0
   -3.7614   -0.7045   -2.1138 C   0  0  0  0  0  0  0  0  0  0  0  0
   -4.4933   -1.1523    0.2092 C   0  0  0  0  0  0  0  0  0  0  0  0
   -5.1826    0.9771   -0.8958 C   0  0  0  0  0  0  0  0  0  0  0  0
   -0.5882    1.2879   -2.6993 C   0  0  0  0  0  0  0  0  0  0  0  0
   -1.7810    2.2680   -2.6949 C   0  0  0  0  0  0  0  0  0  0  0  0
    0.6621    2.1732   -2.9012 C   0  0  0  0  0  0  0  0  0  0  0  0
   -0.7558    0.3636   -3.9339 C   0  0  0  0  0  0  0  0  0  0  0  0
    2.7835   -0.4463    0.7982 H   0  0  0  0  0  0  0  0  0  0  0  0
    3.5579    1.0699    0.3303 H   0  0  0  0  0  0  0  0  0  0  0  0
    0.9183    0.5800    3.4394 H   0  0  0  0  0  0  0  0  0  0  0  0
    1.1853   -0.9671    2.6134 H   0  0  0  0  0  0  0  0  0  0  0  0
    1.9725   -1.8630   -2.2559 H   0  0  0  0  0  0  0  0  0  0  0  0
    1.7587   -0.3243   -3.0661 H   0  0  0  0  0  0  0  0  0  0  0  0
    3.9882    0.5575   -3.2537 H   0  0  0  0  0  0  0  0  0  0  0  0
    4.8362    1.1105   -1.7753 H   0  0  0  0  0  0  0  0  0  0  0  0
    3.2550    1.8105   -2.1918 H   0  0  0  0  0  0  0  0  0  0  0  0
    3.8093   -2.2359   -0.6508 H   0  0  0  0  0  0  0  0  0  0  0  0
    5.1058   -1.0049   -0.6846 H   0  0  0  0  0  0  0  0  0  0  0  0
    4.5343   -1.7473   -2.2130 H   0  0  0  0  0  0  0  0  0  0  0  0
   -2.5824   -1.2910    1.8049 H   0  0  0  0  0  0  0  0  0  0  0  0
   -1.2100   -2.3856    1.9549 H   0  0  0  0  0  0  0  0  0  0  0  0
   -1.7463    1.4672    2.4215 H   0  0  0  0  0  0  0  0  0  0  0  0
   -1.3786    1.2997    4.1509 H   0  0  0  0  0  0  0  0  0  0  0  0
   -2.8290    0.4887    3.4738 H   0  0  0  0  0  0  0  0  0  0  0  0
   -0.3198   -2.2906    4.1388 H   0  0  0  0  0  0  0  0  0  0  0  0
   -1.9725   -1.7045    4.5217 H   0  0  0  0  0  0  0  0  0  0  0  0
   -0.5410   -0.8211    5.1426 H   0  0  0  0  0  0  0  0  0  0  0  0
    2.0932   -2.5525    0.1044 H   0  0  0  0  0  0  0  0  0  0  0  0
    0.9647   -2.7192    1.4507 H   0  0  0  0  0  0  0  0  0  0  0  0
    0.0081   -3.1549   -2.2582 H   0  0  0  0  0  0  0  0  0  0  0  0
    0.2051   -4.9331   -2.2030 H   0  0  0  0  0  0  0  0  0  0  0  0
    1.6481   -3.8832   -2.1354 H   0  0  0  0  0  0  0  0  0  0  0  0
   -1.6536   -3.4293   -0.2487 H   0  0  0  0  0  0  0  0  0  0  0  0
   -1.1118   -4.3246    1.2118 H   0  0  0  0  0  0  0  0  0  0  0  0
   -1.3235   -5.1858   -0.3389 H   0  0  0  0  0  0  0  0  0  0  0  0
    1.0473   -6.0804   -0.0820 H   0  0  0  0  0  0  0  0  0  0  0  0
    1.2993   -5.1284    1.4159 H   0  0  0  0  0  0  0  0  0  0  0  0
    2.4311   -4.9472    0.0377 H   0  0  0  0  0  0  0  0  0  0  0  0
   -2.9792    0.8737    0.9073 H   0  0  0  0  0  0  0  0  0  0  0  0
   -2.8126    1.7795   -0.5777 H   0  0  0  0  0  0  0  0  0  0  0  0
   -3.5660    0.0328   -2.9146 H   0  0  0  0  0  0  0  0  0  0  0  0
   -4.6440   -1.2990   -2.4273 H   0  0  0  0  0  0  0  0  0  0  0  0
   -2.8927   -1.3925   -2.0610 H   0  0  0  0  0  0  0  0  0  0  0  0
   -3.7511   -1.9718    0.2773 H   0  0  0  0  0  0  0  0  0  0  0  0
   -5.4409   -1.6007   -0.1540 H   0  0  0  0  0  0  0  0  0  0  0  0
   -4.6777   -0.7615    1.2311 H   0  0  0  0  0  0  0  0  0  0  0  0
   -4.9257    1.7782   -1.6188 H   0  0  0  0  0  0  0  0  0  0  0  0
   -5.4068    1.4622    0.0766 H   0  0  0  0  0  0  0  0  0  0  0  0
   -6.1106    0.4830   -1.2505 H   0  0  0  0  0  0  0  0  0  0  0  0
   -1.7194    2.9789   -1.8506 H   0  0  0  0  0  0  0  0  0  0  0  0
   -2.7612    1.7631   -2.6703 H   0  0  0  0  0  0  0  0  0  0  0  0
   -1.7442    2.8552   -3.6345 H   0  0  0  0  0  0  0  0  0  0  0  0
    1.5694    1.5898   -3.1153 H   0  0  0  0  0  0  0  0  0  0  0  0
    0.8495    2.8089   -2.0136 H   0  0  0  0  0  0  0  0  0  0  0  0
    0.4976    2.8458   -3.7670 H   0  0  0  0  0  0  0  0  0  0  0  0
    0.1016   -0.3215   -4.0729 H   0  0  0  0  0  0  0  0  0  0  0  0
   -0.8454    0.9802   -4.8519 H   0  0  0  0  0  0  0  0  0  0  0  0
   -1.6674   -0.2568   -3.8504 H   0  0  0  0  0  0  0  0  0  0  0  0
  1 31  1  0  0  0  0
  1 30  1  0  0  0  0
  2 13  1  0  0  0  0
  2 32  1  0  0  0  0
  3  4  1  0  0  0  0
  4 16  1  6  0  0  0
  4  5  1  0  0  0  0
  5 12  1  0  0  0  0
  6 21  1  0  0  0  0
  6  5  2  0  0  0  0
  7  3  2  0  0  0  0
  7  6  1  0  0  0  0
  8  9  1  0  0  0  0
  8  3  1  0  0  0  0
  9 11  1  0  0  0  0
  9  1  1  0  0  0  0
 10 38  1  0  0  0  0
 10 37  1  0  0  0  0
 10  9  1  0  0  0  0
 11 40  1  0  0  0  0
 11 39  1  0  0  0  0
 12 43  1  0  0  0  0
 12 13  1  0  0  0  0
 13 14  1  0  0  0  0
 13 15  1  0  0  0  0
 14 46  1  0  0  0  0
 14 45  1  0  0  0  0
 15 48  1  0  0  0  0
 15 49  1  0  0  0  0
 16 51  1  0  0  0  0
 17 19  1  0  0  0  0
 17 20  1  0  0  0  0
 17 16  1  0  0  0  0
 18 17  1  0  0  0  0
 19 56  1  0  0  0  0
 20 59  1  0  0  0  0
 21 61  1  0  0  0  0
 22 21  1  0  0  0  0
 22 24  1  0  0  0  0
 23 65  1  0  0  0  0
 23 22  1  0  0  0  0
 24 66  1  0  0  0  0
 24 68  1  0  0  0  0
 25 22  1  0  0  0  0
 25 70  1  0  0  0  0
 26 27  1  0  0  0  0
 26  7  1  0  0  0  0
 27 73  1  0  0  0  0
 27 72  1  0  0  0  0
 28 26  1  0  0  0  0
 28 76  1  0  0  0  0
 29 80  1  0  0  0  0
 29 26  1  0  0  0  0
 33  2  1  0  0  0  0
 34  8  1  0  0  0  0
 35  8  1  0  0  0  0
 36 10  1  0  0  0  0
 41 11  1  0  0  0  0
 42 12  1  0  0  0  0
 44 14  1  0  0  0  0
 47 15  1  0  0  0  0
 50 16  1  0  0  0  0
 52 18  1  0  0  0  0
 53 18  1  0  0  0  0
 54 18  1  0  0  0  0
 55 19  1  0  0  0  0
 57 19  1  0  0  0  0
 58 20  1  0  0  0  0
 60 20  1  0  0  0  0
 62 21  1  0  0  0  0
 63 23  1  0  0  0  0
 64 23  1  0  0  0  0
 67 24  1  0  0  0  0
 69 25  1  0  0  0  0
 71 25  1  0  0  0  0
 74 27  1  0  0  0  0
 75 28  1  0  0  0  0
 77 28  1  0  0  0  0
 78 29  1  0  0  0  0
 79 29  1  0  0  0  0
M  END
