1,20
 OpenBabel05122313053D

 20 21  0  0  0  0  0  0  0  0999 V2000
    1.5426   -0.9995   -0.9173 C   0  0  0  0  0  3  0  0  0  0  0  0
    2.0501   -1.0408   -2.2337 C   0  0  0  0  0  0  0  0  0  0  0  0
    1.5426   -0.4768   -3.0368 H   0  0  0  0  0  0  0  0  0  0  0  0
    3.1970   -1.7863   -2.5644 C   0  0  0  0  0  0  0  0  0  0  0  0
    3.5662   -1.7980   -3.6029 H   0  0  0  0  0  0  0  0  0  0  0  0
    3.8741   -2.5171   -1.5722 C   0  0  0  0  0  0  0  0  0  0  0  0
    4.7723   -3.1003   -1.8275 H   0  0  0  0  0  0  0  0  0  0  0  0
    3.3987   -2.4975   -0.2526 C   0  0  0  0  0  0  0  0  0  0  0  0
    3.9337   -3.0670    0.5247 H   0  0  0  0  0  0  0  0  0  0  0  0
    2.2492   -1.7494    0.0761 C   0  0  0  0  0  0  0  0  0  0  0  0
    1.6683   -1.6361    1.4206 C   0  0  0  0  0  0  0  0  0  0  0  0
    2.1355   -2.2833    2.5849 C   0  0  0  0  0  0  0  0  0  0  0  0
    3.0077   -2.9523    2.5156 H   0  0  0  0  0  0  0  0  0  0  0  0
    1.5079   -2.0884    3.8233 C   0  0  0  0  0  0  0  0  0  0  0  0
    1.8867   -2.6029    4.7195 H   0  0  0  0  0  0  0  0  0  0  0  0
    0.3965   -1.2329    3.9153 C   0  0  0  0  0  0  0  0  0  0  0  0
   -0.0984   -1.0689    4.8855 H   0  0  0  0  0  0  0  0  0  0  0  0
   -0.0889   -0.5737    2.7713 C   0  0  0  0  0  0  0  0  0  0  0  0
   -0.9458    0.1111    2.8482 H   0  0  0  0  0  0  0  0  0  0  0  0
    0.5359   -0.7696    1.5252 C   0  0  0  0  0  3  0  0  0  0  0  0
  1 10  1  0  0  0  0
  2  1  2  0  0  0  0
  3  2  1  0  0  0  0
  4  2  1  0  0  0  0
  4  6  2  0  0  0  0
  5  4  1  0  0  0  0
  6  8  1  0  0  0  0
  7  6  1  0  0  0  0
  8 10  2  0  0  0  0
  8  9  1  0  0  0  0
 10 11  1  0  0  0  0
 11 20  2  0  0  0  0
 11 12  1  0  0  0  0
 12 14  2  0  0  0  0
 13 12  1  0  0  0  0
 14 16  1  0  0  0  0
 14 15  1  0  0  0  0
 16 17  1  0  0  0  0
 18 19  1  0  0  0  0
 18 16  2  0  0  0  0
 20 18  1  0  0  0  0
M  END
