1,3
 OpenBabel05122313053D

 49 52  0  0  1  0  0  0  0  0999 V2000
   -1.4131    0.3153    0.2205 C   0  0  0  0  0  3  0  0  0  0  0  0
   -0.7939    1.3948   -0.3358 C   0  0  0  0  0  0  0  0  0  0  0  0
    0.6824    1.1304   -0.1385 C   0  0  1  0  0  3  0  0  0  0  0  0
    1.2553    0.0527   -0.9047 C   0  0  0  0  0  3  0  0  0  0  0  0
   -3.5975   -0.1440   -0.9083 C   0  0  0  0  0  0  0  0  0  0  0  0
   -4.9517   -0.5004   -0.8640 C   0  0  0  0  0  0  0  0  0  0  0  0
   -5.5905   -0.7238    0.3679 C   0  0  0  0  0  0  0  0  0  0  0  0
   -4.8591   -0.5788    1.5584 C   0  0  0  0  0  0  0  0  0  0  0  0
   -3.5010   -0.2331    1.5160 C   0  0  0  0  0  0  0  0  0  0  0  0
   -2.8420   -0.0119    0.2837 C   0  0  0  0  0  0  0  0  0  0  0  0
   -2.6131    3.1228   -0.6471 C   0  0  0  0  0  0  0  0  0  0  0  0
   -3.0841    4.2994   -1.2416 C   0  0  0  0  0  0  0  0  0  0  0  0
   -2.2731    5.0224   -2.1336 C   0  0  0  0  0  0  0  0  0  0  0  0
   -0.9811    4.5545   -2.4220 C   0  0  0  0  0  0  0  0  0  0  0  0
   -0.5086    3.3755   -1.8312 C   0  0  0  0  0  0  0  0  0  0  0  0
   -1.3167    2.6307   -0.9380 C   0  0  0  0  0  0  0  0  0  0  0  0
    0.8643    2.8921    1.6516 C   0  0  0  0  0  0  0  0  0  0  0  0
    1.4953    3.9907    2.2461 C   0  0  0  0  0  0  0  0  0  0  0  0
    2.7090    4.4743    1.7273 C   0  0  0  0  0  0  0  0  0  0  0  0
    3.2677    3.8568    0.5985 C   0  0  0  0  0  0  0  0  0  0  0  0
    2.6353    2.7529    0.0063 C   0  0  0  0  0  0  0  0  0  0  0  0
    1.4351    2.2325    0.5383 C   0  0  0  0  0  0  0  0  0  0  0  0
    3.6844   -0.1662   -0.0779 C   0  0  0  0  0  0  0  0  0  0  0  0
    4.9985   -0.5908   -0.3031 C   0  0  0  0  0  0  0  0  0  0  0  0
    5.3564   -1.1965   -1.5214 C   0  0  0  0  0  0  0  0  0  0  0  0
    4.3791   -1.3616   -2.5136 C   0  0  0  0  0  0  0  0  0  0  0  0
    3.0636   -0.9307   -2.2872 C   0  0  0  0  0  0  0  0  0  0  0  0
    2.6825   -0.3262   -1.0663 C   0  0  0  0  0  0  0  0  0  0  0  0
   -3.0928    0.0273   -1.8693 H   0  0  0  0  0  0  0  0  0  0  0  0
   -5.5178   -0.6029   -1.8032 H   0  0  0  0  0  0  0  0  0  0  0  0
   -6.6544   -1.0038    0.4001 H   0  0  0  0  0  0  0  0  0  0  0  0
   -5.3517   -0.7376    2.5303 H   0  0  0  0  0  0  0  0  0  0  0  0
   -2.9319   -0.1199    2.4499 H   0  0  0  0  0  0  0  0  0  0  0  0
   -3.2486    2.5767    0.0643 H   0  0  0  0  0  0  0  0  0  0  0  0
   -4.0945    4.6635   -0.9984 H   0  0  0  0  0  0  0  0  0  0  0  0
   -2.6446    5.9499   -2.5955 H   0  0  0  0  0  0  0  0  0  0  0  0
   -0.3336    5.1141   -3.1149 H   0  0  0  0  0  0  0  0  0  0  0  0
    0.5034    3.0134   -2.0665 H   0  0  0  0  0  0  0  0  0  0  0  0
   -0.0983    2.5283    2.0408 H   0  0  0  0  0  0  0  0  0  0  0  0
    1.0322    4.4815    3.1159 H   0  0  0  0  0  0  0  0  0  0  0  0
    3.2062    5.3396    2.1912 H   0  0  0  0  0  0  0  0  0  0  0  0
    4.2023    4.2431    0.1635 H   0  0  0  0  0  0  0  0  0  0  0  0
    3.0706    2.2976   -0.8938 H   0  0  0  0  0  0  0  0  0  0  0  0
    3.4257    0.3025    0.8796 H   0  0  0  0  0  0  0  0  0  0  0  0
    5.7553   -0.4485    0.4839 H   0  0  0  0  0  0  0  0  0  0  0  0
    6.3895   -1.5345   -1.6928 H   0  0  0  0  0  0  0  0  0  0  0  0
    4.6403   -1.8314   -3.4746 H   0  0  0  0  0  0  0  0  0  0  0  0
    2.2988   -1.0786   -3.0648 H   0  0  0  0  0  0  0  0  0  0  0  0
    0.6624   -0.2045   -1.7977 H   0  0  0  0  0  0  0  0  0  0  0  0
  1 10  1  0  0  0  0
  2  3  1  0  0  0  0
  2  1  2  0  0  0  0
  3  4  1  6  0  0  0
  3 22  1  0  0  0  0
  5  6  2  0  0  0  0
  5 10  1  0  0  0  0
  6  7  1  0  0  0  0
  7 31  1  0  0  0  0
  7  8  2  0  0  0  0
  8 32  1  0  0  0  0
  9  8  1  0  0  0  0
  9 33  1  0  0  0  0
 10  9  2  0  0  0  0
 11 34  1  0  0  0  0
 12 35  1  0  0  0  0
 12 11  2  0  0  0  0
 13 12  1  0  0  0  0
 14 13  2  0  0  0  0
 14 15  1  0  0  0  0
 15 16  2  0  0  0  0
 16 11  1  0  0  0  0
 16  2  1  0  0  0  0
 17 39  1  0  0  0  0
 17 18  1  0  0  0  0
 18 40  1  0  0  0  0
 19 41  1  0  0  0  0
 19 18  2  0  0  0  0
 20 19  1  0  0  0  0
 21 22  1  0  0  0  0
 21 20  2  0  0  0  0
 22 17  2  0  0  0  0
 23 44  1  0  0  0  0
 24 23  1  0  0  0  0
 24 45  1  0  0  0  0
 25 24  2  0  0  0  0
 26 27  2  0  0  0  0
 26 25  1  0  0  0  0
 27 28  1  0  0  0  0
 28  4  1  0  0  0  0
 28 23  2  0  0  0  0
 29  5  1  0  0  0  0
 30  6  1  0  0  0  0
 36 13  1  0  0  0  0
 37 14  1  0  0  0  0
 38 15  1  0  0  0  0
 42 20  1  0  0  0  0
 43 21  1  0  0  0  0
 46 25  1  0  0  0  0
 47 26  1  0  0  0  0
 48 27  1  0  0  0  0
 49  4  1  0  0  0  0
M  END
