1,16
 OpenBabel05122313053D

 28 29  0  0  0  0  0  0  0  0999 V2000
    1.2547   -1.3709   -0.2426 C   0  0  0  0  0  2  0  0  0  0  0  0
    0.6955   -2.6803   -0.1559 C   0  0  0  0  0  0  0  0  0  0  0  0
    2.7106   -1.1845   -0.3166 C   0  0  0  0  0  0  0  0  0  0  0  0
    3.6086   -2.0222    0.3958 C   0  0  0  0  0  0  0  0  0  0  0  0
    4.9908   -1.8121    0.3357 C   0  0  0  0  0  0  0  0  0  0  0  0
    5.5141   -0.7751   -0.4577 C   0  0  0  0  0  0  0  0  0  0  0  0
    4.6428    0.0444   -1.1944 C   0  0  0  0  0  0  0  0  0  0  0  0
    3.2576   -0.1524   -1.1218 C   0  0  0  0  0  0  0  0  0  0  0  0
    1.3017   -3.6013   -0.1880 H   0  0  0  0  0  0  0  0  0  0  0  0
    3.2036   -2.8274    1.0281 H   0  0  0  0  0  0  0  0  0  0  0  0
    5.6693   -2.4593    0.9126 H   0  0  0  0  0  0  0  0  0  0  0  0
    6.6018   -0.6131   -0.5066 H   0  0  0  0  0  0  0  0  0  0  0  0
    5.0476    0.8436   -1.8344 H   0  0  0  0  0  0  0  0  0  0  0  0
    2.5673    0.4750   -1.7053 H   0  0  0  0  0  0  0  0  0  0  0  0
   -0.6956   -2.6803   -0.1559 C   0  0  0  0  0  0  0  0  0  0  0  0
   -1.2547   -1.3708   -0.2426 C   0  0  0  0  0  2  0  0  0  0  0  0
   -2.7106   -1.1845   -0.3166 C   0  0  0  0  0  0  0  0  0  0  0  0
   -3.6086   -2.0221    0.3959 C   0  0  0  0  0  0  0  0  0  0  0  0
   -4.9908   -1.8120    0.3358 C   0  0  0  0  0  0  0  0  0  0  0  0
   -5.5142   -0.7750   -0.4577 C   0  0  0  0  0  0  0  0  0  0  0  0
   -4.6429    0.0444   -1.1945 C   0  0  0  0  0  0  0  0  0  0  0  0
   -3.2576   -0.1524   -1.1219 C   0  0  0  0  0  0  0  0  0  0  0  0
   -2.5673    0.4749   -1.7054 H   0  0  0  0  0  0  0  0  0  0  0  0
   -5.0476    0.8435   -1.8346 H   0  0  0  0  0  0  0  0  0  0  0  0
   -6.6019   -0.6131   -0.5066 H   0  0  0  0  0  0  0  0  0  0  0  0
   -5.6694   -2.4592    0.9128 H   0  0  0  0  0  0  0  0  0  0  0  0
   -3.2036   -2.8272    1.0283 H   0  0  0  0  0  0  0  0  0  0  0  0
   -1.3018   -3.6012   -0.1880 H   0  0  0  0  0  0  0  0  0  0  0  0
  1  2  1  0  0  0  0
  2 15  2  0  0  0  0
  3  1  1  0  0  0  0
  3  4  1  0  0  0  0
  4 10  1  0  0  0  0
  5  4  2  0  0  0  0
  5 11  1  0  0  0  0
  6  5  1  0  0  0  0
  7  8  1  0  0  0  0
  7  6  2  0  0  0  0
  8  3  2  0  0  0  0
  9  2  1  0  0  0  0
 12  6  1  0  0  0  0
 13  7  1  0  0  0  0
 14  8  1  0  0  0  0
 16 15  1  0  0  0  0
 17 16  1  0  0  0  0
 17 18  1  0  0  0  0
 18 27  1  0  0  0  0
 19 18  2  0  0  0  0
 19 26  1  0  0  0  0
 20 19  1  0  0  0  0
 21 22  1  0  0  0  0
 21 20  2  0  0  0  0
 22 17  2  0  0  0  0
 23 22  1  0  0  0  0
 24 21  1  0  0  0  0
 25 20  1  0  0  0  0
 28 15  1  0  0  0  0
M  END
