1,9
 OpenBabel05122313053D

 30 32  0  0  0  0  0  0  0  0999 V2000
   -1.7870    0.7146    0.2349 C   0  0  0  0  0  3  0  0  0  0  0  0
   -2.4569   -1.5225   -0.2653 N   0  0  0  0  0  0  0  0  0  0  0  0
   -0.9515   -3.0733   -0.6673 N   0  0  0  0  0  0  0  0  0  0  0  0
   -3.1767   -2.6943   -0.5295 C   0  0  0  0  0  0  0  0  0  0  0  0
   -2.8686   -0.1936    0.0618 C   0  0  0  0  0  0  0  0  0  0  0  0
   -2.1389    2.0444    0.5488 C   0  0  0  0  0  0  0  0  0  0  0  0
   -1.3398    2.7895    0.6881 H   0  0  0  0  0  0  0  0  0  0  0  0
   -6.1766    3.1980    0.2761 F   0  0  0  0  0  0  0  0  0  0  0  0
   -1.0889   -1.7487   -0.3504 C   0  0  0  0  0  2  0  0  0  0  0  0
   -2.1969   -3.6897   -0.7900 C   0  0  0  0  0  0  0  0  0  0  0  0
   -4.8800   -4.3547   -0.8909 C   0  0  0  0  0  0  0  0  0  0  0  0
   -5.9434   -4.6325   -0.9345 H   0  0  0  0  0  0  0  0  0  0  0  0
   -3.4755    2.4537    0.6812 C   0  0  0  0  0  0  0  0  0  0  0  0
   -3.7189    3.5002    0.9179 H   0  0  0  0  0  0  0  0  0  0  0  0
   -6.2982    1.9016    2.0218 F   0  0  0  0  0  0  0  0  0  0  0  0
   -4.5117    1.5221    0.5031 C   0  0  0  0  0  0  0  0  0  0  0  0
   -6.8111    1.1157    0.0541 F   0  0  0  0  0  0  0  0  0  0  0  0
   -4.5415   -3.0282   -0.5792 C   0  0  0  0  0  0  0  0  0  0  0  0
   -5.3337   -2.2973   -0.3863 H   0  0  0  0  0  0  0  0  0  0  0  0
   -4.2114    0.1846    0.1896 C   0  0  0  0  0  0  0  0  0  0  0  0
   -5.0391   -0.5164    0.0444 H   0  0  0  0  0  0  0  0  0  0  0  0
   -2.5335   -5.0126   -1.1015 C   0  0  0  0  0  0  0  0  0  0  0  0
   -1.7590   -5.7661   -1.3018 H   0  0  0  0  0  0  0  0  0  0  0  0
   -5.9445    1.9344    0.7088 C   0  0  0  0  0  0  0  0  0  0  0  0
    0.3070   -3.7683   -0.8628 C   0  0  0  0  0  0  0  0  0  0  0  0
    0.3837   -4.6278   -0.1668 H   0  0  0  0  0  0  0  0  0  0  0  0
    1.1303   -3.0606   -0.6662 H   0  0  0  0  0  0  0  0  0  0  0  0
    0.3844   -4.1429   -1.9035 H   0  0  0  0  0  0  0  0  0  0  0  0
   -3.8983   -5.3333   -1.1484 C   0  0  0  0  0  0  0  0  0  0  0  0
   -4.2058   -6.3613   -1.3896 H   0  0  0  0  0  0  0  0  0  0  0  0
  1  6  1  0  0  0  0
  2  5  1  0  0  0  0
  3  9  1  0  0  0  0
  4  2  1  0  0  0  0
  5 20  1  0  0  0  0
  5  1  2  0  0  0  0
  6 13  2  0  0  0  0
  6  7  1  0  0  0  0
  8 24  1  0  0  0  0
  9  2  1  0  0  0  0
 10  3  1  0  0  0  0
 10  4  2  0  0  0  0
 11 18  2  0  0  0  0
 12 11  1  0  0  0  0
 13 14  1  0  0  0  0
 16 13  1  0  0  0  0
 16 24  1  0  0  0  0
 17 24  1  0  0  0  0
 18  4  1  0  0  0  0
 18 19  1  0  0  0  0
 20 16  2  0  0  0  0
 21 20  1  0  0  0  0
 22 10  1  0  0  0  0
 23 22  1  0  0  0  0
 24 15  1  0  0  0  0
 25  3  1  0  0  0  0
 25 27  1  0  0  0  0
 25 26  1  0  0  0  0
 28 25  1  0  0  0  0
 29 22  2  0  0  0  0
 29 11  1  0  0  0  0
 30 29  1  0  0  0  0
M  END
