19,20
 OpenBabel05122313053D

 30 29  0  0  0  0  0  0  0  0999 V2000
   -2.5924    0.9469   -0.1249 N   0  0  0  0  0  0  0  0  0  0  0  0
   -2.8948   -0.0547   -0.0509 H   0  0  0  0  0  0  0  0  0  0  0  0
   -0.6966    2.2913   -0.2750 N   0  0  0  0  0  0  0  0  0  0  0  0
   -1.1414    3.1051    0.1650 H   0  0  0  0  0  0  0  0  0  0  0  0
    0.7007    2.2952   -0.1319 N   0  0  0  0  0  0  0  0  0  0  0  0
    1.1574    3.0679   -0.6337 H   0  0  0  0  0  0  0  0  0  0  0  0
    2.5932    0.9394   -0.2010 N   0  0  0  0  0  0  0  0  0  0  0  0
    2.8955   -0.0610   -0.1141 H   0  0  0  0  0  0  0  0  0  0  0  0
   -4.8675    1.4819   -0.8135 C   0  0  0  0  0  0  0  0  0  0  0  0
   -4.6735    1.0634   -1.8201 H   0  0  0  0  0  0  0  0  0  0  0  0
   -5.6249    2.2843   -0.9053 H   0  0  0  0  0  0  0  0  0  0  0  0
   -5.2977    0.6770   -0.1823 H   0  0  0  0  0  0  0  0  0  0  0  0
   -3.8239    2.6384    1.2006 C   0  0  0  0  0  0  0  0  0  0  0  0
   -2.8859    3.0156    1.6574 H   0  0  0  0  0  0  0  0  0  0  0  0
   -4.2431    1.8783    1.8901 H   0  0  0  0  0  0  0  0  0  0  0  0
   -4.5379    3.4837    1.1372 H   0  0  0  0  0  0  0  0  0  0  0  0
   -3.5825    2.0251   -0.1875 C   0  0  0  0  0  0  0  0  0  0  0  0
   -3.1668    2.8075   -0.8640 H   0  0  0  0  0  0  0  0  0  0  0  0
   -1.2729    1.0488   -0.1701 C   0  0  0  0  0  2  0  0  0  0  0  0
    1.2763    1.0521   -0.1035 C   0  0  0  0  0  2  0  0  0  0  0  0
    3.5871    2.0120   -0.2952 C   0  0  0  0  0  0  0  0  0  0  0  0
    3.1927    2.7729   -1.0124 H   0  0  0  0  0  0  0  0  0  0  0  0
    3.8045    2.6868    1.0669 C   0  0  0  0  0  0  0  0  0  0  0  0
    2.8533    3.0765    1.4799 H   0  0  0  0  0  0  0  0  0  0  0  0
    4.5175    3.5304    0.9758 H   0  0  0  0  0  0  0  0  0  0  0  0
    4.2169    1.9579    1.7931 H   0  0  0  0  0  0  0  0  0  0  0  0
    4.8767    1.4385   -0.8819 C   0  0  0  0  0  0  0  0  0  0  0  0
    4.6956    0.9785   -1.8729 H   0  0  0  0  0  0  0  0  0  0  0  0
    5.2933    0.6593   -0.2107 H   0  0  0  0  0  0  0  0  0  0  0  0
    5.6392    2.2329   -0.9960 H   0  0  0  0  0  0  0  0  0  0  0  0
  1  2  1  0  0  0  0
  3 19  1  0  0  0  0
  3  5  1  0  0  0  0
  3  4  1  0  0  0  0
  5 20  1  0  0  0  0
  6  5  1  0  0  0  0
  7  8  1  0  0  0  0
  7 20  1  0  0  0  0
  9 17  1  0  0  0  0
  9 12  1  0  0  0  0
 10  9  1  0  0  0  0
 11  9  1  0  0  0  0
 13 14  1  0  0  0  0
 13 15  1  0  0  0  0
 16 13  1  0  0  0  0
 17  1  1  0  0  0  0
 17 13  1  0  0  0  0
 18 17  1  0  0  0  0
 19  1  1  0  0  0  0
 21  7  1  0  0  0  0
 21 23  1  0  0  0  0
 22 21  1  0  0  0  0
 23 24  1  0  0  0  0
 23 26  1  0  0  0  0
 25 23  1  0  0  0  0
 27 21  1  0  0  0  0
 27 29  1  0  0  0  0
 28 27  1  0  0  0  0
 30 27  1  0  0  0  0
M  END
