2,5
 OpenBabel05122313053D

 22 22  0  0  1  0  0  0  0  0999 V2000
   -2.8206   -0.7226   -0.7480 O   0  0  0  0  0  0  0  0  0  0  0  0
    0.6662   -0.6144   -1.8394 C   0  0  0  0  0  3  0  0  0  0  0  0
    1.2333   -0.2397   -2.7040 H   0  0  0  0  0  0  0  0  0  0  0  0
    1.3814   -1.2268   -0.7647 C   0  0  2  0  0  3  0  0  0  0  0  0
    0.6342   -1.6222    0.3955 C   0  0  1  0  0  3  0  0  0  0  0  0
   -0.7898   -1.4616    0.4196 C   0  0  0  0  0  0  0  0  0  0  0  0
   -1.3336   -1.7553    1.3252 H   0  0  0  0  0  0  0  0  0  0  0  0
   -0.7423   -0.4476   -1.8224 C   0  0  0  0  0  3  0  0  0  0  0  0
   -1.2765    0.0453   -2.6439 H   0  0  0  0  0  0  0  0  0  0  0  0
   -1.4823   -0.8986   -0.6907 C   0  0  0  0  0  0  0  0  0  0  0  0
    1.3181   -2.2653    1.5736 C   0  0  0  0  0  0  0  0  0  0  0  0
    2.2452   -1.7323    1.8561 H   0  0  0  0  0  0  0  0  0  0  0  0
    1.5959   -3.3132    1.3328 H   0  0  0  0  0  0  0  0  0  0  0  0
    0.6558   -2.2800    2.4593 H   0  0  0  0  0  0  0  0  0  0  0  0
    2.8731   -1.4116   -0.8449 C   0  0  0  0  0  0  0  0  0  0  0  0
    3.2953   -0.8404   -1.6931 H   0  0  0  0  0  0  0  0  0  0  0  0
    3.1343   -2.4817   -0.9915 H   0  0  0  0  0  0  0  0  0  0  0  0
    3.3831   -1.0711    0.0764 H   0  0  0  0  0  0  0  0  0  0  0  0
   -3.5851   -0.9094    0.4368 C   0  0  0  0  0  0  0  0  0  0  0  0
   -4.6263   -0.6494    0.1740 H   0  0  0  0  0  0  0  0  0  0  0  0
   -3.2365   -0.2364    1.2489 H   0  0  0  0  0  0  0  0  0  0  0  0
   -3.5536   -1.9646    0.7855 H   0  0  0  0  0  0  0  0  0  0  0  0
  1 10  1  0  0  0  0
  1 19  1  0  0  0  0
  2  8  1  0  0  0  0
  2  4  1  0  0  0  0
  3  2  1  0  0  0  0
  4 15  1  1  0  0  0
  4  5  1  0  0  0  0
  5  6  1  0  0  0  0
  5 11  1  6  0  0  0
  6  7  1  0  0  0  0
  8 10  1  0  0  0  0
  9  8  1  0  0  0  0
 10  6  2  0  0  0  0
 11 12  1  0  0  0  0
 11 14  1  0  0  0  0
 13 11  1  0  0  0  0
 15 18  1  0  0  0  0
 16 15  1  0  0  0  0
 17 15  1  0  0  0  0
 19 22  1  0  0  0  0
 19 21  1  0  0  0  0
 20 19  1  0  0  0  0
M  END
