7,11
 OpenBabel05122313053D

 32 33  0  0  1  0  0  0  0  0999 V2000
    1.9866    3.2961   -1.0985 S   0  0  0  0  0  0  0  0  0  0  0  0
    0.9749    1.2922    0.3785 N   0  0  0  0  0  0  0  0  0  0  0  0
    1.1053    0.3844    0.8322 H   0  0  0  0  0  0  0  0  0  0  0  0
    3.0450    0.9096   -0.6245 N   0  0  0  0  0  0  0  0  0  0  0  0
    3.8316    1.3914   -1.0654 H   0  0  0  0  0  0  0  0  0  0  0  0
   -1.3790    1.1579    1.0111 C   0  0  0  0  0  0  0  0  0  0  0  0
   -1.3723   -0.0268    1.8188 C   0  0  0  0  0  3  0  0  0  0  0  0
   -0.4938   -0.4955    2.2805 H   0  0  0  0  0  0  0  0  0  0  0  0
   -2.7247   -0.5045    1.9391 C   0  0  0  0  0  3  0  0  0  0  0  0
   -3.0491   -1.3955    2.4886 H   0  0  0  0  0  0  0  0  0  0  0  0
   -3.5646    0.3905    1.2074 C   0  0  0  0  0  3  0  0  0  0  0  0
   -4.6517    0.3001    1.0937 H   0  0  0  0  0  0  0  0  0  0  0  0
   -2.7457    1.4191    0.6386 C   0  0  0  0  0  0  0  0  0  0  0  0
   -3.0872    2.2581    0.0214 H   0  0  0  0  0  0  0  0  0  0  0  0
   -0.2112    2.0666    0.7142 C   0  0  1  0  0  0  0  0  0  0  0  0
   -0.4370    2.6762   -0.1868 H   0  0  0  0  0  0  0  0  0  0  0  0
    1.9776    1.7629   -0.4129 C   0  0  0  0  0  0  0  0  0  0  0  0
    3.2443   -0.4202   -0.2075 C   0  0  0  0  0  0  0  0  0  0  0  0
    4.5433   -0.8216    0.1797 C   0  0  0  0  0  0  0  0  0  0  0  0
    5.3589   -0.0820    0.1706 H   0  0  0  0  0  0  0  0  0  0  0  0
    4.7881   -2.1406    0.5791 C   0  0  0  0  0  0  0  0  0  0  0  0
    5.8069   -2.4341    0.8747 H   0  0  0  0  0  0  0  0  0  0  0  0
    3.7440   -3.0801    0.6190 C   0  0  0  0  0  0  0  0  0  0  0  0
    3.9380   -4.1129    0.9438 H   0  0  0  0  0  0  0  0  0  0  0  0
    2.4550   -2.6912    0.2247 C   0  0  0  0  0  0  0  0  0  0  0  0
    1.6261   -3.4145    0.2194 H   0  0  0  0  0  0  0  0  0  0  0  0
    2.2030   -1.3782   -0.2002 C   0  0  0  0  0  0  0  0  0  0  0  0
    1.2064   -1.1124   -0.5772 H   0  0  0  0  0  0  0  0  0  0  0  0
    0.0397    3.0299    1.8876 C   0  0  0  0  0  0  0  0  0  0  0  0
    0.8619    3.7185    1.6112 H   0  0  0  0  0  0  0  0  0  0  0  0
    0.3162    2.4721    2.8051 H   0  0  0  0  0  0  0  0  0  0  0  0
   -0.8678    3.6282    2.1023 H   0  0  0  0  0  0  0  0  0  0  0  0
  1 17  2  0  0  0  0
  2 15  1  0  0  0  0
  2  3  1  0  0  0  0
  4 17  1  0  0  0  0
  4 18  1  0  0  0  0
  5  4  1  0  0  0  0
  6  7  1  0  0  0  0
  7  9  1  0  0  0  0
  7  8  1  0  0  0  0
  9 10  1  0  0  0  0
 11  9  1  0  0  0  0
 12 11  1  0  0  0  0
 13  6  2  0  0  0  0
 13 11  1  0  0  0  0
 14 13  1  0  0  0  0
 15 16  1  6  0  0  0
 15  6  1  0  0  0  0
 15 29  1  0  0  0  0
 17  2  1  0  0  0  0
 18 27  2  0  0  0  0
 18 19  1  0  0  0  0
 19 21  2  0  0  0  0
 20 19  1  0  0  0  0
 21 23  1  0  0  0  0
 21 22  1  0  0  0  0
 23 24  1  0  0  0  0
 25 23  2  0  0  0  0
 26 25  1  0  0  0  0
 27 25  1  0  0  0  0
 28 27  1  0  0  0  0
 29 32  1  0  0  0  0
 29 31  1  0  0  0  0
 30 29  1  0  0  0  0
M  END
