5,7
 OpenBabel05122313053D

 45 46  0  0  1  0  0  0  0  0999 V2000
    1.1760   -0.0902   -0.4272 P   0  0  0  0  0  0  0  0  0  0  0  0
   -2.2925   -2.7800   -0.2530 O   0  0  0  0  0  0  0  0  0  0  0  0
   -0.7172   -1.5766    0.7606 O   0  0  0  0  0  0  0  0  0  0  0  0
   -1.0156    1.9670    1.0229 O   0  0  0  0  0  0  0  0  0  0  0  0
   -1.8969   -1.6941    0.0822 C   0  0  0  0  0  3  0  0  0  0  0  0
   -0.1524   -0.2799    0.9837 C   0  0  2  0  0  0  0  0  0  0  0  0
   -1.2001    0.8110    0.7172 C   0  0  0  0  0  3  0  0  0  0  0  0
    0.3308   -0.2118    2.4280 C   0  0  0  0  0  0  0  0  0  0  0  0
    2.5078   -1.3193    0.1010 C   0  0  0  0  0  0  0  0  0  0  0  0
    3.6467   -1.2187   -0.9394 C   0  0  0  0  0  0  0  0  0  0  0  0
    4.7914   -2.1931   -0.6280 C   0  0  0  0  0  0  0  0  0  0  0  0
    4.2872   -3.6365   -0.5272 C   0  0  0  0  0  0  0  0  0  0  0  0
    3.1501   -3.7472    0.4939 C   0  0  0  0  0  0  0  0  0  0  0  0
    2.0035   -2.7720    0.1895 C   0  0  0  0  0  0  0  0  0  0  0  0
    1.9404    1.5954   -0.0247 C   0  0  0  0  0  0  0  0  0  0  0  0
    3.0579    1.6678    1.0304 C   0  0  0  0  0  0  0  0  0  0  0  0
    3.4892    3.1225    1.2772 C   0  0  0  0  0  0  0  0  0  0  0  0
    3.9218    3.8098   -0.0235 C   0  0  0  0  0  0  0  0  0  0  0  0
    2.8176    3.7337   -1.0850 C   0  0  0  0  0  0  0  0  0  0  0  0
    2.3739    2.2861   -1.3363 C   0  0  0  0  0  0  0  0  0  0  0  0
    1.1454   -0.9377    2.6110 H   0  0  0  0  0  0  0  0  0  0  0  0
   -0.5065   -0.4483    3.1164 H   0  0  0  0  0  0  0  0  0  0  0  0
    0.6902    0.8089    2.6529 H   0  0  0  0  0  0  0  0  0  0  0  0
    2.9106   -1.0200    1.0943 H   0  0  0  0  0  0  0  0  0  0  0  0
    3.2276   -1.4475   -1.9450 H   0  0  0  0  0  0  0  0  0  0  0  0
    4.0398   -0.1832   -0.9971 H   0  0  0  0  0  0  0  0  0  0  0  0
    5.2664   -1.8999    0.3355 H   0  0  0  0  0  0  0  0  0  0  0  0
    5.5801   -2.1048   -1.4046 H   0  0  0  0  0  0  0  0  0  0  0  0
    3.9152   -3.9624   -1.5246 H   0  0  0  0  0  0  0  0  0  0  0  0
    5.1191   -4.3228   -0.2635 H   0  0  0  0  0  0  0  0  0  0  0  0
    2.7564   -4.7846    0.5302 H   0  0  0  0  0  0  0  0  0  0  0  0
    3.5506   -3.5311    1.5105 H   0  0  0  0  0  0  0  0  0  0  0  0
    1.2093   -2.8686    0.9530 H   0  0  0  0  0  0  0  0  0  0  0  0
    1.5234   -3.0471   -0.7763 H   0  0  0  0  0  0  0  0  0  0  0  0
    1.0746    2.1722    0.3693 H   0  0  0  0  0  0  0  0  0  0  0  0
    2.7340    1.2030    1.9832 H   0  0  0  0  0  0  0  0  0  0  0  0
    3.9421    1.0884    0.6859 H   0  0  0  0  0  0  0  0  0  0  0  0
    2.6365    3.6831    1.7221 H   0  0  0  0  0  0  0  0  0  0  0  0
    4.3090    3.1528    2.0258 H   0  0  0  0  0  0  0  0  0  0  0  0
    4.2029    4.8662    0.1706 H   0  0  0  0  0  0  0  0  0  0  0  0
    4.8377    3.3093   -0.4124 H   0  0  0  0  0  0  0  0  0  0  0  0
    3.1552    4.1996   -2.0346 H   0  0  0  0  0  0  0  0  0  0  0  0
    1.9390    4.3242   -0.7402 H   0  0  0  0  0  0  0  0  0  0  0  0
    3.2128    1.7185   -1.7989 H   0  0  0  0  0  0  0  0  0  0  0  0
    1.5416    2.2527   -2.0699 H   0  0  0  0  0  0  0  0  0  0  0  0
  1 15  1  0  0  0  0
  1  9  1  0  0  0  0
  1  6  1  0  0  0  0
  2  5  2  0  0  0  0
  3  6  1  0  0  0  0
  5  3  1  0  0  0  0
  6  7  1  6  0  0  0
  6  8  1  0  0  0  0
  7  4  2  0  0  0  0
  8 21  1  0  0  0  0
  8 23  1  0  0  0  0
  8 22  1  0  0  0  0
  9 14  1  0  0  0  0
  9 24  1  0  0  0  0
 10 11  1  0  0  0  0
 10  9  1  0  0  0  0
 11 12  1  0  0  0  0
 11 27  1  0  0  0  0
 12 30  1  0  0  0  0
 12 13  1  0  0  0  0
 13 31  1  0  0  0  0
 13 32  1  0  0  0  0
 14 13  1  0  0  0  0
 14 33  1  0  0  0  0
 15 35  1  0  0  0  0
 15 16  1  0  0  0  0
 16 17  1  0  0  0  0
 16 36  1  0  0  0  0
 17 38  1  0  0  0  0
 17 39  1  0  0  0  0
 18 40  1  0  0  0  0
 18 17  1  0  0  0  0
 19 43  1  0  0  0  0
 19 18  1  0  0  0  0
 20 19  1  0  0  0  0
 20 15  1  0  0  0  0
 25 10  1  0  0  0  0
 26 10  1  0  0  0  0
 28 11  1  0  0  0  0
 29 12  1  0  0  0  0
 34 14  1  0  0  0  0
 37 16  1  0  0  0  0
 41 18  1  0  0  0  0
 42 19  1  0  0  0  0
 44 20  1  0  0  0  0
 45 20  1  0  0  0  0
M  END
