3,5
 OpenBabel05122313053D

 25 25  0  0  1  0  0  0  0  0999 V2000
    2.4300    1.7406   -0.5887 O   0  0  0  0  0  0  0  0  0  0  0  0
    1.1248   -0.3152   -0.5682 C   0  0  1  0  0  3  0  0  0  0  0  0
    0.4501    0.2840   -1.6876 C   0  0  0  0  0  3  0  0  0  0  0  0
   -0.7314   -0.2511   -2.2445 C   0  0  0  0  0  3  0  0  0  0  0  0
   -1.2916   -1.4286   -1.6701 C   0  0  0  0  0  3  0  0  0  0  0  0
   -0.6223   -2.0652   -0.6013 C   0  0  0  0  0  0  0  0  0  0  0  0
    0.5855   -1.5315   -0.0291 C   0  0  0  0  0  0  0  0  0  0  0  0
    2.4150    0.4015   -0.0850 C   0  0  0  0  0  0  0  0  0  0  0  0
    3.6202   -0.2857   -0.7446 C   0  0  0  0  0  0  0  0  0  0  0  0
    2.5735    0.4649    1.4428 C   0  0  0  0  0  0  0  0  0  0  0  0
    1.2084   -2.3160    1.1035 C   0  0  0  0  0  0  0  0  0  0  0  0
    0.8685    1.2234   -2.0718 H   0  0  0  0  0  0  0  0  0  0  0  0
   -1.2419    0.2714   -3.0644 H   0  0  0  0  0  0  0  0  0  0  0  0
   -2.2426   -1.8345   -2.0419 H   0  0  0  0  0  0  0  0  0  0  0  0
   -1.0608   -2.9650   -0.1479 H   0  0  0  0  0  0  0  0  0  0  0  0
    3.5314   -0.2287   -1.8468 H   0  0  0  0  0  0  0  0  0  0  0  0
    3.6887   -1.3513   -0.4524 H   0  0  0  0  0  0  0  0  0  0  0  0
    4.5527    0.2299   -0.4425 H   0  0  0  0  0  0  0  0  0  0  0  0
    2.8415   -0.5051    1.8960 H   0  0  0  0  0  0  0  0  0  0  0  0
    3.3910    1.1781    1.6646 H   0  0  0  0  0  0  0  0  0  0  0  0
    1.6438    0.8285    1.9249 H   0  0  0  0  0  0  0  0  0  0  0  0
    0.7234   -3.3065    1.1877 H   0  0  0  0  0  0  0  0  0  0  0  0
    2.2892   -2.4844    0.9321 H   0  0  0  0  0  0  0  0  0  0  0  0
    1.0944   -1.8103    2.0804 H   0  0  0  0  0  0  0  0  0  0  0  0
    1.7777    2.2566   -0.0735 H   0  0  0  0  0  0  0  0  0  0  0  0
  1  8  1  0  0  0  0
  1 25  1  0  0  0  0
  2  8  1  6  0  0  0
  2  7  1  0  0  0  0
  3  2  1  0  0  0  0
  4  3  1  0  0  0  0
  4  5  1  0  0  0  0
  5  6  1  0  0  0  0
  6 15  1  0  0  0  0
  6  7  2  0  0  0  0
  7 11  1  0  0  0  0
  8 10  1  0  0  0  0
  9 17  1  0  0  0  0
  9 18  1  0  0  0  0
  9  8  1  0  0  0  0
 10 20  1  0  0  0  0
 10 19  1  0  0  0  0
 10 21  1  0  0  0  0
 11 22  1  0  0  0  0
 11 24  1  0  0  0  0
 12  3  1  0  0  0  0
 13  4  1  0  0  0  0
 14  5  1  0  0  0  0
 16  9  1  0  0  0  0
 23 11  1  0  0  0  0
M  END
