1,4
 OpenBabel05122313053D

 40 43  0  0  0  0  0  0  0  0999 V2000
    0.3143    1.2457   -0.0418 C   0  0  0  0  0  3  0  0  0  0  0  0
    1.6131    0.6729    0.0431 C   0  0  0  0  0  0  0  0  0  0  0  0
    1.5869   -0.7499    0.0171 C   0  0  0  0  0  0  0  0  0  0  0  0
    0.2642   -1.2710   -0.0550 C   0  0  0  0  0  3  0  0  0  0  0  0
    2.8868    1.4391    0.0153 C   0  0  0  0  0  0  0  0  0  0  0  0
    4.1477    0.6288   -0.0336 C   0  0  0  0  0  0  0  0  0  0  0  0
    5.3826    1.3054   -0.0413 C   0  0  0  0  0  0  0  0  0  0  0  0
    5.3617    2.4047   -0.0062 H   0  0  0  0  0  0  0  0  0  0  0  0
    6.5812    0.5854   -0.0956 C   0  0  0  0  0  0  0  0  0  0  0  0
    7.5440    1.1192   -0.0987 H   0  0  0  0  0  0  0  0  0  0  0  0
    6.5563   -0.8217   -0.1494 C   0  0  0  0  0  0  0  0  0  0  0  0
    7.4996   -1.3874   -0.1943 H   0  0  0  0  0  0  0  0  0  0  0  0
    5.3330   -1.5010   -0.1483 C   0  0  0  0  0  0  0  0  0  0  0  0
    5.2736   -2.5985   -0.1966 H   0  0  0  0  0  0  0  0  0  0  0  0
    4.1226   -0.7840   -0.0868 C   0  0  0  0  0  0  0  0  0  0  0  0
    2.8344   -1.5530   -0.0923 C   0  0  0  0  0  0  0  0  0  0  0  0
    0.0639    2.6948   -0.0220 C   0  0  0  0  0  0  0  0  0  0  0  0
   -0.6001    3.2992   -1.1166 C   0  0  0  0  0  0  0  0  0  0  0  0
   -0.8929    2.6663   -1.9678 H   0  0  0  0  0  0  0  0  0  0  0  0
   -0.8620    4.6767   -1.1205 C   0  0  0  0  0  0  0  0  0  0  0  0
   -1.3589    5.1351   -1.9893 H   0  0  0  0  0  0  0  0  0  0  0  0
   -0.5061    5.4656   -0.0158 C   0  0  0  0  0  0  0  0  0  0  0  0
   -0.7285    6.5437   -0.0105 H   0  0  0  0  0  0  0  0  0  0  0  0
    0.1484    4.8762    1.0822 C   0  0  0  0  0  0  0  0  0  0  0  0
    0.4429    5.4945    1.9440 H   0  0  0  0  0  0  0  0  0  0  0  0
    0.4520    3.5115    1.0701 C   0  0  0  0  0  0  0  0  0  0  0  0
    1.0008    3.0605    1.9091 H   0  0  0  0  0  0  0  0  0  0  0  0
   -0.0496   -2.7066   -0.0220 C   0  0  0  0  0  0  0  0  0  0  0  0
    0.4428   -3.5601    0.9989 C   0  0  0  0  0  0  0  0  0  0  0  0
    1.1147   -3.1470    1.7644 H   0  0  0  0  0  0  0  0  0  0  0  0
    0.0678   -4.9048    1.0504 C   0  0  0  0  0  0  0  0  0  0  0  0
    0.4474   -5.5479    1.8589 H   0  0  0  0  0  0  0  0  0  0  0  0
   -0.7823   -5.4410    0.0648 C   0  0  0  0  0  0  0  0  0  0  0  0
   -1.0680   -6.5035    0.1017 H   0  0  0  0  0  0  0  0  0  0  0  0
   -1.2526   -4.6189   -0.9710 C   0  0  0  0  0  0  0  0  0  0  0  0
   -1.9008   -5.0360   -1.7570 H   0  0  0  0  0  0  0  0  0  0  0  0
   -0.9002   -3.2619   -1.0084 C   0  0  0  0  0  0  0  0  0  0  0  0
   -1.2606   -2.6094   -1.8172 H   0  0  0  0  0  0  0  0  0  0  0  0
    2.9461    2.6726    0.0281 O   0  0  0  0  0  0  0  0  0  0  0  0
    2.8533   -2.7835   -0.1946 O   0  0  0  0  0  0  0  0  0  0  0  0
  1 17  1  0  0  0  0
  1  2  2  0  0  0  0
  3  2  1  0  0  0  0
  4 28  1  0  0  0  0
  4  3  2  0  0  0  0
  5 39  2  0  0  0  0
  5  2  1  0  0  0  0
  6  5  1  0  0  0  0
  7  6  1  0  0  0  0
  7  8  1  0  0  0  0
  9  7  2  0  0  0  0
 10  9  1  0  0  0  0
 11 13  2  0  0  0  0
 11  9  1  0  0  0  0
 12 11  1  0  0  0  0
 13 15  1  0  0  0  0
 14 13  1  0  0  0  0
 15  6  2  0  0  0  0
 16 15  1  0  0  0  0
 16  3  1  0  0  0  0
 17 26  1  0  0  0  0
 18 17  2  0  0  0  0
 19 18  1  0  0  0  0
 20 18  1  0  0  0  0
 20 22  2  0  0  0  0
 21 20  1  0  0  0  0
 22 23  1  0  0  0  0
 22 24  1  0  0  0  0
 24 25  1  0  0  0  0
 26 24  2  0  0  0  0
 26 27  1  0  0  0  0
 28 29  1  0  0  0  0
 29 31  2  0  0  0  0
 29 30  1  0  0  0  0
 31 32  1  0  0  0  0
 33 34  1  0  0  0  0
 33 31  1  0  0  0  0
 35 33  2  0  0  0  0
 36 35  1  0  0  0  0
 37 35  1  0  0  0  0
 37 28  2  0  0  0  0
 38 37  1  0  0  0  0
 40 16  2  0  0  0  0
M  END
