1,4
 OpenBabel05122313053D

 40 41  0  0  1  0  0  0  0  0999 V2000
    1.1991    0.0327   -0.1905 C   0  0  2  0  0  3  0  0  0  0  0  0
    0.5325    1.2817   -0.0815 C   0  0  0  0  0  0  0  0  0  0  0  0
   -0.8681    1.3581   -0.4551 C   0  0  0  0  0  0  0  0  0  0  0  0
   -1.5174    0.1780   -0.9236 C   0  0  1  0  0  3  0  0  0  0  0  0
   -0.8150   -1.0815   -1.0899 C   0  0  0  0  0  0  0  0  0  0  0  0
   -1.4823   -2.2721   -1.5223 C   0  0  0  0  0  0  0  0  0  0  0  0
   -2.5555   -2.2131   -1.7479 H   0  0  0  0  0  0  0  0  0  0  0  0
   -0.7905   -3.4635   -1.6369 C   0  0  0  0  0  0  0  0  0  0  0  0
   -1.3131   -4.3692   -1.9783 H   0  0  0  0  0  0  0  0  0  0  0  0
    0.5880   -3.5330   -1.2898 C   0  0  0  0  0  0  0  0  0  0  0  0
    1.1233   -4.4905   -1.3725 H   0  0  0  0  0  0  0  0  0  0  0  0
    1.2537   -2.4144   -0.8249 C   0  0  0  0  0  0  0  0  0  0  0  0
    2.3084   -2.4768   -0.5265 H   0  0  0  0  0  0  0  0  0  0  0  0
    0.5786   -1.1566   -0.7239 C   0  0  0  0  0  0  0  0  0  0  0  0
    2.5133   -0.0653    0.2674 O   0  0  0  0  0  0  0  0  0  0  0  0
    3.5205   -0.0509   -0.6817 C   0  0  0  0  0  0  0  0  0  0  0  0
    3.3098    0.0606   -1.8675 O   0  0  0  0  0  0  0  0  0  0  0  0
    4.8580   -0.1701   -0.0016 C   0  0  0  0  0  0  0  0  0  0  0  0
    4.8548   -1.0084    0.7215 H   0  0  0  0  0  0  0  0  0  0  0  0
    5.0560    0.7544    0.5780 H   0  0  0  0  0  0  0  0  0  0  0  0
    5.6484   -0.3072   -0.7589 H   0  0  0  0  0  0  0  0  0  0  0  0
    1.3078    2.4744    0.4351 C   0  0  0  0  0  0  0  0  0  0  0  0
    1.9757    2.1212    1.2453 H   0  0  0  0  0  0  0  0  0  0  0  0
    0.6093    3.1928    0.9048 H   0  0  0  0  0  0  0  0  0  0  0  0
    2.1412    3.1796   -0.6475 C   0  0  0  0  0  0  0  0  0  0  0  0
    2.7196    4.0157   -0.2063 H   0  0  0  0  0  0  0  0  0  0  0  0
    1.5014    3.5985   -1.4488 H   0  0  0  0  0  0  0  0  0  0  0  0
    2.8512    2.4882   -1.1400 H   0  0  0  0  0  0  0  0  0  0  0  0
   -1.6820    2.6259   -0.2998 C   0  0  0  0  0  0  0  0  0  0  0  0
   -1.4423    3.0951    0.6752 H   0  0  0  0  0  0  0  0  0  0  0  0
   -2.7448    2.3231   -0.2384 H   0  0  0  0  0  0  0  0  0  0  0  0
   -1.4982    3.6549   -1.4245 C   0  0  0  0  0  0  0  0  0  0  0  0
   -2.1881    4.5101   -1.2806 H   0  0  0  0  0  0  0  0  0  0  0  0
   -1.7080    3.2177   -2.4214 H   0  0  0  0  0  0  0  0  0  0  0  0
   -0.4681    4.0592   -1.4542 H   0  0  0  0  0  0  0  0  0  0  0  0
   -2.8571    0.2037   -1.2317 O   0  0  0  0  0  0  0  0  0  0  0  0
   -3.1396    0.4354   -2.6120 C   0  0  0  0  0  0  0  0  0  0  0  0
   -4.2377    0.3688   -2.7262 H   0  0  0  0  0  0  0  0  0  0  0  0
   -2.6574   -0.3260   -3.2643 H   0  0  0  0  0  0  0  0  0  0  0  0
   -2.8001    1.4433   -2.9356 H   0  0  0  0  0  0  0  0  0  0  0  0
  1  2  1  0  0  0  0
  1 15  1  1  0  0  0
  2 22  1  0  0  0  0
  3 29  1  0  0  0  0
  3  2  2  0  0  0  0
  4 36  1  1  0  0  0
  4  3  1  0  0  0  0
  5  4  1  0  0  0  0
  5 14  1  0  0  0  0
  6  5  2  0  0  0  0
  7  6  1  0  0  0  0
  8  6  1  0  0  0  0
  8 10  2  0  0  0  0
  9  8  1  0  0  0  0
 10 12  1  0  0  0  0
 11 10  1  0  0  0  0
 12 14  2  0  0  0  0
 12 13  1  0  0  0  0
 14  1  1  0  0  0  0
 16 18  1  0  0  0  0
 16 15  1  0  0  0  0
 17 16  2  0  0  0  0
 18 20  1  0  0  0  0
 18 19  1  0  0  0  0
 21 18  1  0  0  0  0
 22 24  1  0  0  0  0
 22 23  1  0  0  0  0
 25 26  1  0  0  0  0
 25 22  1  0  0  0  0
 27 25  1  0  0  0  0
 28 25  1  0  0  0  0
 29 31  1  0  0  0  0
 29 30  1  0  0  0  0
 32 33  1  0  0  0  0
 32 29  1  0  0  0  0
 34 32  1  0  0  0  0
 35 32  1  0  0  0  0
 37 36  1  0  0  0  0
 38 37  1  0  0  0  0
 39 37  1  0  0  0  0
 40 37  1  0  0  0  0
M  END
