6,15
 OpenBabel05122313053D

 32 33  0  0  1  0  0  0  0  0999 V2000
   -3.7512   -0.4402   -1.4414 O   0  0  0  0  0  0  0  0  0  0  0  0
   -1.0470   -1.2338    2.1658 N   0  0  0  0  0  0  0  0  0  0  0  0
   -1.7066   -1.7611    0.1739 N   0  0  0  0  0  0  0  0  0  0  0  0
   -1.6765    1.4084   -1.0712 N   0  0  0  0  0  0  0  0  0  0  0  0
   -1.0477    2.3922    0.7486 N   0  0  0  0  0  0  0  0  0  0  0  0
   -0.7038   -1.1120    0.8474 C   0  0  0  0  0  2  0  0  0  0  0  0
   -2.2414   -1.9333    2.3144 C   0  0  0  0  0  0  0  0  0  0  0  0
   -2.6596   -2.2630    1.0548 C   0  0  0  0  0  0  0  0  0  0  0  0
   -0.2683   -0.7003    3.2728 C   0  0  0  0  0  0  0  0  0  0  0  0
   -1.7766   -1.9082   -1.2731 C   0  0  0  0  0  0  0  0  0  0  0  0
   -2.5131   -0.7793   -2.0323 C   0  0  2  0  0  0  0  0  0  0  0  0
   -1.7154    0.5218   -2.2257 C   0  0  0  0  0  0  0  0  0  0  0  0
   -2.6375    2.3747   -0.7930 C   0  0  0  0  0  0  0  0  0  0  0  0
   -2.2376    3.0013    0.3547 C   0  0  0  0  0  0  0  0  0  0  0  0
   -0.6882    1.4011   -0.1223 C   0  0  0  0  0  2  0  0  0  0  0  0
   -0.2951    2.7661    1.9356 C   0  0  0  0  0  0  0  0  0  0  0  0
   -4.3997   -1.1412   -1.6354 H   0  0  0  0  0  0  0  0  0  0  0  0
   -2.6787   -2.1476    3.2940 H   0  0  0  0  0  0  0  0  0  0  0  0
   -3.5358   -2.8233    0.7175 H   0  0  0  0  0  0  0  0  0  0  0  0
    0.0172   -1.5100    3.9725 H   0  0  0  0  0  0  0  0  0  0  0  0
   -0.8489    0.0649    3.8252 H   0  0  0  0  0  0  0  0  0  0  0  0
    0.6433   -0.2369    2.8517 H   0  0  0  0  0  0  0  0  0  0  0  0
   -2.2958   -2.8668   -1.4761 H   0  0  0  0  0  0  0  0  0  0  0  0
   -0.7434   -2.0020   -1.6617 H   0  0  0  0  0  0  0  0  0  0  0  0
   -2.6427   -1.1781   -3.0682 H   0  0  0  0  0  0  0  0  0  0  0  0
   -0.6702    0.2799   -2.5012 H   0  0  0  0  0  0  0  0  0  0  0  0
   -2.1759    1.0882   -3.0582 H   0  0  0  0  0  0  0  0  0  0  0  0
   -3.5147    2.5236   -1.4281 H   0  0  0  0  0  0  0  0  0  0  0  0
   -2.6872    3.8264    0.9150 H   0  0  0  0  0  0  0  0  0  0  0  0
    0.0560    3.8143    1.8627 H   0  0  0  0  0  0  0  0  0  0  0  0
    0.5767    2.0915    2.0143 H   0  0  0  0  0  0  0  0  0  0  0  0
   -0.9239    2.6611    2.8417 H   0  0  0  0  0  0  0  0  0  0  0  0
  2  7  1  0  0  0  0
  2  9  1  0  0  0  0
  3  6  1  0  0  0  0
  3  8  1  0  0  0  0
  4 13  1  0  0  0  0
  4 15  1  0  0  0  0
  5 16  1  0  0  0  0
  6  2  1  0  0  0  0
  7 18  1  0  0  0  0
  8  7  2  0  0  0  0
  9 21  1  0  0  0  0
  9 20  1  0  0  0  0
 10  3  1  0  0  0  0
 11 25  1  6  0  0  0
 11  1  1  0  0  0  0
 11 10  1  0  0  0  0
 12 11  1  0  0  0  0
 12  4  1  0  0  0  0
 13 14  2  0  0  0  0
 14  5  1  0  0  0  0
 14 29  1  0  0  0  0
 15  5  1  0  0  0  0
 16 31  1  0  0  0  0
 16 32  1  0  0  0  0
 17  1  1  0  0  0  0
 19  8  1  0  0  0  0
 22  9  1  0  0  0  0
 23 10  1  0  0  0  0
 24 10  1  0  0  0  0
 26 12  1  0  0  0  0
 27 12  1  0  0  0  0
 28 13  1  0  0  0  0
 30 16  1  0  0  0  0
M  END
