8,10
 OpenBabel05122313053D

 25 26  0  0  1  0  0  0  0  0999 V2000
   -2.4116    0.4598   -0.7290 O   0  0  0  0  0  0  0  0  0  0  0  0
   -2.8402   -1.6191    0.2452 O   0  0  0  0  0  0  0  0  0  0  0  0
   -1.8969   -0.8573   -0.4489 C   0  0  2  0  0  0  0  0  0  0  0  0
   -2.3283    1.4185    0.2359 C   0  0  0  0  0  0  0  0  0  0  0  0
   -1.4159    1.3551    1.2463 C   0  0  0  0  0  0  0  0  0  0  0  0
   -0.4488    0.2751    1.2817 C   0  0  0  0  0  0  0  0  0  0  0  0
    0.7319    0.3054    2.0852 C   0  0  0  0  0  3  0  0  0  0  0  0
    1.6661   -0.7665    2.0246 C   0  0  0  0  0  3  0  0  0  0  0  0
    1.4349   -1.8951    1.1913 C   0  0  0  0  0  3  0  0  0  0  0  0
    0.2937   -1.8964    0.3422 C   0  0  0  0  0  3  0  0  0  0  0  0
   -0.6430   -0.8265    0.3817 C   0  0  0  0  0  0  0  0  0  0  0  0
   -4.0040   -1.9289   -0.5090 C   0  0  0  0  0  0  0  0  0  0  0  0
   -3.2738    2.5459   -0.0133 C   0  0  0  0  0  0  0  0  0  0  0  0
   -1.7072   -1.2822   -1.4620 H   0  0  0  0  0  0  0  0  0  0  0  0
   -1.3445    2.1779    1.9687 H   0  0  0  0  0  0  0  0  0  0  0  0
    0.9331    1.1798    2.7184 H   0  0  0  0  0  0  0  0  0  0  0  0
    2.5872   -0.7127    2.6221 H   0  0  0  0  0  0  0  0  0  0  0  0
    2.1697   -2.7086    1.1366 H   0  0  0  0  0  0  0  0  0  0  0  0
    0.1315   -2.7277   -0.3592 H   0  0  0  0  0  0  0  0  0  0  0  0
   -4.6352   -2.5821    0.1218 H   0  0  0  0  0  0  0  0  0  0  0  0
   -4.5774   -1.0156   -0.7783 H   0  0  0  0  0  0  0  0  0  0  0  0
   -3.7460   -2.4705   -1.4494 H   0  0  0  0  0  0  0  0  0  0  0  0
   -4.3228    2.1836   -0.0197 H   0  0  0  0  0  0  0  0  0  0  0  0
   -3.0735    2.9845   -1.0130 H   0  0  0  0  0  0  0  0  0  0  0  0
   -3.1650    3.3359    0.7512 H   0  0  0  0  0  0  0  0  0  0  0  0
  1  3  1  0  0  0  0
  1  4  1  0  0  0  0
  3 14  1  6  0  0  0
  3  2  1  0  0  0  0
  3 11  1  0  0  0  0
  4  5  2  0  0  0  0
  5  6  1  0  0  0  0
  5 15  1  0  0  0  0
  6  7  1  0  0  0  0
  7 16  1  0  0  0  0
  8  7  1  0  0  0  0
  8 17  1  0  0  0  0
  9  8  1  0  0  0  0
 10 11  1  0  0  0  0
 10  9  1  0  0  0  0
 11  6  2  0  0  0  0
 12 20  1  0  0  0  0
 12  2  1  0  0  0  0
 13  4  1  0  0  0  0
 13 25  1  0  0  0  0
 18  9  1  0  0  0  0
 19 10  1  0  0  0  0
 21 12  1  0  0  0  0
 22 12  1  0  0  0  0
 23 13  1  0  0  0  0
 24 13  1  0  0  0  0
M  END
