8,10
 OpenBabel05122313053D

 32 35  0  0  1  0  0  0  0  0999 V2000
    1.1915   -0.5490    1.1587 O   0  0  0  0  0  0  0  0  0  0  0  0
    2.3954   -1.9793   -0.2729 O   0  0  0  0  0  0  0  0  0  0  0  0
    0.1909   -1.5242    1.4005 C   0  0  0  0  0  0  0  0  0  0  0  0
    1.8008   -0.6867   -0.1251 C   0  0  1  0  0  0  0  0  0  0  0  0
    0.7703   -0.4959   -1.2545 C   0  0  0  0  0  0  0  0  0  0  0  0
   -0.6341   -0.9317   -0.9089 C   0  0  0  0  0  0  0  0  0  0  0  0
   -1.6802   -0.8184   -1.8753 C   0  0  0  0  0  0  0  0  0  0  0  0
   -3.0030   -1.2162   -1.5439 C   0  0  0  0  0  3  0  0  0  0  0  0
   -3.2972   -1.7652   -0.2639 C   0  0  0  0  0  3  0  0  0  0  0  0
   -2.2592   -1.8423    0.7034 C   0  0  0  0  0  3  0  0  0  0  0  0
   -0.9230   -1.4545    0.3873 C   0  0  2  0  0  3  0  0  0  0  0  0
    3.7859   -1.9313    0.0681 C   0  0  0  0  0  0  0  0  0  0  0  0
    4.1547   -0.4735   -0.0083 C   0  0  0  0  0  0  0  0  0  0  0  0
    2.9741    0.2693   -0.1424 C   0  0  0  0  0  0  0  0  0  0  0  0
    2.9891    1.6668   -0.1967 C   0  0  0  0  0  0  0  0  0  0  0  0
    4.2347    2.3159   -0.1396 C   0  0  0  0  0  0  0  0  0  0  0  0
    5.4245    1.5747   -0.0149 C   0  0  0  0  0  0  0  0  0  0  0  0
    5.3960    0.1708    0.0603 C   0  0  0  0  0  0  0  0  0  0  0  0
    0.6425   -2.5445    1.3827 H   0  0  0  0  0  0  0  0  0  0  0  0
   -0.1997   -1.3306    2.4184 H   0  0  0  0  0  0  0  0  0  0  0  0
    1.1271   -1.0751   -2.1292 H   0  0  0  0  0  0  0  0  0  0  0  0
    0.7587    0.5691   -1.5569 H   0  0  0  0  0  0  0  0  0  0  0  0
   -1.4655   -0.3763   -2.8579 H   0  0  0  0  0  0  0  0  0  0  0  0
   -3.8106   -1.0779   -2.2767 H   0  0  0  0  0  0  0  0  0  0  0  0
   -4.3261   -2.0415    0.0007 H   0  0  0  0  0  0  0  0  0  0  0  0
   -2.4888   -2.1932    1.7207 H   0  0  0  0  0  0  0  0  0  0  0  0
    3.9613   -2.3401    1.0915 H   0  0  0  0  0  0  0  0  0  0  0  0
    4.3424   -2.5694   -0.6515 H   0  0  0  0  0  0  0  0  0  0  0  0
    2.0521    2.2400   -0.2676 H   0  0  0  0  0  0  0  0  0  0  0  0
    4.2794    3.4143   -0.1868 H   0  0  0  0  0  0  0  0  0  0  0  0
    6.3905    2.1008    0.0261 H   0  0  0  0  0  0  0  0  0  0  0  0
    6.3304   -0.4016    0.1663 H   0  0  0  0  0  0  0  0  0  0  0  0
  1  3  1  0  0  0  0
  2 12  1  0  0  0  0
  3 20  1  0  0  0  0
  4  2  1  6  0  0  0
  4  1  1  0  0  0  0
  5  6  1  0  0  0  0
  5  4  1  0  0  0  0
  7  8  1  0  0  0  0
  7  6  2  0  0  0  0
  8  9  1  0  0  0  0
  9 25  1  0  0  0  0
  9 10  1  0  0  0  0
 10 26  1  0  0  0  0
 11  6  1  1  0  0  0
 11 10  1  0  0  0  0
 11  3  1  0  0  0  0
 12 27  1  0  0  0  0
 13 18  1  0  0  0  0
 13 12  1  0  0  0  0
 14  4  1  0  0  0  0
 14 13  2  0  0  0  0
 15 14  1  0  0  0  0
 15 16  2  0  0  0  0
 16 17  1  0  0  0  0
 17 31  1  0  0  0  0
 17 18  2  0  0  0  0
 18 32  1  0  0  0  0
 19  3  1  0  0  0  0
 21  5  1  0  0  0  0
 22  5  1  0  0  0  0
 23  7  1  0  0  0  0
 24  8  1  0  0  0  0
 28 12  1  0  0  0  0
 29 15  1  0  0  0  0
 30 16  1  0  0  0  0
M  END
