3,5
 OpenBabel05122313053D

 18 18  0  0  1  0  0  0  0  0999 V2000
   -1.4596   -1.2302   -0.2591 C   0  0  0  0  0  0  0  0  0  0  0  0
   -0.5213   -1.2843   -1.3390 C   0  0  0  0  0  3  0  0  0  0  0  0
    0.8635   -1.3497   -1.0666 C   0  0  0  0  0  3  0  0  0  0  0  0
    1.3494   -1.3705    0.2799 C   0  0  2  0  0  3  0  0  0  0  0  0
    0.4047   -1.2526    1.3449 C   0  0  0  0  0  3  0  0  0  0  0  0
   -0.9943   -1.2055    1.0906 C   0  0  0  0  0  0  0  0  0  0  0  0
    2.8081   -1.3156    0.5391 C   0  0  0  0  0  0  0  0  0  0  0  0
   -3.7347   -0.8840    0.3760 C   0  0  0  0  0  0  0  0  0  0  0  0
   -2.7568   -1.1736   -0.6181 O   0  0  0  0  0  0  0  0  0  0  0  0
    3.6604   -1.4067   -0.3282 O   0  0  0  0  0  0  0  0  0  0  0  0
   -0.9077   -1.2332   -2.3649 H   0  0  0  0  0  0  0  0  0  0  0  0
    1.6059   -1.3588   -1.8777 H   0  0  0  0  0  0  0  0  0  0  0  0
    0.7684   -1.1940    2.3821 H   0  0  0  0  0  0  0  0  0  0  0  0
   -1.6946   -1.0998    1.9270 H   0  0  0  0  0  0  0  0  0  0  0  0
    3.0779   -1.1856    1.6298 H   0  0  0  0  0  0  0  0  0  0  0  0
   -3.5307    0.0925    0.8641 H   0  0  0  0  0  0  0  0  0  0  0  0
   -3.7875   -1.6853    1.1442 H   0  0  0  0  0  0  0  0  0  0  0  0
   -4.7021   -0.8289   -0.1544 H   0  0  0  0  0  0  0  0  0  0  0  0
  1  6  2  0  0  0  0
  2  3  1  0  0  0  0
  2  1  1  0  0  0  0
  3  4  1  0  0  0  0
  4  7  1  6  0  0  0
  4  5  1  0  0  0  0
  5 13  1  0  0  0  0
  6  5  1  0  0  0  0
  6 14  1  0  0  0  0
  7 15  1  0  0  0  0
  8 16  1  0  0  0  0
  8 17  1  0  0  0  0
  9  1  1  0  0  0  0
  9  8  1  0  0  0  0
 10  7  2  0  0  0  0
 11  2  1  0  0  0  0
 12  3  1  0  0  0  0
 18  8  1  0  0  0  0
M  END
