7,10
 OpenBabel05122313053D

 48 50  0  0  1  0  0  0  0  0999 V2000
   -2.0446    1.4581    0.8380 N   0  0  0  0  0  0  0  0  0  0  0  0
   -3.0744    0.3436    2.4615 N   0  0  0  0  0  0  0  0  0  0  0  0
   -2.1046   -0.4169    1.8769 N   0  0  0  0  0  0  0  0  0  0  0  0
    0.6361    2.4703    0.2366 N   0  0  0  0  0  0  0  0  0  0  0  0
    2.3048    2.7845    1.6593 N   0  0  0  0  0  0  0  0  0  0  0  0
    2.0906    1.4520    1.4348 N   0  0  0  0  0  0  0  0  0  0  0  0
   -1.4417    0.2110    0.8690 C   0  0  0  0  0  2  0  0  0  0  0  0
   -3.0243    1.4782    1.8119 C   0  0  0  0  0  0  0  0  0  0  0  0
   -3.6702    2.3427    2.0067 H   0  0  0  0  0  0  0  0  0  0  0  0
    1.0832    1.2060    0.5661 C   0  0  0  0  0  2  0  0  0  0  0  0
    1.4054    3.3882    0.9168 C   0  0  0  0  0  0  0  0  0  0  0  0
    1.2906    4.4751    0.8406 H   0  0  0  0  0  0  0  0  0  0  0  0
   -1.8480    2.5774   -0.0986 C   0  0  1  0  0  0  0  0  0  0  0  0
   -1.9895    3.4966    0.5133 H   0  0  0  0  0  0  0  0  0  0  0  0
   -0.4441    2.6491   -0.7343 C   0  0  1  0  0  0  0  0  0  0  0  0
   -0.3420    1.7670   -1.4062 H   0  0  0  0  0  0  0  0  0  0  0  0
   -0.3064    3.9283   -1.5648 C   0  0  0  0  0  0  0  0  0  0  0  0
   -0.4342    4.8243   -0.9160 H   0  0  0  0  0  0  0  0  0  0  0  0
    0.7180    3.9712   -1.9868 H   0  0  0  0  0  0  0  0  0  0  0  0
   -1.3577    3.9438   -2.6822 C   0  0  0  0  0  0  0  0  0  0  0  0
   -1.1447    3.1101   -3.3854 H   0  0  0  0  0  0  0  0  0  0  0  0
   -1.2718    4.8809   -3.2685 H   0  0  0  0  0  0  0  0  0  0  0  0
   -2.7758    3.7892   -2.1198 C   0  0  0  0  0  0  0  0  0  0  0  0
   -3.5152    3.7286   -2.9436 H   0  0  0  0  0  0  0  0  0  0  0  0
   -3.0392    4.6961   -1.5302 H   0  0  0  0  0  0  0  0  0  0  0  0
   -2.9001    2.5527   -1.2219 C   0  0  0  0  0  0  0  0  0  0  0  0
   -3.9128    2.4924   -0.7737 H   0  0  0  0  0  0  0  0  0  0  0  0
   -2.7530    1.6184   -1.8065 H   0  0  0  0  0  0  0  0  0  0  0  0
   -1.8280   -1.7664    2.4089 C   0  0  0  0  0  0  0  0  0  0  0  0
   -1.0694   -2.1720    1.7086 H   0  0  0  0  0  0  0  0  0  0  0  0
   -3.0882   -2.6241    2.3337 C   0  0  0  0  0  0  0  0  0  0  0  0
   -3.4252   -2.7091    1.2820 H   0  0  0  0  0  0  0  0  0  0  0  0
   -3.9014   -2.1922    2.9502 H   0  0  0  0  0  0  0  0  0  0  0  0
   -2.8636   -3.6424    2.7063 H   0  0  0  0  0  0  0  0  0  0  0  0
   -1.2378   -1.6491    3.8142 C   0  0  0  0  0  0  0  0  0  0  0  0
   -0.3103   -1.0417    3.8041 H   0  0  0  0  0  0  0  0  0  0  0  0
   -0.9834   -2.6560    4.1983 H   0  0  0  0  0  0  0  0  0  0  0  0
   -1.9617   -1.1803    4.5105 H   0  0  0  0  0  0  0  0  0  0  0  0
    2.9305    0.4436    2.1074 C   0  0  0  0  0  0  0  0  0  0  0  0
    2.5693   -0.5153    1.6813 H   0  0  0  0  0  0  0  0  0  0  0  0
    4.3941    0.6432    1.7197 C   0  0  0  0  0  0  0  0  0  0  0  0
    4.5105    0.5504    0.6221 H   0  0  0  0  0  0  0  0  0  0  0  0
    5.0142   -0.1385    2.2001 H   0  0  0  0  0  0  0  0  0  0  0  0
    4.7584    1.6367    2.0485 H   0  0  0  0  0  0  0  0  0  0  0  0
    2.6773    0.4855    3.6144 C   0  0  0  0  0  0  0  0  0  0  0  0
    1.6076    0.3066    3.8442 H   0  0  0  0  0  0  0  0  0  0  0  0
    2.9680    1.4686    4.0357 H   0  0  0  0  0  0  0  0  0  0  0  0
    3.2734   -0.3008    4.1170 H   0  0  0  0  0  0  0  0  0  0  0  0
  1  7  1  0  0  0  0
  1  8  1  0  0  0  0
  3 29  1  0  0  0  0
  3  2  1  0  0  0  0
  4 10  1  0  0  0  0
  4 11  1  0  0  0  0
  6  5  1  0  0  0  0
  6 39  1  0  0  0  0
  7  3  1  0  0  0  0
  8  9  1  0  0  0  0
  8  2  2  0  0  0  0
 10  6  1  0  0  0  0
 11  5  2  0  0  0  0
 12 11  1  0  0  0  0
 13 14  1  1  0  0  0
 13  1  1  0  0  0  0
 15 16  1  6  0  0  0
 15 13  1  0  0  0  0
 15  4  1  0  0  0  0
 17 18  1  0  0  0  0
 17 15  1  0  0  0  0
 19 17  1  0  0  0  0
 20 23  1  0  0  0  0
 20 17  1  0  0  0  0
 21 20  1  0  0  0  0
 22 20  1  0  0  0  0
 23 25  1  0  0  0  0
 23 26  1  0  0  0  0
 24 23  1  0  0  0  0
 26 27  1  0  0  0  0
 26 13  1  0  0  0  0
 28 26  1  0  0  0  0
 29 35  1  0  0  0  0
 30 29  1  0  0  0  0
 31 29  1  0  0  0  0
 31 34  1  0  0  0  0
 31 33  1  0  0  0  0
 32 31  1  0  0  0  0
 35 37  1  0  0  0  0
 35 38  1  0  0  0  0
 36 35  1  0  0  0  0
 39 45  1  0  0  0  0
 40 39  1  0  0  0  0
 41 44  1  0  0  0  0
 41 39  1  0  0  0  0
 41 43  1  0  0  0  0
 42 41  1  0  0  0  0
 45 46  1  0  0  0  0
 45 47  1  0  0  0  0
 45 48  1  0  0  0  0
M  END
