3,9
 OpenBabel05122313053D

 22 22  0  0  1  0  0  0  0  0999 V2000
    4.3225   -1.2075    0.7491 Si  0  0  0  0  0  0  0  0  0  0  0  0
    2.6741   -0.3580    1.2114 C   0  0  2  0  0  3  0  0  0  0  0  0
    2.3628    1.0392    1.0650 C   0  0  0  0  0  3  0  0  0  0  0  0
    2.9834    1.7762    0.5413 H   0  0  0  0  0  0  0  0  0  0  0  0
    1.1476    1.3458    1.7673 C   0  0  0  0  0  0  0  0  0  0  0  0
    0.6751    2.3319    1.8531 H   0  0  0  0  0  0  0  0  0  0  0  0
    0.6734    0.1432    2.3546 C   0  0  0  0  0  0  0  0  0  0  0  0
   -0.2172    0.0540    2.9898 H   0  0  0  0  0  0  0  0  0  0  0  0
    1.5827   -0.9069    2.0019 C   0  0  0  0  0  3  0  0  0  0  0  0
    1.5153   -1.9454    2.3506 H   0  0  0  0  0  0  0  0  0  0  0  0
    4.5692   -1.1729   -1.1224 C   0  0  0  0  0  0  0  0  0  0  0  0
    4.4810   -0.1448   -1.5292 H   0  0  0  0  0  0  0  0  0  0  0  0
    3.8307   -1.8205   -1.6346 H   0  0  0  0  0  0  0  0  0  0  0  0
    5.5819   -1.5452   -1.3801 H   0  0  0  0  0  0  0  0  0  0  0  0
    5.6733   -0.2058    1.6049 C   0  0  0  0  0  0  0  0  0  0  0  0
    6.6699   -0.6509    1.4062 H   0  0  0  0  0  0  0  0  0  0  0  0
    5.5239   -0.1841    2.7034 H   0  0  0  0  0  0  0  0  0  0  0  0
    5.6965    0.8423    1.2423 H   0  0  0  0  0  0  0  0  0  0  0  0
    4.2677   -2.9727    1.4045 C   0  0  0  0  0  0  0  0  0  0  0  0
    3.4809   -3.5794    0.9146 H   0  0  0  0  0  0  0  0  0  0  0  0
    4.0995   -2.9921    2.5007 H   0  0  0  0  0  0  0  0  0  0  0  0
    5.2396   -3.4717    1.2115 H   0  0  0  0  0  0  0  0  0  0  0  0
  1 19  1  0  0  0  0
  1 15  1  0  0  0  0
  2  1  1  1  0  0  0
  2  9  1  0  0  0  0
  3  2  1  0  0  0  0
  3  5  1  0  0  0  0
  4  3  1  0  0  0  0
  5  6  1  0  0  0  0
  5  7  2  0  0  0  0
  7  8  1  0  0  0  0
  9 10  1  0  0  0  0
  9  7  1  0  0  0  0
 11  1  1  0  0  0  0
 12 11  1  0  0  0  0
 13 11  1  0  0  0  0
 14 11  1  0  0  0  0
 15 17  1  0  0  0  0
 16 15  1  0  0  0  0
 18 15  1  0  0  0  0
 19 21  1  0  0  0  0
 20 19  1  0  0  0  0
 22 19  1  0  0  0  0
M  END
