9,12
 OpenBabel05122313053D

 50 51  0  0  1  0  0  0  0  0999 V2000
    0.1784   -2.8569   -1.3679 O   0  0  0  0  0  0  0  0  0  0  0  0
    0.6247   -3.6184    0.7130 O   0  0  0  0  0  0  0  0  0  0  0  0
   -3.4236   -0.8508   -1.1948 O   0  0  0  0  0  0  0  0  0  0  0  0
   -2.5622   -2.8191   -0.4985 O   0  0  0  0  0  0  0  0  0  0  0  0
   -3.4247    0.8465    1.1946 O   0  0  0  0  0  0  0  0  0  0  0  0
   -2.5656    2.8159    0.4986 O   0  0  0  0  0  0  0  0  0  0  0  0
    0.1745    2.8571    1.3679 O   0  0  0  0  0  0  0  0  0  0  0  0
    0.6206    3.6191   -0.7129 O   0  0  0  0  0  0  0  0  0  0  0  0
   -0.0932   -1.3186    0.4250 C   0  0  2  0  0  3  0  0  0  0  0  0
   -1.5029   -0.7342    0.1764 C   0  0  2  0  0  0  0  0  0  0  0  0
   -1.5037    0.7323   -0.1765 C   0  0  2  0  0  0  0  0  0  0  0  0
   -0.0948    1.3185   -0.4250 C   0  0  1  0  0  3  0  0  0  0  0  0
    0.2427   -2.7112   -0.0162 C   0  0  0  0  0  0  0  0  0  0  0  0
    0.4146   -4.1736   -1.8601 C   0  0  0  0  0  0  0  0  0  0  0  0
    1.4195   -4.5402   -1.5654 H   0  0  0  0  0  0  0  0  0  0  0  0
    0.3389   -4.1084   -2.9606 H   0  0  0  0  0  0  0  0  0  0  0  0
   -0.3471   -4.8757   -1.4645 H   0  0  0  0  0  0  0  0  0  0  0  0
   -1.0154   -1.1441    1.6056 C   0  0  0  0  0  0  0  0  0  0  0  0
   -0.7383   -0.0537    2.6273 C   0  0  0  0  0  0  0  0  0  0  0  0
    0.0102   -0.4337    3.3539 H   0  0  0  0  0  0  0  0  0  0  0  0
   -1.6620    0.1901    3.1909 H   0  0  0  0  0  0  0  0  0  0  0  0
   -0.3370    0.8751    2.1902 H   0  0  0  0  0  0  0  0  0  0  0  0
   -1.6407   -2.3610    2.2726 C   0  0  0  0  0  0  0  0  0  0  0  0
   -1.8882   -3.1687    1.5658 H   0  0  0  0  0  0  0  0  0  0  0  0
   -2.5707   -2.0534    2.7950 H   0  0  0  0  0  0  0  0  0  0  0  0
   -0.9365   -2.7648    3.0273 H   0  0  0  0  0  0  0  0  0  0  0  0
   -2.5155   -1.5959   -0.5058 C   0  0  0  0  0  0  0  0  0  0  0  0
   -4.4126   -1.6006   -1.8991 C   0  0  0  0  0  0  0  0  0  0  0  0
   -3.9440   -2.2681   -2.6514 H   0  0  0  0  0  0  0  0  0  0  0  0
   -5.0636   -0.8588   -2.3960 H   0  0  0  0  0  0  0  0  0  0  0  0
   -5.0042   -2.2313   -1.2046 H   0  0  0  0  0  0  0  0  0  0  0  0
   -2.5175    1.5928    0.5058 C   0  0  0  0  0  0  0  0  0  0  0  0
   -4.4146    1.5951    1.8989 C   0  0  0  0  0  0  0  0  0  0  0  0
   -3.9468    2.2630    2.6513 H   0  0  0  0  0  0  0  0  0  0  0  0
   -5.0648    0.8525    2.3957 H   0  0  0  0  0  0  0  0  0  0  0  0
   -5.0069    2.2252    1.2045 H   0  0  0  0  0  0  0  0  0  0  0  0
   -1.0167    1.1428   -1.6056 C   0  0  0  0  0  0  0  0  0  0  0  0
   -0.7382    0.0529   -2.6274 C   0  0  0  0  0  0  0  0  0  0  0  0
    0.0099    0.4338   -3.3539 H   0  0  0  0  0  0  0  0  0  0  0  0
   -1.6615   -0.1920   -3.1911 H   0  0  0  0  0  0  0  0  0  0  0  0
   -0.3357   -0.8755   -2.1903 H   0  0  0  0  0  0  0  0  0  0  0  0
   -1.6435    2.3590   -2.2726 C   0  0  0  0  0  0  0  0  0  0  0  0
   -1.8921    3.1664   -1.5659 H   0  0  0  0  0  0  0  0  0  0  0  0
   -2.5730    2.0503   -2.7952 H   0  0  0  0  0  0  0  0  0  0  0  0
   -0.9397    2.7637   -3.0273 H   0  0  0  0  0  0  0  0  0  0  0  0
    0.2394    2.7115    0.0163 C   0  0  0  0  0  0  0  0  0  0  0  0
    0.4090    4.1741    1.8602 C   0  0  0  0  0  0  0  0  0  0  0  0
    1.4136    4.5419    1.5657 H   0  0  0  0  0  0  0  0  0  0  0  0
    0.3331    4.1089    2.9607 H   0  0  0  0  0  0  0  0  0  0  0  0
   -0.3534    4.8753    1.4643 H   0  0  0  0  0  0  0  0  0  0  0  0
  1 13  1  0  0  0  0
  3 27  1  0  0  0  0
  5 33  1  0  0  0  0
  6 32  2  0  0  0  0
  7 47  1  0  0  0  0
  8 46  2  0  0  0  0
  9 13  1  6  0  0  0
  9 18  1  0  0  0  0
 10 27  1  6  0  0  0
 10  9  1  0  0  0  0
 10 18  1  0  0  0  0
 11 10  1  0  0  0  0
 11 32  1  1  0  0  0
 12 11  1  0  0  0  0
 12 46  1  1  0  0  0
 13  2  2  0  0  0  0
 14 15  1  0  0  0  0
 14 17  1  0  0  0  0
 14  1  1  0  0  0  0
 16 14  1  0  0  0  0
 18 23  1  0  0  0  0
 18 19  1  0  0  0  0
 19 21  1  0  0  0  0
 19 20  1  0  0  0  0
 22 19  1  0  0  0  0
 23 25  1  0  0  0  0
 23 26  1  0  0  0  0
 24 23  1  0  0  0  0
 27  4  2  0  0  0  0
 28 31  1  0  0  0  0
 28  3  1  0  0  0  0
 29 28  1  0  0  0  0
 30 28  1  0  0  0  0
 32  5  1  0  0  0  0
 33 35  1  0  0  0  0
 33 34  1  0  0  0  0
 36 33  1  0  0  0  0
 37 12  1  0  0  0  0
 37 11  1  0  0  0  0
 38 41  1  0  0  0  0
 38 37  1  0  0  0  0
 39 38  1  0  0  0  0
 40 38  1  0  0  0  0
 42 37  1  0  0  0  0
 42 43  1  0  0  0  0
 44 42  1  0  0  0  0
 45 42  1  0  0  0  0
 46  7  1  0  0  0  0
 47 49  1  0  0  0  0
 48 47  1  0  0  0  0
 50 47  1  0  0  0  0
M  END
