25
 OpenBabel05122313053D

 33 35  0  0  1  0  0  0  0  0999 V2000
   -0.0947    0.5114    2.0215 C   0  0  0  0  0  0  0  0  0  0  0  0
   -0.9490    0.4302    2.7045 H   0  0  0  0  0  0  0  0  0  0  0  0
    1.0965   -0.2503    2.1377 C   0  0  0  0  0  0  0  0  0  0  0  0
    1.3397   -0.9512    2.9442 H   0  0  0  0  0  0  0  0  0  0  0  0
    1.9538    0.1249    1.0535 C   0  0  0  0  0  0  0  0  0  0  0  0
    3.2732   -0.2820    0.7075 C   0  0  0  0  0  0  0  0  0  0  0  0
    3.8036   -1.0078    1.3423 H   0  0  0  0  0  0  0  0  0  0  0  0
    3.8714    0.2495   -0.4235 C   0  0  0  0  0  0  0  0  0  0  0  0
    4.8929   -0.0527   -0.6986 H   0  0  0  0  0  0  0  0  0  0  0  0
    3.1786    1.1935   -1.2376 C   0  0  0  0  0  0  0  0  0  0  0  0
    3.6813    1.6053   -2.1258 H   0  0  0  0  0  0  0  0  0  0  0  0
    1.8915    1.6117   -0.9331 C   0  0  0  0  0  0  0  0  0  0  0  0
    1.4008    2.3580   -1.5694 H   0  0  0  0  0  0  0  0  0  0  0  0
    1.2379    1.1011    0.2329 C   0  0  0  0  0  0  0  0  0  0  0  0
   -0.0579    1.3305    0.8441 C   0  0  1  0  0  3  0  0  0  0  0  0
   -1.3232    1.9456    0.2073 C   0  0  0  0  0  0  0  0  0  0  0  0
   -1.0399    3.1558   -0.6965 C   0  0  0  0  0  0  0  0  0  0  0  0
   -0.4665    2.8915   -1.6023 H   0  0  0  0  0  0  0  0  0  0  0  0
   -0.4720    3.9307   -0.1442 H   0  0  0  0  0  0  0  0  0  0  0  0
   -1.9967    3.5987   -1.0378 H   0  0  0  0  0  0  0  0  0  0  0  0
   -2.3259    2.3832    1.2874 C   0  0  0  0  0  0  0  0  0  0  0  0
   -3.2615    2.7407    0.8134 H   0  0  0  0  0  0  0  0  0  0  0  0
   -1.8994    3.2075    1.8929 H   0  0  0  0  0  0  0  0  0  0  0  0
   -2.5978    1.5655    1.9806 H   0  0  0  0  0  0  0  0  0  0  0  0
   -1.8497    0.7414   -0.5929 C   0  0  2  0  0  3  0  0  0  0  0  0
   -2.6251   -0.3335   -0.0513 C   0  0  0  0  0  3  0  0  0  0  0  0
   -3.1647   -0.3226    0.9033 H   0  0  0  0  0  0  0  0  0  0  0  0
   -2.5577   -1.4465   -0.9444 C   0  0  0  0  0  0  0  0  0  0  0  0
   -3.0615   -2.4098   -0.8038 H   0  0  0  0  0  0  0  0  0  0  0  0
   -1.7345   -1.0786   -2.0395 C   0  0  0  0  0  0  0  0  0  0  0  0
   -1.4803   -1.7049   -2.9021 H   0  0  0  0  0  0  0  0  0  0  0  0
   -1.2844    0.2580   -1.8196 C   0  0  0  0  0  3  0  0  0  0  0  0
   -0.5944    0.8060   -2.4725 H   0  0  0  0  0  0  0  0  0  0  0  0
  1  3  2  0  0  0  0
  1  2  1  0  0  0  0
  3  4  1  0  0  0  0
  5  3  1  0  0  0  0
  6  5  1  0  0  0  0
  6  7  1  0  0  0  0
  8  6  2  0  0  0  0
  9  8  1  0  0  0  0
 10 12  2  0  0  0  0
 10  8  1  0  0  0  0
 11 10  1  0  0  0  0
 12 14  1  0  0  0  0
 13 12  1  0  0  0  0
 14 15  1  0  0  0  0
 14  5  2  0  0  0  0
 15 16  1  6  0  0  0
 15  1  1  0  0  0  0
 16 21  1  0  0  0  0
 17 19  1  0  0  0  0
 17 16  1  0  0  0  0
 18 17  1  0  0  0  0
 20 17  1  0  0  0  0
 21 23  1  0  0  0  0
 21 24  1  0  0  0  0
 22 21  1  0  0  0  0
 25 26  1  0  0  0  0
 25 16  1  1  0  0  0
 26 27  1  0  0  0  0
 28 29  1  0  0  0  0
 28 26  1  0  0  0  0
 30 32  1  0  0  0  0
 30 28  2  0  0  0  0
 31 30  1  0  0  0  0
 32 25  1  0  0  0  0
 33 32  1  0  0  0  0
M  END
