2,4
 OpenBabel05122313053D

 32 34  0  0  0  0  0  0  0  0999 V2000
    0.2113   -1.2070   -0.4884 C   0  0  0  0  0  0  0  0  0  0  0  0
    1.2503   -1.9614   -1.1076 C   0  0  0  0  0  3  0  0  0  0  0  0
    1.9861   -1.0865   -1.9769 C   0  0  0  0  0  3  0  0  0  0  0  0
    1.3926    0.2104   -1.8786 C   0  0  0  0  0  3  0  0  0  0  0  0
    0.2766    0.1575   -0.9700 C   0  0  0  0  0  0  0  0  0  0  0  0
   -0.5939    1.3039   -0.6231 C   0  0  0  0  0  0  0  0  0  0  0  0
   -0.0582    2.6121   -0.6581 C   0  0  0  0  0  0  0  0  0  0  0  0
   -0.8381    3.7303   -0.3491 C   0  0  0  0  0  0  0  0  0  0  0  0
   -2.1835    3.5648    0.0163 C   0  0  0  0  0  0  0  0  0  0  0  0
   -2.7263    2.2758    0.0677 C   0  0  0  0  0  0  0  0  0  0  0  0
   -1.9549    1.1403   -0.2524 C   0  0  0  0  0  0  0  0  0  0  0  0
   -2.6125   -0.2041   -0.2292 C   0  0  0  0  0  0  0  0  0  0  0  0
   -3.0136   -0.7931    1.0029 C   0  0  0  0  0  0  0  0  0  0  0  0
   -2.7557   -0.1253    2.3292 C   0  0  0  0  0  0  0  0  0  0  0  0
   -3.6171   -2.0621    0.9267 C   0  0  0  0  0  0  0  0  0  0  0  0
   -3.7970   -2.6844   -0.3157 C   0  0  0  0  0  0  0  0  0  0  0  0
   -3.3535   -2.0103   -1.4632 C   0  0  0  0  0  0  0  0  0  0  0  0
   -2.7731   -0.8029   -1.4241 N   0  0  0  0  0  0  0  0  0  0  0  0
   -0.5121   -1.5998    0.2328 H   0  0  0  0  0  0  0  0  0  0  0  0
    1.4524   -3.0262   -0.9421 H   0  0  0  0  0  0  0  0  0  0  0  0
    2.8423   -1.3596   -2.6034 H   0  0  0  0  0  0  0  0  0  0  0  0
    1.7143    1.1009   -2.4311 H   0  0  0  0  0  0  0  0  0  0  0  0
    1.0057    2.7497   -0.9009 H   0  0  0  0  0  0  0  0  0  0  0  0
   -0.3893    4.7344   -0.3808 H   0  0  0  0  0  0  0  0  0  0  0  0
   -2.8075    4.4373    0.2610 H   0  0  0  0  0  0  0  0  0  0  0  0
   -3.7840    2.1350    0.3391 H   0  0  0  0  0  0  0  0  0  0  0  0
   -3.0117   -0.7997    3.1691 H   0  0  0  0  0  0  0  0  0  0  0  0
   -1.6916    0.1704    2.4340 H   0  0  0  0  0  0  0  0  0  0  0  0
   -3.3488    0.8039    2.4465 H   0  0  0  0  0  0  0  0  0  0  0  0
   -3.9349   -2.5661    1.8537 H   0  0  0  0  0  0  0  0  0  0  0  0
   -4.2648   -3.6773   -0.3927 H   0  0  0  0  0  0  0  0  0  0  0  0
   -3.4667   -2.4684   -2.4622 H   0  0  0  0  0  0  0  0  0  0  0  0
  1 19  1  0  0  0  0
  2 20  1  0  0  0  0
  2  1  1  0  0  0  0
  3  4  1  0  0  0  0
  3  2  1  0  0  0  0
  4  5  1  0  0  0  0
  5  6  1  0  0  0  0
  5  1  2  0  0  0  0
  6 11  1  0  0  0  0
  7  6  2  0  0  0  0
  7  8  1  0  0  0  0
  8  9  2  0  0  0  0
  9 10  1  0  0  0  0
  9 25  1  0  0  0  0
 10 26  1  0  0  0  0
 11 12  1  0  0  0  0
 11 10  2  0  0  0  0
 12 13  1  0  0  0  0
 13 14  1  0  0  0  0
 14 28  1  0  0  0  0
 14 29  1  0  0  0  0
 14 27  1  0  0  0  0
 15 13  2  0  0  0  0
 15 30  1  0  0  0  0
 16 15  1  0  0  0  0
 17 18  1  0  0  0  0
 17 16  2  0  0  0  0
 18 12  2  0  0  0  0
 21  3  1  0  0  0  0
 22  4  1  0  0  0  0
 23  7  1  0  0  0  0
 24  8  1  0  0  0  0
 31 16  1  0  0  0  0
 32 17  1  0  0  0  0
M  END
