5,23
 OpenBabel05122313053D

 73 76  0  0  0  0  0  0  0  0999 V2000
    1.2140    1.6046   -1.2214 N   0  0  0  0  0  0  0  0  0  0  0  0
    1.9363    1.1761    0.8149 N   0  0  0  0  0  0  0  0  0  0  0  0
   -2.1676    0.9520   -0.8433 N   0  0  0  0  0  0  0  0  0  0  0  0
   -1.9998    0.6136    1.3233 N   0  0  0  0  0  0  0  0  0  0  0  0
    1.2027    0.6647   -0.2223 C   0  0  0  0  0  2  0  0  0  0  0  0
    2.3986    2.4556    0.4937 C   0  0  0  0  0  0  0  0  0  0  0  0
    1.9564    2.7210   -0.8272 C   0  0  0  0  0  0  0  0  0  0  0  0
    2.2897    3.9166   -1.4793 C   0  0  0  0  0  0  0  0  0  0  0  0
    1.9706    4.1174   -2.5106 H   0  0  0  0  0  0  0  0  0  0  0  0
    3.0439    4.8559   -0.7602 C   0  0  0  0  0  0  0  0  0  0  0  0
    3.3190    5.8054   -1.2422 H   0  0  0  0  0  0  0  0  0  0  0  0
    3.4485    4.6096    0.5691 C   0  0  0  0  0  0  0  0  0  0  0  0
    4.0253    5.3743    1.1094 H   0  0  0  0  0  0  0  0  0  0  0  0
    3.1357    3.4045    1.2159 C   0  0  0  0  0  0  0  0  0  0  0  0
    3.4593    3.2115    2.2465 H   0  0  0  0  0  0  0  0  0  0  0  0
    0.6535    1.3768   -2.5530 C   0  0  0  0  0  0  0  0  0  0  0  0
    0.7559    0.2906   -2.7553 H   0  0  0  0  0  0  0  0  0  0  0  0
    1.3211    1.9079   -3.2615 H   0  0  0  0  0  0  0  0  0  0  0  0
   -0.8076    1.8367   -2.8390 C   0  0  0  0  0  0  0  0  0  0  0  0
   -1.8937    0.8734   -2.2731 C   0  0  0  0  0  0  0  0  0  0  0  0
   -2.8499    1.0888   -2.7905 H   0  0  0  0  0  0  0  0  0  0  0  0
   -1.6349   -0.1840   -2.4918 H   0  0  0  0  0  0  0  0  0  0  0  0
   -1.4909    0.2330    0.1057 C   0  0  0  0  0  2  0  0  0  0  0  0
   -3.0124    1.5647    1.1472 C   0  0  0  0  0  0  0  0  0  0  0  0
   -3.1334    1.7659   -0.2493 C   0  0  0  0  0  0  0  0  0  0  0  0
   -4.0846    2.6486   -0.7809 C   0  0  0  0  0  0  0  0  0  0  0  0
   -4.1966    2.7892   -1.8644 H   0  0  0  0  0  0  0  0  0  0  0  0
   -4.8889    3.3521    0.1273 C   0  0  0  0  0  0  0  0  0  0  0  0
   -5.6460    4.0520   -0.2554 H   0  0  0  0  0  0  0  0  0  0  0  0
   -4.7412    3.1830    1.5209 C   0  0  0  0  0  0  0  0  0  0  0  0
   -5.3791    3.7604    2.2058 H   0  0  0  0  0  0  0  0  0  0  0  0
   -3.8037    2.2857    2.0536 C   0  0  0  0  0  0  0  0  0  0  0  0
   -3.7039    2.1501    3.1375 H   0  0  0  0  0  0  0  0  0  0  0  0
   -1.0370    3.2779   -2.3625 C   0  0  0  0  0  0  0  0  0  0  0  0
   -2.0566    3.6240   -2.6227 H   0  0  0  0  0  0  0  0  0  0  0  0
   -0.3211    3.9718   -2.8457 H   0  0  0  0  0  0  0  0  0  0  0  0
   -0.9167    3.3776   -1.2654 H   0  0  0  0  0  0  0  0  0  0  0  0
   -0.9605    1.7598   -4.3727 C   0  0  0  0  0  0  0  0  0  0  0  0
   -1.9749    2.0795   -4.6846 H   0  0  0  0  0  0  0  0  0  0  0  0
   -0.8007    0.7267   -4.7433 H   0  0  0  0  0  0  0  0  0  0  0  0
   -0.2279    2.4207   -4.8780 H   0  0  0  0  0  0  0  0  0  0  0  0
    2.2079    0.4249    2.0386 C   0  0  0  0  0  0  0  0  0  0  0  0
    1.5375   -0.4527    1.9583 H   0  0  0  0  0  0  0  0  0  0  0  0
    1.8693    1.0344    2.9030 H   0  0  0  0  0  0  0  0  0  0  0  0
    3.6765   -0.0867    2.2746 C   0  0  0  0  0  0  0  0  0  0  0  0
    4.3468    0.7074    3.4123 C   0  0  0  0  0  0  0  0  0  0  0  0
    5.3438    0.2802    3.6422 H   0  0  0  0  0  0  0  0  0  0  0  0
    3.7449    0.6703    4.3446 H   0  0  0  0  0  0  0  0  0  0  0  0
    4.5050    1.7716    3.1458 H   0  0  0  0  0  0  0  0  0  0  0  0
    4.5315    0.0025    0.9994 C   0  0  0  0  0  0  0  0  0  0  0  0
    4.7054    1.0519    0.6874 H   0  0  0  0  0  0  0  0  0  0  0  0
    4.0589   -0.5460    0.1589 H   0  0  0  0  0  0  0  0  0  0  0  0
    5.5228   -0.4570    1.1883 H   0  0  0  0  0  0  0  0  0  0  0  0
    3.5604   -1.5639    2.7070 C   0  0  0  0  0  0  0  0  0  0  0  0
    3.1304   -2.1781    1.8893 H   0  0  0  0  0  0  0  0  0  0  0  0
    2.9143   -1.6711    3.6045 H   0  0  0  0  0  0  0  0  0  0  0  0
    4.5579   -1.9755    2.9619 H   0  0  0  0  0  0  0  0  0  0  0  0
   -1.4347    0.2330    2.6183 C   0  0  0  0  0  0  0  0  0  0  0  0
   -1.4213    1.1515    3.2431 H   0  0  0  0  0  0  0  0  0  0  0  0
   -0.3857   -0.0478    2.4152 H   0  0  0  0  0  0  0  0  0  0  0  0
   -2.0997   -0.9227    3.4096 C   0  0  0  0  0  0  0  0  0  0  0  0
   -1.2840   -1.0517    4.7111 C   0  0  0  0  0  0  0  0  0  0  0  0
   -1.6888   -1.8700    5.3393 H   0  0  0  0  0  0  0  0  0  0  0  0
   -1.3145   -0.1178    5.3113 H   0  0  0  0  0  0  0  0  0  0  0  0
   -0.2208   -1.2894    4.4981 H   0  0  0  0  0  0  0  0  0  0  0  0
   -2.0174   -2.2340    2.6180 C   0  0  0  0  0  0  0  0  0  0  0  0
   -2.4228   -3.0726    3.2198 H   0  0  0  0  0  0  0  0  0  0  0  0
   -0.9722   -2.4829    2.3429 H   0  0  0  0  0  0  0  0  0  0  0  0
   -2.5883   -2.1878    1.6701 H   0  0  0  0  0  0  0  0  0  0  0  0
   -3.5670   -0.6185    3.7534 C   0  0  0  0  0  0  0  0  0  0  0  0
   -4.1819   -0.4803    2.8418 H   0  0  0  0  0  0  0  0  0  0  0  0
   -3.6642    0.2895    4.3845 H   0  0  0  0  0  0  0  0  0  0  0  0
   -4.0040   -1.4640    4.3222 H   0  0  0  0  0  0  0  0  0  0  0  0
  1  7  1  0  0  0  0
  1  5  1  0  0  0  0
  2 42  1  0  0  0  0
  3 25  1  0  0  0  0
  3 23  1  0  0  0  0
  4 58  1  0  0  0  0
  5  2  1  0  0  0  0
  6  2  1  0  0  0  0
  6 14  1  0  0  0  0
  7  6  2  0  0  0  0
  8  7  1  0  0  0  0
  8 10  2  0  0  0  0
  9  8  1  0  0  0  0
 10 12  1  0  0  0  0
 11 10  1  0  0  0  0
 12 13  1  0  0  0  0
 12 14  2  0  0  0  0
 14 15  1  0  0  0  0
 16  1  1  0  0  0  0
 17 16  1  0  0  0  0
 18 16  1  0  0  0  0
 19 16  1  0  0  0  0
 19 34  1  0  0  0  0
 19 20  1  0  0  0  0
 20  3  1  0  0  0  0
 21 20  1  0  0  0  0
 22 20  1  0  0  0  0
 23  4  1  0  0  0  0
 24  4  1  0  0  0  0
 24 32  1  0  0  0  0
 25 24  2  0  0  0  0
 26 25  1  0  0  0  0
 26 28  2  0  0  0  0
 27 26  1  0  0  0  0
 28 30  1  0  0  0  0
 29 28  1  0  0  0  0
 30 32  2  0  0  0  0
 30 31  1  0  0  0  0
 32 33  1  0  0  0  0
 34 37  1  0  0  0  0
 35 34  1  0  0  0  0
 36 34  1  0  0  0  0
 38 19  1  0  0  0  0
 39 38  1  0  0  0  0
 40 38  1  0  0  0  0
 41 38  1  0  0  0  0
 42 45  1  0  0  0  0
 42 44  1  0  0  0  0
 43 42  1  0  0  0  0
 45 54  1  0  0  0  0
 45 46  1  0  0  0  0
 46 47  1  0  0  0  0
 46 48  1  0  0  0  0
 49 46  1  0  0  0  0
 50 53  1  0  0  0  0
 50 45  1  0  0  0  0
 51 50  1  0  0  0  0
 52 50  1  0  0  0  0
 54 57  1  0  0  0  0
 54 56  1  0  0  0  0
 55 54  1  0  0  0  0
 58 59  1  0  0  0  0
 58 61  1  0  0  0  0
 60 58  1  0  0  0  0
 61 70  1  0  0  0  0
 61 62  1  0  0  0  0
 62 64  1  0  0  0  0
 62 63  1  0  0  0  0
 65 62  1  0  0  0  0
 66 67  1  0  0  0  0
 66 61  1  0  0  0  0
 68 66  1  0  0  0  0
 69 66  1  0  0  0  0
 70 73  1  0  0  0  0
 70 72  1  0  0  0  0
 71 70  1  0  0  0  0
M  END
