5,16
 OpenBabel05122313053D

 48 51  0  0  0  0  0  0  0  0999 V2000
   -2.6839   -1.2247    1.2278 N   0  0  0  0  0  0  0  0  0  0  0  0
   -2.5444    0.7128    2.1887 N   0  0  0  0  0  0  0  0  0  0  0  0
    0.0679    2.1241    1.7771 N   0  0  0  0  0  0  0  0  0  0  0  0
    1.5541    0.6523    1.2220 N   0  0  0  0  0  0  0  0  0  0  0  0
   -2.1858    0.0369    1.0463 C   0  0  0  0  0  2  0  0  0  0  0  0
   -3.3462   -1.3354    2.4403 C   0  0  0  0  0  0  0  0  0  0  0  0
   -3.8238   -2.2656    2.7613 H   0  0  0  0  0  0  0  0  0  0  0  0
   -3.2624   -0.1144    3.0509 C   0  0  0  0  0  0  0  0  0  0  0  0
   -3.6561    0.2394    4.0081 H   0  0  0  0  0  0  0  0  0  0  0  0
   -2.3104    2.1200    2.5306 C   0  0  0  0  0  0  0  0  0  0  0  0
   -2.0776    2.1473    3.6150 H   0  0  0  0  0  0  0  0  0  0  0  0
   -3.2519    2.6906    2.3787 H   0  0  0  0  0  0  0  0  0  0  0  0
   -1.2036    2.8294    1.7506 C   0  0  0  0  0  0  0  0  0  0  0  0
   -1.4883    2.9386    0.6844 H   0  0  0  0  0  0  0  0  0  0  0  0
   -1.0704    3.8408    2.1826 H   0  0  0  0  0  0  0  0  0  0  0  0
    0.3232    1.1186    0.8851 C   0  0  0  0  0  2  0  0  0  0  0  0
    1.1305    2.2903    2.6596 C   0  0  0  0  0  0  0  0  0  0  0  0
    1.1422    3.0624    3.4346 H   0  0  0  0  0  0  0  0  0  0  0  0
    2.0728    1.3598    2.3019 C   0  0  0  0  0  0  0  0  0  0  0  0
    3.0743    1.1603    2.6937 H   0  0  0  0  0  0  0  0  0  0  0  0
   -2.5346   -2.3211    0.2583 C   0  0  0  0  0  0  0  0  0  0  0  0
   -2.9102   -1.9376   -0.7136 H   0  0  0  0  0  0  0  0  0  0  0  0
   -3.2002   -3.1356    0.6066 H   0  0  0  0  0  0  0  0  0  0  0  0
   -1.1118   -2.8198    0.1115 C   0  0  0  0  0  0  0  0  0  0  0  0
   -0.4449   -2.6756   -1.1210 C   0  0  0  0  0  0  0  0  0  0  0  0
   -0.9521   -2.1560   -1.9488 H   0  0  0  0  0  0  0  0  0  0  0  0
    0.8587   -3.1715   -1.2830 C   0  0  0  0  0  0  0  0  0  0  0  0
    1.3704   -3.0417   -2.2483 H   0  0  0  0  0  0  0  0  0  0  0  0
    1.5099   -3.8092   -0.2159 C   0  0  0  0  0  0  0  0  0  0  0  0
    2.5330   -4.1948   -0.3438 H   0  0  0  0  0  0  0  0  0  0  0  0
    0.8556   -3.9442    1.0213 C   0  0  0  0  0  0  0  0  0  0  0  0
    1.3610   -4.4446    1.8618 H   0  0  0  0  0  0  0  0  0  0  0  0
   -0.4483   -3.4513    1.1823 C   0  0  0  0  0  0  0  0  0  0  0  0
   -0.9604   -3.5660    2.1519 H   0  0  0  0  0  0  0  0  0  0  0  0
    2.2130   -0.4726    0.5439 C   0  0  0  0  0  0  0  0  0  0  0  0
    1.6707   -0.5934   -0.4155 H   0  0  0  0  0  0  0  0  0  0  0  0
    2.0564   -1.3894    1.1466 H   0  0  0  0  0  0  0  0  0  0  0  0
    3.6812   -0.2192    0.3077 C   0  0  0  0  0  0  0  0  0  0  0  0
    4.0814    0.7685   -0.6167 C   0  0  0  0  0  0  0  0  0  0  0  0
    3.3044    1.3220   -1.1712 H   0  0  0  0  0  0  0  0  0  0  0  0
    5.4435    1.0153   -0.8343 C   0  0  0  0  0  0  0  0  0  0  0  0
    5.7488    1.7829   -1.5618 H   0  0  0  0  0  0  0  0  0  0  0  0
    6.4185    0.2806   -0.1370 C   0  0  0  0  0  0  0  0  0  0  0  0
    7.4875    0.4757   -0.3130 H   0  0  0  0  0  0  0  0  0  0  0  0
    6.0265   -0.7070    0.7792 C   0  0  0  0  0  0  0  0  0  0  0  0
    6.7855   -1.2895    1.3235 H   0  0  0  0  0  0  0  0  0  0  0  0
    4.6616   -0.9535    1.0011 C   0  0  0  0  0  0  0  0  0  0  0  0
    4.3495   -1.7319    1.7163 H   0  0  0  0  0  0  0  0  0  0  0  0
  1  6  1  0  0  0  0
  2 10  1  0  0  0  0
  2  8  1  0  0  0  0
  3 17  1  0  0  0  0
  4 19  1  0  0  0  0
  5  1  1  0  0  0  0
  5  2  1  0  0  0  0
  6  7  1  0  0  0  0
  6  8  2  0  0  0  0
  8  9  1  0  0  0  0
 10 11  1  0  0  0  0
 12 10  1  0  0  0  0
 13  3  1  0  0  0  0
 13 15  1  0  0  0  0
 13 10  1  0  0  0  0
 14 13  1  0  0  0  0
 16  4  1  0  0  0  0
 16  3  1  0  0  0  0
 17 18  1  0  0  0  0
 19 17  2  0  0  0  0
 19 20  1  0  0  0  0
 21 23  1  0  0  0  0
 21  1  1  0  0  0  0
 22 21  1  0  0  0  0
 24 21  1  0  0  0  0
 24 33  1  0  0  0  0
 25 24  2  0  0  0  0
 26 25  1  0  0  0  0
 27 25  1  0  0  0  0
 27 29  2  0  0  0  0
 28 27  1  0  0  0  0
 29 31  1  0  0  0  0
 30 29  1  0  0  0  0
 31 33  2  0  0  0  0
 31 32  1  0  0  0  0
 33 34  1  0  0  0  0
 35 37  1  0  0  0  0
 35  4  1  0  0  0  0
 36 35  1  0  0  0  0
 38 35  1  0  0  0  0
 38 47  1  0  0  0  0
 39 38  2  0  0  0  0
 40 39  1  0  0  0  0
 41 39  1  0  0  0  0
 41 43  2  0  0  0  0
 42 41  1  0  0  0  0
 43 45  1  0  0  0  0
 44 43  1  0  0  0  0
 45 47  2  0  0  0  0
 45 46  1  0  0  0  0
 47 48  1  0  0  0  0
M  END
