2,9
 OpenBabel05122313053D

 46 47  0  0  0  0  0  0  0  0999 V2000
    2.5255    0.0825   -0.7669 N   0  0  0  0  0  0  0  0  0  0  0  0
    1.4949    0.5108    0.0377 C   0  0  0  0  0  2  0  0  0  0  0  0
    1.6104    1.8822   -0.0020 N   0  0  0  0  0  0  0  0  0  0  0  0
    2.6691    2.3018   -0.7935 C   0  0  0  0  0  0  0  0  0  0  0  0
    3.2546    1.1615   -1.2723 C   0  0  0  0  0  0  0  0  0  0  0  0
    0.6896    2.7294    0.7379 C   0  0  0  0  0  0  0  0  0  0  0  0
   -0.5688    3.1068   -0.0341 C   0  0  0  0  0  0  0  0  0  0  0  0
   -1.3867    2.0024   -0.5433 N   0  0  0  0  0  0  0  0  0  0  0  0
   -1.4142    0.6854   -0.1239 C   0  0  0  0  0  2  0  0  0  0  0  0
   -2.4138    0.1303   -0.9037 N   0  0  0  0  0  0  0  0  0  0  0  0
   -2.9856    1.0789   -1.7488 C   0  0  0  0  0  0  0  0  0  0  0  0
   -2.3369    2.2572   -1.5261 C   0  0  0  0  0  0  0  0  0  0  0  0
   -2.9600   -1.2670   -0.8017 C   0  0  0  0  0  0  0  0  0  0  0  0
   -1.8270   -2.2648   -0.5481 C   0  0  0  0  0  0  0  0  0  0  0  0
   -3.6499   -1.6416   -2.1263 C   0  0  0  0  0  0  0  0  0  0  0  0
   -3.9896   -1.2992    0.3411 C   0  0  0  0  0  0  0  0  0  0  0  0
    2.9435   -1.3432   -0.9477 C   0  0  0  0  0  0  0  0  0  0  0  0
    1.6989   -2.2351   -0.9668 C   0  0  0  0  0  0  0  0  0  0  0  0
    3.6919   -1.4914   -2.2830 C   0  0  0  0  0  0  0  0  0  0  0  0
    3.8678   -1.7215    0.2235 C   0  0  0  0  0  0  0  0  0  0  0  0
    2.9221    3.3554   -0.9469 H   0  0  0  0  0  0  0  0  0  0  0  0
    4.1245    1.0435   -1.9211 H   0  0  0  0  0  0  0  0  0  0  0  0
   -3.7931    0.8523   -2.4462 H   0  0  0  0  0  0  0  0  0  0  0  0
   -2.4659    3.2431   -1.9831 H   0  0  0  0  0  0  0  0  0  0  0  0
   -2.2593   -3.2719   -0.3870 H   0  0  0  0  0  0  0  0  0  0  0  0
   -1.2349   -1.9742    0.3478 H   0  0  0  0  0  0  0  0  0  0  0  0
   -1.1428   -2.3111   -1.4168 H   0  0  0  0  0  0  0  0  0  0  0  0
   -3.9323   -2.7109   -2.0824 H   0  0  0  0  0  0  0  0  0  0  0  0
   -4.5825   -1.0700   -2.3042 H   0  0  0  0  0  0  0  0  0  0  0  0
   -2.9721   -1.5045   -2.9926 H   0  0  0  0  0  0  0  0  0  0  0  0
   -4.4621   -2.3002    0.3961 H   0  0  0  0  0  0  0  0  0  0  0  0
   -3.5023   -1.0853    1.3090 H   0  0  0  0  0  0  0  0  0  0  0  0
   -4.7877   -0.5484    0.1693 H   0  0  0  0  0  0  0  0  0  0  0  0
    2.0072   -3.2951   -1.0584 H   0  0  0  0  0  0  0  0  0  0  0  0
    1.1076   -2.1032   -0.0401 H   0  0  0  0  0  0  0  0  0  0  0  0
    1.0499   -1.9800   -1.8276 H   0  0  0  0  0  0  0  0  0  0  0  0
    3.8919   -2.5655   -2.4611 H   0  0  0  0  0  0  0  0  0  0  0  0
    4.6729   -0.9760   -2.2832 H   0  0  0  0  0  0  0  0  0  0  0  0
    3.0872   -1.1105   -3.1302 H   0  0  0  0  0  0  0  0  0  0  0  0
    4.2232   -2.7649    0.1075 H   0  0  0  0  0  0  0  0  0  0  0  0
    4.7538   -1.0552    0.2548 H   0  0  0  0  0  0  0  0  0  0  0  0
    3.3269   -1.6360    1.1844 H   0  0  0  0  0  0  0  0  0  0  0  0
    1.2097    3.6664    1.0246 H   0  0  0  0  0  0  0  0  0  0  0  0
    0.4187    2.1595    1.6564 H   0  0  0  0  0  0  0  0  0  0  0  0
   -1.1938    3.7408    0.6334 H   0  0  0  0  0  0  0  0  0  0  0  0
   -0.2942    3.7306   -0.9108 H   0  0  0  0  0  0  0  0  0  0  0  0
  1  2  1  0  0  0  0
  3  2  1  0  0  0  0
  3  6  1  0  0  0  0
  4  3  1  0  0  0  0
  5  4  2  0  0  0  0
  5  1  1  0  0  0  0
  6 43  1  0  0  0  0
  6 44  1  0  0  0  0
  7 45  1  0  0  0  0
  7  6  1  0  0  0  0
  8  9  1  0  0  0  0
  8  7  1  0  0  0  0
 10 13  1  0  0  0  0
 10  9  1  0  0  0  0
 11 12  2  0  0  0  0
 11 10  1  0  0  0  0
 12  8  1  0  0  0  0
 13 14  1  0  0  0  0
 13 16  1  0  0  0  0
 14 25  1  0  0  0  0
 14 26  1  0  0  0  0
 15 28  1  0  0  0  0
 15 13  1  0  0  0  0
 16 31  1  0  0  0  0
 16 32  1  0  0  0  0
 17  1  1  0  0  0  0
 17 20  1  0  0  0  0
 18 17  1  0  0  0  0
 18 35  1  0  0  0  0
 19 17  1  0  0  0  0
 20 41  1  0  0  0  0
 20 42  1  0  0  0  0
 21  4  1  0  0  0  0
 22  5  1  0  0  0  0
 23 11  1  0  0  0  0
 24 12  1  0  0  0  0
 27 14  1  0  0  0  0
 29 15  1  0  0  0  0
 30 15  1  0  0  0  0
 33 16  1  0  0  0  0
 34 18  1  0  0  0  0
 36 18  1  0  0  0  0
 37 19  1  0  0  0  0
 38 19  1  0  0  0  0
 39 19  1  0  0  0  0
 40 20  1  0  0  0  0
 46  7  1  0  0  0  0
M  END
