2,8
 OpenBabel05122313053D

 25 26  0  0  1  0  0  0  0  0999 V2000
   -0.5263    2.4140   -0.2031 O   0  0  0  0  0  0  0  0  0  0  0  0
   -0.5432    1.1106   -0.0134 C   0  0  0  0  0  2  0  0  0  0  0  0
    0.6843    3.1230   -0.5069 C   0  0  0  0  0  0  0  0  0  0  0  0
   -1.9816    0.6498    0.1389 C   0  0  1  0  0  0  0  0  0  0  0  0
   -2.2591   -0.0047   -1.2734 C   0  0  0  0  0  0  0  0  0  0  0  0
   -2.1315   -1.4995   -0.9538 C   0  0  1  0  0  0  0  0  0  0  0  0
   -0.7541   -1.8440   -0.3398 C   0  0  0  0  0  3  0  0  0  0  0  0
   -0.7756   -1.3829    0.9984 C   0  0  0  0  0  3  0  0  0  0  0  0
   -2.0791   -0.5897    1.1062 C   0  0  2  0  0  0  0  0  0  0  0  0
   -3.0134   -1.5506    0.3275 C   0  0  0  0  0  0  0  0  0  0  0  0
   -2.9892    1.7463    0.4911 C   0  0  0  0  0  0  0  0  0  0  0  0
    1.1594    2.7058   -1.4142 H   0  0  0  0  0  0  0  0  0  0  0  0
    1.3899    3.0620    0.3425 H   0  0  0  0  0  0  0  0  0  0  0  0
    0.3802    4.1716   -0.6766 H   0  0  0  0  0  0  0  0  0  0  0  0
   -3.2900    0.2430   -1.5993 H   0  0  0  0  0  0  0  0  0  0  0  0
   -1.5662    0.3469   -2.0608 H   0  0  0  0  0  0  0  0  0  0  0  0
   -2.4147   -2.1642   -1.7918 H   0  0  0  0  0  0  0  0  0  0  0  0
   -0.2316   -2.7543   -0.6639 H   0  0  0  0  0  0  0  0  0  0  0  0
   -0.3797   -1.9511    1.8518 H   0  0  0  0  0  0  0  0  0  0  0  0
   -2.3767   -0.3059    2.1327 H   0  0  0  0  0  0  0  0  0  0  0  0
   -4.0472   -1.1733    0.1747 H   0  0  0  0  0  0  0  0  0  0  0  0
   -3.0603   -2.5564    0.7898 H   0  0  0  0  0  0  0  0  0  0  0  0
   -3.0236    2.5304   -0.2892 H   0  0  0  0  0  0  0  0  0  0  0  0
   -4.0040    1.3108    0.5882 H   0  0  0  0  0  0  0  0  0  0  0  0
   -2.7298    2.2351    1.4514 H   0  0  0  0  0  0  0  0  0  0  0  0
  1  2  1  0  0  0  0
  3  1  1  0  0  0  0
  3 13  1  0  0  0  0
  4  2  1  1  0  0  0
  4 11  1  0  0  0  0
  4  9  1  0  0  0  0
  5  6  1  0  0  0  0
  5  4  1  0  0  0  0
  6 17  1  6  0  0  0
  6  7  1  0  0  0  0
  6 10  1  0  0  0  0
  7  8  1  0  0  0  0
  8  9  1  0  0  0  0
  8 19  1  0  0  0  0
  9 20  1  1  0  0  0
 10 22  1  0  0  0  0
 10  9  1  0  0  0  0
 11 24  1  0  0  0  0
 11 25  1  0  0  0  0
 12  3  1  0  0  0  0
 14  3  1  0  0  0  0
 15  5  1  0  0  0  0
 16  5  1  0  0  0  0
 18  7  1  0  0  0  0
 21 10  1  0  0  0  0
 23 11  1  0  0  0  0
M  END
