3,35
 OpenBabel05122313053D

 61 64  0  0  0  0  0  0  0  0999 V2000
   -2.5605    1.0880    0.9310 N   0  0  0  0  0  0  0  0  0  0  0  0
   -1.1213    2.7320    0.7648 N   0  0  0  0  0  0  0  0  0  0  0  0
   -1.3628    1.4383    0.4086 C   0  0  0  0  0  2  0  0  0  0  0  0
   -3.0921    2.1487    1.8163 C   0  0  0  0  0  0  0  0  0  0  0  0
   -2.9072    1.8640    2.8764 H   0  0  0  0  0  0  0  0  0  0  0  0
   -4.1822    2.2735    1.6808 H   0  0  0  0  0  0  0  0  0  0  0  0
   -2.2775    3.3757    1.3938 C   0  0  0  0  0  0  0  0  0  0  0  0
   -2.8256    4.0086    0.6578 H   0  0  0  0  0  0  0  0  0  0  0  0
   -1.9775    4.0133    2.2496 H   0  0  0  0  0  0  0  0  0  0  0  0
   -3.2507   -0.1690    0.8695 C   0  0  0  0  0  0  0  0  0  0  0  0
   -2.7391   -1.2969    1.5448 C   0  0  0  0  0  0  0  0  0  0  0  0
   -3.4911   -2.4854    1.5153 C   0  0  0  0  0  0  0  0  0  0  0  0
   -3.0928   -3.3732    2.0325 H   0  0  0  0  0  0  0  0  0  0  0  0
   -4.7234   -2.5722    0.8482 C   0  0  0  0  0  0  0  0  0  0  0  0
   -5.2006   -1.4248    0.1864 C   0  0  0  0  0  0  0  0  0  0  0  0
   -6.1524   -1.4770   -0.3666 H   0  0  0  0  0  0  0  0  0  0  0  0
   -4.4848   -0.2188    0.1742 C   0  0  0  0  0  0  0  0  0  0  0  0
   -1.3984   -1.2586    2.2198 C   0  0  0  0  0  0  0  0  0  0  0  0
   -0.5912   -1.2761    1.4553 H   0  0  0  0  0  0  0  0  0  0  0  0
   -1.2592   -2.1284    2.8897 H   0  0  0  0  0  0  0  0  0  0  0  0
   -1.2511   -0.3335    2.8131 H   0  0  0  0  0  0  0  0  0  0  0  0
   -5.4972   -3.8653    0.8001 C   0  0  0  0  0  0  0  0  0  0  0  0
   -6.5850   -3.6961    0.9318 H   0  0  0  0  0  0  0  0  0  0  0  0
   -5.1597   -4.5746    1.5807 H   0  0  0  0  0  0  0  0  0  0  0  0
   -5.3649   -4.3665   -0.1827 H   0  0  0  0  0  0  0  0  0  0  0  0
   -4.9602    0.9470   -0.6509 C   0  0  0  0  0  0  0  0  0  0  0  0
   -5.1655    1.8595   -0.0519 H   0  0  0  0  0  0  0  0  0  0  0  0
   -5.8908    0.6925   -1.1921 H   0  0  0  0  0  0  0  0  0  0  0  0
   -4.1770    1.1970   -1.3991 H   0  0  0  0  0  0  0  0  0  0  0  0
    0.0065    3.4550    0.2150 C   0  0  0  0  0  0  0  0  0  0  0  0
    0.0237    4.4689    0.6605 H   0  0  0  0  0  0  0  0  0  0  0  0
   -0.0957    3.5524   -0.8914 H   0  0  0  0  0  0  0  0  0  0  0  0
    2.7220    1.1773    0.6489 N   0  0  0  0  0  0  0  0  0  0  0  0
    1.2442    2.7872    0.5557 N   0  0  0  0  0  0  0  0  0  0  0  0
    1.4607    1.4753    0.2562 C   0  0  0  0  0  2  0  0  0  0  0  0
    3.3663    2.3113    1.3470 C   0  0  0  0  0  0  0  0  0  0  0  0
    3.3879    2.1055    2.4402 H   0  0  0  0  0  0  0  0  0  0  0  0
    4.4099    2.4446    1.0034 H   0  0  0  0  0  0  0  0  0  0  0  0
    2.4526    3.4905    0.9918 C   0  0  0  0  0  0  0  0  0  0  0  0
    2.8685    4.1082    0.1630 H   0  0  0  0  0  0  0  0  0  0  0  0
    2.2486    4.1582    1.8536 H   0  0  0  0  0  0  0  0  0  0  0  0
    3.3389   -0.1147    0.7462 C   0  0  0  0  0  0  0  0  0  0  0  0
    2.9436   -0.9910    1.7808 C   0  0  0  0  0  0  0  0  0  0  0  0
    3.5800   -2.2424    1.8678 C   0  0  0  0  0  0  0  0  0  0  0  0
    3.2642   -2.9431    2.6576 H   0  0  0  0  0  0  0  0  0  0  0  0
    4.6088   -2.6151    0.9864 C   0  0  0  0  0  0  0  0  0  0  0  0
    5.0189   -1.6853    0.0123 C   0  0  0  0  0  0  0  0  0  0  0  0
    5.8349   -1.9518   -0.6785 H   0  0  0  0  0  0  0  0  0  0  0  0
    4.4051   -0.4310   -0.1290 C   0  0  0  0  0  0  0  0  0  0  0  0
    1.9205   -0.5818    2.8095 C   0  0  0  0  0  0  0  0  0  0  0  0
    1.0993    0.0106    2.3666 H   0  0  0  0  0  0  0  0  0  0  0  0
    1.4750   -1.4663    3.3025 H   0  0  0  0  0  0  0  0  0  0  0  0
    2.3867    0.0360    3.6086 H   0  0  0  0  0  0  0  0  0  0  0  0
    5.2421   -3.9811    1.0620 C   0  0  0  0  0  0  0  0  0  0  0  0
    6.3260   -3.9429    0.8338 H   0  0  0  0  0  0  0  0  0  0  0  0
    5.1129   -4.4397    2.0619 H   0  0  0  0  0  0  0  0  0  0  0  0
    4.7794   -4.6684    0.3214 H   0  0  0  0  0  0  0  0  0  0  0  0
    4.8399    0.5276   -1.2036 C   0  0  0  0  0  0  0  0  0  0  0  0
    5.1698    1.5054   -0.7927 H   0  0  0  0  0  0  0  0  0  0  0  0
    5.6798    0.1102   -1.7901 H   0  0  0  0  0  0  0  0  0  0  0  0
    3.9866    0.7131   -1.8910 H   0  0  0  0  0  0  0  0  0  0  0  0
  1  4  1  0  0  0  0
  2  7  1  0  0  0  0
  3  2  1  0  0  0  0
  3  1  1  0  0  0  0
  4  5  1  0  0  0  0
  6  4  1  0  0  0  0
  7  4  1  0  0  0  0
  7  9  1  0  0  0  0
  8  7  1  0  0  0  0
 10  1  1  0  0  0  0
 10 11  1  0  0  0  0
 11 18  1  0  0  0  0
 12 11  2  0  0  0  0
 12 13  1  0  0  0  0
 14 12  1  0  0  0  0
 15 14  2  0  0  0  0
 16 15  1  0  0  0  0
 17 15  1  0  0  0  0
 17 10  2  0  0  0  0
 18 21  1  0  0  0  0
 18 20  1  0  0  0  0
 19 18  1  0  0  0  0
 22 14  1  0  0  0  0
 22 23  1  0  0  0  0
 22 24  1  0  0  0  0
 25 22  1  0  0  0  0
 26 27  1  0  0  0  0
 26 17  1  0  0  0  0
 28 26  1  0  0  0  0
 29 26  1  0  0  0  0
 30 34  1  0  0  0  0
 30 31  1  0  0  0  0
 30  2  1  0  0  0  0
 32 30  1  0  0  0  0
 33 42  1  0  0  0  0
 33 36  1  0  0  0  0
 34 39  1  0  0  0  0
 35 34  1  0  0  0  0
 35 33  1  0  0  0  0
 36 37  1  0  0  0  0
 38 36  1  0  0  0  0
 39 36  1  0  0  0  0
 39 41  1  0  0  0  0
 40 39  1  0  0  0  0
 42 43  1  0  0  0  0
 43 44  2  0  0  0  0
 43 50  1  0  0  0  0
 44 45  1  0  0  0  0
 46 54  1  0  0  0  0
 46 44  1  0  0  0  0
 47 46  2  0  0  0  0
 48 47  1  0  0  0  0
 49 47  1  0  0  0  0
 49 42  2  0  0  0  0
 50 52  1  0  0  0  0
 50 53  1  0  0  0  0
 51 50  1  0  0  0  0
 54 56  1  0  0  0  0
 55 54  1  0  0  0  0
 57 54  1  0  0  0  0
 58 59  1  0  0  0  0
 58 49  1  0  0  0  0
 60 58  1  0  0  0  0
 61 58  1  0  0  0  0
M  END
