5,13
 OpenBabel05122313053D

 20 20  0  0  0  0  0  0  0  0999 V2000
   -0.7551    1.0853    1.2280 C   0  0  0  0  0  0  0  0  0  0  0  0
   -1.1678    0.7680    2.1907 H   0  0  0  0  0  0  0  0  0  0  0  0
   -2.6551    0.1312    0.0000 N   0  0  0  0  0  0  0  0  0  0  0  0
   -1.4381    0.7738   -0.0001 C   0  0  0  0  0  0  0  0  0  0  0  0
    0.4803    1.7905    1.2162 C   0  0  0  0  0  3  0  0  0  0  0  0
    0.9733    2.0069    2.1745 H   0  0  0  0  0  0  0  0  0  0  0  0
   -3.1650   -0.4288    1.2424 C   0  0  0  0  0  0  0  0  0  0  0  0
   -2.5354   -1.2656    1.6226 H   0  0  0  0  0  0  0  0  0  0  0  0
   -4.1860   -0.8146    1.0690 H   0  0  0  0  0  0  0  0  0  0  0  0
   -3.2348    0.3478    2.0298 H   0  0  0  0  0  0  0  0  0  0  0  0
   -0.7551    1.0846   -1.2285 C   0  0  0  0  0  3  0  0  0  0  0  0
   -1.1679    0.7667   -2.1910 H   0  0  0  0  0  0  0  0  0  0  0  0
    0.4802    1.7898   -1.2172 C   0  0  0  0  0  3  0  0  0  0  0  0
    0.9733    2.0057   -2.1756 H   0  0  0  0  0  0  0  0  0  0  0  0
    1.0937    2.1912   -0.0006 C   0  0  0  0  0  3  0  0  0  0  0  0
    2.0610    2.7094   -0.0007 H   0  0  0  0  0  0  0  0  0  0  0  0
   -3.1652   -0.4294   -1.2420 C   0  0  0  0  0  0  0  0  0  0  0  0
   -3.2349    0.3469   -2.0298 H   0  0  0  0  0  0  0  0  0  0  0  0
   -4.1862   -0.8150   -1.0685 H   0  0  0  0  0  0  0  0  0  0  0  0
   -2.5356   -1.2664   -1.6219 H   0  0  0  0  0  0  0  0  0  0  0  0
  1  2  1  0  0  0  0
  3  7  1  0  0  0  0
  4  3  1  0  0  0  0
  4  1  2  0  0  0  0
  5  1  1  0  0  0  0
  5  6  1  0  0  0  0
  7  8  1  0  0  0  0
  7 10  1  0  0  0  0
  9  7  1  0  0  0  0
 11 13  1  0  0  0  0
 11  4  1  0  0  0  0
 12 11  1  0  0  0  0
 13 15  1  0  0  0  0
 14 13  1  0  0  0  0
 15  5  1  0  0  0  0
 16 15  1  0  0  0  0
 17 19  1  0  0  0  0
 17  3  1  0  0  0  0
 18 17  1  0  0  0  0
 20 17  1  0  0  0  0
M  END
