15,37
 OpenBabel05122313053D

 62 66  0  0  1  0  0  0  0  0999 V2000
    0.9879   -1.2980    1.0290 O   0  0  0  0  0  0  0  0  0  0  0  0
    3.7741    1.3362    2.0594 O   0  0  0  0  0  0  0  0  0  0  0  0
    2.0607    1.8386   -0.6152 C   0  0  0  0  0  0  0  0  0  0  0  0
    0.7785    2.4665   -0.8187 C   0  0  0  0  0  0  0  0  0  0  0  0
    5.9126   -1.3867    0.7534 C   0  0  0  0  0  0  0  0  0  0  0  0
    6.8829   -1.8712    0.9441 H   0  0  0  0  0  0  0  0  0  0  0  0
    3.4168   -0.1332    0.2634 C   0  0  0  0  0  0  0  0  0  0  0  0
    3.1449    3.7648   -1.6625 C   0  0  0  0  0  0  0  0  0  0  0  0
    4.0603    4.2746   -1.9997 H   0  0  0  0  0  0  0  0  0  0  0  0
    2.1167    0.5546    0.0235 C   0  0  0  0  0  0  0  0  0  0  0  0
   -0.4040    1.7898   -0.4113 C   0  0  0  0  0  0  0  0  0  0  0  0
   -1.3799    2.2615   -0.6016 H   0  0  0  0  0  0  0  0  0  0  0  0
    4.2525    0.3056    1.3018 C   0  0  0  0  0  0  0  0  0  0  0  0
   -0.3521    0.5351    0.1891 C   0  0  0  0  0  0  0  0  0  0  0  0
   -1.5632   -0.2046    0.6079 C   0  0  2  0  0  3  0  0  0  0  0  0
    3.8271   -1.2345   -0.5537 C   0  0  0  0  0  0  0  0  0  0  0  0
    0.9305   -0.0664    0.4150 C   0  0  0  0  0  0  0  0  0  0  0  0
    5.4955   -2.9766   -1.1179 C   0  0  0  0  0  0  0  0  0  0  0  0
    6.4652   -3.4573   -0.9134 H   0  0  0  0  0  0  0  0  0  0  0  0
    5.0961   -1.8767   -0.3025 C   0  0  0  0  0  0  0  0  0  0  0  0
    3.2323    2.5192   -1.0578 C   0  0  0  0  0  0  0  0  0  0  0  0
    4.2091    2.0341   -0.9165 H   0  0  0  0  0  0  0  0  0  0  0  0
   -1.1909   -2.3396   -0.8496 C   0  0  0  0  0  0  0  0  0  0  0  0
   -0.4236   -2.9388   -0.3181 H   0  0  0  0  0  0  0  0  0  0  0  0
   -0.6621   -1.6983   -1.5797 H   0  0  0  0  0  0  0  0  0  0  0  0
   -1.8562   -3.0226   -1.4110 H   0  0  0  0  0  0  0  0  0  0  0  0
   -2.5131    0.2163    1.6018 C   0  0  1  0  0  3  0  0  0  0  0  0
    0.7233    3.7465   -1.4457 C   0  0  0  0  0  0  0  0  0  0  0  0
   -0.2619    4.2135   -1.5998 H   0  0  0  0  0  0  0  0  0  0  0  0
    3.4395   -2.7969   -2.3995 C   0  0  0  0  0  0  0  0  0  0  0  0
    2.8012   -3.1582   -3.2203 H   0  0  0  0  0  0  0  0  0  0  0  0
   -1.9484   -1.5079    0.1349 C   0  0  0  0  0  0  0  0  0  0  0  0
    5.5091   -0.3201    1.5413 C   0  0  0  0  0  0  0  0  0  0  0  0
    6.1586    0.0317    2.3538 H   0  0  0  0  0  0  0  0  0  0  0  0
    3.0214   -1.7252   -1.6263 C   0  0  0  0  0  0  0  0  0  0  0  0
    2.0583   -1.2363   -1.8313 H   0  0  0  0  0  0  0  0  0  0  0  0
   -3.5068   -0.8110    1.7141 C   0  0  1  0  0  3  0  0  0  0  0  0
    1.0303   -1.2372    2.4510 C   0  0  0  0  0  0  0  0  0  0  0  0
    1.8748   -0.6033    2.7999 H   0  0  0  0  0  0  0  0  0  0  0  0
    1.1703   -2.2725    2.8154 H   0  0  0  0  0  0  0  0  0  0  0  0
    0.0809   -0.8297    2.8686 H   0  0  0  0  0  0  0  0  0  0  0  0
    1.8820    4.3867   -1.8570 C   0  0  0  0  0  0  0  0  0  0  0  0
    1.8264    5.3738   -2.3402 H   0  0  0  0  0  0  0  0  0  0  0  0
    4.6065    1.9046    3.0517 C   0  0  0  0  0  0  0  0  0  0  0  0
    4.8546    1.1784    3.8583 H   0  0  0  0  0  0  0  0  0  0  0  0
    4.0357    2.7436    3.4909 H   0  0  0  0  0  0  0  0  0  0  0  0
    5.5542    2.3000    2.6228 H   0  0  0  0  0  0  0  0  0  0  0  0
   -2.4118    1.4369    2.4606 C   0  0  0  0  0  0  0  0  0  0  0  0
   -3.3755    1.9777    2.5255 H   0  0  0  0  0  0  0  0  0  0  0  0
   -1.6549    2.1403    2.0677 H   0  0  0  0  0  0  0  0  0  0  0  0
   -2.1114    1.1473    3.4905 H   0  0  0  0  0  0  0  0  0  0  0  0
    4.6855   -3.4330   -2.1454 C   0  0  0  0  0  0  0  0  0  0  0  0
    5.0042   -4.2831   -2.7672 H   0  0  0  0  0  0  0  0  0  0  0  0
   -3.1494   -1.8819    0.8216 C   0  0  0  0  0  0  0  0  0  0  0  0
   -3.8584   -3.1933    0.6909 C   0  0  0  0  0  0  0  0  0  0  0  0
   -3.4293   -3.9300    1.4039 H   0  0  0  0  0  0  0  0  0  0  0  0
   -3.7546   -3.6150   -0.3270 H   0  0  0  0  0  0  0  0  0  0  0  0
   -4.9388   -3.0972    0.9052 H   0  0  0  0  0  0  0  0  0  0  0  0
   -4.6897   -0.7805    2.6320 C   0  0  0  0  0  0  0  0  0  0  0  0
   -4.4495   -1.2680    3.6017 H   0  0  0  0  0  0  0  0  0  0  0  0
   -5.5561   -1.3099    2.1916 H   0  0  0  0  0  0  0  0  0  0  0  0
   -5.0042    0.2580    2.8502 H   0  0  0  0  0  0  0  0  0  0  0  0
  1 38  1  0  0  0  0
  2 44  1  0  0  0  0
  3 10  1  0  0  0  0
  4  3  1  0  0  0  0
  4 11  1  0  0  0  0
  5  6  1  0  0  0  0
  5 33  1  0  0  0  0
  7 13  1  0  0  0  0
  8 21  1  0  0  0  0
  9  8  1  0  0  0  0
 10  7  1  0  0  0  0
 10 17  2  0  0  0  0
 11 14  2  0  0  0  0
 12 11  1  0  0  0  0
 13 33  2  0  0  0  0
 13  2  1  0  0  0  0
 14 17  1  0  0  0  0
 15 14  1  1  0  0  0
 15 27  1  0  0  0  0
 16 20  1  0  0  0  0
 16  7  2  0  0  0  0
 17  1  1  0  0  0  0
 18 19  1  0  0  0  0
 18 20  1  0  0  0  0
 20  5  2  0  0  0  0
 21 22  1  0  0  0  0
 21  3  2  0  0  0  0
 23 24  1  0  0  0  0
 23 32  1  0  0  0  0
 25 23  1  0  0  0  0
 26 23  1  0  0  0  0
 27 37  1  0  0  0  0
 27 48  1  1  0  0  0
 28  4  2  0  0  0  0
 29 28  1  0  0  0  0
 30 52  1  0  0  0  0
 30 35  2  0  0  0  0
 31 30  1  0  0  0  0
 32 15  1  0  0  0  0
 32 54  2  0  0  0  0
 33 34  1  0  0  0  0
 35 16  1  0  0  0  0
 36 35  1  0  0  0  0
 37 59  1  1  0  0  0
 38 39  1  0  0  0  0
 38 40  1  0  0  0  0
 38 41  1  0  0  0  0
 42  8  2  0  0  0  0
 42 28  1  0  0  0  0
 43 42  1  0  0  0  0
 44 46  1  0  0  0  0
 44 45  1  0  0  0  0
 47 44  1  0  0  0  0
 48 49  1  0  0  0  0
 48 51  1  0  0  0  0
 50 48  1  0  0  0  0
 52 18  2  0  0  0  0
 53 52  1  0  0  0  0
 54 37  1  0  0  0  0
 55 54  1  0  0  0  0
 55 58  1  0  0  0  0
 55 56  1  0  0  0  0
 57 55  1  0  0  0  0
 59 62  1  0  0  0  0
 59 60  1  0  0  0  0
 61 59  1  0  0  0  0
M  END
