7,9
 OpenBabel05122313053D

 47 47  0  0  0  0  0  0  0  0999 V2000
    0.9744    2.5965   -0.2173 Si  0  0  0  0  0  0  0  0  0  0  0  0
   -0.9085    0.1951   -0.4122 O   0  0  0  0  0  0  0  0  0  0  0  0
   -2.2126   -0.8872   -1.9672 O   0  0  0  0  0  0  0  0  0  0  0  0
   -3.0855   -0.2561    0.0791 N   0  0  0  0  0  0  0  0  0  0  0  0
    0.2891   -0.1444   -0.9943 C   0  0  0  0  0  0  0  0  0  0  0  0
    1.2917    0.8734   -0.9822 C   0  0  0  0  0  0  0  0  0  0  0  0
    2.5788    0.5101   -1.5045 C   0  0  0  0  0  3  0  0  0  0  0  0
    2.8507   -0.7785   -2.0320 C   0  0  0  0  0  3  0  0  0  0  0  0
    1.8338   -1.7729   -1.9769 C   0  0  0  0  0  3  0  0  0  0  0  0
    0.5429   -1.4640   -1.4765 C   0  0  0  0  0  3  0  0  0  0  0  0
   -2.1090   -0.3862   -0.8588 C   0  0  0  0  0  0  0  0  0  0  0  0
   -4.4699   -0.6373   -0.2962 C   0  0  0  0  0  0  0  0  0  0  0  0
   -5.0007    0.2117   -1.4574 C   0  0  0  0  0  0  0  0  0  0  0  0
   -4.6062   -2.1440   -0.5460 C   0  0  0  0  0  0  0  0  0  0  0  0
   -2.8395    0.2467    1.4501 C   0  0  0  0  0  0  0  0  0  0  0  0
   -3.4904    1.6171    1.6672 C   0  0  0  0  0  0  0  0  0  0  0  0
   -3.2403   -0.7839    2.5111 C   0  0  0  0  0  0  0  0  0  0  0  0
    0.5509    2.4699    1.6172 C   0  0  0  0  0  0  0  0  0  0  0  0
    2.5794    3.5800   -0.4006 C   0  0  0  0  0  0  0  0  0  0  0  0
   -0.4291    3.4316   -1.1718 C   0  0  0  0  0  0  0  0  0  0  0  0
    3.3906    1.2508   -1.4800 H   0  0  0  0  0  0  0  0  0  0  0  0
    3.8557   -1.0294   -2.3957 H   0  0  0  0  0  0  0  0  0  0  0  0
    2.0481   -2.7978   -2.3112 H   0  0  0  0  0  0  0  0  0  0  0  0
   -0.2407   -2.2276   -1.4370 H   0  0  0  0  0  0  0  0  0  0  0  0
   -5.0743   -0.3890    0.5993 H   0  0  0  0  0  0  0  0  0  0  0  0
   -4.9263    1.2921   -1.2220 H   0  0  0  0  0  0  0  0  0  0  0  0
   -4.4294    0.0109   -2.3834 H   0  0  0  0  0  0  0  0  0  0  0  0
   -6.0664   -0.0278   -1.6448 H   0  0  0  0  0  0  0  0  0  0  0  0
   -4.0177   -2.4436   -1.4336 H   0  0  0  0  0  0  0  0  0  0  0  0
   -4.2495   -2.7234    0.3283 H   0  0  0  0  0  0  0  0  0  0  0  0
   -5.6687   -2.4054   -0.7225 H   0  0  0  0  0  0  0  0  0  0  0  0
   -1.7460    0.3697    1.5279 H   0  0  0  0  0  0  0  0  0  0  0  0
   -3.1338    2.3466    0.9131 H   0  0  0  0  0  0  0  0  0  0  0  0
   -4.5973    1.5667    1.6051 H   0  0  0  0  0  0  0  0  0  0  0  0
   -3.2313    2.0075    2.6715 H   0  0  0  0  0  0  0  0  0  0  0  0
   -4.3322   -0.9797    2.5251 H   0  0  0  0  0  0  0  0  0  0  0  0
   -2.7083   -1.7410    2.3472 H   0  0  0  0  0  0  0  0  0  0  0  0
   -2.9558   -0.4103    3.5143 H   0  0  0  0  0  0  0  0  0  0  0  0
   -0.3602    1.8657    1.7868 H   0  0  0  0  0  0  0  0  0  0  0  0
    1.3826    1.9995    2.1782 H   0  0  0  0  0  0  0  0  0  0  0  0
    0.3770    3.4827    2.0364 H   0  0  0  0  0  0  0  0  0  0  0  0
    3.4066    3.1021    0.1638 H   0  0  0  0  0  0  0  0  0  0  0  0
    2.8915    3.6914   -1.4590 H   0  0  0  0  0  0  0  0  0  0  0  0
    2.4401    4.5993    0.0151 H   0  0  0  0  0  0  0  0  0  0  0  0
   -0.1940    3.5053   -2.2529 H   0  0  0  0  0  0  0  0  0  0  0  0
   -1.3719    2.8585   -1.0661 H   0  0  0  0  0  0  0  0  0  0  0  0
   -0.6037    4.4582   -0.7884 H   0  0  0  0  0  0  0  0  0  0  0  0
  1 18  1  0  0  0  0
  3 11  2  0  0  0  0
  4 15  1  0  0  0  0
  5  6  2  0  0  0  0
  5  2  1  0  0  0  0
  6  1  1  0  0  0  0
  7 21  1  0  0  0  0
  7  6  1  0  0  0  0
  8  9  1  0  0  0  0
  8  7  1  0  0  0  0
  9 10  1  0  0  0  0
 10 24  1  0  0  0  0
 10  5  1  0  0  0  0
 11  2  1  0  0  0  0
 11  4  1  0  0  0  0
 12  4  1  0  0  0  0
 12 25  1  0  0  0  0
 13 26  1  0  0  0  0
 13 12  1  0  0  0  0
 14 12  1  0  0  0  0
 14 30  1  0  0  0  0
 15 32  1  0  0  0  0
 15 16  1  0  0  0  0
 15 17  1  0  0  0  0
 16 35  1  0  0  0  0
 17 36  1  0  0  0  0
 17 38  1  0  0  0  0
 18 39  1  0  0  0  0
 18 41  1  0  0  0  0
 18 40  1  0  0  0  0
 19  1  1  0  0  0  0
 19 44  1  0  0  0  0
 19 42  1  0  0  0  0
 20 46  1  0  0  0  0
 20 47  1  0  0  0  0
 20  1  1  0  0  0  0
 22  8  1  0  0  0  0
 23  9  1  0  0  0  0
 27 13  1  0  0  0  0
 28 13  1  0  0  0  0
 29 14  1  0  0  0  0
 31 14  1  0  0  0  0
 33 16  1  0  0  0  0
 34 16  1  0  0  0  0
 37 17  1  0  0  0  0
 43 19  1  0  0  0  0
 45 20  1  0  0  0  0
M  END
