2,5
 OpenBabel05122313053D

 19 18  0  0  1  0  0  0  0  0999 V2000
    0.6844    1.2636   -2.5189 O   0  0  0  0  0  0  0  0  0  0  0  0
    0.4552    0.3602   -1.7425 C   0  0  0  0  0  3  0  0  0  0  0  0
   -0.8731   -0.3932   -1.7477 C   0  0  0  0  0  0  0  0  0  0  0  0
   -1.0488   -1.1963   -0.4859 C   0  0  1  0  0  3  0  0  0  0  0  0
    0.0880   -1.3228    0.2894 C   0  0  0  0  0  2  0  0  0  0  0  0
    0.2318   -2.0788    1.3957 O   0  0  0  0  0  0  0  0  0  0  0  0
   -0.4646   -3.3213    1.5692 C   0  0  0  0  0  0  0  0  0  0  0  0
   -2.4089   -1.5770   -0.0863 C   0  0  0  0  0  0  0  0  0  0  0  0
   -2.8176   -1.8348    1.0454 O   0  0  0  0  0  0  0  0  0  0  0  0
   -3.2650   -1.5261   -1.1557 O   0  0  0  0  0  0  0  0  0  0  0  0
   -4.6387   -1.7578   -0.8480 C   0  0  0  0  0  0  0  0  0  0  0  0
   -1.6984    0.3282   -1.9221 H   0  0  0  0  0  0  0  0  0  0  0  0
   -0.8475   -1.0405   -2.6563 H   0  0  0  0  0  0  0  0  0  0  0  0
    0.1704   -3.9335    2.2375 H   0  0  0  0  0  0  0  0  0  0  0  0
   -4.7798   -2.7398   -0.3524 H   0  0  0  0  0  0  0  0  0  0  0  0
   -0.5777   -3.8274    0.5871 H   0  0  0  0  0  0  0  0  0  0  0  0
   -5.0330   -0.9736   -0.1685 H   0  0  0  0  0  0  0  0  0  0  0  0
   -1.4694   -3.1595    2.0023 H   0  0  0  0  0  0  0  0  0  0  0  0
   -5.1786   -1.7308   -1.8118 H   0  0  0  0  0  0  0  0  0  0  0  0
  1  2  2  0  0  0  0
  3  2  1  0  0  0  0
  3  4  1  0  0  0  0
  4  8  1  0  0  0  0
  4  5  1  1  0  0  0
  5  6  1  0  0  0  0
  6  7  1  0  0  0  0
  7 18  1  0  0  0  0
  7 14  1  0  0  0  0
  8  9  2  0  0  0  0
 10 11  1  0  0  0  0
 10  8  1  0  0  0  0
 11 15  1  0  0  0  0
 11 17  1  0  0  0  0
 12  3  1  0  0  0  0
 13  3  1  0  0  0  0
 16  7  1  0  0  0  0
 19 11  1  0  0  0  0
M  END
