6,10
 OpenBabel05122313053D

 46 48  0  0  0  0  0  0  0  0999 V2000
    4.2576    0.4576    0.5146 Si  0  0  0  0  0  0  0  0  0  0  0  0
    1.2839   -0.7914   -1.4944 N   0  0  0  0  0  0  0  0  0  0  0  0
    0.9527    1.6324   -0.8270 C   0  0  0  0  0  0  0  0  0  0  0  0
    1.3413    2.6303   -0.5647 H   0  0  0  0  0  0  0  0  0  0  0  0
   -0.4029    1.4474   -0.7278 C   0  0  0  0  0  0  0  0  0  0  0  0
   -2.3874   -0.0770   -1.0978 C   0  0  0  0  0  3  0  0  0  0  0  0
   -3.0382    0.7556   -0.8001 H   0  0  0  0  0  0  0  0  0  0  0  0
   -2.9645   -1.3082   -1.4972 C   0  0  0  0  0  3  0  0  0  0  0  0
   -4.0538   -1.4414   -1.4827 H   0  0  0  0  0  0  0  0  0  0  0  0
   -2.1028   -2.3915   -1.7962 C   0  0  0  0  0  3  0  0  0  0  0  0
   -2.5191   -3.3814   -2.0295 H   0  0  0  0  0  0  0  0  0  0  0  0
   -0.6920   -2.2209   -1.7849 C   0  0  0  0  0  3  0  0  0  0  0  0
   -0.0609   -3.0859   -2.0076 H   0  0  0  0  0  0  0  0  0  0  0  0
    2.0820   -1.9785   -1.7855 C   0  0  0  0  0  0  0  0  0  0  0  0
    1.8989   -2.7733   -1.0324 H   0  0  0  0  0  0  0  0  0  0  0  0
    3.1503   -1.7172   -1.7495 H   0  0  0  0  0  0  0  0  0  0  0  0
    1.8565   -2.3867   -2.7929 H   0  0  0  0  0  0  0  0  0  0  0  0
    3.4642    0.7091   -1.2144 C   0  0  0  0  0  0  0  0  0  0  0  0
    3.6770    1.7706   -1.4663 H   0  0  0  0  0  0  0  0  0  0  0  0
    4.0374    0.0826   -1.9296 H   0  0  0  0  0  0  0  0  0  0  0  0
    3.2727    1.4023    1.8234 C   0  0  0  0  0  0  0  0  0  0  0  0
    2.2597    0.9674    1.9421 H   0  0  0  0  0  0  0  0  0  0  0  0
    3.1595    2.4739    1.5599 H   0  0  0  0  0  0  0  0  0  0  0  0
    3.7825    1.3460    2.8073 H   0  0  0  0  0  0  0  0  0  0  0  0
    6.0323    1.1193    0.4394 C   0  0  0  0  0  0  0  0  0  0  0  0
    6.5454    0.9867    1.4146 H   0  0  0  0  0  0  0  0  0  0  0  0
    6.0478    2.2011    0.1932 H   0  0  0  0  0  0  0  0  0  0  0  0
    6.6280    0.5877   -0.3313 H   0  0  0  0  0  0  0  0  0  0  0  0
    4.2923   -1.3797    0.9700 C   0  0  0  0  0  0  0  0  0  0  0  0
    4.8315   -1.5176    1.9303 H   0  0  0  0  0  0  0  0  0  0  0  0
    4.8135   -1.9909    0.2046 H   0  0  0  0  0  0  0  0  0  0  0  0
    3.2664   -1.7748    1.1088 H   0  0  0  0  0  0  0  0  0  0  0  0
   -1.2958    2.5693   -0.3175 C   0  0  0  0  0  0  0  0  0  0  0  0
   -1.3105    3.7602   -1.0757 C   0  0  0  0  0  0  0  0  0  0  0  0
   -0.6907    3.8229   -1.9831 H   0  0  0  0  0  0  0  0  0  0  0  0
   -2.1112    4.8448   -0.6897 C   0  0  0  0  0  0  0  0  0  0  0  0
   -2.1159    5.7630   -1.2968 H   0  0  0  0  0  0  0  0  0  0  0  0
   -2.9047    4.7595    0.4651 C   0  0  0  0  0  0  0  0  0  0  0  0
   -3.5326    5.6107    0.7692 H   0  0  0  0  0  0  0  0  0  0  0  0
   -2.8892    3.5839    1.2324 C   0  0  0  0  0  0  0  0  0  0  0  0
   -3.4974    3.5105    2.1467 H   0  0  0  0  0  0  0  0  0  0  0  0
   -2.0938    2.4955    0.8458 C   0  0  0  0  0  0  0  0  0  0  0  0
   -2.0755    1.5882    1.4647 H   0  0  0  0  0  0  0  0  0  0  0  0
   -0.0980   -0.9550   -1.4681 C   0  0  0  0  0  0  0  0  0  0  0  0
   -0.9689    0.1457   -1.0862 C   0  0  0  0  0  0  0  0  0  0  0  0
    1.9110    0.4905   -1.2083 B   0  0  0  0  0  0  0  0  0  0  0  0
  1 29  1  0  0  0  0
  1 21  1  0  0  0  0
  2 44  1  0  0  0  0
  2 46  1  0  0  0  0
  3  5  2  0  0  0  0
  3  4  1  0  0  0  0
  5 33  1  0  0  0  0
  6 45  1  0  0  0  0
  6  7  1  0  0  0  0
  8  9  1  0  0  0  0
  8  6  1  0  0  0  0
 10 12  1  0  0  0  0
 10  8  1  0  0  0  0
 11 10  1  0  0  0  0
 12 44  1  0  0  0  0
 13 12  1  0  0  0  0
 14 16  1  0  0  0  0
 14  2  1  0  0  0  0
 14 15  1  0  0  0  0
 17 14  1  0  0  0  0
 18 46  1  0  0  0  0
 18  1  1  0  0  0  0
 19 18  1  0  0  0  0
 20 18  1  0  0  0  0
 21 22  1  0  0  0  0
 21 24  1  0  0  0  0
 23 21  1  0  0  0  0
 25  1  1  0  0  0  0
 25 26  1  0  0  0  0
 27 25  1  0  0  0  0
 28 25  1  0  0  0  0
 29 32  1  0  0  0  0
 29 30  1  0  0  0  0
 31 29  1  0  0  0  0
 33 42  1  0  0  0  0
 34 36  1  0  0  0  0
 34 33  2  0  0  0  0
 35 34  1  0  0  0  0
 36 38  2  0  0  0  0
 37 36  1  0  0  0  0
 38 39  1  0  0  0  0
 38 40  1  0  0  0  0
 40 41  1  0  0  0  0
 42 40  2  0  0  0  0
 42 43  1  0  0  0  0
 44 45  2  0  0  0  0
 45  5  1  0  0  0  0
 46  3  1  0  0  0  0
M  END
