1,3
 OpenBabel05122313053D

 22 22  0  0  1  0  0  0  0  0999 V2000
    1.3237   -2.1450   -1.1150 C   0  0  0  0  0  3  0  0  0  0  0  0
    1.6189   -1.9459    0.2851 C   0  0  2  0  0  3  0  0  0  0  0  0
    0.4901   -2.3532    1.1017 C   0  0  0  0  0  3  0  0  0  0  0  0
   -0.4682   -3.1881    0.4405 C   0  0  0  0  0  3  0  0  0  0  0  0
   -1.6819   -3.7597    1.1195 C   0  0  0  0  0  0  0  0  0  0  0  0
    1.8571   -2.4980   -2.1358 O   0  0  0  0  0  0  0  0  0  0  0  0
    2.8684   -1.3253    0.7558 C   0  0  0  0  0  0  0  0  0  0  0  0
    3.8349   -0.8696   -0.1735 C   0  0  0  0  0  0  0  0  0  0  0  0
    5.0328   -0.2902    0.2666 C   0  0  0  0  0  0  0  0  0  0  0  0
    5.2990   -0.1583    1.6383 C   0  0  0  0  0  0  0  0  0  0  0  0
    4.3498   -0.6128    2.5700 C   0  0  0  0  0  0  0  0  0  0  0  0
    3.1489   -1.1864    2.1357 C   0  0  0  0  0  0  0  0  0  0  0  0
    0.4267   -2.0860    2.1670 H   0  0  0  0  0  0  0  0  0  0  0  0
   -0.0732   -3.8382   -0.3581 H   0  0  0  0  0  0  0  0  0  0  0  0
   -2.5622   -3.7690    0.4460 H   0  0  0  0  0  0  0  0  0  0  0  0
   -1.9650   -3.2067    2.0353 H   0  0  0  0  0  0  0  0  0  0  0  0
   -1.4755   -4.8139    1.4074 H   0  0  0  0  0  0  0  0  0  0  0  0
    3.6414   -0.9822   -1.2489 H   0  0  0  0  0  0  0  0  0  0  0  0
    5.7712    0.0534   -0.4743 H   0  0  0  0  0  0  0  0  0  0  0  0
    6.2429    0.2912    1.9821 H   0  0  0  0  0  0  0  0  0  0  0  0
    4.5478   -0.5204    3.6490 H   0  0  0  0  0  0  0  0  0  0  0  0
    2.4196   -1.5382    2.8790 H   0  0  0  0  0  0  0  0  0  0  0  0
  2  1  1  6  0  0  0
  2  7  1  0  0  0  0
  2  3  1  0  0  0  0
  3 13  1  0  0  0  0
  4  3  1  0  0  0  0
  4  5  1  0  0  0  0
  5 17  1  0  0  0  0
  5 16  1  0  0  0  0
  6  1  2  0  0  0  0
  7 12  1  0  0  0  0
  8  9  1  0  0  0  0
  8  7  2  0  0  0  0
  9 10  2  0  0  0  0
 10 20  1  0  0  0  0
 10 11  1  0  0  0  0
 11 21  1  0  0  0  0
 12 11  2  0  0  0  0
 12 22  1  0  0  0  0
 14  4  1  0  0  0  0
 15  5  1  0  0  0  0
 18  8  1  0  0  0  0
 19  9  1  0  0  0  0
M  END
