6,8
 OpenBabel05122313053D

 59 62  0  0  1  0  0  0  0  0999 V2000
   -2.1836   -0.4889   -0.6382 O   0  0  0  0  0  0  0  0  0  0  0  0
   -1.0515    0.1040   -1.0690 C   0  0  0  0  0  0  0  0  0  0  0  0
   -0.7167    1.3909   -1.4220 C   0  0  0  0  0  0  0  0  0  0  0  0
    0.7438    1.4327   -1.8661 C   0  0  2  0  0  0  0  0  0  0  0  0
    1.2066   -0.0006   -1.7052 C   0  0  0  0  0  0  0  0  0  0  0  0
    2.4696   -0.6126   -1.9399 C   0  0  0  0  0  3  0  0  0  0  0  0
    2.5865   -2.0347   -1.8405 C   0  0  0  0  0  3  0  0  0  0  0  0
    1.4690   -2.8087   -1.3800 C   0  0  0  0  0  3  0  0  0  0  0  0
    0.2045   -2.2059   -1.1007 C   0  0  0  0  0  3  0  0  0  0  0  0
    0.1036   -0.7891   -1.2564 C   0  0  0  0  0  0  0  0  0  0  0  0
   -1.5369    2.6465   -1.4739 C   0  0  0  0  0  0  0  0  0  0  0  0
    1.6161    2.4540   -1.1520 C   0  0  0  0  0  0  0  0  0  0  0  0
    1.4782    2.6659    0.2339 C   0  0  0  0  0  0  0  0  0  0  0  0
    2.3269    3.5561    0.9041 C   0  0  0  0  0  0  0  0  0  0  0  0
    3.3256    4.2474    0.1981 C   0  0  0  0  0  0  0  0  0  0  0  0
    3.4643    4.0497   -1.1833 C   0  0  0  0  0  0  0  0  0  0  0  0
    2.6094    3.1598   -1.8545 C   0  0  0  0  0  0  0  0  0  0  0  0
   -3.2571    0.2980   -0.0746 C   0  0  1  0  0  0  0  0  0  0  0  0
   -4.5049   -0.5930   -0.0336 C   0  0  1  0  0  0  0  0  0  0  0  0
   -5.6498    0.1947    0.6306 C   0  0  0  0  0  0  0  0  0  0  0  0
   -5.2693    0.7202    2.0191 C   0  0  0  0  0  0  0  0  0  0  0  0
   -4.0041    1.5913    1.9799 C   0  0  2  0  0  0  0  0  0  0  0  0
   -2.8650    0.8086    1.3108 C   0  0  0  0  0  0  0  0  0  0  0  0
   -4.8559   -1.2011   -1.4174 C   0  0  0  0  0  0  0  0  0  0  0  0
   -5.9488   -2.2714   -1.3034 C   0  0  0  0  0  0  0  0  0  0  0  0
   -5.2197   -0.1554   -2.4805 C   0  0  0  0  0  0  0  0  0  0  0  0
   -3.5977    2.0945    3.3663 C   0  0  0  0  0  0  0  0  0  0  0  0
    0.7750    1.6747   -2.9563 H   0  0  0  0  0  0  0  0  0  0  0  0
    3.3356   -0.0019   -2.2334 H   0  0  0  0  0  0  0  0  0  0  0  0
    3.5465   -2.5260   -2.0445 H   0  0  0  0  0  0  0  0  0  0  0  0
    1.5879   -3.8936   -1.2509 H   0  0  0  0  0  0  0  0  0  0  0  0
   -0.6552   -2.7953   -0.7589 H   0  0  0  0  0  0  0  0  0  0  0  0
   -2.0746    2.8529   -0.5261 H   0  0  0  0  0  0  0  0  0  0  0  0
   -2.2989    2.6174   -2.2825 H   0  0  0  0  0  0  0  0  0  0  0  0
   -0.8829    3.5192   -1.6680 H   0  0  0  0  0  0  0  0  0  0  0  0
    0.7070    2.1120    0.7902 H   0  0  0  0  0  0  0  0  0  0  0  0
    2.2147    3.7037    1.9886 H   0  0  0  0  0  0  0  0  0  0  0  0
    3.9964    4.9410    0.7272 H   0  0  0  0  0  0  0  0  0  0  0  0
    4.2413    4.5909   -1.7444 H   0  0  0  0  0  0  0  0  0  0  0  0
    2.7152    3.0095   -2.9413 H   0  0  0  0  0  0  0  0  0  0  0  0
   -3.4614    1.1593   -0.7457 H   0  0  0  0  0  0  0  0  0  0  0  0
   -4.2515   -1.4475    0.6360 H   0  0  0  0  0  0  0  0  0  0  0  0
   -5.9313    1.0539   -0.0177 H   0  0  0  0  0  0  0  0  0  0  0  0
   -6.5513   -0.4469    0.7011 H   0  0  0  0  0  0  0  0  0  0  0  0
   -6.1132    1.2947    2.4566 H   0  0  0  0  0  0  0  0  0  0  0  0
   -5.0868   -0.1388    2.7040 H   0  0  0  0  0  0  0  0  0  0  0  0
   -4.2294    2.4776    1.3397 H   0  0  0  0  0  0  0  0  0  0  0  0
   -2.5853   -0.0625    1.9413 H   0  0  0  0  0  0  0  0  0  0  0  0
   -1.9520    1.4356    1.2386 H   0  0  0  0  0  0  0  0  0  0  0  0
   -3.9282   -1.7090   -1.7579 H   0  0  0  0  0  0  0  0  0  0  0  0
   -6.0884   -2.7984   -2.2691 H   0  0  0  0  0  0  0  0  0  0  0  0
   -6.9304   -1.8327   -1.0270 H   0  0  0  0  0  0  0  0  0  0  0  0
   -5.6936   -3.0326   -0.5376 H   0  0  0  0  0  0  0  0  0  0  0  0
   -6.1485    0.3937   -2.2201 H   0  0  0  0  0  0  0  0  0  0  0  0
   -5.3933   -0.6429   -3.4611 H   0  0  0  0  0  0  0  0  0  0  0  0
   -4.4142    0.5929   -2.6279 H   0  0  0  0  0  0  0  0  0  0  0  0
   -3.3551    1.2443    4.0377 H   0  0  0  0  0  0  0  0  0  0  0  0
   -4.4133    2.6782    3.8399 H   0  0  0  0  0  0  0  0  0  0  0  0
   -2.6986    2.7416    3.3151 H   0  0  0  0  0  0  0  0  0  0  0  0
  1 18  1  0  0  0  0
  2  1  1  0  0  0  0
  3  2  2  0  0  0  0
  4 28  1  6  0  0  0
  4  5  1  0  0  0  0
  4  3  1  0  0  0  0
  4 12  1  0  0  0  0
  5 10  2  0  0  0  0
  6  7  1  0  0  0  0
  6  5  1  0  0  0  0
  7  8  1  0  0  0  0
  8 31  1  0  0  0  0
  8  9  1  0  0  0  0
  9 32  1  0  0  0  0
 10  9  1  0  0  0  0
 10  2  1  0  0  0  0
 11  3  1  0  0  0  0
 11 33  1  0  0  0  0
 12 13  1  0  0  0  0
 13 36  1  0  0  0  0
 13 14  2  0  0  0  0
 14 37  1  0  0  0  0
 15 38  1  0  0  0  0
 15 14  1  0  0  0  0
 16 15  2  0  0  0  0
 17 16  1  0  0  0  0
 17 12  2  0  0  0  0
 18 41  1  6  0  0  0
 18 19  1  0  0  0  0
 18 23  1  0  0  0  0
 19 20  1  0  0  0  0
 19 42  1  1  0  0  0
 20 44  1  0  0  0  0
 20 21  1  0  0  0  0
 21 45  1  0  0  0  0
 21 46  1  0  0  0  0
 22 47  1  6  0  0  0
 22 21  1  0  0  0  0
 22 27  1  0  0  0  0
 23 48  1  0  0  0  0
 23 22  1  0  0  0  0
 24 25  1  0  0  0  0
 24 19  1  0  0  0  0
 25 52  1  0  0  0  0
 25 53  1  0  0  0  0
 26 54  1  0  0  0  0
 26 24  1  0  0  0  0
 27 58  1  0  0  0  0
 27 57  1  0  0  0  0
 29  6  1  0  0  0  0
 30  7  1  0  0  0  0
 34 11  1  0  0  0  0
 35 11  1  0  0  0  0
 39 16  1  0  0  0  0
 40 17  1  0  0  0  0
 43 20  1  0  0  0  0
 49 23  1  0  0  0  0
 50 24  1  0  0  0  0
 51 25  1  0  0  0  0
 55 26  1  0  0  0  0
 56 26  1  0  0  0  0
 59 27  1  0  0  0  0
M  END
