16,45
 OpenBabel05122313053D

 58 62  0  0  1  0  0  0  0  0999 V2000
    1.3697    2.4321    0.0397 Si  0  0  0  0  0  0  0  0  0  0  0  0
    2.4390   -0.9609    1.3835 Si  0  0  0  0  0  0  0  0  0  0  0  0
   -0.1600    1.5122   -0.5720 C   0  0  1  0  0  3  0  0  0  0  0  0
   -1.5379    1.9835   -0.5516 C   0  0  0  0  0  0  0  0  0  0  0  0
   -2.1677    3.0353    0.1728 C   0  0  0  0  0  0  0  0  0  0  0  0
   -1.5934    3.6290    0.8980 H   0  0  0  0  0  0  0  0  0  0  0  0
   -3.5120    3.2908   -0.0534 C   0  0  0  0  0  0  0  0  0  0  0  0
   -4.0096    4.1073    0.4911 H   0  0  0  0  0  0  0  0  0  0  0  0
   -4.2704    2.5085   -0.9740 C   0  0  0  0  0  0  0  0  0  0  0  0
   -5.3359    2.7407   -1.1211 H   0  0  0  0  0  0  0  0  0  0  0  0
   -3.6957    1.4573   -1.6718 C   0  0  0  0  0  0  0  0  0  0  0  0
   -4.2879    0.8427   -2.3644 H   0  0  0  0  0  0  0  0  0  0  0  0
   -2.3135    1.1851   -1.4768 C   0  0  0  0  0  0  0  0  0  0  0  0
   -1.4254    0.1961   -2.0415 C   0  0  0  0  0  3  0  0  0  0  0  0
   -1.6905   -0.5696   -2.7819 H   0  0  0  0  0  0  0  0  0  0  0  0
   -0.1184    0.4803   -1.5608 C   0  0  0  0  0  3  0  0  0  0  0  0
    0.7944   -0.0355   -1.8751 H   0  0  0  0  0  0  0  0  0  0  0  0
    1.3699    4.0407   -0.9701 C   0  0  0  0  0  0  0  0  0  0  0  0
    0.4437    4.5997   -0.7240 H   0  0  0  0  0  0  0  0  0  0  0  0
    1.3634    3.8559   -2.0625 H   0  0  0  0  0  0  0  0  0  0  0  0
    2.2325    4.6925   -0.7208 H   0  0  0  0  0  0  0  0  0  0  0  0
    1.2951    2.9565    1.8573 C   0  0  0  0  0  0  0  0  0  0  0  0
    0.8881    3.9871    1.9098 H   0  0  0  0  0  0  0  0  0  0  0  0
    2.3032    2.9691    2.3160 H   0  0  0  0  0  0  0  0  0  0  0  0
    0.6340    2.3049    2.4573 H   0  0  0  0  0  0  0  0  0  0  0  0
    2.8883    1.3806   -0.4698 C   0  0  0  0  0  0  0  0  0  0  0  0
    3.6841    1.9756   -1.4796 C   0  0  0  0  0  0  0  0  0  0  0  0
    3.4297    2.9802   -1.8470 H   0  0  0  0  0  0  0  0  0  0  0  0
    4.7944    1.3342   -2.0484 C   0  0  0  0  0  0  0  0  0  0  0  0
    5.3810    1.8390   -2.8314 H   0  0  0  0  0  0  0  0  0  0  0  0
    5.1391    0.0520   -1.6120 C   0  0  0  0  0  0  0  0  0  0  0  0
    6.0020   -0.4775   -2.0446 H   0  0  0  0  0  0  0  0  0  0  0  0
    4.3755   -0.5556   -0.6043 C   0  0  0  0  0  0  0  0  0  0  0  0
    4.6756   -1.5592   -0.2700 H   0  0  0  0  0  0  0  0  0  0  0  0
    3.2521    0.0720   -0.0091 C   0  0  0  0  0  0  0  0  0  0  0  0
    3.5114   -2.4979    1.6926 C   0  0  0  0  0  0  0  0  0  0  0  0
    3.0439   -3.0765    2.5154 H   0  0  0  0  0  0  0  0  0  0  0  0
    4.5451   -2.2396    2.0011 H   0  0  0  0  0  0  0  0  0  0  0  0
    3.5613   -3.1655    0.8090 H   0  0  0  0  0  0  0  0  0  0  0  0
    2.2806   -0.0558    3.0355 C   0  0  0  0  0  0  0  0  0  0  0  0
    2.3026   -0.8031    3.8550 H   0  0  0  0  0  0  0  0  0  0  0  0
    1.3332    0.5073    3.1180 H   0  0  0  0  0  0  0  0  0  0  0  0
    3.1240    0.6449    3.1935 H   0  0  0  0  0  0  0  0  0  0  0  0
    0.7519   -1.6698    0.9249 C   0  0  2  0  0  3  0  0  0  0  0  0
   -0.2223   -2.0711    1.9058 C   0  0  0  0  0  3  0  0  0  0  0  0
   -0.2008   -1.7787    2.9622 H   0  0  0  0  0  0  0  0  0  0  0  0
   -1.2645   -2.8087    1.2974 C   0  0  0  0  0  3  0  0  0  0  0  0
   -2.1649   -3.1915    1.7899 H   0  0  0  0  0  0  0  0  0  0  0  0
   -0.9209   -2.9834   -0.0927 C   0  0  0  0  0  0  0  0  0  0  0  0
   -1.5814   -3.6408   -1.1715 C   0  0  0  0  0  0  0  0  0  0  0  0
   -2.5680   -4.0989   -1.0131 H   0  0  0  0  0  0  0  0  0  0  0  0
   -0.9433   -3.7070   -2.4020 C   0  0  0  0  0  0  0  0  0  0  0  0
   -1.4295   -4.2283   -3.2403 H   0  0  0  0  0  0  0  0  0  0  0  0
    0.3472   -3.1286   -2.5977 C   0  0  0  0  0  0  0  0  0  0  0  0
    0.8377   -3.2342   -3.5773 H   0  0  0  0  0  0  0  0  0  0  0  0
    0.9912   -2.4384   -1.5805 C   0  0  0  0  0  0  0  0  0  0  0  0
    1.9865   -1.9953   -1.7370 H   0  0  0  0  0  0  0  0  0  0  0  0
    0.3529   -2.3243   -0.3100 C   0  0  0  0  0  0  0  0  0  0  0  0
  1 22  1  0  0  0  0
  2 36  1  0  0  0  0
  2 40  1  0  0  0  0
  3  4  1  0  0  0  0
  3  1  1  6  0  0  0
  4  5  1  0  0  0  0
  5  6  1  0  0  0  0
  7  5  2  0  0  0  0
  7  8  1  0  0  0  0
  9  7  1  0  0  0  0
 10  9  1  0  0  0  0
 11 13  1  0  0  0  0
 11  9  2  0  0  0  0
 12 11  1  0  0  0  0
 13  4  2  0  0  0  0
 14 16  1  0  0  0  0
 14 13  1  0  0  0  0
 15 14  1  0  0  0  0
 16  3  1  0  0  0  0
 17 16  1  0  0  0  0
 18 19  1  0  0  0  0
 18 21  1  0  0  0  0
 18  1  1  0  0  0  0
 20 18  1  0  0  0  0
 22 23  1  0  0  0  0
 22 24  1  0  0  0  0
 22 25  1  0  0  0  0
 26 35  1  0  0  0  0
 26  1  1  0  0  0  0
 27 26  2  0  0  0  0
 28 27  1  0  0  0  0
 29 31  2  0  0  0  0
 29 27  1  0  0  0  0
 30 29  1  0  0  0  0
 31 33  1  0  0  0  0
 32 31  1  0  0  0  0
 33 34  1  0  0  0  0
 33 35  2  0  0  0  0
 35  2  1  0  0  0  0
 36 38  1  0  0  0  0
 36 37  1  0  0  0  0
 39 36  1  0  0  0  0
 40 42  1  0  0  0  0
 40 43  1  0  0  0  0
 40 41  1  0  0  0  0
 44  2  1  1  0  0  0
 44 45  1  0  0  0  0
 45 46  1  0  0  0  0
 47 48  1  0  0  0  0
 47 45  1  0  0  0  0
 49 47  1  0  0  0  0
 50 51  1  0  0  0  0
 50 49  2  0  0  0  0
 52 50  1  0  0  0  0
 53 52  1  0  0  0  0
 54 52  2  0  0  0  0
 54 56  1  0  0  0  0
 55 54  1  0  0  0  0
 56 58  2  0  0  0  0
 57 56  1  0  0  0  0
 58 49  1  0  0  0  0
 58 44  1  0  0  0  0
M  END
