1,4
 OpenBabel05122313053D

 18 18  0  0  0  0  0  0  0  0999 V2000
    0.9873    1.6609   -0.2717 C   0  0  0  0  0  3  0  0  0  0  0  0
    1.9875    0.7617   -0.1204 C   0  0  0  0  0  0  0  0  0  0  0  0
    1.9876   -0.7615    0.1209 C   0  0  0  0  0  0  0  0  0  0  0  0
    0.9876   -1.6609    0.2717 C   0  0  0  0  0  3  0  0  0  0  0  0
    1.1625    3.1247   -0.4939 C   0  0  0  0  0  0  0  0  0  0  0  0
    3.5162    0.7727   -0.1120 C   0  0  0  0  0  0  0  0  0  0  0  0
    3.5163   -0.7722    0.1125 C   0  0  0  0  0  0  0  0  0  0  0  0
    1.1631   -3.1247    0.4934 C   0  0  0  0  0  0  0  0  0  0  0  0
    0.6439    3.4554   -1.4212 H   0  0  0  0  0  0  0  0  0  0  0  0
    0.6916    3.7097    0.3274 H   0  0  0  0  0  0  0  0  0  0  0  0
    2.2259    3.4452   -0.5675 H   0  0  0  0  0  0  0  0  0  0  0  0
    3.9634    1.3632    0.7147 H   0  0  0  0  0  0  0  0  0  0  0  0
    3.9784    1.1105   -1.0628 H   0  0  0  0  0  0  0  0  0  0  0  0
    3.9637   -1.3626   -0.7141 H   0  0  0  0  0  0  0  0  0  0  0  0
    3.9785   -1.1099    1.0634 H   0  0  0  0  0  0  0  0  0  0  0  0
    0.6454   -3.4557    1.4210 H   0  0  0  0  0  0  0  0  0  0  0  0
    0.6914   -3.7095   -0.3276 H   0  0  0  0  0  0  0  0  0  0  0  0
    2.2265   -3.4452    0.5659 H   0  0  0  0  0  0  0  0  0  0  0  0
  1  2  2  0  0  0  0
  2  6  1  0  0  0  0
  2  3  1  0  0  0  0
  3  4  2  0  0  0  0
  4  8  1  0  0  0  0
  5  1  1  0  0  0  0
  5 10  1  0  0  0  0
  6  7  1  0  0  0  0
  6 12  1  0  0  0  0
  7  3  1  0  0  0  0
  7 15  1  0  0  0  0
  8 18  1  0  0  0  0
  8 16  1  0  0  0  0
  9  5  1  0  0  0  0
 11  5  1  0  0  0  0
 13  6  1  0  0  0  0
 14  7  1  0  0  0  0
 17  8  1  0  0  0  0
M  END
