2
 OpenBabel05122313053D

 59 64  0  0  1  0  0  0  0  0999 V2000
   -0.2698   -0.0001    2.3448 Si  0  0  0  0  0  0  0  0  0  0  0  0
    0.1717   -1.4094    1.1434 C   0  0  1  0  0  3  0  0  0  0  0  0
   -0.6337   -1.8785    0.0292 C   0  0  0  0  0  0  0  0  0  0  0  0
    0.2144   -2.4917   -0.9423 C   0  0  0  0  0  0  0  0  0  0  0  0
    1.5398   -2.5508   -0.4158 C   0  0  0  0  0  0  0  0  0  0  0  0
    2.7294   -3.1533   -0.9102 C   0  0  0  0  0  0  0  0  0  0  0  0
    3.8884   -3.0503   -0.1603 C   0  0  0  0  0  0  0  0  0  0  0  0
    3.8988   -2.3526    1.0842 C   0  0  0  0  0  0  0  0  0  0  0  0
    2.7550   -1.7586    1.5936 C   0  0  0  0  0  0  0  0  0  0  0  0
    1.5311   -1.8552    0.8636 C   0  0  0  0  0  0  0  0  0  0  0  0
   -2.1114   -1.9054   -0.0752 C   0  0  0  0  0  0  0  0  0  0  0  0
   -2.8722   -2.3282    1.0380 C   0  0  0  0  0  0  0  0  0  0  0  0
   -4.2648   -2.4543    0.9507 C   0  0  0  0  0  0  0  0  0  0  0  0
   -4.9235   -2.1712   -0.2562 C   0  0  0  0  0  0  0  0  0  0  0  0
   -4.1746   -1.7806   -1.3772 C   0  0  0  0  0  0  0  0  0  0  0  0
   -2.7823   -1.6538   -1.2922 C   0  0  0  0  0  0  0  0  0  0  0  0
    0.1716    1.4095    1.1437 C   0  0  2  0  0  3  0  0  0  0  0  0
   -0.6339    1.8786    0.0296 C   0  0  0  0  0  0  0  0  0  0  0  0
    0.2141    2.4919   -0.9420 C   0  0  0  0  0  0  0  0  0  0  0  0
    1.5395    2.5509   -0.4157 C   0  0  0  0  0  0  0  0  0  0  0  0
    2.7292    3.1534   -0.9103 C   0  0  0  0  0  0  0  0  0  0  0  0
    3.8883    3.0503   -0.1605 C   0  0  0  0  0  0  0  0  0  0  0  0
    3.8988    2.3527    1.0840 C   0  0  0  0  0  0  0  0  0  0  0  0
    2.7550    1.7587    1.5936 C   0  0  0  0  0  0  0  0  0  0  0  0
    1.5310    1.8553    0.8637 C   0  0  0  0  0  0  0  0  0  0  0  0
   -2.1116    1.9055   -0.0746 C   0  0  0  0  0  0  0  0  0  0  0  0
   -2.7826    1.6538   -1.2915 C   0  0  0  0  0  0  0  0  0  0  0  0
   -4.1750    1.7804   -1.3764 C   0  0  0  0  0  0  0  0  0  0  0  0
   -4.9238    2.1709   -0.2553 C   0  0  0  0  0  0  0  0  0  0  0  0
   -4.2650    2.4540    0.9515 C   0  0  0  0  0  0  0  0  0  0  0  0
   -2.8723    2.3281    1.0387 C   0  0  0  0  0  0  0  0  0  0  0  0
    0.7771   -0.0008    3.9219 C   0  0  0  0  0  0  0  0  0  0  0  0
   -2.0372   -0.0003    2.9974 C   0  0  0  0  0  0  0  0  0  0  0  0
   -0.1284   -2.9470   -1.8782 H   0  0  0  0  0  0  0  0  0  0  0  0
    2.7836   -1.2533    2.5661 H   0  0  0  0  0  0  0  0  0  0  0  0
    4.8369   -2.2939    1.6562 H   0  0  0  0  0  0  0  0  0  0  0  0
    4.8189   -3.5108   -0.5244 H   0  0  0  0  0  0  0  0  0  0  0  0
    2.7169   -3.6803   -1.8752 H   0  0  0  0  0  0  0  0  0  0  0  0
   -2.3509   -2.5897    1.9692 H   0  0  0  0  0  0  0  0  0  0  0  0
   -4.8382   -2.7864    1.8296 H   0  0  0  0  0  0  0  0  0  0  0  0
   -6.0178   -2.2658   -0.3254 H   0  0  0  0  0  0  0  0  0  0  0  0
   -4.6807   -1.5630   -2.3300 H   0  0  0  0  0  0  0  0  0  0  0  0
   -2.2014   -1.3326   -2.1689 H   0  0  0  0  0  0  0  0  0  0  0  0
   -0.1289    2.9473   -1.8778 H   0  0  0  0  0  0  0  0  0  0  0  0
    2.7166    3.6803   -1.8753 H   0  0  0  0  0  0  0  0  0  0  0  0
    4.8187    3.5107   -0.5247 H   0  0  0  0  0  0  0  0  0  0  0  0
    4.8369    2.2940    1.6559 H   0  0  0  0  0  0  0  0  0  0  0  0
    2.7837    1.2536    2.5661 H   0  0  0  0  0  0  0  0  0  0  0  0
   -2.2018    1.3327   -2.1683 H   0  0  0  0  0  0  0  0  0  0  0  0
   -4.6811    1.5627   -2.3291 H   0  0  0  0  0  0  0  0  0  0  0  0
   -6.0181    2.2653   -0.3243 H   0  0  0  0  0  0  0  0  0  0  0  0
   -4.8383    2.7860    1.8305 H   0  0  0  0  0  0  0  0  0  0  0  0
   -2.3509    2.5897    1.9698 H   0  0  0  0  0  0  0  0  0  0  0  0
   -2.1745    0.8939    3.6394 H   0  0  0  0  0  0  0  0  0  0  0  0
   -2.8188   -0.0004    2.2191 H   0  0  0  0  0  0  0  0  0  0  0  0
   -2.1742   -0.8948    3.6392 H   0  0  0  0  0  0  0  0  0  0  0  0
    0.5098    0.8935    4.5221 H   0  0  0  0  0  0  0  0  0  0  0  0
    1.8729    0.0009    3.7904 H   0  0  0  0  0  0  0  0  0  0  0  0
    0.5122   -0.8977    4.5193 H   0  0  0  0  0  0  0  0  0  0  0  0
  1 33  1  0  0  0  0
  1 32  1  0  0  0  0
  2  1  1  6  0  0  0
  3  2  1  0  0  0  0
  4  5  1  0  0  0  0
  4  3  2  0  0  0  0
  5 10  1  0  0  0  0
  6  5  2  0  0  0  0
  6  7  1  0  0  0  0
  7  8  2  0  0  0  0
  8  9  1  0  0  0  0
  8 36  1  0  0  0  0
  9 35  1  0  0  0  0
 10  2  1  0  0  0  0
 10  9  2  0  0  0  0
 11  3  1  0  0  0  0
 11 12  1  0  0  0  0
 12 39  1  0  0  0  0
 13 12  2  0  0  0  0
 13 40  1  0  0  0  0
 14 13  1  0  0  0  0
 15 16  1  0  0  0  0
 15 14  2  0  0  0  0
 16 11  2  0  0  0  0
 17  1  1  6  0  0  0
 18 17  1  0  0  0  0
 19 20  1  0  0  0  0
 19 18  2  0  0  0  0
 20 25  1  0  0  0  0
 21 20  2  0  0  0  0
 21 22  1  0  0  0  0
 22 23  2  0  0  0  0
 23 24  1  0  0  0  0
 23 47  1  0  0  0  0
 24 48  1  0  0  0  0
 25 17  1  0  0  0  0
 25 24  2  0  0  0  0
 26 18  1  0  0  0  0
 26 31  1  0  0  0  0
 27 26  2  0  0  0  0
 28 27  1  0  0  0  0
 28 29  2  0  0  0  0
 29 30  1  0  0  0  0
 30 31  2  0  0  0  0
 30 52  1  0  0  0  0
 31 53  1  0  0  0  0
 32 59  1  0  0  0  0
 32 57  1  0  0  0  0
 33 56  1  0  0  0  0
 33 54  1  0  0  0  0
 34  4  1  0  0  0  0
 37  7  1  0  0  0  0
 38  6  1  0  0  0  0
 41 14  1  0  0  0  0
 42 15  1  0  0  0  0
 43 16  1  0  0  0  0
 44 19  1  0  0  0  0
 45 21  1  0  0  0  0
 46 22  1  0  0  0  0
 49 27  1  0  0  0  0
 50 28  1  0  0  0  0
 51 29  1  0  0  0  0
 55 33  1  0  0  0  0
 58 32  1  0  0  0  0
M  END
