1,4
 OpenBabel05122313053D

 21 20  0  0  1  0  0  0  0  0999 V2000
   -0.6969    1.6980   -0.0717 C   0  0  0  0  0  2  0  0  0  0  0  0
   -1.9561    1.0575    0.0370 C   0  0  2  0  0  3  0  0  0  0  0  0
   -2.0083   -0.1773    0.7652 C   0  0  2  0  0  3  0  0  0  0  0  0
   -0.9191   -0.5474    1.6494 C   0  0  0  0  0  3  0  0  0  0  0  0
    0.4684    3.5261   -0.3127 H   0  0  0  0  0  0  0  0  0  0  0  0
   -1.2551    3.8047    0.0715 H   0  0  0  0  0  0  0  0  0  0  0  0
   -0.7682    3.2851   -1.5635 H   0  0  0  0  0  0  0  0  0  0  0  0
   -3.8236   -1.0538    1.5409 H   0  0  0  0  0  0  0  0  0  0  0  0
   -2.8594   -2.1746    0.5645 H   0  0  0  0  0  0  0  0  0  0  0  0
   -3.8274   -0.9020   -0.2403 H   0  0  0  0  0  0  0  0  0  0  0  0
   -0.5734    0.3430    2.2078 H   0  0  0  0  0  0  0  0  0  0  0  0
   -0.5562    3.1352   -0.4796 C   0  0  0  0  0  0  0  0  0  0  0  0
   -3.1894    1.5628   -0.6852 C   0  0  0  0  0  0  0  0  0  0  0  0
   -3.1838   -1.1170    0.6331 C   0  0  0  0  0  0  0  0  0  0  0  0
   -0.9644   -1.8026    2.4902 C   0  0  0  0  0  0  0  0  0  0  0  0
   -3.1018    2.6434   -0.9075 H   0  0  0  0  0  0  0  0  0  0  0  0
   -3.3281    1.0476   -1.6632 H   0  0  0  0  0  0  0  0  0  0  0  0
   -4.1218    1.4107   -0.1044 H   0  0  0  0  0  0  0  0  0  0  0  0
   -1.7841   -1.7833    3.2448 H   0  0  0  0  0  0  0  0  0  0  0  0
   -1.1085   -2.7188    1.8823 H   0  0  0  0  0  0  0  0  0  0  0  0
   -0.0138   -1.9363    3.0452 H   0  0  0  0  0  0  0  0  0  0  0  0
  2  1  1  6  0  0  0
  2  3  1  0  0  0  0
  3  4  1  6  0  0  0
  4 11  1  0  0  0  0
  4 15  1  0  0  0  0
  7 12  1  0  0  0  0
  9 14  1  0  0  0  0
 10 14  1  0  0  0  0
 12  5  1  0  0  0  0
 12  1  1  0  0  0  0
 12  6  1  0  0  0  0
 13 18  1  0  0  0  0
 13  2  1  0  0  0  0
 14  3  1  0  0  0  0
 14  8  1  0  0  0  0
 15 21  1  0  0  0  0
 15 19  1  0  0  0  0
 16 13  1  0  0  0  0
 17 13  1  0  0  0  0
 20 15  1  0  0  0  0
M  END
