1,6
 OpenBabel05122313053D

 63 66  0  0  0  0  0  0  0  0999 V2000
    1.8944   -0.9801    0.5242 C   0  0  0  0  0  2  0  0  0  0  0  0
    2.5552   -2.1563    0.7684 N   0  0  0  0  0  0  0  0  0  0  0  0
   -1.0840   -2.8585   -2.5768 C   0  0  0  0  0  0  0  0  0  0  0  0
   -0.9063   -3.6250   -3.3369 H   0  0  0  0  0  0  0  0  0  0  0  0
   -0.1496   -2.5641   -1.5845 N   0  0  0  0  0  0  0  0  0  0  0  0
   -0.6055   -1.5622   -0.7484 C   0  0  0  0  0  2  0  0  0  0  0  0
    1.7996   -3.3901    0.9374 C   0  0  0  0  0  0  0  0  0  0  0  0
    0.8459   -3.0879    1.4180 H   0  0  0  0  0  0  0  0  0  0  0  0
    2.3413   -4.0624    1.6319 H   0  0  0  0  0  0  0  0  0  0  0  0
    2.2506    2.9550   -1.7989 C   0  0  0  0  0  0  0  0  0  0  0  0
    2.1221    3.2221   -2.8601 H   0  0  0  0  0  0  0  0  0  0  0  0
   -2.1464   -2.0220   -2.3793 C   0  0  0  0  0  0  0  0  0  0  0  0
   -3.0835   -1.8982   -2.9292 H   0  0  0  0  0  0  0  0  0  0  0  0
    2.7149    1.8814    2.3725 C   0  0  0  0  0  0  0  0  0  0  0  0
    2.7703    2.7792    3.0160 H   0  0  0  0  0  0  0  0  0  0  0  0
    3.6230    1.2686    2.5477 H   0  0  0  0  0  0  0  0  0  0  0  0
    1.8414    1.2632    2.6887 H   0  0  0  0  0  0  0  0  0  0  0  0
    2.6530    1.2921   -0.0972 C   0  0  0  0  0  0  0  0  0  0  0  0
   -3.8931   -0.5106   -0.1288 C   0  0  0  0  0  0  0  0  0  0  0  0
    2.5315    0.5371   -2.5181 C   0  0  0  0  0  0  0  0  0  0  0  0
    2.5237    0.9747   -3.5340 H   0  0  0  0  0  0  0  0  0  0  0  0
    1.6428   -0.1236   -2.4264 H   0  0  0  0  0  0  0  0  0  0  0  0
    3.4271   -0.1108   -2.4255 H   0  0  0  0  0  0  0  0  0  0  0  0
    3.9312   -2.0051    0.6414 C   0  0  0  0  0  0  0  0  0  0  0  0
    4.6357   -2.8258    0.8078 H   0  0  0  0  0  0  0  0  0  0  0  0
   -1.0234    1.4796   -1.7435 C   0  0  0  0  0  0  0  0  0  0  0  0
   -0.8701    0.9043   -2.6803 H   0  0  0  0  0  0  0  0  0  0  0  0
   -0.1825    1.2148   -1.0671 H   0  0  0  0  0  0  0  0  0  0  0  0
   -0.9452    2.5578   -1.9770 H   0  0  0  0  0  0  0  0  0  0  0  0
    2.8910   -0.0818    0.2552 N   0  0  0  0  0  0  0  0  0  0  0  0
   -1.8415   -1.2423   -1.2692 N   0  0  0  0  0  0  0  0  0  0  0  0
   -2.7042   -0.1804   -0.8140 C   0  0  0  0  0  0  0  0  0  0  0  0
    2.4947    1.6122   -1.4626 C   0  0  0  0  0  0  0  0  0  0  0  0
    1.1830   -3.1662   -1.5781 C   0  0  0  0  0  0  0  0  0  0  0  0
    1.9322   -2.3523   -1.6564 H   0  0  0  0  0  0  0  0  0  0  0  0
    1.2587   -3.7495   -2.5158 H   0  0  0  0  0  0  0  0  0  0  0  0
   -4.1797   -1.9276    0.2855 C   0  0  0  0  0  0  0  0  0  0  0  0
   -3.4287   -2.2076    1.0550 H   0  0  0  0  0  0  0  0  0  0  0  0
   -4.0982   -2.6520   -0.5498 H   0  0  0  0  0  0  0  0  0  0  0  0
   -5.1896   -2.0182    0.7277 H   0  0  0  0  0  0  0  0  0  0  0  0
    2.1508    3.9558   -0.8152 C   0  0  0  0  0  0  0  0  0  0  0  0
    2.5731    2.2629    0.9266 C   0  0  0  0  0  0  0  0  0  0  0  0
    4.1468   -0.6874    0.3259 C   0  0  0  0  0  0  0  0  0  0  0  0
    5.0701   -0.1236    0.1643 H   0  0  0  0  0  0  0  0  0  0  0  0
   -4.7376    0.5430    0.2537 C   0  0  0  0  0  0  0  0  0  0  0  0
   -5.6631    0.3029    0.8011 H   0  0  0  0  0  0  0  0  0  0  0  0
   -4.4158    1.8893   -0.0007 C   0  0  0  0  0  0  0  0  0  0  0  0
    1.5407   -4.0906   -0.4079 C   0  0  0  0  0  0  0  0  0  0  0  0
    0.7513   -4.8582   -0.2694 H   0  0  0  0  0  0  0  0  0  0  0  0
    2.4596   -4.6334   -0.7176 H   0  0  0  0  0  0  0  0  0  0  0  0
   -2.3356    1.1528   -1.0843 C   0  0  0  0  0  0  0  0  0  0  0  0
   -3.2104    2.1712   -0.6660 C   0  0  0  0  0  0  0  0  0  0  0  0
   -2.9333    3.2191   -0.8643 H   0  0  0  0  0  0  0  0  0  0  0  0
    1.8362    5.3823   -1.1900 C   0  0  0  0  0  0  0  0  0  0  0  0
    2.3954    6.1029   -0.5606 H   0  0  0  0  0  0  0  0  0  0  0  0
    0.7558    5.5983   -1.0440 H   0  0  0  0  0  0  0  0  0  0  0  0
    2.0740    5.5905   -2.2514 H   0  0  0  0  0  0  0  0  0  0  0  0
   -5.3200    2.9975    0.4765 C   0  0  0  0  0  0  0  0  0  0  0  0
   -6.3888    2.7526    0.3125 H   0  0  0  0  0  0  0  0  0  0  0  0
   -5.1013    3.9552   -0.0348 H   0  0  0  0  0  0  0  0  0  0  0  0
   -5.1905    3.1655    1.5672 H   0  0  0  0  0  0  0  0  0  0  0  0
    2.3184    3.5895    0.5334 C   0  0  0  0  0  0  0  0  0  0  0  0
    2.2455    4.3618    1.3157 H   0  0  0  0  0  0  0  0  0  0  0  0
  1  2  1  0  0  0  0
  2  7  1  0  0  0  0
  3 12  2  0  0  0  0
  3  5  1  0  0  0  0
  4  3  1  0  0  0  0
  5 34  1  0  0  0  0
  5  6  1  0  0  0  0
  7  8  1  0  0  0  0
  7  9  1  0  0  0  0
 10 33  2  0  0  0  0
 10 41  1  0  0  0  0
 11 10  1  0  0  0  0
 12 31  1  0  0  0  0
 13 12  1  0  0  0  0
 14 16  1  0  0  0  0
 14 17  1  0  0  0  0
 14 15  1  0  0  0  0
 18 30  1  0  0  0  0
 18 42  2  0  0  0  0
 19 45  1  0  0  0  0
 19 37  1  0  0  0  0
 20 22  1  0  0  0  0
 20 23  1  0  0  0  0
 20 33  1  0  0  0  0
 21 20  1  0  0  0  0
 24  2  1  0  0  0  0
 24 25  1  0  0  0  0
 26 51  1  0  0  0  0
 26 28  1  0  0  0  0
 27 26  1  0  0  0  0
 29 26  1  0  0  0  0
 30 43  1  0  0  0  0
 30  1  1  0  0  0  0
 31 32  1  0  0  0  0
 31  6  1  0  0  0  0
 32 19  2  0  0  0  0
 33 18  1  0  0  0  0
 34 48  1  0  0  0  0
 35 34  1  0  0  0  0
 36 34  1  0  0  0  0
 37 40  1  0  0  0  0
 37 38  1  0  0  0  0
 39 37  1  0  0  0  0
 41 62  2  0  0  0  0
 42 14  1  0  0  0  0
 43 24  2  0  0  0  0
 44 43  1  0  0  0  0
 45 46  1  0  0  0  0
 47 45  2  0  0  0  0
 47 58  1  0  0  0  0
 48 49  1  0  0  0  0
 48  7  1  0  0  0  0
 50 48  1  0  0  0  0
 51 32  1  0  0  0  0
 51 52  2  0  0  0  0
 52 47  1  0  0  0  0
 53 52  1  0  0  0  0
 54 56  1  0  0  0  0
 54 41  1  0  0  0  0
 54 55  1  0  0  0  0
 57 54  1  0  0  0  0
 58 61  1  0  0  0  0
 59 58  1  0  0  0  0
 60 58  1  0  0  0  0
 62 42  1  0  0  0  0
 62 63  1  0  0  0  0
M  END
