4,20
 OpenBabel05122313053D

 30 29  0  0  0  0  0  0  0  0999 V2000
   -1.6855    1.6037   -0.1010 Si  0  0  0  0  0  0  0  0  0  0  0  0
    0.0882    1.5696   -0.7309 C   0  0  0  0  0  3  0  0  0  0  0  0
    0.1337    1.5943   -1.8368 H   0  0  0  0  0  0  0  0  0  0  0  0
    1.2195    2.1070   -0.0550 C   0  0  0  0  0  3  0  0  0  0  0  0
    1.1137    2.5012    0.9701 H   0  0  0  0  0  0  0  0  0  0  0  0
    2.0494    2.5633   -0.6200 H   0  0  0  0  0  0  0  0  0  0  0  0
   -1.7794    2.3124    1.6527 C   0  0  0  0  0  0  0  0  0  0  0  0
   -2.8463    2.3980    1.9473 H   0  0  0  0  0  0  0  0  0  0  0  0
   -1.3398    3.3306    1.6982 H   0  0  0  0  0  0  0  0  0  0  0  0
   -1.2782    1.6824    2.4113 H   0  0  0  0  0  0  0  0  0  0  0  0
   -2.6798    2.7503   -1.2344 C   0  0  0  0  0  0  0  0  0  0  0  0
   -2.6336    2.4062   -2.2877 H   0  0  0  0  0  0  0  0  0  0  0  0
   -2.2899    3.7880   -1.1916 H   0  0  0  0  0  0  0  0  0  0  0  0
   -3.7484    2.7835   -0.9341 H   0  0  0  0  0  0  0  0  0  0  0  0
   -2.3918    0.0001   -0.2380 N   0  0  0  0  0  0  0  0  0  0  0  0
   -3.4155    0.0001   -0.3078 H   0  0  0  0  0  0  0  0  0  0  0  0
   -1.6856   -1.6036   -0.1011 Si  0  0  0  0  0  0  0  0  0  0  0  0
    0.0881   -1.5696   -0.7312 C   0  0  0  0  0  3  0  0  0  0  0  0
    0.1334   -1.5942   -1.8371 H   0  0  0  0  0  0  0  0  0  0  0  0
    1.2193   -2.1071   -0.0554 C   0  0  0  0  0  3  0  0  0  0  0  0
    1.1137   -2.5014    0.9697 H   0  0  0  0  0  0  0  0  0  0  0  0
    2.0492   -2.5634   -0.6205 H   0  0  0  0  0  0  0  0  0  0  0  0
   -1.7795   -2.3125    1.6525 C   0  0  0  0  0  0  0  0  0  0  0  0
   -1.2783   -1.6824    2.4112 H   0  0  0  0  0  0  0  0  0  0  0  0
   -1.3399   -3.3306    1.6980 H   0  0  0  0  0  0  0  0  0  0  0  0
   -2.8464   -2.3981    1.9471 H   0  0  0  0  0  0  0  0  0  0  0  0
   -2.6800   -2.7501   -1.2345 C   0  0  0  0  0  0  0  0  0  0  0  0
   -3.7486   -2.7833   -0.9341 H   0  0  0  0  0  0  0  0  0  0  0  0
   -2.2902   -3.7878   -1.1919 H   0  0  0  0  0  0  0  0  0  0  0  0
   -2.6340   -2.4059   -2.2878 H   0  0  0  0  0  0  0  0  0  0  0  0
  1  7  1  0  0  0  0
  2  1  1  0  0  0  0
  2  4  1  0  0  0  0
  3  2  1  0  0  0  0
  4  5  1  0  0  0  0
  6  4  1  0  0  0  0
  7  9  1  0  0  0  0
  7  8  1  0  0  0  0
  7 10  1  0  0  0  0
 11 13  1  0  0  0  0
 11 14  1  0  0  0  0
 11  1  1  0  0  0  0
 12 11  1  0  0  0  0
 15 17  1  0  0  0  0
 15  1  1  0  0  0  0
 16 15  1  0  0  0  0
 17 23  1  0  0  0  0
 18 17  1  0  0  0  0
 18 20  1  0  0  0  0
 19 18  1  0  0  0  0
 20 21  1  0  0  0  0
 22 20  1  0  0  0  0
 23 25  1  0  0  0  0
 23 26  1  0  0  0  0
 23 24  1  0  0  0  0
 27 29  1  0  0  0  0
 27 28  1  0  0  0  0
 27 17  1  0  0  0  0
 30 27  1  0  0  0  0
M  END
