1,4
 OpenBabel05122313053D

 15 14  0  0  0  0  0  0  0  0999 V2000
    0.4908    1.1621    0.0002 C   0  0  0  0  0  3  0  0  0  0  0  0
    1.5686    0.1324    0.0001 C   0  0  0  0  0  0  0  0  0  0  0  0
    1.2836   -1.2016    0.0000 C   0  0  0  0  0  0  0  0  0  0  0  0
   -0.1306   -1.5546    0.0000 C   0  0  0  0  0  3  0  0  0  0  0  0
   -0.5993   -2.6671    0.0001 O   0  0  0  0  0  0  0  0  0  0  0  0
    2.8142    0.7083    0.0001 O   0  0  0  0  0  0  0  0  0  0  0  0
    4.0202    0.0040   -0.0001 C   0  0  0  0  0  0  0  0  0  0  0  0
    4.1059   -1.1991   -0.0002 O   0  0  0  0  0  0  0  0  0  0  0  0
    5.1560    0.9908    0.0002 C   0  0  0  0  0  0  0  0  0  0  0  0
    0.6140    1.8212    0.8851 H   0  0  0  0  0  0  0  0  0  0  0  0
    0.6141    1.8214   -0.8845 H   0  0  0  0  0  0  0  0  0  0  0  0
    2.0388   -1.9958    0.0000 H   0  0  0  0  0  0  0  0  0  0  0  0
    6.1161    0.4475   -0.0005 H   0  0  0  0  0  0  0  0  0  0  0  0
    5.0876    1.6466    0.8909 H   0  0  0  0  0  0  0  0  0  0  0  0
    5.0871    1.6479   -0.8895 H   0  0  0  0  0  0  0  0  0  0  0  0
  1 10  1  0  0  0  0
  2  1  1  0  0  0  0
  3  4  1  0  0  0  0
  3  2  2  0  0  0  0
  4  5  2  0  0  0  0
  6  2  1  0  0  0  0
  7  6  1  0  0  0  0
  7  9  1  0  0  0  0
  8  7  2  0  0  0  0
  9 14  1  0  0  0  0
 11  1  1  0  0  0  0
 12  3  1  0  0  0  0
 13  9  1  0  0  0  0
 15  9  1  0  0  0  0
M  END
