4,14
 OpenBabel05122313053D

 33 34  0  0  1  0  0  0  0  0999 V2000
    0.5596   -1.7901   -1.2669 O   0  0  0  0  0  0  0  0  0  0  0  0
   -0.8313   -1.6910    2.0525 O   0  0  0  0  0  0  0  0  0  0  0  0
    1.1052   -2.4627    1.1570 O   0  0  0  0  0  0  0  0  0  0  0  0
    1.9427    0.0570   -0.6848 C   0  0  0  0  0  3  0  0  0  0  0  0
    3.2506    0.5770   -0.6557 C   0  0  0  0  0  0  0  0  0  0  0  0
    3.4684    1.5279   -0.1459 H   0  0  0  0  0  0  0  0  0  0  0  0
    4.3325   -0.0842   -1.2730 C   0  0  0  0  0  0  0  0  0  0  0  0
    5.3355    0.3691   -1.2483 H   0  0  0  0  0  0  0  0  0  0  0  0
    4.1247   -1.3133   -1.9158 C   0  0  0  0  0  0  0  0  0  0  0  0
    4.9635   -1.8351   -2.4018 H   0  0  0  0  0  0  0  0  0  0  0  0
    2.8483   -1.8954   -1.9152 C   0  0  0  0  0  0  0  0  0  0  0  0
    2.6616   -2.8811   -2.3658 H   0  0  0  0  0  0  0  0  0  0  0  0
    1.7877   -1.2148   -1.2959 C   0  0  0  0  0  0  0  0  0  0  0  0
   -0.3095   -1.2115   -0.2819 C   0  0  2  0  0  3  0  0  0  0  0  0
   -0.0750   -1.8013    1.0884 C   0  0  0  0  0  0  0  0  0  0  0  0
    1.4943   -2.9573    2.4507 C   0  0  0  0  0  0  0  0  0  0  0  0
    1.1581   -2.2395    3.2270 H   0  0  0  0  0  0  0  0  0  0  0  0
    2.6018   -2.9730    2.4216 H   0  0  0  0  0  0  0  0  0  0  0  0
    0.9229   -4.3418    2.7134 C   0  0  0  0  0  0  0  0  0  0  0  0
    1.3072   -4.7391    3.6749 H   0  0  0  0  0  0  0  0  0  0  0  0
    1.2096   -5.0461    1.9072 H   0  0  0  0  0  0  0  0  0  0  0  0
   -0.1820   -4.2994    2.7726 H   0  0  0  0  0  0  0  0  0  0  0  0
   -1.7045   -1.2769   -0.8376 C   0  0  0  0  0  0  0  0  0  0  0  0
   -2.8282   -1.7532   -0.1260 C   0  0  0  0  0  0  0  0  0  0  0  0
   -2.6935   -2.1154    0.9020 H   0  0  0  0  0  0  0  0  0  0  0  0
   -4.0999   -1.7701   -0.7238 C   0  0  0  0  0  0  0  0  0  0  0  0
   -4.9612   -2.1449   -0.1493 H   0  0  0  0  0  0  0  0  0  0  0  0
   -4.2761   -1.3259   -2.0425 C   0  0  0  0  0  0  0  0  0  0  0  0
   -5.2743   -1.3382   -2.5060 H   0  0  0  0  0  0  0  0  0  0  0  0
   -3.1582   -0.8788   -2.7710 C   0  0  0  0  0  0  0  0  0  0  0  0
   -3.2778   -0.5415   -3.8123 H   0  0  0  0  0  0  0  0  0  0  0  0
   -1.8915   -0.8589   -2.1779 C   0  0  0  0  0  0  0  0  0  0  0  0
   -1.0147   -0.5106   -2.7432 H   0  0  0  0  0  0  0  0  0  0  0  0
  3 16  1  0  0  0  0
  4  5  1  0  0  0  0
  5  6  1  0  0  0  0
  7  8  1  0  0  0  0
  7  5  2  0  0  0  0
  9 11  2  0  0  0  0
  9  7  1  0  0  0  0
 10  9  1  0  0  0  0
 11 13  1  0  0  0  0
 12 11  1  0  0  0  0
 13  1  1  0  0  0  0
 13  4  2  0  0  0  0
 14  1  1  6  0  0  0
 14 15  1  0  0  0  0
 15  3  1  0  0  0  0
 15  2  2  0  0  0  0
 16 19  1  0  0  0  0
 16 17  1  0  0  0  0
 18 16  1  0  0  0  0
 19 22  1  0  0  0  0
 19 20  1  0  0  0  0
 21 19  1  0  0  0  0
 23 14  1  0  0  0  0
 23 24  1  0  0  0  0
 24 25  1  0  0  0  0
 26 27  1  0  0  0  0
 26 24  2  0  0  0  0
 28 26  1  0  0  0  0
 29 28  1  0  0  0  0
 30 32  1  0  0  0  0
 30 28  2  0  0  0  0
 31 30  1  0  0  0  0
 32 23  2  0  0  0  0
 33 32  1  0  0  0  0
M  END
