6,30
 OpenBabel05122313053D

 47 50  0  0  0  0  0  0  0  0999 V2000
   -1.2272    0.8333    2.0946 C   0  0  0  0  0  0  0  0  0  0  0  0
   -0.6617    1.2405    2.9382 H   0  0  0  0  0  0  0  0  0  0  0  0
   -1.5167    1.5299    0.8836 C   0  0  0  0  0  0  0  0  0  0  0  0
   -2.2892    0.6337    0.0615 C   0  0  0  0  0  0  0  0  0  0  0  0
   -2.4189   -0.6097    0.7480 C   0  0  0  0  0  0  0  0  0  0  0  0
   -1.7395   -0.4868    2.0008 C   0  0  0  0  0  3  0  0  0  0  0  0
   -1.6285   -1.2779    2.7504 H   0  0  0  0  0  0  0  0  0  0  0  0
   -3.1116    0.9537   -1.1556 C   0  0  0  0  0  0  0  0  0  0  0  0
   -3.9934    1.5406   -0.8079 H   0  0  0  0  0  0  0  0  0  0  0  0
   -2.5828    1.6273   -1.8615 H   0  0  0  0  0  0  0  0  0  0  0  0
   -3.6061   -0.3239   -1.8507 C   0  0  0  0  0  0  0  0  0  0  0  0
   -4.3331   -0.0621   -2.6464 H   0  0  0  0  0  0  0  0  0  0  0  0
   -2.7525   -0.8296   -2.3549 H   0  0  0  0  0  0  0  0  0  0  0  0
   -4.2391   -1.2917   -0.8409 C   0  0  0  0  0  0  0  0  0  0  0  0
   -4.6681   -2.1693   -1.3658 H   0  0  0  0  0  0  0  0  0  0  0  0
   -5.0905   -0.7790   -0.3403 H   0  0  0  0  0  0  0  0  0  0  0  0
   -3.2252   -1.7630    0.2147 C   0  0  0  0  0  0  0  0  0  0  0  0
   -2.5346   -2.5203   -0.2143 H   0  0  0  0  0  0  0  0  0  0  0  0
   -3.7384   -2.2745    1.0548 H   0  0  0  0  0  0  0  0  0  0  0  0
   -1.2182    2.9827    0.6195 C   0  0  0  0  0  0  0  0  0  0  0  0
   -1.8596    3.3463   -0.2114 H   0  0  0  0  0  0  0  0  0  0  0  0
   -1.5243    3.5590    1.5183 H   0  0  0  0  0  0  0  0  0  0  0  0
    0.2486    3.3161    0.3008 C   0  0  0  0  0  0  0  0  0  0  0  0
    0.9066    2.9002    1.0940 H   0  0  0  0  0  0  0  0  0  0  0  0
    0.3765    4.4192    0.3232 H   0  0  0  0  0  0  0  0  0  0  0  0
    0.7012    2.7921   -1.0726 C   0  0  0  0  0  0  0  0  0  0  0  0
    1.6843    3.2491   -1.3162 H   0  0  0  0  0  0  0  0  0  0  0  0
   -0.0081    3.1549   -1.8473 H   0  0  0  0  0  0  0  0  0  0  0  0
    0.8485    1.2990   -1.1970 C   0  0  0  0  0  0  0  0  0  0  0  0
   -0.0569    0.3883   -1.8387 C   0  0  0  0  0  3  0  0  0  0  0  0
   -1.0015    0.6652   -2.3114 H   0  0  0  0  0  0  0  0  0  0  0  0
    0.5217   -0.9063   -1.8383 C   0  0  0  0  0  0  0  0  0  0  0  0
    0.0605   -1.8225   -2.2237 H   0  0  0  0  0  0  0  0  0  0  0  0
    1.8097   -0.8147   -1.2265 C   0  0  0  0  0  0  0  0  0  0  0  0
    2.0265    0.5489   -0.8696 C   0  0  0  0  0  0  0  0  0  0  0  0
    2.8409   -1.8870   -1.0446 C   0  0  0  0  0  0  0  0  0  0  0  0
    2.3566   -2.7902   -0.6176 H   0  0  0  0  0  0  0  0  0  0  0  0
    3.2199   -2.1785   -2.0511 H   0  0  0  0  0  0  0  0  0  0  0  0
    4.0010   -1.4006   -0.1627 C   0  0  0  0  0  0  0  0  0  0  0  0
    4.8486   -2.1124   -0.2305 H   0  0  0  0  0  0  0  0  0  0  0  0
    3.6661   -1.3880    0.8956 H   0  0  0  0  0  0  0  0  0  0  0  0
    4.4537    0.0126   -0.5591 C   0  0  0  0  0  0  0  0  0  0  0  0
    5.3503    0.3098    0.0223 H   0  0  0  0  0  0  0  0  0  0  0  0
    4.7585    0.0138   -1.6298 H   0  0  0  0  0  0  0  0  0  0  0  0
    3.3346    1.0476   -0.3384 C   0  0  0  0  0  0  0  0  0  0  0  0
    3.5865    2.0177   -0.8197 H   0  0  0  0  0  0  0  0  0  0  0  0
    3.2273    1.2511    0.7501 H   0  0  0  0  0  0  0  0  0  0  0  0
  1  2  1  0  0  0  0
  3  1  2  0  0  0  0
  4  5  2  0  0  0  0
  4  3  1  0  0  0  0
  5  6  1  0  0  0  0
  6  1  1  0  0  0  0
  6  7  1  0  0  0  0
  8  9  1  0  0  0  0
  8  4  1  0  0  0  0
 10  8  1  0  0  0  0
 11  8  1  0  0  0  0
 11 14  1  0  0  0  0
 12 11  1  0  0  0  0
 13 11  1  0  0  0  0
 14 16  1  0  0  0  0
 14 17  1  0  0  0  0
 15 14  1  0  0  0  0
 17  5  1  0  0  0  0
 17 19  1  0  0  0  0
 18 17  1  0  0  0  0
 20  3  1  0  0  0  0
 20 22  1  0  0  0  0
 21 20  1  0  0  0  0
 23 25  1  0  0  0  0
 23 20  1  0  0  0  0
 23 24  1  0  0  0  0
 26 23  1  0  0  0  0
 27 26  1  0  0  0  0
 28 26  1  0  0  0  0
 29 26  1  0  0  0  0
 29 35  2  0  0  0  0
 30 32  1  0  0  0  0
 30 29  1  0  0  0  0
 31 30  1  0  0  0  0
 32 34  2  0  0  0  0
 33 32  1  0  0  0  0
 34 36  1  0  0  0  0
 34 35  1  0  0  0  0
 35 45  1  0  0  0  0
 36 37  1  0  0  0  0
 36 39  1  0  0  0  0
 38 36  1  0  0  0  0
 39 41  1  0  0  0  0
 40 39  1  0  0  0  0
 42 45  1  0  0  0  0
 42 39  1  0  0  0  0
 42 43  1  0  0  0  0
 44 42  1  0  0  0  0
 45 47  1  0  0  0  0
 46 45  1  0  0  0  0
M  END
