1,6
 OpenBabel05122313053D

 22 21  0  0  1  0  0  0  0  0999 V2000
    0.7432    1.4855   -1.2424 C   0  0  0  0  0  3  0  0  0  0  0  0
    1.2115    1.5757    0.0951 C   0  0  1  0  0  3  0  0  0  0  0  0
    2.4919    0.8901    0.5394 C   0  0  0  0  0  0  0  0  0  0  0  0
    2.7376   -0.4305   -0.1854 C   0  0  0  0  0  0  0  0  0  0  0  0
    1.5230   -1.3417   -0.0551 C   0  0  1  0  0  3  0  0  0  0  0  0
    0.7474   -1.6258   -1.2021 C   0  0  0  0  0  3  0  0  0  0  0  0
    0.7729    2.6922    1.0100 C   0  0  0  0  0  0  0  0  0  0  0  0
    1.4709   -2.1960    1.1879 C   0  0  0  0  0  0  0  0  0  0  0  0
    0.0053    2.2240   -1.5938 H   0  0  0  0  0  0  0  0  0  0  0  0
    1.3583    1.0196   -2.0287 H   0  0  0  0  0  0  0  0  0  0  0  0
    2.4289    0.7174    1.6346 H   0  0  0  0  0  0  0  0  0  0  0  0
    3.3405    1.5962    0.3924 H   0  0  0  0  0  0  0  0  0  0  0  0
    3.6243   -0.9414    0.2434 H   0  0  0  0  0  0  0  0  0  0  0  0
    2.9659   -0.2482   -1.2550 H   0  0  0  0  0  0  0  0  0  0  0  0
    0.0581   -2.4842   -1.2056 H   0  0  0  0  0  0  0  0  0  0  0  0
    1.0714   -1.2582   -2.1897 H   0  0  0  0  0  0  0  0  0  0  0  0
   -0.1707    3.1592    0.6809 H   0  0  0  0  0  0  0  0  0  0  0  0
    0.6411    2.3308    2.0492 H   0  0  0  0  0  0  0  0  0  0  0  0
    1.5812    3.4568    1.0251 H   0  0  0  0  0  0  0  0  0  0  0  0
    0.4994   -2.7133    1.2860 H   0  0  0  0  0  0  0  0  0  0  0  0
    2.2876   -2.9495    1.1391 H   0  0  0  0  0  0  0  0  0  0  0  0
    1.6376   -1.5880    2.1000 H   0  0  0  0  0  0  0  0  0  0  0  0
  2  1  1  6  0  0  0
  2  3  1  0  0  0  0
  2  7  1  0  0  0  0
  3 11  1  0  0  0  0
  4  5  1  0  0  0  0
  4 13  1  0  0  0  0
  4  3  1  0  0  0  0
  5  6  1  6  0  0  0
  5  8  1  0  0  0  0
  7 19  1  0  0  0  0
  7 18  1  0  0  0  0
  8 20  1  0  0  0  0
  8 22  1  0  0  0  0
  9  1  1  0  0  0  0
 10  1  1  0  0  0  0
 12  3  1  0  0  0  0
 14  4  1  0  0  0  0
 15  6  1  0  0  0  0
 16  6  1  0  0  0  0
 17  7  1  0  0  0  0
 21  8  1  0  0  0  0
M  END
