24,28
 OpenBabel05122313053D

 35 37  0  0  1  0  0  0  0  0999 V2000
    1.6426    0.0000   -0.7399 B   0  0  0  0  0  0  0  0  0  0  0  0
    3.0391    0.0000   -0.7573 N   0  0  0  0  0  0  0  0  0  0  0  0
    3.8435   -1.2230   -0.7049 C   0  0  0  0  0  0  0  0  0  0  0  0
    4.5085   -1.2535   -1.5998 H   0  0  0  0  0  0  0  0  0  0  0  0
    3.1632   -2.0942   -0.7627 H   0  0  0  0  0  0  0  0  0  0  0  0
    4.7008   -1.2639    0.5666 C   0  0  0  0  0  0  0  0  0  0  0  0
    5.3331   -2.1760    0.5596 H   0  0  0  0  0  0  0  0  0  0  0  0
    4.0260   -1.3459    1.4470 H   0  0  0  0  0  0  0  0  0  0  0  0
    5.5626   -0.0000    0.6879 C   0  0  0  0  0  0  0  0  0  0  0  0
    6.3238   -0.0000   -0.1247 H   0  0  0  0  0  0  0  0  0  0  0  0
    6.1265   -0.0000    1.6434 H   0  0  0  0  0  0  0  0  0  0  0  0
    4.7008    1.2639    0.5666 C   0  0  0  0  0  0  0  0  0  0  0  0
    4.0260    1.3459    1.4470 H   0  0  0  0  0  0  0  0  0  0  0  0
    5.3331    2.1759    0.5596 H   0  0  0  0  0  0  0  0  0  0  0  0
    3.8435    1.2230   -0.7049 C   0  0  0  0  0  0  0  0  0  0  0  0
    3.1632    2.0942   -0.7627 H   0  0  0  0  0  0  0  0  0  0  0  0
    4.5085    1.2535   -1.5998 H   0  0  0  0  0  0  0  0  0  0  0  0
    0.3179   -1.8167    0.6559 C   0  0  0  0  0  3  0  0  0  0  0  0
    0.8597   -1.6786    1.6012 H   0  0  0  0  0  0  0  0  0  0  0  0
   -0.9181   -2.5222    0.5089 C   0  0  0  0  0  0  0  0  0  0  0  0
   -1.4697   -3.0268    1.3108 H   0  0  0  0  0  0  0  0  0  0  0  0
   -1.3182   -2.4161   -0.8457 C   0  0  0  0  0  0  0  0  0  0  0  0
   -2.2337   -2.8307   -1.2831 H   0  0  0  0  0  0  0  0  0  0  0  0
   -0.3459   -1.6247   -1.5310 C   0  0  0  0  0  3  0  0  0  0  0  0
   -0.3929   -1.3408   -2.5905 H   0  0  0  0  0  0  0  0  0  0  0  0
    0.7051   -1.2692   -0.6133 C   0  0  1  0  0  3  0  0  0  0  0  0
    0.7051    1.2692   -0.6133 C   0  0  1  0  0  3  0  0  0  0  0  0
   -0.3459    1.6247   -1.5309 C   0  0  0  0  0  3  0  0  0  0  0  0
   -0.3929    1.3408   -2.5904 H   0  0  0  0  0  0  0  0  0  0  0  0
   -1.3182    2.4161   -0.8457 C   0  0  0  0  0  0  0  0  0  0  0  0
   -2.2337    2.8307   -1.2831 H   0  0  0  0  0  0  0  0  0  0  0  0
   -0.9181    2.5222    0.5089 C   0  0  0  0  0  0  0  0  0  0  0  0
   -1.4697    3.0268    1.3108 H   0  0  0  0  0  0  0  0  0  0  0  0
    0.3179    1.8167    0.6559 C   0  0  0  0  0  3  0  0  0  0  0  0
    0.8597    1.6786    1.6012 H   0  0  0  0  0  0  0  0  0  0  0  0
  2  1  1  0  0  0  0
  2  3  1  0  0  0  0
  2 15  1  0  0  0  0
  3  6  1  0  0  0  0
  4  3  1  0  0  0  0
  5  3  1  0  0  0  0
  6  9  1  0  0  0  0
  6  8  1  0  0  0  0
  7  6  1  0  0  0  0
  9 11  1  0  0  0  0
 10  9  1  0  0  0  0
 12  9  1  0  0  0  0
 12 13  1  0  0  0  0
 14 12  1  0  0  0  0
 15 12  1  0  0  0  0
 16 15  1  0  0  0  0
 17 15  1  0  0  0  0
 18 19  1  0  0  0  0
 20 18  1  0  0  0  0
 20 21  1  0  0  0  0
 22 20  2  0  0  0  0
 23 22  1  0  0  0  0
 24 22  1  0  0  0  0
 24 26  1  0  0  0  0
 25 24  1  0  0  0  0
 26  1  1  1  0  0  0
 26 18  1  0  0  0  0
 27  1  1  1  0  0  0
 27 34  1  0  0  0  0
 28 30  1  0  0  0  0
 28 27  1  0  0  0  0
 29 28  1  0  0  0  0
 30 32  2  0  0  0  0
 31 30  1  0  0  0  0
 32 34  1  0  0  0  0
 32 33  1  0  0  0  0
 34 35  1  0  0  0  0
M  END
