38
 OpenBabel05122313053D

 81 84  0  0  1  0  0  0  0  0999 V2000
   -0.4175   -1.6303    2.7897 Si  0  0  0  0  0  0  0  0  0  0  0  0
   -1.7448   -0.7963    1.7177 C   0  0  2  0  0  3  0  0  0  0  0  0
   -2.7353   -1.4744    0.9080 C   0  0  0  0  0  0  0  0  0  0  0  0
   -3.1645   -0.6055   -0.1343 C   0  0  0  0  0  0  0  0  0  0  0  0
   -3.8931   -0.8727   -0.9078 H   0  0  0  0  0  0  0  0  0  0  0  0
   -2.5453    0.6696    0.0426 C   0  0  0  0  0  0  0  0  0  0  0  0
   -2.6760    1.8908   -0.6927 C   0  0  0  0  0  0  0  0  0  0  0  0
   -1.9028    2.9615   -0.2721 C   0  0  0  0  0  0  0  0  0  0  0  0
   -1.9676    3.9112   -0.8222 H   0  0  0  0  0  0  0  0  0  0  0  0
   -0.9898    2.8811    0.8267 C   0  0  0  0  0  0  0  0  0  0  0  0
   -0.8546    1.6921    1.5329 C   0  0  0  0  0  0  0  0  0  0  0  0
   -0.1536    1.6427    2.3751 H   0  0  0  0  0  0  0  0  0  0  0  0
   -1.6404    0.5555    1.1739 C   0  0  0  0  0  0  0  0  0  0  0  0
   -3.3256   -2.8417    1.1091 C   0  0  0  0  0  0  0  0  0  0  0  0
   -4.3782   -2.7404    1.4474 H   0  0  0  0  0  0  0  0  0  0  0  0
   -2.7954   -3.4263    1.8793 H   0  0  0  0  0  0  0  0  0  0  0  0
   -3.3348   -3.4168    0.1620 H   0  0  0  0  0  0  0  0  0  0  0  0
   -3.6176    1.9438   -1.8820 C   0  0  0  0  0  0  0  0  0  0  0  0
   -3.5060    0.9667   -2.4037 H   0  0  0  0  0  0  0  0  0  0  0  0
   -5.0818    2.0628   -1.4148 C   0  0  0  0  0  0  0  0  0  0  0  0
   -5.7780    2.0049   -2.2765 H   0  0  0  0  0  0  0  0  0  0  0  0
   -5.2470    3.0343   -0.9049 H   0  0  0  0  0  0  0  0  0  0  0  0
   -5.3522    1.2605   -0.6998 H   0  0  0  0  0  0  0  0  0  0  0  0
   -3.2673    3.0381   -2.8951 C   0  0  0  0  0  0  0  0  0  0  0  0
   -3.9131    2.9535   -3.7920 H   0  0  0  0  0  0  0  0  0  0  0  0
   -2.2110    2.9565   -3.2192 H   0  0  0  0  0  0  0  0  0  0  0  0
   -3.4257    4.0534   -2.4752 H   0  0  0  0  0  0  0  0  0  0  0  0
   -0.1179    4.0807    1.1608 C   0  0  0  0  0  0  0  0  0  0  0  0
    0.4484    3.8170    2.0808 H   0  0  0  0  0  0  0  0  0  0  0  0
   -0.9345    5.3449    1.4697 C   0  0  0  0  0  0  0  0  0  0  0  0
   -1.6517    5.1712    2.2967 H   0  0  0  0  0  0  0  0  0  0  0  0
   -1.5154    5.6793    0.5853 H   0  0  0  0  0  0  0  0  0  0  0  0
   -0.2671    6.1820    1.7606 H   0  0  0  0  0  0  0  0  0  0  0  0
    0.9045    4.3246    0.0356 C   0  0  0  0  0  0  0  0  0  0  0  0
    1.4632    3.3975   -0.2003 H   0  0  0  0  0  0  0  0  0  0  0  0
    1.6287    5.1159    0.3200 H   0  0  0  0  0  0  0  0  0  0  0  0
    0.3986    4.6482   -0.8974 H   0  0  0  0  0  0  0  0  0  0  0  0
    0.7709   -1.9801    1.3562 C   0  0  1  0  0  3  0  0  0  0  0  0
    0.6467   -3.0409    0.3773 C   0  0  0  0  0  0  0  0  0  0  0  0
    1.3432   -2.6626   -0.8079 C   0  0  0  0  0  0  0  0  0  0  0  0
    1.3938   -3.2677   -1.7199 H   0  0  0  0  0  0  0  0  0  0  0  0
    2.0009   -1.4130   -0.5776 C   0  0  0  0  0  0  0  0  0  0  0  0
    2.8561   -0.6170   -1.4071 C   0  0  0  0  0  0  0  0  0  0  0  0
    3.3908    0.5272   -0.8367 C   0  0  0  0  0  0  0  0  0  0  0  0
    4.0542    1.1634   -1.4422 H   0  0  0  0  0  0  0  0  0  0  0  0
    3.1310    0.9344    0.5147 C   0  0  0  0  0  0  0  0  0  0  0  0
    2.2369    0.2057    1.2880 C   0  0  0  0  0  0  0  0  0  0  0  0
    2.0261    0.4997    2.3218 H   0  0  0  0  0  0  0  0  0  0  0  0
    1.6521   -0.9847    0.7613 C   0  0  0  0  0  0  0  0  0  0  0  0
   -0.0456   -4.3660    0.5372 C   0  0  0  0  0  0  0  0  0  0  0  0
    0.5233   -5.0096    1.2407 H   0  0  0  0  0  0  0  0  0  0  0  0
   -0.1141   -4.8861   -0.4357 H   0  0  0  0  0  0  0  0  0  0  0  0
   -1.0735   -4.2787    0.9328 H   0  0  0  0  0  0  0  0  0  0  0  0
    3.1349   -1.0613   -2.8315 C   0  0  0  0  0  0  0  0  0  0  0  0
    2.1794   -1.4873   -3.2113 H   0  0  0  0  0  0  0  0  0  0  0  0
    3.5210    0.0871   -3.7689 C   0  0  0  0  0  0  0  0  0  0  0  0
    2.7641    0.8954   -3.7380 H   0  0  0  0  0  0  0  0  0  0  0  0
    3.5974   -0.2775   -4.8129 H   0  0  0  0  0  0  0  0  0  0  0  0
    4.5075    0.5217   -3.5036 H   0  0  0  0  0  0  0  0  0  0  0  0
    4.1937   -2.1814   -2.8540 C   0  0  0  0  0  0  0  0  0  0  0  0
    3.9128   -3.0273   -2.1955 H   0  0  0  0  0  0  0  0  0  0  0  0
    5.1728   -1.7955   -2.5020 H   0  0  0  0  0  0  0  0  0  0  0  0
    4.3298   -2.5762   -3.8818 H   0  0  0  0  0  0  0  0  0  0  0  0
    3.9010    2.1329    1.0582 C   0  0  0  0  0  0  0  0  0  0  0  0
    3.7870    2.9488    0.3081 H   0  0  0  0  0  0  0  0  0  0  0  0
    3.3846    2.6589    2.3996 C   0  0  0  0  0  0  0  0  0  0  0  0
    2.3060    2.9066    2.3581 H   0  0  0  0  0  0  0  0  0  0  0  0
    3.9317    3.5771    2.6925 H   0  0  0  0  0  0  0  0  0  0  0  0
    3.5337    1.9158    3.2106 H   0  0  0  0  0  0  0  0  0  0  0  0
    5.4042    1.8043    1.1542 C   0  0  0  0  0  0  0  0  0  0  0  0
    5.9841    2.6940    1.4749 H   0  0  0  0  0  0  0  0  0  0  0  0
    5.8148    1.4602    0.1846 H   0  0  0  0  0  0  0  0  0  0  0  0
    5.5759    0.9961    1.8952 H   0  0  0  0  0  0  0  0  0  0  0  0
    0.2844   -0.5073    4.1393 C   0  0  0  0  0  0  0  0  0  0  0  0
   -0.4782   -0.3953    4.9376 H   0  0  0  0  0  0  0  0  0  0  0  0
    0.5736    0.5074    3.8129 H   0  0  0  0  0  0  0  0  0  0  0  0
    1.1772   -0.9893    4.5881 H   0  0  0  0  0  0  0  0  0  0  0  0
   -0.9692   -3.1856    3.7135 C   0  0  0  0  0  0  0  0  0  0  0  0
   -1.8472   -2.9558    4.3514 H   0  0  0  0  0  0  0  0  0  0  0  0
   -0.1406   -3.5003    4.3816 H   0  0  0  0  0  0  0  0  0  0  0  0
   -1.2213   -4.0476    3.0710 H   0  0  0  0  0  0  0  0  0  0  0  0
  1 78  1  0  0  0  0
  1 74  1  0  0  0  0
  2  1  1  6  0  0  0
  3 14  1  0  0  0  0
  3  2  1  0  0  0  0
  4  6  1  0  0  0  0
  4  3  2  0  0  0  0
  5  4  1  0  0  0  0
  6 13  1  0  0  0  0
  7  8  1  0  0  0  0
  7  6  2  0  0  0  0
  8 10  2  0  0  0  0
  9  8  1  0  0  0  0
 10 28  1  0  0  0  0
 10 11  1  0  0  0  0
 11 12  1  0  0  0  0
 13 11  2  0  0  0  0
 13  2  1  0  0  0  0
 14 15  1  0  0  0  0
 14 16  1  0  0  0  0
 17 14  1  0  0  0  0
 18 20  1  0  0  0  0
 18  7  1  0  0  0  0
 19 18  1  0  0  0  0
 20 22  1  0  0  0  0
 20 23  1  0  0  0  0
 21 20  1  0  0  0  0
 24 27  1  0  0  0  0
 24 18  1  0  0  0  0
 25 24  1  0  0  0  0
 26 24  1  0  0  0  0
 28 30  1  0  0  0  0
 28 29  1  0  0  0  0
 30 33  1  0  0  0  0
 30 31  1  0  0  0  0
 32 30  1  0  0  0  0
 34 36  1  0  0  0  0
 34 28  1  0  0  0  0
 35 34  1  0  0  0  0
 37 34  1  0  0  0  0
 38  1  1  6  0  0  0
 39 50  1  0  0  0  0
 39 38  1  0  0  0  0
 40 42  1  0  0  0  0
 40 39  2  0  0  0  0
 41 40  1  0  0  0  0
 42 49  1  0  0  0  0
 43 44  1  0  0  0  0
 43 42  2  0  0  0  0
 44 46  2  0  0  0  0
 45 44  1  0  0  0  0
 46 64  1  0  0  0  0
 46 47  1  0  0  0  0
 47 48  1  0  0  0  0
 49 47  2  0  0  0  0
 49 38  1  0  0  0  0
 50 53  1  0  0  0  0
 50 51  1  0  0  0  0
 52 50  1  0  0  0  0
 54 43  1  0  0  0  0
 55 54  1  0  0  0  0
 56 57  1  0  0  0  0
 56 59  1  0  0  0  0
 56 54  1  0  0  0  0
 58 56  1  0  0  0  0
 60 54  1  0  0  0  0
 60 62  1  0  0  0  0
 60 61  1  0  0  0  0
 63 60  1  0  0  0  0
 64 70  1  0  0  0  0
 64 66  1  0  0  0  0
 65 64  1  0  0  0  0
 66 68  1  0  0  0  0
 66 69  1  0  0  0  0
 67 66  1  0  0  0  0
 70 71  1  0  0  0  0
 70 73  1  0  0  0  0
 72 70  1  0  0  0  0
 74 77  1  0  0  0  0
 74 75  1  0  0  0  0
 76 74  1  0  0  0  0
 78 79  1  0  0  0  0
 78 80  1  0  0  0  0
 81 78  1  0  0  0  0
M  END
