4,6
 OpenBabel05122313053D

 29 29  0  0  1  0  0  0  0  0999 V2000
    0.8476   -0.1460   -0.4186 C   0  0  2  0  0  3  0  0  0  0  0  0
    0.3723   -1.4213    0.0773 C   0  0  0  0  0  0  0  0  0  0  0  0
   -0.7260   -2.0461   -0.5728 C   0  0  0  0  0  0  0  0  0  0  0  0
   -1.3676   -1.4429   -1.6973 C   0  0  0  0  0  3  0  0  0  0  0  0
   -0.8874   -0.2157   -2.2061 C   0  0  0  0  0  3  0  0  0  0  0  0
    0.2072    0.4276   -1.5516 C   0  0  0  0  0  3  0  0  0  0  0  0
    2.0168    0.5440    0.2796 C   0  0  2  0  0  0  0  0  0  0  0  0
    2.1137    2.0517   -0.0030 C   0  0  0  0  0  0  0  0  0  0  0  0
    1.0261   -2.0909    1.2560 C   0  0  0  0  0  0  0  0  0  0  0  0
    3.7146   -0.1998   -1.3535 C   0  0  0  0  0  0  0  0  0  0  0  0
    4.3029    0.0070    0.9817 C   0  0  0  0  0  0  0  0  0  0  0  0
    3.2449   -0.2273    0.0188 N   0  0  0  0  0  0  0  0  0  0  0  0
   -1.1190   -2.9880   -0.1652 H   0  0  0  0  0  0  0  0  0  0  0  0
   -2.2491   -1.9219   -2.1456 H   0  0  0  0  0  0  0  0  0  0  0  0
   -1.3900    0.2750   -3.0502 H   0  0  0  0  0  0  0  0  0  0  0  0
    0.5338    1.4115   -1.9120 H   0  0  0  0  0  0  0  0  0  0  0  0
    1.8316    0.4374    1.3692 H   0  0  0  0  0  0  0  0  0  0  0  0
    1.1636    2.5583    0.2560 H   0  0  0  0  0  0  0  0  0  0  0  0
    2.9168    2.5047    0.6104 H   0  0  0  0  0  0  0  0  0  0  0  0
    2.3451    2.2725   -1.0641 H   0  0  0  0  0  0  0  0  0  0  0  0
    0.5050   -3.0303    1.5183 H   0  0  0  0  0  0  0  0  0  0  0  0
    2.0859   -2.3024    1.0114 H   0  0  0  0  0  0  0  0  0  0  0  0
    1.0245   -1.4402    2.1526 H   0  0  0  0  0  0  0  0  0  0  0  0
    2.8832   -0.4320   -2.0488 H   0  0  0  0  0  0  0  0  0  0  0  0
    4.4943   -0.9769   -1.4943 H   0  0  0  0  0  0  0  0  0  0  0  0
    4.1634    0.7789   -1.6673 H   0  0  0  0  0  0  0  0  0  0  0  0
    5.1113   -0.7398    0.8383 H   0  0  0  0  0  0  0  0  0  0  0  0
    3.9106   -0.1109    2.0130 H   0  0  0  0  0  0  0  0  0  0  0  0
    4.7757    1.0221    0.9109 H   0  0  0  0  0  0  0  0  0  0  0  0
  1  2  1  0  0  0  0
  1  7  1  6  0  0  0
  2  9  1  0  0  0  0
  3 13  1  0  0  0  0
  3  2  2  0  0  0  0
  4  3  1  0  0  0  0
  5  4  1  0  0  0  0
  5  6  1  0  0  0  0
  6  1  1  0  0  0  0
  7 17  1  1  0  0  0
  8 18  1  0  0  0  0
  8  7  1  0  0  0  0
  8 19  1  0  0  0  0
  9 21  1  0  0  0  0
  9 23  1  0  0  0  0
 10 12  1  0  0  0  0
 11 28  1  0  0  0  0
 12  7  1  0  0  0  0
 12 11  1  0  0  0  0
 14  4  1  0  0  0  0
 15  5  1  0  0  0  0
 16  6  1  0  0  0  0
 20  8  1  0  0  0  0
 22  9  1  0  0  0  0
 24 10  1  0  0  0  0
 25 10  1  0  0  0  0
 26 10  1  0  0  0  0
 27 11  1  0  0  0  0
 29 11  1  0  0  0  0
M  END
