3,5
 OpenBabel05122313053D

 38 40  0  0  1  0  0  0  0  0999 V2000
    0.6633    2.4131   -2.1352 O   0  0  0  0  0  0  0  0  0  0  0  0
    3.5386   -2.1495    0.3821 N   0  0  0  0  0  0  0  0  0  0  0  0
    0.8740    1.5307   -1.3492 C   0  0  0  0  0  3  0  0  0  0  0  0
    0.3071    0.2291   -0.9617 C   0  0  1  0  0  3  0  0  0  0  0  0
    1.3317   -0.7188   -0.6824 C   0  0  0  0  0  3  0  0  0  0  0  0
    1.1357   -1.6402   -0.1129 H   0  0  0  0  0  0  0  0  0  0  0  0
    2.6774   -0.4085   -1.0557 C   0  0  0  0  0  3  0  0  0  0  0  0
    2.8616    0.1378   -1.9935 H   0  0  0  0  0  0  0  0  0  0  0  0
   -1.1337    0.0361   -0.7154 C   0  0  0  0  0  0  0  0  0  0  0  0
   -2.0405    1.1139   -0.8448 C   0  0  0  0  0  0  0  0  0  0  0  0
   -1.6669    2.1079   -1.1299 H   0  0  0  0  0  0  0  0  0  0  0  0
   -3.4077    0.9307   -0.6273 C   0  0  0  0  0  0  0  0  0  0  0  0
   -4.0894    1.7840   -0.7590 H   0  0  0  0  0  0  0  0  0  0  0  0
   -3.9352   -0.3337   -0.2768 C   0  0  0  0  0  0  0  0  0  0  0  0
   -3.0256   -1.4102   -0.1597 C   0  0  0  0  0  0  0  0  0  0  0  0
   -3.3978   -2.4045    0.1286 H   0  0  0  0  0  0  0  0  0  0  0  0
   -1.6568   -1.2323   -0.3737 C   0  0  0  0  0  0  0  0  0  0  0  0
   -0.9845   -2.0968   -0.2756 H   0  0  0  0  0  0  0  0  0  0  0  0
   -5.3871   -0.5248   -0.0444 C   0  0  0  0  0  0  0  0  0  0  0  0
   -6.1719    0.5007    0.5323 C   0  0  0  0  0  0  0  0  0  0  0  0
   -5.6915    1.4426    0.8372 H   0  0  0  0  0  0  0  0  0  0  0  0
   -7.5436    0.3205    0.7540 C   0  0  0  0  0  0  0  0  0  0  0  0
   -8.1317    1.1296    1.2134 H   0  0  0  0  0  0  0  0  0  0  0  0
   -8.1643   -0.8890    0.4031 C   0  0  0  0  0  0  0  0  0  0  0  0
   -9.2418   -1.0302    0.5767 H   0  0  0  0  0  0  0  0  0  0  0  0
   -7.3993   -1.9167   -0.1711 C   0  0  0  0  0  0  0  0  0  0  0  0
   -7.8775   -2.8654   -0.4591 H   0  0  0  0  0  0  0  0  0  0  0  0
   -6.0274   -1.7370   -0.3916 C   0  0  0  0  0  0  0  0  0  0  0  0
   -5.4445   -2.5394   -0.8684 H   0  0  0  0  0  0  0  0  0  0  0  0
    3.8003   -1.2465   -0.5876 C   0  0  0  0  0  0  0  0  0  0  0  0
    5.0910   -1.0947   -1.1421 C   0  0  0  0  0  0  0  0  0  0  0  0
    5.2669   -0.3469   -1.9300 H   0  0  0  0  0  0  0  0  0  0  0  0
    6.1308   -1.9006   -0.6653 C   0  0  0  0  0  0  0  0  0  0  0  0
    7.1471   -1.7987   -1.0754 H   0  0  0  0  0  0  0  0  0  0  0  0
    5.8553   -2.8370    0.3426 C   0  0  0  0  0  0  0  0  0  0  0  0
    6.6415   -3.4889    0.7506 H   0  0  0  0  0  0  0  0  0  0  0  0
    4.5381   -2.9195    0.8262 C   0  0  0  0  0  0  0  0  0  0  0  0
    4.2812   -3.6435    1.6202 H   0  0  0  0  0  0  0  0  0  0  0  0
  1  3  2  0  0  0  0
  2 37  1  0  0  0  0
  4  3  1  1  0  0  0
  4  9  1  0  0  0  0
  4  5  1  0  0  0  0
  5  6  1  0  0  0  0
  7  5  1  0  0  0  0
  7 30  1  0  0  0  0
  8  7  1  0  0  0  0
  9 17  1  0  0  0  0
 10  9  2  0  0  0  0
 10 12  1  0  0  0  0
 11 10  1  0  0  0  0
 12 14  2  0  0  0  0
 13 12  1  0  0  0  0
 14 15  1  0  0  0  0
 14 19  1  0  0  0  0
 15 16  1  0  0  0  0
 17 18  1  0  0  0  0
 17 15  2  0  0  0  0
 19 20  1  0  0  0  0
 20 22  2  0  0  0  0
 20 21  1  0  0  0  0
 22 23  1  0  0  0  0
 24 25  1  0  0  0  0
 24 22  1  0  0  0  0
 26 24  2  0  0  0  0
 27 26  1  0  0  0  0
 28 26  1  0  0  0  0
 28 19  2  0  0  0  0
 29 28  1  0  0  0  0
 30  2  2  0  0  0  0
 31 33  2  0  0  0  0
 31 30  1  0  0  0  0
 32 31  1  0  0  0  0
 33 35  1  0  0  0  0
 34 33  1  0  0  0  0
 35 36  1  0  0  0  0
 35 37  2  0  0  0  0
 37 38  1  0  0  0  0
M  END
