1,4
 OpenBabel05122313053D

 31 30  0  0  0  0  0  0  0  0999 V2000
   -0.4779    0.5905   -0.2617 C   0  0  0  0  0  2  0  0  0  0  0  0
   -0.6309    2.0519   -0.6241 C   0  0  0  0  0  0  0  0  0  0  0  0
    0.3177    2.8120    0.3084 C   0  0  0  0  0  0  0  0  0  0  0  0
    1.6655    2.1189    0.2030 C   0  0  0  0  0  3  0  0  0  0  0  0
   -1.5720   -0.1764   -0.1525 N   0  0  0  0  0  0  0  0  0  0  0  0
   -1.4317   -1.5939    0.2806 C   0  0  0  0  0  0  0  0  0  0  0  0
   -1.9412   -2.5747   -0.7787 C   0  0  0  0  0  0  0  0  0  0  0  0
   -2.0531   -1.8312    1.6598 C   0  0  0  0  0  0  0  0  0  0  0  0
   -2.9901    0.2529   -0.3642 C   0  0  0  0  0  0  0  0  0  0  0  0
   -3.2783    0.6837   -1.8072 C   0  0  0  0  0  0  0  0  0  0  0  0
   -3.5017    1.2265    0.7074 C   0  0  0  0  0  0  0  0  0  0  0  0
   -3.0457   -2.5538   -0.8910 H   0  0  0  0  0  0  0  0  0  0  0  0
   -1.6652   -3.6083   -0.4890 H   0  0  0  0  0  0  0  0  0  0  0  0
   -1.4920   -2.3670   -1.7698 H   0  0  0  0  0  0  0  0  0  0  0  0
   -3.1575   -1.7179    1.6593 H   0  0  0  0  0  0  0  0  0  0  0  0
   -1.6206   -1.1398    2.4087 H   0  0  0  0  0  0  0  0  0  0  0  0
   -1.8323   -2.8666    1.9881 H   0  0  0  0  0  0  0  0  0  0  0  0
   -2.8048    1.6464   -2.0743 H   0  0  0  0  0  0  0  0  0  0  0  0
   -4.3723    0.7965   -1.9475 H   0  0  0  0  0  0  0  0  0  0  0  0
   -2.9202   -0.0836   -2.5214 H   0  0  0  0  0  0  0  0  0  0  0  0
   -3.0760    2.2430    0.6155 H   0  0  0  0  0  0  0  0  0  0  0  0
   -3.2641    0.8514    1.7212 H   0  0  0  0  0  0  0  0  0  0  0  0
   -4.6038    1.3163    0.6247 H   0  0  0  0  0  0  0  0  0  0  0  0
   -0.2559    2.1578   -1.6685 H   0  0  0  0  0  0  0  0  0  0  0  0
   -1.6593    2.4583   -0.6092 H   0  0  0  0  0  0  0  0  0  0  0  0
    0.3446    3.8941    0.0409 H   0  0  0  0  0  0  0  0  0  0  0  0
   -0.0796    2.7478    1.3458 H   0  0  0  0  0  0  0  0  0  0  0  0
    2.1604    2.4218   -0.7451 H   0  0  0  0  0  0  0  0  0  0  0  0
    2.3498    2.3816    1.0360 H   0  0  0  0  0  0  0  0  0  0  0  0
   -0.3375   -1.7140    0.3798 H   0  0  0  0  0  0  0  0  0  0  0  0
   -3.5685   -0.6793   -0.2132 H   0  0  0  0  0  0  0  0  0  0  0  0
  1  5  1  0  0  0  0
  2 25  1  0  0  0  0
  2  1  1  0  0  0  0
  2  3  1  0  0  0  0
  3 27  1  0  0  0  0
  4  3  1  0  0  0  0
  4 29  1  0  0  0  0
  5  6  1  0  0  0  0
  6 30  1  0  0  0  0
  6  8  1  0  0  0  0
  7 13  1  0  0  0  0
  7  6  1  0  0  0  0
  8 17  1  0  0  0  0
  8 16  1  0  0  0  0
  9 31  1  0  0  0  0
  9  5  1  0  0  0  0
  9 11  1  0  0  0  0
 10  9  1  0  0  0  0
 11 22  1  0  0  0  0
 12  7  1  0  0  0  0
 14  7  1  0  0  0  0
 15  8  1  0  0  0  0
 18 10  1  0  0  0  0
 19 10  1  0  0  0  0
 20 10  1  0  0  0  0
 21 11  1  0  0  0  0
 23 11  1  0  0  0  0
 24  2  1  0  0  0  0
 26  3  1  0  0  0  0
 28  4  1  0  0  0  0
M  END
