1,6
q = -2.0, confidence = 0.644

 42 44  0  0  0  0  0  0  0  0999 V2000
   -1.4909    0.0549   -0.1213 C   0  0  0  0  0  3  0  0  0  0  0  0
   -1.8566    1.3802   -0.1544 C   0  0  0  0  0  0  0  0  0  0  0  0
   -0.7473    2.3906   -0.3818 C   0  0  0  0  0  0  0  0  0  0  0  0
    0.3354    1.6800   -1.1611 C   0  0  0  0  0  3  0  0  0  0  0  0
    1.6487    1.5577   -0.8329 C   0  0  0  0  0  2  0  0  0  0  0  0
    2.6610    0.8775   -0.3952 C   0  0  0  0  0  2  0  0  0  0  0  0
   -2.5311   -0.9993   -0.1996 C   0  0  0  0  0  0  0  0  0  0  0  0
   -3.4080   -0.9977   -1.3185 C   0  0  0  0  0  0  0  0  0  0  0  0
   -4.3816   -1.9882   -1.4958 C   0  0  0  0  0  0  0  0  0  0  0  0
   -4.5212   -3.0229   -0.5565 C   0  0  0  0  0  0  0  0  0  0  0  0
   -3.6667   -3.0482    0.5565 C   0  0  0  0  0  0  0  0  0  0  0  0
   -2.6839   -2.0618    0.7261 C   0  0  0  0  0  0  0  0  0  0  0  0
   -3.2406    1.8952    0.0374 C   0  0  0  0  0  0  0  0  0  0  0  0
   -3.7475    2.9649   -0.7390 C   0  0  0  0  0  0  0  0  0  0  0  0
   -5.0537    3.4410   -0.5588 C   0  0  0  0  0  0  0  0  0  0  0  0
   -5.8868    2.8700    0.4159 C   0  0  0  0  0  0  0  0  0  0  0  0
   -5.3972    1.8178    1.2072 C   0  0  0  0  0  0  0  0  0  0  0  0
   -4.0948    1.3395    1.0203 C   0  0  0  0  0  0  0  0  0  0  0  0
    4.1036    1.0078   -0.2833 C   0  0  0  0  0  0  0  0  0  0  0  0
    4.8874   -0.0484    0.2406 C   0  0  0  0  0  0  0  0  0  0  0  0
    6.2801    0.0708    0.3440 C   0  0  0  0  0  0  0  0  0  0  0  0
    6.9195    1.2498   -0.0698 C   0  0  0  0  0  0  0  0  0  0  0  0
    6.1554    2.3097   -0.5901 C   0  0  0  0  0  0  0  0  0  0  0  0
    4.7656    2.1919   -0.6972 C   0  0  0  0  0  0  0  0  0  0  0  0
   -1.1124    3.2773   -0.9427 H   0  0  0  0  0  0  0  0  0  0  0  0
   -0.3535    2.7886    0.5799 H   0  0  0  0  0  0  0  0  0  0  0  0
    0.0382    1.3942   -2.1887 H   0  0  0  0  0  0  0  0  0  0  0  0
   -3.3106   -0.1853   -2.0549 H   0  0  0  0  0  0  0  0  0  0  0  0
   -5.0420   -1.9487   -2.3761 H   0  0  0  0  0  0  0  0  0  0  0  0
   -5.2865   -3.8019   -0.6915 H   0  0  0  0  0  0  0  0  0  0  0  0
   -3.7650   -3.8478    1.3075 H   0  0  0  0  0  0  0  0  0  0  0  0
   -2.0368   -2.1106    1.6103 H   0  0  0  0  0  0  0  0  0  0  0  0
   -3.1160    3.4185   -1.5182 H   0  0  0  0  0  0  0  0  0  0  0  0
   -5.4247    4.2652   -1.1876 H   0  0  0  0  0  0  0  0  0  0  0  0
   -6.9110    3.2458    0.5612 H   0  0  0  0  0  0  0  0  0  0  0  0
   -6.0363    1.3664    1.9816 H   0  0  0  0  0  0  0  0  0  0  0  0
   -3.7215    0.5167    1.6464 H   0  0  0  0  0  0  0  0  0  0  0  0
    4.3837   -0.9708    0.5660 H   0  0  0  0  0  0  0  0  0  0  0  0
    6.8713   -0.7630    0.7523 H   0  0  0  0  0  0  0  0  0  0  0  0
    8.0127    1.3447    0.0129 H   0  0  0  0  0  0  0  0  0  0  0  0
    6.6511    3.2372   -0.9156 H   0  0  0  0  0  0  0  0  0  0  0  0
    4.1645    3.0191   -1.1040 H   0  0  0  0  0  0  0  0  0  0  0  0
  2  1  2  0  0  0  0
  2 13  1  0  0  0  0
  3  2  1  0  0  0  0
  3 26  1  0  0  0  0
  4  5  1  0  0  0  0
  4  3  1  0  0  0  0
  5  6  1  0  0  0  0
  6 19  1  0  0  0  0
  7  1  1  0  0  0  0
  7 12  1  0  0  0  0
  8  7  2  0  0  0  0
  9  8  1  0  0  0  0
  9 10  2  0  0  0  0
 10 11  1  0  0  0  0
 11 12  2  0  0  0  0
 11 31  1  0  0  0  0
 12 32  1  0  0  0  0
 13 18  1  0  0  0  0
 14 15  1  0  0  0  0
 14 13  2  0  0  0  0
 15 16  2  0  0  0  0
 16 35  1  0  0  0  0
 16 17  1  0  0  0  0
 17 36  1  0  0  0  0
 18 17  2  0  0  0  0
 18 37  1  0  0  0  0
 19 20  1  0  0  0  0
 20 21  2  0  0  0  0
 20 38  1  0  0  0  0
 21 39  1  0  0  0  0
 22 40  1  0  0  0  0
 22 21  1  0  0  0  0
 23 22  2  0  0  0  0
 24 23  1  0  0  0  0
 24 19  2  0  0  0  0
 25  3  1  0  0  0  0
 27  4  1  0  0  0  0
 28  8  1  0  0  0  0
 29  9  1  0  0  0  0
 30 10  1  0  0  0  0
 33 14  1  0  0  0  0
 34 15  1  0  0  0  0
 41 23  1  0  0  0  0
 42 24  1  0  0  0  0
M  END
