31,60
 OpenBabel05122313053D

 82 89  0  0  0  0  0  0  0  0999 V2000
    0.2479    1.2131   -0.9220 O   0  0  0  0  0  0  0  0  0  0  0  0
   -0.9768    0.6829    1.3457 O   0  0  0  0  0  0  0  0  0  0  0  0
    2.2802   -0.6726    2.4309 N   0  0  0  0  0  0  0  0  0  0  0  0
    3.5131   -1.4612   -0.1046 N   0  0  0  0  0  0  0  0  0  0  0  0
    2.5729   -0.3907   -1.7563 N   0  0  0  0  0  0  0  0  0  0  0  0
   -2.1732   -1.9185    1.6115 N   0  0  0  0  0  0  0  0  0  0  0  0
   -2.5073   -2.6768   -0.4069 N   0  0  0  0  0  0  0  0  0  0  0  0
   -1.7114   -1.8541   -3.9017 N   0  0  0  0  0  0  0  0  0  0  0  0
    3.4697   -1.2959    2.3455 C   0  0  0  0  0  0  0  0  0  0  0  0
    2.0860    0.1942    3.4341 C   0  0  0  0  0  0  0  0  0  0  0  0
    1.1085    0.7063    3.4541 H   0  0  0  0  0  0  0  0  0  0  0  0
    3.0533    0.4675    4.4158 C   0  0  0  0  0  0  0  0  0  0  0  0
    2.8439    1.1897    5.2183 H   0  0  0  0  0  0  0  0  0  0  0  0
    4.2821   -0.2006    4.3398 C   0  0  0  0  0  0  0  0  0  0  0  0
    5.0680   -0.0210    5.0887 H   0  0  0  0  0  0  0  0  0  0  0  0
    4.4995   -1.0948    3.2802 C   0  0  0  0  0  0  0  0  0  0  0  0
    5.4571   -1.6279    3.1797 H   0  0  0  0  0  0  0  0  0  0  0  0
    3.6478   -2.2072    1.1408 C   0  0  0  0  0  0  0  0  0  0  0  0
    4.6339   -2.7084    1.1570 H   0  0  0  0  0  0  0  0  0  0  0  0
    2.8603   -2.9868    1.1383 H   0  0  0  0  0  0  0  0  0  0  0  0
    4.5285   -0.7054   -0.6981 C   0  0  0  0  0  0  0  0  0  0  0  0
    3.9197   -0.0149   -1.7737 C   0  0  0  0  0  0  0  0  0  0  0  0
    4.6575    0.8378   -2.6079 C   0  0  0  0  0  0  0  0  0  0  0  0
    4.1931    1.3763   -3.4458 H   0  0  0  0  0  0  0  0  0  0  0  0
    6.0233    0.9788   -2.3242 C   0  0  0  0  0  0  0  0  0  0  0  0
    6.6367    1.6397   -2.9535 H   0  0  0  0  0  0  0  0  0  0  0  0
    6.6298    0.2932   -1.2471 C   0  0  0  0  0  0  0  0  0  0  0  0
    7.7035    0.4347   -1.0572 H   0  0  0  0  0  0  0  0  0  0  0  0
    5.8942   -0.5619   -0.4146 C   0  0  0  0  0  0  0  0  0  0  0  0
    6.3710   -1.0887    0.4234 H   0  0  0  0  0  0  0  0  0  0  0  0
    2.3187   -1.2554   -0.7303 C   0  0  0  0  0  2  0  0  0  0  0  0
    1.5402    0.1483   -2.6307 C   0  0  0  0  0  0  0  0  0  0  0  0
    0.7410   -0.6134   -2.7236 H   0  0  0  0  0  0  0  0  0  0  0  0
    1.9729    0.3067   -3.6382 H   0  0  0  0  0  0  0  0  0  0  0  0
    0.9479    1.4602   -2.1305 C   0  0  0  0  0  0  0  0  0  0  0  0
    1.7476    2.2189   -1.9660 H   0  0  0  0  0  0  0  0  0  0  0  0
    0.2571    1.8499   -2.9117 H   0  0  0  0  0  0  0  0  0  0  0  0
   -0.4064    2.2632   -0.3403 C   0  0  0  0  0  0  0  0  0  0  0  0
   -0.4625    3.5466   -0.8653 C   0  0  0  0  0  0  0  0  0  0  0  0
    0.0470    3.7879   -1.8075 H   0  0  0  0  0  0  0  0  0  0  0  0
   -1.1739    4.5936   -0.2039 C   0  0  0  0  0  0  0  0  0  0  0  0
   -1.2407    5.9141   -0.7316 C   0  0  0  0  0  0  0  0  0  0  0  0
   -0.7274    6.1350   -1.6805 H   0  0  0  0  0  0  0  0  0  0  0  0
   -1.9395    6.9108   -0.0636 C   0  0  0  0  0  0  0  0  0  0  0  0
   -1.9831    7.9272   -0.4824 H   0  0  0  0  0  0  0  0  0  0  0  0
   -2.5988    6.6251    1.1602 C   0  0  0  0  0  0  0  0  0  0  0  0
   -3.1496    7.4215    1.6823 H   0  0  0  0  0  0  0  0  0  0  0  0
   -2.5502    5.3463    1.6993 C   0  0  0  0  0  0  0  0  0  0  0  0
   -3.0609    5.1232    2.6490 H   0  0  0  0  0  0  0  0  0  0  0  0
   -1.8421    4.3041    1.0367 C   0  0  0  0  0  0  0  0  0  0  0  0
   -1.7716    2.9788    1.5635 C   0  0  0  0  0  0  0  0  0  0  0  0
   -2.2809    2.7754    2.5152 H   0  0  0  0  0  0  0  0  0  0  0  0
   -1.0807    1.9736    0.9037 C   0  0  0  0  0  0  0  0  0  0  0  0
   -1.6745    0.3149    2.5223 C   0  0  0  0  0  0  0  0  0  0  0  0
   -2.7511    0.5920    2.4422 H   0  0  0  0  0  0  0  0  0  0  0  0
   -1.2581    0.8355    3.4159 H   0  0  0  0  0  0  0  0  0  0  0  0
   -1.5268   -1.1947    2.6972 C   0  0  0  0  0  0  0  0  0  0  0  0
   -0.4534   -1.4698    2.6962 H   0  0  0  0  0  0  0  0  0  0  0  0
   -1.9702   -1.5071    3.6630 H   0  0  0  0  0  0  0  0  0  0  0  0
   -1.5385   -2.2284    0.4430 C   0  0  0  0  0  2  0  0  0  0  0  0
   -3.5503   -2.1445    1.5091 C   0  0  0  0  0  0  0  0  0  0  0  0
   -3.7670   -2.6343    0.1983 C   0  0  0  0  0  0  0  0  0  0  0  0
   -5.0517   -2.9642   -0.2576 C   0  0  0  0  0  0  0  0  0  0  0  0
   -5.2274   -3.3381   -1.2758 H   0  0  0  0  0  0  0  0  0  0  0  0
   -6.1093   -2.7903    0.6453 C   0  0  0  0  0  0  0  0  0  0  0  0
   -7.1323   -3.0369    0.3265 H   0  0  0  0  0  0  0  0  0  0  0  0
   -5.8929   -2.3047    1.9556 C   0  0  0  0  0  0  0  0  0  0  0  0
   -6.7514   -2.1844    2.6322 H   0  0  0  0  0  0  0  0  0  0  0  0
   -4.6100   -1.9722    2.4122 C   0  0  0  0  0  0  0  0  0  0  0  0
   -4.4500   -1.5942    3.4316 H   0  0  0  0  0  0  0  0  0  0  0  0
   -2.2531   -2.9307   -1.8160 C   0  0  0  0  0  0  0  0  0  0  0  0
   -3.0504   -3.5888   -2.2158 H   0  0  0  0  0  0  0  0  0  0  0  0
   -1.3005   -3.4873   -1.9128 H   0  0  0  0  0  0  0  0  0  0  0  0
   -2.1639   -1.6596   -2.6508 C   0  0  0  0  0  0  0  0  0  0  0  0
   -1.6150   -0.7905   -4.7135 C   0  0  0  0  0  0  0  0  0  0  0  0
   -1.2462   -0.9879   -5.7357 H   0  0  0  0  0  0  0  0  0  0  0  0
   -1.9558    0.5158   -4.3202 C   0  0  0  0  0  0  0  0  0  0  0  0
   -1.8663    1.3525   -5.0289 H   0  0  0  0  0  0  0  0  0  0  0  0
   -2.4156    0.7142   -3.0107 C   0  0  0  0  0  0  0  0  0  0  0  0
   -2.6845    1.7190   -2.6504 H   0  0  0  0  0  0  0  0  0  0  0  0
   -2.5212   -0.3917   -2.1548 C   0  0  0  0  0  0  0  0  0  0  0  0
   -2.8707   -0.2612   -1.1215 H   0  0  0  0  0  0  0  0  0  0  0  0
  1 38  1  0  0  0  0
  2 54  1  0  0  0  0
  3 10  1  0  0  0  0
  4 18  1  0  0  0  0
  5 31  1  0  0  0  0
  6 57  1  0  0  0  0
  7 62  1  0  0  0  0
  7 60  1  0  0  0  0
  8 74  1  0  0  0  0
  9  3  2  0  0  0  0
  9 16  1  0  0  0  0
 10 11  1  0  0  0  0
 10 12  2  0  0  0  0
 12 13  1  0  0  0  0
 14 12  1  0  0  0  0
 14 15  1  0  0  0  0
 16 14  2  0  0  0  0
 17 16  1  0  0  0  0
 18 19  1  0  0  0  0
 18  9  1  0  0  0  0
 20 18  1  0  0  0  0
 21 29  1  0  0  0  0
 21  4  1  0  0  0  0
 22  5  1  0  0  0  0
 22 21  2  0  0  0  0
 23 25  2  0  0  0  0
 23 22  1  0  0  0  0
 24 23  1  0  0  0  0
 25 27  1  0  0  0  0
 26 25  1  0  0  0  0
 27 28  1  0  0  0  0
 27 29  2  0  0  0  0
 29 30  1  0  0  0  0
 31  4  1  0  0  0  0
 32 35  1  0  0  0  0
 32  5  1  0  0  0  0
 33 32  1  0  0  0  0
 34 32  1  0  0  0  0
 35 36  1  0  0  0  0
 35  1  1  0  0  0  0
 37 35  1  0  0  0  0
 38 53  1  0  0  0  0
 39 38  2  0  0  0  0
 39 41  1  0  0  0  0
 40 39  1  0  0  0  0
 41 50  1  0  0  0  0
 42 41  2  0  0  0  0
 42 44  1  0  0  0  0
 43 42  1  0  0  0  0
 44 46  2  0  0  0  0
 45 44  1  0  0  0  0
 46 47  1  0  0  0  0
 46 48  1  0  0  0  0
 48 49  1  0  0  0  0
 50 51  1  0  0  0  0
 50 48  2  0  0  0  0
 51 52  1  0  0  0  0
 53  2  1  0  0  0  0
 53 51  2  0  0  0  0
 54 57  1  0  0  0  0
 54 56  1  0  0  0  0
 55 54  1  0  0  0  0
 57 59  1  0  0  0  0
 58 57  1  0  0  0  0
 60  6  1  0  0  0  0
 61  6  1  0  0  0  0
 61 69  1  0  0  0  0
 62 61  2  0  0  0  0
 63 62  1  0  0  0  0
 63 65  2  0  0  0  0
 64 63  1  0  0  0  0
 65 67  1  0  0  0  0
 66 65  1  0  0  0  0
 67 69  2  0  0  0  0
 67 68  1  0  0  0  0
 69 70  1  0  0  0  0
 71  7  1  0  0  0  0
 72 71  1  0  0  0  0
 73 71  1  0  0  0  0
 74 81  2  0  0  0  0
 74 71  1  0  0  0  0
 75 77  1  0  0  0  0
 75  8  2  0  0  0  0
 76 75  1  0  0  0  0
 77 79  2  0  0  0  0
 78 77  1  0  0  0  0
 79 80  1  0  0  0  0
 79 81  1  0  0  0  0
 81 82  1  0  0  0  0
M  END
