2,20
 OpenBabel05122313053D

 39 40  0  0  0  0  0  0  0  0999 V2000
    0.3846   -1.2900    2.2677 N   0  0  0  0  0  0  0  0  0  0  0  0
    0.1283   -1.3513    0.9293 C   0  0  0  0  0  2  0  0  0  0  0  0
   -0.3956   -2.5888    0.7155 N   0  0  0  0  0  0  0  0  0  0  0  0
   -0.4883   -3.2901    1.9152 C   0  0  0  0  0  0  0  0  0  0  0  0
   -0.8933   -4.3049    1.9699 H   0  0  0  0  0  0  0  0  0  0  0  0
    0.0004   -2.4696    2.8953 C   0  0  0  0  0  0  0  0  0  0  0  0
    0.1145   -2.6299    3.9714 H   0  0  0  0  0  0  0  0  0  0  0  0
   -0.7958   -3.1002   -0.5969 C   0  0  0  0  0  0  0  0  0  0  0  0
   -1.8068   -2.7177   -0.8521 H   0  0  0  0  0  0  0  0  0  0  0  0
   -0.8707   -4.2013   -0.5132 H   0  0  0  0  0  0  0  0  0  0  0  0
    0.2187   -2.7530   -1.6865 C   0  0  0  0  0  0  0  0  0  0  0  0
    1.2531   -2.9217   -1.3248 H   0  0  0  0  0  0  0  0  0  0  0  0
    0.0407   -3.3945   -2.5746 H   0  0  0  0  0  0  0  0  0  0  0  0
    0.1607   -1.3778   -2.0943 O   0  0  0  0  0  0  0  0  0  0  0  0
   -0.8846   -1.1061   -3.0523 C   0  0  0  0  0  0  0  0  0  0  0  0
   -0.6915   -1.7029   -3.9670 H   0  0  0  0  0  0  0  0  0  0  0  0
   -0.8382   -0.0283   -3.2816 H   0  0  0  0  0  0  0  0  0  0  0  0
   -1.8888   -1.3261   -2.6403 H   0  0  0  0  0  0  0  0  0  0  0  0
    0.5447    1.0941    2.4001 N   0  0  0  0  0  0  0  0  0  0  0  0
    0.3178    1.3157    1.0770 C   0  0  0  0  0  2  0  0  0  0  0  0
   -0.1316    2.5963    0.9881 N   0  0  0  0  0  0  0  0  0  0  0  0
   -0.1949    3.1737    2.2540 C   0  0  0  0  0  0  0  0  0  0  0  0
   -0.5331    4.2020    2.4132 H   0  0  0  0  0  0  0  0  0  0  0  0
    0.2261    2.2242    3.1469 C   0  0  0  0  0  0  0  0  0  0  0  0
    0.3360    2.2637    4.2346 H   0  0  0  0  0  0  0  0  0  0  0  0
   -0.5547    3.2148   -0.2705 C   0  0  0  0  0  0  0  0  0  0  0  0
   -0.7156    4.2917   -0.0763 H   0  0  0  0  0  0  0  0  0  0  0  0
   -1.5186    2.7699   -0.5922 H   0  0  0  0  0  0  0  0  0  0  0  0
    0.4786    3.0754   -1.3758 C   0  0  0  0  0  0  0  0  0  0  0  0
    0.1876    3.7408   -2.2179 H   0  0  0  0  0  0  0  0  0  0  0  0
    1.4856    3.3868   -1.0147 H   0  0  0  0  0  0  0  0  0  0  0  0
    0.5364    1.7291   -1.8677 O   0  0  0  0  0  0  0  0  0  0  0  0
    1.4957    1.5931   -2.9333 C   0  0  0  0  0  0  0  0  0  0  0  0
    1.1749    2.2183   -3.7927 H   0  0  0  0  0  0  0  0  0  0  0  0
    1.5177    0.5276   -3.2196 H   0  0  0  0  0  0  0  0  0  0  0  0
    2.5079    1.8947   -2.5940 H   0  0  0  0  0  0  0  0  0  0  0  0
    1.0593   -0.1684    2.9022 C   0  0  0  0  0  0  0  0  0  0  0  0
    2.1466   -0.2306    2.6784 H   0  0  0  0  0  0  0  0  0  0  0  0
    0.8921   -0.2181    3.9929 H   0  0  0  0  0  0  0  0  0  0  0  0
  1  6  1  0  0  0  0
  1 37  1  0  0  0  0
  2  1  1  0  0  0  0
  3  2  1  0  0  0  0
  3  4  1  0  0  0  0
  4  5  1  0  0  0  0
  4  6  2  0  0  0  0
  6  7  1  0  0  0  0
  8 10  1  0  0  0  0
  8  3  1  0  0  0  0
  9  8  1  0  0  0  0
 11 12  1  0  0  0  0
 11  8  1  0  0  0  0
 13 11  1  0  0  0  0
 14 11  1  0  0  0  0
 15 18  1  0  0  0  0
 15 14  1  0  0  0  0
 16 15  1  0  0  0  0
 17 15  1  0  0  0  0
 19 37  1  0  0  0  0
 19 24  1  0  0  0  0
 20 19  1  0  0  0  0
 21 20  1  0  0  0  0
 21 22  1  0  0  0  0
 22 23  1  0  0  0  0
 22 24  2  0  0  0  0
 24 25  1  0  0  0  0
 26 27  1  0  0  0  0
 26 21  1  0  0  0  0
 28 26  1  0  0  0  0
 29 31  1  0  0  0  0
 29 26  1  0  0  0  0
 30 29  1  0  0  0  0
 32 29  1  0  0  0  0
 33 36  1  0  0  0  0
 33 32  1  0  0  0  0
 34 33  1  0  0  0  0
 35 33  1  0  0  0  0
 37 39  1  0  0  0  0
 38 37  1  0  0  0  0
M  END
