1,11
 OpenBabel05122313053D

 36 37  0  0  1  0  0  0  0  0999 V2000
   -1.2634    1.8331    0.8155 C   0  0  0  0  0  3  0  0  0  0  0  0
   -2.0863    1.0080    1.6531 C   0  0  0  0  0  3  0  0  0  0  0  0
   -1.2472    0.0009    2.2257 C   0  0  0  0  0  0  0  0  0  0  0  0
    0.0855    0.2109    1.7619 C   0  0  0  0  0  0  0  0  0  0  0  0
    0.0841    1.3290    0.8670 C   0  0  1  0  0  3  0  0  0  0  0  0
    1.2580    1.7488   -0.0115 C   0  0  0  0  0  0  0  0  0  0  0  0
    0.9557    3.0707   -0.7372 C   0  0  0  0  0  0  0  0  0  0  0  0
    2.5148    1.9476    0.8508 C   0  0  0  0  0  0  0  0  0  0  0  0
    1.3585    0.5940   -1.0717 C   0  0  2  0  0  0  0  0  0  0  0  0
   -0.0277    0.3749   -1.7148 C   0  0  0  0  0  3  0  0  0  0  0  0
   -0.3664   -1.0073   -1.7092 C   0  0  0  0  0  3  0  0  0  0  0  0
    0.3941   -1.5746   -0.6329 C   0  0  0  0  0  3  0  0  0  0  0  0
    1.6484   -0.8040   -0.5025 C   0  0  0  0  0  0  0  0  0  0  0  0
    2.8540   -1.3096   -0.1079 C   0  0  0  0  0  0  0  0  0  0  0  0
    4.1615   -0.5831   -0.2915 C   0  0  0  0  0  0  0  0  0  0  0  0
    2.9989   -2.6969    0.4674 C   0  0  0  0  0  0  0  0  0  0  0  0
    0.9543   -0.4096    2.0052 H   0  0  0  0  0  0  0  0  0  0  0  0
   -1.5695   -0.7915    2.9116 H   0  0  0  0  0  0  0  0  0  0  0  0
   -3.1626    1.1253    1.8239 H   0  0  0  0  0  0  0  0  0  0  0  0
   -1.6046    2.6979    0.2376 H   0  0  0  0  0  0  0  0  0  0  0  0
    0.0519    3.0057   -1.3723 H   0  0  0  0  0  0  0  0  0  0  0  0
    0.8018    3.8932   -0.0098 H   0  0  0  0  0  0  0  0  0  0  0  0
    1.8073    3.3496   -1.3899 H   0  0  0  0  0  0  0  0  0  0  0  0
    2.3344    2.7505    1.5943 H   0  0  0  0  0  0  0  0  0  0  0  0
    2.7873    1.0298    1.4031 H   0  0  0  0  0  0  0  0  0  0  0  0
    3.3823    2.2498    0.2315 H   0  0  0  0  0  0  0  0  0  0  0  0
    2.1188    0.8707   -1.8407 H   0  0  0  0  0  0  0  0  0  0  0  0
   -0.4334    1.0829   -2.4510 H   0  0  0  0  0  0  0  0  0  0  0  0
   -1.0324   -1.5420   -2.3986 H   0  0  0  0  0  0  0  0  0  0  0  0
    0.3387   -2.6394   -0.3719 H   0  0  0  0  0  0  0  0  0  0  0  0
    4.0662    0.3422   -0.8879 H   0  0  0  0  0  0  0  0  0  0  0  0
    4.6343   -0.3135    0.6786 H   0  0  0  0  0  0  0  0  0  0  0  0
    4.8879   -1.2471   -0.8100 H   0  0  0  0  0  0  0  0  0  0  0  0
    2.0335   -3.1751    0.7151 H   0  0  0  0  0  0  0  0  0  0  0  0
    3.5439   -3.3698   -0.2322 H   0  0  0  0  0  0  0  0  0  0  0  0
    3.6070   -2.6695    1.3981 H   0  0  0  0  0  0  0  0  0  0  0  0
  1  5  1  0  0  0  0
  1  2  1  0  0  0  0
  2 19  1  0  0  0  0
  2  3  1  0  0  0  0
  3 18  1  0  0  0  0
  4 17  1  0  0  0  0
  4  3  2  0  0  0  0
  5  6  1  6  0  0  0
  5  4  1  0  0  0  0
  6  8  1  0  0  0  0
  7  6  1  0  0  0  0
  7 22  1  0  0  0  0
  8 25  1  0  0  0  0
  8 24  1  0  0  0  0
  9 27  1  6  0  0  0
  9 13  1  0  0  0  0
  9  6  1  0  0  0  0
 10 11  1  0  0  0  0
 10  9  1  0  0  0  0
 11 12  1  0  0  0  0
 12 13  1  0  0  0  0
 12 30  1  0  0  0  0
 13 14  2  0  0  0  0
 14 16  1  0  0  0  0
 15 14  1  0  0  0  0
 15 32  1  0  0  0  0
 16 34  1  0  0  0  0
 16 36  1  0  0  0  0
 20  1  1  0  0  0  0
 21  7  1  0  0  0  0
 23  7  1  0  0  0  0
 26  8  1  0  0  0  0
 28 10  1  0  0  0  0
 29 11  1  0  0  0  0
 31 15  1  0  0  0  0
 33 15  1  0  0  0  0
 35 16  1  0  0  0  0
M  END
