8,23
 OpenBabel05122313053D

 44 46  0  0  1  0  0  0  0  0999 V2000
    0.4329    1.4264    0.2886 C   0  0  0  0  0  0  0  0  0  0  0  0
   -0.4403    1.7046    1.3857 C   0  0  0  0  0  0  0  0  0  0  0  0
   -0.2564    1.4576    2.4370 H   0  0  0  0  0  0  0  0  0  0  0  0
   -1.6249    2.3344    0.8947 C   0  0  0  0  0  0  0  0  0  0  0  0
   -2.4881    2.6347    1.4999 H   0  0  0  0  0  0  0  0  0  0  0  0
   -1.4958    2.4634   -0.5109 C   0  0  0  0  0  0  0  0  0  0  0  0
   -2.2427    2.8841   -1.1931 H   0  0  0  0  0  0  0  0  0  0  0  0
   -0.2535    1.8803   -0.8952 C   0  0  0  0  0  3  0  0  0  0  0  0
    0.1246    1.8293   -1.9204 H   0  0  0  0  0  0  0  0  0  0  0  0
    1.8521    0.8443    0.3552 C   0  0  2  0  0  0  0  0  0  0  0  0
    2.3406    0.7536    1.8342 C   0  0  0  0  0  0  0  0  0  0  0  0
    3.4393    0.8650    1.8777 H   0  0  0  0  0  0  0  0  0  0  0  0
    1.8884    1.4599    2.5549 H   0  0  0  0  0  0  0  0  0  0  0  0
    2.7896    1.5226   -0.5320 N   0  0  0  0  0  0  0  0  0  0  0  0
    2.9413    2.9383   -0.2557 C   0  0  0  0  0  0  0  0  0  0  0  0
    2.0778    3.5618   -0.6034 H   0  0  0  0  0  0  0  0  0  0  0  0
    3.8546    3.3183   -0.7597 H   0  0  0  0  0  0  0  0  0  0  0  0
    3.0598    3.1083    0.8334 H   0  0  0  0  0  0  0  0  0  0  0  0
    2.7902    1.2023   -1.9477 C   0  0  0  0  0  0  0  0  0  0  0  0
    2.6808    0.1083   -2.0717 H   0  0  0  0  0  0  0  0  0  0  0  0
    3.7714    1.4924   -2.3824 H   0  0  0  0  0  0  0  0  0  0  0  0
    2.0106    1.7349   -2.5505 H   0  0  0  0  0  0  0  0  0  0  0  0
    0.5131   -1.3361   -0.2077 C   0  0  2  0  0  3  0  0  0  0  0  0
   -0.4064   -2.1875    0.4745 C   0  0  0  0  0  3  0  0  0  0  0  0
   -0.3358   -2.4985    1.5223 H   0  0  0  0  0  0  0  0  0  0  0  0
   -1.4568   -2.5381   -0.4236 C   0  0  0  0  0  0  0  0  0  0  0  0
   -2.3371   -3.1436   -0.1777 H   0  0  0  0  0  0  0  0  0  0  0  0
   -1.1782   -1.9300   -1.6791 C   0  0  0  0  0  0  0  0  0  0  0  0
   -1.8097   -1.9835   -2.5729 H   0  0  0  0  0  0  0  0  0  0  0  0
    0.0229   -1.1796   -1.5504 C   0  0  0  0  0  3  0  0  0  0  0  0
    0.5136   -0.6057   -2.3438 H   0  0  0  0  0  0  0  0  0  0  0  0
    1.8058   -0.7731    0.3397 C   0  0  2  0  0  0  0  0  0  0  0  0
    1.8959   -0.7206    1.9075 C   0  0  0  0  0  0  0  0  0  0  0  0
    0.9152   -0.8511    2.4031 H   0  0  0  0  0  0  0  0  0  0  0  0
    2.6089   -1.4337    2.3643 H   0  0  0  0  0  0  0  0  0  0  0  0
    2.9309   -1.4406   -0.3402 N   0  0  0  0  0  0  0  0  0  0  0  0
    4.2702   -1.0644    0.0995 C   0  0  0  0  0  0  0  0  0  0  0  0
    4.5246   -1.4290    1.1286 H   0  0  0  0  0  0  0  0  0  0  0  0
    4.3822    0.0341    0.0608 H   0  0  0  0  0  0  0  0  0  0  0  0
    5.0086   -1.5141   -0.5952 H   0  0  0  0  0  0  0  0  0  0  0  0
    2.8034   -2.8924   -0.3771 C   0  0  0  0  0  0  0  0  0  0  0  0
    3.6478   -3.3077   -0.9629 H   0  0  0  0  0  0  0  0  0  0  0  0
    1.8628   -3.2007   -0.8707 H   0  0  0  0  0  0  0  0  0  0  0  0
    2.8346   -3.3712    0.6371 H   0  0  0  0  0  0  0  0  0  0  0  0
  1 10  1  0  0  0  0
  1  2  2  0  0  0  0
  2  3  1  0  0  0  0
  4  2  1  0  0  0  0
  4  5  1  0  0  0  0
  6  4  2  0  0  0  0
  7  6  1  0  0  0  0
  8  6  1  0  0  0  0
  8  1  1  0  0  0  0
  9  8  1  0  0  0  0
 10 14  1  6  0  0  0
 10 11  1  0  0  0  0
 11 12  1  0  0  0  0
 11 33  1  0  0  0  0
 11 13  1  0  0  0  0
 14 15  1  0  0  0  0
 15 18  1  0  0  0  0
 16 15  1  0  0  0  0
 17 15  1  0  0  0  0
 19 14  1  0  0  0  0
 20 19  1  0  0  0  0
 21 19  1  0  0  0  0
 22 19  1  0  0  0  0
 23 30  1  6  0  0  0
 23 32  1  0  0  0  0
 23 24  1  0  0  0  0
 24 25  1  0  0  0  0
 26 27  1  0  0  0  0
 26 24  1  0  0  0  0
 28 30  1  0  0  0  0
 28 26  2  0  0  0  0
 29 28  1  0  0  0  0
 31 30  1  0  0  0  0
 32 36  1  6  0  0  0
 32 10  1  0  0  0  0
 32 33  1  0  0  0  0
 33 35  1  0  0  0  0
 33 34  1  0  0  0  0
 36 37  1  0  0  0  0
 37 38  1  0  0  0  0
 39 37  1  0  0  0  0
 40 37  1  0  0  0  0
 41 36  1  0  0  0  0
 41 44  1  0  0  0  0
 42 41  1  0  0  0  0
 43 41  1  0  0  0  0
M  END
