1,5
 OpenBabel05122313053D

 25 26  0  0  1  0  0  0  0  0999 V2000
    0.5161   -1.3442   -0.4742 C   0  0  0  0  0  3  0  0  0  0  0  0
   -5.6769   -1.2856    0.6369 O   0  0  0  0  0  0  0  0  0  0  0  0
   -4.0037   -2.3442   -0.4584 O   0  0  0  0  0  0  0  0  0  0  0  0
    0.1417    2.1611   -1.6977 O   0  0  0  0  0  0  0  0  0  0  0  0
    1.8573   -0.1301   -1.9315 C   0  0  0  0  0  3  0  0  0  0  0  0
   -3.3341    2.2749    0.7003 C   0  0  0  0  0  0  0  0  0  0  0  0
    1.6766   -2.1206   -0.7600 C   0  0  0  0  0  0  0  0  0  0  0  0
   -4.5659   -1.2578    0.1368 C   0  0  0  0  0  0  0  0  0  0  0  0
   -1.5967    1.0600   -0.5117 C   0  0  0  0  0  0  0  0  0  0  0  0
   -3.6737   -0.0611    0.1089 C   0  0  0  0  0  0  0  0  0  0  0  0
    2.5073   -1.3670   -1.6655 C   0  0  0  0  0  0  0  0  0  0  0  0
   -0.2578    1.1149   -1.1880 C   0  0  0  0  0  0  0  0  0  0  0  0
   -2.4055   -0.0913   -0.5018 C   0  0  0  0  0  0  0  0  0  0  0  0
    0.6061   -0.1012   -1.2118 C   0  0  2  0  0  3  0  0  0  0  0  0
   -2.0805    2.2489    0.0769 C   0  0  0  0  0  0  0  0  0  0  0  0
   -4.1319    1.1225    0.7194 C   0  0  0  0  0  0  0  0  0  0  0  0
    3.4750   -1.6878   -2.0684 H   0  0  0  0  0  0  0  0  0  0  0  0
   -1.4453    3.1458    0.0292 H   0  0  0  0  0  0  0  0  0  0  0  0
   -0.2941   -1.6385    0.2015 H   0  0  0  0  0  0  0  0  0  0  0  0
    2.2110    0.6872   -2.5702 H   0  0  0  0  0  0  0  0  0  0  0  0
   -3.6947    3.2012    1.1717 H   0  0  0  0  0  0  0  0  0  0  0  0
   -2.0801   -1.0133   -1.0007 H   0  0  0  0  0  0  0  0  0  0  0  0
   -5.1227    1.1122    1.1970 H   0  0  0  0  0  0  0  0  0  0  0  0
    1.9015   -3.1133   -0.3525 H   0  0  0  0  0  0  0  0  0  0  0  0
   -4.6751   -3.0558   -0.3816 H   0  0  0  0  0  0  0  0  0  0  0  0
  1 19  1  0  0  0  0
  3 25  1  0  0  0  0
  3  8  1  0  0  0  0
  4 12  2  0  0  0  0
  5 11  1  0  0  0  0
  5 14  1  0  0  0  0
  6 16  1  0  0  0  0
  6 21  1  0  0  0  0
  7  1  1  0  0  0  0
  7 24  1  0  0  0  0
  8  2  2  0  0  0  0
  9 13  2  0  0  0  0
  9 15  1  0  0  0  0
 10  8  1  0  0  0  0
 10 16  2  0  0  0  0
 11  7  2  0  0  0  0
 12  9  1  0  0  0  0
 13 10  1  0  0  0  0
 14 12  1  1  0  0  0
 14  1  1  0  0  0  0
 15  6  2  0  0  0  0
 16 23  1  0  0  0  0
 17 11  1  0  0  0  0
 18 15  1  0  0  0  0
 20  5  1  0  0  0  0
 22 13  1  0  0  0  0
M  END
