1,4
 OpenBabel05122313053D

 30 31  0  0  0  0  0  0  0  0999 V2000
    0.8053   -2.1607   -1.1290 C   0  0  0  0  0  3  0  0  0  0  0  0
   -0.6441   -2.3453   -0.6379 C   0  0  0  0  0  0  0  0  0  0  0  0
   -1.4093   -1.0345   -0.4533 C   0  0  0  0  0  0  0  0  0  0  0  0
   -0.7110    0.1299   -0.2417 C   0  0  0  0  0  3  0  0  0  0  0  0
   -1.3215    2.5323   -0.7558 C   0  0  0  0  0  0  0  0  0  0  0  0
   -1.8614    3.7684   -0.3730 C   0  0  0  0  0  0  0  0  0  0  0  0
   -2.4050    3.9395    0.9109 C   0  0  0  0  0  0  0  0  0  0  0  0
   -2.4141    2.8532    1.8009 C   0  0  0  0  0  0  0  0  0  0  0  0
   -1.8834    1.6144    1.4150 C   0  0  0  0  0  0  0  0  0  0  0  0
   -1.3210    1.4233    0.1275 C   0  0  0  0  0  0  0  0  0  0  0  0
   -3.5237   -2.2792    0.1310 C   0  0  0  0  0  0  0  0  0  0  0  0
   -4.9206   -2.3864    0.1869 C   0  0  0  0  0  0  0  0  0  0  0  0
   -5.7300   -1.3628   -0.3289 C   0  0  0  0  0  0  0  0  0  0  0  0
   -5.1249   -0.2324   -0.9022 C   0  0  0  0  0  0  0  0  0  0  0  0
   -3.7297   -0.1199   -0.9472 C   0  0  0  0  0  0  0  0  0  0  0  0
   -2.8955   -1.1366   -0.4231 C   0  0  0  0  0  0  0  0  0  0  0  0
    0.7738   -1.9202   -2.2134 H   0  0  0  0  0  0  0  0  0  0  0  0
    1.3822   -3.1043   -1.0327 H   0  0  0  0  0  0  0  0  0  0  0  0
   -0.6515   -2.8925    0.3360 H   0  0  0  0  0  0  0  0  0  0  0  0
   -1.2210   -3.0067   -1.3252 H   0  0  0  0  0  0  0  0  0  0  0  0
   -0.9178    2.4024   -1.7717 H   0  0  0  0  0  0  0  0  0  0  0  0
   -1.8619    4.6065   -1.0874 H   0  0  0  0  0  0  0  0  0  0  0  0
   -2.8241    4.9110    1.2131 H   0  0  0  0  0  0  0  0  0  0  0  0
   -2.8489    2.9686    2.8060 H   0  0  0  0  0  0  0  0  0  0  0  0
   -1.9144    0.7619    2.1106 H   0  0  0  0  0  0  0  0  0  0  0  0
   -2.9082   -3.0919    0.5439 H   0  0  0  0  0  0  0  0  0  0  0  0
   -5.3803   -3.2804    0.6362 H   0  0  0  0  0  0  0  0  0  0  0  0
   -6.8267   -1.4483   -0.2910 H   0  0  0  0  0  0  0  0  0  0  0  0
   -5.7472    0.5719   -1.3239 H   0  0  0  0  0  0  0  0  0  0  0  0
   -3.2721    0.7646   -1.4092 H   0  0  0  0  0  0  0  0  0  0  0  0
  1 18  1  0  0  0  0
  1  2  1  0  0  0  0
  2  3  1  0  0  0  0
  2 19  1  0  0  0  0
  3 16  1  0  0  0  0
  3  4  2  0  0  0  0
  4 10  1  0  0  0  0
  5  6  2  0  0  0  0
  5 10  1  0  0  0  0
  6  7  1  0  0  0  0
  7 23  1  0  0  0  0
  7  8  2  0  0  0  0
  8 24  1  0  0  0  0
  9  8  1  0  0  0  0
  9 25  1  0  0  0  0
 10  9  2  0  0  0  0
 11 12  1  0  0  0  0
 11 26  1  0  0  0  0
 12 27  1  0  0  0  0
 13 28  1  0  0  0  0
 13 12  2  0  0  0  0
 14 13  1  0  0  0  0
 15 14  2  0  0  0  0
 15 16  1  0  0  0  0
 16 11  2  0  0  0  0
 17  1  1  0  0  0  0
 20  2  1  0  0  0  0
 21  5  1  0  0  0  0
 22  6  1  0  0  0  0
 29 14  1  0  0  0  0
 30 15  1  0  0  0  0
M  END
