1,4
 OpenBabel05122313053D

 75 80  0  0  1  0  0  0  0  0999 V2000
   -0.7294   -1.5152   -0.2977 C   0  0  1  0  0  3  0  0  0  0  0  0
   -0.9936   -0.5373   -1.3516 C   0  0  0  0  0  0  0  0  0  0  0  0
    0.1492    0.3068   -1.4332 C   0  0  0  0  0  0  0  0  0  0  0  0
    1.1150   -0.1269   -0.4127 C   0  0  2  0  0  3  0  0  0  0  0  0
    0.5473   -1.2265    0.3189 C   0  0  1  0  0  3  0  0  0  0  0  0
   -1.7147   -2.5263    0.2064 C   0  0  0  0  0  0  0  0  0  0  0  0
   -2.6127   -1.9996    1.3186 C   0  0  0  0  0  0  0  0  0  0  0  0
   -3.6322   -2.8268    1.8316 C   0  0  0  0  0  0  0  0  0  0  0  0
   -4.5040   -2.3617    2.8256 C   0  0  0  0  0  0  0  0  0  0  0  0
   -4.3700   -1.0561    3.3266 C   0  0  0  0  0  0  0  0  0  0  0  0
   -3.3540   -0.2277    2.8289 C   0  0  0  0  0  0  0  0  0  0  0  0
   -2.4812   -0.6971    1.8356 C   0  0  0  0  0  0  0  0  0  0  0  0
   -2.2612   -0.4548   -2.1681 C   0  0  0  0  0  0  0  0  0  0  0  0
   -3.4131    0.1854   -1.4100 C   0  0  0  0  0  0  0  0  0  0  0  0
   -4.4724   -0.5944   -0.9083 C   0  0  0  0  0  0  0  0  0  0  0  0
   -5.4946   -0.0157   -0.1421 C   0  0  0  0  0  0  0  0  0  0  0  0
   -5.4755    1.3603    0.1303 C   0  0  0  0  0  0  0  0  0  0  0  0
   -4.4373    2.1539   -0.3842 C   0  0  0  0  0  0  0  0  0  0  0  0
   -3.4182    1.5705   -1.1508 C   0  0  0  0  0  0  0  0  0  0  0  0
    0.3592    1.4717   -2.3595 C   0  0  0  0  0  0  0  0  0  0  0  0
    0.3291    2.8381   -1.6897 C   0  0  0  0  0  0  0  0  0  0  0  0
   -0.3209    3.0513   -0.4590 C   0  0  0  0  0  0  0  0  0  0  0  0
   -0.3428    4.3234    0.1317 C   0  0  0  0  0  0  0  0  0  0  0  0
    0.2891    5.4053   -0.4983 C   0  0  0  0  0  0  0  0  0  0  0  0
    0.9451    5.2049   -1.7234 C   0  0  0  0  0  0  0  0  0  0  0  0
    0.9652    3.9316   -2.3104 C   0  0  0  0  0  0  0  0  0  0  0  0
    2.4150    0.5848   -0.1456 C   0  0  0  0  0  0  0  0  0  0  0  0
    2.3006    1.7202    0.8593 C   0  0  0  0  0  0  0  0  0  0  0  0
    1.4975    1.6123    2.0125 C   0  0  0  0  0  0  0  0  0  0  0  0
    1.4176    2.6642    2.9371 C   0  0  0  0  0  0  0  0  0  0  0  0
    2.1374    3.8493    2.7222 C   0  0  0  0  0  0  0  0  0  0  0  0
    2.9356    3.9714    1.5741 C   0  0  0  0  0  0  0  0  0  0  0  0
    3.0153    2.9160    0.6549 C   0  0  0  0  0  0  0  0  0  0  0  0
    1.0882   -1.9547    1.5261 C   0  0  0  0  0  0  0  0  0  0  0  0
    2.5923   -2.1281    1.5777 C   0  0  0  0  0  0  0  0  0  0  0  0
    3.2494   -2.9125    0.6075 C   0  0  0  0  0  0  0  0  0  0  0  0
    4.6437   -3.0518    0.6261 C   0  0  0  0  0  0  0  0  0  0  0  0
    5.4043   -2.4126    1.6203 C   0  0  0  0  0  0  0  0  0  0  0  0
    4.7589   -1.6420    2.5989 C   0  0  0  0  0  0  0  0  0  0  0  0
    3.3615   -1.5039    2.5777 C   0  0  0  0  0  0  0  0  0  0  0  0
   -1.1781   -3.4291    0.5679 H   0  0  0  0  0  0  0  0  0  0  0  0
   -2.3502   -2.8825   -0.6312 H   0  0  0  0  0  0  0  0  0  0  0  0
   -3.7486   -3.8489    1.4360 H   0  0  0  0  0  0  0  0  0  0  0  0
   -5.2965   -3.0220    3.2102 H   0  0  0  0  0  0  0  0  0  0  0  0
   -5.0583   -0.6865    4.1016 H   0  0  0  0  0  0  0  0  0  0  0  0
   -3.2439    0.8004    3.2059 H   0  0  0  0  0  0  0  0  0  0  0  0
   -1.7031   -0.0288    1.4378 H   0  0  0  0  0  0  0  0  0  0  0  0
   -2.5565   -1.4718   -2.4939 H   0  0  0  0  0  0  0  0  0  0  0  0
   -2.0529    0.1182   -3.0944 H   0  0  0  0  0  0  0  0  0  0  0  0
   -4.4909   -1.6768   -1.1095 H   0  0  0  0  0  0  0  0  0  0  0  0
   -6.3020   -0.6482    0.2562 H   0  0  0  0  0  0  0  0  0  0  0  0
   -6.2715    1.8151    0.7391 H   0  0  0  0  0  0  0  0  0  0  0  0
   -4.4184    3.2373   -0.1895 H   0  0  0  0  0  0  0  0  0  0  0  0
   -2.6117    2.2038   -1.5501 H   0  0  0  0  0  0  0  0  0  0  0  0
   -0.4129    1.4376   -3.1584 H   0  0  0  0  0  0  0  0  0  0  0  0
    1.3265    1.3619   -2.8911 H   0  0  0  0  0  0  0  0  0  0  0  0
   -0.7987    2.2053    0.0558 H   0  0  0  0  0  0  0  0  0  0  0  0
   -0.8415    4.4620    1.1025 H   0  0  0  0  0  0  0  0  0  0  0  0
    0.2807    6.4013   -0.0304 H   0  0  0  0  0  0  0  0  0  0  0  0
    1.4514    6.0452   -2.2229 H   0  0  0  0  0  0  0  0  0  0  0  0
    1.4893    3.7786   -3.2678 H   0  0  0  0  0  0  0  0  0  0  0  0
    2.8173    0.9902   -1.0947 H   0  0  0  0  0  0  0  0  0  0  0  0
    3.1651   -0.1457    0.2192 H   0  0  0  0  0  0  0  0  0  0  0  0
    0.9060    0.7015    2.1809 H   0  0  0  0  0  0  0  0  0  0  0  0
    0.7809    2.5581    3.8291 H   0  0  0  0  0  0  0  0  0  0  0  0
    2.0700    4.6789    3.4422 H   0  0  0  0  0  0  0  0  0  0  0  0
    3.4917    4.9020    1.3844 H   0  0  0  0  0  0  0  0  0  0  0  0
    3.6287    3.0277   -0.2529 H   0  0  0  0  0  0  0  0  0  0  0  0
    0.6073   -2.9542    1.5638 H   0  0  0  0  0  0  0  0  0  0  0  0
    0.7488   -1.4362    2.4497 H   0  0  0  0  0  0  0  0  0  0  0  0
    2.6527   -3.3906   -0.1849 H   0  0  0  0  0  0  0  0  0  0  0  0
    5.1418   -3.6616   -0.1431 H   0  0  0  0  0  0  0  0  0  0  0  0
    6.4999   -2.5179    1.6322 H   0  0  0  0  0  0  0  0  0  0  0  0
    5.3454   -1.1385    3.3824 H   0  0  0  0  0  0  0  0  0  0  0  0
    2.8605   -0.8851    3.3386 H   0  0  0  0  0  0  0  0  0  0  0  0
  1  6  1  1  0  0  0
  1  5  1  0  0  0  0
  2  1  1  0  0  0  0
  3  2  2  0  0  0  0
  3  4  1  0  0  0  0
  4 27  1  1  0  0  0
  4  5  1  0  0  0  0
  5 34  1  1  0  0  0
  6 41  1  0  0  0  0
  6  7  1  0  0  0  0
  7  8  2  0  0  0  0
  7 12  1  0  0  0  0
  8  9  1  0  0  0  0
  9 44  1  0  0  0  0
  9 10  2  0  0  0  0
 10 45  1  0  0  0  0
 11 46  1  0  0  0  0
 11 10  1  0  0  0  0
 12 11  2  0  0  0  0
 13 14  1  0  0  0  0
 13  2  1  0  0  0  0
 14 19  2  0  0  0  0
 14 15  1  0  0  0  0
 15 16  2  0  0  0  0
 16 17  1  0  0  0  0
 16 51  1  0  0  0  0
 17 52  1  0  0  0  0
 18 53  1  0  0  0  0
 18 17  2  0  0  0  0
 19 18  1  0  0  0  0
 20 21  1  0  0  0  0
 20  3  1  0  0  0  0
 21 22  1  0  0  0  0
 22 57  1  0  0  0  0
 22 23  2  0  0  0  0
 23 58  1  0  0  0  0
 24 59  1  0  0  0  0
 24 23  1  0  0  0  0
 25 24  2  0  0  0  0
 26 25  1  0  0  0  0
 26 21  2  0  0  0  0
 27 63  1  0  0  0  0
 27 28  1  0  0  0  0
 28 29  1  0  0  0  0
 29 64  1  0  0  0  0
 29 30  2  0  0  0  0
 30 65  1  0  0  0  0
 31 30  1  0  0  0  0
 31 66  1  0  0  0  0
 32 31  2  0  0  0  0
 33 28  2  0  0  0  0
 33 32  1  0  0  0  0
 34 69  1  0  0  0  0
 34 35  1  0  0  0  0
 34 70  1  0  0  0  0
 35 40  1  0  0  0  0
 36 37  1  0  0  0  0
 36 35  2  0  0  0  0
 37 38  2  0  0  0  0
 38 73  1  0  0  0  0
 38 39  1  0  0  0  0
 39 74  1  0  0  0  0
 40 39  2  0  0  0  0
 40 75  1  0  0  0  0
 42  6  1  0  0  0  0
 43  8  1  0  0  0  0
 47 12  1  0  0  0  0
 48 13  1  0  0  0  0
 49 13  1  0  0  0  0
 50 15  1  0  0  0  0
 54 19  1  0  0  0  0
 55 20  1  0  0  0  0
 56 20  1  0  0  0  0
 60 25  1  0  0  0  0
 61 26  1  0  0  0  0
 62 27  1  0  0  0  0
 67 32  1  0  0  0  0
 68 33  1  0  0  0  0
 71 36  1  0  0  0  0
 72 37  1  0  0  0  0
M  END
