3,5
 OpenBabel05122313053D

 45 48  0  0  1  0  0  0  0  0999 V2000
   -0.5295    0.5076   -1.3943 O   0  0  0  0  0  0  0  0  0  0  0  0
    0.5064    1.2614   -0.7944 C   0  0  1  0  0  3  0  0  0  0  0  0
    1.8126    0.6966   -0.8190 C   0  0  0  0  0  3  0  0  0  0  0  0
    1.9476   -0.7348   -0.8016 C   0  0  2  0  0  3  0  0  0  0  0  0
    0.7003   -1.4421   -0.6744 C   0  0  0  0  0  3  0  0  0  0  0  0
   -0.5228   -0.7217   -0.7237 C   0  0  2  0  0  3  0  0  0  0  0  0
   -1.8139   -1.3082   -0.4484 C   0  0  0  0  0  0  0  0  0  0  0  0
   -2.9965   -0.6651   -0.6661 C   0  0  0  0  0  0  0  0  0  0  0  0
    0.2305    2.7052   -0.7027 C   0  0  0  0  0  0  0  0  0  0  0  0
   -0.9679    3.2270   -1.2374 C   0  0  0  0  0  0  0  0  0  0  0  0
   -1.2359    4.6016   -1.1729 C   0  0  0  0  0  0  0  0  0  0  0  0
   -0.3173    5.4760   -0.5742 C   0  0  0  0  0  0  0  0  0  0  0  0
    0.8756    4.9636   -0.0338 C   0  0  0  0  0  0  0  0  0  0  0  0
    1.1470    3.5930   -0.0913 C   0  0  0  0  0  0  0  0  0  0  0  0
    3.2521   -1.4289   -0.8913 C   0  0  0  0  0  0  0  0  0  0  0  0
    4.4261   -0.8651   -0.3425 C   0  0  0  0  0  0  0  0  0  0  0  0
    5.6530   -1.5300   -0.4471 C   0  0  0  0  0  0  0  0  0  0  0  0
    5.7336   -2.7732   -1.0983 C   0  0  0  0  0  0  0  0  0  0  0  0
    4.5752   -3.3435   -1.6455 C   0  0  0  0  0  0  0  0  0  0  0  0
    3.3455   -2.6761   -1.5459 C   0  0  0  0  0  0  0  0  0  0  0  0
   -4.3377   -1.1841   -0.4186 C   0  0  0  0  0  0  0  0  0  0  0  0
   -4.5884   -2.4851    0.0874 C   0  0  0  0  0  0  0  0  0  0  0  0
   -5.8950   -2.9297    0.3089 C   0  0  0  0  0  0  0  0  0  0  0  0
   -6.9895   -2.0902    0.0320 C   0  0  0  0  0  0  0  0  0  0  0  0
   -6.7618   -0.7991   -0.4696 C   0  0  0  0  0  0  0  0  0  0  0  0
   -5.4532   -0.3536   -0.6917 C   0  0  0  0  0  0  0  0  0  0  0  0
    2.7031    1.3389   -0.7833 H   0  0  0  0  0  0  0  0  0  0  0  0
    0.6949   -2.5161   -0.4405 H   0  0  0  0  0  0  0  0  0  0  0  0
   -1.7851   -2.3257   -0.0272 H   0  0  0  0  0  0  0  0  0  0  0  0
   -2.9417    0.3618   -1.0616 H   0  0  0  0  0  0  0  0  0  0  0  0
   -1.6810    2.5404   -1.7127 H   0  0  0  0  0  0  0  0  0  0  0  0
   -2.1739    4.9919   -1.5960 H   0  0  0  0  0  0  0  0  0  0  0  0
   -0.5310    6.5541   -0.5198 H   0  0  0  0  0  0  0  0  0  0  0  0
    1.5968    5.6391    0.4506 H   0  0  0  0  0  0  0  0  0  0  0  0
    2.0675    3.2067    0.3704 H   0  0  0  0  0  0  0  0  0  0  0  0
    4.3709    0.0879    0.2047 H   0  0  0  0  0  0  0  0  0  0  0  0
    6.5541   -1.0803   -0.0035 H   0  0  0  0  0  0  0  0  0  0  0  0
    6.6988   -3.2958   -1.1759 H   0  0  0  0  0  0  0  0  0  0  0  0
    4.6278   -4.3137   -2.1625 H   0  0  0  0  0  0  0  0  0  0  0  0
    2.4465   -3.1168   -2.0028 H   0  0  0  0  0  0  0  0  0  0  0  0
   -3.7467   -3.1574    0.3112 H   0  0  0  0  0  0  0  0  0  0  0  0
   -6.0660   -3.9430    0.7033 H   0  0  0  0  0  0  0  0  0  0  0  0
   -8.0165   -2.4440    0.2083 H   0  0  0  0  0  0  0  0  0  0  0  0
   -7.6108   -0.1339   -0.6884 H   0  0  0  0  0  0  0  0  0  0  0  0
   -5.2763    0.6605   -1.0831 H   0  0  0  0  0  0  0  0  0  0  0  0
  1  2  1  0  0  0  0
  1  6  1  0  0  0  0
  2  9  1  6  0  0  0
  3  4  1  0  0  0  0
  3  2  1  0  0  0  0
  3 27  1  0  0  0  0
  4 15  1  1  0  0  0
  4  5  1  0  0  0  0
  5 28  1  0  0  0  0
  6  5  1  0  0  0  0
  6  7  1  6  0  0  0
  7 29  1  0  0  0  0
  8  7  2  0  0  0  0
  8 21  1  0  0  0  0
  9 14  1  0  0  0  0
 10 11  1  0  0  0  0
 10  9  2  0  0  0  0
 11 12  2  0  0  0  0
 12 33  1  0  0  0  0
 12 13  1  0  0  0  0
 13 34  1  0  0  0  0
 14 13  2  0  0  0  0
 14 35  1  0  0  0  0
 15 16  1  0  0  0  0
 16 36  1  0  0  0  0
 17 16  2  0  0  0  0
 17 37  1  0  0  0  0
 18 17  1  0  0  0  0
 19 20  1  0  0  0  0
 19 18  2  0  0  0  0
 20 15  2  0  0  0  0
 21 22  1  0  0  0  0
 22 23  2  0  0  0  0
 22 41  1  0  0  0  0
 23 42  1  0  0  0  0
 24 43  1  0  0  0  0
 24 23  1  0  0  0  0
 25 24  2  0  0  0  0
 26 25  1  0  0  0  0
 26 21  2  0  0  0  0
 30  8  1  0  0  0  0
 31 10  1  0  0  0  0
 32 11  1  0  0  0  0
 38 18  1  0  0  0  0
 39 19  1  0  0  0  0
 40 20  1  0  0  0  0
 44 25  1  0  0  0  0
 45 26  1  0  0  0  0
M  END
