3,8
 OpenBabel05122313053D

 30 31  0  0  1  0  0  0  0  0999 V2000
   -0.0385   -1.8165   -1.0939 P   0  0  1  0  0  0  0  0  0  0  0  0
    0.0389   -1.8163    1.0943 P   0  0  2  0  0  0  0  0  0  0  0  0
   -1.2906   -0.9143    0.0533 C   0  0  2  0  0  3  0  0  0  0  0  0
   -2.7350   -1.4386    0.0734 C   0  0  0  0  0  0  0  0  0  0  0  0
   -3.4293   -1.0164   -1.2375 C   0  0  0  0  0  0  0  0  0  0  0  0
   -2.8188   -2.9739    0.2044 C   0  0  0  0  0  0  0  0  0  0  0  0
   -3.4810   -0.7972    1.2595 C   0  0  0  0  0  0  0  0  0  0  0  0
    1.2908   -0.9141   -0.0532 C   0  0  1  0  0  3  0  0  0  0  0  0
    2.7353   -1.4382   -0.0733 C   0  0  0  0  0  0  0  0  0  0  0  0
    2.8193   -2.9735   -0.2038 C   0  0  0  0  0  0  0  0  0  0  0  0
    3.4809   -0.7971   -1.2598 C   0  0  0  0  0  0  0  0  0  0  0  0
    3.4298   -1.0155    1.2373 C   0  0  0  0  0  0  0  0  0  0  0  0
   -3.4213    0.0842   -1.3533 H   0  0  0  0  0  0  0  0  0  0  0  0
   -2.9212   -1.4599   -2.1184 H   0  0  0  0  0  0  0  0  0  0  0  0
   -4.4853   -1.3570   -1.2467 H   0  0  0  0  0  0  0  0  0  0  0  0
   -2.2957   -3.4803   -0.6330 H   0  0  0  0  0  0  0  0  0  0  0  0
   -2.3561   -3.3245    1.1500 H   0  0  0  0  0  0  0  0  0  0  0  0
   -3.8762   -3.3100    0.1984 H   0  0  0  0  0  0  0  0  0  0  0  0
   -3.0193   -1.0909    2.2246 H   0  0  0  0  0  0  0  0  0  0  0  0
   -3.4606    0.3086    1.1862 H   0  0  0  0  0  0  0  0  0  0  0  0
   -4.5408   -1.1259    1.2780 H   0  0  0  0  0  0  0  0  0  0  0  0
    2.2965   -3.4797    0.6339 H   0  0  0  0  0  0  0  0  0  0  0  0
    2.3563   -3.3246   -1.1491 H   0  0  0  0  0  0  0  0  0  0  0  0
    3.8767   -3.3095   -0.1980 H   0  0  0  0  0  0  0  0  0  0  0  0
    3.0191   -1.0913   -2.2247 H   0  0  0  0  0  0  0  0  0  0  0  0
    3.4602    0.3087   -1.1869 H   0  0  0  0  0  0  0  0  0  0  0  0
    4.5408   -1.1255   -1.2784 H   0  0  0  0  0  0  0  0  0  0  0  0
    3.4221    0.0852    1.3525 H   0  0  0  0  0  0  0  0  0  0  0  0
    2.9216   -1.4583    2.1185 H   0  0  0  0  0  0  0  0  0  0  0  0
    4.4857   -1.3564    1.2466 H   0  0  0  0  0  0  0  0  0  0  0  0
  1  8  1  0  0  0  0
  1  3  1  0  0  0  0
  1  2  1  0  0  0  0
  3  4  1  0  0  0  0
  3  2  1  0  0  0  0
  4  6  1  0  0  0  0
  4  7  1  0  0  0  0
  5  4  1  0  0  0  0
  6 17  1  0  0  0  0
  7 21  1  0  0  0  0
  7 19  1  0  0  0  0
  8  2  1  0  0  0  0
  9  8  1  0  0  0  0
  9 12  1  0  0  0  0
 10 24  1  0  0  0  0
 10  9  1  0  0  0  0
 10 22  1  0  0  0  0
 11 26  1  0  0  0  0
 11  9  1  0  0  0  0
 12 30  1  0  0  0  0
 12 28  1  0  0  0  0
 12 29  1  0  0  0  0
 13  5  1  0  0  0  0
 14  5  1  0  0  0  0
 15  5  1  0  0  0  0
 16  6  1  0  0  0  0
 18  6  1  0  0  0  0
 20  7  1  0  0  0  0
 23 10  1  0  0  0  0
 25 11  1  0  0  0  0
 27 11  1  0  0  0  0
M  END
