6,16
 OpenBabel05122313053D

 40 42  0  0  1  0  0  0  0  0999 V2000
    1.3030    1.4173   -1.1516 P   0  0  0  0  0  0  0  0  0  0  0  0
   -1.2088    2.3264   -0.9527 O   0  0  0  0  0  0  0  0  0  0  0  0
    1.5136   -2.6220   -0.5736 O   0  0  0  0  0  0  0  0  0  0  0  0
    1.9062   -0.2528   -0.8896 C   0  0  0  0  0  0  0  0  0  0  0  0
    1.0374   -1.3506   -0.6964 C   0  0  2  0  0  3  0  0  0  0  0  0
   -0.4132   -1.2768   -0.5788 C   0  0  1  0  0  3  0  0  0  0  0  0
   -1.0890   -2.5132   -0.2542 C   0  0  0  0  0  0  0  0  0  0  0  0
   -2.4417   -2.5661   -0.0979 C   0  0  0  0  0  0  0  0  0  0  0  0
   -3.2584   -1.4028   -0.2870 C   0  0  0  0  0  0  0  0  0  0  0  0
   -4.6667   -1.5146   -0.1605 C   0  0  0  0  0  0  0  0  0  0  0  0
   -5.5003   -0.4270   -0.3928 C   0  0  0  0  0  0  0  0  0  0  0  0
   -4.9247    0.7998   -0.7764 C   0  0  0  0  0  0  0  0  0  0  0  0
   -3.5415    0.9381   -0.8931 C   0  0  0  0  0  0  0  0  0  0  0  0
   -2.6542   -0.1433   -0.6319 C   0  0  0  0  0  0  0  0  0  0  0  0
   -1.1807   -0.0571   -0.7390 C   0  0  1  0  0  3  0  0  0  0  0  0
   -0.4595    1.1863   -0.9318 C   0  0  1  0  0  3  0  0  0  0  0  0
    3.4467   -0.4476   -0.9753 C   0  0  0  0  0  0  0  0  0  0  0  0
    4.0369   -1.1153    0.2936 C   0  0  0  0  0  0  0  0  0  0  0  0
    4.1761    0.9061   -1.1134 C   0  0  0  0  0  0  0  0  0  0  0  0
    3.7652   -1.2758   -2.2457 C   0  0  0  0  0  0  0  0  0  0  0  0
   -0.5714    3.5855   -0.7896 C   0  0  0  0  0  0  0  0  0  0  0  0
    2.4814   -2.5795   -0.4575 H   0  0  0  0  0  0  0  0  0  0  0  0
   -0.4717   -3.4088   -0.1257 H   0  0  0  0  0  0  0  0  0  0  0  0
   -2.9323   -3.5158    0.1644 H   0  0  0  0  0  0  0  0  0  0  0  0
   -5.0868   -2.4932    0.1189 H   0  0  0  0  0  0  0  0  0  0  0  0
   -6.5914   -0.5264   -0.2905 H   0  0  0  0  0  0  0  0  0  0  0  0
   -5.5675    1.6676   -0.9879 H   0  0  0  0  0  0  0  0  0  0  0  0
   -3.1350    1.9032   -1.1983 H   0  0  0  0  0  0  0  0  0  0  0  0
    3.6338   -2.1154    0.5613 H   0  0  0  0  0  0  0  0  0  0  0  0
    5.1297   -1.2487    0.1627 H   0  0  0  0  0  0  0  0  0  0  0  0
    3.8690   -0.4766    1.1805 H   0  0  0  0  0  0  0  0  0  0  0  0
    3.9801    1.5701   -0.2484 H   0  0  0  0  0  0  0  0  0  0  0  0
    5.2691    0.7283   -1.1636 H   0  0  0  0  0  0  0  0  0  0  0  0
    3.8818    1.4421   -2.0374 H   0  0  0  0  0  0  0  0  0  0  0  0
    3.3929   -0.7515   -3.1482 H   0  0  0  0  0  0  0  0  0  0  0  0
    4.8613   -1.4063   -2.3515 H   0  0  0  0  0  0  0  0  0  0  0  0
    3.3025   -2.2826   -2.2418 H   0  0  0  0  0  0  0  0  0  0  0  0
    0.0429    3.8541   -1.6765 H   0  0  0  0  0  0  0  0  0  0  0  0
   -1.3837    4.3257   -0.6664 H   0  0  0  0  0  0  0  0  0  0  0  0
    0.0770    3.5813    0.1145 H   0  0  0  0  0  0  0  0  0  0  0  0
  1 16  1  0  0  0  0
  1  4  2  0  0  0  0
  2 21  1  0  0  0  0
  3 22  1  0  0  0  0
  4  5  1  0  0  0  0
  5  6  1  0  0  0  0
  5  3  1  1  0  0  0
  6  7  1  1  0  0  0
  7 23  1  0  0  0  0
  7  8  2  0  0  0  0
  8 24  1  0  0  0  0
  9 10  1  0  0  0  0
  9  8  1  0  0  0  0
 10 25  1  0  0  0  0
 11 26  1  0  0  0  0
 11 10  2  0  0  0  0
 12 11  1  0  0  0  0
 13 12  2  0  0  0  0
 13 14  1  0  0  0  0
 14  9  2  0  0  0  0
 15 14  1  1  0  0  0
 15  6  1  0  0  0  0
 16  2  1  6  0  0  0
 16 15  1  0  0  0  0
 17  4  1  0  0  0  0
 17 18  1  0  0  0  0
 18 29  1  0  0  0  0
 18 31  1  0  0  0  0
 19 17  1  0  0  0  0
 19 32  1  0  0  0  0
 20 37  1  0  0  0  0
 20 17  1  0  0  0  0
 21 39  1  0  0  0  0
 21 40  1  0  0  0  0
 27 12  1  0  0  0  0
 28 13  1  0  0  0  0
 30 18  1  0  0  0  0
 33 19  1  0  0  0  0
 34 19  1  0  0  0  0
 35 20  1  0  0  0  0
 36 20  1  0  0  0  0
 38 21  1  0  0  0  0
M  END
