3,5
 OpenBabel05122313053D

 28 30  0  0  1  0  0  0  0  0999 V2000
    0.1082   -0.7271   -0.7333 C   0  0  2  0  0  3  0  0  0  0  0  0
    1.2985   -2.4066    0.4148 O   0  0  0  0  0  0  0  0  0  0  0  0
   -0.9107   -1.7353   -0.9118 C   0  0  0  0  0  3  0  0  0  0  0  0
   -2.1150   -1.4814   -1.5946 C   0  0  0  0  0  3  0  0  0  0  0  0
   -2.3625   -0.1656   -2.0874 C   0  0  0  0  0  3  0  0  0  0  0  0
   -1.3836    0.8408   -1.9286 C   0  0  0  0  0  0  0  0  0  0  0  0
   -0.1540    0.5984   -1.2263 C   0  0  0  0  0  0  0  0  0  0  0  0
    0.7790    1.7752   -1.0680 C   0  0  0  0  0  0  0  0  0  0  0  0
    1.6183    1.7964    0.2136 C   0  0  0  0  0  0  0  0  0  0  0  0
    2.8066    0.8761    0.1532 C   0  0  0  0  0  0  0  0  0  0  0  0
    4.1088    1.4051    0.2450 C   0  0  0  0  0  0  0  0  0  0  0  0
    5.2403    0.5801    0.2004 C   0  0  0  0  0  0  0  0  0  0  0  0
    5.0848   -0.8104    0.0794 C   0  0  0  0  0  0  0  0  0  0  0  0
    3.8001   -1.3539    0.0071 C   0  0  0  0  0  0  0  0  0  0  0  0
    2.6526   -0.5265    0.0224 C   0  0  0  0  0  0  0  0  0  0  0  0
    1.3423   -1.2564   -0.0274 C   0  0  0  0  0  0  0  0  0  0  0  0
   -0.6996   -2.7177   -0.4687 H   0  0  0  0  0  0  0  0  0  0  0  0
   -2.8794   -2.2651   -1.6813 H   0  0  0  0  0  0  0  0  0  0  0  0
   -3.3218    0.0766   -2.5657 H   0  0  0  0  0  0  0  0  0  0  0  0
   -1.5992    1.8628   -2.2708 H   0  0  0  0  0  0  0  0  0  0  0  0
    0.1630    2.6955   -1.1147 H   0  0  0  0  0  0  0  0  0  0  0  0
    1.4537    1.8091   -1.9527 H   0  0  0  0  0  0  0  0  0  0  0  0
    1.9715    2.8307    0.3919 H   0  0  0  0  0  0  0  0  0  0  0  0
    0.9693    1.5348    1.0755 H   0  0  0  0  0  0  0  0  0  0  0  0
    4.2301    2.4936    0.3619 H   0  0  0  0  0  0  0  0  0  0  0  0
    6.2454    1.0237    0.2666 H   0  0  0  0  0  0  0  0  0  0  0  0
    5.9653   -1.4693    0.0487 H   0  0  0  0  0  0  0  0  0  0  0  0
    3.6458   -2.4403   -0.0595 H   0  0  0  0  0  0  0  0  0  0  0  0
  1  7  1  6  0  0  0
  1 16  1  0  0  0  0
  3  1  1  0  0  0  0
  3 17  1  0  0  0  0
  4  3  1  0  0  0  0
  5  6  1  0  0  0  0
  5  4  1  0  0  0  0
  6  7  2  0  0  0  0
  7  8  1  0  0  0  0
  8  9  1  0  0  0  0
  9 23  1  0  0  0  0
  9 24  1  0  0  0  0
 10  9  1  0  0  0  0
 10 11  1  0  0  0  0
 11 25  1  0  0  0  0
 12 11  2  0  0  0  0
 12 26  1  0  0  0  0
 13 12  1  0  0  0  0
 14 15  1  0  0  0  0
 14 13  2  0  0  0  0
 15 10  2  0  0  0  0
 16 15  1  0  0  0  0
 16  2  2  0  0  0  0
 18  4  1  0  0  0  0
 19  5  1  0  0  0  0
 20  6  1  0  0  0  0
 21  8  1  0  0  0  0
 22  8  1  0  0  0  0
 27 13  1  0  0  0  0
 28 14  1  0  0  0  0
M  END
