9,14
 OpenBabel05122313053D

 38 39  0  0  1  0  0  0  0  0999 V2000
   -2.3983    0.6765    1.7766 C   0  0  0  0  0  0  0  0  0  0  0  0
   -2.6535   -0.2667    0.6292 C   0  0  0  0  0  0  0  0  0  0  0  0
   -3.7995   -1.0856    0.6594 C   0  0  0  0  0  0  0  0  0  0  0  0
   -4.0987   -1.9906   -0.3678 C   0  0  0  0  0  0  0  0  0  0  0  0
   -3.2376   -2.0897   -1.4693 C   0  0  0  0  0  0  0  0  0  0  0  0
   -2.0921   -1.2871   -1.5211 C   0  0  0  0  0  0  0  0  0  0  0  0
   -1.7723   -0.3788   -0.4873 C   0  0  0  0  0  0  0  0  0  0  0  0
   -0.5288    0.4468   -0.5773 C   0  0  1  0  0  3  0  0  0  0  0  0
    0.5668    0.0638   -1.4211 C   0  0  0  0  0  3  0  0  0  0  0  0
    1.7795    0.8031   -1.3248 C   0  0  0  0  0  3  0  0  0  0  0  0
    3.1342    0.1219   -1.4413 C   0  0  2  0  0  0  0  0  0  0  0  0
    2.9479   -1.3830   -1.7120 C   0  0  0  0  0  0  0  0  0  0  0  0
    2.4202   -1.8625   -0.3675 C   0  0  0  0  0  3  0  0  0  0  0  0
    3.1073   -1.1155    0.6533 C   0  0  0  0  0  3  0  0  0  0  0  0
    3.3994    0.1466    0.0751 C   0  0  0  0  0  3  0  0  0  0  0  0
   -0.6927    1.8071   -0.2991 O   0  0  0  0  0  0  0  0  0  0  0  0
   -1.5988    2.4795   -1.1842 C   0  0  0  0  0  0  0  0  0  0  0  0
   -1.5876    3.9532   -0.8277 C   0  0  0  0  0  0  0  0  0  0  0  0
   -1.3558    0.6079    2.1416 H   0  0  0  0  0  0  0  0  0  0  0  0
   -3.0794    0.4552    2.6205 H   0  0  0  0  0  0  0  0  0  0  0  0
   -2.5444    1.7350    1.4818 H   0  0  0  0  0  0  0  0  0  0  0  0
   -4.4723   -1.0099    1.5284 H   0  0  0  0  0  0  0  0  0  0  0  0
   -5.0033   -2.6145   -0.3071 H   0  0  0  0  0  0  0  0  0  0  0  0
   -3.4596   -2.7843   -2.2936 H   0  0  0  0  0  0  0  0  0  0  0  0
   -1.4350   -1.3513   -2.4007 H   0  0  0  0  0  0  0  0  0  0  0  0
    0.5235   -0.8959   -1.9505 H   0  0  0  0  0  0  0  0  0  0  0  0
    1.7570    1.8891   -1.1517 H   0  0  0  0  0  0  0  0  0  0  0  0
    3.8844    0.6296   -2.0795 H   0  0  0  0  0  0  0  0  0  0  0  0
    3.9263   -1.8621   -1.9384 H   0  0  0  0  0  0  0  0  0  0  0  0
    2.2834   -1.5840   -2.5764 H   0  0  0  0  0  0  0  0  0  0  0  0
    2.0820   -2.8984   -0.2184 H   0  0  0  0  0  0  0  0  0  0  0  0
    3.3618   -1.4310    1.6733 H   0  0  0  0  0  0  0  0  0  0  0  0
    3.8946    0.9861    0.5824 H   0  0  0  0  0  0  0  0  0  0  0  0
   -1.2760    2.3165   -2.2400 H   0  0  0  0  0  0  0  0  0  0  0  0
   -2.6230    2.0502   -1.0851 H   0  0  0  0  0  0  0  0  0  0  0  0
   -2.2807    4.5154   -1.4845 H   0  0  0  0  0  0  0  0  0  0  0  0
   -0.5711    4.3794   -0.9420 H   0  0  0  0  0  0  0  0  0  0  0  0
   -1.9039    4.1037    0.2238 H   0  0  0  0  0  0  0  0  0  0  0  0
  1 19  1  0  0  0  0
  1 20  1  0  0  0  0
  2  3  1  0  0  0  0
  2  1  1  0  0  0  0
  3 22  1  0  0  0  0
  4 23  1  0  0  0  0
  4  3  2  0  0  0  0
  5  4  1  0  0  0  0
  6  5  2  0  0  0  0
  6  7  1  0  0  0  0
  7  2  2  0  0  0  0
  8  9  1  6  0  0  0
  8  7  1  0  0  0  0
  8 16  1  0  0  0  0
  9 10  1  0  0  0  0
 10 27  1  0  0  0  0
 11 28  1  6  0  0  0
 11 10  1  0  0  0  0
 11 15  1  0  0  0  0
 12 11  1  0  0  0  0
 12 13  1  0  0  0  0
 13 31  1  0  0  0  0
 13 14  1  0  0  0  0
 14 32  1  0  0  0  0
 15 33  1  0  0  0  0
 15 14  1  0  0  0  0
 17 35  1  0  0  0  0
 17 18  1  0  0  0  0
 17 16  1  0  0  0  0
 18 38  1  0  0  0  0
 21  1  1  0  0  0  0
 24  5  1  0  0  0  0
 25  6  1  0  0  0  0
 26  9  1  0  0  0  0
 29 12  1  0  0  0  0
 30 12  1  0  0  0  0
 34 17  1  0  0  0  0
 36 18  1  0  0  0  0
 37 18  1  0  0  0  0
M  END
