9,12
 OpenBabel05122313053D

 21 22  0  0  1  0  0  0  0  0999 V2000
    2.8294    1.6353   -1.6192 O   0  0  0  0  0  0  0  0  0  0  0  0
    2.5340   -1.0910    2.0786 O   0  0  0  0  0  0  0  0  0  0  0  0
    2.5101    0.5479    0.4183 N   0  0  0  0  0  0  0  0  0  0  0  0
    1.7554    1.5583    1.1336 C   0  0  0  0  0  0  0  0  0  0  0  0
    2.2518    2.5375    0.9700 H   0  0  0  0  0  0  0  0  0  0  0  0
    1.8323    1.2975    2.2069 H   0  0  0  0  0  0  0  0  0  0  0  0
   -1.6469    2.1541   -0.4446 C   0  0  0  0  0  0  0  0  0  0  0  0
   -2.3291    2.4435   -1.2525 H   0  0  0  0  0  0  0  0  0  0  0  0
   -0.8292    1.5231    1.6328 C   0  0  0  0  0  3  0  0  0  0  0  0
   -0.7697    1.2379    2.6908 H   0  0  0  0  0  0  0  0  0  0  0  0
    0.2993    1.6652    0.7462 C   0  0  1  0  0  3  0  0  0  0  0  0
   -0.2246    2.0532   -0.5429 C   0  0  0  0  0  3  0  0  0  0  0  0
    0.3921    2.2497   -1.4288 H   0  0  0  0  0  0  0  0  0  0  0  0
   -2.0254    1.8274    0.9099 C   0  0  0  0  0  0  0  0  0  0  0  0
   -3.0440    1.8254    1.3147 H   0  0  0  0  0  0  0  0  0  0  0  0
    2.8227   -0.7161    0.9564 C   0  0  0  0  0  0  0  0  0  0  0  0
    3.6637   -0.6427   -1.2035 C   0  0  0  0  0  0  0  0  0  0  0  0
    4.1253   -0.8367   -2.1792 H   0  0  0  0  0  0  0  0  0  0  0  0
    3.5691   -1.4466   -0.1248 C   0  0  0  0  0  0  0  0  0  0  0  0
    3.9372   -2.4703    0.0161 H   0  0  0  0  0  0  0  0  0  0  0  0
    2.9775    0.6615   -0.8973 C   0  0  0  0  0  0  0  0  0  0  0  0
  1 21  2  0  0  0  0
  3 16  1  0  0  0  0
  3  4  1  0  0  0  0
  4  6  1  0  0  0  0
  5  4  1  0  0  0  0
  7 14  2  0  0  0  0
  8  7  1  0  0  0  0
  9 10  1  0  0  0  0
 11  4  1  1  0  0  0
 11  9  1  0  0  0  0
 12  7  1  0  0  0  0
 12 11  1  0  0  0  0
 13 12  1  0  0  0  0
 14 15  1  0  0  0  0
 14  9  1  0  0  0  0
 16  2  2  0  0  0  0
 17 21  1  0  0  0  0
 17 19  2  0  0  0  0
 18 17  1  0  0  0  0
 19 20  1  0  0  0  0
 19 16  1  0  0  0  0
 21  3  1  0  0  0  0
M  END
