17,20
 OpenBabel05122313053D

 58 61  0  0  1  0  0  0  0  0999 V2000
   -2.5750    0.4262    0.4782 N   0  0  0  0  0  0  0  0  0  0  0  0
   -1.6047   -1.6806    0.7433 O   0  0  0  0  0  0  0  0  0  0  0  0
    0.8011   -2.8662    0.4161 O   0  0  0  0  0  0  0  0  0  0  0  0
   -1.2965   -0.2598    0.6810 C   0  0  1  0  0  0  0  0  0  0  0  0
   -3.5277   -0.6123    0.0485 C   0  0  1  0  0  0  0  0  0  0  0  0
   -4.4543   -0.3946   -1.1505 C   0  0  0  0  0  0  0  0  0  0  0  0
   -5.2861   -1.6837   -1.3229 C   0  0  0  0  0  0  0  0  0  0  0  0
   -4.4320   -2.9634   -1.4276 C   0  0  0  0  0  0  0  0  0  0  0  0
   -2.6208   -1.8050   -0.2554 C   0  0  2  0  0  0  0  0  0  0  0  0
   -3.3931   -3.1056   -0.2931 C   0  0  0  0  0  0  0  0  0  0  0  0
   -3.0172    1.3203    1.5957 C   0  0  0  0  0  0  0  0  0  0  0  0
   -1.9977    2.4602    1.7478 C   0  0  0  0  0  0  0  0  0  0  0  0
   -4.3725    1.9398    1.2170 C   0  0  0  0  0  0  0  0  0  0  0  0
   -3.1564    0.5627    2.9350 C   0  0  0  0  0  0  0  0  0  0  0  0
   -0.2915   -0.0170   -0.4580 C   0  0  0  0  0  0  0  0  0  0  0  0
    1.0179   -0.6400   -0.4557 C   0  0  0  0  0  0  0  0  0  0  0  0
    1.8857   -0.3955   -1.5537 C   0  0  0  0  0  3  0  0  0  0  0  0
    1.5082    0.4658   -2.6279 C   0  0  0  0  0  0  0  0  0  0  0  0
    0.2392    1.0847   -2.6195 C   0  0  0  0  0  0  0  0  0  0  0  0
   -0.6517    0.8372   -1.5317 C   0  0  0  0  0  3  0  0  0  0  0  0
    1.4356   -1.6244    0.6538 C   0  0  2  0  0  0  0  0  0  0  0  0
    2.9382   -1.8310    0.7127 C   0  0  0  0  0  0  0  0  0  0  0  0
    3.7711   -0.8872    1.3435 C   0  0  0  0  0  0  0  0  0  0  0  0
    5.1633   -1.0571    1.3416 C   0  0  0  0  0  0  0  0  0  0  0  0
    5.7377   -2.1763    0.7173 C   0  0  0  0  0  0  0  0  0  0  0  0
    4.9101   -3.1294    0.1033 C   0  0  0  0  0  0  0  0  0  0  0  0
    3.5169   -2.9583    0.1004 C   0  0  0  0  0  0  0  0  0  0  0  0
   -0.1620   -2.6810    0.5348 H   0  0  0  0  0  0  0  0  0  0  0  0
   -0.8313    0.0030    1.6502 H   0  0  0  0  0  0  0  0  0  0  0  0
   -4.1693   -0.9096    0.9142 H   0  0  0  0  0  0  0  0  0  0  0  0
   -3.8472   -0.1899   -2.0591 H   0  0  0  0  0  0  0  0  0  0  0  0
   -5.1223    0.4760   -1.0066 H   0  0  0  0  0  0  0  0  0  0  0  0
   -5.9700   -1.7770   -0.4498 H   0  0  0  0  0  0  0  0  0  0  0  0
   -5.9397   -1.5998   -2.2152 H   0  0  0  0  0  0  0  0  0  0  0  0
   -3.8901   -2.9561   -2.3990 H   0  0  0  0  0  0  0  0  0  0  0  0
   -5.0907   -3.8554   -1.4505 H   0  0  0  0  0  0  0  0  0  0  0  0
   -2.1510   -1.6510   -1.2586 H   0  0  0  0  0  0  0  0  0  0  0  0
   -3.8883   -3.2788    0.6862 H   0  0  0  0  0  0  0  0  0  0  0  0
   -2.7205   -3.9665   -0.4858 H   0  0  0  0  0  0  0  0  0  0  0  0
   -1.8730    3.0121    0.7964 H   0  0  0  0  0  0  0  0  0  0  0  0
   -1.0031    2.0987    2.0686 H   0  0  0  0  0  0  0  0  0  0  0  0
   -2.3462    3.1741    2.5203 H   0  0  0  0  0  0  0  0  0  0  0  0
   -5.1836    1.1866    1.1764 H   0  0  0  0  0  0  0  0  0  0  0  0
   -4.3095    2.4459    0.2333 H   0  0  0  0  0  0  0  0  0  0  0  0
   -4.6610    2.6931    1.9759 H   0  0  0  0  0  0  0  0  0  0  0  0
   -3.8864   -0.2685    2.8641 H   0  0  0  0  0  0  0  0  0  0  0  0
   -3.5090    1.2479    3.7312 H   0  0  0  0  0  0  0  0  0  0  0  0
   -2.1888    0.1384    3.2701 H   0  0  0  0  0  0  0  0  0  0  0  0
    2.8924   -0.8340   -1.5356 H   0  0  0  0  0  0  0  0  0  0  0  0
    2.2268    0.6843   -3.4300 H   0  0  0  0  0  0  0  0  0  0  0  0
   -0.0433    1.7903   -3.4128 H   0  0  0  0  0  0  0  0  0  0  0  0
   -1.6288    1.3348   -1.4619 H   0  0  0  0  0  0  0  0  0  0  0  0
    1.1190   -1.1867    1.6317 H   0  0  0  0  0  0  0  0  0  0  0  0
    3.3281   -0.0164    1.8477 H   0  0  0  0  0  0  0  0  0  0  0  0
    5.8033   -0.3108    1.8363 H   0  0  0  0  0  0  0  0  0  0  0  0
    6.8304   -2.3092    0.7175 H   0  0  0  0  0  0  0  0  0  0  0  0
    5.3524   -4.0161   -0.3765 H   0  0  0  0  0  0  0  0  0  0  0  0
    2.8536   -3.6989   -0.3676 H   0  0  0  0  0  0  0  0  0  0  0  0
  1  4  1  0  0  0  0
  1 11  1  0  0  0  0
  3 28  1  0  0  0  0
  3 21  1  0  0  0  0
  4  2  1  0  0  0  0
  4 29  1  1  0  0  0
  5  1  1  0  0  0  0
  5 30  1  1  0  0  0
  6 32  1  0  0  0  0
  6  5  1  0  0  0  0
  7  6  1  0  0  0  0
  7 33  1  0  0  0  0
  8  7  1  0  0  0  0
  8 10  1  0  0  0  0
  9 37  1  6  0  0  0
  9  5  1  0  0  0  0
  9  2  1  0  0  0  0
 10  9  1  0  0  0  0
 10 38  1  0  0  0  0
 11 12  1  0  0  0  0
 11 14  1  0  0  0  0
 12 41  1  0  0  0  0
 12 42  1  0  0  0  0
 13 11  1  0  0  0  0
 13 45  1  0  0  0  0
 14 48  1  0  0  0  0
 14 47  1  0  0  0  0
 15 16  2  0  0  0  0
 15  4  1  0  0  0  0
 16 21  1  0  0  0  0
 17 49  1  0  0  0  0
 17 16  1  0  0  0  0
 18 19  2  0  0  0  0
 18 17  1  0  0  0  0
 19 20  1  0  0  0  0
 20 52  1  0  0  0  0
 20 15  1  0  0  0  0
 21 22  1  0  0  0  0
 21 53  1  1  0  0  0
 22 23  1  0  0  0  0
 23 54  1  0  0  0  0
 24 23  2  0  0  0  0
 24 55  1  0  0  0  0
 25 56  1  0  0  0  0
 25 24  1  0  0  0  0
 26 25  2  0  0  0  0
 27 26  1  0  0  0  0
 27 22  2  0  0  0  0
 31  6  1  0  0  0  0
 34  7  1  0  0  0  0
 35  8  1  0  0  0  0
 36  8  1  0  0  0  0
 39 10  1  0  0  0  0
 40 12  1  0  0  0  0
 43 13  1  0  0  0  0
 44 13  1  0  0  0  0
 46 14  1  0  0  0  0
 50 18  1  0  0  0  0
 51 19  1  0  0  0  0
 57 26  1  0  0  0  0
 58 27  1  0  0  0  0
M  END
