4,10
 OpenBabel05122313053D

 44 46  0  0  0  0  0  0  0  0999 V2000
   -2.8475    0.0019   -0.0745 P   0  0  0  0  0  4  0  0  0  0  0  0
   -2.1120    0.2344   -2.8528 O   0  0  0  0  0  0  0  0  0  0  0  0
   -1.8977    0.2203   -3.8068 H   0  0  0  0  0  0  0  0  0  0  0  0
    1.5289   -0.0387   -2.0710 C   0  0  0  0  0  2  0  0  0  0  0  0
    2.3551   -0.1322   -2.8165 H   0  0  0  0  0  0  0  0  0  0  0  0
    0.2815    0.0511   -2.7498 C   0  0  0  0  0  0  0  0  0  0  0  0
    0.2695    0.0709   -3.8577 H   0  0  0  0  0  0  0  0  0  0  0  0
   -0.9657    0.1161   -2.1311 C   0  0  0  0  0  0  0  0  0  0  0  0
   -1.1554    0.0543   -0.7003 C   0  0  0  0  0  0  0  0  0  0  0  0
   -0.0804   -0.0147    0.1900 C   0  0  0  0  0  3  0  0  0  0  0  0
   -0.3740   -0.0918    1.2583 H   0  0  0  0  0  0  0  0  0  0  0  0
   -2.7967   -0.4362    1.6902 C   0  0  0  0  0  0  0  0  0  0  0  0
   -3.0381   -1.7590    2.1105 C   0  0  0  0  0  0  0  0  0  0  0  0
   -3.3383   -2.5272    1.3829 H   0  0  0  0  0  0  0  0  0  0  0  0
   -2.9001   -2.0920    3.4666 C   0  0  0  0  0  0  0  0  0  0  0  0
   -3.0931   -3.1238    3.7953 H   0  0  0  0  0  0  0  0  0  0  0  0
   -2.5209   -1.1139    4.3986 C   0  0  0  0  0  0  0  0  0  0  0  0
   -2.4088   -1.3806    5.4600 H   0  0  0  0  0  0  0  0  0  0  0  0
   -2.2912    0.2078    3.9810 C   0  0  0  0  0  0  0  0  0  0  0  0
   -1.9967    0.9756    4.7113 H   0  0  0  0  0  0  0  0  0  0  0  0
   -2.4325    0.5523    2.6310 C   0  0  0  0  0  0  0  0  0  0  0  0
   -2.2536    1.5883    2.3074 H   0  0  0  0  0  0  0  0  0  0  0  0
   -3.8147   -1.2792   -0.9325 C   0  0  0  0  0  0  0  0  0  0  0  0
   -3.1527   -2.4675   -1.3078 C   0  0  0  0  0  0  0  0  0  0  0  0
   -2.0706   -2.5737   -1.1308 H   0  0  0  0  0  0  0  0  0  0  0  0
   -3.8746   -3.5014   -1.9193 C   0  0  0  0  0  0  0  0  0  0  0  0
   -3.3598   -4.4286   -2.2123 H   0  0  0  0  0  0  0  0  0  0  0  0
   -5.2495   -3.3498   -2.1653 C   0  0  0  0  0  0  0  0  0  0  0  0
   -5.8133   -4.1611   -2.6492 H   0  0  0  0  0  0  0  0  0  0  0  0
   -5.9032   -2.1615   -1.8028 C   0  0  0  0  0  0  0  0  0  0  0  0
   -6.9775   -2.0386   -2.0050 H   0  0  0  0  0  0  0  0  0  0  0  0
   -5.1904   -1.1227   -1.1855 C   0  0  0  0  0  0  0  0  0  0  0  0
   -5.7043   -0.1889   -0.9147 H   0  0  0  0  0  0  0  0  0  0  0  0
   -3.6978    1.6073   -0.1745 C   0  0  0  0  0  0  0  0  0  0  0  0
   -3.2131    2.6217   -1.0244 C   0  0  0  0  0  0  0  0  0  0  0  0
   -2.3237    2.4429   -1.6442 H   0  0  0  0  0  0  0  0  0  0  0  0
   -3.8738    3.8576   -1.0772 C   0  0  0  0  0  0  0  0  0  0  0  0
   -3.4942    4.6504   -1.7387 H   0  0  0  0  0  0  0  0  0  0  0  0
   -5.0133    4.0840   -0.2890 C   0  0  0  0  0  0  0  0  0  0  0  0
   -5.5278    5.0556   -0.3333 H   0  0  0  0  0  0  0  0  0  0  0  0
   -5.4934    3.0759    0.5631 C   0  0  0  0  0  0  0  0  0  0  0  0
   -6.3801    3.2562    1.1887 H   0  0  0  0  0  0  0  0  0  0  0  0
   -4.8370    1.8389    0.6280 C   0  0  0  0  0  0  0  0  0  0  0  0
   -5.1999    1.0603    1.3163 H   0  0  0  0  0  0  0  0  0  0  0  0
  1 12  1  0  0  0  0
  2  8  1  0  0  0  0
  3  2  1  0  0  0  0
  5  4  1  0  0  0  0
  6  8  2  0  0  0  0
  6  4  1  0  0  0  0
  7  6  1  0  0  0  0
  8  9  1  0  0  0  0
  9  1  1  0  0  0  0
  9 10  2  0  0  0  0
 10 11  1  0  0  0  0
 12 13  2  0  0  0  0
 12 21  1  0  0  0  0
 13 15  1  0  0  0  0
 14 13  1  0  0  0  0
 15 16  1  0  0  0  0
 15 17  2  0  0  0  0
 17 18  1  0  0  0  0
 19 17  1  0  0  0  0
 19 20  1  0  0  0  0
 21 19  2  0  0  0  0
 22 21  1  0  0  0  0
 23  1  1  0  0  0  0
 24 25  1  0  0  0  0
 24 23  2  0  0  0  0
 26 24  1  0  0  0  0
 27 26  1  0  0  0  0
 28 26  2  0  0  0  0
 28 30  1  0  0  0  0
 29 28  1  0  0  0  0
 30 32  2  0  0  0  0
 31 30  1  0  0  0  0
 32 23  1  0  0  0  0
 32 33  1  0  0  0  0
 34  1  1  0  0  0  0
 34 43  1  0  0  0  0
 35 34  2  0  0  0  0
 36 35  1  0  0  0  0
 37 35  1  0  0  0  0
 37 39  2  0  0  0  0
 38 37  1  0  0  0  0
 39 41  1  0  0  0  0
 40 39  1  0  0  0  0
 41 43  2  0  0  0  0
 41 42  1  0  0  0  0
 43 44  1  0  0  0  0
M  END
