14,20
 OpenBabel05122313053D

 36 38  0  0  1  0  0  0  0  0999 V2000
   -0.8898   -0.6544    1.8777 O   0  0  0  0  0  0  0  0  0  0  0  0
   -1.7670   -0.7879    2.3048 H   0  0  0  0  0  0  0  0  0  0  0  0
   -1.7359    1.9537    1.1768 O   0  0  0  0  0  0  0  0  0  0  0  0
   -3.2710   -1.2807    1.2868 O   0  0  0  0  0  0  0  0  0  0  0  0
   -0.2911    2.5984   -1.3539 O   0  0  0  0  0  0  0  0  0  0  0  0
   -2.8417    0.9380   -0.6918 C   0  0  0  0  0  0  0  0  0  0  0  0
   -3.0911   -0.4839   -0.9936 C   0  0  0  0  0  0  0  0  0  0  0  0
   -2.4509   -1.2851    0.1178 C   0  0  1  0  0  0  0  0  0  0  0  0
   -2.2038   -2.3334   -0.1741 H   0  0  0  0  0  0  0  0  0  0  0  0
   -1.1936   -0.4525    0.5311 C   0  0  2  0  0  0  0  0  0  0  0  0
   -0.0148   -0.8014   -0.3572 C   0  0  0  0  0  0  0  0  0  0  0  0
    0.7358   -2.0123   -0.3661 C   0  0  0  0  0  0  0  0  0  0  0  0
    0.5206   -2.8065    0.3616 H   0  0  0  0  0  0  0  0  0  0  0  0
    1.8133   -2.1329   -1.2822 C   0  0  0  0  0  3  0  0  0  0  0  0
    2.4364   -3.0380   -1.2707 H   0  0  0  0  0  0  0  0  0  0  0  0
    2.1446   -1.0657   -2.1846 C   0  0  0  0  0  0  0  0  0  0  0  0
    3.0137   -1.1713   -2.8485 H   0  0  0  0  0  0  0  0  0  0  0  0
    1.4227    0.1500   -2.1502 C   0  0  0  0  0  0  0  0  0  0  0  0
    1.6974    1.0091   -2.7777 H   0  0  0  0  0  0  0  0  0  0  0  0
    0.3291    0.2623   -1.2356 C   0  0  2  0  0  3  0  0  0  0  0  0
   -0.4558    1.4779   -0.9052 C   0  0  0  0  0  0  0  0  0  0  0  0
   -1.5563    1.0552    0.1231 C   0  0  2  0  0  0  0  0  0  0  0  0
   -3.5957    2.0066   -1.0206 C   0  0  0  0  0  0  0  0  0  0  0  0
   -4.5474    1.8910   -1.5618 H   0  0  0  0  0  0  0  0  0  0  0  0
   -3.2753    3.0167   -0.7269 H   0  0  0  0  0  0  0  0  0  0  0  0
   -3.7459   -1.0064   -2.0524 C   0  0  0  0  0  0  0  0  0  0  0  0
   -4.1690   -0.3621   -2.8388 H   0  0  0  0  0  0  0  0  0  0  0  0
   -3.8595   -2.0955   -2.1698 H   0  0  0  0  0  0  0  0  0  0  0  0
   -4.4370   -2.0749    1.2015 C   0  0  0  0  0  0  0  0  0  0  0  0
   -4.9579   -1.9934    2.1741 H   0  0  0  0  0  0  0  0  0  0  0  0
   -4.1890   -3.1460    1.0093 H   0  0  0  0  0  0  0  0  0  0  0  0
   -5.1191   -1.7229    0.3951 H   0  0  0  0  0  0  0  0  0  0  0  0
   -0.5539    2.4137    1.8317 C   0  0  0  0  0  0  0  0  0  0  0  0
   -0.8975    3.1080    2.6220 H   0  0  0  0  0  0  0  0  0  0  0  0
    0.1123    2.9716    1.1389 H   0  0  0  0  0  0  0  0  0  0  0  0
    0.0061    1.5817    2.3033 H   0  0  0  0  0  0  0  0  0  0  0  0
  1  2  1  0  0  0  0
  3 33  1  0  0  0  0
  5 21  2  0  0  0  0
  6 22  1  0  0  0  0
  7  6  1  0  0  0  0
  7  8  1  0  0  0  0
  8  9  1  6  0  0  0
  8 10  1  0  0  0  0
  8  4  1  0  0  0  0
 10  1  1  1  0  0  0
 11 10  1  0  0  0  0
 12 11  2  0  0  0  0
 12 13  1  0  0  0  0
 14 15  1  0  0  0  0
 14 12  1  0  0  0  0
 16 18  2  0  0  0  0
 16 14  1  0  0  0  0
 17 16  1  0  0  0  0
 19 18  1  0  0  0  0
 20 18  1  1  0  0  0
 20 21  1  0  0  0  0
 20 11  1  0  0  0  0
 21 22  1  0  0  0  0
 22 10  1  0  0  0  0
 22  3  1  1  0  0  0
 23 25  1  0  0  0  0
 23  6  2  0  0  0  0
 24 23  1  0  0  0  0
 26  7  2  0  0  0  0
 27 26  1  0  0  0  0
 28 26  1  0  0  0  0
 29  4  1  0  0  0  0
 29 30  1  0  0  0  0
 31 29  1  0  0  0  0
 32 29  1  0  0  0  0
 33 36  1  0  0  0  0
 33 34  1  0  0  0  0
 35 33  1  0  0  0  0
M  END
