5,10
 OpenBabel05122313053D

 32 34  0  0  1  0  0  0  0  0999 V2000
    1.0442    2.6119   -1.4688 O   0  0  0  0  0  0  0  0  0  0  0  0
    2.4064   -0.8402    2.1219 H   0  0  0  0  0  0  0  0  0  0  0  0
    1.5776   -1.0052    1.6354 O   0  0  0  0  0  0  0  0  0  0  0  0
    1.0269    1.5224   -0.9197 C   0  0  0  0  0  0  0  0  0  0  0  0
    0.1142    0.3921   -1.2373 C   0  0  2  0  0  3  0  0  0  0  0  0
   -1.0340    0.3873   -2.0885 C   0  0  0  0  0  0  0  0  0  0  0  0
   -1.2943    1.2911   -2.6569 H   0  0  0  0  0  0  0  0  0  0  0  0
   -1.8274   -0.7831   -2.1415 C   0  0  0  0  0  0  0  0  0  0  0  0
   -2.7387   -0.8044   -2.7547 H   0  0  0  0  0  0  0  0  0  0  0  0
   -1.5081   -1.9107   -1.3121 C   0  0  0  0  0  3  0  0  0  0  0  0
   -2.1798   -2.7805   -1.3091 H   0  0  0  0  0  0  0  0  0  0  0  0
   -0.3694   -1.9041   -0.4623 C   0  0  0  0  0  0  0  0  0  0  0  0
   -0.1557   -2.7472    0.2075 H   0  0  0  0  0  0  0  0  0  0  0  0
    0.4446   -0.7366   -0.4386 C   0  0  0  0  0  0  0  0  0  0  0  0
    1.7239   -0.4891    0.3281 C   0  0  1  0  0  0  0  0  0  0  0  0
    1.9663    1.0704    0.2242 C   0  0  1  0  0  0  0  0  0  0  0  0
    3.4673    1.2523   -0.1568 C   0  0  0  0  0  0  0  0  0  0  0  0
    3.5563    1.6065   -1.2041 H   0  0  0  0  0  0  0  0  0  0  0  0
    3.9574    2.0173    0.4761 H   0  0  0  0  0  0  0  0  0  0  0  0
    4.0909   -0.1428   -0.0039 C   0  0  0  0  0  0  0  0  0  0  0  0
    4.3671   -0.3371    1.0587 H   0  0  0  0  0  0  0  0  0  0  0  0
    5.0161   -0.2834   -0.5982 H   0  0  0  0  0  0  0  0  0  0  0  0
    2.9616   -1.0954   -0.4207 C   0  0  1  0  0  0  0  0  0  0  0  0
    2.7826   -0.9363   -1.5081 H   0  0  0  0  0  0  0  0  0  0  0  0
    3.1988   -2.5789   -0.1693 C   0  0  0  0  0  0  0  0  0  0  0  0
    2.3557   -3.1949   -0.5418 H   0  0  0  0  0  0  0  0  0  0  0  0
    3.3097   -2.7894    0.9130 H   0  0  0  0  0  0  0  0  0  0  0  0
    4.1185   -2.9229   -0.6831 H   0  0  0  0  0  0  0  0  0  0  0  0
    1.5932    1.8364    1.4995 C   0  0  0  0  0  0  0  0  0  0  0  0
    2.2713    1.5719    2.3365 H   0  0  0  0  0  0  0  0  0  0  0  0
    0.5560    1.6245    1.8174 H   0  0  0  0  0  0  0  0  0  0  0  0
    1.6880    2.9235    1.3074 H   0  0  0  0  0  0  0  0  0  0  0  0
  1  4  2  0  0  0  0
  3  2  1  0  0  0  0
  4 16  1  0  0  0  0
  5  6  1  1  0  0  0
  5  4  1  0  0  0  0
  5 14  1  0  0  0  0
  7  6  1  0  0  0  0
  8  6  2  0  0  0  0
  8 10  1  0  0  0  0
  9  8  1  0  0  0  0
 10 11  1  0  0  0  0
 10 12  1  0  0  0  0
 12 14  2  0  0  0  0
 12 13  1  0  0  0  0
 14 15  1  0  0  0  0
 15  3  1  1  0  0  0
 16 15  1  0  0  0  0
 16 29  1  1  0  0  0
 17 20  1  0  0  0  0
 17 16  1  0  0  0  0
 17 19  1  0  0  0  0
 18 17  1  0  0  0  0
 20 21  1  0  0  0  0
 22 20  1  0  0  0  0
 23 24  1  6  0  0  0
 23 25  1  0  0  0  0
 23 20  1  0  0  0  0
 23 15  1  0  0  0  0
 25 27  1  0  0  0  0
 26 25  1  0  0  0  0
 28 25  1  0  0  0  0
 29 31  1  0  0  0  0
 29 30  1  0  0  0  0
 32 29  1  0  0  0  0
M  END
