6,10
 OpenBabel05122313053D

 46 46  0  0  1  0  0  0  0  0999 V2000
    1.5983    0.9489   -0.4166 P   0  0  0  0  0  0  0  0  0  0  0  0
    1.6731    1.2117   -1.9022 O   0  0  0  0  0  0  0  0  0  0  0  0
    0.7298    1.9980    0.4716 O   0  0  0  0  0  0  0  0  0  0  0  0
    3.0452    1.0039    0.3554 O   0  0  0  0  0  0  0  0  0  0  0  0
   -0.4766   -1.0065   -0.5023 C   0  0  1  0  0  3  0  0  0  0  0  0
   -1.2540   -2.0387    0.1281 C   0  0  0  0  0  3  0  0  0  0  0  0
   -0.8679   -2.5115    1.0424 H   0  0  0  0  0  0  0  0  0  0  0  0
   -2.5127   -2.4245   -0.3865 C   0  0  0  0  0  3  0  0  0  0  0  0
   -3.1096   -3.1840    0.1367 H   0  0  0  0  0  0  0  0  0  0  0  0
   -3.0366   -1.7731   -1.5473 C   0  0  0  0  0  3  0  0  0  0  0  0
   -4.0380   -2.0308   -1.9184 H   0  0  0  0  0  0  0  0  0  0  0  0
   -2.2800   -0.7618   -2.1820 C   0  0  0  0  0  0  0  0  0  0  0  0
   -2.6908   -0.2282   -3.0498 H   0  0  0  0  0  0  0  0  0  0  0  0
   -1.0050   -0.3771   -1.6595 C   0  0  0  0  0  0  0  0  0  0  0  0
   -0.4341    0.4331   -2.1361 H   0  0  0  0  0  0  0  0  0  0  0  0
    0.8420   -0.6334    0.1622 C   0  0  1  0  0  0  0  0  0  0  0  0
    0.5983   -0.3487    1.2035 H   0  0  0  0  0  0  0  0  0  0  0  0
    1.8365   -1.7898    0.2313 C   0  0  0  0  0  0  0  0  0  0  0  0
    2.1423   -2.5211   -1.0045 C   0  0  0  0  0  0  0  0  0  0  0  0
    2.5567   -3.5342   -0.8756 H   0  0  0  0  0  0  0  0  0  0  0  0
    1.9670   -2.0738   -2.2704 C   0  0  0  0  0  0  0  0  0  0  0  0
    1.6088   -1.0573   -2.4960 H   0  0  0  0  0  0  0  0  0  0  0  0
    2.2293   -2.7155   -3.1254 H   0  0  0  0  0  0  0  0  0  0  0  0
    2.4076   -2.1044    1.4420 C   0  0  0  0  0  0  0  0  0  0  0  0
    2.1176   -1.3205    2.7027 C   0  0  0  0  0  0  0  0  0  0  0  0
    2.5394   -1.8248    3.5932 H   0  0  0  0  0  0  0  0  0  0  0  0
    1.0332   -1.1714    2.8883 H   0  0  0  0  0  0  0  0  0  0  0  0
    2.5685   -0.3062    2.6431 H   0  0  0  0  0  0  0  0  0  0  0  0
    3.4381   -3.1877    1.6167 C   0  0  0  0  0  0  0  0  0  0  0  0
    3.1116   -3.9147    2.3916 H   0  0  0  0  0  0  0  0  0  0  0  0
    4.3860   -2.7467    1.9971 H   0  0  0  0  0  0  0  0  0  0  0  0
    3.6793   -3.7437    0.6943 H   0  0  0  0  0  0  0  0  0  0  0  0
    0.9490    3.4201    0.3022 C   0  0  0  0  0  0  0  0  0  0  0  0
    0.9334    3.6593   -0.7828 H   0  0  0  0  0  0  0  0  0  0  0  0
    1.9606    3.6663    0.6930 H   0  0  0  0  0  0  0  0  0  0  0  0
   -0.1359    4.1593    1.0571 C   0  0  0  0  0  0  0  0  0  0  0  0
   -1.1320    3.9456    0.6246 H   0  0  0  0  0  0  0  0  0  0  0  0
    0.0449    5.2515    1.0029 H   0  0  0  0  0  0  0  0  0  0  0  0
   -0.1431    3.8565    2.1229 H   0  0  0  0  0  0  0  0  0  0  0  0
    4.2472    0.6061   -0.3505 C   0  0  0  0  0  0  0  0  0  0  0  0
    4.9282    0.2233    0.4371 H   0  0  0  0  0  0  0  0  0  0  0  0
    4.0208   -0.2362   -1.0382 H   0  0  0  0  0  0  0  0  0  0  0  0
    4.8549    1.7765   -1.1021 C   0  0  0  0  0  0  0  0  0  0  0  0
    5.8079    1.4727   -1.5812 H   0  0  0  0  0  0  0  0  0  0  0  0
    5.0651    2.6206   -0.4148 H   0  0  0  0  0  0  0  0  0  0  0  0
    4.1569    2.1196   -1.8904 H   0  0  0  0  0  0  0  0  0  0  0  0
  1 16  1  0  0  0  0
  1  4  1  0  0  0  0
  1  3  1  0  0  0  0
  2  1  2  0  0  0  0
  5  6  1  0  0  0  0
  5 16  1  1  0  0  0
  6  7  1  0  0  0  0
  8  6  1  0  0  0  0
  8  9  1  0  0  0  0
 10  8  1  0  0  0  0
 11 10  1  0  0  0  0
 12 14  2  0  0  0  0
 12 10  1  0  0  0  0
 13 12  1  0  0  0  0
 14  5  1  0  0  0  0
 15 14  1  0  0  0  0
 16 18  1  0  0  0  0
 16 17  1  1  0  0  0
 18 24  2  0  0  0  0
 19 20  1  0  0  0  0
 19 18  1  0  0  0  0
 21 19  2  0  0  0  0
 22 21  1  0  0  0  0
 23 21  1  0  0  0  0
 24 29  1  0  0  0  0
 24 25  1  0  0  0  0
 25 27  1  0  0  0  0
 25 26  1  0  0  0  0
 28 25  1  0  0  0  0
 29 31  1  0  0  0  0
 29 30  1  0  0  0  0
 32 29  1  0  0  0  0
 33  3  1  0  0  0  0
 33 35  1  0  0  0  0
 33 36  1  0  0  0  0
 34 33  1  0  0  0  0
 36 39  1  0  0  0  0
 37 36  1  0  0  0  0
 38 36  1  0  0  0  0
 40  4  1  0  0  0  0
 40 41  1  0  0  0  0
 42 40  1  0  0  0  0
 43 45  1  0  0  0  0
 43 40  1  0  0  0  0
 44 43  1  0  0  0  0
 46 43  1  0  0  0  0
M  END
