3,17
 OpenBabel05122313053D

 53 56  0  0  1  0  0  0  0  0999 V2000
   -1.2774    0.4995   -0.4738 N   0  0  0  0  0  0  0  0  0  0  0  0
    0.1524    1.9787    0.2958 N   0  0  0  0  0  0  0  0  0  0  0  0
    0.0308    0.6608   -0.1251 C   0  0  0  0  0  2  0  0  0  0  0  0
   -1.9901    1.6855   -0.2719 C   0  0  0  0  0  0  0  0  0  0  0  0
   -3.3376    2.0131   -0.4696 C   0  0  0  0  0  0  0  0  0  0  0  0
   -4.0591    1.2652   -0.8239 H   0  0  0  0  0  0  0  0  0  0  0  0
   -3.7265    3.3300   -0.1743 C   0  0  0  0  0  0  0  0  0  0  0  0
   -4.7774    3.6219   -0.3154 H   0  0  0  0  0  0  0  0  0  0  0  0
   -2.8028    4.2841    0.3044 C   0  0  0  0  0  0  0  0  0  0  0  0
   -3.1473    5.3056    0.5231 H   0  0  0  0  0  0  0  0  0  0  0  0
   -1.4525    3.9571    0.5110 C   0  0  0  0  0  0  0  0  0  0  0  0
   -0.7335    4.6998    0.8848 H   0  0  0  0  0  0  0  0  0  0  0  0
   -1.0655    2.6424    0.2187 C   0  0  0  0  0  0  0  0  0  0  0  0
    1.4595    2.5318    0.6414 C   0  0  0  0  0  0  0  0  0  0  0  0
    1.4039    3.0356    1.6280 H   0  0  0  0  0  0  0  0  0  0  0  0
    1.7447    3.2980   -0.1063 H   0  0  0  0  0  0  0  0  0  0  0  0
    2.4449    1.3693    0.6621 C   0  0  2  0  0  3  0  0  0  0  0  0
    3.2636    1.0562   -0.4959 C   0  0  1  0  0  3  0  0  0  0  0  0
    3.9221   -0.2373   -0.5265 C   0  0  0  0  0  0  0  0  0  0  0  0
    4.4482   -0.5159   -1.4530 H   0  0  0  0  0  0  0  0  0  0  0  0
    3.7813   -1.2046    0.4898 C   0  0  0  0  0  0  0  0  0  0  0  0
    2.9410   -0.8461    1.6139 C   0  0  0  0  0  0  0  0  0  0  0  0
    2.7131   -1.6217    2.3611 H   0  0  0  0  0  0  0  0  0  0  0  0
    2.3495    0.4379    1.7844 C   0  0  0  0  0  0  0  0  0  0  0  0
    1.5383    0.7458    3.0155 C   0  0  0  0  0  0  0  0  0  0  0  0
    2.0613    1.4891    3.6548 H   0  0  0  0  0  0  0  0  0  0  0  0
    1.3855   -0.1703    3.6157 H   0  0  0  0  0  0  0  0  0  0  0  0
    0.5380    1.1542    2.7725 H   0  0  0  0  0  0  0  0  0  0  0  0
    3.4154    1.9423   -1.7026 C   0  0  0  0  0  0  0  0  0  0  0  0
    4.4794    2.2167   -1.8562 H   0  0  0  0  0  0  0  0  0  0  0  0
    2.8297    2.8767   -1.6335 H   0  0  0  0  0  0  0  0  0  0  0  0
    3.0565    1.3913   -2.5977 H   0  0  0  0  0  0  0  0  0  0  0  0
    4.3011   -2.6073    0.3672 C   0  0  0  0  0  0  0  0  0  0  0  0
    5.0353   -2.8411    1.1660 H   0  0  0  0  0  0  0  0  0  0  0  0
    4.7846   -2.7720   -0.6139 H   0  0  0  0  0  0  0  0  0  0  0  0
    3.4513   -3.3172    0.4586 H   0  0  0  0  0  0  0  0  0  0  0  0
   -1.8700   -0.7160   -1.0354 C   0  0  0  0  0  0  0  0  0  0  0  0
   -1.0391   -1.4452   -1.1395 H   0  0  0  0  0  0  0  0  0  0  0  0
   -2.2356   -0.4681   -2.0497 H   0  0  0  0  0  0  0  0  0  0  0  0
   -2.9680   -1.2778   -0.1565 C   0  0  0  0  0  0  0  0  0  0  0  0
   -2.7185   -1.4350    1.2205 C   0  0  0  0  0  0  0  0  0  0  0  0
   -1.7284   -1.1571    1.6126 H   0  0  0  0  0  0  0  0  0  0  0  0
   -3.6950   -1.9599    2.0759 C   0  0  0  0  0  0  0  0  0  0  0  0
   -3.4803   -2.0790    3.1487 H   0  0  0  0  0  0  0  0  0  0  0  0
   -4.9401   -2.3411    1.5540 C   0  0  0  0  0  0  0  0  0  0  0  0
   -5.7182   -2.7542    2.2139 H   0  0  0  0  0  0  0  0  0  0  0  0
   -5.1888   -2.2017    0.1819 C   0  0  0  0  0  0  0  0  0  0  0  0
   -6.1632   -2.5095   -0.2298 H   0  0  0  0  0  0  0  0  0  0  0  0
   -4.2181   -1.6753   -0.6955 C   0  0  0  0  0  0  0  0  0  0  0  0
   -4.5230   -1.5606   -2.1707 C   0  0  0  0  0  0  0  0  0  0  0  0
   -5.5538   -1.8997   -2.3886 H   0  0  0  0  0  0  0  0  0  0  0  0
   -3.8322   -2.1744   -2.7855 H   0  0  0  0  0  0  0  0  0  0  0  0
   -4.4317   -0.5167   -2.5412 H   0  0  0  0  0  0  0  0  0  0  0  0
  1  4  1  0  0  0  0
  1  3  1  0  0  0  0
  2 14  1  0  0  0  0
  3  2  1  0  0  0  0
  4 13  1  0  0  0  0
  5  4  2  0  0  0  0
  5  7  1  0  0  0  0
  6  5  1  0  0  0  0
  7  9  2  0  0  0  0
  8  7  1  0  0  0  0
  9 11  1  0  0  0  0
  9 10  1  0  0  0  0
 11 12  1  0  0  0  0
 13  2  1  0  0  0  0
 13 11  2  0  0  0  0
 14 15  1  0  0  0  0
 16 14  1  0  0  0  0
 17 14  1  6  0  0  0
 17 24  1  0  0  0  0
 18 29  1  6  0  0  0
 18 17  1  0  0  0  0
 19 18  1  0  0  0  0
 19 21  2  0  0  0  0
 20 19  1  0  0  0  0
 21 22  1  0  0  0  0
 22 24  2  0  0  0  0
 22 23  1  0  0  0  0
 24 25  1  0  0  0  0
 25 27  1  0  0  0  0
 25 26  1  0  0  0  0
 28 25  1  0  0  0  0
 29 31  1  0  0  0  0
 30 29  1  0  0  0  0
 32 29  1  0  0  0  0
 33 36  1  0  0  0  0
 33 21  1  0  0  0  0
 33 34  1  0  0  0  0
 35 33  1  0  0  0  0
 37  1  1  0  0  0  0
 37 40  1  0  0  0  0
 38 37  1  0  0  0  0
 39 37  1  0  0  0  0
 40 41  1  0  0  0  0
 41 42  1  0  0  0  0
 41 43  2  0  0  0  0
 43 44  1  0  0  0  0
 45 43  1  0  0  0  0
 45 46  1  0  0  0  0
 47 45  2  0  0  0  0
 48 47  1  0  0  0  0
 49 40  2  0  0  0  0
 49 47  1  0  0  0  0
 50 49  1  0  0  0  0
 51 50  1  0  0  0  0
 52 50  1  0  0  0  0
 53 50  1  0  0  0  0
M  END
