7,14
 OpenBabel05122313053D

 55 55  0  0  1  0  0  0  0  0999 V2000
   -2.1979    1.0345   -0.9667 P   0  0  1  0  0  0  0  0  0  0  0  0
   -1.6312   -0.5059   -0.8745 O   0  0  0  0  0  0  0  0  0  0  0  0
   -1.5193    1.7764    0.3453 O   0  0  0  0  0  0  0  0  0  0  0  0
   -1.8812    1.6457   -2.2932 O   0  0  0  0  0  0  0  0  0  0  0  0
    0.1925   -2.4672   -0.2593 N   0  0  0  0  0  2  0  0  0  0  0  0
    1.2123    1.5784    0.6199 N   0  0  0  0  0  2  0  0  0  0  0  0
    1.2602   -1.9695   -0.3177 C   0  0  0  0  0  1  0  0  0  0  0  0
   -1.1981   -2.7194   -0.0822 C   0  0  2  0  0  0  0  0  0  0  0  0
   -1.8753   -1.3742    0.2286 C   0  0  0  0  0  0  0  0  0  0  0  0
   -1.4374   -3.8500    0.9727 C   0  0  0  0  0  0  0  0  0  0  0  0
   -0.8925   -3.4346    2.3508 C   0  0  0  0  0  0  0  0  0  0  0  0
   -2.9464   -4.1426    1.0585 C   0  0  0  0  0  0  0  0  0  0  0  0
   -0.7035   -5.1127    0.4839 C   0  0  0  0  0  0  0  0  0  0  0  0
    1.8225    0.6363    0.2657 C   0  0  0  0  0  1  0  0  0  0  0  0
    0.5923    2.8109    0.9482 C   0  0  2  0  0  0  0  0  0  0  0  0
   -0.7065    2.9434    0.1370 C   0  0  0  0  0  0  0  0  0  0  0  0
    1.6129    3.9922    0.7798 C   0  0  0  0  0  0  0  0  0  0  0  0
    0.9026    5.3077    1.1476 C   0  0  0  0  0  0  0  0  0  0  0  0
    2.7865    3.7481    1.7482 C   0  0  0  0  0  0  0  0  0  0  0  0
    2.1536    4.0509   -0.6605 C   0  0  0  0  0  0  0  0  0  0  0  0
   -3.9461    0.9270   -0.5189 C   0  0  0  0  0  0  0  0  0  0  0  0
   -4.8815    0.8192   -1.5686 C   0  0  0  0  0  0  0  0  0  0  0  0
   -6.2464    0.6954   -1.2734 C   0  0  0  0  0  0  0  0  0  0  0  0
   -6.6804    0.6844    0.0626 C   0  0  0  0  0  0  0  0  0  0  0  0
   -5.7506    0.8060    1.1083 C   0  0  0  0  0  0  0  0  0  0  0  0
   -4.3831    0.9310    0.8222 C   0  0  0  0  0  0  0  0  0  0  0  0
   -1.5937   -3.0724   -1.0603 H   0  0  0  0  0  0  0  0  0  0  0  0
   -2.9651   -1.5366    0.3646 H   0  0  0  0  0  0  0  0  0  0  0  0
   -1.4563   -0.9406    1.1619 H   0  0  0  0  0  0  0  0  0  0  0  0
   -1.4412   -2.5690    2.7740 H   0  0  0  0  0  0  0  0  0  0  0  0
    0.1833   -3.1719    2.2988 H   0  0  0  0  0  0  0  0  0  0  0  0
   -0.9977   -4.2732    3.0674 H   0  0  0  0  0  0  0  0  0  0  0  0
   -3.3736   -4.3724    0.0605 H   0  0  0  0  0  0  0  0  0  0  0  0
   -3.5198   -3.3002    1.4946 H   0  0  0  0  0  0  0  0  0  0  0  0
   -3.1190   -5.0248    1.7064 H   0  0  0  0  0  0  0  0  0  0  0  0
    0.3878   -4.9424    0.3963 H   0  0  0  0  0  0  0  0  0  0  0  0
   -1.0799   -5.4389   -0.5073 H   0  0  0  0  0  0  0  0  0  0  0  0
   -0.8614   -5.9451    1.1981 H   0  0  0  0  0  0  0  0  0  0  0  0
    0.3141    2.7526    2.0248 H   0  0  0  0  0  0  0  0  0  0  0  0
   -1.2666    3.8302    0.4926 H   0  0  0  0  0  0  0  0  0  0  0  0
   -0.4934    3.0599   -0.9449 H   0  0  0  0  0  0  0  0  0  0  0  0
    0.4312    5.2527    2.1514 H   0  0  0  0  0  0  0  0  0  0  0  0
    0.1239    5.5907    0.4112 H   0  0  0  0  0  0  0  0  0  0  0  0
    1.6423    6.1323    1.1731 H   0  0  0  0  0  0  0  0  0  0  0  0
    3.3475    2.8284    1.4847 H   0  0  0  0  0  0  0  0  0  0  0  0
    2.4370    3.6682    2.7987 H   0  0  0  0  0  0  0  0  0  0  0  0
    3.4982    4.5958    1.6929 H   0  0  0  0  0  0  0  0  0  0  0  0
    1.3491    4.1903   -1.4104 H   0  0  0  0  0  0  0  0  0  0  0  0
    2.7259    3.1358   -0.9141 H   0  0  0  0  0  0  0  0  0  0  0  0
    2.8484    4.9087   -0.7579 H   0  0  0  0  0  0  0  0  0  0  0  0
   -4.5280    0.8465   -2.6106 H   0  0  0  0  0  0  0  0  0  0  0  0
   -6.9775    0.6145   -2.0917 H   0  0  0  0  0  0  0  0  0  0  0  0
   -7.7529    0.5891    0.2907 H   0  0  0  0  0  0  0  0  0  0  0  0
   -6.0938    0.8119    2.1539 H   0  0  0  0  0  0  0  0  0  0  0  0
   -3.6513    1.0495    1.6352 H   0  0  0  0  0  0  0  0  0  0  0  0
  1  4  2  6  0  0  0
  1  2  1  0  0  0  0
  1 21  1  0  0  0  0
  1  3  1  0  0  0  0
  2  9  1  0  0  0  0
  5  8  1  0  0  0  0
  6 15  1  0  0  0  0
  7  5  1  0  0  0  0
  8 27  1  6  0  0  0
  8  9  1  0  0  0  0
  8 10  1  0  0  0  0
  9 28  1  0  0  0  0
  9 29  1  0  0  0  0
 10 12  1  0  0  0  0
 10 11  1  0  0  0  0
 11 30  1  0  0  0  0
 11 32  1  0  0  0  0
 12 34  1  0  0  0  0
 12 35  1  0  0  0  0
 13 10  1  0  0  0  0
 13 38  1  0  0  0  0
 14  6  1  0  0  0  0
 15 39  1  1  0  0  0
 16  3  1  0  0  0  0
 16 40  1  0  0  0  0
 16 15  1  0  0  0  0
 17 15  1  0  0  0  0
 17 18  1  0  0  0  0
 17 19  1  0  0  0  0
 18 44  1  0  0  0  0
 18 42  1  0  0  0  0
 19 46  1  0  0  0  0
 20 17  1  0  0  0  0
 21 26  1  0  0  0  0
 22 23  1  0  0  0  0
 22 21  2  0  0  0  0
 23 24  2  0  0  0  0
 24 53  1  0  0  0  0
 24 25  1  0  0  0  0
 25 54  1  0  0  0  0
 26 25  2  0  0  0  0
 26 55  1  0  0  0  0
 31 11  1  0  0  0  0
 33 12  1  0  0  0  0
 36 13  1  0  0  0  0
 37 13  1  0  0  0  0
 41 16  1  0  0  0  0
 43 18  1  0  0  0  0
 45 19  1  0  0  0  0
 47 19  1  0  0  0  0
 48 20  1  0  0  0  0
 49 20  1  0  0  0  0
 50 20  1  0  0  0  0
 51 22  1  0  0  0  0
 52 23  1  0  0  0  0
M  END
