5,11
 OpenBabel05122313053D

 12 11  0  0  0  0  0  0  0  0999 V2000
    2.0443    1.4800   -1.0859 F   0  0  0  0  0  0  0  0  0  0  0  0
    0.0000    2.2669   -1.3826 F   0  0  0  0  0  0  0  0  0  0  0  0
    1.6993   -0.4745   -2.7944 F   0  0  0  0  0  0  0  0  0  0  0  0
    0.7192    1.2710   -3.7173 F   0  0  0  0  0  0  0  0  0  0  0  0
    0.7396    1.0824   -1.2955 C   0  0  0  0  0  0  0  0  0  0  0  0
    0.6587    0.4001   -2.6749 C   0  0  0  0  0  0  0  0  0  0  0  0
   -2.0443   -1.4800   -1.0859 F   0  0  0  0  0  0  0  0  0  0  0  0
   -0.0000   -2.2669   -1.3826 F   0  0  0  0  0  0  0  0  0  0  0  0
   -1.6993    0.4745   -2.7944 F   0  0  0  0  0  0  0  0  0  0  0  0
   -0.7192   -1.2710   -3.7173 F   0  0  0  0  0  0  0  0  0  0  0  0
   -0.7396   -1.0824   -1.2955 C   0  0  0  0  0  0  0  0  0  0  0  0
   -0.6587   -0.4001   -2.6749 C   0  0  0  0  0  0  0  0  0  0  0  0
  2  5  1  0  0  0  0
  3  6  1  0  0  0  0
  4  6  1  0  0  0  0
  5  1  1  0  0  0  0
  6  5  1  0  0  0  0
  8 11  1  0  0  0  0
  9 12  1  0  0  0  0
 10 12  1  0  0  0  0
 11  7  1  0  0  0  0
 12  6  1  0  0  0  0
 12 11  1  0  0  0  0
M  END
