2,4
 OpenBabel05122313053D

 41 40  0  0  1  0  0  0  0  0999 V2000
   -1.3881   -0.0661   -1.7094 C   0  0  0  0  0  3  0  0  0  0  0  0
   -1.7369   -0.7520   -0.4881 C   0  0  1  0  0  3  0  0  0  0  0  0
   -0.6188   -0.8691    0.4235 C   0  0  0  0  0  3  0  0  0  0  0  0
    0.5351   -0.1384    0.0351 C   0  0  0  0  0  2  0  0  0  0  0  0
    1.8762   -0.1867   -0.0483 C   0  0  2  0  0  3  0  0  0  0  0  0
    2.4833    1.0587   -0.3668 O   0  0  0  0  0  0  0  0  0  0  0  0
    3.7761    1.2918   -0.0454 C   0  0  0  0  0  0  0  0  0  0  0  0
    4.4903    0.4998    0.5452 O   0  0  0  0  0  0  0  0  0  0  0  0
    4.2046    2.6566   -0.5321 C   0  0  0  0  0  0  0  0  0  0  0  0
   -3.4917   -1.2775   -0.0095 Si  0  0  0  0  0  0  0  0  0  0  0  0
   -4.7374   -0.2852   -1.0311 C   0  0  0  0  0  0  0  0  0  0  0  0
   -3.6795   -3.1221   -0.3975 C   0  0  0  0  0  0  0  0  0  0  0  0
   -3.7724   -0.9855    1.8396 C   0  0  0  0  0  0  0  0  0  0  0  0
    2.8207   -1.8494    0.0630 Si  0  0  0  0  0  0  0  0  0  0  0  0
    1.5206   -3.1870   -0.3039 C   0  0  0  0  0  0  0  0  0  0  0  0
    3.5129   -2.2013    1.7872 C   0  0  0  0  0  0  0  0  0  0  0  0
    4.1445   -1.9756   -1.2859 C   0  0  0  0  0  0  0  0  0  0  0  0
   -0.4534   -0.3190   -2.2396 H   0  0  0  0  0  0  0  0  0  0  0  0
   -2.2035    0.2863   -2.3629 H   0  0  0  0  0  0  0  0  0  0  0  0
   -0.7362   -1.3167    1.4269 H   0  0  0  0  0  0  0  0  0  0  0  0
    4.2124    2.6715   -1.6409 H   0  0  0  0  0  0  0  0  0  0  0  0
    5.2165    2.8815   -0.1537 H   0  0  0  0  0  0  0  0  0  0  0  0
    3.4885    3.4342   -0.2014 H   0  0  0  0  0  0  0  0  0  0  0  0
   -5.7752   -0.5529   -0.7443 H   0  0  0  0  0  0  0  0  0  0  0  0
   -4.6109    0.8053   -0.8795 H   0  0  0  0  0  0  0  0  0  0  0  0
   -4.6251   -0.4938   -2.1146 H   0  0  0  0  0  0  0  0  0  0  0  0
   -3.5065   -3.3177   -1.4755 H   0  0  0  0  0  0  0  0  0  0  0  0
   -4.6959   -3.4860   -0.1408 H   0  0  0  0  0  0  0  0  0  0  0  0
   -2.9451   -3.7239    0.1761 H   0  0  0  0  0  0  0  0  0  0  0  0
   -3.0683   -1.5816    2.4557 H   0  0  0  0  0  0  0  0  0  0  0  0
   -4.8016   -1.2798    2.1316 H   0  0  0  0  0  0  0  0  0  0  0  0
   -3.6301    0.0822    2.1007 H   0  0  0  0  0  0  0  0  0  0  0  0
    0.9943   -2.9963   -1.2610 H   0  0  0  0  0  0  0  0  0  0  0  0
    0.7547   -3.2586    0.4939 H   0  0  0  0  0  0  0  0  0  0  0  0
    2.0217   -4.1751   -0.3759 H   0  0  0  0  0  0  0  0  0  0  0  0
    4.2976   -1.4684    2.0508 H   0  0  0  0  0  0  0  0  0  0  0  0
    3.9434   -3.2238    1.8262 H   0  0  0  0  0  0  0  0  0  0  0  0
    2.7057   -2.1444    2.5462 H   0  0  0  0  0  0  0  0  0  0  0  0
    5.0101   -1.3222   -1.0663 H   0  0  0  0  0  0  0  0  0  0  0  0
    4.5043   -3.0233   -1.3568 H   0  0  0  0  0  0  0  0  0  0  0  0
    3.7285   -1.6956   -2.2756 H   0  0  0  0  0  0  0  0  0  0  0  0
  2  1  1  1  0  0  0
  2 10  1  0  0  0  0
  2  3  1  0  0  0  0
  3 20  1  0  0  0  0
  4  3  1  0  0  0  0
  5  4  1  6  0  0  0
  5 14  1  0  0  0  0
  6  5  1  0  0  0  0
  6  7  1  0  0  0  0
  7  8  2  0  0  0  0
  9 23  1  0  0  0  0
  9 22  1  0  0  0  0
  9  7  1  0  0  0  0
 10 13  1  0  0  0  0
 11 25  1  0  0  0  0
 11 24  1  0  0  0  0
 11 10  1  0  0  0  0
 12 28  1  0  0  0  0
 12 10  1  0  0  0  0
 12 29  1  0  0  0  0
 13 32  1  0  0  0  0
 13 31  1  0  0  0  0
 13 30  1  0  0  0  0
 14 16  1  0  0  0  0
 15 14  1  0  0  0  0
 15 34  1  0  0  0  0
 16 37  1  0  0  0  0
 16 36  1  0  0  0  0
 16 38  1  0  0  0  0
 17 39  1  0  0  0  0
 17 14  1  0  0  0  0
 18  1  1  0  0  0  0
 19  1  1  0  0  0  0
 21  9  1  0  0  0  0
 26 11  1  0  0  0  0
 27 12  1  0  0  0  0
 33 15  1  0  0  0  0
 35 15  1  0  0  0  0
 40 17  1  0  0  0  0
 41 17  1  0  0  0  0
M  END
