13,16
 OpenBabel05122313053D

 49 51  0  0  1  0  0  0  0  0999 V2000
   -3.4714   -2.3675   -0.3105 O   0  0  0  0  0  0  0  0  0  0  0  0
    5.7509    0.0255   -0.3330 O   0  0  0  0  0  0  0  0  0  0  0  0
    1.2010   -0.9461   -1.6422 C   0  0  0  0  0  0  0  0  0  0  0  0
    2.5938   -0.7838   -2.2534 C   0  0  0  0  0  0  0  0  0  0  0  0
    3.2569    0.5038   -1.7708 C   0  0  0  0  0  0  0  0  0  0  0  0
    3.4074    0.5865   -0.2329 C   0  0  2  0  0  0  0  0  0  0  0  0
    2.0240    0.2850    0.4330 C   0  0  2  0  0  0  0  0  0  0  0  0
    2.0278    0.2961    1.9680 C   0  0  0  0  0  0  0  0  0  0  0  0
    0.6122    0.5064    2.5121 C   0  0  0  0  0  0  0  0  0  0  0  0
   -0.4572   -0.2551    1.7532 C   0  0  0  0  0  0  0  0  0  0  0  0
   -0.2006   -0.8869    0.4862 C   0  0  0  0  0  0  0  0  0  0  0  0
    1.2233   -0.9573   -0.0936 C   0  0  1  0  0  0  0  0  0  0  0  0
   -1.2639   -1.5707   -0.1692 C   0  0  0  0  0  3  0  0  0  0  0  0
   -2.5704   -1.6575    0.3959 C   0  0  0  0  0  0  0  0  0  0  0  0
   -2.8473   -0.9746    1.6113 C   0  0  0  0  0  0  0  0  0  0  0  0
   -1.7838   -0.2813    2.2607 C   0  0  0  0  0  3  0  0  0  0  0  0
    3.8241    2.0309    0.1169 C   0  0  0  0  0  0  0  0  0  0  0  0
    4.5223   -0.3602    0.2506 C   0  0  0  0  0  0  0  0  0  0  0  0
    1.7681   -2.3275    0.3871 C   0  0  0  0  0  0  0  0  0  0  0  0
   -4.8476   -2.2443    0.0339 C   0  0  0  0  0  0  0  0  0  0  0  0
    6.8239   -0.7910    0.0582 C   0  0  0  0  0  0  0  0  0  0  0  0
    0.5558   -0.1113   -1.9846 H   0  0  0  0  0  0  0  0  0  0  0  0
    0.7361   -1.8806   -2.0185 H   0  0  0  0  0  0  0  0  0  0  0  0
    3.2309   -1.6623   -2.0123 H   0  0  0  0  0  0  0  0  0  0  0  0
    2.5084   -0.7726   -3.3597 H   0  0  0  0  0  0  0  0  0  0  0  0
    2.6374    1.3662   -2.1000 H   0  0  0  0  0  0  0  0  0  0  0  0
    4.2589    0.6300   -2.2276 H   0  0  0  0  0  0  0  0  0  0  0  0
    1.4078    1.1539    0.1176 H   0  0  0  0  0  0  0  0  0  0  0  0
    2.4536   -0.6494    2.3625 H   0  0  0  0  0  0  0  0  0  0  0  0
    2.6791    1.1050    2.3508 H   0  0  0  0  0  0  0  0  0  0  0  0
    0.3579    1.5861    2.4692 H   0  0  0  0  0  0  0  0  0  0  0  0
    0.5601    0.2236    3.5848 H   0  0  0  0  0  0  0  0  0  0  0  0
   -1.1156   -2.0449   -1.1462 H   0  0  0  0  0  0  0  0  0  0  0  0
   -3.8539   -0.9543    2.0432 H   0  0  0  0  0  0  0  0  0  0  0  0
   -2.0020    0.2589    3.1941 H   0  0  0  0  0  0  0  0  0  0  0  0
    4.0232    2.1617    1.1997 H   0  0  0  0  0  0  0  0  0  0  0  0
    3.0300    2.7464   -0.1781 H   0  0  0  0  0  0  0  0  0  0  0  0
    4.7548    2.2951   -0.4190 H   0  0  0  0  0  0  0  0  0  0  0  0
    4.5977   -0.3219    1.3666 H   0  0  0  0  0  0  0  0  0  0  0  0
    4.3019   -1.4212   -0.0148 H   0  0  0  0  0  0  0  0  0  0  0  0
    2.7632   -2.5480   -0.0410 H   0  0  0  0  0  0  0  0  0  0  0  0
    1.8484   -2.3893    1.4892 H   0  0  0  0  0  0  0  0  0  0  0  0
    1.0812   -3.1348    0.0640 H   0  0  0  0  0  0  0  0  0  0  0  0
   -5.0550   -2.6600    1.0442 H   0  0  0  0  0  0  0  0  0  0  0  0
   -5.4052   -2.8301   -0.7187 H   0  0  0  0  0  0  0  0  0  0  0  0
   -5.1726   -1.1838   -0.0161 H   0  0  0  0  0  0  0  0  0  0  0  0
    7.7356   -0.4209   -0.4502 H   0  0  0  0  0  0  0  0  0  0  0  0
    6.6669   -1.8610   -0.2280 H   0  0  0  0  0  0  0  0  0  0  0  0
    6.9963   -0.7617    1.1629 H   0  0  0  0  0  0  0  0  0  0  0  0
  1 20  1  0  0  0  0
  1 14  1  0  0  0  0
  2 21  1  0  0  0  0
  2 18  1  0  0  0  0
  3 12  1  0  0  0  0
  4 24  1  0  0  0  0
  4  5  1  0  0  0  0
  4  3  1  0  0  0  0
  5  6  1  0  0  0  0
  6 17  1  1  0  0  0
  6 18  1  0  0  0  0
  6  7  1  0  0  0  0
  7 28  1  6  0  0  0
  7  8  1  0  0  0  0
  8 30  1  0  0  0  0
  8 29  1  0  0  0  0
  8  9  1  0  0  0  0
  9 32  1  0  0  0  0
 10 16  1  0  0  0  0
 10  9  1  0  0  0  0
 11 10  2  0  0  0  0
 12 19  1  1  0  0  0
 12  7  1  0  0  0  0
 12 11  1  0  0  0  0
 13 14  1  0  0  0  0
 13 11  1  0  0  0  0
 14 15  2  0  0  0  0
 15 34  1  0  0  0  0
 15 16  1  0  0  0  0
 16 35  1  0  0  0  0
 17 36  1  0  0  0  0
 18 39  1  0  0  0  0
 19 42  1  0  0  0  0
 20 44  1  0  0  0  0
 21 49  1  0  0  0  0
 22  3  1  0  0  0  0
 23  3  1  0  0  0  0
 25  4  1  0  0  0  0
 26  5  1  0  0  0  0
 27  5  1  0  0  0  0
 31  9  1  0  0  0  0
 33 13  1  0  0  0  0
 37 17  1  0  0  0  0
 38 17  1  0  0  0  0
 40 18  1  0  0  0  0
 41 19  1  0  0  0  0
 43 19  1  0  0  0  0
 45 20  1  0  0  0  0
 46 20  1  0  0  0  0
 47 21  1  0  0  0  0
 48 21  1  0  0  0  0
M  END
