8,14
 OpenBabel05122313053D

 40 40  0  0  1  0  0  0  0  0999 V2000
   -3.6857    1.8107    1.9003 Cl  0  0  0  0  0  0  0  0  0  0  0  0
   -2.6904    3.8366   -0.0351 Cl  0  0  0  0  0  0  0  0  0  0  0  0
   -3.9943   -1.1184   -0.6256 O   0  0  0  0  0  0  0  0  0  0  0  0
   -2.8642   -2.2480    0.9879 O   0  0  0  0  0  0  0  0  0  0  0  0
    1.4382   -0.7790    2.3391 O   0  0  0  0  0  0  0  0  0  0  0  0
    5.5224    1.2370   -0.8255 O   0  0  0  0  0  0  0  0  0  0  0  0
   -3.0408   -1.2003    0.1342 C   0  0  0  0  0  0  0  0  0  0  0  0
   -1.9148   -0.2352    0.2447 C   0  0  0  0  0  3  0  0  0  0  0  0
   -1.4851   -0.2768    1.2606 H   0  0  0  0  0  0  0  0  0  0  0  0
   -2.2086    1.1538   -0.3076 C   0  0  2  0  0  0  0  0  0  0  0  0
   -3.1613    1.0866   -0.8730 H   0  0  0  0  0  0  0  0  0  0  0  0
   -1.0835    1.4348   -1.2922 C   0  0  0  0  0  3  0  0  0  0  0  0
   -1.3425    1.8995   -2.2553 H   0  0  0  0  0  0  0  0  0  0  0  0
    0.2839    1.4263   -0.9276 C   0  0  0  0  0  3  0  0  0  0  0  0
    1.0008    1.8055   -1.6746 H   0  0  0  0  0  0  0  0  0  0  0  0
    0.7739    0.7394    0.2196 C   0  0  0  0  0  3  0  0  0  0  0  0
    0.1377    0.6614    1.1088 H   0  0  0  0  0  0  0  0  0  0  0  0
   -3.8582   -3.2725    0.9070 C   0  0  0  0  0  0  0  0  0  0  0  0
   -4.8608   -2.8745    1.1642 H   0  0  0  0  0  0  0  0  0  0  0  0
   -3.5566   -4.0519    1.6297 H   0  0  0  0  0  0  0  0  0  0  0  0
   -3.9104   -3.6952   -0.1173 H   0  0  0  0  0  0  0  0  0  0  0  0
    2.1965    0.4967    0.5018 C   0  0  0  0  0  0  0  0  0  0  0  0
    2.5118   -0.3197    1.6307 C   0  0  0  0  0  0  0  0  0  0  0  0
    3.8487   -0.6176    1.9278 C   0  0  0  0  0  0  0  0  0  0  0  0
    4.1018   -1.2511    2.7881 H   0  0  0  0  0  0  0  0  0  0  0  0
    4.8909   -0.1134    1.1270 C   0  0  0  0  0  0  0  0  0  0  0  0
    5.9276   -0.3639    1.3869 H   0  0  0  0  0  0  0  0  0  0  0  0
    4.5939    0.6947    0.0140 C   0  0  0  0  0  0  0  0  0  0  0  0
    3.2485    0.9867   -0.2859 C   0  0  0  0  0  0  0  0  0  0  0  0
    3.0547    1.6193   -1.1636 H   0  0  0  0  0  0  0  0  0  0  0  0
    1.6569   -1.7218    3.3707 C   0  0  0  0  0  0  0  0  0  0  0  0
    0.6588   -1.9953    3.7594 H   0  0  0  0  0  0  0  0  0  0  0  0
    2.2665   -1.2967    4.1993 H   0  0  0  0  0  0  0  0  0  0  0  0
    2.1577   -2.6370    2.9844 H   0  0  0  0  0  0  0  0  0  0  0  0
    6.8861    0.9668   -0.5734 C   0  0  0  0  0  0  0  0  0  0  0  0
    7.2096    1.3472    0.4224 H   0  0  0  0  0  0  0  0  0  0  0  0
    7.4614    1.4896   -1.3599 H   0  0  0  0  0  0  0  0  0  0  0  0
    7.1119   -0.1227   -0.6263 H   0  0  0  0  0  0  0  0  0  0  0  0
   -2.3734    2.2449    0.7513 C   0  0  0  0  0  0  0  0  0  0  0  0
   -1.4614    2.3859    1.3604 H   0  0  0  0  0  0  0  0  0  0  0  0
  2 39  1  0  0  0  0
  3  7  2  0  0  0  0
  5 31  1  0  0  0  0
  6 35  1  0  0  0  0
  6 28  1  0  0  0  0
  7  8  1  0  0  0  0
  7  4  1  0  0  0  0
  8  9  1  0  0  0  0
 10 11  1  6  0  0  0
 10  8  1  0  0  0  0
 10 39  1  0  0  0  0
 12 14  1  0  0  0  0
 12 10  1  0  0  0  0
 13 12  1  0  0  0  0
 14 16  1  0  0  0  0
 15 14  1  0  0  0  0
 16 22  1  0  0  0  0
 16 17  1  0  0  0  0
 18  4  1  0  0  0  0
 18 19  1  0  0  0  0
 18 20  1  0  0  0  0
 21 18  1  0  0  0  0
 22 23  1  0  0  0  0
 23 24  2  0  0  0  0
 23  5  1  0  0  0  0
 24 25  1  0  0  0  0
 26 27  1  0  0  0  0
 26 24  1  0  0  0  0
 28 26  2  0  0  0  0
 29 28  1  0  0  0  0
 29 22  2  0  0  0  0
 30 29  1  0  0  0  0
 31 32  1  0  0  0  0
 31 33  1  0  0  0  0
 34 31  1  0  0  0  0
 35 36  1  0  0  0  0
 37 35  1  0  0  0  0
 38 35  1  0  0  0  0
 39 40  1  0  0  0  0
 39  1  1  0  0  0  0
M  END
