1,16
 OpenBabel05122313053D

 36 38  0  0  0  0  0  0  0  0999 V2000
   -0.4253    0.7532   -0.8094 C   0  0  0  0  0  3  0  0  0  0  0  0
   -1.6155    0.0766   -0.0686 C   0  0  0  0  0  0  0  0  0  0  0  0
   -1.7270   -1.3952   -0.5152 C   0  0  0  0  0  0  0  0  0  0  0  0
   -1.7862   -2.4592    0.4057 C   0  0  0  0  0  0  0  0  0  0  0  0
   -1.8456   -3.7951   -0.0264 C   0  0  0  0  0  0  0  0  0  0  0  0
   -1.8569   -4.0986   -1.3954 C   0  0  0  0  0  0  0  0  0  0  0  0
   -1.8251   -3.0480   -2.3284 C   0  0  0  0  0  0  0  0  0  0  0  0
   -1.7630   -1.7174   -1.8909 C   0  0  0  0  0  0  0  0  0  0  0  0
   -2.9325    0.8352   -0.3366 C   0  0  0  0  0  0  0  0  0  0  0  0
   -3.0042    2.2061    0.0015 C   0  0  0  0  0  0  0  0  0  0  0  0
   -4.1731    2.9476   -0.2063 C   0  0  0  0  0  0  0  0  0  0  0  0
   -5.3121    2.3344   -0.7566 C   0  0  0  0  0  0  0  0  0  0  0  0
   -5.2640    0.9724   -1.0803 C   0  0  0  0  0  0  0  0  0  0  0  0
   -4.0882    0.2306   -0.8681 C   0  0  0  0  0  0  0  0  0  0  0  0
   -1.2392    0.1563    1.4098 C   0  0  0  0  0  0  0  0  0  0  0  0
    0.1474    0.1992    1.6874 C   0  0  0  0  0  3  0  0  0  0  0  0
    0.5492    0.2522    3.0409 C   0  0  0  0  0  0  0  0  0  0  0  0
   -0.3917    0.2441    4.0843 C   0  0  0  0  0  0  0  0  0  0  0  0
   -1.7639    0.1941    3.7907 C   0  0  0  0  0  0  0  0  0  0  0  0
   -2.1845    0.1558    2.4523 C   0  0  0  0  0  0  0  0  0  0  0  0
   -0.5178    1.8523   -0.6991 H   0  0  0  0  0  0  0  0  0  0  0  0
   -0.4785    0.5509   -1.8995 H   0  0  0  0  0  0  0  0  0  0  0  0
   -1.7729   -2.2361    1.4821 H   0  0  0  0  0  0  0  0  0  0  0  0
   -1.8798   -4.6053    0.7183 H   0  0  0  0  0  0  0  0  0  0  0  0
   -1.8978   -5.1446   -1.7352 H   0  0  0  0  0  0  0  0  0  0  0  0
   -1.8488   -3.2673   -3.4073 H   0  0  0  0  0  0  0  0  0  0  0  0
   -1.7451   -0.9073   -2.6349 H   0  0  0  0  0  0  0  0  0  0  0  0
   -2.1275    2.6922    0.4564 H   0  0  0  0  0  0  0  0  0  0  0  0
   -4.1985    4.0133    0.0699 H   0  0  0  0  0  0  0  0  0  0  0  0
   -6.2326    2.9151   -0.9217 H   0  0  0  0  0  0  0  0  0  0  0  0
   -6.1514    0.4723   -1.4988 H   0  0  0  0  0  0  0  0  0  0  0  0
   -4.0781   -0.8399   -1.1162 H   0  0  0  0  0  0  0  0  0  0  0  0
    1.6203    0.3179    3.2946 H   0  0  0  0  0  0  0  0  0  0  0  0
   -0.0510    0.2933    5.1308 H   0  0  0  0  0  0  0  0  0  0  0  0
   -2.5070    0.1988    4.6030 H   0  0  0  0  0  0  0  0  0  0  0  0
   -3.2587    0.1336    2.2099 H   0  0  0  0  0  0  0  0  0  0  0  0
  1 21  1  0  0  0  0
  1  2  1  0  0  0  0
  2 15  1  0  0  0  0
  3  2  1  0  0  0  0
  3  4  1  0  0  0  0
  4 23  1  0  0  0  0
  5  4  2  0  0  0  0
  5 24  1  0  0  0  0
  6  5  1  0  0  0  0
  7  8  1  0  0  0  0
  7  6  2  0  0  0  0
  8  3  2  0  0  0  0
  9  2  1  0  0  0  0
  9 10  1  0  0  0  0
 10 28  1  0  0  0  0
 11 10  2  0  0  0  0
 11 29  1  0  0  0  0
 12 11  1  0  0  0  0
 13 14  1  0  0  0  0
 13 12  2  0  0  0  0
 14  9  2  0  0  0  0
 15 16  2  0  0  0  0
 15 20  1  0  0  0  0
 16 17  1  0  0  0  0
 17 33  1  0  0  0  0
 17 18  2  0  0  0  0
 18 34  1  0  0  0  0
 19 18  1  0  0  0  0
 19 35  1  0  0  0  0
 20 19  2  0  0  0  0
 22  1  1  0  0  0  0
 25  6  1  0  0  0  0
 26  7  1  0  0  0  0
 27  8  1  0  0  0  0
 30 12  1  0  0  0  0
 31 13  1  0  0  0  0
 32 14  1  0  0  0  0
 36 20  1  0  0  0  0
M  END
