3,5
 OpenBabel05122313053D

 60 63  0  0  0  0  0  0  0  0999 V2000
   -4.0586    1.1907   -0.7540 N   0  0  0  0  0  0  0  0  0  0  0  0
   -2.2827    2.4279   -0.6361 N   0  0  0  0  0  0  0  0  0  0  0  0
   -2.7904    1.2146   -0.2465 C   0  0  0  0  0  2  0  0  0  0  0  0
   -3.1289   -1.3792   -2.0514 N   0  0  0  0  0  0  0  0  0  0  0  0
   -2.0619   -1.2218   -1.2034 C   0  0  0  0  0  2  0  0  0  0  0  0
   -0.2168    2.5302    0.6908 C   0  0  0  0  0  0  0  0  0  0  0  0
   -0.7556    2.0945    1.5507 H   0  0  0  0  0  0  0  0  0  0  0  0
   -0.9971   -1.7537   -1.8859 N   0  0  0  0  0  0  0  0  0  0  0  0
    1.1568    2.7937    0.7524 C   0  0  0  0  0  0  0  0  0  0  0  0
    1.7157    2.5645    1.6700 H   0  0  0  0  0  0  0  0  0  0  0  0
    1.0702   -2.9824   -1.4375 C   0  0  0  0  0  0  0  0  0  0  0  0
    0.5833   -3.9006   -1.7952 H   0  0  0  0  0  0  0  0  0  0  0  0
   -4.8401   -0.0366   -0.6905 C   0  0  0  0  0  0  0  0  0  0  0  0
   -4.6282   -0.4978    0.2957 H   0  0  0  0  0  0  0  0  0  0  0  0
   -5.9186    0.2137   -0.7381 H   0  0  0  0  0  0  0  0  0  0  0  0
    4.9546   -3.0472    0.0313 O   0  0  0  0  0  0  0  0  0  0  0  0
    3.8889    4.2306   -1.2310 O   0  0  0  0  0  0  0  0  0  0  0  0
    2.3837   -3.0114   -0.9599 C   0  0  0  0  0  0  0  0  0  0  0  0
    2.9561   -3.9484   -0.9628 H   0  0  0  0  0  0  0  0  0  0  0  0
   -3.2376    3.1502   -1.3585 C   0  0  0  0  0  0  0  0  0  0  0  0
   -3.0512    4.1698   -1.7063 H   0  0  0  0  0  0  0  0  0  0  0  0
    0.9311   -0.6024   -0.8984 C   0  0  0  0  0  0  0  0  0  0  0  0
    0.3535    0.3309   -0.8787 H   0  0  0  0  0  0  0  0  0  0  0  0
    0.3488   -1.7786   -1.3999 C   0  0  0  0  0  0  0  0  0  0  0  0
    3.9065    3.0997    0.7445 O   0  0  0  0  0  0  0  0  0  0  0  0
   -1.3974   -2.2709   -3.1150 C   0  0  0  0  0  0  0  0  0  0  0  0
   -0.6886   -2.7272   -3.8113 H   0  0  0  0  0  0  0  0  0  0  0  0
    1.8334    3.3479   -0.3531 C   0  0  0  0  0  0  0  0  0  0  0  0
   -0.9080    2.8011   -0.5026 C   0  0  0  0  0  0  0  0  0  0  0  0
   -4.5365   -1.0175   -1.8293 C   0  0  0  0  0  0  0  0  0  0  0  0
   -4.9058   -0.5969   -2.7876 H   0  0  0  0  0  0  0  0  0  0  0  0
   -5.1149   -1.9450   -1.6303 H   0  0  0  0  0  0  0  0  0  0  0  0
   -0.2506    3.3738   -1.6088 C   0  0  0  0  0  0  0  0  0  0  0  0
   -0.7997    3.5590   -2.5436 H   0  0  0  0  0  0  0  0  0  0  0  0
    2.2402   -0.6398   -0.4124 C   0  0  0  0  0  0  0  0  0  0  0  0
    2.7149    0.2636   -0.0023 H   0  0  0  0  0  0  0  0  0  0  0  0
    1.1152    3.6571   -1.5246 C   0  0  0  0  0  0  0  0  0  0  0  0
    1.6623    4.0951   -2.3720 H   0  0  0  0  0  0  0  0  0  0  0  0
    4.9094   -0.8431    0.5794 O   0  0  0  0  0  0  0  0  0  0  0  0
   -4.3574    2.3657   -1.4358 C   0  0  0  0  0  0  0  0  0  0  0  0
   -5.3382    2.5621   -1.8789 H   0  0  0  0  0  0  0  0  0  0  0  0
    2.9739   -1.8426   -0.4374 C   0  0  0  0  0  0  0  0  0  0  0  0
   -2.7384   -2.0316   -3.2224 C   0  0  0  0  0  0  0  0  0  0  0  0
   -3.4443   -2.2634   -4.0254 H   0  0  0  0  0  0  0  0  0  0  0  0
    4.3627   -1.8297    0.1096 C   0  0  0  0  0  0  0  0  0  0  0  0
    6.3049   -3.1376    0.5358 C   0  0  0  0  0  0  0  0  0  0  0  0
    6.3897   -2.5006    1.4394 H   0  0  0  0  0  0  0  0  0  0  0  0
    6.4234   -4.1999    0.8254 H   0  0  0  0  0  0  0  0  0  0  0  0
    7.3226   -2.7266   -0.5161 C   0  0  0  0  0  0  0  0  0  0  0  0
    7.2055   -3.3276   -1.4398 H   0  0  0  0  0  0  0  0  0  0  0  0
    7.2110   -1.6547   -0.7708 H   0  0  0  0  0  0  0  0  0  0  0  0
    8.3501   -2.8826   -0.1297 H   0  0  0  0  0  0  0  0  0  0  0  0
    5.3384    3.2930    0.8496 C   0  0  0  0  0  0  0  0  0  0  0  0
    5.5752    4.3286    0.5305 H   0  0  0  0  0  0  0  0  0  0  0  0
    5.5464    3.1866    1.9319 H   0  0  0  0  0  0  0  0  0  0  0  0
    3.3049    3.6216   -0.3481 C   0  0  0  0  0  0  0  0  0  0  0  0
    6.1084    2.2719    0.0293 C   0  0  0  0  0  0  0  0  0  0  0  0
    5.8167    1.2398    0.3049 H   0  0  0  0  0  0  0  0  0  0  0  0
    5.9242    2.4257   -1.0518 H   0  0  0  0  0  0  0  0  0  0  0  0
    7.1954    2.3952    0.2117 H   0  0  0  0  0  0  0  0  0  0  0  0
  1 13  1  0  0  0  0
  1  3  1  0  0  0  0
  2 29  1  0  0  0  0
  2  3  1  0  0  0  0
  4 30  1  0  0  0  0
  4  5  1  0  0  0  0
  6  9  1  0  0  0  0
  6  7  1  0  0  0  0
  8 24  1  0  0  0  0
  8  5  1  0  0  0  0
  9 10  1  0  0  0  0
 11 24  2  0  0  0  0
 11 18  1  0  0  0  0
 12 11  1  0  0  0  0
 13 14  1  0  0  0  0
 15 13  1  0  0  0  0
 16 45  1  0  0  0  0
 16 46  1  0  0  0  0
 17 56  2  0  0  0  0
 18 42  2  0  0  0  0
 19 18  1  0  0  0  0
 20  2  1  0  0  0  0
 21 20  1  0  0  0  0
 22 23  1  0  0  0  0
 22 35  2  0  0  0  0
 24 22  1  0  0  0  0
 25 53  1  0  0  0  0
 26  8  1  0  0  0  0
 27 26  1  0  0  0  0
 28 56  1  0  0  0  0
 28  9  2  0  0  0  0
 29  6  2  0  0  0  0
 30 32  1  0  0  0  0
 30 13  1  0  0  0  0
 31 30  1  0  0  0  0
 33 37  2  0  0  0  0
 33 29  1  0  0  0  0
 34 33  1  0  0  0  0
 35 36  1  0  0  0  0
 37 28  1  0  0  0  0
 38 37  1  0  0  0  0
 40 20  2  0  0  0  0
 40  1  1  0  0  0  0
 41 40  1  0  0  0  0
 42 35  1  0  0  0  0
 42 45  1  0  0  0  0
 43 26  2  0  0  0  0
 43  4  1  0  0  0  0
 44 43  1  0  0  0  0
 45 39  2  0  0  0  0
 46 48  1  0  0  0  0
 46 47  1  0  0  0  0
 49 52  1  0  0  0  0
 49 46  1  0  0  0  0
 50 49  1  0  0  0  0
 51 49  1  0  0  0  0
 53 55  1  0  0  0  0
 54 53  1  0  0  0  0
 56 25  1  0  0  0  0
 57 60  1  0  0  0  0
 57 58  1  0  0  0  0
 57 53  1  0  0  0  0
 59 57  1  0  0  0  0
M  END
