3,6
 OpenBabel05122313053D

 30 31  0  0  0  0  0  0  0  0999 V2000
   -2.2428    1.2784    0.8753 N   0  0  0  0  0  0  0  0  0  0  0  0
    1.6319    1.6607   -1.1506 N   0  0  0  0  0  0  0  0  0  0  0  0
   -1.2889    1.0511   -0.0948 C   0  0  0  0  0  2  0  0  0  0  0  0
   -1.3195    2.1835   -0.8696 N   0  0  0  0  0  0  0  0  0  0  0  0
    2.4654    1.0397    0.7542 N   0  0  0  0  0  0  0  0  0  0  0  0
    1.4629    0.7589   -0.1391 C   0  0  0  0  0  2  0  0  0  0  0  0
   -2.5094    0.3759    1.9373 C   0  0  0  0  0  0  0  0  0  0  0  0
   -2.1842   -0.6499    1.6960 H   0  0  0  0  0  0  0  0  0  0  0  0
    3.2482    2.1010    0.2922 C   0  0  0  0  0  0  0  0  0  0  0  0
    4.1322    2.4530    0.8295 H   0  0  0  0  0  0  0  0  0  0  0  0
   -2.8642    2.5096    0.6878 C   0  0  0  0  0  0  0  0  0  0  0  0
   -3.6778    2.8585    1.3283 H   0  0  0  0  0  0  0  0  0  0  0  0
    2.6526    0.3027    1.9495 C   0  0  0  0  0  0  0  0  0  0  0  0
    2.1241   -0.6644    1.9125 H   0  0  0  0  0  0  0  0  0  0  0  0
   -0.5381    2.4946   -2.0711 C   0  0  0  0  0  0  0  0  0  0  0  0
   -1.1845    2.3653   -2.9659 H   0  0  0  0  0  0  0  0  0  0  0  0
   -0.2746    3.5705   -2.0063 H   0  0  0  0  0  0  0  0  0  0  0  0
    0.7281    1.6687   -2.2915 C   0  0  0  0  0  0  0  0  0  0  0  0
    1.2590    2.0820   -3.1717 H   0  0  0  0  0  0  0  0  0  0  0  0
    0.4722    0.6107   -2.5030 H   0  0  0  0  0  0  0  0  0  0  0  0
   -2.2855    3.0792   -0.4082 C   0  0  0  0  0  0  0  0  0  0  0  0
   -2.4913    4.0268   -0.9146 H   0  0  0  0  0  0  0  0  0  0  0  0
    2.7208    2.4933   -0.9084 C   0  0  0  0  0  0  0  0  0  0  0  0
    3.0483    3.2620   -1.6148 H   0  0  0  0  0  0  0  0  0  0  0  0
   -3.1222    0.7226    3.0808 C   0  0  0  0  0  0  0  0  0  0  0  0
   -3.4407    1.7502    3.3135 H   0  0  0  0  0  0  0  0  0  0  0  0
   -3.3166   -0.0513    3.8355 H   0  0  0  0  0  0  0  0  0  0  0  0
    3.4110    0.7103    2.9796 C   0  0  0  0  0  0  0  0  0  0  0  0
    3.9354    1.6777    3.0001 H   0  0  0  0  0  0  0  0  0  0  0  0
    3.5205    0.0553    3.8543 H   0  0  0  0  0  0  0  0  0  0  0  0
  1  7  1  0  0  0  0
  2 23  1  0  0  0  0
  2  6  1  0  0  0  0
  3  1  1  0  0  0  0
  4 21  1  0  0  0  0
  4  3  1  0  0  0  0
  5 13  1  0  0  0  0
  6  5  1  0  0  0  0
  7 25  2  0  0  0  0
  8  7  1  0  0  0  0
  9  5  1  0  0  0  0
  9 10  1  0  0  0  0
 11  1  1  0  0  0  0
 11 12  1  0  0  0  0
 13 28  2  0  0  0  0
 14 13  1  0  0  0  0
 15 17  1  0  0  0  0
 15  4  1  0  0  0  0
 16 15  1  0  0  0  0
 18 15  1  0  0  0  0
 18  2  1  0  0  0  0
 19 18  1  0  0  0  0
 20 18  1  0  0  0  0
 21 11  2  0  0  0  0
 22 21  1  0  0  0  0
 23  9  2  0  0  0  0
 24 23  1  0  0  0  0
 25 26  1  0  0  0  0
 25 27  1  0  0  0  0
 28 29  1  0  0  0  0
 28 30  1  0  0  0  0
M  END
