5,7
 OpenBabel05122313053D

 68 71  0  0  1  0  0  0  0  0999 V2000
    4.1882   -1.4570    0.2040 O   0  0  0  0  0  0  0  0  0  0  0  0
    2.8655    2.8985   -1.7869 O   0  0  0  0  0  0  0  0  0  0  0  0
   -6.3062    1.1616   -1.1090 O   0  0  0  0  0  0  0  0  0  0  0  0
    1.3698    0.8307   -0.4979 C   0  0  1  0  0  0  0  0  0  0  0  0
    2.4133   -0.2295   -0.7845 C   0  0  0  0  0  3  0  0  0  0  0  0
    2.9265   -0.9727    0.3081 C   0  0  1  0  0  3  0  0  0  0  0  0
    2.0381   -1.2622    1.3949 C   0  0  0  0  0  3  0  0  0  0  0  0
    0.7040   -0.7215    1.3680 C   0  0  2  0  0  3  0  0  0  0  0  0
   -0.2162   -1.0622    2.5298 C   0  0  0  0  0  0  0  0  0  0  0  0
   -1.4972   -0.2272    2.5464 C   0  0  0  0  0  0  0  0  0  0  0  0
   -2.1090   -0.1512    1.1472 C   0  0  2  0  0  0  0  0  0  0  0  0
   -1.1415    0.6030    0.2027 C   0  0  1  0  0  0  0  0  0  0  0  0
    0.2856    0.0830    0.2703 C   0  0  1  0  0  3  0  0  0  0  0  0
   -1.7116    0.7180   -1.2267 C   0  0  0  0  0  0  0  0  0  0  0  0
   -3.1193    1.3343   -1.2513 C   0  0  0  0  0  0  0  0  0  0  0  0
   -4.0747    0.5677   -0.3253 C   0  0  1  0  0  0  0  0  0  0  0  0
   -3.4696    0.5416    1.0994 C   0  0  1  0  0  0  0  0  0  0  0  0
   -4.6244    0.0462    1.9893 C   0  0  0  0  0  0  0  0  0  0  0  0
   -5.8989    0.6232    1.3092 C   0  0  0  0  0  0  0  0  0  0  0  0
   -5.4122    1.2745   -0.0219 C   0  0  2  0  0  0  0  0  0  0  0  0
   -4.3609   -0.8373   -0.8907 C   0  0  0  0  0  0  0  0  0  0  0  0
   -7.4573    1.9612   -0.9895 C   0  0  0  0  0  0  0  0  0  0  0  0
    4.6308   -2.4283    1.1446 C   0  0  0  0  0  0  0  0  0  0  0  0
    1.9127    2.0771    0.2386 C   0  0  0  0  0  0  0  0  0  0  0  0
    3.0048    2.7652   -0.5793 C   0  0  0  0  0  0  0  0  0  0  0  0
    4.2761    3.2503    0.1504 C   0  0  0  0  0  0  0  0  0  0  0  0
    3.8749    4.2213    1.2809 C   0  0  0  0  0  0  0  0  0  0  0  0
    4.9944    2.0175    0.7460 C   0  0  0  0  0  0  0  0  0  0  0  0
    5.1953    3.9555   -0.8548 C   0  0  0  0  0  0  0  0  0  0  0  0
    0.9716    1.1759   -1.4702 H   0  0  0  0  0  0  0  0  0  0  0  0
    3.0587   -0.1419   -1.6704 H   0  0  0  0  0  0  0  0  0  0  0  0
    2.3502   -1.8743    2.2499 H   0  0  0  0  0  0  0  0  0  0  0  0
    0.3601   -0.9055    3.4663 H   0  0  0  0  0  0  0  0  0  0  0  0
   -0.4688   -2.1423    2.5103 H   0  0  0  0  0  0  0  0  0  0  0  0
   -1.2808    0.8059    2.9009 H   0  0  0  0  0  0  0  0  0  0  0  0
   -2.2155   -0.6641    3.2691 H   0  0  0  0  0  0  0  0  0  0  0  0
   -2.2305   -1.1917    0.7717 H   0  0  0  0  0  0  0  0  0  0  0  0
   -1.0916    1.6504    0.5995 H   0  0  0  0  0  0  0  0  0  0  0  0
   -1.7339   -0.2914   -1.6823 H   0  0  0  0  0  0  0  0  0  0  0  0
   -1.0319    1.3203   -1.8626 H   0  0  0  0  0  0  0  0  0  0  0  0
   -3.5139    1.3543   -2.2884 H   0  0  0  0  0  0  0  0  0  0  0  0
   -3.0660    2.3927   -0.9100 H   0  0  0  0  0  0  0  0  0  0  0  0
   -3.2882    1.6097    1.3730 H   0  0  0  0  0  0  0  0  0  0  0  0
   -4.5169    0.3802    3.0399 H   0  0  0  0  0  0  0  0  0  0  0  0
   -4.6493   -1.0631    2.0088 H   0  0  0  0  0  0  0  0  0  0  0  0
   -6.4226    1.3531    1.9570 H   0  0  0  0  0  0  0  0  0  0  0  0
   -6.6292   -0.1744    1.0637 H   0  0  0  0  0  0  0  0  0  0  0  0
   -5.1947    2.3589    0.1598 H   0  0  0  0  0  0  0  0  0  0  0  0
   -4.9886   -1.4462   -0.2118 H   0  0  0  0  0  0  0  0  0  0  0  0
   -4.9124   -0.7384   -1.8449 H   0  0  0  0  0  0  0  0  0  0  0  0
   -3.4344   -1.4101   -1.0838 H   0  0  0  0  0  0  0  0  0  0  0  0
   -8.0442    1.8464   -1.9219 H   0  0  0  0  0  0  0  0  0  0  0  0
   -8.1042    1.6614   -0.1302 H   0  0  0  0  0  0  0  0  0  0  0  0
   -7.2029    3.0427   -0.8609 H   0  0  0  0  0  0  0  0  0  0  0  0
    5.6529   -2.7125    0.8351 H   0  0  0  0  0  0  0  0  0  0  0  0
    4.6684   -2.0120    2.1748 H   0  0  0  0  0  0  0  0  0  0  0  0
    3.9854   -3.3319    1.1325 H   0  0  0  0  0  0  0  0  0  0  0  0
    2.2611    1.8024    1.2533 H   0  0  0  0  0  0  0  0  0  0  0  0
    1.0925    2.8174    0.3691 H   0  0  0  0  0  0  0  0  0  0  0  0
    3.2148    3.7415    2.0311 H   0  0  0  0  0  0  0  0  0  0  0  0
    4.7821    4.5747    1.8130 H   0  0  0  0  0  0  0  0  0  0  0  0
    3.3506    5.1121    0.8790 H   0  0  0  0  0  0  0  0  0  0  0  0
    4.3877    1.5141    1.5249 H   0  0  0  0  0  0  0  0  0  0  0  0
    5.2327    1.2646   -0.0317 H   0  0  0  0  0  0  0  0  0  0  0  0
    5.9465    2.3365    1.2179 H   0  0  0  0  0  0  0  0  0  0  0  0
    5.4827    3.2716   -1.6765 H   0  0  0  0  0  0  0  0  0  0  0  0
    4.6885    4.8249   -1.3170 H   0  0  0  0  0  0  0  0  0  0  0  0
    6.1165    4.3106   -0.3504 H   0  0  0  0  0  0  0  0  0  0  0  0
  1 23  1  0  0  0  0
  2 25  2  0  0  0  0
  3 22  1  0  0  0  0
  3 20  1  0  0  0  0
  4 30  1  6  0  0  0
  4 24  1  0  0  0  0
  4 13  1  0  0  0  0
  5  4  1  0  0  0  0
  5  6  1  0  0  0  0
  6  1  1  6  0  0  0
  6  7  1  0  0  0  0
  7 32  1  0  0  0  0
  8  7  1  6  0  0  0
  8  9  1  0  0  0  0
  9 10  1  0  0  0  0
  9 33  1  0  0  0  0
 10 35  1  0  0  0  0
 10 36  1  0  0  0  0
 11 37  1  6  0  0  0
 11 10  1  0  0  0  0
 12 13  1  0  0  0  0
 12 38  1  1  0  0  0
 12 11  1  0  0  0  0
 13  8  1  0  0  0  0
 14 12  1  0  0  0  0
 15 14  1  0  0  0  0
 15 42  1  0  0  0  0
 15 16  1  0  0  0  0
 16 20  1  0  0  0  0
 16 17  1  0  0  0  0
 17 11  1  0  0  0  0
 17 43  1  0  0  0  0
 17 18  1  0  0  0  0
 18 45  1  0  0  0  0
 18 44  1  0  0  0  0
 19 46  1  0  0  0  0
 19 18  1  0  0  0  0
 20 48  1  0  0  0  0
 20 19  1  0  0  0  0
 21 16  1  0  0  0  0
 21 49  1  0  0  0  0
 22 54  1  0  0  0  0
 22 53  1  0  0  0  0
 23 56  1  0  0  0  0
 24 59  1  0  0  0  0
 24 58  1  0  0  0  0
 25 26  1  0  0  0  0
 25 24  1  0  0  0  0
 26 28  1  0  0  0  0
 26 27  1  0  0  0  0
 27 61  1  0  0  0  0
 27 60  1  0  0  0  0
 28 65  1  0  0  0  0
 28 63  1  0  0  0  0
 29 68  1  0  0  0  0
 29 26  1  0  0  0  0
 31  5  1  0  0  0  0
 34  9  1  0  0  0  0
 39 14  1  0  0  0  0
 40 14  1  0  0  0  0
 41 15  1  0  0  0  0
 47 19  1  0  0  0  0
 50 21  1  0  0  0  0
 51 21  1  0  0  0  0
 52 22  1  0  0  0  0
 55 23  1  0  0  0  0
 57 23  1  0  0  0  0
 62 27  1  0  0  0  0
 64 28  1  0  0  0  0
 66 29  1  0  0  0  0
 67 29  1  0  0  0  0
M  END
