7,9
 OpenBabel05122313053D

 38 39  0  0  1  0  0  0  0  0999 V2000
   -2.2215    1.3074   -0.1723 C   0  0  1  0  0  0  0  0  0  0  0  0
   -2.9907    0.0049   -0.0525 C   0  0  0  0  0  0  0  0  0  0  0  0
   -2.2282   -1.0670   -0.4293 C   0  0  0  0  0  0  0  0  0  0  0  0
   -0.8702   -0.5863   -0.7929 C   0  0  0  0  0  0  0  0  0  0  0  0
    0.3102   -1.2594   -1.2221 C   0  0  0  0  0  0  0  0  0  0  0  0
    1.5116   -0.4735   -1.4427 C   0  0  2  0  0  3  0  0  0  0  0  0
    1.5365    0.9356   -1.1844 C   0  0  2  0  0  3  0  0  0  0  0  0
    0.3366    1.6126   -0.7313 C   0  0  1  0  0  3  0  0  0  0  0  0
   -0.8359    0.8393   -0.5666 C   0  0  1  0  0  3  0  0  0  0  0  0
   -2.6710   -2.4981   -0.3970 C   0  0  0  0  0  0  0  0  0  0  0  0
   -4.3903    0.0042    0.4674 C   0  0  0  0  0  0  0  0  0  0  0  0
   -2.8452    2.2532   -1.2196 C   0  0  0  0  0  0  0  0  0  0  0  0
    0.3350    3.0873   -0.4125 C   0  0  0  0  0  0  0  0  0  0  0  0
    2.8054    1.7239   -1.4111 C   0  0  0  0  0  0  0  0  0  0  0  0
    2.7387   -1.1889   -1.9546 C   0  0  0  0  0  0  0  0  0  0  0  0
    0.3661   -2.7385   -1.5104 C   0  0  0  0  0  0  0  0  0  0  0  0
   -2.1999    1.8207    0.8155 H   0  0  0  0  0  0  0  0  0  0  0  0
   -2.0452   -3.0963    0.2977 H   0  0  0  0  0  0  0  0  0  0  0  0
   -2.6132   -2.9806   -1.3945 H   0  0  0  0  0  0  0  0  0  0  0  0
   -3.7181   -2.5826   -0.0518 H   0  0  0  0  0  0  0  0  0  0  0  0
   -5.0473    0.6791   -0.1220 H   0  0  0  0  0  0  0  0  0  0  0  0
   -4.4126    0.3782    1.5144 H   0  0  0  0  0  0  0  0  0  0  0  0
   -4.8501   -1.0015    0.4609 H   0  0  0  0  0  0  0  0  0  0  0  0
   -2.2729    3.1955   -1.3151 H   0  0  0  0  0  0  0  0  0  0  0  0
   -3.8837    2.5193   -0.9399 H   0  0  0  0  0  0  0  0  0  0  0  0
   -2.8715    1.7628   -2.2134 H   0  0  0  0  0  0  0  0  0  0  0  0
   -0.5545   -3.2584   -1.2111 H   0  0  0  0  0  0  0  0  0  0  0  0
    1.2090   -3.2244   -0.9831 H   0  0  0  0  0  0  0  0  0  0  0  0
    0.5173   -2.9127   -2.5965 H   0  0  0  0  0  0  0  0  0  0  0  0
    1.2212    3.3766    0.1834 H   0  0  0  0  0  0  0  0  0  0  0  0
   -0.5549    3.3630    0.1810 H   0  0  0  0  0  0  0  0  0  0  0  0
    0.3355    3.7034   -1.3365 H   0  0  0  0  0  0  0  0  0  0  0  0
    3.0145    1.8254   -2.4970 H   0  0  0  0  0  0  0  0  0  0  0  0
    3.6812    1.2381   -0.9421 H   0  0  0  0  0  0  0  0  0  0  0  0
    2.7374    2.7415   -0.9916 H   0  0  0  0  0  0  0  0  0  0  0  0
    3.6207   -0.5297   -2.0043 H   0  0  0  0  0  0  0  0  0  0  0  0
    2.5579   -1.5831   -2.9770 H   0  0  0  0  0  0  0  0  0  0  0  0
    3.0046   -2.0541   -1.3172 H   0  0  0  0  0  0  0  0  0  0  0  0
  1  2  1  0  0  0  0
  1 17  1  1  0  0  0
  2 11  1  0  0  0  0
  3 10  1  0  0  0  0
  3  2  2  0  0  0  0
  4  3  1  0  0  0  0
  5  4  2  0  0  0  0
  6 15  1  6  0  0  0
  6  5  1  0  0  0  0
  6  7  1  0  0  0  0
  7 14  1  6  0  0  0
  7  8  1  0  0  0  0
  8  9  1  0  0  0  0
  8 13  1  1  0  0  0
  9  4  1  6  0  0  0
  9  1  1  0  0  0  0
 10 20  1  0  0  0  0
 10 18  1  0  0  0  0
 11 22  1  0  0  0  0
 12 25  1  0  0  0  0
 12  1  1  0  0  0  0
 13 31  1  0  0  0  0
 13 30  1  0  0  0  0
 14 35  1  0  0  0  0
 14 34  1  0  0  0  0
 15 38  1  0  0  0  0
 16  5  1  0  0  0  0
 16 27  1  0  0  0  0
 16 28  1  0  0  0  0
 19 10  1  0  0  0  0
 21 11  1  0  0  0  0
 23 11  1  0  0  0  0
 24 12  1  0  0  0  0
 26 12  1  0  0  0  0
 29 16  1  0  0  0  0
 32 13  1  0  0  0  0
 33 14  1  0  0  0  0
 36 15  1  0  0  0  0
 37 15  1  0  0  0  0
M  END
