5,9
 OpenBabel05122313053D

 37 37  0  0  1  0  0  0  0  0999 V2000
    2.7674    0.4913    0.6136 O   0  0  0  0  0  0  0  0  0  0  0  0
    2.9539   -1.7037   -0.0446 O   0  0  0  0  0  0  0  0  0  0  0  0
   -3.3063   -1.7450    0.4892 N   0  0  0  0  0  0  0  0  0  0  0  0
    0.8183   -0.7635   -0.0985 C   0  0  2  0  0  3  0  0  0  0  0  0
   -0.0119   -1.1399   -1.1905 C   0  0  0  0  0  3  0  0  0  0  0  0
   -1.3877   -1.4374   -1.0134 C   0  0  0  0  0  3  0  0  0  0  0  0
   -1.9857   -1.4104    0.2974 C   0  0  0  0  0  0  0  0  0  0  0  0
   -1.1666   -0.9356    1.3789 C   0  0  0  0  0  0  0  0  0  0  0  0
    0.2079   -0.6351    1.1767 C   0  0  0  0  0  3  0  0  0  0  0  0
    2.2977   -0.4906   -0.2850 C   0  0  0  0  0  0  0  0  0  0  0  0
    2.9528    1.7913    0.0493 C   0  0  0  0  0  0  0  0  0  0  0  0
    3.3372    2.7481    1.1597 C   0  0  0  0  0  0  0  0  0  0  0  0
    4.3515   -1.6670   -0.3305 C   0  0  0  0  0  0  0  0  0  0  0  0
    4.9390   -3.0329   -0.0323 C   0  0  0  0  0  0  0  0  0  0  0  0
   -3.9480   -1.4038    1.7495 C   0  0  0  0  0  0  0  0  0  0  0  0
   -4.1682   -1.9486   -0.6652 C   0  0  0  0  0  0  0  0  0  0  0  0
    0.4124   -1.1764   -2.2047 H   0  0  0  0  0  0  0  0  0  0  0  0
   -1.9905   -1.6741   -1.8958 H   0  0  0  0  0  0  0  0  0  0  0  0
   -1.5943   -0.7812    2.3745 H   0  0  0  0  0  0  0  0  0  0  0  0
    0.8185   -0.2615    2.0100 H   0  0  0  0  0  0  0  0  0  0  0  0
    2.4859   -0.1473   -1.3383 H   0  0  0  0  0  0  0  0  0  0  0  0
    3.7483    1.7468   -0.7344 H   0  0  0  0  0  0  0  0  0  0  0  0
    2.0170    2.1318   -0.4490 H   0  0  0  0  0  0  0  0  0  0  0  0
    3.5396    3.7545    0.7429 H   0  0  0  0  0  0  0  0  0  0  0  0
    4.2478    2.3967    1.6853 H   0  0  0  0  0  0  0  0  0  0  0  0
    2.5143    2.8404    1.8946 H   0  0  0  0  0  0  0  0  0  0  0  0
    4.5063   -1.3897   -1.4035 H   0  0  0  0  0  0  0  0  0  0  0  0
    4.8395   -0.8778    0.2845 H   0  0  0  0  0  0  0  0  0  0  0  0
    6.0259   -3.0433   -0.2474 H   0  0  0  0  0  0  0  0  0  0  0  0
    4.4517   -3.8152   -0.6477 H   0  0  0  0  0  0  0  0  0  0  0  0
    4.7914   -3.2939    1.0344 H   0  0  0  0  0  0  0  0  0  0  0  0
   -4.9747   -1.8121    1.7519 H   0  0  0  0  0  0  0  0  0  0  0  0
   -4.0087   -0.3028    1.9100 H   0  0  0  0  0  0  0  0  0  0  0  0
   -3.4096   -1.8558    2.6063 H   0  0  0  0  0  0  0  0  0  0  0  0
   -5.1503   -2.3180   -0.3180 H   0  0  0  0  0  0  0  0  0  0  0  0
   -3.7481   -2.7174   -1.3435 H   0  0  0  0  0  0  0  0  0  0  0  0
   -4.3328   -1.0121   -1.2456 H   0  0  0  0  0  0  0  0  0  0  0  0
  3 15  1  0  0  0  0
  4 10  1  6  0  0  0
  4  9  1  0  0  0  0
  5  6  1  0  0  0  0
  5  4  1  0  0  0  0
  6  7  1  0  0  0  0
  7  3  1  0  0  0  0
  7  8  2  0  0  0  0
  8 19  1  0  0  0  0
  9  8  1  0  0  0  0
  9 20  1  0  0  0  0
 10  2  1  0  0  0  0
 10  1  1  0  0  0  0
 11  1  1  0  0  0  0
 11 12  1  0  0  0  0
 12 25  1  0  0  0  0
 12 26  1  0  0  0  0
 13  2  1  0  0  0  0
 13 14  1  0  0  0  0
 13 28  1  0  0  0  0
 14 31  1  0  0  0  0
 15 32  1  0  0  0  0
 15 33  1  0  0  0  0
 15 34  1  0  0  0  0
 16 35  1  0  0  0  0
 16  3  1  0  0  0  0
 17  5  1  0  0  0  0
 18  6  1  0  0  0  0
 21 10  1  0  0  0  0
 22 11  1  0  0  0  0
 23 11  1  0  0  0  0
 24 12  1  0  0  0  0
 27 13  1  0  0  0  0
 29 14  1  0  0  0  0
 30 14  1  0  0  0  0
 36 16  1  0  0  0  0
 37 16  1  0  0  0  0
M  END
