2,4
 OpenBabel05122313053D

 27 29  0  0  1  0  0  0  0  0999 V2000
    1.1615    2.3573    0.3391 O   0  0  0  0  0  0  0  0  0  0  0  0
   -1.0977    0.9932   -1.6917 C   0  0  0  0  0  3  0  0  0  0  0  0
   -2.0549   -0.0140   -2.0319 C   0  0  0  0  0  3  0  0  0  0  0  0
   -1.7506   -1.3829   -1.8062 C   0  0  0  0  0  3  0  0  0  0  0  0
   -0.4691   -1.7854   -1.3150 C   0  0  0  0  0  3  0  0  0  0  0  0
    0.4809   -0.7803   -1.0120 C   0  0  0  0  0  0  0  0  0  0  0  0
    0.1691    0.6172   -1.1835 C   0  0  0  0  0  0  0  0  0  0  0  0
    1.3616    1.4722   -0.7452 C   0  0  2  0  0  0  0  0  0  0  0  0
    1.8490   -0.8867   -0.4776 C   0  0  0  0  0  0  0  0  0  0  0  0
    2.6073   -2.0105   -0.1224 C   0  0  0  0  0  0  0  0  0  0  0  0
    3.8977   -1.8097    0.3947 C   0  0  0  0  0  0  0  0  0  0  0  0
    4.4115   -0.5102    0.5605 C   0  0  0  0  0  0  0  0  0  0  0  0
    3.6471    0.6162    0.2045 C   0  0  0  0  0  0  0  0  0  0  0  0
    2.3721    0.4170   -0.3275 C   0  0  0  0  0  0  0  0  0  0  0  0
    0.3898    3.5048    0.0512 C   0  0  0  0  0  0  0  0  0  0  0  0
   -1.3620    2.0522   -1.8151 H   0  0  0  0  0  0  0  0  0  0  0  0
   -3.0527    0.2758   -2.3864 H   0  0  0  0  0  0  0  0  0  0  0  0
   -2.5182   -2.1454   -1.9993 H   0  0  0  0  0  0  0  0  0  0  0  0
   -0.2489   -2.8457   -1.1340 H   0  0  0  0  0  0  0  0  0  0  0  0
    1.7325    2.0517   -1.6323 H   0  0  0  0  0  0  0  0  0  0  0  0
    2.2012   -3.0270   -0.2342 H   0  0  0  0  0  0  0  0  0  0  0  0
    4.5101   -2.6776    0.6819 H   0  0  0  0  0  0  0  0  0  0  0  0
    5.4204   -0.3746    0.9786 H   0  0  0  0  0  0  0  0  0  0  0  0
    4.0372    1.6343    0.3501 H   0  0  0  0  0  0  0  0  0  0  0  0
    0.5373    4.2136    0.8890 H   0  0  0  0  0  0  0  0  0  0  0  0
   -0.6990    3.2839   -0.0169 H   0  0  0  0  0  0  0  0  0  0  0  0
    0.7174    3.9974   -0.8964 H   0  0  0  0  0  0  0  0  0  0  0  0
  2  7  1  0  0  0  0
  3  4  1  0  0  0  0
  3  2  1  0  0  0  0
  4  5  1  0  0  0  0
  5 19  1  0  0  0  0
  5  6  1  0  0  0  0
  6  9  1  0  0  0  0
  7  6  2  0  0  0  0
  7  8  1  0  0  0  0
  8 20  1  6  0  0  0
  8 14  1  0  0  0  0
  8  1  1  0  0  0  0
  9 14  2  0  0  0  0
  9 10  1  0  0  0  0
 10 11  2  0  0  0  0
 11 12  1  0  0  0  0
 11 22  1  0  0  0  0
 12 23  1  0  0  0  0
 13 24  1  0  0  0  0
 13 12  2  0  0  0  0
 14 13  1  0  0  0  0
 15  1  1  0  0  0  0
 15 25  1  0  0  0  0
 16  2  1  0  0  0  0
 17  3  1  0  0  0  0
 18  4  1  0  0  0  0
 21 10  1  0  0  0  0
 26 15  1  0  0  0  0
 27 15  1  0  0  0  0
M  END
