1,9
 OpenBabel05122313053D

 11 10  0  0  0  0  0  0  0  0999 V2000
   -0.3949   -2.5534    1.0311 C   0  0  0  0  0  3  0  0  0  0  0  0
    0.4403   -2.8331    1.7042 H   0  0  0  0  0  0  0  0  0  0  0  0
   -1.2940   -2.3749    1.6440 H   0  0  0  0  0  0  0  0  0  0  0  0
   -0.6883   -3.5544   -0.1002 C   0  0  0  0  0  0  0  0  0  0  0  0
    0.0886   -4.3368   -0.2236 H   0  0  0  0  0  0  0  0  0  0  0  0
   -1.6607   -4.0751    0.0136 H   0  0  0  0  0  0  0  0  0  0  0  0
   -0.7111   -2.6068   -1.2946 C   0  0  0  0  0  3  0  0  0  0  0  0
   -1.6793   -2.3729   -1.7610 H   0  0  0  0  0  0  0  0  0  0  0  0
    0.4504   -2.1373   -1.9154 C   0  0  0  0  0  3  0  0  0  0  0  0
    0.3750   -1.5561   -2.8458 H   0  0  0  0  0  0  0  0  0  0  0  0
    1.4263   -2.6108   -1.7439 H   0  0  0  0  0  0  0  0  0  0  0  0
  1  3  1  0  0  0  0
  1  2  1  0  0  0  0
  4  6  1  0  0  0  0
  4  1  1  0  0  0  0
  5  4  1  0  0  0  0
  7  4  1  0  0  0  0
  8  7  1  0  0  0  0
  9 11  1  0  0  0  0
  9  7  1  0  0  0  0
 10  9  1  0  0  0  0
M  END
