5,18
 OpenBabel05122313053D

 68 69  0  0  1  0  0  0  0  0999 V2000
    3.6796   -1.0105   -0.0988 N   0  0  0  0  0  0  0  0  0  0  0  0
   -3.6797   -1.0106    0.0993 N   0  0  0  0  0  0  0  0  0  0  0  0
    2.3734    1.0215   -1.1665 C   0  0  0  0  0  0  0  0  0  0  0  0
    1.7477    2.2654   -0.9852 C   0  0  0  0  0  0  0  0  0  0  0  0
    1.3854    2.7819    0.2952 C   0  0  2  0  0  3  0  0  0  0  0  0
    1.6873    1.9877    1.4402 C   0  0  0  0  0  3  0  0  0  0  0  0
    2.3187    0.7355    1.3710 C   0  0  0  0  0  0  0  0  0  0  0  0
    4.3465   -1.6842    1.0342 C   0  0  0  0  0  0  0  0  0  0  0  0
    5.2296   -0.7310    1.8541 C   0  0  0  0  0  0  0  0  0  0  0  0
    3.3831   -2.4966    1.9126 C   0  0  0  0  0  0  0  0  0  0  0  0
    4.0441   -1.5315   -1.4282 C   0  0  0  0  0  0  0  0  0  0  0  0
    3.7207   -3.0248   -1.5963 C   0  0  0  0  0  0  0  0  0  0  0  0
    5.5019   -1.2159   -1.8005 C   0  0  0  0  0  0  0  0  0  0  0  0
    0.6480    4.1001    0.4210 C   0  0  0  0  0  0  0  0  0  0  0  0
   -0.6480    4.1003   -0.4184 C   0  0  0  0  0  0  0  0  0  0  0  0
   -2.3200    0.7368   -1.3701 C   0  0  0  0  0  0  0  0  0  0  0  0
   -1.6887    1.9890   -1.4387 C   0  0  0  0  0  0  0  0  0  0  0  0
   -1.3854    2.7821   -0.2932 C   0  0  1  0  0  3  0  0  0  0  0  0
   -1.7464    2.2643    0.9871 C   0  0  0  0  0  3  0  0  0  0  0  0
   -2.3720    1.0202    1.1678 C   0  0  0  0  0  0  0  0  0  0  0  0
   -4.3471   -1.6835   -1.0337 C   0  0  0  0  0  0  0  0  0  0  0  0
   -5.2310   -0.7299   -1.8523 C   0  0  0  0  0  0  0  0  0  0  0  0
   -3.3840   -2.4947   -1.9134 C   0  0  0  0  0  0  0  0  0  0  0  0
   -4.0436   -1.5323    1.4286 C   0  0  0  0  0  0  0  0  0  0  0  0
   -5.5012   -1.2167    1.8018 C   0  0  0  0  0  0  0  0  0  0  0  0
   -3.7205   -3.0258    1.5956 C   0  0  0  0  0  0  0  0  0  0  0  0
    2.8754    0.1773    0.0351 B   0  0  0  0  0  0  0  0  0  0  0  0
   -2.8754    0.1773   -0.0341 B   0  0  0  0  0  0  0  0  0  0  0  0
    2.5255    0.7294   -2.2181 H   0  0  0  0  0  0  0  0  0  0  0  0
    1.4613    2.8607   -1.8704 H   0  0  0  0  0  0  0  0  0  0  0  0
    1.3335    2.3675    2.4160 H   0  0  0  0  0  0  0  0  0  0  0  0
    2.4026    0.2054    2.3313 H   0  0  0  0  0  0  0  0  0  0  0  0
    5.0421   -2.4238    0.5846 H   0  0  0  0  0  0  0  0  0  0  0  0
    5.9629   -0.2222    1.1979 H   0  0  0  0  0  0  0  0  0  0  0  0
    5.7880   -1.2900    2.6328 H   0  0  0  0  0  0  0  0  0  0  0  0
    4.6345    0.0533    2.3604 H   0  0  0  0  0  0  0  0  0  0  0  0
    2.7852   -3.1953    1.2957 H   0  0  0  0  0  0  0  0  0  0  0  0
    2.6741   -1.8497    2.4637 H   0  0  0  0  0  0  0  0  0  0  0  0
    3.9463   -3.0908    2.6614 H   0  0  0  0  0  0  0  0  0  0  0  0
    3.4011   -0.9976   -2.1532 H   0  0  0  0  0  0  0  0  0  0  0  0
    2.6553   -3.2252   -1.3664 H   0  0  0  0  0  0  0  0  0  0  0  0
    4.3418   -3.6680   -0.9396 H   0  0  0  0  0  0  0  0  0  0  0  0
    3.9128   -3.3428   -2.6410 H   0  0  0  0  0  0  0  0  0  0  0  0
    5.6925   -0.1261   -1.7355 H   0  0  0  0  0  0  0  0  0  0  0  0
    5.7284   -1.5493   -2.8341 H   0  0  0  0  0  0  0  0  0  0  0  0
    6.2182   -1.7288   -1.1249 H   0  0  0  0  0  0  0  0  0  0  0  0
    0.4073    4.2676    1.4912 H   0  0  0  0  0  0  0  0  0  0  0  0
    1.2983    4.9507    0.1209 H   0  0  0  0  0  0  0  0  0  0  0  0
   -0.4073    4.2682   -1.4886 H   0  0  0  0  0  0  0  0  0  0  0  0
   -1.2983    4.9508   -0.1180 H   0  0  0  0  0  0  0  0  0  0  0  0
   -2.4050    0.2077   -2.3308 H   0  0  0  0  0  0  0  0  0  0  0  0
   -1.3358    2.3698   -2.4145 H   0  0  0  0  0  0  0  0  0  0  0  0
   -1.4590    2.8586    1.8726 H   0  0  0  0  0  0  0  0  0  0  0  0
   -2.5230    0.7270    2.2193 H   0  0  0  0  0  0  0  0  0  0  0  0
   -5.0422   -2.4236   -0.5843 H   0  0  0  0  0  0  0  0  0  0  0  0
   -5.9641   -0.2219   -1.1953 H   0  0  0  0  0  0  0  0  0  0  0  0
   -5.7898   -1.2885   -2.6311 H   0  0  0  0  0  0  0  0  0  0  0  0
   -4.6366    0.0550   -2.3584 H   0  0  0  0  0  0  0  0  0  0  0  0
   -2.7853   -3.1936   -1.2974 H   0  0  0  0  0  0  0  0  0  0  0  0
   -2.6756   -1.8471   -2.4645 H   0  0  0  0  0  0  0  0  0  0  0  0
   -3.9473   -3.0887   -2.6623 H   0  0  0  0  0  0  0  0  0  0  0  0
   -3.4001   -0.9991    2.1536 H   0  0  0  0  0  0  0  0  0  0  0  0
   -5.6916   -0.1268    1.7376 H   0  0  0  0  0  0  0  0  0  0  0  0
   -5.7273   -1.5507    2.8352 H   0  0  0  0  0  0  0  0  0  0  0  0
   -6.2178   -1.7289    1.1262 H   0  0  0  0  0  0  0  0  0  0  0  0
   -2.6553   -3.2264    1.3651 H   0  0  0  0  0  0  0  0  0  0  0  0
   -4.3420   -3.6685    0.9388 H   0  0  0  0  0  0  0  0  0  0  0  0
   -3.9123   -3.3444    2.6401 H   0  0  0  0  0  0  0  0  0  0  0  0
  1 27  1  0  0  0  0
  1  8  1  0  0  0  0
  2 24  1  0  0  0  0
  3  4  2  0  0  0  0
  3 27  1  0  0  0  0
  4  5  1  0  0  0  0
  5 14  1  6  0  0  0
  5  6  1  0  0  0  0
  6 31  1  0  0  0  0
  7  6  1  0  0  0  0
  7 32  1  0  0  0  0
  8  9  1  0  0  0  0
  8 10  1  0  0  0  0
  9 36  1  0  0  0  0
  9 35  1  0  0  0  0
 10 38  1  0  0  0  0
 10 39  1  0  0  0  0
 11  1  1  0  0  0  0
 12 11  1  0  0  0  0
 12 41  1  0  0  0  0
 12 42  1  0  0  0  0
 13 44  1  0  0  0  0
 13 11  1  0  0  0  0
 13 46  1  0  0  0  0
 14 47  1  0  0  0  0
 15 50  1  0  0  0  0
 15 14  1  0  0  0  0
 16 28  1  0  0  0  0
 17 16  2  0  0  0  0
 17 18  1  0  0  0  0
 18 15  1  1  0  0  0
 18 19  1  0  0  0  0
 19 20  1  0  0  0  0
 19 53  1  0  0  0  0
 20 54  1  0  0  0  0
 21 55  1  0  0  0  0
 21  2  1  0  0  0  0
 22 56  1  0  0  0  0
 22 21  1  0  0  0  0
 23 59  1  0  0  0  0
 23 21  1  0  0  0  0
 24 26  1  0  0  0  0
 24 25  1  0  0  0  0
 24 62  1  0  0  0  0
 25 64  1  0  0  0  0
 26 68  1  0  0  0  0
 27  7  2  0  0  0  0
 28  2  1  0  0  0  0
 28 20  2  0  0  0  0
 29  3  1  0  0  0  0
 30  4  1  0  0  0  0
 33  8  1  0  0  0  0
 34  9  1  0  0  0  0
 37 10  1  0  0  0  0
 40 11  1  0  0  0  0
 43 12  1  0  0  0  0
 45 13  1  0  0  0  0
 48 14  1  0  0  0  0
 49 15  1  0  0  0  0
 51 16  1  0  0  0  0
 52 17  1  0  0  0  0
 57 22  1  0  0  0  0
 58 22  1  0  0  0  0
 60 23  1  0  0  0  0
 61 23  1  0  0  0  0
 63 25  1  0  0  0  0
 65 25  1  0  0  0  0
 66 26  1  0  0  0  0
 67 26  1  0  0  0  0
M  END
