4,10
 OpenBabel05122313053D

 49 50  0  0  1  0  0  0  0  0999 V2000
    1.5542    0.7507    0.1731 B   0  0  0  0  0  0  0  0  0  0  0  0
    0.6824    0.7325    1.4542 C   0  0  0  0  0  0  0  0  0  0  0  0
   -0.6411    1.1984    1.4657 C   0  0  0  0  0  3  0  0  0  0  0  0
   -1.3501    1.6024    0.2908 C   0  0  1  0  0  3  0  0  0  0  0  0
   -0.6163    1.6127   -0.9365 C   0  0  0  0  0  0  0  0  0  0  0  0
    0.7159    1.1853   -1.0555 C   0  0  0  0  0  0  0  0  0  0  0  0
   -2.9048    1.6092    0.2795 C   0  0  0  0  0  0  0  0  0  0  0  0
   -3.5067    2.0854    1.6106 C   0  0  0  0  0  0  0  0  0  0  0  0
   -3.4880    2.4796   -0.8441 C   0  0  0  0  0  0  0  0  0  0  0  0
   -3.1759    0.1128    0.0370 C   0  0  2  0  0  3  0  0  0  0  0  0
   -3.0842   -0.9123    1.0333 C   0  0  0  0  0  3  0  0  0  0  0  0
   -2.9861   -2.1823    0.3832 C   0  0  0  0  0  0  0  0  0  0  0  0
   -2.9892   -1.9564   -1.0147 C   0  0  0  0  0  0  0  0  0  0  0  0
   -3.0886   -0.5464   -1.2315 C   0  0  0  0  0  3  0  0  0  0  0  0
    2.9312    0.3244    0.1357 N   0  0  0  0  0  0  0  0  0  0  0  0
    3.8407    0.5732   -1.0007 C   0  0  0  0  0  0  0  0  0  0  0  0
    3.5735   -0.3354   -2.2105 C   0  0  0  0  0  0  0  0  0  0  0  0
    3.9060    2.0593   -1.3845 C   0  0  0  0  0  0  0  0  0  0  0  0
    3.5658   -0.2769    1.3208 C   0  0  0  0  0  0  0  0  0  0  0  0
    4.2054   -1.6425    1.0223 C   0  0  0  0  0  0  0  0  0  0  0  0
    4.5495    0.6808    2.0120 C   0  0  0  0  0  0  0  0  0  0  0  0
    1.0537    0.3893    2.4337 H   0  0  0  0  0  0  0  0  0  0  0  0
   -1.2021    1.1620    2.4132 H   0  0  0  0  0  0  0  0  0  0  0  0
   -1.1641    1.8804   -1.8543 H   0  0  0  0  0  0  0  0  0  0  0  0
    1.1036    1.1780   -2.0857 H   0  0  0  0  0  0  0  0  0  0  0  0
   -4.6125    2.0353    1.5632 H   0  0  0  0  0  0  0  0  0  0  0  0
   -3.2104    3.1339    1.8138 H   0  0  0  0  0  0  0  0  0  0  0  0
   -3.1912    1.4735    2.4760 H   0  0  0  0  0  0  0  0  0  0  0  0
   -4.5943    2.4188   -0.8319 H   0  0  0  0  0  0  0  0  0  0  0  0
   -3.1572    2.1701   -1.8530 H   0  0  0  0  0  0  0  0  0  0  0  0
   -3.1925    3.5385   -0.7034 H   0  0  0  0  0  0  0  0  0  0  0  0
   -3.0781   -0.7581    2.1191 H   0  0  0  0  0  0  0  0  0  0  0  0
   -2.9190   -3.1536    0.8863 H   0  0  0  0  0  0  0  0  0  0  0  0
   -2.9245   -2.7197   -1.7982 H   0  0  0  0  0  0  0  0  0  0  0  0
   -3.0850   -0.0582   -2.2135 H   0  0  0  0  0  0  0  0  0  0  0  0
    4.8584    0.3098   -0.6427 H   0  0  0  0  0  0  0  0  0  0  0  0
    4.3590   -0.1960   -2.9815 H   0  0  0  0  0  0  0  0  0  0  0  0
    2.5965   -0.1227   -2.6848 H   0  0  0  0  0  0  0  0  0  0  0  0
    3.5720   -1.4009   -1.9092 H   0  0  0  0  0  0  0  0  0  0  0  0
    4.6646    2.2253   -2.1767 H   0  0  0  0  0  0  0  0  0  0  0  0
    4.1807    2.6741   -0.5049 H   0  0  0  0  0  0  0  0  0  0  0  0
    2.9343    2.4324   -1.7621 H   0  0  0  0  0  0  0  0  0  0  0  0
    2.7471   -0.4752    2.0384 H   0  0  0  0  0  0  0  0  0  0  0  0
    3.4664   -2.3292    0.5632 H   0  0  0  0  0  0  0  0  0  0  0  0
    4.5739   -2.1075    1.9590 H   0  0  0  0  0  0  0  0  0  0  0  0
    5.0724   -1.5604    0.3347 H   0  0  0  0  0  0  0  0  0  0  0  0
    4.9526    0.2308    2.9423 H   0  0  0  0  0  0  0  0  0  0  0  0
    4.0463    1.6327    2.2744 H   0  0  0  0  0  0  0  0  0  0  0  0
    5.4159    0.9209    1.3608 H   0  0  0  0  0  0  0  0  0  0  0  0
  1  2  2  0  0  0  0
  2  3  1  0  0  0  0
  2 22  1  0  0  0  0
  3 23  1  0  0  0  0
  4  7  1  6  0  0  0
  4  3  1  0  0  0  0
  5  4  1  0  0  0  0
  6  5  2  0  0  0  0
  6  1  1  0  0  0  0
  7  8  1  0  0  0  0
  8 27  1  0  0  0  0
  8 28  1  0  0  0  0
  9 29  1  0  0  0  0
  9 31  1  0  0  0  0
  9  7  1  0  0  0  0
 10  7  1  1  0  0  0
 10 11  1  0  0  0  0
 11 32  1  0  0  0  0
 12 33  1  0  0  0  0
 12 11  1  0  0  0  0
 13 12  2  0  0  0  0
 14 13  1  0  0  0  0
 14 10  1  0  0  0  0
 15  1  1  0  0  0  0
 15 19  1  0  0  0  0
 16 36  1  0  0  0  0
 16 15  1  0  0  0  0
 17 39  1  0  0  0  0
 17 16  1  0  0  0  0
 18 16  1  0  0  0  0
 18 41  1  0  0  0  0
 19 21  1  0  0  0  0
 19 43  1  0  0  0  0
 20 19  1  0  0  0  0
 20 45  1  0  0  0  0
 21 48  1  0  0  0  0
 21 47  1  0  0  0  0
 24  5  1  0  0  0  0
 25  6  1  0  0  0  0
 26  8  1  0  0  0  0
 30  9  1  0  0  0  0
 34 13  1  0  0  0  0
 35 14  1  0  0  0  0
 37 17  1  0  0  0  0
 38 17  1  0  0  0  0
 40 18  1  0  0  0  0
 42 18  1  0  0  0  0
 44 20  1  0  0  0  0
 46 20  1  0  0  0  0
 49 21  1  0  0  0  0
M  END
