12,16
 OpenBabel05122313053D

 23 24  0  0  1  0  0  0  0  0999 V2000
   -1.9966   -0.2633    2.1244 O   0  0  0  0  0  0  0  0  0  0  0  0
   -2.5399   -1.4456   -0.4925 O   0  0  0  0  0  0  0  0  0  0  0  0
   -2.7603   -1.8341    0.3802 H   0  0  0  0  0  0  0  0  0  0  0  0
   -1.6836    0.1989    1.0393 C   0  0  0  0  0  0  0  0  0  0  0  0
   -2.5002   -0.0437   -0.2796 C   0  0  1  0  0  0  0  0  0  0  0  0
   -1.6587    0.6263   -1.3995 C   0  0  0  0  0  0  0  0  0  0  0  0
   -1.4463   -0.1129   -2.1954 H   0  0  0  0  0  0  0  0  0  0  0  0
   -2.2049    1.4710   -1.8672 H   0  0  0  0  0  0  0  0  0  0  0  0
   -0.4064    1.1396   -0.7269 C   0  0  0  0  0  0  0  0  0  0  0  0
    0.7541    1.7066   -1.3186 C   0  0  0  0  0  0  0  0  0  0  0  0
    0.8492    1.7935   -2.4095 H   0  0  0  0  0  0  0  0  0  0  0  0
    1.8347    2.0795   -0.4677 C   0  0  0  0  0  3  0  0  0  0  0  0
    2.7620    2.4629   -0.9167 H   0  0  0  0  0  0  0  0  0  0  0  0
    1.7566    1.9419    0.9540 C   0  0  0  0  0  3  0  0  0  0  0  0
    2.6217    2.2084    1.5758 H   0  0  0  0  0  0  0  0  0  0  0  0
    0.6119    1.3417    1.5365 C   0  0  0  0  0  3  0  0  0  0  0  0
    0.5501    1.1412    2.6157 H   0  0  0  0  0  0  0  0  0  0  0  0
   -0.4816    0.9826    0.6915 C   0  0  2  0  0  3  0  0  0  0  0  0
   -3.8767    0.5737   -0.1507 C   0  0  0  0  0  0  0  0  0  0  0  0
   -3.8962    1.6547    0.0768 H   0  0  0  0  0  0  0  0  0  0  0  0
   -5.0178   -0.1180   -0.2898 C   0  0  0  0  0  0  0  0  0  0  0  0
   -4.9883   -1.1930   -0.5269 H   0  0  0  0  0  0  0  0  0  0  0  0
   -6.0005    0.3657   -0.1861 H   0  0  0  0  0  0  0  0  0  0  0  0
  2  3  1  0  0  0  0
  4  1  2  0  0  0  0
  5  2  1  6  0  0  0
  5 19  1  0  0  0  0
  5  4  1  0  0  0  0
  6  9  1  0  0  0  0
  6  5  1  0  0  0  0
  7  6  1  0  0  0  0
  8  6  1  0  0  0  0
 10  9  2  0  0  0  0
 10 12  1  0  0  0  0
 11 10  1  0  0  0  0
 12 14  1  0  0  0  0
 13 12  1  0  0  0  0
 14 16  1  0  0  0  0
 14 15  1  0  0  0  0
 16 17  1  0  0  0  0
 18  9  1  6  0  0  0
 18  4  1  0  0  0  0
 18 16  1  0  0  0  0
 19 20  1  0  0  0  0
 21 23  1  0  0  0  0
 21 19  2  0  0  0  0
 22 21  1  0  0  0  0
M  END
