2,7
 OpenBabel05122313053D

 36 38  0  0  1  0  0  0  0  0999 V2000
   -4.4731    0.1515    0.0000 N   0  0  0  0  0  0  0  0  0  0  0  0
   -0.3368    1.5148   -0.0002 C   0  0  2  0  0  3  0  0  0  0  0  0
    0.4593    1.8252   -1.1495 C   0  0  0  0  0  3  0  0  0  0  0  0
    1.7100    2.3592   -0.7075 C   0  0  0  0  0  0  0  0  0  0  0  0
    1.7100    2.3593    0.7071 C   0  0  0  0  0  0  0  0  0  0  0  0
    0.4592    1.8254    1.1492 C   0  0  0  0  0  3  0  0  0  0  0  0
   -0.8593   -0.7704   -0.0003 C   0  0  2  0  0  3  0  0  0  0  0  0
   -0.2751   -1.3964    1.1479 C   0  0  0  0  0  3  0  0  0  0  0  0
    0.6210   -2.4197    0.7067 C   0  0  0  0  0  0  0  0  0  0  0  0
    0.6211   -2.4195   -0.7075 C   0  0  0  0  0  0  0  0  0  0  0  0
   -0.2749   -1.3960   -1.1485 C   0  0  0  0  0  3  0  0  0  0  0  0
   -1.5619    0.5974   -0.0001 C   0  0  0  0  0  0  0  0  0  0  0  0
   -2.4473    0.8001    1.2443 C   0  0  0  0  0  0  0  0  0  0  0  0
   -3.6898   -0.0893    1.2037 C   0  0  0  0  0  0  0  0  0  0  0  0
   -3.6899   -0.0892   -1.2038 C   0  0  0  0  0  0  0  0  0  0  0  0
   -2.4474    0.8003   -1.2445 C   0  0  0  0  0  0  0  0  0  0  0  0
   -5.7251   -0.5771    0.0001 C   0  0  0  0  0  0  0  0  0  0  0  0
    0.1734    1.6687   -2.1965 H   0  0  0  0  0  0  0  0  0  0  0  0
    2.5342    2.6761   -1.3566 H   0  0  0  0  0  0  0  0  0  0  0  0
    2.5341    2.6763    1.3562 H   0  0  0  0  0  0  0  0  0  0  0  0
    0.1733    1.6691    2.1961 H   0  0  0  0  0  0  0  0  0  0  0  0
   -0.4633   -1.1334    2.1955 H   0  0  0  0  0  0  0  0  0  0  0  0
    1.2269   -3.0614    1.3564 H   0  0  0  0  0  0  0  0  0  0  0  0
    1.2270   -3.0610   -1.3574 H   0  0  0  0  0  0  0  0  0  0  0  0
   -0.4630   -1.1327   -2.1961 H   0  0  0  0  0  0  0  0  0  0  0  0
   -1.8806    0.5988    2.1749 H   0  0  0  0  0  0  0  0  0  0  0  0
   -2.7575    1.8650    1.2775 H   0  0  0  0  0  0  0  0  0  0  0  0
   -3.3796   -1.1684    1.2865 H   0  0  0  0  0  0  0  0  0  0  0  0
   -4.3273    0.1235    2.0874 H   0  0  0  0  0  0  0  0  0  0  0  0
   -4.3276    0.1237   -2.0874 H   0  0  0  0  0  0  0  0  0  0  0  0
   -3.3798   -1.1682   -1.2867 H   0  0  0  0  0  0  0  0  0  0  0  0
   -2.7576    1.8652   -1.2775 H   0  0  0  0  0  0  0  0  0  0  0  0
   -1.8809    0.5991   -2.1751 H   0  0  0  0  0  0  0  0  0  0  0  0
   -6.3209   -0.3106    0.8970 H   0  0  0  0  0  0  0  0  0  0  0  0
   -5.5922   -1.6932    0.0000 H   0  0  0  0  0  0  0  0  0  0  0  0
   -6.3210   -0.3105   -0.8968 H   0  0  0  0  0  0  0  0  0  0  0  0
  1 17  1  0  0  0  0
  1 14  1  0  0  0  0
  2 12  1  1  0  0  0
  2  6  1  0  0  0  0
  3  4  1  0  0  0  0
  3  2  1  0  0  0  0
  4  5  2  0  0  0  0
  5  6  1  0  0  0  0
  5 20  1  0  0  0  0
  6 21  1  0  0  0  0
  7 12  1  1  0  0  0
  7  8  1  0  0  0  0
  8 22  1  0  0  0  0
  9  8  1  0  0  0  0
  9 23  1  0  0  0  0
 10  9  2  0  0  0  0
 11 10  1  0  0  0  0
 11  7  1  0  0  0  0
 12 13  1  0  0  0  0
 13 27  1  0  0  0  0
 13 26  1  0  0  0  0
 14 13  1  0  0  0  0
 14 28  1  0  0  0  0
 14 29  1  0  0  0  0
 15  1  1  0  0  0  0
 16 15  1  0  0  0  0
 16 12  1  0  0  0  0
 17 34  1  0  0  0  0
 18  3  1  0  0  0  0
 19  4  1  0  0  0  0
 24 10  1  0  0  0  0
 25 11  1  0  0  0  0
 30 15  1  0  0  0  0
 31 15  1  0  0  0  0
 32 16  1  0  0  0  0
 33 16  1  0  0  0  0
 35 17  1  0  0  0  0
 36 17  1  0  0  0  0
M  END
