21,43
 OpenBabel05122313053D

 67 69  0  0  1  0  0  0  0  0999 V2000
   -1.1673    3.0764   -0.7929 Si  0  0  0  0  0  0  0  0  0  0  0  0
   -0.7167    3.0620   -2.6273 C   0  0  0  0  0  0  0  0  0  0  0  0
    0.3421    2.7749   -2.7936 H   0  0  0  0  0  0  0  0  0  0  0  0
   -0.8624    4.0744   -3.0572 H   0  0  0  0  0  0  0  0  0  0  0  0
   -1.3608    2.3591   -3.1943 H   0  0  0  0  0  0  0  0  0  0  0  0
   -2.9392    3.6652   -0.5470 C   0  0  0  0  0  0  0  0  0  0  0  0
   -3.6409    3.0618   -1.1562 H   0  0  0  0  0  0  0  0  0  0  0  0
   -3.0358    4.7266   -0.8559 H   0  0  0  0  0  0  0  0  0  0  0  0
   -3.2462    3.5713    0.5124 H   0  0  0  0  0  0  0  0  0  0  0  0
    0.0561    4.1936    0.1329 C   0  0  0  0  0  0  0  0  0  0  0  0
    1.0964    3.8536   -0.0506 H   0  0  0  0  0  0  0  0  0  0  0  0
   -0.1288    4.1920    1.2262 H   0  0  0  0  0  0  0  0  0  0  0  0
   -0.0247    5.2417   -0.2224 H   0  0  0  0  0  0  0  0  0  0  0  0
   -0.9056    1.2987   -0.1508 C   0  0  0  0  0  0  0  0  0  0  0  0
   -1.3772    0.8434    1.1208 C   0  0  0  0  0  0  0  0  0  0  0  0
   -2.0155    1.7439    1.9400 O   0  0  0  0  0  0  0  0  0  0  0  0
   -1.3142    2.0396    3.1511 C   0  0  0  0  0  0  0  0  0  0  0  0
   -1.9312    2.7770    3.6972 H   0  0  0  0  0  0  0  0  0  0  0  0
   -0.3207    2.4903    2.9322 H   0  0  0  0  0  0  0  0  0  0  0  0
   -1.1737    1.1331    3.7763 H   0  0  0  0  0  0  0  0  0  0  0  0
   -1.2394   -0.5254    1.5339 C   0  0  2  0  0  3  0  0  0  0  0  0
   -1.7008   -0.9639    2.7450 O   0  0  0  0  0  0  0  0  0  0  0  0
   -3.1137   -0.8891    2.9791 C   0  0  0  0  0  0  0  0  0  0  0  0
   -3.2780   -1.3010    3.9921 H   0  0  0  0  0  0  0  0  0  0  0  0
   -3.6538   -1.5017    2.2272 H   0  0  0  0  0  0  0  0  0  0  0  0
   -3.4882    0.1531    2.9251 H   0  0  0  0  0  0  0  0  0  0  0  0
   -0.5238   -1.4561    0.6991 C   0  0  0  0  0  0  0  0  0  0  0  0
   -0.3153   -2.8798    1.1856 C   0  0  2  0  0  0  0  0  0  0  0  0
   -1.2850   -3.1953    1.6196 H   0  0  0  0  0  0  0  0  0  0  0  0
    0.7090   -2.8846    2.3404 C   0  0  0  0  0  0  0  0  0  0  0  0
    0.8155   -3.9097    2.7487 H   0  0  0  0  0  0  0  0  0  0  0  0
    0.3857   -2.2203    3.1644 H   0  0  0  0  0  0  0  0  0  0  0  0
    1.7138   -2.5632    1.9957 H   0  0  0  0  0  0  0  0  0  0  0  0
    0.0916   -3.8883    0.0682 C   0  0  0  0  0  0  0  0  0  0  0  0
    1.0725   -4.3283    0.3438 H   0  0  0  0  0  0  0  0  0  0  0  0
   -0.6224   -4.7357    0.0716 H   0  0  0  0  0  0  0  0  0  0  0  0
    0.1805   -3.3268   -1.3593 C   0  0  0  0  0  0  0  0  0  0  0  0
   -0.8313   -3.2344   -1.8021 H   0  0  0  0  0  0  0  0  0  0  0  0
    0.7404   -4.0398   -1.9989 H   0  0  0  0  0  0  0  0  0  0  0  0
    0.8326   -1.9349   -1.4055 C   0  0  1  0  0  0  0  0  0  0  0  0
    0.7887   -1.5433   -2.4415 H   0  0  0  0  0  0  0  0  0  0  0  0
    0.0228   -0.9988   -0.5392 C   0  0  0  0  0  0  0  0  0  0  0  0
   -0.2398    0.3369   -0.9669 C   0  0  0  0  0  3  0  0  0  0  0  0
    0.1170    0.6267   -1.9632 H   0  0  0  0  0  0  0  0  0  0  0  0
    2.3393   -1.9766   -0.9811 C   0  0  1  0  0  0  0  0  0  0  0  0
    2.4385   -2.7354   -0.1788 H   0  0  0  0  0  0  0  0  0  0  0  0
    3.2439   -2.4152   -2.1371 C   0  0  0  0  0  0  0  0  0  0  0  0
    2.9059   -3.3874   -2.5465 H   0  0  0  0  0  0  0  0  0  0  0  0
    4.2874   -2.5497   -1.7903 H   0  0  0  0  0  0  0  0  0  0  0  0
    3.2289   -1.6730   -2.9584 H   0  0  0  0  0  0  0  0  0  0  0  0
    2.8210   -0.6770   -0.3048 C   0  0  0  0  0  0  0  0  0  0  0  0
    2.0354   -0.3843    0.4314 H   0  0  0  0  0  0  0  0  0  0  0  0
    2.9412    0.5468   -1.2001 C   0  0  0  0  0  0  0  0  0  0  0  0
    2.5013    0.6384   -2.3249 O   0  0  0  0  0  0  0  0  0  0  0  0
    3.5827    1.6163   -0.6444 O   0  0  0  0  0  0  0  0  0  0  0  0
    4.0906    1.5541    0.7062 C   0  0  0  0  0  0  0  0  0  0  0  0
    2.9853    1.8761    1.7137 C   0  0  0  0  0  0  0  0  0  0  0  0
    2.6014    2.8972    1.5296 H   0  0  0  0  0  0  0  0  0  0  0  0
    3.3976    1.8258    2.7390 H   0  0  0  0  0  0  0  0  0  0  0  0
    2.1305    1.1766    1.6465 H   0  0  0  0  0  0  0  0  0  0  0  0
    5.2402    2.5455    0.7593 C   0  0  0  0  0  0  0  0  0  0  0  0
    4.8713    3.5615    0.5256 H   0  0  0  0  0  0  0  0  0  0  0  0
    6.0058    2.2575    0.0152 H   0  0  0  0  0  0  0  0  0  0  0  0
    5.6949    2.5414    1.7673 H   0  0  0  0  0  0  0  0  0  0  0  0
    4.6722    0.2648    0.9812 O   0  0  0  0  0  0  0  0  0  0  0  0
    4.0593   -0.8816    0.5626 C   0  0  0  0  0  0  0  0  0  0  0  0
    4.4989   -1.9569    0.8961 O   0  0  0  0  0  0  0  0  0  0  0  0
  1  6  1  0  0  0  0
  1 14  1  0  0  0  0
  1 10  1  0  0  0  0
  2  1  1  0  0  0  0
  3  2  1  0  0  0  0
  4  2  1  0  0  0  0
  5  2  1  0  0  0  0
  6  9  1  0  0  0  0
  7  6  1  0  0  0  0
  8  6  1  0  0  0  0
 10 12  1  0  0  0  0
 11 10  1  0  0  0  0
 13 10  1  0  0  0  0
 14 15  2  0  0  0  0
 15 21  1  0  0  0  0
 15 16  1  0  0  0  0
 16 17  1  0  0  0  0
 17 18  1  0  0  0  0
 17 20  1  0  0  0  0
 19 17  1  0  0  0  0
 21 22  1  1  0  0  0
 22 23  1  0  0  0  0
 23 24  1  0  0  0  0
 25 23  1  0  0  0  0
 26 23  1  0  0  0  0
 27 28  1  0  0  0  0
 27 21  1  0  0  0  0
 28 29  1  1  0  0  0
 28 30  1  0  0  0  0
 30 31  1  0  0  0  0
 30 32  1  0  0  0  0
 33 30  1  0  0  0  0
 34 36  1  0  0  0  0
 34 35  1  0  0  0  0
 34 28  1  0  0  0  0
 37 34  1  0  0  0  0
 38 37  1  0  0  0  0
 39 37  1  0  0  0  0
 40 41  1  6  0  0  0
 40 37  1  0  0  0  0
 40 45  1  0  0  0  0
 40 42  1  0  0  0  0
 42 27  2  0  0  0  0
 43 42  1  0  0  0  0
 43 14  1  0  0  0  0
 44 43  1  0  0  0  0
 45 51  1  0  0  0  0
 45 46  1  1  0  0  0
 47 49  1  0  0  0  0
 47 45  1  0  0  0  0
 48 47  1  0  0  0  0
 50 47  1  0  0  0  0
 51 52  1  0  0  0  0
 51 66  1  0  0  0  0
 53 55  1  0  0  0  0
 53 51  1  0  0  0  0
 54 53  2  0  0  0  0
 55 56  1  0  0  0  0
 56 61  1  0  0  0  0
 56 65  1  0  0  0  0
 56 57  1  0  0  0  0
 57 59  1  0  0  0  0
 58 57  1  0  0  0  0
 60 57  1  0  0  0  0
 61 64  1  0  0  0  0
 62 61  1  0  0  0  0
 63 61  1  0  0  0  0
 66 67  2  0  0  0  0
 66 65  1  0  0  0  0
M  END
