1,5
 OpenBabel05122313053D

 18 18  0  0  0  0  0  0  0  0999 V2000
    1.3894   -1.6549   -1.0319 C   0  0  0  0  0  3  0  0  0  0  0  0
    0.2492   -2.4649   -0.6767 C   0  0  0  0  0  3  0  0  0  0  0  0
    0.0343   -3.2935    0.5421 C   0  0  0  0  0  0  0  0  0  0  0  0
   -0.1152   -2.7082    1.7577 C   0  0  0  0  0  0  0  0  0  0  0  0
    0.1344   -1.2508    1.9036 C   0  0  0  0  0  3  0  0  0  0  0  0
    1.4085   -0.7037    1.5693 C   0  0  0  0  0  3  0  0  0  0  0  0
    2.5987   -1.5668    1.1756 C   0  0  0  0  0  0  0  0  0  0  0  0
    2.7418   -1.6521   -0.3504 C   0  0  0  0  0  0  0  0  0  0  0  0
    1.4544   -1.4167   -2.1134 H   0  0  0  0  0  0  0  0  0  0  0  0
   -0.3653   -2.7962   -1.5380 H   0  0  0  0  0  0  0  0  0  0  0  0
   -0.1086   -4.3838    0.4291 H   0  0  0  0  0  0  0  0  0  0  0  0
   -0.3675   -3.3057    2.6515 H   0  0  0  0  0  0  0  0  0  0  0  0
   -0.4883   -0.6961    2.6319 H   0  0  0  0  0  0  0  0  0  0  0  0
    1.6643    0.2736    2.0066 H   0  0  0  0  0  0  0  0  0  0  0  0
    2.4706   -2.5882    1.5893 H   0  0  0  0  0  0  0  0  0  0  0  0
    3.5218   -1.1465    1.6228 H   0  0  0  0  0  0  0  0  0  0  0  0
    3.3288   -2.5514   -0.6515 H   0  0  0  0  0  0  0  0  0  0  0  0
    3.3044   -0.7761   -0.7302 H   0  0  0  0  0  0  0  0  0  0  0  0
  1  2  1  0  0  0  0
  1  8  1  0  0  0  0
  2  3  1  0  0  0  0
  3  4  2  0  0  0  0
  4  5  1  0  0  0  0
  4 12  1  0  0  0  0
  5 13  1  0  0  0  0
  6  5  1  0  0  0  0
  6 14  1  0  0  0  0
  7  6  1  0  0  0  0
  7 15  1  0  0  0  0
  7 16  1  0  0  0  0
  8  7  1  0  0  0  0
  9  1  1  0  0  0  0
 10  2  1  0  0  0  0
 11  3  1  0  0  0  0
 17  8  1  0  0  0  0
 18  8  1  0  0  0  0
M  END
