25,39
 OpenBabel05122313053D

 63 68  0  0  0  0  0  0  0  0999 V2000
   -3.7854   -0.3055    1.4696 N   0  0  0  0  0  0  0  0  0  0  0  0
   -2.7146    1.5734    1.2931 N   0  0  0  0  0  0  0  0  0  0  0  0
   -1.3467   -2.8003    0.6619 N   0  0  0  0  0  0  0  0  0  0  0  0
    0.3890   -1.5214    0.5004 N   0  0  0  0  0  0  0  0  0  0  0  0
    3.7771   -0.7985    0.4327 C   0  0  0  0  0  0  0  0  0  0  0  0
    3.7636   -0.3865    1.8011 C   0  0  0  0  0  0  0  0  0  0  0  0
    2.8167   -0.0732    2.2632 H   0  0  0  0  0  0  0  0  0  0  0  0
    4.9260   -0.3640    2.5588 C   0  0  0  0  0  0  0  0  0  0  0  0
    4.8865   -0.0409    3.6104 H   0  0  0  0  0  0  0  0  0  0  0  0
    6.1668   -0.7517    1.9867 C   0  0  0  0  0  0  0  0  0  0  0  0
    7.0832   -0.7272    2.5955 H   0  0  0  0  0  0  0  0  0  0  0  0
    6.2178   -1.1616    0.6637 C   0  0  0  0  0  0  0  0  0  0  0  0
    7.1741   -1.4675    0.2108 H   0  0  0  0  0  0  0  0  0  0  0  0
    5.0419   -1.2014   -0.1432 C   0  0  0  0  0  0  0  0  0  0  0  0
    5.0851   -1.6326   -1.5005 C   0  0  0  0  0  0  0  0  0  0  0  0
    6.0543   -1.9366   -1.9264 H   0  0  0  0  0  0  0  0  0  0  0  0
    3.9310   -1.6710   -2.2679 C   0  0  0  0  0  0  0  0  0  0  0  0
    3.9717   -2.0065   -3.3152 H   0  0  0  0  0  0  0  0  0  0  0  0
    2.6903   -1.2685   -1.7142 C   0  0  0  0  0  0  0  0  0  0  0  0
    1.7686   -1.2880   -2.3222 H   0  0  0  0  0  0  0  0  0  0  0  0
    2.6028   -0.8328   -0.3937 C   0  0  0  0  0  0  0  0  0  0  0  0
    1.2527   -0.3973    0.1237 C   0  0  0  0  0  0  0  0  0  0  0  0
    1.3341    0.2867    0.9878 H   0  0  0  0  0  0  0  0  0  0  0  0
    0.7018    0.1338   -0.6739 H   0  0  0  0  0  0  0  0  0  0  0  0
   -0.9200   -1.6142    0.1327 C   0  0  0  0  0  2  0  0  0  0  0  0
    0.7835   -2.6262    1.2416 C   0  0  0  0  0  0  0  0  0  0  0  0
    1.8098   -2.7465    1.6009 H   0  0  0  0  0  0  0  0  0  0  0  0
   -0.3153   -3.4374    1.3472 C   0  0  0  0  0  0  0  0  0  0  0  0
   -0.4445   -4.4138    1.8230 H   0  0  0  0  0  0  0  0  0  0  0  0
   -2.6774   -3.3605    0.4637 C   0  0  0  0  0  0  0  0  0  0  0  0
   -2.5743   -4.4594    0.5555 H   0  0  0  0  0  0  0  0  0  0  0  0
   -2.9757   -3.1406   -0.5817 H   0  0  0  0  0  0  0  0  0  0  0  0
   -3.7520   -2.8660    1.4430 C   0  0  0  0  0  0  0  0  0  0  0  0
   -4.5460   -3.6420    1.4598 H   0  0  0  0  0  0  0  0  0  0  0  0
   -3.3421   -2.8206    2.4743 H   0  0  0  0  0  0  0  0  0  0  0  0
   -4.4523   -1.5490    1.0817 C   0  0  0  0  0  0  0  0  0  0  0  0
   -4.6193   -1.4956   -0.0134 H   0  0  0  0  0  0  0  0  0  0  0  0
   -5.4474   -1.5249    1.5673 H   0  0  0  0  0  0  0  0  0  0  0  0
   -2.8791    0.3589    0.6871 C   0  0  0  0  0  2  0  0  0  0  0  0
   -4.1701    0.4775    2.5554 C   0  0  0  0  0  0  0  0  0  0  0  0
   -4.9031    0.1382    3.2929 H   0  0  0  0  0  0  0  0  0  0  0  0
   -3.4926    1.6618    2.4413 C   0  0  0  0  0  0  0  0  0  0  0  0
   -3.5175    2.5634    3.0600 H   0  0  0  0  0  0  0  0  0  0  0  0
   -1.9820    2.6982    0.6927 C   0  0  0  0  0  0  0  0  0  0  0  0
   -2.4315    3.6186    1.1171 H   0  0  0  0  0  0  0  0  0  0  0  0
   -2.2396    2.6717   -0.3836 H   0  0  0  0  0  0  0  0  0  0  0  0
   -0.4864    2.7019    0.9444 C   0  0  0  0  0  0  0  0  0  0  0  0
   -0.0220    2.7252    2.2579 C   0  0  0  0  0  0  0  0  0  0  0  0
   -0.7472    2.7005    3.0872 H   0  0  0  0  0  0  0  0  0  0  0  0
    1.3622    2.7870    2.5573 C   0  0  0  0  0  0  0  0  0  0  0  0
    1.6934    2.8087    3.6067 H   0  0  0  0  0  0  0  0  0  0  0  0
    2.2900    2.8280    1.5278 C   0  0  0  0  0  0  0  0  0  0  0  0
    3.3685    2.8677    1.7446 H   0  0  0  0  0  0  0  0  0  0  0  0
    1.8686    2.7786    0.1677 C   0  0  0  0  0  0  0  0  0  0  0  0
    2.8212    2.7167   -0.8916 C   0  0  0  0  0  0  0  0  0  0  0  0
    3.8918    2.7477   -0.6364 H   0  0  0  0  0  0  0  0  0  0  0  0
    2.4119    2.5769   -2.2079 C   0  0  0  0  0  0  0  0  0  0  0  0
    3.1582    2.4982   -3.0127 H   0  0  0  0  0  0  0  0  0  0  0  0
    1.0284    2.5088   -2.5163 C   0  0  0  0  0  0  0  0  0  0  0  0
    0.7011    2.3589   -3.5554 H   0  0  0  0  0  0  0  0  0  0  0  0
    0.0713    2.5914   -1.5149 C   0  0  0  0  0  0  0  0  0  0  0  0
   -0.9873    2.4882   -1.7971 H   0  0  0  0  0  0  0  0  0  0  0  0
    0.4548    2.7164   -0.1439 C   0  0  0  0  0  0  0  0  0  0  0  0
  1 40  1  0  0  0  0
  2 42  1  0  0  0  0
  3 28  1  0  0  0  0
  4 26  1  0  0  0  0
  5  6  2  0  0  0  0
  6  7  1  0  0  0  0
  6  8  1  0  0  0  0
  8  9  1  0  0  0  0
 10  8  2  0  0  0  0
 10 11  1  0  0  0  0
 12 10  1  0  0  0  0
 13 12  1  0  0  0  0
 14  5  1  0  0  0  0
 14 12  2  0  0  0  0
 15 14  1  0  0  0  0
 16 15  1  0  0  0  0
 17 19  1  0  0  0  0
 17 15  2  0  0  0  0
 18 17  1  0  0  0  0
 19 21  2  0  0  0  0
 20 19  1  0  0  0  0
 21 22  1  0  0  0  0
 21  5  1  0  0  0  0
 22  4  1  0  0  0  0
 22 23  1  0  0  0  0
 24 22  1  0  0  0  0
 25  4  1  0  0  0  0
 25  3  1  0  0  0  0
 26 28  2  0  0  0  0
 26 27  1  0  0  0  0
 28 29  1  0  0  0  0
 30 31  1  0  0  0  0
 30  3  1  0  0  0  0
 30 33  1  0  0  0  0
 32 30  1  0  0  0  0
 33 34  1  0  0  0  0
 33 35  1  0  0  0  0
 36 33  1  0  0  0  0
 36  1  1  0  0  0  0
 36 38  1  0  0  0  0
 37 36  1  0  0  0  0
 39  2  1  0  0  0  0
 39  1  1  0  0  0  0
 40 41  1  0  0  0  0
 42 40  2  0  0  0  0
 42 43  1  0  0  0  0
 44 47  1  0  0  0  0
 44 45  1  0  0  0  0
 44  2  1  0  0  0  0
 46 44  1  0  0  0  0
 47 48  1  0  0  0  0
 48 50  2  0  0  0  0
 48 49  1  0  0  0  0
 50 51  1  0  0  0  0
 52 53  1  0  0  0  0
 52 50  1  0  0  0  0
 54 52  2  0  0  0  0
 55 56  1  0  0  0  0
 55 54  1  0  0  0  0
 57 55  2  0  0  0  0
 58 57  1  0  0  0  0
 59 57  1  0  0  0  0
 59 61  2  0  0  0  0
 60 59  1  0  0  0  0
 61 63  1  0  0  0  0
 62 61  1  0  0  0  0
 63 54  1  0  0  0  0
 63 47  2  0  0  0  0
M  END
