3,17
 OpenBabel05122313053D

 30 30  0  0  1  0  0  0  0  0999 V2000
    2.8821    0.7935    0.8887 P   0  0  0  0  0  2  0  0  0  0  0  0
    2.5785   -0.6845   -1.4401 P   0  0  0  0  0  2  0  0  0  0  0  0
    2.4412    1.0291   -0.8557 C   0  0  2  0  0  3  0  0  0  0  0  0
    2.5726    2.3013   -1.6831 C   0  0  0  0  0  0  0  0  0  0  0  0
    4.0943    2.4666   -1.9433 C   0  0  0  0  0  0  0  0  0  0  0  0
    4.4981    1.5900   -2.4884 H   0  0  0  0  0  0  0  0  0  0  0  0
    4.6497    2.5607   -0.9887 H   0  0  0  0  0  0  0  0  0  0  0  0
    4.2846    3.3758   -2.5511 H   0  0  0  0  0  0  0  0  0  0  0  0
    2.0770    3.5415   -0.9189 C   0  0  0  0  0  0  0  0  0  0  0  0
    0.9815    3.5034   -0.7590 H   0  0  0  0  0  0  0  0  0  0  0  0
    2.3066    4.4663   -1.4866 H   0  0  0  0  0  0  0  0  0  0  0  0
    2.5701    3.6199    0.0722 H   0  0  0  0  0  0  0  0  0  0  0  0
    1.8635    2.1777   -3.0435 C   0  0  0  0  0  0  0  0  0  0  0  0
    0.7640    2.1251   -2.9211 H   0  0  0  0  0  0  0  0  0  0  0  0
    2.1959    1.2666   -3.5830 H   0  0  0  0  0  0  0  0  0  0  0  0
    2.0943    3.0545   -3.6824 H   0  0  0  0  0  0  0  0  0  0  0  0
    2.8499   -0.9580    0.3473 C   0  0  1  0  0  3  0  0  0  0  0  0
    3.5950   -2.1317    0.9772 C   0  0  0  0  0  0  0  0  0  0  0  0
    3.3483   -3.4347    0.1929 C   0  0  0  0  0  0  0  0  0  0  0  0
    3.9969   -4.2440    0.5866 H   0  0  0  0  0  0  0  0  0  0  0  0
    3.5892   -3.3061   -0.8831 H   0  0  0  0  0  0  0  0  0  0  0  0
    2.3000   -3.7753    0.2717 H   0  0  0  0  0  0  0  0  0  0  0  0
    5.1046   -1.7927    0.8928 C   0  0  0  0  0  0  0  0  0  0  0  0
    5.7162   -2.6260    1.2972 H   0  0  0  0  0  0  0  0  0  0  0  0
    5.3376   -0.8768    1.4728 H   0  0  0  0  0  0  0  0  0  0  0  0
    5.4092   -1.6165   -0.1588 H   0  0  0  0  0  0  0  0  0  0  0  0
    3.2114   -2.3309    2.4530 C   0  0  0  0  0  0  0  0  0  0  0  0
    3.8791   -3.0782    2.9291 H   0  0  0  0  0  0  0  0  0  0  0  0
    2.1705   -2.6938    2.5496 H   0  0  0  0  0  0  0  0  0  0  0  0
    3.3004   -1.3852    3.0262 H   0  0  0  0  0  0  0  0  0  0  0  0
  2  3  1  0  0  0  0
  2 17  1  0  0  0  0
  3  4  1  6  0  0  0
  3  1  1  0  0  0  0
  4  9  1  0  0  0  0
  5  4  1  0  0  0  0
  5  7  1  0  0  0  0
  6  5  1  0  0  0  0
  8  5  1  0  0  0  0
  9 10  1  0  0  0  0
  9 12  1  0  0  0  0
 11  9  1  0  0  0  0
 13 14  1  0  0  0  0
 13  4  1  0  0  0  0
 15 13  1  0  0  0  0
 16 13  1  0  0  0  0
 17  1  1  0  0  0  0
 17 18  1  6  0  0  0
 18 27  1  0  0  0  0
 19 22  1  0  0  0  0
 19 20  1  0  0  0  0
 19 18  1  0  0  0  0
 21 19  1  0  0  0  0
 23 18  1  0  0  0  0
 23 24  1  0  0  0  0
 23 25  1  0  0  0  0
 26 23  1  0  0  0  0
 27 29  1  0  0  0  0
 27 28  1  0  0  0  0
 27 30  1  0  0  0  0
M  END
