10,26
 OpenBabel05122313053D

 41 42  0  0  0  0  0  0  0  0999 V2000
    1.6363   -0.1232    2.2956 N   0  0  0  0  0  0  0  0  0  0  0  0
    2.7786   -0.5819    2.8898 N   0  0  0  0  0  0  0  0  0  0  0  0
    2.6291   -1.2244    0.7615 N   0  0  0  0  0  0  0  0  0  0  0  0
   -0.6044    0.5791    2.6204 N   0  0  0  0  0  0  0  0  0  0  0  0
   -1.6093    0.7433    3.5326 N   0  0  0  0  0  0  0  0  0  0  0  0
   -2.3959    0.2872    1.4975 N   0  0  0  0  0  0  0  0  0  0  0  0
    0.7669    0.7663    3.0362 C   0  0  0  0  0  0  0  0  0  0  0  0
    1.0734    1.8197    2.8637 H   0  0  0  0  0  0  0  0  0  0  0  0
    0.8444    0.5198    4.1097 H   0  0  0  0  0  0  0  0  0  0  0  0
    1.4888   -0.4836    0.9876 C   0  0  0  0  0  2  0  0  0  0  0  0
    3.3646   -1.2508    1.9241 C   0  0  0  0  0  0  0  0  0  0  0  0
    4.3170   -1.7834    2.0241 H   0  0  0  0  0  0  0  0  0  0  0  0
    3.0109   -1.8298   -0.5173 C   0  0  0  0  0  0  0  0  0  0  0  0
    2.0834   -2.2337   -0.9692 H   0  0  0  0  0  0  0  0  0  0  0  0
    3.6796   -2.6815   -0.2784 H   0  0  0  0  0  0  0  0  0  0  0  0
    3.6899   -0.8312   -1.4566 C   0  0  0  0  0  0  0  0  0  0  0  0
    3.8982   -1.3689   -2.4064 H   0  0  0  0  0  0  0  0  0  0  0  0
    2.9526   -0.0454   -1.7185 H   0  0  0  0  0  0  0  0  0  0  0  0
    4.9751   -0.1993   -0.9174 C   0  0  0  0  0  0  0  0  0  0  0  0
    5.7117   -0.9973   -0.6697 H   0  0  0  0  0  0  0  0  0  0  0  0
    4.7583    0.3224    0.0415 H   0  0  0  0  0  0  0  0  0  0  0  0
    5.5974    0.7983   -1.8954 C   0  0  0  0  0  0  0  0  0  0  0  0
    6.5251    1.2487   -1.4892 H   0  0  0  0  0  0  0  0  0  0  0  0
    4.8917    1.6250   -2.1199 H   0  0  0  0  0  0  0  0  0  0  0  0
    5.8533    0.3121   -2.8596 H   0  0  0  0  0  0  0  0  0  0  0  0
   -1.0224    0.3056    1.3503 C   0  0  0  0  0  2  0  0  0  0  0  0
   -2.6917    0.5612    2.8126 C   0  0  0  0  0  0  0  0  0  0  0  0
   -3.7140    0.6005    3.2055 H   0  0  0  0  0  0  0  0  0  0  0  0
   -3.3704    0.0053    0.4421 C   0  0  0  0  0  0  0  0  0  0  0  0
   -2.8858   -0.7091   -0.2526 H   0  0  0  0  0  0  0  0  0  0  0  0
   -4.2191   -0.5191    0.9233 H   0  0  0  0  0  0  0  0  0  0  0  0
   -3.8222    1.2670   -0.2964 C   0  0  0  0  0  0  0  0  0  0  0  0
   -2.9164    1.8013   -0.6429 H   0  0  0  0  0  0  0  0  0  0  0  0
   -4.3521    1.9449    0.4108 H   0  0  0  0  0  0  0  0  0  0  0  0
   -4.7108    0.9594   -1.5075 C   0  0  0  0  0  0  0  0  0  0  0  0
   -4.9216    1.9158   -2.0318 H   0  0  0  0  0  0  0  0  0  0  0  0
   -4.1178    0.3459   -2.2191 H   0  0  0  0  0  0  0  0  0  0  0  0
   -6.0318    0.2604   -1.1765 C   0  0  0  0  0  0  0  0  0  0  0  0
   -6.6566    0.1323   -2.0831 H   0  0  0  0  0  0  0  0  0  0  0  0
   -6.6278    0.8438   -0.4426 H   0  0  0  0  0  0  0  0  0  0  0  0
   -5.8746   -0.7515   -0.7494 H   0  0  0  0  0  0  0  0  0  0  0  0
  1  2  1  0  0  0  0
  1  7  1  0  0  0  0
  3 10  1  0  0  0  0
  3 11  1  0  0  0  0
  4  7  1  0  0  0  0
  4  5  1  0  0  0  0
  6 27  1  0  0  0  0
  7  9  1  0  0  0  0
  8  7  1  0  0  0  0
 10  1  1  0  0  0  0
 11 12  1  0  0  0  0
 11  2  2  0  0  0  0
 13 15  1  0  0  0  0
 13  3  1  0  0  0  0
 14 13  1  0  0  0  0
 16 19  1  0  0  0  0
 16 13  1  0  0  0  0
 17 16  1  0  0  0  0
 18 16  1  0  0  0  0
 19 20  1  0  0  0  0
 19 21  1  0  0  0  0
 22 23  1  0  0  0  0
 22 19  1  0  0  0  0
 24 22  1  0  0  0  0
 25 22  1  0  0  0  0
 26  6  1  0  0  0  0
 26  4  1  0  0  0  0
 27 28  1  0  0  0  0
 27  5  2  0  0  0  0
 29 31  1  0  0  0  0
 29  6  1  0  0  0  0
 30 29  1  0  0  0  0
 32 34  1  0  0  0  0
 32 29  1  0  0  0  0
 33 32  1  0  0  0  0
 35 38  1  0  0  0  0
 35 32  1  0  0  0  0
 36 35  1  0  0  0  0
 37 35  1  0  0  0  0
 38 41  1  0  0  0  0
 38 40  1  0  0  0  0
 39 38  1  0  0  0  0
M  END
