4
 OpenBabel05122313053D

 47 50  0  0  1  0  0  0  0  0999 V2000
    0.0001   -0.9838    2.6345 Si  0  0  0  0  0  0  0  0  0  0  0  0
   -3.0287    2.3043   -0.3288 O   0  0  0  0  0  0  0  0  0  0  0  0
    3.0281    2.3050   -0.3290 O   0  0  0  0  0  0  0  0  0  0  0  0
   -1.4050   -0.4157    1.5180 C   0  0  1  0  0  3  0  0  0  0  0  0
   -1.6887    0.9970    1.3387 C   0  0  0  0  0  0  0  0  0  0  0  0
   -1.3778    1.7927    2.0263 H   0  0  0  0  0  0  0  0  0  0  0  0
   -2.4755    1.1867    0.1685 C   0  0  0  0  0  0  0  0  0  0  0  0
   -3.3753   -0.4740   -1.6255 C   0  0  0  0  0  0  0  0  0  0  0  0
   -3.8519    0.2960   -2.2484 H   0  0  0  0  0  0  0  0  0  0  0  0
   -3.4368   -1.8187   -1.9496 C   0  0  0  0  0  0  0  0  0  0  0  0
   -3.9718   -2.1397   -2.8556 H   0  0  0  0  0  0  0  0  0  0  0  0
   -2.8185   -2.8062   -1.1215 C   0  0  0  0  0  0  0  0  0  0  0  0
   -2.8981   -3.8657   -1.4080 H   0  0  0  0  0  0  0  0  0  0  0  0
   -2.1242   -2.4642    0.0270 C   0  0  0  0  0  0  0  0  0  0  0  0
   -1.6643   -3.2391    0.6554 H   0  0  0  0  0  0  0  0  0  0  0  0
   -2.0312   -1.0880    0.4004 C   0  0  0  0  0  0  0  0  0  0  0  0
   -2.6680   -0.0951   -0.4521 C   0  0  0  0  0  0  0  0  0  0  0  0
    1.4050   -0.4153    1.5180 C   0  0  2  0  0  3  0  0  0  0  0  0
    1.6884    0.9975    1.3387 C   0  0  0  0  0  0  0  0  0  0  0  0
    1.3773    1.7932    2.0261 H   0  0  0  0  0  0  0  0  0  0  0  0
    2.4752    1.1873    0.1684 C   0  0  0  0  0  0  0  0  0  0  0  0
    3.3755   -0.4733   -1.6253 C   0  0  0  0  0  0  0  0  0  0  0  0
    3.8520    0.2967   -2.2482 H   0  0  0  0  0  0  0  0  0  0  0  0
    3.4374   -1.8181   -1.9493 C   0  0  0  0  0  0  0  0  0  0  0  0
    3.9726   -2.1390   -2.8552 H   0  0  0  0  0  0  0  0  0  0  0  0
    2.8193   -2.8057   -1.1212 C   0  0  0  0  0  0  0  0  0  0  0  0
    2.8991   -3.8651   -1.4076 H   0  0  0  0  0  0  0  0  0  0  0  0
    2.1248   -2.4637    0.0272 C   0  0  0  0  0  0  0  0  0  0  0  0
    1.6650   -3.2387    0.6557 H   0  0  0  0  0  0  0  0  0  0  0  0
    2.0315   -1.0875    0.4006 C   0  0  0  0  0  0  0  0  0  0  0  0
    2.6681   -0.0945   -0.4520 C   0  0  0  0  0  0  0  0  0  0  0  0
   -0.0001    0.0072    4.2395 C   0  0  0  0  0  0  0  0  0  0  0  0
   -0.8995   -0.2320    4.8430 H   0  0  0  0  0  0  0  0  0  0  0  0
   -0.0002    1.0999    4.0537 H   0  0  0  0  0  0  0  0  0  0  0  0
    0.8994   -0.2317    4.8430 H   0  0  0  0  0  0  0  0  0  0  0  0
    0.0003   -2.8316    3.0001 C   0  0  0  0  0  0  0  0  0  0  0  0
    0.8985   -3.1002    3.5927 H   0  0  0  0  0  0  0  0  0  0  0  0
    0.0004   -3.4508    2.0831 H   0  0  0  0  0  0  0  0  0  0  0  0
   -0.8978   -3.1004    3.5927 H   0  0  0  0  0  0  0  0  0  0  0  0
   -2.7823    3.5085    0.3864 C   0  0  0  0  0  0  0  0  0  0  0  0
   -3.3043    4.3129   -0.1627 H   0  0  0  0  0  0  0  0  0  0  0  0
   -1.6958    3.7336    0.4161 H   0  0  0  0  0  0  0  0  0  0  0  0
   -3.1860    3.4465    1.4220 H   0  0  0  0  0  0  0  0  0  0  0  0
    2.7815    3.5093    0.3861 C   0  0  0  0  0  0  0  0  0  0  0  0
    3.3032    4.3137   -0.1631 H   0  0  0  0  0  0  0  0  0  0  0  0
    3.1852    3.4474    1.4216 H   0  0  0  0  0  0  0  0  0  0  0  0
    1.6949    3.7341    0.4157 H   0  0  0  0  0  0  0  0  0  0  0  0
  1 36  1  0  0  0  0
  1 32  1  0  0  0  0
  2  7  1  0  0  0  0
  2 40  1  0  0  0  0
  3 21  1  0  0  0  0
  3 44  1  0  0  0  0
  4  1  1  6  0  0  0
  5  4  1  0  0  0  0
  5  6  1  0  0  0  0
  7  5  2  0  0  0  0
  8 17  1  0  0  0  0
  9  8  1  0  0  0  0
 10  8  2  0  0  0  0
 10 12  1  0  0  0  0
 11 10  1  0  0  0  0
 12 14  2  0  0  0  0
 13 12  1  0  0  0  0
 14 16  1  0  0  0  0
 14 15  1  0  0  0  0
 16  4  1  0  0  0  0
 17  7  1  0  0  0  0
 17 16  2  0  0  0  0
 18  1  1  6  0  0  0
 19 18  1  0  0  0  0
 19 20  1  0  0  0  0
 21 19  2  0  0  0  0
 22 31  1  0  0  0  0
 23 22  1  0  0  0  0
 24 22  2  0  0  0  0
 24 26  1  0  0  0  0
 25 24  1  0  0  0  0
 26 28  2  0  0  0  0
 27 26  1  0  0  0  0
 28 30  1  0  0  0  0
 28 29  1  0  0  0  0
 30 18  1  0  0  0  0
 31 21  1  0  0  0  0
 31 30  2  0  0  0  0
 32 35  1  0  0  0  0
 32 33  1  0  0  0  0
 34 32  1  0  0  0  0
 36 37  1  0  0  0  0
 36 39  1  0  0  0  0
 38 36  1  0  0  0  0
 40 42  1  0  0  0  0
 40 43  1  0  0  0  0
 41 40  1  0  0  0  0
 44 47  1  0  0  0  0
 44 46  1  0  0  0  0
 45 44  1  0  0  0  0
M  END
