6,67
 OpenBabel05122313053D

 67 72  0  0  0  0  0  0  0  0999 V2000
    2.1498    0.8455    3.0374 S   0  0  0  0  0  0  0  0  0  0  0  0
   -1.8321    0.3745    0.2854 N   0  0  0  0  0  0  0  0  0  0  0  0
   -0.8313   -0.2743    2.1263 N   0  0  0  0  0  0  0  0  0  0  0  0
    2.1188    0.8985   -1.3352 N   0  0  0  0  0  0  0  0  0  0  0  0
    3.1662   -0.1942    0.2414 N   0  0  0  0  0  0  0  0  0  0  0  0
   -0.7853   -0.3700    0.7589 C   0  0  0  0  0  2  0  0  0  0  0  0
   -2.5286    0.9717    1.3376 C   0  0  0  0  0  0  0  0  0  0  0  0
   -3.6341    1.8331    1.3705 C   0  0  0  0  0  0  0  0  0  0  0  0
   -4.1263    2.1640    0.4476 H   0  0  0  0  0  0  0  0  0  0  0  0
   -4.0928    2.2362    2.6339 C   0  0  0  0  0  0  0  0  0  0  0  0
   -4.9589    2.9112    2.6985 H   0  0  0  0  0  0  0  0  0  0  0  0
   -3.4784    1.7841    3.8215 C   0  0  0  0  0  0  0  0  0  0  0  0
   -3.8765    2.1090    4.7940 H   0  0  0  0  0  0  0  0  0  0  0  0
   -2.3691    0.9244    3.7889 C   0  0  0  0  0  0  0  0  0  0  0  0
   -1.9026    0.5686    4.7177 H   0  0  0  0  0  0  0  0  0  0  0  0
   -1.8939    0.5390    2.5270 C   0  0  0  0  0  0  0  0  0  0  0  0
   -2.2203    0.4511   -1.1233 C   0  0  0  0  0  0  0  0  0  0  0  0
   -1.5647   -0.2799   -1.6422 H   0  0  0  0  0  0  0  0  0  0  0  0
   -1.9907    1.4646   -1.5060 H   0  0  0  0  0  0  0  0  0  0  0  0
   -3.6767    0.1231   -1.3676 C   0  0  0  0  0  0  0  0  0  0  0  0
   -4.4893    1.0312   -2.0726 C   0  0  0  0  0  0  0  0  0  0  0  0
   -4.0563    1.9809   -2.4278 H   0  0  0  0  0  0  0  0  0  0  0  0
   -5.8394    0.7364   -2.3193 C   0  0  0  0  0  0  0  0  0  0  0  0
   -6.4657    1.4532   -2.8721 H   0  0  0  0  0  0  0  0  0  0  0  0
   -6.3874   -0.4695   -1.8557 C   0  0  0  0  0  0  0  0  0  0  0  0
   -7.4467   -0.7022   -2.0441 H   0  0  0  0  0  0  0  0  0  0  0  0
   -5.5786   -1.3799   -1.1548 C   0  0  0  0  0  0  0  0  0  0  0  0
   -6.0015   -2.3317   -0.7987 H   0  0  0  0  0  0  0  0  0  0  0  0
   -4.2286   -1.0904   -0.9124 C   0  0  0  0  0  0  0  0  0  0  0  0
   -3.5822   -1.8126   -0.3847 H   0  0  0  0  0  0  0  0  0  0  0  0
    3.3662    1.5083   -1.2076 C   0  0  0  0  0  0  0  0  0  0  0  0
    3.9552    2.5926   -1.8696 C   0  0  0  0  0  0  0  0  0  0  0  0
    3.4131    3.1592   -2.6391 H   0  0  0  0  0  0  0  0  0  0  0  0
    5.2670    2.9282   -1.4993 C   0  0  0  0  0  0  0  0  0  0  0  0
    5.7656    3.7741   -1.9946 H   0  0  0  0  0  0  0  0  0  0  0  0
    5.9600    2.2014   -0.5070 C   0  0  0  0  0  0  0  0  0  0  0  0
    6.9907    2.4875   -0.2509 H   0  0  0  0  0  0  0  0  0  0  0  0
    5.3647    1.1198    0.1615 C   0  0  0  0  0  0  0  0  0  0  0  0
    5.9151    0.5530    0.9250 H   0  0  0  0  0  0  0  0  0  0  0  0
    4.0497    0.7910   -0.1979 C   0  0  0  0  0  0  0  0  0  0  0  0
    1.0840    1.3399   -2.2470 C   0  0  0  0  0  0  0  0  0  0  0  0
    0.4172    0.4642   -2.3977 H   0  0  0  0  0  0  0  0  0  0  0  0
    1.5449    1.5622   -3.2310 H   0  0  0  0  0  0  0  0  0  0  0  0
    0.2910    2.5275   -1.7352 C   0  0  0  0  0  0  0  0  0  0  0  0
   -0.4447    3.3114   -2.6461 C   0  0  0  0  0  0  0  0  0  0  0  0
   -0.3659    3.1081   -3.7263 H   0  0  0  0  0  0  0  0  0  0  0  0
   -1.2926    4.3305   -2.1873 C   0  0  0  0  0  0  0  0  0  0  0  0
   -1.8656    4.9317   -2.9095 H   0  0  0  0  0  0  0  0  0  0  0  0
   -1.4093    4.5817   -0.8098 C   0  0  0  0  0  0  0  0  0  0  0  0
   -2.0797    5.3753   -0.4470 H   0  0  0  0  0  0  0  0  0  0  0  0
   -0.6588    3.8214    0.1004 C   0  0  0  0  0  0  0  0  0  0  0  0
   -0.7413    4.0130    1.1808 H   0  0  0  0  0  0  0  0  0  0  0  0
    0.1910    2.8027   -0.3577 C   0  0  0  0  0  0  0  0  0  0  0  0
    0.7639    2.2054    0.3682 H   0  0  0  0  0  0  0  0  0  0  0  0
    0.0054   -1.0519    3.0248 C   0  0  0  0  0  0  0  0  0  0  0  0
    0.5634   -1.7650    2.3870 H   0  0  0  0  0  0  0  0  0  0  0  0
   -0.6605   -1.6588    3.6767 H   0  0  0  0  0  0  0  0  0  0  0  0
    0.9345   -0.2085    3.9000 C   0  0  0  0  0  0  0  0  0  0  0  0
    1.4725   -0.8726    4.6083 H   0  0  0  0  0  0  0  0  0  0  0  0
    0.3503    0.5045    4.5160 H   0  0  0  0  0  0  0  0  0  0  0  0
    3.5009   -0.3393    2.6889 C   0  0  0  0  0  0  0  0  0  0  0  0
    4.4172    0.2839    2.7189 H   0  0  0  0  0  0  0  0  0  0  0  0
    3.5787   -1.0621    3.5270 H   0  0  0  0  0  0  0  0  0  0  0  0
    3.4118   -1.0927    1.3535 C   0  0  0  0  0  0  0  0  0  0  0  0
    4.3552   -1.6496    1.1690 H   0  0  0  0  0  0  0  0  0  0  0  0
    2.5916   -1.8366    1.3369 H   0  0  0  0  0  0  0  0  0  0  0  0
    1.9859   -0.1412   -0.4538 C   0  0  0  0  0  2  0  0  0  0  0  0
  1 58  1  0  0  0  0
  2  6  1  0  0  0  0
  2  7  1  0  0  0  0
  3 16  1  0  0  0  0
  3 55  1  0  0  0  0
  4 31  1  0  0  0  0
  4 67  1  0  0  0  0
  5 64  1  0  0  0  0
  6  3  1  0  0  0  0
  7  8  2  0  0  0  0
  7 16  1  0  0  0  0
  8 10  1  0  0  0  0
  9  8  1  0  0  0  0
 10 11  1  0  0  0  0
 10 12  2  0  0  0  0
 12 13  1  0  0  0  0
 14 12  1  0  0  0  0
 14 15  1  0  0  0  0
 16 14  2  0  0  0  0
 17  2  1  0  0  0  0
 18 17  1  0  0  0  0
 19 17  1  0  0  0  0
 20 17  1  0  0  0  0
 20 29  1  0  0  0  0
 21 20  2  0  0  0  0
 22 21  1  0  0  0  0
 23 21  1  0  0  0  0
 23 25  2  0  0  0  0
 24 23  1  0  0  0  0
 25 27  1  0  0  0  0
 26 25  1  0  0  0  0
 27 29  2  0  0  0  0
 27 28  1  0  0  0  0
 29 30  1  0  0  0  0
 31 40  1  0  0  0  0
 32 34  1  0  0  0  0
 32 31  2  0  0  0  0
 33 32  1  0  0  0  0
 34 36  2  0  0  0  0
 35 34  1  0  0  0  0
 36 37  1  0  0  0  0
 36 38  1  0  0  0  0
 38 39  1  0  0  0  0
 40 38  2  0  0  0  0
 40  5  1  0  0  0  0
 41 44  1  0  0  0  0
 41  4  1  0  0  0  0
 42 41  1  0  0  0  0
 43 41  1  0  0  0  0
 44 53  1  0  0  0  0
 45 47  1  0  0  0  0
 45 44  2  0  0  0  0
 46 45  1  0  0  0  0
 47 49  2  0  0  0  0
 48 47  1  0  0  0  0
 49 50  1  0  0  0  0
 49 51  1  0  0  0  0
 51 52  1  0  0  0  0
 53 51  2  0  0  0  0
 53 54  1  0  0  0  0
 55 57  1  0  0  0  0
 55 58  1  0  0  0  0
 56 55  1  0  0  0  0
 58 60  1  0  0  0  0
 58 59  1  0  0  0  0
 61 62  1  0  0  0  0
 61  1  1  0  0  0  0
 61 63  1  0  0  0  0
 64 61  1  0  0  0  0
 65 64  1  0  0  0  0
 66 64  1  0  0  0  0
 67  5  1  0  0  0  0
M  END
