5,25
 OpenBabel05122313053D

 36 36  0  0  1  0  0  0  0  0999 V2000
    4.2298   -0.2263   -0.1706 O   0  0  0  0  0  0  0  0  0  0  0  0
    3.9099    1.9807    0.2458 O   0  0  0  0  0  0  0  0  0  0  0  0
    2.2748   -2.7496    0.1947 O   0  0  0  0  0  0  0  0  0  0  0  0
    2.4468   -1.8597   -1.8832 O   0  0  0  0  0  0  0  0  0  0  0  0
   -0.2223    1.2299    0.9427 C   0  0  0  0  0  3  0  0  0  0  0  0
    0.0632    0.9751    1.9890 H   0  0  0  0  0  0  0  0  0  0  0  0
    1.0914    1.8168    0.3403 C   0  0  2  0  0  0  0  0  0  0  0  0
    1.5777    2.4585    1.1070 H   0  0  0  0  0  0  0  0  0  0  0  0
    1.0083    2.6747   -0.9482 C   0  0  0  0  0  0  0  0  0  0  0  0
    2.0475    2.9984   -1.1658 H   0  0  0  0  0  0  0  0  0  0  0  0
    0.6907    2.0303   -1.7902 H   0  0  0  0  0  0  0  0  0  0  0  0
    0.1008    3.9260   -0.9062 C   0  0  0  0  0  0  0  0  0  0  0  0
    0.3561    4.5574   -1.7830 H   0  0  0  0  0  0  0  0  0  0  0  0
   -0.9541    3.6245   -1.0559 H   0  0  0  0  0  0  0  0  0  0  0  0
    0.2299    4.7509    0.3487 C   0  0  0  0  0  0  0  0  0  0  0  0
    0.8914    5.6335    0.2883 H   0  0  0  0  0  0  0  0  0  0  0  0
   -0.3287    4.4955    1.5509 C   0  0  0  0  0  0  0  0  0  0  0  0
   -0.1014    5.2119    2.3620 H   0  0  0  0  0  0  0  0  0  0  0  0
   -1.2533    3.3814    1.9745 C   0  0  0  0  0  0  0  0  0  0  0  0
   -2.2550    3.8329    2.1737 H   0  0  0  0  0  0  0  0  0  0  0  0
   -0.9145    3.0319    2.9786 H   0  0  0  0  0  0  0  0  0  0  0  0
   -1.4472    2.1392    1.0807 C   0  0  0  0  0  0  0  0  0  0  0  0
   -2.2507    1.5360    1.5538 H   0  0  0  0  0  0  0  0  0  0  0  0
   -1.8600    2.4238    0.0941 H   0  0  0  0  0  0  0  0  0  0  0  0
    1.3723   -0.5602   -0.2383 C   0  0  0  0  0  3  0  0  0  0  0  0
    1.9846    0.6273    0.0459 C   0  0  0  0  0  0  0  0  0  0  0  0
    3.4607    0.7107    0.0139 C   0  0  0  0  0  0  0  0  0  0  0  0
    5.3298    2.1297    0.2452 C   0  0  0  0  0  0  0  0  0  0  0  0
    5.7974    1.4950    1.0258 H   0  0  0  0  0  0  0  0  0  0  0  0
    5.5280    3.1978    0.4471 H   0  0  0  0  0  0  0  0  0  0  0  0
    5.7607    1.8351   -0.7337 H   0  0  0  0  0  0  0  0  0  0  0  0
    2.1085   -1.8104   -0.5790 C   0  0  0  0  0  0  0  0  0  0  0  0
    3.1508   -3.0390   -2.2865 C   0  0  0  0  0  0  0  0  0  0  0  0
    4.1225   -3.1036   -1.7565 H   0  0  0  0  0  0  0  0  0  0  0  0
    3.3116   -2.9419   -3.3749 H   0  0  0  0  0  0  0  0  0  0  0  0
    2.5602   -3.9498   -2.0605 H   0  0  0  0  0  0  0  0  0  0  0  0
  1 27  2  0  0  0  0
  4 32  1  0  0  0  0
  5 22  1  0  0  0  0
  5  6  1  0  0  0  0
  7  5  1  0  0  0  0
  7  8  1  1  0  0  0
  9 12  1  0  0  0  0
  9  7  1  0  0  0  0
 10  9  1  0  0  0  0
 11  9  1  0  0  0  0
 12 15  1  0  0  0  0
 13 12  1  0  0  0  0
 14 12  1  0  0  0  0
 15 17  2  0  0  0  0
 16 15  1  0  0  0  0
 17 19  1  0  0  0  0
 17 18  1  0  0  0  0
 19 20  1  0  0  0  0
 19 21  1  0  0  0  0
 22 23  1  0  0  0  0
 22 19  1  0  0  0  0
 24 22  1  0  0  0  0
 25 26  2  0  0  0  0
 26  7  1  0  0  0  0
 27 26  1  0  0  0  0
 27  2  1  0  0  0  0
 28  2  1  0  0  0  0
 28 30  1  0  0  0  0
 28 29  1  0  0  0  0
 31 28  1  0  0  0  0
 32 25  1  0  0  0  0
 32  3  2  0  0  0  0
 33 36  1  0  0  0  0
 33  4  1  0  0  0  0
 33 34  1  0  0  0  0
 35 33  1  0  0  0  0
M  END
