2,23
 OpenBabel05122313053D

 42 44  0  0  1  0  0  0  0  0999 V2000
    0.2429    1.5681   -0.0248 C   0  0  0  0  0  0  0  0  0  0  0  0
   -0.8242    2.1803   -0.7570 C   0  0  0  0  0  3  0  0  0  0  0  0
   -0.8186    2.3908   -1.8343 H   0  0  0  0  0  0  0  0  0  0  0  0
   -1.8776    2.4974    0.1556 C   0  0  0  0  0  0  0  0  0  0  0  0
   -2.8376    2.9559   -0.1059 H   0  0  0  0  0  0  0  0  0  0  0  0
   -1.4853    2.0553    1.4436 C   0  0  0  0  0  0  0  0  0  0  0  0
   -2.0865    2.1120    2.3581 H   0  0  0  0  0  0  0  0  0  0  0  0
   -0.1828    1.4727    1.3357 C   0  0  0  0  0  0  0  0  0  0  0  0
    0.3996    1.0468    2.1608 H   0  0  0  0  0  0  0  0  0  0  0  0
    1.5693    1.1038   -0.5928 C   0  0  1  0  0  0  0  0  0  0  0  0
    1.5151    1.2746   -1.6919 H   0  0  0  0  0  0  0  0  0  0  0  0
    2.7019    1.9555   -0.0521 C   0  0  0  0  0  0  0  0  0  0  0  0
    2.3820    2.9333    0.3457 H   0  0  0  0  0  0  0  0  0  0  0  0
    4.0178    1.6671    0.0019 C   0  0  0  0  0  0  0  0  0  0  0  0
    4.6737    2.4305    0.4591 H   0  0  0  0  0  0  0  0  0  0  0  0
    4.7254    0.4159   -0.4655 C   0  0  1  0  0  0  0  0  0  0  0  0
    4.1703   -0.0160   -1.3243 H   0  0  0  0  0  0  0  0  0  0  0  0
    6.1326    0.7728   -0.9690 C   0  0  0  0  0  0  0  0  0  0  0  0
    6.0823    1.5516   -1.7557 H   0  0  0  0  0  0  0  0  0  0  0  0
    6.6579   -0.1025   -1.3975 H   0  0  0  0  0  0  0  0  0  0  0  0
    6.7562    1.1723   -0.1412 H   0  0  0  0  0  0  0  0  0  0  0  0
    0.4302   -1.1297   -0.7688 C   0  0  2  0  0  3  0  0  0  0  0  0
   -0.3516   -0.8431   -1.9424 C   0  0  0  0  0  3  0  0  0  0  0  0
   -0.0944   -0.1219   -2.7276 H   0  0  0  0  0  0  0  0  0  0  0  0
   -1.4994   -1.6868   -1.9376 C   0  0  0  0  0  3  0  0  0  0  0  0
   -2.2959   -1.6907   -2.6898 H   0  0  0  0  0  0  0  0  0  0  0  0
   -1.4623   -2.4725   -0.7555 C   0  0  0  0  0  0  0  0  0  0  0  0
   -2.2228   -3.1922   -0.4308 H   0  0  0  0  0  0  0  0  0  0  0  0
   -0.2699   -2.1385   -0.0432 C   0  0  0  0  0  0  0  0  0  0  0  0
    0.0419   -2.5760    0.9109 H   0  0  0  0  0  0  0  0  0  0  0  0
    1.7339   -0.4526   -0.3962 C   0  0  2  0  0  0  0  0  0  0  0  0
    2.4898   -0.7957   -1.1298 H   0  0  0  0  0  0  0  0  0  0  0  0
    2.2102   -0.8261    0.9876 C   0  0  0  0  0  0  0  0  0  0  0  0
    1.4220   -1.0419    1.7283 H   0  0  0  0  0  0  0  0  0  0  0  0
    3.4861   -0.8850    1.4212 C   0  0  0  0  0  0  0  0  0  0  0  0
    3.6284   -1.1800    2.4760 H   0  0  0  0  0  0  0  0  0  0  0  0
    4.7791   -0.6639    0.6622 C   0  0  1  0  0  0  0  0  0  0  0  0
    5.5136   -0.2865    1.4104 H   0  0  0  0  0  0  0  0  0  0  0  0
    5.3044   -2.0204    0.1499 C   0  0  0  0  0  0  0  0  0  0  0  0
    4.6294   -2.4291   -0.6305 H   0  0  0  0  0  0  0  0  0  0  0  0
    5.3484   -2.7633    0.9710 H   0  0  0  0  0  0  0  0  0  0  0  0
    6.3222   -1.9367   -0.2797 H   0  0  0  0  0  0  0  0  0  0  0  0
  1  8  2  0  0  0  0
  2  1  1  0  0  0  0
  2  4  1  0  0  0  0
  3  2  1  0  0  0  0
  4  6  2  0  0  0  0
  5  4  1  0  0  0  0
  6  7  1  0  0  0  0
  8  6  1  0  0  0  0
  8  9  1  0  0  0  0
 10 11  1  6  0  0  0
 10 31  1  0  0  0  0
 10 12  1  0  0  0  0
 10  1  1  0  0  0  0
 12 14  2  0  0  0  0
 12 13  1  0  0  0  0
 14 15  1  0  0  0  0
 16 17  1  6  0  0  0
 16 14  1  0  0  0  0
 16 37  1  0  0  0  0
 18 16  1  0  0  0  0
 18 21  1  0  0  0  0
 19 18  1  0  0  0  0
 20 18  1  0  0  0  0
 22 23  1  1  0  0  0
 22 31  1  0  0  0  0
 22 29  1  0  0  0  0
 23 25  1  0  0  0  0
 24 23  1  0  0  0  0
 25 27  1  0  0  0  0
 26 25  1  0  0  0  0
 27 28  1  0  0  0  0
 27 29  2  0  0  0  0
 29 30  1  0  0  0  0
 31 32  1  6  0  0  0
 31 33  1  0  0  0  0
 33 35  2  0  0  0  0
 33 34  1  0  0  0  0
 35 36  1  0  0  0  0
 37 38  1  1  0  0  0
 37 35  1  0  0  0  0
 39 37  1  0  0  0  0
 39 41  1  0  0  0  0
 40 39  1  0  0  0  0
 42 39  1  0  0  0  0
M  END
