2,9
 OpenBabel05122313053D

 27 27  0  0  1  0  0  0  0  0999 V2000
    1.6309   -0.5392   -0.9749 C   0  0  1  0  0  3  0  0  0  0  0  0
    1.6209    0.3116    0.1773 C   0  0  0  0  0  3  0  0  0  0  0  0
    2.3105   -0.0079    1.4788 C   0  0  0  0  0  0  0  0  0  0  0  0
    3.8190    0.3025    1.5199 C   0  0  0  0  0  0  0  0  0  0  0  0
    4.7596   -0.6429    0.7415 C   0  0  1  0  0  0  0  0  0  0  0  0
    4.5992   -0.5717   -0.8011 C   0  0  0  0  0  0  0  0  0  0  0  0
    3.7860   -1.6952   -1.4622 C   0  0  0  0  0  0  0  0  0  0  0  0
    2.3325   -1.8677   -0.9716 C   0  0  0  0  0  0  0  0  0  0  0  0
    0.8161   -0.0849   -2.0718 C   0  0  0  0  0  3  0  0  0  0  0  0
    6.2137   -0.3510    1.1418 C   0  0  0  0  0  0  0  0  0  0  0  0
    1.5091    1.3977   -0.0305 H   0  0  0  0  0  0  0  0  0  0  0  0
    1.8088    0.5790    2.2765 H   0  0  0  0  0  0  0  0  0  0  0  0
    2.1452   -1.0707    1.7479 H   0  0  0  0  0  0  0  0  0  0  0  0
    4.1300    0.2878    2.5867 H   0  0  0  0  0  0  0  0  0  0  0  0
    3.9945    1.3457    1.1700 H   0  0  0  0  0  0  0  0  0  0  0  0
    4.5293   -1.6842    1.0667 H   0  0  0  0  0  0  0  0  0  0  0  0
    5.6079   -0.5903   -1.2653 H   0  0  0  0  0  0  0  0  0  0  0  0
    4.1720    0.4163   -1.0806 H   0  0  0  0  0  0  0  0  0  0  0  0
    4.3114   -2.6640   -1.3180 H   0  0  0  0  0  0  0  0  0  0  0  0
    3.7719   -1.5143   -2.5586 H   0  0  0  0  0  0  0  0  0  0  0  0
    1.8013   -2.5855   -1.6256 H   0  0  0  0  0  0  0  0  0  0  0  0
    2.3180   -2.3007    0.0480 H   0  0  0  0  0  0  0  0  0  0  0  0
    0.6451   -0.7615   -2.9232 H   0  0  0  0  0  0  0  0  0  0  0  0
    0.8024    0.9942   -2.3132 H   0  0  0  0  0  0  0  0  0  0  0  0
    6.9159   -1.0571    0.6537 H   0  0  0  0  0  0  0  0  0  0  0  0
    6.5075    0.6763    0.8371 H   0  0  0  0  0  0  0  0  0  0  0  0
    6.3613   -0.4288    2.2384 H   0  0  0  0  0  0  0  0  0  0  0  0
  1  9  1  1  0  0  0
  1  8  1  0  0  0  0
  1  2  1  0  0  0  0
  2  3  1  0  0  0  0
  3  4  1  0  0  0  0
  3 13  1  0  0  0  0
  3 12  1  0  0  0  0
  4 14  1  0  0  0  0
  5 16  1  1  0  0  0
  5 10  1  0  0  0  0
  5  4  1  0  0  0  0
  6  5  1  0  0  0  0
  7 19  1  0  0  0  0
  7  8  1  0  0  0  0
  7  6  1  0  0  0  0
  8 22  1  0  0  0  0
 10 27  1  0  0  0  0
 11  2  1  0  0  0  0
 15  4  1  0  0  0  0
 17  6  1  0  0  0  0
 18  6  1  0  0  0  0
 20  7  1  0  0  0  0
 21  8  1  0  0  0  0
 23  9  1  0  0  0  0
 24  9  1  0  0  0  0
 25 10  1  0  0  0  0
 26 10  1  0  0  0  0
M  END
