5,8
 OpenBabel05122313053D

 40 42  0  0  1  0  0  0  0  0999 V2000
    0.9593    2.3007   -1.0667 S   0  0  0  0  0  0  0  0  0  0  0  0
    1.3010   -3.2159   -0.4576 O   0  0  0  0  0  0  0  0  0  0  0  0
    0.2884   -0.0753    0.3920 C   0  0  1  0  0  0  0  0  0  0  0  0
   -0.2564    1.2731   -0.1198 C   0  0  2  0  0  0  0  0  0  0  0  0
   -1.4548    0.9633   -0.9928 C   0  0  0  0  0  3  0  0  0  0  0  0
   -1.5760   -0.2848   -1.6623 C   0  0  0  0  0  3  0  0  0  0  0  0
   -0.6504   -1.4437   -1.3076 C   0  0  2  0  0  0  0  0  0  0  0  0
   -1.3122   -1.8463    0.0035 C   0  0  0  0  0  3  0  0  0  0  0  0
   -0.8700   -0.9088    0.9795 C   0  0  0  0  0  3  0  0  0  0  0  0
    0.7162   -0.9217   -0.8516 C   0  0  2  0  0  0  0  0  0  0  0  0
    1.6743   -2.0452   -0.4817 C   0  0  0  0  0  0  0  0  0  0  0  0
    3.0846   -1.6749   -0.1198 C   0  0  0  0  0  0  0  0  0  0  0  0
    3.9299   -2.6951    0.3674 C   0  0  0  0  0  0  0  0  0  0  0  0
    5.2518   -2.4109    0.7255 C   0  0  0  0  0  0  0  0  0  0  0  0
    5.7478   -1.1012    0.5972 C   0  0  0  0  0  0  0  0  0  0  0  0
    4.9168   -0.0809    0.1068 C   0  0  0  0  0  0  0  0  0  0  0  0
    3.5903   -0.3620   -0.2506 C   0  0  0  0  0  0  0  0  0  0  0  0
    1.8736    3.1110    0.3281 C   0  0  0  0  0  0  0  0  0  0  0  0
    1.0266    4.1707    1.0310 C   0  0  0  0  0  0  0  0  0  0  0  0
    3.1627    3.6909   -0.2566 C   0  0  0  0  0  0  0  0  0  0  0  0
    1.1074    0.0745    1.1219 H   0  0  0  0  0  0  0  0  0  0  0  0
   -0.5615    1.9038    0.7370 H   0  0  0  0  0  0  0  0  0  0  0  0
   -1.9967    1.8299   -1.4036 H   0  0  0  0  0  0  0  0  0  0  0  0
   -2.1978   -0.3661   -2.5653 H   0  0  0  0  0  0  0  0  0  0  0  0
   -0.6107   -2.2354   -2.0750 H   0  0  0  0  0  0  0  0  0  0  0  0
   -1.6811   -2.8616    0.1970 H   0  0  0  0  0  0  0  0  0  0  0  0
   -0.9386   -1.0922    2.0607 H   0  0  0  0  0  0  0  0  0  0  0  0
    1.1937   -0.2541   -1.6013 H   0  0  0  0  0  0  0  0  0  0  0  0
    3.5116   -3.7094    0.4514 H   0  0  0  0  0  0  0  0  0  0  0  0
    5.9039   -3.2114    1.1068 H   0  0  0  0  0  0  0  0  0  0  0  0
    6.7878   -0.8759    0.8790 H   0  0  0  0  0  0  0  0  0  0  0  0
    5.3060    0.9434    0.0001 H   0  0  0  0  0  0  0  0  0  0  0  0
    2.9499    0.4458   -0.6412 H   0  0  0  0  0  0  0  0  0  0  0  0
    2.1348    2.2998    1.0426 H   0  0  0  0  0  0  0  0  0  0  0  0
    0.0887    3.7518    1.4475 H   0  0  0  0  0  0  0  0  0  0  0  0
    1.5923    4.6170    1.8762 H   0  0  0  0  0  0  0  0  0  0  0  0
    0.7537    4.9824    0.3268 H   0  0  0  0  0  0  0  0  0  0  0  0
    2.9387    4.4611   -1.0235 H   0  0  0  0  0  0  0  0  0  0  0  0
    3.7603    4.1750    0.5427 H   0  0  0  0  0  0  0  0  0  0  0  0
    3.7864    2.9081   -0.7321 H   0  0  0  0  0  0  0  0  0  0  0  0
  1  4  1  0  0  0  0
  1 18  1  0  0  0  0
  3  9  1  0  0  0  0
  3 21  1  1  0  0  0
  4  3  1  0  0  0  0
  4 22  1  1  0  0  0
  5  4  1  0  0  0  0
  6  7  1  0  0  0  0
  6  5  1  0  0  0  0
  7 25  1  6  0  0  0
  7 10  1  0  0  0  0
  7  8  1  0  0  0  0
  8 26  1  0  0  0  0
  8  9  1  0  0  0  0
  9 27  1  0  0  0  0
 10 28  1  6  0  0  0
 10 11  1  0  0  0  0
 10  3  1  0  0  0  0
 11  2  2  0  0  0  0
 11 12  1  0  0  0  0
 12 13  1  0  0  0  0
 13 29  1  0  0  0  0
 13 14  2  0  0  0  0
 14 30  1  0  0  0  0
 15 14  1  0  0  0  0
 15 31  1  0  0  0  0
 16 15  2  0  0  0  0
 17 12  2  0  0  0  0
 17 16  1  0  0  0  0
 18 19  1  0  0  0  0
 18 34  1  0  0  0  0
 19 35  1  0  0  0  0
 19 36  1  0  0  0  0
 20 18  1  0  0  0  0
 20 39  1  0  0  0  0
 23  5  1  0  0  0  0
 24  6  1  0  0  0  0
 32 16  1  0  0  0  0
 33 17  1  0  0  0  0
 37 19  1  0  0  0  0
 38 20  1  0  0  0  0
 40 20  1  0  0  0  0
M  END
