6,9
 OpenBabel05122313053D

 22 22  0  0  1  0  0  0  0  0999 V2000
    3.6394   -1.8128   -0.4905 O   0  0  0  0  0  0  0  0  0  0  0  0
   -2.7897   -0.8950    0.0019 N   0  0  0  0  0  0  0  0  0  0  0  0
   -1.4305   -1.0535    0.1144 C   0  0  0  0  0  0  0  0  0  0  0  0
   -0.7637   -0.9178    1.3838 C   0  0  0  0  0  0  0  0  0  0  0  0
   -1.3265   -0.6340    2.2788 H   0  0  0  0  0  0  0  0  0  0  0  0
    0.6365   -1.1104    1.4940 C   0  0  0  0  0  3  0  0  0  0  0  0
    1.1202   -0.9889    2.4751 H   0  0  0  0  0  0  0  0  0  0  0  0
    1.4357   -1.4392    0.3568 C   0  0  1  0  0  3  0  0  0  0  0  0
    0.7908   -1.4799   -0.9171 C   0  0  0  0  0  3  0  0  0  0  0  0
    1.4196   -1.6458   -1.8038 H   0  0  0  0  0  0  0  0  0  0  0  0
   -0.6038   -1.2789   -1.0453 C   0  0  0  0  0  3  0  0  0  0  0  0
   -1.0431   -1.2720   -2.0481 H   0  0  0  0  0  0  0  0  0  0  0  0
   -3.3927   -0.7700   -1.3173 C   0  0  0  0  0  0  0  0  0  0  0  0
   -3.0891    0.1678   -1.8356 H   0  0  0  0  0  0  0  0  0  0  0  0
   -4.4923   -0.7653   -1.2091 H   0  0  0  0  0  0  0  0  0  0  0  0
   -3.1273   -1.6328   -1.9595 H   0  0  0  0  0  0  0  0  0  0  0  0
   -3.5495   -0.3926    1.1374 C   0  0  0  0  0  0  0  0  0  0  0  0
   -3.3972   -1.0286    2.0319 H   0  0  0  0  0  0  0  0  0  0  0  0
   -4.6259   -0.4231    0.8902 H   0  0  0  0  0  0  0  0  0  0  0  0
   -3.2805    0.6568    1.3959 H   0  0  0  0  0  0  0  0  0  0  0  0
    2.9105   -1.5340    0.4475 C   0  0  0  0  0  0  0  0  0  0  0  0
    3.3217   -1.3298    1.4815 H   0  0  0  0  0  0  0  0  0  0  0  0
  1 21  2  0  0  0  0
  2  3  1  0  0  0  0
  2 17  1  0  0  0  0
  3  4  2  0  0  0  0
  4  6  1  0  0  0  0
  4  5  1  0  0  0  0
  6  7  1  0  0  0  0
  8 21  1  6  0  0  0
  8  6  1  0  0  0  0
  9  8  1  0  0  0  0
 10  9  1  0  0  0  0
 11  9  1  0  0  0  0
 11  3  1  0  0  0  0
 12 11  1  0  0  0  0
 13 15  1  0  0  0  0
 13  2  1  0  0  0  0
 14 13  1  0  0  0  0
 16 13  1  0  0  0  0
 17 20  1  0  0  0  0
 17 18  1  0  0  0  0
 19 17  1  0  0  0  0
 21 22  1  0  0  0  0
M  END
