22,53
 OpenBabel05122313053D

 60 63  0  0  0  0  0  0  0  0999 V2000
    2.9067    1.4312   -0.3659 N   0  0  0  0  0  0  0  0  0  0  0  0
    2.9109   -0.7510   -0.4576 N   0  0  0  0  0  0  0  0  0  0  0  0
   -2.9139   -0.4933   -0.8787 N   0  0  0  0  0  0  0  0  0  0  0  0
   -2.8661    1.2839    0.3888 N   0  0  0  0  0  0  0  0  0  0  0  0
    2.3056    3.2936    1.1708 C   0  0  0  0  0  0  0  0  0  0  0  0
    1.5831    2.6647    1.7295 H   0  0  0  0  0  0  0  0  0  0  0  0
    1.9480    4.3418    1.1930 H   0  0  0  0  0  0  0  0  0  0  0  0
    3.2774    3.2528    1.7014 H   0  0  0  0  0  0  0  0  0  0  0  0
    2.4320    2.8119   -0.2719 C   0  0  0  0  0  0  0  0  0  0  0  0
    1.4528    2.8447   -0.7902 H   0  0  0  0  0  0  0  0  0  0  0  0
    3.1309    3.4480   -0.8518 H   0  0  0  0  0  0  0  0  0  0  0  0
    4.2480    1.0473   -0.3069 C   0  0  0  0  0  0  0  0  0  0  0  0
    5.4409    1.7813   -0.2214 C   0  0  0  0  0  0  0  0  0  0  0  0
    5.4445    2.8791   -0.1736 H   0  0  0  0  0  0  0  0  0  0  0  0
    6.6354    1.0494   -0.1958 C   0  0  0  0  0  0  0  0  0  0  0  0
    7.5926    1.5863   -0.1270 H   0  0  0  0  0  0  0  0  0  0  0  0
    6.6396   -0.3636   -0.2556 C   0  0  0  0  0  0  0  0  0  0  0  0
    7.5998   -0.8989   -0.2321 H   0  0  0  0  0  0  0  0  0  0  0  0
    5.4492   -1.0980   -0.3431 C   0  0  0  0  0  0  0  0  0  0  0  0
    5.4622   -2.1958   -0.3882 H   0  0  0  0  0  0  0  0  0  0  0  0
    4.2518   -0.3665   -0.3666 C   0  0  0  0  0  0  0  0  0  0  0  0
    2.0893    0.3414   -0.4422 C   0  0  0  0  0  2  0  0  0  0  0  0
    2.4540   -2.1353   -0.4595 C   0  0  0  0  0  0  0  0  0  0  0  0
    3.1711   -2.7375   -1.0534 H   0  0  0  0  0  0  0  0  0  0  0  0
    1.4687   -2.1643   -0.9638 H   0  0  0  0  0  0  0  0  0  0  0  0
    2.3168   -2.7081    0.9543 C   0  0  0  0  0  0  0  0  0  0  0  0
    2.1249   -3.8012    0.8723 H   0  0  0  0  0  0  0  0  0  0  0  0
    3.2765   -2.5846    1.5064 H   0  0  0  0  0  0  0  0  0  0  0  0
    1.2896   -2.0341    1.6556 O   0  0  0  0  0  0  0  0  0  0  0  0
    0.2102   -2.8284    2.1183 C   0  0  0  0  0  0  0  0  0  0  0  0
   -0.4211   -2.1385    2.7131 H   0  0  0  0  0  0  0  0  0  0  0  0
    0.5625   -3.6396    2.7999 H   0  0  0  0  0  0  0  0  0  0  0  0
   -0.6417   -3.4624    1.0230 C   0  0  0  0  0  0  0  0  0  0  0  0
   -0.0788   -4.2527    0.4670 H   0  0  0  0  0  0  0  0  0  0  0  0
   -1.5049   -3.9739    1.5137 H   0  0  0  0  0  0  0  0  0  0  0  0
   -1.0819   -2.4557    0.1305 O   0  0  0  0  0  0  0  0  0  0  0  0
   -2.1220   -2.8440   -0.7385 C   0  0  0  0  0  0  0  0  0  0  0  0
   -3.0241   -3.1637   -0.1612 H   0  0  0  0  0  0  0  0  0  0  0  0
   -1.8214   -3.7034   -1.3865 H   0  0  0  0  0  0  0  0  0  0  0  0
   -2.4576   -1.6538   -1.6325 C   0  0  0  0  0  0  0  0  0  0  0  0
   -1.5569   -1.3496   -2.2019 H   0  0  0  0  0  0  0  0  0  0  0  0
   -3.2405   -1.9357   -2.3628 H   0  0  0  0  0  0  0  0  0  0  0  0
   -4.2451   -0.2214   -0.5506 C   0  0  0  0  0  0  0  0  0  0  0  0
   -5.4533   -0.8567   -0.8753 C   0  0  0  0  0  0  0  0  0  0  0  0
   -5.4869   -1.7617   -1.4978 H   0  0  0  0  0  0  0  0  0  0  0  0
   -6.6275   -0.2848   -0.3667 C   0  0  0  0  0  0  0  0  0  0  0  0
   -7.5956   -0.7513   -0.5993 H   0  0  0  0  0  0  0  0  0  0  0  0
   -6.5970    0.8777    0.4379 C   0  0  0  0  0  0  0  0  0  0  0  0
   -7.5421    1.2941    0.8152 H   0  0  0  0  0  0  0  0  0  0  0  0
   -5.3910    1.5118    0.7655 C   0  0  0  0  0  0  0  0  0  0  0  0
   -5.3741    2.4164    1.3890 H   0  0  0  0  0  0  0  0  0  0  0  0
   -4.2143    0.9390    0.2593 C   0  0  0  0  0  0  0  0  0  0  0  0
   -2.0721    0.4172   -0.3010 C   0  0  0  0  0  2  0  0  0  0  0  0
   -2.3750    2.4668    1.0973 C   0  0  0  0  0  0  0  0  0  0  0  0
   -1.3258    2.2495    1.3810 H   0  0  0  0  0  0  0  0  0  0  0  0
   -2.9551    2.5595    2.0380 H   0  0  0  0  0  0  0  0  0  0  0  0
   -2.4652    3.7384    0.2584 C   0  0  0  0  0  0  0  0  0  0  0  0
   -1.8540    3.6447   -0.6614 H   0  0  0  0  0  0  0  0  0  0  0  0
   -2.0905    4.6040    0.8392 H   0  0  0  0  0  0  0  0  0  0  0  0
   -3.5090    3.9562   -0.0423 H   0  0  0  0  0  0  0  0  0  0  0  0
  1 12  1  0  0  0  0
  1  9  1  0  0  0  0
  2 22  1  0  0  0  0
  2 21  1  0  0  0  0
  3 43  1  0  0  0  0
  3 53  1  0  0  0  0
  4 54  1  0  0  0  0
  5  7  1  0  0  0  0
  5  8  1  0  0  0  0
  5  6  1  0  0  0  0
  9  5  1  0  0  0  0
 10  9  1  0  0  0  0
 11  9  1  0  0  0  0
 12 13  1  0  0  0  0
 13 15  2  0  0  0  0
 13 14  1  0  0  0  0
 15 16  1  0  0  0  0
 17 18  1  0  0  0  0
 17 15  1  0  0  0  0
 19 17  2  0  0  0  0
 20 19  1  0  0  0  0
 21 19  1  0  0  0  0
 21 12  2  0  0  0  0
 22  1  1  0  0  0  0
 23  2  1  0  0  0  0
 23 26  1  0  0  0  0
 24 23  1  0  0  0  0
 25 23  1  0  0  0  0
 26 28  1  0  0  0  0
 26 29  1  0  0  0  0
 27 26  1  0  0  0  0
 29 30  1  0  0  0  0
 30 31  1  0  0  0  0
 30 32  1  0  0  0  0
 33 35  1  0  0  0  0
 33 30  1  0  0  0  0
 34 33  1  0  0  0  0
 36 33  1  0  0  0  0
 37 38  1  0  0  0  0
 37 36  1  0  0  0  0
 39 37  1  0  0  0  0
 40  3  1  0  0  0  0
 40 37  1  0  0  0  0
 41 40  1  0  0  0  0
 42 40  1  0  0  0  0
 43 52  1  0  0  0  0
 44 43  2  0  0  0  0
 44 46  1  0  0  0  0
 45 44  1  0  0  0  0
 46 48  2  0  0  0  0
 47 46  1  0  0  0  0
 48 50  1  0  0  0  0
 48 49  1  0  0  0  0
 50 51  1  0  0  0  0
 52  4  1  0  0  0  0
 52 50  2  0  0  0  0
 53  4  1  0  0  0  0
 54 55  1  0  0  0  0
 54 56  1  0  0  0  0
 57 59  1  0  0  0  0
 57 54  1  0  0  0  0
 58 57  1  0  0  0  0
 60 57  1  0  0  0  0
M  END
