5,14
 OpenBabel05122313053D

 46 47  0  0  0  0  0  0  0  0999 V2000
    0.1442    0.4635    2.5511 N   0  0  0  0  0  0  0  0  0  0  0  0
   -1.4060    1.3596    1.3391 N   0  0  0  0  0  0  0  0  0  0  0  0
    2.7673    0.5991    1.1303 N   0  0  0  0  0  0  0  0  0  0  0  0
    2.5110    1.0357   -0.9761 N   0  0  0  0  0  0  0  0  0  0  0  0
   -0.4419    0.3959    1.3122 C   0  0  0  0  0  2  0  0  0  0  0  0
   -0.4377    1.4525    3.3355 C   0  0  0  0  0  0  0  0  0  0  0  0
   -1.4230    2.0168    2.5682 C   0  0  0  0  0  0  0  0  0  0  0  0
   -2.3667    1.5972    0.2623 C   0  0  0  0  0  0  0  0  0  0  0  0
   -3.7472    1.0049    0.5506 C   0  0  0  0  0  0  0  0  0  0  0  0
   -4.7111    1.1738   -0.6277 C   0  0  0  0  0  0  0  0  0  0  0  0
   -6.0975    0.5907   -0.3549 C   0  0  0  0  0  0  0  0  0  0  0  0
    1.2573   -0.4106    2.8974 C   0  0  0  0  0  0  0  0  0  0  0  0
    2.6294    0.1430    2.5173 C   0  0  0  0  0  0  0  0  0  0  0  0
    1.9710    0.2996    0.0478 C   0  0  0  0  0  2  0  0  0  0  0  0
    3.7913    1.4741    0.7721 C   0  0  0  0  0  0  0  0  0  0  0  0
    3.6267    1.7487   -0.5555 C   0  0  0  0  0  0  0  0  0  0  0  0
    1.9111    1.2005   -2.3061 C   0  0  0  0  0  0  0  0  0  0  0  0
    1.4660    2.6393   -2.5787 C   0  0  0  0  0  0  0  0  0  0  0  0
    0.3509    3.1263   -1.6508 C   0  0  0  0  0  0  0  0  0  0  0  0
   -0.0650    4.5742   -1.9075 C   0  0  0  0  0  0  0  0  0  0  0  0
   -0.1205    1.6626    4.3615 H   0  0  0  0  0  0  0  0  0  0  0  0
   -2.1346    2.8164    2.7948 H   0  0  0  0  0  0  0  0  0  0  0  0
   -2.4318    2.6912    0.0886 H   0  0  0  0  0  0  0  0  0  0  0  0
   -1.9271    1.1448   -0.6480 H   0  0  0  0  0  0  0  0  0  0  0  0
   -3.6307   -0.0744    0.7930 H   0  0  0  0  0  0  0  0  0  0  0  0
   -4.1754    1.4790    1.4607 H   0  0  0  0  0  0  0  0  0  0  0  0
   -4.7984    2.2541   -0.8788 H   0  0  0  0  0  0  0  0  0  0  0  0
   -4.2705    0.6912   -1.5290 H   0  0  0  0  0  0  0  0  0  0  0  0
   -6.7703    0.7240   -1.2244 H   0  0  0  0  0  0  0  0  0  0  0  0
   -6.5771    1.0810    0.5171 H   0  0  0  0  0  0  0  0  0  0  0  0
   -6.0426   -0.4958   -0.1368 H   0  0  0  0  0  0  0  0  0  0  0  0
    1.2488   -0.6027    3.9883 H   0  0  0  0  0  0  0  0  0  0  0  0
    1.0726   -1.3684    2.3672 H   0  0  0  0  0  0  0  0  0  0  0  0
    3.3851   -0.6439    2.7282 H   0  0  0  0  0  0  0  0  0  0  0  0
    2.8749    1.0115    3.1614 H   0  0  0  0  0  0  0  0  0  0  0  0
    4.5467    1.8153    1.4863 H   0  0  0  0  0  0  0  0  0  0  0  0
    4.2041    2.3910   -1.2267 H   0  0  0  0  0  0  0  0  0  0  0  0
    2.6435    0.8619   -3.0677 H   0  0  0  0  0  0  0  0  0  0  0  0
    1.0404    0.5157   -2.3316 H   0  0  0  0  0  0  0  0  0  0  0  0
    2.3398    3.3249   -2.5186 H   0  0  0  0  0  0  0  0  0  0  0  0
    1.1263    2.6861   -3.6355 H   0  0  0  0  0  0  0  0  0  0  0  0
   -0.5240    2.4525   -1.7743 H   0  0  0  0  0  0  0  0  0  0  0  0
    0.6726    3.0081   -0.5923 H   0  0  0  0  0  0  0  0  0  0  0  0
   -0.4209    4.7157   -2.9486 H   0  0  0  0  0  0  0  0  0  0  0  0
    0.7826    5.2725   -1.7501 H   0  0  0  0  0  0  0  0  0  0  0  0
   -0.8835    4.8897   -1.2298 H   0  0  0  0  0  0  0  0  0  0  0  0
  1 12  1  0  0  0  0
  1  6  1  0  0  0  0
  2  7  1  0  0  0  0
  3 13  1  0  0  0  0
  4 16  1  0  0  0  0
  4 14  1  0  0  0  0
  5  2  1  0  0  0  0
  5  1  1  0  0  0  0
  6 21  1  0  0  0  0
  7 22  1  0  0  0  0
  7  6  2  0  0  0  0
  8  9  1  0  0  0  0
  8  2  1  0  0  0  0
  9 25  1  0  0  0  0
  9 26  1  0  0  0  0
 10 11  1  0  0  0  0
 10  9  1  0  0  0  0
 11 31  1  0  0  0  0
 11 30  1  0  0  0  0
 12 32  1  0  0  0  0
 13 34  1  0  0  0  0
 13 12  1  0  0  0  0
 13 35  1  0  0  0  0
 14  3  1  0  0  0  0
 15  3  1  0  0  0  0
 15 36  1  0  0  0  0
 16 15  2  0  0  0  0
 17  4  1  0  0  0  0
 18 40  1  0  0  0  0
 18 17  1  0  0  0  0
 18 19  1  0  0  0  0
 19 43  1  0  0  0  0
 20 45  1  0  0  0  0
 20 19  1  0  0  0  0
 20 46  1  0  0  0  0
 23  8  1  0  0  0  0
 24  8  1  0  0  0  0
 27 10  1  0  0  0  0
 28 10  1  0  0  0  0
 29 11  1  0  0  0  0
 33 12  1  0  0  0  0
 37 16  1  0  0  0  0
 38 17  1  0  0  0  0
 39 17  1  0  0  0  0
 41 18  1  0  0  0  0
 42 19  1  0  0  0  0
 44 20  1  0  0  0  0
M  END
