1,7
 OpenBabel05122313053D

 31 33  0  0  0  0  0  0  0  0999 V2000
   -2.1812   -0.1503   -0.0441 C   0  0  0  0  0  3  0  0  0  0  0  0
   -4.3055    0.1365   -0.4124 C   0  0  0  0  0  0  0  0  0  0  0  0
   -3.8877    1.3020    0.2103 C   0  0  0  0  0  0  0  0  0  0  0  0
   -1.6329    1.9383    1.1973 C   0  0  0  0  0  0  0  0  0  0  0  0
   -1.4395    1.4943    2.1982 H   0  0  0  0  0  0  0  0  0  0  0  0
   -2.0745    2.9448    1.3209 H   0  0  0  0  0  0  0  0  0  0  0  0
    0.3423    0.9587    0.0658 C   0  0  0  0  0  2  0  0  0  0  0  0
    1.4351    2.8862   -0.4959 C   0  0  0  0  0  0  0  0  0  0  0  0
    0.2834    3.2481    0.1608 C   0  0  0  0  0  0  0  0  0  0  0  0
    2.5319    0.7203   -1.1534 C   0  0  0  0  0  0  0  0  0  0  0  0
    2.7981    1.2080   -2.1139 H   0  0  0  0  0  0  0  0  0  0  0  0
    2.0933   -0.2616   -1.4278 H   0  0  0  0  0  0  0  0  0  0  0  0
    3.7568    0.5717   -0.2799 C   0  0  0  0  0  0  0  0  0  0  0  0
    4.7424   -0.3563   -0.6623 C   0  0  0  0  0  0  0  0  0  0  0  0
    5.9000   -0.5831    0.0865 C   0  0  0  0  0  0  0  0  0  0  0  0
    6.6257   -1.3297   -0.2659 H   0  0  0  0  0  0  0  0  0  0  0  0
    6.0964    0.1506    1.2669 C   0  0  0  0  0  0  0  0  0  0  0  0
    7.0032   -0.0158    1.8670 H   0  0  0  0  0  0  0  0  0  0  0  0
    5.1382    1.0916    1.6729 C   0  0  0  0  0  0  0  0  0  0  0  0
    5.2879    1.6691    2.5968 H   0  0  0  0  0  0  0  0  0  0  0  0
    3.9820    1.2960    0.9039 C   0  0  0  0  0  0  0  0  0  0  0  0
    3.2287    2.0241    1.2389 H   0  0  0  0  0  0  0  0  0  0  0  0
   -3.2626   -0.7328   -0.5662 N   0  0  0  0  0  0  0  0  0  0  0  0
   -2.5239    1.1075    0.4392 N   0  0  0  0  0  0  0  0  0  0  0  0
   -0.3578    2.0614    0.5055 N   0  0  0  0  0  0  0  0  0  0  0  0
    1.4620    1.4907   -0.5396 N   0  0  0  0  0  0  0  0  0  0  0  0
    4.5429   -1.0686   -1.7939 F   0  0  0  0  0  0  0  0  0  0  0  0
   -5.9104   -0.2153   -0.9405 Cl  0  0  0  0  0  0  0  0  0  0  0  0
   -4.7070    2.7469    0.6524 Cl  0  0  0  0  0  0  0  0  0  0  0  0
    2.6485    3.8744   -1.1733 Cl  0  0  0  0  0  0  0  0  0  0  0  0
   -0.3156    4.8008    0.5351 Cl  0  0  0  0  0  0  0  0  0  0  0  0
  1 24  1  0  0  0  0
  2  3  2  0  0  0  0
  3 24  1  0  0  0  0
  3 29  1  0  0  0  0
  4  6  1  0  0  0  0
  4  5  1  0  0  0  0
  7 25  1  0  0  0  0
  8  9  2  0  0  0  0
  9 25  1  0  0  0  0
  9 31  1  0  0  0  0
 10 26  1  0  0  0  0
 10 13  1  0  0  0  0
 11 10  1  0  0  0  0
 12 10  1  0  0  0  0
 13 21  1  0  0  0  0
 14 13  2  0  0  0  0
 14 15  1  0  0  0  0
 15 17  2  0  0  0  0
 16 15  1  0  0  0  0
 17 19  1  0  0  0  0
 17 18  1  0  0  0  0
 19 20  1  0  0  0  0
 21 22  1  0  0  0  0
 21 19  2  0  0  0  0
 23  2  1  0  0  0  0
 23  1  2  0  0  0  0
 24  4  1  0  0  0  0
 25  4  1  0  0  0  0
 26  8  1  0  0  0  0
 26  7  1  0  0  0  0
 27 14  1  0  0  0  0
 28  2  1  0  0  0  0
 30  8  1  0  0  0  0
M  END
