4
 OpenBabel05122313053D

 72 75  0  0  1  0  0  0  0  0999 V2000
   -0.4165   -1.4463    2.9512 C   0  0  0  0  0  0  0  0  0  0  0  0
    0.3286   -2.0739    3.4768 H   0  0  0  0  0  0  0  0  0  0  0  0
   -1.1625   -1.1169    3.7004 H   0  0  0  0  0  0  0  0  0  0  0  0
   -1.0688   -2.1854    1.7964 C   0  0  2  0  0  3  0  0  0  0  0  0
   -0.4089   -3.0928    0.9004 C   0  0  1  0  0  3  0  0  0  0  0  0
    0.8291   -3.9076    1.1472 C   0  0  0  0  0  0  0  0  0  0  0  0
    0.5854   -4.9879    1.0741 H   0  0  0  0  0  0  0  0  0  0  0  0
    1.2449   -3.7310    2.1562 H   0  0  0  0  0  0  0  0  0  0  0  0
    1.6194   -3.6910    0.4013 H   0  0  0  0  0  0  0  0  0  0  0  0
   -1.2083   -3.1709   -0.2902 C   0  0  0  0  0  0  0  0  0  0  0  0
   -0.9665   -3.7981   -1.1563 H   0  0  0  0  0  0  0  0  0  0  0  0
   -2.3698   -2.3639   -0.1442 C   0  0  0  0  0  0  0  0  0  0  0  0
   -3.5989   -2.3880   -1.0466 C   0  0  0  0  0  0  0  0  0  0  0  0
   -4.3666   -3.6867   -0.6927 C   0  0  0  0  0  0  0  0  0  0  0  0
   -3.7512   -4.5854   -0.8993 H   0  0  0  0  0  0  0  0  0  0  0  0
   -5.2961   -3.7581   -1.2949 H   0  0  0  0  0  0  0  0  0  0  0  0
   -4.6478   -3.7050    0.3799 H   0  0  0  0  0  0  0  0  0  0  0  0
   -3.2037   -2.4274   -2.5350 C   0  0  0  0  0  0  0  0  0  0  0  0
   -2.6579   -1.5096   -2.8251 H   0  0  0  0  0  0  0  0  0  0  0  0
   -4.1124   -2.5107   -3.1652 H   0  0  0  0  0  0  0  0  0  0  0  0
   -2.5614   -3.3015   -2.7636 H   0  0  0  0  0  0  0  0  0  0  0  0
   -4.5166   -1.1819   -0.7756 C   0  0  0  0  0  0  0  0  0  0  0  0
   -3.9855   -0.2264   -0.9486 H   0  0  0  0  0  0  0  0  0  0  0  0
   -4.9007   -1.1909    0.2649 H   0  0  0  0  0  0  0  0  0  0  0  0
   -5.3959   -1.2186   -1.4499 H   0  0  0  0  0  0  0  0  0  0  0  0
   -2.2544   -1.7205    1.1312 C   0  0  0  0  0  3  0  0  0  0  0  0
   -2.9715   -1.0034    1.5456 H   0  0  0  0  0  0  0  0  0  0  0  0
    0.2375   -0.2750    2.2444 C   0  0  0  0  0  3  0  0  0  0  0  0
   -0.4384    0.9221    1.7984 C   0  0  0  0  0  0  0  0  0  0  0  0
   -1.7334    1.4537    2.0670 C   0  0  0  0  0  0  0  0  0  0  0  0
   -2.4018    0.9590    2.7873 H   0  0  0  0  0  0  0  0  0  0  0  0
   -2.1275    2.6258    1.4388 C   0  0  0  0  0  0  0  0  0  0  0  0
   -3.1278    3.0249    1.6638 H   0  0  0  0  0  0  0  0  0  0  0  0
   -1.2966    3.3310    0.5087 C   0  0  0  0  0  0  0  0  0  0  0  0
   -3.1214    4.1984   -0.9745 C   0  0  0  0  0  0  0  0  0  0  0  0
   -2.8900    3.4172   -1.7253 H   0  0  0  0  0  0  0  0  0  0  0  0
   -3.5343    5.0851   -1.4988 H   0  0  0  0  0  0  0  0  0  0  0  0
   -3.9157    3.8006   -0.3119 H   0  0  0  0  0  0  0  0  0  0  0  0
   -0.8374    5.1966   -1.1646 C   0  0  0  0  0  0  0  0  0  0  0  0
   -0.5684    4.4821   -1.9682 H   0  0  0  0  0  0  0  0  0  0  0  0
    0.0942    5.5138   -0.6536 H   0  0  0  0  0  0  0  0  0  0  0  0
   -1.2749    6.0938   -1.6466 H   0  0  0  0  0  0  0  0  0  0  0  0
   -2.2039    5.6490    0.8836 C   0  0  0  0  0  0  0  0  0  0  0  0
   -2.6228    6.5560    0.4006 H   0  0  0  0  0  0  0  0  0  0  0  0
   -1.3040    5.9485    1.4581 H   0  0  0  0  0  0  0  0  0  0  0  0
   -2.9576    5.2771    1.6060 H   0  0  0  0  0  0  0  0  0  0  0  0
   -1.8510    4.5866   -0.1820 C   0  0  0  0  0  0  0  0  0  0  0  0
   -0.0215    2.8290    0.2501 C   0  0  0  0  0  0  0  0  0  0  0  0
    0.6501    3.3334   -0.4563 H   0  0  0  0  0  0  0  0  0  0  0  0
    0.4157    1.6326    0.8662 C   0  0  0  0  0  0  0  0  0  0  0  0
    1.6507    0.8849    0.7530 C   0  0  0  0  0  0  0  0  0  0  0  0
    2.8155    1.1016   -0.0221 C   0  0  0  0  0  0  0  0  0  0  0  0
    2.8474    1.9687   -0.6946 H   0  0  0  0  0  0  0  0  0  0  0  0
    6.3895    0.5024    0.0988 C   0  0  0  0  0  0  0  0  0  0  0  0
    7.3098    0.5916   -0.5146 H   0  0  0  0  0  0  0  0  0  0  0  0
    6.5180   -0.3722    0.7672 H   0  0  0  0  0  0  0  0  0  0  0  0
    6.3110    1.4064    0.7363 H   0  0  0  0  0  0  0  0  0  0  0  0
    3.8878    0.2136    0.0538 C   0  0  0  0  0  0  0  0  0  0  0  0
    5.1491    0.3583   -0.8117 C   0  0  0  0  0  0  0  0  0  0  0  0
    5.2914   -0.9044   -1.6937 C   0  0  0  0  0  0  0  0  0  0  0  0
    6.1886   -0.8228   -2.3419 H   0  0  0  0  0  0  0  0  0  0  0  0
    4.3986   -1.0353   -2.3366 H   0  0  0  0  0  0  0  0  0  0  0  0
    5.3993   -1.8229   -1.0832 H   0  0  0  0  0  0  0  0  0  0  0  0
    5.0759    1.5865   -1.7343 C   0  0  0  0  0  0  0  0  0  0  0  0
    5.9986    1.6526   -2.3450 H   0  0  0  0  0  0  0  0  0  0  0  0
    4.9886    2.5306   -1.1593 H   0  0  0  0  0  0  0  0  0  0  0  0
    4.2171    1.5229   -2.4322 H   0  0  0  0  0  0  0  0  0  0  0  0
    3.7944   -0.8851    0.9691 C   0  0  0  0  0  0  0  0  0  0  0  0
    4.6502   -1.5705    1.0617 H   0  0  0  0  0  0  0  0  0  0  0  0
    2.6700   -1.1340    1.7401 C   0  0  0  0  0  0  0  0  0  0  0  0
    2.6521   -1.9857    2.4336 H   0  0  0  0  0  0  0  0  0  0  0  0
    1.5495   -0.2621    1.6364 C   0  0  0  0  0  0  0  0  0  0  0  0
  1  2  1  0  0  0  0
  1  3  1  0  0  0  0
  4  1  1  6  0  0  0
  5  6  1  1  0  0  0
  5  4  1  0  0  0  0
  6  8  1  0  0  0  0
  7  6  1  0  0  0  0
  9  6  1  0  0  0  0
 10 12  2  0  0  0  0
 10  5  1  0  0  0  0
 11 10  1  0  0  0  0
 12 26  1  0  0  0  0
 13 22  1  0  0  0  0
 13 14  1  0  0  0  0
 13 12  1  0  0  0  0
 14 17  1  0  0  0  0
 15 14  1  0  0  0  0
 16 14  1  0  0  0  0
 18 13  1  0  0  0  0
 19 18  1  0  0  0  0
 20 18  1  0  0  0  0
 21 18  1  0  0  0  0
 22 24  1  0  0  0  0
 23 22  1  0  0  0  0
 25 22  1  0  0  0  0
 26 27  1  0  0  0  0
 26  4  1  0  0  0  0
 28  1  1  0  0  0  0
 29 30  1  0  0  0  0
 29 28  1  0  0  0  0
 30 31  1  0  0  0  0
 32 33  1  0  0  0  0
 32 30  2  0  0  0  0
 34 32  1  0  0  0  0
 35 38  1  0  0  0  0
 35 47  1  0  0  0  0
 36 35  1  0  0  0  0
 37 35  1  0  0  0  0
 39 41  1  0  0  0  0
 39 47  1  0  0  0  0
 40 39  1  0  0  0  0
 42 39  1  0  0  0  0
 43 45  1  0  0  0  0
 43 46  1  0  0  0  0
 44 43  1  0  0  0  0
 47 34  1  0  0  0  0
 47 43  1  0  0  0  0
 48 34  2  0  0  0  0
 48 50  1  0  0  0  0
 49 48  1  0  0  0  0
 50 29  2  0  0  0  0
 51 50  1  0  0  0  0
 51 72  1  0  0  0  0
 52 58  1  0  0  0  0
 52 51  2  0  0  0  0
 53 52  1  0  0  0  0
 54 57  1  0  0  0  0
 54 56  1  0  0  0  0
 55 54  1  0  0  0  0
 58 68  2  0  0  0  0
 59 58  1  0  0  0  0
 59 54  1  0  0  0  0
 60 63  1  0  0  0  0
 60 59  1  0  0  0  0
 61 60  1  0  0  0  0
 62 60  1  0  0  0  0
 64 66  1  0  0  0  0
 64 59  1  0  0  0  0
 65 64  1  0  0  0  0
 67 64  1  0  0  0  0
 68 69  1  0  0  0  0
 68 70  1  0  0  0  0
 70 71  1  0  0  0  0
 72 70  2  0  0  0  0
 72 28  1  0  0  0  0
M  END
