7
 OpenBabel05122313053D

 82 86  0  0  1  0  0  0  0  0999 V2000
    1.8105   -1.9333   -0.8587 C   0  0  0  0  0  0  0  0  0  0  0  0
    0.9001   -2.4488   -1.8434 C   0  0  0  0  0  0  0  0  0  0  0  0
    1.0944   -2.4381   -2.9226 H   0  0  0  0  0  0  0  0  0  0  0  0
   -0.2385   -3.0167   -1.2083 C   0  0  0  0  0  0  0  0  0  0  0  0
   -0.0610   -2.7953    0.1953 C   0  0  0  0  0  0  0  0  0  0  0  0
   -0.7714   -3.0803    0.9800 H   0  0  0  0  0  0  0  0  0  0  0  0
    1.2065   -2.1581    0.4288 C   0  0  2  0  0  3  0  0  0  0  0  0
    1.4873   -1.4339    1.7444 C   0  0  2  0  0  0  0  0  0  0  0  0
    0.9195   -1.9802    2.5291 H   0  0  0  0  0  0  0  0  0  0  0  0
    0.7710   -0.1081    1.5259 C   0  0  0  0  0  3  0  0  0  0  0  0
   -0.6398    0.0900    1.7844 C   0  0  0  0  0  0  0  0  0  0  0  0
   -1.6154   -0.7068    2.4455 C   0  0  0  0  0  0  0  0  0  0  0  0
   -1.3298   -1.6498    2.9353 H   0  0  0  0  0  0  0  0  0  0  0  0
   -2.9330   -0.2654    2.5042 C   0  0  0  0  0  0  0  0  0  0  0  0
   -3.6636   -0.8946    3.0290 H   0  0  0  0  0  0  0  0  0  0  0  0
   -3.3669    0.9591    1.9111 C   0  0  0  0  0  0  0  0  0  0  0  0
   -2.4151    1.7493    1.2589 C   0  0  0  0  0  0  0  0  0  0  0  0
   -2.7085    2.6963    0.7821 H   0  0  0  0  0  0  0  0  0  0  0  0
   -1.0698    1.3326    1.1724 C   0  0  0  0  0  0  0  0  0  0  0  0
    0.0907    1.9302    0.5451 C   0  0  0  0  0  0  0  0  0  0  0  0
    0.2367    3.1265   -0.1966 C   0  0  0  0  0  0  0  0  0  0  0  0
   -0.6530    3.7430   -0.3796 H   0  0  0  0  0  0  0  0  0  0  0  0
    1.4823    3.4962   -0.7023 C   0  0  0  0  0  0  0  0  0  0  0  0
    2.6041    2.6580   -0.4053 C   0  0  0  0  0  0  0  0  0  0  0  0
    3.5993    2.9569   -0.7672 H   0  0  0  0  0  0  0  0  0  0  0  0
    2.5022    1.4773    0.3143 C   0  0  0  0  0  0  0  0  0  0  0  0
    3.3982    0.8834    0.5297 H   0  0  0  0  0  0  0  0  0  0  0  0
    1.2270    1.0605    0.7965 C   0  0  0  0  0  0  0  0  0  0  0  0
    3.1658   -1.3799   -1.2058 C   0  0  0  0  0  0  0  0  0  0  0  0
    3.7746   -2.1752   -1.6851 H   0  0  0  0  0  0  0  0  0  0  0  0
    3.7189   -1.0360   -0.3166 H   0  0  0  0  0  0  0  0  0  0  0  0
    3.0870   -0.5400   -1.9238 H   0  0  0  0  0  0  0  0  0  0  0  0
   -1.2847   -3.9046   -1.8740 C   0  0  0  0  0  0  0  0  0  0  0  0
   -2.5095   -4.1075   -0.9642 C   0  0  0  0  0  0  0  0  0  0  0  0
   -3.2521   -4.7558   -1.4716 H   0  0  0  0  0  0  0  0  0  0  0  0
   -2.9970   -3.1432   -0.7249 H   0  0  0  0  0  0  0  0  0  0  0  0
   -2.2304   -4.6088   -0.0150 H   0  0  0  0  0  0  0  0  0  0  0  0
   -0.6019   -5.2770   -2.1016 C   0  0  0  0  0  0  0  0  0  0  0  0
    0.2717   -5.1835   -2.7776 H   0  0  0  0  0  0  0  0  0  0  0  0
   -1.3186   -5.9901   -2.5595 H   0  0  0  0  0  0  0  0  0  0  0  0
   -0.2476   -5.7104   -1.1443 H   0  0  0  0  0  0  0  0  0  0  0  0
   -1.7266   -3.3311   -3.2339 C   0  0  0  0  0  0  0  0  0  0  0  0
   -0.8652   -3.1904   -3.9172 H   0  0  0  0  0  0  0  0  0  0  0  0
   -2.2317   -2.3547   -3.1079 H   0  0  0  0  0  0  0  0  0  0  0  0
   -2.4313   -4.0301   -3.7284 H   0  0  0  0  0  0  0  0  0  0  0  0
    2.9254   -1.3831    2.2277 C   0  0  0  0  0  0  0  0  0  0  0  0
    3.3844   -0.3088    3.0136 C   0  0  0  0  0  0  0  0  0  0  0  0
    2.7049    0.5306    3.2262 H   0  0  0  0  0  0  0  0  0  0  0  0
    4.6949   -0.2986    3.5154 C   0  0  0  0  0  0  0  0  0  0  0  0
    5.0389    0.5522    4.1232 H   0  0  0  0  0  0  0  0  0  0  0  0
    5.5652   -1.3650    3.2409 C   0  0  0  0  0  0  0  0  0  0  0  0
    6.5947   -1.3547    3.6297 H   0  0  0  0  0  0  0  0  0  0  0  0
    5.1128   -2.4454    2.4661 C   0  0  0  0  0  0  0  0  0  0  0  0
    5.7866   -3.2878    2.2471 H   0  0  0  0  0  0  0  0  0  0  0  0
    3.8030   -2.4537    1.9653 C   0  0  0  0  0  0  0  0  0  0  0  0
    3.4517   -3.2985    1.3525 H   0  0  0  0  0  0  0  0  0  0  0  0
   -4.8372    1.4158    1.9524 C   0  0  0  0  0  0  0  0  0  0  0  0
   -4.9252    2.8036    2.6268 C   0  0  0  0  0  0  0  0  0  0  0  0
   -4.3352    3.5658    2.0804 H   0  0  0  0  0  0  0  0  0  0  0  0
   -4.5453    2.7649    3.6679 H   0  0  0  0  0  0  0  0  0  0  0  0
   -5.9781    3.1529    2.6562 H   0  0  0  0  0  0  0  0  0  0  0  0
   -5.7299    0.4395    2.7383 C   0  0  0  0  0  0  0  0  0  0  0  0
   -5.7412   -0.5697    2.2796 H   0  0  0  0  0  0  0  0  0  0  0  0
   -6.7739    0.8119    2.7449 H   0  0  0  0  0  0  0  0  0  0  0  0
   -5.4058    0.3386    3.7941 H   0  0  0  0  0  0  0  0  0  0  0  0
   -5.3732    1.5065    0.5049 C   0  0  0  0  0  0  0  0  0  0  0  0
   -5.3040    0.5247   -0.0036 H   0  0  0  0  0  0  0  0  0  0  0  0
   -4.7948    2.2313   -0.1015 H   0  0  0  0  0  0  0  0  0  0  0  0
   -6.4341    1.8324    0.5053 H   0  0  0  0  0  0  0  0  0  0  0  0
    1.6907    4.7473   -1.5692 C   0  0  0  0  0  0  0  0  0  0  0  0
    2.7131    5.6853   -0.8886 C   0  0  0  0  0  0  0  0  0  0  0  0
    2.3467    6.0185    0.1036 H   0  0  0  0  0  0  0  0  0  0  0  0
    2.8855    6.5861   -1.5132 H   0  0  0  0  0  0  0  0  0  0  0  0
    3.6936    5.1912   -0.7382 H   0  0  0  0  0  0  0  0  0  0  0  0
    0.3809    5.5246   -1.7816 C   0  0  0  0  0  0  0  0  0  0  0  0
   -0.0472    5.8819   -0.8231 H   0  0  0  0  0  0  0  0  0  0  0  0
   -0.3825    4.9066   -2.2953 H   0  0  0  0  0  0  0  0  0  0  0  0
    0.5708    6.4149   -2.4141 H   0  0  0  0  0  0  0  0  0  0  0  0
    2.2252    4.3070   -2.9523 C   0  0  0  0  0  0  0  0  0  0  0  0
    1.5127    3.6169   -3.4458 H   0  0  0  0  0  0  0  0  0  0  0  0
    3.1961    3.7793   -2.8688 H   0  0  0  0  0  0  0  0  0  0  0  0
    2.3762    5.1905   -3.6067 H   0  0  0  0  0  0  0  0  0  0  0  0
  1  7  1  0  0  0  0
  2  4  1  0  0  0  0
  2  1  2  0  0  0  0
  3  2  1  0  0  0  0
  4  5  2  0  0  0  0
  5  7  1  0  0  0  0
  5  6  1  0  0  0  0
  7  8  1  6  0  0  0
  8 46  1  0  0  0  0
  8  9  1  1  0  0  0
 10  8  1  0  0  0  0
 10 11  1  0  0  0  0
 11 12  1  0  0  0  0
 12 14  2  0  0  0  0
 12 13  1  0  0  0  0
 14 15  1  0  0  0  0
 16 57  1  0  0  0  0
 16 14  1  0  0  0  0
 17 16  2  0  0  0  0
 18 17  1  0  0  0  0
 19 17  1  0  0  0  0
 19 11  2  0  0  0  0
 20 28  1  0  0  0  0
 20 19  1  0  0  0  0
 21 20  2  0  0  0  0
 22 21  1  0  0  0  0
 23 24  2  0  0  0  0
 23 21  1  0  0  0  0
 24 26  1  0  0  0  0
 25 24  1  0  0  0  0
 26 27  1  0  0  0  0
 26 28  2  0  0  0  0
 28 10  1  0  0  0  0
 29  1  1  0  0  0  0
 29 31  1  0  0  0  0
 30 29  1  0  0  0  0
 32 29  1  0  0  0  0
 33  4  1  0  0  0  0
 33 34  1  0  0  0  0
 34 36  1  0  0  0  0
 34 37  1  0  0  0  0
 35 34  1  0  0  0  0
 38 33  1  0  0  0  0
 38 41  1  0  0  0  0
 39 38  1  0  0  0  0
 40 38  1  0  0  0  0
 42 44  1  0  0  0  0
 42 33  1  0  0  0  0
 43 42  1  0  0  0  0
 45 42  1  0  0  0  0
 46 47  1  0  0  0  0
 47 48  1  0  0  0  0
 47 49  2  0  0  0  0
 49 50  1  0  0  0  0
 51 49  1  0  0  0  0
 51 52  1  0  0  0  0
 53 51  2  0  0  0  0
 54 53  1  0  0  0  0
 55 46  2  0  0  0  0
 55 53  1  0  0  0  0
 56 55  1  0  0  0  0
 57 58  1  0  0  0  0
 57 62  1  0  0  0  0
 58 61  1  0  0  0  0
 58 60  1  0  0  0  0
 59 58  1  0  0  0  0
 62 64  1  0  0  0  0
 62 65  1  0  0  0  0
 63 62  1  0  0  0  0
 66 69  1  0  0  0  0
 66 57  1  0  0  0  0
 67 66  1  0  0  0  0
 68 66  1  0  0  0  0
 70 71  1  0  0  0  0
 70 23  1  0  0  0  0
 71 74  1  0  0  0  0
 71 72  1  0  0  0  0
 73 71  1  0  0  0  0
 75 70  1  0  0  0  0
 75 76  1  0  0  0  0
 77 75  1  0  0  0  0
 78 75  1  0  0  0  0
 79 81  1  0  0  0  0
 79 70  1  0  0  0  0
 80 79  1  0  0  0  0
 82 79  1  0  0  0  0
M  END
