4,11
 OpenBabel05122313053D

 63 66  0  0  1  0  0  0  0  0999 V2000
   -2.4694   -0.3682    0.0268 P   0  0  0  0  0  4  0  0  0  0  0  0
   -1.7879    3.1382   -1.1182 O   0  0  0  0  0  0  0  0  0  0  0  0
   -1.9663    2.6322    1.0848 O   0  0  0  0  0  0  0  0  0  0  0  0
    1.3288    0.7956   -0.8090 C   0  0  0  0  0  3  0  0  0  0  0  0
    1.1073    0.3046   -1.7873 H   0  0  0  0  0  0  0  0  0  0  0  0
    1.6842    2.2722   -1.0838 C   0  0  2  0  0  0  0  0  0  0  0  0
    0.9199    2.7544   -1.7367 H   0  0  0  0  0  0  0  0  0  0  0  0
    3.0462    2.2470   -1.7961 C   0  0  0  0  0  0  0  0  0  0  0  0
    2.9664    1.7096   -2.7644 H   0  0  0  0  0  0  0  0  0  0  0  0
    3.4137    3.2746   -2.0232 H   0  0  0  0  0  0  0  0  0  0  0  0
    4.0113    1.5104   -0.8859 C   0  0  0  0  0  3  0  0  0  0  0  0
    4.9930    1.2110   -1.2908 H   0  0  0  0  0  0  0  0  0  0  0  0
    3.8678    1.6210    0.5339 C   0  0  0  0  0  3  0  0  0  0  0  0
    4.7354    1.3332    1.1524 H   0  0  0  0  0  0  0  0  0  0  0  0
    2.8557    2.5394    1.1877 C   0  0  0  0  0  0  0  0  0  0  0  0
    3.4047    3.3704    1.6849 H   0  0  0  0  0  0  0  0  0  0  0  0
    2.3664    1.9805    2.0143 H   0  0  0  0  0  0  0  0  0  0  0  0
    1.8140    3.1142    0.2021 C   0  0  0  0  0  0  0  0  0  0  0  0
    2.1084    4.1422   -0.0990 H   0  0  0  0  0  0  0  0  0  0  0  0
    0.8321    3.2216    0.7104 H   0  0  0  0  0  0  0  0  0  0  0  0
    0.1536    0.5394    0.1199 C   0  0  0  0  0  0  0  0  0  0  0  0
    0.2561    1.0489    1.0994 H   0  0  0  0  0  0  0  0  0  0  0  0
    0.1668   -0.5446    0.3580 H   0  0  0  0  0  0  0  0  0  0  0  0
   -1.2406    0.9242   -0.4815 C   0  0  2  0  0  0  0  0  0  0  0  0
   -1.1984    0.8608   -1.5874 H   0  0  0  0  0  0  0  0  0  0  0  0
   -1.7077    2.3016   -0.0609 C   0  0  0  0  0  0  0  0  0  0  0  0
   -4.1416    0.3346    0.0868 C   0  0  0  0  0  0  0  0  0  0  0  0
   -5.0122    0.0441    1.1551 C   0  0  0  0  0  0  0  0  0  0  0  0
   -4.6743   -0.5984    1.9815 H   0  0  0  0  0  0  0  0  0  0  0  0
   -6.3063    0.5859    1.1617 C   0  0  0  0  0  0  0  0  0  0  0  0
   -6.9852    0.3622    1.9979 H   0  0  0  0  0  0  0  0  0  0  0  0
   -6.7315    1.4108    0.1090 C   0  0  0  0  0  0  0  0  0  0  0  0
   -7.7463    1.8360    0.1199 H   0  0  0  0  0  0  0  0  0  0  0  0
   -5.8638    1.6966   -0.9589 C   0  0  0  0  0  0  0  0  0  0  0  0
   -6.1970    2.3425   -1.7849 H   0  0  0  0  0  0  0  0  0  0  0  0
   -4.5700    1.1599   -0.9764 C   0  0  0  0  0  0  0  0  0  0  0  0
   -3.8929    1.3922   -1.8125 H   0  0  0  0  0  0  0  0  0  0  0  0
   -2.1358    4.4969   -0.8032 C   0  0  0  0  0  0  0  0  0  0  0  0
   -3.1114    4.5371   -0.2795 H   0  0  0  0  0  0  0  0  0  0  0  0
   -2.1845    5.0287   -1.7692 H   0  0  0  0  0  0  0  0  0  0  0  0
   -1.3631    4.9500   -0.1508 H   0  0  0  0  0  0  0  0  0  0  0  0
   -2.0169   -1.0356    1.6455 C   0  0  0  0  0  0  0  0  0  0  0  0
   -1.6319   -2.3845    1.7774 C   0  0  0  0  0  0  0  0  0  0  0  0
   -1.6401   -3.0564    0.9080 H   0  0  0  0  0  0  0  0  0  0  0  0
   -1.2011   -2.8561    3.0255 C   0  0  0  0  0  0  0  0  0  0  0  0
   -0.8780   -3.9022    3.1263 H   0  0  0  0  0  0  0  0  0  0  0  0
   -1.1584   -1.9916    4.1289 C   0  0  0  0  0  0  0  0  0  0  0  0
   -0.8081   -2.3646    5.1030 H   0  0  0  0  0  0  0  0  0  0  0  0
   -1.5412   -0.6460    3.9915 C   0  0  0  0  0  0  0  0  0  0  0  0
   -1.4901    0.0343    4.8545 H   0  0  0  0  0  0  0  0  0  0  0  0
   -1.9660   -0.1559    2.7507 C   0  0  0  0  0  0  0  0  0  0  0  0
   -2.2179    0.9080    2.6203 H   0  0  0  0  0  0  0  0  0  0  0  0
   -2.4417   -1.6698   -1.2333 C   0  0  0  0  0  0  0  0  0  0  0  0
   -3.6553   -2.1461   -1.7767 C   0  0  0  0  0  0  0  0  0  0  0  0
   -4.6172   -1.7283   -1.4452 H   0  0  0  0  0  0  0  0  0  0  0  0
   -3.6265   -3.1560   -2.7482 C   0  0  0  0  0  0  0  0  0  0  0  0
   -4.5707   -3.5258   -3.1751 H   0  0  0  0  0  0  0  0  0  0  0  0
   -2.3994   -3.6935   -3.1715 C   0  0  0  0  0  0  0  0  0  0  0  0
   -2.3828   -4.4873   -3.9338 H   0  0  0  0  0  0  0  0  0  0  0  0
   -1.1972   -3.2247   -2.6192 C   0  0  0  0  0  0  0  0  0  0  0  0
   -0.2293   -3.6486   -2.9264 H   0  0  0  0  0  0  0  0  0  0  0  0
   -1.2045   -2.2099   -1.6515 C   0  0  0  0  0  0  0  0  0  0  0  0
   -0.2344   -1.9071   -1.2087 H   0  0  0  0  0  0  0  0  0  0  0  0
  1 27  1  0  0  0  0
  1 42  1  0  0  0  0
  2 38  1  0  0  0  0
  2 26  1  0  0  0  0
  4 21  1  0  0  0  0
  5  4  1  0  0  0  0
  6  7  1  6  0  0  0
  6  4  1  0  0  0  0
  6 18  1  0  0  0  0
  8  6  1  0  0  0  0
  8 11  1  0  0  0  0
  9  8  1  0  0  0  0
 10  8  1  0  0  0  0
 11 13  1  0  0  0  0
 12 11  1  0  0  0  0
 13 14  1  0  0  0  0
 13 15  1  0  0  0  0
 15 16  1  0  0  0  0
 15 17  1  0  0  0  0
 18 20  1  0  0  0  0
 18 15  1  0  0  0  0
 19 18  1  0  0  0  0
 21 23  1  0  0  0  0
 21 22  1  0  0  0  0
 24 25  1  6  0  0  0
 24 26  1  0  0  0  0
 24  1  1  0  0  0  0
 24 21  1  0  0  0  0
 26  3  2  0  0  0  0
 27 28  1  0  0  0  0
 28 30  2  0  0  0  0
 28 29  1  0  0  0  0
 30 31  1  0  0  0  0
 32 33  1  0  0  0  0
 32 30  1  0  0  0  0
 34 32  2  0  0  0  0
 35 34  1  0  0  0  0
 36 34  1  0  0  0  0
 36 27  2  0  0  0  0
 37 36  1  0  0  0  0
 38 39  1  0  0  0  0
 38 41  1  0  0  0  0
 40 38  1  0  0  0  0
 42 43  2  0  0  0  0
 42 51  1  0  0  0  0
 43 45  1  0  0  0  0
 44 43  1  0  0  0  0
 45 46  1  0  0  0  0
 45 47  2  0  0  0  0
 47 48  1  0  0  0  0
 49 47  1  0  0  0  0
 49 50  1  0  0  0  0
 51 49  2  0  0  0  0
 52 51  1  0  0  0  0
 53  1  1  0  0  0  0
 54 55  1  0  0  0  0
 54 53  2  0  0  0  0
 56 54  1  0  0  0  0
 57 56  1  0  0  0  0
 58 56  2  0  0  0  0
 58 60  1  0  0  0  0
 59 58  1  0  0  0  0
 60 62  2  0  0  0  0
 61 60  1  0  0  0  0
 62 53  1  0  0  0  0
 62 63  1  0  0  0  0
M  END
