7,16
 OpenBabel05122313053D

 34 36  0  0  1  0  0  0  0  0999 V2000
   -1.5623    1.6082    0.0652 C   0  0  1  0  0  0  0  0  0  0  0  0
   -2.0153    2.9737    0.5827 C   0  0  0  0  0  0  0  0  0  0  0  0
   -2.7067    0.7850   -0.6174 C   0  0  0  0  0  0  0  0  0  0  0  0
   -2.5936   -0.7408   -0.2104 C   0  0  0  0  0  0  0  0  0  0  0  0
   -2.4558   -1.7017   -1.4008 C   0  0  0  0  0  0  0  0  0  0  0  0
   -3.8413   -1.1507    0.6077 C   0  0  0  0  0  0  0  0  0  0  0  0
   -0.3101    1.6904   -0.8195 C   0  0  1  0  0  3  0  0  0  0  0  0
    0.9444    2.2335   -0.3820 C   0  0  0  0  0  3  0  0  0  0  0  0
    1.9726    1.7827   -1.2644 C   0  0  0  0  0  0  0  0  0  0  0  0
    1.3794    0.9380   -2.2313 C   0  0  0  0  0  0  0  0  0  0  0  0
   -0.0237    0.8742   -1.9580 C   0  0  0  0  0  3  0  0  0  0  0  0
   -1.0726    0.6159    1.1218 C   0  0  1  0  0  3  0  0  0  0  0  0
   -1.4149   -0.7104    0.7473 C   0  0  0  0  0  0  0  0  0  0  0  0
   -0.6315   -1.6160    1.5272 C   0  0  0  0  0  0  0  0  0  0  0  0
    0.1887   -0.8303    2.3848 C   0  0  0  0  0  3  0  0  0  0  0  0
   -0.0627    0.5614    2.1282 C   0  0  0  0  0  3  0  0  0  0  0  0
    0.4456    1.4005    2.6183 H   0  0  0  0  0  0  0  0  0  0  0  0
    1.0979    2.8759    0.4940 H   0  0  0  0  0  0  0  0  0  0  0  0
    3.0394    2.0176   -1.1757 H   0  0  0  0  0  0  0  0  0  0  0  0
    1.8985    0.4016   -3.0338 H   0  0  0  0  0  0  0  0  0  0  0  0
   -0.6368   -2.7109    1.4735 H   0  0  0  0  0  0  0  0  0  0  0  0
   -3.6788    1.1831   -0.2653 H   0  0  0  0  0  0  0  0  0  0  0  0
   -0.7467    0.2788   -2.5246 H   0  0  0  0  0  0  0  0  0  0  0  0
   -2.6981    0.9220   -1.7161 H   0  0  0  0  0  0  0  0  0  0  0  0
    0.9250   -1.2197    3.0980 H   0  0  0  0  0  0  0  0  0  0  0  0
   -2.3851   -2.7498   -1.0467 H   0  0  0  0  0  0  0  0  0  0  0  0
   -3.9756   -0.4910    1.4883 H   0  0  0  0  0  0  0  0  0  0  0  0
   -3.3441   -1.6284   -2.0607 H   0  0  0  0  0  0  0  0  0  0  0  0
   -3.7504   -2.1937    0.9726 H   0  0  0  0  0  0  0  0  0  0  0  0
   -4.7539   -1.0850   -0.0208 H   0  0  0  0  0  0  0  0  0  0  0  0
   -1.5475   -1.5130   -2.0016 H   0  0  0  0  0  0  0  0  0  0  0  0
   -2.8475    2.8581    1.3055 H   0  0  0  0  0  0  0  0  0  0  0  0
   -1.1910    3.5063    1.0975 H   0  0  0  0  0  0  0  0  0  0  0  0
   -2.3605    3.6147   -0.2531 H   0  0  0  0  0  0  0  0  0  0  0  0
  1  2  1  1  0  0  0
  1 12  1  0  0  0  0
  2 33  1  0  0  0  0
  2 32  1  0  0  0  0
  3 22  1  0  0  0  0
  3  4  1  0  0  0  0
  3  1  1  0  0  0  0
  4  6  1  0  0  0  0
  4 13  1  0  0  0  0
  5 26  1  0  0  0  0
  5  4  1  0  0  0  0
  6 29  1  0  0  0  0
  6 27  1  0  0  0  0
  7 11  1  1  0  0  0
  7  8  1  0  0  0  0
  7  1  1  0  0  0  0
  8 18  1  0  0  0  0
  9 19  1  0  0  0  0
  9  8  1  0  0  0  0
 10 11  1  0  0  0  0
 10  9  2  0  0  0  0
 12 13  1  6  0  0  0
 12 16  1  0  0  0  0
 13 14  2  0  0  0  0
 14 15  1  0  0  0  0
 15 25  1  0  0  0  0
 16 15  1  0  0  0  0
 16 17  1  0  0  0  0
 20 10  1  0  0  0  0
 21 14  1  0  0  0  0
 23 11  1  0  0  0  0
 24  3  1  0  0  0  0
 28  5  1  0  0  0  0
 30  6  1  0  0  0  0
 31  5  1  0  0  0  0
 34  2  1  0  0  0  0
M  END
