1,6
 OpenBabel05122313053D

 32 32  0  0  1  0  0  0  0  0999 V2000
   -1.9555    1.5870   -0.4418 C   0  0  0  0  0  3  0  0  0  0  0  0
   -2.9706    2.1973   -0.7569 O   0  0  0  0  0  0  0  0  0  0  0  0
   -0.6076    2.2683   -0.5772 C   0  0  2  0  0  3  0  0  0  0  0  0
    0.4358    1.4279   -0.3425 C   0  0  0  0  0  0  0  0  0  0  0  0
    1.4862    1.7571   -0.4027 H   0  0  0  0  0  0  0  0  0  0  0  0
    0.0526    0.0638    0.0369 C   0  0  0  0  0  3  0  0  0  0  0  0
   -0.5493    3.7171   -0.9159 C   0  0  0  0  0  0  0  0  0  0  0  0
    0.4734    4.0611   -1.1610 H   0  0  0  0  0  0  0  0  0  0  0  0
   -0.9328    4.3202   -0.0646 H   0  0  0  0  0  0  0  0  0  0  0  0
   -1.2411    3.9305   -1.7569 H   0  0  0  0  0  0  0  0  0  0  0  0
    1.0746   -0.7897    0.2783 N   0  0  0  0  0  0  0  0  0  0  0  0
    0.8616   -2.1248    0.8241 C   0  0  0  0  0  0  0  0  0  0  0  0
   -0.0618   -2.1112    1.4326 H   0  0  0  0  0  0  0  0  0  0  0  0
    1.7344   -2.4108    1.4417 H   0  0  0  0  0  0  0  0  0  0  0  0
    0.7445   -2.8838    0.0214 H   0  0  0  0  0  0  0  0  0  0  0  0
    2.4581   -0.4324    0.0506 C   0  0  0  0  0  0  0  0  0  0  0  0
    3.2181    0.0613    1.1365 C   0  0  0  0  0  0  0  0  0  0  0  0
    4.5663    0.3894    0.8958 C   0  0  0  0  0  0  0  0  0  0  0  0
    5.1765    0.7813    1.7243 H   0  0  0  0  0  0  0  0  0  0  0  0
    5.1290    0.2332   -0.3782 C   0  0  0  0  0  0  0  0  0  0  0  0
    6.1842    0.4954   -0.5474 H   0  0  0  0  0  0  0  0  0  0  0  0
    4.3496   -0.2460   -1.4402 C   0  0  0  0  0  0  0  0  0  0  0  0
    4.7911   -0.3582   -2.4425 H   0  0  0  0  0  0  0  0  0  0  0  0
    2.9971   -0.5854   -1.2468 C   0  0  0  0  0  0  0  0  0  0  0  0
    2.5926    0.2454    2.4953 C   0  0  0  0  0  0  0  0  0  0  0  0
    1.6103    0.7558    2.4308 H   0  0  0  0  0  0  0  0  0  0  0  0
    3.2514    0.8357    3.1594 H   0  0  0  0  0  0  0  0  0  0  0  0
    2.4043   -0.7287    2.9954 H   0  0  0  0  0  0  0  0  0  0  0  0
    2.1339   -1.0688   -2.3838 C   0  0  0  0  0  0  0  0  0  0  0  0
    1.6867   -2.0609   -2.1669 H   0  0  0  0  0  0  0  0  0  0  0  0
    2.7183   -1.1561   -3.3188 H   0  0  0  0  0  0  0  0  0  0  0  0
    1.2875   -0.3748   -2.5692 H   0  0  0  0  0  0  0  0  0  0  0  0
  2  1  2  0  0  0  0
  3  1  1  1  0  0  0
  3  4  1  0  0  0  0
  4  6  2  0  0  0  0
  5  4  1  0  0  0  0
  6 11  1  0  0  0  0
  7  3  1  0  0  0  0
  7  9  1  0  0  0  0
  8  7  1  0  0  0  0
 10  7  1  0  0  0  0
 11 12  1  0  0  0  0
 12 13  1  0  0  0  0
 12 14  1  0  0  0  0
 15 12  1  0  0  0  0
 16 11  1  0  0  0  0
 16 17  1  0  0  0  0
 17 25  1  0  0  0  0
 18 17  2  0  0  0  0
 18 19  1  0  0  0  0
 20 18  1  0  0  0  0
 21 20  1  0  0  0  0
 22 24  1  0  0  0  0
 22 20  2  0  0  0  0
 23 22  1  0  0  0  0
 24 16  2  0  0  0  0
 25 28  1  0  0  0  0
 25 27  1  0  0  0  0
 26 25  1  0  0  0  0
 29 30  1  0  0  0  0
 29 24  1  0  0  0  0
 31 29  1  0  0  0  0
 32 29  1  0  0  0  0
M  END
