3,5
 OpenBabel05122313053D

 28 30  0  0  1  0  0  0  0  0999 V2000
   -0.2433    1.4170   -0.0011 C   0  0  1  0  0  3  0  0  0  0  0  0
   -0.0621    0.7179    1.2233 C   0  0  0  0  0  3  0  0  0  0  0  0
   -0.0013   -0.7033    1.2154 C   0  0  0  0  0  3  0  0  0  0  0  0
   -0.1674   -1.4291   -0.0014 C   0  0  2  0  0  3  0  0  0  0  0  0
    0.0004   -0.7032   -1.2178 C   0  0  0  0  0  3  0  0  0  0  0  0
   -0.0603    0.7181   -1.2255 C   0  0  0  0  0  3  0  0  0  0  0  0
   -0.9312    2.7465   -0.0009 C   0  0  0  0  0  0  0  0  0  0  0  0
   -2.2933    2.7215    0.0001 C   0  0  0  0  0  0  0  0  0  0  0  0
   -2.9858    1.3890    0.0003 C   0  0  0  0  0  0  0  0  0  0  0  0
   -3.1316    0.6675   -1.2048 C   0  0  0  0  0  0  0  0  0  0  0  0
   -3.1045   -0.7357   -1.2048 C   0  0  0  0  0  0  0  0  0  0  0  0
   -2.9298   -1.4508    0.0003 C   0  0  0  0  0  0  0  0  0  0  0  0
   -3.1058   -0.7358    1.2052 C   0  0  0  0  0  0  0  0  0  0  0  0
   -3.1329    0.6674    1.2052 C   0  0  0  0  0  0  0  0  0  0  0  0
   -2.2044   -2.7650    0.0001 C   0  0  0  0  0  0  0  0  0  0  0  0
   -0.8419   -2.7637   -0.0012 C   0  0  0  0  0  0  0  0  0  0  0  0
   -0.0931    1.2656    2.1741 H   0  0  0  0  0  0  0  0  0  0  0  0
    0.0077   -1.2504    2.1689 H   0  0  0  0  0  0  0  0  0  0  0  0
    0.0109   -1.2500   -2.1714 H   0  0  0  0  0  0  0  0  0  0  0  0
   -0.0898    1.2660   -2.1763 H   0  0  0  0  0  0  0  0  0  0  0  0
   -0.3724    3.6968   -0.0015 H   0  0  0  0  0  0  0  0  0  0  0  0
   -2.8571    3.6711    0.0006 H   0  0  0  0  0  0  0  0  0  0  0  0
   -3.0905    1.2047   -2.1651 H   0  0  0  0  0  0  0  0  0  0  0  0
   -3.0439   -1.2712   -2.1650 H   0  0  0  0  0  0  0  0  0  0  0  0
   -3.0463   -1.2712    2.1655 H   0  0  0  0  0  0  0  0  0  0  0  0
   -3.0928    1.2046    2.1656 H   0  0  0  0  0  0  0  0  0  0  0  0
   -2.7492   -3.7259    0.0007 H   0  0  0  0  0  0  0  0  0  0  0  0
   -0.2743   -3.7091   -0.0019 H   0  0  0  0  0  0  0  0  0  0  0  0
  1  6  1  6  0  0  0
  1  7  1  0  0  0  0
  1  2  1  0  0  0  0
  2 17  1  0  0  0  0
  3  2  1  0  0  0  0
  3 18  1  0  0  0  0
  4  5  1  6  0  0  0
  4 16  1  0  0  0  0
  4  3  1  0  0  0  0
  6  5  1  0  0  0  0
  7  8  2  0  0  0  0
  8  9  1  0  0  0  0
  8 22  1  0  0  0  0
  9 14  1  0  0  0  0
 10 11  1  0  0  0  0
 10  9  2  0  0  0  0
 11 12  2  0  0  0  0
 12 13  1  0  0  0  0
 13 14  2  0  0  0  0
 13 25  1  0  0  0  0
 14 26  1  0  0  0  0
 15 12  1  0  0  0  0
 15 27  1  0  0  0  0
 16 15  2  0  0  0  0
 19  5  1  0  0  0  0
 20  6  1  0  0  0  0
 21  7  1  0  0  0  0
 23 10  1  0  0  0  0
 24 11  1  0  0  0  0
 28 16  1  0  0  0  0
M  END
