2,5
 OpenBabel05122313053D

 22 22  0  0  1  0  0  0  0  0999 V2000
    2.9748    0.2862   -0.6629 C   0  0  2  0  0  3  0  0  0  0  0  0
    2.8358   -1.0494   -1.1817 C   0  0  0  0  0  3  0  0  0  0  0  0
    1.7647   -1.0482   -2.1427 C   0  0  0  0  0  0  0  0  0  0  0  0
    1.2247    0.2653   -2.2087 C   0  0  0  0  0  0  0  0  0  0  0  0
    1.9549    1.0916   -1.2831 C   0  0  0  0  0  3  0  0  0  0  0  0
    4.1197    0.8101    0.1929 C   0  0  0  0  0  0  0  0  0  0  0  0
    5.2034    1.2856   -0.8077 C   0  0  0  0  0  0  0  0  0  0  0  0
    3.6843    2.0057    1.0610 C   0  0  0  0  0  0  0  0  0  0  0  0
    4.7134   -0.2938    1.0864 C   0  0  0  0  0  0  0  0  0  0  0  0
    3.4275   -1.9248   -0.8943 H   0  0  0  0  0  0  0  0  0  0  0  0
    1.4003   -1.9282   -2.6854 H   0  0  0  0  0  0  0  0  0  0  0  0
    0.3913    0.5939   -2.8411 H   0  0  0  0  0  0  0  0  0  0  0  0
    1.7872    2.1608   -1.1178 H   0  0  0  0  0  0  0  0  0  0  0  0
    6.0862    1.6749   -0.2600 H   0  0  0  0  0  0  0  0  0  0  0  0
    4.8175    2.0937   -1.4613 H   0  0  0  0  0  0  0  0  0  0  0  0
    5.5391    0.4529   -1.4578 H   0  0  0  0  0  0  0  0  0  0  0  0
    2.9296    1.7087    1.8133 H   0  0  0  0  0  0  0  0  0  0  0  0
    3.2622    2.8281    0.4495 H   0  0  0  0  0  0  0  0  0  0  0  0
    4.5611    2.4133    1.6038 H   0  0  0  0  0  0  0  0  0  0  0  0
    3.9678   -0.6873    1.8028 H   0  0  0  0  0  0  0  0  0  0  0  0
    5.5652    0.1115    1.6691 H   0  0  0  0  0  0  0  0  0  0  0  0
    5.0990   -1.1417    0.4861 H   0  0  0  0  0  0  0  0  0  0  0  0
  1  6  1  6  0  0  0
  2 10  1  0  0  0  0
  2  1  1  0  0  0  0
  3  2  1  0  0  0  0
  4  3  2  0  0  0  0
  4  5  1  0  0  0  0
  5 13  1  0  0  0  0
  5  1  1  0  0  0  0
  6  8  1  0  0  0  0
  6  9  1  0  0  0  0
  7 14  1  0  0  0  0
  7  6  1  0  0  0  0
  8 19  1  0  0  0  0
  8 17  1  0  0  0  0
  9 21  1  0  0  0  0
  9 20  1  0  0  0  0
 11  3  1  0  0  0  0
 12  4  1  0  0  0  0
 15  7  1  0  0  0  0
 16  7  1  0  0  0  0
 18  8  1  0  0  0  0
 22  9  1  0  0  0  0
M  END
