2,5
 OpenBabel05122313053D

 65 68  0  0  0  0  0  0  0  0999 V2000
    7.2043    2.7703   -0.6106 Cl  0  0  0  0  0  0  0  0  0  0  0  0
   -1.7368    0.1502   -0.1406 C   0  0  0  0  0  2  0  0  0  0  0  0
   -0.9939    1.2852    0.0743 N   0  0  0  0  0  0  0  0  0  0  0  0
    0.4222    1.1656    0.0727 C   0  0  0  0  0  0  0  0  0  0  0  0
    0.8238   -0.2704    0.1593 C   0  0  0  0  0  3  0  0  0  0  0  0
    1.9589   -0.5270    0.6852 N   0  0  0  0  0  0  0  0  0  0  0  0
    2.5297   -1.7777    0.8766 C   0  0  0  0  0  0  0  0  0  0  0  0
    2.0635   -2.6598    1.8777 C   0  0  0  0  0  0  0  0  0  0  0  0
    2.6686   -3.9112    2.0527 C   0  0  0  0  0  0  0  0  0  0  0  0
    3.7471   -4.3292    1.2503 C   0  0  0  0  0  0  0  0  0  0  0  0
    4.2265   -3.4240    0.2785 C   0  0  0  0  0  0  0  0  0  0  0  0
    3.6468   -2.1659    0.0997 C   0  0  0  0  0  0  0  0  0  0  0  0
    4.3630   -5.6967    1.4059 C   0  0  0  0  0  0  0  0  0  0  0  0
    1.2177    2.2742    0.0109 C   0  0  0  0  0  0  0  0  0  0  0  0
    2.6781    2.3456   -0.1270 C   0  0  0  0  0  0  0  0  0  0  0  0
    3.3941    3.3532    0.5581 C   0  0  0  0  0  0  0  0  0  0  0  0
    4.7824    3.4866    0.4246 C   0  0  0  0  0  0  0  0  0  0  0  0
    5.4746    2.6153   -0.4293 C   0  0  0  0  0  0  0  0  0  0  0  0
    4.7845    1.6279   -1.1558 C   0  0  0  0  0  0  0  0  0  0  0  0
    3.4022    1.5011   -1.0025 C   0  0  0  0  0  0  0  0  0  0  0  0
   -1.6045    2.5629    0.3142 C   0  0  0  0  0  0  0  0  0  0  0  0
   -1.7613    3.0357    1.6295 C   0  0  0  0  0  0  0  0  0  0  0  0
   -2.3739    4.2751    1.8528 C   0  0  0  0  0  0  0  0  0  0  0  0
   -2.8400    5.0661    0.7803 C   0  0  0  0  0  0  0  0  0  0  0  0
   -2.6768    4.5710   -0.5303 C   0  0  0  0  0  0  0  0  0  0  0  0
   -2.0631    3.3337   -0.7686 C   0  0  0  0  0  0  0  0  0  0  0  0
   -3.4669    6.4135    1.0302 C   0  0  0  0  0  0  0  0  0  0  0  0
   -3.0551    0.3096    0.0358 N   0  0  0  0  0  0  0  0  0  0  0  0
   -4.1037   -0.7025   -0.0034 C   0  0  0  0  0  0  0  0  0  0  0  0
   -4.9427   -0.6434    1.2831 C   0  0  0  0  0  0  0  0  0  0  0  0
   -6.0542   -1.7007    1.2622 C   0  0  0  0  0  0  0  0  0  0  0  0
   -6.9321   -1.5755    0.0100 C   0  0  0  0  0  0  0  0  0  0  0  0
   -6.0894   -1.6228   -1.2711 C   0  0  0  0  0  0  0  0  0  0  0  0
   -4.9818   -0.5624   -1.2564 C   0  0  0  0  0  0  0  0  0  0  0  0
    1.2284   -2.3499    2.5204 H   0  0  0  0  0  0  0  0  0  0  0  0
    2.2843   -4.5863    2.8343 H   0  0  0  0  0  0  0  0  0  0  0  0
    5.0797   -3.7155   -0.3552 H   0  0  0  0  0  0  0  0  0  0  0  0
    4.0365   -1.4690   -0.6557 H   0  0  0  0  0  0  0  0  0  0  0  0
    4.0644   -6.1731    2.3603 H   0  0  0  0  0  0  0  0  0  0  0  0
    5.4711   -5.6533    1.3770 H   0  0  0  0  0  0  0  0  0  0  0  0
    4.0460   -6.3749    0.5842 H   0  0  0  0  0  0  0  0  0  0  0  0
    0.7076    3.2520    0.0443 H   0  0  0  0  0  0  0  0  0  0  0  0
    2.8510    4.0392    1.2267 H   0  0  0  0  0  0  0  0  0  0  0  0
    5.3320    4.2627    0.9753 H   0  0  0  0  0  0  0  0  0  0  0  0
    5.3378    0.9722   -1.8430 H   0  0  0  0  0  0  0  0  0  0  0  0
    2.8612    0.7453   -1.5884 H   0  0  0  0  0  0  0  0  0  0  0  0
   -1.3966    2.4238    2.4675 H   0  0  0  0  0  0  0  0  0  0  0  0
   -2.4960    4.6384    2.8852 H   0  0  0  0  0  0  0  0  0  0  0  0
   -3.0344    5.1693   -1.3828 H   0  0  0  0  0  0  0  0  0  0  0  0
   -1.9314    2.9522   -1.7919 H   0  0  0  0  0  0  0  0  0  0  0  0
   -4.0527    6.4235    1.9704 H   0  0  0  0  0  0  0  0  0  0  0  0
   -4.1344    6.7156    0.2001 H   0  0  0  0  0  0  0  0  0  0  0  0
   -2.6862    7.1985    1.1263 H   0  0  0  0  0  0  0  0  0  0  0  0
   -3.3862    1.2515    0.2896 H   0  0  0  0  0  0  0  0  0  0  0  0
   -3.5985   -1.6851   -0.0321 H   0  0  0  0  0  0  0  0  0  0  0  0
   -4.2766   -0.7836    2.1596 H   0  0  0  0  0  0  0  0  0  0  0  0
   -5.3949    0.3717    1.3757 H   0  0  0  0  0  0  0  0  0  0  0  0
   -6.6687   -1.6213    2.1827 H   0  0  0  0  0  0  0  0  0  0  0  0
   -5.5889   -2.7112    1.2848 H   0  0  0  0  0  0  0  0  0  0  0  0
   -7.6998   -2.3767   -0.0024 H   0  0  0  0  0  0  0  0  0  0  0  0
   -7.4875   -0.6109    0.0481 H   0  0  0  0  0  0  0  0  0  0  0  0
   -5.6174   -2.6250   -1.3723 H   0  0  0  0  0  0  0  0  0  0  0  0
   -6.7304   -1.4894   -2.1668 H   0  0  0  0  0  0  0  0  0  0  0  0
   -5.4300    0.4577   -1.2653 H   0  0  0  0  0  0  0  0  0  0  0  0
   -4.3438   -0.6444   -2.1595 H   0  0  0  0  0  0  0  0  0  0  0  0
  1 18  1  0  0  0  0
  2 28  1  0  0  0  0
  2  3  1  0  0  0  0
  3 21  1  0  0  0  0
  4  3  1  0  0  0  0
  4  5  1  0  0  0  0
  5  6  2  0  0  0  0
  6  7  1  0  0  0  0
  7  8  1  0  0  0  0
  8  9  2  0  0  0  0
  8 35  1  0  0  0  0
  9 36  1  0  0  0  0
 10 13  1  0  0  0  0
 10  9  1  0  0  0  0
 11 10  2  0  0  0  0
 12 11  1  0  0  0  0
 12  7  2  0  0  0  0
 13 39  1  0  0  0  0
 14 42  1  0  0  0  0
 14  4  2  0  0  0  0
 15 14  1  0  0  0  0
 15 16  1  0  0  0  0
 16 43  1  0  0  0  0
 17 16  2  0  0  0  0
 17 44  1  0  0  0  0
 18 17  1  0  0  0  0
 19 20  1  0  0  0  0
 19 18  2  0  0  0  0
 20 15  2  0  0  0  0
 21 22  1  0  0  0  0
 22 23  2  0  0  0  0
 22 47  1  0  0  0  0
 23 48  1  0  0  0  0
 24 27  1  0  0  0  0
 24 23  1  0  0  0  0
 25 24  2  0  0  0  0
 26 25  1  0  0  0  0
 26 21  2  0  0  0  0
 27 53  1  0  0  0  0
 27 51  1  0  0  0  0
 28 54  1  0  0  0  0
 29 28  1  0  0  0  0
 29 30  1  0  0  0  0
 30 57  1  0  0  0  0
 30 56  1  0  0  0  0
 31 30  1  0  0  0  0
 31 59  1  0  0  0  0
 31 58  1  0  0  0  0
 32 61  1  0  0  0  0
 32 31  1  0  0  0  0
 33 34  1  0  0  0  0
 33 32  1  0  0  0  0
 34 29  1  0  0  0  0
 37 11  1  0  0  0  0
 38 12  1  0  0  0  0
 40 13  1  0  0  0  0
 41 13  1  0  0  0  0
 45 19  1  0  0  0  0
 46 20  1  0  0  0  0
 49 25  1  0  0  0  0
 50 26  1  0  0  0  0
 52 27  1  0  0  0  0
 55 29  1  0  0  0  0
 60 32  1  0  0  0  0
 62 33  1  0  0  0  0
 63 33  1  0  0  0  0
 64 34  1  0  0  0  0
 65 34  1  0  0  0  0
M  END
