2,5
 OpenBabel05122313053D

 62 65  0  0  0  0  0  0  0  0999 V2000
    7.5938    1.7259   -0.7174 Cl  0  0  0  0  0  0  0  0  0  0  0  0
   -1.6518    0.5618   -0.0065 C   0  0  0  0  0  2  0  0  0  0  0  0
   -0.7164    1.5441    0.1876 N   0  0  0  0  0  0  0  0  0  0  0  0
    0.6586    1.1816    0.1488 C   0  0  0  0  0  0  0  0  0  0  0  0
    0.8188   -0.3037    0.1859 C   0  0  0  0  0  3  0  0  0  0  0  0
    1.9488   -0.7517    0.5808 N   0  0  0  0  0  0  0  0  0  0  0  0
    2.3268   -2.0806    0.7032 C   0  0  0  0  0  0  0  0  0  0  0  0
    1.9006   -2.8716    1.7948 C   0  0  0  0  0  0  0  0  0  0  0  0
    2.3106   -4.2065    1.9008 C   0  0  0  0  0  0  0  0  0  0  0  0
    3.1514   -4.8007    0.9400 C   0  0  0  0  0  0  0  0  0  0  0  0
    3.5983   -3.9901   -0.1256 C   0  0  0  0  0  0  0  0  0  0  0  0
    3.2111   -2.6528   -0.2416 C   0  0  0  0  0  0  0  0  0  0  0  0
    3.5450   -6.2536    1.0280 C   0  0  0  0  0  0  0  0  0  0  0  0
    1.6263    2.1459    0.1025 C   0  0  0  0  0  0  0  0  0  0  0  0
    3.0745    1.9908   -0.0846 C   0  0  0  0  0  0  0  0  0  0  0  0
    3.9603    2.8406    0.6155 C   0  0  0  0  0  0  0  0  0  0  0  0
    5.3479    2.7613    0.4368 C   0  0  0  0  0  0  0  0  0  0  0  0
    5.8676    1.8350   -0.4790 C   0  0  0  0  0  0  0  0  0  0  0  0
    5.0089    1.0037   -1.2215 C   0  0  0  0  0  0  0  0  0  0  0  0
    3.6296    1.0867   -1.0218 C   0  0  0  0  0  0  0  0  0  0  0  0
   -1.0866    2.9228    0.3563 C   0  0  0  0  0  0  0  0  0  0  0  0
   -1.2424    3.4600    1.6467 C   0  0  0  0  0  0  0  0  0  0  0  0
   -1.6158    4.8008    1.7987 C   0  0  0  0  0  0  0  0  0  0  0  0
   -1.8388    5.6311    0.6784 C   0  0  0  0  0  0  0  0  0  0  0  0
   -1.6798    5.0714   -0.6060 C   0  0  0  0  0  0  0  0  0  0  0  0
   -1.3050    3.7309   -0.7733 C   0  0  0  0  0  0  0  0  0  0  0  0
   -2.2143    7.0794    0.8585 C   0  0  0  0  0  0  0  0  0  0  0  0
   -2.9255    0.9950    0.0662 N   0  0  0  0  0  0  0  0  0  0  0  0
   -4.1110    0.2047   -0.0076 C   0  0  0  0  0  0  0  0  0  0  0  0
   -4.4419   -0.6917    1.0236 C   0  0  0  0  0  0  0  0  0  0  0  0
   -5.6088   -1.4578    0.9282 C   0  0  0  0  0  0  0  0  0  0  0  0
   -6.4773   -1.3381   -0.1762 C   0  0  0  0  0  0  0  0  0  0  0  0
   -6.1476   -0.4039   -1.1792 C   0  0  0  0  0  0  0  0  0  0  0  0
   -4.9780    0.3610   -1.1014 C   0  0  0  0  0  0  0  0  0  0  0  0
   -7.7010   -2.2084   -0.2972 C   0  0  0  0  0  0  0  0  0  0  0  0
    1.2480   -2.4257    2.5578 H   0  0  0  0  0  0  0  0  0  0  0  0
    1.9587   -4.8076    2.7547 H   0  0  0  0  0  0  0  0  0  0  0  0
    4.2680   -4.4217   -0.8870 H   0  0  0  0  0  0  0  0  0  0  0  0
    3.5711   -2.0348   -1.0764 H   0  0  0  0  0  0  0  0  0  0  0  0
    4.6081   -6.4082    0.7523 H   0  0  0  0  0  0  0  0  0  0  0  0
    2.9381   -6.8754    0.3345 H   0  0  0  0  0  0  0  0  0  0  0  0
    3.3939   -6.6570    2.0486 H   0  0  0  0  0  0  0  0  0  0  0  0
    1.2864    3.1915    0.1930 H   0  0  0  0  0  0  0  0  0  0  0  0
    3.5525    3.5705    1.3322 H   0  0  0  0  0  0  0  0  0  0  0  0
    6.0293    3.4143    0.9997 H   0  0  0  0  0  0  0  0  0  0  0  0
    5.4309    0.3020   -1.9547 H   0  0  0  0  0  0  0  0  0  0  0  0
    2.9581    0.4523   -1.6165 H   0  0  0  0  0  0  0  0  0  0  0  0
   -1.0657    2.8168    2.5212 H   0  0  0  0  0  0  0  0  0  0  0  0
   -1.7383    5.2151    2.8117 H   0  0  0  0  0  0  0  0  0  0  0  0
   -1.8496    5.6996   -1.4942 H   0  0  0  0  0  0  0  0  0  0  0  0
   -1.1737    3.2976   -1.7760 H   0  0  0  0  0  0  0  0  0  0  0  0
   -2.6022    7.5224   -0.0786 H   0  0  0  0  0  0  0  0  0  0  0  0
   -1.3332    7.6794    1.1711 H   0  0  0  0  0  0  0  0  0  0  0  0
   -2.9838    7.2045    1.6466 H   0  0  0  0  0  0  0  0  0  0  0  0
   -3.0750    2.0074    0.1846 H   0  0  0  0  0  0  0  0  0  0  0  0
   -3.7756   -0.7924    1.8912 H   0  0  0  0  0  0  0  0  0  0  0  0
   -5.8517   -2.1693    1.7328 H   0  0  0  0  0  0  0  0  0  0  0  0
   -6.8135   -0.2858   -2.0483 H   0  0  0  0  0  0  0  0  0  0  0  0
   -4.7141    1.0663   -1.9036 H   0  0  0  0  0  0  0  0  0  0  0  0
   -8.1216   -2.4647    0.6950 H   0  0  0  0  0  0  0  0  0  0  0  0
   -7.4483   -3.1658   -0.8018 H   0  0  0  0  0  0  0  0  0  0  0  0
   -8.4943   -1.7215   -0.8976 H   0  0  0  0  0  0  0  0  0  0  0  0
  1 18  1  0  0  0  0
  2 28  1  0  0  0  0
  2  3  1  0  0  0  0
  3 21  1  0  0  0  0
  4  5  1  0  0  0  0
  4  3  1  0  0  0  0
  5  6  2  0  0  0  0
  6  7  1  0  0  0  0
  7  8  1  0  0  0  0
  8  9  2  0  0  0  0
  8 36  1  0  0  0  0
  9 37  1  0  0  0  0
 10 13  1  0  0  0  0
 10  9  1  0  0  0  0
 11 10  2  0  0  0  0
 12 11  1  0  0  0  0
 12  7  2  0  0  0  0
 13 42  1  0  0  0  0
 14  4  2  0  0  0  0
 14 43  1  0  0  0  0
 15 14  1  0  0  0  0
 15 16  1  0  0  0  0
 16 44  1  0  0  0  0
 17 16  2  0  0  0  0
 17 45  1  0  0  0  0
 18 17  1  0  0  0  0
 19 20  1  0  0  0  0
 19 18  2  0  0  0  0
 20 15  2  0  0  0  0
 21 22  1  0  0  0  0
 22 23  2  0  0  0  0
 22 48  1  0  0  0  0
 23 49  1  0  0  0  0
 24 27  1  0  0  0  0
 24 23  1  0  0  0  0
 25 24  2  0  0  0  0
 26 25  1  0  0  0  0
 26 21  2  0  0  0  0
 27 53  1  0  0  0  0
 27 54  1  0  0  0  0
 28 55  1  0  0  0  0
 29 28  1  0  0  0  0
 29 30  1  0  0  0  0
 30 56  1  0  0  0  0
 31 30  2  0  0  0  0
 31 57  1  0  0  0  0
 32 31  1  0  0  0  0
 33 34  1  0  0  0  0
 33 32  2  0  0  0  0
 34 29  2  0  0  0  0
 35 32  1  0  0  0  0
 35 60  1  0  0  0  0
 38 11  1  0  0  0  0
 39 12  1  0  0  0  0
 40 13  1  0  0  0  0
 41 13  1  0  0  0  0
 46 19  1  0  0  0  0
 47 20  1  0  0  0  0
 50 25  1  0  0  0  0
 51 26  1  0  0  0  0
 52 27  1  0  0  0  0
 58 33  1  0  0  0  0
 59 34  1  0  0  0  0
 61 35  1  0  0  0  0
 62 35  1  0  0  0  0
M  END
