1,4
 OpenBabel05122313053D

 20 19  0  0  0  0  0  0  0  0999 V2000
    2.0430    0.2662   -0.8902 C   0  0  0  0  0  3  0  0  0  0  0  0
    2.8706   -0.1364    0.1374 C   0  0  0  0  0  0  0  0  0  0  0  0
    2.2767   -0.3020    1.4880 C   0  0  0  0  0  0  0  0  0  0  0  0
    0.9177   -0.0937    1.6473 C   0  0  0  0  0  3  0  0  0  0  0  0
    2.5041    0.5234   -2.3027 C   0  0  0  0  0  0  0  0  0  0  0  0
    4.3532   -0.3980   -0.0346 C   0  0  0  0  0  0  0  0  0  0  0  0
    3.2157   -0.7239    2.6019 C   0  0  0  0  0  0  0  0  0  0  0  0
    0.2419   -0.2486    2.9852 C   0  0  0  0  0  0  0  0  0  0  0  0
    3.3900   -0.0762   -2.6131 H   0  0  0  0  0  0  0  0  0  0  0  0
    1.6970    0.3322   -3.0396 H   0  0  0  0  0  0  0  0  0  0  0  0
    2.7855    1.5939   -2.4386 H   0  0  0  0  0  0  0  0  0  0  0  0
    4.6705   -0.3160   -1.0908 H   0  0  0  0  0  0  0  0  0  0  0  0
    4.9661    0.3241    0.5479 H   0  0  0  0  0  0  0  0  0  0  0  0
    4.6486   -1.4063    0.3282 H   0  0  0  0  0  0  0  0  0  0  0  0
    4.0910   -0.0454    2.6837 H   0  0  0  0  0  0  0  0  0  0  0  0
    2.7237   -0.7504    3.5915 H   0  0  0  0  0  0  0  0  0  0  0  0
    3.6341   -1.7392    2.4224 H   0  0  0  0  0  0  0  0  0  0  0  0
   -0.4546    0.5937    3.1933 H   0  0  0  0  0  0  0  0  0  0  0  0
   -0.3845   -1.1715    3.0227 H   0  0  0  0  0  0  0  0  0  0  0  0
    0.9304   -0.3137    3.8570 H   0  0  0  0  0  0  0  0  0  0  0  0
  1  2  2  0  0  0  0
  2  3  1  0  0  0  0
  3  4  2  0  0  0  0
  3  7  1  0  0  0  0
  4  8  1  0  0  0  0
  5  1  1  0  0  0  0
  6  2  1  0  0  0  0
  6 14  1  0  0  0  0
  6 13  1  0  0  0  0
  7 15  1  0  0  0  0
  7 16  1  0  0  0  0
  8 19  1  0  0  0  0
  8 18  1  0  0  0  0
  8 20  1  0  0  0  0
  9  5  1  0  0  0  0
 10  5  1  0  0  0  0
 11  5  1  0  0  0  0
 12  6  1  0  0  0  0
 17  7  1  0  0  0  0
M  END
