6,9
 OpenBabel05122313053D

 26 27  0  0  1  0  0  0  0  0999 V2000
   -1.1248    3.6153   -0.1748 N   0  0  0  0  0  0  0  0  0  0  0  0
    3.1350   -0.7268   -2.8438 N   0  0  0  0  0  0  0  0  0  0  0  0
    3.0819    2.7469   -0.3166 N   0  0  0  0  0  0  0  0  0  0  0  0
    2.6023   -3.1275   -0.0549 N   0  0  0  0  0  0  0  0  0  0  0  0
    4.2349    0.1592    2.0924 N   0  0  0  0  0  0  0  0  0  0  0  0
   -0.2837    1.1638    0.1802 C   0  0  1  0  0  3  0  0  0  0  0  0
    0.4984    0.5681   -1.0171 C   0  0  2  0  0  0  0  0  0  0  0  0
   -0.2182   -0.7217   -1.3707 C   0  0  0  0  0  3  0  0  0  0  0  0
   -0.3669   -1.7371   -0.3991 C   0  0  0  0  0  3  0  0  0  0  0  0
   -0.2452   -1.4143    0.9871 C   0  0  0  0  0  3  0  0  0  0  0  0
    0.8764   -0.5039    1.5049 C   0  0  2  0  0  0  0  0  0  0  0  0
    0.4178    0.9511    1.5269 C   0  0  0  0  0  0  0  0  0  0  0  0
   -0.7320    2.5182   -0.0229 C   0  0  0  0  0  0  0  0  0  0  0  0
    2.0309    0.3530   -0.7021 C   0  0  0  0  0  0  0  0  0  0  0  0
    2.1853   -0.6020    0.6065 C   0  0  0  0  0  0  0  0  0  0  0  0
    2.6795   -0.2529   -1.8753 C   0  0  0  0  0  0  0  0  0  0  0  0
    2.6441    1.6720   -0.4685 C   0  0  0  0  0  0  0  0  0  0  0  0
    2.4262   -2.0014    0.2115 C   0  0  0  0  0  0  0  0  0  0  0  0
    3.3429   -0.1722    1.4107 C   0  0  0  0  0  0  0  0  0  0  0  0
    0.4466    1.2593   -1.8791 H   0  0  0  0  0  0  0  0  0  0  0  0
   -0.3826   -0.9672   -2.4299 H   0  0  0  0  0  0  0  0  0  0  0  0
   -0.7234   -2.7299   -0.7143 H   0  0  0  0  0  0  0  0  0  0  0  0
   -0.5609   -2.1995    1.6909 H   0  0  0  0  0  0  0  0  0  0  0  0
    1.1759   -0.8464    2.5132 H   0  0  0  0  0  0  0  0  0  0  0  0
   -0.2791    1.1182    2.3688 H   0  0  0  0  0  0  0  0  0  0  0  0
    1.2658    1.6550    1.6765 H   0  0  0  0  0  0  0  0  0  0  0  0
  1 13  3  0  0  0  0
  2 16  3  0  0  0  0
  4 18  3  0  0  0  0
  6 13  1  6  0  0  0
  6 12  1  0  0  0  0
  7 20  1  6  0  0  0
  7 14  1  0  0  0  0
  7  6  1  0  0  0  0
  8  7  1  0  0  0  0
  8  9  1  0  0  0  0
  9 10  1  0  0  0  0
 10 11  1  0  0  0  0
 10 23  1  0  0  0  0
 11 12  1  0  0  0  0
 11 24  1  1  0  0  0
 12 26  1  0  0  0  0
 12 25  1  0  0  0  0
 14 17  1  0  0  0  0
 14 15  1  0  0  0  0
 15 19  1  0  0  0  0
 15 11  1  0  0  0  0
 16 14  1  0  0  0  0
 17  3  3  0  0  0  0
 18 15  1  0  0  0  0
 19  5  3  0  0  0  0
 21  8  1  0  0  0  0
 22  9  1  0  0  0  0
M  END
