5,12
 OpenBabel05122313053D

 45 47  0  0  1  0  0  0  0  0999 V2000
    1.1834    1.5421   -1.6294 O   0  0  0  0  0  0  0  0  0  0  0  0
    2.6653   -0.1478   -0.9906 C   0  0  0  0  0  0  0  0  0  0  0  0
    0.1056   -1.4764    0.2939 C   0  0  0  0  0  3  0  0  0  0  0  0
    1.2724    0.3726   -0.9379 C   0  0  2  0  0  3  0  0  0  0  0  0
    0.1091   -0.3998   -0.6390 C   0  0  0  0  0  3  0  0  0  0  0  0
   -3.6447    2.2011    0.0336 F   0  0  0  0  0  0  0  0  0  0  0  0
   -3.2010   -3.2514   -0.3504 F   0  0  0  0  0  0  0  0  0  0  0  0
   -2.4965    0.2075    0.6687 C   0  0  0  0  0  0  0  0  0  0  0  0
   -1.5521    0.9275    1.5255 C   0  0  0  0  0  3  0  0  0  0  0  0
   -2.3825   -1.2038    0.5495 C   0  0  0  0  0  0  0  0  0  0  0  0
   -3.5273    0.8613   -0.0308 C   0  0  0  0  0  0  0  0  0  0  0  0
   -0.9462    0.2155    2.6208 C   0  0  0  0  0  3  0  0  0  0  0  0
    5.3495   -1.0967   -1.1049 C   0  0  0  0  0  0  0  0  0  0  0  0
   -0.0599    2.2528   -1.6838 C   0  0  0  0  0  0  0  0  0  0  0  0
    2.9407   -1.4927   -1.3059 C   0  0  0  0  0  0  0  0  0  0  0  0
    0.2418    3.7066   -1.9883 C   0  0  0  0  0  0  0  0  0  0  0  0
   -3.3087   -1.9179   -0.2155 C   0  0  0  0  0  0  0  0  0  0  0  0
    4.2630   -1.9567   -1.3520 C   0  0  0  0  0  0  0  0  0  0  0  0
   -0.6286   -1.1361    2.3743 C   0  0  0  0  0  3  0  0  0  0  0  0
   -5.4400    0.7756   -1.4436 F   0  0  0  0  0  0  0  0  0  0  0  0
   -5.2432   -1.9492   -1.6104 F   0  0  0  0  0  0  0  0  0  0  0  0
   -4.4547    0.1409   -0.8007 C   0  0  0  0  0  0  0  0  0  0  0  0
    3.7514    0.7287   -0.7746 C   0  0  0  0  0  0  0  0  0  0  0  0
    6.7704   -1.5979   -1.1217 C   0  0  0  0  0  0  0  0  0  0  0  0
   -4.3587   -1.2601   -0.8815 C   0  0  0  0  0  0  0  0  0  0  0  0
    5.0646    0.2591   -0.8266 C   0  0  0  0  0  0  0  0  0  0  0  0
   -1.1430   -1.8366    1.1140 C   0  0  2  0  0  0  0  0  0  0  0  0
    0.9519   -2.1688    0.4014 H   0  0  0  0  0  0  0  0  0  0  0  0
   -0.8566   -0.0422   -1.0247 H   0  0  0  0  0  0  0  0  0  0  0  0
    2.1138   -2.1776   -1.5434 H   0  0  0  0  0  0  0  0  0  0  0  0
   -1.2691   -2.9275    1.2410 H   0  0  0  0  0  0  0  0  0  0  0  0
   -0.7260    0.6869    3.5889 H   0  0  0  0  0  0  0  0  0  0  0  0
   -0.1167   -1.7422    3.1363 H   0  0  0  0  0  0  0  0  0  0  0  0
    7.4351   -0.9181   -1.6928 H   0  0  0  0  0  0  0  0  0  0  0  0
   -0.5831    2.1464   -0.7081 H   0  0  0  0  0  0  0  0  0  0  0  0
   -0.7068    1.7982   -2.4682 H   0  0  0  0  0  0  0  0  0  0  0  0
    7.1822   -1.6579   -0.0914 H   0  0  0  0  0  0  0  0  0  0  0  0
   -1.7444    2.0022    1.6481 H   0  0  0  0  0  0  0  0  0  0  0  0
    5.8960    0.9578   -0.6416 H   0  0  0  0  0  0  0  0  0  0  0  0
    0.8083    3.8060   -2.9352 H   0  0  0  0  0  0  0  0  0  0  0  0
    6.8438   -2.6083   -1.5685 H   0  0  0  0  0  0  0  0  0  0  0  0
   -0.7034    4.2766   -2.0846 H   0  0  0  0  0  0  0  0  0  0  0  0
    4.4561   -3.0121   -1.6014 H   0  0  0  0  0  0  0  0  0  0  0  0
    3.5453    1.7846   -0.5459 H   0  0  0  0  0  0  0  0  0  0  0  0
    0.8396    4.1545   -1.1703 H   0  0  0  0  0  0  0  0  0  0  0  0
  2  4  1  0  0  0  0
  2 23  1  0  0  0  0
  3 28  1  0  0  0  0
  3 27  1  0  0  0  0
  4  1  1  6  0  0  0
  4  5  1  0  0  0  0
  5  3  1  0  0  0  0
  7 17  1  0  0  0  0
  8  9  1  0  0  0  0
  9 38  1  0  0  0  0
  9 12  1  0  0  0  0
 10  8  1  0  0  0  0
 10 27  1  0  0  0  0
 11  6  1  0  0  0  0
 11  8  2  0  0  0  0
 12 32  1  0  0  0  0
 13 26  1  0  0  0  0
 14  1  1  0  0  0  0
 14 35  1  0  0  0  0
 15  2  2  0  0  0  0
 16 14  1  0  0  0  0
 16 45  1  0  0  0  0
 17 10  2  0  0  0  0
 18 15  1  0  0  0  0
 18 13  2  0  0  0  0
 19 12  1  0  0  0  0
 19 33  1  0  0  0  0
 20 22  1  0  0  0  0
 21 25  1  0  0  0  0
 22 11  1  0  0  0  0
 23 44  1  0  0  0  0
 24 13  1  0  0  0  0
 24 37  1  0  0  0  0
 25 22  2  0  0  0  0
 25 17  1  0  0  0  0
 26 23  2  0  0  0  0
 26 39  1  0  0  0  0
 27 31  1  1  0  0  0
 27 19  1  0  0  0  0
 29  5  1  0  0  0  0
 30 15  1  0  0  0  0
 34 24  1  0  0  0  0
 36 14  1  0  0  0  0
 40 16  1  0  0  0  0
 41 24  1  0  0  0  0
 42 16  1  0  0  0  0
 43 18  1  0  0  0  0
M  END
