3,11
 OpenBabel05122313053D

 31 32  0  0  0  0  0  0  0  0999 V2000
   -0.8533   -2.4915   -1.0283 N   0  0  0  0  0  0  0  0  0  0  0  0
    1.1354   -1.6184   -0.9244 N   0  0  0  0  0  0  0  0  0  0  0  0
   -2.6128   -1.4432    0.0346 C   0  0  0  0  0  3  0  0  0  0  0  0
   -3.6648   -1.3614    0.3594 H   0  0  0  0  0  0  0  0  0  0  0  0
   -2.2355   -2.5015   -0.7238 C   0  0  0  0  0  0  0  0  0  0  0  0
   -2.8308   -3.3428   -1.1071 H   0  0  0  0  0  0  0  0  0  0  0  0
   -0.0191   -3.3437   -1.7334 C   0  0  0  0  0  0  0  0  0  0  0  0
   -0.3744   -4.2635   -2.2064 H   0  0  0  0  0  0  0  0  0  0  0  0
    1.2393   -2.7928   -1.6732 C   0  0  0  0  0  0  0  0  0  0  0  0
    2.1931   -3.1240   -2.0927 H   0  0  0  0  0  0  0  0  0  0  0  0
   -0.1632   -1.4190   -0.5162 C   0  0  0  0  0  2  0  0  0  0  0  0
    2.1897   -0.6692   -0.7173 C   0  0  0  0  0  0  0  0  0  0  0  0
    2.9021   -0.6816    0.5036 C   0  0  0  0  0  0  0  0  0  0  0  0
    3.8643    0.3254    0.7022 C   0  0  0  0  0  0  0  0  0  0  0  0
    4.4233    0.3376    1.6519 H   0  0  0  0  0  0  0  0  0  0  0  0
    4.1298    1.3122   -0.2674 C   0  0  0  0  0  0  0  0  0  0  0  0
    3.4145    1.2688   -1.4786 C   0  0  0  0  0  0  0  0  0  0  0  0
    3.6123    2.0291   -2.2512 H   0  0  0  0  0  0  0  0  0  0  0  0
    2.4416    0.2832   -1.7289 C   0  0  0  0  0  0  0  0  0  0  0  0
    2.6230   -1.7220    1.5495 C   0  0  0  0  0  0  0  0  0  0  0  0
    1.5822   -1.6402    1.9396 H   0  0  0  0  0  0  0  0  0  0  0  0
    3.3287   -1.6332    2.3969 H   0  0  0  0  0  0  0  0  0  0  0  0
    2.7087   -2.7453    1.1292 H   0  0  0  0  0  0  0  0  0  0  0  0
    5.1790    2.3673   -0.0211 C   0  0  0  0  0  0  0  0  0  0  0  0
    5.1318    2.7528    1.0171 H   0  0  0  0  0  0  0  0  0  0  0  0
    5.0695    3.2242   -0.7136 H   0  0  0  0  0  0  0  0  0  0  0  0
    6.2001    1.9530   -0.1642 H   0  0  0  0  0  0  0  0  0  0  0  0
    1.6889    0.2425   -3.0345 C   0  0  0  0  0  0  0  0  0  0  0  0
    0.6071    0.0589   -2.8792 H   0  0  0  0  0  0  0  0  0  0  0  0
    2.0535   -0.5820   -3.6831 H   0  0  0  0  0  0  0  0  0  0  0  0
    1.8110    1.1883   -3.5959 H   0  0  0  0  0  0  0  0  0  0  0  0
  1  5  1  0  0  0  0
  1 11  1  0  0  0  0
  2 12  1  0  0  0  0
  2 11  1  0  0  0  0
  3  4  1  0  0  0  0
  5  3  2  0  0  0  0
  6  5  1  0  0  0  0
  7  9  2  0  0  0  0
  7  1  1  0  0  0  0
  8  7  1  0  0  0  0
  9  2  1  0  0  0  0
 10  9  1  0  0  0  0
 12 13  1  0  0  0  0
 13 14  2  0  0  0  0
 13 20  1  0  0  0  0
 14 15  1  0  0  0  0
 16 24  1  0  0  0  0
 16 14  1  0  0  0  0
 17 16  2  0  0  0  0
 18 17  1  0  0  0  0
 19 17  1  0  0  0  0
 19 12  2  0  0  0  0
 20 21  1  0  0  0  0
 20 22  1  0  0  0  0
 23 20  1  0  0  0  0
 24 25  1  0  0  0  0
 26 24  1  0  0  0  0
 27 24  1  0  0  0  0
 28 29  1  0  0  0  0
 28 19  1  0  0  0  0
 30 28  1  0  0  0  0
 31 28  1  0  0  0  0
M  END
