1,4
 OpenBabel05122313053D

 34 35  0  0  0  0  0  0  0  0999 V2000
    0.2719    0.4705   -0.1700 C   0  0  0  0  0  2  0  0  0  0  0  0
    0.8160   -0.7867   -0.6494 C   0  0  0  0  0  0  0  0  0  0  0  0
   -0.0646   -1.8013   -1.1528 C   0  0  0  0  0  0  0  0  0  0  0  0
   -1.4783   -1.5373   -1.1746 C   0  0  0  0  0  2  0  0  0  0  0  0
    0.9957    1.7244   -0.0846 C   0  0  0  0  0  0  0  0  0  0  0  0
    1.9667    2.0838   -1.0597 C   0  0  0  0  0  0  0  0  0  0  0  0
    2.6435    3.3070   -0.9908 C   0  0  0  0  0  0  0  0  0  0  0  0
    2.3854    4.2059    0.0589 C   0  0  0  0  0  0  0  0  0  0  0  0
    1.4406    3.8639    1.0430 C   0  0  0  0  0  0  0  0  0  0  0  0
    0.7557    2.6456    0.9710 C   0  0  0  0  0  0  0  0  0  0  0  0
    2.2313   -1.1057   -0.2885 C   0  0  0  0  0  0  0  0  0  0  0  0
    2.7560   -0.7934    0.9861 C   0  0  0  0  0  0  0  0  0  0  0  0
    4.1031   -1.0296    1.2913 C   0  0  0  0  0  0  0  0  0  0  0  0
    4.9631   -1.5787    0.3260 C   0  0  0  0  0  0  0  0  0  0  0  0
    4.4603   -1.8836   -0.9490 C   0  0  0  0  0  0  0  0  0  0  0  0
    3.1118   -1.6471   -1.2529 C   0  0  0  0  0  0  0  0  0  0  0  0
    0.4029   -3.2465   -1.2741 C   0  0  0  0  0  0  0  0  0  0  0  0
   -2.4976   -2.3152   -1.9336 C   0  0  0  0  0  0  0  0  0  0  0  0
    2.1808    1.3745   -1.8733 H   0  0  0  0  0  0  0  0  0  0  0  0
    3.3879    3.5617   -1.7613 H   0  0  0  0  0  0  0  0  0  0  0  0
    2.9231    5.1645    0.1145 H   0  0  0  0  0  0  0  0  0  0  0  0
    1.2412    4.5547    1.8772 H   0  0  0  0  0  0  0  0  0  0  0  0
    0.0246    2.3707    1.7464 H   0  0  0  0  0  0  0  0  0  0  0  0
    2.0862   -0.3525    1.7389 H   0  0  0  0  0  0  0  0  0  0  0  0
    4.4863   -0.7814    2.2933 H   0  0  0  0  0  0  0  0  0  0  0  0
    6.0219   -1.7618    0.5643 H   0  0  0  0  0  0  0  0  0  0  0  0
    5.1269   -2.3032   -1.7186 H   0  0  0  0  0  0  0  0  0  0  0  0
    2.7302   -1.8665   -2.2617 H   0  0  0  0  0  0  0  0  0  0  0  0
    0.6975   -3.4835   -2.3186 H   0  0  0  0  0  0  0  0  0  0  0  0
   -0.4055   -3.9524   -0.9981 H   0  0  0  0  0  0  0  0  0  0  0  0
    1.2770   -3.4606   -0.6305 H   0  0  0  0  0  0  0  0  0  0  0  0
   -3.4572   -2.4095   -1.3834 H   0  0  0  0  0  0  0  0  0  0  0  0
   -2.1497   -3.3404   -2.1904 H   0  0  0  0  0  0  0  0  0  0  0  0
   -2.7314   -1.8231   -2.9070 H   0  0  0  0  0  0  0  0  0  0  0  0
  1  5  1  0  0  0  0
  2 11  1  0  0  0  0
  2  1  1  0  0  0  0
  3  2  2  0  0  0  0
  4  3  1  0  0  0  0
  5 10  1  0  0  0  0
  6  7  1  0  0  0  0
  6  5  2  0  0  0  0
  7  8  2  0  0  0  0
  8 21  1  0  0  0  0
  8  9  1  0  0  0  0
  9 22  1  0  0  0  0
 10  9  2  0  0  0  0
 10 23  1  0  0  0  0
 11 12  1  0  0  0  0
 12 13  2  0  0  0  0
 12 24  1  0  0  0  0
 13 25  1  0  0  0  0
 14 26  1  0  0  0  0
 14 13  1  0  0  0  0
 15 14  2  0  0  0  0
 16 15  1  0  0  0  0
 16 11  2  0  0  0  0
 17  3  1  0  0  0  0
 17 30  1  0  0  0  0
 17 31  1  0  0  0  0
 18 32  1  0  0  0  0
 18  4  1  0  0  0  0
 19  6  1  0  0  0  0
 20  7  1  0  0  0  0
 27 15  1  0  0  0  0
 28 16  1  0  0  0  0
 29 17  1  0  0  0  0
 33 18  1  0  0  0  0
 34 18  1  0  0  0  0
M  END
