2,3
 OpenBabel05122313053D

 15 14  0  0  0  0  0  0  0  0999 V2000
    0.0452   -1.0207    3.4781 N   0  3  0  0  0  0  0  0  0  0  0  0
    1.1861   -0.4773    2.6068 C   0  0  0  0  0  3  0  0  0  0  0  0
   -1.1274   -0.5252    2.6209 C   0  0  0  0  0  3  0  0  0  0  0  0
    0.0415   -0.5029    4.8738 C   0  0  0  0  0  0  0  0  0  0  0  0
    0.0784   -2.5109    3.4872 C   0  0  0  0  0  0  0  0  0  0  0  0
    1.5523    0.4606    3.0683 H   0  0  0  0  0  0  0  0  0  0  0  0
    2.0090   -1.2164    2.5570 H   0  0  0  0  0  0  0  0  0  0  0  0
   -1.9294   -1.2882    2.6028 H   0  0  0  0  0  0  0  0  0  0  0  0
   -1.5124    0.4101    3.0721 H   0  0  0  0  0  0  0  0  0  0  0  0
    0.0170    0.6010    4.8421 H   0  0  0  0  0  0  0  0  0  0  0  0
   -0.8553   -0.8796    5.4015 H   0  0  0  0  0  0  0  0  0  0  0  0
    0.9592   -0.8403    5.3921 H   0  0  0  0  0  0  0  0  0  0  0  0
    0.0906   -2.8588    2.4382 H   0  0  0  0  0  0  0  0  0  0  0  0
    0.9920   -2.8528    4.0073 H   0  0  0  0  0  0  0  0  0  0  0  0
   -0.8204   -2.8938    4.0045 H   0  0  0  0  0  0  0  0  0  0  0  0
  1  5  1  0  0  0  0
  1  4  1  0  0  0  0
  2  6  1  0  0  0  0
  2  1  1  0  0  0  0
  3  9  1  0  0  0  0
  3  1  1  0  0  0  0
  4 12  1  0  0  0  0
  4 11  1  0  0  0  0
  5 15  1  0  0  0  0
  5 14  1  0  0  0  0
  7  2  1  0  0  0  0
  8  3  1  0  0  0  0
 10  4  1  0  0  0  0
 13  5  1  0  0  0  0
M  CHG  1   1   1
M  END
