3,11
 OpenBabel05122313053D

 41 43  0  0  1  0  0  0  0  0999 V2000
   -0.4612    2.6838    2.5151 O   0  0  0  0  0  0  0  0  0  0  0  0
   -0.3185    3.9216    0.6119 O   0  0  0  0  0  0  0  0  0  0  0  0
    0.8841    1.9172    0.6747 C   0  0  1  0  0  3  0  0  0  0  0  0
    1.6561    3.2860   -1.4635 C   0  0  0  0  0  0  0  0  0  0  0  0
    1.0409    4.1687   -1.2575 H   0  0  0  0  0  0  0  0  0  0  0  0
    2.4611    3.2002   -2.5959 C   0  0  0  0  0  0  0  0  0  0  0  0
    2.4899    4.0462   -3.2991 H   0  0  0  0  0  0  0  0  0  0  0  0
    2.4292    1.0202   -0.8507 C   0  0  0  0  0  0  0  0  0  0  0  0
    1.6393    2.1917   -0.5632 C   0  0  0  0  0  0  0  0  0  0  0  0
    1.3303    0.6251    1.1907 C   0  0  1  0  0  3  0  0  0  0  0  0
    2.1744    0.0194    0.1913 C   0  0  2  0  0  3  0  0  0  0  0  0
    4.3947   -1.1480    0.4774 C   0  0  0  0  0  0  0  0  0  0  0  0
    3.2263    0.9496   -2.0180 C   0  0  0  0  0  0  0  0  0  0  0  0
    3.8194    0.0492   -2.2272 H   0  0  0  0  0  0  0  0  0  0  0  0
    5.2785   -2.0497   -0.1478 C   0  0  0  0  0  0  0  0  0  0  0  0
    4.8690   -2.8411   -0.7958 H   0  0  0  0  0  0  0  0  0  0  0  0
   -0.0205    2.8510    1.3838 C   0  0  0  0  0  0  0  0  0  0  0  0
    3.2397    2.0453   -2.8742 C   0  0  0  0  0  0  0  0  0  0  0  0
    3.8574    2.0186   -3.7842 H   0  0  0  0  0  0  0  0  0  0  0  0
    1.1108    0.0656    2.5617 C   0  0  0  0  0  0  0  0  0  0  0  0
    0.3473    0.6455    3.1066 H   0  0  0  0  0  0  0  0  0  0  0  0
    2.0607    0.1448    3.1323 H   0  0  0  0  0  0  0  0  0  0  0  0
    0.8315   -1.0039    2.5365 H   0  0  0  0  0  0  0  0  0  0  0  0
    2.8950   -1.2910    0.2826 C   0  0  0  0  0  0  0  0  0  0  0  0
    2.6890   -1.8625   -0.6473 H   0  0  0  0  0  0  0  0  0  0  0  0
    2.4647   -1.8874    1.1137 H   0  0  0  0  0  0  0  0  0  0  0  0
    4.9361   -0.1306    1.2887 C   0  0  0  0  0  0  0  0  0  0  0  0
    4.2627    0.5958    1.7705 H   0  0  0  0  0  0  0  0  0  0  0  0
   -1.3755    4.7974    1.0634 C   0  0  0  0  0  0  0  0  0  0  0  0
   -1.0553    5.8138    0.7592 H   0  0  0  0  0  0  0  0  0  0  0  0
   -1.4304    4.7482    2.1692 H   0  0  0  0  0  0  0  0  0  0  0  0
    6.3217   -0.0244    1.4795 C   0  0  0  0  0  0  0  0  0  0  0  0
    6.7254    0.7786    2.1151 H   0  0  0  0  0  0  0  0  0  0  0  0
    6.6649   -1.9477    0.0422 C   0  0  0  0  0  0  0  0  0  0  0  0
    7.3388   -2.6612   -0.4565 H   0  0  0  0  0  0  0  0  0  0  0  0
    7.1917   -0.9342    0.8581 C   0  0  0  0  0  0  0  0  0  0  0  0
    8.2792   -0.8494    1.0043 H   0  0  0  0  0  0  0  0  0  0  0  0
   -2.6909    4.4023    0.4130 C   0  0  0  0  0  0  0  0  0  0  0  0
   -2.5965    4.3856   -0.6898 H   0  0  0  0  0  0  0  0  0  0  0  0
   -3.4846    5.1231    0.6969 H   0  0  0  0  0  0  0  0  0  0  0  0
   -3.0048    3.3926    0.7388 H   0  0  0  0  0  0  0  0  0  0  0  0
  2 29  1  0  0  0  0
  2 17  1  0  0  0  0
  3 10  1  0  0  0  0
  3 17  1  1  0  0  0
  4  5  1  0  0  0  0
  4  9  1  0  0  0  0
  6  4  2  0  0  0  0
  7  6  1  0  0  0  0
  8  9  2  0  0  0  0
  8 11  1  0  0  0  0
  9  3  1  0  0  0  0
 10 20  1  1  0  0  0
 11 24  1  1  0  0  0
 11 10  1  0  0  0  0
 12 27  1  0  0  0  0
 13  8  1  0  0  0  0
 14 13  1  0  0  0  0
 15 34  1  0  0  0  0
 15 12  2  0  0  0  0
 16 15  1  0  0  0  0
 17  1  2  0  0  0  0
 18  6  1  0  0  0  0
 18 13  2  0  0  0  0
 19 18  1  0  0  0  0
 20 21  1  0  0  0  0
 20 22  1  0  0  0  0
 23 20  1  0  0  0  0
 24 12  1  0  0  0  0
 24 26  1  0  0  0  0
 25 24  1  0  0  0  0
 27 32  2  0  0  0  0
 27 28  1  0  0  0  0
 29 31  1  0  0  0  0
 30 29  1  0  0  0  0
 32 33  1  0  0  0  0
 34 36  2  0  0  0  0
 35 34  1  0  0  0  0
 36 37  1  0  0  0  0
 36 32  1  0  0  0  0
 38 40  1  0  0  0  0
 38 41  1  0  0  0  0
 38 29  1  0  0  0  0
 39 38  1  0  0  0  0
M  END
