5,10
 OpenBabel05122313053D

 24 25  0  0  0  0  0  0  0  0999 V2000
    0.1818    2.6710    0.3826 N   0  0  0  0  0  0  0  0  0  0  0  0
    0.7138    3.8459    0.6884 N   0  0  0  0  0  2  0  0  0  0  0  0
    1.9339    3.5228    1.0970 N   0  0  0  0  0  0  0  0  0  0  0  0
   -5.9704    1.1783   -2.0284 N   0  0  0  0  0  0  0  0  0  0  0  0
    1.0054    1.5595    0.5752 C   0  0  0  0  0  3  0  0  0  0  0  0
    2.1819    2.1627    1.0568 C   0  0  0  0  0  0  0  0  0  0  0  0
    3.4923    1.5834    1.4669 C   0  0  0  0  0  0  0  0  0  0  0  0
    2.8421    4.5767    1.5178 C   0  0  0  0  0  0  0  0  0  0  0  0
   -1.1280    2.4650   -0.1171 C   0  0  0  0  0  0  0  0  0  0  0  0
   -1.3837    1.0892   -0.3732 C   0  0  0  0  0  3  0  0  0  0  0  0
   -2.6711    0.8083   -0.8727 C   0  0  0  0  0  0  0  0  0  0  0  0
   -3.6229    1.8353   -1.1003 C   0  0  0  0  0  0  0  0  0  0  0  0
   -3.3049    3.1886   -0.8282 C   0  0  0  0  0  0  0  0  0  0  0  0
   -2.0385    3.5086   -0.3287 C   0  0  0  0  0  0  0  0  0  0  0  0
   -4.9174    1.4873   -1.6102 C   0  0  0  0  0  0  0  0  0  0  0  0
    4.3189    1.9116    0.8020 H   0  0  0  0  0  0  0  0  0  0  0  0
    3.4399    0.4820    1.4216 H   0  0  0  0  0  0  0  0  0  0  0  0
    3.7707    1.8695    2.5026 H   0  0  0  0  0  0  0  0  0  0  0  0
    3.7488    4.5750    0.8824 H   0  0  0  0  0  0  0  0  0  0  0  0
    3.1392    4.4274    2.5741 H   0  0  0  0  0  0  0  0  0  0  0  0
    2.3151    5.5404    1.4123 H   0  0  0  0  0  0  0  0  0  0  0  0
   -2.9698   -0.2252   -1.1031 H   0  0  0  0  0  0  0  0  0  0  0  0
   -4.0510    3.9742   -1.0090 H   0  0  0  0  0  0  0  0  0  0  0  0
   -1.7595    4.5479   -0.1046 H   0  0  0  0  0  0  0  0  0  0  0  0
  1  5  1  0  0  0  0
  1  2  1  0  0  0  0
  2  3  1  0  0  0  0
  3  8  1  0  0  0  0
  4 15  3  0  0  0  0
  5  6  2  0  0  0  0
  6  3  1  0  0  0  0
  6  7  1  0  0  0  0
  7 18  1  0  0  0  0
  8 20  1  0  0  0  0
  9  1  1  0  0  0  0
 10  9  2  0  0  0  0
 11 10  1  0  0  0  0
 12 11  2  0  0  0  0
 12 13  1  0  0  0  0
 13 14  2  0  0  0  0
 14  9  1  0  0  0  0
 14 24  1  0  0  0  0
 15 12  1  0  0  0  0
 16  7  1  0  0  0  0
 17  7  1  0  0  0  0
 19  8  1  0  0  0  0
 21  8  1  0  0  0  0
 22 11  1  0  0  0  0
 23 13  1  0  0  0  0
M  END
