7,27
 OpenBabel05122313053D

 62 66  0  0  1  0  0  0  0  0999 V2000
   -0.2802    4.7245    1.1666 Br  0  0  0  0  0  0  0  0  0  0  0  0
    5.6842    1.4581   -2.0398 Br  0  0  0  0  0  0  0  0  0  0  0  0
    1.0000   -0.3671   -0.1514 C   0  0  0  0  0  0  0  0  0  0  0  0
    0.6533   -0.5880   -1.1791 H   0  0  0  0  0  0  0  0  0  0  0  0
    3.3102   -0.4501    0.6765 N   0  0  0  0  0  0  0  0  0  0  0  0
    0.2389    0.8455    0.2111 N   0  0  0  0  0  0  0  0  0  0  0  0
   -0.7240   -2.0717    0.2004 C   0  0  2  0  0  3  0  0  0  0  0  0
    2.4066   -0.0599   -0.2524 N   0  0  0  0  0  0  0  0  0  0  0  0
    1.5061   -2.8571    0.4781 C   0  0  0  0  0  0  0  0  0  0  0  0
    2.1923    1.1892   -2.4477 C   0  0  0  0  0  0  0  0  0  0  0  0
    1.5975    0.4151   -2.9769 H   0  0  0  0  0  0  0  0  0  0  0  0
    2.8871    1.6447   -3.1772 H   0  0  0  0  0  0  0  0  0  0  0  0
    1.4789    1.9703   -2.1116 H   0  0  0  0  0  0  0  0  0  0  0  0
   -2.3176   -2.7571   -1.3730 C   0  0  0  0  0  0  0  0  0  0  0  0
   -2.8140   -2.9711   -2.3275 H   0  0  0  0  0  0  0  0  0  0  0  0
   -0.3080    2.9372    0.5957 C   0  0  0  0  0  0  0  0  0  0  0  0
   -1.0177    1.0206   -0.3210 N   0  0  0  0  0  0  0  0  0  0  0  0
    4.3322    0.6604   -1.0071 C   0  0  0  0  0  0  0  0  0  0  0  0
   -1.9582   -2.3261    0.9010 C   0  0  0  0  0  3  0  0  0  0  0  0
   -2.1361   -2.2031    1.9739 H   0  0  0  0  0  0  0  0  0  0  0  0
    2.3364   -3.0027   -0.6507 C   0  0  0  0  0  0  0  0  0  0  0  0
    2.4897   -2.1711   -1.3516 H   0  0  0  0  0  0  0  0  0  0  0  0
    3.0028   -4.2119   -0.9020 C   0  0  0  0  0  0  0  0  0  0  0  0
    3.6545   -4.2940   -1.7849 H   0  0  0  0  0  0  0  0  0  0  0  0
   -0.9327   -2.3835   -1.2177 C   0  0  0  0  0  0  0  0  0  0  0  0
   -0.1754   -2.4018   -2.0096 H   0  0  0  0  0  0  0  0  0  0  0  0
   -2.9564   -2.7154   -0.0870 C   0  0  0  0  0  3  0  0  0  0  0  0
   -4.0136   -2.9170    0.1203 H   0  0  0  0  0  0  0  0  0  0  0  0
    0.6328   -1.6124    0.7486 C   0  0  0  0  0  0  0  0  0  0  0  0
   -0.4419   -0.3820    2.7352 C   0  0  0  0  0  0  0  0  0  0  0  0
   -1.3027   -0.1038    2.1094 H   0  0  0  0  0  0  0  0  0  0  0  0
    2.9707    0.6260   -1.3106 C   0  0  0  0  0  0  0  0  0  0  0  0
    0.6990    1.9941    0.8091 C   0  0  0  0  0  0  0  0  0  0  0  0
    1.3354   -3.9723    1.3256 C   0  0  0  0  0  0  0  0  0  0  0  0
    0.6665   -3.8911    2.1950 H   0  0  0  0  0  0  0  0  0  0  0  0
    0.6093   -1.1773    2.2260 C   0  0  0  0  0  0  0  0  0  0  0  0
    4.4988   -0.0252    0.2355 C   0  0  0  0  0  0  0  0  0  0  0  0
   -1.3644    2.3139   -0.1155 C   0  0  0  0  0  0  0  0  0  0  0  0
    2.0025   -5.1793    1.0776 C   0  0  0  0  0  0  0  0  0  0  0  0
    1.8568   -6.0299    1.7605 H   0  0  0  0  0  0  0  0  0  0  0  0
   -0.4104    0.0922    4.0560 C   0  0  0  0  0  0  0  0  0  0  0  0
   -1.2462    0.7082    4.4198 H   0  0  0  0  0  0  0  0  0  0  0  0
    5.7596   -0.2769    0.9924 C   0  0  0  0  0  0  0  0  0  0  0  0
    5.5338   -0.8061    1.9363 H   0  0  0  0  0  0  0  0  0  0  0  0
    6.2807    0.6734    1.2285 H   0  0  0  0  0  0  0  0  0  0  0  0
    6.4652   -0.8933    0.3984 H   0  0  0  0  0  0  0  0  0  0  0  0
    2.8458   -5.3039   -0.0370 C   0  0  0  0  0  0  0  0  0  0  0  0
    3.3725   -6.2496   -0.2340 H   0  0  0  0  0  0  0  0  0  0  0  0
    1.6969   -1.4658    3.0768 C   0  0  0  0  0  0  0  0  0  0  0  0
    2.5433   -2.0455    2.6893 H   0  0  0  0  0  0  0  0  0  0  0  0
   -2.6164    2.9700   -0.5754 C   0  0  0  0  0  0  0  0  0  0  0  0
   -3.1591    2.3360   -1.2982 H   0  0  0  0  0  0  0  0  0  0  0  0
   -2.3539    3.9405   -1.0446 H   0  0  0  0  0  0  0  0  0  0  0  0
   -3.2836    3.1739    0.2845 H   0  0  0  0  0  0  0  0  0  0  0  0
    1.9759    2.1573    1.5563 C   0  0  0  0  0  0  0  0  0  0  0  0
    2.1773    1.2911    2.2138 H   0  0  0  0  0  0  0  0  0  0  0  0
    1.8935    3.0722    2.1726 H   0  0  0  0  0  0  0  0  0  0  0  0
    2.8484    2.2833    0.8822 H   0  0  0  0  0  0  0  0  0  0  0  0
    1.7257   -0.9931    4.3961 C   0  0  0  0  0  0  0  0  0  0  0  0
    2.5873   -1.2335    5.0376 H   0  0  0  0  0  0  0  0  0  0  0  0
    0.6716   -0.2111    4.8939 C   0  0  0  0  0  0  0  0  0  0  0  0
    0.6962    0.1622    5.9289 H   0  0  0  0  0  0  0  0  0  0  0  0
  2 18  1  0  0  0  0
  3  6  1  0  0  0  0
  3 29  1  0  0  0  0
  4  3  1  0  0  0  0
  6 33  1  0  0  0  0
  7 29  1  1  0  0  0
  7 19  1  0  0  0  0
  8  3  1  0  0  0  0
  8  5  1  0  0  0  0
  9 29  1  0  0  0  0
  9 34  1  0  0  0  0
 10 13  1  0  0  0  0
 10 32  1  0  0  0  0
 11 10  1  0  0  0  0
 12 10  1  0  0  0  0
 14 25  2  0  0  0  0
 14 27  1  0  0  0  0
 15 14  1  0  0  0  0
 16 33  2  0  0  0  0
 16  1  1  0  0  0  0
 17 38  2  0  0  0  0
 17  6  1  0  0  0  0
 18 37  1  0  0  0  0
 19 20  1  0  0  0  0
 21  9  2  0  0  0  0
 22 21  1  0  0  0  0
 23 21  1  0  0  0  0
 23 47  2  0  0  0  0
 24 23  1  0  0  0  0
 25  7  1  0  0  0  0
 26 25  1  0  0  0  0
 27 28  1  0  0  0  0
 27 19  1  0  0  0  0
 29 36  1  0  0  0  0
 30 41  1  0  0  0  0
 31 30  1  0  0  0  0
 32 18  2  0  0  0  0
 32  8  1  0  0  0  0
 33 55  1  0  0  0  0
 34 35  1  0  0  0  0
 36 30  2  0  0  0  0
 36 49  1  0  0  0  0
 37  5  2  0  0  0  0
 37 43  1  0  0  0  0
 38 16  1  0  0  0  0
 39 34  2  0  0  0  0
 39 40  1  0  0  0  0
 41 42  1  0  0  0  0
 41 61  2  0  0  0  0
 43 45  1  0  0  0  0
 43 44  1  0  0  0  0
 46 43  1  0  0  0  0
 47 39  1  0  0  0  0
 48 47  1  0  0  0  0
 49 59  2  0  0  0  0
 50 49  1  0  0  0  0
 51 38  1  0  0  0  0
 51 54  1  0  0  0  0
 52 51  1  0  0  0  0
 53 51  1  0  0  0  0
 55 57  1  0  0  0  0
 55 56  1  0  0  0  0
 58 55  1  0  0  0  0
 59 61  1  0  0  0  0
 59 60  1  0  0  0  0
 61 62  1  0  0  0  0
M  END
