3
q = -2.0, confidence = 0.842

 45 47  0  0  1  0  0  0  0  0999 V2000
   -0.1081    2.6087    0.0136 Si  0  0  0  0  0  0  0  0  0  0  0  0
    0.9745    1.3694   -0.8899 C   0  0  2  0  0  3  0  0  0  0  0  0
    0.5129    0.7120   -2.0856 C   0  0  0  0  0  3  0  0  0  0  0  0
   -0.3264    1.0413   -2.7115 H   0  0  0  0  0  0  0  0  0  0  0  0
    1.2798   -0.4571   -2.3226 C   0  0  0  0  0  3  0  0  0  0  0  0
    1.1315   -1.1689   -3.1409 H   0  0  0  0  0  0  0  0  0  0  0  0
    3.3187   -1.4816   -1.0721 C   0  0  0  0  0  0  0  0  0  0  0  0
    3.4575   -2.3340   -1.7530 H   0  0  0  0  0  0  0  0  0  0  0  0
    4.1249   -1.3137    0.0422 C   0  0  0  0  0  0  0  0  0  0  0  0
    4.9271   -2.0375    0.2509 H   0  0  0  0  0  0  0  0  0  0  0  0
    3.9466   -0.2054    0.9268 C   0  0  0  0  0  0  0  0  0  0  0  0
    4.6250   -0.0958    1.7864 H   0  0  0  0  0  0  0  0  0  0  0  0
    2.9519    0.7362    0.7155 C   0  0  0  0  0  0  0  0  0  0  0  0
    2.8497    1.6027    1.3837 H   0  0  0  0  0  0  0  0  0  0  0  0
    2.0856    0.5833   -0.4055 C   0  0  0  0  0  0  0  0  0  0  0  0
    2.2845   -0.5389   -1.3112 C   0  0  0  0  0  0  0  0  0  0  0  0
    0.7334    3.5800    1.3940 C   0  0  0  0  0  0  0  0  0  0  0  0
   -0.0113    4.2358    1.8908 H   0  0  0  0  0  0  0  0  0  0  0  0
    1.5165    4.2323    0.9555 H   0  0  0  0  0  0  0  0  0  0  0  0
    1.2004    2.9505    2.1716 H   0  0  0  0  0  0  0  0  0  0  0  0
   -0.8613    3.8712   -1.1737 C   0  0  0  0  0  0  0  0  0  0  0  0
   -0.1466    4.7103   -1.3011 H   0  0  0  0  0  0  0  0  0  0  0  0
   -1.8069    4.2883   -0.7713 H   0  0  0  0  0  0  0  0  0  0  0  0
   -1.0657    3.4559   -2.1791 H   0  0  0  0  0  0  0  0  0  0  0  0
   -1.2788    1.2467    0.6062 C   0  0  2  0  0  3  0  0  0  0  0  0
   -0.9877    0.3580    1.7066 C   0  0  2  0  0  3  0  0  0  0  0  0
   -1.8514   -0.7883    1.6102 C   0  0  0  0  0  0  0  0  0  0  0  0
   -2.6403   -0.6453    0.4361 C   0  0  0  0  0  0  0  0  0  0  0  0
   -2.2610    0.5802   -0.2134 C   0  0  1  0  0  3  0  0  0  0  0  0
   -0.0444    0.5908    2.8536 C   0  0  0  0  0  0  0  0  0  0  0  0
   -0.3742    1.4550    3.4672 H   0  0  0  0  0  0  0  0  0  0  0  0
    0.9922    0.7851    2.5210 H   0  0  0  0  0  0  0  0  0  0  0  0
   -0.0015   -0.2979    3.5085 H   0  0  0  0  0  0  0  0  0  0  0  0
   -1.9457   -1.8872    2.6180 C   0  0  0  0  0  0  0  0  0  0  0  0
   -2.3751   -1.5124    3.5712 H   0  0  0  0  0  0  0  0  0  0  0  0
   -0.9425   -2.3080    2.8322 H   0  0  0  0  0  0  0  0  0  0  0  0
   -2.5834   -2.7158    2.2578 H   0  0  0  0  0  0  0  0  0  0  0  0
   -3.7477   -1.5335   -0.0214 C   0  0  0  0  0  0  0  0  0  0  0  0
   -3.8905   -2.3968    0.6546 H   0  0  0  0  0  0  0  0  0  0  0  0
   -3.5344   -1.9305   -1.0360 H   0  0  0  0  0  0  0  0  0  0  0  0
   -4.7026   -0.9687   -0.0687 H   0  0  0  0  0  0  0  0  0  0  0  0
   -2.9394    1.0607   -1.4636 C   0  0  0  0  0  0  0  0  0  0  0  0
   -2.4735    1.9688   -1.8816 H   0  0  0  0  0  0  0  0  0  0  0  0
   -4.0036    1.3047   -1.2546 H   0  0  0  0  0  0  0  0  0  0  0  0
   -2.9314    0.2705   -2.2416 H   0  0  0  0  0  0  0  0  0  0  0  0
  1 17  1  0  0  0  0
  2 15  1  0  0  0  0
  2  1  1  1  0  0  0
  3  2  1  0  0  0  0
  4  3  1  0  0  0  0
  5  3  1  0  0  0  0
  5 16  1  0  0  0  0
  6  5  1  0  0  0  0
  7  9  1  0  0  0  0
  8  7  1  0  0  0  0
  9 10  1  0  0  0  0
  9 11  2  0  0  0  0
 11 12  1  0  0  0  0
 13 11  1  0  0  0  0
 13 14  1  0  0  0  0
 15 13  2  0  0  0  0
 16  7  2  0  0  0  0
 16 15  1  0  0  0  0
 17 18  1  0  0  0  0
 17 20  1  0  0  0  0
 19 17  1  0  0  0  0
 21 23  1  0  0  0  0
 21  1  1  0  0  0  0
 22 21  1  0  0  0  0
 24 21  1  0  0  0  0
 25  1  1  6  0  0  0
 25 26  1  0  0  0  0
 26 30  1  1  0  0  0
 27 26  1  0  0  0  0
 27 34  1  0  0  0  0
 28 27  2  0  0  0  0
 29 42  1  1  0  0  0
 29 28  1  0  0  0  0
 29 25  1  0  0  0  0
 30 31  1  0  0  0  0
 30 33  1  0  0  0  0
 32 30  1  0  0  0  0
 34 36  1  0  0  0  0
 34 35  1  0  0  0  0
 37 34  1  0  0  0  0
 38 28  1  0  0  0  0
 38 39  1  0  0  0  0
 40 38  1  0  0  0  0
 41 38  1  0  0  0  0
 42 44  1  0  0  0  0
 43 42  1  0  0  0  0
 45 42  1  0  0  0  0
M  END
