4,7
 OpenBabel05122313053D

 36 37  0  0  1  0  0  0  0  0999 V2000
   -2.8958   -1.1489   -1.4742 O   0  0  0  0  0  0  0  0  0  0  0  0
   -2.8803    1.4580   -1.1957 O   0  0  0  0  0  0  0  0  0  0  0  0
    0.7924   -0.6168   -0.9904 C   0  0  0  0  0  0  0  0  0  0  0  0
   -0.4598   -1.2928   -1.1962 C   0  0  0  0  0  3  0  0  0  0  0  0
   -1.6843   -0.5860   -1.2812 C   0  0  0  0  0  0  0  0  0  0  0  0
   -1.6762    0.8514   -1.1262 C   0  0  0  0  0  0  0  0  0  0  0  0
   -0.4413    1.5120   -0.9089 C   0  0  0  0  0  3  0  0  0  0  0  0
    0.8046    0.7978   -0.8645 C   0  0  0  0  0  0  0  0  0  0  0  0
    2.0922    1.5626   -0.6475 C   0  0  0  0  0  0  0  0  0  0  0  0
    3.3761    0.7319   -0.8214 C   0  0  2  0  0  0  0  0  0  0  0  0
    3.2051   -0.6633   -0.1795 C   0  0  1  0  0  0  0  0  0  0  0  0
    2.0715   -1.4101   -0.8969 C   0  0  0  0  0  0  0  0  0  0  0  0
   -3.0226   -2.5417   -1.2248 C   0  0  0  0  0  0  0  0  0  0  0  0
   -2.9915    2.7643   -0.6486 C   0  0  0  0  0  0  0  0  0  0  0  0
    4.5763    1.5193   -0.2877 C   0  0  0  0  0  0  0  0  0  0  0  0
    4.4837   -1.5048   -0.1886 C   0  0  0  0  0  0  0  0  0  0  0  0
   -0.4578   -2.3885   -1.2575 H   0  0  0  0  0  0  0  0  0  0  0  0
   -0.4257    2.5989   -0.7565 H   0  0  0  0  0  0  0  0  0  0  0  0
    2.0797    2.0068    0.3717 H   0  0  0  0  0  0  0  0  0  0  0  0
    2.1133    2.4249   -1.3487 H   0  0  0  0  0  0  0  0  0  0  0  0
    3.5315    0.5623   -1.9136 H   0  0  0  0  0  0  0  0  0  0  0  0
    2.8882   -0.5111    0.8783 H   0  0  0  0  0  0  0  0  0  0  0  0
    2.4064   -1.6697   -1.9284 H   0  0  0  0  0  0  0  0  0  0  0  0
    1.8677   -2.3739   -0.3861 H   0  0  0  0  0  0  0  0  0  0  0  0
    4.6024    2.5404   -0.7204 H   0  0  0  0  0  0  0  0  0  0  0  0
    4.5174    1.6272    0.8162 H   0  0  0  0  0  0  0  0  0  0  0  0
    5.5398    1.0318   -0.5316 H   0  0  0  0  0  0  0  0  0  0  0  0
    4.2871   -2.5220    0.2067 H   0  0  0  0  0  0  0  0  0  0  0  0
    4.8812   -1.6171   -1.2203 H   0  0  0  0  0  0  0  0  0  0  0  0
    5.2819   -1.0574    0.4345 H   0  0  0  0  0  0  0  0  0  0  0  0
   -4.1020   -2.7707   -1.2853 H   0  0  0  0  0  0  0  0  0  0  0  0
   -2.4473    3.5186   -1.2589 H   0  0  0  0  0  0  0  0  0  0  0  0
   -4.0685    3.0118   -0.6522 H   0  0  0  0  0  0  0  0  0  0  0  0
   -2.6448   -2.7938   -0.2096 H   0  0  0  0  0  0  0  0  0  0  0  0
   -2.4825   -3.1507   -1.9830 H   0  0  0  0  0  0  0  0  0  0  0  0
   -2.6074    2.7854    0.3950 H   0  0  0  0  0  0  0  0  0  0  0  0
  1  5  1  0  0  0  0
  1 13  1  0  0  0  0
  2  6  1  0  0  0  0
  2 14  1  0  0  0  0
  3 12  1  0  0  0  0
  3  8  2  0  0  0  0
  4  3  1  0  0  0  0
  5  4  1  0  0  0  0
  5  6  2  0  0  0  0
  6  7  1  0  0  0  0
  7  8  1  0  0  0  0
  7 18  1  0  0  0  0
  8  9  1  0  0  0  0
  9 19  1  0  0  0  0
 10 21  1  6  0  0  0
 10  9  1  0  0  0  0
 10 15  1  0  0  0  0
 10 11  1  0  0  0  0
 11 22  1  1  0  0  0
 12 24  1  0  0  0  0
 12 11  1  0  0  0  0
 13 34  1  0  0  0  0
 14 36  1  0  0  0  0
 15 26  1  0  0  0  0
 16 11  1  0  0  0  0
 16 28  1  0  0  0  0
 16 30  1  0  0  0  0
 17  4  1  0  0  0  0
 20  9  1  0  0  0  0
 23 12  1  0  0  0  0
 25 15  1  0  0  0  0
 27 15  1  0  0  0  0
 29 16  1  0  0  0  0
 31 13  1  0  0  0  0
 32 14  1  0  0  0  0
 33 14  1  0  0  0  0
 35 13  1  0  0  0  0
M  END
