8,10
 OpenBabel05122313053D

 23 26  0  0  1  0  0  0  0  0999 V2000
   -4.7277   -0.9341    0.4166 C   0  0  0  0  0  0  0  0  0  0  0  0
   -4.0352    0.3436   -0.0396 C   0  0  1  0  0  0  0  0  0  0  0  0
   -3.4307   -1.7150    0.5839 C   0  0  2  0  0  0  0  0  0  0  0  0
   -2.9397    0.6411    1.0350 C   0  0  1  0  0  0  0  0  0  0  0  0
   -2.5031   -0.8244    1.4745 C   0  0  2  0  0  0  0  0  0  0  0  0
   -2.6556   -1.5443   -0.7629 C   0  0  1  0  0  0  0  0  0  0  0  0
   -3.0790   -0.0785   -1.2035 C   0  0  2  0  0  0  0  0  0  0  0  0
   -1.9789    0.9795   -1.1056 C   0  0  0  0  0  3  0  0  0  0  0  0
   -1.9083    1.4168    0.2205 C   0  0  0  0  0  3  0  0  0  0  0  0
   -1.1107   -1.2697    1.0195 C   0  0  0  0  0  3  0  0  0  0  0  0
   -1.2062   -1.7006   -0.3094 C   0  0  0  0  0  3  0  0  0  0  0  0
   -5.4045   -1.3666   -0.3492 H   0  0  0  0  0  0  0  0  0  0  0  0
   -5.2942   -0.8122    1.3629 H   0  0  0  0  0  0  0  0  0  0  0  0
   -4.6710    1.2178   -0.2795 H   0  0  0  0  0  0  0  0  0  0  0  0
   -3.5012   -2.7659    0.9255 H   0  0  0  0  0  0  0  0  0  0  0  0
   -3.3114    1.2146    1.9056 H   0  0  0  0  0  0  0  0  0  0  0  0
   -2.6545   -0.9673    2.5616 H   0  0  0  0  0  0  0  0  0  0  0  0
   -2.9372   -2.2835   -1.5372 H   0  0  0  0  0  0  0  0  0  0  0  0
   -3.5628   -0.0924   -2.1989 H   0  0  0  0  0  0  0  0  0  0  0  0
   -1.6389    1.5449   -1.9856 H   0  0  0  0  0  0  0  0  0  0  0  0
   -1.5070    2.3799    0.5555 H   0  0  0  0  0  0  0  0  0  0  0  0
   -0.3399   -1.5791    1.7392 H   0  0  0  0  0  0  0  0  0  0  0  0
   -0.5242   -2.3992   -0.8105 H   0  0  0  0  0  0  0  0  0  0  0  0
  1  3  1  0  0  0  0
  1 13  1  0  0  0  0
  2 14  1  6  0  0  0
  2  1  1  0  0  0  0
  2  4  1  0  0  0  0
  3 15  1  1  0  0  0
  3  5  1  0  0  0  0
  4  5  1  0  0  0  0
  4 16  1  1  0  0  0
  5 17  1  1  0  0  0
  6 18  1  6  0  0  0
  6 11  1  0  0  0  0
  6  3  1  0  0  0  0
  7 19  1  6  0  0  0
  7  8  1  0  0  0  0
  7  6  1  0  0  0  0
  7  2  1  0  0  0  0
  8  9  1  0  0  0  0
  9 21  1  0  0  0  0
  9  4  1  0  0  0  0
 10  5  1  0  0  0  0
 10 22  1  0  0  0  0
 11 10  1  0  0  0  0
 12  1  1  0  0  0  0
 20  8  1  0  0  0  0
 23 11  1  0  0  0  0
M  END
