5,9
 OpenBabel05122313053D

 63 64  0  0  1  0  0  0  0  0999 V2000
    3.5146    0.0181   -0.7743 Si  0  0  0  0  0  0  0  0  0  0  0  0
   -3.1430   -1.1454   -0.3465 Si  0  0  0  0  0  0  0  0  0  0  0  0
    1.9472   -2.4408   -0.6593 O   0  0  0  0  0  0  0  0  0  0  0  0
   -0.8158   -2.9363   -0.6386 O   0  0  0  0  0  0  0  0  0  0  0  0
    0.6297    1.0209   -0.7208 C   0  0  1  0  0  3  0  0  0  0  0  0
    1.5781   -0.0700   -0.6491 C   0  0  0  0  0  0  0  0  0  0  0  0
    1.0573   -1.3969   -0.6199 C   0  0  0  0  0  0  0  0  0  0  0  0
   -0.3589   -1.6375   -0.6360 C   0  0  2  0  0  3  0  0  0  0  0  0
   -1.3086   -0.5750   -0.6300 C   0  0  2  0  0  3  0  0  0  0  0  0
   -0.7805    0.7741   -0.7334 C   0  0  2  0  0  3  0  0  0  0  0  0
   -1.7588    1.9204   -0.9432 C   0  0  1  0  0  0  0  0  0  0  0  0
   -1.2253    3.3659   -0.7222 C   0  0  2  0  0  0  0  0  0  0  0  0
    0.1091    3.3930    0.0362 C   0  0  1  0  0  0  0  0  0  0  0  0
    1.0984    2.4555   -0.6613 C   0  0  0  0  0  0  0  0  0  0  0  0
    1.9456   -3.3747    0.4274 C   0  0  0  0  0  0  0  0  0  0  0  0
   -0.5611   -3.6416   -1.8588 C   0  0  0  0  0  0  0  0  0  0  0  0
   -2.3560    1.7958   -2.3579 C   0  0  0  0  0  0  0  0  0  0  0  0
   -2.3179    4.2150   -0.0617 C   0  0  0  0  0  0  0  0  0  0  0  0
    0.7005    4.7995    0.1625 C   0  0  0  0  0  0  0  0  0  0  0  0
    4.2490    1.7670   -0.7559 C   0  0  0  0  0  0  0  0  0  0  0  0
    4.3742   -0.9000    0.6371 C   0  0  0  0  0  0  0  0  0  0  0  0
    3.9372   -0.7394   -2.4577 C   0  0  0  0  0  0  0  0  0  0  0  0
   -4.3717    0.2458    0.0499 C   0  0  0  0  0  0  0  0  0  0  0  0
   -3.7664   -2.0183   -1.9128 C   0  0  0  0  0  0  0  0  0  0  0  0
   -3.2403   -2.3020    1.1436 C   0  0  0  0  0  0  0  0  0  0  0  0
    2.7206   -4.1255    0.1846 H   0  0  0  0  0  0  0  0  0  0  0  0
   -1.0239   -3.1167   -2.7221 H   0  0  0  0  0  0  0  0  0  0  0  0
    0.9615   -3.8683    0.5489 H   0  0  0  0  0  0  0  0  0  0  0  0
    2.2078   -2.8557    1.3715 H   0  0  0  0  0  0  0  0  0  0  0  0
   -1.0299   -4.6367   -1.7451 H   0  0  0  0  0  0  0  0  0  0  0  0
    0.5267   -3.7582   -2.0438 H   0  0  0  0  0  0  0  0  0  0  0  0
   -2.5763    1.7660   -0.2162 H   0  0  0  0  0  0  0  0  0  0  0  0
   -1.0103    3.8003   -1.7270 H   0  0  0  0  0  0  0  0  0  0  0  0
   -0.0604    2.9882    1.0589 H   0  0  0  0  0  0  0  0  0  0  0  0
    1.2966    2.8329   -1.6918 H   0  0  0  0  0  0  0  0  0  0  0  0
    2.0619    2.4914   -0.1278 H   0  0  0  0  0  0  0  0  0  0  0  0
   -3.1138    2.5867   -2.5314 H   0  0  0  0  0  0  0  0  0  0  0  0
   -1.5634    1.9092   -3.1261 H   0  0  0  0  0  0  0  0  0  0  0  0
   -2.8443    0.8158   -2.5233 H   0  0  0  0  0  0  0  0  0  0  0  0
   -2.0551    5.2905   -0.0361 H   0  0  0  0  0  0  0  0  0  0  0  0
   -3.2796    4.1252   -0.6073 H   0  0  0  0  0  0  0  0  0  0  0  0
   -2.4913    3.8769    0.9815 H   0  0  0  0  0  0  0  0  0  0  0  0
    1.6887    4.7684    0.6646 H   0  0  0  0  0  0  0  0  0  0  0  0
    0.8456    5.2631   -0.8370 H   0  0  0  0  0  0  0  0  0  0  0  0
    0.0505    5.4719    0.7551 H   0  0  0  0  0  0  0  0  0  0  0  0
    5.3404    1.6456   -0.9254 H   0  0  0  0  0  0  0  0  0  0  0  0
    3.8597    2.4292   -1.5530 H   0  0  0  0  0  0  0  0  0  0  0  0
    4.1242    2.2723    0.2229 H   0  0  0  0  0  0  0  0  0  0  0  0
    5.4573   -0.6598    0.6001 H   0  0  0  0  0  0  0  0  0  0  0  0
    3.9921   -0.5677    1.6225 H   0  0  0  0  0  0  0  0  0  0  0  0
    4.2671   -1.9972    0.5633 H   0  0  0  0  0  0  0  0  0  0  0  0
    5.0359   -0.7326   -2.6142 H   0  0  0  0  0  0  0  0  0  0  0  0
    3.5790   -1.7849   -2.5211 H   0  0  0  0  0  0  0  0  0  0  0  0
    3.4740   -0.1588   -3.2818 H   0  0  0  0  0  0  0  0  0  0  0  0
   -5.3369   -0.2593    0.2688 H   0  0  0  0  0  0  0  0  0  0  0  0
   -4.0834    0.8069    0.9608 H   0  0  0  0  0  0  0  0  0  0  0  0
   -4.5524    0.9597   -0.7760 H   0  0  0  0  0  0  0  0  0  0  0  0
   -4.8561   -2.2063   -1.8184 H   0  0  0  0  0  0  0  0  0  0  0  0
   -3.6106   -1.4052   -2.8238 H   0  0  0  0  0  0  0  0  0  0  0  0
   -3.2695   -2.9955   -2.0660 H   0  0  0  0  0  0  0  0  0  0  0  0
   -4.2636   -2.7294    1.2004 H   0  0  0  0  0  0  0  0  0  0  0  0
   -2.5118   -3.1307    1.0868 H   0  0  0  0  0  0  0  0  0  0  0  0
   -3.0544   -1.7382    2.0792 H   0  0  0  0  0  0  0  0  0  0  0  0
  1 20  1  0  0  0  0
  1  6  1  0  0  0  0
  1 21  1  0  0  0  0
  2 23  1  0  0  0  0
  2 25  1  0  0  0  0
  3  7  1  0  0  0  0
  3 15  1  0  0  0  0
  5 14  1  0  0  0  0
  5  6  1  1  0  0  0
  6  7  2  0  0  0  0
  8  4  1  1  0  0  0
  8  9  1  0  0  0  0
  8  7  1  0  0  0  0
  9  2  1  1  0  0  0
 10  5  1  0  0  0  0
 10  9  1  0  0  0  0
 11 10  1  0  0  0  0
 11 12  1  0  0  0  0
 11 32  1  0  0  0  0
 12 18  1  0  0  0  0
 12 13  1  0  0  0  0
 13 19  1  0  0  0  0
 13 34  1  0  0  0  0
 14 36  1  0  0  0  0
 14 13  1  0  0  0  0
 15 28  1  0  0  0  0
 15 29  1  0  0  0  0
 16 30  1  0  0  0  0
 16  4  1  0  0  0  0
 17 11  1  0  0  0  0
 18 40  1  0  0  0  0
 18 42  1  0  0  0  0
 19 43  1  0  0  0  0
 19 45  1  0  0  0  0
 20 48  1  0  0  0  0
 21 50  1  0  0  0  0
 22  1  1  0  0  0  0
 23 55  1  0  0  0  0
 23 56  1  0  0  0  0
 24 58  1  0  0  0  0
 24  2  1  0  0  0  0
 25 61  1  0  0  0  0
 25 63  1  0  0  0  0
 26 15  1  0  0  0  0
 27 16  1  0  0  0  0
 31 16  1  0  0  0  0
 33 12  1  0  0  0  0
 35 14  1  0  0  0  0
 37 17  1  0  0  0  0
 38 17  1  0  0  0  0
 39 17  1  0  0  0  0
 41 18  1  0  0  0  0
 44 19  1  0  0  0  0
 46 20  1  0  0  0  0
 47 20  1  0  0  0  0
 49 21  1  0  0  0  0
 51 21  1  0  0  0  0
 52 22  1  0  0  0  0
 53 22  1  0  0  0  0
 54 22  1  0  0  0  0
 57 23  1  0  0  0  0
 59 24  1  0  0  0  0
 60 24  1  0  0  0  0
 62 25  1  0  0  0  0
M  END
