21
 OpenBabel05122313053D

 67 72  0  0  1  0  0  0  0  0999 V2000
   -2.8712   -1.1429    1.1741 C   0  0  0  0  0  0  0  0  0  0  0  0
   -2.6648   -2.3995    1.8130 C   0  0  0  0  0  0  0  0  0  0  0  0
   -2.1920   -2.4508    2.8045 H   0  0  0  0  0  0  0  0  0  0  0  0
   -3.0986   -3.5571    1.1775 C   0  0  0  0  0  0  0  0  0  0  0  0
   -2.9510   -4.5314    1.6674 H   0  0  0  0  0  0  0  0  0  0  0  0
   -3.7312   -3.5117   -0.0959 C   0  0  0  0  0  0  0  0  0  0  0  0
   -4.0530   -4.4507   -0.5699 H   0  0  0  0  0  0  0  0  0  0  0  0
   -3.9502   -2.3006   -0.7431 C   0  0  0  0  0  0  0  0  0  0  0  0
   -4.4381   -2.2683   -1.7283 H   0  0  0  0  0  0  0  0  0  0  0  0
   -3.5214   -1.1051   -0.1215 C   0  0  0  0  0  0  0  0  0  0  0  0
   -3.6347    0.2851   -0.5135 C   0  0  0  0  0  0  0  0  0  0  0  0
   -4.1946    0.9017   -1.6575 C   0  0  0  0  0  0  0  0  0  0  0  0
   -4.6115    0.2873   -2.4688 H   0  0  0  0  0  0  0  0  0  0  0  0
   -4.1945    2.2891   -1.7414 C   0  0  0  0  0  0  0  0  0  0  0  0
   -4.6184    2.7839   -2.6275 H   0  0  0  0  0  0  0  0  0  0  0  0
   -3.6548    3.0832   -0.6914 C   0  0  0  0  0  0  0  0  0  0  0  0
   -3.6792    4.1796   -0.7825 H   0  0  0  0  0  0  0  0  0  0  0  0
   -3.0945    2.5060    0.4412 C   0  0  0  0  0  0  0  0  0  0  0  0
   -2.6847    3.1363    1.2422 H   0  0  0  0  0  0  0  0  0  0  0  0
   -3.0692    1.0870    0.5549 C   0  0  0  0  0  0  0  0  0  0  0  0
   -2.5283    0.2067    1.5740 C   0  0  0  0  0  3  0  0  0  0  0  0
   -2.0155    0.6064    2.9361 C   0  0  0  0  0  0  0  0  0  0  0  0
   -2.7016    0.2425    3.7326 H   0  0  0  0  0  0  0  0  0  0  0  0
   -2.0306    1.7113    3.0119 H   0  0  0  0  0  0  0  0  0  0  0  0
   -0.5853    0.0802    3.1721 C   0  0  0  0  0  0  0  0  0  0  0  0
   -0.1008    0.6193    4.0160 H   0  0  0  0  0  0  0  0  0  0  0  0
   -0.6107   -0.9879    3.4672 H   0  0  0  0  0  0  0  0  0  0  0  0
    0.2393    0.2093    1.9185 C   0  0  2  0  0  3  0  0  0  0  0  0
    0.9633   -0.8230    1.2499 C   0  0  0  0  0  0  0  0  0  0  0  0
    0.9688   -1.8733    1.5668 H   0  0  0  0  0  0  0  0  0  0  0  0
    1.6383   -0.3152    0.0948 C   0  0  0  0  0  0  0  0  0  0  0  0
    1.3771    1.1089    0.0748 C   0  0  0  0  0  0  0  0  0  0  0  0
    0.5139    1.4320    1.2000 C   0  0  0  0  0  0  0  0  0  0  0  0
    0.1474    2.7886    1.4527 C   0  0  0  0  0  0  0  0  0  0  0  0
   -0.4667    3.0414    2.3284 H   0  0  0  0  0  0  0  0  0  0  0  0
    0.6210    3.7838    0.6145 C   0  0  0  0  0  0  0  0  0  0  0  0
    0.3588    4.8342    0.8115 H   0  0  0  0  0  0  0  0  0  0  0  0
    1.4562    3.4692   -0.4983 C   0  0  0  0  0  0  0  0  0  0  0  0
    1.8097    4.2822   -1.1498 H   0  0  0  0  0  0  0  0  0  0  0  0
    1.8323    2.1655   -0.7715 C   0  0  0  0  0  0  0  0  0  0  0  0
    2.4724    1.9482   -1.6356 H   0  0  0  0  0  0  0  0  0  0  0  0
    2.6975   -1.0529   -0.7272 C   0  0  0  0  0  0  0  0  0  0  0  0
    2.7214   -2.5455   -0.3456 C   0  0  0  0  0  0  0  0  0  0  0  0
    1.7190   -2.9944   -0.4788 H   0  0  0  0  0  0  0  0  0  0  0  0
    3.0404   -2.7047    0.7039 H   0  0  0  0  0  0  0  0  0  0  0  0
    3.4231   -3.0998   -0.9979 H   0  0  0  0  0  0  0  0  0  0  0  0
    2.3950   -0.9395   -2.2381 C   0  0  0  0  0  0  0  0  0  0  0  0
    1.4228   -1.4123   -2.4700 H   0  0  0  0  0  0  0  0  0  0  0  0
    3.1731   -1.4538   -2.8352 H   0  0  0  0  0  0  0  0  0  0  0  0
    2.3443    0.1117   -2.5796 H   0  0  0  0  0  0  0  0  0  0  0  0
    4.0871   -0.3738   -0.4034 C   0  0  0  0  0  0  0  0  0  0  0  0
    4.0337    0.6542   -0.8271 H   0  0  0  0  0  0  0  0  0  0  0  0
    4.3721   -0.2095    1.1021 C   0  0  0  0  0  0  0  0  0  0  0  0
    4.4418   -1.2145    1.5761 H   0  0  0  0  0  0  0  0  0  0  0  0
    3.5310    0.3133    1.6006 H   0  0  0  0  0  0  0  0  0  0  0  0
    5.6768    0.5580    1.3563 C   0  0  0  0  0  0  0  0  0  0  0  0
    5.5596    1.5994    0.9795 H   0  0  0  0  0  0  0  0  0  0  0  0
    5.8632    0.6428    2.4478 H   0  0  0  0  0  0  0  0  0  0  0  0
    6.8713   -0.0985    0.6557 C   0  0  0  0  0  0  0  0  0  0  0  0
    7.7940    0.4995    0.8117 H   0  0  0  0  0  0  0  0  0  0  0  0
    7.0620   -1.0945    1.1162 H   0  0  0  0  0  0  0  0  0  0  0  0
    6.5940   -0.2845   -0.8401 C   0  0  0  0  0  0  0  0  0  0  0  0
    7.4424   -0.8050   -1.3325 H   0  0  0  0  0  0  0  0  0  0  0  0
    6.5175    0.7150   -1.3250 H   0  0  0  0  0  0  0  0  0  0  0  0
    5.2908   -1.0606   -1.0780 C   0  0  0  0  0  0  0  0  0  0  0  0
    5.1171   -1.1753   -2.1671 H   0  0  0  0  0  0  0  0  0  0  0  0
    5.4077   -2.0877   -0.6679 H   0  0  0  0  0  0  0  0  0  0  0  0
  1 21  1  0  0  0  0
  1  2  1  0  0  0  0
  2  3  1  0  0  0  0
  4  5  1  0  0  0  0
  4  2  2  0  0  0  0
  6  4  1  0  0  0  0
  7  6  1  0  0  0  0
  8 10  1  0  0  0  0
  8  6  2  0  0  0  0
  9  8  1  0  0  0  0
 10  1  2  0  0  0  0
 11 10  1  0  0  0  0
 11 20  1  0  0  0  0
 12 11  2  0  0  0  0
 13 12  1  0  0  0  0
 14 12  1  0  0  0  0
 14 16  2  0  0  0  0
 15 14  1  0  0  0  0
 16 18  1  0  0  0  0
 17 16  1  0  0  0  0
 18 20  2  0  0  0  0
 18 19  1  0  0  0  0
 20 21  1  0  0  0  0
 21 22  1  0  0  0  0
 22 24  1  0  0  0  0
 22 25  1  0  0  0  0
 22 23  1  0  0  0  0
 25 27  1  0  0  0  0
 25 26  1  0  0  0  0
 28 25  1  1  0  0  0
 29 30  1  0  0  0  0
 29 28  1  0  0  0  0
 31 29  2  0  0  0  0
 32 31  1  0  0  0  0
 32 33  1  0  0  0  0
 33 34  2  0  0  0  0
 33 28  1  0  0  0  0
 34 35  1  0  0  0  0
 36 37  1  0  0  0  0
 36 34  1  0  0  0  0
 38 36  2  0  0  0  0
 39 38  1  0  0  0  0
 40 38  1  0  0  0  0
 40 32  2  0  0  0  0
 41 40  1  0  0  0  0
 42 51  1  0  0  0  0
 42 43  1  0  0  0  0
 42 31  1  0  0  0  0
 43 45  1  0  0  0  0
 44 43  1  0  0  0  0
 46 43  1  0  0  0  0
 47 42  1  0  0  0  0
 48 47  1  0  0  0  0
 49 47  1  0  0  0  0
 50 47  1  0  0  0  0
 51 53  1  0  0  0  0
 52 51  1  0  0  0  0
 53 56  1  0  0  0  0
 53 54  1  0  0  0  0
 53 55  1  0  0  0  0
 56 58  1  0  0  0  0
 57 56  1  0  0  0  0
 59 60  1  0  0  0  0
 59 61  1  0  0  0  0
 59 56  1  0  0  0  0
 62 59  1  0  0  0  0
 63 62  1  0  0  0  0
 64 62  1  0  0  0  0
 65 62  1  0  0  0  0
 65 67  1  0  0  0  0
 65 51  1  0  0  0  0
 66 65  1  0  0  0  0
M  END
