7,11
 OpenBabel05122313053D

 24 25  0  0  1  0  0  0  0  0999 V2000
    2.2225   -0.6341    0.4464 N   0  0  0  0  0  0  0  0  0  0  0  0
    2.6875    0.3810   -0.5328 C   0  0  1  0  0  0  0  0  0  0  0  0
    2.3280    0.0685   -1.5429 H   0  0  0  0  0  0  0  0  0  0  0  0
    1.9325    1.6659   -0.1104 C   0  0  0  0  0  0  0  0  0  0  0  0
    1.6552    2.2942   -0.9776 H   0  0  0  0  0  0  0  0  0  0  0  0
    2.5707    2.2802    0.5646 H   0  0  0  0  0  0  0  0  0  0  0  0
   -0.4186    1.7671    1.1359 C   0  0  0  0  0  3  0  0  0  0  0  0
   -0.6158    2.8208    0.8919 H   0  0  0  0  0  0  0  0  0  0  0  0
   -1.3537    1.0270    1.9228 C   0  0  0  0  0  3  0  0  0  0  0  0
   -2.2784    1.5007    2.2763 H   0  0  0  0  0  0  0  0  0  0  0  0
   -1.1341   -0.3622    2.1343 C   0  0  0  0  0  3  0  0  0  0  0  0
   -1.8946   -0.9532    2.6640 H   0  0  0  0  0  0  0  0  0  0  0  0
    0.0385   -1.0218    1.6523 C   0  0  0  0  0  0  0  0  0  0  0  0
    0.1658   -2.1007    1.8012 H   0  0  0  0  0  0  0  0  0  0  0  0
    1.0111   -0.2420    0.9662 C   0  0  0  0  0  0  0  0  0  0  0  0
    0.7507    1.1337    0.6552 C   0  0  2  0  0  3  0  0  0  0  0  0
    2.5284   -2.0307    0.2187 C   0  0  0  0  0  0  0  0  0  0  0  0
    3.6093   -2.1473    0.0126 H   0  0  0  0  0  0  0  0  0  0  0  0
    1.9551   -2.4551   -0.6379 H   0  0  0  0  0  0  0  0  0  0  0  0
    2.3031   -2.6223    1.1270 H   0  0  0  0  0  0  0  0  0  0  0  0
    4.2033    0.5326   -0.5625 C   0  0  0  0  0  0  0  0  0  0  0  0
    4.7087   -0.3969   -0.8918 H   0  0  0  0  0  0  0  0  0  0  0  0
    4.5896    0.8049    0.4407 H   0  0  0  0  0  0  0  0  0  0  0  0
    4.4892    1.3297   -1.2771 H   0  0  0  0  0  0  0  0  0  0  0  0
  1 15  1  0  0  0  0
  2  3  1  6  0  0  0
  2  4  1  0  0  0  0
  2  1  1  0  0  0  0
  4  6  1  0  0  0  0
  4 16  1  0  0  0  0
  5  4  1  0  0  0  0
  7  9  1  0  0  0  0
  8  7  1  0  0  0  0
  9 11  1  0  0  0  0
  9 10  1  0  0  0  0
 11 12  1  0  0  0  0
 13 14  1  0  0  0  0
 13 11  1  0  0  0  0
 15 13  2  0  0  0  0
 16 15  1  1  0  0  0
 16  7  1  0  0  0  0
 17  1  1  0  0  0  0
 17 20  1  0  0  0  0
 18 17  1  0  0  0  0
 19 17  1  0  0  0  0
 21  2  1  0  0  0  0
 21 23  1  0  0  0  0
 22 21  1  0  0  0  0
 24 21  1  0  0  0  0
M  END
