7,9
 OpenBabel05122313053D

  9  8  0  0  0  0  0  0  0  0999 V2000
    1.6206   -2.3093    0.3978 F   0  0  0  0  0  0  0  0  0  0  0  0
    1.8199   -1.4038   -1.6042 F   0  0  0  0  0  0  0  0  0  0  0  0
    2.6754   -0.2224    1.5954 F   0  0  0  0  0  0  0  0  0  0  0  0
    3.6904    0.0732   -0.3408 F   0  0  0  0  0  0  0  0  0  0  0  0
    1.5722    2.0994    1.0555 F   0  0  0  0  0  0  0  0  0  0  0  0
    1.7989    1.8299   -1.1219 F   0  0  0  0  0  0  0  0  0  0  0  0
    1.5286   -1.1319   -0.2910 C   0  0  0  0  0  0  0  0  0  0  0  0
    2.4771   -0.0265    0.2616 C   0  0  0  0  0  0  0  0  0  0  0  0
    1.5094    1.1759    0.0504 C   0  0  0  0  0  0  0  0  0  0  0  0
  2  7  1  0  0  0  0
  4  8  1  0  0  0  0
  6  9  1  0  0  0  0
  7  8  1  0  0  0  0
  7  1  1  0  0  0  0
  8  3  1  0  0  0  0
  9  8  1  0  0  0  0
  9  5  1  0  0  0  0
M  END
