5,7
 OpenBabel05122313053D

 26 26  0  0  1  0  0  0  0  0999 V2000
   -1.1702    2.2107    0.5379 O   0  0  0  0  0  0  0  0  0  0  0  0
   -2.7215   -1.5954   -0.0493 O   0  0  0  0  0  0  0  0  0  0  0  0
   -0.5295    1.4401   -0.3742 C   0  0  0  0  0  0  0  0  0  0  0  0
   -1.1496    0.1713   -0.6584 C   0  0  2  0  0  3  0  0  0  0  0  0
   -0.5476   -0.6786   -1.6188 C   0  0  0  0  0  3  0  0  0  0  0  0
    0.6539   -0.3072   -2.2942 C   0  0  0  0  0  3  0  0  0  0  0  0
    1.2738    0.9233   -1.9726 C   0  0  0  0  0  3  0  0  0  0  0  0
    0.6838    1.8087   -1.0159 C   0  0  0  0  0  0  0  0  0  0  0  0
   -0.4601    3.2924    1.1290 C   0  0  0  0  0  0  0  0  0  0  0  0
   -2.4713   -0.2031    0.0072 C   0  0  1  0  0  0  0  0  0  0  0  0
   -3.6317    0.5035   -0.6970 C   0  0  0  0  0  0  0  0  0  0  0  0
   -2.1726   -2.3386    1.0260 C   0  0  0  0  0  0  0  0  0  0  0  0
   -1.0224   -1.6537   -1.7973 H   0  0  0  0  0  0  0  0  0  0  0  0
    1.1283   -0.9999   -3.0017 H   0  0  0  0  0  0  0  0  0  0  0  0
    2.2298    1.1983   -2.4395 H   0  0  0  0  0  0  0  0  0  0  0  0
    1.1888    2.7489   -0.7653 H   0  0  0  0  0  0  0  0  0  0  0  0
   -1.1112    3.6888    1.9288 H   0  0  0  0  0  0  0  0  0  0  0  0
    0.4967    2.9406    1.5710 H   0  0  0  0  0  0  0  0  0  0  0  0
   -0.2567    4.1010    0.3939 H   0  0  0  0  0  0  0  0  0  0  0  0
   -2.4261    0.1402    1.0668 H   0  0  0  0  0  0  0  0  0  0  0  0
   -4.5837    0.2510   -0.1915 H   0  0  0  0  0  0  0  0  0  0  0  0
   -3.4910    1.6011   -0.6762 H   0  0  0  0  0  0  0  0  0  0  0  0
   -3.6954    0.1694   -1.7516 H   0  0  0  0  0  0  0  0  0  0  0  0
   -2.5116   -3.3852    0.9034 H   0  0  0  0  0  0  0  0  0  0  0  0
   -2.5328   -1.9572    2.0102 H   0  0  0  0  0  0  0  0  0  0  0  0
   -1.0616   -2.3206    1.0342 H   0  0  0  0  0  0  0  0  0  0  0  0
  1  9  1  0  0  0  0
  2 10  1  0  0  0  0
  2 12  1  0  0  0  0
  3  1  1  0  0  0  0
  4  3  1  0  0  0  0
  4 10  1  6  0  0  0
  5  4  1  0  0  0  0
  6  7  1  0  0  0  0
  6  5  1  0  0  0  0
  7  8  1  0  0  0  0
  8 16  1  0  0  0  0
  8  3  2  0  0  0  0
  9 18  1  0  0  0  0
  9 17  1  0  0  0  0
 10 20  1  1  0  0  0
 11 22  1  0  0  0  0
 11 21  1  0  0  0  0
 11 10  1  0  0  0  0
 12 26  1  0  0  0  0
 12 25  1  0  0  0  0
 13  5  1  0  0  0  0
 14  6  1  0  0  0  0
 15  7  1  0  0  0  0
 19  9  1  0  0  0  0
 23 11  1  0  0  0  0
 24 12  1  0  0  0  0
M  END
