2,3
 OpenBabel05122313053D

 10 10  0  0  0  0  0  0  0  0999 V2000
   -0.9273    0.1982   -2.6952 O   0  0  0  0  0  0  0  0  0  0  0  0
   -0.7696    0.1224   -1.5155 C   0  0  0  0  0  3  0  0  0  0  0  0
   -0.7204   -0.0129    1.5716 C   0  0  0  0  0  2  0  0  0  0  0  0
   -2.0019   -0.3180    0.9755 C   0  0  0  0  0  0  0  0  0  0  0  0
   -2.0542   -0.3185   -0.5400 C   0  0  0  0  0  0  0  0  0  0  0  0
   -3.2151   -0.7087   -1.1867 C   0  0  0  0  0  3  0  0  0  0  0  0
   -4.1811   -0.9957   -0.3654 C   0  0  0  0  0  3  0  0  0  0  0  0
   -4.2996   -1.0250    0.9591 C   0  0  0  0  0  3  0  0  0  0  0  0
   -3.2088   -0.6961    1.5945 C   0  0  0  0  0  3  0  0  0  0  0  0
   -0.5847   -0.0830    2.6625 H   0  0  0  0  0  0  0  0  0  0  0  0
  1  2  2  0  0  0  0
  2  5  1  0  0  0  0
  3 10  1  0  0  0  0
  4  3  1  0  0  0  0
  4  9  1  0  0  0  0
  5  4  2  0  0  0  0
  6  5  1  0  0  0  0
  6  7  2  0  0  0  0
  7  8  1  0  0  0  0
  8  9  2  0  0  0  0
M  END
