1,4
 OpenBabel05122313053D

 30 31  0  0  0  0  0  0  0  0999 V2000
    0.2655   -1.5549   -1.2446 C   0  0  0  0  0  3  0  0  0  0  0  0
   -0.9350   -0.7917   -0.9208 C   0  0  0  0  0  0  0  0  0  0  0  0
   -0.9166    0.6192   -1.0403 C   0  0  0  0  0  0  0  0  0  0  0  0
    0.3098    1.2994   -1.4603 C   0  0  0  0  0  3  0  0  0  0  0  0
   -2.0743   -1.5278   -0.2957 C   0  0  0  0  0  0  0  0  0  0  0  0
   -2.7074   -1.1095    0.8958 C   0  0  0  0  0  0  0  0  0  0  0  0
   -3.7752   -1.8423    1.4301 C   0  0  0  0  0  0  0  0  0  0  0  0
   -4.2393   -3.0002    0.7851 C   0  0  0  0  0  0  0  0  0  0  0  0
   -3.6149   -3.4307   -0.3961 C   0  0  0  0  0  0  0  0  0  0  0  0
   -2.5368   -2.7065   -0.9240 C   0  0  0  0  0  0  0  0  0  0  0  0
   -2.0727    1.4668   -0.6309 C   0  0  0  0  0  0  0  0  0  0  0  0
   -1.9090    2.5553    0.2531 C   0  0  0  0  0  0  0  0  0  0  0  0
   -2.9978    3.3718    0.5892 C   0  0  0  0  0  0  0  0  0  0  0  0
   -4.2656    3.1247    0.0386 C   0  0  0  0  0  0  0  0  0  0  0  0
   -4.4361    2.0522   -0.8513 C   0  0  0  0  0  0  0  0  0  0  0  0
   -3.3509    1.2296   -1.1817 C   0  0  0  0  0  0  0  0  0  0  0  0
    0.2531   -2.6268   -0.9934 H   0  0  0  0  0  0  0  0  0  0  0  0
    0.7693   -1.3446   -2.2072 H   0  0  0  0  0  0  0  0  0  0  0  0
    0.2888    2.4003   -1.4506 H   0  0  0  0  0  0  0  0  0  0  0  0
    0.8128    0.9049   -2.3648 H   0  0  0  0  0  0  0  0  0  0  0  0
   -2.3365   -0.2169    1.4158 H   0  0  0  0  0  0  0  0  0  0  0  0
   -4.2478   -1.5051    2.3653 H   0  0  0  0  0  0  0  0  0  0  0  0
   -5.0822   -3.5697    1.2058 H   0  0  0  0  0  0  0  0  0  0  0  0
   -3.9686   -4.3375   -0.9105 H   0  0  0  0  0  0  0  0  0  0  0  0
   -2.0493   -3.0441   -1.8515 H   0  0  0  0  0  0  0  0  0  0  0  0
   -0.9252    2.7328    0.7118 H   0  0  0  0  0  0  0  0  0  0  0  0
   -2.8551    4.2054    1.2940 H   0  0  0  0  0  0  0  0  0  0  0  0
   -5.1193    3.7673    0.3026 H   0  0  0  0  0  0  0  0  0  0  0  0
   -5.4244    1.8527   -1.2932 H   0  0  0  0  0  0  0  0  0  0  0  0
   -3.4878    0.3882   -1.8767 H   0  0  0  0  0  0  0  0  0  0  0  0
  1 17  1  0  0  0  0
  1  2  1  0  0  0  0
  2  5  1  0  0  0  0
  3  2  2  0  0  0  0
  3 11  1  0  0  0  0
  4 19  1  0  0  0  0
  4  3  1  0  0  0  0
  5  6  1  0  0  0  0
  6 21  1  0  0  0  0
  6  7  2  0  0  0  0
  7 22  1  0  0  0  0
  8 23  1  0  0  0  0
  8  7  1  0  0  0  0
  9  8  2  0  0  0  0
 10  9  1  0  0  0  0
 10  5  2  0  0  0  0
 11 12  1  0  0  0  0
 12 13  2  0  0  0  0
 12 26  1  0  0  0  0
 13 27  1  0  0  0  0
 14 28  1  0  0  0  0
 14 13  1  0  0  0  0
 15 14  2  0  0  0  0
 16 15  1  0  0  0  0
 16 11  2  0  0  0  0
 18  1  1  0  0  0  0
 20  4  1  0  0  0  0
 24  9  1  0  0  0  0
 25 10  1  0  0  0  0
 29 15  1  0  0  0  0
 30 16  1  0  0  0  0
M  END
