4,6
 OpenBabel05122313053D

 64 67  0  0  1  0  0  0  0  0999 V2000
    0.7533    0.2950    0.1496 P   0  0  0  0  0  0  0  0  0  0  0  0
   -3.0412    0.0675    1.2696 N   0  0  0  0  0  0  0  0  0  0  0  0
   -2.5696   -0.8425    0.3051 C   0  0  0  0  0  0  0  0  0  0  0  0
   -1.3965   -1.6694    0.5747 C   0  0  1  0  0  3  0  0  0  0  0  0
   -0.9478   -2.6531   -0.3857 C   0  0  0  0  0  3  0  0  0  0  0  0
   -1.5293   -2.6740   -1.6881 C   0  0  0  0  0  3  0  0  0  0  0  0
   -2.6298   -1.8290   -2.0169 C   0  0  0  0  0  3  0  0  0  0  0  0
   -3.1084   -0.9165   -1.0275 C   0  0  0  0  0  0  0  0  0  0  0  0
   -0.5865   -1.4680    1.8196 C   0  0  0  0  0  0  0  0  0  0  0  0
    0.4256   -0.4815    1.7977 C   0  0  0  0  0  0  0  0  0  0  0  0
    1.1598   -0.2176    2.9706 C   0  0  0  0  0  0  0  0  0  0  0  0
    0.9304   -0.9675    4.1339 C   0  0  0  0  0  0  0  0  0  0  0  0
   -0.0237   -1.9976    4.1297 C   0  0  0  0  0  0  0  0  0  0  0  0
   -0.7830   -2.2447    2.9764 C   0  0  0  0  0  0  0  0  0  0  0  0
   -3.6688   -0.5029    2.4529 C   0  0  0  0  0  0  0  0  0  0  0  0
   -3.7326    1.2465    0.7724 C   0  0  0  0  0  0  0  0  0  0  0  0
    2.4893   -0.2483   -0.2959 C   0  0  0  0  0  0  0  0  0  0  0  0
    2.5911   -1.7826   -0.3411 C   0  0  0  0  0  0  0  0  0  0  0  0
    3.9618   -2.2260   -0.8689 C   0  0  0  0  0  0  0  0  0  0  0  0
    5.1124   -1.6150   -0.0614 C   0  0  0  0  0  0  0  0  0  0  0  0
    4.9947   -0.0877   -0.0041 C   0  0  0  0  0  0  0  0  0  0  0  0
    3.6277    0.3547    0.5430 C   0  0  0  0  0  0  0  0  0  0  0  0
   -0.4414    2.6577    1.0631 C   0  0  0  0  0  0  0  0  0  0  0  0
    1.4018    2.9168   -0.6801 C   0  0  0  0  0  0  0  0  0  0  0  0
    1.4904    4.4111   -0.3392 C   0  0  0  0  0  0  0  0  0  0  0  0
    0.1511    4.9522    0.1768 C   0  0  0  0  0  0  0  0  0  0  0  0
   -0.3350    4.1517    1.3917 C   0  0  0  0  0  0  0  0  0  0  0  0
    0.8937    2.1108    0.5303 C   0  0  0  0  0  0  0  0  0  0  0  0
   -0.0753   -3.2777   -0.1513 H   0  0  0  0  0  0  0  0  0  0  0  0
   -1.0619   -3.2893   -2.4708 H   0  0  0  0  0  0  0  0  0  0  0  0
   -3.0258   -1.7954   -3.0403 H   0  0  0  0  0  0  0  0  0  0  0  0
   -3.8749   -0.1873   -1.3230 H   0  0  0  0  0  0  0  0  0  0  0  0
    1.9212    0.5759    2.9784 H   0  0  0  0  0  0  0  0  0  0  0  0
    1.5111   -0.7566    5.0445 H   0  0  0  0  0  0  0  0  0  0  0  0
   -0.1838   -2.6065    5.0321 H   0  0  0  0  0  0  0  0  0  0  0  0
   -1.5370   -3.0471    2.9715 H   0  0  0  0  0  0  0  0  0  0  0  0
   -4.7084   -0.8666    2.2525 H   0  0  0  0  0  0  0  0  0  0  0  0
   -3.0761   -1.3459    2.8484 H   0  0  0  0  0  0  0  0  0  0  0  0
   -3.7253    0.2691    3.2473 H   0  0  0  0  0  0  0  0  0  0  0  0
   -4.7996    1.0461    0.4991 H   0  0  0  0  0  0  0  0  0  0  0  0
   -3.7324    2.0236    1.5640 H   0  0  0  0  0  0  0  0  0  0  0  0
   -3.2030    1.6467   -0.1148 H   0  0  0  0  0  0  0  0  0  0  0  0
    2.5655    0.1124   -1.3471 H   0  0  0  0  0  0  0  0  0  0  0  0
    2.4280   -2.1943    0.6810 H   0  0  0  0  0  0  0  0  0  0  0  0
    1.7934   -2.1710   -1.0036 H   0  0  0  0  0  0  0  0  0  0  0  0
    4.0270   -3.3345   -0.8643 H   0  0  0  0  0  0  0  0  0  0  0  0
    4.0442   -1.9118   -1.9329 H   0  0  0  0  0  0  0  0  0  0  0  0
    5.0887   -2.0203    0.9758 H   0  0  0  0  0  0  0  0  0  0  0  0
    6.0923   -1.9120   -0.4907 H   0  0  0  0  0  0  0  0  0  0  0  0
    5.8062    0.3456    0.6179 H   0  0  0  0  0  0  0  0  0  0  0  0
    5.1246    0.3301   -1.0274 H   0  0  0  0  0  0  0  0  0  0  0  0
    3.5735    1.4619    0.5598 H   0  0  0  0  0  0  0  0  0  0  0  0
    3.5374    0.0091    1.5961 H   0  0  0  0  0  0  0  0  0  0  0  0
   -0.7710    2.0760    1.9492 H   0  0  0  0  0  0  0  0  0  0  0  0
   -1.2025    2.5036    0.2724 H   0  0  0  0  0  0  0  0  0  0  0  0
    0.6980    2.7579   -1.5236 H   0  0  0  0  0  0  0  0  0  0  0  0
    2.3917    2.5423   -1.0133 H   0  0  0  0  0  0  0  0  0  0  0  0
    2.2727    4.5697    0.4387 H   0  0  0  0  0  0  0  0  0  0  0  0
    1.8207    4.9781   -1.2345 H   0  0  0  0  0  0  0  0  0  0  0  0
    0.2388    6.0300    0.4293 H   0  0  0  0  0  0  0  0  0  0  0  0
   -0.6064    4.8731   -0.6339 H   0  0  0  0  0  0  0  0  0  0  0  0
   -1.3197    4.5297    1.7396 H   0  0  0  0  0  0  0  0  0  0  0  0
    0.3741    4.3000    2.2386 H   0  0  0  0  0  0  0  0  0  0  0  0
    1.6528    2.1760    1.3453 H   0  0  0  0  0  0  0  0  0  0  0  0
  1 28  1  0  0  0  0
  1 10  1  0  0  0  0
  2 15  1  0  0  0  0
  3  4  1  0  0  0  0
  3  2  1  0  0  0  0
  4  9  1  6  0  0  0
  5 29  1  0  0  0  0
  5  4  1  0  0  0  0
  6  5  1  0  0  0  0
  7  6  1  0  0  0  0
  7  8  1  0  0  0  0
  8  3  2  0  0  0  0
  9 14  1  0  0  0  0
 10  9  2  0  0  0  0
 10 11  1  0  0  0  0
 11 33  1  0  0  0  0
 11 12  2  0  0  0  0
 12 34  1  0  0  0  0
 13 12  1  0  0  0  0
 13 35  1  0  0  0  0
 14 13  2  0  0  0  0
 15 38  1  0  0  0  0
 15 39  1  0  0  0  0
 16  2  1  0  0  0  0
 16 41  1  0  0  0  0
 17  1  1  0  0  0  0
 17 22  1  0  0  0  0
 18 17  1  0  0  0  0
 18 44  1  0  0  0  0
 19 46  1  0  0  0  0
 19 18  1  0  0  0  0
 19 20  1  0  0  0  0
 20 21  1  0  0  0  0
 20 48  1  0  0  0  0
 21 22  1  0  0  0  0
 21 50  1  0  0  0  0
 22 52  1  0  0  0  0
 22 53  1  0  0  0  0
 23 27  1  0  0  0  0
 23 54  1  0  0  0  0
 24 25  1  0  0  0  0
 24 28  1  0  0  0  0
 25 26  1  0  0  0  0
 25 58  1  0  0  0  0
 26 60  1  0  0  0  0
 26 27  1  0  0  0  0
 27 62  1  0  0  0  0
 27 63  1  0  0  0  0
 28 23  1  0  0  0  0
 28 64  1  0  0  0  0
 30  6  1  0  0  0  0
 31  7  1  0  0  0  0
 32  8  1  0  0  0  0
 36 14  1  0  0  0  0
 37 15  1  0  0  0  0
 40 16  1  0  0  0  0
 42 16  1  0  0  0  0
 43 17  1  0  0  0  0
 45 18  1  0  0  0  0
 47 19  1  0  0  0  0
 49 20  1  0  0  0  0
 51 21  1  0  0  0  0
 55 23  1  0  0  0  0
 56 24  1  0  0  0  0
 57 24  1  0  0  0  0
 59 25  1  0  0  0  0
 61 26  1  0  0  0  0
M  END
