1,12
 OpenBabel05122313053D

 23 23  0  0  0  0  0  0  0  0999 V2000
    0.9356   -2.4064   -0.5549 C   0  0  0  0  0  3  0  0  0  0  0  0
    1.7820   -2.5690    0.1373 H   0  0  0  0  0  0  0  0  0  0  0  0
    0.1776   -3.6056   -0.6213 O   0  0  0  0  0  0  0  0  0  0  0  0
   -1.8712   -4.4075   -1.5422 C   0  0  0  0  0  0  0  0  0  0  0  0
   -1.4086   -5.3960   -1.6768 H   0  0  0  0  0  0  0  0  0  0  0  0
   -3.1872   -4.1479   -1.9502 C   0  0  0  0  0  0  0  0  0  0  0  0
   -3.7919   -4.9586   -2.3859 H   0  0  0  0  0  0  0  0  0  0  0  0
   -3.7193   -2.8547   -1.8317 C   0  0  0  0  0  0  0  0  0  0  0  0
   -4.7460   -2.6414   -2.1670 H   0  0  0  0  0  0  0  0  0  0  0  0
   -2.9404   -1.8256   -1.2674 C   0  0  0  0  0  0  0  0  0  0  0  0
   -3.3952   -0.8279   -1.1820 H   0  0  0  0  0  0  0  0  0  0  0  0
   -1.6362   -2.0587   -0.7917 C   0  0  0  0  0  3  0  0  0  0  0  0
   -1.1080   -3.3644   -0.9901 C   0  0  0  0  0  0  0  0  0  0  0  0
    1.4017   -2.0011   -1.9248 C   0  0  0  0  0  0  0  0  0  0  0  0
    0.8997   -2.3363   -2.9827 O   0  0  0  0  0  0  0  0  0  0  0  0
    2.4932   -1.1638   -1.8566 O   0  0  0  0  0  0  0  0  0  0  0  0
    2.9664   -0.6638   -3.1191 C   0  0  0  0  0  0  0  0  0  0  0  0
    2.2790    0.1382   -3.4684 H   0  0  0  0  0  0  0  0  0  0  0  0
    2.9156   -1.4798   -3.8688 H   0  0  0  0  0  0  0  0  0  0  0  0
    4.3758   -0.1371   -2.9351 C   0  0  0  0  0  0  0  0  0  0  0  0
    4.7676    0.2410   -3.9006 H   0  0  0  0  0  0  0  0  0  0  0  0
    5.0537   -0.9396   -2.5804 H   0  0  0  0  0  0  0  0  0  0  0  0
    4.4044    0.6978   -2.2080 H   0  0  0  0  0  0  0  0  0  0  0  0
  1  2  1  0  0  0  0
  3  1  1  0  0  0  0
  4 13  1  0  0  0  0
  5  4  1  0  0  0  0
  6  8  1  0  0  0  0
  6  4  2  0  0  0  0
  7  6  1  0  0  0  0
  8 10  2  0  0  0  0
  9  8  1  0  0  0  0
 10 11  1  0  0  0  0
 10 12  1  0  0  0  0
 13 12  2  0  0  0  0
 13  3  1  0  0  0  0
 14 16  1  0  0  0  0
 14  1  1  0  0  0  0
 15 14  2  0  0  0  0
 17 20  1  0  0  0  0
 17 16  1  0  0  0  0
 18 17  1  0  0  0  0
 19 17  1  0  0  0  0
 20 22  1  0  0  0  0
 20 23  1  0  0  0  0
 21 20  1  0  0  0  0
M  END
