7,10
 OpenBabel05122313053D

 24 25  0  0  1  0  0  0  0  0999 V2000
    2.0588    1.6966   -1.5419 O   0  0  0  0  0  0  0  0  0  0  0  0
    2.5006   -1.4904   -0.9576 O   0  0  0  0  0  0  0  0  0  0  0  0
    1.7665   -1.5475   -1.5988 H   0  0  0  0  0  0  0  0  0  0  0  0
   -0.9549    2.8019    0.6739 O   0  0  0  0  0  0  0  0  0  0  0  0
    1.7127    0.9597   -0.6511 C   0  0  0  0  0  0  0  0  0  0  0  0
    2.2678   -0.4440   -0.0820 C   0  0  1  0  0  0  0  0  0  0  0  0
    0.9848   -0.4076    0.7902 C   0  0  1  0  0  3  0  0  0  0  0  0
    0.2630   -1.1593    1.7364 C   0  0  0  0  0  3  0  0  0  0  0  0
    0.5353   -2.1854    2.0144 H   0  0  0  0  0  0  0  0  0  0  0  0
   -0.9185   -0.5331    2.2434 C   0  0  0  0  0  3  0  0  0  0  0  0
   -1.5721   -1.0899    2.9304 H   0  0  0  0  0  0  0  0  0  0  0  0
   -1.2997    0.7946    1.8804 C   0  0  0  0  0  0  0  0  0  0  0  0
   -2.2242    1.2364    2.2745 H   0  0  0  0  0  0  0  0  0  0  0  0
   -0.5287    1.5672    0.9527 C   0  0  0  0  0  0  0  0  0  0  0  0
    0.6177    0.9228    0.3850 C   0  0  2  0  0  3  0  0  0  0  0  0
   -0.3036    3.4967   -0.4001 C   0  0  0  0  0  0  0  0  0  0  0  0
   -0.7854    4.4884   -0.4564 H   0  0  0  0  0  0  0  0  0  0  0  0
   -0.4398    2.9550   -1.3568 H   0  0  0  0  0  0  0  0  0  0  0  0
    0.7814    3.6096   -0.2046 H   0  0  0  0  0  0  0  0  0  0  0  0
    3.4892   -0.1988    0.7668 C   0  0  0  0  0  0  0  0  0  0  0  0
    3.3684    0.5578    1.5602 H   0  0  0  0  0  0  0  0  0  0  0  0
    4.6582   -0.8341    0.5847 C   0  0  0  0  0  0  0  0  0  0  0  0
    4.7668   -1.5861   -0.2108 H   0  0  0  0  0  0  0  0  0  0  0  0
    5.5270   -0.6170    1.2241 H   0  0  0  0  0  0  0  0  0  0  0  0
  1  5  2  0  0  0  0
  3  2  1  0  0  0  0
  4 14  1  0  0  0  0
  5  6  1  0  0  0  0
  6  2  1  6  0  0  0
  6 20  1  0  0  0  0
  6  7  1  0  0  0  0
  7  8  1  1  0  0  0
  8  9  1  0  0  0  0
  8 10  1  0  0  0  0
 10 11  1  0  0  0  0
 12 10  1  0  0  0  0
 12 13  1  0  0  0  0
 14 12  2  0  0  0  0
 15  5  1  6  0  0  0
 15  7  1  0  0  0  0
 15 14  1  0  0  0  0
 16 19  1  0  0  0  0
 16  4  1  0  0  0  0
 17 16  1  0  0  0  0
 18 16  1  0  0  0  0
 20 21  1  0  0  0  0
 22 20  2  0  0  0  0
 22 24  1  0  0  0  0
 23 22  1  0  0  0  0
M  END
