2,4
 OpenBabel05122313053D

 21 21  0  0  1  0  0  0  0  0999 V2000
   -3.6692    0.1439    0.3961 C   0  0  2  0  0  3  0  0  0  0  0  0
   -3.0472    1.4243    0.1251 C   0  0  0  0  0  3  0  0  0  0  0  0
   -2.0743    1.9979    0.9846 C   0  0  0  0  0  3  0  0  0  0  0  0
   -1.5901    1.1993    2.0700 C   0  0  0  0  0  3  0  0  0  0  0  0
   -2.1740   -0.0726    2.3539 C   0  0  0  0  0  0  0  0  0  0  0  0
   -3.2181   -0.6205    1.5325 C   0  0  0  0  0  0  0  0  0  0  0  0
   -3.7253   -1.9971    1.8399 C   0  0  0  0  0  0  0  0  0  0  0  0
   -5.1798   -1.5136   -0.5079 O   0  0  0  0  0  0  0  0  0  0  0  0
   -4.8486    0.4362   -1.6152 O   0  0  0  0  0  0  0  0  0  0  0  0
   -4.6353   -0.4247   -0.5878 C   0  0  0  0  0  0  0  0  0  0  0  0
   -5.6828   -0.0643   -2.6637 C   0  0  0  0  0  0  0  0  0  0  0  0
   -3.3216    1.9367   -0.8057 H   0  0  0  0  0  0  0  0  0  0  0  0
   -1.6097    2.9629    0.7416 H   0  0  0  0  0  0  0  0  0  0  0  0
   -0.7563    1.5612    2.6899 H   0  0  0  0  0  0  0  0  0  0  0  0
   -1.7839   -0.6766    3.1848 H   0  0  0  0  0  0  0  0  0  0  0  0
   -4.8279   -1.9975    1.9239 H   0  0  0  0  0  0  0  0  0  0  0  0
   -3.2699   -2.3770    2.7733 H   0  0  0  0  0  0  0  0  0  0  0  0
   -3.4671   -2.6860    1.0116 H   0  0  0  0  0  0  0  0  0  0  0  0
   -5.7658    0.7516   -3.4032 H   0  0  0  0  0  0  0  0  0  0  0  0
   -6.6828   -0.3437   -2.2752 H   0  0  0  0  0  0  0  0  0  0  0  0
   -5.2259   -0.9605   -3.1293 H   0  0  0  0  0  0  0  0  0  0  0  0
  1 10  1  6  0  0  0
  1  6  1  0  0  0  0
  2  1  1  0  0  0  0
  2  3  1  0  0  0  0
  3  4  1  0  0  0  0
  4  5  1  0  0  0  0
  4 14  1  0  0  0  0
  5 15  1  0  0  0  0
  6  7  1  0  0  0  0
  6  5  2  0  0  0  0
  7 16  1  0  0  0  0
  7 17  1  0  0  0  0
  9 10  1  0  0  0  0
 10  8  2  0  0  0  0
 11 20  1  0  0  0  0
 11  9  1  0  0  0  0
 12  2  1  0  0  0  0
 13  3  1  0  0  0  0
 18  7  1  0  0  0  0
 19 11  1  0  0  0  0
 21 11  1  0  0  0  0
M  END
