9,11
 OpenBabel05122313053D

 27 28  0  0  1  0  0  0  0  0999 V2000
   -1.3496   -3.1353    1.5902 Si  0  0  0  0  0  0  0  0  0  0  0  0
   -0.5966   -1.5447    2.2688 C   0  0  1  0  0  3  0  0  0  0  0  0
    0.7806   -1.1450    2.3811 C   0  0  0  0  0  3  0  0  0  0  0  0
    1.6489   -1.8148    2.3658 H   0  0  0  0  0  0  0  0  0  0  0  0
    0.8276    0.2894    2.5438 C   0  0  0  0  0  0  0  0  0  0  0  0
    1.7343    0.8955    2.6614 H   0  0  0  0  0  0  0  0  0  0  0  0
   -0.5136    0.7757    2.5353 C   0  0  0  0  0  0  0  0  0  0  0  0
   -0.8238    1.8198    2.6630 H   0  0  0  0  0  0  0  0  0  0  0  0
   -1.3958   -0.3481    2.3652 C   0  0  0  0  0  3  0  0  0  0  0  0
   -2.4910   -0.2958    2.3127 H   0  0  0  0  0  0  0  0  0  0  0  0
   -0.8904   -1.5966   -0.4748 C   0  0  0  0  0  3  0  0  0  0  0  0
   -2.1090   -2.3750   -0.0024 C   0  0  1  0  0  0  0  0  0  0  0  0
   -2.4339   -3.3640   -1.0626 C   0  0  0  0  0  0  0  0  0  0  0  0
   -1.4639   -3.2634   -2.0307 C   0  0  0  0  0  0  0  0  0  0  0  0
   -0.5290   -2.2062   -1.6733 C   0  0  0  0  0  0  0  0  0  0  0  0
   -2.6865   -3.8027    2.7507 C   0  0  0  0  0  0  0  0  0  0  0  0
   -2.2415   -4.1805    3.6944 H   0  0  0  0  0  0  0  0  0  0  0  0
   -3.2376   -4.6392    2.2735 H   0  0  0  0  0  0  0  0  0  0  0  0
   -3.4191   -3.0122    3.0116 H   0  0  0  0  0  0  0  0  0  0  0  0
   -0.0755   -4.4704    1.1920 C   0  0  0  0  0  0  0  0  0  0  0  0
    0.8366   -4.3715    1.8149 H   0  0  0  0  0  0  0  0  0  0  0  0
    0.2119   -4.3987    0.1239 H   0  0  0  0  0  0  0  0  0  0  0  0
   -0.4999   -5.4788    1.3678 H   0  0  0  0  0  0  0  0  0  0  0  0
   -2.9550   -1.7612    0.3711 H   0  0  0  0  0  0  0  0  0  0  0  0
   -3.2834   -4.0605   -1.0428 H   0  0  0  0  0  0  0  0  0  0  0  0
   -1.3857   -3.8866   -2.9348 H   0  0  0  0  0  0  0  0  0  0  0  0
    0.3530   -1.9659   -2.2853 H   0  0  0  0  0  0  0  0  0  0  0  0
  1 16  1  0  0  0  0
  2  1  1  6  0  0  0
  2  9  1  0  0  0  0
  2  3  1  0  0  0  0
  3  5  1  0  0  0  0
  4  3  1  0  0  0  0
  5  6  1  0  0  0  0
  7  5  2  0  0  0  0
  7  8  1  0  0  0  0
  9  7  1  0  0  0  0
 10  9  1  0  0  0  0
 11 12  1  0  0  0  0
 12 24  1  1  0  0  0
 12  1  1  0  0  0  0
 13 25  1  0  0  0  0
 13 12  1  0  0  0  0
 14 15  1  0  0  0  0
 14 13  2  0  0  0  0
 15 11  2  0  0  0  0
 16 19  1  0  0  0  0
 16 17  1  0  0  0  0
 18 16  1  0  0  0  0
 20 23  1  0  0  0  0
 20  1  1  0  0  0  0
 20 21  1  0  0  0  0
 22 20  1  0  0  0  0
 26 14  1  0  0  0  0
 27 15  1  0  0  0  0
M  END
