1,3
 OpenBabel05122313053D

 21 20  0  0  0  0  0  0  0  0999 V2000
    0.2867    2.1123   -1.1542 C   0  0  0  0  0  3  0  0  0  0  0  0
    0.6398    2.9136    0.1012 C   0  0  0  0  0  0  0  0  0  0  0  0
   -0.3305    2.1906    1.0418 C   0  0  0  0  0  3  0  0  0  0  0  0
    0.6080    4.4716    0.0369 C   0  0  0  0  0  0  0  0  0  0  0  0
    0.9756    5.0224    1.4256 C   0  0  0  0  0  0  0  0  0  0  0  0
    1.6528    4.9346   -0.9936 C   0  0  0  0  0  0  0  0  0  0  0  0
   -0.7771    5.0008   -0.3698 C   0  0  0  0  0  0  0  0  0  0  0  0
    1.0609    1.9775   -1.9385 H   0  0  0  0  0  0  0  0  0  0  0  0
   -0.6425    2.4855   -1.6398 H   0  0  0  0  0  0  0  0  0  0  0  0
    1.6740    2.6358    0.4026 H   0  0  0  0  0  0  0  0  0  0  0  0
   -1.3566    2.6108    0.9673 H   0  0  0  0  0  0  0  0  0  0  0  0
   -0.0534    2.0964    2.1124 H   0  0  0  0  0  0  0  0  0  0  0  0
    1.0020    6.1321    1.4243 H   0  0  0  0  0  0  0  0  0  0  0  0
    0.2398    4.7023    2.1915 H   0  0  0  0  0  0  0  0  0  0  0  0
    1.9749    4.6598    1.7462 H   0  0  0  0  0  0  0  0  0  0  0  0
    1.6996    6.0422   -1.0490 H   0  0  0  0  0  0  0  0  0  0  0  0
    2.6656    4.5653   -0.7271 H   0  0  0  0  0  0  0  0  0  0  0  0
    1.4117    4.5551   -2.0076 H   0  0  0  0  0  0  0  0  0  0  0  0
   -0.7744    6.1097   -0.4091 H   0  0  0  0  0  0  0  0  0  0  0  0
   -1.0786    4.6345   -1.3723 H   0  0  0  0  0  0  0  0  0  0  0  0
   -1.5614    4.6979    0.3538 H   0  0  0  0  0  0  0  0  0  0  0  0
  1  2  1  0  0  0  0
  2 10  1  0  0  0  0
  2  3  1  0  0  0  0
  3 12  1  0  0  0  0
  4  2  1  0  0  0  0
  4  5  1  0  0  0  0
  5 15  1  0  0  0  0
  5 14  1  0  0  0  0
  6 17  1  0  0  0  0
  6  4  1  0  0  0  0
  7  4  1  0  0  0  0
  7 21  1  0  0  0  0
  8  1  1  0  0  0  0
  9  1  1  0  0  0  0
 11  3  1  0  0  0  0
 13  5  1  0  0  0  0
 16  6  1  0  0  0  0
 18  6  1  0  0  0  0
 19  7  1  0  0  0  0
 20  7  1  0  0  0  0
M  END
