1,4
 OpenBabel05122313053D

 16 15  0  0  1  0  0  0  0  0999 V2000
   -3.5653   -0.4974   -0.4891 C   0  0  0  0  0  3  0  0  0  0  0  0
   -3.5286   -2.0339   -0.5286 C   0  0  1  0  0  0  0  0  0  0  0  0
   -2.0799   -2.3637   -0.1731 C   0  0  0  0  0  3  0  0  0  0  0  0
   -1.4605   -1.9758    1.0430 C   0  0  0  0  0  3  0  0  0  0  0  0
   -1.8984   -0.8679    1.8308 C   0  0  0  0  0  3  0  0  0  0  0  0
   -4.5686   -2.7694    0.3267 C   0  0  0  0  0  0  0  0  0  0  0  0
   -4.1451   -0.1002    0.3717 H   0  0  0  0  0  0  0  0  0  0  0  0
   -3.9879   -0.0657   -1.4169 H   0  0  0  0  0  0  0  0  0  0  0  0
   -3.6659   -2.3519   -1.5844 H   0  0  0  0  0  0  0  0  0  0  0  0
   -1.5860   -3.1753   -0.7341 H   0  0  0  0  0  0  0  0  0  0  0  0
   -0.4818   -2.4328    1.2769 H   0  0  0  0  0  0  0  0  0  0  0  0
   -2.9717   -0.6743    1.9712 H   0  0  0  0  0  0  0  0  0  0  0  0
   -1.2622   -0.5817    2.6825 H   0  0  0  0  0  0  0  0  0  0  0  0
   -4.4607   -2.5051    1.3986 H   0  0  0  0  0  0  0  0  0  0  0  0
   -5.5988   -2.4991    0.0134 H   0  0  0  0  0  0  0  0  0  0  0  0
   -4.4624   -3.8716    0.2406 H   0  0  0  0  0  0  0  0  0  0  0  0
  1  7  1  0  0  0  0
  2  9  1  6  0  0  0
  2  1  1  0  0  0  0
  2  3  1  0  0  0  0
  2  6  1  0  0  0  0
  3  4  1  0  0  0  0
  4 11  1  0  0  0  0
  4  5  1  0  0  0  0
  5 12  1  0  0  0  0
  5 13  1  0  0  0  0
  6 14  1  0  0  0  0
  8  1  1  0  0  0  0
 10  3  1  0  0  0  0
 15  6  1  0  0  0  0
 16  6  1  0  0  0  0
M  END
