9,24
 OpenBabel05122313053D

 50 51  0  0  1  0  0  0  0  0999 V2000
    2.5984   -0.4640    0.0072 N   0  0  2  0  0  0  0  0  0  0  0  0
    2.9415   -0.9726    1.3438 C   0  0  0  0  0  0  0  0  0  0  0  0
    2.9266   -0.1163    2.0463 H   0  0  0  0  0  0  0  0  0  0  0  0
    3.9814   -1.3819    1.3583 H   0  0  0  0  0  0  0  0  0  0  0  0
    1.9851   -2.0516    1.8803 C   0  0  0  0  0  0  0  0  0  0  0  0
    2.0415   -2.9696    1.2558 H   0  0  0  0  0  0  0  0  0  0  0  0
    2.3489   -2.3575    2.8848 H   0  0  0  0  0  0  0  0  0  0  0  0
    0.5855   -1.6410    1.9868 C   0  0  0  0  0  2  0  0  0  0  0  0
   -0.6086   -1.3749    2.1376 C   0  0  0  0  0  2  0  0  0  0  0  0
   -2.0485   -1.2075    2.3347 C   0  0  0  0  0  0  0  0  0  0  0  0
   -2.2630   -0.1992    2.7495 H   0  0  0  0  0  0  0  0  0  0  0  0
   -2.3897   -1.9284    3.1086 H   0  0  0  0  0  0  0  0  0  0  0  0
   -2.8635   -1.4529    1.0501 C   0  0  0  0  0  0  0  0  0  0  0  0
   -2.6042   -2.4581    0.6665 H   0  0  0  0  0  0  0  0  0  0  0  0
   -3.9499   -1.4774    1.3073 H   0  0  0  0  0  0  0  0  0  0  0  0
   -2.5984   -0.4641   -0.0071 N   0  0  1  0  0  0  0  0  0  0  0  0
   -2.9416   -0.9727   -1.3438 C   0  0  0  0  0  0  0  0  0  0  0  0
   -2.9268   -0.1164   -2.0462 H   0  0  0  0  0  0  0  0  0  0  0  0
   -3.9814   -1.3821   -1.3583 H   0  0  0  0  0  0  0  0  0  0  0  0
   -1.9851   -2.0516   -1.8804 C   0  0  0  0  0  0  0  0  0  0  0  0
   -2.0414   -2.9697   -1.2560 H   0  0  0  0  0  0  0  0  0  0  0  0
   -2.3488   -2.3574   -2.8849 H   0  0  0  0  0  0  0  0  0  0  0  0
   -0.5855   -1.6409   -1.9867 C   0  0  0  0  0  2  0  0  0  0  0  0
    0.6087   -1.3748   -2.1374 C   0  0  0  0  0  2  0  0  0  0  0  0
    2.0485   -1.2074   -2.3346 C   0  0  0  0  0  0  0  0  0  0  0  0
    2.2630   -0.1991   -2.7495 H   0  0  0  0  0  0  0  0  0  0  0  0
    2.3896   -1.9283   -3.1086 H   0  0  0  0  0  0  0  0  0  0  0  0
    2.8636   -1.4527   -1.0501 C   0  0  0  0  0  0  0  0  0  0  0  0
    2.6044   -2.4579   -0.6665 H   0  0  0  0  0  0  0  0  0  0  0  0
    3.9500   -1.4771   -1.3073 H   0  0  0  0  0  0  0  0  0  0  0  0
    3.3049    0.7991   -0.2692 C   0  0  0  0  0  0  0  0  0  0  0  0
    3.2976    0.9714   -1.3632 H   0  0  0  0  0  0  0  0  0  0  0  0
    4.3773    0.7362    0.0382 H   0  0  0  0  0  0  0  0  0  0  0  0
    2.6699    2.0163    0.3801 C   0  0  0  0  0  0  0  0  0  0  0  0
    2.6109    1.9157    1.4909 H   0  0  0  0  0  0  0  0  0  0  0  0
    3.3058    2.9076    0.1679 H   0  0  0  0  0  0  0  0  0  0  0  0
    1.3750    2.1871   -0.1697 O   0  0  0  0  0  0  0  0  0  0  0  0
    0.6931    3.3396    0.3006 C   0  0  0  0  0  0  0  0  0  0  0  0
    1.2311    4.2689   -0.0003 H   0  0  0  0  0  0  0  0  0  0  0  0
    0.6252    3.3268    1.4145 H   0  0  0  0  0  0  0  0  0  0  0  0
   -0.6934    3.3396   -0.3005 C   0  0  0  0  0  0  0  0  0  0  0  0
   -1.2315    4.2688    0.0006 H   0  0  0  0  0  0  0  0  0  0  0  0
   -0.6255    3.3269   -1.4143 H   0  0  0  0  0  0  0  0  0  0  0  0
   -1.3752    2.1870    0.1697 O   0  0  0  0  0  0  0  0  0  0  0  0
   -2.6702    2.0161   -0.3799 C   0  0  0  0  0  0  0  0  0  0  0  0
   -2.6113    1.9156   -1.4908 H   0  0  0  0  0  0  0  0  0  0  0  0
   -3.3061    2.9074   -0.1676 H   0  0  0  0  0  0  0  0  0  0  0  0
   -3.3050    0.7989    0.2693 C   0  0  0  0  0  0  0  0  0  0  0  0
   -3.2977    0.9712    1.3634 H   0  0  0  0  0  0  0  0  0  0  0  0
   -4.3774    0.7359   -0.0380 H   0  0  0  0  0  0  0  0  0  0  0  0
  1 28  1  6  0  0  0
  1  2  1  0  0  0  0
  2  4  1  0  0  0  0
  2  5  1  0  0  0  0
  2  3  1  0  0  0  0
  5  8  1  0  0  0  0
  5  7  1  0  0  0  0
  6  5  1  0  0  0  0
  8  9  1  0  0  0  0
  9 10  1  0  0  0  0
 10 11  1  0  0  0  0
 10 12  1  0  0  0  0
 13 15  1  0  0  0  0
 13 10  1  0  0  0  0
 14 13  1  0  0  0  0
 16 17  1  6  0  0  0
 16 48  1  0  0  0  0
 16 13  1  0  0  0  0
 18 17  1  0  0  0  0
 19 17  1  0  0  0  0
 20 17  1  0  0  0  0
 20 21  1  0  0  0  0
 22 20  1  0  0  0  0
 23 20  1  0  0  0  0
 24 23  1  0  0  0  0
 25 24  1  0  0  0  0
 25 28  1  0  0  0  0
 26 25  1  0  0  0  0
 27 25  1  0  0  0  0
 28 29  1  0  0  0  0
 30 28  1  0  0  0  0
 31  1  1  0  0  0  0
 31 33  1  0  0  0  0
 31 34  1  0  0  0  0
 32 31  1  0  0  0  0
 34 35  1  0  0  0  0
 36 34  1  0  0  0  0
 37 38  1  0  0  0  0
 37 34  1  0  0  0  0
 38 40  1  0  0  0  0
 39 38  1  0  0  0  0
 41 42  1  0  0  0  0
 41 44  1  0  0  0  0
 41 38  1  0  0  0  0
 43 41  1  0  0  0  0
 45 47  1  0  0  0  0
 45 44  1  0  0  0  0
 45 48  1  0  0  0  0
 46 45  1  0  0  0  0
 48 49  1  0  0  0  0
 50 48  1  0  0  0  0
M  END
