1
 OpenBabel05122313053D

 49 51  0  0  1  0  0  0  0  0999 V2000
    0.3683   -0.4368   -1.8430 C   0  0  0  0  0  3  0  0  0  0  0  0
    0.1003   -1.4964   -1.9701 H   0  0  0  0  0  0  0  0  0  0  0  0
    1.5192    1.5341   -2.0904 C   0  0  0  0  0  0  0  0  0  0  0  0
    2.2590    2.2815   -2.3998 H   0  0  0  0  0  0  0  0  0  0  0  0
   -0.2463    0.5032   -0.9429 C   0  0  2  0  0  3  0  0  0  0  0  0
    0.5049    1.7146   -1.0967 C   0  0  0  0  0  3  0  0  0  0  0  0
    0.3486    2.6334   -0.5162 H   0  0  0  0  0  0  0  0  0  0  0  0
    1.4318    0.2024   -2.5580 C   0  0  0  0  0  0  0  0  0  0  0  0
    2.0884   -0.2717   -3.2964 H   0  0  0  0  0  0  0  0  0  0  0  0
    0.7528   -1.6148    1.2873 C   0  0  0  0  0  3  0  0  0  0  0  0
    0.4303   -2.5201    0.7499 H   0  0  0  0  0  0  0  0  0  0  0  0
    2.0952   -0.2048    2.5022 C   0  0  0  0  0  0  0  0  0  0  0  0
    2.9455    0.2126    3.0540 H   0  0  0  0  0  0  0  0  0  0  0  0
   -2.0566   -1.1568    0.0362 N   0  3  0  0  0  0  0  0  0  0  0  0
   -1.3533   -1.8824   -0.1873 H   0  0  0  0  0  0  0  0  0  0  0  0
   -2.9400   -1.0554   -1.1676 C   0  0  0  0  0  0  0  0  0  0  0  0
   -2.3279   -0.6492   -1.9940 H   0  0  0  0  0  0  0  0  0  0  0  0
   -3.7150   -0.3020   -0.9318 H   0  0  0  0  0  0  0  0  0  0  0  0
   -2.8167   -1.6662    1.2185 C   0  0  0  0  0  0  0  0  0  0  0  0
   -3.5843   -0.9020    1.4523 H   0  0  0  0  0  0  0  0  0  0  0  0
   -2.1098   -1.7004    2.0695 H   0  0  0  0  0  0  0  0  0  0  0  0
    0.0451   -0.3643    1.3758 C   0  0  1  0  0  3  0  0  0  0  0  0
   -3.4550   -3.0242    0.9339 C   0  0  0  0  0  0  0  0  0  0  0  0
   -2.6518   -3.7836    0.7973 H   0  0  0  0  0  0  0  0  0  0  0  0
   -4.0324   -3.3448    1.8249 H   0  0  0  0  0  0  0  0  0  0  0  0
   -4.3446   -2.9771   -0.3150 C   0  0  0  0  0  0  0  0  0  0  0  0
   -4.7393   -3.9860   -0.5516 H   0  0  0  0  0  0  0  0  0  0  0  0
   -5.2279   -2.3323   -0.1110 H   0  0  0  0  0  0  0  0  0  0  0  0
    1.9942   -1.5205    1.9943 C   0  0  0  0  0  0  0  0  0  0  0  0
    2.7485   -2.3109    2.0809 H   0  0  0  0  0  0  0  0  0  0  0  0
   -3.5692   -2.4045   -1.5085 C   0  0  0  0  0  0  0  0  0  0  0  0
   -4.2280   -2.2817   -2.3921 H   0  0  0  0  0  0  0  0  0  0  0  0
   -2.7693   -3.1161   -1.8167 H   0  0  0  0  0  0  0  0  0  0  0  0
    0.9131    0.5038    2.1158 C   0  0  0  0  0  3  0  0  0  0  0  0
    0.7191    1.5635    2.3270 H   0  0  0  0  0  0  0  0  0  0  0  0
   -1.1355    0.1631    0.3784 B   0  0  1  0  0  0  0  0  0  0  0  0
   -1.9809    1.4094    0.9801 C   0  0  0  0  0  0  0  0  0  0  0  0
   -2.4594    1.1395    1.9495 H   0  0  0  0  0  0  0  0  0  0  0  0
   -1.2147    2.1631    1.2729 H   0  0  0  0  0  0  0  0  0  0  0  0
   -3.0014    2.1224    0.0812 C   0  0  0  0  0  0  0  0  0  0  0  0
   -3.9090    1.4894   -0.0567 H   0  0  0  0  0  0  0  0  0  0  0  0
   -2.5751    2.2520   -0.9397 H   0  0  0  0  0  0  0  0  0  0  0  0
   -3.4580    3.4879    0.6083 C   0  0  0  0  0  0  0  0  0  0  0  0
   -3.8667    3.3623    1.6361 H   0  0  0  0  0  0  0  0  0  0  0  0
   -2.5648    4.1420    0.7238 H   0  0  0  0  0  0  0  0  0  0  0  0
   -4.4924    4.1782   -0.2810 C   0  0  0  0  0  0  0  0  0  0  0  0
   -4.7939    5.1655    0.1237 H   0  0  0  0  0  0  0  0  0  0  0  0
   -5.4128    3.5647   -0.3815 H   0  0  0  0  0  0  0  0  0  0  0  0
   -4.0961    4.3438   -1.3049 H   0  0  0  0  0  0  0  0  0  0  0  0
  1  5  1  0  0  0  0
  2  1  1  0  0  0  0
  3  6  1  0  0  0  0
  4  3  1  0  0  0  0
  5 36  1  1  0  0  0
  6  5  1  0  0  0  0
  6  7  1  0  0  0  0
  8  3  2  0  0  0  0
  8  1  1  0  0  0  0
  9  8  1  0  0  0  0
 10 22  1  0  0  0  0
 10 29  1  0  0  0  0
 11 10  1  0  0  0  0
 12 13  1  0  0  0  0
 14 36  1  0  0  0  0
 14 19  1  0  0  0  0
 15 14  1  0  0  0  0
 16 18  1  0  0  0  0
 16 14  1  0  0  0  0
 17 16  1  0  0  0  0
 19 20  1  0  0  0  0
 19 21  1  0  0  0  0
 22 36  1  6  0  0  0
 22 34  1  0  0  0  0
 23 19  1  0  0  0  0
 23 25  1  0  0  0  0
 24 23  1  0  0  0  0
 26 28  1  0  0  0  0
 26 23  1  0  0  0  0
 27 26  1  0  0  0  0
 29 30  1  0  0  0  0
 29 12  2  0  0  0  0
 31 16  1  0  0  0  0
 31 26  1  0  0  0  0
 32 31  1  0  0  0  0
 33 31  1  0  0  0  0
 34 35  1  0  0  0  0
 34 12  1  0  0  0  0
 36 37  1  1  0  0  0
 37 39  1  0  0  0  0
 37 38  1  0  0  0  0
 40 43  1  0  0  0  0
 40 37  1  0  0  0  0
 41 40  1  0  0  0  0
 42 40  1  0  0  0  0
 43 45  1  0  0  0  0
 43 44  1  0  0  0  0
 46 47  1  0  0  0  0
 46 43  1  0  0  0  0
 48 46  1  0  0  0  0
 49 46  1  0  0  0  0
M  CHG  1  14   1
M  END
