3,5
 OpenBabel05122313053D

 28 29  0  0  1  0  0  0  0  0999 V2000
    2.0712   -0.4759   -0.8831 N   0  0  0  0  0  0  0  0  0  0  0  0
    0.0019   -1.4754   -0.7265 C   0  0  2  0  0  3  0  0  0  0  0  0
   -1.3657   -1.6216   -1.0433 C   0  0  0  0  0  3  0  0  0  0  0  0
   -2.0255   -0.6097   -1.8133 C   0  0  0  0  0  3  0  0  0  0  0  0
   -1.3099    0.5585   -2.1809 C   0  0  0  0  0  3  0  0  0  0  0  0
    0.0818    0.7168   -1.8784 C   0  0  0  0  0  0  0  0  0  0  0  0
    0.7471   -0.3479   -1.2174 C   0  0  0  0  0  0  0  0  0  0  0  0
    2.2203   -1.5183    0.1413 C   0  0  0  0  0  0  0  0  0  0  0  0
    0.9591   -2.4084   -0.0101 C   0  0  1  0  0  0  0  0  0  0  0  0
    0.4509   -3.0025    1.3017 C   0  0  0  0  0  0  0  0  0  0  0  0
    1.2163   -3.6569    1.7653 H   0  0  0  0  0  0  0  0  0  0  0  0
   -0.4571   -3.6167    1.1388 H   0  0  0  0  0  0  0  0  0  0  0  0
    0.1921   -2.1980    2.0181 H   0  0  0  0  0  0  0  0  0  0  0  0
    3.0444    0.6018   -0.9925 C   0  0  0  0  0  0  0  0  0  0  0  0
    4.0522    0.1459   -1.0967 H   0  0  0  0  0  0  0  0  0  0  0  0
    2.8395    1.1367   -1.9449 H   0  0  0  0  0  0  0  0  0  0  0  0
    3.0296    1.5636    0.1706 C   0  0  0  0  0  0  0  0  0  0  0  0
    2.0841    2.1078    0.3366 H   0  0  0  0  0  0  0  0  0  0  0  0
    4.0665    1.7538    1.0022 C   0  0  0  0  0  0  0  0  0  0  0  0
    5.0194    1.2137    0.8652 H   0  0  0  0  0  0  0  0  0  0  0  0
    4.0042    2.4547    1.8487 H   0  0  0  0  0  0  0  0  0  0  0  0
   -1.9292   -2.4933   -0.6810 H   0  0  0  0  0  0  0  0  0  0  0  0
   -3.0974   -0.6936   -2.0341 H   0  0  0  0  0  0  0  0  0  0  0  0
   -1.8371    1.3750   -2.6939 H   0  0  0  0  0  0  0  0  0  0  0  0
    0.6034    1.6417   -2.1535 H   0  0  0  0  0  0  0  0  0  0  0  0
    2.2521   -1.0570    1.1559 H   0  0  0  0  0  0  0  0  0  0  0  0
    3.1663   -2.0778   -0.0095 H   0  0  0  0  0  0  0  0  0  0  0  0
    1.1926   -3.2372   -0.7182 H   0  0  0  0  0  0  0  0  0  0  0  0
  1  8  1  0  0  0  0
  2  7  1  6  0  0  0
  2  9  1  0  0  0  0
  3  2  1  0  0  0  0
  3 22  1  0  0  0  0
  4  3  1  0  0  0  0
  5  6  1  0  0  0  0
  5  4  1  0  0  0  0
  6  7  2  0  0  0  0
  7  1  1  0  0  0  0
  8 26  1  0  0  0  0
  9 28  1  6  0  0  0
  9  8  1  0  0  0  0
  9 10  1  0  0  0  0
 10 11  1  0  0  0  0
 10 13  1  0  0  0  0
 12 10  1  0  0  0  0
 14  1  1  0  0  0  0
 14 17  1  0  0  0  0
 15 14  1  0  0  0  0
 16 14  1  0  0  0  0
 17 18  1  0  0  0  0
 17 19  2  0  0  0  0
 19 21  1  0  0  0  0
 20 19  1  0  0  0  0
 23  4  1  0  0  0  0
 24  5  1  0  0  0  0
 25  6  1  0  0  0  0
 27  8  1  0  0  0  0
M  END
