2,27
 OpenBabel05122313053D

 52 53  0  0  0  0  0  0  0  0999 V2000
   -0.3219    3.3788    0.1277 Si  0  0  0  0  0  0  0  0  0  0  0  0
   -0.2478    1.4949    0.0715 C   0  0  0  0  0  3  0  0  0  0  0  0
    0.9166    0.7501    0.0264 C   0  0  0  0  0  0  0  0  0  0  0  0
    2.2635    1.4174    0.0239 C   0  0  0  0  0  0  0  0  0  0  0  0
    2.7435    2.0562   -1.1374 C   0  0  0  0  0  0  0  0  0  0  0  0
    3.9811    2.7179   -1.1368 C   0  0  0  0  0  0  0  0  0  0  0  0
    4.7631    2.7451    0.0284 C   0  0  0  0  0  0  0  0  0  0  0  0
    4.3035    2.0969    1.1870 C   0  0  0  0  0  0  0  0  0  0  0  0
    3.0683    1.4349    1.1823 C   0  0  0  0  0  0  0  0  0  0  0  0
    0.9754    4.1938    1.2497 C   0  0  0  0  0  0  0  0  0  0  0  0
   -2.0169    3.9370    0.7991 C   0  0  0  0  0  0  0  0  0  0  0  0
   -0.1652    4.1293   -1.6155 C   0  0  0  0  0  0  0  0  0  0  0  0
    2.1334    2.0254   -2.0531 H   0  0  0  0  0  0  0  0  0  0  0  0
    4.3380    3.2132   -2.0531 H   0  0  0  0  0  0  0  0  0  0  0  0
    5.7329    3.2654    0.0328 H   0  0  0  0  0  0  0  0  0  0  0  0
    4.9133    2.1094    2.1035 H   0  0  0  0  0  0  0  0  0  0  0  0
    2.7099    0.9290    2.0916 H   0  0  0  0  0  0  0  0  0  0  0  0
    0.9946    3.7174    2.2512 H   0  0  0  0  0  0  0  0  0  0  0  0
    1.9962    4.1251    0.8264 H   0  0  0  0  0  0  0  0  0  0  0  0
    0.7246    5.2669    1.3863 H   0  0  0  0  0  0  0  0  0  0  0  0
   -2.8666    3.4956    0.2399 H   0  0  0  0  0  0  0  0  0  0  0  0
   -2.1436    3.6776    1.8697 H   0  0  0  0  0  0  0  0  0  0  0  0
   -2.0990    5.0408    0.7161 H   0  0  0  0  0  0  0  0  0  0  0  0
    0.8567    3.9862   -2.0182 H   0  0  0  0  0  0  0  0  0  0  0  0
   -0.8815    3.6833   -2.3345 H   0  0  0  0  0  0  0  0  0  0  0  0
   -0.3638    5.2209   -1.5738 H   0  0  0  0  0  0  0  0  0  0  0  0
   -0.2480   -1.4949   -0.0716 C   0  0  0  0  0  3  0  0  0  0  0  0
    0.9165   -0.7503   -0.0265 C   0  0  0  0  0  0  0  0  0  0  0  0
   -0.3225   -3.3788   -0.1278 Si  0  0  0  0  0  0  0  0  0  0  0  0
    2.2633   -1.4178   -0.0239 C   0  0  0  0  0  0  0  0  0  0  0  0
    0.9746   -4.1940   -1.2498 C   0  0  0  0  0  0  0  0  0  0  0  0
   -2.0176   -3.9365   -0.7992 C   0  0  0  0  0  0  0  0  0  0  0  0
   -0.1661   -4.1294    1.6154 C   0  0  0  0  0  0  0  0  0  0  0  0
    2.7433   -2.0564    1.1375 C   0  0  0  0  0  0  0  0  0  0  0  0
    3.0680   -1.4356   -1.1823 C   0  0  0  0  0  0  0  0  0  0  0  0
    0.9940   -3.7175   -2.2512 H   0  0  0  0  0  0  0  0  0  0  0  0
    1.9953   -4.1256   -0.8264 H   0  0  0  0  0  0  0  0  0  0  0  0
    0.7235   -5.2671   -1.3865 H   0  0  0  0  0  0  0  0  0  0  0  0
   -2.8673   -3.4952   -0.2399 H   0  0  0  0  0  0  0  0  0  0  0  0
   -2.1444   -3.6769   -1.8699 H   0  0  0  0  0  0  0  0  0  0  0  0
   -2.1000   -5.0403   -0.7165 H   0  0  0  0  0  0  0  0  0  0  0  0
    0.8558   -3.9865    2.0182 H   0  0  0  0  0  0  0  0  0  0  0  0
   -0.8825   -3.6833    2.3343 H   0  0  0  0  0  0  0  0  0  0  0  0
   -0.3649   -5.2210    1.5736 H   0  0  0  0  0  0  0  0  0  0  0  0
    3.9808   -2.7183    1.1369 C   0  0  0  0  0  0  0  0  0  0  0  0
    2.1333   -2.0254    2.0532 H   0  0  0  0  0  0  0  0  0  0  0  0
    4.3030   -2.0979   -1.1871 C   0  0  0  0  0  0  0  0  0  0  0  0
    2.7095   -0.9299   -2.0917 H   0  0  0  0  0  0  0  0  0  0  0  0
    4.7626   -2.7459   -0.0284 C   0  0  0  0  0  0  0  0  0  0  0  0
    4.3377   -3.2135    2.0532 H   0  0  0  0  0  0  0  0  0  0  0  0
    4.9127   -2.1106   -2.1037 H   0  0  0  0  0  0  0  0  0  0  0  0
    5.7324   -3.2663   -0.0328 H   0  0  0  0  0  0  0  0  0  0  0  0
  1 11  1  0  0  0  0
  1 10  1  0  0  0  0
  2  1  1  0  0  0  0
  3  2  2  0  0  0  0
  4  3  1  0  0  0  0
  4  9  1  0  0  0  0
  5  6  1  0  0  0  0
  5  4  2  0  0  0  0
  6  7  2  0  0  0  0
  7 15  1  0  0  0  0
  7  8  1  0  0  0  0
  8 16  1  0  0  0  0
  9  8  2  0  0  0  0
  9 17  1  0  0  0  0
 10 20  1  0  0  0  0
 10 18  1  0  0  0  0
 11 22  1  0  0  0  0
 12 26  1  0  0  0  0
 12  1  1  0  0  0  0
 13  5  1  0  0  0  0
 14  6  1  0  0  0  0
 19 10  1  0  0  0  0
 21 11  1  0  0  0  0
 23 11  1  0  0  0  0
 24 12  1  0  0  0  0
 25 12  1  0  0  0  0
 27 28  2  0  0  0  0
 28 30  1  0  0  0  0
 28  3  1  0  0  0  0
 29 27  1  0  0  0  0
 29 33  1  0  0  0  0
 30 34  1  0  0  0  0
 31 37  1  0  0  0  0
 31 29  1  0  0  0  0
 32 41  1  0  0  0  0
 32 39  1  0  0  0  0
 32 29  1  0  0  0  0
 33 42  1  0  0  0  0
 33 43  1  0  0  0  0
 34 46  1  0  0  0  0
 35 30  2  0  0  0  0
 36 31  1  0  0  0  0
 38 31  1  0  0  0  0
 40 32  1  0  0  0  0
 44 33  1  0  0  0  0
 45 34  2  0  0  0  0
 45 50  1  0  0  0  0
 47 35  1  0  0  0  0
 47 49  2  0  0  0  0
 48 35  1  0  0  0  0
 49 45  1  0  0  0  0
 51 47  1  0  0  0  0
 52 49  1  0  0  0  0
M  END
