2,5
 OpenBabel05122313053D

 40 41  0  0  0  0  0  0  0  0999 V2000
    2.9293   -1.3072    0.1915 Si  0  0  0  0  0  0  0  0  0  0  0  0
    1.2951   -0.3908    0.0511 C   0  0  0  0  0  3  0  0  0  0  0  0
    1.1308    0.9800   -0.0746 C   0  0  0  0  0  0  0  0  0  0  0  0
   -0.1809    1.6611   -0.1601 C   0  0  0  0  0  0  0  0  0  0  0  0
   -1.4091    1.0372   -0.1596 C   0  0  0  0  0  3  0  0  0  0  0  0
   -2.6766    1.7758   -0.1543 C   0  0  0  0  0  0  0  0  0  0  0  0
   -2.7760    3.1289    0.2673 C   0  0  0  0  0  0  0  0  0  0  0  0
   -4.0040    3.7995    0.2800 C   0  0  0  0  0  0  0  0  0  0  0  0
   -5.1795    3.1428   -0.1255 C   0  0  0  0  0  0  0  0  0  0  0  0
   -5.1101    1.8020   -0.5353 C   0  0  0  0  0  0  0  0  0  0  0  0
   -3.8802    1.1305   -0.5407 C   0  0  0  0  0  0  0  0  0  0  0  0
    2.3091    1.9103   -0.1286 C   0  0  0  0  0  0  0  0  0  0  0  0
    3.1590    1.9382   -1.2531 C   0  0  0  0  0  0  0  0  0  0  0  0
    4.2868    2.7730   -1.2809 C   0  0  0  0  0  0  0  0  0  0  0  0
    4.5797    3.5982   -0.1835 C   0  0  0  0  0  0  0  0  0  0  0  0
    3.7273    3.5961    0.9331 C   0  0  0  0  0  0  0  0  0  0  0  0
    2.5968    2.7664    0.9557 C   0  0  0  0  0  0  0  0  0  0  0  0
    2.6186   -3.0193    0.9681 C   0  0  0  0  0  0  0  0  0  0  0  0
    4.2148   -0.4397    1.2875 C   0  0  0  0  0  0  0  0  0  0  0  0
    3.6997   -1.6282   -1.5207 C   0  0  0  0  0  0  0  0  0  0  0  0
   -0.1163    2.7672   -0.2378 H   0  0  0  0  0  0  0  0  0  0  0  0
   -1.8705    3.6527    0.6093 H   0  0  0  0  0  0  0  0  0  0  0  0
   -4.0492    4.8465    0.6184 H   0  0  0  0  0  0  0  0  0  0  0  0
   -6.1447    3.6713   -0.1111 H   0  0  0  0  0  0  0  0  0  0  0  0
   -6.0235    1.2729   -0.8488 H   0  0  0  0  0  0  0  0  0  0  0  0
   -3.8341    0.0771   -0.8553 H   0  0  0  0  0  0  0  0  0  0  0  0
    2.9241    1.2946   -2.1140 H   0  0  0  0  0  0  0  0  0  0  0  0
    4.9406    2.7801   -2.1667 H   0  0  0  0  0  0  0  0  0  0  0  0
    5.4679    4.2480   -0.2006 H   0  0  0  0  0  0  0  0  0  0  0  0
    3.9483    4.2433    1.7959 H   0  0  0  0  0  0  0  0  0  0  0  0
    1.9343    2.7580    1.8355 H   0  0  0  0  0  0  0  0  0  0  0  0
    2.2918   -2.9405    2.0248 H   0  0  0  0  0  0  0  0  0  0  0  0
    1.8483   -3.5973    0.4177 H   0  0  0  0  0  0  0  0  0  0  0  0
    3.5564   -3.6128    0.9554 H   0  0  0  0  0  0  0  0  0  0  0  0
    4.5897    0.4956    0.8279 H   0  0  0  0  0  0  0  0  0  0  0  0
    3.7813   -0.1786    2.2748 H   0  0  0  0  0  0  0  0  0  0  0  0
    5.0795   -1.1141    1.4618 H   0  0  0  0  0  0  0  0  0  0  0  0
    2.9671   -2.0574   -2.2340 H   0  0  0  0  0  0  0  0  0  0  0  0
    4.0948   -0.6923   -1.9622 H   0  0  0  0  0  0  0  0  0  0  0  0
    4.5440   -2.3435   -1.4304 H   0  0  0  0  0  0  0  0  0  0  0  0
  1 18  1  0  0  0  0
  1 19  1  0  0  0  0
  2  1  1  0  0  0  0
  3  2  2  0  0  0  0
  4  5  2  0  0  0  0
  4  3  1  0  0  0  0
  5  6  1  0  0  0  0
  6  7  1  0  0  0  0
  7  8  2  0  0  0  0
  7 22  1  0  0  0  0
  8 23  1  0  0  0  0
  9 24  1  0  0  0  0
  9  8  1  0  0  0  0
 10  9  2  0  0  0  0
 11 10  1  0  0  0  0
 11  6  2  0  0  0  0
 12  3  1  0  0  0  0
 12 17  1  0  0  0  0
 13 12  2  0  0  0  0
 14 13  1  0  0  0  0
 14 15  2  0  0  0  0
 15 16  1  0  0  0  0
 16 17  2  0  0  0  0
 16 30  1  0  0  0  0
 17 31  1  0  0  0  0
 18 32  1  0  0  0  0
 19 37  1  0  0  0  0
 19 36  1  0  0  0  0
 20 40  1  0  0  0  0
 20  1  1  0  0  0  0
 21  4  1  0  0  0  0
 25 10  1  0  0  0  0
 26 11  1  0  0  0  0
 27 13  1  0  0  0  0
 28 14  1  0  0  0  0
 29 15  1  0  0  0  0
 33 18  1  0  0  0  0
 34 18  1  0  0  0  0
 35 19  1  0  0  0  0
 38 20  1  0  0  0  0
 39 20  1  0  0  0  0
M  END
