4,6
 OpenBabel05122313053D

 28 30  0  0  0  0  0  0  0  0999 V2000
   -1.5022    1.2134    0.6368 N   0  0  0  0  0  0  0  0  0  0  0  0
   -0.3024    0.6818    1.0719 C   0  0  0  0  0  0  0  0  0  0  0  0
    0.8856    1.3457    1.4891 C   0  0  0  0  0  3  0  0  0  0  0  0
    1.9547    0.5390    1.9758 C   0  0  0  0  0  3  0  0  0  0  0  0
    1.8720   -0.8859    2.0024 C   0  0  0  0  0  3  0  0  0  0  0  0
    0.7390   -1.5370    1.4405 C   0  0  0  0  0  3  0  0  0  0  0  0
   -0.3756   -0.7588    1.0068 C   0  0  0  0  0  0  0  0  0  0  0  0
   -1.6824   -1.0794    0.4637 C   0  0  0  0  0  0  0  0  0  0  0  0
   -2.3452    0.1674    0.2500 C   0  0  0  0  0  0  0  0  0  0  0  0
   -3.6484    0.2258   -0.2669 C   0  0  0  0  0  0  0  0  0  0  0  0
   -4.1552    1.1848   -0.4446 H   0  0  0  0  0  0  0  0  0  0  0  0
   -4.2866   -0.9894   -0.5602 C   0  0  0  0  0  0  0  0  0  0  0  0
   -5.3080   -0.9720   -0.9689 H   0  0  0  0  0  0  0  0  0  0  0  0
   -3.6456   -2.2287   -0.3479 C   0  0  0  0  0  0  0  0  0  0  0  0
   -4.1740   -3.1613   -0.5940 H   0  0  0  0  0  0  0  0  0  0  0  0
   -2.3427   -2.2830    0.1665 C   0  0  0  0  0  0  0  0  0  0  0  0
   -1.8415   -3.2491    0.3265 H   0  0  0  0  0  0  0  0  0  0  0  0
   -1.8348    2.6282    0.5540 C   0  0  0  0  0  0  0  0  0  0  0  0
   -1.2210    3.1589    1.3098 H   0  0  0  0  0  0  0  0  0  0  0  0
   -2.8887    2.7376    0.8868 H   0  0  0  0  0  0  0  0  0  0  0  0
   -1.6429    3.2421   -0.8329 C   0  0  0  0  0  0  0  0  0  0  0  0
   -0.5866    3.1968   -1.1575 H   0  0  0  0  0  0  0  0  0  0  0  0
   -1.9636    4.3029   -0.8236 H   0  0  0  0  0  0  0  0  0  0  0  0
   -2.2434    2.7057   -1.5936 H   0  0  0  0  0  0  0  0  0  0  0  0
    0.9831    2.4374    1.4503 H   0  0  0  0  0  0  0  0  0  0  0  0
    2.8780    1.0294    2.3147 H   0  0  0  0  0  0  0  0  0  0  0  0
    2.7308   -1.4758    2.3481 H   0  0  0  0  0  0  0  0  0  0  0  0
    0.7047   -2.6334    1.3769 H   0  0  0  0  0  0  0  0  0  0  0  0
  1  2  1  0  0  0  0
  2  3  1  0  0  0  0
  3  4  1  0  0  0  0
  4  5  1  0  0  0  0
  4 26  1  0  0  0  0
  5 27  1  0  0  0  0
  6  5  1  0  0  0  0
  7  2  2  0  0  0  0
  7  6  1  0  0  0  0
  8  7  1  0  0  0  0
  9  8  1  0  0  0  0
  9  1  1  0  0  0  0
 10  9  2  0  0  0  0
 11 10  1  0  0  0  0
 12 14  2  0  0  0  0
 12 10  1  0  0  0  0
 13 12  1  0  0  0  0
 14 16  1  0  0  0  0
 15 14  1  0  0  0  0
 16 17  1  0  0  0  0
 16  8  2  0  0  0  0
 18  1  1  0  0  0  0
 18 20  1  0  0  0  0
 18 19  1  0  0  0  0
 21 23  1  0  0  0  0
 21 18  1  0  0  0  0
 22 21  1  0  0  0  0
 24 21  1  0  0  0  0
 25  3  1  0  0  0  0
 28  6  1  0  0  0  0
M  END
