1,22
 OpenBabel05122313053D

 45 46  0  0  1  0  0  0  0  0999 V2000
    0.8786    0.9980    0.3014 C   0  0  2  0  0  3  0  0  0  0  0  0
   -0.0771    1.2973    1.3426 C   0  0  2  0  0  3  0  0  0  0  0  0
   -1.2295    1.9149    0.7434 C   0  0  0  0  0  0  0  0  0  0  0  0
   -1.0087    1.9838   -0.6608 C   0  0  0  0  0  0  0  0  0  0  0  0
    0.2754    1.3944   -0.9496 C   0  0  1  0  0  3  0  0  0  0  0  0
    0.0728    1.1280    2.8282 C   0  0  0  0  0  0  0  0  0  0  0  0
    0.1213    2.1227    3.3210 H   0  0  0  0  0  0  0  0  0  0  0  0
    0.9921    0.5804    3.1090 H   0  0  0  0  0  0  0  0  0  0  0  0
   -0.7913    0.5874    3.2636 H   0  0  0  0  0  0  0  0  0  0  0  0
   -2.3934    2.4565    1.5122 C   0  0  0  0  0  0  0  0  0  0  0  0
   -2.8364    1.6767    2.1653 H   0  0  0  0  0  0  0  0  0  0  0  0
   -3.1923    2.8241    0.8414 H   0  0  0  0  0  0  0  0  0  0  0  0
   -2.0773    3.3010    2.1608 H   0  0  0  0  0  0  0  0  0  0  0  0
   -1.8886    2.6304   -1.6840 C   0  0  0  0  0  0  0  0  0  0  0  0
   -2.8425    2.9744   -1.2423 H   0  0  0  0  0  0  0  0  0  0  0  0
   -2.1358    1.9259   -2.5047 H   0  0  0  0  0  0  0  0  0  0  0  0
   -1.3841    3.5112   -2.1346 H   0  0  0  0  0  0  0  0  0  0  0  0
    0.8398    1.3937   -2.3409 C   0  0  0  0  0  0  0  0  0  0  0  0
    1.1693    2.4176   -2.6227 H   0  0  0  0  0  0  0  0  0  0  0  0
    0.0779    1.0764   -3.0795 H   0  0  0  0  0  0  0  0  0  0  0  0
    1.7133    0.7313   -2.4495 H   0  0  0  0  0  0  0  0  0  0  0  0
    1.3452   -1.3167    0.2491 C   0  0  1  0  0  3  0  0  0  0  0  0
    0.5653   -2.0365    1.2105 C   0  0  0  0  0  3  0  0  0  0  0  0
    0.5900   -1.8763    2.2959 H   0  0  0  0  0  0  0  0  0  0  0  0
   -0.2790   -2.9637    0.5247 C   0  0  0  0  0  0  0  0  0  0  0  0
   -1.0002   -3.6426    0.9937 H   0  0  0  0  0  0  0  0  0  0  0  0
   -0.0435   -2.8172   -0.8631 C   0  0  0  0  0  0  0  0  0  0  0  0
   -0.5487   -3.3632   -1.6679 H   0  0  0  0  0  0  0  0  0  0  0  0
    0.9362   -1.7916   -1.0425 C   0  0  0  0  0  3  0  0  0  0  0  0
    1.2925   -1.4291   -2.0124 H   0  0  0  0  0  0  0  0  0  0  0  0
    2.0216    0.0101    0.5720 C   0  0  1  0  0  0  0  0  0  0  0  0
    2.1144    0.0231    1.6744 H   0  0  0  0  0  0  0  0  0  0  0  0
    3.4922    0.2677    0.0871 C   0  0  0  0  0  0  0  0  0  0  0  0
    3.7383    1.7846    0.0372 C   0  0  0  0  0  0  0  0  0  0  0  0
    3.1356    2.2695   -0.7558 H   0  0  0  0  0  0  0  0  0  0  0  0
    4.8074    2.0012   -0.1643 H   0  0  0  0  0  0  0  0  0  0  0  0
    3.4698    2.2660    1.0001 H   0  0  0  0  0  0  0  0  0  0  0  0
    4.4139   -0.3665    1.1527 C   0  0  0  0  0  0  0  0  0  0  0  0
    4.2785    0.1172    2.1422 H   0  0  0  0  0  0  0  0  0  0  0  0
    5.4808   -0.2640    0.8684 H   0  0  0  0  0  0  0  0  0  0  0  0
    4.1969   -1.4486    1.2691 H   0  0  0  0  0  0  0  0  0  0  0  0
    3.8642   -0.3761   -1.2603 C   0  0  0  0  0  0  0  0  0  0  0  0
    3.2945    0.0360   -2.1138 H   0  0  0  0  0  0  0  0  0  0  0  0
    3.7126   -1.4730   -1.2418 H   0  0  0  0  0  0  0  0  0  0  0  0
    4.9364   -0.1899   -1.4744 H   0  0  0  0  0  0  0  0  0  0  0  0
  1 31  1  6  0  0  0
  1  2  1  0  0  0  0
  2  6  1  1  0  0  0
  3  2  1  0  0  0  0
  3 10  1  0  0  0  0
  4  3  2  0  0  0  0
  5 18  1  1  0  0  0
  5  4  1  0  0  0  0
  5  1  1  0  0  0  0
  6  8  1  0  0  0  0
  6  9  1  0  0  0  0
  6  7  1  0  0  0  0
 10 13  1  0  0  0  0
 10 11  1  0  0  0  0
 12 10  1  0  0  0  0
 14 15  1  0  0  0  0
 14  4  1  0  0  0  0
 16 14  1  0  0  0  0
 17 14  1  0  0  0  0
 19 18  1  0  0  0  0
 20 18  1  0  0  0  0
 21 18  1  0  0  0  0
 22 31  1  6  0  0  0
 22 23  1  0  0  0  0
 23 24  1  0  0  0  0
 25 26  1  0  0  0  0
 25 23  1  0  0  0  0
 27 25  2  0  0  0  0
 28 27  1  0  0  0  0
 29 27  1  0  0  0  0
 29 22  1  0  0  0  0
 30 29  1  0  0  0  0
 31 32  1  1  0  0  0
 33 31  1  0  0  0  0
 33 38  1  0  0  0  0
 34 33  1  0  0  0  0
 34 37  1  0  0  0  0
 35 34  1  0  0  0  0
 36 34  1  0  0  0  0
 38 41  1  0  0  0  0
 38 39  1  0  0  0  0
 40 38  1  0  0  0  0
 42 44  1  0  0  0  0
 42 33  1  0  0  0  0
 43 42  1  0  0  0  0
 45 42  1  0  0  0  0
M  END
