1,4
 OpenBabel05122313053D

 28 28  0  0  1  0  0  0  0  0999 V2000
   -0.1180    0.3680   -1.5068 C   0  0  0  0  0  3  0  0  0  0  0  0
   -0.0689    1.6868   -0.7993 C   0  0  0  0  0  0  0  0  0  0  0  0
    0.1997    1.5132    0.6656 C   0  0  2  0  0  3  0  0  0  0  0  0
   -0.2525    0.3796    1.3908 C   0  0  0  0  0  3  0  0  0  0  0  0
   -0.8315   -0.7999    0.8182 C   0  0  0  0  0  3  0  0  0  0  0  0
   -1.9594   -0.8066   -0.2150 C   0  0  2  0  0  0  0  0  0  0  0  0
   -1.4241   -0.3984   -1.6006 C   0  0  0  0  0  0  0  0  0  0  0  0
    0.8210    2.6817    1.3746 C   0  0  0  0  0  0  0  0  0  0  0  0
   -3.1749    0.0497    0.2572 C   0  0  0  0  0  0  0  0  0  0  0  0
   -4.3878   -0.1644   -0.6578 C   0  0  0  0  0  0  0  0  0  0  0  0
   -3.5687   -0.2421    1.7113 C   0  0  0  0  0  0  0  0  0  0  0  0
    0.0366    2.7791   -1.3534 O   0  0  0  0  0  0  0  0  0  0  0  0
    0.3499    0.4901   -2.5028 H   0  0  0  0  0  0  0  0  0  0  0  0
    0.0009    0.3637    2.4659 H   0  0  0  0  0  0  0  0  0  0  0  0
   -0.8844   -1.6355    1.5358 H   0  0  0  0  0  0  0  0  0  0  0  0
   -2.3244   -1.8549   -0.2740 H   0  0  0  0  0  0  0  0  0  0  0  0
   -2.1616    0.2192   -2.1597 H   0  0  0  0  0  0  0  0  0  0  0  0
   -1.2608   -1.3038   -2.2195 H   0  0  0  0  0  0  0  0  0  0  0  0
    1.2834    2.3846    2.3356 H   0  0  0  0  0  0  0  0  0  0  0  0
    0.0435    3.4475    1.5816 H   0  0  0  0  0  0  0  0  0  0  0  0
    1.5733    3.1740    0.7294 H   0  0  0  0  0  0  0  0  0  0  0  0
   -2.8668    1.1185    0.1883 H   0  0  0  0  0  0  0  0  0  0  0  0
   -4.7366   -1.2180   -0.6058 H   0  0  0  0  0  0  0  0  0  0  0  0
   -5.2337    0.4822   -0.3482 H   0  0  0  0  0  0  0  0  0  0  0  0
   -4.1669    0.0637   -1.7189 H   0  0  0  0  0  0  0  0  0  0  0  0
   -2.7656    0.0132    2.4296 H   0  0  0  0  0  0  0  0  0  0  0  0
   -4.4670    0.3410    1.9978 H   0  0  0  0  0  0  0  0  0  0  0  0
   -3.8147   -1.3173    1.8459 H   0  0  0  0  0  0  0  0  0  0  0  0
  1  2  1  0  0  0  0
  2  3  1  0  0  0  0
  3  8  1  1  0  0  0
  3  4  1  0  0  0  0
  4 14  1  0  0  0  0
  5  4  1  0  0  0  0
  5 15  1  0  0  0  0
  6 16  1  6  0  0  0
  6  9  1  0  0  0  0
  6  5  1  0  0  0  0
  7  1  1  0  0  0  0
  7  6  1  0  0  0  0
  8 20  1  0  0  0  0
  8 19  1  0  0  0  0
  9 11  1  0  0  0  0
 10 23  1  0  0  0  0
 10 24  1  0  0  0  0
 10  9  1  0  0  0  0
 11 28  1  0  0  0  0
 11 27  1  0  0  0  0
 11 26  1  0  0  0  0
 12  2  2  0  0  0  0
 13  1  1  0  0  0  0
 17  7  1  0  0  0  0
 18  7  1  0  0  0  0
 21  8  1  0  0  0  0
 22  9  1  0  0  0  0
 25 10  1  0  0  0  0
M  END
