3,7
 OpenBabel05122313053D

 35 38  0  0  0  0  0  0  0  0999 V2000
   -2.0414   -1.6610    1.5494 C   0  0  0  0  0  0  0  0  0  0  0  0
   -2.4362   -1.3291    2.5174 H   0  0  0  0  0  0  0  0  0  0  0  0
   -2.7982   -2.3283    0.5049 C   0  0  0  0  0  3  0  0  0  0  0  0
   -3.8580   -2.6045    0.5683 H   0  0  0  0  0  0  0  0  0  0  0  0
   -1.9111   -2.6518   -0.5709 C   0  0  0  0  0  3  0  0  0  0  0  0
   -2.1651   -3.1906   -1.4901 H   0  0  0  0  0  0  0  0  0  0  0  0
   -0.6446   -2.0669   -0.2463 C   0  0  0  0  0  3  0  0  0  0  0  0
    0.2601   -2.1038   -0.8656 H   0  0  0  0  0  0  0  0  0  0  0  0
   -0.7069   -1.5003    1.0966 C   0  0  0  0  0  0  0  0  0  0  0  0
    0.4448   -0.9168    1.8795 C   0  0  0  0  0  0  0  0  0  0  0  0
    0.9781   -1.7516    2.3815 H   0  0  0  0  0  0  0  0  0  0  0  0
    0.0368   -0.3017    2.7032 H   0  0  0  0  0  0  0  0  0  0  0  0
    1.4296   -0.1150    1.0526 C   0  0  0  0  0  0  0  0  0  0  0  0
    1.2388    1.2850    0.8828 C   0  0  0  0  0  0  0  0  0  0  0  0
    0.1399    1.9988    1.4702 C   0  0  0  0  0  0  0  0  0  0  0  0
   -0.6007    1.4553    2.0711 H   0  0  0  0  0  0  0  0  0  0  0  0
   -0.0295    3.3554    1.2696 C   0  0  0  0  0  0  0  0  0  0  0  0
   -0.8881    3.8699    1.7270 H   0  0  0  0  0  0  0  0  0  0  0  0
    0.8890    4.0943    0.4668 C   0  0  0  0  0  0  0  0  0  0  0  0
    0.7370    5.1733    0.3141 H   0  0  0  0  0  0  0  0  0  0  0  0
    1.9593    3.4508   -0.1194 C   0  0  0  0  0  0  0  0  0  0  0  0
    2.6740    4.0060   -0.7463 H   0  0  0  0  0  0  0  0  0  0  0  0
    2.1669    2.0443    0.0611 C   0  0  0  0  0  0  0  0  0  0  0  0
    3.2437    1.3845   -0.5552 C   0  0  0  0  0  0  0  0  0  0  0  0
    3.9420    1.9636   -1.1801 H   0  0  0  0  0  0  0  0  0  0  0  0
    3.4438    0.0019   -0.4047 C   0  0  0  0  0  0  0  0  0  0  0  0
    4.5370   -0.6644   -1.0495 C   0  0  0  0  0  0  0  0  0  0  0  0
    5.2257   -0.0604   -1.6607 H   0  0  0  0  0  0  0  0  0  0  0  0
    4.7247   -2.0250   -0.9162 C   0  0  0  0  0  0  0  0  0  0  0  0
    5.5672   -2.5229   -1.4191 H   0  0  0  0  0  0  0  0  0  0  0  0
    3.8191   -2.7903   -0.1226 C   0  0  0  0  0  0  0  0  0  0  0  0
    3.9701   -3.8756   -0.0193 H   0  0  0  0  0  0  0  0  0  0  0  0
    2.7552   -2.1830    0.5178 C   0  0  0  0  0  0  0  0  0  0  0  0
    2.0730   -2.8034    1.1154 H   0  0  0  0  0  0  0  0  0  0  0  0
    2.5189   -0.7695    0.4115 C   0  0  0  0  0  0  0  0  0  0  0  0
  1  2  1  0  0  0  0
  3  4  1  0  0  0  0
  3  1  1  0  0  0  0
  5  7  1  0  0  0  0
  5  3  1  0  0  0  0
  6  5  1  0  0  0  0
  7  9  1  0  0  0  0
  8  7  1  0  0  0  0
  9  1  2  0  0  0  0
  9 10  1  0  0  0  0
 10 11  1  0  0  0  0
 10 12  1  0  0  0  0
 13 10  1  0  0  0  0
 14 13  1  0  0  0  0
 14 15  1  0  0  0  0
 15 16  1  0  0  0  0
 17 15  2  0  0  0  0
 17 18  1  0  0  0  0
 19 17  1  0  0  0  0
 20 19  1  0  0  0  0
 21 23  1  0  0  0  0
 21 19  2  0  0  0  0
 22 21  1  0  0  0  0
 23 14  2  0  0  0  0
 24 26  2  0  0  0  0
 24 23  1  0  0  0  0
 25 24  1  0  0  0  0
 26 35  1  0  0  0  0
 27 29  2  0  0  0  0
 27 26  1  0  0  0  0
 28 27  1  0  0  0  0
 29 31  1  0  0  0  0
 30 29  1  0  0  0  0
 31 32  1  0  0  0  0
 31 33  2  0  0  0  0
 33 34  1  0  0  0  0
 35 33  1  0  0  0  0
 35 13  2  0  0  0  0
M  END
