1,12
 OpenBabel05122313053D

 33 32  0  0  1  0  0  0  0  0999 V2000
   -1.0608    1.3289   -0.9966 C   0  0  0  0  0  2  0  0  0  0  0  0
   -2.1295    2.1449   -1.6796 C   0  0  0  0  0  0  0  0  0  0  0  0
   -3.0980    2.8506   -0.7160 C   0  0  0  0  0  0  0  0  0  0  0  0
    0.2598    1.8115   -0.8052 C   0  0  1  0  0  3  0  0  0  0  0  0
    0.6513    3.2788   -0.8891 C   0  0  0  0  0  0  0  0  0  0  0  0
    0.4160    4.0710    0.4059 C   0  0  0  0  0  0  0  0  0  0  0  0
    1.2438    0.8206   -0.5111 C   0  0  2  0  0  3  0  0  0  0  0  0
    2.5890    1.2204    0.0230 C   0  0  0  0  0  0  0  0  0  0  0  0
    4.9051    0.8958   -0.2436 C   0  0  0  0  0  0  0  0  0  0  0  0
    2.7999    1.9238    1.0031 O   0  0  0  0  0  0  0  0  0  0  0  0
    3.5797    0.7274   -0.7560 O   0  0  0  0  0  0  0  0  0  0  0  0
    0.9991   -0.5849   -0.8189 C   0  0  0  0  0  3  0  0  0  0  0  0
    1.9011   -1.6348   -0.3269 C   0  0  0  0  0  0  0  0  0  0  0  0
    2.5682   -3.8831   -0.6225 C   0  0  0  0  0  0  0  0  0  0  0  0
    2.6577   -1.5755    0.6377 O   0  0  0  0  0  0  0  0  0  0  0  0
    1.7835   -2.7815   -1.0785 O   0  0  0  0  0  0  0  0  0  0  0  0
    0.6111   -0.7514   -1.8364 H   0  0  0  0  0  0  0  0  0  0  0  0
   -1.6721    2.9084   -2.3488 H   0  0  0  0  0  0  0  0  0  0  0  0
   -2.7292    1.4945   -2.3548 H   0  0  0  0  0  0  0  0  0  0  0  0
   -3.8953    3.3945   -1.2637 H   0  0  0  0  0  0  0  0  0  0  0  0
   -3.5795    2.1169   -0.0367 H   0  0  0  0  0  0  0  0  0  0  0  0
   -2.5671    3.5841   -0.0768 H   0  0  0  0  0  0  0  0  0  0  0  0
    1.7191    3.3683   -1.1786 H   0  0  0  0  0  0  0  0  0  0  0  0
    0.0731    3.7457   -1.7148 H   0  0  0  0  0  0  0  0  0  0  0  0
    0.6787    5.1398    0.2694 H   0  0  0  0  0  0  0  0  0  0  0  0
   -0.6461    4.0257    0.7206 H   0  0  0  0  0  0  0  0  0  0  0  0
    1.0404    3.6635    1.2240 H   0  0  0  0  0  0  0  0  0  0  0  0
    5.1058    1.9563    0.0076 H   0  0  0  0  0  0  0  0  0  0  0  0
    5.0312    0.2814    0.6711 H   0  0  0  0  0  0  0  0  0  0  0  0
    5.5891    0.5453   -1.0371 H   0  0  0  0  0  0  0  0  0  0  0  0
    3.6421   -3.6130   -0.5653 H   0  0  0  0  0  0  0  0  0  0  0  0
    2.4147   -4.6964   -1.3551 H   0  0  0  0  0  0  0  0  0  0  0  0
    2.2479   -4.2155    0.3874 H   0  0  0  0  0  0  0  0  0  0  0  0
  2  1  1  0  0  0  0
  2  3  1  0  0  0  0
  3 22  1  0  0  0  0
  3 21  1  0  0  0  0
  4  1  1  1  0  0  0
  4  7  1  0  0  0  0
  5  4  1  0  0  0  0
  5  6  1  0  0  0  0
  6 26  1  0  0  0  0
  6 27  1  0  0  0  0
  7 12  1  6  0  0  0
  7  8  1  0  0  0  0
  8 10  2  0  0  0  0
  9 28  1  0  0  0  0
  9 29  1  0  0  0  0
 11  9  1  0  0  0  0
 11  8  1  0  0  0  0
 12 13  1  0  0  0  0
 13 15  2  0  0  0  0
 14 31  1  0  0  0  0
 14 33  1  0  0  0  0
 16 14  1  0  0  0  0
 16 13  1  0  0  0  0
 17 12  1  0  0  0  0
 18  2  1  0  0  0  0
 19  2  1  0  0  0  0
 20  3  1  0  0  0  0
 23  5  1  0  0  0  0
 24  5  1  0  0  0  0
 25  6  1  0  0  0  0
 30  9  1  0  0  0  0
 32 14  1  0  0  0  0
M  END
