8,12
 OpenBabel05122313053D

 38 39  0  0  1  0  0  0  0  0999 V2000
   -1.5789    1.6951    1.7928 O   0  0  0  0  0  0  0  0  0  0  0  0
    2.1458    1.1107    0.0458 N   0  0  0  0  0  0  0  0  0  0  0  0
    2.5582    1.6380   -0.7262 H   0  0  0  0  0  0  0  0  0  0  0  0
   -0.3373    1.2339   -0.1612 C   0  0  1  0  0  3  0  0  0  0  0  0
   -1.6147    1.3019    0.4949 C   0  0  0  0  0  0  0  0  0  0  0  0
   -2.8124    0.9665   -0.1994 C   0  0  0  0  0  0  0  0  0  0  0  0
   -3.7806    0.9664    0.3140 H   0  0  0  0  0  0  0  0  0  0  0  0
   -2.7391    0.5747   -1.5697 C   0  0  0  0  0  3  0  0  0  0  0  0
   -3.6609    0.2815   -2.0918 H   0  0  0  0  0  0  0  0  0  0  0  0
   -1.4962    0.5439   -2.2531 C   0  0  0  0  0  3  0  0  0  0  0  0
   -1.4414    0.2100   -3.2972 H   0  0  0  0  0  0  0  0  0  0  0  0
   -0.3072    0.8373   -1.5257 C   0  0  0  0  0  3  0  0  0  0  0  0
    0.6741    0.7349   -2.0099 H   0  0  0  0  0  0  0  0  0  0  0  0
    0.9299    1.6521    0.5898 C   0  0  2  0  0  0  0  0  0  0  0  0
    0.8132    1.3154    1.6388 H   0  0  0  0  0  0  0  0  0  0  0  0
    1.0390    3.2047    0.6345 C   0  0  0  0  0  0  0  0  0  0  0  0
    0.1092    3.5931    1.0994 H   0  0  0  0  0  0  0  0  0  0  0  0
    1.8860    3.4618    1.3028 H   0  0  0  0  0  0  0  0  0  0  0  0
    1.2431    3.8131   -0.7230 C   0  0  0  0  0  0  0  0  0  0  0  0
    0.3810    3.7720   -1.4138 H   0  0  0  0  0  0  0  0  0  0  0  0
    2.3977    4.3544   -1.1555 C   0  0  0  0  0  0  0  0  0  0  0  0
    3.2809    4.4190   -0.4973 H   0  0  0  0  0  0  0  0  0  0  0  0
    2.4973    4.7700   -2.1704 H   0  0  0  0  0  0  0  0  0  0  0  0
    2.6214   -0.1777    0.2550 C   0  0  0  0  0  0  0  0  0  0  0  0
    2.1357   -1.0033    1.2967 C   0  0  0  0  0  0  0  0  0  0  0  0
    1.3447   -0.6464    1.9682 H   0  0  0  0  0  0  0  0  0  0  0  0
    2.6493   -2.2940    1.4753 C   0  0  0  0  0  0  0  0  0  0  0  0
    2.2392   -2.9184    2.2838 H   0  0  0  0  0  0  0  0  0  0  0  0
    3.6558   -2.7962    0.6369 C   0  0  0  0  0  0  0  0  0  0  0  0
    4.0458   -3.8147    0.7771 H   0  0  0  0  0  0  0  0  0  0  0  0
    4.1493   -1.9769   -0.3920 C   0  0  0  0  0  0  0  0  0  0  0  0
    4.9367   -2.3498   -1.0652 H   0  0  0  0  0  0  0  0  0  0  0  0
    3.6413   -0.6881   -0.5853 C   0  0  0  0  0  0  0  0  0  0  0  0
    4.0276   -0.0590   -1.4039 H   0  0  0  0  0  0  0  0  0  0  0  0
   -2.7385    1.5096    2.5965 C   0  0  0  0  0  0  0  0  0  0  0  0
   -3.5785    2.1545    2.2590 H   0  0  0  0  0  0  0  0  0  0  0  0
   -2.4508    1.8015    3.6225 H   0  0  0  0  0  0  0  0  0  0  0  0
   -3.0576    0.4460    2.5942 H   0  0  0  0  0  0  0  0  0  0  0  0
  1 35  1  0  0  0  0
  2 24  1  0  0  0  0
  2 14  1  0  0  0  0
  3  2  1  0  0  0  0
  4  5  1  0  0  0  0
  4 14  1  6  0  0  0
  5  1  1  0  0  0  0
  6  7  1  0  0  0  0
  6  5  2  0  0  0  0
  8  6  1  0  0  0  0
  9  8  1  0  0  0  0
 10  8  1  0  0  0  0
 10 12  1  0  0  0  0
 11 10  1  0  0  0  0
 12  4  1  0  0  0  0
 13 12  1  0  0  0  0
 14 16  1  0  0  0  0
 14 15  1  1  0  0  0
 16 17  1  0  0  0  0
 16 18  1  0  0  0  0
 19 16  1  0  0  0  0
 20 19  1  0  0  0  0
 21 19  2  0  0  0  0
 21 22  1  0  0  0  0
 23 21  1  0  0  0  0
 24 25  1  0  0  0  0
 25 27  2  0  0  0  0
 25 26  1  0  0  0  0
 27 28  1  0  0  0  0
 29 30  1  0  0  0  0
 29 27  1  0  0  0  0
 31 29  2  0  0  0  0
 32 31  1  0  0  0  0
 33 31  1  0  0  0  0
 33 24  2  0  0  0  0
 34 33  1  0  0  0  0
 35 37  1  0  0  0  0
 36 35  1  0  0  0  0
 38 35  1  0  0  0  0
M  END
