6,9
 OpenBabel05122313053D

 46 47  0  0  1  0  0  0  0  0999 V2000
   -4.3689   -1.3007   -0.3106 Si  0  0  0  0  0  0  0  0  0  0  0  0
    3.7236    0.2926   -0.2423 O   0  0  0  0  0  0  0  0  0  0  0  0
    2.7089   -1.6664    0.3153 N   0  0  0  0  0  0  0  0  0  0  0  0
    0.3600    0.0009    1.3672 C   0  0  0  0  0  0  0  0  0  0  0  0
    1.6882    0.4756    1.0202 C   0  0  0  0  0  0  0  0  0  0  0  0
    2.0110    1.8549    1.2025 C   0  0  0  0  0  3  0  0  0  0  0  0
    1.0576    2.7729    1.7310 C   0  0  0  0  0  0  0  0  0  0  0  0
   -0.2307    2.3140    2.0826 C   0  0  0  0  0  0  0  0  0  0  0  0
   -0.5618    0.9371    1.9053 C   0  0  0  0  0  3  0  0  0  0  0  0
    2.7022   -0.3805    0.3700 C   0  0  0  0  0  0  0  0  0  0  0  0
    3.8457   -2.0613   -0.5450 C   0  0  0  0  0  0  0  0  0  0  0  0
    4.6313   -0.7238   -0.7198 C   0  0  0  0  0  0  0  0  0  0  0  0
    3.2742   -2.5651   -1.8812 C   0  0  0  0  0  0  0  0  0  0  0  0
    4.6817   -3.1425    0.1450 C   0  0  0  0  0  0  0  0  0  0  0  0
   -0.0908   -1.4484    1.1772 C   0  0  2  0  0  0  0  0  0  0  0  0
   -1.4900   -1.5016    0.7573 C   0  0  0  0  0  0  0  0  0  0  0  0
   -2.6618   -1.4863    0.3754 C   0  0  0  0  0  0  0  0  0  0  0  0
   -5.2317    0.0888    0.6386 C   0  0  0  0  0  0  0  0  0  0  0  0
   -4.2102   -0.8407   -2.1357 C   0  0  0  0  0  0  0  0  0  0  0  0
   -5.3005   -2.9330   -0.1012 C   0  0  0  0  0  0  0  0  0  0  0  0
    0.1957   -2.2716    2.4527 C   0  0  0  0  0  0  0  0  0  0  0  0
    2.9977    2.2045    0.8751 H   0  0  0  0  0  0  0  0  0  0  0  0
    1.3128    3.8382    1.8123 H   0  0  0  0  0  0  0  0  0  0  0  0
   -0.9931    3.0183    2.4425 H   0  0  0  0  0  0  0  0  0  0  0  0
   -1.5850    0.5901    2.1083 H   0  0  0  0  0  0  0  0  0  0  0  0
    5.5541   -0.6874   -0.1011 H   0  0  0  0  0  0  0  0  0  0  0  0
    4.8898   -0.4926   -1.7716 H   0  0  0  0  0  0  0  0  0  0  0  0
    4.0928   -2.8538   -2.5721 H   0  0  0  0  0  0  0  0  0  0  0  0
    2.6291   -3.4494   -1.7121 H   0  0  0  0  0  0  0  0  0  0  0  0
    2.6567   -1.7819   -2.3642 H   0  0  0  0  0  0  0  0  0  0  0  0
    4.0699   -4.0499    0.3147 H   0  0  0  0  0  0  0  0  0  0  0  0
    5.5549   -3.4231   -0.4788 H   0  0  0  0  0  0  0  0  0  0  0  0
    5.0510   -2.7874    1.1276 H   0  0  0  0  0  0  0  0  0  0  0  0
    0.5384   -1.8831    0.3726 H   0  0  0  0  0  0  0  0  0  0  0  0
   -5.2785   -0.1326    1.7240 H   0  0  0  0  0  0  0  0  0  0  0  0
   -4.6842    1.0423    0.4951 H   0  0  0  0  0  0  0  0  0  0  0  0
   -6.2690    0.2289    0.2698 H   0  0  0  0  0  0  0  0  0  0  0  0
   -3.6746    0.1245   -2.2378 H   0  0  0  0  0  0  0  0  0  0  0  0
   -3.6426   -1.6119   -2.6942 H   0  0  0  0  0  0  0  0  0  0  0  0
   -5.2104   -0.7347   -2.6045 H   0  0  0  0  0  0  0  0  0  0  0  0
   -4.7847   -3.7553   -0.6372 H   0  0  0  0  0  0  0  0  0  0  0  0
   -5.3746   -3.2152    0.9685 H   0  0  0  0  0  0  0  0  0  0  0  0
   -6.3297   -2.8493   -0.5078 H   0  0  0  0  0  0  0  0  0  0  0  0
    1.2836   -2.2653    2.6568 H   0  0  0  0  0  0  0  0  0  0  0  0
   -0.3461   -1.8570    3.3259 H   0  0  0  0  0  0  0  0  0  0  0  0
   -0.1267   -3.3207    2.3078 H   0  0  0  0  0  0  0  0  0  0  0  0
  1 20  1  0  0  0  0
  1 17  1  0  0  0  0
  1 18  1  0  0  0  0
  2 10  1  0  0  0  0
  3 10  2  0  0  0  0
  4  9  1  0  0  0  0
  5  6  1  0  0  0  0
  5  4  2  0  0  0  0
  6  7  1  0  0  0  0
  7 23  1  0  0  0  0
  7  8  2  0  0  0  0
  8 24  1  0  0  0  0
  9  8  1  0  0  0  0
  9 25  1  0  0  0  0
 10  5  1  0  0  0  0
 11 14  1  0  0  0  0
 11  3  1  0  0  0  0
 12 11  1  0  0  0  0
 12  2  1  0  0  0  0
 12 26  1  0  0  0  0
 13 29  1  0  0  0  0
 13 11  1  0  0  0  0
 14 31  1  0  0  0  0
 14 33  1  0  0  0  0
 15 34  1  6  0  0  0
 15  4  1  0  0  0  0
 15 21  1  0  0  0  0
 16 15  1  0  0  0  0
 17 16  3  0  0  0  0
 18 35  1  0  0  0  0
 19  1  1  0  0  0  0
 20 42  1  0  0  0  0
 21 44  1  0  0  0  0
 21 45  1  0  0  0  0
 22  6  1  0  0  0  0
 27 12  1  0  0  0  0
 28 13  1  0  0  0  0
 30 13  1  0  0  0  0
 32 14  1  0  0  0  0
 36 18  1  0  0  0  0
 37 18  1  0  0  0  0
 38 19  1  0  0  0  0
 39 19  1  0  0  0  0
 40 19  1  0  0  0  0
 41 20  1  0  0  0  0
 43 20  1  0  0  0  0
 46 21  1  0  0  0  0
M  END
