1,8
 OpenBabel05122313053D

 16 15  0  0  0  0  0  0  0  0999 V2000
    1.0486    0.1428   -2.0574 C   0  0  0  0  0  3  0  0  0  0  0  0
    0.7618   -0.6010   -2.8239 H   0  0  0  0  0  0  0  0  0  0  0  0
    0.8628    1.1228   -2.5257 H   0  0  0  0  0  0  0  0  0  0  0  0
    2.5435    0.0301   -1.7045 C   0  0  0  0  0  0  0  0  0  0  0  0
    2.9243   -0.9961   -1.9339 H   0  0  0  0  0  0  0  0  0  0  0  0
    3.1613    0.6882   -2.3639 H   0  0  0  0  0  0  0  0  0  0  0  0
    2.8808    0.3038   -0.2513 C   0  0  0  0  0  0  0  0  0  0  0  0
    1.8982    0.2671    0.6953 C   0  0  0  0  0  3  0  0  0  0  0  0
    2.2093    0.3065    2.1732 C   0  0  0  0  0  0  0  0  0  0  0  0
    2.6422   -0.6606    2.5122 H   0  0  0  0  0  0  0  0  0  0  0  0
    1.3102    0.4780    2.7965 H   0  0  0  0  0  0  0  0  0  0  0  0
    2.9491    1.0887    2.4499 H   0  0  0  0  0  0  0  0  0  0  0  0
    4.3575    0.4414    0.0449 C   0  0  0  0  0  0  0  0  0  0  0  0
    4.5695    0.7069    1.0981 H   0  0  0  0  0  0  0  0  0  0  0  0
    4.8271    1.2113   -0.6061 H   0  0  0  0  0  0  0  0  0  0  0  0
    4.8978   -0.5092   -0.1718 H   0  0  0  0  0  0  0  0  0  0  0  0
  1  4  1  0  0  0  0
  2  1  1  0  0  0  0
  3  1  1  0  0  0  0
  4  7  1  0  0  0  0
  5  4  1  0  0  0  0
  6  4  1  0  0  0  0
  7 13  1  0  0  0  0
  7  8  2  0  0  0  0
  8  9  1  0  0  0  0
  9 12  1  0  0  0  0
  9 10  1  0  0  0  0
  9 11  1  0  0  0  0
 13 14  1  0  0  0  0
 15 13  1  0  0  0  0
 16 13  1  0  0  0  0
M  END
