17,32
 OpenBabel05122313053D

 46 51  0  0  0  0  0  0  0  0999 V2000
    2.5005   -0.9026    0.8344 C   0  0  0  0  0  0  0  0  0  0  0  0
    3.1857   -2.1049    0.6048 C   0  0  0  0  0  0  0  0  0  0  0  0
    2.6449   -3.0517    0.7547 H   0  0  0  0  0  0  0  0  0  0  0  0
    4.5685   -2.1374    0.3126 C   0  0  0  0  0  0  0  0  0  0  0  0
    5.0719   -3.1028    0.1513 H   0  0  0  0  0  0  0  0  0  0  0  0
    5.2945   -0.9577    0.3225 C   0  0  0  0  0  0  0  0  0  0  0  0
    6.3873   -0.9668    0.1874 H   0  0  0  0  0  0  0  0  0  0  0  0
    5.4137    1.4939    0.5871 C   0  0  0  0  0  0  0  0  0  0  0  0
    6.5091    1.4232    0.5005 H   0  0  0  0  0  0  0  0  0  0  0  0
    4.7892    2.7177    0.7576 C   0  0  0  0  0  0  0  0  0  0  0  0
    5.3809    3.6428    0.8315 H   0  0  0  0  0  0  0  0  0  0  0  0
    3.3776    2.7899    0.7419 C   0  0  0  0  0  0  0  0  0  0  0  0
    2.8867    3.7740    0.7188 H   0  0  0  0  0  0  0  0  0  0  0  0
    2.5651    1.6501    0.6408 C   0  0  0  0  0  0  0  0  0  0  0  0
    3.2027    0.3500    0.6633 C   0  0  0  0  0  0  0  0  0  0  0  0
    4.6451    0.2958    0.5211 C   0  0  0  0  0  0  0  0  0  0  0  0
    0.1068   -1.9262    0.8728 C   0  0  0  0  0  3  0  0  0  0  0  0
    0.3811   -2.8740    0.3808 H   0  0  0  0  0  0  0  0  0  0  0  0
    1.1367   -0.9973    1.3826 C   0  0  0  0  0  0  0  0  0  0  0  0
    0.6175   -0.2915    2.4701 C   0  0  0  0  0  0  0  0  0  0  0  0
    1.1310    0.5151    3.0071 H   0  0  0  0  0  0  0  0  0  0  0  0
   -1.6472   -0.4461    3.7551 C   0  0  0  0  0  0  0  0  0  0  0  0
   -1.4320    0.3679    4.4649 H   0  0  0  0  0  0  0  0  0  0  0  0
   -2.8510   -1.1556    3.8322 C   0  0  0  0  0  0  0  0  0  0  0  0
   -3.5890   -0.8973    4.6072 H   0  0  0  0  0  0  0  0  0  0  0  0
   -3.1278   -2.2153    2.9328 C   0  0  0  0  0  0  0  0  0  0  0  0
   -4.0693   -2.7780    3.0310 H   0  0  0  0  0  0  0  0  0  0  0  0
   -2.2138   -2.5581    1.9263 C   0  0  0  0  0  0  0  0  0  0  0  0
   -2.4384   -3.3835    1.2307 H   0  0  0  0  0  0  0  0  0  0  0  0
   -1.0024   -1.8471    1.8221 C   0  0  0  0  0  0  0  0  0  0  0  0
   -0.6980   -0.7954    2.7656 C   0  0  0  0  0  0  0  0  0  0  0  0
    0.4734    1.3748   -0.9050 C   0  0  0  0  0  3  0  0  0  0  0  0
    1.1390    1.1959   -1.7718 H   0  0  0  0  0  0  0  0  0  0  0  0
    1.1465    1.9098    0.3086 C   0  0  0  0  0  3  0  0  0  0  0  0
    0.3524    2.8990    0.8733 C   0  0  0  0  0  3  0  0  0  0  0  0
    0.5761    3.4368    1.8050 H   0  0  0  0  0  0  0  0  0  0  0  0
   -1.9059    3.9999    0.1653 C   0  0  0  0  0  0  0  0  0  0  0  0
   -1.9968    4.6567    1.0446 H   0  0  0  0  0  0  0  0  0  0  0  0
   -2.8688    4.0365   -0.8519 C   0  0  0  0  0  0  0  0  0  0  0  0
   -3.7231    4.7262   -0.7718 H   0  0  0  0  0  0  0  0  0  0  0  0
   -2.7539    3.1993   -1.9864 C   0  0  0  0  0  0  0  0  0  0  0  0
   -3.5141    3.2537   -2.7812 H   0  0  0  0  0  0  0  0  0  0  0  0
   -1.6831    2.3002   -2.1085 C   0  0  0  0  0  0  0  0  0  0  0  0
   -1.6224    1.6321   -2.9832 H   0  0  0  0  0  0  0  0  0  0  0  0
   -0.7068    2.2470   -1.0970 C   0  0  0  0  0  0  0  0  0  0  0  0
   -0.8062    3.1207    0.0426 C   0  0  0  0  0  0  0  0  0  0  0  0
  1 19  1  0  0  0  0
  2  3  1  0  0  0  0
  2  1  2  0  0  0  0
  4  6  2  0  0  0  0
  4  2  1  0  0  0  0
  5  4  1  0  0  0  0
  6 16  1  0  0  0  0
  7  6  1  0  0  0  0
  8 10  1  0  0  0  0
  9  8  1  0  0  0  0
 10 11  1  0  0  0  0
 12 10  2  0  0  0  0
 13 12  1  0  0  0  0
 14 15  2  0  0  0  0
 14 12  1  0  0  0  0
 15  1  1  0  0  0  0
 16  8  2  0  0  0  0
 16 15  1  0  0  0  0
 17 19  1  0  0  0  0
 17 30  1  0  0  0  0
 18 17  1  0  0  0  0
 19 20  2  0  0  0  0
 20 31  1  0  0  0  0
 20 21  1  0  0  0  0
 22 24  1  0  0  0  0
 22 23  1  0  0  0  0
 24 25  1  0  0  0  0
 26 27  1  0  0  0  0
 26 24  2  0  0  0  0
 28 26  1  0  0  0  0
 29 28  1  0  0  0  0
 30 28  2  0  0  0  0
 30 31  1  0  0  0  0
 31 22  2  0  0  0  0
 32 34  1  0  0  0  0
 33 32  1  0  0  0  0
 34 14  1  0  0  0  0
 34 35  1  0  0  0  0
 35 36  1  0  0  0  0
 37 38  1  0  0  0  0
 39 40  1  0  0  0  0
 39 37  2  0  0  0  0
 41 39  1  0  0  0  0
 42 41  1  0  0  0  0
 43 41  2  0  0  0  0
 43 45  1  0  0  0  0
 44 43  1  0  0  0  0
 45 32  1  0  0  0  0
 45 46  2  0  0  0  0
 46 37  1  0  0  0  0
 46 35  1  0  0  0  0
M  END
