3,26
 OpenBabel05122313053D

 48 52  0  0  1  0  0  0  0  0999 V2000
    0.8487    1.3758   -0.0100 N   0  0  0  0  0  0  0  0  0  0  0  0
   -1.3367    1.1533   -0.0063 N   0  0  0  0  0  0  0  0  0  0  0  0
   -0.1626    0.4328    0.0588 C   0  0  0  0  0  2  0  0  0  0  0  0
    0.3235    2.6728   -0.0821 C   0  0  0  0  0  0  0  0  0  0  0  0
   -1.0792    2.5282   -0.0809 C   0  0  0  0  0  0  0  0  0  0  0  0
   -1.9326    3.6349   -0.1850 C   0  0  0  0  0  0  0  0  0  0  0  0
   -1.3283    4.8977   -0.2777 C   0  0  0  0  0  0  0  0  0  0  0  0
    0.0767    5.0437   -0.2791 C   0  0  0  0  0  0  0  0  0  0  0  0
    0.9292    3.9328   -0.1869 C   0  0  0  0  0  0  0  0  0  0  0  0
    2.2620    1.1360    0.0074 C   0  0  0  0  0  0  0  0  0  0  0  0
    3.0129    1.6969    1.0538 C   0  0  0  0  0  0  0  0  0  0  0  0
    4.4063    1.5718    1.0647 C   0  0  0  0  0  0  0  0  0  0  0  0
    5.0508    0.8754    0.0306 C   0  0  0  0  0  0  0  0  0  0  0  0
    4.2946    0.3063   -1.0027 C   0  0  0  0  0  0  0  0  0  0  0  0
    2.8915    0.4282   -1.0414 C   0  0  0  0  0  0  0  0  0  0  0  0
   -2.6752    0.6466   -0.1051 C   0  0  0  0  0  0  0  0  0  0  0  0
   -3.5859    0.9023    0.9320 C   0  0  0  0  0  0  0  0  0  0  0  0
   -4.9095    0.4644    0.8070 C   0  0  0  0  0  0  0  0  0  0  0  0
   -5.3200   -0.2292   -0.3438 C   0  0  0  0  0  0  0  0  0  0  0  0
   -4.4067   -0.4669   -1.3816 C   0  0  0  0  0  0  0  0  0  0  0  0
   -3.0832   -0.0167   -1.2705 C   0  0  0  0  0  0  0  0  0  0  0  0
    0.0293   -1.8001   -1.9795 C   0  0  0  0  0  0  0  0  0  0  0  0
   -0.6883   -2.8579   -1.3552 C   0  0  0  0  0  0  0  0  0  0  0  0
   -0.0187   -3.7286   -0.4156 C   0  0  0  0  0  0  0  0  0  0  0  0
    1.3175   -3.4795   -0.0615 C   0  0  0  0  0  0  0  0  0  0  0  0
    2.0050   -2.3288   -0.6048 C   0  0  0  0  0  3  0  0  0  0  0  0
    1.3920   -1.5002   -1.5967 C   0  0  2  0  0  3  0  0  0  0  0  0
    2.0881   -0.2560   -2.1208 C   0  0  0  0  0  0  0  0  0  0  0  0
   -3.0239    3.5091   -0.1928 H   0  0  0  0  0  0  0  0  0  0  0  0
   -1.9637    5.7923   -0.3543 H   0  0  0  0  0  0  0  0  0  0  0  0
    0.5145    6.0497   -0.3573 H   0  0  0  0  0  0  0  0  0  0  0  0
    2.0224    4.0389   -0.1961 H   0  0  0  0  0  0  0  0  0  0  0  0
    2.4825    2.2078    1.8690 H   0  0  0  0  0  0  0  0  0  0  0  0
    4.9872    2.0029    1.8932 H   0  0  0  0  0  0  0  0  0  0  0  0
    6.1458    0.7679    0.0326 H   0  0  0  0  0  0  0  0  0  0  0  0
    4.7977   -0.2485   -1.8103 H   0  0  0  0  0  0  0  0  0  0  0  0
   -3.2357    1.4062    1.8434 H   0  0  0  0  0  0  0  0  0  0  0  0
   -5.6215    0.6462    1.6257 H   0  0  0  0  0  0  0  0  0  0  0  0
   -6.3580   -0.5834   -0.4321 H   0  0  0  0  0  0  0  0  0  0  0  0
   -4.7274   -0.9992   -2.2898 H   0  0  0  0  0  0  0  0  0  0  0  0
   -2.3595   -0.1777   -2.0803 H   0  0  0  0  0  0  0  0  0  0  0  0
   -0.4874   -1.1331   -2.6865 H   0  0  0  0  0  0  0  0  0  0  0  0
   -1.7610   -2.9871   -1.5559 H   0  0  0  0  0  0  0  0  0  0  0  0
   -0.5965   -4.4979    0.1147 H   0  0  0  0  0  0  0  0  0  0  0  0
    1.7915   -4.0570    0.7441 H   0  0  0  0  0  0  0  0  0  0  0  0
    2.9919   -2.0533   -0.2069 H   0  0  0  0  0  0  0  0  0  0  0  0
    2.7537   -0.5228   -2.9685 H   0  0  0  0  0  0  0  0  0  0  0  0
    1.3151    0.4313   -2.5231 H   0  0  0  0  0  0  0  0  0  0  0  0
  1 10  1  0  0  0  0
  1  3  1  0  0  0  0
  2  3  1  0  0  0  0
  4  5  1  0  0  0  0
  4  1  1  0  0  0  0
  5  2  1  0  0  0  0
  6  5  2  0  0  0  0
  7  6  1  0  0  0  0
  8  7  2  0  0  0  0
  8  9  1  0  0  0  0
  9  4  2  0  0  0  0
 10 11  1  0  0  0  0
 11 12  2  0  0  0  0
 11 33  1  0  0  0  0
 12 34  1  0  0  0  0
 13 35  1  0  0  0  0
 13 12  1  0  0  0  0
 14 13  2  0  0  0  0
 15 14  1  0  0  0  0
 15 10  2  0  0  0  0
 16  2  1  0  0  0  0
 16 17  1  0  0  0  0
 17 37  1  0  0  0  0
 18 17  2  0  0  0  0
 18 38  1  0  0  0  0
 19 18  1  0  0  0  0
 20 21  1  0  0  0  0
 20 19  2  0  0  0  0
 21 16  2  0  0  0  0
 22 27  1  0  0  0  0
 22 23  2  0  0  0  0
 23 24  1  0  0  0  0
 24 25  2  0  0  0  0
 24 44  1  0  0  0  0
 25 45  1  0  0  0  0
 26 46  1  0  0  0  0
 26 25  1  0  0  0  0
 27 28  1  1  0  0  0
 27 26  1  0  0  0  0
 28 15  1  0  0  0  0
 29  6  1  0  0  0  0
 30  7  1  0  0  0  0
 31  8  1  0  0  0  0
 32  9  1  0  0  0  0
 36 14  1  0  0  0  0
 39 19  1  0  0  0  0
 40 20  1  0  0  0  0
 41 21  1  0  0  0  0
 42 22  1  0  0  0  0
 43 23  1  0  0  0  0
 47 28  1  0  0  0  0
 48 28  1  0  0  0  0
M  END
