10,12
 OpenBabel05122313053D

 28 31  0  0  1  0  0  0  0  0999 V2000
   -1.6528    1.3335    1.0470 O   0  0  0  0  0  0  0  0  0  0  0  0
   -2.4689    1.4617   -1.0739 O   0  0  0  0  0  0  0  0  0  0  0  0
   -1.3881   -1.4838    0.8490 O   0  0  0  0  0  0  0  0  0  0  0  0
   -2.5448   -1.3169   -1.1049 O   0  0  0  0  0  0  0  0  0  0  0  0
   -1.5093    0.8382   -0.2628 C   0  0  0  0  0  0  0  0  0  0  0  0
   -1.4680   -0.7844   -0.3597 C   0  0  0  0  0  0  0  0  0  0  0  0
   -0.1307   -0.5998   -1.0732 C   0  0  0  0  0  0  0  0  0  0  0  0
    0.9696   -1.2942   -1.6499 C   0  0  0  0  0  0  0  0  0  0  0  0
    2.0379   -0.4877   -2.1336 C   0  0  0  0  0  3  0  0  0  0  0  0
    2.0291    0.9428   -1.9789 C   0  0  0  0  0  3  0  0  0  0  0  0
    0.9484    1.6264   -1.3544 C   0  0  0  0  0  3  0  0  0  0  0  0
   -0.1336    0.8091   -0.9231 C   0  0  1  0  0  3  0  0  0  0  0  0
   -2.7754    2.2183    1.0657 C   0  0  0  0  0  0  0  0  0  0  0  0
   -3.5354    1.8116   -0.1974 C   0  0  0  0  0  0  0  0  0  0  0  0
   -2.6928   -1.9982    1.0929 C   0  0  0  0  0  0  0  0  0  0  0  0
   -3.1530   -2.3465   -0.3219 C   0  0  0  0  0  0  0  0  0  0  0  0
    1.0144   -2.3897   -1.7125 H   0  0  0  0  0  0  0  0  0  0  0  0
    2.9278   -0.9670   -2.5648 H   0  0  0  0  0  0  0  0  0  0  0  0
    2.9129    1.5113   -2.3014 H   0  0  0  0  0  0  0  0  0  0  0  0
    0.9759    2.7126   -1.1987 H   0  0  0  0  0  0  0  0  0  0  0  0
   -2.4375    3.2787    1.0182 H   0  0  0  0  0  0  0  0  0  0  0  0
   -3.3436    2.0620    2.0046 H   0  0  0  0  0  0  0  0  0  0  0  0
   -4.1248    2.6242   -0.6635 H   0  0  0  0  0  0  0  0  0  0  0  0
   -4.1997    0.9347   -0.0103 H   0  0  0  0  0  0  0  0  0  0  0  0
   -3.3465   -1.2214    1.5560 H   0  0  0  0  0  0  0  0  0  0  0  0
   -2.6079   -2.8622    1.7791 H   0  0  0  0  0  0  0  0  0  0  0  0
   -2.7826   -3.3501   -0.6346 H   0  0  0  0  0  0  0  0  0  0  0  0
   -4.2517   -2.3064   -0.4640 H   0  0  0  0  0  0  0  0  0  0  0  0
  1 13  1  0  0  0  0
  2  5  1  0  0  0  0
  2 14  1  0  0  0  0
  3 15  1  0  0  0  0
  4  6  1  0  0  0  0
  4 16  1  0  0  0  0
  5  1  1  0  0  0  0
  6  5  1  0  0  0  0
  6  3  1  0  0  0  0
  7 12  1  0  0  0  0
  7  6  1  0  0  0  0
  8  7  2  0  0  0  0
  9 10  1  0  0  0  0
  9  8  1  0  0  0  0
 10 11  1  0  0  0  0
 11 20  1  0  0  0  0
 12 11  1  6  0  0  0
 12  5  1  0  0  0  0
 13 22  1  0  0  0  0
 14 24  1  0  0  0  0
 14 13  1  0  0  0  0
 15 25  1  0  0  0  0
 15 26  1  0  0  0  0
 16 15  1  0  0  0  0
 17  8  1  0  0  0  0
 18  9  1  0  0  0  0
 19 10  1  0  0  0  0
 21 13  1  0  0  0  0
 23 14  1  0  0  0  0
 27 16  1  0  0  0  0
 28 16  1  0  0  0  0
M  END
