1,5
 OpenBabel05122313053D

 44 44  0  0  0  0  0  0  0  0999 V2000
    0.9586   -1.1010    0.2211 C   0  0  0  0  0  3  0  0  0  0  0  0
    1.3108    0.2431    0.1096 C   0  0  0  0  0  0  0  0  0  0  0  0
    0.3097    1.3456    0.0175 C   0  0  0  0  0  0  0  0  0  0  0  0
    0.7770    2.3519    0.0095 H   0  0  0  0  0  0  0  0  0  0  0  0
   -1.0570    1.2268   -0.0487 C   0  0  0  0  0  3  0  0  0  0  0  0
    2.6655    0.7196    0.0448 C   0  0  0  0  0  0  0  0  0  0  0  0
    3.8027    1.1806   -0.0484 C   0  0  0  0  0  0  0  0  0  0  0  0
   -1.9567    2.3855   -0.0128 C   0  0  0  0  0  0  0  0  0  0  0  0
   -1.5705    3.6354    0.5410 C   0  0  0  0  0  0  0  0  0  0  0  0
   -0.5614    3.7439    0.9666 H   0  0  0  0  0  0  0  0  0  0  0  0
   -2.4538    4.7202    0.5796 C   0  0  0  0  0  0  0  0  0  0  0  0
   -2.1251    5.6741    1.0210 H   0  0  0  0  0  0  0  0  0  0  0  0
   -3.7588    4.5960    0.0712 C   0  0  0  0  0  0  0  0  0  0  0  0
   -4.4535    5.4488    0.1068 H   0  0  0  0  0  0  0  0  0  0  0  0
   -4.1697    3.3668   -0.4681 C   0  0  0  0  0  0  0  0  0  0  0  0
   -5.1913    3.2517   -0.8626 H   0  0  0  0  0  0  0  0  0  0  0  0
   -3.2851    2.2802   -0.5012 C   0  0  0  0  0  0  0  0  0  0  0  0
   -3.6196    1.3184   -0.9180 H   0  0  0  0  0  0  0  0  0  0  0  0
    5.1898    1.6639   -0.1459 C   0  0  0  0  0  0  0  0  0  0  0  0
    5.2536    3.1479    0.2830 C   0  0  0  0  0  0  0  0  0  0  0  0
    4.6133    3.7753   -0.3682 H   0  0  0  0  0  0  0  0  0  0  0  0
    6.2958    3.5223    0.2131 H   0  0  0  0  0  0  0  0  0  0  0  0
    4.9074    3.2726    1.3280 H   0  0  0  0  0  0  0  0  0  0  0  0
    6.0866    0.8114    0.7830 C   0  0  0  0  0  0  0  0  0  0  0  0
    5.7559    0.8940    1.8373 H   0  0  0  0  0  0  0  0  0  0  0  0
    7.1399    1.1547    0.7195 H   0  0  0  0  0  0  0  0  0  0  0  0
    6.0509   -0.2582    0.4953 H   0  0  0  0  0  0  0  0  0  0  0  0
    5.6757    1.5225   -1.6083 C   0  0  0  0  0  0  0  0  0  0  0  0
    5.0436    2.1197   -2.2948 H   0  0  0  0  0  0  0  0  0  0  0  0
    5.6364    0.4650   -1.9374 H   0  0  0  0  0  0  0  0  0  0  0  0
    6.7232    1.8776   -1.6992 H   0  0  0  0  0  0  0  0  0  0  0  0
    1.9761   -2.2370    0.3622 C   0  0  0  0  0  0  0  0  0  0  0  0
    1.2612   -3.5805    0.6246 C   0  0  0  0  0  0  0  0  0  0  0  0
    0.7583   -3.5823    1.6113 H   0  0  0  0  0  0  0  0  0  0  0  0
    1.9902   -4.4172    0.6227 H   0  0  0  0  0  0  0  0  0  0  0  0
    0.4944   -3.7980   -0.1451 H   0  0  0  0  0  0  0  0  0  0  0  0
    2.7935   -2.3664   -0.9461 C   0  0  0  0  0  0  0  0  0  0  0  0
    2.1321   -2.5867   -1.8084 H   0  0  0  0  0  0  0  0  0  0  0  0
    3.5298   -3.1936   -0.8628 H   0  0  0  0  0  0  0  0  0  0  0  0
    3.3438   -1.4317   -1.1675 H   0  0  0  0  0  0  0  0  0  0  0  0
    2.9321   -1.9953    1.5545 C   0  0  0  0  0  0  0  0  0  0  0  0
    2.3596   -1.8899    2.4990 H   0  0  0  0  0  0  0  0  0  0  0  0
    3.5375   -1.0805    1.4203 H   0  0  0  0  0  0  0  0  0  0  0  0
    3.6236   -2.8564    1.6711 H   0  0  0  0  0  0  0  0  0  0  0  0
  1 32  1  0  0  0  0
  2  1  2  0  0  0  0
  3  2  1  0  0  0  0
  4  3  1  0  0  0  0
  5  8  1  0  0  0  0
  5  3  2  0  0  0  0
  6  2  1  0  0  0  0
  7  6  3  0  0  0  0
  8  9  1  0  0  0  0
  9 11  2  0  0  0  0
  9 10  1  0  0  0  0
 11 12  1  0  0  0  0
 13 14  1  0  0  0  0
 13 11  1  0  0  0  0
 15 13  2  0  0  0  0
 16 15  1  0  0  0  0
 17 15  1  0  0  0  0
 17  8  2  0  0  0  0
 18 17  1  0  0  0  0
 19  7  1  0  0  0  0
 19 20  1  0  0  0  0
 19 24  1  0  0  0  0
 20 23  1  0  0  0  0
 21 20  1  0  0  0  0
 22 20  1  0  0  0  0
 24 25  1  0  0  0  0
 26 24  1  0  0  0  0
 27 24  1  0  0  0  0
 28 19  1  0  0  0  0
 29 28  1  0  0  0  0
 30 28  1  0  0  0  0
 31 28  1  0  0  0  0
 32 33  1  0  0  0  0
 32 41  1  0  0  0  0
 33 34  1  0  0  0  0
 35 33  1  0  0  0  0
 36 33  1  0  0  0  0
 37 39  1  0  0  0  0
 37 32  1  0  0  0  0
 38 37  1  0  0  0  0
 40 37  1  0  0  0  0
 41 44  1  0  0  0  0
 41 42  1  0  0  0  0
 43 41  1  0  0  0  0
M  END
