2,4
 OpenBabel05122313053D

 39 39  0  0  1  0  0  0  0  0999 V2000
    1.8727    0.3191    0.6195 C   0  0  0  0  0  0  0  0  0  0  0  0
    0.7057    0.6219    0.0245 C   0  0  0  0  0  3  0  0  0  0  0  0
    0.1590    0.7442   -1.2931 C   0  0  1  0  0  3  0  0  0  0  0  0
   -1.0762    0.0441   -1.4400 C   0  0  0  0  0  3  0  0  0  0  0  0
   -1.4987   -0.8232   -0.3809 C   0  0  0  0  0  3  0  0  0  0  0  0
   -2.8267   -1.4561   -0.3019 C   0  0  0  0  0  0  0  0  0  0  0  0
   -3.9142   -1.0866   -1.1282 C   0  0  0  0  0  0  0  0  0  0  0  0
   -5.1515   -1.7327   -1.0164 C   0  0  0  0  0  0  0  0  0  0  0  0
   -5.3364   -2.7560   -0.0721 C   0  0  0  0  0  0  0  0  0  0  0  0
   -4.2686   -3.1307    0.7594 C   0  0  0  0  0  0  0  0  0  0  0  0
   -3.0299   -2.4889    0.6435 C   0  0  0  0  0  0  0  0  0  0  0  0
    3.0088   -0.2266   -0.1685 C   0  0  0  0  0  0  0  0  0  0  0  0
    3.0025   -0.4150   -1.3795 O   0  0  0  0  0  0  0  0  0  0  0  0
    4.0527   -0.4837    0.6579 O   0  0  0  0  0  0  0  0  0  0  0  0
    5.3198   -1.0331    0.1449 C   0  0  0  0  0  0  0  0  0  0  0  0
    5.0749   -2.4103   -0.4821 C   0  0  0  0  0  0  0  0  0  0  0  0
    6.1740   -1.1534    1.4089 C   0  0  0  0  0  0  0  0  0  0  0  0
    5.9501   -0.0497   -0.8480 C   0  0  0  0  0  0  0  0  0  0  0  0
    0.7543    1.6075   -2.3698 C   0  0  0  0  0  0  0  0  0  0  0  0
    2.0227    0.4433    1.7025 H   0  0  0  0  0  0  0  0  0  0  0  0
   -1.7010    0.2315   -2.3278 H   0  0  0  0  0  0  0  0  0  0  0  0
   -0.7041   -1.3663    0.1550 H   0  0  0  0  0  0  0  0  0  0  0  0
   -3.7988   -0.2794   -1.8663 H   0  0  0  0  0  0  0  0  0  0  0  0
   -5.9830   -1.4303   -1.6710 H   0  0  0  0  0  0  0  0  0  0  0  0
   -6.3116   -3.2580    0.0166 H   0  0  0  0  0  0  0  0  0  0  0  0
   -4.4023   -3.9302    1.5038 H   0  0  0  0  0  0  0  0  0  0  0  0
   -2.1945   -2.7834    1.2981 H   0  0  0  0  0  0  0  0  0  0  0  0
    6.0441   -2.8682   -0.7641 H   0  0  0  0  0  0  0  0  0  0  0  0
    4.4426   -2.3270   -1.3843 H   0  0  0  0  0  0  0  0  0  0  0  0
    4.5762   -3.0810    0.2459 H   0  0  0  0  0  0  0  0  0  0  0  0
    7.1725   -1.5625    1.1588 H   0  0  0  0  0  0  0  0  0  0  0  0
    5.6901   -1.8277    2.1426 H   0  0  0  0  0  0  0  0  0  0  0  0
    6.3078   -0.1617    1.8839 H   0  0  0  0  0  0  0  0  0  0  0  0
    6.9552   -0.4117   -1.1429 H   0  0  0  0  0  0  0  0  0  0  0  0
    6.0672    0.9479   -0.3794 H   0  0  0  0  0  0  0  0  0  0  0  0
    5.3264    0.0507   -1.7545 H   0  0  0  0  0  0  0  0  0  0  0  0
    1.5439    1.0212   -2.8823 H   0  0  0  0  0  0  0  0  0  0  0  0
    1.2400    2.5043   -1.9409 H   0  0  0  0  0  0  0  0  0  0  0  0
   -0.0097    1.9266   -3.1057 H   0  0  0  0  0  0  0  0  0  0  0  0
  1 20  1  0  0  0  0
  2  1  2  0  0  0  0
  3  2  1  1  0  0  0
  4  3  1  0  0  0  0
  4  5  1  0  0  0  0
  5  6  1  0  0  0  0
  5 22  1  0  0  0  0
  6 11  1  0  0  0  0
  7  8  1  0  0  0  0
  7  6  2  0  0  0  0
  8  9  2  0  0  0  0
  9 25  1  0  0  0  0
  9 10  1  0  0  0  0
 10 26  1  0  0  0  0
 11 10  2  0  0  0  0
 11 27  1  0  0  0  0
 12  1  1  0  0  0  0
 12 14  1  0  0  0  0
 13 12  2  0  0  0  0
 15 14  1  0  0  0  0
 15 17  1  0  0  0  0
 16 15  1  0  0  0  0
 16 30  1  0  0  0  0
 17 33  1  0  0  0  0
 17 32  1  0  0  0  0
 18 35  1  0  0  0  0
 18 15  1  0  0  0  0
 19 38  1  0  0  0  0
 19  3  1  0  0  0  0
 21  4  1  0  0  0  0
 23  7  1  0  0  0  0
 24  8  1  0  0  0  0
 28 16  1  0  0  0  0
 29 16  1  0  0  0  0
 31 17  1  0  0  0  0
 34 18  1  0  0  0  0
 36 18  1  0  0  0  0
 37 19  1  0  0  0  0
 39 19  1  0  0  0  0
M  END
