19,22
 OpenBabel05122313053D

 43 48  0  0  1  0  0  0  0  0999 V2000
   -2.3951   -0.8171   -1.4560 B   0  0  0  0  0  2  0  0  0  0  0  0
   -4.0173   -0.8064   -0.7287 B   0  0  2  0  0  0  0  0  0  0  0  0
   -3.8079   -0.8323    1.0396 B   0  0  0  0  0  0  0  0  0  0  0  0
   -1.5952   -2.3389   -1.0333 B   0  0  1  0  0  0  0  0  0  0  0  0
   -3.3392   -2.3119   -1.3917 B   0  0  2  0  0  0  0  0  0  0  0  0
   -4.2132   -2.3343    0.1689 B   0  0  0  0  0  0  0  0  0  0  0  0
   -1.3817   -2.3600    0.7256 B   0  0  2  0  0  0  0  0  0  0  0  0
   -2.7139   -3.2807   -0.0222 B   0  0  2  0  0  0  0  0  0  0  0  0
   -2.7146    0.0025    0.0285 C   0  0  1  0  0  0  0  0  0  0  0  0
   -1.2774   -0.9053   -0.1538 C   0  0  2  0  0  0  0  0  0  0  0  0
   -2.6364    1.5074    0.0357 C   0  0  0  0  0  0  0  0  0  0  0  0
   -2.4083    2.2139    1.2352 C   0  0  0  0  0  0  0  0  0  0  0  0
   -2.3488    3.6141    1.2379 C   0  0  0  0  0  0  0  0  0  0  0  0
   -2.5214    4.3322    0.0450 C   0  0  0  0  0  0  0  0  0  0  0  0
   -2.7689    3.6393   -1.1495 C   0  0  0  0  0  0  0  0  0  0  0  0
   -2.8292    2.2392   -1.1551 C   0  0  0  0  0  0  0  0  0  0  0  0
    0.0079   -0.0614   -0.3444 C   0  0  1  0  0  0  0  0  0  0  0  0
    0.7430    0.3619    0.9076 C   0  0  0  0  0  3  0  0  0  0  0  0
    1.5218   -0.4391    1.7511 C   0  0  0  0  0  3  0  0  0  0  0  0
    2.2390   -1.6358    1.4252 C   0  0  0  0  0  0  0  0  0  0  0  0
    2.3952   -2.2127    0.1450 C   0  0  0  0  0  0  0  0  0  0  0  0
    1.8769   -1.7180   -1.0954 C   0  0  0  0  0  3  0  0  0  0  0  0
    1.0220   -0.6304   -1.3105 C   0  0  0  0  0  3  0  0  0  0  0  0
   -2.0627   -0.1658   -2.4106 H   0  0  0  0  0  0  0  0  0  0  0  0
   -4.8660   -0.1141   -1.2320 H   0  0  0  0  0  0  0  0  0  0  0  0
   -4.5105   -0.1572    1.7491 H   0  0  0  0  0  0  0  0  0  0  0  0
   -0.7345   -2.7435   -1.7703 H   0  0  0  0  0  0  0  0  0  0  0  0
   -3.7708   -2.7919   -2.4123 H   0  0  0  0  0  0  0  0  0  0  0  0
   -5.3046   -2.8375    0.2905 H   0  0  0  0  0  0  0  0  0  0  0  0
   -0.3721   -2.7788    1.2278 H   0  0  0  0  0  0  0  0  0  0  0  0
   -2.6889   -4.4883   -0.0433 H   0  0  0  0  0  0  0  0  0  0  0  0
   -2.2882    1.6617    2.1763 H   0  0  0  0  0  0  0  0  0  0  0  0
   -2.1705    4.1470    2.1838 H   0  0  0  0  0  0  0  0  0  0  0  0
   -2.4711    5.4312    0.0477 H   0  0  0  0  0  0  0  0  0  0  0  0
   -2.9199    4.1917   -2.0888 H   0  0  0  0  0  0  0  0  0  0  0  0
   -3.0356    1.7074   -2.0931 H   0  0  0  0  0  0  0  0  0  0  0  0
   -0.3461    0.8806   -0.8070 H   0  0  0  0  0  0  0  0  0  0  0  0
    0.4579    1.3424    1.3179 H   0  0  0  0  0  0  0  0  0  0  0  0
    1.7487   -0.0215    2.7452 H   0  0  0  0  0  0  0  0  0  0  0  0
    2.8403   -2.0771    2.2343 H   0  0  0  0  0  0  0  0  0  0  0  0
    3.1050   -3.0505    0.0730 H   0  0  0  0  0  0  0  0  0  0  0  0
    2.3381   -2.1566   -1.9948 H   0  0  0  0  0  0  0  0  0  0  0  0
    0.9175   -0.3164   -2.3600 H   0  0  0  0  0  0  0  0  0  0  0  0
  1  5  1  0  0  0  0
  2 25  1  6  0  0  0
  2  9  1  0  0  0  0
  2  3  1  0  0  0  0
  3 26  1  0  0  0  0
  4 27  1  6  0  0  0
  4 10  1  0  0  0  0
  4  8  1  0  0  0  0
  4  7  1  0  0  0  0
  5 28  1  6  0  0  0
  5  2  1  0  0  0  0
  5  6  1  0  0  0  0
  6 29  1  0  0  0  0
  7 30  1  1  0  0  0
  8 31  1  6  0  0  0
  8  6  1  0  0  0  0
  8  7  1  0  0  0  0
  9 11  1  1  0  0  0
  9  3  1  0  0  0  0
 10 17  1  6  0  0  0
 10  9  1  0  0  0  0
 10  7  1  0  0  0  0
 11 12  1  0  0  0  0
 12 13  2  0  0  0  0
 12 32  1  0  0  0  0
 13 33  1  0  0  0  0
 14 34  1  0  0  0  0
 14 13  1  0  0  0  0
 15 14  2  0  0  0  0
 16 15  1  0  0  0  0
 16 11  2  0  0  0  0
 17 37  1  6  0  0  0
 17 18  1  0  0  0  0
 18 38  1  0  0  0  0
 18 19  1  0  0  0  0
 19 39  1  0  0  0  0
 20 19  1  0  0  0  0
 20 40  1  0  0  0  0
 21 20  2  0  0  0  0
 22 21  1  0  0  0  0
 23 22  1  0  0  0  0
 23 17  1  0  0  0  0
 24  1  1  0  0  0  0
 35 15  1  0  0  0  0
 36 16  1  0  0  0  0
 41 21  1  0  0  0  0
 42 22  1  0  0  0  0
 43 23  1  0  0  0  0
M  END
