1,7
 OpenBabel05122313053D

 16 16  0  0  0  0  0  0  0  0999 V2000
   -1.2927    0.2055   -0.2864 C   0  0  0  0  0  3  0  0  0  0  0  0
   -2.0656   -0.3680    0.7620 C   0  0  0  0  0  0  0  0  0  0  0  0
   -3.4727   -0.3047    0.7156 C   0  0  0  0  0  0  0  0  0  0  0  0
   -4.1315    0.2883   -0.3720 C   0  0  0  0  0  0  0  0  0  0  0  0
   -3.3790    0.8233   -1.4297 C   0  0  0  0  0  0  0  0  0  0  0  0
   -1.9747    0.7817   -1.3771 C   0  0  0  0  0  0  0  0  0  0  0  0
    0.0701   -0.5222    2.1004 C   0  0  0  0  0  3  0  0  0  0  0  0
   -1.3352   -1.0951    1.8754 C   0  0  0  0  0  0  0  0  0  0  0  0
   -4.0592   -0.7338    1.5457 H   0  0  0  0  0  0  0  0  0  0  0  0
   -5.2315    0.3318   -0.3951 H   0  0  0  0  0  0  0  0  0  0  0  0
   -3.8858    1.2823   -2.2936 H   0  0  0  0  0  0  0  0  0  0  0  0
   -1.4069    1.2128   -2.2208 H   0  0  0  0  0  0  0  0  0  0  0  0
   -0.0121    0.4161    2.6824 H   0  0  0  0  0  0  0  0  0  0  0  0
    0.7175   -1.2084    2.6859 H   0  0  0  0  0  0  0  0  0  0  0  0
   -1.9435   -1.0802    2.8100 H   0  0  0  0  0  0  0  0  0  0  0  0
   -1.2753   -2.1737    1.5968 H   0  0  0  0  0  0  0  0  0  0  0  0
  1  2  1  0  0  0  0
  2  8  1  0  0  0  0
  3  2  2  0  0  0  0
  3  9  1  0  0  0  0
  4  3  1  0  0  0  0
  5  6  1  0  0  0  0
  5  4  2  0  0  0  0
  6  1  2  0  0  0  0
  7 13  1  0  0  0  0
  7 14  1  0  0  0  0
  8  7  1  0  0  0  0
  8 15  1  0  0  0  0
 10  4  1  0  0  0  0
 11  5  1  0  0  0  0
 12  6  1  0  0  0  0
 16  8  1  0  0  0  0
M  END
