5,7
 OpenBabel05122313053D

 42 45  0  0  1  0  0  0  0  0999 V2000
    0.3593    1.2800   -0.3559 C   0  0  0  0  0  0  0  0  0  0  0  0
    1.1762    2.0525    0.5156 C   0  0  0  0  0  0  0  0  0  0  0  0
    2.3672    2.4112   -0.1850 C   0  0  0  0  0  0  0  0  0  0  0  0
    2.2826    1.8864   -1.4988 C   0  0  0  0  0  0  0  0  0  0  0  0
    1.0685    1.1568   -1.6054 C   0  0  0  0  0  3  0  0  0  0  0  0
    0.3406   -1.3513    0.0799 C   0  0  0  0  0  0  0  0  0  0  0  0
    1.0421   -1.5041    1.3141 C   0  0  0  0  0  3  0  0  0  0  0  0
    2.2712   -2.1851    1.0496 C   0  0  0  0  0  0  0  0  0  0  0  0
    2.3419   -2.4342   -0.3405 C   0  0  0  0  0  0  0  0  0  0  0  0
    1.1696   -1.9029   -0.9502 C   0  0  0  0  0  0  0  0  0  0  0  0
   -0.9710    0.6731   -0.0946 C   0  0  1  0  0  3  0  0  0  0  0  0
   -2.1172    1.5922    0.0754 C   0  0  0  0  0  0  0  0  0  0  0  0
   -2.1540    2.8215   -0.6235 C   0  0  0  0  0  0  0  0  0  0  0  0
   -3.2216    3.7134   -0.4513 C   0  0  0  0  0  0  0  0  0  0  0  0
   -4.2636    3.4033    0.4363 C   0  0  0  0  0  0  0  0  0  0  0  0
   -4.2259    2.1967    1.1571 C   0  0  0  0  0  0  0  0  0  0  0  0
   -3.1650    1.3018    0.9819 C   0  0  0  0  0  0  0  0  0  0  0  0
   -0.9908   -0.6999   -0.0590 C   0  0  2  0  0  3  0  0  0  0  0  0
   -2.1734   -1.5843   -0.1398 C   0  0  0  0  0  0  0  0  0  0  0  0
   -3.2897   -1.2461   -0.9432 C   0  0  0  0  0  0  0  0  0  0  0  0
   -4.3886   -2.1062   -1.0392 C   0  0  0  0  0  0  0  0  0  0  0  0
   -4.3984   -3.3272   -0.3420 C   0  0  0  0  0  0  0  0  0  0  0  0
   -3.2904   -3.6857    0.4410 C   0  0  0  0  0  0  0  0  0  0  0  0
   -2.1855   -2.8281    0.5345 C   0  0  0  0  0  0  0  0  0  0  0  0
    0.9525    2.2766    1.5643 H   0  0  0  0  0  0  0  0  0  0  0  0
    3.2242    2.9428    0.2424 H   0  0  0  0  0  0  0  0  0  0  0  0
    3.0558    1.9595   -2.2698 H   0  0  0  0  0  0  0  0  0  0  0  0
    0.6972    0.6248   -2.4888 H   0  0  0  0  0  0  0  0  0  0  0  0
    0.7001   -1.1346    2.2875 H   0  0  0  0  0  0  0  0  0  0  0  0
    3.0512   -2.4035    1.7861 H   0  0  0  0  0  0  0  0  0  0  0  0
    3.1907   -2.8789   -0.8695 H   0  0  0  0  0  0  0  0  0  0  0  0
    0.9314   -1.9160   -2.0200 H   0  0  0  0  0  0  0  0  0  0  0  0
   -1.3360    3.0695   -1.3168 H   0  0  0  0  0  0  0  0  0  0  0  0
   -3.2373    4.6602   -1.0121 H   0  0  0  0  0  0  0  0  0  0  0  0
   -5.0991    4.1056    0.5766 H   0  0  0  0  0  0  0  0  0  0  0  0
   -5.0283    1.9561    1.8711 H   0  0  0  0  0  0  0  0  0  0  0  0
   -3.1321    0.3668    1.5594 H   0  0  0  0  0  0  0  0  0  0  0  0
   -3.2816   -0.3008   -1.5044 H   0  0  0  0  0  0  0  0  0  0  0  0
   -5.2441   -1.8266   -1.6728 H   0  0  0  0  0  0  0  0  0  0  0  0
   -5.2641   -4.0021   -0.4195 H   0  0  0  0  0  0  0  0  0  0  0  0
   -3.2834   -4.6442    0.9820 H   0  0  0  0  0  0  0  0  0  0  0  0
   -1.3177   -3.1163    1.1466 H   0  0  0  0  0  0  0  0  0  0  0  0
  1 11  1  0  0  0  0
  1  2  2  0  0  0  0
  2 25  1  0  0  0  0
  3 26  1  0  0  0  0
  3  2  1  0  0  0  0
  4  3  2  0  0  0  0
  5  4  1  0  0  0  0
  5  1  1  0  0  0  0
  6  7  1  0  0  0  0
  7 29  1  0  0  0  0
  8  7  1  0  0  0  0
  8 30  1  0  0  0  0
  9  8  2  0  0  0  0
 10  9  1  0  0  0  0
 10  6  2  0  0  0  0
 11 18  1  6  0  0  0
 11 12  1  0  0  0  0
 12 17  1  0  0  0  0
 13 14  1  0  0  0  0
 13 12  2  0  0  0  0
 14 15  2  0  0  0  0
 15 35  1  0  0  0  0
 15 16  1  0  0  0  0
 16 36  1  0  0  0  0
 17 16  2  0  0  0  0
 17 37  1  0  0  0  0
 18 19  1  1  0  0  0
 18  6  1  0  0  0  0
 19 24  1  0  0  0  0
 20 19  2  0  0  0  0
 21 20  1  0  0  0  0
 21 22  2  0  0  0  0
 22 23  1  0  0  0  0
 23 24  2  0  0  0  0
 23 41  1  0  0  0  0
 24 42  1  0  0  0  0
 27  4  1  0  0  0  0
 28  5  1  0  0  0  0
 31  9  1  0  0  0  0
 32 10  1  0  0  0  0
 33 13  1  0  0  0  0
 34 14  1  0  0  0  0
 38 20  1  0  0  0  0
 39 21  1  0  0  0  0
 40 22  1  0  0  0  0
M  END
