5,9
 OpenBabel05122313053D

 28 27  0  0  0  0  0  0  0  0999 V2000
   -0.8869    0.9992   -0.4252 P   0  0  0  0  0  0  0  0  0  0  0  0
   -1.7430    1.4468    0.9043 O   0  0  0  0  0  0  0  0  0  0  0  0
   -1.1173    1.0663    2.1461 C   0  0  0  0  0  0  0  0  0  0  0  0
   -0.2802   -0.1913    1.9931 C   0  0  0  0  0  3  0  0  0  0  0  0
    1.0954   -0.2164    2.3339 C   0  0  0  0  0  3  0  0  0  0  0  0
   -0.4289    2.3473   -1.2290 O   0  0  0  0  0  0  0  0  0  0  0  0
    0.9676    2.6405   -1.0023 C   0  0  0  0  0  0  0  0  0  0  0  0
    1.4662    1.9137    0.2286 C   0  0  0  0  0  3  0  0  0  0  0  0
    2.6399    1.1266    0.2343 C   0  0  0  0  0  3  0  0  0  0  0  0
   -2.0488    0.5053   -1.4386 O   0  0  0  0  0  0  0  0  0  0  0  0
   -3.3338   -0.0236   -0.9792 C   0  0  0  0  0  0  0  0  0  0  0  0
   -3.2133   -1.4126   -0.4307 C   0  0  0  0  0  0  0  0  0  0  0  0
   -3.5384   -1.7453    0.8314 C   0  0  0  0  0  0  0  0  0  0  0  0
   -1.9432    0.8970    2.8656 H   0  0  0  0  0  0  0  0  0  0  0  0
   -0.5080    1.9144    2.5236 H   0  0  0  0  0  0  0  0  0  0  0  0
   -0.8585   -1.1306    2.0314 H   0  0  0  0  0  0  0  0  0  0  0  0
    1.5621   -1.1443    2.6965 H   0  0  0  0  0  0  0  0  0  0  0  0
    1.5734    0.7048    2.7082 H   0  0  0  0  0  0  0  0  0  0  0  0
    1.0425    3.7387   -0.8674 H   0  0  0  0  0  0  0  0  0  0  0  0
    1.5450    2.3523   -1.9052 H   0  0  0  0  0  0  0  0  0  0  0  0
    1.1472    2.3644    1.1858 H   0  0  0  0  0  0  0  0  0  0  0  0
    3.2270    1.0071    1.1573 H   0  0  0  0  0  0  0  0  0  0  0  0
    3.2161    1.0365   -0.7004 H   0  0  0  0  0  0  0  0  0  0  0  0
   -3.9566   -0.0064   -1.8954 H   0  0  0  0  0  0  0  0  0  0  0  0
   -3.7687    0.6726   -0.2363 H   0  0  0  0  0  0  0  0  0  0  0  0
   -2.8736   -2.1908   -1.1380 H   0  0  0  0  0  0  0  0  0  0  0  0
   -3.4854   -2.7861    1.1877 H   0  0  0  0  0  0  0  0  0  0  0  0
   -3.9066   -0.9898    1.5460 H   0  0  0  0  0  0  0  0  0  0  0  0
  1  2  1  0  0  0  0
  2  3  1  0  0  0  0
  3 15  1  0  0  0  0
  3 14  1  0  0  0  0
  4 16  1  0  0  0  0
  4  3  1  0  0  0  0
  4  5  1  0  0  0  0
  5 17  1  0  0  0  0
  5 18  1  0  0  0  0
  6  7  1  0  0  0  0
  6  1  1  0  0  0  0
  7 19  1  0  0  0  0
  7  8  1  0  0  0  0
  8  9  1  0  0  0  0
  8 21  1  0  0  0  0
  9 22  1  0  0  0  0
 10 11  1  0  0  0  0
 10  1  1  0  0  0  0
 11 12  1  0  0  0  0
 11 25  1  0  0  0  0
 12 13  2  0  0  0  0
 13 27  1  0  0  0  0
 13 28  1  0  0  0  0
 20  7  1  0  0  0  0
 23  9  1  0  0  0  0
 24 11  1  0  0  0  0
 26 12  1  0  0  0  0
M  END
