25,41
 OpenBabel05122313053D

 62 64  0  0  1  0  0  0  0  0999 V2000
   -1.3368    0.3010    0.8680 C   0  0  2  0  0  3  0  0  0  0  0  0
   -2.6252    0.5992    0.5743 O   0  0  0  0  0  0  0  0  0  0  0  0
   -3.6691    0.5431   -0.8027 Si  0  0  0  0  0  0  0  0  0  0  0  0
   -3.3586    2.0172   -1.9348 C   0  0  0  0  0  0  0  0  0  0  0  0
   -3.5466    2.9897   -1.4373 H   0  0  0  0  0  0  0  0  0  0  0  0
   -4.0465    1.9451   -2.8029 H   0  0  0  0  0  0  0  0  0  0  0  0
   -2.3250    2.0036   -2.3317 H   0  0  0  0  0  0  0  0  0  0  0  0
   -3.4597   -1.0426   -1.7913 C   0  0  0  0  0  0  0  0  0  0  0  0
   -3.4066   -1.9576   -1.1718 H   0  0  0  0  0  0  0  0  0  0  0  0
   -2.5444   -0.9989   -2.4107 H   0  0  0  0  0  0  0  0  0  0  0  0
   -4.3271   -1.1425   -2.4772 H   0  0  0  0  0  0  0  0  0  0  0  0
   -5.4020    0.6682    0.0081 C   0  0  0  0  0  0  0  0  0  0  0  0
   -5.4260    1.8543    0.9902 C   0  0  0  0  0  0  0  0  0  0  0  0
   -5.2142    2.8183    0.4821 H   0  0  0  0  0  0  0  0  0  0  0  0
   -4.6762    1.7280    1.7967 H   0  0  0  0  0  0  0  0  0  0  0  0
   -6.4284    1.9457    1.4646 H   0  0  0  0  0  0  0  0  0  0  0  0
   -5.7275   -0.6348    0.7610 C   0  0  0  0  0  0  0  0  0  0  0  0
   -5.7243   -1.5166    0.0874 H   0  0  0  0  0  0  0  0  0  0  0  0
   -6.7393   -0.5738    1.2204 H   0  0  0  0  0  0  0  0  0  0  0  0
   -5.0050   -0.8281    1.5778 H   0  0  0  0  0  0  0  0  0  0  0  0
   -6.4473    0.8916   -1.1029 C   0  0  0  0  0  0  0  0  0  0  0  0
   -6.4501    0.0687   -1.8484 H   0  0  0  0  0  0  0  0  0  0  0  0
   -6.2809    1.8427   -1.6490 H   0  0  0  0  0  0  0  0  0  0  0  0
   -7.4690    0.9377   -0.6649 H   0  0  0  0  0  0  0  0  0  0  0  0
   -1.0172   -0.9649    1.4449 C   0  0  2  0  0  3  0  0  0  0  0  0
   -2.1295   -1.9509    1.7131 C   0  0  0  0  0  0  0  0  0  0  0  0
   -1.7368   -2.9846    1.6847 H   0  0  0  0  0  0  0  0  0  0  0  0
   -2.8745   -1.8861    0.8998 H   0  0  0  0  0  0  0  0  0  0  0  0
   -2.8147   -1.6666    3.0573 C   0  0  0  0  0  0  0  0  0  0  0  0
   -3.6493   -2.3738    3.2356 H   0  0  0  0  0  0  0  0  0  0  0  0
   -3.2258   -0.6377    3.0773 H   0  0  0  0  0  0  0  0  0  0  0  0
   -2.1061   -1.7570    3.9054 H   0  0  0  0  0  0  0  0  0  0  0  0
    0.3183   -1.2054    1.9287 C   0  0  1  0  0  3  0  0  0  0  0  0
    0.6731   -2.4868    2.6652 C   0  0  0  0  0  0  0  0  0  0  0  0
    1.5138   -2.2657    3.3492 H   0  0  0  0  0  0  0  0  0  0  0  0
   -0.1832   -2.7667    3.3117 H   0  0  0  0  0  0  0  0  0  0  0  0
    1.0746   -3.6769    1.7842 C   0  0  0  0  0  0  0  0  0  0  0  0
    1.3810   -4.5349    2.4171 H   0  0  0  0  0  0  0  0  0  0  0  0
    1.9175   -3.3969    1.1243 H   0  0  0  0  0  0  0  0  0  0  0  0
    0.2417   -4.0127    1.1370 H   0  0  0  0  0  0  0  0  0  0  0  0
    1.3332   -0.2313    1.7016 C   0  0  2  0  0  3  0  0  0  0  0  0
    2.5830   -0.5056    2.2164 O   0  0  0  0  0  0  0  0  0  0  0  0
    2.7782    0.0654    3.5117 C   0  0  0  0  0  0  0  0  0  0  0  0
    2.6993    1.1742    3.4898 H   0  0  0  0  0  0  0  0  0  0  0  0
    3.7970   -0.2197    3.8351 H   0  0  0  0  0  0  0  0  0  0  0  0
    2.0381   -0.3316    4.2415 H   0  0  0  0  0  0  0  0  0  0  0  0
    1.0574    1.0541    1.0813 C   0  0  0  0  0  0  0  0  0  0  0  0
    2.0646    2.0973    0.8304 C   0  0  0  0  0  0  0  0  0  0  0  0
    3.4616    1.9108    1.0116 C   0  0  0  0  0  0  0  0  0  0  0  0
    3.8313    0.9195    1.2870 H   0  0  0  0  0  0  0  0  0  0  0  0
    4.3710    2.9422    0.7775 C   0  0  0  0  0  0  0  0  0  0  0  0
    5.4457    2.7512    0.9189 H   0  0  0  0  0  0  0  0  0  0  0  0
    3.9310    4.2101    0.3449 C   0  0  0  0  0  0  0  0  0  0  0  0
    4.6528    5.0213    0.1667 H   0  0  0  0  0  0  0  0  0  0  0  0
    2.5718    4.4145    0.1268 C   0  0  0  0  0  0  0  0  0  0  0  0
    2.2037    5.3870   -0.2355 H   0  0  0  0  0  0  0  0  0  0  0  0
    1.6283    3.3791    0.3496 C   0  0  0  0  0  0  0  0  0  0  0  0
    0.2347    3.6063    0.0694 C   0  0  0  0  0  0  0  0  0  0  0  0
   -0.0711    4.6051   -0.2789 H   0  0  0  0  0  0  0  0  0  0  0  0
   -0.6919    2.6158    0.2145 C   0  0  0  0  0  0  0  0  0  0  0  0
   -1.7513    2.7952    0.0028 H   0  0  0  0  0  0  0  0  0  0  0  0
   -0.3199    1.3150    0.7163 C   0  0  0  0  0  0  0  0  0  0  0  0
  1  2  1  1  0  0  0
  1 25  1  0  0  0  0
  3 12  1  0  0  0  0
  3  2  1  0  0  0  0
  4  5  1  0  0  0  0
  4  3  1  0  0  0  0
  6  4  1  0  0  0  0
  7  4  1  0  0  0  0
  8  9  1  0  0  0  0
  8  3  1  0  0  0  0
 10  8  1  0  0  0  0
 11  8  1  0  0  0  0
 12 17  1  0  0  0  0
 12 13  1  0  0  0  0
 13 16  1  0  0  0  0
 13 15  1  0  0  0  0
 14 13  1  0  0  0  0
 17 19  1  0  0  0  0
 17 20  1  0  0  0  0
 18 17  1  0  0  0  0
 21 24  1  0  0  0  0
 21 12  1  0  0  0  0
 22 21  1  0  0  0  0
 23 21  1  0  0  0  0
 25 26  1  1  0  0  0
 25 33  1  0  0  0  0
 26 29  1  0  0  0  0
 27 26  1  0  0  0  0
 28 26  1  0  0  0  0
 29 31  1  0  0  0  0
 29 30  1  0  0  0  0
 29 32  1  0  0  0  0
 33 34  1  6  0  0  0
 34 36  1  0  0  0  0
 34 35  1  0  0  0  0
 37 38  1  0  0  0  0
 37 34  1  0  0  0  0
 39 37  1  0  0  0  0
 40 37  1  0  0  0  0
 41 33  1  0  0  0  0
 41 42  1  1  0  0  0
 42 43  1  0  0  0  0
 43 45  1  0  0  0  0
 43 46  1  0  0  0  0
 44 43  1  0  0  0  0
 47 41  1  0  0  0  0
 48 49  1  0  0  0  0
 48 47  1  0  0  0  0
 49 50  1  0  0  0  0
 51 52  1  0  0  0  0
 51 49  2  0  0  0  0
 53 51  1  0  0  0  0
 54 53  1  0  0  0  0
 55 53  2  0  0  0  0
 55 57  1  0  0  0  0
 56 55  1  0  0  0  0
 57 48  2  0  0  0  0
 58 60  2  0  0  0  0
 58 57  1  0  0  0  0
 59 58  1  0  0  0  0
 60 62  1  0  0  0  0
 61 60  1  0  0  0  0
 62  1  1  0  0  0  0
 62 47  2  0  0  0  0
M  END
