14,25
 OpenBabel05122313053D

 29 30  0  0  0  0  0  0  0  0999 V2000
    3.1250   -0.2071   -1.2702 O   0  0  0  0  0  0  0  0  0  0  0  0
   -3.4266    2.1563    0.1107 C   0  0  0  0  0  0  0  0  0  0  0  0
   -2.8476    3.0139    0.4838 H   0  0  0  0  0  0  0  0  0  0  0  0
   -4.8042    2.2657   -0.0995 C   0  0  0  0  0  0  0  0  0  0  0  0
   -5.3137    3.2183    0.1108 H   0  0  0  0  0  0  0  0  0  0  0  0
   -5.5370    1.1647   -0.5772 C   0  0  0  0  0  0  0  0  0  0  0  0
   -6.6217    1.2529   -0.7402 H   0  0  0  0  0  0  0  0  0  0  0  0
   -4.8810   -0.0484   -0.8413 C   0  0  0  0  0  0  0  0  0  0  0  0
   -5.4495   -0.9129   -1.2156 H   0  0  0  0  0  0  0  0  0  0  0  0
   -3.5036   -0.1696   -0.6235 C   0  0  0  0  0  0  0  0  0  0  0  0
   -2.9897   -1.1188   -0.8267 H   0  0  0  0  0  0  0  0  0  0  0  0
   -2.7533    0.9328   -0.1494 C   0  0  0  0  0  0  0  0  0  0  0  0
   -1.3299    0.8712    0.0578 C   0  0  0  0  0  2  0  0  0  0  0  0
   -0.1856    1.4231    0.1465 C   0  0  0  0  0  2  0  0  0  0  0  0
    0.9486    2.2799    0.0773 C   0  0  0  0  0  0  0  0  0  0  0  0
    2.1559    1.6531   -0.3580 C   0  0  0  0  0  0  0  0  0  0  0  0
    3.3189    2.4323   -0.5422 C   0  0  0  0  0  0  0  0  0  0  0  0
    4.2362    1.9445   -0.9008 H   0  0  0  0  0  0  0  0  0  0  0  0
    3.2975    3.7983   -0.2430 C   0  0  0  0  0  0  0  0  0  0  0  0
    4.2108    4.4010   -0.3591 H   0  0  0  0  0  0  0  0  0  0  0  0
    2.1102    4.4079    0.2169 C   0  0  0  0  0  0  0  0  0  0  0  0
    2.1044    5.4837    0.4496 H   0  0  0  0  0  0  0  0  0  0  0  0
    0.9368    3.6621    0.3732 C   0  0  0  0  0  0  0  0  0  0  0  0
    0.0066    4.1374    0.7160 H   0  0  0  0  0  0  0  0  0  0  0  0
    2.0484    0.2031   -0.6085 C   0  0  0  0  0  2  0  0  0  0  0  0
    3.2664   -1.5671   -1.6881 C   0  0  0  0  0  0  0  0  0  0  0  0
    4.1092   -1.5803   -2.4032 H   0  0  0  0  0  0  0  0  0  0  0  0
    3.5005   -2.2113   -0.8192 H   0  0  0  0  0  0  0  0  0  0  0  0
    2.3398   -1.9254   -2.1750 H   0  0  0  0  0  0  0  0  0  0  0  0
  1 25  1  0  0  0  0
  2  3  1  0  0  0  0
  4  2  1  0  0  0  0
  4  5  1  0  0  0  0
  6  4  2  0  0  0  0
  7  6  1  0  0  0  0
  8 10  2  0  0  0  0
  8  6  1  0  0  0  0
  9  8  1  0  0  0  0
 10 12  1  0  0  0  0
 11 10  1  0  0  0  0
 12 13  1  0  0  0  0
 12  2  2  0  0  0  0
 13 14  1  0  0  0  0
 15 14  1  0  0  0  0
 15 23  1  0  0  0  0
 16 15  2  0  0  0  0
 17 16  1  0  0  0  0
 17 19  2  0  0  0  0
 18 17  1  0  0  0  0
 19 21  1  0  0  0  0
 20 19  1  0  0  0  0
 21 23  2  0  0  0  0
 21 22  1  0  0  0  0
 23 24  1  0  0  0  0
 25 16  1  0  0  0  0
 26  1  1  0  0  0  0
 26 28  1  0  0  0  0
 27 26  1  0  0  0  0
 29 26  1  0  0  0  0
M  END
