2,11
 OpenBabel05122313053D

 30 32  0  0  1  0  0  0  0  0999 V2000
   -1.4308   -0.0001   -1.6034 P   0  0  2  0  0  0  0  0  0  0  0  0
   -0.4003   -1.3129   -0.7973 C   0  0  2  0  0  3  0  0  0  0  0  0
   -0.3330   -1.6477    0.5983 C   0  0  0  0  0  3  0  0  0  0  0  0
   -1.0755   -1.3749    1.3587 H   0  0  0  0  0  0  0  0  0  0  0  0
    0.8523   -2.4112    0.8151 C   0  0  0  0  0  0  0  0  0  0  0  0
    1.1894   -2.8091    1.7792 H   0  0  0  0  0  0  0  0  0  0  0  0
    1.5474   -2.5119   -0.4167 C   0  0  0  0  0  0  0  0  0  0  0  0
    2.5171   -2.9976   -0.5758 H   0  0  0  0  0  0  0  0  0  0  0  0
    0.7790   -1.8354   -1.4135 C   0  0  0  0  0  3  0  0  0  0  0  0
    1.0582   -1.7094   -2.4675 H   0  0  0  0  0  0  0  0  0  0  0  0
   -0.4003    1.3128   -0.7974 C   0  0  1  0  0  3  0  0  0  0  0  0
   -0.3331    1.6476    0.5983 C   0  0  0  0  0  0  0  0  0  0  0  0
   -1.0755    1.3749    1.3586 H   0  0  0  0  0  0  0  0  0  0  0  0
    0.8523    2.4112    0.8150 C   0  0  0  0  0  0  0  0  0  0  0  0
    1.1893    2.8092    1.7791 H   0  0  0  0  0  0  0  0  0  0  0  0
    1.5473    2.5119   -0.4168 C   0  0  0  0  0  0  0  0  0  0  0  0
    2.5171    2.9976   -0.5759 H   0  0  0  0  0  0  0  0  0  0  0  0
    0.7789    1.8354   -1.4136 C   0  0  0  0  0  0  0  0  0  0  0  0
    1.0582    1.7093   -2.4675 H   0  0  0  0  0  0  0  0  0  0  0  0
   -2.9376   -0.0000   -0.5428 C   0  0  0  0  0  0  0  0  0  0  0  0
   -3.5615   -1.2161   -0.1901 C   0  0  0  0  0  0  0  0  0  0  0  0
   -3.0928   -2.1740   -0.4649 H   0  0  0  0  0  0  0  0  0  0  0  0
   -4.7718   -1.2136    0.5193 C   0  0  0  0  0  0  0  0  0  0  0  0
   -5.2423   -2.1697    0.7952 H   0  0  0  0  0  0  0  0  0  0  0  0
   -5.3794    0.0001    0.8785 C   0  0  0  0  0  0  0  0  0  0  0  0
   -6.3270    0.0001    1.4379 H   0  0  0  0  0  0  0  0  0  0  0  0
   -4.7716    1.2137    0.5194 C   0  0  0  0  0  0  0  0  0  0  0  0
   -5.2420    2.1698    0.7954 H   0  0  0  0  0  0  0  0  0  0  0  0
   -3.5613    1.2160   -0.1900 C   0  0  0  0  0  0  0  0  0  0  0  0
   -3.0925    2.1739   -0.4647 H   0  0  0  0  0  0  0  0  0  0  0  0
  1 20  1  1  0  0  0
  2  1  1  1  0  0  0
  2  3  1  0  0  0  0
  3  5  1  0  0  0  0
  3  4  1  0  0  0  0
  5  6  1  0  0  0  0
  7  5  2  0  0  0  0
  8  7  1  0  0  0  0
  9  2  1  0  0  0  0
  9  7  1  0  0  0  0
 10  9  1  0  0  0  0
 11  1  1  1  0  0  0
 11 12  1  0  0  0  0
 12 14  2  0  0  0  0
 12 13  1  0  0  0  0
 14 15  1  0  0  0  0
 16 14  1  0  0  0  0
 17 16  1  0  0  0  0
 18 11  1  0  0  0  0
 18 16  2  0  0  0  0
 19 18  1  0  0  0  0
 20 21  2  0  0  0  0
 20 29  1  0  0  0  0
 21 23  1  0  0  0  0
 22 21  1  0  0  0  0
 23 24  1  0  0  0  0
 23 25  2  0  0  0  0
 25 26  1  0  0  0  0
 27 28  1  0  0  0  0
 27 25  1  0  0  0  0
 29 27  2  0  0  0  0
 30 29  1  0  0  0  0
M  END
