3,7
 OpenBabel05122313053D

 28 27  0  0  0  0  0  0  0  0999 V2000
   -0.1568    3.8980    0.4624 O   0  0  0  0  0  0  0  0  0  0  0  0
   -2.4072    0.5165   -1.6661 C   0  0  0  0  0  3  0  0  0  0  0  0
   -1.9925    1.5864   -0.8086 C   0  0  0  0  0  3  0  0  0  0  0  0
   -0.6159    1.9161   -0.8703 C   0  0  0  0  0  3  0  0  0  0  0  0
    0.1212    2.7392    0.1689 C   0  0  0  0  0  0  0  0  0  0  0  0
    1.2021    1.9043    0.7074 C   0  0  0  0  0  0  0  0  0  0  0  0
    1.0772    0.5528    0.5088 C   0  0  0  0  0  3  0  0  0  0  0  0
    2.1963   -0.3811    0.9219 C   0  0  0  0  0  0  0  0  0  0  0  0
    3.5058   -0.3456    0.0625 C   0  0  0  0  0  0  0  0  0  0  0  0
    3.1913   -0.5942   -1.4211 C   0  0  0  0  0  0  0  0  0  0  0  0
    4.4142   -1.4733    0.5889 C   0  0  0  0  0  0  0  0  0  0  0  0
    4.2475    0.9943    0.2035 C   0  0  0  0  0  0  0  0  0  0  0  0
   -3.4233    0.1053   -1.5593 H   0  0  0  0  0  0  0  0  0  0  0  0
   -1.9976    0.4603   -2.6867 H   0  0  0  0  0  0  0  0  0  0  0  0
   -2.6379    1.9908   -0.0107 H   0  0  0  0  0  0  0  0  0  0  0  0
   -0.0911    1.8291   -1.8374 H   0  0  0  0  0  0  0  0  0  0  0  0
    2.0333    2.3768    1.2586 H   0  0  0  0  0  0  0  0  0  0  0  0
    1.8473   -1.4323    0.9199 H   0  0  0  0  0  0  0  0  0  0  0  0
    2.4941   -0.1484    1.9707 H   0  0  0  0  0  0  0  0  0  0  0  0
    4.1256   -0.5929   -2.0196 H   0  0  0  0  0  0  0  0  0  0  0  0
    2.6900   -1.5693   -1.5782 H   0  0  0  0  0  0  0  0  0  0  0  0
    2.5268    0.1941   -1.8274 H   0  0  0  0  0  0  0  0  0  0  0  0
    5.3682   -1.5060    0.0236 H   0  0  0  0  0  0  0  0  0  0  0  0
    4.6616   -1.3257    1.6609 H   0  0  0  0  0  0  0  0  0  0  0  0
    3.9261   -2.4646    0.4848 H   0  0  0  0  0  0  0  0  0  0  0  0
    5.2177    0.9493   -0.3331 H   0  0  0  0  0  0  0  0  0  0  0  0
    3.6675    1.8324   -0.2288 H   0  0  0  0  0  0  0  0  0  0  0  0
    4.4601    1.2337    1.2664 H   0  0  0  0  0  0  0  0  0  0  0  0
  2 13  1  0  0  0  0
  2  3  1  0  0  0  0
  3 15  1  0  0  0  0
  4  3  1  0  0  0  0
  4  5  1  0  0  0  0
  5  1  2  0  0  0  0
  5  6  1  0  0  0  0
  6 17  1  0  0  0  0
  7  6  2  0  0  0  0
  7  8  1  0  0  0  0
  8 19  1  0  0  0  0
  9 12  1  0  0  0  0
  9 11  1  0  0  0  0
  9  8  1  0  0  0  0
 10  9  1  0  0  0  0
 11 24  1  0  0  0  0
 12 28  1  0  0  0  0
 14  2  1  0  0  0  0
 16  4  1  0  0  0  0
 18  8  1  0  0  0  0
 20 10  1  0  0  0  0
 21 10  1  0  0  0  0
 22 10  1  0  0  0  0
 23 11  1  0  0  0  0
 25 11  1  0  0  0  0
 26 12  1  0  0  0  0
 27 12  1  0  0  0  0
M  END
