5,15
 OpenBabel05122313053D

 32 33  0  0  1  0  0  0  0  0999 V2000
    4.1413   -0.9538   -1.3589 O   0  0  0  0  0  0  0  0  0  0  0  0
    4.8904   -0.7904   -1.9623 H   0  0  0  0  0  0  0  0  0  0  0  0
   -0.8633   -2.9133   -0.3242 C   0  0  0  0  0  3  0  0  0  0  0  0
   -1.8677   -3.0741   -0.7558 H   0  0  0  0  0  0  0  0  0  0  0  0
   -0.7650   -2.5243    1.0219 C   0  0  0  0  0  3  0  0  0  0  0  0
   -1.7050   -2.3592    1.5787 H   0  0  0  0  0  0  0  0  0  0  0  0
    0.4775   -2.6787    1.8737 C   0  0  0  0  0  0  0  0  0  0  0  0
    1.0425   -3.5799    1.5516 H   0  0  0  0  0  0  0  0  0  0  0  0
    0.1550   -2.8636    2.9175 H   0  0  0  0  0  0  0  0  0  0  0  0
    1.4200   -1.4655    1.8631 C   0  0  0  0  0  0  0  0  0  0  0  0
    2.1918   -1.5984    2.6493 H   0  0  0  0  0  0  0  0  0  0  0  0
    0.8330   -0.5655    2.1455 H   0  0  0  0  0  0  0  0  0  0  0  0
    2.1258   -1.2330    0.5133 C   0  0  1  0  0  0  0  0  0  0  0  0
    2.7573   -2.1317    0.3238 H   0  0  0  0  0  0  0  0  0  0  0  0
    1.1841   -1.1031   -0.7206 C   0  0  0  0  0  3  0  0  0  0  0  0
    1.4692   -0.2057   -1.3054 H   0  0  0  0  0  0  0  0  0  0  0  0
    1.1287   -2.2928   -1.6854 C   0  0  0  0  0  0  0  0  0  0  0  0
    0.6437   -1.9562   -2.6258 H   0  0  0  0  0  0  0  0  0  0  0  0
    2.1627   -2.5982   -1.9598 H   0  0  0  0  0  0  0  0  0  0  0  0
    0.3232   -3.4594   -1.0981 C   0  0  0  0  0  0  0  0  0  0  0  0
   -0.0193   -4.1475   -1.8948 H   0  0  0  0  0  0  0  0  0  0  0  0
    0.9598   -4.0593   -0.4130 H   0  0  0  0  0  0  0  0  0  0  0  0
    3.0709   -0.0383    0.5528 C   0  0  0  0  0  0  0  0  0  0  0  0
    4.0686    0.0653   -0.4532 C   0  0  0  0  0  0  0  0  0  0  0  0
    4.9259    1.1786   -0.5074 C   0  0  0  0  0  0  0  0  0  0  0  0
    5.6947    1.2328   -1.2958 H   0  0  0  0  0  0  0  0  0  0  0  0
    4.8086    2.2069    0.4393 C   0  0  0  0  0  0  0  0  0  0  0  0
    5.4887    3.0703    0.3903 H   0  0  0  0  0  0  0  0  0  0  0  0
    3.8383    2.1199    1.4473 C   0  0  0  0  0  0  0  0  0  0  0  0
    3.7498    2.9120    2.2050 H   0  0  0  0  0  0  0  0  0  0  0  0
    2.9878    1.0019    1.4968 C   0  0  0  0  0  0  0  0  0  0  0  0
    2.2376    0.9446    2.2980 H   0  0  0  0  0  0  0  0  0  0  0  0
  1 24  1  0  0  0  0
  2  1  1  0  0  0  0
  3  5  1  0  0  0  0
  4  3  1  0  0  0  0
  5  6  1  0  0  0  0
  5  7  1  0  0  0  0
  7  9  1  0  0  0  0
  8  7  1  0  0  0  0
 10  7  1  0  0  0  0
 10 12  1  0  0  0  0
 10 11  1  0  0  0  0
 13 14  1  6  0  0  0
 13 23  1  0  0  0  0
 13 10  1  0  0  0  0
 15 13  1  0  0  0  0
 16 15  1  0  0  0  0
 17 20  1  0  0  0  0
 17 15  1  0  0  0  0
 18 17  1  0  0  0  0
 19 17  1  0  0  0  0
 20 22  1  0  0  0  0
 20  3  1  0  0  0  0
 21 20  1  0  0  0  0
 23 31  1  0  0  0  0
 24 23  2  0  0  0  0
 25 24  1  0  0  0  0
 25 27  2  0  0  0  0
 26 25  1  0  0  0  0
 27 29  1  0  0  0  0
 28 27  1  0  0  0  0
 29 31  2  0  0  0  0
 29 30  1  0  0  0  0
 31 32  1  0  0  0  0
M  END
