1
 OpenBabel05122313053D

 36 37  0  0  1  0  0  0  0  0999 V2000
    0.8152    1.1157   -1.1967 C   0  0  2  0  0  3  0  0  0  0  0  0
   -0.5309    1.2618   -1.7045 C   0  0  2  0  0  3  0  0  0  0  0  0
   -0.8472    0.0842   -2.4522 C   0  0  0  0  0  0  0  0  0  0  0  0
   -1.8063   -0.1096   -2.9467 H   0  0  0  0  0  0  0  0  0  0  0  0
    1.3195   -0.1531   -1.6756 C   0  0  1  0  0  3  0  0  0  0  0  0
    0.2744   -0.7697   -2.4368 C   0  0  0  0  0  0  0  0  0  0  0  0
    0.3502   -1.7513   -2.9196 H   0  0  0  0  0  0  0  0  0  0  0  0
   -1.4387    2.4572   -1.6384 C   0  0  0  0  0  0  0  0  0  0  0  0
   -1.0025    3.2938   -1.0648 H   0  0  0  0  0  0  0  0  0  0  0  0
   -2.4238    2.2062   -1.1982 H   0  0  0  0  0  0  0  0  0  0  0  0
   -1.6241    2.8284   -2.6677 H   0  0  0  0  0  0  0  0  0  0  0  0
    2.6994   -0.7506   -1.6162 C   0  0  0  0  0  0  0  0  0  0  0  0
    2.6810   -1.7787   -1.2042 H   0  0  0  0  0  0  0  0  0  0  0  0
    3.4106   -0.1503   -1.0290 H   0  0  0  0  0  0  0  0  0  0  0  0
    3.1044   -0.8187   -2.6474 H   0  0  0  0  0  0  0  0  0  0  0  0
    1.3237    1.9371   -0.0008 C   0  0  2  0  0  0  0  0  0  0  0  0
    0.7306    2.8735   -0.0022 H   0  0  0  0  0  0  0  0  0  0  0  0
    2.7923    2.3694    0.0007 C   0  0  0  0  0  0  0  0  0  0  0  0
    3.0057    2.9859    0.8965 H   0  0  0  0  0  0  0  0  0  0  0  0
    3.0100    2.9788   -0.8989 H   0  0  0  0  0  0  0  0  0  0  0  0
    3.5040    1.5254    0.0062 H   0  0  0  0  0  0  0  0  0  0  0  0
    0.8135    1.1177    1.1957 C   0  0  2  0  0  3  0  0  0  0  0  0
    1.3172   -0.1508    1.6762 C   0  0  2  0  0  3  0  0  0  0  0  0
    0.2717   -0.7661    2.4379 C   0  0  0  0  0  0  0  0  0  0  0  0
    0.3469   -1.7473    2.9215 H   0  0  0  0  0  0  0  0  0  0  0  0
   -0.8497    0.0881    2.4516 C   0  0  0  0  0  0  0  0  0  0  0  0
   -1.8092   -0.1050    2.9455 H   0  0  0  0  0  0  0  0  0  0  0  0
   -0.5327    1.2647    1.7025 C   0  0  1  0  0  3  0  0  0  0  0  0
    2.6970   -0.7483    1.6191 C   0  0  0  0  0  0  0  0  0  0  0  0
    3.1134   -0.7870    2.6474 H   0  0  0  0  0  0  0  0  0  0  0  0
    3.4020   -0.1665    1.0067 H   0  0  0  0  0  0  0  0  0  0  0  0
    2.6731   -1.7876    1.2364 H   0  0  0  0  0  0  0  0  0  0  0  0
   -1.4407    2.4598    1.6336 C   0  0  0  0  0  0  0  0  0  0  0  0
   -2.4243    2.2088    1.1899 H   0  0  0  0  0  0  0  0  0  0  0  0
   -1.0025    3.2967    1.0618 H   0  0  0  0  0  0  0  0  0  0  0  0
   -1.6298    2.8307    2.6623 H   0  0  0  0  0  0  0  0  0  0  0  0
  1 16  1  1  0  0  0
  2  8  1  6  0  0  0
  2  1  1  0  0  0  0
  3  6  2  0  0  0  0
  3  2  1  0  0  0  0
  4  3  1  0  0  0  0
  5 12  1  6  0  0  0
  5  1  1  0  0  0  0
  6  5  1  0  0  0  0
  7  6  1  0  0  0  0
  8 10  1  0  0  0  0
  8  9  1  0  0  0  0
 11  8  1  0  0  0  0
 12 13  1  0  0  0  0
 12 14  1  0  0  0  0
 15 12  1  0  0  0  0
 16 17  1  6  0  0  0
 16 18  1  0  0  0  0
 18 21  1  0  0  0  0
 18 19  1  0  0  0  0
 20 18  1  0  0  0  0
 22 16  1  6  0  0  0
 22 23  1  0  0  0  0
 22 28  1  0  0  0  0
 23 29  1  1  0  0  0
 23 24  1  0  0  0  0
 24 26  2  0  0  0  0
 24 25  1  0  0  0  0
 26 27  1  0  0  0  0
 28 33  1  1  0  0  0
 28 26  1  0  0  0  0
 29 30  1  0  0  0  0
 31 29  1  0  0  0  0
 32 29  1  0  0  0  0
 33 36  1  0  0  0  0
 34 33  1  0  0  0  0
 35 33  1  0  0  0  0
M  END
