3,14
 OpenBabel05122313053D

 46 48  0  0  1  0  0  0  0  0999 V2000
   -1.4135    1.8837   -1.0379 Si  0  0  0  0  0  0  0  0  0  0  0  0
    1.4135    1.8837    1.0380 Si  0  0  0  0  0  0  0  0  0  0  0  0
    0.2482    1.0788   -1.5012 C   0  0  1  0  0  3  0  0  0  0  0  0
    1.4500    1.0471   -0.6658 C   0  0  2  0  0  3  0  0  0  0  0  0
    2.2530   -0.0641   -1.1058 C   0  0  1  0  0  3  0  0  0  0  0  0
    1.5437   -0.7590   -2.1417 C   0  0  0  0  0  0  0  0  0  0  0  0
    0.3433   -0.0357   -2.3958 C   0  0  0  0  0  0  0  0  0  0  0  0
    3.6303   -0.4411   -0.6534 C   0  0  0  0  0  0  0  0  0  0  0  0
    2.0123   -1.9991   -2.8407 C   0  0  0  0  0  0  0  0  0  0  0  0
   -1.5055    3.7681   -0.9893 C   0  0  0  0  0  0  0  0  0  0  0  0
   -2.7104    1.2454   -2.2510 C   0  0  0  0  0  0  0  0  0  0  0  0
    1.5054    3.7681    0.9893 C   0  0  0  0  0  0  0  0  0  0  0  0
    2.7104    1.2455    2.2510 C   0  0  0  0  0  0  0  0  0  0  0  0
   -0.2482    1.0788    1.5013 C   0  0  1  0  0  3  0  0  0  0  0  0
   -1.4501    1.0471    0.6658 C   0  0  2  0  0  3  0  0  0  0  0  0
   -2.2530   -0.0641    1.1058 C   0  0  1  0  0  3  0  0  0  0  0  0
   -1.5437   -0.7590    2.1417 C   0  0  0  0  0  0  0  0  0  0  0  0
   -0.3433   -0.0357    2.3958 C   0  0  0  0  0  0  0  0  0  0  0  0
   -3.6303   -0.4412    0.6533 C   0  0  0  0  0  0  0  0  0  0  0  0
   -2.0123   -1.9992    2.8406 C   0  0  0  0  0  0  0  0  0  0  0  0
   -0.4121   -0.3304   -3.1356 H   0  0  0  0  0  0  0  0  0  0  0  0
    4.3310   -0.4028   -1.5138 H   0  0  0  0  0  0  0  0  0  0  0  0
    4.0120    0.2424    0.1249 H   0  0  0  0  0  0  0  0  0  0  0  0
    3.6547   -1.4734   -0.2474 H   0  0  0  0  0  0  0  0  0  0  0  0
    1.1827   -2.4860   -3.3876 H   0  0  0  0  0  0  0  0  0  0  0  0
    2.8177   -1.7690   -3.5710 H   0  0  0  0  0  0  0  0  0  0  0  0
    2.4221   -2.7340   -2.1190 H   0  0  0  0  0  0  0  0  0  0  0  0
   -1.0170    4.1982   -0.0965 H   0  0  0  0  0  0  0  0  0  0  0  0
   -1.0442    4.2118   -1.8951 H   0  0  0  0  0  0  0  0  0  0  0  0
   -2.5731    4.0697   -0.9670 H   0  0  0  0  0  0  0  0  0  0  0  0
   -2.4508    1.5930   -3.2726 H   0  0  0  0  0  0  0  0  0  0  0  0
   -2.7589    0.1390   -2.2615 H   0  0  0  0  0  0  0  0  0  0  0  0
   -3.7176    1.6422   -2.0125 H   0  0  0  0  0  0  0  0  0  0  0  0
    1.0441    4.2118    1.8951 H   0  0  0  0  0  0  0  0  0  0  0  0
    2.5730    4.0697    0.9671 H   0  0  0  0  0  0  0  0  0  0  0  0
    1.0169    4.1982    0.0966 H   0  0  0  0  0  0  0  0  0  0  0  0
    2.7589    0.1390    2.2614 H   0  0  0  0  0  0  0  0  0  0  0  0
    3.7176    1.6422    2.0125 H   0  0  0  0  0  0  0  0  0  0  0  0
    2.4507    1.5930    3.2726 H   0  0  0  0  0  0  0  0  0  0  0  0
    0.4121   -0.3304    3.1356 H   0  0  0  0  0  0  0  0  0  0  0  0
   -4.3310   -0.4029    1.5137 H   0  0  0  0  0  0  0  0  0  0  0  0
   -4.0120    0.2422   -0.1250 H   0  0  0  0  0  0  0  0  0  0  0  0
   -3.6547   -1.4735    0.2474 H   0  0  0  0  0  0  0  0  0  0  0  0
   -2.4217   -2.7343    2.1188 H   0  0  0  0  0  0  0  0  0  0  0  0
   -1.1828   -2.4859    3.3879 H   0  0  0  0  0  0  0  0  0  0  0  0
   -2.8181   -1.7691    3.5706 H   0  0  0  0  0  0  0  0  0  0  0  0
  1 10  1  0  0  0  0
  2 14  1  0  0  0  0
  2 13  1  0  0  0  0
  3  7  1  1  0  0  0
  3  1  1  0  0  0  0
  3  4  1  0  0  0  0
  4  2  1  1  0  0  0
  5  4  1  0  0  0  0
  5  8  1  6  0  0  0
  6  5  1  0  0  0  0
  7  6  2  0  0  0  0
  8 24  1  0  0  0  0
  8 23  1  0  0  0  0
  9  6  1  0  0  0  0
  9 27  1  0  0  0  0
 10 30  1  0  0  0  0
 10 28  1  0  0  0  0
 11 33  1  0  0  0  0
 11  1  1  0  0  0  0
 12  2  1  0  0  0  0
 12 34  1  0  0  0  0
 13 37  1  0  0  0  0
 13 39  1  0  0  0  0
 14 18  1  6  0  0  0
 15  1  1  6  0  0  0
 15 16  1  0  0  0  0
 15 14  1  0  0  0  0
 16 19  1  1  0  0  0
 16 17  1  0  0  0  0
 17 18  2  0  0  0  0
 17 20  1  0  0  0  0
 18 40  1  0  0  0  0
 19 41  1  0  0  0  0
 20 45  1  0  0  0  0
 20 46  1  0  0  0  0
 21  7  1  0  0  0  0
 22  8  1  0  0  0  0
 25  9  1  0  0  0  0
 26  9  1  0  0  0  0
 29 10  1  0  0  0  0
 31 11  1  0  0  0  0
 32 11  1  0  0  0  0
 35 12  1  0  0  0  0
 36 12  1  0  0  0  0
 38 13  1  0  0  0  0
 42 19  1  0  0  0  0
 43 19  1  0  0  0  0
 44 20  1  0  0  0  0
M  END
