1,24
 OpenBabel05122313053D

 26 27  0  0  1  0  0  0  0  0999 V2000
   -2.9634   -1.4219   -0.9020 C   0  0  2  0  0  3  0  0  0  0  0  0
   -2.0223   -1.4797   -1.9950 C   0  0  0  0  0  0  0  0  0  0  0  0
   -1.7322   -2.3802   -2.5501 H   0  0  0  0  0  0  0  0  0  0  0  0
   -1.4545   -0.1859   -2.1464 C   0  0  0  0  0  0  0  0  0  0  0  0
   -0.6908    0.1049   -2.8771 H   0  0  0  0  0  0  0  0  0  0  0  0
   -2.2042    0.7569   -1.3031 C   0  0  0  0  0  0  0  0  0  0  0  0
   -2.1097    2.1528   -1.1299 C   0  0  0  0  0  0  0  0  0  0  0  0
   -1.3897    2.7435   -1.7131 H   0  0  0  0  0  0  0  0  0  0  0  0
   -2.9690    2.7637   -0.2082 C   0  0  0  0  0  0  0  0  0  0  0  0
   -2.9285    3.8547   -0.0724 H   0  0  0  0  0  0  0  0  0  0  0  0
   -3.8993    2.0078    0.5454 C   0  0  0  0  0  0  0  0  0  0  0  0
   -4.5646    2.5245    1.2528 H   0  0  0  0  0  0  0  0  0  0  0  0
   -4.0001    0.6203    0.3934 C   0  0  0  0  0  0  0  0  0  0  0  0
   -4.7366    0.0447    0.9736 H   0  0  0  0  0  0  0  0  0  0  0  0
   -3.1598   -0.0141   -0.5459 C   0  0  0  0  0  0  0  0  0  0  0  0
   -3.5462   -2.6199   -0.2005 C   0  0  0  0  0  0  0  0  0  0  0  0
   -4.2640   -3.1621   -0.8501 H   0  0  0  0  0  0  0  0  0  0  0  0
   -4.1184   -2.2889    0.6887 H   0  0  0  0  0  0  0  0  0  0  0  0
   -2.3713   -3.5268    0.2034 C   0  0  0  0  0  0  0  0  0  0  0  0
   -2.6859   -4.3216    0.9168 H   0  0  0  0  0  0  0  0  0  0  0  0
   -1.9928   -4.0644   -0.6900 H   0  0  0  0  0  0  0  0  0  0  0  0
   -1.2334   -2.7234    0.8128 C   0  0  0  0  0  3  0  0  0  0  0  0
   -0.2519   -3.2296    0.8315 H   0  0  0  0  0  0  0  0  0  0  0  0
   -1.3983   -1.6182    1.6597 C   0  0  0  0  0  3  0  0  0  0  0  0
   -2.3992   -1.2593    1.9494 H   0  0  0  0  0  0  0  0  0  0  0  0
   -0.5833   -1.3147    2.3324 H   0  0  0  0  0  0  0  0  0  0  0  0
  1 15  1  0  0  0  0
  1 16  1  1  0  0  0
  2  1  1  0  0  0  0
  3  2  1  0  0  0  0
  4  2  2  0  0  0  0
  4  6  1  0  0  0  0
  5  4  1  0  0  0  0
  6  7  2  0  0  0  0
  6 15  1  0  0  0  0
  7  9  1  0  0  0  0
  8  7  1  0  0  0  0
  9 10  1  0  0  0  0
  9 11  2  0  0  0  0
 11 12  1  0  0  0  0
 13 11  1  0  0  0  0
 13 14  1  0  0  0  0
 15 13  2  0  0  0  0
 16 19  1  0  0  0  0
 16 18  1  0  0  0  0
 17 16  1  0  0  0  0
 19 22  1  0  0  0  0
 19 20  1  0  0  0  0
 21 19  1  0  0  0  0
 22 23  1  0  0  0  0
 22 24  1  0  0  0  0
 24 25  1  0  0  0  0
 24 26  1  0  0  0  0
M  END
