4,6
 OpenBabel05122313053D

 30 31  0  0  1  0  0  0  0  0999 V2000
   -1.9513   -0.1311   -0.2549 N   0  0  2  0  0  0  0  0  0  0  0  0
   -0.7157   -0.4735   -0.6269 C   0  0  0  0  0  3  0  0  0  0  0  0
    0.0710    0.3058   -1.5607 C   0  0  0  0  0  3  0  0  0  0  0  0
    1.2853   -0.1972   -2.0983 C   0  0  0  0  0  3  0  0  0  0  0  0
    1.8666   -1.4032   -1.6247 C   0  0  0  0  0  3  0  0  0  0  0  0
    1.2237   -2.0567   -0.5363 C   0  0  0  0  0  3  0  0  0  0  0  0
    0.0171   -1.5540    0.0132 C   0  0  0  0  0  3  0  0  0  0  0  0
   -2.7717   -0.9208    0.7133 C   0  0  1  0  0  0  0  0  0  0  0  0
   -3.9680    0.0107    0.9773 C   0  0  0  0  0  0  0  0  0  0  0  0
   -4.1260    0.7757   -0.3426 C   0  0  0  0  0  0  0  0  0  0  0  0
   -2.6751    1.0768   -0.7539 C   0  0  1  0  0  0  0  0  0  0  0  0
   -3.1874   -2.2749    0.1289 C   0  0  0  0  0  0  0  0  0  0  0  0
   -2.1414    2.3742   -0.1358 C   0  0  0  0  0  0  0  0  0  0  0  0
   -0.3107    1.2592   -1.9430 H   0  0  0  0  0  0  0  0  0  0  0  0
    1.8009    0.3904   -2.8724 H   0  0  0  0  0  0  0  0  0  0  0  0
    2.8127   -1.7789   -2.0358 H   0  0  0  0  0  0  0  0  0  0  0  0
    1.6898   -2.9393   -0.0740 H   0  0  0  0  0  0  0  0  0  0  0  0
   -0.4093   -2.0614    0.8867 H   0  0  0  0  0  0  0  0  0  0  0  0
   -2.1773   -1.0699    1.6398 H   0  0  0  0  0  0  0  0  0  0  0  0
   -4.8719   -0.5592    1.2627 H   0  0  0  0  0  0  0  0  0  0  0  0
   -3.7400    0.7063    1.8093 H   0  0  0  0  0  0  0  0  0  0  0  0
   -4.6185    0.1421   -1.1073 H   0  0  0  0  0  0  0  0  0  0  0  0
   -4.7242    1.7005   -0.2433 H   0  0  0  0  0  0  0  0  0  0  0  0
   -2.5712    1.1113   -1.8585 H   0  0  0  0  0  0  0  0  0  0  0  0
   -3.8428   -2.1420   -0.7542 H   0  0  0  0  0  0  0  0  0  0  0  0
   -2.3206   -2.8887   -0.1850 H   0  0  0  0  0  0  0  0  0  0  0  0
   -3.7483   -2.8505    0.8905 H   0  0  0  0  0  0  0  0  0  0  0  0
   -1.0713    2.5494   -0.3576 H   0  0  0  0  0  0  0  0  0  0  0  0
   -2.7092    3.2326   -0.5440 H   0  0  0  0  0  0  0  0  0  0  0  0
   -2.2576    2.3754    0.9653 H   0  0  0  0  0  0  0  0  0  0  0  0
  1  2  1  6  0  0  0
  1  8  1  0  0  0  0
  2  7  1  0  0  0  0
  3  2  1  0  0  0  0
  4  5  1  0  0  0  0
  4  3  1  0  0  0  0
  5  6  1  0  0  0  0
  6 17  1  0  0  0  0
  6  7  1  0  0  0  0
  7 18  1  0  0  0  0
  8  9  1  0  0  0  0
  8 19  1  1  0  0  0
  9 20  1  0  0  0  0
  9 21  1  0  0  0  0
 10 23  1  0  0  0  0
 10  9  1  0  0  0  0
 11 24  1  6  0  0  0
 11 10  1  0  0  0  0
 11  1  1  0  0  0  0
 11 13  1  0  0  0  0
 12  8  1  0  0  0  0
 12 27  1  0  0  0  0
 13 30  1  0  0  0  0
 14  3  1  0  0  0  0
 15  4  1  0  0  0  0
 16  5  1  0  0  0  0
 22 10  1  0  0  0  0
 25 12  1  0  0  0  0
 26 12  1  0  0  0  0
 28 13  1  0  0  0  0
 29 13  1  0  0  0  0
M  END
