5,8
 OpenBabel05122313053D

 45 46  0  0  1  0  0  0  0  0999 V2000
    3.0975   -0.4586   -0.8432 Si  0  0  0  0  0  0  0  0  0  0  0  0
    1.5678    2.1231   -0.0245 O   0  0  0  0  0  0  0  0  0  0  0  0
   -1.2409    2.5460    0.1500 O   0  0  0  0  0  0  0  0  0  0  0  0
   -1.1394   -0.9102   -1.2011 C   0  0  0  0  0  0  0  0  0  0  0  0
    0.2715   -1.1149   -1.2203 C   0  0  0  0  0  3  0  0  0  0  0  0
    1.2194   -0.1117   -0.8477 C   0  0  0  0  0  0  0  0  0  0  0  0
    0.6872    1.1350   -0.3946 C   0  0  0  0  0  0  0  0  0  0  0  0
   -0.7266    1.3515   -0.2767 C   0  0  2  0  0  3  0  0  0  0  0  0
   -1.6473    0.3229   -0.6802 C   0  0  0  0  0  0  0  0  0  0  0  0
   -3.1397    0.6057   -0.6137 C   0  0  2  0  0  0  0  0  0  0  0  0
   -3.9627   -0.6937   -0.6626 C   0  0  0  0  0  0  0  0  0  0  0  0
   -3.5171   -1.6006   -1.8118 C   0  0  0  0  0  0  0  0  0  0  0  0
   -2.0628   -2.0401   -1.6217 C   0  0  0  0  0  0  0  0  0  0  0  0
   -3.5307    1.5908   -1.7333 C   0  0  0  0  0  0  0  0  0  0  0  0
    3.3130   -2.2957   -1.2412 C   0  0  0  0  0  0  0  0  0  0  0  0
    3.8774   -0.0798    0.8291 C   0  0  0  0  0  0  0  0  0  0  0  0
    3.9068    0.5896   -2.1986 C   0  0  0  0  0  0  0  0  0  0  0  0
    1.5483    3.2814   -0.8657 C   0  0  0  0  0  0  0  0  0  0  0  0
   -0.9452    2.9472    1.4939 C   0  0  0  0  0  0  0  0  0  0  0  0
    0.6387   -2.1000   -1.5445 H   0  0  0  0  0  0  0  0  0  0  0  0
   -3.3334    1.1130    0.3534 H   0  0  0  0  0  0  0  0  0  0  0  0
   -5.0370   -0.4350   -0.7618 H   0  0  0  0  0  0  0  0  0  0  0  0
   -3.8556   -1.2339    0.3011 H   0  0  0  0  0  0  0  0  0  0  0  0
   -3.6252   -1.0627   -2.7783 H   0  0  0  0  0  0  0  0  0  0  0  0
   -4.1697   -2.4941   -1.8820 H   0  0  0  0  0  0  0  0  0  0  0  0
   -2.0103   -2.8361   -0.8492 H   0  0  0  0  0  0  0  0  0  0  0  0
   -1.6663   -2.4938   -2.5544 H   0  0  0  0  0  0  0  0  0  0  0  0
   -2.9651    2.5369   -1.6374 H   0  0  0  0  0  0  0  0  0  0  0  0
   -3.3282    1.1700   -2.7389 H   0  0  0  0  0  0  0  0  0  0  0  0
   -4.6124    1.8269   -1.6739 H   0  0  0  0  0  0  0  0  0  0  0  0
    4.3914   -2.5561   -1.2201 H   0  0  0  0  0  0  0  0  0  0  0  0
    2.8009   -2.9308   -0.4895 H   0  0  0  0  0  0  0  0  0  0  0  0
    2.9277   -2.5614   -2.2470 H   0  0  0  0  0  0  0  0  0  0  0  0
    4.9799   -0.1924    0.7683 H   0  0  0  0  0  0  0  0  0  0  0  0
    3.6428    0.9528    1.1516 H   0  0  0  0  0  0  0  0  0  0  0  0
    3.4996   -0.7729    1.6063 H   0  0  0  0  0  0  0  0  0  0  0  0
    4.9778    0.3196   -2.3072 H   0  0  0  0  0  0  0  0  0  0  0  0
    3.4153    0.4346   -3.1807 H   0  0  0  0  0  0  0  0  0  0  0  0
    3.8562    1.6693   -1.9527 H   0  0  0  0  0  0  0  0  0  0  0  0
    0.5513    3.7689   -0.8676 H   0  0  0  0  0  0  0  0  0  0  0  0
    1.8281    3.0164   -1.9085 H   0  0  0  0  0  0  0  0  0  0  0  0
    0.1446    3.0670    1.6605 H   0  0  0  0  0  0  0  0  0  0  0  0
    2.3028    3.9767   -0.4538 H   0  0  0  0  0  0  0  0  0  0  0  0
   -1.3333    2.1913    2.2087 H   0  0  0  0  0  0  0  0  0  0  0  0
   -1.4616    3.9131    1.6462 H   0  0  0  0  0  0  0  0  0  0  0  0
  1 16  1  0  0  0  0
  3 19  1  0  0  0  0
  4  9  2  0  0  0  0
  5  4  1  0  0  0  0
  5  6  1  0  0  0  0
  6  1  1  0  0  0  0
  6  7  2  0  0  0  0
  7  8  1  0  0  0  0
  7  2  1  0  0  0  0
  8  3  1  6  0  0  0
  9 10  1  0  0  0  0
  9  8  1  0  0  0  0
 10 21  1  1  0  0  0
 11 10  1  0  0  0  0
 11 23  1  0  0  0  0
 12 13  1  0  0  0  0
 12 11  1  0  0  0  0
 13  4  1  0  0  0  0
 13 26  1  0  0  0  0
 14 30  1  0  0  0  0
 14 28  1  0  0  0  0
 14 10  1  0  0  0  0
 15 31  1  0  0  0  0
 15  1  1  0  0  0  0
 15 32  1  0  0  0  0
 16 35  1  0  0  0  0
 16 36  1  0  0  0  0
 17 39  1  0  0  0  0
 17  1  1  0  0  0  0
 18 43  1  0  0  0  0
 18  2  1  0  0  0  0
 19 45  1  0  0  0  0
 19 42  1  0  0  0  0
 19 44  1  0  0  0  0
 20  5  1  0  0  0  0
 22 11  1  0  0  0  0
 24 12  1  0  0  0  0
 25 12  1  0  0  0  0
 27 13  1  0  0  0  0
 29 14  1  0  0  0  0
 33 15  1  0  0  0  0
 34 16  1  0  0  0  0
 37 17  1  0  0  0  0
 38 17  1  0  0  0  0
 40 18  1  0  0  0  0
 41 18  1  0  0  0  0
M  END
