3,13
 OpenBabel05122313053D

 32 32  0  0  1  0  0  0  0  0999 V2000
    1.8468   -1.2176    0.3706 N   0  0  0  0  0  0  0  0  0  0  0  0
    2.0112    0.8947   -0.1112 N   0  0  0  0  0  0  0  0  0  0  0  0
    1.1080   -0.1236    0.0365 C   0  0  0  0  0  2  0  0  0  0  0  0
    3.2048   -0.9227    0.4264 C   0  0  0  0  0  0  0  0  0  0  0  0
    3.3182    0.4229    0.1206 C   0  0  0  0  0  0  0  0  0  0  0  0
    4.2395   -1.9313    0.7911 C   0  0  0  0  0  0  0  0  0  0  0  0
    4.5552    1.2560    0.0661 C   0  0  0  0  0  0  0  0  0  0  0  0
    1.6004    2.2436   -0.5516 C   0  0  0  0  0  0  0  0  0  0  0  0
    1.9328    2.4716   -2.0291 C   0  0  0  0  0  0  0  0  0  0  0  0
    2.1086    3.3637    0.3603 C   0  0  0  0  0  0  0  0  0  0  0  0
    1.2800   -3.2748   -0.8654 C   0  0  0  0  0  0  0  0  0  0  0  0
    1.1407   -2.5039    0.4502 C   0  0  2  0  0  0  0  0  0  0  0  0
   -0.3122   -2.1347    0.7931 C   0  0  0  0  0  3  0  0  0  0  0  0
    1.9391    3.1307    1.4303 H   0  0  0  0  0  0  0  0  0  0  0  0
    1.5641    4.2992    0.1255 H   0  0  0  0  0  0  0  0  0  0  0  0
    3.1856    3.5722    0.2208 H   0  0  0  0  0  0  0  0  0  0  0  0
    3.0254    2.5159   -2.2070 H   0  0  0  0  0  0  0  0  0  0  0  0
    1.5018    3.4336   -2.3703 H   0  0  0  0  0  0  0  0  0  0  0  0
    1.5154    1.6609   -2.6574 H   0  0  0  0  0  0  0  0  0  0  0  0
    0.8219   -2.6989   -1.6944 H   0  0  0  0  0  0  0  0  0  0  0  0
    0.7640   -4.2516   -0.7877 H   0  0  0  0  0  0  0  0  0  0  0  0
    2.3397   -3.4699   -1.1214 H   0  0  0  0  0  0  0  0  0  0  0  0
    4.6326    1.8385   -0.8732 H   0  0  0  0  0  0  0  0  0  0  0  0
    5.4440    0.6005    0.1175 H   0  0  0  0  0  0  0  0  0  0  0  0
    4.6252    1.9714    0.9110 H   0  0  0  0  0  0  0  0  0  0  0  0
    4.0666   -2.3450    1.8067 H   0  0  0  0  0  0  0  0  0  0  0  0
    5.2470   -1.4773    0.7851 H   0  0  0  0  0  0  0  0  0  0  0  0
    4.2531   -2.7870    0.0852 H   0  0  0  0  0  0  0  0  0  0  0  0
   -0.3877   -1.9873    1.8914 H   0  0  0  0  0  0  0  0  0  0  0  0
   -0.9931   -2.9664    0.5234 H   0  0  0  0  0  0  0  0  0  0  0  0
    0.4954    2.1949   -0.4588 H   0  0  0  0  0  0  0  0  0  0  0  0
    1.6053   -3.0937    1.2702 H   0  0  0  0  0  0  0  0  0  0  0  0
  1  4  1  0  0  0  0
  1 12  1  0  0  0  0
  2  3  1  0  0  0  0
  2  5  1  0  0  0  0
  3  1  1  0  0  0  0
  4  6  1  0  0  0  0
  5  4  2  0  0  0  0
  6 26  1  0  0  0  0
  7 24  1  0  0  0  0
  7  5  1  0  0  0  0
  7 25  1  0  0  0  0
  8 31  1  0  0  0  0
  8  2  1  0  0  0  0
  8 10  1  0  0  0  0
  9  8  1  0  0  0  0
 10 14  1  0  0  0  0
 11 21  1  0  0  0  0
 11 12  1  0  0  0  0
 12 13  1  0  0  0  0
 12 32  1  1  0  0  0
 13 29  1  0  0  0  0
 15 10  1  0  0  0  0
 16 10  1  0  0  0  0
 17  9  1  0  0  0  0
 18  9  1  0  0  0  0
 19  9  1  0  0  0  0
 20 11  1  0  0  0  0
 22 11  1  0  0  0  0
 23  7  1  0  0  0  0
 27  6  1  0  0  0  0
 28  6  1  0  0  0  0
 30 13  1  0  0  0  0
M  END
