2,6
 OpenBabel05122313053D

 18 18  0  0  0  0  0  0  0  0999 V2000
   -1.3333   -2.1697   -1.5849 C   0  0  0  0  0  3  0  0  0  0  0  0
   -1.2477   -0.8462   -2.1607 C   0  0  0  0  0  3  0  0  0  0  0  0
   -0.0534   -0.1824   -2.5799 C   0  0  0  0  0  3  0  0  0  0  0  0
    1.1517   -0.8213   -3.1595 C   0  0  0  0  0  0  0  0  0  0  0  0
    1.8606   -1.7466   -2.4823 C   0  0  0  0  0  0  0  0  0  0  0  0
    1.4205   -2.2012   -1.1189 C   0  0  0  0  0  3  0  0  0  0  0  0
    0.7398   -3.5822   -1.2492 C   0  0  0  0  0  0  0  0  0  0  0  0
   -0.5561   -3.4044   -2.0498 C   0  0  0  0  0  0  0  0  0  0  0  0
   -2.3349   -2.3898   -1.1801 H   0  0  0  0  0  0  0  0  0  0  0  0
   -2.1568   -0.2199   -2.1023 H   0  0  0  0  0  0  0  0  0  0  0  0
   -0.2007    0.8734   -2.8700 H   0  0  0  0  0  0  0  0  0  0  0  0
    1.4645   -0.4940   -4.1671 H   0  0  0  0  0  0  0  0  0  0  0  0
    2.7188   -2.2515   -2.9688 H   0  0  0  0  0  0  0  0  0  0  0  0
    2.3017   -2.2959   -0.4481 H   0  0  0  0  0  0  0  0  0  0  0  0
    1.4124   -4.3273   -1.7400 H   0  0  0  0  0  0  0  0  0  0  0  0
    0.5046   -3.9731   -0.2381 H   0  0  0  0  0  0  0  0  0  0  0  0
   -0.3150   -3.3071   -3.1293 H   0  0  0  0  0  0  0  0  0  0  0  0
   -1.2039   -4.2999   -1.9530 H   0  0  0  0  0  0  0  0  0  0  0  0
  1  9  1  0  0  0  0
  2 10  1  0  0  0  0
  2  1  1  0  0  0  0
  3  2  1  0  0  0  0
  4  3  1  0  0  0  0
  4  5  2  0  0  0  0
  5  6  1  0  0  0  0
  6 14  1  0  0  0  0
  7  6  1  0  0  0  0
  7 16  1  0  0  0  0
  8 18  1  0  0  0  0
  8  1  1  0  0  0  0
  8  7  1  0  0  0  0
 11  3  1  0  0  0  0
 12  4  1  0  0  0  0
 13  5  1  0  0  0  0
 15  7  1  0  0  0  0
 17  8  1  0  0  0  0
M  END
