1,9
 OpenBabel05122313053D

 16 16  0  0  0  0  0  0  0  0999 V2000
   -1.8400    0.1612    2.3752 C   0  0  0  0  0  3  0  0  0  0  0  0
   -2.9231    0.1455    2.1807 H   0  0  0  0  0  0  0  0  0  0  0  0
   -1.3087    1.4732    2.4229 C   0  0  0  0  0  0  0  0  0  0  0  0
   -2.0702    2.2456    2.2384 H   0  0  0  0  0  0  0  0  0  0  0  0
    0.0005    1.9978    2.4864 C   0  0  0  0  0  0  0  0  0  0  0  0
    0.0006    3.0912    2.3488 H   0  0  0  0  0  0  0  0  0  0  0  0
    1.3094    1.4729    2.4214 C   0  0  0  0  0  3  0  0  0  0  0  0
    2.0711    2.2449    2.2360 H   0  0  0  0  0  0  0  0  0  0  0  0
    1.8402    0.1605    2.3737 C   0  0  0  0  0  3  0  0  0  0  0  0
    2.9232    0.1444    2.1782 H   0  0  0  0  0  0  0  0  0  0  0  0
    1.3019   -1.1343    2.5843 C   0  0  0  0  0  3  0  0  0  0  0  0
    2.0581   -1.9259    2.4809 H   0  0  0  0  0  0  0  0  0  0  0  0
   -0.0000   -1.6640    2.7197 C   0  0  0  0  0  0  0  0  0  0  0  0
   -0.0002   -2.7648    2.7452 H   0  0  0  0  0  0  0  0  0  0  0  0
   -1.3018   -1.1339    2.5846 C   0  0  0  0  0  0  0  0  0  0  0  0
   -2.0582   -1.9253    2.4817 H   0  0  0  0  0  0  0  0  0  0  0  0
  1  3  1  0  0  0  0
  1 15  1  0  0  0  0
  2  1  1  0  0  0  0
  3  5  2  0  0  0  0
  4  3  1  0  0  0  0
  6  5  1  0  0  0  0
  7  5  1  0  0  0  0
  8  7  1  0  0  0  0
  9  7  1  0  0  0  0
  9 11  1  0  0  0  0
 10  9  1  0  0  0  0
 11 13  1  0  0  0  0
 12 11  1  0  0  0  0
 13 14  1  0  0  0  0
 15 13  2  0  0  0  0
 16 15  1  0  0  0  0
M  END
