3,6
 OpenBabel05122313053D

 53 53  0  0  1  0  0  0  0  0999 V2000
    1.0014   -0.5750    0.4417 C   0  0  1  0  0  0  0  0  0  0  0  0
    1.8034   -1.0754   -0.7426 C   0  0  0  0  0  3  0  0  0  0  0  0
    2.7543   -2.0913   -0.5949 C   0  0  0  0  0  3  0  0  0  0  0  0
    3.4841   -2.3712    0.6142 C   0  0  0  0  0  0  0  0  0  0  0  0
    3.5837   -1.5516    1.7699 C   0  0  0  0  0  0  0  0  0  0  0  0
    2.9780   -0.2644    1.9911 C   0  0  0  0  0  3  0  0  0  0  0  0
    1.9692    0.3023    1.2087 C   0  0  0  0  0  3  0  0  0  0  0  0
   -0.3452    0.0864    0.0428 C   0  0  0  0  0  0  0  0  0  0  0  0
   -1.0668    0.5273    1.3246 C   0  0  0  0  0  0  0  0  0  0  0  0
   -0.6939    0.2915    2.4584 O   0  0  0  0  0  0  0  0  0  0  0  0
   -2.2192    1.1734    1.0363 O   0  0  0  0  0  0  0  0  0  0  0  0
   -2.9836    1.6017    2.1713 C   0  0  0  0  0  0  0  0  0  0  0  0
   -3.2871    0.7321    2.7877 H   0  0  0  0  0  0  0  0  0  0  0  0
   -3.8734    2.1130    1.7647 H   0  0  0  0  0  0  0  0  0  0  0  0
   -2.3902    2.2919    2.8033 H   0  0  0  0  0  0  0  0  0  0  0  0
   -0.1055    1.2968   -0.8785 C   0  0  0  0  0  0  0  0  0  0  0  0
   -0.1176    1.2529   -2.0925 O   0  0  0  0  0  0  0  0  0  0  0  0
    0.1474    2.4170   -0.1655 O   0  0  0  0  0  0  0  0  0  0  0  0
    0.3713    3.6120   -0.9369 C   0  0  0  0  0  0  0  0  0  0  0  0
    1.2810    3.5018   -1.5564 H   0  0  0  0  0  0  0  0  0  0  0  0
    0.4968    4.4249   -0.2005 H   0  0  0  0  0  0  0  0  0  0  0  0
   -0.4980    3.8108   -1.5941 H   0  0  0  0  0  0  0  0  0  0  0  0
   -1.2538   -0.9156   -0.7152 C   0  0  0  0  0  0  0  0  0  0  0  0
   -1.5522   -2.2148    0.0387 C   0  0  0  0  0  0  0  0  0  0  0  0
   -2.7651   -2.9660   -0.5578 C   0  0  0  0  0  0  0  0  0  0  0  0
   -3.9849   -2.1678   -0.4876 C   0  0  0  0  0  0  0  0  0  0  0  0
   -4.9465   -1.4010   -0.4049 C   0  0  0  0  0  0  0  0  0  0  0  0
   -6.2552   -0.1042   -0.3010 Si  0  0  0  0  0  0  0  0  0  0  0  0
   -5.5150    1.4867   -1.0114 C   0  0  0  0  0  0  0  0  0  0  0  0
   -7.7662   -0.6393   -1.3010 C   0  0  0  0  0  0  0  0  0  0  0  0
   -8.5560    0.1393   -1.2633 H   0  0  0  0  0  0  0  0  0  0  0  0
   -8.1927   -1.5821   -0.9028 H   0  0  0  0  0  0  0  0  0  0  0  0
   -7.4981   -0.8071   -2.3636 H   0  0  0  0  0  0  0  0  0  0  0  0
   -6.7304    0.1359    1.5150 C   0  0  0  0  0  0  0  0  0  0  0  0
   -7.1491   -0.7990    1.9393 H   0  0  0  0  0  0  0  0  0  0  0  0
   -7.4950    0.9336    1.6187 H   0  0  0  0  0  0  0  0  0  0  0  0
   -5.8496    0.4197    2.1250 H   0  0  0  0  0  0  0  0  0  0  0  0
    0.7327   -1.4286    1.0979 H   0  0  0  0  0  0  0  0  0  0  0  0
    1.4789   -0.8079   -1.7593 H   0  0  0  0  0  0  0  0  0  0  0  0
    3.0710   -2.6508   -1.4891 H   0  0  0  0  0  0  0  0  0  0  0  0
    4.1772   -3.2258    0.5774 H   0  0  0  0  0  0  0  0  0  0  0  0
    4.3443   -1.8609    2.5035 H   0  0  0  0  0  0  0  0  0  0  0  0
    3.4400    0.3541    2.7762 H   0  0  0  0  0  0  0  0  0  0  0  0
    1.7331    1.3656    1.3499 H   0  0  0  0  0  0  0  0  0  0  0  0
   -2.2070   -0.3945   -0.9339 H   0  0  0  0  0  0  0  0  0  0  0  0
   -0.7905   -1.1289   -1.6990 H   0  0  0  0  0  0  0  0  0  0  0  0
   -0.6735   -2.8928    0.0200 H   0  0  0  0  0  0  0  0  0  0  0  0
   -1.7661   -2.0046    1.1085 H   0  0  0  0  0  0  0  0  0  0  0  0
   -2.9079   -3.9299   -0.0229 H   0  0  0  0  0  0  0  0  0  0  0  0
   -2.5578   -3.2322   -1.6187 H   0  0  0  0  0  0  0  0  0  0  0  0
   -5.3234    1.3742   -2.0978 H   0  0  0  0  0  0  0  0  0  0  0  0
   -4.5455    1.7187   -0.5258 H   0  0  0  0  0  0  0  0  0  0  0  0
   -6.1997    2.3484   -0.8692 H   0  0  0  0  0  0  0  0  0  0  0  0
  1 38  1  1  0  0  0
  1  7  1  0  0  0  0
  2  3  1  0  0  0  0
  2  1  1  0  0  0  0
  3  4  1  0  0  0  0
  4  5  2  0  0  0  0
  5  6  1  0  0  0  0
  5 42  1  0  0  0  0
  6 43  1  0  0  0  0
  7 44  1  0  0  0  0
  7  6  1  0  0  0  0
  8  1  1  0  0  0  0
  8  9  1  0  0  0  0
  9 10  2  0  0  0  0
 11  9  1  0  0  0  0
 11 12  1  0  0  0  0
 12 13  1  0  0  0  0
 12 15  1  0  0  0  0
 14 12  1  0  0  0  0
 16 18  1  0  0  0  0
 16  8  1  0  0  0  0
 17 16  2  0  0  0  0
 19 21  1  0  0  0  0
 19 18  1  0  0  0  0
 20 19  1  0  0  0  0
 22 19  1  0  0  0  0
 23 24  1  0  0  0  0
 23  8  1  0  0  0  0
 24 48  1  0  0  0  0
 25 26  1  0  0  0  0
 25 49  1  0  0  0  0
 25 24  1  0  0  0  0
 26 27  3  0  0  0  0
 27 28  1  0  0  0  0
 28 34  1  0  0  0  0
 29 53  1  0  0  0  0
 29 52  1  0  0  0  0
 29 28  1  0  0  0  0
 30 31  1  0  0  0  0
 30 32  1  0  0  0  0
 30 28  1  0  0  0  0
 33 30  1  0  0  0  0
 34 36  1  0  0  0  0
 34 35  1  0  0  0  0
 34 37  1  0  0  0  0
 39  2  1  0  0  0  0
 40  3  1  0  0  0  0
 41  4  1  0  0  0  0
 45 23  1  0  0  0  0
 46 23  1  0  0  0  0
 47 24  1  0  0  0  0
 50 25  1  0  0  0  0
 51 29  1  0  0  0  0
M  END
