13,18
 OpenBabel05122313053D

 42 45  0  0  1  0  0  0  0  0999 V2000
    3.5877   -1.2281   -2.1405 O   0  0  0  0  0  0  0  0  0  0  0  0
    1.9631    1.2657    0.6780 N   0  0  0  0  0  0  0  0  0  0  0  0
    1.7494   -0.3631   -1.0393 N   0  0  0  0  0  0  0  0  0  0  0  0
    5.3715    0.4526   -0.6069 C   0  0  0  0  0  0  0  0  0  0  0  0
    6.1433    1.2846    0.2038 C   0  0  0  0  0  0  0  0  0  0  0  0
    5.5171    2.1044    1.1722 C   0  0  0  0  0  0  0  0  0  0  0  0
    4.1323    2.0941    1.3273 C   0  0  0  0  0  0  0  0  0  0  0  0
    3.3283    1.2569    0.5103 C   0  0  0  0  0  0  0  0  0  0  0  0
    3.9682    0.4352   -0.4598 C   0  0  0  0  0  0  0  0  0  0  0  0
    1.2130    0.4947   -0.0756 C   0  0  0  0  0  0  0  0  0  0  0  0
    3.1514   -0.4499   -1.2924 C   0  0  0  0  0  0  0  0  0  0  0  0
    0.9191   -1.2915   -1.8067 C   0  0  0  0  0  0  0  0  0  0  0  0
    0.0286   -2.1035   -0.9204 C   0  0  1  0  0  3  0  0  0  0  0  0
    0.3620   -2.5866    0.3893 C   0  0  0  0  0  3  0  0  0  0  0  0
   -0.7872   -3.2717    0.9097 C   0  0  0  0  0  0  0  0  0  0  0  0
   -1.8148   -3.2251   -0.0800 C   0  0  0  0  0  0  0  0  0  0  0  0
   -1.3146   -2.5132   -1.2171 C   0  0  0  0  0  3  0  0  0  0  0  0
   -0.2427    0.6018    0.1915 C   0  0  0  0  0  3  0  0  0  0  0  0
   -1.3395    0.5371   -0.7232 C   0  0  0  0  0  3  0  0  0  0  0  0
   -2.4847    1.4769   -0.6742 C   0  0  0  0  0  0  0  0  0  0  0  0
   -3.3383    1.5669   -1.7965 C   0  0  0  0  0  0  0  0  0  0  0  0
   -4.4385    2.4345   -1.8055 C   0  0  0  0  0  0  0  0  0  0  0  0
   -4.7131    3.2333   -0.6851 C   0  0  0  0  0  0  0  0  0  0  0  0
   -3.8760    3.1525    0.4407 C   0  0  0  0  0  0  0  0  0  0  0  0
   -2.7769    2.2863    0.4478 C   0  0  0  0  0  0  0  0  0  0  0  0
    5.8211   -0.2017   -1.3682 H   0  0  0  0  0  0  0  0  0  0  0  0
    7.2377    1.3048    0.0923 H   0  0  0  0  0  0  0  0  0  0  0  0
    6.1313    2.7583    1.8103 H   0  0  0  0  0  0  0  0  0  0  0  0
    3.6242    2.7227    2.0726 H   0  0  0  0  0  0  0  0  0  0  0  0
    0.3296   -0.7520   -2.5757 H   0  0  0  0  0  0  0  0  0  0  0  0
    1.6444   -1.9314   -2.3526 H   0  0  0  0  0  0  0  0  0  0  0  0
    1.3185   -2.4371    0.9037 H   0  0  0  0  0  0  0  0  0  0  0  0
   -0.8661   -3.7426    1.8966 H   0  0  0  0  0  0  0  0  0  0  0  0
   -2.8206   -3.6511    0.0187 H   0  0  0  0  0  0  0  0  0  0  0  0
   -1.8673   -2.2973   -2.1389 H   0  0  0  0  0  0  0  0  0  0  0  0
   -0.3428    1.3254    1.0132 H   0  0  0  0  0  0  0  0  0  0  0  0
   -1.1547    0.1761   -1.7449 H   0  0  0  0  0  0  0  0  0  0  0  0
   -3.1289    0.9405   -2.6787 H   0  0  0  0  0  0  0  0  0  0  0  0
   -5.0858    2.4870   -2.6941 H   0  0  0  0  0  0  0  0  0  0  0  0
   -5.5765    3.9155   -0.6868 H   0  0  0  0  0  0  0  0  0  0  0  0
   -4.0832    3.7725    1.3262 H   0  0  0  0  0  0  0  0  0  0  0  0
   -2.1426    2.2314    1.3451 H   0  0  0  0  0  0  0  0  0  0  0  0
  1 11  2  0  0  0  0
  3 10  1  0  0  0  0
  4  9  2  0  0  0  0
  4  5  1  0  0  0  0
  5  6  2  0  0  0  0
  6  7  1  0  0  0  0
  6 28  1  0  0  0  0
  7 29  1  0  0  0  0
  8  2  1  0  0  0  0
  8  7  2  0  0  0  0
  9  8  1  0  0  0  0
 10 18  1  0  0  0  0
 10  2  2  0  0  0  0
 11  3  1  0  0  0  0
 11  9  1  0  0  0  0
 12  3  1  0  0  0  0
 13 12  1  1  0  0  0
 13 14  1  0  0  0  0
 14 32  1  0  0  0  0
 14 15  1  0  0  0  0
 15 33  1  0  0  0  0
 16 34  1  0  0  0  0
 16 15  2  0  0  0  0
 17 13  1  0  0  0  0
 17 16  1  0  0  0  0
 18 36  1  0  0  0  0
 19 20  1  0  0  0  0
 19 18  1  0  0  0  0
 20 25  1  0  0  0  0
 21 20  2  0  0  0  0
 22 21  1  0  0  0  0
 22 23  2  0  0  0  0
 23 24  1  0  0  0  0
 24 25  2  0  0  0  0
 24 41  1  0  0  0  0
 25 42  1  0  0  0  0
 26  4  1  0  0  0  0
 27  5  1  0  0  0  0
 30 12  1  0  0  0  0
 31 12  1  0  0  0  0
 35 17  1  0  0  0  0
 37 19  1  0  0  0  0
 38 21  1  0  0  0  0
 39 22  1  0  0  0  0
 40 23  1  0  0  0  0
M  END
