1,8
 OpenBabel05122313053D

 13 12  0  0  0  0  0  0  0  0999 V2000
    0.3446   -1.3486   -2.3621 C   0  0  0  0  0  3  0  0  0  0  0  0
   -0.0261   -2.3778   -2.4839 H   0  0  0  0  0  0  0  0  0  0  0  0
    1.3981   -1.2454   -2.6945 H   0  0  0  0  0  0  0  0  0  0  0  0
   -0.5603   -0.2674   -2.7078 C   0  0  0  0  0  0  0  0  0  0  0  0
   -1.6135   -0.4866   -2.9440 H   0  0  0  0  0  0  0  0  0  0  0  0
   -0.1996    1.0756   -2.5403 C   0  0  0  0  0  0  0  0  0  0  0  0
   -0.9866    1.8378   -2.6690 H   0  0  0  0  0  0  0  0  0  0  0  0
    1.0854    1.4868   -2.0103 C   0  0  0  0  0  3  0  0  0  0  0  0
    1.9372    0.8551   -2.3432 H   0  0  0  0  0  0  0  0  0  0  0  0
    1.4359    2.9612   -1.9879 C   0  0  0  0  0  0  0  0  0  0  0  0
    0.5497    3.5816   -1.7419 H   0  0  0  0  0  0  0  0  0  0  0  0
    1.8086    3.3215   -2.9740 H   0  0  0  0  0  0  0  0  0  0  0  0
    2.2189    3.2039   -1.2411 H   0  0  0  0  0  0  0  0  0  0  0  0
  2  1  1  0  0  0  0
  3  1  1  0  0  0  0
  4  6  2  0  0  0  0
  4  1  1  0  0  0  0
  5  4  1  0  0  0  0
  6  8  1  0  0  0  0
  7  6  1  0  0  0  0
  8 10  1  0  0  0  0
  9  8  1  0  0  0  0
 10 11  1  0  0  0  0
 10 13  1  0  0  0  0
 12 10  1  0  0  0  0
M  END
