4,6
 OpenBabel05122313053D

 16 15  0  0  1  0  0  0  0  0999 V2000
   -0.1191    2.2125    0.4900 C   0  0  0  0  0  3  0  0  0  0  0  0
    0.8678    2.6852    0.3446 H   0  0  0  0  0  0  0  0  0  0  0  0
   -0.8639    2.5712   -0.2444 H   0  0  0  0  0  0  0  0  0  0  0  0
   -0.6115    2.0530    1.8424 C   0  0  1  0  0  3  0  0  0  0  0  0
    0.3570    1.5086    2.7561 C   0  0  1  0  0  3  0  0  0  0  0  0
    1.6274    1.1141    2.1923 C   0  0  0  0  0  3  0  0  0  0  0  0
    2.2983    0.5572    2.8716 H   0  0  0  0  0  0  0  0  0  0  0  0
    2.1666    1.8197    1.5373 H   0  0  0  0  0  0  0  0  0  0  0  0
   -1.9033    2.6471    2.3413 C   0  0  0  0  0  0  0  0  0  0  0  0
   -2.4798    1.9612    2.9949 H   0  0  0  0  0  0  0  0  0  0  0  0
   -2.5524    2.9530    1.5021 H   0  0  0  0  0  0  0  0  0  0  0  0
   -1.6919    3.5606    2.9414 H   0  0  0  0  0  0  0  0  0  0  0  0
    0.0844    1.5377    4.2371 C   0  0  0  0  0  0  0  0  0  0  0  0
    0.1669    2.5920    4.5833 H   0  0  0  0  0  0  0  0  0  0  0  0
    0.8264    0.9527    4.8085 H   0  0  0  0  0  0  0  0  0  0  0  0
   -0.9306    1.1922    4.5124 H   0  0  0  0  0  0  0  0  0  0  0  0
  2  1  1  0  0  0  0
  3  1  1  0  0  0  0
  4  1  1  1  0  0  0
  4  9  1  0  0  0  0
  4  5  1  0  0  0  0
  5  6  1  1  0  0  0
  5 13  1  0  0  0  0
  6  7  1  0  0  0  0
  8  6  1  0  0  0  0
  9 12  1  0  0  0  0
  9 10  1  0  0  0  0
 11  9  1  0  0  0  0
 13 16  1  0  0  0  0
 13 14  1  0  0  0  0
 13 15  1  0  0  0  0
M  END
