6,23
 OpenBabel05122313053D

 43 46  0  0  0  0  0  0  0  0999 V2000
   -5.6511    2.3541    0.0989 O   0  0  0  0  0  0  0  0  0  0  0  0
   -4.8746   -2.0222   -1.0510 O   0  0  0  0  0  0  0  0  0  0  0  0
    0.7682    2.5720   -0.3844 N   0  0  0  0  0  0  0  0  0  0  0  0
    2.9329    2.4574   -0.6204 N   0  0  0  0  0  0  0  0  0  0  0  0
   -5.2564    0.1770   -0.5122 N   0  0  0  0  0  0  0  0  0  0  0  0
    1.8338    1.6903   -0.3114 C   0  0  0  0  0  2  0  0  0  0  0  0
    2.5649    3.7714   -0.8825 C   0  0  0  0  0  0  0  0  0  0  0  0
    3.2948    4.5324   -1.1731 H   0  0  0  0  0  0  0  0  0  0  0  0
    1.2107    3.8496   -0.7386 C   0  0  0  0  0  0  0  0  0  0  0  0
    0.5285    4.6843   -0.9079 H   0  0  0  0  0  0  0  0  0  0  0  0
    4.3048    1.9846   -0.7033 C   0  0  0  0  0  0  0  0  0  0  0  0
    4.9313    2.4854    0.0613 H   0  0  0  0  0  0  0  0  0  0  0  0
    4.7143    2.1898   -1.7111 H   0  0  0  0  0  0  0  0  0  0  0  0
    4.3049    0.8915   -0.5458 H   0  0  0  0  0  0  0  0  0  0  0  0
   -0.5972    2.2295   -0.1873 C   0  0  0  0  0  0  0  0  0  0  0  0
   -1.5129    3.2520    0.0858 C   0  0  0  0  0  0  0  0  0  0  0  0
   -1.1593    4.2750    0.2705 H   0  0  0  0  0  0  0  0  0  0  0  0
   -2.8928    2.9850    0.1229 C   0  0  0  0  0  0  0  0  0  0  0  0
   -3.6243    3.7759    0.3432 H   0  0  0  0  0  0  0  0  0  0  0  0
   -3.3676    1.7056   -0.1554 C   0  0  0  0  0  0  0  0  0  0  0  0
   -2.4512    0.6453   -0.4150 C   0  0  0  0  0  0  0  0  0  0  0  0
   -1.0257    0.8727   -0.3629 C   0  0  0  0  0  0  0  0  0  0  0  0
   -0.1183   -0.2386   -0.4834 C   0  0  0  0  0  3  0  0  0  0  0  0
   -0.6613   -1.4768   -0.8817 C   0  0  0  0  0  0  0  0  0  0  0  0
    0.0232   -2.3198   -1.0604 H   0  0  0  0  0  0  0  0  0  0  0  0
   -2.0456   -1.6805   -1.0076 C   0  0  0  0  0  0  0  0  0  0  0  0
   -2.4558   -2.6623   -1.2893 H   0  0  0  0  0  0  0  0  0  0  0  0
   -2.9487   -0.6491   -0.7306 C   0  0  0  0  0  0  0  0  0  0  0  0
   -4.4012   -0.9173   -0.7858 C   0  0  0  0  0  0  0  0  0  0  0  0
   -4.8347    1.4716   -0.1700 C   0  0  0  0  0  0  0  0  0  0  0  0
   -6.7003   -0.0769   -0.5333 C   0  0  0  0  0  0  0  0  0  0  0  0
   -6.8667   -0.8798   -1.2742 H   0  0  0  0  0  0  0  0  0  0  0  0
   -7.1903    0.8574   -0.8683 H   0  0  0  0  0  0  0  0  0  0  0  0
   -7.2410   -0.4871    0.8414 C   0  0  0  0  0  0  0  0  0  0  0  0
   -6.7176   -1.4129    1.1654 H   0  0  0  0  0  0  0  0  0  0  0  0
   -6.9813    0.3107    1.5682 H   0  0  0  0  0  0  0  0  0  0  0  0
   -8.7578   -0.7165    0.8547 C   0  0  0  0  0  0  0  0  0  0  0  0
   -9.2703    0.2200    0.5395 H   0  0  0  0  0  0  0  0  0  0  0  0
   -9.0760   -0.8912    1.9050 H   0  0  0  0  0  0  0  0  0  0  0  0
   -9.2323   -1.8828   -0.0167 C   0  0  0  0  0  0  0  0  0  0  0  0
  -10.3247   -2.0442    0.0840 H   0  0  0  0  0  0  0  0  0  0  0  0
   -9.0252   -1.7117   -1.0928 H   0  0  0  0  0  0  0  0  0  0  0  0
   -8.7243   -2.8281    0.2673 H   0  0  0  0  0  0  0  0  0  0  0  0
  2 29  2  0  0  0  0
  3  6  1  0  0  0  0
  3 15  1  0  0  0  0
  4  6  1  0  0  0  0
  5 30  1  0  0  0  0
  7  9  2  0  0  0  0
  7  4  1  0  0  0  0
  8  7  1  0  0  0  0
  9  3  1  0  0  0  0
 10  9  1  0  0  0  0
 11  4  1  0  0  0  0
 11 14  1  0  0  0  0
 11 12  1  0  0  0  0
 13 11  1  0  0  0  0
 15 16  1  0  0  0  0
 16 18  2  0  0  0  0
 16 17  1  0  0  0  0
 18 19  1  0  0  0  0
 20 18  1  0  0  0  0
 21 22  1  0  0  0  0
 21 20  2  0  0  0  0
 22 15  2  0  0  0  0
 23 22  1  0  0  0  0
 24 23  2  0  0  0  0
 25 24  1  0  0  0  0
 26 24  1  0  0  0  0
 26 28  2  0  0  0  0
 27 26  1  0  0  0  0
 28 21  1  0  0  0  0
 29 28  1  0  0  0  0
 29  5  1  0  0  0  0
 30 20  1  0  0  0  0
 30  1  2  0  0  0  0
 31  5  1  0  0  0  0
 31 34  1  0  0  0  0
 32 31  1  0  0  0  0
 33 31  1  0  0  0  0
 34 37  1  0  0  0  0
 34 35  1  0  0  0  0
 34 36  1  0  0  0  0
 37 39  1  0  0  0  0
 38 37  1  0  0  0  0
 40 41  1  0  0  0  0
 40 43  1  0  0  0  0
 40 37  1  0  0  0  0
 42 40  1  0  0  0  0
M  END
