6,10
 OpenBabel05122313053D

 32 34  0  0  0  0  0  0  0  0999 V2000
    3.0553   -0.1718    1.2680 N   0  0  0  0  0  0  0  0  0  0  0  0
    2.5107    1.4481   -0.0566 N   0  0  0  0  0  0  0  0  0  0  0  0
    0.3409    2.2230   -0.6582 N   0  0  0  0  0  0  0  0  0  0  0  0
   -1.5841    1.4822   -0.0035 N   0  0  0  0  0  0  0  0  0  0  0  0
    3.0360   -1.4278    2.0112 C   0  0  0  0  0  0  0  0  0  0  0  0
    2.1507    0.1711    0.3063 C   0  0  0  0  0  2  0  0  0  0  0  0
    3.6142    1.8946    0.6615 C   0  0  0  0  0  0  0  0  0  0  0  0
    3.9573    0.8628    1.4951 C   0  0  0  0  0  0  0  0  0  0  0  0
    1.7416    2.1807   -1.0480 C   0  0  0  0  0  0  0  0  0  0  0  0
   -0.3305    1.0637   -0.3640 C   0  0  0  0  0  2  0  0  0  0  0  0
   -1.6873    2.8719   -0.0964 C   0  0  0  0  0  0  0  0  0  0  0  0
   -0.4690    3.3432   -0.5043 C   0  0  0  0  0  0  0  0  0  0  0  0
   -2.6481    0.6410    0.4582 C   0  0  0  0  0  0  0  0  0  0  0  0
   -2.3783   -0.3823    1.3805 C   0  0  0  0  0  0  0  0  0  0  0  0
   -3.4294   -1.1848    1.8382 C   0  0  0  0  0  0  0  0  0  0  0  0
   -4.7410   -0.9627    1.3885 C   0  0  0  0  0  0  0  0  0  0  0  0
   -5.0006    0.0674    0.4719 C   0  0  0  0  0  0  0  0  0  0  0  0
   -3.9540    0.8714   -0.0006 C   0  0  0  0  0  0  0  0  0  0  0  0
    2.5866   -2.2001    1.3504 H   0  0  0  0  0  0  0  0  0  0  0  0
    4.0731   -1.7103    2.2706 H   0  0  0  0  0  0  0  0  0  0  0  0
    2.4396   -1.3143    2.9388 H   0  0  0  0  0  0  0  0  0  0  0  0
    4.0700    2.8769    0.5063 H   0  0  0  0  0  0  0  0  0  0  0  0
    4.7688    0.7757    2.2235 H   0  0  0  0  0  0  0  0  0  0  0  0
    2.1317    3.2114   -1.1297 H   0  0  0  0  0  0  0  0  0  0  0  0
    1.8274    1.6642   -2.0257 H   0  0  0  0  0  0  0  0  0  0  0  0
   -2.6067    3.4001    0.1694 H   0  0  0  0  0  0  0  0  0  0  0  0
   -0.1211    4.3625   -0.6966 H   0  0  0  0  0  0  0  0  0  0  0  0
   -1.3444   -0.5546    1.7109 H   0  0  0  0  0  0  0  0  0  0  0  0
   -3.2178   -1.9975    2.5484 H   0  0  0  0  0  0  0  0  0  0  0  0
   -5.5625   -1.6000    1.7481 H   0  0  0  0  0  0  0  0  0  0  0  0
   -6.0233    0.2366    0.1034 H   0  0  0  0  0  0  0  0  0  0  0  0
   -4.1433    1.6503   -0.7535 H   0  0  0  0  0  0  0  0  0  0  0  0
  1  8  1  0  0  0  0
  1  5  1  0  0  0  0
  2  6  1  0  0  0  0
  2  7  1  0  0  0  0
  3 12  1  0  0  0  0
  3 10  1  0  0  0  0
  4 13  1  0  0  0  0
  5 20  1  0  0  0  0
  5 21  1  0  0  0  0
  6  1  1  0  0  0  0
  7  8  2  0  0  0  0
  8 23  1  0  0  0  0
  9  3  1  0  0  0  0
  9  2  1  0  0  0  0
 10  4  1  0  0  0  0
 11  4  1  0  0  0  0
 11 26  1  0  0  0  0
 12 11  2  0  0  0  0
 13 14  1  0  0  0  0
 14 28  1  0  0  0  0
 14 15  2  0  0  0  0
 15 29  1  0  0  0  0
 16 30  1  0  0  0  0
 16 15  1  0  0  0  0
 17 16  2  0  0  0  0
 18 13  2  0  0  0  0
 18 17  1  0  0  0  0
 19  5  1  0  0  0  0
 22  7  1  0  0  0  0
 24  9  1  0  0  0  0
 25  9  1  0  0  0  0
 27 12  1  0  0  0  0
 31 17  1  0  0  0  0
 32 18  1  0  0  0  0
M  END
