1,20
 OpenBabel05122313053D

 46 50  0  0  0  0  0  0  0  0999 V2000
    0.9324    0.5364    0.0129 C   0  0  0  0  0  3  0  0  0  0  0  0
   -0.0175    1.5646    0.2060 C   0  0  0  0  0  0  0  0  0  0  0  0
    0.4320    2.9130    0.4532 C   0  0  0  0  0  0  0  0  0  0  0  0
   -0.3145    3.6962    0.6504 H   0  0  0  0  0  0  0  0  0  0  0  0
    1.7719    3.2347    0.4695 C   0  0  0  0  0  0  0  0  0  0  0  0
    2.0942    4.2677    0.6748 H   0  0  0  0  0  0  0  0  0  0  0  0
    6.5250    1.8550   -0.0656 C   0  0  0  0  0  0  0  0  0  0  0  0
    6.8461    2.8914    0.1238 H   0  0  0  0  0  0  0  0  0  0  0  0
    7.4576    0.8660   -0.3176 C   0  0  0  0  0  0  0  0  0  0  0  0
    8.5309    1.1093   -0.3296 H   0  0  0  0  0  0  0  0  0  0  0  0
    7.0372   -0.4767   -0.5659 C   0  0  0  0  0  0  0  0  0  0  0  0
    7.7912   -1.2529   -0.7666 H   0  0  0  0  0  0  0  0  0  0  0  0
    5.6937   -0.8013   -0.5560 C   0  0  0  0  0  0  0  0  0  0  0  0
    5.3670   -1.8357   -0.7488 H   0  0  0  0  0  0  0  0  0  0  0  0
    3.3190   -0.1044   -0.2737 C   0  0  0  0  0  0  0  0  0  0  0  0
    3.0022   -1.1383   -0.4854 H   0  0  0  0  0  0  0  0  0  0  0  0
    4.1443    2.5433    0.2010 C   0  0  0  0  0  0  0  0  0  0  0  0
    4.4646    3.5828    0.3804 H   0  0  0  0  0  0  0  0  0  0  0  0
   -1.4708    1.2402    0.1985 C   0  0  0  0  0  0  0  0  0  0  0  0
   -1.8819   -0.0800    0.2005 C   0  0  0  0  0  3  0  0  0  0  0  0
   -2.4608    2.3592    0.1428 C   0  0  0  0  0  0  0  0  0  0  0  0
   -3.5060    2.4445    1.0880 C   0  0  0  0  0  0  0  0  0  0  0  0
   -3.5568    1.6954    1.8921 H   0  0  0  0  0  0  0  0  0  0  0  0
   -4.4694    3.4593    1.0063 C   0  0  0  0  0  0  0  0  0  0  0  0
   -5.2748    3.5087    1.7552 H   0  0  0  0  0  0  0  0  0  0  0  0
   -4.4107    4.4082   -0.0269 C   0  0  0  0  0  0  0  0  0  0  0  0
   -5.1691    5.2030   -0.0934 H   0  0  0  0  0  0  0  0  0  0  0  0
   -3.3764    4.3372   -0.9745 C   0  0  0  0  0  0  0  0  0  0  0  0
   -3.3243    5.0747   -1.7904 H   0  0  0  0  0  0  0  0  0  0  0  0
   -2.4089    3.3261   -0.8876 C   0  0  0  0  0  0  0  0  0  0  0  0
   -1.6032    3.2697   -1.6361 H   0  0  0  0  0  0  0  0  0  0  0  0
   -3.2684   -0.5287   -0.0075 C   0  0  0  0  0  0  0  0  0  0  0  0
   -3.8352   -1.5569    0.7890 C   0  0  0  0  0  0  0  0  0  0  0  0
   -3.2570   -1.9559    1.6348 H   0  0  0  0  0  0  0  0  0  0  0  0
   -5.1195   -2.0587    0.5335 C   0  0  0  0  0  0  0  0  0  0  0  0
   -5.5344   -2.8472    1.1805 H   0  0  0  0  0  0  0  0  0  0  0  0
   -5.8721   -1.5644   -0.5435 C   0  0  0  0  0  0  0  0  0  0  0  0
   -6.8760   -1.9641   -0.7519 H   0  0  0  0  0  0  0  0  0  0  0  0
   -5.3261   -0.5539   -1.3537 C   0  0  0  0  0  0  0  0  0  0  0  0
   -5.9037   -0.1577   -2.2034 H   0  0  0  0  0  0  0  0  0  0  0  0
   -4.0511   -0.0402   -1.0879 C   0  0  0  0  0  0  0  0  0  0  0  0
   -3.6385    0.7548   -1.7263 H   0  0  0  0  0  0  0  0  0  0  0  0
    2.3296    0.8698   -0.0129 C   0  0  0  0  0  0  0  0  0  0  0  0
    5.1240    1.5595   -0.0449 C   0  0  0  0  0  0  0  0  0  0  0  0
    2.7710    2.2392    0.2204 C   0  0  0  0  0  0  0  0  0  0  0  0
    4.6960    0.1934   -0.2947 C   0  0  0  0  0  0  0  0  0  0  0  0
  1  2  1  0  0  0  0
  2  3  2  0  0  0  0
  3  5  1  0  0  0  0
  3  4  1  0  0  0  0
  5  6  1  0  0  0  0
  7 44  1  0  0  0  0
  7  8  1  0  0  0  0
  9  7  2  0  0  0  0
 10  9  1  0  0  0  0
 11 13  2  0  0  0  0
 11  9  1  0  0  0  0
 12 11  1  0  0  0  0
 13 46  1  0  0  0  0
 14 13  1  0  0  0  0
 15 43  1  0  0  0  0
 16 15  1  0  0  0  0
 17 45  1  0  0  0  0
 17 18  1  0  0  0  0
 19 20  2  0  0  0  0
 19  2  1  0  0  0  0
 21 19  1  0  0  0  0
 21 22  1  0  0  0  0
 22 23  1  0  0  0  0
 24 22  2  0  0  0  0
 24 25  1  0  0  0  0
 26 24  1  0  0  0  0
 27 26  1  0  0  0  0
 28 30  1  0  0  0  0
 28 26  2  0  0  0  0
 29 28  1  0  0  0  0
 30 21  2  0  0  0  0
 31 30  1  0  0  0  0
 32 20  1  0  0  0  0
 32 33  1  0  0  0  0
 33 34  1  0  0  0  0
 35 33  2  0  0  0  0
 35 36  1  0  0  0  0
 37 35  1  0  0  0  0
 38 37  1  0  0  0  0
 39 41  1  0  0  0  0
 39 37  2  0  0  0  0
 40 39  1  0  0  0  0
 41 32  2  0  0  0  0
 42 41  1  0  0  0  0
 43  1  2  0  0  0  0
 43 45  1  0  0  0  0
 44 17  2  0  0  0  0
 45  5  2  0  0  0  0
 46 15  2  0  0  0  0
 46 44  1  0  0  0  0
M  END
