7,9
q = 0.0, confidence = 1.0

 40 43  0  0  0  0  0  0  0  0999 V2000
   -1.2523   -2.3133   -1.6116 N   0  0  0  0  0  0  0  0  0  0  0  0
   -2.3619   -0.5149   -1.2650 N   0  0  0  0  0  0  0  0  0  0  0  0
   -3.0241   -1.1560   -2.2804 N   0  0  0  0  0  0  0  0  0  0  0  0
    1.7449   -2.0157   -1.3349 N   0  0  0  0  0  0  0  0  0  0  0  0
    2.3835    0.0195   -1.3815 N   0  0  0  0  0  0  0  0  0  0  0  0
    3.2408   -0.6451   -2.2271 N   0  0  0  0  0  0  0  0  0  0  0  0
   -1.2687   -1.1979   -0.7955 C   0  0  0  0  0  2  0  0  0  0  0  0
   -2.3332   -2.2450   -2.4725 C   0  0  0  0  0  0  0  0  0  0  0  0
    1.4571   -0.7823   -0.7926 C   0  0  0  0  0  2  0  0  0  0  0  0
    2.8287   -1.8876   -2.1812 C   0  0  0  0  0  0  0  0  0  0  0  0
   -0.3009   -3.4315   -1.6617 C   0  0  0  0  0  0  0  0  0  0  0  0
    1.0244   -3.2193   -0.9351 C   0  0  0  0  0  0  0  0  0  0  0  0
   -2.8232    0.7870   -0.8811 C   0  0  0  0  0  0  0  0  0  0  0  0
   -4.1630    1.1343   -1.1265 C   0  0  0  0  0  0  0  0  0  0  0  0
   -4.6120    2.4135   -0.7720 C   0  0  0  0  0  0  0  0  0  0  0  0
   -3.7373    3.3410   -0.1825 C   0  0  0  0  0  0  0  0  0  0  0  0
   -2.4001    2.9834    0.0522 C   0  0  0  0  0  0  0  0  0  0  0  0
   -1.9373    1.7087   -0.3006 C   0  0  0  0  0  0  0  0  0  0  0  0
    2.5475    1.4249   -1.1582 C   0  0  0  0  0  0  0  0  0  0  0  0
    3.7981    1.9148   -0.7508 C   0  0  0  0  0  0  0  0  0  0  0  0
    3.9376    3.2862   -0.4952 C   0  0  0  0  0  0  0  0  0  0  0  0
    2.8401    4.1509   -0.6443 C   0  0  0  0  0  0  0  0  0  0  0  0
    1.6005    3.6487   -1.0724 C   0  0  0  0  0  0  0  0  0  0  0  0
    1.4513    2.2808   -1.3417 C   0  0  0  0  0  0  0  0  0  0  0  0
   -2.5697   -3.0114   -3.2207 H   0  0  0  0  0  0  0  0  0  0  0  0
    3.2858   -2.7172   -2.7342 H   0  0  0  0  0  0  0  0  0  0  0  0
   -0.1128   -3.6409   -2.7342 H   0  0  0  0  0  0  0  0  0  0  0  0
   -0.7797   -4.3356   -1.2294 H   0  0  0  0  0  0  0  0  0  0  0  0
    0.8545   -3.1325    0.1576 H   0  0  0  0  0  0  0  0  0  0  0  0
    1.6654   -4.1018   -1.1275 H   0  0  0  0  0  0  0  0  0  0  0  0
   -4.8340    0.4041   -1.5975 H   0  0  0  0  0  0  0  0  0  0  0  0
   -5.6609    2.6865   -0.9594 H   0  0  0  0  0  0  0  0  0  0  0  0
   -4.0978    4.3435    0.0903 H   0  0  0  0  0  0  0  0  0  0  0  0
   -1.7028    3.7037    0.5065 H   0  0  0  0  0  0  0  0  0  0  0  0
   -0.8911    1.4072   -0.1029 H   0  0  0  0  0  0  0  0  0  0  0  0
    4.6445    1.2228   -0.6380 H   0  0  0  0  0  0  0  0  0  0  0  0
    4.9120    3.6815   -0.1729 H   0  0  0  0  0  0  0  0  0  0  0  0
    2.9569    5.2252   -0.4391 H   0  0  0  0  0  0  0  0  0  0  0  0
    0.7457    4.3260   -1.2173 H   0  0  0  0  0  0  0  0  0  0  0  0
    0.4994    1.8782   -1.7125 H   0  0  0  0  0  0  0  0  0  0  0  0
  1  7  1  0  0  0  0
  2 13  1  0  0  0  0
  2  7  1  0  0  0  0
  3  2  1  0  0  0  0
  4 12  1  0  0  0  0
  4  9  1  0  0  0  0
  5 19  1  0  0  0  0
  5  9  1  0  0  0  0
  6 10  2  0  0  0  0
  6  5  1  0  0  0  0
  8  3  2  0  0  0  0
  8  1  1  0  0  0  0
 10  4  1  0  0  0  0
 11  1  1  0  0  0  0
 11 28  1  0  0  0  0
 11 12  1  0  0  0  0
 12 29  1  0  0  0  0
 13 18  1  0  0  0  0
 14 13  2  0  0  0  0
 14 15  1  0  0  0  0
 15 16  2  0  0  0  0
 16 17  1  0  0  0  0
 16 33  1  0  0  0  0
 17 34  1  0  0  0  0
 18 35  1  0  0  0  0
 18 17  2  0  0  0  0
 19 20  1  0  0  0  0
 20 36  1  0  0  0  0
 20 21  2  0  0  0  0
 21 37  1  0  0  0  0
 22 21  1  0  0  0  0
 22 38  1  0  0  0  0
 23 22  2  0  0  0  0
 24 19  2  0  0  0  0
 24 23  1  0  0  0  0
 25  8  1  0  0  0  0
 26 10  1  0  0  0  0
 27 11  1  0  0  0  0
 30 12  1  0  0  0  0
 31 14  1  0  0  0  0
 32 15  1  0  0  0  0
 39 23  1  0  0  0  0
 40 24  1  0  0  0  0
M  END
