7,9
 OpenBabel05122313053D

 50 50  0  0  1  0  0  0  0  0999 V2000
    0.4298   -2.3611   -0.5964 N   0  0  0  0  0  0  0  0  0  0  0  0
    1.2794   -2.9465   -0.5226 H   0  0  0  0  0  0  0  0  0  0  0  0
    0.0826   -2.4463   -1.5616 H   0  0  0  0  0  0  0  0  0  0  0  0
   -5.4865    0.3429   -0.0121 N   0  0  0  0  0  0  0  0  0  0  0  0
   -5.3908    1.5695    0.0138 O   0  0  0  0  0  0  0  0  0  0  0  0
   -6.5378   -0.2875   -0.1158 O   0  0  0  0  0  0  0  0  0  0  0  0
    2.0590    1.4573    0.0665 C   0  0  0  0  0  3  0  0  0  0  0  0
    0.9858    2.1849   -0.3278 C   0  0  0  0  0  0  0  0  0  0  0  0
   -0.1025    1.1776   -0.5860 C   0  0  1  0  0  3  0  0  0  0  0  0
   -0.5688    0.3811    0.5134 C   0  0  2  0  0  3  0  0  0  0  0  0
   -1.8008   -0.4716    0.3098 C   0  0  0  0  0  0  0  0  0  0  0  0
   -3.0174    0.2358    0.2227 C   0  0  0  0  0  0  0  0  0  0  0  0
   -3.0332    1.3341    0.2540 H   0  0  0  0  0  0  0  0  0  0  0  0
   -4.2300   -0.4431    0.0899 C   0  0  0  0  0  0  0  0  0  0  0  0
   -4.2916   -1.8395    0.0450 C   0  0  0  0  0  0  0  0  0  0  0  0
   -5.2641   -2.3366   -0.0631 H   0  0  0  0  0  0  0  0  0  0  0  0
   -3.0890   -2.5450    0.1338 C   0  0  0  0  0  0  0  0  0  0  0  0
   -3.1088   -3.6451    0.0950 H   0  0  0  0  0  0  0  0  0  0  0  0
   -1.8431   -1.8930    0.2723 C   0  0  0  0  0  0  0  0  0  0  0  0
   -0.6014   -2.7532    0.3737 C   0  0  0  0  0  0  0  0  0  0  0  0
   -0.1523   -2.6517    1.3835 H   0  0  0  0  0  0  0  0  0  0  0  0
   -0.8979   -3.8188    0.2570 H   0  0  0  0  0  0  0  0  0  0  0  0
    3.4323    1.8523    0.4953 C   0  0  0  0  0  0  0  0  0  0  0  0
    3.5475    2.9536    0.3702 H   0  0  0  0  0  0  0  0  0  0  0  0
    4.1713    1.3694   -0.1793 H   0  0  0  0  0  0  0  0  0  0  0  0
    3.7462    1.4494    1.9436 C   0  0  0  0  0  0  0  0  0  0  0  0
    4.7706    1.7619    2.2297 H   0  0  0  0  0  0  0  0  0  0  0  0
    3.6776    0.3489    2.0564 H   0  0  0  0  0  0  0  0  0  0  0  0
    3.0338    1.9158    2.6550 H   0  0  0  0  0  0  0  0  0  0  0  0
    0.7938    3.6662   -0.5226 C   0  0  0  0  0  0  0  0  0  0  0  0
    0.5563    3.8719   -1.5914 H   0  0  0  0  0  0  0  0  0  0  0  0
    1.7529    4.1862   -0.3207 H   0  0  0  0  0  0  0  0  0  0  0  0
   -0.3234    4.2454    0.3581 C   0  0  0  0  0  0  0  0  0  0  0  0
   -0.4837    5.3232    0.1539 H   0  0  0  0  0  0  0  0  0  0  0  0
   -0.0842    4.1339    1.4349 H   0  0  0  0  0  0  0  0  0  0  0  0
   -1.2886    3.7261    0.1793 H   0  0  0  0  0  0  0  0  0  0  0  0
   -0.7583    1.1648   -1.9539 C   0  0  0  0  0  0  0  0  0  0  0  0
   -1.4566    0.3077   -2.0335 H   0  0  0  0  0  0  0  0  0  0  0  0
   -1.3981    2.0760   -2.0197 H   0  0  0  0  0  0  0  0  0  0  0  0
    0.2313    1.1482   -3.1228 C   0  0  0  0  0  0  0  0  0  0  0  0
   -0.3016    1.1651   -4.0941 H   0  0  0  0  0  0  0  0  0  0  0  0
    0.8654    0.2384   -3.0846 H   0  0  0  0  0  0  0  0  0  0  0  0
    0.9186    2.0165   -3.0913 H   0  0  0  0  0  0  0  0  0  0  0  0
   -0.4166    0.8267    1.9712 C   0  0  0  0  0  0  0  0  0  0  0  0
    0.3506    1.6216    2.0166 H   0  0  0  0  0  0  0  0  0  0  0  0
   -1.3858    1.2934    2.2658 H   0  0  0  0  0  0  0  0  0  0  0  0
   -0.0752   -0.2793    2.9705 C   0  0  0  0  0  0  0  0  0  0  0  0
   -0.0236    0.1273    4.0001 H   0  0  0  0  0  0  0  0  0  0  0  0
    0.9099   -0.7307    2.7309 H   0  0  0  0  0  0  0  0  0  0  0  0
   -0.8378   -1.0856    2.9751 H   0  0  0  0  0  0  0  0  0  0  0  0
  1  2  1  0  0  0  0
  1 20  1  0  0  0  0
  3  1  1  0  0  0  0
  4  5  2  0  0  0  0
  4 14  1  0  0  0  0
  6  4  2  0  0  0  0
  7 23  1  0  0  0  0
  8  7  2  0  0  0  0
  9  8  1  1  0  0  0
  9 10  1  0  0  0  0
 10 44  1  1  0  0  0
 11 10  1  0  0  0  0
 12 13  1  0  0  0  0
 12 11  2  0  0  0  0
 14 12  1  0  0  0  0
 15 14  2  0  0  0  0
 15 17  1  0  0  0  0
 16 15  1  0  0  0  0
 17 19  2  0  0  0  0
 18 17  1  0  0  0  0
 19 11  1  0  0  0  0
 19 20  1  0  0  0  0
 20 21  1  0  0  0  0
 22 20  1  0  0  0  0
 23 26  1  0  0  0  0
 24 23  1  0  0  0  0
 25 23  1  0  0  0  0
 26 28  1  0  0  0  0
 26 27  1  0  0  0  0
 26 29  1  0  0  0  0
 30  8  1  0  0  0  0
 30 32  1  0  0  0  0
 30 33  1  0  0  0  0
 31 30  1  0  0  0  0
 33 35  1  0  0  0  0
 34 33  1  0  0  0  0
 36 33  1  0  0  0  0
 37  9  1  0  0  0  0
 38 37  1  0  0  0  0
 39 37  1  0  0  0  0
 40 43  1  0  0  0  0
 40 42  1  0  0  0  0
 40 37  1  0  0  0  0
 41 40  1  0  0  0  0
 44 45  1  0  0  0  0
 44 46  1  0  0  0  0
 44 47  1  0  0  0  0
 47 50  1  0  0  0  0
 47 48  1  0  0  0  0
 49 47  1  0  0  0  0
M  END
