5,7
 OpenBabel05122313053D

 48 48  0  0  1  0  0  0  0  0999 V2000
    5.8611    0.6124   -0.0415 Cl  0  0  0  0  0  0  0  0  0  0  0  0
   -0.2434   -2.3476   -0.5974 N   0  0  0  0  0  0  0  0  0  0  0  0
   -1.0788   -2.9532   -0.5305 H   0  0  0  0  0  0  0  0  0  0  0  0
    0.1105   -2.4176   -1.5614 H   0  0  0  0  0  0  0  0  0  0  0  0
   -1.9340    1.4402    0.0695 C   0  0  0  0  0  3  0  0  0  0  0  0
   -0.8738    2.1848   -0.3276 C   0  0  0  0  0  0  0  0  0  0  0  0
    0.2315    1.1956   -0.5854 C   0  0  2  0  0  3  0  0  0  0  0  0
    0.7172    0.4109    0.5137 C   0  0  1  0  0  3  0  0  0  0  0  0
    1.9628   -0.4224    0.3077 C   0  0  0  0  0  0  0  0  0  0  0  0
    3.1670    0.3092    0.2179 C   0  0  0  0  0  0  0  0  0  0  0  0
    3.1373    1.4080    0.2542 H   0  0  0  0  0  0  0  0  0  0  0  0
    4.4019   -0.3365    0.0777 C   0  0  0  0  0  0  0  0  0  0  0  0
    4.4710   -1.7361    0.0262 C   0  0  0  0  0  0  0  0  0  0  0  0
    5.4406   -2.2395   -0.0885 H   0  0  0  0  0  0  0  0  0  0  0  0
    3.2797   -2.4636    0.1173 C   0  0  0  0  0  0  0  0  0  0  0  0
    3.3243   -3.5633    0.0737 H   0  0  0  0  0  0  0  0  0  0  0  0
    2.0226   -1.8410    0.2661 C   0  0  0  0  0  0  0  0  0  0  0  0
    0.7963   -2.7212    0.3732 C   0  0  0  0  0  0  0  0  0  0  0  0
    1.1108   -3.7815    0.2533 H   0  0  0  0  0  0  0  0  0  0  0  0
    0.3422   -2.6319    1.3817 H   0  0  0  0  0  0  0  0  0  0  0  0
   -3.3128    1.8149    0.4996 C   0  0  0  0  0  0  0  0  0  0  0  0
   -4.0449    1.3194   -0.1734 H   0  0  0  0  0  0  0  0  0  0  0  0
   -3.4463    2.9142    0.3743 H   0  0  0  0  0  0  0  0  0  0  0  0
   -3.6184    1.4075    1.9485 C   0  0  0  0  0  0  0  0  0  0  0  0
   -4.6475    1.7031    2.2361 H   0  0  0  0  0  0  0  0  0  0  0  0
   -2.9126    1.8853    2.6589 H   0  0  0  0  0  0  0  0  0  0  0  0
   -3.5313    0.3083    2.0609 H   0  0  0  0  0  0  0  0  0  0  0  0
   -0.7079    3.6689   -0.5266 C   0  0  0  0  0  0  0  0  0  0  0  0
   -1.6750    4.1731   -0.3226 H   0  0  0  0  0  0  0  0  0  0  0  0
   -0.4772    3.8764   -1.5966 H   0  0  0  0  0  0  0  0  0  0  0  0
    0.4017    4.2698    0.3492 C   0  0  0  0  0  0  0  0  0  0  0  0
    0.5430    5.3500    0.1425 H   0  0  0  0  0  0  0  0  0  0  0  0
    1.3746    3.7658    0.1682 H   0  0  0  0  0  0  0  0  0  0  0  0
    0.1683    4.1557    1.4270 H   0  0  0  0  0  0  0  0  0  0  0  0
    0.8822    1.1888   -1.9561 C   0  0  0  0  0  0  0  0  0  0  0  0
    1.5959    0.3444   -2.0327 H   0  0  0  0  0  0  0  0  0  0  0  0
    1.5050    2.1113   -2.0289 H   0  0  0  0  0  0  0  0  0  0  0  0
   -0.1114    1.1494   -3.1208 C   0  0  0  0  0  0  0  0  0  0  0  0
    0.4169    1.1722   -4.0947 H   0  0  0  0  0  0  0  0  0  0  0  0
   -0.8154    2.0044   -3.0899 H   0  0  0  0  0  0  0  0  0  0  0  0
   -0.7282    0.2279   -3.0763 H   0  0  0  0  0  0  0  0  0  0  0  0
    0.5535    0.8531    1.9710 C   0  0  0  0  0  0  0  0  0  0  0  0
    1.5152    1.3329    2.2682 H   0  0  0  0  0  0  0  0  0  0  0  0
   -0.2264    1.6356    2.0169 H   0  0  0  0  0  0  0  0  0  0  0  0
    0.2281   -0.2598    2.9682 C   0  0  0  0  0  0  0  0  0  0  0  0
    0.1709    0.1437    3.9989 H   0  0  0  0  0  0  0  0  0  0  0  0
    1.0022   -1.0548    2.9688 H   0  0  0  0  0  0  0  0  0  0  0  0
   -0.7505   -0.7247    2.7275 H   0  0  0  0  0  0  0  0  0  0  0  0
  1 12  1  0  0  0  0
  2  3  1  0  0  0  0
  2 18  1  0  0  0  0
  4  2  1  0  0  0  0
  5 21  1  0  0  0  0
  6  5  2  0  0  0  0
  7  6  1  1  0  0  0
  7  8  1  0  0  0  0
  8 42  1  1  0  0  0
  9  8  1  0  0  0  0
 10 11  1  0  0  0  0
 10  9  2  0  0  0  0
 12 10  1  0  0  0  0
 13 12  2  0  0  0  0
 13 15  1  0  0  0  0
 14 13  1  0  0  0  0
 15 17  2  0  0  0  0
 16 15  1  0  0  0  0
 17  9  1  0  0  0  0
 17 18  1  0  0  0  0
 18 20  1  0  0  0  0
 19 18  1  0  0  0  0
 21 24  1  0  0  0  0
 22 21  1  0  0  0  0
 23 21  1  0  0  0  0
 24 27  1  0  0  0  0
 24 25  1  0  0  0  0
 24 26  1  0  0  0  0
 28  6  1  0  0  0  0
 28 29  1  0  0  0  0
 28 31  1  0  0  0  0
 30 28  1  0  0  0  0
 31 34  1  0  0  0  0
 32 31  1  0  0  0  0
 33 31  1  0  0  0  0
 35  7  1  0  0  0  0
 36 35  1  0  0  0  0
 37 35  1  0  0  0  0
 38 40  1  0  0  0  0
 38 41  1  0  0  0  0
 38 35  1  0  0  0  0
 39 38  1  0  0  0  0
 42 44  1  0  0  0  0
 42 43  1  0  0  0  0
 42 45  1  0  0  0  0
 45 47  1  0  0  0  0
 45 46  1  0  0  0  0
 48 45  1  0  0  0  0
M  END
