3,8
 OpenBabel05122313053D

 45 46  0  0  0  0  0  0  0  0999 V2000
    3.2496    1.3367    0.0733 O   0  0  0  0  0  0  0  0  0  0  0  0
    3.4392   -0.1712   -1.6380 O   0  0  0  0  0  0  0  0  0  0  0  0
   -1.3070   -0.0931    0.0658 C   0  0  0  0  0  3  0  0  0  0  0  0
   -0.9807    1.2333   -0.0506 C   0  0  0  0  0  0  0  0  0  0  0  0
    0.4813    1.6007   -0.2021 C   0  0  0  0  0  0  0  0  0  0  0  0
    0.8884    1.8761    0.7958 H   0  0  0  0  0  0  0  0  0  0  0  0
    0.5972    2.5355   -0.7972 H   0  0  0  0  0  0  0  0  0  0  0  0
    1.2584    0.4581   -0.8467 C   0  0  0  0  0  3  0  0  0  0  0  0
    0.9168    0.3389   -1.8885 H   0  0  0  0  0  0  0  0  0  0  0  0
    2.7348    0.4915   -0.8753 C   0  0  0  0  0  0  0  0  0  0  0  0
    4.6947    1.5702    0.2012 C   0  0  0  0  0  0  0  0  0  0  0  0
    5.4173    0.2737    0.5871 C   0  0  0  0  0  0  0  0  0  0  0  0
    5.0062   -0.1325    1.5331 H   0  0  0  0  0  0  0  0  0  0  0  0
    6.4946    0.4796    0.7475 H   0  0  0  0  0  0  0  0  0  0  0  0
    5.3129   -0.4818   -0.2126 H   0  0  0  0  0  0  0  0  0  0  0  0
    5.2427    2.1643   -1.1019 C   0  0  0  0  0  0  0  0  0  0  0  0
    4.6711    3.0731   -1.3772 H   0  0  0  0  0  0  0  0  0  0  0  0
    5.1704    1.4331   -1.9270 H   0  0  0  0  0  0  0  0  0  0  0  0
    6.3044    2.4525   -0.9661 H   0  0  0  0  0  0  0  0  0  0  0  0
    4.7763    2.5929    1.3376 C   0  0  0  0  0  0  0  0  0  0  0  0
    4.2106    3.5089    1.0766 H   0  0  0  0  0  0  0  0  0  0  0  0
    5.8311    2.8720    1.5291 H   0  0  0  0  0  0  0  0  0  0  0  0
    4.3502    2.1755    2.2716 H   0  0  0  0  0  0  0  0  0  0  0  0
   -2.6935   -0.5931    0.0963 C   0  0  0  0  0  0  0  0  0  0  0  0
   -3.1864   -1.4003    1.1512 C   0  0  0  0  0  0  0  0  0  0  0  0
   -2.5402   -1.6082    2.0159 H   0  0  0  0  0  0  0  0  0  0  0  0
   -4.4883   -1.9214    1.1228 C   0  0  0  0  0  0  0  0  0  0  0  0
   -4.8463   -2.5371    1.9627 H   0  0  0  0  0  0  0  0  0  0  0  0
   -5.3334   -1.6624    0.0320 C   0  0  0  0  0  0  0  0  0  0  0  0
   -6.3520   -2.0780    0.0058 H   0  0  0  0  0  0  0  0  0  0  0  0
   -4.8633   -0.8643   -1.0250 C   0  0  0  0  0  0  0  0  0  0  0  0
   -5.5167   -0.6484   -1.8846 H   0  0  0  0  0  0  0  0  0  0  0  0
   -3.5668   -0.3360   -0.9922 C   0  0  0  0  0  0  0  0  0  0  0  0
   -3.2050    0.2938   -1.8190 H   0  0  0  0  0  0  0  0  0  0  0  0
   -1.9752    2.3397    0.0032 C   0  0  0  0  0  0  0  0  0  0  0  0
   -3.0131    2.3463    0.9655 C   0  0  0  0  0  0  0  0  0  0  0  0
   -3.0745    1.5208    1.6887 H   0  0  0  0  0  0  0  0  0  0  0  0
   -3.9495    3.3865    1.0134 C   0  0  0  0  0  0  0  0  0  0  0  0
   -4.7430    3.3697    1.7763 H   0  0  0  0  0  0  0  0  0  0  0  0
   -3.8772    4.4484    0.0969 C   0  0  0  0  0  0  0  0  0  0  0  0
   -4.6149    5.2646    0.1328 H   0  0  0  0  0  0  0  0  0  0  0  0
   -2.8528    4.4617   -0.8629 C   0  0  0  0  0  0  0  0  0  0  0  0
   -2.7870    5.2871   -1.5885 H   0  0  0  0  0  0  0  0  0  0  0  0
   -1.9106    3.4245   -0.9038 C   0  0  0  0  0  0  0  0  0  0  0  0
   -1.1200    3.4430   -1.6695 H   0  0  0  0  0  0  0  0  0  0  0  0
  1 11  1  0  0  0  0
  2 10  2  0  0  0  0
  3 24  1  0  0  0  0
  4 35  1  0  0  0  0
  4  3  2  0  0  0  0
  5  4  1  0  0  0  0
  5  6  1  0  0  0  0
  7  5  1  0  0  0  0
  8  5  1  0  0  0  0
  9  8  1  0  0  0  0
 10  8  1  0  0  0  0
 10  1  1  0  0  0  0
 11 12  1  0  0  0  0
 11 20  1  0  0  0  0
 12 14  1  0  0  0  0
 12 13  1  0  0  0  0
 15 12  1  0  0  0  0
 16 19  1  0  0  0  0
 16 11  1  0  0  0  0
 17 16  1  0  0  0  0
 18 16  1  0  0  0  0
 20 22  1  0  0  0  0
 20 23  1  0  0  0  0
 21 20  1  0  0  0  0
 24 25  1  0  0  0  0
 25 26  1  0  0  0  0
 27 25  2  0  0  0  0
 27 28  1  0  0  0  0
 29 27  1  0  0  0  0
 30 29  1  0  0  0  0
 31 33  1  0  0  0  0
 31 29  2  0  0  0  0
 32 31  1  0  0  0  0
 33 24  2  0  0  0  0
 34 33  1  0  0  0  0
 35 36  1  0  0  0  0
 36 38  2  0  0  0  0
 36 37  1  0  0  0  0
 38 39  1  0  0  0  0
 40 41  1  0  0  0  0
 40 38  1  0  0  0  0
 42 40  2  0  0  0  0
 43 42  1  0  0  0  0
 44 42  1  0  0  0  0
 44 35  2  0  0  0  0
 45 44  1  0  0  0  0
M  END
