4,16
 OpenBabel05122313053D

 21 22  0  0  0  0  0  0  0  0999 V2000
   -2.6743   -0.0629    0.0542 N   0  0  0  0  0  0  0  0  0  0  0  0
   -2.3123   -2.3640   -0.1890 O   0  0  0  0  0  0  0  0  0  0  0  0
   -0.7555    0.7523   -0.9193 C   0  0  0  0  0  0  0  0  0  0  0  0
    0.3888   -1.3595   -1.5391 C   0  0  0  0  0  3  0  0  0  0  0  0
    0.4098   -2.4584   -1.5379 H   0  0  0  0  0  0  0  0  0  0  0  0
   -1.9579   -1.2062   -0.3503 C   0  0  0  0  0  0  0  0  0  0  0  0
    0.3287    1.5297   -1.4039 C   0  0  0  0  0  3  0  0  0  0  0  0
    0.3431    2.6230   -1.3090 H   0  0  0  0  0  0  0  0  0  0  0  0
   -2.0215    1.1372   -0.2548 C   0  0  0  0  0  0  0  0  0  0  0  0
   -0.7322   -0.6742   -1.0066 C   0  0  0  0  0  0  0  0  0  0  0  0
    1.4661   -0.5926   -2.0664 C   0  0  0  0  0  3  0  0  0  0  0  0
    2.3561   -1.0934   -2.4691 H   0  0  0  0  0  0  0  0  0  0  0  0
   -2.4690    2.3885    0.0060 C   0  0  0  0  0  0  0  0  0  0  0  0
   -3.4267    2.5705    0.5111 H   0  0  0  0  0  0  0  0  0  0  0  0
   -1.8637    3.2584   -0.2790 H   0  0  0  0  0  0  0  0  0  0  0  0
    1.4410    0.8317   -1.9612 C   0  0  0  0  0  3  0  0  0  0  0  0
    2.3165    1.4057   -2.2965 H   0  0  0  0  0  0  0  0  0  0  0  0
   -3.9202   -0.1528    0.7758 C   0  0  0  0  0  0  0  0  0  0  0  0
   -4.1584   -1.2278    0.8831 H   0  0  0  0  0  0  0  0  0  0  0  0
   -4.7406    0.3523    0.2241 H   0  0  0  0  0  0  0  0  0  0  0  0
   -3.8300    0.3074    1.7824 H   0  0  0  0  0  0  0  0  0  0  0  0
  1 18  1  0  0  0  0
  3  9  1  0  0  0  0
  4  5  1  0  0  0  0
  4 10  1  0  0  0  0
  6  2  2  0  0  0  0
  6  1  1  0  0  0  0
  7  8  1  0  0  0  0
  7  3  1  0  0  0  0
  9 13  2  0  0  0  0
  9  1  1  0  0  0  0
 10  3  2  0  0  0  0
 10  6  1  0  0  0  0
 11 16  1  0  0  0  0
 11  4  1  0  0  0  0
 12 11  1  0  0  0  0
 13 14  1  0  0  0  0
 15 13  1  0  0  0  0
 16  7  1  0  0  0  0
 17 16  1  0  0  0  0
 18 19  1  0  0  0  0
 18 21  1  0  0  0  0
 20 18  1  0  0  0  0
M  END
