6,10
 OpenBabel05122313053D

 28 29  0  0  0  0  0  0  0  0999 V2000
    0.3716   -1.0132   -1.1848 N   0  0  0  0  0  0  0  0  0  0  0  0
    2.4404   -0.0793   -0.7535 N   0  0  0  0  0  0  0  0  0  0  0  0
    1.6787   -1.8571    0.5333 O   0  0  0  0  0  0  0  0  0  0  0  0
   -1.2252   -1.6187    0.6059 C   0  0  0  0  0  0  0  0  0  0  0  0
   -0.4044   -1.7569    1.3177 H   0  0  0  0  0  0  0  0  0  0  0  0
   -2.5823   -1.7723    1.0055 C   0  0  0  0  0  3  0  0  0  0  0  0
   -2.7970   -2.0117    2.0566 H   0  0  0  0  0  0  0  0  0  0  0  0
   -3.6540   -1.6032    0.0895 C   0  0  0  0  0  3  0  0  0  0  0  0
   -4.6960   -1.6979    0.4205 H   0  0  0  0  0  0  0  0  0  0  0  0
   -3.3499   -1.2029   -1.2416 C   0  0  0  0  0  3  0  0  0  0  0  0
   -4.1622   -0.9984   -1.9532 H   0  0  0  0  0  0  0  0  0  0  0  0
   -2.0042   -1.0421   -1.6659 C   0  0  0  0  0  3  0  0  0  0  0  0
   -1.7880   -0.7144   -2.6923 H   0  0  0  0  0  0  0  0  0  0  0  0
   -0.9280   -1.2564   -0.7439 C   0  0  0  0  0  0  0  0  0  0  0  0
    1.5277   -1.0468   -0.3722 C   0  0  0  0  0  0  0  0  0  0  0  0
    3.7613    0.0896   -0.2919 C   0  0  0  0  0  0  0  0  0  0  0  0
    4.4439    1.2585   -0.6957 C   0  0  0  0  0  0  0  0  0  0  0  0
    3.9280    1.9973   -1.3304 H   0  0  0  0  0  0  0  0  0  0  0  0
    5.7654    1.4825   -0.2937 C   0  0  0  0  0  0  0  0  0  0  0  0
    6.2795    2.4004   -0.6166 H   0  0  0  0  0  0  0  0  0  0  0  0
    6.4283    0.5455    0.5146 C   0  0  0  0  0  0  0  0  0  0  0  0
    7.4668    0.7206    0.8319 H   0  0  0  0  0  0  0  0  0  0  0  0
    5.7474   -0.6141    0.9160 C   0  0  0  0  0  0  0  0  0  0  0  0
    6.2532   -1.3544    1.5546 H   0  0  0  0  0  0  0  0  0  0  0  0
    4.4222   -0.8528    0.5256 C   0  0  0  0  0  0  0  0  0  0  0  0
    3.8849   -1.7480    0.8584 H   0  0  0  0  0  0  0  0  0  0  0  0
    0.4337   -0.4777   -2.0524 H   0  0  0  0  0  0  0  0  0  0  0  0
    2.0601    0.7224   -1.2623 H   0  0  0  0  0  0  0  0  0  0  0  0
  1 14  1  0  0  0  0
  1 15  1  0  0  0  0
  2 15  1  0  0  0  0
  2 16  1  0  0  0  0
  4  6  1  0  0  0  0
  4  5  1  0  0  0  0
  6  7  1  0  0  0  0
  8  9  1  0  0  0  0
  8  6  1  0  0  0  0
 10  8  1  0  0  0  0
 11 10  1  0  0  0  0
 12 10  1  0  0  0  0
 12 14  1  0  0  0  0
 13 12  1  0  0  0  0
 14  4  2  0  0  0  0
 15  3  2  0  0  0  0
 16 25  1  0  0  0  0
 17 19  1  0  0  0  0
 17 16  2  0  0  0  0
 18 17  1  0  0  0  0
 19 21  2  0  0  0  0
 20 19  1  0  0  0  0
 21 22  1  0  0  0  0
 21 23  1  0  0  0  0
 23 24  1  0  0  0  0
 25 26  1  0  0  0  0
 25 23  2  0  0  0  0
 27  1  1  0  0  0  0
 28  2  1  0  0  0  0
M  END
