6,10
 OpenBabel05122313053D

 21 21  0  0  0  0  0  0  0  0999 V2000
    3.0322   -0.9548    1.1178 O   0  0  0  0  0  0  0  0  0  0  0  0
    1.8131   -0.8672   -0.8583 N   0  0  0  0  0  0  0  0  0  0  0  0
    3.6793    0.4773   -0.5695 N   0  0  0  0  0  0  0  0  0  0  0  0
   -0.4816   -1.3587   -1.4596 C   0  0  0  0  0  3  0  0  0  0  0  0
   -0.2306   -1.1821   -2.5149 H   0  0  0  0  0  0  0  0  0  0  0  0
   -1.8180   -1.6708   -1.0923 C   0  0  0  0  0  3  0  0  0  0  0  0
   -2.5860   -1.7345   -1.8759 H   0  0  0  0  0  0  0  0  0  0  0  0
   -2.1725   -1.8776    0.2695 C   0  0  0  0  0  3  0  0  0  0  0  0
   -3.2119   -2.0892    0.5509 H   0  0  0  0  0  0  0  0  0  0  0  0
   -1.1724   -1.6965    1.2619 C   0  0  0  0  0  3  0  0  0  0  0  0
   -1.4392   -1.7799    2.3250 H   0  0  0  0  0  0  0  0  0  0  0  0
    0.1739   -1.3887    0.9206 C   0  0  0  0  0  0  0  0  0  0  0  0
    0.9443   -1.2550    1.6878 H   0  0  0  0  0  0  0  0  0  0  0  0
    0.5315   -1.2278   -0.4541 C   0  0  0  0  0  0  0  0  0  0  0  0
    2.8612   -0.4696    0.0050 C   0  0  0  0  0  0  0  0  0  0  0  0
    4.8087    1.0107    0.1671 C   0  0  0  0  0  0  0  0  0  0  0  0
    4.5634    1.9680    0.6765 H   0  0  0  0  0  0  0  0  0  0  0  0
    5.6736    1.1755   -0.5064 H   0  0  0  0  0  0  0  0  0  0  0  0
    5.0858    0.2742    0.9437 H   0  0  0  0  0  0  0  0  0  0  0  0
    1.8813   -0.5526   -1.8277 H   0  0  0  0  0  0  0  0  0  0  0  0
    3.2576    1.0847   -1.2752 H   0  0  0  0  0  0  0  0  0  0  0  0
  2 14  1  0  0  0  0
  2 15  1  0  0  0  0
  3 15  1  0  0  0  0
  3 16  1  0  0  0  0
  4  6  1  0  0  0  0
  4 14  1  0  0  0  0
  5  4  1  0  0  0  0
  6  8  1  0  0  0  0
  7  6  1  0  0  0  0
  8  9  1  0  0  0  0
  8 10  1  0  0  0  0
 10 11  1  0  0  0  0
 12 10  1  0  0  0  0
 12 13  1  0  0  0  0
 14 12  2  0  0  0  0
 15  1  2  0  0  0  0
 16 17  1  0  0  0  0
 16 19  1  0  0  0  0
 18 16  1  0  0  0  0
 20  2  1  0  0  0  0
 21  3  1  0  0  0  0
M  END
