69
 OpenBabel05122313053D

 70 78  0  0  0  0  0  0  0  0999 V2000
    2.6325    2.3941   -1.3271 C   0  0  0  0  0  0  0  0  0  0  0  0
    1.6528    2.7778   -1.6456 H   0  0  0  0  0  0  0  0  0  0  0  0
    3.8050    2.8014   -1.9525 C   0  0  0  0  0  0  0  0  0  0  0  0
    3.7517    3.5317   -2.7741 H   0  0  0  0  0  0  0  0  0  0  0  0
    5.0749    2.2913   -1.5618 C   0  0  0  0  0  0  0  0  0  0  0  0
    5.9780    2.6361   -2.0868 H   0  0  0  0  0  0  0  0  0  0  0  0
    5.1879    1.3596   -0.5351 C   0  0  0  0  0  0  0  0  0  0  0  0
    6.1692    0.9596   -0.2397 H   0  0  0  0  0  0  0  0  0  0  0  0
    4.0138    0.9433    0.1433 C   0  0  0  0  0  0  0  0  0  0  0  0
    3.8025    0.0270    1.2650 C   0  0  0  0  0  0  0  0  0  0  0  0
    4.7095   -0.7194    2.0729 C   0  0  0  0  0  0  0  0  0  0  0  0
    5.7857   -0.7129    1.8461 H   0  0  0  0  0  0  0  0  0  0  0  0
    4.2097   -1.4352    3.1490 C   0  0  0  0  0  0  0  0  0  0  0  0
    4.8967   -2.0171    3.7812 H   0  0  0  0  0  0  0  0  0  0  0  0
    2.8163   -1.4324    3.4588 C   0  0  0  0  0  0  0  0  0  0  0  0
    2.4601   -2.0124    4.3231 H   0  0  0  0  0  0  0  0  0  0  0  0
    1.9068   -0.7194    2.6943 C   0  0  0  0  0  0  0  0  0  0  0  0
    0.8336   -0.7197    2.9326 H   0  0  0  0  0  0  0  0  0  0  0  0
    2.3866    0.0232    1.5760 C   0  0  0  0  0  0  0  0  0  0  0  0
    1.6964    0.8188    0.5652 C   0  0  0  0  0  3  0  0  0  0  0  0
    2.7209    1.4648   -0.2517 C   0  0  0  0  0  0  0  0  0  0  0  0
    0.2542    0.8028    0.4086 C   0  0  0  0  0  0  0  0  0  0  0  0
   -0.8339    1.6473    0.2280 C   0  0  0  0  0  0  0  0  0  0  0  0
   -1.0619    3.0713    0.1457 C   0  0  0  0  0  0  0  0  0  0  0  0
   -0.0185    3.9991    0.4054 C   0  0  0  0  0  0  0  0  0  0  0  0
    0.9799    3.6288    0.6800 H   0  0  0  0  0  0  0  0  0  0  0  0
   -0.2584    5.3744    0.3321 C   0  0  0  0  0  0  0  0  0  0  0  0
    0.5587    6.0822    0.5386 H   0  0  0  0  0  0  0  0  0  0  0  0
   -1.5389    5.8539    0.0013 C   0  0  0  0  0  0  0  0  0  0  0  0
   -1.7238    6.9373   -0.0565 H   0  0  0  0  0  0  0  0  0  0  0  0
   -2.5819    4.9463   -0.2494 C   0  0  0  0  0  0  0  0  0  0  0  0
   -3.5860    5.3175   -0.5043 H   0  0  0  0  0  0  0  0  0  0  0  0
   -2.3507    3.5684   -0.1767 C   0  0  0  0  0  0  0  0  0  0  0  0
   -3.1659    2.8584   -0.3770 H   0  0  0  0  0  0  0  0  0  0  0  0
   -1.8384    0.4625    0.1689 C   0  0  0  0  0  0  0  0  0  0  0  0
   -2.6768    0.2445   -1.0744 C   0  0  0  0  0  0  0  0  0  0  0  0
   -2.2616    0.1490   -2.4051 C   0  0  0  0  0  0  0  0  0  0  0  0
   -1.1971    0.2368   -2.6706 H   0  0  0  0  0  0  0  0  0  0  0  0
   -3.2323   -0.0830   -3.3961 C   0  0  0  0  0  0  0  0  0  0  0  0
   -2.9255   -0.1651   -4.4497 H   0  0  0  0  0  0  0  0  0  0  0  0
   -4.5911   -0.2202   -3.0532 C   0  0  0  0  0  0  0  0  0  0  0  0
   -5.3343   -0.4051   -3.8436 H   0  0  0  0  0  0  0  0  0  0  0  0
   -5.0084   -0.1333   -1.7149 C   0  0  0  0  0  0  0  0  0  0  0  0
   -6.0707   -0.2524   -1.4524 H   0  0  0  0  0  0  0  0  0  0  0  0
   -4.0439    0.0984   -0.7213 C   0  0  0  0  0  0  0  0  0  0  0  0
   -4.1648    0.2186    0.7393 C   0  0  0  0  0  0  0  0  0  0  0  0
   -5.2805    0.1418    1.5884 C   0  0  0  0  0  0  0  0  0  0  0  0
   -6.2881   -0.0271    1.1789 H   0  0  0  0  0  0  0  0  0  0  0  0
   -5.0893    0.2814    2.9736 C   0  0  0  0  0  0  0  0  0  0  0  0
   -5.9546    0.2212    3.6511 H   0  0  0  0  0  0  0  0  0  0  0  0
   -3.8047    0.5011    3.5060 C   0  0  0  0  0  0  0  0  0  0  0  0
   -3.6771    0.6128    4.5933 H   0  0  0  0  0  0  0  0  0  0  0  0
   -2.6840    0.5810    2.6585 C   0  0  0  0  0  0  0  0  0  0  0  0
   -1.6773    0.7579    3.0690 H   0  0  0  0  0  0  0  0  0  0  0  0
   -2.8707    0.4299    1.2827 C   0  0  0  0  0  0  0  0  0  0  0  0
   -0.5521   -0.4022    0.2926 C   0  0  0  0  0  0  0  0  0  0  0  0
   -0.2043   -1.7120    0.1069 C   0  0  0  0  0  0  0  0  0  0  0  0
   -1.2082   -2.7822   -0.0902 C   0  0  0  0  0  0  0  0  0  0  0  0
   -2.4060   -2.7991    0.6591 C   0  0  0  0  0  0  0  0  0  0  0  0
   -2.5576   -2.0540    1.4519 H   0  0  0  0  0  0  0  0  0  0  0  0
   -3.3914   -3.7653    0.4171 C   0  0  0  0  0  0  0  0  0  0  0  0
   -4.3172   -3.7552    1.0124 H   0  0  0  0  0  0  0  0  0  0  0  0
   -3.1952   -4.7416   -0.5716 C   0  0  0  0  0  0  0  0  0  0  0  0
   -3.9683   -5.5014   -0.7627 H   0  0  0  0  0  0  0  0  0  0  0  0
   -2.0002   -4.7479   -1.3106 C   0  0  0  0  0  0  0  0  0  0  0  0
   -1.8357   -5.5116   -2.0861 H   0  0  0  0  0  0  0  0  0  0  0  0
   -1.0144   -3.7833   -1.0713 C   0  0  0  0  0  0  0  0  0  0  0  0
   -0.0874   -3.7916   -1.6614 H   0  0  0  0  0  0  0  0  0  0  0  0
    1.2601   -2.0964    0.0489 C   0  0  0  0  0  3  0  0  0  0  0  0
    1.6081   -3.2440    0.2556 O   0  0  0  0  0  0  0  0  0  0  0  0
  1 21  1  0  0  0  0
  2  1  1  0  0  0  0
  3  5  1  0  0  0  0
  3  1  2  0  0  0  0
  4  3  1  0  0  0  0
  5  7  2  0  0  0  0
  6  5  1  0  0  0  0
  7  8  1  0  0  0  0
  7  9  1  0  0  0  0
  9 10  1  0  0  0  0
 10 19  2  0  0  0  0
 10 11  1  0  0  0  0
 11 13  2  0  0  0  0
 12 11  1  0  0  0  0
 13 15  1  0  0  0  0
 13 14  1  0  0  0  0
 15 16  1  0  0  0  0
 17 18  1  0  0  0  0
 17 15  2  0  0  0  0
 19 17  1  0  0  0  0
 20 19  1  0  0  0  0
 21  9  2  0  0  0  0
 21 20  1  0  0  0  0
 22 20  1  0  0  0  0
 23 22  2  0  0  0  0
 24 23  1  0  0  0  0
 24 25  1  0  0  0  0
 25 26  1  0  0  0  0
 27 25  2  0  0  0  0
 27 28  1  0  0  0  0
 29 27  1  0  0  0  0
 30 29  1  0  0  0  0
 31 33  1  0  0  0  0
 31 29  2  0  0  0  0
 32 31  1  0  0  0  0
 33 24  2  0  0  0  0
 34 33  1  0  0  0  0
 35 23  1  0  0  0  0
 35 56  1  0  0  0  0
 35 55  1  0  0  0  0
 36 45  1  0  0  0  0
 36 35  1  0  0  0  0
 37 36  2  0  0  0  0
 38 37  1  0  0  0  0
 39 41  2  0  0  0  0
 39 37  1  0  0  0  0
 40 39  1  0  0  0  0
 41 43  1  0  0  0  0
 42 41  1  0  0  0  0
 43 44  1  0  0  0  0
 43 45  2  0  0  0  0
 45 46  1  0  0  0  0
 46 55  2  0  0  0  0
 46 47  1  0  0  0  0
 47 49  2  0  0  0  0
 48 47  1  0  0  0  0
 49 51  1  0  0  0  0
 49 50  1  0  0  0  0
 51 52  1  0  0  0  0
 53 54  1  0  0  0  0
 53 51  2  0  0  0  0
 55 53  1  0  0  0  0
 56 22  1  0  0  0  0
 57 56  2  0  0  0  0
 58 57  1  0  0  0  0
 58 59  1  0  0  0  0
 59 60  1  0  0  0  0
 61 59  2  0  0  0  0
 61 62  1  0  0  0  0
 63 61  1  0  0  0  0
 64 63  1  0  0  0  0
 65 67  1  0  0  0  0
 65 63  2  0  0  0  0
 66 65  1  0  0  0  0
 67 58  2  0  0  0  0
 68 67  1  0  0  0  0
 69 57  1  0  0  0  0
 69 70  2  0  0  0  0
M  END
