9,12
 OpenBabel05122313053D

 32 31  0  0  0  0  0  0  0  0999 V2000
    0.1071    3.0286   -0.1270 O   0  0  0  0  0  0  0  0  0  0  0  0
    2.3654    3.2396   -0.0875 O   0  0  0  0  0  0  0  0  0  0  0  0
    4.4468    1.3144    1.3543 O   0  0  0  0  0  0  0  0  0  0  0  0
    4.5537    1.3427   -0.9140 O   0  0  0  0  0  0  0  0  0  0  0  0
    3.3537   -3.2933    0.3081 O   0  0  0  0  0  0  0  0  0  0  0  0
    4.7778   -1.5319    0.1681 O   0  0  0  0  0  0  0  0  0  0  0  0
    0.2209   -3.3868    1.1945 O   0  0  0  0  0  0  0  0  0  0  0  0
    0.5611   -3.4348   -1.0511 O   0  0  0  0  0  0  0  0  0  0  0  0
    1.4396    1.0513   -0.0868 C   0  0  0  0  0  3  0  0  0  0  0  0
    2.6327    0.3810    0.0721 C   0  0  0  0  0  0  0  0  0  0  0  0
    2.4629   -1.0682    0.1517 C   0  0  0  0  0  0  0  0  0  0  0  0
    1.1404   -1.4621    0.1011 C   0  0  0  0  0  3  0  0  0  0  0  0
    1.2229    2.4962   -0.1049 C   0  0  0  0  0  0  0  0  0  0  0  0
    2.1851    4.6538   -0.0624 C   0  0  0  0  0  0  0  0  0  0  0  0
    1.6765    5.0089   -0.9829 H   0  0  0  0  0  0  0  0  0  0  0  0
    3.1977    5.0912    0.0063 H   0  0  0  0  0  0  0  0  0  0  0  0
    1.5723    4.9637    0.8089 H   0  0  0  0  0  0  0  0  0  0  0  0
    3.9616    1.0580    0.2698 C   0  0  0  0  0  0  0  0  0  0  0  0
    5.8207    1.9917   -0.8040 C   0  0  0  0  0  0  0  0  0  0  0  0
    6.1862    2.1360   -1.8368 H   0  0  0  0  0  0  0  0  0  0  0  0
    6.5346    1.3721   -0.2230 H   0  0  0  0  0  0  0  0  0  0  0  0
    5.7193    2.9701   -0.2903 H   0  0  0  0  0  0  0  0  0  0  0  0
    3.5343   -2.0851    0.2225 C   0  0  0  0  0  0  0  0  0  0  0  0
    5.8632   -2.4544    0.2516 C   0  0  0  0  0  0  0  0  0  0  0  0
    6.7859   -1.8477    0.2153 H   0  0  0  0  0  0  0  0  0  0  0  0
    5.8394   -3.1737   -0.5927 H   0  0  0  0  0  0  0  0  0  0  0  0
    5.8198   -3.0337    1.1964 H   0  0  0  0  0  0  0  0  0  0  0  0
    0.6485   -2.8512    0.1776 C   0  0  0  0  0  0  0  0  0  0  0  0
    0.0840   -4.7834   -1.0405 C   0  0  0  0  0  0  0  0  0  0  0  0
    0.0205   -5.0963   -2.0985 H   0  0  0  0  0  0  0  0  0  0  0  0
   -0.9107   -4.8517   -0.5534 H   0  0  0  0  0  0  0  0  0  0  0  0
    0.7891   -5.4384   -0.4898 H   0  0  0  0  0  0  0  0  0  0  0  0
  1 13  2  0  0  0  0
  2 14  1  0  0  0  0
  4 19  1  0  0  0  0
  4 18  1  0  0  0  0
  6 23  1  0  0  0  0
  6 24  1  0  0  0  0
  8 29  1  0  0  0  0
  8 28  1  0  0  0  0
  9 10  2  0  0  0  0
 10 11  1  0  0  0  0
 10 18  1  0  0  0  0
 11 23  1  0  0  0  0
 12 11  2  0  0  0  0
 12 28  1  0  0  0  0
 13  2  1  0  0  0  0
 13  9  1  0  0  0  0
 14 16  1  0  0  0  0
 14 17  1  0  0  0  0
 15 14  1  0  0  0  0
 18  3  2  0  0  0  0
 19 22  1  0  0  0  0
 19 21  1  0  0  0  0
 20 19  1  0  0  0  0
 23  5  2  0  0  0  0
 24 27  1  0  0  0  0
 25 24  1  0  0  0  0
 26 24  1  0  0  0  0
 28  7  2  0  0  0  0
 29 31  1  0  0  0  0
 29 32  1  0  0  0  0
 30 29  1  0  0  0  0
M  END
