31,33
 OpenBabel05122313053D

 46 47  0  0  1  0  0  0  0  0999 V2000
    1.4251    1.0415   -0.3741 O   0  0  0  0  0  0  0  0  0  0  0  0
   -0.3091   -0.1057   -1.3010 O   0  0  0  0  0  0  0  0  0  0  0  0
    0.9435   -2.6032   -0.4650 O   0  0  0  0  0  0  0  0  0  0  0  0
    3.8153   -2.3143   -0.2121 O   0  0  0  0  0  0  0  0  0  0  0  0
    4.5170    0.0572    1.2865 O   0  0  0  0  0  0  0  0  0  0  0  0
    3.8077    2.6839   -0.6440 O   0  0  0  0  0  0  0  0  0  0  0  0
    0.7155   -0.1771   -0.3301 C   0  0  1  0  0  0  0  0  0  0  0  0
    1.6159   -1.3778   -0.6683 C   0  0  1  0  0  0  0  0  0  0  0  0
    2.8594   -1.3691    0.2361 C   0  0  2  0  0  0  0  0  0  0  0  0
    3.5246    0.0094    0.2766 C   0  0  1  0  0  0  0  0  0  0  0  0
    2.4864    1.1019    0.5802 C   0  0  1  0  0  0  0  0  0  0  0  0
    3.0894    2.4961    0.5532 C   0  0  0  0  0  0  0  0  0  0  0  0
    0.2806   -3.1396   -1.5964 C   0  0  0  0  0  0  0  0  0  0  0  0
   -0.1556   -4.1064   -1.2810 H   0  0  0  0  0  0  0  0  0  0  0  0
    0.9920   -3.3185   -2.4368 H   0  0  0  0  0  0  0  0  0  0  0  0
   -0.5390   -2.4831   -1.9580 H   0  0  0  0  0  0  0  0  0  0  0  0
    3.7751   -3.5645    0.4543 C   0  0  0  0  0  0  0  0  0  0  0  0
    4.5620   -4.1981   -0.0000 H   0  0  0  0  0  0  0  0  0  0  0  0
    2.7897   -4.0645    0.3408 H   0  0  0  0  0  0  0  0  0  0  0  0
    3.9951   -3.4544    1.5429 H   0  0  0  0  0  0  0  0  0  0  0  0
    5.8436   -0.0707    0.8061 C   0  0  0  0  0  0  0  0  0  0  0  0
    6.5139   -0.0290    1.6871 H   0  0  0  0  0  0  0  0  0  0  0  0
    6.1080    0.7647    0.1154 H   0  0  0  0  0  0  0  0  0  0  0  0
    5.9974   -1.0354    0.2756 H   0  0  0  0  0  0  0  0  0  0  0  0
    4.3872    3.9618   -0.7386 C   0  0  0  0  0  0  0  0  0  0  0  0
    5.1049    4.1613    0.0950 H   0  0  0  0  0  0  0  0  0  0  0  0
    3.6187    4.7732   -0.7255 H   0  0  0  0  0  0  0  0  0  0  0  0
    4.9367    4.0127   -1.6985 H   0  0  0  0  0  0  0  0  0  0  0  0
   -1.4141    0.6442   -1.0434 C   0  0  0  0  0  0  0  0  0  0  0  0
   -1.5050    1.6026    0.0037 C   0  0  0  0  0  0  0  0  0  0  0  0
   -2.7241    2.3246    0.1807 C   0  0  0  0  0  3  0  0  0  0  0  0
   -3.8263    2.1361   -0.6920 C   0  0  0  0  0  3  0  0  0  0  0  0
   -3.7314    1.1424   -1.7101 C   0  0  0  0  0  3  0  0  0  0  0  0
   -2.5364    0.4005   -1.8948 C   0  0  0  0  0  3  0  0  0  0  0  0
    0.2585   -0.3373    0.6808 H   0  0  0  0  0  0  0  0  0  0  0  0
    1.9517   -1.2634   -1.7260 H   0  0  0  0  0  0  0  0  0  0  0  0
    2.5300   -1.6135    1.2747 H   0  0  0  0  0  0  0  0  0  0  0  0
    3.9573    0.2334   -0.7235 H   0  0  0  0  0  0  0  0  0  0  0  0
    2.0853    0.9288    1.6109 H   0  0  0  0  0  0  0  0  0  0  0  0
    2.2655    3.2463    0.6516 H   0  0  0  0  0  0  0  0  0  0  0  0
    3.7564    2.5993    1.4431 H   0  0  0  0  0  0  0  0  0  0  0  0
   -0.6502    1.7860    0.6631 H   0  0  0  0  0  0  0  0  0  0  0  0
   -2.8033    3.0369    1.0141 H   0  0  0  0  0  0  0  0  0  0  0  0
   -4.7644    2.6827   -0.5322 H   0  0  0  0  0  0  0  0  0  0  0  0
   -4.6007    0.9279   -2.3477 H   0  0  0  0  0  0  0  0  0  0  0  0
   -2.4594   -0.3824   -2.6596 H   0  0  0  0  0  0  0  0  0  0  0  0
  1  7  1  0  0  0  0
  1 11  1  0  0  0  0
  2 29  1  0  0  0  0
  2  7  1  0  0  0  0
  4  9  1  0  0  0  0
  4 17  1  0  0  0  0
  6 12  1  0  0  0  0
  7 35  1  1  0  0  0
  8 36  1  6  0  0  0
  8  3  1  0  0  0  0
  8  7  1  0  0  0  0
  8  9  1  0  0  0  0
  9 10  1  0  0  0  0
  9 37  1  1  0  0  0
 10 38  1  6  0  0  0
 10 11  1  0  0  0  0
 10  5  1  0  0  0  0
 11 39  1  1  0  0  0
 12 11  1  0  0  0  0
 12 40  1  0  0  0  0
 12 41  1  0  0  0  0
 13 14  1  0  0  0  0
 13  3  1  0  0  0  0
 15 13  1  0  0  0  0
 16 13  1  0  0  0  0
 17 20  1  0  0  0  0
 18 17  1  0  0  0  0
 19 17  1  0  0  0  0
 21  5  1  0  0  0  0
 21 22  1  0  0  0  0
 23 21  1  0  0  0  0
 24 21  1  0  0  0  0
 25 27  1  0  0  0  0
 25  6  1  0  0  0  0
 25 26  1  0  0  0  0
 28 25  1  0  0  0  0
 29 30  2  0  0  0  0
 30 31  1  0  0  0  0
 30 42  1  0  0  0  0
 31 43  1  0  0  0  0
 32 44  1  0  0  0  0
 32 31  1  0  0  0  0
 33 32  1  0  0  0  0
 34 33  1  0  0  0  0
 34 29  1  0  0  0  0
 45 33  1  0  0  0  0
 46 34  1  0  0  0  0
M  END
