6,7
 OpenBabel05122313053D

 66 67  0  0  1  0  0  0  0  0999 V2000
    1.4210    0.6600   -1.7491 P   0  0  0  0  0  0  0  0  0  0  0  0
   -0.1068    0.9758   -0.2534 P   0  0  1  0  0  4  0  0  0  0  0  0
    2.5562    0.9965    1.1685 P   0  0  0  0  0  2  0  0  0  0  0  0
   -3.7589    0.0410    0.3421 N   0  0  0  0  0  0  0  0  0  0  0  0
   -2.6747   -0.9838   -1.2469 N   0  0  0  0  0  0  0  0  0  0  0  0
    2.7803    0.6933   -0.5813 C   0  0  2  0  0  3  0  0  0  0  0  0
    0.7837    1.1573    1.2828 C   0  0  2  0  0  3  0  0  0  0  0  0
    4.2298    0.5706   -1.1057 C   0  0  0  0  0  0  0  0  0  0  0  0
    4.2720   -0.1339   -2.4751 C   0  0  0  0  0  0  0  0  0  0  0  0
    5.3203   -0.2057   -2.8310 H   0  0  0  0  0  0  0  0  0  0  0  0
    3.6978    0.4252   -3.2427 H   0  0  0  0  0  0  0  0  0  0  0  0
    3.8582   -1.1595   -2.4127 H   0  0  0  0  0  0  0  0  0  0  0  0
    4.7907    2.0038   -1.2565 C   0  0  0  0  0  0  0  0  0  0  0  0
    5.8273    1.9791   -1.6523 H   0  0  0  0  0  0  0  0  0  0  0  0
    4.8037    2.5282   -0.2793 H   0  0  0  0  0  0  0  0  0  0  0  0
    4.1670    2.5997   -1.9536 H   0  0  0  0  0  0  0  0  0  0  0  0
    5.1058   -0.2281   -0.1200 C   0  0  0  0  0  0  0  0  0  0  0  0
    4.7052   -1.2530    0.0119 H   0  0  0  0  0  0  0  0  0  0  0  0
    5.1466    0.2521    0.8789 H   0  0  0  0  0  0  0  0  0  0  0  0
    6.1446   -0.2974   -0.5030 H   0  0  0  0  0  0  0  0  0  0  0  0
    0.0966    1.4222    2.6377 C   0  0  0  0  0  0  0  0  0  0  0  0
    1.1269    1.4448    3.7843 C   0  0  0  0  0  0  0  0  0  0  0  0
    0.6053    1.6141    4.7488 H   0  0  0  0  0  0  0  0  0  0  0  0
    1.8718    2.2551    3.6525 H   0  0  0  0  0  0  0  0  0  0  0  0
    1.6733    0.4828    3.8546 H   0  0  0  0  0  0  0  0  0  0  0  0
   -0.6073    2.7958    2.5770 C   0  0  0  0  0  0  0  0  0  0  0  0
   -1.3849    2.8001    1.7881 H   0  0  0  0  0  0  0  0  0  0  0  0
    0.1176    3.6018    2.3452 H   0  0  0  0  0  0  0  0  0  0  0  0
   -1.0873    3.0295    3.5498 H   0  0  0  0  0  0  0  0  0  0  0  0
   -0.9342    0.3169    2.9493 C   0  0  0  0  0  0  0  0  0  0  0  0
   -1.5020    0.5669    3.8702 H   0  0  0  0  0  0  0  0  0  0  0  0
   -0.4226   -0.6537    3.0957 H   0  0  0  0  0  0  0  0  0  0  0  0
   -1.6498    0.1858    2.1173 H   0  0  0  0  0  0  0  0  0  0  0  0
   -1.7850    1.3063   -0.5939 C   0  0  1  0  0  3  0  0  0  0  0  0
   -2.1427    2.5834   -1.4161 C   0  0  0  0  0  0  0  0  0  0  0  0
   -3.5929    3.0290   -1.1415 C   0  0  0  0  0  0  0  0  0  0  0  0
   -3.8620    3.8762   -1.8056 H   0  0  0  0  0  0  0  0  0  0  0  0
   -3.7229    3.3710   -0.0965 H   0  0  0  0  0  0  0  0  0  0  0  0
   -4.3201    2.2145   -1.3400 H   0  0  0  0  0  0  0  0  0  0  0  0
   -2.0094    2.2923   -2.9303 C   0  0  0  0  0  0  0  0  0  0  0  0
   -2.6926    1.4745   -3.2398 H   0  0  0  0  0  0  0  0  0  0  0  0
   -0.9717    1.9895   -3.1809 H   0  0  0  0  0  0  0  0  0  0  0  0
   -2.2582    3.1871   -3.5406 H   0  0  0  0  0  0  0  0  0  0  0  0
   -1.2053    3.7517   -1.0608 C   0  0  0  0  0  0  0  0  0  0  0  0
   -1.4498    4.6417   -1.6762 H   0  0  0  0  0  0  0  0  0  0  0  0
   -0.1435    3.4950   -1.2541 H   0  0  0  0  0  0  0  0  0  0  0  0
   -1.2952    4.0324    0.0064 H   0  0  0  0  0  0  0  0  0  0  0  0
   -2.6889    0.1839   -0.5175 C   0  0  2  0  0  3  0  0  0  0  0  0
   -4.3811   -1.1908    0.1635 C   0  0  0  0  0  0  0  0  0  0  0  0
   -3.6782   -1.8494   -0.8263 C   0  0  0  0  0  0  0  0  0  0  0  0
   -4.1234    1.0008    1.3644 C   0  0  0  0  0  0  0  0  0  0  0  0
   -3.2936    1.7269    1.4416 H   0  0  0  0  0  0  0  0  0  0  0  0
   -4.2577    0.4859    2.3344 H   0  0  0  0  0  0  0  0  0  0  0  0
   -5.0565    1.5369    1.1013 H   0  0  0  0  0  0  0  0  0  0  0  0
   -5.5423   -1.6300    0.9855 C   0  0  0  0  0  0  0  0  0  0  0  0
   -5.9155   -2.6079    0.6306 H   0  0  0  0  0  0  0  0  0  0  0  0
   -6.3838   -0.9082    0.9351 H   0  0  0  0  0  0  0  0  0  0  0  0
   -5.2686   -1.7482    2.0557 H   0  0  0  0  0  0  0  0  0  0  0  0
   -3.8185   -3.2316   -1.3581 C   0  0  0  0  0  0  0  0  0  0  0  0
   -4.6942   -3.7327   -0.9069 H   0  0  0  0  0  0  0  0  0  0  0  0
   -2.9183   -3.8302   -1.1068 H   0  0  0  0  0  0  0  0  0  0  0  0
   -3.9466   -3.2513   -2.4601 H   0  0  0  0  0  0  0  0  0  0  0  0
   -1.7401   -1.2914   -2.3146 C   0  0  0  0  0  0  0  0  0  0  0  0
   -1.2252   -0.3609   -2.6067 H   0  0  0  0  0  0  0  0  0  0  0  0
   -2.2908   -1.7009   -3.1827 H   0  0  0  0  0  0  0  0  0  0  0  0
   -0.9722   -2.0118   -1.9710 H   0  0  0  0  0  0  0  0  0  0  0  0
  1  6  1  0  0  0  0
  1  2  2  0  0  0  0
  2 34  1  6  0  0  0
  2  7  1  0  0  0  0
  3  7  1  0  0  0  0
  4 51  1  0  0  0  0
  5 50  1  0  0  0  0
  5 48  1  0  0  0  0
  6  8  1  6  0  0  0
  6  3  1  0  0  0  0
  7 21  1  1  0  0  0
  8 17  1  0  0  0  0
  9 12  1  0  0  0  0
  9  8  1  0  0  0  0
 10  9  1  0  0  0  0
 11  9  1  0  0  0  0
 13  8  1  0  0  0  0
 13 15  1  0  0  0  0
 14 13  1  0  0  0  0
 16 13  1  0  0  0  0
 17 18  1  0  0  0  0
 17 19  1  0  0  0  0
 20 17  1  0  0  0  0
 21 30  1  0  0  0  0
 21 22  1  0  0  0  0
 22 25  1  0  0  0  0
 22 23  1  0  0  0  0
 24 22  1  0  0  0  0
 26 21  1  0  0  0  0
 26 29  1  0  0  0  0
 27 26  1  0  0  0  0
 28 26  1  0  0  0  0
 30 32  1  0  0  0  0
 30 31  1  0  0  0  0
 33 30  1  0  0  0  0
 34 35  1  6  0  0  0
 35 36  1  0  0  0  0
 35 44  1  0  0  0  0
 36 38  1  0  0  0  0
 37 36  1  0  0  0  0
 39 36  1  0  0  0  0
 40 35  1  0  0  0  0
 41 40  1  0  0  0  0
 42 40  1  0  0  0  0
 43 40  1  0  0  0  0
 44 47  1  0  0  0  0
 45 44  1  0  0  0  0
 46 44  1  0  0  0  0
 48 34  1  1  0  0  0
 48  4  1  0  0  0  0
 49  4  1  0  0  0  0
 49 55  1  0  0  0  0
 50 49  2  0  0  0  0
 51 52  1  0  0  0  0
 51 53  1  0  0  0  0
 54 51  1  0  0  0  0
 55 58  1  0  0  0  0
 56 55  1  0  0  0  0
 57 55  1  0  0  0  0
 59 61  1  0  0  0  0
 59 60  1  0  0  0  0
 59 50  1  0  0  0  0
 62 59  1  0  0  0  0
 63 66  1  0  0  0  0
 63  5  1  0  0  0  0
 64 63  1  0  0  0  0
 65 63  1  0  0  0  0
M  END
