2,20
 OpenBabel05122313053D

 45 48  0  0  1  0  0  0  0  0999 V2000
    0.0001    2.4589   -1.3445 Si  0  0  0  0  0  0  0  0  0  0  0  0
   -1.4012    1.4141   -0.6378 C   0  0  2  0  0  3  0  0  0  0  0  0
   -1.8778    1.5519    0.7132 C   0  0  0  0  0  0  0  0  0  0  0  0
   -1.7072    2.4272    1.3556 H   0  0  0  0  0  0  0  0  0  0  0  0
   -2.5651    0.3791    1.1405 C   0  0  0  0  0  0  0  0  0  0  0  0
   -2.5754   -0.5228    0.0206 C   0  0  0  0  0  0  0  0  0  0  0  0
   -1.8404    0.0990   -1.0703 C   0  0  0  0  0  0  0  0  0  0  0  0
   -3.1621   -1.8074   -0.1469 C   0  0  0  0  0  0  0  0  0  0  0  0
   -3.7229   -2.2695    0.6785 H   0  0  0  0  0  0  0  0  0  0  0  0
   -3.0021   -2.4624   -1.3568 C   0  0  0  0  0  0  0  0  0  0  0  0
   -3.4452   -3.4590   -1.5018 H   0  0  0  0  0  0  0  0  0  0  0  0
   -2.2746   -1.8647   -2.4296 C   0  0  0  0  0  0  0  0  0  0  0  0
   -2.1782   -2.4106   -3.3800 H   0  0  0  0  0  0  0  0  0  0  0  0
   -1.7000   -0.6101   -2.3016 C   0  0  0  0  0  0  0  0  0  0  0  0
   -1.1706   -0.1515   -3.1472 H   0  0  0  0  0  0  0  0  0  0  0  0
   -3.2636    0.1694    2.4462 C   0  0  0  0  0  0  0  0  0  0  0  0
   -2.7985    0.7727    3.2484 H   0  0  0  0  0  0  0  0  0  0  0  0
   -3.2243   -0.8918    2.7610 H   0  0  0  0  0  0  0  0  0  0  0  0
   -4.3339    0.4579    2.3674 H   0  0  0  0  0  0  0  0  0  0  0  0
    1.4013    1.4143   -0.6373 C   0  0  1  0  0  3  0  0  0  0  0  0
    1.8774    1.5521    0.7138 C   0  0  0  0  0  0  0  0  0  0  0  0
    1.7065    2.4272    1.3562 H   0  0  0  0  0  0  0  0  0  0  0  0
    2.5646    0.3793    1.1413 C   0  0  0  0  0  0  0  0  0  0  0  0
    2.5754   -0.5225    0.0213 C   0  0  0  0  0  0  0  0  0  0  0  0
    1.8408    0.0993   -1.0698 C   0  0  0  0  0  0  0  0  0  0  0  0
    3.1624   -1.8071   -0.1461 C   0  0  0  0  0  0  0  0  0  0  0  0
    3.7229   -2.2691    0.6794 H   0  0  0  0  0  0  0  0  0  0  0  0
    3.0029   -2.4620   -1.3561 C   0  0  0  0  0  0  0  0  0  0  0  0
    3.4461   -3.4585   -1.5010 H   0  0  0  0  0  0  0  0  0  0  0  0
    2.2756   -1.8643   -2.4291 C   0  0  0  0  0  0  0  0  0  0  0  0
    2.1795   -2.4101   -3.3796 H   0  0  0  0  0  0  0  0  0  0  0  0
    1.7009   -0.6098   -2.3012 C   0  0  0  0  0  0  0  0  0  0  0  0
    1.1717   -0.1512   -3.1470 H   0  0  0  0  0  0  0  0  0  0  0  0
    3.2627    0.1695    2.4472 C   0  0  0  0  0  0  0  0  0  0  0  0
    4.3330    0.4579    2.3688 H   0  0  0  0  0  0  0  0  0  0  0  0
    3.2231   -0.8917    2.7620 H   0  0  0  0  0  0  0  0  0  0  0  0
    2.7974    0.7728    3.2493 H   0  0  0  0  0  0  0  0  0  0  0  0
   -0.0002    4.1633   -0.5403 C   0  0  0  0  0  0  0  0  0  0  0  0
    0.0000    4.1025    0.5660 H   0  0  0  0  0  0  0  0  0  0  0  0
   -0.8985    4.7361   -0.8482 H   0  0  0  0  0  0  0  0  0  0  0  0
    0.8978    4.7365   -0.8485 H   0  0  0  0  0  0  0  0  0  0  0  0
    0.0005    2.6202   -3.2216 C   0  0  0  0  0  0  0  0  0  0  0  0
   -0.8974    3.1814   -3.5521 H   0  0  0  0  0  0  0  0  0  0  0  0
   -0.0001    1.6454   -3.7451 H   0  0  0  0  0  0  0  0  0  0  0  0
    0.8992    3.1802   -3.5518 H   0  0  0  0  0  0  0  0  0  0  0  0
  1 38  1  0  0  0  0
  2  1  1  1  0  0  0
  2  3  1  0  0  0  0
  3  5  2  0  0  0  0
  3  4  1  0  0  0  0
  5 16  1  0  0  0  0
  6  5  1  0  0  0  0
  7  2  1  0  0  0  0
  7  6  2  0  0  0  0
  8  6  1  0  0  0  0
  8  9  1  0  0  0  0
 10  8  2  0  0  0  0
 11 10  1  0  0  0  0
 12 14  2  0  0  0  0
 12 10  1  0  0  0  0
 13 12  1  0  0  0  0
 14  7  1  0  0  0  0
 15 14  1  0  0  0  0
 16 18  1  0  0  0  0
 16 17  1  0  0  0  0
 19 16  1  0  0  0  0
 20  1  1  1  0  0  0
 20 21  1  0  0  0  0
 21 23  2  0  0  0  0
 21 22  1  0  0  0  0
 23 34  1  0  0  0  0
 24 23  1  0  0  0  0
 25 20  1  0  0  0  0
 25 24  2  0  0  0  0
 26 24  1  0  0  0  0
 26 27  1  0  0  0  0
 28 26  2  0  0  0  0
 29 28  1  0  0  0  0
 30 32  2  0  0  0  0
 30 28  1  0  0  0  0
 31 30  1  0  0  0  0
 32 25  1  0  0  0  0
 33 32  1  0  0  0  0
 34 36  1  0  0  0  0
 34 37  1  0  0  0  0
 35 34  1  0  0  0  0
 38 39  1  0  0  0  0
 40 38  1  0  0  0  0
 41 38  1  0  0  0  0
 42  1  1  0  0  0  0
 43 42  1  0  0  0  0
 44 42  1  0  0  0  0
 45 42  1  0  0  0  0
M  END
