3,13
 OpenBabel05122313053D

 16 16  0  0  0  0  0  0  0  0999 V2000
   -0.6169   -1.9634   -2.2057 C   0  0  0  0  0  0  0  0  0  0  0  0
   -0.5394   -1.6041   -3.2441 H   0  0  0  0  0  0  0  0  0  0  0  0
    0.6459   -2.3493   -1.6919 C   0  0  0  0  0  3  0  0  0  0  0  0
    1.4593   -2.2322   -2.4237 H   0  0  0  0  0  0  0  0  0  0  0  0
    1.1002   -2.8504   -0.4378 C   0  0  0  0  0  0  0  0  0  0  0  0
    2.1840   -3.0331   -0.4095 H   0  0  0  0  0  0  0  0  0  0  0  0
    0.4402   -3.1673    0.7677 C   0  0  0  0  0  0  0  0  0  0  0  0
    1.1422   -3.5050    1.5446 H   0  0  0  0  0  0  0  0  0  0  0  0
   -0.8494   -2.9283    1.3052 C   0  0  0  0  0  0  0  0  0  0  0  0
   -0.8658   -3.1333    2.3858 H   0  0  0  0  0  0  0  0  0  0  0  0
   -2.0048   -2.2294    0.9013 C   0  0  0  0  0  0  0  0  0  0  0  0
   -2.7064   -2.0405    1.7275 H   0  0  0  0  0  0  0  0  0  0  0  0
   -2.4100   -1.6322   -0.3228 C   0  0  0  0  0  3  0  0  0  0  0  0
   -3.3785   -1.1152   -0.2556 H   0  0  0  0  0  0  0  0  0  0  0  0
   -1.8676   -1.6339   -1.6372 C   0  0  0  0  0  0  0  0  0  0  0  0
   -2.5158   -1.0996   -2.3487 H   0  0  0  0  0  0  0  0  0  0  0  0
  1  3  1  0  0  0  0
  1 15  2  0  0  0  0
  2  1  1  0  0  0  0
  3  5  1  0  0  0  0
  4  3  1  0  0  0  0
  5  6  1  0  0  0  0
  5  7  2  0  0  0  0
  7  9  1  0  0  0  0
  7  8  1  0  0  0  0
  9 10  1  0  0  0  0
 11  9  2  0  0  0  0
 11 12  1  0  0  0  0
 13 14  1  0  0  0  0
 13 11  1  0  0  0  0
 15 13  1  0  0  0  0
 16 15  1  0  0  0  0
M  END
