1,4
 OpenBabel05122313053D

 33 32  0  0  0  0  0  0  0  0999 V2000
    0.1857    1.4441    0.5817 C   0  0  0  0  0  2  0  0  0  0  0  0
    1.2704    0.9005   -0.1965 C   0  0  0  0  0  0  0  0  0  0  0  0
    1.5046   -0.4957   -0.0242 C   0  0  0  0  0  0  0  0  0  0  0  0
    0.7479   -1.1580    1.0280 C   0  0  0  0  0  3  0  0  0  0  0  0
    0.1602    2.7278    1.3319 C   0  0  0  0  0  0  0  0  0  0  0  0
   -0.8747    2.9992    1.6245 H   0  0  0  0  0  0  0  0  0  0  0  0
    0.4930    3.5303    0.6324 H   0  0  0  0  0  0  0  0  0  0  0  0
    1.9740    1.7612   -1.2265 C   0  0  0  0  0  0  0  0  0  0  0  0
    1.2067    2.3931   -1.7201 H   0  0  0  0  0  0  0  0  0  0  0  0
    2.3793    1.1149   -2.0295 H   0  0  0  0  0  0  0  0  0  0  0  0
    2.3970   -1.2561   -0.9797 C   0  0  0  0  0  0  0  0  0  0  0  0
    2.1718   -0.9487   -2.0204 H   0  0  0  0  0  0  0  0  0  0  0  0
    2.1422   -2.3299   -0.9322 H   0  0  0  0  0  0  0  0  0  0  0  0
    0.8010   -2.6535    1.2545 C   0  0  0  0  0  0  0  0  0  0  0  0
    0.6815   -3.1850    0.2900 H   0  0  0  0  0  0  0  0  0  0  0  0
   -0.0855   -2.9457    1.8576 H   0  0  0  0  0  0  0  0  0  0  0  0
    1.0720    2.7184    2.5712 C   0  0  0  0  0  0  0  0  0  0  0  0
    1.0659    3.7046    3.0772 H   0  0  0  0  0  0  0  0  0  0  0  0
    2.1180    2.4766    2.2965 H   0  0  0  0  0  0  0  0  0  0  0  0
    0.7388    1.9578    3.3063 H   0  0  0  0  0  0  0  0  0  0  0  0
    3.8906   -1.0603   -0.6732 C   0  0  0  0  0  0  0  0  0  0  0  0
    4.5064   -1.6949   -1.3411 H   0  0  0  0  0  0  0  0  0  0  0  0
    4.1325   -1.3367    0.3730 H   0  0  0  0  0  0  0  0  0  0  0  0
    4.2122   -0.0107   -0.8194 H   0  0  0  0  0  0  0  0  0  0  0  0
    3.0937    2.6325   -0.6383 C   0  0  0  0  0  0  0  0  0  0  0  0
    3.6069    3.1969   -1.4426 H   0  0  0  0  0  0  0  0  0  0  0  0
    3.8572    2.0243   -0.1123 H   0  0  0  0  0  0  0  0  0  0  0  0
    2.7063    3.3743    0.0881 H   0  0  0  0  0  0  0  0  0  0  0  0
    2.0638   -3.1176    1.9941 C   0  0  0  0  0  0  0  0  0  0  0  0
    2.0258   -4.2061    2.2032 H   0  0  0  0  0  0  0  0  0  0  0  0
    2.1836   -2.5930    2.9651 H   0  0  0  0  0  0  0  0  0  0  0  0
    2.9804   -2.9250    1.4015 H   0  0  0  0  0  0  0  0  0  0  0  0
    0.7064   -0.5872    1.9729 H   0  0  0  0  0  0  0  0  0  0  0  0
  1  5  1  0  0  0  0
  2  3  2  0  0  0  0
  2  1  1  0  0  0  0
  3  4  1  0  0  0  0
  4 14  1  0  0  0  0
  4 33  1  0  0  0  0
  5  6  1  0  0  0  0
  5 17  1  0  0  0  0
  7  5  1  0  0  0  0
  8 25  1  0  0  0  0
  8  2  1  0  0  0  0
  9  8  1  0  0  0  0
 10  8  1  0  0  0  0
 11 13  1  0  0  0  0
 11 21  1  0  0  0  0
 11  3  1  0  0  0  0
 12 11  1  0  0  0  0
 14 16  1  0  0  0  0
 14 29  1  0  0  0  0
 15 14  1  0  0  0  0
 17 18  1  0  0  0  0
 17 20  1  0  0  0  0
 19 17  1  0  0  0  0
 21 23  1  0  0  0  0
 22 21  1  0  0  0  0
 24 21  1  0  0  0  0
 25 27  1  0  0  0  0
 25 28  1  0  0  0  0
 26 25  1  0  0  0  0
 29 30  1  0  0  0  0
 29 31  1  0  0  0  0
 32 29  1  0  0  0  0
M  END
