1,3
 OpenBabel05122313053D

 21 22  0  0  1  0  0  0  0  0999 V2000
   -1.9813    1.2981   -0.6530 C   0  0  1  0  0  3  0  0  0  0  0  0
   -3.2672    0.6847   -0.8954 C   0  0  2  0  0  3  0  0  0  0  0  0
   -3.0490   -0.7233   -1.0347 C   0  0  2  0  0  3  0  0  0  0  0  0
   -1.6328   -0.9957   -0.8881 C   0  0  0  0  0  0  0  0  0  0  0  0
   -0.9715    0.2739   -0.7015 C   0  0  0  0  0  0  0  0  0  0  0  0
   -1.6551    2.9899   -0.5902 Cl  0  0  0  0  0  0  0  0  0  0  0  0
   -4.7410    1.5182   -1.1601 Cl  0  0  0  0  0  0  0  0  0  0  0  0
   -4.2323   -1.8767   -1.4909 Cl  0  0  0  0  0  0  0  0  0  0  0  0
   -0.9208   -2.5322   -1.1561 Cl  0  0  0  0  0  0  0  0  0  0  0  0
    0.3774    0.5617   -0.6188 N   0  0  0  0  0  0  0  0  0  0  0  0
    1.2646   -0.3989   -0.4430 N   0  0  0  0  0  2  0  0  0  0  0  0
    2.5357   -0.1245   -0.2949 C   0  0  0  0  0  0  0  0  0  0  0  0
    3.5190   -1.2108   -0.1145 C   0  0  2  0  0  3  0  0  0  0  0  0
    4.7653   -0.6470    0.0194 C   0  0  0  0  0  0  0  0  0  0  0  0
    4.6240    0.8177   -0.0689 C   0  0  0  0  0  0  0  0  0  0  0  0
    3.2966    1.1327   -0.2586 C   0  0  0  0  0  0  0  0  0  0  0  0
    3.1118   -2.8702   -0.0901 Cl  0  0  0  0  0  0  0  0  0  0  0  0
    6.2584   -1.4448    0.2504 Cl  0  0  0  0  0  0  0  0  0  0  0  0
    5.9300    1.9084    0.0574 Cl  0  0  0  0  0  0  0  0  0  0  0  0
    2.6491    2.7318   -0.4047 Cl  0  0  0  0  0  0  0  0  0  0  0  0
    0.6403    1.5633   -0.5802 H   0  0  0  0  0  0  0  0  0  0  0  0
  1  6  1  6  0  0  0
  2  7  1  6  0  0  0
  2  1  1  0  0  0  0
  3  8  1  6  0  0  0
  3  2  1  0  0  0  0
  3  4  1  0  0  0  0
  4  5  2  0  0  0  0
  5  1  1  0  0  0  0
  5 10  1  0  0  0  0
  9  4  1  0  0  0  0
 10 21  1  0  0  0  0
 10 11  1  0  0  0  0
 11 12  1  0  0  0  0
 12 16  2  0  0  0  0
 12 13  1  0  0  0  0
 13 17  1  6  0  0  0
 13 14  1  0  0  0  0
 14 18  1  0  0  0  0
 15 14  2  0  0  0  0
 15 19  1  0  0  0  0
 16 15  1  0  0  0  0
 20 16  1  0  0  0  0
M  END
