5,11
q = -1.0, confidence = 0.0

 28 28  0  0  1  0  0  0  0  0999 V2000
   -1.4848    0.9341   -0.1690 B   0  0  0  0  0  0  0  0  0  0  0  0
   -1.4725    1.2138   -1.3692 H   0  0  0  0  0  0  0  0  0  0  0  0
   -1.3266    1.9213    0.5518 H   0  0  0  0  0  0  0  0  0  0  0  0
   -0.4682   -0.2500    0.1938 C   0  0  1  0  0  3  0  0  0  0  0  0
    0.0595   -1.2658   -0.6931 C   0  0  0  0  0  3  0  0  0  0  0  0
   -0.2065   -1.3671   -1.7536 H   0  0  0  0  0  0  0  0  0  0  0  0
    0.9937   -2.0929    0.0034 C   0  0  0  0  0  0  0  0  0  0  0  0
    1.5548   -2.9378   -0.4137 H   0  0  0  0  0  0  0  0  0  0  0  0
    1.0791   -1.6030    1.3548 C   0  0  0  0  0  0  0  0  0  0  0  0
    1.7160   -2.0080    2.1502 H   0  0  0  0  0  0  0  0  0  0  0  0
    0.1954   -0.4838    1.4578 C   0  0  0  0  0  3  0  0  0  0  0  0
    0.0543    0.1284    2.3584 H   0  0  0  0  0  0  0  0  0  0  0  0
   -3.0696    0.4748    0.1245 N   0  3  0  0  0  0  0  0  0  0  0  0
   -3.9253    1.6369   -0.2277 C   0  0  0  0  0  0  0  0  0  0  0  0
   -3.8066    1.8530   -1.3046 H   0  0  0  0  0  0  0  0  0  0  0  0
   -3.5722    2.5129    0.3449 H   0  0  0  0  0  0  0  0  0  0  0  0
   -4.9893    1.4375    0.0083 H   0  0  0  0  0  0  0  0  0  0  0  0
   -3.2353    0.1567    1.5657 C   0  0  0  0  0  0  0  0  0  0  0  0
   -2.6051   -0.7153    1.8180 H   0  0  0  0  0  0  0  0  0  0  0  0
   -4.2937   -0.0614    1.8106 H   0  0  0  0  0  0  0  0  0  0  0  0
   -2.8901    1.0254    2.1547 H   0  0  0  0  0  0  0  0  0  0  0  0
   -3.3981   -0.7153   -0.7343 C   0  0  0  0  0  0  0  0  0  0  0  0
   -2.6682   -1.4996   -0.4549 H   0  0  0  0  0  0  0  0  0  0  0  0
   -3.1516   -0.4085   -1.7697 H   0  0  0  0  0  0  0  0  0  0  0  0
   -4.8218   -1.2524   -0.6470 C   0  0  0  0  0  0  0  0  0  0  0  0
   -4.9107   -2.1248   -1.3240 H   0  0  0  0  0  0  0  0  0  0  0  0
   -5.5821   -0.5137   -0.9690 H   0  0  0  0  0  0  0  0  0  0  0  0
   -5.0863   -1.6046    0.3699 H   0  0  0  0  0  0  0  0  0  0  0  0
  1 13  1  0  0  0  0
  1  3  1  0  0  0  0
  2  1  1  0  0  0  0
  4  1  1  6  0  0  0
  4 11  1  0  0  0  0
  5  7  1  0  0  0  0
  5  4  1  0  0  0  0
  6  5  1  0  0  0  0
  7  9  2  0  0  0  0
  8  7  1  0  0  0  0
  9 11  1  0  0  0  0
  9 10  1  0  0  0  0
 11 12  1  0  0  0  0
 13 18  1  0  0  0  0
 14 17  1  0  0  0  0
 14 13  1  0  0  0  0
 14 16  1  0  0  0  0
 15 14  1  0  0  0  0
 18 20  1  0  0  0  0
 18 19  1  0  0  0  0
 18 21  1  0  0  0  0
 22 25  1  0  0  0  0
 22 23  1  0  0  0  0
 22 13  1  0  0  0  0
 24 22  1  0  0  0  0
 25 28  1  0  0  0  0
 26 25  1  0  0  0  0
 27 25  1  0  0  0  0
M  CHG  1  13   1
M  END
