1,26
 OpenBabel05122313053D

 48 51  0  0  1  0  0  0  0  0999 V2000
   -1.2060    1.2558    1.3609 C   0  0  1  0  0  3  0  0  0  0  0  0
   -1.5142    0.1582    2.2272 C   0  0  0  0  0  0  0  0  0  0  0  0
   -1.1220    0.0345    3.2446 H   0  0  0  0  0  0  0  0  0  0  0  0
   -2.3599   -0.7648    1.5624 C   0  0  0  0  0  0  0  0  0  0  0  0
   -2.7521   -1.6991    1.9769 H   0  0  0  0  0  0  0  0  0  0  0  0
   -2.6742   -0.2129    0.2757 C   0  0  0  0  0  0  0  0  0  0  0  0
   -3.5228   -0.7189   -0.7600 C   0  0  0  0  0  0  0  0  0  0  0  0
   -3.6641    0.0730   -1.8929 C   0  0  0  0  0  0  0  0  0  0  0  0
   -4.3247   -0.2658   -2.7064 H   0  0  0  0  0  0  0  0  0  0  0  0
   -2.9818    1.3132   -2.0333 C   0  0  0  0  0  0  0  0  0  0  0  0
   -3.1305    1.8923   -2.9584 H   0  0  0  0  0  0  0  0  0  0  0  0
   -2.1259    1.8271   -1.0628 C   0  0  0  0  0  0  0  0  0  0  0  0
   -1.9679    1.0557    0.1404 C   0  0  0  0  0  0  0  0  0  0  0  0
   -0.2644    2.3788    1.7314 C   0  0  0  0  0  0  0  0  0  0  0  0
   -0.7560    3.0910    2.4314 H   0  0  0  0  0  0  0  0  0  0  0  0
   -0.0277    2.9650    0.8278 H   0  0  0  0  0  0  0  0  0  0  0  0
   -4.2482   -2.0223   -0.5809 C   0  0  0  0  0  0  0  0  0  0  0  0
   -4.9007   -2.0003    0.3180 H   0  0  0  0  0  0  0  0  0  0  0  0
   -3.5379   -2.8631   -0.4328 H   0  0  0  0  0  0  0  0  0  0  0  0
   -4.8797   -2.2588   -1.4584 H   0  0  0  0  0  0  0  0  0  0  0  0
   -1.4054    3.1256   -1.3052 C   0  0  0  0  0  0  0  0  0  0  0  0
   -0.3107    2.9648   -1.4039 H   0  0  0  0  0  0  0  0  0  0  0  0
   -1.5593    3.8544   -0.4833 H   0  0  0  0  0  0  0  0  0  0  0  0
   -1.7534    3.5959   -2.2449 H   0  0  0  0  0  0  0  0  0  0  0  0
    1.6142    0.6469    1.6464 C   0  0  1  0  0  3  0  0  0  0  0  0
    1.6067   -0.6731    2.1977 C   0  0  0  0  0  3  0  0  0  0  0  0
    1.2348   -0.9226    3.2006 H   0  0  0  0  0  0  0  0  0  0  0  0
    2.0960   -1.6076    1.2478 C   0  0  0  0  0  3  0  0  0  0  0  0
    2.2114   -2.6854    1.3987 H   0  0  0  0  0  0  0  0  0  0  0  0
    2.4891   -0.8642    0.0832 C   0  0  0  0  0  0  0  0  0  0  0  0
    3.0691   -1.3110   -1.1469 C   0  0  0  0  0  0  0  0  0  0  0  0
    3.3936   -0.3334   -2.0777 C   0  0  0  0  0  0  0  0  0  0  0  0
    3.8453   -0.6331   -3.0362 H   0  0  0  0  0  0  0  0  0  0  0  0
    3.1862    1.0505   -1.8183 C   0  0  0  0  0  0  0  0  0  0  0  0
    3.5165    1.7811   -2.5739 H   0  0  0  0  0  0  0  0  0  0  0  0
    2.6134    1.5278   -0.6424 C   0  0  0  0  0  0  0  0  0  0  0  0
    2.2137    0.5474    0.3317 C   0  0  0  0  0  0  0  0  0  0  0  0
    1.0493    1.8565    2.3605 C   0  0  0  0  0  0  0  0  0  0  0  0
    1.7901    2.6809    2.4090 H   0  0  0  0  0  0  0  0  0  0  0  0
    0.8619    1.5635    3.4141 H   0  0  0  0  0  0  0  0  0  0  0  0
    3.2955   -2.7758   -1.3857 C   0  0  0  0  0  0  0  0  0  0  0  0
    2.3352   -3.3354   -1.3612 H   0  0  0  0  0  0  0  0  0  0  0  0
    3.9398   -3.2217   -0.5985 H   0  0  0  0  0  0  0  0  0  0  0  0
    3.7727   -2.9596   -2.3671 H   0  0  0  0  0  0  0  0  0  0  0  0
    2.5428    3.0088   -0.3785 C   0  0  0  0  0  0  0  0  0  0  0  0
    3.1398    3.2863    0.5155 H   0  0  0  0  0  0  0  0  0  0  0  0
    1.5106    3.3666   -0.1930 H   0  0  0  0  0  0  0  0  0  0  0  0
    2.9422    3.5800   -1.2383 H   0  0  0  0  0  0  0  0  0  0  0  0
  1 14  1  1  0  0  0
  1  2  1  0  0  0  0
  2  3  1  0  0  0  0
  4  5  1  0  0  0  0
  4  2  2  0  0  0  0
  6  4  1  0  0  0  0
  7 17  1  0  0  0  0
  7  6  2  0  0  0  0
  8  7  1  0  0  0  0
  9  8  1  0  0  0  0
 10  8  2  0  0  0  0
 10 12  1  0  0  0  0
 11 10  1  0  0  0  0
 12 13  2  0  0  0  0
 13  6  1  0  0  0  0
 13  1  1  0  0  0  0
 14 38  1  0  0  0  0
 14 15  1  0  0  0  0
 16 14  1  0  0  0  0
 17 19  1  0  0  0  0
 17 18  1  0  0  0  0
 20 17  1  0  0  0  0
 21 12  1  0  0  0  0
 21 23  1  0  0  0  0
 22 21  1  0  0  0  0
 24 21  1  0  0  0  0
 25 26  1  0  0  0  0
 25 38  1  6  0  0  0
 26 27  1  0  0  0  0
 28 29  1  0  0  0  0
 28 26  1  0  0  0  0
 30 37  1  0  0  0  0
 30 28  1  0  0  0  0
 31 30  2  0  0  0  0
 32 34  2  0  0  0  0
 32 31  1  0  0  0  0
 33 32  1  0  0  0  0
 34 36  1  0  0  0  0
 35 34  1  0  0  0  0
 36 45  1  0  0  0  0
 36 37  2  0  0  0  0
 37 25  1  0  0  0  0
 38 39  1  0  0  0  0
 38 40  1  0  0  0  0
 41 42  1  0  0  0  0
 41 31  1  0  0  0  0
 41 43  1  0  0  0  0
 44 41  1  0  0  0  0
 45 47  1  0  0  0  0
 45 46  1  0  0  0  0
 48 45  1  0  0  0  0
M  END
