10,28
 OpenBabel05122313053D

 45 46  0  0  0  0  0  0  0  0999 V2000
   -2.5883    0.0000    0.0000 Si  0  0  0  0  0  0  0  0  0  0  0  0
   -3.6533   -0.0014   -1.5534 C   0  0  0  0  0  0  0  0  0  0  0  0
   -4.2971   -0.9043   -1.5776 H   0  0  0  0  0  0  0  0  0  0  0  0
   -3.0467    0.0061   -2.4803 H   0  0  0  0  0  0  0  0  0  0  0  0
   -4.3093    0.8929   -1.5712 H   0  0  0  0  0  0  0  0  0  0  0  0
   -3.6533    0.0014    1.5534 C   0  0  0  0  0  0  0  0  0  0  0  0
   -4.2976    0.9041    1.5773 H   0  0  0  0  0  0  0  0  0  0  0  0
   -3.0467   -0.0055    2.4803 H   0  0  0  0  0  0  0  0  0  0  0  0
   -4.3089   -0.8931    1.5714 H   0  0  0  0  0  0  0  0  0  0  0  0
   -1.2653    1.3946   -0.0009 C   0  0  0  0  0  3  0  0  0  0  0  0
   -0.4760    1.4748   -1.2179 C   0  0  0  0  0  3  0  0  0  0  0  0
   -0.9487    1.2308   -2.1836 H   0  0  0  0  0  0  0  0  0  0  0  0
    0.9413    1.6195   -1.1491 C   0  0  0  0  0  3  0  0  0  0  0  0
    1.5154    1.4863   -2.0823 H   0  0  0  0  0  0  0  0  0  0  0  0
    1.5886    2.3782   -0.0001 C   0  0  0  0  0  0  0  0  0  0  0  0
    0.9404    1.6203    1.1489 C   0  0  0  0  0  3  0  0  0  0  0  0
    1.5137    1.4874    2.0825 H   0  0  0  0  0  0  0  0  0  0  0  0
   -0.4769    1.4757    1.2167 C   0  0  0  0  0  3  0  0  0  0  0  0
   -0.9505    1.2323    2.1821 H   0  0  0  0  0  0  0  0  0  0  0  0
    1.2736    3.8868   -0.0007 C   0  0  0  0  0  0  0  0  0  0  0  0
    0.1793    4.0603   -0.0013 H   0  0  0  0  0  0  0  0  0  0  0  0
    1.7030    4.3785   -0.8993 H   0  0  0  0  0  0  0  0  0  0  0  0
    1.7022    4.3791    0.8979 H   0  0  0  0  0  0  0  0  0  0  0  0
    3.1060    2.1598    0.0006 C   0  0  0  0  0  0  0  0  0  0  0  0
    3.5702    2.6196    0.8972 H   0  0  0  0  0  0  0  0  0  0  0  0
    3.5709    2.6189   -0.8960 H   0  0  0  0  0  0  0  0  0  0  0  0
    3.3436    1.0775    0.0011 H   0  0  0  0  0  0  0  0  0  0  0  0
   -1.2654   -1.3946    0.0009 C   0  0  0  0  0  3  0  0  0  0  0  0
   -0.4770   -1.4757   -1.2167 C   0  0  0  0  0  3  0  0  0  0  0  0
   -0.9505   -1.2323   -2.1821 H   0  0  0  0  0  0  0  0  0  0  0  0
    0.9403   -1.6203   -1.1489 C   0  0  0  0  0  3  0  0  0  0  0  0
    1.5136   -1.4875   -2.0826 H   0  0  0  0  0  0  0  0  0  0  0  0
    1.5886   -2.3782    0.0001 C   0  0  0  0  0  0  0  0  0  0  0  0
    0.9413   -1.6195    1.1492 C   0  0  0  0  0  3  0  0  0  0  0  0
    1.5153   -1.4864    2.0823 H   0  0  0  0  0  0  0  0  0  0  0  0
   -0.4760   -1.4748    1.2179 C   0  0  0  0  0  3  0  0  0  0  0  0
   -0.9487   -1.2308    2.1836 H   0  0  0  0  0  0  0  0  0  0  0  0
    1.2736   -3.8868    0.0007 C   0  0  0  0  0  0  0  0  0  0  0  0
    0.1794   -4.0603    0.0013 H   0  0  0  0  0  0  0  0  0  0  0  0
    1.7030   -4.3785    0.8993 H   0  0  0  0  0  0  0  0  0  0  0  0
    1.7022   -4.3791   -0.8979 H   0  0  0  0  0  0  0  0  0  0  0  0
    3.1060   -2.1598   -0.0006 C   0  0  0  0  0  0  0  0  0  0  0  0
    3.5701   -2.6195   -0.8972 H   0  0  0  0  0  0  0  0  0  0  0  0
    3.5709   -2.6188    0.8960 H   0  0  0  0  0  0  0  0  0  0  0  0
    3.3436   -1.0775   -0.0011 H   0  0  0  0  0  0  0  0  0  0  0  0
  1 28  1  0  0  0  0
  1  6  1  0  0  0  0
  2  1  1  0  0  0  0
  3  2  1  0  0  0  0
  4  2  1  0  0  0  0
  5  2  1  0  0  0  0
  6  9  1  0  0  0  0
  6  7  1  0  0  0  0
  6  8  1  0  0  0  0
 10  1  1  0  0  0  0
 10 18  1  0  0  0  0
 11 13  1  0  0  0  0
 11 10  1  0  0  0  0
 12 11  1  0  0  0  0
 13 15  1  0  0  0  0
 14 13  1  0  0  0  0
 15 24  1  0  0  0  0
 15 16  1  0  0  0  0
 16 18  1  0  0  0  0
 16 17  1  0  0  0  0
 18 19  1  0  0  0  0
 20 15  1  0  0  0  0
 20 23  1  0  0  0  0
 21 20  1  0  0  0  0
 22 20  1  0  0  0  0
 24 27  1  0  0  0  0
 24 25  1  0  0  0  0
 26 24  1  0  0  0  0
 28 36  1  0  0  0  0
 29 31  1  0  0  0  0
 29 28  1  0  0  0  0
 30 29  1  0  0  0  0
 31 33  1  0  0  0  0
 32 31  1  0  0  0  0
 33 38  1  0  0  0  0
 33 34  1  0  0  0  0
 34 36  1  0  0  0  0
 34 35  1  0  0  0  0
 36 37  1  0  0  0  0
 38 39  1  0  0  0  0
 38 40  1  0  0  0  0
 41 38  1  0  0  0  0
 42 33  1  0  0  0  0
 42 44  1  0  0  0  0
 43 42  1  0  0  0  0
 45 42  1  0  0  0  0
M  END
