5,14
 OpenBabel05122313053D

 34 35  0  0  1  0  0  0  0  0999 V2000
   -1.8157    2.0098   -1.2628 F   0  0  0  0  0  0  0  0  0  0  0  0
   -4.4943    1.8713   -1.0110 F   0  0  0  0  0  0  0  0  0  0  0  0
   -5.6583   -0.2467    0.2865 F   0  0  0  0  0  0  0  0  0  0  0  0
   -4.1027   -2.2560    1.2852 F   0  0  0  0  0  0  0  0  0  0  0  0
   -1.4812   -0.0363   -0.0684 C   0  0  0  0  0  3  0  0  0  0  0  0
   -2.3270    0.9408   -0.5999 C   0  0  0  0  0  0  0  0  0  0  0  0
   -3.7276    0.9002   -0.4949 C   0  0  0  0  0  0  0  0  0  0  0  0
   -4.3268   -0.1804    0.1711 C   0  0  0  0  0  0  0  0  0  0  0  0
   -3.5095   -1.1992    0.6899 C   0  0  0  0  0  0  0  0  0  0  0  0
   -2.1145   -1.1464    0.5588 C   0  0  0  0  0  0  0  0  0  0  0  0
   -1.2688   -2.3215    1.0049 C   0  0  0  0  0  0  0  0  0  0  0  0
   -1.7954   -3.2746    0.7817 H   0  0  0  0  0  0  0  0  0  0  0  0
   -1.1351   -2.3141    2.1077 H   0  0  0  0  0  0  0  0  0  0  0  0
    0.0698   -2.2658    0.3193 C   0  0  2  0  0  3  0  0  0  0  0  0
    1.3492   -2.1441    0.9464 C   0  0  0  0  0  0  0  0  0  0  0  0
    2.3341   -2.0111   -0.0972 C   0  0  0  0  0  0  0  0  0  0  0  0
    1.6579   -2.1175   -1.3583 C   0  0  0  0  0  0  0  0  0  0  0  0
    0.2595   -2.2616   -1.1082 C   0  0  0  0  0  0  0  0  0  0  0  0
    1.6328   -2.4191    2.3935 C   0  0  0  0  0  0  0  0  0  0  0  0
    1.8411   -3.5026    2.5294 H   0  0  0  0  0  0  0  0  0  0  0  0
    0.7769   -2.1696    3.0469 H   0  0  0  0  0  0  0  0  0  0  0  0
    2.5166   -1.8743    2.7717 H   0  0  0  0  0  0  0  0  0  0  0  0
    3.8273   -2.0654    0.0564 C   0  0  0  0  0  0  0  0  0  0  0  0
    4.2125   -3.0439   -0.3035 H   0  0  0  0  0  0  0  0  0  0  0  0
    4.1449   -1.9549    1.1082 H   0  0  0  0  0  0  0  0  0  0  0  0
    4.3446   -1.2851   -0.5386 H   0  0  0  0  0  0  0  0  0  0  0  0
    2.3293   -2.2094   -2.6938 C   0  0  0  0  0  0  0  0  0  0  0  0
    2.6074   -3.2650   -2.9076 H   0  0  0  0  0  0  0  0  0  0  0  0
    3.2572   -1.6069   -2.7340 H   0  0  0  0  0  0  0  0  0  0  0  0
    1.6697   -1.8566   -3.5079 H   0  0  0  0  0  0  0  0  0  0  0  0
   -0.7915   -2.4419   -2.1647 C   0  0  0  0  0  0  0  0  0  0  0  0
   -0.6481   -3.4074   -2.6945 H   0  0  0  0  0  0  0  0  0  0  0  0
   -0.7415   -1.6350   -2.9237 H   0  0  0  0  0  0  0  0  0  0  0  0
   -1.8101   -2.4339   -1.7358 H   0  0  0  0  0  0  0  0  0  0  0  0
  1  6  1  0  0  0  0
  2  7  1  0  0  0  0
  5 10  1  0  0  0  0
  6  7  1  0  0  0  0
  6  5  2  0  0  0  0
  7  8  2  0  0  0  0
  8  3  1  0  0  0  0
  8  9  1  0  0  0  0
  9  4  1  0  0  0  0
 10  9  2  0  0  0  0
 10 11  1  0  0  0  0
 11 13  1  0  0  0  0
 12 11  1  0  0  0  0
 14 15  1  0  0  0  0
 14 11  1  6  0  0  0
 15 19  1  0  0  0  0
 16 23  1  0  0  0  0
 16 15  2  0  0  0  0
 17 18  2  0  0  0  0
 17 16  1  0  0  0  0
 18 14  1  0  0  0  0
 19 20  1  0  0  0  0
 19 22  1  0  0  0  0
 19 21  1  0  0  0  0
 23 25  1  0  0  0  0
 24 23  1  0  0  0  0
 26 23  1  0  0  0  0
 27 17  1  0  0  0  0
 28 27  1  0  0  0  0
 29 27  1  0  0  0  0
 30 27  1  0  0  0  0
 31 34  1  0  0  0  0
 31 18  1  0  0  0  0
 32 31  1  0  0  0  0
 33 31  1  0  0  0  0
M  END
