1,4
 OpenBabel05122313053D

 50 52  0  0  1  0  0  0  0  0999 V2000
    0.4851   -0.7892   -1.0610 C   0  0  0  0  0  3  0  0  0  0  0  0
    0.2675   -0.9702   -2.1210 H   0  0  0  0  0  0  0  0  0  0  0  0
   -0.4781   -0.3267   -0.0981 C   0  0  0  0  0  3  0  0  0  0  0  0
    0.2265   -0.2235    1.1531 C   0  0  0  0  0  3  0  0  0  0  0  0
   -0.2161    0.1077    2.1004 H   0  0  0  0  0  0  0  0  0  0  0  0
    1.5407   -0.8614    1.0225 C   0  0  0  0  0  0  0  0  0  0  0  0
    2.5681   -1.1049    1.9704 C   0  0  0  0  0  0  0  0  0  0  0  0
    3.7160   -1.7482    1.4891 C   0  0  0  0  0  0  0  0  0  0  0  0
    4.5282   -1.9815    2.1957 H   0  0  0  0  0  0  0  0  0  0  0  0
    3.8750   -2.0968    0.1272 C   0  0  0  0  0  0  0  0  0  0  0  0
    4.8062   -2.5926   -0.1893 H   0  0  0  0  0  0  0  0  0  0  0  0
    2.8958   -1.8228   -0.8369 C   0  0  0  0  0  0  0  0  0  0  0  0
    1.7032   -1.2157   -0.3654 C   0  0  0  0  0  0  0  0  0  0  0  0
    2.4059   -0.6835    3.4045 C   0  0  0  0  0  0  0  0  0  0  0  0
    1.5054   -1.1400    3.8674 H   0  0  0  0  0  0  0  0  0  0  0  0
    2.2808    0.4181    3.4841 H   0  0  0  0  0  0  0  0  0  0  0  0
    3.2841   -0.9692    4.0144 H   0  0  0  0  0  0  0  0  0  0  0  0
    3.0704   -2.1426   -2.2955 C   0  0  0  0  0  0  0  0  0  0  0  0
    4.0397   -2.6400   -2.4899 H   0  0  0  0  0  0  0  0  0  0  0  0
    3.0324   -1.2193   -2.9133 H   0  0  0  0  0  0  0  0  0  0  0  0
    2.2635   -2.8082   -2.6691 H   0  0  0  0  0  0  0  0  0  0  0  0
   -1.9377   -0.0469   -0.3420 C   0  0  2  0  0  0  0  0  0  0  0  0
   -2.0902   -0.0430   -1.4442 H   0  0  0  0  0  0  0  0  0  0  0  0
   -2.3737    1.3322    0.1885 C   0  0  0  0  0  0  0  0  0  0  0  0
   -1.7224    2.1102   -0.2630 H   0  0  0  0  0  0  0  0  0  0  0  0
   -2.1913    1.3760    1.2866 H   0  0  0  0  0  0  0  0  0  0  0  0
   -3.8534    1.6388   -0.0775 C   0  0  1  0  0  0  0  0  0  0  0  0
   -3.9988    1.6426   -1.1837 H   0  0  0  0  0  0  0  0  0  0  0  0
   -4.7302    0.5166    0.4966 C   0  0  0  0  0  0  0  0  0  0  0  0
   -5.7989    0.7098    0.2619 H   0  0  0  0  0  0  0  0  0  0  0  0
   -4.6474    0.5332    1.6077 H   0  0  0  0  0  0  0  0  0  0  0  0
   -4.3120   -0.8610   -0.0249 C   0  0  0  0  0  0  0  0  0  0  0  0
   -4.4895   -0.9016   -1.1223 H   0  0  0  0  0  0  0  0  0  0  0  0
   -4.9558   -1.6457    0.4230 H   0  0  0  0  0  0  0  0  0  0  0  0
   -2.8322   -1.1712    0.2604 C   0  0  1  0  0  0  0  0  0  0  0  0
   -2.6904   -1.1133    1.3659 H   0  0  0  0  0  0  0  0  0  0  0  0
   -4.2491    3.0150    0.4612 C   0  0  0  0  0  0  0  0  0  0  0  0
   -5.3113    3.2467    0.2408 H   0  0  0  0  0  0  0  0  0  0  0  0
   -3.6259    3.8189    0.0193 H   0  0  0  0  0  0  0  0  0  0  0  0
   -4.1187    3.0595    1.5635 H   0  0  0  0  0  0  0  0  0  0  0  0
   -2.3970   -2.6018   -0.1552 C   0  0  0  0  0  0  0  0  0  0  0  0
   -1.3121   -2.6734    0.0805 H   0  0  0  0  0  0  0  0  0  0  0  0
   -3.1015   -3.6783    0.6814 C   0  0  0  0  0  0  0  0  0  0  0  0
   -4.1890   -3.7258    0.4648 H   0  0  0  0  0  0  0  0  0  0  0  0
   -2.9831   -3.4894    1.7684 H   0  0  0  0  0  0  0  0  0  0  0  0
   -2.6828   -4.6825    0.4665 H   0  0  0  0  0  0  0  0  0  0  0  0
   -2.5570   -2.8864   -1.6548 C   0  0  0  0  0  0  0  0  0  0  0  0
   -2.1403   -3.8819   -1.9098 H   0  0  0  0  0  0  0  0  0  0  0  0
   -2.0331   -2.1390   -2.2839 H   0  0  0  0  0  0  0  0  0  0  0  0
   -3.6241   -2.8908   -1.9592 H   0  0  0  0  0  0  0  0  0  0  0  0
  1 13  1  0  0  0  0
  1  3  1  0  0  0  0
  2  1  1  0  0  0  0
  3  4  1  0  0  0  0
  4  5  1  0  0  0  0
  6  4  1  0  0  0  0
  6  7  1  0  0  0  0
  7 14  1  0  0  0  0
  8  7  2  0  0  0  0
  8  9  1  0  0  0  0
 10  8  1  0  0  0  0
 11 10  1  0  0  0  0
 12 13  1  0  0  0  0
 12 10  2  0  0  0  0
 13  6  2  0  0  0  0
 14 16  1  0  0  0  0
 14 15  1  0  0  0  0
 14 17  1  0  0  0  0
 18 12  1  0  0  0  0
 19 18  1  0  0  0  0
 20 18  1  0  0  0  0
 21 18  1  0  0  0  0
 22 23  1  6  0  0  0
 22  3  1  0  0  0  0
 22 24  1  0  0  0  0
 22 35  1  0  0  0  0
 24 26  1  0  0  0  0
 25 24  1  0  0  0  0
 27 28  1  6  0  0  0
 27 24  1  0  0  0  0
 27 37  1  0  0  0  0
 27 29  1  0  0  0  0
 29 31  1  0  0  0  0
 30 29  1  0  0  0  0
 32 35  1  0  0  0  0
 32 34  1  0  0  0  0
 32 29  1  0  0  0  0
 33 32  1  0  0  0  0
 35 36  1  1  0  0  0
 37 40  1  0  0  0  0
 38 37  1  0  0  0  0
 39 37  1  0  0  0  0
 41 42  1  0  0  0  0
 41 35  1  0  0  0  0
 41 43  1  0  0  0  0
 43 45  1  0  0  0  0
 44 43  1  0  0  0  0
 46 43  1  0  0  0  0
 47 41  1  0  0  0  0
 48 47  1  0  0  0  0
 49 47  1  0  0  0  0
 50 47  1  0  0  0  0
M  END
