6,10
 OpenBabel05122313053D

 37 39  0  0  1  0  0  0  0  0999 V2000
    3.9129    4.2793    0.4785 Cl  0  0  0  0  0  0  0  0  0  0  0  0
    2.1389   -2.2573   -0.7762 O   0  0  0  0  0  0  0  0  0  0  0  0
    2.5164   -0.1534    0.1009 N   0  0  0  0  0  0  0  0  0  0  0  0
    3.5595    0.6421   -0.2123 N   0  0  0  0  0  0  0  0  0  0  0  0
   -1.1804    0.6515   -0.0123 C   0  0  0  0  0  0  0  0  0  0  0  0
   -1.9092    1.5199    0.8620 C   0  0  0  0  0  3  0  0  0  0  0  0
   -1.7185    1.6431    1.9352 H   0  0  0  0  0  0  0  0  0  0  0  0
   -2.9228    2.1963    0.0989 C   0  0  0  0  0  3  0  0  0  0  0  0
   -3.6477    2.9225    0.4830 H   0  0  0  0  0  0  0  0  0  0  0  0
   -2.8158    1.7401   -1.2539 C   0  0  0  0  0  3  0  0  0  0  0  0
   -3.4532    2.0565   -2.0886 H   0  0  0  0  0  0  0  0  0  0  0  0
   -1.7427    0.7976   -1.3332 C   0  0  0  0  0  0  0  0  0  0  0  0
   -1.4005    0.2732   -2.2329 H   0  0  0  0  0  0  0  0  0  0  0  0
    1.3086    0.5100    0.0617 C   0  0  0  0  0  0  0  0  0  0  0  0
    1.6047    1.8207   -0.2935 C   0  0  0  0  0  0  0  0  0  0  0  0
    0.8964    2.6472   -0.4095 H   0  0  0  0  0  0  0  0  0  0  0  0
    3.0212    1.8459   -0.4514 C   0  0  0  0  0  0  0  0  0  0  0  0
    0.0108   -0.1872    0.3516 C   0  0  0  0  0  0  0  0  0  0  0  0
   -0.0499   -0.4591    1.4282 H   0  0  0  0  0  0  0  0  0  0  0  0
   -0.0083   -1.1435   -0.2099 H   0  0  0  0  0  0  0  0  0  0  0  0
    3.8976    2.9938   -0.8131 C   0  0  0  0  0  0  0  0  0  0  0  0
    4.9373    2.6428   -0.9440 H   0  0  0  0  0  0  0  0  0  0  0  0
    3.5586    3.5012   -1.7360 H   0  0  0  0  0  0  0  0  0  0  0  0
    2.6869   -1.5715    0.3465 C   0  0  2  0  0  0  0  0  0  0  0  0
    2.0762   -1.8306    1.2501 H   0  0  0  0  0  0  0  0  0  0  0  0
    4.1401   -1.9635    0.5980 C   0  0  0  0  0  0  0  0  0  0  0  0
    4.5259   -1.4130    1.4789 H   0  0  0  0  0  0  0  0  0  0  0  0
    4.7361   -1.6326   -0.2753 H   0  0  0  0  0  0  0  0  0  0  0  0
    4.2291   -3.4839    0.7874 C   0  0  0  0  0  0  0  0  0  0  0  0
    3.7281   -3.7693    1.7401 H   0  0  0  0  0  0  0  0  0  0  0  0
    5.2886   -3.7954    0.8865 H   0  0  0  0  0  0  0  0  0  0  0  0
    3.5494   -4.2115   -0.3800 C   0  0  0  0  0  0  0  0  0  0  0  0
    3.5107   -5.3067   -0.2031 H   0  0  0  0  0  0  0  0  0  0  0  0
    4.1301   -4.0495   -1.3134 H   0  0  0  0  0  0  0  0  0  0  0  0
    2.1345   -3.6720   -0.5850 C   0  0  0  0  0  0  0  0  0  0  0  0
    1.6543   -4.0986   -1.4875 H   0  0  0  0  0  0  0  0  0  0  0  0
    1.4924   -3.9322    0.2949 H   0  0  0  0  0  0  0  0  0  0  0  0
  2 35  1  0  0  0  0
  2 24  1  0  0  0  0
  3 24  1  0  0  0  0
  4  3  1  0  0  0  0
  5 18  1  0  0  0  0
  5  6  1  0  0  0  0
  6  7  1  0  0  0  0
  8  9  1  0  0  0  0
  8  6  1  0  0  0  0
 10  8  1  0  0  0  0
 11 10  1  0  0  0  0
 12 10  1  0  0  0  0
 12  5  2  0  0  0  0
 13 12  1  0  0  0  0
 14  3  1  0  0  0  0
 14 18  1  0  0  0  0
 15 14  2  0  0  0  0
 16 15  1  0  0  0  0
 17 15  1  0  0  0  0
 17  4  2  0  0  0  0
 18 19  1  0  0  0  0
 20 18  1  0  0  0  0
 21 17  1  0  0  0  0
 21  1  1  0  0  0  0
 22 21  1  0  0  0  0
 23 21  1  0  0  0  0
 24 26  1  0  0  0  0
 24 25  1  1  0  0  0
 26 29  1  0  0  0  0
 26 27  1  0  0  0  0
 28 26  1  0  0  0  0
 29 31  1  0  0  0  0
 29 30  1  0  0  0  0
 32 33  1  0  0  0  0
 32 29  1  0  0  0  0
 34 32  1  0  0  0  0
 35 32  1  0  0  0  0
 35 37  1  0  0  0  0
 36 35  1  0  0  0  0
M  END
