1,26
 OpenBabel05122313053D

 26 27  0  0  0  0  0  0  0  0999 V2000
    0.4367    1.3024    0.0002 C   0  0  0  0  0  3  0  0  0  0  0  0
    1.4288    2.0513    0.0003 C   0  0  0  0  0  0  0  0  0  0  0  0
    2.6534    2.7619    0.0002 C   0  0  0  0  0  0  0  0  0  0  0  0
    2.6996    4.1800    0.0003 C   0  0  0  0  0  0  0  0  0  0  0  0
    1.7471    4.7299    0.0003 H   0  0  0  0  0  0  0  0  0  0  0  0
    3.9144    4.8691    0.0002 C   0  0  0  0  0  0  0  0  0  0  0  0
    3.9194    5.9697    0.0003 H   0  0  0  0  0  0  0  0  0  0  0  0
    5.1307    4.1575    0.0001 C   0  0  0  0  0  0  0  0  0  0  0  0
    6.0888    4.6988    0.0001 H   0  0  0  0  0  0  0  0  0  0  0  0
    5.1210    2.7611    0.0001 C   0  0  0  0  0  0  0  0  0  0  0  0
    6.0646    2.1962    0.0000 H   0  0  0  0  0  0  0  0  0  0  0  0
    3.9022    2.0347    0.0001 C   0  0  0  0  0  0  0  0  0  0  0  0
    3.9130    0.6174    0.0001 C   0  0  0  0  0  0  0  0  0  0  0  0
    3.9129   -0.6174    0.0000 C   0  0  0  0  0  0  0  0  0  0  0  0
    3.9021   -2.0347   -0.0001 C   0  0  0  0  0  0  0  0  0  0  0  0
    5.1211   -2.7610   -0.0002 C   0  0  0  0  0  0  0  0  0  0  0  0
    6.0646   -2.1960   -0.0001 H   0  0  0  0  0  0  0  0  0  0  0  0
    5.1308   -4.1574   -0.0003 C   0  0  0  0  0  0  0  0  0  0  0  0
    6.0889   -4.6987   -0.0004 H   0  0  0  0  0  0  0  0  0  0  0  0
    3.9146   -4.8690   -0.0004 C   0  0  0  0  0  0  0  0  0  0  0  0
    3.9196   -5.9697   -0.0005 H   0  0  0  0  0  0  0  0  0  0  0  0
    2.6997   -4.1800   -0.0003 C   0  0  0  0  0  0  0  0  0  0  0  0
    1.7472   -4.7300   -0.0003 H   0  0  0  0  0  0  0  0  0  0  0  0
    2.6534   -2.7619   -0.0002 C   0  0  0  0  0  0  0  0  0  0  0  0
    1.4287   -2.0514   -0.0001 C   0  0  0  0  0  0  0  0  0  0  0  0
    0.4366   -1.3026   -0.0000 C   0  0  0  0  0  3  0  0  0  0  0  0
  1  2  3  0  0  0  0
  3  2  1  0  0  0  0
  3  4  1  0  0  0  0
  4  5  1  0  0  0  0
  6  4  2  0  0  0  0
  6  7  1  0  0  0  0
  8  6  1  0  0  0  0
  9  8  1  0  0  0  0
 10 12  1  0  0  0  0
 10  8  2  0  0  0  0
 11 10  1  0  0  0  0
 12  3  2  0  0  0  0
 13 12  1  0  0  0  0
 14 13  3  0  0  0  0
 15 14  1  0  0  0  0
 16 17  1  0  0  0  0
 16 15  2  0  0  0  0
 18 16  1  0  0  0  0
 19 18  1  0  0  0  0
 20 18  2  0  0  0  0
 20 22  1  0  0  0  0
 21 20  1  0  0  0  0
 22 24  2  0  0  0  0
 23 22  1  0  0  0  0
 24 15  1  0  0  0  0
 24 25  1  0  0  0  0
 25 26  3  0  0  0  0
M  END
