4,8
 OpenBabel05122313053D

 21 22  0  0  0  0  0  0  0  0999 V2000
   -4.7322   -2.3162    0.0000 Cl  0  0  0  0  0  0  0  0  0  0  0  0
   -1.0871    2.3444    0.0001 N   0  0  0  0  0  0  0  0  0  0  0  0
    0.9451    3.1178   -0.0002 N   0  0  0  0  0  0  0  0  0  0  0  0
    0.2359    1.9429    0.0000 C   0  0  0  0  0  2  0  0  0  0  0  0
    0.0828    4.2138   -0.0002 C   0  0  0  0  0  0  0  0  0  0  0  0
   -1.1986    3.7229   -0.0001 C   0  0  0  0  0  0  0  0  0  0  0  0
   -2.0485    1.3034    0.0001 C   0  0  0  0  0  0  0  0  0  0  0  0
   -1.4366    0.0232   -0.0000 C   0  0  0  0  0  3  0  0  0  0  0  0
   -2.2892   -1.0942   -0.0000 C   0  0  0  0  0  0  0  0  0  0  0  0
   -3.6833   -0.9109    0.0001 C   0  0  0  0  0  0  0  0  0  0  0  0
   -4.2678    0.3676    0.0002 C   0  0  0  0  0  0  0  0  0  0  0  0
   -3.4336    1.4970    0.0002 C   0  0  0  0  0  0  0  0  0  0  0  0
    2.3918    3.2081   -0.0001 C   0  0  0  0  0  0  0  0  0  0  0  0
    0.4529    5.2431   -0.0004 H   0  0  0  0  0  0  0  0  0  0  0  0
   -2.1599    4.2431   -0.0002 H   0  0  0  0  0  0  0  0  0  0  0  0
   -1.8609   -2.1067   -0.0001 H   0  0  0  0  0  0  0  0  0  0  0  0
   -5.3610    0.4722    0.0003 H   0  0  0  0  0  0  0  0  0  0  0  0
   -3.8759    2.5048    0.0004 H   0  0  0  0  0  0  0  0  0  0  0  0
    2.8106    2.7223    0.9042 H   0  0  0  0  0  0  0  0  0  0  0  0
    2.6907    4.2717   -0.0002 H   0  0  0  0  0  0  0  0  0  0  0  0
    2.8107    2.7222   -0.9043 H   0  0  0  0  0  0  0  0  0  0  0  0
  1 10  1  0  0  0  0
  2  7  1  0  0  0  0
  3 13  1  0  0  0  0
  3  4  1  0  0  0  0
  4  2  1  0  0  0  0
  5  3  1  0  0  0  0
  5  6  2  0  0  0  0
  6  2  1  0  0  0  0
  7 12  1  0  0  0  0
  8  7  2  0  0  0  0
  9  8  1  0  0  0  0
  9 10  2  0  0  0  0
 10 11  1  0  0  0  0
 11 12  2  0  0  0  0
 11 17  1  0  0  0  0
 12 18  1  0  0  0  0
 13 19  1  0  0  0  0
 14  5  1  0  0  0  0
 15  6  1  0  0  0  0
 16  9  1  0  0  0  0
 20 13  1  0  0  0  0
 21 13  1  0  0  0  0
M  END
