6,14
 OpenBabel05122313053D

 26 28  0  0  0  0  0  0  0  0999 V2000
    5.6607   -2.1347   -0.5867 O   0  0  0  0  0  0  0  0  0  0  0  0
    5.2300   -0.0211   -0.9313 O   0  0  0  0  0  0  0  0  0  0  0  0
   -0.5947   -2.0041    0.2176 N   0  0  0  0  0  0  0  0  0  0  0  0
   -2.6095   -1.2078    0.1502 N   0  0  0  0  0  0  0  0  0  0  0  0
    4.8897   -1.1763   -0.6677 N   0  0  0  0  0  0  0  0  0  0  0  0
   -1.2924   -0.8272    0.0445 C   0  0  0  0  0  2  0  0  0  0  0  0
   -3.7316   -0.4193   -0.0283 C   0  0  0  0  0  0  0  0  0  0  0  0
   -4.9776   -0.9711    0.1135 C   0  0  0  0  0  0  0  0  0  0  0  0
   -5.1267   -2.3646    0.4346 C   0  0  0  0  0  0  0  0  0  0  0  0
   -4.0165   -3.1691    0.5771 C   0  0  0  0  0  0  0  0  0  0  0  0
   -2.7168   -2.6063    0.4194 C   0  0  0  0  0  0  0  0  0  0  0  0
   -1.4184   -3.0906    0.4562 C   0  0  0  0  0  0  0  0  0  0  0  0
    0.7959   -1.8885    0.0373 C   0  0  0  0  0  0  0  0  0  0  0  0
    1.1771   -0.5597   -0.3056 C   0  0  0  0  0  3  0  0  0  0  0  0
    2.5465   -0.3648   -0.5600 C   0  0  0  0  0  0  0  0  0  0  0  0
    3.4507   -1.4303   -0.4233 C   0  0  0  0  0  0  0  0  0  0  0  0
    3.0519   -2.7277   -0.0657 C   0  0  0  0  0  0  0  0  0  0  0  0
    1.6921   -2.9612    0.1615 C   0  0  0  0  0  0  0  0  0  0  0  0
   -3.5190    0.6203   -0.3063 H   0  0  0  0  0  0  0  0  0  0  0  0
   -5.8606   -0.3362   -0.0385 H   0  0  0  0  0  0  0  0  0  0  0  0
   -6.1341   -2.7892    0.5500 H   0  0  0  0  0  0  0  0  0  0  0  0
   -4.1037   -4.2416    0.8003 H   0  0  0  0  0  0  0  0  0  0  0  0
   -1.0462   -4.1036    0.6224 H   0  0  0  0  0  0  0  0  0  0  0  0
    2.9480    0.6045   -0.8815 H   0  0  0  0  0  0  0  0  0  0  0  0
    3.8075   -3.5184    0.0181 H   0  0  0  0  0  0  0  0  0  0  0  0
    1.3413   -3.9689    0.4282 H   0  0  0  0  0  0  0  0  0  0  0  0
  2  5  2  0  0  0  0
  3 12  1  0  0  0  0
  4 11  1  0  0  0  0
  5  1  2  0  0  0  0
  5 16  1  0  0  0  0
  6  4  1  0  0  0  0
  6  3  1  0  0  0  0
  7  8  2  0  0  0  0
  7  4  1  0  0  0  0
  8  9  1  0  0  0  0
  9 21  1  0  0  0  0
  9 10  2  0  0  0  0
 10 22  1  0  0  0  0
 11 12  2  0  0  0  0
 11 10  1  0  0  0  0
 12 23  1  0  0  0  0
 13 18  1  0  0  0  0
 13  3  1  0  0  0  0
 14 13  2  0  0  0  0
 15 16  2  0  0  0  0
 15 14  1  0  0  0  0
 16 17  1  0  0  0  0
 17 25  1  0  0  0  0
 17 18  2  0  0  0  0
 18 26  1  0  0  0  0
 19  7  1  0  0  0  0
 20  8  1  0  0  0  0
 24 15  1  0  0  0  0
M  END
