30,33
 OpenBabel05122313053D

 44 48  0  0  1  0  0  0  0  0999 V2000
   -1.6942   -1.4159    1.0228 O   0  0  0  0  0  0  0  0  0  0  0  0
   -1.8511   -2.3246    0.7034 H   0  0  0  0  0  0  0  0  0  0  0  0
    2.2723    1.8722   -1.8490 O   0  0  0  0  0  0  0  0  0  0  0  0
   -0.3323    2.7879   -0.7428 O   0  0  0  0  0  0  0  0  0  0  0  0
   -1.4436    1.3011    1.7601 C   0  0  0  0  0  0  0  0  0  0  0  0
   -1.7541    0.4321    2.3728 H   0  0  0  0  0  0  0  0  0  0  0  0
   -0.4116    1.5666    2.0608 H   0  0  0  0  0  0  0  0  0  0  0  0
   -2.4390    2.4611    1.8990 C   0  0  0  0  0  0  0  0  0  0  0  0
   -2.7029    2.6785    2.9541 H   0  0  0  0  0  0  0  0  0  0  0  0
   -1.9974    3.3811    1.4623 H   0  0  0  0  0  0  0  0  0  0  0  0
   -3.6308    2.0023    1.0483 C   0  0  0  0  0  0  0  0  0  0  0  0
   -4.3368    2.8205    0.8016 H   0  0  0  0  0  0  0  0  0  0  0  0
   -4.2029    1.2282    1.6006 H   0  0  0  0  0  0  0  0  0  0  0  0
   -2.9668    1.3925   -0.2037 C   0  0  2  0  0  0  0  0  0  0  0  0
   -2.8148    2.2037   -0.9450 H   0  0  0  0  0  0  0  0  0  0  0  0
   -3.6245    0.1798   -0.8961 C   0  0  2  0  0  0  0  0  0  0  0  0
   -4.1607    0.4946   -1.8170 H   0  0  0  0  0  0  0  0  0  0  0  0
   -4.5628   -0.7299   -0.0817 C   0  0  0  0  0  0  0  0  0  0  0  0
   -4.1382   -0.8955    0.9296 H   0  0  0  0  0  0  0  0  0  0  0  0
   -5.5813   -0.3107    0.0424 H   0  0  0  0  0  0  0  0  0  0  0  0
   -4.5469   -2.0455   -0.8775 C   0  0  0  0  0  0  0  0  0  0  0  0
   -4.8805   -2.9187   -0.2816 H   0  0  0  0  0  0  0  0  0  0  0  0
   -5.2401   -1.9654   -1.7408 H   0  0  0  0  0  0  0  0  0  0  0  0
   -3.0911   -2.1878   -1.4027 C   0  0  0  0  0  0  0  0  0  0  0  0
   -3.0658   -2.5417   -2.4516 H   0  0  0  0  0  0  0  0  0  0  0  0
   -2.5250   -2.9592   -0.8314 H   0  0  0  0  0  0  0  0  0  0  0  0
   -2.4636   -0.7809   -1.2657 C   0  0  2  0  0  0  0  0  0  0  0  0
   -1.9658   -0.4609   -2.2034 H   0  0  0  0  0  0  0  0  0  0  0  0
   -1.4234   -0.6012   -0.0985 C   0  0  2  0  0  0  0  0  0  0  0  0
   -0.0045   -0.7560   -0.6355 C   0  0  1  0  0  3  0  0  0  0  0  0
    0.7179   -1.9496   -0.8847 C   0  0  0  0  0  3  0  0  0  0  0  0
    0.3222   -2.9317   -0.5934 H   0  0  0  0  0  0  0  0  0  0  0  0
    2.0307   -1.8284   -1.4183 C   0  0  0  0  0  3  0  0  0  0  0  0
    2.6463   -2.7285   -1.5583 H   0  0  0  0  0  0  0  0  0  0  0  0
    2.5844   -0.5585   -1.7766 C   0  0  0  0  0  3  0  0  0  0  0  0
    3.6063   -0.5151   -2.1704 H   0  0  0  0  0  0  0  0  0  0  0  0
    1.8358    0.6366   -1.5623 C   0  0  0  0  0  0  0  0  0  0  0  0
    0.5381    0.5246   -0.9568 C   0  0  0  0  0  0  0  0  0  0  0  0
   -0.4102    1.5902   -0.5229 C   0  0  0  0  0  0  0  0  0  0  0  0
   -1.5489    0.9075    0.2604 C   0  0  2  0  0  0  0  0  0  0  0  0
    3.6372    2.0500   -2.2088 C   0  0  0  0  0  0  0  0  0  0  0  0
    3.7825    3.1390   -2.3225 H   0  0  0  0  0  0  0  0  0  0  0  0
    3.8765    1.5477   -3.1711 H   0  0  0  0  0  0  0  0  0  0  0  0
    4.3113    1.6710   -1.4111 H   0  0  0  0  0  0  0  0  0  0  0  0
  2  1  1  0  0  0  0
  3 37  1  0  0  0  0
  4 39  2  0  0  0  0
  5  8  1  0  0  0  0
  5  7  1  0  0  0  0
  5  6  1  0  0  0  0
  8  9  1  0  0  0  0
 10  8  1  0  0  0  0
 11 13  1  0  0  0  0
 11  8  1  0  0  0  0
 12 11  1  0  0  0  0
 14 15  1  6  0  0  0
 14 40  1  0  0  0  0
 14 11  1  0  0  0  0
 16 17  1  6  0  0  0
 16 14  1  0  0  0  0
 16 18  1  0  0  0  0
 18 20  1  0  0  0  0
 18 19  1  0  0  0  0
 21 22  1  0  0  0  0
 21 18  1  0  0  0  0
 23 21  1  0  0  0  0
 24 27  1  0  0  0  0
 24 21  1  0  0  0  0
 24 26  1  0  0  0  0
 25 24  1  0  0  0  0
 27 28  1  6  0  0  0
 27 16  1  0  0  0  0
 27 29  1  0  0  0  0
 29 40  1  0  0  0  0
 29  1  1  1  0  0  0
 30 38  1  6  0  0  0
 30 29  1  0  0  0  0
 31 30  1  0  0  0  0
 31 32  1  0  0  0  0
 33 31  1  0  0  0  0
 34 33  1  0  0  0  0
 35 37  1  0  0  0  0
 35 33  1  0  0  0  0
 36 35  1  0  0  0  0
 37 38  2  0  0  0  0
 38 39  1  0  0  0  0
 40 39  1  6  0  0  0
 40  5  1  0  0  0  0
 41  3  1  0  0  0  0
 41 44  1  0  0  0  0
 42 41  1  0  0  0  0
 43 41  1  0  0  0  0
M  END
