5,13
 OpenBabel05122313053D

 45 48  0  0  0  0  0  0  0  0999 V2000
   -1.2833    2.2233    1.3738 N   0  0  0  0  0  0  0  0  0  0  0  0
   -1.2332    0.5164    2.7051 N   0  0  0  0  0  0  0  0  0  0  0  0
    0.0232   -1.4856    2.4680 N   0  0  0  0  0  0  0  0  0  0  0  0
    1.4142   -1.9800    0.8848 N   0  0  0  0  0  0  0  0  0  0  0  0
   -1.2752    0.8565    1.3710 C   0  0  0  0  0  2  0  0  0  0  0  0
   -1.2389    2.7169    2.6727 C   0  0  0  0  0  0  0  0  0  0  0  0
   -1.2539    3.7901    2.8837 H   0  0  0  0  0  0  0  0  0  0  0  0
   -1.2000    1.6414    3.5205 C   0  0  0  0  0  0  0  0  0  0  0  0
   -1.1807    1.5851    4.6128 H   0  0  0  0  0  0  0  0  0  0  0  0
   -1.1362   -0.8790    3.0998 C   0  0  0  0  0  0  0  0  0  0  0  0
   -1.0352   -0.9465    4.1980 H   0  0  0  0  0  0  0  0  0  0  0  0
   -2.0502   -1.4101    2.7662 H   0  0  0  0  0  0  0  0  0  0  0  0
    0.1936   -1.4064    1.1031 C   0  0  0  0  0  2  0  0  0  0  0  0
    1.1134   -2.0888    3.0855 C   0  0  0  0  0  0  0  0  0  0  0  0
    1.1664   -2.2570    4.1652 H   0  0  0  0  0  0  0  0  0  0  0  0
    1.9860   -2.4052    2.0802 C   0  0  0  0  0  0  0  0  0  0  0  0
    2.9714   -2.8789    2.1094 H   0  0  0  0  0  0  0  0  0  0  0  0
   -1.2643    3.0672    0.1664 C   0  0  0  0  0  0  0  0  0  0  0  0
   -2.0273    2.6467   -0.5206 H   0  0  0  0  0  0  0  0  0  0  0  0
   -1.5838    4.0775    0.4879 H   0  0  0  0  0  0  0  0  0  0  0  0
    0.0906    3.1169   -0.5079 C   0  0  0  0  0  0  0  0  0  0  0  0
    0.3166    2.3738   -1.6837 C   0  0  0  0  0  0  0  0  0  0  0  0
   -0.4983    1.7549   -2.0914 H   0  0  0  0  0  0  0  0  0  0  0  0
    1.5662    2.4233   -2.3206 C   0  0  0  0  0  0  0  0  0  0  0  0
    1.7326    1.8353   -3.2356 H   0  0  0  0  0  0  0  0  0  0  0  0
    2.5979    3.2149   -1.7935 C   0  0  0  0  0  0  0  0  0  0  0  0
    3.5771    3.2503   -2.2944 H   0  0  0  0  0  0  0  0  0  0  0  0
    2.3806    3.9558   -0.6197 C   0  0  0  0  0  0  0  0  0  0  0  0
    3.1843    4.5844   -0.2058 H   0  0  0  0  0  0  0  0  0  0  0  0
    1.1331    3.9039    0.0202 C   0  0  0  0  0  0  0  0  0  0  0  0
    0.9634    4.4943    0.9357 H   0  0  0  0  0  0  0  0  0  0  0  0
    2.1269   -2.0193   -0.3970 C   0  0  0  0  0  0  0  0  0  0  0  0
    1.3997   -1.6805   -1.1639 H   0  0  0  0  0  0  0  0  0  0  0  0
    2.3646   -3.0752   -0.6331 H   0  0  0  0  0  0  0  0  0  0  0  0
    3.3810   -1.1756   -0.3520 C   0  0  0  0  0  0  0  0  0  0  0  0
    4.6364   -1.7399   -0.6463 C   0  0  0  0  0  0  0  0  0  0  0  0
    4.6996   -2.8050   -0.9216 H   0  0  0  0  0  0  0  0  0  0  0  0
    5.8020   -0.9588   -0.5946 C   0  0  0  0  0  0  0  0  0  0  0  0
    6.7766   -1.4127   -0.8303 H   0  0  0  0  0  0  0  0  0  0  0  0
    5.7222    0.3947   -0.2344 C   0  0  0  0  0  0  0  0  0  0  0  0
    6.6350    1.0079   -0.1847 H   0  0  0  0  0  0  0  0  0  0  0  0
    4.4722    0.9653    0.0594 C   0  0  0  0  0  0  0  0  0  0  0  0
    4.3974    2.0285    0.3306 H   0  0  0  0  0  0  0  0  0  0  0  0
    3.3073    0.1891   -0.0051 C   0  0  0  0  0  0  0  0  0  0  0  0
    2.3274    0.6464    0.2076 H   0  0  0  0  0  0  0  0  0  0  0  0
  1  6  1  0  0  0  0
  2 10  1  0  0  0  0
  2  8  1  0  0  0  0
  3 14  1  0  0  0  0
  3 10  1  0  0  0  0
  4 13  1  0  0  0  0
  4 16  1  0  0  0  0
  5  1  1  0  0  0  0
  5  2  1  0  0  0  0
  6  7  1  0  0  0  0
  6  8  2  0  0  0  0
  8  9  1  0  0  0  0
 10 11  1  0  0  0  0
 12 10  1  0  0  0  0
 13  3  1  0  0  0  0
 14 15  1  0  0  0  0
 16 17  1  0  0  0  0
 16 14  2  0  0  0  0
 18 20  1  0  0  0  0
 18  1  1  0  0  0  0
 19 18  1  0  0  0  0
 21 30  1  0  0  0  0
 21 18  1  0  0  0  0
 22 21  2  0  0  0  0
 23 22  1  0  0  0  0
 24 26  2  0  0  0  0
 24 22  1  0  0  0  0
 25 24  1  0  0  0  0
 26 28  1  0  0  0  0
 27 26  1  0  0  0  0
 28 29  1  0  0  0  0
 28 30  2  0  0  0  0
 30 31  1  0  0  0  0
 32 35  1  0  0  0  0
 32  4  1  0  0  0  0
 33 32  1  0  0  0  0
 34 32  1  0  0  0  0
 35 44  1  0  0  0  0
 36 38  1  0  0  0  0
 36 35  2  0  0  0  0
 37 36  1  0  0  0  0
 38 40  2  0  0  0  0
 39 38  1  0  0  0  0
 40 41  1  0  0  0  0
 40 42  1  0  0  0  0
 42 43  1  0  0  0  0
 44 42  2  0  0  0  0
 44 45  1  0  0  0  0
M  END
