4,16
 OpenBabel05122313053D

 34 37  0  0  0  0  0  0  0  0999 V2000
    3.2591    2.6583    0.7555 S   0  0  0  0  0  0  0  0  0  0  0  0
    0.6511    1.8779   -0.0340 N   0  0  0  0  0  0  0  0  0  0  0  0
   -1.3138    1.2434   -0.7806 N   0  0  0  0  0  0  0  0  0  0  0  0
   -0.0664    0.7683   -0.4496 C   0  0  0  0  0  2  0  0  0  0  0  0
   -0.1214    3.0315   -0.0766 C   0  0  0  0  0  0  0  0  0  0  0  0
    0.1436    4.3712    0.2379 C   0  0  0  0  0  0  0  0  0  0  0  0
    1.1337    4.6898    0.5921 H   0  0  0  0  0  0  0  0  0  0  0  0
   -0.9101    5.2855    0.0783 C   0  0  0  0  0  0  0  0  0  0  0  0
   -0.7395    6.3458    0.3159 H   0  0  0  0  0  0  0  0  0  0  0  0
   -2.1820    4.8744   -0.3766 C   0  0  0  0  0  0  0  0  0  0  0  0
   -2.9839    5.6197   -0.4822 H   0  0  0  0  0  0  0  0  0  0  0  0
   -2.4480    3.5323   -0.6964 C   0  0  0  0  0  0  0  0  0  0  0  0
   -3.4415    3.2134   -1.0415 H   0  0  0  0  0  0  0  0  0  0  0  0
   -1.3973    2.6188   -0.5492 C   0  0  0  0  0  0  0  0  0  0  0  0
    1.9955    1.5944    0.2185 C   0  0  0  0  0  0  0  0  0  0  0  0
    2.3821    0.2805   -0.0030 C   0  0  0  0  0  3  0  0  0  0  0  0
    3.7859    0.1514    0.2657 C   0  0  0  0  0  0  0  0  0  0  0  0
    4.3580   -0.7784    0.1379 H   0  0  0  0  0  0  0  0  0  0  0  0
    4.3858    1.3283    0.6831 C   0  0  0  0  0  0  0  0  0  0  0  0
    5.4348    1.5111    0.9459 H   0  0  0  0  0  0  0  0  0  0  0  0
   -2.3778    0.4172   -1.3086 C   0  0  0  0  0  0  0  0  0  0  0  0
   -1.8881   -0.3987   -1.8791 H   0  0  0  0  0  0  0  0  0  0  0  0
   -2.9518    1.0221   -2.0418 H   0  0  0  0  0  0  0  0  0  0  0  0
   -3.3081   -0.1580   -0.2552 C   0  0  0  0  0  0  0  0  0  0  0  0
   -3.2066    0.1949    1.1027 C   0  0  0  0  0  0  0  0  0  0  0  0
   -2.4407    0.9172    1.4218 H   0  0  0  0  0  0  0  0  0  0  0  0
   -4.0670   -0.3773    2.0540 C   0  0  0  0  0  0  0  0  0  0  0  0
   -3.9727   -0.0914    3.1127 H   0  0  0  0  0  0  0  0  0  0  0  0
   -5.0392   -1.3082    1.6594 C   0  0  0  0  0  0  0  0  0  0  0  0
   -5.7109   -1.7588    2.4054 H   0  0  0  0  0  0  0  0  0  0  0  0
   -5.1502   -1.6617    0.3043 C   0  0  0  0  0  0  0  0  0  0  0  0
   -5.9096   -2.3914   -0.0153 H   0  0  0  0  0  0  0  0  0  0  0  0
   -4.2913   -1.0897   -0.6447 C   0  0  0  0  0  0  0  0  0  0  0  0
   -4.3795   -1.3746   -1.7059 H   0  0  0  0  0  0  0  0  0  0  0  0
  2 15  1  0  0  0  0
  3 14  1  0  0  0  0
  3  4  1  0  0  0  0
  4  2  1  0  0  0  0
  5  2  1  0  0  0  0
  5  6  1  0  0  0  0
  6  7  1  0  0  0  0
  8  6  2  0  0  0  0
  8  9  1  0  0  0  0
 10  8  1  0  0  0  0
 11 10  1  0  0  0  0
 12 14  1  0  0  0  0
 12 10  2  0  0  0  0
 13 12  1  0  0  0  0
 14  5  2  0  0  0  0
 15  1  1  0  0  0  0
 16 15  2  0  0  0  0
 16 17  1  0  0  0  0
 17 19  2  0  0  0  0
 18 17  1  0  0  0  0
 19  1  1  0  0  0  0
 19 20  1  0  0  0  0
 21  3  1  0  0  0  0
 21 24  1  0  0  0  0
 22 21  1  0  0  0  0
 23 21  1  0  0  0  0
 24 25  1  0  0  0  0
 25 26  1  0  0  0  0
 25 27  2  0  0  0  0
 27 28  1  0  0  0  0
 29 27  1  0  0  0  0
 29 30  1  0  0  0  0
 31 29  2  0  0  0  0
 32 31  1  0  0  0  0
 33 24  2  0  0  0  0
 33 31  1  0  0  0  0
 34 33  1  0  0  0  0
M  END
