1,5
q = -2.0, confidence = 0.688

 39 40  0  0  1  0  0  0  0  0999 V2000
    1.2670    0.0831   -0.3639 C   0  0  0  0  0  2  0  0  0  0  0  0
    1.4315    1.4583   -0.3139 C   0  0  1  0  0  3  0  0  0  0  0  0
    0.2075    2.2367   -0.3247 C   0  0  0  0  0  0  0  0  0  0  0  0
    0.2391    3.3365   -0.2553 H   0  0  0  0  0  0  0  0  0  0  0  0
   -0.9601    1.5182   -0.3301 C   0  0  0  0  0  3  0  0  0  0  0  0
    2.3793   -0.8692   -0.4949 C   0  0  0  0  0  0  0  0  0  0  0  0
    3.3720   -0.6701   -1.4886 C   0  0  0  0  0  0  0  0  0  0  0  0
    3.3029    0.2151   -2.1373 H   0  0  0  0  0  0  0  0  0  0  0  0
    4.4367   -1.5695   -1.6320 C   0  0  0  0  0  0  0  0  0  0  0  0
    5.1936   -1.3944   -2.4124 H   0  0  0  0  0  0  0  0  0  0  0  0
    4.5474   -2.6831   -0.7832 C   0  0  0  0  0  0  0  0  0  0  0  0
    5.3879   -3.3852   -0.8935 H   0  0  0  0  0  0  0  0  0  0  0  0
    3.5677   -2.8968    0.2015 C   0  0  0  0  0  0  0  0  0  0  0  0
    3.6388   -3.7712    0.8677 H   0  0  0  0  0  0  0  0  0  0  0  0
    2.4881   -2.0144    0.3306 C   0  0  0  0  0  0  0  0  0  0  0  0
    1.6972   -2.2080    1.0671 H   0  0  0  0  0  0  0  0  0  0  0  0
    3.7622    0.9468    2.1652 C   0  0  0  0  0  0  0  0  0  0  0  0
    3.7909    1.8438    2.8196 H   0  0  0  0  0  0  0  0  0  0  0  0
    4.5627    0.2418    2.4609 H   0  0  0  0  0  0  0  0  0  0  0  0
    2.7759    0.4471    2.2885 H   0  0  0  0  0  0  0  0  0  0  0  0
    4.9294    3.3596   -1.2830 C   0  0  0  0  0  0  0  0  0  0  0  0
    4.8121    4.2437   -0.6216 H   0  0  0  0  0  0  0  0  0  0  0  0
    5.1416    3.6971   -2.3155 H   0  0  0  0  0  0  0  0  0  0  0  0
    5.7748    2.7404   -0.9148 H   0  0  0  0  0  0  0  0  0  0  0  0
   -2.2725    2.1822   -0.3460 C   0  0  0  0  0  0  0  0  0  0  0  0
   -3.3677    1.7079    0.4191 C   0  0  0  0  0  0  0  0  0  0  0  0
   -3.2246    0.8219    1.0525 H   0  0  0  0  0  0  0  0  0  0  0  0
   -4.6082    2.3598    0.3896 C   0  0  0  0  0  0  0  0  0  0  0  0
   -5.4387    1.9733    1.0016 H   0  0  0  0  0  0  0  0  0  0  0  0
   -4.7992    3.4967   -0.4138 C   0  0  0  0  0  0  0  0  0  0  0  0
   -5.7778    3.9993   -0.4464 H   0  0  0  0  0  0  0  0  0  0  0  0
   -3.7248    3.9820   -1.1787 C   0  0  0  0  0  0  0  0  0  0  0  0
   -3.8604    4.8683   -1.8181 H   0  0  0  0  0  0  0  0  0  0  0  0
   -2.4820    3.3366   -1.1457 C   0  0  0  0  0  0  0  0  0  0  0  0
   -1.6526    3.7069   -1.7671 H   0  0  0  0  0  0  0  0  0  0  0  0
    2.6802    3.5846    0.9217 O   0  0  0  0  0  0  0  0  0  0  0  0
    3.7210    2.5921   -1.3250 O   0  0  0  0  0  0  0  0  0  0  0  0
    3.9977    1.2996    0.8031 O   0  0  0  0  0  0  0  0  0  0  0  0
    2.9372    2.3463    0.0960 P   0  0  0  0  0  0  0  0  0  0  0  0
  2  1  1  1  0  0  0
  2 39  1  0  0  0  0
  3  2  1  0  0  0  0
  3  4  1  0  0  0  0
  5  3  2  0  0  0  0
  6  1  1  0  0  0  0
  6 15  1  0  0  0  0
  7  6  2  0  0  0  0
  8  7  1  0  0  0  0
  9  7  1  0  0  0  0
  9 11  2  0  0  0  0
 10  9  1  0  0  0  0
 11 13  1  0  0  0  0
 12 11  1  0  0  0  0
 13 15  2  0  0  0  0
 13 14  1  0  0  0  0
 15 16  1  0  0  0  0
 17 20  1  0  0  0  0
 17 19  1  0  0  0  0
 17 18  1  0  0  0  0
 21 24  1  0  0  0  0
 21 22  1  0  0  0  0
 23 21  1  0  0  0  0
 25  5  1  0  0  0  0
 25 26  1  0  0  0  0
 26 27  1  0  0  0  0
 28 26  2  0  0  0  0
 28 29  1  0  0  0  0
 30 28  1  0  0  0  0
 31 30  1  0  0  0  0
 32 34  1  0  0  0  0
 32 30  2  0  0  0  0
 33 32  1  0  0  0  0
 34 25  2  0  0  0  0
 35 34  1  0  0  0  0
 37 21  1  0  0  0  0
 37 39  1  0  0  0  0
 38 17  1  0  0  0  0
 39 38  1  0  0  0  0
 39 36  2  0  0  0  0
M  END
