5,42
 OpenBabel05122313053D

 81 87  0  0  1  0  0  0  0  0999 V2000
    2.7830   -1.1303   -0.0914 N   0  0  0  0  0  0  0  0  0  0  0  0
    2.8595    0.8147    0.9189 N   0  0  0  0  0  0  0  0  0  0  0  0
   -2.6795    1.3739   -0.0430 N   0  0  0  0  0  0  0  0  0  0  0  0
   -2.9417   -0.7978    0.1006 N   0  0  0  0  0  0  0  0  0  0  0  0
    2.0069   -0.1203    0.3975 C   0  0  0  0  0  2  0  0  0  0  0  0
    4.1391   -0.8457    0.0964 C   0  0  0  0  0  0  0  0  0  0  0  0
    5.3218   -1.5373   -0.2118 C   0  0  0  0  0  0  0  0  0  0  0  0
    5.3043   -2.5153   -0.7090 H   0  0  0  0  0  0  0  0  0  0  0  0
    6.5366   -0.9291    0.1369 C   0  0  0  0  0  0  0  0  0  0  0  0
    7.4789   -1.4457   -0.0967 H   0  0  0  0  0  0  0  0  0  0  0  0
    6.5778    0.3290    0.7763 C   0  0  0  0  0  0  0  0  0  0  0  0
    7.5504    0.7750    1.0302 H   0  0  0  0  0  0  0  0  0  0  0  0
    5.4007    1.0233    1.0912 C   0  0  0  0  0  0  0  0  0  0  0  0
    5.4341    2.0047    1.5847 H   0  0  0  0  0  0  0  0  0  0  0  0
    4.1866    0.4155    0.7429 C   0  0  0  0  0  0  0  0  0  0  0  0
    2.4590    2.0183    1.6407 C   0  0  0  0  0  0  0  0  0  0  0  0
    3.1968    2.1629    2.4539 H   0  0  0  0  0  0  0  0  0  0  0  0
    1.4914    1.7874    2.1316 H   0  0  0  0  0  0  0  0  0  0  0  0
    2.3967    3.2881    0.7749 C   0  0  0  0  0  0  0  0  0  0  0  0
    2.5791    4.1763    1.4161 H   0  0  0  0  0  0  0  0  0  0  0  0
    3.2135    3.2648    0.0251 H   0  0  0  0  0  0  0  0  0  0  0  0
    1.0751    3.4749    0.0361 C   0  0  1  0  0  0  0  0  0  0  0  0
    0.8075    2.5458   -0.5161 H   0  0  0  0  0  0  0  0  0  0  0  0
   -0.1009    4.0013    0.9055 C   0  0  2  0  0  0  0  0  0  0  0  0
    0.2752    4.3519    1.8914 H   0  0  0  0  0  0  0  0  0  0  0  0
   -1.2749    3.0613    1.1226 C   0  0  0  0  0  0  0  0  0  0  0  0
   -1.9861    3.5218    1.8379 H   0  0  0  0  0  0  0  0  0  0  0  0
   -0.8782    2.1469    1.6169 H   0  0  0  0  0  0  0  0  0  0  0  0
   -1.9953    2.6580   -0.1717 C   0  0  0  0  0  0  0  0  0  0  0  0
   -2.7386    3.4197   -0.4703 H   0  0  0  0  0  0  0  0  0  0  0  0
   -1.2809    2.5505   -1.0154 H   0  0  0  0  0  0  0  0  0  0  0  0
   -4.0548    1.1486   -0.1087 C   0  0  0  0  0  0  0  0  0  0  0  0
   -5.1463    2.0183   -0.2403 C   0  0  0  0  0  0  0  0  0  0  0  0
   -5.0104    3.1065   -0.3128 H   0  0  0  0  0  0  0  0  0  0  0  0
   -6.4239    1.4423   -0.2766 C   0  0  0  0  0  0  0  0  0  0  0  0
   -7.3042    2.0936   -0.3791 H   0  0  0  0  0  0  0  0  0  0  0  0
   -6.6014    0.0443   -0.1851 C   0  0  0  0  0  0  0  0  0  0  0  0
   -7.6185   -0.3730   -0.2169 H   0  0  0  0  0  0  0  0  0  0  0  0
   -5.5107   -0.8273   -0.0547 C   0  0  0  0  0  0  0  0  0  0  0  0
   -5.6619   -1.9119    0.0159 H   0  0  0  0  0  0  0  0  0  0  0  0
   -4.2275   -0.2580   -0.0172 C   0  0  0  0  0  0  0  0  0  0  0  0
   -2.0073    0.1927    0.0879 C   0  0  0  0  0  2  0  0  0  0  0  0
    2.1959   -2.3571   -0.6486 C   0  0  0  0  0  0  0  0  0  0  0  0
    1.1028   -2.1522   -0.6200 H   0  0  0  0  0  0  0  0  0  0  0  0
    2.4705   -3.5754    0.2452 C   0  0  0  0  0  0  0  0  0  0  0  0
    2.1356   -3.3488    1.2787 H   0  0  0  0  0  0  0  0  0  0  0  0
    3.5637   -3.7713    0.2944 H   0  0  0  0  0  0  0  0  0  0  0  0
    1.7494   -4.8119   -0.3065 C   0  0  0  0  0  0  0  0  0  0  0  0
    1.9887   -5.6990    0.3155 H   0  0  0  0  0  0  0  0  0  0  0  0
    0.6509   -4.6571   -0.2144 H   0  0  0  0  0  0  0  0  0  0  0  0
    2.0993   -5.0681   -1.7786 C   0  0  0  0  0  0  0  0  0  0  0  0
    3.1761   -5.3413   -1.8558 H   0  0  0  0  0  0  0  0  0  0  0  0
    1.5293   -5.9397   -2.1626 H   0  0  0  0  0  0  0  0  0  0  0  0
    1.8302   -3.8293   -2.6441 C   0  0  0  0  0  0  0  0  0  0  0  0
    0.7382   -3.6124   -2.6515 H   0  0  0  0  0  0  0  0  0  0  0  0
    2.1149   -4.0193   -3.6992 H   0  0  0  0  0  0  0  0  0  0  0  0
    2.5727   -2.5949   -2.1157 C   0  0  0  0  0  0  0  0  0  0  0  0
    3.6690   -2.7491   -2.2143 H   0  0  0  0  0  0  0  0  0  0  0  0
    2.3077   -1.6914   -2.7010 H   0  0  0  0  0  0  0  0  0  0  0  0
   -2.5614   -2.2155    0.1620 C   0  0  0  0  0  0  0  0  0  0  0  0
   -1.4524   -2.1786    0.2395 H   0  0  0  0  0  0  0  0  0  0  0  0
   -2.9183   -2.9582   -1.1338 C   0  0  0  0  0  0  0  0  0  0  0  0
   -2.4671   -2.4199   -1.9930 H   0  0  0  0  0  0  0  0  0  0  0  0
   -4.0191   -2.9467   -1.2869 H   0  0  0  0  0  0  0  0  0  0  0  0
   -2.4228   -4.4086   -1.0715 C   0  0  0  0  0  0  0  0  0  0  0  0
   -2.7264   -4.9520   -1.9900 H   0  0  0  0  0  0  0  0  0  0  0  0
   -1.3098   -4.4086   -1.0661 H   0  0  0  0  0  0  0  0  0  0  0  0
   -2.9310   -5.1317    0.1830 C   0  0  0  0  0  0  0  0  0  0  0  0
   -2.5255   -6.1642    0.2225 H   0  0  0  0  0  0  0  0  0  0  0  0
   -4.0383   -5.2336    0.1230 H   0  0  0  0  0  0  0  0  0  0  0  0
   -2.5634   -4.3635    1.4599 C   0  0  0  0  0  0  0  0  0  0  0  0
   -1.4560   -4.3443    1.5730 H   0  0  0  0  0  0  0  0  0  0  0  0
   -2.9572   -4.8831    2.3574 H   0  0  0  0  0  0  0  0  0  0  0  0
   -3.0801   -2.9191    1.4221 C   0  0  0  0  0  0  0  0  0  0  0  0
   -4.1916   -2.9196    1.4335 H   0  0  0  0  0  0  0  0  0  0  0  0
   -2.7382   -2.3514    2.3114 H   0  0  0  0  0  0  0  0  0  0  0  0
    1.2412    4.5217   -0.9612 O   0  0  0  0  0  0  0  0  0  0  0  0
   -0.5403    5.1904    0.1874 O   0  0  0  0  0  0  0  0  0  0  0  0
    0.2836    5.4424   -0.8379 C   0  0  2  0  0  3  0  0  0  0  0  0
    0.1506    6.5195   -1.6586 C   0  0  0  0  0  0  0  0  0  0  0  0
    0.0177    7.5386   -2.4205 C   0  0  0  0  0  3  0  0  0  0  0  0
  1  6  1  0  0  0  0
  1  5  1  0  0  0  0
  2 16  1  0  0  0  0
  3 42  1  0  0  0  0
  4 60  1  0  0  0  0
  5  2  1  0  0  0  0
  6 15  1  0  0  0  0
  7  6  2  0  0  0  0
  7  9  1  0  0  0  0
  8  7  1  0  0  0  0
  9 11  2  0  0  0  0
 10  9  1  0  0  0  0
 11 12  1  0  0  0  0
 11 13  1  0  0  0  0
 13 14  1  0  0  0  0
 15  2  1  0  0  0  0
 15 13  2  0  0  0  0
 16 18  1  0  0  0  0
 16 17  1  0  0  0  0
 19 20  1  0  0  0  0
 19 16  1  0  0  0  0
 21 19  1  0  0  0  0
 22 23  1  6  0  0  0
 22 19  1  0  0  0  0
 22 24  1  0  0  0  0
 24 26  1  0  0  0  0
 24 25  1  1  0  0  0
 26 28  1  0  0  0  0
 26 27  1  0  0  0  0
 29  3  1  0  0  0  0
 29 26  1  0  0  0  0
 30 29  1  0  0  0  0
 31 29  1  0  0  0  0
 32  3  1  0  0  0  0
 32 41  1  0  0  0  0
 33 32  2  0  0  0  0
 34 33  1  0  0  0  0
 35 33  1  0  0  0  0
 35 37  2  0  0  0  0
 36 35  1  0  0  0  0
 37 39  1  0  0  0  0
 38 37  1  0  0  0  0
 39 41  2  0  0  0  0
 39 40  1  0  0  0  0
 41  4  1  0  0  0  0
 42  4  1  0  0  0  0
 43 44  1  0  0  0  0
 43  1  1  0  0  0  0
 43 45  1  0  0  0  0
 45 47  1  0  0  0  0
 45 46  1  0  0  0  0
 48 50  1  0  0  0  0
 48 45  1  0  0  0  0
 48 49  1  0  0  0  0
 51 48  1  0  0  0  0
 52 51  1  0  0  0  0
 53 51  1  0  0  0  0
 54 57  1  0  0  0  0
 54 51  1  0  0  0  0
 55 54  1  0  0  0  0
 56 54  1  0  0  0  0
 57 43  1  0  0  0  0
 58 57  1  0  0  0  0
 59 57  1  0  0  0  0
 60 61  1  0  0  0  0
 60 74  1  0  0  0  0
 62 65  1  0  0  0  0
 62 60  1  0  0  0  0
 63 62  1  0  0  0  0
 64 62  1  0  0  0  0
 65 67  1  0  0  0  0
 65 68  1  0  0  0  0
 66 65  1  0  0  0  0
 68 69  1  0  0  0  0
 68 71  1  0  0  0  0
 70 68  1  0  0  0  0
 71 72  1  0  0  0  0
 71 73  1  0  0  0  0
 74 75  1  0  0  0  0
 74 71  1  0  0  0  0
 74 76  1  0  0  0  0
 77 79  1  0  0  0  0
 77 22  1  0  0  0  0
 78 24  1  0  0  0  0
 79 80  1  6  0  0  0
 79 78  1  0  0  0  0
 81 80  3  0  0  0  0
M  END
