8
 OpenBabel05122313053D

 65 70  0  0  1  0  0  0  0  0999 V2000
    3.3330   -1.4114    0.2188 Si  0  0  0  0  0  0  0  0  0  0  0  0
    3.9233   -2.7074   -1.0113 C   0  0  0  0  0  0  0  0  0  0  0  0
    4.9665   -2.4625   -1.2996 H   0  0  0  0  0  0  0  0  0  0  0  0
    3.3305   -2.7766   -1.9401 H   0  0  0  0  0  0  0  0  0  0  0  0
    3.9377   -3.7061   -0.5286 H   0  0  0  0  0  0  0  0  0  0  0  0
    2.9221    0.2712   -0.6007 C   0  0  2  0  0  3  0  0  0  0  0  0
    2.6219    1.4454    0.2086 C   0  0  1  0  0  3  0  0  0  0  0  0
    1.6671    2.2611   -0.5132 C   0  0  1  0  0  3  0  0  0  0  0  0
    1.5167    1.6995   -1.8255 C   0  0  0  0  0  0  0  0  0  0  0  0
    0.9159    2.1127   -2.6427 H   0  0  0  0  0  0  0  0  0  0  0  0
    2.3047    0.5093   -1.8914 C   0  0  0  0  0  0  0  0  0  0  0  0
    2.4306   -0.3516   -3.1155 C   0  0  0  0  0  0  0  0  0  0  0  0
    1.9981   -1.3609   -2.9686 H   0  0  0  0  0  0  0  0  0  0  0  0
    3.4972   -0.4845   -3.3852 H   0  0  0  0  0  0  0  0  0  0  0  0
    1.9107    0.1087   -3.9755 H   0  0  0  0  0  0  0  0  0  0  0  0
    3.0585    1.8846    1.4975 C   0  0  0  0  0  0  0  0  0  0  0  0
    3.8992    1.3845    1.9947 H   0  0  0  0  0  0  0  0  0  0  0  0
    2.4187    2.9593    2.0979 C   0  0  0  0  0  0  0  0  0  0  0  0
    2.7695    3.3314    3.0716 H   0  0  0  0  0  0  0  0  0  0  0  0
    1.2292    3.5049    1.5280 C   0  0  0  0  0  3  0  0  0  0  0  0
    0.5958    4.1747    2.1295 H   0  0  0  0  0  0  0  0  0  0  0  0
    0.8153    3.1449    0.2473 C   0  0  2  0  0  3  0  0  0  0  0  0
   -0.6091    3.1852   -0.2037 C   0  0  0  0  0  0  0  0  0  0  0  0
   -1.0785    3.8063   -1.3775 C   0  0  0  0  0  0  0  0  0  0  0  0
   -0.4072    4.4621   -1.9514 H   0  0  0  0  0  0  0  0  0  0  0  0
   -2.3978    3.5903   -1.8065 C   0  0  0  0  0  0  0  0  0  0  0  0
   -2.7569    4.0876   -2.7201 H   0  0  0  0  0  0  0  0  0  0  0  0
   -3.2619    2.7406   -1.0907 C   0  0  0  0  0  0  0  0  0  0  0  0
   -4.2880    2.5690   -1.4472 H   0  0  0  0  0  0  0  0  0  0  0  0
   -2.8152    2.1142    0.0805 C   0  0  0  0  0  0  0  0  0  0  0  0
   -3.4842    1.4508    0.6496 H   0  0  0  0  0  0  0  0  0  0  0  0
   -1.4959    2.3368    0.5226 C   0  0  0  0  0  0  0  0  0  0  0  0
   -1.1633    1.9151    1.4886 H   0  0  0  0  0  0  0  0  0  0  0  0
    4.6433   -1.3210    1.5671 C   0  0  0  0  0  0  0  0  0  0  0  0
    4.7834   -2.3366    1.9916 H   0  0  0  0  0  0  0  0  0  0  0  0
    4.4299   -0.6376    2.4082 H   0  0  0  0  0  0  0  0  0  0  0  0
    5.6070   -1.0117    1.1125 H   0  0  0  0  0  0  0  0  0  0  0  0
    1.5436   -1.7074    0.8562 C   0  0  2  0  0  3  0  0  0  0  0  0
    0.4754   -2.3420    0.0845 C   0  0  0  0  0  0  0  0  0  0  0  0
   -0.8099   -1.9080    0.6149 C   0  0  0  0  0  0  0  0  0  0  0  0
   -0.5304   -1.0259    1.7194 C   0  0  0  0  0  0  0  0  0  0  0  0
   -1.2738   -0.5766    2.3882 H   0  0  0  0  0  0  0  0  0  0  0  0
    0.8803   -0.9822    1.9232 C   0  0  0  0  0  0  0  0  0  0  0  0
    1.4915   -0.3554    3.1423 C   0  0  0  0  0  0  0  0  0  0  0  0
    1.0493    0.6323    3.3781 H   0  0  0  0  0  0  0  0  0  0  0  0
    2.5821   -0.2333    3.0623 H   0  0  0  0  0  0  0  0  0  0  0  0
    1.2964   -1.0194    4.0106 H   0  0  0  0  0  0  0  0  0  0  0  0
    0.5057   -3.2523   -1.0100 C   0  0  0  0  0  0  0  0  0  0  0  0
    1.4605   -3.6257   -1.3999 H   0  0  0  0  0  0  0  0  0  0  0  0
   -0.6987   -3.7165   -1.5264 C   0  0  0  0  0  0  0  0  0  0  0  0
   -0.6904   -4.4593   -2.3377 H   0  0  0  0  0  0  0  0  0  0  0  0
   -1.9464   -3.2454   -1.0408 C   0  0  0  0  0  0  0  0  0  0  0  0
   -2.8739   -3.6197   -1.4987 H   0  0  0  0  0  0  0  0  0  0  0  0
   -2.0392   -2.3280    0.0131 C   0  0  0  0  0  0  0  0  0  0  0  0
   -3.3360   -1.7322    0.4118 C   0  0  0  0  0  0  0  0  0  0  0  0
   -3.7104   -1.5735    1.7660 C   0  0  0  0  0  0  0  0  0  0  0  0
   -3.0669   -1.9810    2.5596 H   0  0  0  0  0  0  0  0  0  0  0  0
   -4.9199   -0.9503    2.1047 C   0  0  0  0  0  0  0  0  0  0  0  0
   -5.2042   -0.8500    3.1630 H   0  0  0  0  0  0  0  0  0  0  0  0
   -5.7771   -0.4728    1.0987 C   0  0  0  0  0  0  0  0  0  0  0  0
   -6.7259    0.0150    1.3674 H   0  0  0  0  0  0  0  0  0  0  0  0
   -5.4242   -0.6379   -0.2505 C   0  0  0  0  0  0  0  0  0  0  0  0
   -6.0951   -0.2773   -1.0450 H   0  0  0  0  0  0  0  0  0  0  0  0
   -4.2160   -1.2625   -0.5915 C   0  0  0  0  0  0  0  0  0  0  0  0
   -3.9318   -1.3675   -1.6494 H   0  0  0  0  0  0  0  0  0  0  0  0
  1 34  1  0  0  0  0
  2  5  1  0  0  0  0
  2  1  1  0  0  0  0
  3  2  1  0  0  0  0
  4  2  1  0  0  0  0
  6  7  1  0  0  0  0
  6  1  1  1  0  0  0
  7 16  1  1  0  0  0
  8  9  1  1  0  0  0
  8  7  1  0  0  0  0
  8 22  1  0  0  0  0
 10  9  1  0  0  0  0
 11  9  2  0  0  0  0
 11  6  1  0  0  0  0
 12 13  1  0  0  0  0
 12 11  1  0  0  0  0
 14 12  1  0  0  0  0
 15 12  1  0  0  0  0
 16 17  1  0  0  0  0
 16 18  2  0  0  0  0
 18 19  1  0  0  0  0
 20 18  1  0  0  0  0
 20 21  1  0  0  0  0
 22 23  1  1  0  0  0
 22 20  1  0  0  0  0
 23 32  1  0  0  0  0
 24 23  2  0  0  0  0
 25 24  1  0  0  0  0
 26 24  1  0  0  0  0
 26 28  2  0  0  0  0
 27 26  1  0  0  0  0
 28 30  1  0  0  0  0
 29 28  1  0  0  0  0
 30 32  2  0  0  0  0
 30 31  1  0  0  0  0
 32 33  1  0  0  0  0
 34 35  1  0  0  0  0
 34 36  1  0  0  0  0
 37 34  1  0  0  0  0
 38  1  1  6  0  0  0
 38 43  1  0  0  0  0
 39 40  1  0  0  0  0
 39 38  1  0  0  0  0
 40 41  1  0  0  0  0
 41 43  2  0  0  0  0
 41 42  1  0  0  0  0
 43 44  1  0  0  0  0
 44 45  1  0  0  0  0
 44 47  1  0  0  0  0
 46 44  1  0  0  0  0
 48 39  2  0  0  0  0
 49 48  1  0  0  0  0
 50 52  2  0  0  0  0
 50 48  1  0  0  0  0
 51 50  1  0  0  0  0
 52 54  1  0  0  0  0
 53 52  1  0  0  0  0
 54 55  1  0  0  0  0
 54 40  2  0  0  0  0
 55 56  1  0  0  0  0
 56 58  2  0  0  0  0
 56 57  1  0  0  0  0
 58 59  1  0  0  0  0
 60 61  1  0  0  0  0
 60 58  1  0  0  0  0
 62 60  2  0  0  0  0
 63 62  1  0  0  0  0
 64 62  1  0  0  0  0
 64 55  2  0  0  0  0
 65 64  1  0  0  0  0
M  END
