3
 OpenBabel05122313053D

 52 56  0  0  1  0  0  0  0  0999 V2000
   -1.4851    2.6976    0.3582 Si  0  0  0  0  0  0  0  0  0  0  0  0
   -2.5592    1.3744   -0.4509 C   0  0  1  0  0  3  0  0  0  0  0  0
   -2.4931    1.0772   -1.8560 C   0  0  0  0  0  3  0  0  0  0  0  0
   -2.0714    1.7412   -2.6228 H   0  0  0  0  0  0  0  0  0  0  0  0
   -2.9801   -0.2337   -2.1103 C   0  0  0  0  0  3  0  0  0  0  0  0
   -3.0241   -0.7271   -3.0877 H   0  0  0  0  0  0  0  0  0  0  0  0
   -3.4401   -0.7772   -0.8689 C   0  0  0  0  0  0  0  0  0  0  0  0
   -3.1495    0.2017    0.1704 C   0  0  0  0  0  0  0  0  0  0  0  0
    0.0567    1.6218    0.4995 C   0  0  2  0  0  3  0  0  0  0  0  0
    0.9753    1.4222   -0.5902 C   0  0  0  0  0  0  0  0  0  0  0  0
    1.0453    2.0579   -1.4843 H   0  0  0  0  0  0  0  0  0  0  0  0
    1.7543    0.2465   -0.3946 C   0  0  0  0  0  0  0  0  0  0  0  0
    1.3769   -0.2943    0.8825 C   0  0  0  0  0  0  0  0  0  0  0  0
    0.3116    0.5324    1.4260 C   0  0  0  0  0  0  0  0  0  0  0  0
   -3.4855   -0.1058    1.5239 C   0  0  0  0  0  0  0  0  0  0  0  0
   -3.2984    0.6261    2.3210 H   0  0  0  0  0  0  0  0  0  0  0  0
   -4.0865   -1.3204    1.8114 C   0  0  0  0  0  0  0  0  0  0  0  0
   -4.3568   -1.5588    2.8511 H   0  0  0  0  0  0  0  0  0  0  0  0
   -4.3749   -2.2703    0.7850 C   0  0  0  0  0  0  0  0  0  0  0  0
   -4.8545   -3.2220    1.0580 H   0  0  0  0  0  0  0  0  0  0  0  0
   -4.0640   -2.0128   -0.5395 C   0  0  0  0  0  0  0  0  0  0  0  0
   -4.2805   -2.7470   -1.3289 H   0  0  0  0  0  0  0  0  0  0  0  0
   -0.2554    0.1857    2.6895 C   0  0  0  0  0  0  0  0  0  0  0  0
   -1.0494    0.8033    3.1301 H   0  0  0  0  0  0  0  0  0  0  0  0
    0.2367   -0.9169    3.3699 C   0  0  0  0  0  0  0  0  0  0  0  0
   -0.1888   -1.1829    4.3491 H   0  0  0  0  0  0  0  0  0  0  0  0
    1.2966   -1.7102    2.8362 C   0  0  0  0  0  0  0  0  0  0  0  0
    1.6634   -2.5706    3.4154 H   0  0  0  0  0  0  0  0  0  0  0  0
    1.8713   -1.4099    1.6122 C   0  0  0  0  0  0  0  0  0  0  0  0
    2.6944   -2.0133    1.2038 H   0  0  0  0  0  0  0  0  0  0  0  0
    2.8678   -0.2644   -1.2633 C   0  0  0  0  0  0  0  0  0  0  0  0
    2.8354    0.2700   -2.2357 H   0  0  0  0  0  0  0  0  0  0  0  0
    2.6963   -1.3322   -1.5092 H   0  0  0  0  0  0  0  0  0  0  0  0
    4.2406   -0.1087   -0.6284 C   0  0  0  0  0  0  0  0  0  0  0  0
    5.1830   -1.1529   -0.6993 C   0  0  0  0  0  0  0  0  0  0  0  0
    4.9088   -2.0912   -1.2078 H   0  0  0  0  0  0  0  0  0  0  0  0
    6.4595   -1.0117   -0.1326 C   0  0  0  0  0  0  0  0  0  0  0  0
    7.1812   -1.8405   -0.1981 H   0  0  0  0  0  0  0  0  0  0  0  0
    6.8121    0.1793    0.5199 C   0  0  0  0  0  0  0  0  0  0  0  0
    7.8110    0.2911    0.9684 H   0  0  0  0  0  0  0  0  0  0  0  0
    5.8786    1.2254    0.6019 C   0  0  0  0  0  0  0  0  0  0  0  0
    6.1443    2.1617    1.1164 H   0  0  0  0  0  0  0  0  0  0  0  0
    4.6044    1.0806    0.0350 C   0  0  0  0  0  0  0  0  0  0  0  0
    3.8727    1.9002    0.1130 H   0  0  0  0  0  0  0  0  0  0  0  0
   -1.1767    4.1072   -0.8536 C   0  0  0  0  0  0  0  0  0  0  0  0
   -2.1169    4.6614   -1.0506 H   0  0  0  0  0  0  0  0  0  0  0  0
   -0.7873    3.7453   -1.8258 H   0  0  0  0  0  0  0  0  0  0  0  0
   -0.4365    4.8201   -0.4367 H   0  0  0  0  0  0  0  0  0  0  0  0
   -2.1400    3.3670    1.9923 C   0  0  0  0  0  0  0  0  0  0  0  0
   -3.0932    3.9086    1.8239 H   0  0  0  0  0  0  0  0  0  0  0  0
   -1.4096    4.0800    2.4265 H   0  0  0  0  0  0  0  0  0  0  0  0
   -2.3282    2.5780    2.7450 H   0  0  0  0  0  0  0  0  0  0  0  0
  1 49  1  0  0  0  0
  2  8  1  0  0  0  0
  2  1  1  1  0  0  0
  3  2  1  0  0  0  0
  4  3  1  0  0  0  0
  5  3  1  0  0  0  0
  5  7  1  0  0  0  0
  6  5  1  0  0  0  0
  7 21  2  0  0  0  0
  7  8  1  0  0  0  0
  8 15  2  0  0  0  0
  9  1  1  6  0  0  0
  9 14  1  0  0  0  0
 10 12  2  0  0  0  0
 10  9  1  0  0  0  0
 11 10  1  0  0  0  0
 12 13  1  0  0  0  0
 13 14  2  0  0  0  0
 13 29  1  0  0  0  0
 14 23  1  0  0  0  0
 15 17  1  0  0  0  0
 15 16  1  0  0  0  0
 17 18  1  0  0  0  0
 19 20  1  0  0  0  0
 19 17  2  0  0  0  0
 21 19  1  0  0  0  0
 22 21  1  0  0  0  0
 23 24  1  0  0  0  0
 23 25  2  0  0  0  0
 25 26  1  0  0  0  0
 27 25  1  0  0  0  0
 27 28  1  0  0  0  0
 29 27  2  0  0  0  0
 30 29  1  0  0  0  0
 31 34  1  0  0  0  0
 31 12  1  0  0  0  0
 32 31  1  0  0  0  0
 33 31  1  0  0  0  0
 34 43  1  0  0  0  0
 35 34  2  0  0  0  0
 35 37  1  0  0  0  0
 36 35  1  0  0  0  0
 37 39  2  0  0  0  0
 38 37  1  0  0  0  0
 39 41  1  0  0  0  0
 39 40  1  0  0  0  0
 41 42  1  0  0  0  0
 43 44  1  0  0  0  0
 43 41  2  0  0  0  0
 45 48  1  0  0  0  0
 45  1  1  0  0  0  0
 46 45  1  0  0  0  0
 47 45  1  0  0  0  0
 49 51  1  0  0  0  0
 49 52  1  0  0  0  0
 50 49  1  0  0  0  0
M  END
