2,17
 OpenBabel05122313053D

 44 47  0  0  0  0  0  0  0  0999 V2000
   -2.5654   -0.0824   -0.9438 P   0  0  0  0  0  0  0  0  0  0  0  0
   -1.3464   -1.3616   -0.3785 C   0  0  0  0  0  3  0  0  0  0  0  0
   -0.8055   -1.6248    0.9297 C   0  0  0  0  0  3  0  0  0  0  0  0
   -1.2445   -1.3337    1.8887 H   0  0  0  0  0  0  0  0  0  0  0  0
    0.3624   -2.4502    0.7755 C   0  0  0  0  0  0  0  0  0  0  0  0
    1.2342   -3.0675    1.7167 C   0  0  0  0  0  0  0  0  0  0  0  0
    1.0433   -2.9689    2.7949 H   0  0  0  0  0  0  0  0  0  0  0  0
    2.3274   -3.7743    1.2431 C   0  0  0  0  0  0  0  0  0  0  0  0
    3.0131   -4.2558    1.9565 H   0  0  0  0  0  0  0  0  0  0  0  0
    2.5995   -3.8801   -0.1555 C   0  0  0  0  0  0  0  0  0  0  0  0
    3.4896   -4.4366   -0.4851 H   0  0  0  0  0  0  0  0  0  0  0  0
    1.7698   -3.2945   -1.0982 C   0  0  0  0  0  0  0  0  0  0  0  0
    1.9816   -3.3707   -2.1739 H   0  0  0  0  0  0  0  0  0  0  0  0
    0.6197   -2.5845   -0.6448 C   0  0  0  0  0  0  0  0  0  0  0  0
   -0.4339   -1.8947   -1.3410 C   0  0  0  0  0  3  0  0  0  0  0  0
   -0.5382   -1.8049   -2.4291 H   0  0  0  0  0  0  0  0  0  0  0  0
   -1.4182    1.2628   -0.3885 C   0  0  0  0  0  3  0  0  0  0  0  0
   -0.9066    1.5737    0.9192 C   0  0  0  0  0  3  0  0  0  0  0  0
   -1.3401    1.2716    1.8784 H   0  0  0  0  0  0  0  0  0  0  0  0
    0.2124    2.4644    0.7652 C   0  0  0  0  0  0  0  0  0  0  0  0
    1.0392    3.1412    1.7057 C   0  0  0  0  0  0  0  0  0  0  0  0
    0.8448    3.0448    2.7835 H   0  0  0  0  0  0  0  0  0  0  0  0
    2.0953    3.9025    1.2323 C   0  0  0  0  0  0  0  0  0  0  0  0
    2.7467    4.4301    1.9453 H   0  0  0  0  0  0  0  0  0  0  0  0
    2.3736    4.0066   -0.1651 C   0  0  0  0  0  0  0  0  0  0  0  0
    3.2341    4.6080   -0.4943 H   0  0  0  0  0  0  0  0  0  0  0  0
    1.5861    3.3645   -1.1072 C   0  0  0  0  0  0  0  0  0  0  0  0
    1.8029    3.4395   -2.1821 H   0  0  0  0  0  0  0  0  0  0  0  0
    0.4736    2.5963   -0.6548 C   0  0  0  0  0  0  0  0  0  0  0  0
   -0.5327    1.8390   -1.3513 C   0  0  0  0  0  3  0  0  0  0  0  0
   -0.6249    1.7332   -2.4390 H   0  0  0  0  0  0  0  0  0  0  0  0
   -4.0552   -0.0914    0.2396 C   0  0  0  0  0  0  0  0  0  0  0  0
   -4.9769   -1.1895   -0.3277 C   0  0  0  0  0  0  0  0  0  0  0  0
   -5.9247   -1.2245    0.2507 H   0  0  0  0  0  0  0  0  0  0  0  0
   -4.5042   -2.1912   -0.2582 H   0  0  0  0  0  0  0  0  0  0  0  0
   -5.2297   -1.0033   -1.3909 H   0  0  0  0  0  0  0  0  0  0  0  0
   -3.8018   -0.3665    1.7264 C   0  0  0  0  0  0  0  0  0  0  0  0
   -4.7649   -0.3077    2.2784 H   0  0  0  0  0  0  0  0  0  0  0  0
   -3.1206    0.3742    2.1866 H   0  0  0  0  0  0  0  0  0  0  0  0
   -3.3919   -1.3810    1.8924 H   0  0  0  0  0  0  0  0  0  0  0  0
   -4.7023    1.2936    0.0566 C   0  0  0  0  0  0  0  0  0  0  0  0
   -5.6824    1.3238    0.5782 H   0  0  0  0  0  0  0  0  0  0  0  0
   -4.8829    1.5238   -1.0140 H   0  0  0  0  0  0  0  0  0  0  0  0
   -4.0665    2.0992    0.4770 H   0  0  0  0  0  0  0  0  0  0  0  0
  1 17  1  0  0  0  0
  1  2  1  0  0  0  0
  1 32  1  0  0  0  0
  2  3  1  0  0  0  0
  3  4  1  0  0  0  0
  5  3  1  0  0  0  0
  5  6  1  0  0  0  0
  6  7  1  0  0  0  0
  8  6  2  0  0  0  0
  8  9  1  0  0  0  0
 10  8  1  0  0  0  0
 11 10  1  0  0  0  0
 12 14  1  0  0  0  0
 12 10  2  0  0  0  0
 13 12  1  0  0  0  0
 14  5  2  0  0  0  0
 15 14  1  0  0  0  0
 15  2  1  0  0  0  0
 16 15  1  0  0  0  0
 17 18  1  0  0  0  0
 18 19  1  0  0  0  0
 20 18  1  0  0  0  0
 20 21  1  0  0  0  0
 21 22  1  0  0  0  0
 23 21  2  0  0  0  0
 23 24  1  0  0  0  0
 25 23  1  0  0  0  0
 26 25  1  0  0  0  0
 27 29  1  0  0  0  0
 27 25  2  0  0  0  0
 28 27  1  0  0  0  0
 29 20  2  0  0  0  0
 30 29  1  0  0  0  0
 30 17  1  0  0  0  0
 31 30  1  0  0  0  0
 32 37  1  0  0  0  0
 33 35  1  0  0  0  0
 33 32  1  0  0  0  0
 33 34  1  0  0  0  0
 36 33  1  0  0  0  0
 37 40  1  0  0  0  0
 37 39  1  0  0  0  0
 37 38  1  0  0  0  0
 41 32  1  0  0  0  0
 41 44  1  0  0  0  0
 41 42  1  0  0  0  0
 43 41  1  0  0  0  0
M  END
