16,20
 OpenBabel05122313053D

 78 82  0  0  1  0  0  0  0  0999 V2000
    1.8272   -0.1996   -0.8470 P   0  0  0  0  0  0  0  0  0  0  0  0
   -2.1943   -0.2598   -0.3553 P   0  0  0  0  0  0  0  0  0  0  0  0
   -0.1311   -2.7068   -0.6553 C   0  0  0  0  0  0  0  0  0  0  0  0
    0.1919   -3.7624   -0.6384 H   0  0  0  0  0  0  0  0  0  0  0  0
   -0.7946   -2.2668   -1.7549 C   0  0  0  0  0  0  0  0  0  0  0  0
   -1.3080   -0.8601   -1.8911 C   0  0  0  0  0  0  0  0  0  0  0  0
   -1.9950   -0.7684   -2.7564 H   0  0  0  0  0  0  0  0  0  0  0  0
   -0.4406   -0.1778   -2.0511 H   0  0  0  0  0  0  0  0  0  0  0  0
   -1.0516   -3.1745   -2.9257 C   0  0  0  0  0  0  0  0  0  0  0  0
   -0.6093   -2.7561   -3.8557 H   0  0  0  0  0  0  0  0  0  0  0  0
   -0.6354   -4.1880   -2.7673 H   0  0  0  0  0  0  0  0  0  0  0  0
   -2.1445   -3.2658   -3.1087 H   0  0  0  0  0  0  0  0  0  0  0  0
    0.1133   -1.9599    0.6040 C   0  0  0  0  0  0  0  0  0  0  0  0
   -0.4753   -2.4700    1.8032 C   0  0  0  0  0  0  0  0  0  0  0  0
   -1.1242   -3.3544    1.7388 H   0  0  0  0  0  0  0  0  0  0  0  0
   -0.3155   -1.7893    3.0449 C   0  0  0  0  0  3  0  0  0  0  0  0
   -0.8541   -2.1473    3.9339 H   0  0  0  0  0  0  0  0  0  0  0  0
    0.5184   -0.6449    3.1335 C   0  0  0  0  0  3  0  0  0  0  0  0
    0.6265   -0.1021    4.0820 H   0  0  0  0  0  0  0  0  0  0  0  0
    1.1269   -0.1464    1.9496 C   0  0  0  0  0  3  0  0  0  0  0  0
    1.7236    0.7762    1.9934 H   0  0  0  0  0  0  0  0  0  0  0  0
    0.9643   -0.7912    0.6799 C   0  0  1  0  0  3  0  0  0  0  0  0
   -3.7405   -1.2795   -0.4949 C   0  0  0  0  0  0  0  0  0  0  0  0
   -3.9317   -2.3764    0.3643 C   0  0  0  0  0  0  0  0  0  0  0  0
   -3.1931   -2.5642    1.1573 H   0  0  0  0  0  0  0  0  0  0  0  0
   -5.0541   -3.2066    0.2181 C   0  0  0  0  0  0  0  0  0  0  0  0
   -5.1952   -4.0600    0.8988 H   0  0  0  0  0  0  0  0  0  0  0  0
   -5.9981   -2.9433   -0.7860 C   0  0  0  0  0  0  0  0  0  0  0  0
   -6.8819   -3.5899   -0.8970 H   0  0  0  0  0  0  0  0  0  0  0  0
   -5.8171   -1.8454   -1.6442 C   0  0  0  0  0  0  0  0  0  0  0  0
   -6.5592   -1.6292   -2.4281 H   0  0  0  0  0  0  0  0  0  0  0  0
   -4.6943   -1.0177   -1.5008 C   0  0  0  0  0  0  0  0  0  0  0  0
   -4.5624   -0.1522   -2.1691 H   0  0  0  0  0  0  0  0  0  0  0  0
   -2.8116    1.3995   -0.8789 C   0  0  0  0  0  0  0  0  0  0  0  0
   -3.7581    2.0365   -0.0466 C   0  0  0  0  0  0  0  0  0  0  0  0
   -4.1409    1.5150    0.8446 H   0  0  0  0  0  0  0  0  0  0  0  0
   -4.2042    3.3308   -0.3403 C   0  0  0  0  0  0  0  0  0  0  0  0
   -4.9403    3.8151    0.3192 H   0  0  0  0  0  0  0  0  0  0  0  0
   -3.7084    4.0127   -1.4649 C   0  0  0  0  0  0  0  0  0  0  0  0
   -4.0545    5.0327   -1.6904 H   0  0  0  0  0  0  0  0  0  0  0  0
   -2.7688    3.3874   -2.2966 C   0  0  0  0  0  0  0  0  0  0  0  0
   -2.3758    3.9128   -3.1806 H   0  0  0  0  0  0  0  0  0  0  0  0
   -2.3233    2.0861   -2.0082 C   0  0  0  0  0  0  0  0  0  0  0  0
   -1.5856    1.6156   -2.6735 H   0  0  0  0  0  0  0  0  0  0  0  0
    3.4659   -1.0394   -0.6819 C   0  0  0  0  0  0  0  0  0  0  0  0
    4.3978   -0.8328   -1.7234 C   0  0  0  0  0  0  0  0  0  0  0  0
    4.1302   -0.1765   -2.5683 H   0  0  0  0  0  0  0  0  0  0  0  0
    5.6637   -1.4396   -1.6969 C   0  0  0  0  0  0  0  0  0  0  0  0
    5.9768   -2.2890   -0.6130 C   0  0  0  0  0  0  0  0  0  0  0  0
    6.9640   -2.7797   -0.5838 H   0  0  0  0  0  0  0  0  0  0  0  0
    5.0639   -2.5296    0.4271 C   0  0  0  0  0  0  0  0  0  0  0  0
    3.8060   -1.8894    0.3835 C   0  0  0  0  0  0  0  0  0  0  0  0
    3.0878   -2.0572    1.2007 H   0  0  0  0  0  0  0  0  0  0  0  0
    6.6711   -1.1986   -2.7939 C   0  0  0  0  0  0  0  0  0  0  0  0
    6.2526   -0.5673   -3.6012 H   0  0  0  0  0  0  0  0  0  0  0  0
    7.5771   -0.6895   -2.4024 H   0  0  0  0  0  0  0  0  0  0  0  0
    7.0115   -2.1526   -3.2473 H   0  0  0  0  0  0  0  0  0  0  0  0
    5.4029   -3.4556    1.5693 C   0  0  0  0  0  0  0  0  0  0  0  0
    6.4716   -3.7452    1.5602 H   0  0  0  0  0  0  0  0  0  0  0  0
    5.1816   -2.9865    2.5498 H   0  0  0  0  0  0  0  0  0  0  0  0
    4.8017   -4.3883    1.5192 H   0  0  0  0  0  0  0  0  0  0  0  0
    2.2334    1.5383   -0.3609 C   0  0  0  0  0  0  0  0  0  0  0  0
    1.2207    2.4957   -0.5529 C   0  0  0  0  0  0  0  0  0  0  0  0
    0.2491    2.1881   -0.9705 H   0  0  0  0  0  0  0  0  0  0  0  0
    1.4124    3.8435   -0.1895 C   0  0  0  0  0  0  0  0  0  0  0  0
    2.6606    4.2157    0.3422 C   0  0  0  0  0  0  0  0  0  0  0  0
    2.8276    5.2688    0.6238 H   0  0  0  0  0  0  0  0  0  0  0  0
    3.7027    3.2832    0.5264 C   0  0  0  0  0  0  0  0  0  0  0  0
    3.4732    1.9393    0.1772 C   0  0  0  0  0  0  0  0  0  0  0  0
    4.2699    1.1945    0.3288 H   0  0  0  0  0  0  0  0  0  0  0  0
    0.2903    4.8370   -0.3484 C   0  0  0  0  0  0  0  0  0  0  0  0
    0.6230    5.8713   -0.1352 H   0  0  0  0  0  0  0  0  0  0  0  0
   -0.1325    4.8102   -1.3734 H   0  0  0  0  0  0  0  0  0  0  0  0
   -0.5401    4.5847    0.3427 H   0  0  0  0  0  0  0  0  0  0  0  0
    5.0366    3.7244    1.0775 C   0  0  0  0  0  0  0  0  0  0  0  0
    5.6677    2.8592    1.3589 H   0  0  0  0  0  0  0  0  0  0  0  0
    5.6017    4.3197    0.3285 H   0  0  0  0  0  0  0  0  0  0  0  0
    4.9149    4.3686    1.9722 H   0  0  0  0  0  0  0  0  0  0  0  0
  1 45  1  0  0  0  0
  1 62  1  0  0  0  0
  3  4  1  0  0  0  0
  3 13  1  0  0  0  0
  5  3  2  0  0  0  0
  6  5  1  0  0  0  0
  6  2  1  0  0  0  0
  7  6  1  0  0  0  0
  8  6  1  0  0  0  0
  9 11  1  0  0  0  0
  9  5  1  0  0  0  0
 10  9  1  0  0  0  0
 12  9  1  0  0  0  0
 13 22  1  0  0  0  0
 13 14  2  0  0  0  0
 14 16  1  0  0  0  0
 15 14  1  0  0  0  0
 16 18  1  0  0  0  0
 16 17  1  0  0  0  0
 18 19  1  0  0  0  0
 20 21  1  0  0  0  0
 20 18  1  0  0  0  0
 22  1  1  1  0  0  0
 22 20  1  0  0  0  0
 23  2  1  0  0  0  0
 23 24  1  0  0  0  0
 24 25  1  0  0  0  0
 26 24  2  0  0  0  0
 26 27  1  0  0  0  0
 28 26  1  0  0  0  0
 29 28  1  0  0  0  0
 30 32  1  0  0  0  0
 30 28  2  0  0  0  0
 31 30  1  0  0  0  0
 32 23  2  0  0  0  0
 33 32  1  0  0  0  0
 34  2  1  0  0  0  0
 34 35  1  0  0  0  0
 35 36  1  0  0  0  0
 37 35  2  0  0  0  0
 37 38  1  0  0  0  0
 39 37  1  0  0  0  0
 40 39  1  0  0  0  0
 41 43  1  0  0  0  0
 41 39  2  0  0  0  0
 42 41  1  0  0  0  0
 43 34  2  0  0  0  0
 44 43  1  0  0  0  0
 45 52  1  0  0  0  0
 46 48  1  0  0  0  0
 46 45  2  0  0  0  0
 47 46  1  0  0  0  0
 48 49  2  0  0  0  0
 49 50  1  0  0  0  0
 49 51  1  0  0  0  0
 51 58  1  0  0  0  0
 52 51  2  0  0  0  0
 52 53  1  0  0  0  0
 54 56  1  0  0  0  0
 54 48  1  0  0  0  0
 55 54  1  0  0  0  0
 57 54  1  0  0  0  0
 58 60  1  0  0  0  0
 59 58  1  0  0  0  0
 61 58  1  0  0  0  0
 62 69  1  0  0  0  0
 63 62  2  0  0  0  0
 63 65  1  0  0  0  0
 64 63  1  0  0  0  0
 65 66  2  0  0  0  0
 66 68  1  0  0  0  0
 66 67  1  0  0  0  0
 68 75  1  0  0  0  0
 69 70  1  0  0  0  0
 69 68  2  0  0  0  0
 71 65  1  0  0  0  0
 71 72  1  0  0  0  0
 71 74  1  0  0  0  0
 73 71  1  0  0  0  0
 75 76  1  0  0  0  0
 75 78  1  0  0  0  0
 77 75  1  0  0  0  0
M  END
