3,5
 OpenBabel05122313053D

 48 51  0  0  1  0  0  0  0  0999 V2000
    1.0291   -1.3710   -0.5880 C   0  0  0  0  0  0  0  0  0  0  0  0
    0.7004   -0.7744    0.6558 C   0  0  0  0  0  3  0  0  0  0  0  0
    0.7492    0.6419    0.8237 C   0  0  0  0  0  3  0  0  0  0  0  0
    1.1278    1.5044   -0.2362 C   0  0  1  0  0  3  0  0  0  0  0  0
    1.4893    0.8973   -1.4840 C   0  0  0  0  0  3  0  0  0  0  0  0
    1.4318   -0.5061   -1.6595 C   0  0  0  0  0  0  0  0  0  0  0  0
    0.9457   -2.8699   -0.8122 C   0  0  0  0  0  0  0  0  0  0  0  0
   -0.1084   -3.5949    0.0476 C   0  0  0  0  0  0  0  0  0  0  0  0
   -1.4750   -2.9388    0.0213 C   0  0  0  0  0  0  0  0  0  0  0  0
   -2.1519   -2.6231    1.2161 C   0  0  0  0  0  0  0  0  0  0  0  0
   -3.3623   -1.9174    1.2042 C   0  0  0  0  0  0  0  0  0  0  0  0
   -3.9446   -1.4973   -0.0075 C   0  0  0  0  0  0  0  0  0  0  0  0
   -3.2910   -1.8528   -1.2030 C   0  0  0  0  0  0  0  0  0  0  0  0
   -2.0820   -2.5603   -1.1915 C   0  0  0  0  0  0  0  0  0  0  0  0
   -5.1862   -0.6320   -0.0242 C   0  0  0  0  0  0  0  0  0  0  0  0
   -5.0123    0.7122    0.7197 C   0  0  0  0  0  0  0  0  0  0  0  0
   -3.7871    1.5144    0.3278 C   0  0  0  0  0  0  0  0  0  0  0  0
   -3.0271    2.1853    1.3072 C   0  0  0  0  0  0  0  0  0  0  0  0
   -1.8764    2.9105    0.9696 C   0  0  0  0  0  0  0  0  0  0  0  0
   -1.4263    2.9767   -0.3644 C   0  0  0  0  0  0  0  0  0  0  0  0
   -2.1924    2.3184   -1.3444 C   0  0  0  0  0  0  0  0  0  0  0  0
   -3.3541    1.6099   -1.0086 C   0  0  0  0  0  0  0  0  0  0  0  0
   -0.1242    3.6579   -0.7253 C   0  0  0  0  0  0  0  0  0  0  0  0
    1.1164    3.0019   -0.0656 C   0  0  0  0  0  0  0  0  0  0  0  0
    0.4245   -1.4011    1.5117 H   0  0  0  0  0  0  0  0  0  0  0  0
    0.5099    1.0741    1.8050 H   0  0  0  0  0  0  0  0  0  0  0  0
    1.8404    1.5312   -2.3114 H   0  0  0  0  0  0  0  0  0  0  0  0
    1.7359   -0.9470   -2.6197 H   0  0  0  0  0  0  0  0  0  0  0  0
    1.9391   -3.3352   -0.6421 H   0  0  0  0  0  0  0  0  0  0  0  0
    0.7273   -3.0345   -1.8878 H   0  0  0  0  0  0  0  0  0  0  0  0
    0.2403   -3.6645    1.0987 H   0  0  0  0  0  0  0  0  0  0  0  0
   -0.1750   -4.6450   -0.3111 H   0  0  0  0  0  0  0  0  0  0  0  0
   -1.7065   -2.9186    2.1803 H   0  0  0  0  0  0  0  0  0  0  0  0
   -3.8502   -1.6681    2.1600 H   0  0  0  0  0  0  0  0  0  0  0  0
   -3.7303   -1.5485   -2.1665 H   0  0  0  0  0  0  0  0  0  0  0  0
   -1.5911   -2.7971   -2.1485 H   0  0  0  0  0  0  0  0  0  0  0  0
   -6.0398   -1.1730    0.4386 H   0  0  0  0  0  0  0  0  0  0  0  0
   -5.4832   -0.4478   -1.0772 H   0  0  0  0  0  0  0  0  0  0  0  0
   -4.9734    0.5276    1.8136 H   0  0  0  0  0  0  0  0  0  0  0  0
   -5.9296    1.3214    0.5564 H   0  0  0  0  0  0  0  0  0  0  0  0
   -3.3424    2.1297    2.3618 H   0  0  0  0  0  0  0  0  0  0  0  0
   -1.3069    3.4195    1.7641 H   0  0  0  0  0  0  0  0  0  0  0  0
   -1.8621    2.3507   -2.3950 H   0  0  0  0  0  0  0  0  0  0  0  0
   -3.9203    1.1061   -1.8061 H   0  0  0  0  0  0  0  0  0  0  0  0
   -0.1475    4.7292   -0.4308 H   0  0  0  0  0  0  0  0  0  0  0  0
   -0.0037    3.6409   -1.8284 H   0  0  0  0  0  0  0  0  0  0  0  0
    2.0380    3.4427   -0.4986 H   0  0  0  0  0  0  0  0  0  0  0  0
    1.1380    3.2355    1.0182 H   0  0  0  0  0  0  0  0  0  0  0  0
  1  2  1  0  0  0  0
  2  3  1  0  0  0  0
  2 25  1  0  0  0  0
  3 26  1  0  0  0  0
  4  5  1  6  0  0  0
  4 24  1  0  0  0  0
  4  3  1  0  0  0  0
  6  5  1  0  0  0  0
  6  1  2  0  0  0  0
  7 29  1  0  0  0  0
  7  1  1  0  0  0  0
  7  8  1  0  0  0  0
  8 31  1  0  0  0  0
  9  8  1  0  0  0  0
  9 10  1  0  0  0  0
 10 33  1  0  0  0  0
 11 10  2  0  0  0  0
 11 34  1  0  0  0  0
 12 11  1  0  0  0  0
 13 14  1  0  0  0  0
 13 12  2  0  0  0  0
 14  9  2  0  0  0  0
 15 12  1  0  0  0  0
 15 37  1  0  0  0  0
 15 16  1  0  0  0  0
 16 39  1  0  0  0  0
 17 16  1  0  0  0  0
 17 18  1  0  0  0  0
 18 41  1  0  0  0  0
 19 18  2  0  0  0  0
 19 42  1  0  0  0  0
 20 19  1  0  0  0  0
 21 22  1  0  0  0  0
 21 20  2  0  0  0  0
 22 17  2  0  0  0  0
 23 45  1  0  0  0  0
 23 20  1  0  0  0  0
 23 24  1  0  0  0  0
 24 48  1  0  0  0  0
 27  5  1  0  0  0  0
 28  6  1  0  0  0  0
 30  7  1  0  0  0  0
 32  8  1  0  0  0  0
 35 13  1  0  0  0  0
 36 14  1  0  0  0  0
 38 15  1  0  0  0  0
 40 16  1  0  0  0  0
 43 21  1  0  0  0  0
 44 22  1  0  0  0  0
 46 23  1  0  0  0  0
 47 24  1  0  0  0  0
M  END
