3,5
 OpenBabel05122313053D

 16 15  0  0  0  0  0  0  0  0999 V2000
   -0.4852   -3.7592   -1.6183 O   0  0  0  0  0  0  0  0  0  0  0  0
   -1.9692   -3.3433    0.0636 O   0  0  0  0  0  0  0  0  0  0  0  0
    0.9463   -2.0898   -2.4765 C   0  0  0  0  0  3  0  0  0  0  0  0
   -0.3794   -2.5772   -2.2845 C   0  0  0  0  0  3  0  0  0  0  0  0
   -1.4539   -1.6648   -2.5174 C   0  0  0  0  0  3  0  0  0  0  0  0
   -1.7272   -4.1361   -1.0662 C   0  0  0  0  0  0  0  0  0  0  0  0
   -3.0093   -3.8409    0.8905 C   0  0  0  0  0  0  0  0  0  0  0  0
    1.1457   -1.4098   -3.3196 H   0  0  0  0  0  0  0  0  0  0  0  0
    1.7906   -2.7098   -2.1401 H   0  0  0  0  0  0  0  0  0  0  0  0
   -2.4803   -1.8900   -2.1993 H   0  0  0  0  0  0  0  0  0  0  0  0
   -1.3664   -0.9962   -3.3891 H   0  0  0  0  0  0  0  0  0  0  0  0
   -2.5431   -4.0327   -1.8251 H   0  0  0  0  0  0  0  0  0  0  0  0
   -1.6139   -5.2109   -0.7956 H   0  0  0  0  0  0  0  0  0  0  0  0
   -2.7876   -4.8719    1.2520 H   0  0  0  0  0  0  0  0  0  0  0  0
   -3.0808   -3.1608    1.7598 H   0  0  0  0  0  0  0  0  0  0  0  0
   -3.9919   -3.8575    0.3635 H   0  0  0  0  0  0  0  0  0  0  0  0
  1  6  1  0  0  0  0
  2  7  1  0  0  0  0
  3  4  1  0  0  0  0
  3  9  1  0  0  0  0
  4  1  1  0  0  0  0
  5  4  1  0  0  0  0
  5 10  1  0  0  0  0
  6 13  1  0  0  0  0
  6  2  1  0  0  0  0
  7 14  1  0  0  0  0
  7 15  1  0  0  0  0
  8  3  1  0  0  0  0
 11  5  1  0  0  0  0
 12  6  1  0  0  0  0
 16  7  1  0  0  0  0
M  END
