3,13
 OpenBabel05122313053D

 31 33  0  0  1  0  0  0  0  0999 V2000
   -2.7636   -3.7105    0.4241 S   0  0  0  0  0  1  0  0  0  0  0  0
   -2.5199   -1.7587    0.2423 P   0  0  2  0  0  4  0  0  0  0  0  0
   -1.4789   -1.2827   -1.1929 C   0  0  2  0  0  3  0  0  0  0  0  0
   -0.4354   -2.1024   -1.7325 C   0  0  0  0  0  3  0  0  0  0  0  0
   -0.2794   -3.1581   -1.4857 H   0  0  0  0  0  0  0  0  0  0  0  0
    0.2981   -1.2990   -2.6797 C   0  0  0  0  0  0  0  0  0  0  0  0
    1.1720   -1.6302   -3.2506 H   0  0  0  0  0  0  0  0  0  0  0  0
   -0.2976   -0.0065   -2.7190 C   0  0  0  0  0  0  0  0  0  0  0  0
    0.0142    0.8283   -3.3576 H   0  0  0  0  0  0  0  0  0  0  0  0
   -1.4036    0.0151   -1.7931 C   0  0  0  0  0  3  0  0  0  0  0  0
   -2.0746    0.8587   -1.5972 H   0  0  0  0  0  0  0  0  0  0  0  0
   -1.5185   -0.9378    1.4805 C   0  0  0  0  0  0  0  0  0  0  0  0
   -0.2424   -0.5071    1.1159 C   0  0  0  0  0  3  0  0  0  0  0  0
    0.4517   -0.2084    2.4390 C   0  0  0  0  0  0  0  0  0  0  0  0
    1.0006    0.7552    2.4602 H   0  0  0  0  0  0  0  0  0  0  0  0
    1.2482   -0.9786    2.5660 H   0  0  0  0  0  0  0  0  0  0  0  0
   -0.5892   -0.4011    3.5093 C   0  0  0  0  0  0  0  0  0  0  0  0
   -0.4160   -0.2414    4.5826 H   0  0  0  0  0  0  0  0  0  0  0  0
   -1.7297   -0.8690    2.9276 C   0  0  0  0  0  0  0  0  0  0  0  0
   -2.6595   -1.1618    3.4362 H   0  0  0  0  0  0  0  0  0  0  0  0
   -4.0849   -0.8194    0.0368 C   0  0  0  0  0  0  0  0  0  0  0  0
   -4.1120    0.5658    0.2936 C   0  0  0  0  0  0  0  0  0  0  0  0
   -3.2054    1.0763    0.6527 H   0  0  0  0  0  0  0  0  0  0  0  0
   -5.3001    1.2869    0.1017 C   0  0  0  0  0  0  0  0  0  0  0  0
   -5.3152    2.3694    0.3016 H   0  0  0  0  0  0  0  0  0  0  0  0
   -6.4600    0.6272   -0.3369 C   0  0  0  0  0  0  0  0  0  0  0  0
   -7.3927    1.1934   -0.4840 H   0  0  0  0  0  0  0  0  0  0  0  0
   -6.4342   -0.7570   -0.5782 C   0  0  0  0  0  0  0  0  0  0  0  0
   -7.3466   -1.2752   -0.9116 H   0  0  0  0  0  0  0  0  0  0  0  0
   -5.2488   -1.4831   -0.3896 C   0  0  0  0  0  0  0  0  0  0  0  0
   -5.2031   -2.5721   -0.5539 H   0  0  0  0  0  0  0  0  0  0  0  0
  2  1  1  1  0  0  0
  2 12  1  0  0  0  0
  3  2  1  1  0  0  0
  4  5  1  0  0  0  0
  4  3  1  0  0  0  0
  6  4  1  0  0  0  0
  7  6  1  0  0  0  0
  8  6  2  0  0  0  0
  8 10  1  0  0  0  0
  9  8  1  0  0  0  0
 10 11  1  0  0  0  0
 10  3  1  0  0  0  0
 12 19  1  0  0  0  0
 13 12  2  0  0  0  0
 13 14  1  0  0  0  0
 14 15  1  0  0  0  0
 14 16  1  0  0  0  0
 14 17  1  0  0  0  0
 17 18  1  0  0  0  0
 19 20  1  0  0  0  0
 19 17  2  0  0  0  0
 21  2  1  0  0  0  0
 21 22  1  0  0  0  0
 22 23  1  0  0  0  0
 24 22  2  0  0  0  0
 24 25  1  0  0  0  0
 26 24  1  0  0  0  0
 27 26  1  0  0  0  0
 28 30  1  0  0  0  0
 28 26  2  0  0  0  0
 29 28  1  0  0  0  0
 30 21  2  0  0  0  0
 31 30  1  0  0  0  0
M  END
