6,7
 OpenBabel05122313053D

 59 59  0  0  1  0  0  0  0  0999 V2000
   -1.8914    0.9065    1.5589 P   0  0  0  0  0  2  0  0  0  0  0  0
    0.7131    0.1084    0.2189 P   0  0  2  0  0  0  0  0  0  0  0  0
   -0.3256    1.3457   -1.2031 P   0  0  0  0  0  2  0  0  0  0  0  0
    3.3295    1.7392    0.2608 Si  0  0  0  0  0  0  0  0  0  0  0  0
    3.0768   -1.2432   -1.2136 Si  0  0  0  0  0  0  0  0  0  0  0  0
   -1.7598    1.5058   -0.1376 C   0  0  2  0  0  3  0  0  0  0  0  0
   -0.3583   -0.0253    1.6235 C   0  0  1  0  0  3  0  0  0  0  0  0
   -2.8827    2.4419   -0.6542 C   0  0  0  0  0  0  0  0  0  0  0  0
   -3.1003    2.2827   -2.1715 C   0  0  0  0  0  0  0  0  0  0  0  0
   -2.4166    3.8878   -0.3548 C   0  0  0  0  0  0  0  0  0  0  0  0
   -4.2209    2.1980    0.0712 C   0  0  0  0  0  0  0  0  0  0  0  0
    0.0471   -0.7625    2.9195 C   0  0  0  0  0  0  0  0  0  0  0  0
    0.7994   -2.0788    2.6397 C   0  0  0  0  0  0  0  0  0  0  0  0
   -1.1964   -1.0917    3.7705 C   0  0  0  0  0  0  0  0  0  0  0  0
    0.9632    0.1894    3.7240 C   0  0  0  0  0  0  0  0  0  0  0  0
    2.5305   -0.0239    0.1926 C   0  0  0  0  0  0  0  0  0  0  0  0
    3.4937    2.4505   -1.4799 C   0  0  0  0  0  0  0  0  0  0  0  0
    2.2686    2.9087    1.3005 C   0  0  0  0  0  0  0  0  0  0  0  0
    5.0218    1.5476    1.0835 C   0  0  0  0  0  0  0  0  0  0  0  0
    4.9682   -1.2651   -1.2795 C   0  0  0  0  0  0  0  0  0  0  0  0
    2.4385   -2.9565   -0.7501 C   0  0  0  0  0  0  0  0  0  0  0  0
    2.3818   -0.6909   -2.8773 C   0  0  0  0  0  0  0  0  0  0  0  0
   -2.1719    2.4878   -2.7444 H   0  0  0  0  0  0  0  0  0  0  0  0
   -3.8699    3.0009   -2.5204 H   0  0  0  0  0  0  0  0  0  0  0  0
   -3.4388    1.2599   -2.4240 H   0  0  0  0  0  0  0  0  0  0  0  0
   -1.4755    4.1219   -0.8928 H   0  0  0  0  0  0  0  0  0  0  0  0
   -2.2327    4.0275    0.7299 H   0  0  0  0  0  0  0  0  0  0  0  0
   -3.1908    4.6163   -0.6723 H   0  0  0  0  0  0  0  0  0  0  0  0
   -4.1356    2.3718    1.1629 H   0  0  0  0  0  0  0  0  0  0  0  0
   -4.5935    1.1690   -0.0874 H   0  0  0  0  0  0  0  0  0  0  0  0
   -4.9845    2.9020   -0.3179 H   0  0  0  0  0  0  0  0  0  0  0  0
    1.1076   -2.5407    3.5995 H   0  0  0  0  0  0  0  0  0  0  0  0
    1.7164   -1.9257    2.0394 H   0  0  0  0  0  0  0  0  0  0  0  0
    0.1626   -2.8022    2.0994 H   0  0  0  0  0  0  0  0  0  0  0  0
   -1.7377   -0.1749    4.0787 H   0  0  0  0  0  0  0  0  0  0  0  0
   -0.8847   -1.6251    4.6913 H   0  0  0  0  0  0  0  0  0  0  0  0
   -1.9018   -1.7409    3.2174 H   0  0  0  0  0  0  0  0  0  0  0  0
    0.4557    1.1547    3.9226 H   0  0  0  0  0  0  0  0  0  0  0  0
    1.9040    0.4055    3.1790 H   0  0  0  0  0  0  0  0  0  0  0  0
    1.2327   -0.2694    4.6972 H   0  0  0  0  0  0  0  0  0  0  0  0
    2.8045   -0.5278    1.1452 H   0  0  0  0  0  0  0  0  0  0  0  0
    4.1919    1.8642   -2.1096 H   0  0  0  0  0  0  0  0  0  0  0  0
    3.8794    3.4892   -1.4221 H   0  0  0  0  0  0  0  0  0  0  0  0
    2.5096    2.4833   -1.9906 H   0  0  0  0  0  0  0  0  0  0  0  0
    2.1512    2.5498    2.3419 H   0  0  0  0  0  0  0  0  0  0  0  0
    1.2549    3.0381    0.8699 H   0  0  0  0  0  0  0  0  0  0  0  0
    2.7546    3.9060    1.3368 H   0  0  0  0  0  0  0  0  0  0  0  0
    4.9188    1.1372    2.1092 H   0  0  0  0  0  0  0  0  0  0  0  0
    5.5146    2.5383    1.1674 H   0  0  0  0  0  0  0  0  0  0  0  0
    5.6948    0.8796    0.5116 H   0  0  0  0  0  0  0  0  0  0  0  0
    5.4103   -1.5339   -0.2986 H   0  0  0  0  0  0  0  0  0  0  0  0
    5.3892   -0.2896   -1.5953 H   0  0  0  0  0  0  0  0  0  0  0  0
    5.2991   -2.0260   -2.0165 H   0  0  0  0  0  0  0  0  0  0  0  0
    2.9403   -3.3429    0.1606 H   0  0  0  0  0  0  0  0  0  0  0  0
    2.6279   -3.6735   -1.5750 H   0  0  0  0  0  0  0  0  0  0  0  0
    1.3458   -2.9339   -0.5633 H   0  0  0  0  0  0  0  0  0  0  0  0
    1.2929   -0.4924   -2.8298 H   0  0  0  0  0  0  0  0  0  0  0  0
    2.5316   -1.5002   -3.6211 H   0  0  0  0  0  0  0  0  0  0  0  0
    2.8843    0.2208   -3.2542 H   0  0  0  0  0  0  0  0  0  0  0  0
  1  7  1  0  0  0  0
  2 16  1  1  0  0  0
  2  7  1  0  0  0  0
  3  6  1  0  0  0  0
  3  2  1  0  0  0  0
  4 19  1  0  0  0  0
  4 18  1  0  0  0  0
  5 21  1  0  0  0  0
  5 16  1  0  0  0  0
  6  8  1  1  0  0  0
  6  1  1  0  0  0  0
  7 12  1  1  0  0  0
  8 10  1  0  0  0  0
  8 11  1  0  0  0  0
  9  8  1  0  0  0  0
 10 27  1  0  0  0  0
 11 29  1  0  0  0  0
 12 15  1  0  0  0  0
 12 14  1  0  0  0  0
 13 12  1  0  0  0  0
 13 32  1  0  0  0  0
 14 35  1  0  0  0  0
 14 36  1  0  0  0  0
 15 38  1  0  0  0  0
 15 40  1  0  0  0  0
 16  4  1  0  0  0  0
 16 41  1  0  0  0  0
 17 43  1  0  0  0  0
 17  4  1  0  0  0  0
 18 47  1  0  0  0  0
 18 45  1  0  0  0  0
 19 49  1  0  0  0  0
 19 48  1  0  0  0  0
 20  5  1  0  0  0  0
 20 51  1  0  0  0  0
 21 56  1  0  0  0  0
 21 54  1  0  0  0  0
 22 57  1  0  0  0  0
 22  5  1  0  0  0  0
 23  9  1  0  0  0  0
 24  9  1  0  0  0  0
 25  9  1  0  0  0  0
 26 10  1  0  0  0  0
 28 10  1  0  0  0  0
 30 11  1  0  0  0  0
 31 11  1  0  0  0  0
 33 13  1  0  0  0  0
 34 13  1  0  0  0  0
 37 14  1  0  0  0  0
 39 15  1  0  0  0  0
 42 17  1  0  0  0  0
 44 17  1  0  0  0  0
 46 18  1  0  0  0  0
 50 19  1  0  0  0  0
 52 20  1  0  0  0  0
 53 20  1  0  0  0  0
 55 21  1  0  0  0  0
 58 22  1  0  0  0  0
 59 22  1  0  0  0  0
M  END
