2,4
 OpenBabel05122313053D

 15 14  0  0  0  0  0  0  0  0999 V2000
   -0.7225    3.9138   -0.8092 O   0  0  0  0  0  0  0  0  0  0  0  0
    0.8641    2.5380   -1.9207 C   0  0  0  0  0  3  0  0  0  0  0  0
   -0.5044    2.9204   -1.6716 C   0  0  0  0  0  3  0  0  0  0  0  0
   -1.4930    1.9772   -2.1176 C   0  0  0  0  0  3  0  0  0  0  0  0
   -2.0754    4.1744   -0.3603 C   0  0  0  0  0  0  0  0  0  0  0  0
   -2.0254    5.3121    0.6347 C   0  0  0  0  0  0  0  0  0  0  0  0
    1.1142    2.1747   -2.9319 H   0  0  0  0  0  0  0  0  0  0  0  0
    1.6555    3.1180   -1.4214 H   0  0  0  0  0  0  0  0  0  0  0  0
   -1.3453    1.5502   -3.1231 H   0  0  0  0  0  0  0  0  0  0  0  0
   -2.5431    2.0798   -1.8101 H   0  0  0  0  0  0  0  0  0  0  0  0
   -2.4821    3.2533    0.1069 H   0  0  0  0  0  0  0  0  0  0  0  0
   -2.6989    4.4256   -1.2454 H   0  0  0  0  0  0  0  0  0  0  0  0
   -3.0510    5.5452    0.9818 H   0  0  0  0  0  0  0  0  0  0  0  0
   -1.4155    5.0387    1.5183 H   0  0  0  0  0  0  0  0  0  0  0  0
   -1.5955    6.2256    0.1800 H   0  0  0  0  0  0  0  0  0  0  0  0
  1  5  1  0  0  0  0
  2  3  1  0  0  0  0
  2  8  1  0  0  0  0
  3  1  1  0  0  0  0
  4 10  1  0  0  0  0
  4  3  1  0  0  0  0
  5 11  1  0  0  0  0
  5  6  1  0  0  0  0
  6 13  1  0  0  0  0
  6 14  1  0  0  0  0
  7  2  1  0  0  0  0
  9  4  1  0  0  0  0
 12  5  1  0  0  0  0
 15  6  1  0  0  0  0
M  END
