1,3
 OpenBabel05122313053D

 29 31  0  0  1  0  0  0  0  0999 V2000
   -1.4806    0.9602    1.5111 C   0  0  0  0  0  3  0  0  0  0  0  0
   -2.1738    1.2831    0.2959 C   0  0  2  0  0  3  0  0  0  0  0  0
   -1.3517    2.1740   -0.4760 C   0  0  2  0  0  3  0  0  0  0  0  0
   -0.2192    2.5284    0.3510 C   0  0  0  0  0  0  0  0  0  0  0  0
    0.8532    3.4464    0.1508 C   0  0  0  0  0  0  0  0  0  0  0  0
    1.7741    3.6346    1.1702 C   0  0  0  0  0  0  0  0  0  0  0  0
    1.6780    2.9159    2.4016 C   0  0  0  0  0  0  0  0  0  0  0  0
    0.6654    1.9920    2.6163 C   0  0  0  0  0  0  0  0  0  0  0  0
   -0.3024    1.7798    1.5899 C   0  0  0  0  0  0  0  0  0  0  0  0
   -3.5217    0.7743   -0.0270 C   0  0  0  0  0  0  0  0  0  0  0  0
   -3.9356   -0.5007    0.4240 C   0  0  0  0  0  0  0  0  0  0  0  0
   -5.2279   -0.9681    0.1639 C   0  0  0  0  0  0  0  0  0  0  0  0
   -6.1390   -0.1717   -0.5503 C   0  0  0  0  0  0  0  0  0  0  0  0
   -5.7445    1.0984   -0.9957 C   0  0  0  0  0  0  0  0  0  0  0  0
   -4.4483    1.5681   -0.7369 C   0  0  0  0  0  0  0  0  0  0  0  0
   -1.6130    2.7210   -1.8464 C   0  0  0  0  0  0  0  0  0  0  0  0
   -1.8903    0.3467    2.3198 H   0  0  0  0  0  0  0  0  0  0  0  0
    0.9314    4.0049   -0.7922 H   0  0  0  0  0  0  0  0  0  0  0  0
    2.5947    4.3549    1.0347 H   0  0  0  0  0  0  0  0  0  0  0  0
    2.4184    3.1066    3.1931 H   0  0  0  0  0  0  0  0  0  0  0  0
    0.5836    1.4522    3.5719 H   0  0  0  0  0  0  0  0  0  0  0  0
   -3.2231   -1.1463    0.9585 H   0  0  0  0  0  0  0  0  0  0  0  0
   -5.5238   -1.9692    0.5130 H   0  0  0  0  0  0  0  0  0  0  0  0
   -7.1546   -0.5414   -0.7584 H   0  0  0  0  0  0  0  0  0  0  0  0
   -6.4530    1.7348   -1.5474 H   0  0  0  0  0  0  0  0  0  0  0  0
   -4.1613    2.5750   -1.0690 H   0  0  0  0  0  0  0  0  0  0  0  0
   -2.2339    2.0252   -2.4415 H   0  0  0  0  0  0  0  0  0  0  0  0
   -0.6584    2.8650   -2.3899 H   0  0  0  0  0  0  0  0  0  0  0  0
   -2.1316    3.7031   -1.8040 H   0  0  0  0  0  0  0  0  0  0  0  0
  1  9  1  0  0  0  0
  1 17  1  0  0  0  0
  2 10  1  1  0  0  0
  2  1  1  0  0  0  0
  3 16  1  1  0  0  0
  3  2  1  0  0  0  0
  3  4  1  0  0  0  0
  4  9  1  0  0  0  0
  5  4  2  0  0  0  0
  5  6  1  0  0  0  0
  6  7  2  0  0  0  0
  7  8  1  0  0  0  0
  7 20  1  0  0  0  0
  8 21  1  0  0  0  0
  9  8  2  0  0  0  0
 10 11  1  0  0  0  0
 11 22  1  0  0  0  0
 12 11  2  0  0  0  0
 12 23  1  0  0  0  0
 13 12  1  0  0  0  0
 14 15  1  0  0  0  0
 14 13  2  0  0  0  0
 15 10  2  0  0  0  0
 16 29  1  0  0  0  0
 18  5  1  0  0  0  0
 19  6  1  0  0  0  0
 24 13  1  0  0  0  0
 25 14  1  0  0  0  0
 26 15  1  0  0  0  0
 27 16  1  0  0  0  0
 28 16  1  0  0  0  0
M  END
