5,15
 OpenBabel05122313053D

 33 36  0  0  1  0  0  0  0  0999 V2000
   -2.6155   -1.3098   -1.0265 C   0  0  0  0  0  0  0  0  0  0  0  0
   -3.4572   -0.1052   -0.5445 C   0  0  0  0  0  0  0  0  0  0  0  0
   -2.6903    1.1483   -1.0265 C   0  0  0  0  0  0  0  0  0  0  0  0
   -1.2564    0.6770   -1.0592 C   0  0  1  0  0  3  0  0  0  0  0  0
   -0.0445    1.4265   -1.0589 C   0  0  1  0  0  3  0  0  0  0  0  0
    0.1740    2.9199   -1.0267 C   0  0  0  0  0  0  0  0  0  0  0  0
    1.6381    3.0466   -0.5447 C   0  0  0  0  0  0  0  0  0  0  0  0
    2.3404    1.7554   -1.0258 C   0  0  0  0  0  0  0  0  0  0  0  0
    1.2152    0.7496   -1.0585 C   0  0  1  0  0  3  0  0  0  0  0  0
    1.2584   -0.6748   -1.0579 C   0  0  0  0  0  0  0  0  0  0  0  0
    2.4427   -1.6105   -1.0249 C   0  0  0  0  0  0  0  0  0  0  0  0
    1.8202   -2.9422   -0.5442 C   0  0  0  0  0  0  0  0  0  0  0  0
    0.3509   -2.9045   -1.0257 C   0  0  0  0  0  0  0  0  0  0  0  0
    0.0423   -1.4271   -1.0586 C   0  0  0  0  0  0  0  0  0  0  0  0
   -1.2128   -0.7524   -1.0589 C   0  0  1  0  0  3  0  0  0  0  0  0
   -2.9078   -1.6225   -2.0548 H   0  0  0  0  0  0  0  0  0  0  0  0
   -2.7143   -2.1997   -0.3743 H   0  0  0  0  0  0  0  0  0  0  0  0
   -4.5042   -0.1371   -0.9030 H   0  0  0  0  0  0  0  0  0  0  0  0
   -3.4781   -0.1059    0.5643 H   0  0  0  0  0  0  0  0  0  0  0  0
   -3.0013    1.4429   -2.0546 H   0  0  0  0  0  0  0  0  0  0  0  0
   -2.8427    2.0304   -0.3741 H   0  0  0  0  0  0  0  0  0  0  0  0
    0.0488    3.3296   -2.0548 H   0  0  0  0  0  0  0  0  0  0  0  0
   -0.5471    3.4502   -0.3741 H   0  0  0  0  0  0  0  0  0  0  0  0
    2.1341    3.9691   -0.9035 H   0  0  0  0  0  0  0  0  0  0  0  0
    1.6479    3.0655    0.5641 H   0  0  0  0  0  0  0  0  0  0  0  0
    2.7520    1.8767   -2.0536 H   0  0  0  0  0  0  0  0  0  0  0  0
    3.1799    1.4463   -0.3725 H   0  0  0  0  0  0  0  0  0  0  0  0
    2.8611   -1.7064   -2.0526 H   0  0  0  0  0  0  0  0  0  0  0  0
    3.2617   -1.2511   -0.3713 H   0  0  0  0  0  0  0  0  0  0  0  0
    2.3712   -3.8326   -0.9038 H   0  0  0  0  0  0  0  0  0  0  0  0
    1.8319   -2.9614    0.5647 H   0  0  0  0  0  0  0  0  0  0  0  0
    0.2506   -3.3215   -2.0536 H   0  0  0  0  0  0  0  0  0  0  0  0
   -0.3367   -3.4771   -0.3728 H   0  0  0  0  0  0  0  0  0  0  0  0
  1  2  1  0  0  0  0
  1 17  1  0  0  0  0
  2 19  1  0  0  0  0
  3  2  1  0  0  0  0
  3 21  1  0  0  0  0
  4 15  1  0  0  0  0
  4  5  1  0  0  0  0
  4  3  1  1  0  0  0
  5  9  1  0  0  0  0
  5  6  1  1  0  0  0
  6  7  1  0  0  0  0
  6 23  1  0  0  0  0
  7 25  1  0  0  0  0
  8  7  1  0  0  0  0
  8 27  1  0  0  0  0
  9 10  1  1  0  0  0
  9  8  1  0  0  0  0
 10 11  1  0  0  0  0
 11 12  1  0  0  0  0
 11 29  1  0  0  0  0
 12 31  1  0  0  0  0
 13 12  1  0  0  0  0
 13 33  1  0  0  0  0
 14 10  2  0  0  0  0
 14 13  1  0  0  0  0
 15 14  1  1  0  0  0
 15  1  1  0  0  0  0
 16  1  1  0  0  0  0
 18  2  1  0  0  0  0
 20  3  1  0  0  0  0
 22  6  1  0  0  0  0
 24  7  1  0  0  0  0
 26  8  1  0  0  0  0
 28 11  1  0  0  0  0
 30 12  1  0  0  0  0
 32 13  1  0  0  0  0
M  END
