1,27
 OpenBabel05122313053D

 45 45  0  0  1  0  0  0  0  0999 V2000
   -0.7442   -1.8556    0.3810 C   0  0  1  0  0  3  0  0  0  0  0  0
    0.1306   -2.4086   -0.6009 C   0  0  0  0  0  0  0  0  0  0  0  0
    1.4670   -2.3530   -0.0782 C   0  0  0  0  0  0  0  0  0  0  0  0
    1.4069   -1.8287    1.2472 C   0  0  0  0  0  0  0  0  0  0  0  0
    0.0395   -1.4881    1.5280 C   0  0  0  0  0  0  0  0  0  0  0  0
   -0.5405   -1.1760    2.8784 C   0  0  0  0  0  0  0  0  0  0  0  0
    0.2411   -1.0861    3.6535 H   0  0  0  0  0  0  0  0  0  0  0  0
   -1.2220   -1.9964    3.1912 H   0  0  0  0  0  0  0  0  0  0  0  0
   -1.1443   -0.2472    2.8978 H   0  0  0  0  0  0  0  0  0  0  0  0
    2.5070   -1.9614    2.2556 C   0  0  0  0  0  0  0  0  0  0  0  0
    2.4829   -1.1818    3.0378 H   0  0  0  0  0  0  0  0  0  0  0  0
    3.5091   -1.9491    1.7907 H   0  0  0  0  0  0  0  0  0  0  0  0
    2.4043   -2.9398    2.7749 H   0  0  0  0  0  0  0  0  0  0  0  0
    2.6784   -2.9023   -0.7659 C   0  0  0  0  0  0  0  0  0  0  0  0
    2.7368   -4.0060   -0.6407 H   0  0  0  0  0  0  0  0  0  0  0  0
    3.6161   -2.4754   -0.3594 H   0  0  0  0  0  0  0  0  0  0  0  0
    2.6506   -2.6819   -1.8502 H   0  0  0  0  0  0  0  0  0  0  0  0
   -0.2421   -3.0798   -1.8857 C   0  0  0  0  0  0  0  0  0  0  0  0
    0.2173   -2.5671   -2.7552 H   0  0  0  0  0  0  0  0  0  0  0  0
   -1.3379   -3.1057   -2.0338 H   0  0  0  0  0  0  0  0  0  0  0  0
    0.1215   -4.1290   -1.8837 H   0  0  0  0  0  0  0  0  0  0  0  0
   -2.2240   -1.6595    0.2820 C   0  0  0  0  0  0  0  0  0  0  0  0
   -2.7435   -2.1437    1.1370 H   0  0  0  0  0  0  0  0  0  0  0  0
   -2.6032   -2.1499   -0.6353 H   0  0  0  0  0  0  0  0  0  0  0  0
   -2.4883   -0.1440    0.2309 C   0  0  1  0  0  0  0  0  0  0  0  0
   -2.1638    0.2598    1.2151 H   0  0  0  0  0  0  0  0  0  0  0  0
   -1.5064    0.4642   -0.7950 C   0  0  0  0  0  3  0  0  0  0  0  0
   -1.5841    1.5612   -0.7178 H   0  0  0  0  0  0  0  0  0  0  0  0
   -1.7931    0.1123   -2.2591 C   0  0  0  0  0  0  0  0  0  0  0  0
   -1.7583   -0.9732   -2.4728 H   0  0  0  0  0  0  0  0  0  0  0  0
   -1.0616    0.5872   -2.9385 H   0  0  0  0  0  0  0  0  0  0  0  0
   -2.8024    0.4692   -2.5686 H   0  0  0  0  0  0  0  0  0  0  0  0
   -4.0193    0.2348    0.1584 C   0  0  0  0  0  0  0  0  0  0  0  0
   -4.8129   -0.6330   -0.8398 C   0  0  0  0  0  0  0  0  0  0  0  0
   -4.8214   -1.7006   -0.5416 H   0  0  0  0  0  0  0  0  0  0  0  0
   -4.4051   -0.5723   -1.8664 H   0  0  0  0  0  0  0  0  0  0  0  0
   -5.8704   -0.2972   -0.8781 H   0  0  0  0  0  0  0  0  0  0  0  0
   -4.1962    1.7180   -0.2146 C   0  0  0  0  0  0  0  0  0  0  0  0
   -5.2683    2.0017   -0.1668 H   0  0  0  0  0  0  0  0  0  0  0  0
   -3.8373    1.9357   -1.2396 H   0  0  0  0  0  0  0  0  0  0  0  0
   -3.6456    2.3776    0.4859 H   0  0  0  0  0  0  0  0  0  0  0  0
   -4.6293    0.0245    1.5612 C   0  0  0  0  0  0  0  0  0  0  0  0
   -4.1404    0.6799    2.3123 H   0  0  0  0  0  0  0  0  0  0  0  0
   -4.5193   -1.0242    1.9053 H   0  0  0  0  0  0  0  0  0  0  0  0
   -5.7137    0.2616    1.5631 H   0  0  0  0  0  0  0  0  0  0  0  0
  1 22  1  6  0  0  0
  1  5  1  0  0  0  0
  2  3  2  0  0  0  0
  2  1  1  0  0  0  0
  3  4  1  0  0  0  0
  4  5  2  0  0  0  0
  4 10  1  0  0  0  0
  5  6  1  0  0  0  0
  6  9  1  0  0  0  0
  6  8  1  0  0  0  0
  6  7  1  0  0  0  0
 10 13  1  0  0  0  0
 10 11  1  0  0  0  0
 12 10  1  0  0  0  0
 14 15  1  0  0  0  0
 14 16  1  0  0  0  0
 14  3  1  0  0  0  0
 17 14  1  0  0  0  0
 18 21  1  0  0  0  0
 18  2  1  0  0  0  0
 19 18  1  0  0  0  0
 20 18  1  0  0  0  0
 22 23  1  0  0  0  0
 24 22  1  0  0  0  0
 25 22  1  0  0  0  0
 25 26  1  1  0  0  0
 27 28  1  0  0  0  0
 27 25  1  0  0  0  0
 29 27  1  0  0  0  0
 30 29  1  0  0  0  0
 31 29  1  0  0  0  0
 32 29  1  0  0  0  0
 33 25  1  0  0  0  0
 33 42  1  0  0  0  0
 34 35  1  0  0  0  0
 34 33  1  0  0  0  0
 36 34  1  0  0  0  0
 37 34  1  0  0  0  0
 38 39  1  0  0  0  0
 38 33  1  0  0  0  0
 38 41  1  0  0  0  0
 40 38  1  0  0  0  0
 42 45  1  0  0  0  0
 42 44  1  0  0  0  0
 42 43  1  0  0  0  0
M  END
