1,17
 OpenBabel05122313053D

 31 31  0  0  0  0  0  0  0  0999 V2000
    1.5104   -0.8657   -0.3938 C   0  0  0  0  0  2  0  0  0  0  0  0
    2.2832   -1.7865   -0.9570 O   0  0  0  0  0  0  0  0  0  0  0  0
    1.8012   -3.0728   -1.3534 C   0  0  0  0  0  0  0  0  0  0  0  0
    2.5767   -3.4915   -2.0206 H   0  0  0  0  0  0  0  0  0  0  0  0
    0.8399   -2.9888   -1.8931 H   0  0  0  0  0  0  0  0  0  0  0  0
    1.6773   -3.7257   -0.4692 H   0  0  0  0  0  0  0  0  0  0  0  0
    2.3082    0.3583   -0.1892 C   0  0  0  0  0  0  0  0  0  0  0  0
    3.7115    0.4667   -0.2983 C   0  0  0  0  0  0  0  0  0  0  0  0
    4.3007   -0.4258   -0.5522 H   0  0  0  0  0  0  0  0  0  0  0  0
    4.3312    1.6963   -0.0525 C   0  0  0  0  0  0  0  0  0  0  0  0
    5.4271    1.7799   -0.1049 H   0  0  0  0  0  0  0  0  0  0  0  0
    3.5580    2.8315    0.2740 C   0  0  0  0  0  0  0  0  0  0  0  0
    4.0576    3.7933    0.4658 H   0  0  0  0  0  0  0  0  0  0  0  0
    2.1627    2.7519    0.3498 C   0  0  0  0  0  0  0  0  0  0  0  0
    1.5568    3.6383    0.5859 H   0  0  0  0  0  0  0  0  0  0  0  0
    1.5302    1.5128    0.1083 C   0  0  0  0  0  0  0  0  0  0  0  0
    0.1256    1.2862    0.0876 C   0  0  0  0  0  2  0  0  0  0  0  0
   -1.1246    1.2932   -0.0896 C   0  0  0  0  0  2  0  0  0  0  0  0
   -2.3833    2.0200   -0.4349 C   0  0  0  0  0  0  0  0  0  0  0  0
   -3.2852    1.2145   -1.3893 C   0  0  0  0  0  0  0  0  0  0  0  0
   -4.1825    1.8145   -1.6423 H   0  0  0  0  0  0  0  0  0  0  0  0
   -3.6267    0.2690   -0.9285 H   0  0  0  0  0  0  0  0  0  0  0  0
   -2.7578    0.9690   -2.3312 H   0  0  0  0  0  0  0  0  0  0  0  0
   -3.1483    2.3536    0.8683 C   0  0  0  0  0  0  0  0  0  0  0  0
   -4.0438    2.9609    0.6236 H   0  0  0  0  0  0  0  0  0  0  0  0
   -2.5113    2.9374    1.5619 H   0  0  0  0  0  0  0  0  0  0  0  0
   -3.4852    1.4389    1.3894 H   0  0  0  0  0  0  0  0  0  0  0  0
   -1.9521    3.3369   -1.1253 C   0  0  0  0  0  0  0  0  0  0  0  0
   -2.8472    3.9398   -1.3816 H   0  0  0  0  0  0  0  0  0  0  0  0
   -1.3907    3.1305   -2.0577 H   0  0  0  0  0  0  0  0  0  0  0  0
   -1.3061    3.9414   -0.4579 H   0  0  0  0  0  0  0  0  0  0  0  0
  1  7  1  0  0  0  0
  2  1  1  0  0  0  0
  3  2  1  0  0  0  0
  3  6  1  0  0  0  0
  4  3  1  0  0  0  0
  5  3  1  0  0  0  0
  7 16  1  0  0  0  0
  8  7  2  0  0  0  0
  8 10  1  0  0  0  0
  9  8  1  0  0  0  0
 10 12  2  0  0  0  0
 11 10  1  0  0  0  0
 12 14  1  0  0  0  0
 12 13  1  0  0  0  0
 14 15  1  0  0  0  0
 16 14  2  0  0  0  0
 17 16  1  0  0  0  0
 18 17  1  0  0  0  0
 19 18  1  0  0  0  0
 19 24  1  0  0  0  0
 20 22  1  0  0  0  0
 20 19  1  0  0  0  0
 21 20  1  0  0  0  0
 23 20  1  0  0  0  0
 24 27  1  0  0  0  0
 24 26  1  0  0  0  0
 25 24  1  0  0  0  0
 28 31  1  0  0  0  0
 28 19  1  0  0  0  0
 29 28  1  0  0  0  0
 30 28  1  0  0  0  0
M  END
