3,5
 OpenBabel05122313053D

 17 18  0  0  1  0  0  0  0  0999 V2000
   -3.1382    0.4137   -0.6986 C   0  0  1  0  0  0  0  0  0  0  0  0
   -2.2447    1.0966    0.3540 C   0  0  1  0  0  3  0  0  0  0  0  0
   -1.9094    0.0735    1.3327 C   0  0  0  0  0  3  0  0  0  0  0  0
   -2.6429   -1.1826    0.8384 C   0  0  2  0  0  0  0  0  0  0  0  0
   -1.7474   -1.4592   -0.3884 C   0  0  0  0  0  3  0  0  0  0  0  0
   -2.0498   -0.4621   -1.3500 C   0  0  0  0  0  3  0  0  0  0  0  0
   -3.9103   -0.6014    0.1707 C   0  0  0  0  0  0  0  0  0  0  0  0
   -1.4262    2.1949    0.0796 C   0  0  0  0  0  3  0  0  0  0  0  0
   -3.7038    1.0932   -1.3584 H   0  0  0  0  0  0  0  0  0  0  0  0
   -1.5459    0.2381    2.3555 H   0  0  0  0  0  0  0  0  0  0  0  0
   -2.7560   -2.0078    1.5602 H   0  0  0  0  0  0  0  0  0  0  0  0
   -1.2173   -2.4022   -0.5623 H   0  0  0  0  0  0  0  0  0  0  0  0
   -1.8045   -0.4827   -2.4198 H   0  0  0  0  0  0  0  0  0  0  0  0
   -4.4607   -1.3493   -0.4350 H   0  0  0  0  0  0  0  0  0  0  0  0
   -4.5982   -0.1198    0.8962 H   0  0  0  0  0  0  0  0  0  0  0  0
   -0.8473    2.6669    0.8880 H   0  0  0  0  0  0  0  0  0  0  0  0
   -1.5925    2.7839   -0.8354 H   0  0  0  0  0  0  0  0  0  0  0  0
  1  9  1  6  0  0  0
  1  7  1  0  0  0  0
  1  2  1  0  0  0  0
  2  8  1  6  0  0  0
  2  3  1  0  0  0  0
  3 10  1  0  0  0  0
  4  3  1  0  0  0  0
  4 11  1  1  0  0  0
  5  4  1  0  0  0  0
  6  1  1  0  0  0  0
  6  5  1  0  0  0  0
  7  4  1  0  0  0  0
  7 15  1  0  0  0  0
  8 16  1  0  0  0  0
 12  5  1  0  0  0  0
 13  6  1  0  0  0  0
 14  7  1  0  0  0  0
 17  8  1  0  0  0  0
M  END
