2,6
 OpenBabel05122313053D

 17 16  0  0  0  0  0  0  0  0999 V2000
    3.0369    1.4408   -0.0008 O   0  0  0  0  0  0  0  0  0  0  0  0
    0.6754   -1.9410    0.0014 C   0  0  0  0  0  3  0  0  0  0  0  0
    1.7855   -2.7603    0.0018 C   0  0  0  0  0  0  0  0  0  0  0  0
    3.1051   -2.2080    0.0013 C   0  0  0  0  0  3  0  0  0  0  0  0
    3.4840   -0.8676    0.0004 C   0  0  0  0  0  0  0  0  0  0  0  0
    2.5162    0.1940   -0.0001 C   0  0  0  0  0  3  0  0  0  0  0  0
    1.6555   -4.2698    0.0027 C   0  0  0  0  0  0  0  0  0  0  0  0
    4.9554   -0.5009    0.0000 C   0  0  0  0  0  0  0  0  0  0  0  0
    4.0211    1.3916   -0.0009 H   0  0  0  0  0  0  0  0  0  0  0  0
   -0.2953   -2.4748    0.0018 H   0  0  0  0  0  0  0  0  0  0  0  0
    3.9344   -2.9378    0.0016 H   0  0  0  0  0  0  0  0  0  0  0  0
    0.5941   -4.5814    0.0037 H   0  0  0  0  0  0  0  0  0  0  0  0
    2.1413   -4.7200   -0.8883 H   0  0  0  0  0  0  0  0  0  0  0  0
    2.1427   -4.7190    0.8936 H   0  0  0  0  0  0  0  0  0  0  0  0
    5.5928   -1.4043    0.0005 H   0  0  0  0  0  0  0  0  0  0  0  0
    5.2472    0.0863   -0.9003 H   0  0  0  0  0  0  0  0  0  0  0  0
    5.2474    0.0874    0.8995 H   0  0  0  0  0  0  0  0  0  0  0  0
  1  6  1  0  0  0  0
  2  3  2  0  0  0  0
  2 10  1  0  0  0  0
  3  7  1  0  0  0  0
  4 11  1  0  0  0  0
  4  3  1  0  0  0  0
  5  4  1  0  0  0  0
  6  5  2  0  0  0  0
  7 12  1  0  0  0  0
  7 14  1  0  0  0  0
  8  5  1  0  0  0  0
  8 15  1  0  0  0  0
  8 17  1  0  0  0  0
  9  1  1  0  0  0  0
 13  7  1  0  0  0  0
 16  8  1  0  0  0  0
M  END
