24,42
 OpenBabel05122313053D

 53 58  0  0  1  0  0  0  0  0999 V2000
   -2.8643   -0.6893   -0.8026 C   0  0  2  0  0  0  0  0  0  0  0  0
   -2.7395   -0.1374   -1.7597 H   0  0  0  0  0  0  0  0  0  0  0  0
   -2.8070    0.3183    0.4076 C   0  0  2  0  0  0  0  0  0  0  0  0
   -2.2042   -0.1567    1.2094 H   0  0  0  0  0  0  0  0  0  0  0  0
   -4.2741    0.3259    0.9112 C   0  0  1  0  0  0  0  0  0  0  0  0
   -4.3719    0.7672    1.9233 H   0  0  0  0  0  0  0  0  0  0  0  0
   -5.1999    0.9715   -0.1458 C   0  0  0  0  0  0  0  0  0  0  0  0
   -4.8158    1.9464   -0.5067 H   0  0  0  0  0  0  0  0  0  0  0  0
   -6.2028    1.1668    0.2841 H   0  0  0  0  0  0  0  0  0  0  0  0
   -4.3245   -1.2178   -0.7321 C   0  0  1  0  0  0  0  0  0  0  0  0
   -4.4598   -2.1988   -1.2291 H   0  0  0  0  0  0  0  0  0  0  0  0
   -4.6299   -1.1667    0.7804 C   0  0  0  0  0  0  0  0  0  0  0  0
   -3.9779   -1.8241    1.3907 H   0  0  0  0  0  0  0  0  0  0  0  0
   -5.6892   -1.3940    1.0188 H   0  0  0  0  0  0  0  0  0  0  0  0
   -5.2610   -0.1123   -1.2675 C   0  0  0  0  0  0  0  0  0  0  0  0
   -6.2915   -0.5011   -1.3955 H   0  0  0  0  0  0  0  0  0  0  0  0
   -4.9301    0.2673   -2.2557 H   0  0  0  0  0  0  0  0  0  0  0  0
   -1.8160   -1.8094   -0.7607 C   0  0  0  0  0  0  0  0  0  0  0  0
   -2.0940   -2.5864   -1.5095 H   0  0  0  0  0  0  0  0  0  0  0  0
   -1.8408   -2.3185    0.2267 H   0  0  0  0  0  0  0  0  0  0  0  0
   -0.4065   -1.3805   -1.0596 C   0  0  0  0  0  0  0  0  0  0  0  0
    0.0094   -0.2061   -1.7440 C   0  0  0  0  0  0  0  0  0  0  0  0
   -0.6569    0.5909   -2.0868 H   0  0  0  0  0  0  0  0  0  0  0  0
    1.4317   -0.1983   -1.8859 C   0  0  0  0  0  3  0  0  0  0  0  0
    2.0243    0.5860   -2.3732 H   0  0  0  0  0  0  0  0  0  0  0  0
    1.9133   -1.4775   -1.4241 C   0  0  0  0  0  0  0  0  0  0  0  0
    0.7809   -2.1942   -0.8761 C   0  0  0  0  0  0  0  0  0  0  0  0
    0.9648   -3.4832   -0.3013 C   0  0  0  0  0  0  0  0  0  0  0  0
    0.1119   -4.0230    0.1337 H   0  0  0  0  0  0  0  0  0  0  0  0
    2.2351   -4.0403   -0.3119 C   0  0  0  0  0  0  0  0  0  0  0  0
    2.3944   -5.0399    0.1197 H   0  0  0  0  0  0  0  0  0  0  0  0
    3.3467   -3.3415   -0.8702 C   0  0  0  0  0  0  0  0  0  0  0  0
    4.3377   -3.8194   -0.8595 H   0  0  0  0  0  0  0  0  0  0  0  0
    3.2044   -2.0727   -1.4106 C   0  0  0  0  0  0  0  0  0  0  0  0
    4.0677   -1.5278   -1.8186 H   0  0  0  0  0  0  0  0  0  0  0  0
   -2.2019    1.7114    0.1245 C   0  0  0  0  0  0  0  0  0  0  0  0
   -2.3110    1.9690   -0.9497 H   0  0  0  0  0  0  0  0  0  0  0  0
   -2.7992    2.4772    0.6685 H   0  0  0  0  0  0  0  0  0  0  0  0
   -0.7633    1.8927    0.5437 C   0  0  0  0  0  0  0  0  0  0  0  0
   -0.2611    1.7410    1.8744 C   0  0  0  0  0  0  0  0  0  0  0  0
   -0.8380    1.3491    2.7203 H   0  0  0  0  0  0  0  0  0  0  0  0
    1.1148    2.0895    1.9212 C   0  0  0  0  0  3  0  0  0  0  0  0
    1.7700    2.0326    2.7972 H   0  0  0  0  0  0  0  0  0  0  0  0
    1.4846    2.5693    0.6131 C   0  0  0  0  0  0  0  0  0  0  0  0
    0.3077    2.4822   -0.2329 C   0  0  0  0  0  0  0  0  0  0  0  0
    0.3662    2.9733   -1.5698 C   0  0  0  0  0  0  0  0  0  0  0  0
   -0.5340    2.9715   -2.2030 H   0  0  0  0  0  0  0  0  0  0  0  0
    1.5650    3.4808   -2.0495 C   0  0  0  0  0  0  0  0  0  0  0  0
    1.6158    3.8774   -3.0749 H   0  0  0  0  0  0  0  0  0  0  0  0
    2.7392    3.5035   -1.2371 C   0  0  0  0  0  0  0  0  0  0  0  0
    3.6755    3.8980   -1.6592 H   0  0  0  0  0  0  0  0  0  0  0  0
    2.7134    3.0536    0.0749 C   0  0  0  0  0  0  0  0  0  0  0  0
    3.6134    3.0791    0.7053 H   0  0  0  0  0  0  0  0  0  0  0  0
  1  2  1  6  0  0  0
  1 18  1  0  0  0  0
  1 10  1  0  0  0  0
  1  3  1  0  0  0  0
  3  5  1  0  0  0  0
  3  4  1  1  0  0  0
  5  6  1  1  0  0  0
  7  9  1  0  0  0  0
  7  5  1  0  0  0  0
  8  7  1  0  0  0  0
 10 11  1  6  0  0  0
 10 12  1  0  0  0  0
 12  5  1  0  0  0  0
 12 14  1  0  0  0  0
 12 13  1  0  0  0  0
 15 10  1  0  0  0  0
 15  7  1  0  0  0  0
 16 15  1  0  0  0  0
 17 15  1  0  0  0  0
 18 20  1  0  0  0  0
 19 18  1  0  0  0  0
 21 27  1  0  0  0  0
 21 18  1  0  0  0  0
 22 21  2  0  0  0  0
 23 22  1  0  0  0  0
 24 22  1  0  0  0  0
 24 26  1  0  0  0  0
 25 24  1  0  0  0  0
 26 34  2  0  0  0  0
 26 27  1  0  0  0  0
 27 28  2  0  0  0  0
 28 29  1  0  0  0  0
 30 28  1  0  0  0  0
 30 31  1  0  0  0  0
 32 33  1  0  0  0  0
 32 30  2  0  0  0  0
 34 32  1  0  0  0  0
 35 34  1  0  0  0  0
 36  3  1  0  0  0  0
 36 39  1  0  0  0  0
 36 38  1  0  0  0  0
 37 36  1  0  0  0  0
 39 40  2  0  0  0  0
 40 42  1  0  0  0  0
 40 41  1  0  0  0  0
 42 43  1  0  0  0  0
 44 42  1  0  0  0  0
 45 39  1  0  0  0  0
 45 44  2  0  0  0  0
 46 45  1  0  0  0  0
 47 46  1  0  0  0  0
 48 46  2  0  0  0  0
 48 50  1  0  0  0  0
 49 48  1  0  0  0  0
 50 52  2  0  0  0  0
 51 50  1  0  0  0  0
 52 44  1  0  0  0  0
 52 53  1  0  0  0  0
M  END
