7,15
 OpenBabel05122313053D

 16 16  0  0  0  0  0  0  0  0999 V2000
   -2.1542    2.3556    0.8209 C   0  0  0  0  0  0  0  0  0  0  0  0
   -3.0825    1.7565    0.9337 H   0  0  0  0  0  0  0  0  0  0  0  0
   -2.3383    3.2881    1.4031 H   0  0  0  0  0  0  0  0  0  0  0  0
   -1.9251    2.6799   -0.6698 C   0  0  0  0  0  0  0  0  0  0  0  0
   -2.8872    2.6374   -1.2219 H   0  0  0  0  0  0  0  0  0  0  0  0
   -1.5733    3.7289   -0.7782 H   0  0  0  0  0  0  0  0  0  0  0  0
   -0.9077    1.7382   -1.3215 C   0  0  0  0  0  3  0  0  0  0  0  0
   -1.1716    1.4108   -2.3406 H   0  0  0  0  0  0  0  0  0  0  0  0
    0.5071    2.0752   -1.1796 C   0  0  0  0  0  0  0  0  0  0  0  0
    1.1965    2.0886   -2.0379 H   0  0  0  0  0  0  0  0  0  0  0  0
    1.0513    2.3165    0.1133 C   0  0  0  0  0  0  0  0  0  0  0  0
    2.1180    2.5855    0.1797 H   0  0  0  0  0  0  0  0  0  0  0  0
    0.3858    2.0194    1.3383 C   0  0  0  0  0  3  0  0  0  0  0  0
    1.0228    1.9901    2.2372 H   0  0  0  0  0  0  0  0  0  0  0  0
   -1.0024    1.5616    1.4189 C   0  0  0  0  0  3  0  0  0  0  0  0
   -1.2352    1.1490    2.4164 H   0  0  0  0  0  0  0  0  0  0  0  0
  1  2  1  0  0  0  0
  1  3  1  0  0  0  0
  1 15  1  0  0  0  0
  4  1  1  0  0  0  0
  5  4  1  0  0  0  0
  6  4  1  0  0  0  0
  7  9  1  0  0  0  0
  7  4  1  0  0  0  0
  8  7  1  0  0  0  0
  9 11  2  0  0  0  0
 10  9  1  0  0  0  0
 11 12  1  0  0  0  0
 11 13  1  0  0  0  0
 13 15  1  0  0  0  0
 13 14  1  0  0  0  0
 15 16  1  0  0  0  0
M  END
