6,15
 OpenBabel05122313053D

 43 45  0  0  1  0  0  0  0  0999 V2000
   -2.2060    1.9807    0.0099 P   0  0  0  0  0  4  0  0  0  0  0  0
   -1.1997    0.2745    0.0163 B   0  0  1  0  0  0  0  0  0  0  0  0
   -1.3118    3.5786    0.1728 C   0  0  0  0  0  0  0  0  0  0  0  0
   -3.1559    2.1519   -1.5437 C   0  0  0  0  0  0  0  0  0  0  0  0
   -3.4366    2.0396    1.3626 C   0  0  0  0  0  0  0  0  0  0  0  0
   -0.1760    0.1890   -1.2426 C   0  0  1  0  0  3  0  0  0  0  0  0
    0.7705    1.1713   -1.6925 C   0  0  0  0  0  3  0  0  0  0  0  0
    1.7995    0.5332   -2.4564 C   0  0  0  0  0  0  0  0  0  0  0  0
    1.5266   -0.8548   -2.4674 C   0  0  0  0  0  0  0  0  0  0  0  0
    0.3302   -1.0701   -1.7145 C   0  0  0  0  0  3  0  0  0  0  0  0
   -0.1681    0.1658    1.2663 C   0  0  1  0  0  3  0  0  0  0  0  0
    0.3396   -1.1028    1.7105 C   0  0  0  0  0  3  0  0  0  0  0  0
    1.5435   -0.9042    2.4560 C   0  0  0  0  0  0  0  0  0  0  0  0
    1.8202    0.4831    2.4666 C   0  0  0  0  0  0  0  0  0  0  0  0
    0.7864    1.1375    1.7232 C   0  0  0  0  0  3  0  0  0  0  0  0
   -4.0117   -2.2223   -1.2183 C   0  0  0  0  0  0  0  0  0  0  0  0
   -4.5488   -2.6940   -0.0098 C   0  0  0  0  0  0  0  0  0  0  0  0
   -4.0106   -2.2421    1.2061 C   0  0  0  0  0  0  0  0  0  0  0  0
   -2.9493   -1.3227    1.2069 C   0  0  0  0  0  0  0  0  0  0  0  0
   -2.3902   -0.8262    0.0049 C   0  0  0  0  0  0  0  0  0  0  0  0
   -2.9495   -1.3036   -1.2045 C   0  0  0  0  0  0  0  0  0  0  0  0
   -0.8099    3.6235    1.1576 H   0  0  0  0  0  0  0  0  0  0  0  0
   -2.0268    4.4212    0.0928 H   0  0  0  0  0  0  0  0  0  0  0  0
   -0.5487    3.6745   -0.6219 H   0  0  0  0  0  0  0  0  0  0  0  0
   -3.8155    1.2702   -1.6550 H   0  0  0  0  0  0  0  0  0  0  0  0
   -2.4437    2.1667   -2.3918 H   0  0  0  0  0  0  0  0  0  0  0  0
   -3.7606    3.0795   -1.5432 H   0  0  0  0  0  0  0  0  0  0  0  0
   -4.1125    1.1682    1.2730 H   0  0  0  0  0  0  0  0  0  0  0  0
   -4.0196    2.9803    1.3265 H   0  0  0  0  0  0  0  0  0  0  0  0
   -2.9022    1.9691    2.3302 H   0  0  0  0  0  0  0  0  0  0  0  0
    0.7532    2.2446   -1.4636 H   0  0  0  0  0  0  0  0  0  0  0  0
    2.6668    1.0285   -2.9078 H   0  0  0  0  0  0  0  0  0  0  0  0
    2.1459   -1.6326   -2.9289 H   0  0  0  0  0  0  0  0  0  0  0  0
   -0.1216   -2.0480   -1.5028 H   0  0  0  0  0  0  0  0  0  0  0  0
   -0.1168   -2.0757    1.4857 H   0  0  0  0  0  0  0  0  0  0  0  0
    2.1645   -1.6918    2.8982 H   0  0  0  0  0  0  0  0  0  0  0  0
    2.6930    0.9681    2.9187 H   0  0  0  0  0  0  0  0  0  0  0  0
    0.7733    2.2135    1.5090 H   0  0  0  0  0  0  0  0  0  0  0  0
   -4.4182   -2.5786   -2.1779 H   0  0  0  0  0  0  0  0  0  0  0  0
   -5.3780   -3.4181   -0.0154 H   0  0  0  0  0  0  0  0  0  0  0  0
   -4.4166   -2.6139    2.1599 H   0  0  0  0  0  0  0  0  0  0  0  0
   -2.5303   -0.9866    2.1695 H   0  0  0  0  0  0  0  0  0  0  0  0
   -2.5274   -0.9565   -2.1619 H   0  0  0  0  0  0  0  0  0  0  0  0
  1  3  1  0  0  0  0
  1  5  1  0  0  0  0
  2  1  1  1  0  0  0
  3 22  1  0  0  0  0
  4 27  1  0  0  0  0
  4  1  1  0  0  0  0
  5 30  1  0  0  0  0
  6  2  1  1  0  0  0
  7 31  1  0  0  0  0
  7  6  1  0  0  0  0
  8  7  1  0  0  0  0
  9  8  2  0  0  0  0
  9 10  1  0  0  0  0
 10 34  1  0  0  0  0
 10  6  1  0  0  0  0
 11  2  1  6  0  0  0
 11 12  1  0  0  0  0
 11 15  1  0  0  0  0
 12 13  1  0  0  0  0
 13 14  2  0  0  0  0
 13 36  1  0  0  0  0
 14 37  1  0  0  0  0
 15 14  1  0  0  0  0
 16 21  2  0  0  0  0
 16 17  1  0  0  0  0
 17 18  2  0  0  0  0
 18 19  1  0  0  0  0
 18 41  1  0  0  0  0
 19 42  1  0  0  0  0
 20  2  1  0  0  0  0
 20 19  2  0  0  0  0
 21 20  1  0  0  0  0
 23  3  1  0  0  0  0
 24  3  1  0  0  0  0
 25  4  1  0  0  0  0
 26  4  1  0  0  0  0
 28  5  1  0  0  0  0
 29  5  1  0  0  0  0
 32  8  1  0  0  0  0
 33  9  1  0  0  0  0
 35 12  1  0  0  0  0
 38 15  1  0  0  0  0
 39 16  1  0  0  0  0
 40 17  1  0  0  0  0
 43 21  1  0  0  0  0
M  END
