2,11
 OpenBabel05122313053D

 51 52  0  0  1  0  0  0  0  0999 V2000
   -0.0004    2.8419   -0.0008 C   0  0  0  0  0  0  0  0  0  0  0  0
   -1.0682    1.8525    0.4840 C   0  0  1  0  0  3  0  0  0  0  0  0
   -2.0001    1.1558   -0.3533 C   0  0  0  0  0  0  0  0  0  0  0  0
   -2.5843    0.0692    0.3830 C   0  0  0  0  0  0  0  0  0  0  0  0
   -1.9527    0.0561    1.6556 C   0  0  0  0  0  0  0  0  0  0  0  0
   -1.0238    1.1389    1.7226 C   0  0  0  0  0  0  0  0  0  0  0  0
   -3.7877   -0.7765   -0.0204 C   0  0  0  0  0  0  0  0  0  0  0  0
   -4.0712   -0.6624   -1.5287 C   0  0  0  0  0  0  0  0  0  0  0  0
   -5.0020   -0.2140    0.7594 C   0  0  0  0  0  0  0  0  0  0  0  0
   -3.5800   -2.2550    0.3635 C   0  0  0  0  0  0  0  0  0  0  0  0
    1.0673    1.8523   -0.4856 C   0  0  1  0  0  3  0  0  0  0  0  0
    2.0003    1.1567    0.3513 C   0  0  0  0  0  3  0  0  0  0  0  0
    2.5838    0.0694   -0.3846 C   0  0  0  0  0  0  0  0  0  0  0  0
    1.9509    0.0551   -1.6565 C   0  0  0  0  0  0  0  0  0  0  0  0
    1.0216    1.1376   -1.7235 C   0  0  0  0  0  3  0  0  0  0  0  0
    3.7875   -0.7761    0.0183 C   0  0  0  0  0  0  0  0  0  0  0  0
    4.0740   -0.6589    1.5257 C   0  0  0  0  0  0  0  0  0  0  0  0
    3.5781   -2.2554   -0.3620 C   0  0  0  0  0  0  0  0  0  0  0  0
    5.0008   -0.2163   -0.7651 C   0  0  0  0  0  0  0  0  0  0  0  0
   -0.5176    3.7269   -1.1429 C   0  0  0  0  0  0  0  0  0  0  0  0
    0.5171    3.7267    1.1413 C   0  0  0  0  0  0  0  0  0  0  0  0
   -2.2515    1.4182   -1.3871 H   0  0  0  0  0  0  0  0  0  0  0  0
   -2.1409   -0.6617    2.4618 H   0  0  0  0  0  0  0  0  0  0  0  0
   -0.3775    1.3622    2.5801 H   0  0  0  0  0  0  0  0  0  0  0  0
    2.2527    1.4199    1.3846 H   0  0  0  0  0  0  0  0  0  0  0  0
    2.1385   -0.6634   -2.4623 H   0  0  0  0  0  0  0  0  0  0  0  0
    0.3745    1.3600   -2.5806 H   0  0  0  0  0  0  0  0  0  0  0  0
   -3.2048   -1.0047   -2.1265 H   0  0  0  0  0  0  0  0  0  0  0  0
   -4.9451   -1.2898   -1.7961 H   0  0  0  0  0  0  0  0  0  0  0  0
   -4.3141    0.3806   -1.8179 H   0  0  0  0  0  0  0  0  0  0  0  0
   -4.8552   -0.3064    1.8543 H   0  0  0  0  0  0  0  0  0  0  0  0
   -5.1647    0.8580    0.5266 H   0  0  0  0  0  0  0  0  0  0  0  0
   -5.9229   -0.7701    0.4867 H   0  0  0  0  0  0  0  0  0  0  0  0
   -4.4922   -2.8399    0.1273 H   0  0  0  0  0  0  0  0  0  0  0  0
   -3.3815   -2.3719    1.4478 H   0  0  0  0  0  0  0  0  0  0  0  0
   -2.7296   -2.6929   -0.1934 H   0  0  0  0  0  0  0  0  0  0  0  0
    4.3180    0.3846    1.8122 H   0  0  0  0  0  0  0  0  0  0  0  0
    3.2087   -0.9995    2.1260 H   0  0  0  0  0  0  0  0  0  0  0  0
    4.9482   -1.2862    1.7929 H   0  0  0  0  0  0  0  0  0  0  0  0
    4.4904   -2.8403   -0.1266 H   0  0  0  0  0  0  0  0  0  0  0  0
    2.7286   -2.6915    0.1979 H   0  0  0  0  0  0  0  0  0  0  0  0
    3.3770   -2.3745   -1.4456 H   0  0  0  0  0  0  0  0  0  0  0  0
    5.1646    0.8562   -0.5351 H   0  0  0  0  0  0  0  0  0  0  0  0
    5.9218   -0.7724   -0.4928 H   0  0  0  0  0  0  0  0  0  0  0  0
    4.8519   -0.3111   -1.8596 H   0  0  0  0  0  0  0  0  0  0  0  0
   -0.9028    3.1363   -1.9957 H   0  0  0  0  0  0  0  0  0  0  0  0
    0.2960    4.3747   -1.5249 H   0  0  0  0  0  0  0  0  0  0  0  0
   -1.3430    4.3727   -0.7832 H   0  0  0  0  0  0  0  0  0  0  0  0
    0.9021    3.1362    1.9941 H   0  0  0  0  0  0  0  0  0  0  0  0
   -0.2965    4.3748    1.5233 H   0  0  0  0  0  0  0  0  0  0  0  0
    1.3426    4.3725    0.7816 H   0  0  0  0  0  0  0  0  0  0  0  0
  1 21  1  0  0  0  0
  2  1  1  6  0  0  0
  2  6  1  0  0  0  0
  3  4  2  0  0  0  0
  3  2  1  0  0  0  0
  4  5  1  0  0  0  0
  5  6  2  0  0  0  0
  5 23  1  0  0  0  0
  6 24  1  0  0  0  0
  7 10  1  0  0  0  0
  7  4  1  0  0  0  0
  7  9  1  0  0  0  0
  8  7  1  0  0  0  0
  9 31  1  0  0  0  0
 10 35  1  0  0  0  0
 11  1  1  1  0  0  0
 11 12  1  0  0  0  0
 12 25  1  0  0  0  0
 13 16  1  0  0  0  0
 13 12  1  0  0  0  0
 14 13  2  0  0  0  0
 15 14  1  0  0  0  0
 15 11  1  0  0  0  0
 16 17  1  0  0  0  0
 17 39  1  0  0  0  0
 17 37  1  0  0  0  0
 17 38  1  0  0  0  0
 18 40  1  0  0  0  0
 18 16  1  0  0  0  0
 18 41  1  0  0  0  0
 19 43  1  0  0  0  0
 19 44  1  0  0  0  0
 19 16  1  0  0  0  0
 20 48  1  0  0  0  0
 20  1  1  0  0  0  0
 21 50  1  0  0  0  0
 21 49  1  0  0  0  0
 22  3  1  0  0  0  0
 26 14  1  0  0  0  0
 27 15  1  0  0  0  0
 28  8  1  0  0  0  0
 29  8  1  0  0  0  0
 30  8  1  0  0  0  0
 32  9  1  0  0  0  0
 33  9  1  0  0  0  0
 34 10  1  0  0  0  0
 36 10  1  0  0  0  0
 42 18  1  0  0  0  0
 45 19  1  0  0  0  0
 46 20  1  0  0  0  0
 47 20  1  0  0  0  0
 51 21  1  0  0  0  0
M  END
