2,15
 OpenBabel05122313053D

 30 32  0  0  1  0  0  0  0  0999 V2000
   -4.7712    1.2322    0.2630 O   0  0  0  0  0  0  0  0  0  0  0  0
   -2.6700    0.2192    0.9446 C   0  0  0  0  0  3  0  0  0  0  0  0
   -2.5992    1.2716    1.2830 H   0  0  0  0  0  0  0  0  0  0  0  0
   -3.9809    0.0390    0.1400 C   0  0  1  0  0  0  0  0  0  0  0  0
   -3.8122   -0.1493   -0.9450 H   0  0  0  0  0  0  0  0  0  0  0  0
   -4.6402   -1.1639    0.8475 C   0  0  1  0  0  0  0  0  0  0  0  0
   -5.6924   -1.3343    0.5452 H   0  0  0  0  0  0  0  0  0  0  0  0
   -3.7438   -2.4252    0.6879 C   0  0  1  0  0  0  0  0  0  0  0  0
   -4.3309   -3.3060    1.0136 H   0  0  0  0  0  0  0  0  0  0  0  0
   -3.0891   -2.6986   -0.6941 C   0  0  0  0  0  0  0  0  0  0  0  0
   -3.2230   -3.7601   -0.9984 H   0  0  0  0  0  0  0  0  0  0  0  0
   -3.5227   -2.0988   -1.5214 H   0  0  0  0  0  0  0  0  0  0  0  0
   -1.6111   -2.4473   -0.4900 C   0  0  0  0  0  3  0  0  0  0  0  0
   -0.8635   -2.6788   -1.2654 H   0  0  0  0  0  0  0  0  0  0  0  0
   -1.3006   -2.2525    0.8494 C   0  0  0  0  0  3  0  0  0  0  0  0
   -0.2973   -2.3783    1.2855 H   0  0  0  0  0  0  0  0  0  0  0  0
   -2.5536   -2.1544    1.6892 C   0  0  1  0  0  0  0  0  0  0  0  0
   -2.5363   -2.8740    2.5345 H   0  0  0  0  0  0  0  0  0  0  0  0
   -2.8620   -0.7214    2.1751 C   0  0  2  0  0  0  0  0  0  0  0  0
   -2.2853   -0.4095    3.0666 H   0  0  0  0  0  0  0  0  0  0  0  0
   -4.3986   -0.7779    2.3228 C   0  0  0  0  0  0  0  0  0  0  0  0
   -4.7443   -1.5473    3.0437 H   0  0  0  0  0  0  0  0  0  0  0  0
   -4.8542    0.1989    2.5771 H   0  0  0  0  0  0  0  0  0  0  0  0
   -5.8429    1.3190   -0.6605 C   0  0  0  0  0  0  0  0  0  0  0  0
   -6.5528    0.4668   -0.5282 H   0  0  0  0  0  0  0  0  0  0  0  0
   -5.4528    1.2419   -1.7079 H   0  0  0  0  0  0  0  0  0  0  0  0
   -6.5637    2.6389   -0.4498 C   0  0  0  0  0  0  0  0  0  0  0  0
   -6.9540    2.7075    0.5850 H   0  0  0  0  0  0  0  0  0  0  0  0
   -7.4150    2.7367   -1.1523 H   0  0  0  0  0  0  0  0  0  0  0  0
   -5.8779    3.4949   -0.6125 H   0  0  0  0  0  0  0  0  0  0  0  0
  2  3  1  0  0  0  0
  2 19  1  0  0  0  0
  4  5  1  6  0  0  0
  4  1  1  0  0  0  0
  4  6  1  0  0  0  0
  4  2  1  0  0  0  0
  6  7  1  6  0  0  0
  6 21  1  0  0  0  0
  8  6  1  0  0  0  0
  8  9  1  1  0  0  0
  8 17  1  0  0  0  0
 10 13  1  0  0  0  0
 10  8  1  0  0  0  0
 11 10  1  0  0  0  0
 12 10  1  0  0  0  0
 13 15  1  0  0  0  0
 14 13  1  0  0  0  0
 15 16  1  0  0  0  0
 15 17  1  0  0  0  0
 17 19  1  0  0  0  0
 17 18  1  1  0  0  0
 19 21  1  0  0  0  0
 19 20  1  1  0  0  0
 21 23  1  0  0  0  0
 21 22  1  0  0  0  0
 24 25  1  0  0  0  0
 24 27  1  0  0  0  0
 24  1  1  0  0  0  0
 26 24  1  0  0  0  0
 27 28  1  0  0  0  0
 29 27  1  0  0  0  0
 30 27  1  0  0  0  0
M  END
