11,14
 OpenBabel05122313053D

 22 22  0  0  1  0  0  0  0  0999 V2000
    1.9811   -1.2174   -0.0359 S   0  0  0  0  0  0  0  0  0  0  0  0
    4.0618    0.1897   -0.8119 F   0  0  0  0  0  0  0  0  0  0  0  0
    2.1868    0.9421   -1.6345 F   0  0  0  0  0  0  0  0  0  0  0  0
    2.7122    1.3590    0.4420 F   0  0  0  0  0  0  0  0  0  0  0  0
    1.2955    0.2379    2.6743 O   0  0  0  0  0  0  0  0  0  0  0  0
   -3.1256   -2.0174    0.1801 O   0  0  0  0  0  0  0  0  0  0  0  0
    2.9169   -1.7910    0.9554 O   0  0  0  0  0  0  0  0  0  0  0  0
    1.7562   -1.9006   -1.3384 O   0  0  0  0  0  0  0  0  0  0  0  0
    0.3329   -0.1394    1.9985 C   0  0  0  0  0  0  0  0  0  0  0  0
    0.4050   -0.8405    0.6901 C   0  0  2  0  0  3  0  0  0  0  0  0
   -0.7092   -1.5167    0.0819 C   0  0  0  0  0  3  0  0  0  0  0  0
   -0.5124   -2.1378   -0.8028 H   0  0  0  0  0  0  0  0  0  0  0  0
   -2.0057   -1.3709    0.6337 C   0  0  1  0  0  3  0  0  0  0  0  0
   -2.1806   -0.4320    1.6980 C   0  0  0  0  0  3  0  0  0  0  0  0
   -3.2088   -0.2195    2.0262 H   0  0  0  0  0  0  0  0  0  0  0  0
   -1.0735    0.2294    2.2748 C   0  0  0  0  0  3  0  0  0  0  0  0
   -1.2324    0.9664    3.0750 H   0  0  0  0  0  0  0  0  0  0  0  0
   -3.1098   -2.4280   -1.1739 C   0  0  0  0  0  0  0  0  0  0  0  0
   -4.1354   -2.7673   -1.4159 H   0  0  0  0  0  0  0  0  0  0  0  0
   -2.4055   -3.2725   -1.3536 H   0  0  0  0  0  0  0  0  0  0  0  0
   -2.8279   -1.5813   -1.8401 H   0  0  0  0  0  0  0  0  0  0  0  0
    2.7679    0.4517   -0.5325 C   0  0  0  0  0  0  0  0  0  0  0  0
  1  7  2  0  0  0  0
  2 22  1  0  0  0  0
  3 22  1  0  0  0  0
  8  1  2  0  0  0  0
  9 16  1  0  0  0  0
  9  5  2  0  0  0  0
 10  1  1  1  0  0  0
 10  9  1  0  0  0  0
 11 13  1  0  0  0  0
 11 10  1  0  0  0  0
 12 11  1  0  0  0  0
 13  6  1  6  0  0  0
 13 14  1  0  0  0  0
 14 15  1  0  0  0  0
 14 16  1  0  0  0  0
 16 17  1  0  0  0  0
 18  6  1  0  0  0  0
 19 18  1  0  0  0  0
 20 18  1  0  0  0  0
 21 18  1  0  0  0  0
 22  1  1  0  0  0  0
 22  4  1  0  0  0  0
M  END
