5,13
 OpenBabel05122313053D

 32 34  0  0  1  0  0  0  0  0999 V2000
   -2.3820    0.8920   -1.7825 C   0  0  0  0  0  0  0  0  0  0  0  0
   -3.0392    1.3565   -2.5335 H   0  0  0  0  0  0  0  0  0  0  0  0
   -2.0700   -0.4741   -1.9939 C   0  0  0  0  0  0  0  0  0  0  0  0
   -2.5159   -0.9357   -2.8882 H   0  0  0  0  0  0  0  0  0  0  0  0
   -1.4058   -1.3675   -1.0866 C   0  0  0  0  0  3  0  0  0  0  0  0
   -1.5257   -2.4384   -1.3152 H   0  0  0  0  0  0  0  0  0  0  0  0
   -0.7951   -1.0405    0.1286 C   0  0  0  0  0  3  0  0  0  0  0  0
   -0.5124   -1.8852    0.7732 H   0  0  0  0  0  0  0  0  0  0  0  0
   -0.1972    0.3110    0.4537 C   0  0  2  0  0  0  0  0  0  0  0  0
    0.2407    0.2486    1.4691 H   0  0  0  0  0  0  0  0  0  0  0  0
   -1.3351    1.3071    0.4943 C   0  0  0  0  0  3  0  0  0  0  0  0
   -1.3984    1.9688    1.3697 H   0  0  0  0  0  0  0  0  0  0  0  0
   -2.1033    1.6792   -0.6146 C   0  0  0  0  0  3  0  0  0  0  0  0
   -2.6776    2.6156   -0.5336 H   0  0  0  0  0  0  0  0  0  0  0  0
    0.9527    0.7113   -0.5196 C   0  0  1  0  0  0  0  0  0  0  0  0
    0.5081    0.8124   -1.5351 H   0  0  0  0  0  0  0  0  0  0  0  0
    1.6055    2.0351   -0.1202 C   0  0  0  0  0  0  0  0  0  0  0  0
    3.0928    0.3678   -0.1825 C   0  0  0  0  0  0  0  0  0  0  0  0
    4.4388   -0.1931   -0.0331 C   0  0  0  0  0  0  0  0  0  0  0  0
    5.5280    0.6181    0.3499 C   0  0  0  0  0  0  0  0  0  0  0  0
    5.3633    1.6883    0.5380 H   0  0  0  0  0  0  0  0  0  0  0  0
    6.8032    0.0532    0.4864 C   0  0  0  0  0  0  0  0  0  0  0  0
    7.6518    0.6865    0.7852 H   0  0  0  0  0  0  0  0  0  0  0  0
    6.9979   -1.3158    0.2432 C   0  0  0  0  0  0  0  0  0  0  0  0
    8.0008   -1.7561    0.3515 H   0  0  0  0  0  0  0  0  0  0  0  0
    5.9130   -2.1255   -0.1388 C   0  0  0  0  0  0  0  0  0  0  0  0
    6.0667   -3.1983   -0.3293 H   0  0  0  0  0  0  0  0  0  0  0  0
    4.6374   -1.5701   -0.2776 C   0  0  0  0  0  0  0  0  0  0  0  0
    3.7723   -2.1802   -0.5755 H   0  0  0  0  0  0  0  0  0  0  0  0
    1.1571    3.1376    0.0458 O   0  0  0  0  0  0  0  0  0  0  0  0
    2.9597    1.7295    0.0766 O   0  0  0  0  0  0  0  0  0  0  0  0
    2.0241   -0.2653   -0.5279 N   0  0  0  0  0  0  0  0  0  0  0  0
  1 13  1  0  0  0  0
  2  1  1  0  0  0  0
  3  1  2  0  0  0  0
  3  5  1  0  0  0  0
  4  3  1  0  0  0  0
  5  7  1  0  0  0  0
  6  5  1  0  0  0  0
  7  9  1  0  0  0  0
  7  8  1  0  0  0  0
  9 11  1  0  0  0  0
  9 10  1  1  0  0  0
 11 12  1  0  0  0  0
 13 14  1  0  0  0  0
 13 11  1  0  0  0  0
 15 16  1  6  0  0  0
 15 17  1  0  0  0  0
 15  9  1  0  0  0  0
 17 30  2  0  0  0  0
 17 31  1  0  0  0  0
 18 19  1  0  0  0  0
 18 31  1  0  0  0  0
 19 20  1  0  0  0  0
 20 22  2  0  0  0  0
 20 21  1  0  0  0  0
 22 23  1  0  0  0  0
 24 25  1  0  0  0  0
 24 22  1  0  0  0  0
 26 24  2  0  0  0  0
 27 26  1  0  0  0  0
 28 26  1  0  0  0  0
 28 19  2  0  0  0  0
 29 28  1  0  0  0  0
 32 15  1  0  0  0  0
 32 18  2  0  0  0  0
M  END
