7,11
 OpenBabel05122313053D

 29 28  0  0  1  0  0  0  0  0999 V2000
    2.1828   -1.6114   -0.9183 O   0  0  0  0  0  0  0  0  0  0  0  0
   -1.1226    2.1475    0.9584 O   0  0  0  0  0  0  0  0  0  0  0  0
   -1.2963    0.6037    2.5485 O   0  0  0  0  0  0  0  0  0  0  0  0
    2.6838   -1.0888    1.4088 C   0  0  0  0  0  0  0  0  0  0  0  0
    2.3868   -0.5388    0.0074 C   0  0  2  0  0  0  0  0  0  0  0  0
    1.1176    0.2992   -0.0005 C   0  0  0  0  0  3  0  0  0  0  0  0
    0.4564    0.5676   -1.2235 C   0  0  0  0  0  3  0  0  0  0  0  0
   -0.8168    1.2144   -1.2906 C   0  0  0  0  0  3  0  0  0  0  0  0
   -1.2386    2.4028   -0.4465 C   0  0  2  0  0  0  0  0  0  0  0  0
   -0.4350    3.6640   -0.7574 C   0  0  0  0  0  0  0  0  0  0  0  0
   -1.1843    0.8344    1.3686 C   0  0  0  0  0  3  0  0  0  0  0  0
    3.8833    1.6064    0.2700 C   0  0  0  0  0  0  0  0  0  0  0  0
    3.5684    0.3321   -0.5130 C   0  0  0  0  0  0  0  0  0  0  0  0
    3.0238   -2.1006   -0.9820 H   0  0  0  0  0  0  0  0  0  0  0  0
    2.7261   -0.2824    2.1673 H   0  0  0  0  0  0  0  0  0  0  0  0
    3.6623   -1.6128    1.4157 H   0  0  0  0  0  0  0  0  0  0  0  0
    1.9034   -1.8072    1.7164 H   0  0  0  0  0  0  0  0  0  0  0  0
    1.0568    1.0228    0.8232 H   0  0  0  0  0  0  0  0  0  0  0  0
    0.8422    0.0575   -2.1217 H   0  0  0  0  0  0  0  0  0  0  0  0
   -1.2911    1.2080   -2.2866 H   0  0  0  0  0  0  0  0  0  0  0  0
   -2.3147    2.5989   -0.6587 H   0  0  0  0  0  0  0  0  0  0  0  0
   -0.5542    3.9453   -1.8222 H   0  0  0  0  0  0  0  0  0  0  0  0
    0.6419    3.4931   -0.5580 H   0  0  0  0  0  0  0  0  0  0  0  0
   -0.7824    4.5072   -0.1296 H   0  0  0  0  0  0  0  0  0  0  0  0
    4.7554    2.1300   -0.1695 H   0  0  0  0  0  0  0  0  0  0  0  0
    4.1274    1.3944    1.3304 H   0  0  0  0  0  0  0  0  0  0  0  0
    3.0321    2.3173    0.2567 H   0  0  0  0  0  0  0  0  0  0  0  0
    4.4694   -0.3231   -0.5313 H   0  0  0  0  0  0  0  0  0  0  0  0
    3.3423    0.5802   -1.5718 H   0  0  0  0  0  0  0  0  0  0  0  0
  2 11  1  0  0  0  0
  4 16  1  0  0  0  0
  4 17  1  0  0  0  0
  4 15  1  0  0  0  0
  5  1  1  6  0  0  0
  5  4  1  0  0  0  0
  6  5  1  0  0  0  0
  6 18  1  0  0  0  0
  7  6  1  0  0  0  0
  8  7  1  0  0  0  0
  8  9  1  0  0  0  0
  9 21  1  6  0  0  0
  9  2  1  0  0  0  0
 10 23  1  0  0  0  0
 10  9  1  0  0  0  0
 10 24  1  0  0  0  0
 11  3  2  0  0  0  0
 12 26  1  0  0  0  0
 13  5  1  0  0  0  0
 13 12  1  0  0  0  0
 14  1  1  0  0  0  0
 19  7  1  0  0  0  0
 20  8  1  0  0  0  0
 22 10  1  0  0  0  0
 25 12  1  0  0  0  0
 27 12  1  0  0  0  0
 28 13  1  0  0  0  0
 29 13  1  0  0  0  0
M  END
