4,8
 OpenBabel05122313053D

 29 28  0  0  1  0  0  0  0  0999 V2000
   -0.9427    0.2883    2.6060 O   0  0  0  0  0  0  0  0  0  0  0  0
   -1.6457    1.7400    1.0794 O   0  0  0  0  0  0  0  0  0  0  0  0
    2.4879   -0.3890   -1.6205 O   0  0  0  0  0  0  0  0  0  0  0  0
   -1.1424    0.5106    1.4337 C   0  0  0  0  0  3  0  0  0  0  0  0
   -1.8498    3.3767   -0.6522 C   0  0  0  0  0  0  0  0  0  0  0  0
   -2.0652    1.9113   -0.2799 C   0  0  1  0  0  0  0  0  0  0  0  0
   -1.3648    0.9560   -1.2270 C   0  0  0  0  0  3  0  0  0  0  0  0
    0.0505    0.8147   -1.3710 C   0  0  0  0  0  3  0  0  0  0  0  0
    0.9430    0.8052   -0.2717 C   0  0  0  0  0  3  0  0  0  0  0  0
    2.4120    0.4806   -0.4864 C   0  0  1  0  0  0  0  0  0  0  0  0
    3.0513   -0.2163    0.7377 C   0  0  0  0  0  0  0  0  0  0  0  0
    2.8228    0.4373    2.1006 C   0  0  0  0  0  0  0  0  0  0  0  0
    3.1407    1.8045   -0.8084 C   0  0  0  0  0  0  0  0  0  0  0  0
    3.4238   -0.6381   -1.7297 H   0  0  0  0  0  0  0  0  0  0  0  0
   -2.2306    3.5749   -1.6734 H   0  0  0  0  0  0  0  0  0  0  0  0
   -0.7706    3.6265   -0.6248 H   0  0  0  0  0  0  0  0  0  0  0  0
   -2.3856    4.0372    0.0569 H   0  0  0  0  0  0  0  0  0  0  0  0
   -3.1553    1.6847   -0.3199 H   0  0  0  0  0  0  0  0  0  0  0  0
   -1.9445    0.7690   -2.1469 H   0  0  0  0  0  0  0  0  0  0  0  0
    0.4542    0.4744   -2.3383 H   0  0  0  0  0  0  0  0  0  0  0  0
    0.7626    1.4688    0.5845 H   0  0  0  0  0  0  0  0  0  0  0  0
    2.6711   -1.2569    0.7485 H   0  0  0  0  0  0  0  0  0  0  0  0
    4.1444   -0.2893    0.5349 H   0  0  0  0  0  0  0  0  0  0  0  0
    3.1730    1.4899    2.1229 H   0  0  0  0  0  0  0  0  0  0  0  0
    3.3792   -0.1083    2.8880 H   0  0  0  0  0  0  0  0  0  0  0  0
    1.7537    0.4250    2.3931 H   0  0  0  0  0  0  0  0  0  0  0  0
    4.2175    1.6099   -0.9970 H   0  0  0  0  0  0  0  0  0  0  0  0
    3.0699    2.5296    0.0264 H   0  0  0  0  0  0  0  0  0  0  0  0
    2.7038    2.2693   -1.7135 H   0  0  0  0  0  0  0  0  0  0  0  0
  2  4  1  0  0  0  0
  4  1  2  0  0  0  0
  5 16  1  0  0  0  0
  5  6  1  0  0  0  0
  5 17  1  0  0  0  0
  6 18  1  6  0  0  0
  6  2  1  0  0  0  0
  7  6  1  0  0  0  0
  8  7  1  0  0  0  0
  8  9  1  0  0  0  0
  9 21  1  0  0  0  0
 10  3  1  6  0  0  0
 10  9  1  0  0  0  0
 10 11  1  0  0  0  0
 11 22  1  0  0  0  0
 11 12  1  0  0  0  0
 12 24  1  0  0  0  0
 12 26  1  0  0  0  0
 12 25  1  0  0  0  0
 13 10  1  0  0  0  0
 13 28  1  0  0  0  0
 14  3  1  0  0  0  0
 15  5  1  0  0  0  0
 19  7  1  0  0  0  0
 20  8  1  0  0  0  0
 23 11  1  0  0  0  0
 27 13  1  0  0  0  0
 29 13  1  0  0  0  0
M  END
