16,19
 OpenBabel05122313053D

 76 80  0  0  1  0  0  0  0  0999 V2000
    5.0891   -1.3754   -1.1339 O   0  0  0  0  0  0  0  0  0  0  0  0
    4.6926    0.8554   -1.0616 O   0  0  0  0  0  0  0  0  0  0  0  0
    2.1127   -1.6129   -1.0786 N   0  0  0  0  0  0  0  0  0  0  0  0
    2.8854   -0.5206   -0.4285 C   0  0  1  0  0  0  0  0  0  0  0  0
    2.4271    0.4229   -0.7807 H   0  0  0  0  0  0  0  0  0  0  0  0
    2.8145   -0.5434    1.0915 C   0  0  0  0  0  0  0  0  0  0  0  0
    3.9962   -0.7722    1.8254 C   0  0  0  0  0  0  0  0  0  0  0  0
    4.9268   -0.9919    1.2837 H   0  0  0  0  0  0  0  0  0  0  0  0
    4.0220   -0.7571    3.2248 C   0  0  0  0  0  0  0  0  0  0  0  0
    4.9659   -0.9389    3.7599 H   0  0  0  0  0  0  0  0  0  0  0  0
    2.8320   -0.5239    3.9233 C   0  0  0  0  0  0  0  0  0  0  0  0
    2.8195   -0.5032    5.0234 H   0  0  0  0  0  0  0  0  0  0  0  0
    1.6422   -0.3356    3.2133 C   0  0  0  0  0  0  0  0  0  0  0  0
    0.7091   -0.1771    3.7705 H   0  0  0  0  0  0  0  0  0  0  0  0
    1.5917   -0.3308    1.7963 C   0  0  0  0  0  0  0  0  0  0  0  0
    0.2287   -0.1231    1.1828 C   0  0  2  0  0  3  0  0  0  0  0  0
   -0.0706    0.8986    0.2102 C   0  0  1  0  0  3  0  0  0  0  0  0
   -1.5135    1.0086   -0.2246 C   0  0  0  0  0  0  0  0  0  0  0  0
   -1.8783   -0.2224   -0.6917 C   0  0  0  0  0  3  0  0  0  0  0  0
    2.2922   -1.5598   -2.5482 C   0  0  0  0  0  0  0  0  0  0  0  0
    2.0817   -0.5307   -2.9008 H   0  0  0  0  0  0  0  0  0  0  0  0
    1.5632   -2.2489   -3.0117 H   0  0  0  0  0  0  0  0  0  0  0  0
    3.3261   -1.8462   -2.8368 H   0  0  0  0  0  0  0  0  0  0  0  0
    2.4173   -2.9638   -0.5631 C   0  0  0  0  0  0  0  0  0  0  0  0
    1.7164   -3.6695   -1.0470 H   0  0  0  0  0  0  0  0  0  0  0  0
    2.2483   -2.9853    0.5297 H   0  0  0  0  0  0  0  0  0  0  0  0
    3.4694   -3.2455   -0.7769 H   0  0  0  0  0  0  0  0  0  0  0  0
    4.3401   -0.4411   -0.9093 C   0  0  0  0  0  0  0  0  0  0  0  0
    6.0477    1.0917   -1.4627 C   0  0  0  0  0  0  0  0  0  0  0  0
    6.1424    2.1851   -1.5827 H   0  0  0  0  0  0  0  0  0  0  0  0
    6.2721    0.5722   -2.4155 H   0  0  0  0  0  0  0  0  0  0  0  0
    6.7550    0.7246   -0.6913 H   0  0  0  0  0  0  0  0  0  0  0  0
   -0.8895   -0.6637    2.0467 C   0  0  0  0  0  0  0  0  0  0  0  0
   -1.7209    0.2212    2.7652 C   0  0  0  0  0  0  0  0  0  0  0  0
   -1.5889    1.3062    2.6453 H   0  0  0  0  0  0  0  0  0  0  0  0
   -2.7213   -0.2695    3.6183 C   0  0  0  0  0  0  0  0  0  0  0  0
   -3.3638    0.4383    4.1640 H   0  0  0  0  0  0  0  0  0  0  0  0
   -2.9031   -1.6530    3.7717 C   0  0  0  0  0  0  0  0  0  0  0  0
   -3.6926   -2.0384    4.4344 H   0  0  0  0  0  0  0  0  0  0  0  0
   -2.0727   -2.5416    3.0690 C   0  0  0  0  0  0  0  0  0  0  0  0
   -2.2120   -3.6281    3.1731 H   0  0  0  0  0  0  0  0  0  0  0  0
   -1.0704   -2.0514    2.2212 C   0  0  0  0  0  0  0  0  0  0  0  0
   -0.4350   -2.7501    1.6559 H   0  0  0  0  0  0  0  0  0  0  0  0
    0.8866    1.9451   -0.2392 C   0  0  0  0  0  0  0  0  0  0  0  0
    0.8642    2.3679   -1.5888 C   0  0  0  0  0  0  0  0  0  0  0  0
    0.1457    1.8973   -2.2775 H   0  0  0  0  0  0  0  0  0  0  0  0
    1.7514    3.3504   -2.0444 C   0  0  0  0  0  0  0  0  0  0  0  0
    1.7280    3.6600   -3.1002 H   0  0  0  0  0  0  0  0  0  0  0  0
    2.6650    3.9420   -1.1557 C   0  0  0  0  0  0  0  0  0  0  0  0
    3.3624    4.7149   -1.5132 H   0  0  0  0  0  0  0  0  0  0  0  0
    2.6752    3.5521    0.1927 C   0  0  0  0  0  0  0  0  0  0  0  0
    3.3765    4.0230    0.8981 H   0  0  0  0  0  0  0  0  0  0  0  0
    1.7926    2.5645    0.6505 C   0  0  0  0  0  0  0  0  0  0  0  0
    1.8012    2.2690    1.7091 H   0  0  0  0  0  0  0  0  0  0  0  0
   -2.2921    2.2540   -0.1253 C   0  0  0  0  0  0  0  0  0  0  0  0
   -1.8650    3.3053    0.7221 C   0  0  0  0  0  0  0  0  0  0  0  0
   -0.9336    3.1952    1.2966 H   0  0  0  0  0  0  0  0  0  0  0  0
   -2.6081    4.4878    0.8379 C   0  0  0  0  0  0  0  0  0  0  0  0
   -2.2552    5.2888    1.5054 H   0  0  0  0  0  0  0  0  0  0  0  0
   -3.7940    4.6516    0.1056 C   0  0  0  0  0  0  0  0  0  0  0  0
   -4.3778    5.5803    0.1944 H   0  0  0  0  0  0  0  0  0  0  0  0
   -4.2247    3.6215   -0.7487 C   0  0  0  0  0  0  0  0  0  0  0  0
   -5.1484    3.7429   -1.3352 H   0  0  0  0  0  0  0  0  0  0  0  0
   -3.4844    2.4402   -0.8676 C   0  0  0  0  0  0  0  0  0  0  0  0
   -3.8243    1.6467   -1.5473 H   0  0  0  0  0  0  0  0  0  0  0  0
   -3.1855   -0.7883   -1.0027 C   0  0  0  0  0  0  0  0  0  0  0  0
   -3.5371   -1.2563   -2.2906 C   0  0  0  0  0  0  0  0  0  0  0  0
   -2.7849   -1.2327   -3.0904 H   0  0  0  0  0  0  0  0  0  0  0  0
   -4.8236   -1.7524   -2.5340 C   0  0  0  0  0  0  0  0  0  0  0  0
   -5.0871   -2.1050   -3.5429 H   0  0  0  0  0  0  0  0  0  0  0  0
   -5.7709   -1.8158   -1.4978 C   0  0  0  0  0  0  0  0  0  0  0  0
   -6.7775   -2.2162   -1.6929 H   0  0  0  0  0  0  0  0  0  0  0  0
   -5.4234   -1.3751   -0.2103 C   0  0  0  0  0  0  0  0  0  0  0  0
   -6.1553   -1.4307    0.6102 H   0  0  0  0  0  0  0  0  0  0  0  0
   -4.1444   -0.8623    0.0388 C   0  0  0  0  0  0  0  0  0  0  0  0
   -3.8664   -0.5164    1.0450 H   0  0  0  0  0  0  0  0  0  0  0  0
  1 28  2  0  0  0  0
  2 28  1  0  0  0  0
  3 24  1  0  0  0  0
  3  4  1  0  0  0  0
  4  5  1  6  0  0  0
  4  6  1  0  0  0  0
  6 15  2  0  0  0  0
  6  7  1  0  0  0  0
  7  9  2  0  0  0  0
  8  7  1  0  0  0  0
  9 10  1  0  0  0  0
  9 11  1  0  0  0  0
 11 12  1  0  0  0  0
 13 14  1  0  0  0  0
 13 11  2  0  0  0  0
 15 13  1  0  0  0  0
 16 17  1  1  0  0  0
 16 15  1  0  0  0  0
 16 33  1  0  0  0  0
 17 18  1  1  0  0  0
 18 55  1  0  0  0  0
 19 18  2  0  0  0  0
 20  3  1  0  0  0  0
 21 20  1  0  0  0  0
 22 20  1  0  0  0  0
 23 20  1  0  0  0  0
 24 26  1  0  0  0  0
 25 24  1  0  0  0  0
 27 24  1  0  0  0  0
 28  4  1  0  0  0  0
 29  2  1  0  0  0  0
 29 32  1  0  0  0  0
 30 29  1  0  0  0  0
 31 29  1  0  0  0  0
 33 42  2  0  0  0  0
 33 34  1  0  0  0  0
 34 36  2  0  0  0  0
 35 34  1  0  0  0  0
 36 38  1  0  0  0  0
 36 37  1  0  0  0  0
 38 39  1  0  0  0  0
 40 41  1  0  0  0  0
 40 38  2  0  0  0  0
 42 40  1  0  0  0  0
 43 42  1  0  0  0  0
 44 17  1  0  0  0  0
 44 53  1  0  0  0  0
 45 44  2  0  0  0  0
 46 45  1  0  0  0  0
 47 45  1  0  0  0  0
 47 49  2  0  0  0  0
 48 47  1  0  0  0  0
 49 51  1  0  0  0  0
 50 49  1  0  0  0  0
 51 53  2  0  0  0  0
 51 52  1  0  0  0  0
 53 54  1  0  0  0  0
 55 56  1  0  0  0  0
 56 58  2  0  0  0  0
 56 57  1  0  0  0  0
 58 59  1  0  0  0  0
 60 61  1  0  0  0  0
 60 58  1  0  0  0  0
 62 60  2  0  0  0  0
 63 62  1  0  0  0  0
 64 62  1  0  0  0  0
 64 55  2  0  0  0  0
 65 64  1  0  0  0  0
 66 19  1  0  0  0  0
 66 75  1  0  0  0  0
 67 66  2  0  0  0  0
 68 67  1  0  0  0  0
 69 67  1  0  0  0  0
 69 71  2  0  0  0  0
 70 69  1  0  0  0  0
 71 73  1  0  0  0  0
 72 71  1  0  0  0  0
 73 75  2  0  0  0  0
 73 74  1  0  0  0  0
 75 76  1  0  0  0  0
M  END
