7,28
 OpenBabel05122313053D

 48 49  0  0  1  0  0  0  0  0999 V2000
   -0.0000    2.3520    1.4227 Si  0  0  2  0  0  0  0  0  0  0  0  0
   -0.0001    2.2933    2.9248 H   0  0  0  0  0  0  0  0  0  0  0  0
    0.0000    4.1778    0.9494 C   0  0  0  0  0  0  0  0  0  0  0  0
    0.0002    4.3699   -0.1396 H   0  0  0  0  0  0  0  0  0  0  0  0
    0.8972    4.6654    1.3821 H   0  0  0  0  0  0  0  0  0  0  0  0
   -0.8973    4.6654    1.3819 H   0  0  0  0  0  0  0  0  0  0  0  0
    1.4079    1.2795    0.7572 C   0  0  1  0  0  3  0  0  0  0  0  0
    1.8316    0.0587    1.4059 C   0  0  0  0  0  0  0  0  0  0  0  0
    2.5313   -0.7480    0.4449 C   0  0  0  0  0  0  0  0  0  0  0  0
    2.5267   -0.0554   -0.8024 C   0  0  0  0  0  0  0  0  0  0  0  0
    1.8208    1.1831   -0.6237 C   0  0  0  0  0  0  0  0  0  0  0  0
    1.7389   -0.3022    2.8617 C   0  0  0  0  0  0  0  0  0  0  0  0
    1.1383    0.4254    3.4356 H   0  0  0  0  0  0  0  0  0  0  0  0
    2.7558   -0.3192    3.3096 H   0  0  0  0  0  0  0  0  0  0  0  0
    1.3039   -1.3111    3.0092 H   0  0  0  0  0  0  0  0  0  0  0  0
    3.2430   -2.0244    0.7642 C   0  0  0  0  0  0  0  0  0  0  0  0
    3.5619   -2.5579   -0.1511 H   0  0  0  0  0  0  0  0  0  0  0  0
    2.5941   -2.7113    1.3428 H   0  0  0  0  0  0  0  0  0  0  0  0
    4.1506   -1.8202    1.3722 H   0  0  0  0  0  0  0  0  0  0  0  0
    3.2349   -0.4571   -2.0573 C   0  0  0  0  0  0  0  0  0  0  0  0
    2.5847   -0.3276   -2.9450 H   0  0  0  0  0  0  0  0  0  0  0  0
    3.5525   -1.5164   -2.0287 H   0  0  0  0  0  0  0  0  0  0  0  0
    4.1430    0.1662   -2.2059 H   0  0  0  0  0  0  0  0  0  0  0  0
    1.7235    2.2230   -1.7041 C   0  0  0  0  0  0  0  0  0  0  0  0
    2.7363    2.6108   -1.9470 H   0  0  0  0  0  0  0  0  0  0  0  0
    1.1078    3.0874   -1.4031 H   0  0  0  0  0  0  0  0  0  0  0  0
    1.3030    1.8051   -2.6407 H   0  0  0  0  0  0  0  0  0  0  0  0
   -1.4080    1.2795    0.7572 C   0  0  1  0  0  3  0  0  0  0  0  0
   -1.8207    1.1831   -0.6238 C   0  0  1  0  0  3  0  0  0  0  0  0
   -2.5267   -0.0554   -0.8025 C   0  0  0  0  0  0  0  0  0  0  0  0
   -2.5313   -0.7480    0.4448 C   0  0  0  0  0  0  0  0  0  0  0  0
   -1.8317    0.0587    1.4058 C   0  0  2  0  0  3  0  0  0  0  0  0
   -1.7235    2.2230   -1.7042 C   0  0  0  0  0  0  0  0  0  0  0  0
   -1.3028    1.8052   -2.6407 H   0  0  0  0  0  0  0  0  0  0  0  0
   -1.1081    3.0876   -1.4031 H   0  0  0  0  0  0  0  0  0  0  0  0
   -2.7363    2.6106   -1.9472 H   0  0  0  0  0  0  0  0  0  0  0  0
   -3.2348   -0.4571   -2.0574 C   0  0  0  0  0  0  0  0  0  0  0  0
   -4.1427    0.1666   -2.2063 H   0  0  0  0  0  0  0  0  0  0  0  0
   -3.5528   -1.5163   -2.0287 H   0  0  0  0  0  0  0  0  0  0  0  0
   -2.5843   -0.3280   -2.9450 H   0  0  0  0  0  0  0  0  0  0  0  0
   -3.2430   -2.0244    0.7641 C   0  0  0  0  0  0  0  0  0  0  0  0
   -4.1506   -1.8201    1.3722 H   0  0  0  0  0  0  0  0  0  0  0  0
   -2.5942   -2.7114    1.3426 H   0  0  0  0  0  0  0  0  0  0  0  0
   -3.5621   -2.5577   -0.1512 H   0  0  0  0  0  0  0  0  0  0  0  0
   -1.7390   -0.3022    2.8616 C   0  0  0  0  0  0  0  0  0  0  0  0
   -1.1383    0.4253    3.4356 H   0  0  0  0  0  0  0  0  0  0  0  0
   -1.3040   -1.3111    3.0091 H   0  0  0  0  0  0  0  0  0  0  0  0
   -2.7559   -0.3191    3.3095 H   0  0  0  0  0  0  0  0  0  0  0  0
  1  2  1  1  0  0  0
  3  6  1  0  0  0  0
  3  5  1  0  0  0  0
  3  1  1  0  0  0  0
  4  3  1  0  0  0  0
  7  8  1  0  0  0  0
  7  1  1  6  0  0  0
  8 12  1  0  0  0  0
  9 16  1  0  0  0  0
  9  8  2  0  0  0  0
 10 11  2  0  0  0  0
 10  9  1  0  0  0  0
 11  7  1  0  0  0  0
 12 15  1  0  0  0  0
 12 14  1  0  0  0  0
 12 13  1  0  0  0  0
 16 18  1  0  0  0  0
 16 19  1  0  0  0  0
 17 16  1  0  0  0  0
 20 22  1  0  0  0  0
 20 10  1  0  0  0  0
 21 20  1  0  0  0  0
 23 20  1  0  0  0  0
 24 26  1  0  0  0  0
 24 11  1  0  0  0  0
 25 24  1  0  0  0  0
 27 24  1  0  0  0  0
 28 32  1  0  0  0  0
 28  1  1  6  0  0  0
 29 33  1  1  0  0  0
 29 28  1  0  0  0  0
 30 29  1  0  0  0  0
 30 31  2  0  0  0  0
 31 41  1  0  0  0  0
 31 32  1  0  0  0  0
 32 45  1  1  0  0  0
 33 35  1  0  0  0  0
 34 33  1  0  0  0  0
 36 33  1  0  0  0  0
 37 39  1  0  0  0  0
 37 30  1  0  0  0  0
 38 37  1  0  0  0  0
 40 37  1  0  0  0  0
 41 43  1  0  0  0  0
 41 42  1  0  0  0  0
 44 41  1  0  0  0  0
 45 47  1  0  0  0  0
 45 48  1  0  0  0  0
 45 46  1  0  0  0  0
M  END
