7,9
 OpenBabel05122313053D

 77 85  0  0  1  0  0  0  0  0999 V2000
   -0.3285   -1.0076   -0.5761 C   0  0  2  0  0  3  0  0  0  0  0  0
    0.8320   -0.9170    0.2601 C   0  0  0  0  0  3  0  0  0  0  0  0
    0.8981   -1.2677    1.2966 H   0  0  0  0  0  0  0  0  0  0  0  0
    1.9092   -0.3104   -0.4740 C   0  0  0  0  0  0  0  0  0  0  0  0
    1.3825    0.0440   -1.7458 C   0  0  0  0  0  0  0  0  0  0  0  0
    1.9172    0.5635   -2.5468 H   0  0  0  0  0  0  0  0  0  0  0  0
    0.0161   -0.3747   -1.8153 C   0  0  0  0  0  3  0  0  0  0  0  0
   -0.6512   -0.2254   -2.6717 H   0  0  0  0  0  0  0  0  0  0  0  0
   -2.0786    0.1740    0.4013 C   0  0  0  0  0  3  0  0  0  0  0  0
   -2.5438    1.2710   -0.4339 C   0  0  0  0  0  0  0  0  0  0  0  0
   -2.4436    2.5094    0.3218 C   0  0  0  0  0  0  0  0  0  0  0  0
   -1.9230    2.1876    1.6321 C   0  0  0  0  0  0  0  0  0  0  0  0
   -1.7014    0.7512    1.6823 C   0  0  0  0  0  0  0  0  0  0  0  0
   -2.9799    1.3417   -1.7934 C   0  0  0  0  0  0  0  0  0  0  0  0
   -3.0544    0.4346   -2.4044 H   0  0  0  0  0  0  0  0  0  0  0  0
   -3.3329    2.5745   -2.3305 C   0  0  0  0  0  0  0  0  0  0  0  0
   -3.6732    2.6224   -3.3758 H   0  0  0  0  0  0  0  0  0  0  0  0
   -3.2558    3.7729   -1.5726 C   0  0  0  0  0  0  0  0  0  0  0  0
   -3.5384    4.7282   -2.0383 H   0  0  0  0  0  0  0  0  0  0  0  0
   -2.8138    3.7467   -0.2550 C   0  0  0  0  0  0  0  0  0  0  0  0
   -2.7327    4.6729    0.3326 H   0  0  0  0  0  0  0  0  0  0  0  0
   -1.1254    0.1971    2.8675 C   0  0  0  0  0  0  0  0  0  0  0  0
   -0.9273   -0.8784    2.9423 H   0  0  0  0  0  0  0  0  0  0  0  0
   -0.8421    1.0341    3.9410 C   0  0  0  0  0  0  0  0  0  0  0  0
   -0.4053    0.6010    4.8534 H   0  0  0  0  0  0  0  0  0  0  0  0
   -1.0916    2.4312    3.8892 C   0  0  0  0  0  0  0  0  0  0  0  0
   -0.8475    3.0583    4.7590 H   0  0  0  0  0  0  0  0  0  0  0  0
   -1.6267    3.0097    2.7444 C   0  0  0  0  0  0  0  0  0  0  0  0
   -1.8040    4.0938    2.6888 H   0  0  0  0  0  0  0  0  0  0  0  0
    3.3077   -0.1359    0.0592 C   0  0  1  0  0  0  0  0  0  0  0  0
    3.2122    0.5111    0.9592 H   0  0  0  0  0  0  0  0  0  0  0  0
    3.9399   -1.4757    0.5323 C   0  0  2  0  0  0  0  0  0  0  0  0
    3.2238   -2.0005    1.2002 H   0  0  0  0  0  0  0  0  0  0  0  0
    5.2864   -1.6502   -1.5916 C   0  0  1  0  0  0  0  0  0  0  0  0
    5.5351   -2.3026   -2.4558 H   0  0  0  0  0  0  0  0  0  0  0  0
    4.6585   -0.3386   -2.1002 C   0  0  0  0  0  0  0  0  0  0  0  0
    5.3733    0.1957   -2.7627 H   0  0  0  0  0  0  0  0  0  0  0  0
    3.7667   -0.5697   -2.7169 H   0  0  0  0  0  0  0  0  0  0  0  0
    4.2950    0.5671   -0.9037 C   0  0  2  0  0  0  0  0  0  0  0  0
    3.8371    1.5137   -1.2621 H   0  0  0  0  0  0  0  0  0  0  0  0
    5.5829    0.8876   -0.1171 C   0  0  0  0  0  0  0  0  0  0  0  0
    5.3455    1.5610    0.7337 H   0  0  0  0  0  0  0  0  0  0  0  0
    6.2989    1.4304   -0.7709 H   0  0  0  0  0  0  0  0  0  0  0  0
    6.2234   -0.4185    0.3961 C   0  0  2  0  0  0  0  0  0  0  0  0
    7.1478   -0.1804    0.9645 H   0  0  0  0  0  0  0  0  0  0  0  0
    6.5687   -1.3284   -0.7993 C   0  0  0  0  0  0  0  0  0  0  0  0
    7.0433   -2.2671   -0.4392 H   0  0  0  0  0  0  0  0  0  0  0  0
    7.3073   -0.8269   -1.4615 H   0  0  0  0  0  0  0  0  0  0  0  0
    5.2282   -1.1544    1.3141 C   0  0  0  0  0  0  0  0  0  0  0  0
    5.6840   -2.0945    1.6937 H   0  0  0  0  0  0  0  0  0  0  0  0
    4.9867   -0.5288    2.2000 H   0  0  0  0  0  0  0  0  0  0  0  0
    4.2740   -2.3692   -0.6767 C   0  0  0  0  0  0  0  0  0  0  0  0
    3.3479   -2.6068   -1.2439 H   0  0  0  0  0  0  0  0  0  0  0  0
    4.6947   -3.3359   -0.3250 H   0  0  0  0  0  0  0  0  0  0  0  0
   -1.7553   -1.2513   -0.0772 C   0  0  0  0  0  0  0  0  0  0  0  0
   -1.8458   -2.3162    1.0282 C   0  0  0  0  0  0  0  0  0  0  0  0
   -0.9660   -3.4148    1.0451 C   0  0  0  0  0  0  0  0  0  0  0  0
   -0.1597   -3.4770    0.2998 H   0  0  0  0  0  0  0  0  0  0  0  0
   -1.1084   -4.4321    2.0018 C   0  0  0  0  0  0  0  0  0  0  0  0
   -0.4061   -5.2796    2.0023 H   0  0  0  0  0  0  0  0  0  0  0  0
   -2.1403   -4.3714    2.9503 C   0  0  0  0  0  0  0  0  0  0  0  0
   -2.2505   -5.1669    3.7025 H   0  0  0  0  0  0  0  0  0  0  0  0
   -3.0335   -3.2879    2.9291 C   0  0  0  0  0  0  0  0  0  0  0  0
   -3.8486   -3.2291    3.6663 H   0  0  0  0  0  0  0  0  0  0  0  0
   -2.8885   -2.2723    1.9746 C   0  0  0  0  0  0  0  0  0  0  0  0
   -3.5833   -1.4197    1.9741 H   0  0  0  0  0  0  0  0  0  0  0  0
   -2.7082   -1.7739   -1.1646 C   0  0  0  0  0  0  0  0  0  0  0  0
   -2.2372   -2.5981   -2.2033 C   0  0  0  0  0  0  0  0  0  0  0  0
   -1.1617   -2.8149   -2.2799 H   0  0  0  0  0  0  0  0  0  0  0  0
   -3.1259   -3.1474   -3.1410 C   0  0  0  0  0  0  0  0  0  0  0  0
   -2.7370   -3.7846   -3.9499 H   0  0  0  0  0  0  0  0  0  0  0  0
   -4.5013   -2.8881   -3.0478 C   0  0  0  0  0  0  0  0  0  0  0  0
   -5.1981   -3.3157   -3.7845 H   0  0  0  0  0  0  0  0  0  0  0  0
   -4.9818   -2.0805   -2.0040 C   0  0  0  0  0  0  0  0  0  0  0  0
   -6.0588   -1.8707   -1.9184 H   0  0  0  0  0  0  0  0  0  0  0  0
   -4.0931   -1.5321   -1.0699 C   0  0  0  0  0  0  0  0  0  0  0  0
   -4.4758   -0.8893   -0.2636 H   0  0  0  0  0  0  0  0  0  0  0  0
  1 55  1  1  0  0  0
  1  2  1  0  0  0  0
  2  3  1  0  0  0  0
  4 30  1  0  0  0  0
  4  2  1  0  0  0  0
  5  4  2  0  0  0  0
  6  5  1  0  0  0  0
  7  5  1  0  0  0  0
  7  1  1  0  0  0  0
  8  7  1  0  0  0  0
  9 13  1  0  0  0  0
 10 11  1  0  0  0  0
 10  9  1  0  0  0  0
 11 12  1  0  0  0  0
 12 13  2  0  0  0  0
 12 28  1  0  0  0  0
 13 22  1  0  0  0  0
 14 10  2  0  0  0  0
 15 14  1  0  0  0  0
 16 14  1  0  0  0  0
 16 18  2  0  0  0  0
 17 16  1  0  0  0  0
 18 20  1  0  0  0  0
 19 18  1  0  0  0  0
 20 11  2  0  0  0  0
 20 21  1  0  0  0  0
 22 23  1  0  0  0  0
 22 24  2  0  0  0  0
 24 25  1  0  0  0  0
 26 24  1  0  0  0  0
 26 27  1  0  0  0  0
 28 26  2  0  0  0  0
 29 28  1  0  0  0  0
 30 32  1  0  0  0  0
 30 31  1  1  0  0  0
 32 33  1  1  0  0  0
 32 49  1  0  0  0  0
 34 35  1  6  0  0  0
 34 46  1  0  0  0  0
 34 52  1  0  0  0  0
 36 34  1  0  0  0  0
 36 39  1  0  0  0  0
 37 36  1  0  0  0  0
 38 36  1  0  0  0  0
 39 40  1  6  0  0  0
 39 41  1  0  0  0  0
 39 30  1  0  0  0  0
 41 44  1  0  0  0  0
 41 42  1  0  0  0  0
 43 41  1  0  0  0  0
 44 45  1  1  0  0  0
 44 49  1  0  0  0  0
 46 47  1  0  0  0  0
 46 44  1  0  0  0  0
 48 46  1  0  0  0  0
 49 50  1  0  0  0  0
 49 51  1  0  0  0  0
 52 54  1  0  0  0  0
 52 32  1  0  0  0  0
 53 52  1  0  0  0  0
 55  9  1  0  0  0  0
 55 56  1  0  0  0  0
 56 57  2  0  0  0  0
 56 65  1  0  0  0  0
 57 59  1  0  0  0  0
 58 57  1  0  0  0  0
 59 60  1  0  0  0  0
 59 61  2  0  0  0  0
 61 62  1  0  0  0  0
 63 61  1  0  0  0  0
 63 64  1  0  0  0  0
 65 63  2  0  0  0  0
 66 65  1  0  0  0  0
 67 76  1  0  0  0  0
 67 55  1  0  0  0  0
 68 67  2  0  0  0  0
 69 68  1  0  0  0  0
 70 72  2  0  0  0  0
 70 68  1  0  0  0  0
 71 70  1  0  0  0  0
 72 74  1  0  0  0  0
 73 72  1  0  0  0  0
 74 75  1  0  0  0  0
 74 76  2  0  0  0  0
 76 77  1  0  0  0  0
M  END
