7,14
 OpenBabel05122313053D

 20 21  0  0  0  0  0  0  0  0999 V2000
   -2.7605   -0.0158   -0.0869 N   0  0  0  0  0  0  0  0  0  0  0  0
   -3.8457    0.2704    1.7906 N   0  0  0  0  0  0  0  0  0  0  0  0
   -2.4901    0.2977    1.9892 N   0  0  0  0  0  0  0  0  0  0  0  0
   -2.3098   -0.2081   -1.3583 N   0  0  0  0  0  0  0  0  0  0  0  0
   -2.0038   -0.5361   -3.4921 N   0  0  0  0  0  0  0  0  0  0  0  0
   -0.8061   -0.4355   -2.8355 N   0  0  0  0  0  0  0  0  0  0  0  0
   -1.7660    0.1265    0.8603 C   0  0  0  0  0  2  0  0  0  0  0  0
   -4.0014    0.0755    0.5003 C   0  0  0  0  0  0  0  0  0  0  0  0
   -4.9611   -0.0022   -0.0207 H   0  0  0  0  0  0  0  0  0  0  0  0
   -1.9434    0.5013    3.3187 C   0  0  0  0  0  0  0  0  0  0  0  0
   -1.3055   -0.3617    3.5890 H   0  0  0  0  0  0  0  0  0  0  0  0
   -2.7923    0.5865    4.0178 H   0  0  0  0  0  0  0  0  0  0  0  0
   -1.3388    1.4284    3.3306 H   0  0  0  0  0  0  0  0  0  0  0  0
   -0.9276   -0.2301   -1.5015 C   0  0  0  0  0  2  0  0  0  0  0  0
   -2.9268   -0.3945   -2.5697 C   0  0  0  0  0  0  0  0  0  0  0  0
   -4.0082   -0.4206   -2.7384 H   0  0  0  0  0  0  0  0  0  0  0  0
    0.4250   -0.5555   -3.6045 C   0  0  0  0  0  0  0  0  0  0  0  0
    1.0217    0.3693   -3.4989 H   0  0  0  0  0  0  0  0  0  0  0  0
    0.1292   -0.7262   -4.6536 H   0  0  0  0  0  0  0  0  0  0  0  0
    1.0274   -1.3958   -3.2128 H   0  0  0  0  0  0  0  0  0  0  0  0
  1  8  1  0  0  0  0
  1  7  1  0  0  0  0
  2  3  1  0  0  0  0
  3 10  1  0  0  0  0
  4  1  1  0  0  0  0
  5  6  1  0  0  0  0
  5 15  2  0  0  0  0
  6 14  1  0  0  0  0
  7  3  1  0  0  0  0
  8  2  2  0  0  0  0
  9  8  1  0  0  0  0
 10 13  1  0  0  0  0
 10 11  1  0  0  0  0
 10 12  1  0  0  0  0
 14  4  1  0  0  0  0
 15  4  1  0  0  0  0
 16 15  1  0  0  0  0
 17 18  1  0  0  0  0
 17 20  1  0  0  0  0
 17  6  1  0  0  0  0
 19 17  1  0  0  0  0
M  END
