8
 OpenBabel05122313053D

 54 57  0  0  1  0  0  0  0  0999 V2000
   -0.7018   -0.5629    1.8757 C   0  0  2  0  0  3  0  0  0  0  0  0
   -0.8948   -1.7904    1.1682 C   0  0  0  0  0  0  0  0  0  0  0  0
   -0.3138   -2.7130    1.2892 H   0  0  0  0  0  0  0  0  0  0  0  0
   -1.9882   -1.6563    0.2492 C   0  0  0  0  0  0  0  0  0  0  0  0
   -2.4731   -0.3106    0.3500 C   0  0  0  0  0  0  0  0  0  0  0  0
   -1.6538    0.3557    1.3289 C   0  0  0  0  0  0  0  0  0  0  0  0
   -1.7601    1.4086    1.6118 H   0  0  0  0  0  0  0  0  0  0  0  0
    1.4851    0.1873    1.4853 C   0  0  0  0  0  3  0  0  0  0  0  0
    2.2351   -0.7480    0.6523 C   0  0  0  0  0  0  0  0  0  0  0  0
    2.7142   -0.0476   -0.5293 C   0  0  0  0  0  0  0  0  0  0  0  0
    2.3057    1.3313   -0.4223 C   0  0  0  0  0  0  0  0  0  0  0  0
    1.5694    1.4849    0.8227 C   0  0  0  0  0  0  0  0  0  0  0  0
    0.5566   -0.1856    2.6652 C   0  0  0  0  0  0  0  0  0  0  0  0
    0.2892    0.9761    3.6389 C   0  0  0  0  0  0  0  0  0  0  0  0
   -0.2904    0.6010    4.5052 H   0  0  0  0  0  0  0  0  0  0  0  0
   -0.3023    1.7933    3.1940 H   0  0  0  0  0  0  0  0  0  0  0  0
    1.2412    1.4007    4.0137 H   0  0  0  0  0  0  0  0  0  0  0  0
    1.0772   -1.3587    3.5160 C   0  0  0  0  0  0  0  0  0  0  0  0
    0.4225   -1.4914    4.3996 H   0  0  0  0  0  0  0  0  0  0  0  0
    2.1067   -1.1553    3.8712 H   0  0  0  0  0  0  0  0  0  0  0  0
    1.0823   -2.3225    2.9809 H   0  0  0  0  0  0  0  0  0  0  0  0
   -2.5138   -2.8004   -0.5696 C   0  0  0  0  0  0  0  0  0  0  0  0
   -3.5860   -2.9879   -0.3588 H   0  0  0  0  0  0  0  0  0  0  0  0
   -1.9543   -3.7257   -0.3358 H   0  0  0  0  0  0  0  0  0  0  0  0
   -2.4034   -2.6206   -1.6563 H   0  0  0  0  0  0  0  0  0  0  0  0
   -3.7632    0.2663   -0.2391 C   0  0  0  0  0  0  0  0  0  0  0  0
   -4.9387   -0.3953    0.5222 C   0  0  0  0  0  0  0  0  0  0  0  0
   -5.9045    0.0171    0.1634 H   0  0  0  0  0  0  0  0  0  0  0  0
   -4.8648   -0.2020    1.6116 H   0  0  0  0  0  0  0  0  0  0  0  0
   -4.9643   -1.4927    0.3724 H   0  0  0  0  0  0  0  0  0  0  0  0
   -3.9020   -0.0159   -1.7490 C   0  0  0  0  0  0  0  0  0  0  0  0
   -4.8476    0.4255   -2.1248 H   0  0  0  0  0  0  0  0  0  0  0  0
   -3.9331   -1.0988   -1.9700 H   0  0  0  0  0  0  0  0  0  0  0  0
   -3.0614    0.4320   -2.3124 H   0  0  0  0  0  0  0  0  0  0  0  0
   -3.8394    1.7884   -0.0086 C   0  0  0  0  0  0  0  0  0  0  0  0
   -4.7721    2.1861   -0.4566 H   0  0  0  0  0  0  0  0  0  0  0  0
   -2.9826    2.3092   -0.4776 H   0  0  0  0  0  0  0  0  0  0  0  0
   -3.8621    2.0380    1.0716 H   0  0  0  0  0  0  0  0  0  0  0  0
    2.5320   -2.1452    0.7480 C   0  0  0  0  0  0  0  0  0  0  0  0
    2.2212   -2.7321    1.6180 H   0  0  0  0  0  0  0  0  0  0  0  0
    3.2602   -2.7702   -0.2570 C   0  0  0  0  0  0  0  0  0  0  0  0
    3.4854   -3.8430   -0.1608 H   0  0  0  0  0  0  0  0  0  0  0  0
    3.7198   -2.0660   -1.4010 C   0  0  0  0  0  0  0  0  0  0  0  0
    4.2867   -2.5992   -2.1778 H   0  0  0  0  0  0  0  0  0  0  0  0
    3.4550   -0.7101   -1.5363 C   0  0  0  0  0  0  0  0  0  0  0  0
    3.8012   -0.1509   -2.4178 H   0  0  0  0  0  0  0  0  0  0  0  0
    2.5262    2.4228   -1.2941 C   0  0  0  0  0  0  0  0  0  0  0  0
    3.0854    2.2724   -2.2292 H   0  0  0  0  0  0  0  0  0  0  0  0
    2.0146    3.6694   -0.9603 C   0  0  0  0  0  0  0  0  0  0  0  0
    2.1681    4.5278   -1.6301 H   0  0  0  0  0  0  0  0  0  0  0  0
    1.2924    3.8417    0.2501 C   0  0  0  0  0  0  0  0  0  0  0  0
    0.9011    4.8384    0.5038 H   0  0  0  0  0  0  0  0  0  0  0  0
    1.0633    2.7883    1.1267 C   0  0  0  0  0  0  0  0  0  0  0  0
    0.5168    2.9828    2.0545 H   0  0  0  0  0  0  0  0  0  0  0  0
  1 13  1  6  0  0  0
  2  3  1  0  0  0  0
  2  1  1  0  0  0  0
  4  5  1  0  0  0  0
  4  2  2  0  0  0  0
  5  6  2  0  0  0  0
  6  7  1  0  0  0  0
  6  1  1  0  0  0  0
  8 13  1  0  0  0  0
  9 39  1  0  0  0  0
  9  8  1  0  0  0  0
 10 11  1  0  0  0  0
 10  9  2  0  0  0  0
 11 12  1  0  0  0  0
 12 53  2  0  0  0  0
 12  8  1  0  0  0  0
 13 18  1  0  0  0  0
 13 14  1  0  0  0  0
 14 17  1  0  0  0  0
 14 15  1  0  0  0  0
 16 14  1  0  0  0  0
 18 20  1  0  0  0  0
 18 19  1  0  0  0  0
 21 18  1  0  0  0  0
 22 23  1  0  0  0  0
 22 24  1  0  0  0  0
 22  4  1  0  0  0  0
 25 22  1  0  0  0  0
 26 35  1  0  0  0  0
 26  5  1  0  0  0  0
 26 27  1  0  0  0  0
 27 29  1  0  0  0  0
 28 27  1  0  0  0  0
 30 27  1  0  0  0  0
 31 26  1  0  0  0  0
 32 31  1  0  0  0  0
 33 31  1  0  0  0  0
 34 31  1  0  0  0  0
 35 38  1  0  0  0  0
 36 35  1  0  0  0  0
 37 35  1  0  0  0  0
 39 40  1  0  0  0  0
 41 42  1  0  0  0  0
 41 39  2  0  0  0  0
 43 41  1  0  0  0  0
 44 43  1  0  0  0  0
 45 43  2  0  0  0  0
 45 10  1  0  0  0  0
 46 45  1  0  0  0  0
 47 49  1  0  0  0  0
 47 11  2  0  0  0  0
 48 47  1  0  0  0  0
 49 51  2  0  0  0  0
 50 49  1  0  0  0  0
 51 52  1  0  0  0  0
 51 53  1  0  0  0  0
 53 54  1  0  0  0  0
M  END
