1,13
 OpenBabel05122313053D

 22 21  0  0  1  0  0  0  0  0999 V2000
   -0.1084   -1.2992   -1.0879 C   0  0  0  0  0  3  0  0  0  0  0  0
   -0.3166   -2.2420   -1.8117 O   0  0  0  0  0  0  0  0  0  0  0  0
    1.0577   -0.6891   -0.4316 C   0  0  2  0  0  3  0  0  0  0  0  0
    2.0951   -1.3592    0.2191 N   0  0  0  0  0  0  0  0  0  0  0  0
    2.1499   -2.8037    0.0281 C   0  0  0  0  0  0  0  0  0  0  0  0
    3.1638   -3.1709    0.2835 H   0  0  0  0  0  0  0  0  0  0  0  0
    1.9304   -3.0529   -1.0251 H   0  0  0  0  0  0  0  0  0  0  0  0
    1.4109   -3.3418    0.6701 H   0  0  0  0  0  0  0  0  0  0  0  0
    2.3844   -0.9192    1.5772 C   0  0  0  0  0  0  0  0  0  0  0  0
    3.3089   -1.4089    1.9406 H   0  0  0  0  0  0  0  0  0  0  0  0
    1.5450   -1.1644    2.2748 H   0  0  0  0  0  0  0  0  0  0  0  0
    2.5369    0.1766    1.6105 H   0  0  0  0  0  0  0  0  0  0  0  0
    0.7423    0.6900   -0.3733 C   0  0  0  0  0  2  0  0  0  0  0  0
    1.5215    1.7616   -0.4271 N   0  0  0  0  0  0  0  0  0  0  0  0
    2.9360    1.6819   -0.7882 C   0  0  0  0  0  0  0  0  0  0  0  0
    3.5575    2.1877   -0.0194 H   0  0  0  0  0  0  0  0  0  0  0  0
    3.1143    2.1847   -1.7625 H   0  0  0  0  0  0  0  0  0  0  0  0
    3.2406    0.6219   -0.8599 H   0  0  0  0  0  0  0  0  0  0  0  0
    0.9868    3.0957   -0.1832 C   0  0  0  0  0  0  0  0  0  0  0  0
    1.3012    3.4767    0.8120 H   0  0  0  0  0  0  0  0  0  0  0  0
   -0.1162    3.0534   -0.2176 H   0  0  0  0  0  0  0  0  0  0  0  0
    1.3542    3.7965   -0.9609 H   0  0  0  0  0  0  0  0  0  0  0  0
  2  1  2  0  0  0  0
  3  1  1  1  0  0  0
  3 13  1  0  0  0  0
  3  4  1  0  0  0  0
  4  9  1  0  0  0  0
  5  4  1  0  0  0  0
  5  6  1  0  0  0  0
  5  8  1  0  0  0  0
  7  5  1  0  0  0  0
  9 12  1  0  0  0  0
  9 10  1  0  0  0  0
  9 11  1  0  0  0  0
 14 13  1  0  0  0  0
 14 19  1  0  0  0  0
 15 14  1  0  0  0  0
 15 16  1  0  0  0  0
 17 15  1  0  0  0  0
 18 15  1  0  0  0  0
 19 20  1  0  0  0  0
 21 19  1  0  0  0  0
 22 19  1  0  0  0  0
M  END
