1,5
 OpenBabel05122313053D

 30 31  0  0  0  0  0  0  0  0999 V2000
   -1.5886   -0.5964   -0.1849 C   0  0  0  0  0  2  0  0  0  0  0  0
   -2.3630   -1.4801    0.5982 C   0  0  0  0  0  0  0  0  0  0  0  0
   -1.8296   -2.6623    1.1618 C   0  0  0  0  0  0  0  0  0  0  0  0
   -0.4973   -3.0865    1.0247 C   0  0  0  0  0  0  0  0  0  0  0  0
    0.4657   -2.3876    0.3142 C   0  0  0  0  0  3  0  0  0  0  0  0
   -2.1932    0.6848   -0.6422 C   0  0  0  0  0  0  0  0  0  0  0  0
   -2.5828    1.6606    0.3055 C   0  0  0  0  0  0  0  0  0  0  0  0
   -3.1060    2.8934   -0.1085 C   0  0  0  0  0  0  0  0  0  0  0  0
   -3.2744    3.1693   -1.4751 C   0  0  0  0  0  0  0  0  0  0  0  0
   -2.9124    2.2001   -2.4260 C   0  0  0  0  0  0  0  0  0  0  0  0
   -2.3698    0.9753   -2.0147 C   0  0  0  0  0  0  0  0  0  0  0  0
   -3.8056   -1.1920    0.8817 C   0  0  0  0  0  0  0  0  0  0  0  0
   -4.2758   -1.1770    2.2132 C   0  0  0  0  0  0  0  0  0  0  0  0
   -5.6242   -0.9161    2.4998 C   0  0  0  0  0  0  0  0  0  0  0  0
   -6.5311   -0.6688    1.4579 C   0  0  0  0  0  0  0  0  0  0  0  0
   -6.0787   -0.6900    0.1284 C   0  0  0  0  0  0  0  0  0  0  0  0
   -4.7315   -0.9491   -0.1564 C   0  0  0  0  0  0  0  0  0  0  0  0
   -2.5193   -3.2959    1.7426 H   0  0  0  0  0  0  0  0  0  0  0  0
   -0.2069   -4.0294    1.5202 H   0  0  0  0  0  0  0  0  0  0  0  0
    1.4937   -2.8040    0.3084 H   0  0  0  0  0  0  0  0  0  0  0  0
   -2.4649    1.4393    1.3765 H   0  0  0  0  0  0  0  0  0  0  0  0
   -3.3924    3.6434    0.6448 H   0  0  0  0  0  0  0  0  0  0  0  0
   -3.6918    4.1348   -1.7987 H   0  0  0  0  0  0  0  0  0  0  0  0
   -3.0532    2.4016   -3.4992 H   0  0  0  0  0  0  0  0  0  0  0  0
   -2.0778    0.2168   -2.7569 H   0  0  0  0  0  0  0  0  0  0  0  0
   -3.5635   -1.3539    3.0342 H   0  0  0  0  0  0  0  0  0  0  0  0
   -5.9668   -0.8998    3.5461 H   0  0  0  0  0  0  0  0  0  0  0  0
   -7.5888   -0.4611    1.6806 H   0  0  0  0  0  0  0  0  0  0  0  0
   -6.7836   -0.5057   -0.6969 H   0  0  0  0  0  0  0  0  0  0  0  0
   -4.3858   -0.9689   -1.1998 H   0  0  0  0  0  0  0  0  0  0  0  0
  1  2  1  0  0  0  0
  2 12  1  0  0  0  0
  2  3  2  0  0  0  0
  3 18  1  0  0  0  0
  4  3  1  0  0  0  0
  4 19  1  0  0  0  0
  5  4  2  0  0  0  0
  6  1  1  0  0  0  0
  6  7  1  0  0  0  0
  7 21  1  0  0  0  0
  8  7  2  0  0  0  0
  8 22  1  0  0  0  0
  9  8  1  0  0  0  0
 10 11  1  0  0  0  0
 10  9  2  0  0  0  0
 11  6  2  0  0  0  0
 12 13  1  0  0  0  0
 13 14  2  0  0  0  0
 13 26  1  0  0  0  0
 14 27  1  0  0  0  0
 15 28  1  0  0  0  0
 15 14  1  0  0  0  0
 16 15  2  0  0  0  0
 17 16  1  0  0  0  0
 17 12  2  0  0  0  0
 20  5  1  0  0  0  0
 23  9  1  0  0  0  0
 24 10  1  0  0  0  0
 25 11  1  0  0  0  0
 29 16  1  0  0  0  0
 30 17  1  0  0  0  0
M  END
