3,5
 OpenBabel05122313053D

 28 29  0  0  0  0  0  0  0  0999 V2000
   -0.3289    0.9479    0.0483 C   0  0  0  0  0  0  0  0  0  0  0  0
    0.2548    1.0715    1.3666 C   0  0  0  0  0  0  0  0  0  0  0  0
    1.5039    1.7199    1.5520 C   0  0  0  0  0  3  0  0  0  0  0  0
    2.2194    2.2697    0.4306 C   0  0  0  0  0  3  0  0  0  0  0  0
    1.6639    2.1292   -0.8715 C   0  0  0  0  0  3  0  0  0  0  0  0
    0.3896    1.4847   -1.0582 C   0  0  0  0  0  3  0  0  0  0  0  0
   -1.6355    0.2329   -0.1349 C   0  0  0  0  0  0  0  0  0  0  0  0
   -2.8345    1.1197    0.2865 C   0  0  0  0  0  0  0  0  0  0  0  0
   -4.1501    0.3971    0.1037 C   0  0  0  0  0  0  0  0  0  0  0  0
   -4.6138   -0.5030    1.0841 C   0  0  0  0  0  0  0  0  0  0  0  0
   -5.8123   -1.2072    0.9000 C   0  0  0  0  0  0  0  0  0  0  0  0
   -6.5640   -1.0224   -0.2715 C   0  0  0  0  0  0  0  0  0  0  0  0
   -6.1118   -0.1291   -1.2549 C   0  0  0  0  0  0  0  0  0  0  0  0
   -4.9117    0.5736   -1.0680 C   0  0  0  0  0  0  0  0  0  0  0  0
   -0.2390    0.5847    2.2199 H   0  0  0  0  0  0  0  0  0  0  0  0
    1.9553    1.7429    2.5560 H   0  0  0  0  0  0  0  0  0  0  0  0
    3.2045    2.7398    0.5665 H   0  0  0  0  0  0  0  0  0  0  0  0
    2.2331    2.4831   -1.7451 H   0  0  0  0  0  0  0  0  0  0  0  0
   -0.0096    1.3385   -2.0731 H   0  0  0  0  0  0  0  0  0  0  0  0
   -1.7523   -0.0743   -1.1931 H   0  0  0  0  0  0  0  0  0  0  0  0
   -1.6277   -0.7002    0.4641 H   0  0  0  0  0  0  0  0  0  0  0  0
   -2.8266    2.0556   -0.3099 H   0  0  0  0  0  0  0  0  0  0  0  0
   -2.7101    1.4199    1.3489 H   0  0  0  0  0  0  0  0  0  0  0  0
   -4.0330   -0.6475    2.0098 H   0  0  0  0  0  0  0  0  0  0  0  0
   -6.1656   -1.9001    1.6785 H   0  0  0  0  0  0  0  0  0  0  0  0
   -7.5067   -1.5711   -0.4150 H   0  0  0  0  0  0  0  0  0  0  0  0
   -6.7002    0.0265   -2.1716 H   0  0  0  0  0  0  0  0  0  0  0  0
   -4.5658    1.2800   -1.8400 H   0  0  0  0  0  0  0  0  0  0  0  0
  1  2  2  0  0  0  0
  2  3  1  0  0  0  0
  2 15  1  0  0  0  0
  3 16  1  0  0  0  0
  4 17  1  0  0  0  0
  4  3  1  0  0  0  0
  5  4  1  0  0  0  0
  6  5  1  0  0  0  0
  6  1  1  0  0  0  0
  7  1  1  0  0  0  0
  7  8  1  0  0  0  0
  7 21  1  0  0  0  0
  8 23  1  0  0  0  0
  9  8  1  0  0  0  0
  9 10  1  0  0  0  0
 10 24  1  0  0  0  0
 11 10  2  0  0  0  0
 11 25  1  0  0  0  0
 12 11  1  0  0  0  0
 13 14  1  0  0  0  0
 13 12  2  0  0  0  0
 14  9  2  0  0  0  0
 18  5  1  0  0  0  0
 19  6  1  0  0  0  0
 20  7  1  0  0  0  0
 22  8  1  0  0  0  0
 26 12  1  0  0  0  0
 27 13  1  0  0  0  0
 28 14  1  0  0  0  0
M  END
