2
 OpenBabel05122313053D

 64 69  0  0  1  0  0  0  0  0999 V2000
    0.6451   -1.3232    1.5939 C   0  0  0  0  0  0  0  0  0  0  0  0
    0.0954   -2.4200    0.8357 C   0  0  2  0  0  3  0  0  0  0  0  0
   -0.9491   -3.4068    1.2746 C   0  0  0  0  0  0  0  0  0  0  0  0
   -0.4682   -4.2905    1.7471 H   0  0  0  0  0  0  0  0  0  0  0  0
   -1.5375   -3.7725    0.4101 H   0  0  0  0  0  0  0  0  0  0  0  0
   -1.6549   -2.9865    2.0138 H   0  0  0  0  0  0  0  0  0  0  0  0
    0.6808   -3.2778   -1.1618 H   0  0  0  0  0  0  0  0  0  0  0  0
    0.8548   -2.5326   -0.3766 C   0  0  0  0  0  0  0  0  0  0  0  0
    1.8523   -1.5277   -0.3845 C   0  0  0  0  0  0  0  0  0  0  0  0
    3.0178   -1.2605   -1.2801 C   0  0  0  0  0  0  0  0  0  0  0  0
    2.8485   -0.3076   -1.8268 H   0  0  0  0  0  0  0  0  0  0  0  0
    3.1258   -2.0526   -2.0474 H   0  0  0  0  0  0  0  0  0  0  0  0
    4.3195   -1.1406   -0.4444 C   0  0  1  0  0  0  0  0  0  0  0  0
    4.6192   -2.1679   -0.1538 H   0  0  0  0  0  0  0  0  0  0  0  0
    5.4493   -0.4541   -1.2527 C   0  0  0  0  0  0  0  0  0  0  0  0
    6.4335   -0.8961   -0.9889 H   0  0  0  0  0  0  0  0  0  0  0  0
    5.3199   -0.5795   -2.3472 H   0  0  0  0  0  0  0  0  0  0  0  0
    5.4090    1.0087   -0.7919 C   0  0  0  0  0  0  0  0  0  0  0  0
    4.5370    1.5276   -1.2470 H   0  0  0  0  0  0  0  0  0  0  0  0
    6.3139    1.5872   -1.0671 H   0  0  0  0  0  0  0  0  0  0  0  0
    5.2078    0.8668    0.7227 C   0  0  0  0  0  0  0  0  0  0  0  0
    4.8806    1.8039    1.2188 H   0  0  0  0  0  0  0  0  0  0  0  0
    6.1677    0.5686    1.1953 H   0  0  0  0  0  0  0  0  0  0  0  0
    4.1658   -0.2715    0.8654 C   0  0  1  0  0  0  0  0  0  0  0  0
    4.4012   -0.9072    1.7430 H   0  0  0  0  0  0  0  0  0  0  0  0
    2.7376    0.2951    1.0921 C   0  0  0  0  0  0  0  0  0  0  0  0
    2.6605    0.6942    2.1234 H   0  0  0  0  0  0  0  0  0  0  0  0
    2.5826    1.1540    0.4034 H   0  0  0  0  0  0  0  0  0  0  0  0
    1.7095   -0.7605    0.8165 C   0  0  0  0  0  0  0  0  0  0  0  0
    0.1872   -0.8515    2.9510 C   0  0  0  0  0  0  0  0  0  0  0  0
    0.3115   -1.6628    3.7005 H   0  0  0  0  0  0  0  0  0  0  0  0
    0.8581   -0.0330    3.2792 H   0  0  0  0  0  0  0  0  0  0  0  0
   -1.2784   -0.3572    2.9414 C   0  0  0  0  0  0  0  0  0  0  0  0
   -1.9689   -1.2078    3.1062 H   0  0  0  0  0  0  0  0  0  0  0  0
   -1.4481    0.3370    3.7934 H   0  0  0  0  0  0  0  0  0  0  0  0
   -1.6484    0.3189    1.6457 C   0  0  1  0  0  3  0  0  0  0  0  0
   -2.6878   -0.0763    0.7373 C   0  0  0  0  0  0  0  0  0  0  0  0
   -3.7187   -1.1694    0.8635 C   0  0  0  0  0  0  0  0  0  0  0  0
   -3.3746   -2.1058    0.3758 H   0  0  0  0  0  0  0  0  0  0  0  0
   -3.8889   -1.4131    1.9331 H   0  0  0  0  0  0  0  0  0  0  0  0
   -5.0266   -0.7185    0.1880 C   0  0  0  0  0  0  0  0  0  0  0  0
   -5.7683   -1.5429    0.2235 H   0  0  0  0  0  0  0  0  0  0  0  0
   -5.4642    0.1294    0.7611 H   0  0  0  0  0  0  0  0  0  0  0  0
   -4.7771   -0.2985   -1.2666 C   0  0  0  0  0  0  0  0  0  0  0  0
   -5.7357   -0.0533   -1.7677 H   0  0  0  0  0  0  0  0  0  0  0  0
   -4.3410   -1.1601   -1.8122 H   0  0  0  0  0  0  0  0  0  0  0  0
   -3.8151    0.9000   -1.3835 C   0  0  0  0  0  0  0  0  0  0  0  0
   -4.3778    1.8545   -1.2651 H   0  0  0  0  0  0  0  0  0  0  0  0
   -3.3718    0.9342   -2.4006 H   0  0  0  0  0  0  0  0  0  0  0  0
   -2.7407    0.8815   -0.3301 C   0  0  0  0  0  0  0  0  0  0  0  0
   -1.7568    1.8809   -0.0764 C   0  0  0  0  0  0  0  0  0  0  0  0
   -1.5436    3.1803   -0.7999 C   0  0  0  0  0  0  0  0  0  0  0  0
   -0.9329    3.0092   -1.7128 H   0  0  0  0  0  0  0  0  0  0  0  0
   -2.5232    3.5715   -1.1483 H   0  0  0  0  0  0  0  0  0  0  0  0
   -0.8380    4.2030    0.1084 C   0  0  0  0  0  0  0  0  0  0  0  0
   -0.5132    5.0759   -0.4937 H   0  0  0  0  0  0  0  0  0  0  0  0
   -1.5572    4.5912    0.8642 H   0  0  0  0  0  0  0  0  0  0  0  0
    0.3630    3.5803    0.8338 C   0  0  0  0  0  0  0  0  0  0  0  0
    0.9165    4.3540    1.4043 H   0  0  0  0  0  0  0  0  0  0  0  0
    1.0658    3.1702    0.0774 H   0  0  0  0  0  0  0  0  0  0  0  0
   -0.0745    2.4551    1.7853 C   0  0  0  0  0  0  0  0  0  0  0  0
   -0.5745    2.8978    2.6785 H   0  0  0  0  0  0  0  0  0  0  0  0
    0.8099    1.9172    2.1786 H   0  0  0  0  0  0  0  0  0  0  0  0
   -1.0575    1.5224    1.1238 C   0  0  0  0  0  0  0  0  0  0  0  0
  1 30  1  0  0  0  0
  2  3  1  1  0  0  0
  2  1  1  0  0  0  0
  3  4  1  0  0  0  0
  3  6  1  0  0  0  0
  5  3  1  0  0  0  0
  7  8  1  0  0  0  0
  8  2  1  0  0  0  0
  9  8  2  0  0  0  0
  9 29  1  0  0  0  0
 10 13  1  0  0  0  0
 10  9  1  0  0  0  0
 11 10  1  0  0  0  0
 12 10  1  0  0  0  0
 13 14  1  1  0  0  0
 13 24  1  0  0  0  0
 15 16  1  0  0  0  0
 15 18  1  0  0  0  0
 15 13  1  0  0  0  0
 17 15  1  0  0  0  0
 18 21  1  0  0  0  0
 19 18  1  0  0  0  0
 20 18  1  0  0  0  0
 21 24  1  0  0  0  0
 21 23  1  0  0  0  0
 21 22  1  0  0  0  0
 24 26  1  0  0  0  0
 24 25  1  1  0  0  0
 26 27  1  0  0  0  0
 28 26  1  0  0  0  0
 29 26  1  0  0  0  0
 29  1  2  0  0  0  0
 30 32  1  0  0  0  0
 30 31  1  0  0  0  0
 33 30  1  0  0  0  0
 33 34  1  0  0  0  0
 33 35  1  0  0  0  0
 36 33  1  1  0  0  0
 37 38  1  0  0  0  0
 37 36  1  0  0  0  0
 38 40  1  0  0  0  0
 39 38  1  0  0  0  0
 41 42  1  0  0  0  0
 41 43  1  0  0  0  0
 41 38  1  0  0  0  0
 44 41  1  0  0  0  0
 45 44  1  0  0  0  0
 46 44  1  0  0  0  0
 47 44  1  0  0  0  0
 47 48  1  0  0  0  0
 47 50  1  0  0  0  0
 49 47  1  0  0  0  0
 50 51  1  0  0  0  0
 50 37  2  0  0  0  0
 51 64  2  0  0  0  0
 52 51  1  0  0  0  0
 52 55  1  0  0  0  0
 53 52  1  0  0  0  0
 54 52  1  0  0  0  0
 55 58  1  0  0  0  0
 55 57  1  0  0  0  0
 56 55  1  0  0  0  0
 58 59  1  0  0  0  0
 58 61  1  0  0  0  0
 60 58  1  0  0  0  0
 61 63  1  0  0  0  0
 61 62  1  0  0  0  0
 64 36  1  0  0  0  0
 64 61  1  0  0  0  0
M  END
