2,3
 OpenBabel05122313053D

 26 27  0  0  0  0  0  0  0  0999 V2000
    1.9042    2.6468   -0.1476 N   0  0  0  0  0  0  0  0  0  0  0  0
   -1.2939    0.4773   -0.0119 C   0  0  0  0  0  3  0  0  0  0  0  0
    0.8735    1.7627    0.0172 C   0  0  0  0  0  2  0  0  0  0  0  0
   -0.2333    2.5528    0.2539 N   0  0  0  0  0  0  0  0  0  0  0  0
   -6.1174    0.0495    0.0251 O   0  0  0  0  0  0  0  0  0  0  0  0
   -1.4659    1.8645    0.2469 C   0  0  0  0  0  0  0  0  0  0  0  0
   -2.4732   -0.2693   -0.1716 C   0  0  0  0  0  0  0  0  0  0  0  0
   -2.3929   -1.3288   -0.4493 H   0  0  0  0  0  0  0  0  0  0  0  0
    1.4505    3.9574    0.0122 C   0  0  0  0  0  0  0  0  0  0  0  0
    2.1223    4.8170   -0.0688 H   0  0  0  0  0  0  0  0  0  0  0  0
   -4.9154   -1.9496   -0.5116 C   0  0  0  0  0  0  0  0  0  0  0  0
   -4.3344   -2.5089    0.2505 H   0  0  0  0  0  0  0  0  0  0  0  0
   -4.3908   -2.0838   -1.4797 H   0  0  0  0  0  0  0  0  0  0  0  0
   -5.9337   -2.3717   -0.5810 H   0  0  0  0  0  0  0  0  0  0  0  0
   -2.7164    2.4770    0.4172 C   0  0  0  0  0  0  0  0  0  0  0  0
   -2.7979    3.5552    0.6235 H   0  0  0  0  0  0  0  0  0  0  0  0
   -3.7524    0.3119   -0.0041 C   0  0  0  0  0  0  0  0  0  0  0  0
   -5.0203   -0.4756   -0.1473 C   0  0  0  0  0  0  0  0  0  0  0  0
    0.1030    3.8982    0.2619 C   0  0  0  0  0  0  0  0  0  0  0  0
   -0.6267    4.6950    0.4287 H   0  0  0  0  0  0  0  0  0  0  0  0
   -3.8629    1.6862    0.3053 C   0  0  0  0  0  0  0  0  0  0  0  0
   -4.8710    2.1061    0.4325 H   0  0  0  0  0  0  0  0  0  0  0  0
    3.2367    2.2759   -0.5855 C   0  0  0  0  0  0  0  0  0  0  0  0
    3.9866    2.4413    0.2138 H   0  0  0  0  0  0  0  0  0  0  0  0
    3.5168    2.8667   -1.4790 H   0  0  0  0  0  0  0  0  0  0  0  0
    3.2103    1.2068   -0.8620 H   0  0  0  0  0  0  0  0  0  0  0  0
  1  9  1  0  0  0  0
  1  3  1  0  0  0  0
  2  6  1  0  0  0  0
  3  4  1  0  0  0  0
  4 19  1  0  0  0  0
  6  4  1  0  0  0  0
  6 15  2  0  0  0  0
  7  2  2  0  0  0  0
  7 17  1  0  0  0  0
  8  7  1  0  0  0  0
  9 19  2  0  0  0  0
 10  9  1  0  0  0  0
 11 18  1  0  0  0  0
 11 12  1  0  0  0  0
 13 11  1  0  0  0  0
 14 11  1  0  0  0  0
 15 16  1  0  0  0  0
 17 21  2  0  0  0  0
 18 17  1  0  0  0  0
 18  5  2  0  0  0  0
 19 20  1  0  0  0  0
 21 15  1  0  0  0  0
 21 22  1  0  0  0  0
 23  1  1  0  0  0  0
 23 24  1  0  0  0  0
 25 23  1  0  0  0  0
 26 23  1  0  0  0  0
M  END
