4,13
 OpenBabel05122313053D

 29 29  0  0  0  0  0  0  0  0999 V2000
   -0.4482    2.3255    0.8923 N   0  0  0  0  0  0  0  0  0  0  0  0
   -1.0115    3.0942    1.2711 H   0  0  0  0  0  0  0  0  0  0  0  0
    0.8771    2.5399    0.4893 C   0  0  0  0  0  0  0  0  0  0  0  0
    1.4675    1.3611   -0.0299 C   0  0  0  0  0  3  0  0  0  0  0  0
    2.7751    1.4789   -0.5344 C   0  0  0  0  0  0  0  0  0  0  0  0
    3.2587    0.6117   -1.0083 H   0  0  0  0  0  0  0  0  0  0  0  0
    3.4683    2.7018   -0.4607 C   0  0  0  0  0  0  0  0  0  0  0  0
    4.4959    2.7670   -0.8512 H   0  0  0  0  0  0  0  0  0  0  0  0
    2.8615    3.8436    0.0920 C   0  0  0  0  0  0  0  0  0  0  0  0
    3.4106    4.7957    0.1404 H   0  0  0  0  0  0  0  0  0  0  0  0
    1.5419    3.7723    0.5645 C   0  0  0  0  0  0  0  0  0  0  0  0
    1.0377    4.6629    0.9724 H   0  0  0  0  0  0  0  0  0  0  0  0
   -0.9642    1.0931    0.7189 C   0  0  0  0  0  2  0  0  0  0  0  0
   -2.4109    0.9629    1.1076 C   0  0  0  0  0  0  0  0  0  0  0  0
   -2.6490    1.7448    1.8670 H   0  0  0  0  0  0  0  0  0  0  0  0
   -2.5753   -0.0144    1.6001 H   0  0  0  0  0  0  0  0  0  0  0  0
   -3.4565    1.1015   -0.0532 C   0  0  0  0  0  0  0  0  0  0  0  0
   -3.1290    2.3234   -0.9287 C   0  0  0  0  0  0  0  0  0  0  0  0
   -3.9264    2.4767   -1.6845 H   0  0  0  0  0  0  0  0  0  0  0  0
   -2.1718    2.1807   -1.4697 H   0  0  0  0  0  0  0  0  0  0  0  0
   -3.0636    3.2548   -0.3260 H   0  0  0  0  0  0  0  0  0  0  0  0
   -4.8364    1.2820    0.6053 C   0  0  0  0  0  0  0  0  0  0  0  0
   -4.8817    2.2117    1.2105 H   0  0  0  0  0  0  0  0  0  0  0  0
   -5.0788    0.4291    1.2733 H   0  0  0  0  0  0  0  0  0  0  0  0
   -5.6308    1.3414   -0.1666 H   0  0  0  0  0  0  0  0  0  0  0  0
   -3.4733   -0.1618   -0.9296 C   0  0  0  0  0  0  0  0  0  0  0  0
   -4.2434   -0.0629   -1.7224 H   0  0  0  0  0  0  0  0  0  0  0  0
   -3.7271   -1.0594   -0.3286 H   0  0  0  0  0  0  0  0  0  0  0  0
   -2.4950   -0.3208   -1.4228 H   0  0  0  0  0  0  0  0  0  0  0  0
  1  2  1  0  0  0  0
  3 11  1  0  0  0  0
  3  1  1  0  0  0  0
  4  3  2  0  0  0  0
  5  7  2  0  0  0  0
  5  4  1  0  0  0  0
  6  5  1  0  0  0  0
  7  9  1  0  0  0  0
  8  7  1  0  0  0  0
  9 10  1  0  0  0  0
  9 11  2  0  0  0  0
 11 12  1  0  0  0  0
 13  1  1  0  0  0  0
 13 14  1  0  0  0  0
 14 16  1  0  0  0  0
 14 15  1  0  0  0  0
 17 22  1  0  0  0  0
 17 14  1  0  0  0  0
 18 21  1  0  0  0  0
 18 17  1  0  0  0  0
 19 18  1  0  0  0  0
 20 18  1  0  0  0  0
 22 23  1  0  0  0  0
 22 24  1  0  0  0  0
 25 22  1  0  0  0  0
 26 28  1  0  0  0  0
 26 17  1  0  0  0  0
 27 26  1  0  0  0  0
 29 26  1  0  0  0  0
M  END
