8,11
 OpenBabel05122313053D

 40 42  0  0  1  0  0  0  0  0999 V2000
   -0.5549   -0.0004    0.4044 P   0  0  0  0  0  0  0  0  0  0  0  0
   -0.2606    0.1603    2.2542 C   0  0  0  0  0  0  0  0  0  0  0  0
   -1.1365    0.6048    2.7689 H   0  0  0  0  0  0  0  0  0  0  0  0
   -0.1214   -0.8670    2.6470 H   0  0  0  0  0  0  0  0  0  0  0  0
    1.0222    0.9903    2.4469 C   0  0  0  0  0  0  0  0  0  0  0  0
    0.7989    2.0636    2.2795 H   0  0  0  0  0  0  0  0  0  0  0  0
    1.3835    0.8939    3.4933 H   0  0  0  0  0  0  0  0  0  0  0  0
    2.1038    0.5538    1.4653 C   0  0  1  0  0  3  0  0  0  0  0  0
    2.5955   -0.8020    1.5012 C   0  0  0  0  0  3  0  0  0  0  0  0
    2.2909   -1.4888    2.3046 H   0  0  0  0  0  0  0  0  0  0  0  0
    3.3502   -1.2812    0.3945 C   0  0  0  0  0  3  0  0  0  0  0  0
    3.6139   -2.3493    0.3458 H   0  0  0  0  0  0  0  0  0  0  0  0
    3.7591   -0.4079   -0.6667 C   0  0  0  0  0  3  0  0  0  0  0  0
    4.3284   -0.7943   -1.5230 H   0  0  0  0  0  0  0  0  0  0  0  0
    3.3655    0.9690   -0.6120 C   0  0  0  0  0  0  0  0  0  0  0  0
    3.6419    1.6414   -1.4393 H   0  0  0  0  0  0  0  0  0  0  0  0
    2.6049    1.4794    0.4746 C   0  0  0  0  0  0  0  0  0  0  0  0
    2.3031    2.5364    0.5017 H   0  0  0  0  0  0  0  0  0  0  0  0
   -1.8552   -1.2849    0.2133 C   0  0  0  0  0  0  0  0  0  0  0  0
   -2.7539   -1.2059   -0.8723 C   0  0  0  0  0  0  0  0  0  0  0  0
   -2.7436   -0.3209   -1.5268 H   0  0  0  0  0  0  0  0  0  0  0  0
   -3.6613   -2.2455   -1.1213 C   0  0  0  0  0  0  0  0  0  0  0  0
   -4.3572   -2.1688   -1.9707 H   0  0  0  0  0  0  0  0  0  0  0  0
   -3.6813   -3.3795   -0.2939 C   0  0  0  0  0  0  0  0  0  0  0  0
   -4.3948   -4.1944   -0.4890 H   0  0  0  0  0  0  0  0  0  0  0  0
   -2.7805   -3.4728    0.7783 C   0  0  0  0  0  0  0  0  0  0  0  0
   -2.7833   -4.3626    1.4263 H   0  0  0  0  0  0  0  0  0  0  0  0
   -1.8678   -2.4369    1.0256 C   0  0  0  0  0  0  0  0  0  0  0  0
   -1.1532   -2.5370    1.8563 H   0  0  0  0  0  0  0  0  0  0  0  0
   -1.4732    1.5709    0.0597 C   0  0  0  0  0  0  0  0  0  0  0  0
   -2.7851    1.7736    0.5399 C   0  0  0  0  0  0  0  0  0  0  0  0
   -3.3106    0.9593    1.0632 H   0  0  0  0  0  0  0  0  0  0  0  0
   -3.4265    3.0052    0.3456 C   0  0  0  0  0  0  0  0  0  0  0  0
   -4.4499    3.1544    0.7226 H   0  0  0  0  0  0  0  0  0  0  0  0
   -2.7654    4.0458   -0.3294 C   0  0  0  0  0  0  0  0  0  0  0  0
   -3.2718    5.0110   -0.4836 H   0  0  0  0  0  0  0  0  0  0  0  0
   -1.4612    3.8500   -0.8080 C   0  0  0  0  0  0  0  0  0  0  0  0
   -0.9413    4.6602   -1.3419 H   0  0  0  0  0  0  0  0  0  0  0  0
   -0.8169    2.6174   -0.6141 C   0  0  0  0  0  0  0  0  0  0  0  0
    0.2030    2.4435   -0.9876 H   0  0  0  0  0  0  0  0  0  0  0  0
  1  2  1  0  0  0  0
  2  5  1  0  0  0  0
  2  4  1  0  0  0  0
  2  3  1  0  0  0  0
  5  7  1  0  0  0  0
  6  5  1  0  0  0  0
  8  9  1  0  0  0  0
  8  5  1  6  0  0  0
  9 10  1  0  0  0  0
 11  9  1  0  0  0  0
 12 11  1  0  0  0  0
 13 15  1  0  0  0  0
 13 11  1  0  0  0  0
 14 13  1  0  0  0  0
 15 17  2  0  0  0  0
 16 15  1  0  0  0  0
 17 18  1  0  0  0  0
 17  8  1  0  0  0  0
 19  1  1  0  0  0  0
 19 28  1  0  0  0  0
 20 19  2  0  0  0  0
 21 20  1  0  0  0  0
 22 20  1  0  0  0  0
 22 24  2  0  0  0  0
 23 22  1  0  0  0  0
 24 26  1  0  0  0  0
 25 24  1  0  0  0  0
 26 28  2  0  0  0  0
 26 27  1  0  0  0  0
 28 29  1  0  0  0  0
 30  1  1  0  0  0  0
 30 31  1  0  0  0  0
 31 32  1  0  0  0  0
 33 31  2  0  0  0  0
 33 34  1  0  0  0  0
 35 33  1  0  0  0  0
 36 35  1  0  0  0  0
 37 39  1  0  0  0  0
 37 35  2  0  0  0  0
 38 37  1  0  0  0  0
 39 30  2  0  0  0  0
 40 39  1  0  0  0  0
M  END
