4,35
 OpenBabel05122313053D

 37 38  0  0  0  0  0  0  0  0999 V2000
   -0.4203    1.6553    0.0555 N   0  0  0  0  0  0  0  0  0  0  0  0
    1.6768    2.1303   -0.1944 N   0  0  0  0  0  0  0  0  0  0  0  0
    2.4058   -1.7422    2.7358 N   0  0  0  0  0  0  0  0  0  0  0  0
    0.8072    1.0682   -0.1858 C   0  0  0  0  0  2  0  0  0  0  0  0
   -0.3013    3.0375    0.1935 C   0  0  0  0  0  0  0  0  0  0  0  0
   -1.1654    3.6740    0.4026 H   0  0  0  0  0  0  0  0  0  0  0  0
    1.0272    3.3339    0.0410 C   0  0  0  0  0  0  0  0  0  0  0  0
    1.5569    4.2904    0.0786 H   0  0  0  0  0  0  0  0  0  0  0  0
   -1.6500    0.9382    0.2209 C   0  0  0  0  0  0  0  0  0  0  0  0
   -1.8717    0.2345    1.4280 C   0  0  0  0  0  0  0  0  0  0  0  0
   -3.0775   -0.4763    1.5513 C   0  0  0  0  0  0  0  0  0  0  0  0
   -3.2648   -1.0363    2.4816 H   0  0  0  0  0  0  0  0  0  0  0  0
   -4.0413   -0.5024    0.5237 C   0  0  0  0  0  0  0  0  0  0  0  0
   -3.7792    0.2164   -0.6563 C   0  0  0  0  0  0  0  0  0  0  0  0
   -4.5181    0.2013   -1.4734 H   0  0  0  0  0  0  0  0  0  0  0  0
   -2.5901    0.9485   -0.8308 C   0  0  0  0  0  0  0  0  0  0  0  0
   -0.8328    0.2031    2.5148 C   0  0  0  0  0  0  0  0  0  0  0  0
    0.0095   -0.4669    2.2369 H   0  0  0  0  0  0  0  0  0  0  0  0
   -1.2597   -0.1666    3.4658 H   0  0  0  0  0  0  0  0  0  0  0  0
   -0.3905    1.2040    2.6915 H   0  0  0  0  0  0  0  0  0  0  0  0
   -5.3215   -1.2803    0.6971 C   0  0  0  0  0  0  0  0  0  0  0  0
   -5.1178   -2.3323    0.9837 H   0  0  0  0  0  0  0  0  0  0  0  0
   -5.9249   -1.2891   -0.2308 H   0  0  0  0  0  0  0  0  0  0  0  0
   -5.9478   -0.8445    1.5039 H   0  0  0  0  0  0  0  0  0  0  0  0
   -2.3192    1.7060   -2.1054 C   0  0  0  0  0  0  0  0  0  0  0  0
   -2.9983    1.3777   -2.9150 H   0  0  0  0  0  0  0  0  0  0  0  0
   -1.2726    1.5674   -2.4427 H   0  0  0  0  0  0  0  0  0  0  0  0
   -2.4642    2.7991   -1.9712 H   0  0  0  0  0  0  0  0  0  0  0  0
    3.1156    1.9280   -0.3035 C   0  0  0  0  0  0  0  0  0  0  0  0
    3.6103    2.9098   -0.1677 H   0  0  0  0  0  0  0  0  0  0  0  0
    3.3536    1.5556   -1.3227 H   0  0  0  0  0  0  0  0  0  0  0  0
    3.5605    0.9210    0.7571 C   0  0  0  0  0  0  0  0  0  0  0  0
    3.2357    1.3021    1.7474 H   0  0  0  0  0  0  0  0  0  0  0  0
    4.6715    0.8886    0.7763 H   0  0  0  0  0  0  0  0  0  0  0  0
    2.9879   -0.4862    0.5118 C   0  0  0  0  0  3  0  0  0  0  0  0
    3.6933   -1.0797   -0.1037 H   0  0  0  0  0  0  0  0  0  0  0  0
    2.6913   -1.1941    1.7313 C   0  0  0  0  0  0  0  0  0  0  0  0
  1  5  1  0  0  0  0
  1  9  1  0  0  0  0
  2  4  1  0  0  0  0
  2  7  1  0  0  0  0
  4  1  1  0  0  0  0
  5  6  1  0  0  0  0
  7  8  1  0  0  0  0
  7  5  2  0  0  0  0
  9 10  1  0  0  0  0
 10 11  2  0  0  0  0
 10 17  1  0  0  0  0
 11 12  1  0  0  0  0
 13 21  1  0  0  0  0
 13 11  1  0  0  0  0
 14 13  2  0  0  0  0
 15 14  1  0  0  0  0
 16 14  1  0  0  0  0
 16  9  2  0  0  0  0
 17 20  1  0  0  0  0
 17 19  1  0  0  0  0
 18 17  1  0  0  0  0
 21 22  1  0  0  0  0
 21 24  1  0  0  0  0
 23 21  1  0  0  0  0
 25 28  1  0  0  0  0
 25 16  1  0  0  0  0
 26 25  1  0  0  0  0
 27 25  1  0  0  0  0
 29  2  1  0  0  0  0
 29 30  1  0  0  0  0
 29 32  1  0  0  0  0
 31 29  1  0  0  0  0
 32 34  1  0  0  0  0
 32 33  1  0  0  0  0
 35 32  1  0  0  0  0
 35 37  1  0  0  0  0
 36 35  1  0  0  0  0
 37  3  3  0  0  0  0
M  END
