2,14
 OpenBabel05122313053D

 50 53  0  0  1  0  0  0  0  0999 V2000
    1.4013   -1.0258   -0.4954 C   0  0  1  0  0  3  0  0  0  0  0  0
    0.6004   -0.6937   -1.6158 C   0  0  0  0  0  3  0  0  0  0  0  0
    0.9635   -0.0825   -2.4529 H   0  0  0  0  0  0  0  0  0  0  0  0
   -0.5290   -1.6841   -1.7692 C   0  0  0  0  0  0  0  0  0  0  0  0
   -0.2077   -2.5221   -2.4296 H   0  0  0  0  0  0  0  0  0  0  0  0
   -1.4458   -1.2448   -2.2080 H   0  0  0  0  0  0  0  0  0  0  0  0
   -0.7133   -2.1326   -0.3093 C   0  0  1  0  0  0  0  0  0  0  0  0
   -1.2425   -3.1004   -0.1887 H   0  0  0  0  0  0  0  0  0  0  0  0
    0.7132   -2.1325    0.3095 C   0  0  2  0  0  0  0  0  0  0  0  0
    1.2426   -3.1002    0.1889 H   0  0  0  0  0  0  0  0  0  0  0  0
    0.5288   -1.6841    1.7694 C   0  0  0  0  0  0  0  0  0  0  0  0
    0.2077   -2.5222    2.4298 H   0  0  0  0  0  0  0  0  0  0  0  0
    1.4455   -1.2445    2.2083 H   0  0  0  0  0  0  0  0  0  0  0  0
   -0.6008   -0.6940    1.6161 C   0  0  0  0  0  3  0  0  0  0  0  0
   -0.9639   -0.0826    2.4531 H   0  0  0  0  0  0  0  0  0  0  0  0
   -1.4015   -1.0260    0.4957 C   0  0  2  0  0  3  0  0  0  0  0  0
   -2.8189   -0.6810    0.2723 C   0  0  0  0  0  0  0  0  0  0  0  0
   -3.6193   -1.4949   -0.5674 C   0  0  0  0  0  0  0  0  0  0  0  0
   -3.1865   -2.3779   -1.0593 H   0  0  0  0  0  0  0  0  0  0  0  0
   -4.9799   -1.2166   -0.7747 C   0  0  0  0  0  0  0  0  0  0  0  0
   -5.5383   -0.0915   -0.1355 C   0  0  0  0  0  0  0  0  0  0  0  0
   -6.6011    0.1490   -0.3050 H   0  0  0  0  0  0  0  0  0  0  0  0
   -4.7731    0.7394    0.7056 C   0  0  0  0  0  0  0  0  0  0  0  0
   -3.4180    0.4296    0.9060 C   0  0  0  0  0  0  0  0  0  0  0  0
   -2.7934    1.1031    1.5131 H   0  0  0  0  0  0  0  0  0  0  0  0
   -5.8295   -2.0916   -1.6628 C   0  0  0  0  0  0  0  0  0  0  0  0
   -6.6597   -2.5586   -1.0929 H   0  0  0  0  0  0  0  0  0  0  0  0
   -5.2373   -2.9051   -2.1247 H   0  0  0  0  0  0  0  0  0  0  0  0
   -6.2944   -1.5031   -2.4807 H   0  0  0  0  0  0  0  0  0  0  0  0
   -5.3812    1.9390    1.3882 C   0  0  0  0  0  0  0  0  0  0  0  0
   -5.6403    1.7062    2.4432 H   0  0  0  0  0  0  0  0  0  0  0  0
   -6.3095    2.2718    0.8846 H   0  0  0  0  0  0  0  0  0  0  0  0
   -4.6687    2.7872    1.4103 H   0  0  0  0  0  0  0  0  0  0  0  0
    2.8188   -0.6810   -0.2724 C   0  0  0  0  0  0  0  0  0  0  0  0
    3.6191   -1.4945    0.5677 C   0  0  0  0  0  0  0  0  0  0  0  0
    3.1862   -2.3771    1.0602 H   0  0  0  0  0  0  0  0  0  0  0  0
    4.9798   -1.2163    0.7748 C   0  0  0  0  0  0  0  0  0  0  0  0
    5.5383   -0.0918    0.1349 C   0  0  0  0  0  0  0  0  0  0  0  0
    6.6011    0.1486    0.3041 H   0  0  0  0  0  0  0  0  0  0  0  0
    4.7732    0.7388   -0.7067 C   0  0  0  0  0  0  0  0  0  0  0  0
    3.4181    0.4291   -0.9068 C   0  0  0  0  0  0  0  0  0  0  0  0
    2.7936    1.1024   -1.5143 H   0  0  0  0  0  0  0  0  0  0  0  0
    5.8292   -2.0910    1.6633 C   0  0  0  0  0  0  0  0  0  0  0  0
    6.2935   -1.5024    2.4815 H   0  0  0  0  0  0  0  0  0  0  0  0
    6.6599   -2.5578    1.0938 H   0  0  0  0  0  0  0  0  0  0  0  0
    5.2371   -2.9048    2.1249 H   0  0  0  0  0  0  0  0  0  0  0  0
    5.3814    1.9379   -1.3900 C   0  0  0  0  0  0  0  0  0  0  0  0
    6.3101    2.2705   -0.8870 H   0  0  0  0  0  0  0  0  0  0  0  0
    4.6693    2.7864   -1.4120 H   0  0  0  0  0  0  0  0  0  0  0  0
    5.6400    1.7046   -2.4451 H   0  0  0  0  0  0  0  0  0  0  0  0
  1 34  1  6  0  0  0
  1  9  1  0  0  0  0
  2  1  1  0  0  0  0
  3  2  1  0  0  0  0
  4  2  1  0  0  0  0
  4  7  1  0  0  0  0
  5  4  1  0  0  0  0
  6  4  1  0  0  0  0
  7  8  1  1  0  0  0
  7  9  1  0  0  0  0
  7 16  1  0  0  0  0
  9 10  1  6  0  0  0
  9 11  1  0  0  0  0
 11 13  1  0  0  0  0
 11 12  1  0  0  0  0
 14 11  1  0  0  0  0
 14 15  1  0  0  0  0
 16 17  1  1  0  0  0
 16 14  1  0  0  0  0
 17 24  1  0  0  0  0
 18 17  2  0  0  0  0
 19 18  1  0  0  0  0
 20 18  1  0  0  0  0
 20 21  2  0  0  0  0
 21 23  1  0  0  0  0
 22 21  1  0  0  0  0
 23 24  2  0  0  0  0
 23 30  1  0  0  0  0
 24 25  1  0  0  0  0
 26 27  1  0  0  0  0
 26 20  1  0  0  0  0
 28 26  1  0  0  0  0
 29 26  1  0  0  0  0
 30 33  1  0  0  0  0
 30 31  1  0  0  0  0
 32 30  1  0  0  0  0
 34 35  1  0  0  0  0
 35 37  2  0  0  0  0
 35 36  1  0  0  0  0
 37 43  1  0  0  0  0
 38 39  1  0  0  0  0
 38 37  1  0  0  0  0
 40 38  2  0  0  0  0
 41 40  1  0  0  0  0
 41 34  2  0  0  0  0
 42 41  1  0  0  0  0
 43 46  1  0  0  0  0
 43 44  1  0  0  0  0
 45 43  1  0  0  0  0
 47 48  1  0  0  0  0
 47 40  1  0  0  0  0
 49 47  1  0  0  0  0
 50 47  1  0  0  0  0
M  END
