2,9
 OpenBabel05122313053D

 30 30  0  0  1  0  0  0  0  0999 V2000
    3.6917   -0.4777   -0.1432 N   0  0  0  0  0  0  0  0  0  0  0  0
    0.9366   -0.2918    1.1233 C   0  0  0  0  0  3  0  0  0  0  0  0
    0.7884   -0.3090    2.2221 H   0  0  0  0  0  0  0  0  0  0  0  0
    1.5254    0.6102    0.8915 H   0  0  0  0  0  0  0  0  0  0  0  0
    1.7304   -1.5122    0.6368 C   0  0  1  0  0  0  0  0  0  0  0  0
    1.3387   -2.4426    1.0923 H   0  0  0  0  0  0  0  0  0  0  0  0
    1.7119   -1.6205   -0.9134 C   0  0  1  0  0  0  0  0  0  0  0  0
    2.0506   -2.6515   -1.1686 H   0  0  0  0  0  0  0  0  0  0  0  0
    0.3513   -1.3350   -1.5824 C   0  0  0  0  0  3  0  0  0  0  0  0
    0.4950   -0.7830   -2.5329 H   0  0  0  0  0  0  0  0  0  0  0  0
   -0.1522   -2.2815   -1.8572 H   0  0  0  0  0  0  0  0  0  0  0  0
    2.8521   -0.6628   -1.3325 C   0  0  0  0  0  0  0  0  0  0  0  0
    3.4088   -1.0937   -2.1984 H   0  0  0  0  0  0  0  0  0  0  0  0
    2.4470    0.3148   -1.6794 H   0  0  0  0  0  0  0  0  0  0  0  0
    3.2391   -1.3869    0.9083 C   0  0  0  0  0  0  0  0  0  0  0  0
    3.4410   -0.9707    1.9171 H   0  0  0  0  0  0  0  0  0  0  0  0
    3.7246   -2.3998    0.8627 H   0  0  0  0  0  0  0  0  0  0  0  0
    5.1395   -0.2794   -0.3383 C   0  0  0  0  0  0  0  0  0  0  0  0
    5.7753    0.1016    1.0111 C   0  0  0  0  0  0  0  0  0  0  0  0
    5.7356   -0.7338    1.7377 H   0  0  0  0  0  0  0  0  0  0  0  0
    6.8412    0.3708    0.8712 H   0  0  0  0  0  0  0  0  0  0  0  0
    5.2471    0.9708    1.4525 H   0  0  0  0  0  0  0  0  0  0  0  0
    5.3495    0.8904   -1.3183 C   0  0  0  0  0  0  0  0  0  0  0  0
    6.4305    1.1039   -1.4377 H   0  0  0  0  0  0  0  0  0  0  0  0
    4.8495    1.8050   -0.9422 H   0  0  0  0  0  0  0  0  0  0  0  0
    4.9411    0.6638   -2.3229 H   0  0  0  0  0  0  0  0  0  0  0  0
    5.8348   -1.5473   -0.8919 C   0  0  0  0  0  0  0  0  0  0  0  0
    5.4133   -1.8399   -1.8753 H   0  0  0  0  0  0  0  0  0  0  0  0
    5.7144   -2.4046   -0.1988 H   0  0  0  0  0  0  0  0  0  0  0  0
    6.9218   -1.3785   -1.0318 H   0  0  0  0  0  0  0  0  0  0  0  0
  1 15  1  0  0  0  0
  2  3  1  0  0  0  0
  4  2  1  0  0  0  0
  5 15  1  0  0  0  0
  5  6  1  1  0  0  0
  5  2  1  0  0  0  0
  7  8  1  6  0  0  0
  7  5  1  0  0  0  0
  9  7  1  0  0  0  0
 10  9  1  0  0  0  0
 11  9  1  0  0  0  0
 12  7  1  0  0  0  0
 12  1  1  0  0  0  0
 13 12  1  0  0  0  0
 14 12  1  0  0  0  0
 15 16  1  0  0  0  0
 17 15  1  0  0  0  0
 18  1  1  0  0  0  0
 18 19  1  0  0  0  0
 19 22  1  0  0  0  0
 19 20  1  0  0  0  0
 21 19  1  0  0  0  0
 23 25  1  0  0  0  0
 23 18  1  0  0  0  0
 24 23  1  0  0  0  0
 26 23  1  0  0  0  0
 27 18  1  0  0  0  0
 27 29  1  0  0  0  0
 28 27  1  0  0  0  0
 30 27  1  0  0  0  0
M  END
