3,15
 OpenBabel05122313053D

 32 32  0  0  0  0  0  0  0  0999 V2000
   -0.5070   -2.6889    0.2031 N   0  0  0  0  0  0  0  0  0  0  0  0
    5.8027    0.8432    0.2492 N   0  0  0  0  0  0  0  0  0  0  0  0
    0.7893   -0.3142   -0.0888 C   0  0  0  0  0  3  0  0  0  0  0  0
    1.5810   -1.4810   -0.2478 C   0  0  0  0  0  0  0  0  0  0  0  0
    2.9793   -1.4252   -0.4024 C   0  0  0  0  0  0  0  0  0  0  0  0
    3.5634   -2.3577   -0.4995 H   0  0  0  0  0  0  0  0  0  0  0  0
    3.6518   -0.1926   -0.4286 C   0  0  0  0  0  0  0  0  0  0  0  0
    2.8888    0.9836   -0.2824 C   0  0  0  0  0  0  0  0  0  0  0  0
    3.4125    1.9528   -0.2828 H   0  0  0  0  0  0  0  0  0  0  0  0
    1.4981    0.9143   -0.1183 C   0  0  0  0  0  0  0  0  0  0  0  0
    0.9395    1.8611   -0.0220 H   0  0  0  0  0  0  0  0  0  0  0  0
    0.8792   -2.8169   -0.2656 C   0  0  0  0  0  0  0  0  0  0  0  0
    0.8545   -3.2291   -1.2979 H   0  0  0  0  0  0  0  0  0  0  0  0
    1.4201   -3.5715    0.3566 H   0  0  0  0  0  0  0  0  0  0  0  0
   -0.6290   -2.1437    1.5410 C   0  0  0  0  0  3  0  0  0  0  0  0
   -1.4265   -2.6492    2.1126 H   0  0  0  0  0  0  0  0  0  0  0  0
    0.3263   -2.0852    2.0948 H   0  0  0  0  0  0  0  0  0  0  0  0
   -1.3002   -3.8897   -0.0766 C   0  0  0  0  0  0  0  0  0  0  0  0
   -0.8790   -4.7774    0.4494 H   0  0  0  0  0  0  0  0  0  0  0  0
   -1.3023   -4.0960   -1.1663 H   0  0  0  0  0  0  0  0  0  0  0  0
   -2.3431   -3.7217    0.2487 H   0  0  0  0  0  0  0  0  0  0  0  0
    5.1513   -0.1171   -0.6312 C   0  0  0  0  0  0  0  0  0  0  0  0
    5.5906   -1.1492   -0.5346 H   0  0  0  0  0  0  0  0  0  0  0  0
    5.3583    0.2030   -1.6774 H   0  0  0  0  0  0  0  0  0  0  0  0
    5.7129    0.4672    1.6477 C   0  0  0  0  0  0  0  0  0  0  0  0
    4.6529    0.3117    1.9307 H   0  0  0  0  0  0  0  0  0  0  0  0
    6.1255    1.2755    2.2855 H   0  0  0  0  0  0  0  0  0  0  0  0
    6.2739   -0.4776    1.8868 H   0  0  0  0  0  0  0  0  0  0  0  0
    7.1628    1.1332   -0.1551 C   0  0  0  0  0  0  0  0  0  0  0  0
    7.8509    0.2458   -0.0871 H   0  0  0  0  0  0  0  0  0  0  0  0
    7.5881    1.9323    0.4864 H   0  0  0  0  0  0  0  0  0  0  0  0
    7.1814    1.4912   -1.2051 H   0  0  0  0  0  0  0  0  0  0  0  0
  1 15  1  0  0  0  0
  2 25  1  0  0  0  0
  4  3  2  0  0  0  0
  5  4  1  0  0  0  0
  6  5  1  0  0  0  0
  7  5  2  0  0  0  0
  7  8  1  0  0  0  0
  8 10  2  0  0  0  0
  9  8  1  0  0  0  0
 10  3  1  0  0  0  0
 10 11  1  0  0  0  0
 12  4  1  0  0  0  0
 12  1  1  0  0  0  0
 12 14  1  0  0  0  0
 13 12  1  0  0  0  0
 15 17  1  0  0  0  0
 15 16  1  0  0  0  0
 18  1  1  0  0  0  0
 18 21  1  0  0  0  0
 18 19  1  0  0  0  0
 20 18  1  0  0  0  0
 22 23  1  0  0  0  0
 22  7  1  0  0  0  0
 22  2  1  0  0  0  0
 24 22  1  0  0  0  0
 25 28  1  0  0  0  0
 25 26  1  0  0  0  0
 25 27  1  0  0  0  0
 29 30  1  0  0  0  0
 29  2  1  0  0  0  0
 29 31  1  0  0  0  0
 32 29  1  0  0  0  0
M  END
