1,5
 OpenBabel05122313053D

 24 25  0  0  0  0  0  0  0  0999 V2000
    1.1807   -0.6391   -1.1178 C   0  0  0  0  0  3  0  0  0  0  0  0
    0.6107   -1.2252   -2.2164 C   0  0  0  0  0  0  0  0  0  0  0  0
    1.1917   -1.4406   -3.1298 H   0  0  0  0  0  0  0  0  0  0  0  0
   -0.7676   -1.6698   -2.0933 C   0  0  0  0  0  0  0  0  0  0  0  0
   -1.3515   -1.4233   -0.8133 C   0  0  0  0  0  3  0  0  0  0  0  0
   -2.6197   -1.9593   -0.5441 C   0  0  0  0  0  0  0  0  0  0  0  0
   -3.0714   -1.8533    0.4543 H   0  0  0  0  0  0  0  0  0  0  0  0
   -3.3427   -2.6436   -1.5442 C   0  0  0  0  0  0  0  0  0  0  0  0
   -4.3457   -3.0373   -1.3183 H   0  0  0  0  0  0  0  0  0  0  0  0
   -2.7878   -2.8248   -2.8205 C   0  0  0  0  0  0  0  0  0  0  0  0
   -3.3574   -3.3514   -3.6008 H   0  0  0  0  0  0  0  0  0  0  0  0
   -1.4930   -2.3548   -3.0893 C   0  0  0  0  0  0  0  0  0  0  0  0
   -1.0317   -2.5288   -4.0743 H   0  0  0  0  0  0  0  0  0  0  0  0
    2.6204   -0.3053   -1.1166 C   0  0  0  0  0  0  0  0  0  0  0  0
    3.1846    0.4355   -2.1846 C   0  0  0  0  0  0  0  0  0  0  0  0
    2.5246    0.7884   -2.9920 H   0  0  0  0  0  0  0  0  0  0  0  0
    4.5528    0.7379   -2.2191 C   0  0  0  0  0  0  0  0  0  0  0  0
    4.9605    1.3232   -3.0575 H   0  0  0  0  0  0  0  0  0  0  0  0
    5.4018    0.2994   -1.1907 C   0  0  0  0  0  0  0  0  0  0  0  0
    6.4759    0.5360   -1.2173 H   0  0  0  0  0  0  0  0  0  0  0  0
    4.8675   -0.4623   -0.1376 C   0  0  0  0  0  0  0  0  0  0  0  0
    5.5321   -0.8495    0.6513 H   0  0  0  0  0  0  0  0  0  0  0  0
    3.4970   -0.7573   -0.1001 C   0  0  0  0  0  0  0  0  0  0  0  0
    3.0948   -1.3815    0.7106 H   0  0  0  0  0  0  0  0  0  0  0  0
  1 14  1  0  0  0  0
  2  4  1  0  0  0  0
  2  1  2  0  0  0  0
  3  2  1  0  0  0  0
  4  5  1  0  0  0  0
  5  6  2  0  0  0  0
  6  7  1  0  0  0  0
  8  9  1  0  0  0  0
  8  6  1  0  0  0  0
 10  8  2  0  0  0  0
 11 10  1  0  0  0  0
 12 10  1  0  0  0  0
 12  4  2  0  0  0  0
 13 12  1  0  0  0  0
 14 23  1  0  0  0  0
 15 14  2  0  0  0  0
 16 15  1  0  0  0  0
 17 15  1  0  0  0  0
 17 19  2  0  0  0  0
 18 17  1  0  0  0  0
 19 21  1  0  0  0  0
 20 19  1  0  0  0  0
 21 23  2  0  0  0  0
 21 22  1  0  0  0  0
 23 24  1  0  0  0  0
M  END
