11,24
 OpenBabel05122313053D

 43 44  0  0  0  0  0  0  0  0999 V2000
    2.4858   -1.1173    0.1465 N   0  0  0  0  0  0  0  0  0  0  0  0
    1.2438   -1.4446   -1.6292 N   0  0  0  0  0  0  0  0  0  0  0  0
   -1.2438   -1.4445   -1.6292 N   0  0  0  0  0  0  0  0  0  0  0  0
   -2.4858   -1.1172    0.1464 N   0  0  0  0  0  0  0  0  0  0  0  0
   -3.8326   -1.7081    2.1391 C   0  0  0  0  0  0  0  0  0  0  0  0
   -4.7503   -2.0062    1.5953 H   0  0  0  0  0  0  0  0  0  0  0  0
   -4.1503   -1.3404    3.1338 H   0  0  0  0  0  0  0  0  0  0  0  0
   -3.1985   -2.6039    2.2903 H   0  0  0  0  0  0  0  0  0  0  0  0
   -2.2408   -2.3936   -1.6529 C   0  0  0  0  0  0  0  0  0  0  0  0
   -2.3021   -3.1448   -2.4456 H   0  0  0  0  0  0  0  0  0  0  0  0
    1.3905   -0.6436   -0.5413 C   0  0  0  0  0  2  0  0  0  0  0  0
    2.2407   -2.3937   -1.6529 C   0  0  0  0  0  0  0  0  0  0  0  0
    2.3021   -3.1448   -2.4456 H   0  0  0  0  0  0  0  0  0  0  0  0
    3.0308   -2.1949   -0.5480 C   0  0  0  0  0  0  0  0  0  0  0  0
    3.9127   -2.7371   -0.2042 H   0  0  0  0  0  0  0  0  0  0  0  0
    3.8325   -1.7081    2.1392 C   0  0  0  0  0  0  0  0  0  0  0  0
    3.1984   -2.6039    2.2904 H   0  0  0  0  0  0  0  0  0  0  0  0
    4.1502   -1.3404    3.1339 H   0  0  0  0  0  0  0  0  0  0  0  0
    4.7502   -2.0063    1.5954 H   0  0  0  0  0  0  0  0  0  0  0  0
    4.0266    0.5661    1.0963 C   0  0  0  0  0  0  0  0  0  0  0  0
    4.8224    0.2199    0.4070 H   0  0  0  0  0  0  0  0  0  0  0  0
    4.5084    0.9326    2.0245 H   0  0  0  0  0  0  0  0  0  0  0  0
    3.5072    1.4169    0.6221 H   0  0  0  0  0  0  0  0  0  0  0  0
   -1.3906   -0.6435   -0.5413 C   0  0  0  0  0  2  0  0  0  0  0  0
    3.0597   -0.5852    1.4237 C   0  0  0  0  0  0  0  0  0  0  0  0
   -1.9232   -0.1202    2.3446 C   0  0  0  0  0  0  0  0  0  0  0  0
   -1.2655   -0.9704    2.6135 H   0  0  0  0  0  0  0  0  0  0  0  0
   -2.3517    0.3021    3.2745 H   0  0  0  0  0  0  0  0  0  0  0  0
   -1.2925    0.6545    1.8593 H   0  0  0  0  0  0  0  0  0  0  0  0
   -3.0597   -0.5852    1.4237 C   0  0  0  0  0  0  0  0  0  0  0  0
    1.9231   -0.1202    2.3446 C   0  0  0  0  0  0  0  0  0  0  0  0
    1.2925    0.6545    1.8592 H   0  0  0  0  0  0  0  0  0  0  0  0
    2.3516    0.3021    3.2745 H   0  0  0  0  0  0  0  0  0  0  0  0
    1.2654   -0.9704    2.6134 H   0  0  0  0  0  0  0  0  0  0  0  0
   -3.0308   -2.1948   -0.5481 C   0  0  0  0  0  0  0  0  0  0  0  0
   -3.9127   -2.7370   -0.2042 H   0  0  0  0  0  0  0  0  0  0  0  0
   -4.0266    0.5662    1.0963 C   0  0  0  0  0  0  0  0  0  0  0  0
   -3.5071    1.4170    0.6221 H   0  0  0  0  0  0  0  0  0  0  0  0
   -4.5084    0.9327    2.0245 H   0  0  0  0  0  0  0  0  0  0  0  0
   -4.8224    0.2200    0.4069 H   0  0  0  0  0  0  0  0  0  0  0  0
   -0.0000   -1.3762   -2.5891 B   0  0  0  0  0  0  0  0  0  0  0  0
   -0.0000   -2.3756   -3.3051 H   0  0  0  0  0  0  0  0  0  0  0  0
    0.0000   -0.3240   -3.2199 H   0  0  0  0  0  0  0  0  0  0  0  0
  1 25  1  0  0  0  0
  2 11  1  0  0  0  0
  3 24  1  0  0  0  0
  4 30  1  0  0  0  0
  5  8  1  0  0  0  0
  5  7  1  0  0  0  0
  6  5  1  0  0  0  0
  9  3  1  0  0  0  0
  9 35  2  0  0  0  0
 10  9  1  0  0  0  0
 11  1  1  0  0  0  0
 12  2  1  0  0  0  0
 12 14  2  0  0  0  0
 13 12  1  0  0  0  0
 14 15  1  0  0  0  0
 14  1  1  0  0  0  0
 16 17  1  0  0  0  0
 16 18  1  0  0  0  0
 19 16  1  0  0  0  0
 20 25  1  0  0  0  0
 20 22  1  0  0  0  0
 21 20  1  0  0  0  0
 23 20  1  0  0  0  0
 24  4  1  0  0  0  0
 25 16  1  0  0  0  0
 25 31  1  0  0  0  0
 26 27  1  0  0  0  0
 26 28  1  0  0  0  0
 29 26  1  0  0  0  0
 30  5  1  0  0  0  0
 30 26  1  0  0  0  0
 31 34  1  0  0  0  0
 31 33  1  0  0  0  0
 32 31  1  0  0  0  0
 35 36  1  0  0  0  0
 35  4  1  0  0  0  0
 37 30  1  0  0  0  0
 37 39  1  0  0  0  0
 38 37  1  0  0  0  0
 40 37  1  0  0  0  0
 41  3  1  0  0  0  0
 41  2  1  0  0  0  0
 42 41  1  0  0  0  0
 43 41  1  0  0  0  0
M  END
