8,26
 OpenBabel05122313053D

 43 44  0  0  0  0  0  0  0  0999 V2000
    0.0001    2.4946   -0.9036 B   0  0  0  0  0  0  0  0  0  0  0  0
    0.0001    2.1872   -2.2534 F   0  0  0  0  0  0  0  0  0  0  0  0
    0.0001    3.8626   -0.6504 F   0  0  0  0  0  0  0  0  0  0  0  0
    1.2505    1.8544   -0.1790 N   0  0  0  0  0  0  0  0  0  0  0  0
    2.4918    0.3853    0.8543 N   0  0  0  0  0  0  0  0  0  0  0  0
   -1.2503    1.8544   -0.1790 N   0  0  0  0  0  0  0  0  0  0  0  0
   -2.4918    0.3856    0.8542 N   0  0  0  0  0  0  0  0  0  0  0  0
    1.3838    0.5241    0.0549 C   0  0  0  0  0  2  0  0  0  0  0  0
    2.2629    2.5564    0.4395 C   0  0  0  0  0  0  0  0  0  0  0  0
    2.3240    3.6465    0.3797 H   0  0  0  0  0  0  0  0  0  0  0  0
    3.0534    1.6419    1.0874 C   0  0  0  0  0  0  0  0  0  0  0  0
    3.9466    1.7874    1.6968 H   0  0  0  0  0  0  0  0  0  0  0  0
    3.0626   -0.8874    1.3985 C   0  0  0  0  0  0  0  0  0  0  0  0
    4.0560   -1.4646    0.3747 C   0  0  0  0  0  0  0  0  0  0  0  0
    3.5565   -1.7318   -0.5733 H   0  0  0  0  0  0  0  0  0  0  0  0
    4.5339   -2.3778    0.7816 H   0  0  0  0  0  0  0  0  0  0  0  0
    4.8529   -0.7283    0.1486 H   0  0  0  0  0  0  0  0  0  0  0  0
    3.8011   -0.5874    2.7156 C   0  0  0  0  0  0  0  0  0  0  0  0
    4.7186    0.0134    2.5610 H   0  0  0  0  0  0  0  0  0  0  0  0
    4.1144   -1.5450    3.1741 H   0  0  0  0  0  0  0  0  0  0  0  0
    3.1450   -0.0591    3.4352 H   0  0  0  0  0  0  0  0  0  0  0  0
    1.9272   -1.8764    1.6955 C   0  0  0  0  0  0  0  0  0  0  0  0
    1.2472   -1.4709    2.4705 H   0  0  0  0  0  0  0  0  0  0  0  0
    2.3566   -2.8278    2.0660 H   0  0  0  0  0  0  0  0  0  0  0  0
    1.3201   -2.0901    0.7912 H   0  0  0  0  0  0  0  0  0  0  0  0
   -1.3838    0.5242    0.0548 C   0  0  0  0  0  2  0  0  0  0  0  0
   -2.2626    2.5565    0.4394 C   0  0  0  0  0  0  0  0  0  0  0  0
   -2.3235    3.6467    0.3796 H   0  0  0  0  0  0  0  0  0  0  0  0
   -3.0533    1.6422    1.0873 C   0  0  0  0  0  0  0  0  0  0  0  0
   -3.9464    1.7878    1.6967 H   0  0  0  0  0  0  0  0  0  0  0  0
   -3.0629   -0.8871    1.3983 C   0  0  0  0  0  0  0  0  0  0  0  0
   -3.8015   -0.5871    2.7153 C   0  0  0  0  0  0  0  0  0  0  0  0
   -3.1453   -0.0590    3.4350 H   0  0  0  0  0  0  0  0  0  0  0  0
   -4.1149   -1.5448    3.1738 H   0  0  0  0  0  0  0  0  0  0  0  0
   -4.7188    0.0138    2.5607 H   0  0  0  0  0  0  0  0  0  0  0  0
   -4.0563   -1.4640    0.3743 C   0  0  0  0  0  0  0  0  0  0  0  0
   -4.8531   -0.7276    0.1482 H   0  0  0  0  0  0  0  0  0  0  0  0
   -4.5344   -2.3772    0.7811 H   0  0  0  0  0  0  0  0  0  0  0  0
   -3.5569   -1.7313   -0.5737 H   0  0  0  0  0  0  0  0  0  0  0  0
   -1.9277   -1.8763    1.6952 C   0  0  0  0  0  0  0  0  0  0  0  0
   -1.3206   -2.0901    0.7910 H   0  0  0  0  0  0  0  0  0  0  0  0
   -2.3572   -2.8276    2.0656 H   0  0  0  0  0  0  0  0  0  0  0  0
   -1.2477   -1.4711    2.4703 H   0  0  0  0  0  0  0  0  0  0  0  0
  1  3  1  0  0  0  0
  1  6  1  0  0  0  0
  1  4  1  0  0  0  0
  2  1  1  0  0  0  0
  4  8  1  0  0  0  0
  4  9  1  0  0  0  0
  5 11  1  0  0  0  0
  5 13  1  0  0  0  0
  6 26  1  0  0  0  0
  6 27  1  0  0  0  0
  7 29  1  0  0  0  0
  7 31  1  0  0  0  0
  8  5  1  0  0  0  0
  9 11  2  0  0  0  0
 10  9  1  0  0  0  0
 11 12  1  0  0  0  0
 13 22  1  0  0  0  0
 13 18  1  0  0  0  0
 14 16  1  0  0  0  0
 14 13  1  0  0  0  0
 15 14  1  0  0  0  0
 17 14  1  0  0  0  0
 18 20  1  0  0  0  0
 18 21  1  0  0  0  0
 19 18  1  0  0  0  0
 22 24  1  0  0  0  0
 22 23  1  0  0  0  0
 25 22  1  0  0  0  0
 26  7  1  0  0  0  0
 27 29  2  0  0  0  0
 28 27  1  0  0  0  0
 29 30  1  0  0  0  0
 31 40  1  0  0  0  0
 31 32  1  0  0  0  0
 32 34  1  0  0  0  0
 32 33  1  0  0  0  0
 35 32  1  0  0  0  0
 36 38  1  0  0  0  0
 36 31  1  0  0  0  0
 37 36  1  0  0  0  0
 39 36  1  0  0  0  0
 40 42  1  0  0  0  0
 40 43  1  0  0  0  0
 41 40  1  0  0  0  0
M  END
