9,13
 OpenBabel05122313053D

 37 37  0  0  0  0  0  0  0  0999 V2000
   -2.4940   -1.7460   -0.6023 O   0  0  0  0  0  0  0  0  0  0  0  0
   -2.8320    0.2305    0.5285 O   0  0  0  0  0  0  0  0  0  0  0  0
   -1.0104   -1.0084    0.9949 N   0  0  0  0  0  0  0  0  0  0  0  0
    1.0507   -1.7397   -0.1271 C   0  0  0  0  0  0  0  0  0  0  0  0
    0.9625   -1.1697   -1.4415 C   0  0  0  0  0  0  0  0  0  0  0  0
    0.0280   -0.9730   -1.9793 H   0  0  0  0  0  0  0  0  0  0  0  0
    2.2846   -0.9244   -1.9160 C   0  0  0  0  0  3  0  0  0  0  0  0
    2.5480   -0.4929   -2.8892 H   0  0  0  0  0  0  0  0  0  0  0  0
    3.2120   -1.3432   -0.9020 C   0  0  0  0  0  3  0  0  0  0  0  0
    4.3052   -1.2968   -0.9630 H   0  0  0  0  0  0  0  0  0  0  0  0
    2.4417   -1.8409    0.2021 C   0  0  0  0  0  3  0  0  0  0  0  0
    2.8440   -2.2432    1.1404 H   0  0  0  0  0  0  0  0  0  0  0  0
    0.2943    1.4613   -0.2480 C   0  0  0  0  0  3  0  0  0  0  0  0
    0.5022    2.5070   -0.5225 H   0  0  0  0  0  0  0  0  0  0  0  0
   -0.4788    0.9867   -0.8705 H   0  0  0  0  0  0  0  0  0  0  0  0
    0.4540    1.0468    1.0992 C   0  0  0  0  0  3  0  0  0  0  0  0
    0.8385    1.8009    1.8083 H   0  0  0  0  0  0  0  0  0  0  0  0
   -0.4827    0.0774    1.8037 C   0  0  0  0  0  0  0  0  0  0  0  0
    0.0320   -0.3673    2.6832 H   0  0  0  0  0  0  0  0  0  0  0  0
   -1.3448    0.6547    2.1945 H   0  0  0  0  0  0  0  0  0  0  0  0
   -0.1154   -2.1284    0.7367 C   0  0  0  0  0  0  0  0  0  0  0  0
   -0.7161   -2.9133    0.2377 H   0  0  0  0  0  0  0  0  0  0  0  0
    0.2523   -2.5258    1.7060 H   0  0  0  0  0  0  0  0  0  0  0  0
   -2.1550   -0.9058    0.2274 C   0  0  0  0  0  0  0  0  0  0  0  0
   -4.0606    0.5917   -0.1969 C   0  0  0  0  0  0  0  0  0  0  0  0
   -3.7518    0.7663   -1.6881 C   0  0  0  0  0  0  0  0  0  0  0  0
   -3.4505   -0.1950   -2.1423 H   0  0  0  0  0  0  0  0  0  0  0  0
   -2.9380    1.5060   -1.8286 H   0  0  0  0  0  0  0  0  0  0  0  0
   -4.6513    1.1431   -2.2142 H   0  0  0  0  0  0  0  0  0  0  0  0
   -4.4426    1.9302    0.4388 C   0  0  0  0  0  0  0  0  0  0  0  0
   -4.6212    1.8087    1.5253 H   0  0  0  0  0  0  0  0  0  0  0  0
   -5.3666    2.3245   -0.0272 H   0  0  0  0  0  0  0  0  0  0  0  0
   -3.6321    2.6723    0.2987 H   0  0  0  0  0  0  0  0  0  0  0  0
   -5.1437   -0.4631    0.0513 C   0  0  0  0  0  0  0  0  0  0  0  0
   -4.8502   -1.4352   -0.3842 H   0  0  0  0  0  0  0  0  0  0  0  0
   -6.0975   -0.1351   -0.4080 H   0  0  0  0  0  0  0  0  0  0  0  0
   -5.3119   -0.5920    1.1392 H   0  0  0  0  0  0  0  0  0  0  0  0
  1 24  2  0  0  0  0
  3 18  1  0  0  0  0
  4 11  1  0  0  0  0
  4 21  1  0  0  0  0
  5  4  2  0  0  0  0
  6  5  1  0  0  0  0
  7  5  1  0  0  0  0
  7  9  1  0  0  0  0
  8  7  1  0  0  0  0
  9 11  1  0  0  0  0
 10  9  1  0  0  0  0
 11 12  1  0  0  0  0
 13 16  1  0  0  0  0
 14 13  1  0  0  0  0
 15 13  1  0  0  0  0
 16 18  1  0  0  0  0
 16 17  1  0  0  0  0
 18 20  1  0  0  0  0
 18 19  1  0  0  0  0
 21  3  1  0  0  0  0
 21 23  1  0  0  0  0
 22 21  1  0  0  0  0
 24  2  1  0  0  0  0
 24  3  1  0  0  0  0
 25 34  1  0  0  0  0
 25 30  1  0  0  0  0
 25  2  1  0  0  0  0
 26 25  1  0  0  0  0
 27 26  1  0  0  0  0
 28 26  1  0  0  0  0
 29 26  1  0  0  0  0
 30 31  1  0  0  0  0
 32 30  1  0  0  0  0
 33 30  1  0  0  0  0
 34 37  1  0  0  0  0
 35 34  1  0  0  0  0
 36 34  1  0  0  0  0
M  END
