8,12
 OpenBabel05122313053D

 33 34  0  0  1  0  0  0  0  0999 V2000
    1.0425   -0.8937   -0.5476 O   0  0  0  0  0  0  0  0  0  0  0  0
    4.0658    0.8990    0.9367 N   0  0  0  0  0  0  0  0  0  0  0  0
   -0.3117    1.0471   -0.0067 C   0  0  0  0  0  0  0  0  0  0  0  0
   -1.0228    1.3499   -1.2176 C   0  0  0  0  0  0  0  0  0  0  0  0
   -0.6785    1.1319   -2.2346 H   0  0  0  0  0  0  0  0  0  0  0  0
   -2.2592    1.9698   -0.8694 C   0  0  0  0  0  0  0  0  0  0  0  0
   -3.0264    2.3112   -1.5749 H   0  0  0  0  0  0  0  0  0  0  0  0
   -2.3295    2.0655    0.5613 C   0  0  0  0  0  3  0  0  0  0  0  0
   -3.1503    2.5006    1.1427 H   0  0  0  0  0  0  0  0  0  0  0  0
   -1.1238    1.4922    1.0878 C   0  0  0  0  0  0  0  0  0  0  0  0
   -0.8546    1.4095    2.1482 H   0  0  0  0  0  0  0  0  0  0  0  0
   -1.7666   -1.5026   -1.3954 C   0  0  0  0  0  3  0  0  0  0  0  0
   -2.6416   -2.0451   -1.7848 H   0  0  0  0  0  0  0  0  0  0  0  0
   -1.0899   -1.1137   -2.1712 H   0  0  0  0  0  0  0  0  0  0  0  0
   -1.2123   -1.8622   -0.1407 C   0  0  0  0  0  3  0  0  0  0  0  0
   -1.7204   -2.6619    0.4272 H   0  0  0  0  0  0  0  0  0  0  0  0
    0.2809   -1.8782    0.1244 C   0  0  0  0  0  0  0  0  0  0  0  0
    0.4761   -1.8391    1.2236 H   0  0  0  0  0  0  0  0  0  0  0  0
    0.6787   -2.8528   -0.2393 H   0  0  0  0  0  0  0  0  0  0  0  0
    1.0298    0.3775    0.0984 C   0  0  2  0  0  0  0  0  0  0  0  0
    1.2681    0.2426    1.1817 H   0  0  0  0  0  0  0  0  0  0  0  0
    2.1586    1.2109   -0.5287 C   0  0  0  0  0  0  0  0  0  0  0  0
    1.9727    1.2963   -1.6184 H   0  0  0  0  0  0  0  0  0  0  0  0
    2.1300    2.2241   -0.0837 H   0  0  0  0  0  0  0  0  0  0  0  0
    3.5083    0.5939   -0.2519 C   0  0  0  0  0  0  0  0  0  0  0  0
    4.1112   -0.2983   -1.1611 C   0  0  0  0  0  0  0  0  0  0  0  0
    3.6075   -0.5383   -2.1086 H   0  0  0  0  0  0  0  0  0  0  0  0
    5.3429   -0.8755   -0.8277 C   0  0  0  0  0  0  0  0  0  0  0  0
    5.8382   -1.5745   -1.5192 H   0  0  0  0  0  0  0  0  0  0  0  0
    5.9301   -0.5492    0.4036 C   0  0  0  0  0  0  0  0  0  0  0  0
    6.8975   -0.9753    0.7084 H   0  0  0  0  0  0  0  0  0  0  0  0
    5.2449    0.3396    1.2474 C   0  0  0  0  0  0  0  0  0  0  0  0
    5.6729    0.6149    2.2285 H   0  0  0  0  0  0  0  0  0  0  0  0
  1 20  1  0  0  0  0
  1 17  1  0  0  0  0
  2 32  1  0  0  0  0
  3 20  1  0  0  0  0
  3 10  2  0  0  0  0
  4  6  2  0  0  0  0
  4  3  1  0  0  0  0
  5  4  1  0  0  0  0
  6  8  1  0  0  0  0
  7  6  1  0  0  0  0
  8 10  1  0  0  0  0
  8  9  1  0  0  0  0
 10 11  1  0  0  0  0
 12 15  1  0  0  0  0
 13 12  1  0  0  0  0
 14 12  1  0  0  0  0
 15 17  1  0  0  0  0
 15 16  1  0  0  0  0
 17 18  1  0  0  0  0
 19 17  1  0  0  0  0
 20 21  1  1  0  0  0
 22 25  1  0  0  0  0
 22 24  1  0  0  0  0
 22 20  1  0  0  0  0
 23 22  1  0  0  0  0
 25  2  2  0  0  0  0
 26 28  2  0  0  0  0
 26 25  1  0  0  0  0
 27 26  1  0  0  0  0
 28 30  1  0  0  0  0
 29 28  1  0  0  0  0
 30 31  1  0  0  0  0
 30 32  2  0  0  0  0
 32 33  1  0  0  0  0
M  END
