7,10
 OpenBabel05122313053D

 37 38  0  0  1  0  0  0  0  0999 V2000
   -1.9954    1.8837    0.6298 O   0  0  0  0  0  0  0  0  0  0  0  0
   -1.9338    1.4017   -1.5793 O   0  0  0  0  0  0  0  0  0  0  0  0
   -2.0035    1.0287   -0.4214 C   0  0  0  0  0  0  0  0  0  0  0  0
   -2.0779   -0.4435    0.0162 C   0  0  0  0  0  0  0  0  0  0  0  0
   -0.6275   -0.9933    0.1668 C   0  0  1  0  0  0  0  0  0  0  0  0
    0.2381   -0.8742   -1.0724 C   0  0  0  0  0  3  0  0  0  0  0  0
    1.3311   -1.7233   -1.2708 C   0  0  0  0  0  3  0  0  0  0  0  0
    2.0941   -2.3497   -0.2216 C   0  0  0  0  0  0  0  0  0  0  0  0
    2.0740   -2.0411    1.1654 C   0  0  0  0  0  0  0  0  0  0  0  0
    1.2891   -1.0310    1.8273 C   0  0  0  0  0  3  0  0  0  0  0  0
    0.2093   -0.3498    1.2548 C   0  0  0  0  0  3  0  0  0  0  0  0
   -2.8023   -1.2455   -1.0924 C   0  0  0  0  0  0  0  0  0  0  0  0
   -4.2896   -0.8912   -1.2050 C   0  0  0  0  0  0  0  0  0  0  0  0
   -5.0164   -1.0664    0.1330 C   0  0  0  0  0  0  0  0  0  0  0  0
   -4.3240   -0.2691    1.2442 C   0  0  0  0  0  0  0  0  0  0  0  0
   -2.8361   -0.6243    1.3523 C   0  0  0  0  0  0  0  0  0  0  0  0
   -1.9190    3.2809    0.2931 C   0  0  0  0  0  0  0  0  0  0  0  0
   -0.7505   -2.0722    0.4103 H   0  0  0  0  0  0  0  0  0  0  0  0
   -0.1269   -0.2747   -1.9198 H   0  0  0  0  0  0  0  0  0  0  0  0
    1.7294   -1.8408   -2.2909 H   0  0  0  0  0  0  0  0  0  0  0  0
    2.9055   -3.0200   -0.5448 H   0  0  0  0  0  0  0  0  0  0  0  0
    2.8718   -2.5063    1.7649 H   0  0  0  0  0  0  0  0  0  0  0  0
    1.6584   -0.7040    2.8121 H   0  0  0  0  0  0  0  0  0  0  0  0
   -0.1719    0.5482    1.7623 H   0  0  0  0  0  0  0  0  0  0  0  0
   -2.6938   -2.3250   -0.8469 H   0  0  0  0  0  0  0  0  0  0  0  0
   -2.2971   -1.0783   -2.0632 H   0  0  0  0  0  0  0  0  0  0  0  0
   -4.7619   -1.5169   -1.9907 H   0  0  0  0  0  0  0  0  0  0  0  0
   -4.3857    0.1612   -1.5504 H   0  0  0  0  0  0  0  0  0  0  0  0
   -5.0224   -2.1455    0.4082 H   0  0  0  0  0  0  0  0  0  0  0  0
   -6.0800   -0.7621    0.0414 H   0  0  0  0  0  0  0  0  0  0  0  0
   -4.8209   -0.4475    2.2205 H   0  0  0  0  0  0  0  0  0  0  0  0
   -4.4245    0.8196    1.0410 H   0  0  0  0  0  0  0  0  0  0  0  0
   -2.7340   -1.6929    1.6463 H   0  0  0  0  0  0  0  0  0  0  0  0
   -2.3561   -0.0274    2.1513 H   0  0  0  0  0  0  0  0  0  0  0  0
   -1.9986    3.8256    1.2503 H   0  0  0  0  0  0  0  0  0  0  0  0
   -2.7499    3.5591   -0.3849 H   0  0  0  0  0  0  0  0  0  0  0  0
   -0.9569    3.5036   -0.2053 H   0  0  0  0  0  0  0  0  0  0  0  0
  2  3  2  0  0  0  0
  3  4  1  0  0  0  0
  3  1  1  0  0  0  0
  4  5  1  0  0  0  0
  4 16  1  0  0  0  0
  5 18  1  1  0  0  0
  5 11  1  0  0  0  0
  6  5  1  0  0  0  0
  7  6  1  0  0  0  0
  7  8  1  0  0  0  0
  8  9  2  0  0  0  0
  9 22  1  0  0  0  0
  9 10  1  0  0  0  0
 10 23  1  0  0  0  0
 11 24  1  0  0  0  0
 11 10  1  0  0  0  0
 12 25  1  0  0  0  0
 12  4  1  0  0  0  0
 13 12  1  0  0  0  0
 13 14  1  0  0  0  0
 14 29  1  0  0  0  0
 14 15  1  0  0  0  0
 15 16  1  0  0  0  0
 15 31  1  0  0  0  0
 16 33  1  0  0  0  0
 16 34  1  0  0  0  0
 17  1  1  0  0  0  0
 17 35  1  0  0  0  0
 19  6  1  0  0  0  0
 20  7  1  0  0  0  0
 21  8  1  0  0  0  0
 26 12  1  0  0  0  0
 27 13  1  0  0  0  0
 28 13  1  0  0  0  0
 30 14  1  0  0  0  0
 32 15  1  0  0  0  0
 36 17  1  0  0  0  0
 37 17  1  0  0  0  0
M  END
