8,20
 OpenBabel05122313053D

 50 53  0  0  1  0  0  0  0  0999 V2000
    1.7145    0.9390    0.6019 C   0  0  0  0  0  0  0  0  0  0  0  0
    1.8439    0.9954    2.1019 C   0  0  0  0  0  0  0  0  0  0  0  0
    2.7841   -0.0938    2.6479 C   0  0  0  0  0  0  0  0  0  0  0  0
    4.0307   -0.2783    1.7707 C   0  0  0  0  0  0  0  0  0  0  0  0
    3.6531   -0.7425    0.3529 C   0  0  0  0  0  0  0  0  0  0  0  0
    2.5979    0.1619   -0.2223 C   0  0  0  0  0  0  0  0  0  0  0  0
    2.3175    0.4808   -1.5781 C   0  0  0  0  0  0  0  0  0  0  0  0
    1.2657    1.4453   -1.6047 C   0  0  0  0  0  3  0  0  0  0  0  0
    0.8917    1.7428   -0.2495 C   0  0  0  0  0  0  0  0  0  0  0  0
   -0.1469    2.7534    0.1836 C   0  0  2  0  0  0  0  0  0  0  0  0
   -1.4465    2.5248   -0.6326 C   0  0  1  0  0  0  0  0  0  0  0  0
   -1.7702    1.0452   -0.6839 C   0  0  0  0  0  0  0  0  0  0  0  0
   -1.9933    0.1490    0.4189 C   0  0  0  0  0  0  0  0  0  0  0  0
   -2.0629    0.4197    1.9033 C   0  0  0  0  0  0  0  0  0  0  0  0
   -3.0239   -0.5732    2.5790 C   0  0  0  0  0  0  0  0  0  0  0  0
   -2.6529   -2.0210    2.2361 C   0  0  0  0  0  0  0  0  0  0  0  0
   -2.7610   -2.3092    0.7283 C   0  0  0  0  0  0  0  0  0  0  0  0
   -2.2997   -1.1507   -0.1149 C   0  0  0  0  0  0  0  0  0  0  0  0
   -2.2262   -1.0707   -1.5311 C   0  0  0  0  0  0  0  0  0  0  0  0
   -1.9018    0.2750   -1.8821 C   0  0  0  0  0  3  0  0  0  0  0  0
    0.3995    4.1849    0.0743 C   0  0  0  0  0  0  0  0  0  0  0  0
   -2.6412    3.3624   -0.1523 C   0  0  0  0  0  0  0  0  0  0  0  0
    0.8537    0.9349    2.6008 H   0  0  0  0  0  0  0  0  0  0  0  0
    2.2428    2.0027    2.3629 H   0  0  0  0  0  0  0  0  0  0  0  0
    2.2330   -1.0559    2.6915 H   0  0  0  0  0  0  0  0  0  0  0  0
    3.0756    0.1605    3.6874 H   0  0  0  0  0  0  0  0  0  0  0  0
    4.5912    0.6817    1.7109 H   0  0  0  0  0  0  0  0  0  0  0  0
    4.7162   -1.0156    2.2362 H   0  0  0  0  0  0  0  0  0  0  0  0
    3.2695   -1.7849    0.4024 H   0  0  0  0  0  0  0  0  0  0  0  0
    4.5392   -0.7599   -0.3140 H   0  0  0  0  0  0  0  0  0  0  0  0
    2.8067    0.0406   -2.4542 H   0  0  0  0  0  0  0  0  0  0  0  0
    0.8352    1.8956   -2.5080 H   0  0  0  0  0  0  0  0  0  0  0  0
   -0.3806    2.5567    1.2519 H   0  0  0  0  0  0  0  0  0  0  0  0
   -1.2287    2.8335   -1.6791 H   0  0  0  0  0  0  0  0  0  0  0  0
   -2.3804    1.4645    2.0922 H   0  0  0  0  0  0  0  0  0  0  0  0
   -1.0592    0.3135    2.3711 H   0  0  0  0  0  0  0  0  0  0  0  0
   -4.0643   -0.3588    2.2468 H   0  0  0  0  0  0  0  0  0  0  0  0
   -3.0038   -0.4212    3.6777 H   0  0  0  0  0  0  0  0  0  0  0  0
   -1.6101   -2.2103    2.5647 H   0  0  0  0  0  0  0  0  0  0  0  0
   -3.2980   -2.7289    2.7951 H   0  0  0  0  0  0  0  0  0  0  0  0
   -3.8221   -2.5097    0.4580 H   0  0  0  0  0  0  0  0  0  0  0  0
   -2.1948   -3.2277    0.4702 H   0  0  0  0  0  0  0  0  0  0  0  0
   -2.3803   -1.8994   -2.2317 H   0  0  0  0  0  0  0  0  0  0  0  0
   -1.7706    0.6616   -2.9011 H   0  0  0  0  0  0  0  0  0  0  0  0
    1.3393    4.2923    0.6515 H   0  0  0  0  0  0  0  0  0  0  0  0
   -0.3221    4.9308    0.4630 H   0  0  0  0  0  0  0  0  0  0  0  0
    0.6250    4.4399   -0.9818 H   0  0  0  0  0  0  0  0  0  0  0  0
   -2.4340    4.4474   -0.2388 H   0  0  0  0  0  0  0  0  0  0  0  0
   -2.8890    3.1505    0.9075 H   0  0  0  0  0  0  0  0  0  0  0  0
   -3.5423    3.1416   -0.7576 H   0  0  0  0  0  0  0  0  0  0  0  0
  1  2  1  0  0  0  0
  2 24  1  0  0  0  0
  2 23  1  0  0  0  0
  2  3  1  0  0  0  0
  3 25  1  0  0  0  0
  3 26  1  0  0  0  0
  4 28  1  0  0  0  0
  4  3  1  0  0  0  0
  5 29  1  0  0  0  0
  5  4  1  0  0  0  0
  6  5  1  0  0  0  0
  6  1  1  0  0  0  0
  7  6  2  0  0  0  0
  8  7  1  0  0  0  0
  8  9  1  0  0  0  0
  9 10  1  0  0  0  0
  9  1  2  0  0  0  0
 10 33  1  1  0  0  0
 11 34  1  6  0  0  0
 11 22  1  0  0  0  0
 11 10  1  0  0  0  0
 12 11  1  0  0  0  0
 12 13  2  0  0  0  0
 13 14  1  0  0  0  0
 14 35  1  0  0  0  0
 14 36  1  0  0  0  0
 14 15  1  0  0  0  0
 15 38  1  0  0  0  0
 16 39  1  0  0  0  0
 16 15  1  0  0  0  0
 16 40  1  0  0  0  0
 17 16  1  0  0  0  0
 18 13  1  0  0  0  0
 18 17  1  0  0  0  0
 19 18  2  0  0  0  0
 20 19  1  0  0  0  0
 20 12  1  0  0  0  0
 21 10  1  0  0  0  0
 21 46  1  0  0  0  0
 21 45  1  0  0  0  0
 22 49  1  0  0  0  0
 27  4  1  0  0  0  0
 30  5  1  0  0  0  0
 31  7  1  0  0  0  0
 32  8  1  0  0  0  0
 37 15  1  0  0  0  0
 41 17  1  0  0  0  0
 42 17  1  0  0  0  0
 43 19  1  0  0  0  0
 44 20  1  0  0  0  0
 47 21  1  0  0  0  0
 48 22  1  0  0  0  0
 50 22  1  0  0  0  0
M  END
