12,16
 OpenBabel05122313053D

 41 43  0  0  0  0  0  0  0  0999 V2000
   -0.3975    0.0594    0.5065 P   0  0  0  0  0  0  0  0  0  0  0  0
   -0.3027    0.3289    2.3722 C   0  0  0  0  0  0  0  0  0  0  0  0
   -1.3193    0.4498    2.7953 H   0  0  0  0  0  0  0  0  0  0  0  0
    0.1201   -0.6120    2.7819 H   0  0  0  0  0  0  0  0  0  0  0  0
    0.5573    1.5230    2.6699 C   0  0  0  0  0  0  0  0  0  0  0  0
    0.1443    2.2719    3.3656 H   0  0  0  0  0  0  0  0  0  0  0  0
    1.7455    1.7958    2.0826 C   0  0  0  0  0  0  0  0  0  0  0  0
    2.2397    2.7555    2.3100 H   0  0  0  0  0  0  0  0  0  0  0  0
    2.4270    0.9293    1.0931 C   0  0  0  0  0  0  0  0  0  0  0  0
    2.7344    1.4313   -0.2137 C   0  0  0  0  0  0  0  0  0  0  0  0
    2.4282    2.4515   -0.4814 H   0  0  0  0  0  0  0  0  0  0  0  0
    3.3457    0.5862   -1.1829 C   0  0  0  0  0  3  0  0  0  0  0  0
    3.4951    0.9583   -2.2067 H   0  0  0  0  0  0  0  0  0  0  0  0
    3.7358   -0.7400   -0.8526 C   0  0  0  0  0  3  0  0  0  0  0  0
    4.1848   -1.3965   -1.6091 H   0  0  0  0  0  0  0  0  0  0  0  0
    3.4477   -1.2323    0.4513 C   0  0  0  0  0  3  0  0  0  0  0  0
    3.6882   -2.2751    0.7036 H   0  0  0  0  0  0  0  0  0  0  0  0
    2.8194   -0.4072    1.4297 C   0  0  0  0  0  3  0  0  0  0  0  0
    2.5920   -0.8058    2.4273 H   0  0  0  0  0  0  0  0  0  0  0  0
   -1.7541   -1.1752    0.3297 C   0  0  0  0  0  0  0  0  0  0  0  0
   -2.0394   -2.1302    1.3247 C   0  0  0  0  0  0  0  0  0  0  0  0
   -1.4954   -2.1200    2.2807 H   0  0  0  0  0  0  0  0  0  0  0  0
   -3.0152   -3.1150    1.1037 C   0  0  0  0  0  0  0  0  0  0  0  0
   -3.2300   -3.8545    1.8902 H   0  0  0  0  0  0  0  0  0  0  0  0
   -3.7087   -3.1607   -0.1145 C   0  0  0  0  0  0  0  0  0  0  0  0
   -4.4715   -3.9350   -0.2873 H   0  0  0  0  0  0  0  0  0  0  0  0
   -3.4199   -2.2187   -1.1159 C   0  0  0  0  0  0  0  0  0  0  0  0
   -3.9541   -2.2529   -2.0775 H   0  0  0  0  0  0  0  0  0  0  0  0
   -2.4483   -1.2331   -0.8982 C   0  0  0  0  0  0  0  0  0  0  0  0
   -2.2204   -0.5038   -1.6907 H   0  0  0  0  0  0  0  0  0  0  0  0
   -1.2740    1.6094   -0.0147 C   0  0  0  0  0  0  0  0  0  0  0  0
   -0.6714    2.4827   -0.9364 C   0  0  0  0  0  0  0  0  0  0  0  0
    0.3063    2.2103   -1.3604 H   0  0  0  0  0  0  0  0  0  0  0  0
   -1.3171    3.6702   -1.3176 C   0  0  0  0  0  0  0  0  0  0  0  0
   -0.8386    4.3440   -2.0449 H   0  0  0  0  0  0  0  0  0  0  0  0
   -2.5707    3.9928   -0.7778 C   0  0  0  0  0  0  0  0  0  0  0  0
   -3.0786    4.9226   -1.0765 H   0  0  0  0  0  0  0  0  0  0  0  0
   -3.1833    3.1202    0.1386 C   0  0  0  0  0  0  0  0  0  0  0  0
   -4.1720    3.3644    0.5567 H   0  0  0  0  0  0  0  0  0  0  0  0
   -2.5409    1.9330    0.5153 C   0  0  0  0  0  0  0  0  0  0  0  0
   -3.0368    1.2426    1.2160 H   0  0  0  0  0  0  0  0  0  0  0  0
  1  2  1  0  0  0  0
  2  5  1  0  0  0  0
  2  4  1  0  0  0  0
  2  3  1  0  0  0  0
  5  6  1  0  0  0  0
  7  8  1  0  0  0  0
  7  5  2  0  0  0  0
  9 18  1  0  0  0  0
  9  7  1  0  0  0  0
 10  9  2  0  0  0  0
 11 10  1  0  0  0  0
 12 14  1  0  0  0  0
 12 10  1  0  0  0  0
 13 12  1  0  0  0  0
 14 16  1  0  0  0  0
 15 14  1  0  0  0  0
 16 17  1  0  0  0  0
 16 18  1  0  0  0  0
 18 19  1  0  0  0  0
 20  1  1  0  0  0  0
 20 21  1  0  0  0  0
 21 22  1  0  0  0  0
 23 21  2  0  0  0  0
 23 24  1  0  0  0  0
 25 23  1  0  0  0  0
 26 25  1  0  0  0  0
 27 29  1  0  0  0  0
 27 25  2  0  0  0  0
 28 27  1  0  0  0  0
 29 20  2  0  0  0  0
 30 29  1  0  0  0  0
 31  1  1  0  0  0  0
 31 40  1  0  0  0  0
 32 31  2  0  0  0  0
 33 32  1  0  0  0  0
 34 32  1  0  0  0  0
 34 36  2  0  0  0  0
 35 34  1  0  0  0  0
 36 38  1  0  0  0  0
 37 36  1  0  0  0  0
 38 40  2  0  0  0  0
 38 39  1  0  0  0  0
 40 41  1  0  0  0  0
M  END
