3,10
 OpenBabel05122313053D

 25 25  0  0  0  0  0  0  0  0999 V2000
    1.3122   -1.9175    0.0874 N   0  0  0  0  0  0  0  0  0  0  0  0
    2.2155   -0.0047    0.6301 N   0  0  0  0  0  0  0  0  0  0  0  0
    1.0498   -0.5996    0.2993 C   0  0  0  0  0  2  0  0  0  0  0  0
    3.3484   -0.9430    0.6789 C   0  0  0  0  0  0  0  0  0  0  0  0
    2.7466   -2.2163    0.0560 C   0  0  0  0  0  0  0  0  0  0  0  0
    2.3876    1.3910    0.9675 C   0  0  0  0  0  0  0  0  0  0  0  0
    2.9344    2.2373   -0.1561 C   0  0  0  0  0  0  0  0  0  0  0  0
    3.0194    1.8560   -1.4405 C   0  0  0  0  0  0  0  0  0  0  0  0
    0.3272   -2.7755   -0.5451 C   0  0  0  0  0  0  0  0  0  0  0  0
   -1.0787   -2.3023   -0.2284 C   0  0  0  0  0  3  0  0  0  0  0  0
   -1.4936   -2.0222    1.0776 C   0  0  0  0  0  3  0  0  0  0  0  0
    4.2159   -0.5476    0.1135 H   0  0  0  0  0  0  0  0  0  0  0  0
    3.6675   -1.0972    1.7345 H   0  0  0  0  0  0  0  0  0  0  0  0
    2.9870   -3.1369    0.6260 H   0  0  0  0  0  0  0  0  0  0  0  0
    3.0835   -2.3704   -0.9960 H   0  0  0  0  0  0  0  0  0  0  0  0
    3.0501    1.4675    1.8596 H   0  0  0  0  0  0  0  0  0  0  0  0
    1.3981    1.7850    1.2822 H   0  0  0  0  0  0  0  0  0  0  0  0
    3.2490    3.2537    0.1392 H   0  0  0  0  0  0  0  0  0  0  0  0
    3.4016    2.5372   -2.2150 H   0  0  0  0  0  0  0  0  0  0  0  0
    2.6828    0.8578   -1.7651 H   0  0  0  0  0  0  0  0  0  0  0  0
    0.4803   -3.8192   -0.1846 H   0  0  0  0  0  0  0  0  0  0  0  0
    0.4852   -2.7906   -1.6498 H   0  0  0  0  0  0  0  0  0  0  0  0
   -1.8383   -2.5324   -0.9913 H   0  0  0  0  0  0  0  0  0  0  0  0
   -2.5618   -2.0283    1.3360 H   0  0  0  0  0  0  0  0  0  0  0  0
   -0.7874   -2.1358    1.9150 H   0  0  0  0  0  0  0  0  0  0  0  0
  1  3  1  0  0  0  0
  2  4  1  0  0  0  0
  2  6  1  0  0  0  0
  3  2  1  0  0  0  0
  4 13  1  0  0  0  0
  5  1  1  0  0  0  0
  5 14  1  0  0  0  0
  5  4  1  0  0  0  0
  6 17  1  0  0  0  0
  6 16  1  0  0  0  0
  7 18  1  0  0  0  0
  7  6  1  0  0  0  0
  8  7  2  0  0  0  0
  9 10  1  0  0  0  0
  9 21  1  0  0  0  0
  9  1  1  0  0  0  0
 10 11  1  0  0  0  0
 11 24  1  0  0  0  0
 11 25  1  0  0  0  0
 12  4  1  0  0  0  0
 15  5  1  0  0  0  0
 19  8  1  0  0  0  0
 20  8  1  0  0  0  0
 22  9  1  0  0  0  0
 23 10  1  0  0  0  0
M  END
