6,9
 OpenBabel05122313053D

  9  8  0  0  0  0  0  0  0  0999 V2000
    0.1353    0.8752    2.4359 O   0  0  0  0  0  0  0  0  0  0  0  0
   -0.0847    3.6008    1.6230 F   0  0  0  0  0  0  0  0  0  0  0  0
   -0.2561    3.8701   -1.2058 F   0  0  0  0  0  0  0  0  0  0  0  0
    1.0269    1.4923   -2.2194 F   0  0  0  0  0  0  0  0  0  0  0  0
   -1.1514    1.3713   -2.2441 F   0  0  0  0  0  0  0  0  0  0  0  0
    0.0299    1.1839    1.2564 C   0  0  0  0  0  0  0  0  0  0  0  0
   -0.0683    2.5747    0.7715 C   0  0  0  0  0  0  0  0  0  0  0  0
   -0.1417    2.7037   -0.5748 C   0  0  0  0  0  0  0  0  0  0  0  0
   -0.0712    1.4294   -1.3642 C   0  0  0  0  0  0  0  0  0  0  0  0
  3  8  1  0  0  0  0
  4  9  1  0  0  0  0
  5  9  1  0  0  0  0
  6  1  2  0  0  0  0
  7  6  1  0  0  0  0
  7  2  1  0  0  0  0
  8  7  2  0  0  0  0
  9  8  1  0  0  0  0
M  END
