3,6
 OpenBabel05122313053D

 17 16  0  0  0  0  0  0  0  0999 V2000
   -3.5521   -0.0557    0.2928 O   0  0  0  0  0  0  0  0  0  0  0  0
   -0.5609    2.1472   -0.1407 C   0  0  0  0  0  3  0  0  0  0  0  0
   -1.7524    1.4576   -0.4651 C   0  0  0  0  0  3  0  0  0  0  0  0
   -2.8528    1.1585    0.5285 C   0  0  0  0  0  0  0  0  0  0  0  0
   -2.7941   -1.2357    0.5159 C   0  0  0  0  0  0  0  0  0  0  0  0
   -1.6803   -1.4709   -0.4806 C   0  0  0  0  0  3  0  0  0  0  0  0
   -0.4601   -2.1115   -0.1635 C   0  0  0  0  0  3  0  0  0  0  0  0
   -0.0241    2.7123   -0.9200 H   0  0  0  0  0  0  0  0  0  0  0  0
   -0.3903    2.4982    0.8928 H   0  0  0  0  0  0  0  0  0  0  0  0
   -2.0838    1.4529   -1.5201 H   0  0  0  0  0  0  0  0  0  0  0  0
   -2.4389    1.1840    1.5686 H   0  0  0  0  0  0  0  0  0  0  0  0
   -3.6398    1.9429    0.4673 H   0  0  0  0  0  0  0  0  0  0  0  0
   -3.5411   -2.0577    0.4455 H   0  0  0  0  0  0  0  0  0  0  0  0
   -2.3793   -1.2527    1.5559 H   0  0  0  0  0  0  0  0  0  0  0  0
   -2.0115   -1.4689   -1.5356 H   0  0  0  0  0  0  0  0  0  0  0  0
   -0.2770   -2.4676    0.8662 H   0  0  0  0  0  0  0  0  0  0  0  0
    0.0983   -2.6458   -0.9496 H   0  0  0  0  0  0  0  0  0  0  0  0
  1  5  1  0  0  0  0
  1  4  1  0  0  0  0
  2  9  1  0  0  0  0
  3  2  1  0  0  0  0
  3  4  1  0  0  0  0
  4 11  1  0  0  0  0
  5 14  1  0  0  0  0
  6  7  1  0  0  0  0
  6  5  1  0  0  0  0
  7 16  1  0  0  0  0
  8  2  1  0  0  0  0
 10  3  1  0  0  0  0
 12  4  1  0  0  0  0
 13  5  1  0  0  0  0
 15  6  1  0  0  0  0
 17  7  1  0  0  0  0
M  END
