7,9
 OpenBabel05122313053D

 21 21  0  0  1  0  0  0  0  0999 V2000
    2.3879   -0.7542   -0.5284 S   0  0  1  0  0  0  0  0  0  0  0  0
    2.4105   -2.2543   -0.2945 O   0  0  0  0  0  0  0  0  0  0  0  0
    1.0870   -0.1131    0.6046 C   0  0  1  0  0  3  0  0  0  0  0  0
    0.6317    1.2389    0.5381 C   0  0  0  0  0  0  0  0  0  0  0  0
    1.3590    2.0644   -0.2501 O   0  0  0  0  0  0  0  0  0  0  0  0
   -0.5245    1.6209    1.2819 C   0  0  0  0  0  0  0  0  0  0  0  0
   -1.1855    0.6453    2.0887 C   0  0  0  0  0  3  0  0  0  0  0  0
   -0.6970   -0.6862    2.1996 C   0  0  0  0  0  3  0  0  0  0  0  0
    0.4243   -1.0697    1.4133 C   0  0  0  0  0  3  0  0  0  0  0  0
    3.8079   -0.0579    0.4290 C   0  0  0  0  0  0  0  0  0  0  0  0
    0.8120    3.3340   -0.5981 C   0  0  0  0  0  0  0  0  0  0  0  0
   -0.9346    2.6351    1.2088 H   0  0  0  0  0  0  0  0  0  0  0  0
   -2.1018    0.9344    2.6225 H   0  0  0  0  0  0  0  0  0  0  0  0
   -1.2360   -1.4281    2.8031 H   0  0  0  0  0  0  0  0  0  0  0  0
    0.8016   -2.1049    1.3697 H   0  0  0  0  0  0  0  0  0  0  0  0
    4.7248   -0.4003   -0.0867 H   0  0  0  0  0  0  0  0  0  0  0  0
    3.7385    1.0469    0.4232 H   0  0  0  0  0  0  0  0  0  0  0  0
    3.7618   -0.4712    1.4542 H   0  0  0  0  0  0  0  0  0  0  0  0
    1.5230    3.7884   -1.3109 H   0  0  0  0  0  0  0  0  0  0  0  0
   -0.1760    3.2185   -1.0905 H   0  0  0  0  0  0  0  0  0  0  0  0
    0.7168    3.9931    0.2914 H   0  0  0  0  0  0  0  0  0  0  0  0
  1  2  2  1  0  0  0
  1 10  1  0  0  0  0
  3  1  1  6  0  0  0
  3  9  1  0  0  0  0
  4  3  1  0  0  0  0
  4  6  2  0  0  0  0
  5  4  1  0  0  0  0
  6  7  1  0  0  0  0
  7  8  1  0  0  0  0
  7 13  1  0  0  0  0
  8 14  1  0  0  0  0
  9  8  1  0  0  0  0
 10 18  1  0  0  0  0
 11  5  1  0  0  0  0
 11 21  1  0  0  0  0
 12  6  1  0  0  0  0
 15  9  1  0  0  0  0
 16 10  1  0  0  0  0
 17 10  1  0  0  0  0
 19 11  1  0  0  0  0
 20 11  1  0  0  0  0
M  END
