3,5
 OpenBabel05122313053D

 32 31  0  0  1  0  0  0  0  0999 V2000
   -3.9768   -2.4786   -1.5330 O   0  0  0  0  0  0  0  0  0  0  0  0
   -3.1043    0.7202    0.4211 N   0  0  0  0  0  0  0  0  0  0  0  0
    0.4840   -2.1005   -1.0435 C   0  0  0  0  0  3  0  0  0  0  0  0
   -1.0365   -1.9367   -0.9784 C   0  0  2  0  0  0  0  0  0  0  0  0
   -1.2048   -0.7492   -0.0032 C   0  0  0  0  0  3  0  0  0  0  0  0
   -2.2731    0.1815   -0.4038 C   0  0  0  0  0  0  0  0  0  0  0  0
   -4.2306    1.5436   -0.0515 C   0  0  0  0  0  0  0  0  0  0  0  0
   -4.2118    2.8478    0.7688 C   0  0  0  0  0  0  0  0  0  0  0  0
   -5.5064    0.7396    0.2793 C   0  0  0  0  0  0  0  0  0  0  0  0
   -4.2317    1.8771   -1.5552 C   0  0  0  0  0  0  0  0  0  0  0  0
   -1.8791   -3.1797   -0.6079 C   0  0  0  0  0  0  0  0  0  0  0  0
   -3.3564   -2.8008   -0.5263 C   0  0  0  0  0  0  0  0  0  0  0  0
   -3.9838   -2.7220    0.8512 C   0  0  0  0  0  0  0  0  0  0  0  0
    0.8427   -2.9093   -0.3699 H   0  0  0  0  0  0  0  0  0  0  0  0
    0.8648   -2.3236   -2.0604 H   0  0  0  0  0  0  0  0  0  0  0  0
   -1.3993   -1.5968   -1.9729 H   0  0  0  0  0  0  0  0  0  0  0  0
   -1.3685   -1.0665    1.0444 H   0  0  0  0  0  0  0  0  0  0  0  0
   -2.3341    0.3533   -1.5053 H   0  0  0  0  0  0  0  0  0  0  0  0
   -4.1996    2.6161    1.8525 H   0  0  0  0  0  0  0  0  0  0  0  0
   -3.3067    3.4461    0.5379 H   0  0  0  0  0  0  0  0  0  0  0  0
   -5.1027    3.4708    0.5489 H   0  0  0  0  0  0  0  0  0  0  0  0
   -5.5252    0.4765    1.3556 H   0  0  0  0  0  0  0  0  0  0  0  0
   -6.4182    1.3248    0.0405 H   0  0  0  0  0  0  0  0  0  0  0  0
   -5.5239   -0.2007   -0.3082 H   0  0  0  0  0  0  0  0  0  0  0  0
   -3.3220    2.4377   -1.8541 H   0  0  0  0  0  0  0  0  0  0  0  0
   -4.2914    0.9613   -2.1766 H   0  0  0  0  0  0  0  0  0  0  0  0
   -5.1087    2.5084   -1.8013 H   0  0  0  0  0  0  0  0  0  0  0  0
   -1.5187   -3.6084    0.3516 H   0  0  0  0  0  0  0  0  0  0  0  0
   -1.7593   -3.9515   -1.3978 H   0  0  0  0  0  0  0  0  0  0  0  0
   -5.0860   -2.6892    0.7706 H   0  0  0  0  0  0  0  0  0  0  0  0
   -3.6600   -3.5484    1.5145 H   0  0  0  0  0  0  0  0  0  0  0  0
   -3.6423   -1.7647    1.3076 H   0  0  0  0  0  0  0  0  0  0  0  0
  1 12  2  0  0  0  0
  3  4  1  0  0  0  0
  3 14  1  0  0  0  0
  4 16  1  6  0  0  0
  4 11  1  0  0  0  0
  4  5  1  0  0  0  0
  5 17  1  0  0  0  0
  6  5  1  0  0  0  0
  6  2  2  0  0  0  0
  7  9  1  0  0  0  0
  7  2  1  0  0  0  0
  7  8  1  0  0  0  0
  8 19  1  0  0  0  0
  9 22  1  0  0  0  0
 10  7  1  0  0  0  0
 11 12  1  0  0  0  0
 11 28  1  0  0  0  0
 12 13  1  0  0  0  0
 13 32  1  0  0  0  0
 13 31  1  0  0  0  0
 15  3  1  0  0  0  0
 18  6  1  0  0  0  0
 20  8  1  0  0  0  0
 21  8  1  0  0  0  0
 23  9  1  0  0  0  0
 24  9  1  0  0  0  0
 25 10  1  0  0  0  0
 26 10  1  0  0  0  0
 27 10  1  0  0  0  0
 29 11  1  0  0  0  0
 30 13  1  0  0  0  0
M  END
