6,10
 OpenBabel05122313053D

 16 17  0  0  0  0  0  0  0  0999 V2000
   -3.0346   -1.4318   -0.6022 N   0  0  0  0  0  0  0  0  0  0  0  0
   -3.0312    1.4143   -0.6857 N   0  0  0  0  0  0  0  0  0  0  0  0
   -2.0224   -0.7581   -1.2518 C   0  0  0  0  0  0  0  0  0  0  0  0
   -0.9603   -1.4841   -1.8994 C   0  0  0  0  0  3  0  0  0  0  0  0
   -0.9747   -2.5820   -1.8749 H   0  0  0  0  0  0  0  0  0  0  0  0
    0.0628   -0.7682   -2.5838 C   0  0  0  0  0  3  0  0  0  0  0  0
    0.8512   -1.3319   -3.1059 H   0  0  0  0  0  0  0  0  0  0  0  0
    0.0615    0.6689   -2.6407 C   0  0  0  0  0  3  0  0  0  0  0  0
    0.8522    1.2064   -3.1817 H   0  0  0  0  0  0  0  0  0  0  0  0
   -0.9349    1.3982   -1.9336 C   0  0  0  0  0  3  0  0  0  0  0  0
   -0.9552    2.4979   -1.9513 H   0  0  0  0  0  0  0  0  0  0  0  0
   -2.0385    0.7089   -1.3017 C   0  0  0  0  0  0  0  0  0  0  0  0
   -3.9918    0.7224   -0.0826 C   0  0  0  0  0  0  0  0  0  0  0  0
   -4.8044    1.2913    0.4036 H   0  0  0  0  0  0  0  0  0  0  0  0
   -3.9873   -0.7008   -0.0440 C   0  0  0  0  0  0  0  0  0  0  0  0
   -4.8026   -1.2408    0.4728 H   0  0  0  0  0  0  0  0  0  0  0  0
  1 15  1  0  0  0  0
  2 13  1  0  0  0  0
  3  1  2  0  0  0  0
  4  5  1  0  0  0  0
  4  3  1  0  0  0  0
  6  4  1  0  0  0  0
  7  6  1  0  0  0  0
  8  6  1  0  0  0  0
  8 10  1  0  0  0  0
  9  8  1  0  0  0  0
 10 12  1  0  0  0  0
 11 10  1  0  0  0  0
 12  3  1  0  0  0  0
 12  2  2  0  0  0  0
 13 15  2  0  0  0  0
 13 14  1  0  0  0  0
 15 16  1  0  0  0  0
M  END
