2,3
 OpenBabel05122313053D

 17 18  0  0  0  0  0  0  0  0999 V2000
    0.0419    0.7815   -2.5738 N   0  0  0  0  0  2  0  0  0  0  0  0
   -0.8995    1.4257   -1.8057 C   0  0  0  0  0  3  0  0  0  0  0  0
   -0.0209   -0.6049   -2.5729 C   0  0  0  0  0  3  0  0  0  0  0  0
   -1.0476   -1.3663   -1.9385 C   0  0  0  0  0  3  0  0  0  0  0  0
   -2.1119   -0.6751   -1.2545 C   0  0  0  0  0  0  0  0  0  0  0  0
   -3.2430   -1.3251   -0.6543 C   0  0  0  0  0  0  0  0  0  0  0  0
   -4.2429   -0.5975   -0.0297 C   0  0  0  0  0  0  0  0  0  0  0  0
   -4.1780    0.8248    0.0246 C   0  0  0  0  0  0  0  0  0  0  0  0
   -3.1103    1.4895   -0.5605 C   0  0  0  0  0  0  0  0  0  0  0  0
   -2.0625    0.7774   -1.2200 C   0  0  0  0  0  0  0  0  0  0  0  0
   -3.0731    2.5897   -0.5547 H   0  0  0  0  0  0  0  0  0  0  0  0
   -1.0616   -2.4611   -2.0349 H   0  0  0  0  0  0  0  0  0  0  0  0
    0.7390   -1.1190   -3.1846 H   0  0  0  0  0  0  0  0  0  0  0  0
   -4.9812    1.3934    0.5166 H   0  0  0  0  0  0  0  0  0  0  0  0
   -0.8467    2.5279   -1.8017 H   0  0  0  0  0  0  0  0  0  0  0  0
   -3.3233   -2.4200   -0.7387 H   0  0  0  0  0  0  0  0  0  0  0  0
   -5.1033   -1.1212    0.4148 H   0  0  0  0  0  0  0  0  0  0  0  0
  1  3  1  0  0  0  0
  1  2  1  0  0  0  0
  2 15  1  0  0  0  0
  2 10  1  0  0  0  0
  3  4  1  0  0  0  0
  4  5  1  0  0  0  0
  5 10  2  0  0  0  0
  5  6  1  0  0  0  0
  6  7  2  0  0  0  0
  7  8  1  0  0  0  0
  7 17  1  0  0  0  0
  8 14  1  0  0  0  0
  9 11  1  0  0  0  0
  9  8  2  0  0  0  0
 10  9  1  0  0  0  0
 12  4  1  0  0  0  0
 13  3  1  0  0  0  0
 16  6  1  0  0  0  0
M  END
