1,14
 OpenBabel05122313053D

 26 27  0  0  1  0  0  0  0  0999 V2000
   -1.5971   -1.1526    0.5467 C   0  0  0  0  0  3  0  0  0  0  0  0
   -3.0339   -0.6698    0.3287 C   0  0  2  0  0  0  0  0  0  0  0  0
   -2.5130   -1.8781   -0.4348 C   0  0  0  0  0  0  0  0  0  0  0  0
   -3.0441   -3.2296    0.0170 C   0  0  0  0  0  0  0  0  0  0  0  0
   -2.2577   -1.8109   -1.9304 C   0  0  0  0  0  0  0  0  0  0  0  0
   -1.3797   -1.7032    1.4862 H   0  0  0  0  0  0  0  0  0  0  0  0
   -3.7988   -0.8794    1.1001 H   0  0  0  0  0  0  0  0  0  0  0  0
   -3.2396   -3.2480    1.1084 H   0  0  0  0  0  0  0  0  0  0  0  0
   -3.9948   -3.4831   -0.5015 H   0  0  0  0  0  0  0  0  0  0  0  0
   -2.3190   -4.0425   -0.2105 H   0  0  0  0  0  0  0  0  0  0  0  0
   -1.4633   -2.5313   -2.2238 H   0  0  0  0  0  0  0  0  0  0  0  0
   -3.1737   -2.0746   -2.5036 H   0  0  0  0  0  0  0  0  0  0  0  0
   -1.9325   -0.8026   -2.2441 H   0  0  0  0  0  0  0  0  0  0  0  0
   -1.5971    1.1525   -0.5467 C   0  0  0  0  0  3  0  0  0  0  0  0
   -3.0339    0.6695   -0.3290 C   0  0  2  0  0  0  0  0  0  0  0  0
   -2.5134    1.8779    0.4346 C   0  0  0  0  0  0  0  0  0  0  0  0
   -1.3796    1.7032   -1.4861 H   0  0  0  0  0  0  0  0  0  0  0  0
   -3.7987    0.8791   -1.1006 H   0  0  0  0  0  0  0  0  0  0  0  0
   -3.0445    3.2293   -0.0173 C   0  0  0  0  0  0  0  0  0  0  0  0
   -2.2584    1.8107    1.9302 C   0  0  0  0  0  0  0  0  0  0  0  0
   -3.2397    3.2477   -1.1087 H   0  0  0  0  0  0  0  0  0  0  0  0
   -3.9954    3.4827    0.5010 H   0  0  0  0  0  0  0  0  0  0  0  0
   -2.3196    4.0423    0.2104 H   0  0  0  0  0  0  0  0  0  0  0  0
   -1.4642    2.5313    2.2239 H   0  0  0  0  0  0  0  0  0  0  0  0
   -3.1746    2.0742    2.5032 H   0  0  0  0  0  0  0  0  0  0  0  0
   -1.9332    0.8024    2.2441 H   0  0  0  0  0  0  0  0  0  0  0  0
  1  6  1  0  0  0  0
  2  1  1  0  0  0  0
  2  7  1  1  0  0  0
  3  4  1  0  0  0  0
  3  2  1  0  0  0  0
  3  1  1  0  0  0  0
  4  8  1  0  0  0  0
  5  3  1  0  0  0  0
  9  4  1  0  0  0  0
 10  4  1  0  0  0  0
 11  5  1  0  0  0  0
 12  5  1  0  0  0  0
 13  5  1  0  0  0  0
 14 15  1  0  0  0  0
 14 16  1  0  0  0  0
 15 18  1  6  0  0  0
 15  2  1  0  0  0  0
 15 16  1  0  0  0  0
 16 20  1  0  0  0  0
 17 14  1  0  0  0  0
 19 23  1  0  0  0  0
 19 16  1  0  0  0  0
 19 22  1  0  0  0  0
 20 24  1  0  0  0  0
 20 26  1  0  0  0  0
 20 25  1  0  0  0  0
 21 19  1  0  0  0  0
M  END
