1,10
 OpenBabel05122313053D

 22 22  0  0  0  0  0  0  0  0999 V2000
   -0.1772   -1.7450    0.7305 C   0  0  0  0  0  3  0  0  0  0  0  0
   -1.4568   -1.4841    1.5296 C   0  0  0  0  0  0  0  0  0  0  0  0
   -2.4951   -0.7093    0.7568 C   0  0  0  0  0  0  0  0  0  0  0  0
   -3.4405   -1.3931   -0.0329 C   0  0  0  0  0  0  0  0  0  0  0  0
   -4.3684   -0.7013   -0.8237 C   0  0  0  0  0  0  0  0  0  0  0  0
   -4.3684    0.7020   -0.8231 C   0  0  0  0  0  0  0  0  0  0  0  0
   -3.4405    1.3931   -0.0318 C   0  0  0  0  0  0  0  0  0  0  0  0
   -2.4951    0.7086    0.7574 C   0  0  0  0  0  0  0  0  0  0  0  0
   -1.4568    1.4828    1.5309 C   0  0  0  0  0  0  0  0  0  0  0  0
   -0.1772    1.7444    0.7319 C   0  0  0  0  0  3  0  0  0  0  0  0
    0.5211   -2.3526    1.3414 H   0  0  0  0  0  0  0  0  0  0  0  0
   -0.4286   -2.3673   -0.1522 H   0  0  0  0  0  0  0  0  0  0  0  0
   -1.2154   -0.9698    2.4822 H   0  0  0  0  0  0  0  0  0  0  0  0
   -1.8884   -2.4692    1.8178 H   0  0  0  0  0  0  0  0  0  0  0  0
   -3.4420   -2.4953   -0.0254 H   0  0  0  0  0  0  0  0  0  0  0  0
   -5.0951   -1.2570   -1.4357 H   0  0  0  0  0  0  0  0  0  0  0  0
   -5.0950    1.2582   -1.4347 H   0  0  0  0  0  0  0  0  0  0  0  0
   -3.4420    2.4953   -0.0233 H   0  0  0  0  0  0  0  0  0  0  0  0
   -1.8884    2.4676    1.8199 H   0  0  0  0  0  0  0  0  0  0  0  0
   -1.2154    0.9677    2.4830 H   0  0  0  0  0  0  0  0  0  0  0  0
   -0.4286    2.3675   -0.1502 H   0  0  0  0  0  0  0  0  0  0  0  0
    0.5211    2.3515    1.3433 H   0  0  0  0  0  0  0  0  0  0  0  0
  1 11  1  0  0  0  0
  1  2  1  0  0  0  0
  2 14  1  0  0  0  0
  2 13  1  0  0  0  0
  3  8  1  0  0  0  0
  3  2  1  0  0  0  0
  4 15  1  0  0  0  0
  4  3  2  0  0  0  0
  5  6  2  0  0  0  0
  5  4  1  0  0  0  0
  6  7  1  0  0  0  0
  7 18  1  0  0  0  0
  7  8  2  0  0  0  0
  8  9  1  0  0  0  0
  9 19  1  0  0  0  0
  9 20  1  0  0  0  0
 10 22  1  0  0  0  0
 10  9  1  0  0  0  0
 12  1  1  0  0  0  0
 16  5  1  0  0  0  0
 17  6  1  0  0  0  0
 21 10  1  0  0  0  0
M  END
