5,8
 OpenBabel05122313053D

 33 34  0  0  1  0  0  0  0  0999 V2000
    2.9413   -0.9276    0.0287 Si  0  0  0  0  0  0  0  0  0  0  0  0
    1.8011    0.2089   -0.5488 O   0  0  0  0  0  0  0  0  0  0  0  0
   -0.7087    1.3234    1.1121 C   0  0  0  0  0  0  0  0  0  0  0  0
   -2.0747    1.4091    1.5036 C   0  0  0  0  0  0  0  0  0  0  0  0
   -3.0130    1.6339    0.4550 C   0  0  0  0  0  3  0  0  0  0  0  0
   -2.6065    1.7361   -0.9214 C   0  0  0  0  0  0  0  0  0  0  0  0
   -1.2421    1.6048   -1.3027 C   0  0  0  0  0  0  0  0  0  0  0  0
   -0.3150    1.4248   -0.2409 C   0  0  1  0  0  3  0  0  0  0  0  0
    1.1832    1.2754    0.0878 C   0  0  1  0  0  0  0  0  0  0  0  0
    0.7042    1.0967    1.6150 C   0  0  0  0  0  0  0  0  0  0  0  0
    1.9103    2.5858   -0.1287 C   0  0  0  0  0  0  0  0  0  0  0  0
    2.9703    2.7359   -0.9386 C   0  0  0  0  0  0  0  0  0  0  0  0
    4.0465   -0.1268    1.3327 C   0  0  0  0  0  0  0  0  0  0  0  0
    2.0525   -2.4353    0.7187 C   0  0  0  0  0  0  0  0  0  0  0  0
    3.9035   -1.4005   -1.5141 C   0  0  0  0  0  0  0  0  0  0  0  0
   -2.4120    1.2790    2.5410 H   0  0  0  0  0  0  0  0  0  0  0  0
   -4.0855    1.6736    0.6918 H   0  0  0  0  0  0  0  0  0  0  0  0
   -3.3802    1.8460   -1.6941 H   0  0  0  0  0  0  0  0  0  0  0  0
   -0.9402    1.6227   -2.3588 H   0  0  0  0  0  0  0  0  0  0  0  0
    0.8953    0.0887    2.0281 H   0  0  0  0  0  0  0  0  0  0  0  0
    1.0966    1.8623    2.3144 H   0  0  0  0  0  0  0  0  0  0  0  0
    1.4885    3.4524    0.4098 H   0  0  0  0  0  0  0  0  0  0  0  0
    3.4541    3.7148   -1.0741 H   0  0  0  0  0  0  0  0  0  0  0  0
    3.3740    1.8749   -1.4938 H   0  0  0  0  0  0  0  0  0  0  0  0
    4.5249    0.7925    0.9395 H   0  0  0  0  0  0  0  0  0  0  0  0
    3.4784    0.1481    2.2445 H   0  0  0  0  0  0  0  0  0  0  0  0
    4.8474   -0.8313    1.6397 H   0  0  0  0  0  0  0  0  0  0  0  0
    1.4342   -2.2115    1.6103 H   0  0  0  0  0  0  0  0  0  0  0  0
    1.3833   -2.8661   -0.0529 H   0  0  0  0  0  0  0  0  0  0  0  0
    2.7908   -3.2130    1.0063 H   0  0  0  0  0  0  0  0  0  0  0  0
    3.2007   -1.7428   -2.3008 H   0  0  0  0  0  0  0  0  0  0  0  0
    4.4799   -0.5426   -1.9155 H   0  0  0  0  0  0  0  0  0  0  0  0
    4.6142   -2.2260   -1.3048 H   0  0  0  0  0  0  0  0  0  0  0  0
  1 14  1  0  0  0  0
  1 13  1  0  0  0  0
  2  1  1  0  0  0  0
  3  4  2  0  0  0  0
  3 10  1  0  0  0  0
  4 16  1  0  0  0  0
  5 17  1  0  0  0  0
  5  4  1  0  0  0  0
  6  5  1  0  0  0  0
  7  6  2  0  0  0  0
  8  7  1  1  0  0  0
  8  9  1  0  0  0  0
  8  3  1  0  0  0  0
  9  2  1  6  0  0  0
  9 10  1  0  0  0  0
 10 20  1  0  0  0  0
 10 21  1  0  0  0  0
 11  9  1  0  0  0  0
 11 22  1  0  0  0  0
 12 11  2  0  0  0  0
 13 27  1  0  0  0  0
 13 26  1  0  0  0  0
 14 30  1  0  0  0  0
 14 28  1  0  0  0  0
 15 33  1  0  0  0  0
 15  1  1  0  0  0  0
 18  6  1  0  0  0  0
 19  7  1  0  0  0  0
 23 12  1  0  0  0  0
 24 12  1  0  0  0  0
 25 13  1  0  0  0  0
 29 14  1  0  0  0  0
 31 15  1  0  0  0  0
 32 15  1  0  0  0  0
M  END
