7,9
 OpenBabel05122313053D

 38 39  0  0  1  0  0  0  0  0999 V2000
   -0.7344    2.5599   -0.5989 O   0  0  0  0  0  0  0  0  0  0  0  0
    2.2031   -1.7886   -1.0976 O   0  0  0  0  0  0  0  0  0  0  0  0
    3.3753   -2.0510    0.8416 O   0  0  0  0  0  0  0  0  0  0  0  0
    0.0584    0.3448   -0.4875 C   0  0  1  0  0  3  0  0  0  0  0  0
   -0.9268    1.2753   -0.9679 C   0  0  0  0  0  0  0  0  0  0  0  0
   -2.0344    0.8321   -1.7473 C   0  0  0  0  0  0  0  0  0  0  0  0
   -2.1270   -0.5442   -2.1028 C   0  0  0  0  0  3  0  0  0  0  0  0
   -1.1254   -1.4663   -1.7109 C   0  0  0  0  0  3  0  0  0  0  0  0
   -0.0602   -1.0366   -0.8629 C   0  0  1  0  0  3  0  0  0  0  0  0
    1.2124    0.8323    0.3252 C   0  0  0  0  0  0  0  0  0  0  0  0
    2.3134    1.4372   -0.3373 C   0  0  0  0  0  0  0  0  0  0  0  0
    3.4162    1.8429    0.4378 C   0  0  0  0  0  0  0  0  0  0  0  0
    3.4435    1.6559    1.8280 C   0  0  0  0  0  0  0  0  0  0  0  0
    2.3508    1.0619    2.4725 C   0  0  0  0  0  0  0  0  0  0  0  0
    1.2391    0.6580    1.7203 C   0  0  0  0  0  0  0  0  0  0  0  0
   -1.7844    3.4985   -0.7972 C   0  0  0  0  0  0  0  0  0  0  0  0
    0.9723   -2.0297   -0.3882 C   0  0  0  0  0  0  0  0  0  0  0  0
    3.3492   -1.7945   -0.3433 C   0  0  0  0  0  0  0  0  0  0  0  0
    4.5388   -1.4182   -1.1899 C   0  0  0  0  0  0  0  0  0  0  0  0
    2.3061    1.6195   -1.8331 C   0  0  0  0  0  0  0  0  0  0  0  0
   -2.8272    1.5260   -2.0481 H   0  0  0  0  0  0  0  0  0  0  0  0
   -2.9933   -0.8907   -2.6839 H   0  0  0  0  0  0  0  0  0  0  0  0
   -1.2159   -2.5287   -1.9738 H   0  0  0  0  0  0  0  0  0  0  0  0
    4.2742    2.3156   -0.0670 H   0  0  0  0  0  0  0  0  0  0  0  0
    4.3231    1.9753    2.4071 H   0  0  0  0  0  0  0  0  0  0  0  0
    2.3600    0.9082    3.5615 H   0  0  0  0  0  0  0  0  0  0  0  0
    0.3712    0.1938    2.2106 H   0  0  0  0  0  0  0  0  0  0  0  0
   -2.0005    3.6529   -1.8766 H   0  0  0  0  0  0  0  0  0  0  0  0
   -2.7091    3.1799   -0.2710 H   0  0  0  0  0  0  0  0  0  0  0  0
   -1.4289    4.4494   -0.3613 H   0  0  0  0  0  0  0  0  0  0  0  0
    0.6356   -3.0639   -0.6043 H   0  0  0  0  0  0  0  0  0  0  0  0
    1.1682   -1.9470    0.6979 H   0  0  0  0  0  0  0  0  0  0  0  0
    4.6482   -0.3149   -1.1578 H   0  0  0  0  0  0  0  0  0  0  0  0
    5.4520   -1.8673   -0.7609 H   0  0  0  0  0  0  0  0  0  0  0  0
    4.4030   -1.7227   -2.2436 H   0  0  0  0  0  0  0  0  0  0  0  0
    3.2580    2.0571   -2.1910 H   0  0  0  0  0  0  0  0  0  0  0  0
    2.1519    0.6492   -2.3486 H   0  0  0  0  0  0  0  0  0  0  0  0
    1.4821    2.2917   -2.1500 H   0  0  0  0  0  0  0  0  0  0  0  0
  2 17  1  0  0  0  0
  2 18  1  0  0  0  0
  4 10  1  6  0  0  0
  5  1  1  0  0  0  0
  5  4  1  0  0  0  0
  6  5  2  0  0  0  0
  7  6  1  0  0  0  0
  7  8  1  0  0  0  0
  8  9  1  0  0  0  0
  9  4  1  0  0  0  0
  9 17  1  6  0  0  0
 10 15  1  0  0  0  0
 11 10  2  0  0  0  0
 11 12  1  0  0  0  0
 12 13  2  0  0  0  0
 13 25  1  0  0  0  0
 13 14  1  0  0  0  0
 14 26  1  0  0  0  0
 15 27  1  0  0  0  0
 15 14  2  0  0  0  0
 16  1  1  0  0  0  0
 16 30  1  0  0  0  0
 16 29  1  0  0  0  0
 17 32  1  0  0  0  0
 18  3  2  0  0  0  0
 19 33  1  0  0  0  0
 19 34  1  0  0  0  0
 19 18  1  0  0  0  0
 20 11  1  0  0  0  0
 21  6  1  0  0  0  0
 22  7  1  0  0  0  0
 23  8  1  0  0  0  0
 24 12  1  0  0  0  0
 28 16  1  0  0  0  0
 31 17  1  0  0  0  0
 35 19  1  0  0  0  0
 36 20  1  0  0  0  0
 37 20  1  0  0  0  0
 38 20  1  0  0  0  0
M  END
