12,14
 OpenBabel05122313053D

 36 37  0  0  1  0  0  0  0  0999 V2000
   -4.4698   -1.5347   -0.0913 O   0  0  0  0  0  0  0  0  0  0  0  0
    0.1525    2.3155    0.2916 O   0  0  0  0  0  0  0  0  0  0  0  0
   -1.4075    0.5600    0.0221 C   0  0  0  0  0  0  0  0  0  0  0  0
   -2.7432    0.1319   -0.1813 C   0  0  0  0  0  0  0  0  0  0  0  0
   -3.7659    1.0693   -0.4080 C   0  0  0  0  0  0  0  0  0  0  0  0
   -3.4653    2.4356   -0.4419 C   0  0  0  0  0  0  0  0  0  0  0  0
   -2.1564    2.8860   -0.2280 C   0  0  0  0  0  0  0  0  0  0  0  0
   -1.1294    1.9552    0.0244 C   0  0  0  0  0  0  0  0  0  0  0  0
   -0.3468   -0.4773    0.1905 C   0  0  1  0  0  3  0  0  0  0  0  0
    0.3186   -0.7175    1.4375 C   0  0  0  0  0  0  0  0  0  0  0  0
    1.2312   -1.8196    1.5410 C   0  0  0  0  0  0  0  0  0  0  0  0
    1.5130   -2.6466    0.4254 C   0  0  0  0  0  3  0  0  0  0  0  0
    0.8637   -2.4139   -0.8230 C   0  0  0  0  0  3  0  0  0  0  0  0
   -0.0237   -1.3162   -0.9333 C   0  0  0  0  0  3  0  0  0  0  0  0
   -3.0774   -1.3448   -0.1368 C   0  0  0  0  0  0  0  0  0  0  0  0
   -4.8339   -2.8923   -0.0923 C   0  0  0  0  0  0  0  0  0  0  0  0
    0.5554    3.6628    0.1137 C   0  0  0  0  0  0  0  0  0  0  0  0
    0.0252    0.1380    2.6397 C   0  0  0  0  0  0  0  0  0  0  0  0
   -4.7913    0.7041   -0.5478 H   0  0  0  0  0  0  0  0  0  0  0  0
   -4.2640    3.1695   -0.6294 H   0  0  0  0  0  0  0  0  0  0  0  0
   -1.9364    3.9612   -0.2462 H   0  0  0  0  0  0  0  0  0  0  0  0
    1.7604   -1.9839    2.4897 H   0  0  0  0  0  0  0  0  0  0  0  0
    2.2548   -3.4523    0.5181 H   0  0  0  0  0  0  0  0  0  0  0  0
    1.1083   -3.0228   -1.7033 H   0  0  0  0  0  0  0  0  0  0  0  0
   -0.4783   -1.0786   -1.9057 H   0  0  0  0  0  0  0  0  0  0  0  0
   -2.5781   -1.8177    0.7479 H   0  0  0  0  0  0  0  0  0  0  0  0
   -2.6438   -1.8662   -1.0297 H   0  0  0  0  0  0  0  0  0  0  0  0
   -5.9392   -2.9449   -0.0582 H   0  0  0  0  0  0  0  0  0  0  0  0
   -4.4790   -3.4229   -1.0103 H   0  0  0  0  0  0  0  0  0  0  0  0
   -4.4234   -3.4388    0.7923 H   0  0  0  0  0  0  0  0  0  0  0  0
    1.6367    3.6846    0.3406 H   0  0  0  0  0  0  0  0  0  0  0  0
    0.3890    3.9983   -0.9330 H   0  0  0  0  0  0  0  0  0  0  0  0
    0.0242    4.3496    0.8091 H   0  0  0  0  0  0  0  0  0  0  0  0
    0.7208   -0.0886    3.4693 H   0  0  0  0  0  0  0  0  0  0  0  0
    0.1128    1.2114    2.3904 H   0  0  0  0  0  0  0  0  0  0  0  0
   -1.0119   -0.0419    2.9914 H   0  0  0  0  0  0  0  0  0  0  0  0
  3  8  1  0  0  0  0
  4 15  1  0  0  0  0
  4  3  2  0  0  0  0
  5  4  1  0  0  0  0
  6  5  2  0  0  0  0
  6  7  1  0  0  0  0
  7  8  2  0  0  0  0
  8  2  1  0  0  0  0
  9  3  1  1  0  0  0
  9 10  1  0  0  0  0
 10 11  2  0  0  0  0
 10 18  1  0  0  0  0
 11 22  1  0  0  0  0
 12 23  1  0  0  0  0
 12 11  1  0  0  0  0
 13 12  1  0  0  0  0
 14 13  1  0  0  0  0
 14  9  1  0  0  0  0
 15  1  1  0  0  0  0
 15 26  1  0  0  0  0
 16  1  1  0  0  0  0
 16 28  1  0  0  0  0
 16 30  1  0  0  0  0
 17  2  1  0  0  0  0
 17 31  1  0  0  0  0
 17 33  1  0  0  0  0
 18 36  1  0  0  0  0
 18 34  1  0  0  0  0
 19  5  1  0  0  0  0
 20  6  1  0  0  0  0
 21  7  1  0  0  0  0
 24 13  1  0  0  0  0
 25 14  1  0  0  0  0
 27 15  1  0  0  0  0
 29 16  1  0  0  0  0
 32 17  1  0  0  0  0
 35 18  1  0  0  0  0
M  END
