1,16
 OpenBabel05122313053D

 27 28  0  0  1  0  0  0  0  0999 V2000
    1.9625    1.5534   -0.1637 C   0  0  1  0  0  3  0  0  0  0  0  0
    1.5091    2.9704    0.0640 C   0  0  0  0  0  0  0  0  0  0  0  0
    2.3887    3.6503    0.0477 H   0  0  0  0  0  0  0  0  0  0  0  0
    1.0051    3.0867    1.0426 H   0  0  0  0  0  0  0  0  0  0  0  0
    0.7983    3.3112   -0.7119 H   0  0  0  0  0  0  0  0  0  0  0  0
    2.7506    1.2156   -1.4432 C   0  0  2  0  0  0  0  0  0  0  0  0
    2.2895    1.7065   -2.7964 C   0  0  0  0  0  0  0  0  0  0  0  0
    1.3523    1.1914   -3.0809 H   0  0  0  0  0  0  0  0  0  0  0  0
    3.0532    1.4873   -3.5683 H   0  0  0  0  0  0  0  0  0  0  0  0
    2.1158    2.7991   -2.7800 H   0  0  0  0  0  0  0  0  0  0  0  0
    2.8366   -0.2989   -1.2086 C   0  0  1  0  0  3  0  0  0  0  0  0
    3.1078   -1.3053   -2.2771 C   0  0  0  0  0  0  0  0  0  0  0  0
    4.1481   -1.1747   -2.6477 H   0  0  0  0  0  0  0  0  0  0  0  0
    2.4237   -1.1752   -3.1383 H   0  0  0  0  0  0  0  0  0  0  0  0
    2.9869   -2.3385   -1.9013 H   0  0  0  0  0  0  0  0  0  0  0  0
    3.0631   -0.4403    0.1844 C   0  0  1  0  0  3  0  0  0  0  0  0
    3.6491   -1.6157    0.8942 C   0  0  0  0  0  0  0  0  0  0  0  0
    3.4108   -2.5645    0.3786 H   0  0  0  0  0  0  0  0  0  0  0  0
    3.2703   -1.6922    1.9319 H   0  0  0  0  0  0  0  0  0  0  0  0
    4.7537   -1.4972    0.9422 H   0  0  0  0  0  0  0  0  0  0  0  0
    3.0940    0.9957    0.7232 C   0  0  2  0  0  0  0  0  0  0  0  0
    3.0843    1.1978    2.2211 C   0  0  0  0  0  0  0  0  0  0  0  0
    2.2601    0.6124    2.6714 H   0  0  0  0  0  0  0  0  0  0  0  0
    2.9513    2.2668    2.4733 H   0  0  0  0  0  0  0  0  0  0  0  0
    4.0388    0.8522    2.6644 H   0  0  0  0  0  0  0  0  0  0  0  0
    4.0856    1.7667   -1.2315 O   0  0  0  0  0  0  0  0  0  0  0  0
    4.3131    1.6265    0.2256 O   0  0  0  0  0  0  0  0  0  0  0  0
  1  2  1  1  0  0  0
  1 21  1  0  0  0  0
  2  4  1  0  0  0  0
  3  2  1  0  0  0  0
  5  2  1  0  0  0  0
  6  7  1  6  0  0  0
  6 26  1  0  0  0  0
  6 11  1  0  0  0  0
  6  1  1  0  0  0  0
  7 10  1  0  0  0  0
  8  7  1  0  0  0  0
  9  7  1  0  0  0  0
 11 12  1  6  0  0  0
 11 16  1  0  0  0  0
 12 15  1  0  0  0  0
 13 12  1  0  0  0  0
 14 12  1  0  0  0  0
 16 21  1  0  0  0  0
 16 17  1  6  0  0  0
 17 20  1  0  0  0  0
 17 19  1  0  0  0  0
 18 17  1  0  0  0  0
 21 22  1  1  0  0  0
 22 24  1  0  0  0  0
 22 25  1  0  0  0  0
 22 23  1  0  0  0  0
 26 27  1  0  0  0  0
 27 21  1  0  0  0  0
M  END
