5,20
 OpenBabel05122313053D

 32 34  0  0  0  0  0  0  0  0999 V2000
    7.1099   -0.1834   -0.5260 Br  0  0  0  0  0  0  0  0  0  0  0  0
   -6.8556   -0.3189   -0.6534 Br  0  0  0  0  0  0  0  0  0  0  0  0
    4.1968    0.9820   -0.3435 S   0  0  0  0  0  0  0  0  0  0  0  0
   -3.7172   -0.1363   -0.7956 S   0  0  0  0  0  0  0  0  0  0  0  0
    1.4579    0.5265    0.4033 C   0  0  0  0  0  3  0  0  0  0  0  0
    0.9806    1.8273    0.2568 C   0  0  0  0  0  0  0  0  0  0  0  0
    1.9226    3.0127    0.1058 C   0  0  0  0  0  0  0  0  0  0  0  0
    2.3045    3.0121   -0.9435 H   0  0  0  0  0  0  0  0  0  0  0  0
    2.8202    2.8591    0.7409 H   0  0  0  0  0  0  0  0  0  0  0  0
    1.3083    4.3868    0.3886 C   0  0  0  0  0  0  0  0  0  0  0  0
    1.1476    4.5086    1.4832 H   0  0  0  0  0  0  0  0  0  0  0  0
    2.0195    5.1826    0.0849 H   0  0  0  0  0  0  0  0  0  0  0  0
   -0.0297    4.5255   -0.3309 C   0  0  0  0  0  0  0  0  0  0  0  0
    0.1185    4.3840   -1.4250 H   0  0  0  0  0  0  0  0  0  0  0  0
   -0.4554    5.5418   -0.1979 H   0  0  0  0  0  0  0  0  0  0  0  0
   -1.0069    3.4762    0.2029 C   0  0  0  0  0  0  0  0  0  0  0  0
   -1.2403    3.7384    1.2621 H   0  0  0  0  0  0  0  0  0  0  0  0
   -1.9769    3.5192   -0.3330 H   0  0  0  0  0  0  0  0  0  0  0  0
   -0.4744    2.0510    0.1677 C   0  0  0  0  0  0  0  0  0  0  0  0
   -1.3270    0.9549    0.0860 C   0  0  0  0  0  3  0  0  0  0  0  0
    2.8312    0.0958    0.4008 C   0  0  0  0  0  0  0  0  0  0  0  0
    3.3183   -1.1393    0.8621 C   0  0  0  0  0  0  0  0  0  0  0  0
    2.6663   -1.8591    1.3742 H   0  0  0  0  0  0  0  0  0  0  0  0
    4.6998   -1.3770    0.6346 C   0  0  0  0  0  0  0  0  0  0  0  0
    5.2403   -2.2816    0.9418 H   0  0  0  0  0  0  0  0  0  0  0  0
    5.3029   -0.3182   -0.0238 C   0  0  0  0  0  0  0  0  0  0  0  0
   -2.7683    1.0443    0.1347 C   0  0  0  0  0  0  0  0  0  0  0  0
   -3.6458    1.8226    0.8985 C   0  0  0  0  0  0  0  0  0  0  0  0
   -3.2900    2.5995    1.5874 H   0  0  0  0  0  0  0  0  0  0  0  0
   -5.0224    1.4853    0.7552 C   0  0  0  0  0  0  0  0  0  0  0  0
   -5.8460    1.9884    1.2790 H   0  0  0  0  0  0  0  0  0  0  0  0
   -5.2186    0.4402   -0.1307 C   0  0  0  0  0  0  0  0  0  0  0  0
  1 26  1  0  0  0  0
  2 32  1  0  0  0  0
  3 26  1  0  0  0  0
  3 21  1  0  0  0  0
  4 32  1  0  0  0  0
  4 27  1  0  0  0  0
  6  5  2  0  0  0  0
  7  6  1  0  0  0  0
  7 10  1  0  0  0  0
  7  9  1  0  0  0  0
  8  7  1  0  0  0  0
 10 11  1  0  0  0  0
 12 10  1  0  0  0  0
 13 15  1  0  0  0  0
 13 16  1  0  0  0  0
 13 10  1  0  0  0  0
 14 13  1  0  0  0  0
 16 17  1  0  0  0  0
 18 16  1  0  0  0  0
 19 16  1  0  0  0  0
 19  6  1  0  0  0  0
 20 27  1  0  0  0  0
 20 19  2  0  0  0  0
 21  5  1  0  0  0  0
 21 22  2  0  0  0  0
 22 23  1  0  0  0  0
 24 22  1  0  0  0  0
 24 25  1  0  0  0  0
 26 24  2  0  0  0  0
 27 28  2  0  0  0  0
 28 29  1  0  0  0  0
 30 28  1  0  0  0  0
 30 31  1  0  0  0  0
 32 30  2  0  0  0  0
M  END
