9,19
 OpenBabel05122313053D

 46 49  0  0  1  0  0  0  0  0999 V2000
   -3.3625    0.4569    0.4978 C   0  0  0  0  0  3  0  0  0  0  0  0
   -3.3601    1.0181    1.4396 H   0  0  0  0  0  0  0  0  0  0  0  0
   -3.8250   -0.8876    0.3451 C   0  0  0  0  0  0  0  0  0  0  0  0
   -4.2348   -1.5164    1.1434 H   0  0  0  0  0  0  0  0  0  0  0  0
   -3.6091   -1.2727   -0.9981 C   0  0  0  0  0  0  0  0  0  0  0  0
   -3.8238   -2.2544   -1.4351 H   0  0  0  0  0  0  0  0  0  0  0  0
   -3.0219   -0.1641   -1.6875 C   0  0  0  0  0  3  0  0  0  0  0  0
   -2.7120   -0.1705   -2.7391 H   0  0  0  0  0  0  0  0  0  0  0  0
   -2.8870    0.9277   -0.7720 C   0  0  2  0  0  3  0  0  0  0  0  0
   -1.9669    2.1402   -0.9717 C   0  0  0  0  0  0  0  0  0  0  0  0
   -2.4247    3.3587   -0.1556 C   0  0  0  0  0  0  0  0  0  0  0  0
   -3.3387    3.7903   -0.6098 H   0  0  0  0  0  0  0  0  0  0  0  0
   -2.6713    3.1098    0.8914 H   0  0  0  0  0  0  0  0  0  0  0  0
   -1.6371    4.1379   -0.1460 H   0  0  0  0  0  0  0  0  0  0  0  0
   -1.8890    2.5545   -2.4497 C   0  0  0  0  0  0  0  0  0  0  0  0
   -2.8810    2.9041   -2.7981 H   0  0  0  0  0  0  0  0  0  0  0  0
   -1.1605    3.3798   -2.5758 H   0  0  0  0  0  0  0  0  0  0  0  0
   -1.5765    1.7283   -3.1148 H   0  0  0  0  0  0  0  0  0  0  0  0
   -0.6337    1.5313   -0.4941 C   0  0  1  0  0  3  0  0  0  0  0  0
   -0.1715    1.3200    0.8657 C   0  0  0  0  0  0  0  0  0  0  0  0
   -0.5735    1.8189    2.1464 C   0  0  0  0  0  0  0  0  0  0  0  0
   -1.3976    2.5365    2.2383 H   0  0  0  0  0  0  0  0  0  0  0  0
    0.1163    1.4185    3.2797 C   0  0  0  0  0  0  0  0  0  0  0  0
   -0.1891    1.8138    4.2601 H   0  0  0  0  0  0  0  0  0  0  0  0
    1.2179    0.5150    3.2100 C   0  0  0  0  0  0  0  0  0  0  0  0
    1.7396    0.2317    4.1360 H   0  0  0  0  0  0  0  0  0  0  0  0
    1.6378    0.0006    1.9958 C   0  0  0  0  0  0  0  0  0  0  0  0
    2.4930   -0.6870    1.9298 H   0  0  0  0  0  0  0  0  0  0  0  0
    0.9457    0.3800    0.8120 C   0  0  0  0  0  0  0  0  0  0  0  0
    1.1521   -0.0047   -0.5550 C   0  0  0  0  0  0  0  0  0  0  0  0
    0.2094    0.7243   -1.3312 C   0  0  0  0  0  0  0  0  0  0  0  0
    0.1217    0.6316   -2.4210 H   0  0  0  0  0  0  0  0  0  0  0  0
    2.2390   -0.9099   -1.0617 C   0  0  0  0  0  0  0  0  0  0  0  0
    2.0860   -1.0721   -2.1496 H   0  0  0  0  0  0  0  0  0  0  0  0
    2.1417   -1.9147   -0.6017 H   0  0  0  0  0  0  0  0  0  0  0  0
    3.6392   -0.3740   -0.8099 C   0  0  0  0  0  0  0  0  0  0  0  0
    3.9445    0.9868   -1.0140 C   0  0  0  0  0  0  0  0  0  0  0  0
    3.1487    1.6748   -1.3406 H   0  0  0  0  0  0  0  0  0  0  0  0
    5.2419    1.4718   -0.7960 C   0  0  0  0  0  0  0  0  0  0  0  0
    5.4612    2.5382   -0.9599 H   0  0  0  0  0  0  0  0  0  0  0  0
    6.2581    0.6037   -0.3645 C   0  0  0  0  0  0  0  0  0  0  0  0
    7.2754    0.9850   -0.1889 H   0  0  0  0  0  0  0  0  0  0  0  0
    5.9650   -0.7521   -0.1527 C   0  0  0  0  0  0  0  0  0  0  0  0
    6.7523   -1.4404    0.1912 H   0  0  0  0  0  0  0  0  0  0  0  0
    4.6650   -1.2341   -0.3722 C   0  0  0  0  0  0  0  0  0  0  0  0
    4.4379   -2.2986   -0.2003 H   0  0  0  0  0  0  0  0  0  0  0  0
  1  2  1  0  0  0  0
  3  1  1  0  0  0  0
  3  4  1  0  0  0  0
  5  3  2  0  0  0  0
  6  5  1  0  0  0  0
  7  5  1  0  0  0  0
  7  9  1  0  0  0  0
  8  7  1  0  0  0  0
  9 10  1  1  0  0  0
  9  1  1  0  0  0  0
 10 11  1  0  0  0  0
 11 14  1  0  0  0  0
 11 13  1  0  0  0  0
 12 11  1  0  0  0  0
 15 10  1  0  0  0  0
 16 15  1  0  0  0  0
 17 15  1  0  0  0  0
 18 15  1  0  0  0  0
 19 10  1  1  0  0  0
 19 20  1  0  0  0  0
 20 21  1  0  0  0  0
 21 22  1  0  0  0  0
 21 23  2  0  0  0  0
 23 24  1  0  0  0  0
 25 23  1  0  0  0  0
 25 26  1  0  0  0  0
 27 25  2  0  0  0  0
 28 27  1  0  0  0  0
 29 20  2  0  0  0  0
 29 27  1  0  0  0  0
 30 29  1  0  0  0  0
 31 30  2  0  0  0  0
 31 19  1  0  0  0  0
 32 31  1  0  0  0  0
 33 36  1  0  0  0  0
 33 35  1  0  0  0  0
 33 30  1  0  0  0  0
 34 33  1  0  0  0  0
 36 45  1  0  0  0  0
 37 36  2  0  0  0  0
 37 39  1  0  0  0  0
 38 37  1  0  0  0  0
 39 41  2  0  0  0  0
 40 39  1  0  0  0  0
 41 42  1  0  0  0  0
 41 43  1  0  0  0  0
 43 44  1  0  0  0  0
 45 46  1  0  0  0  0
 45 43  2  0  0  0  0
M  END
