9,10
 OpenBabel05122313053D

 22 22  0  0  0  0  0  0  0  0999 V2000
   -2.7962   -0.6101   -0.3334 N   0  0  0  0  0  0  0  0  0  0  0  0
   -1.8119   -1.9267    1.2354 O   0  0  0  0  0  0  0  0  0  0  0  0
   -2.7699    0.4791   -1.2965 C   0  0  0  0  0  0  0  0  0  0  0  0
   -2.5002    1.8408   -0.6374 C   0  0  0  0  0  0  0  0  0  0  0  0
   -1.1709    1.8702    0.0641 C   0  0  0  0  0  0  0  0  0  0  0  0
    0.0773    2.3182   -0.4912 C   0  0  0  0  0  0  0  0  0  0  0  0
    1.0683    2.2392    0.5418 C   0  0  0  0  0  0  0  0  0  0  0  0
    0.4635    1.7635    1.7427 C   0  0  0  0  0  0  0  0  0  0  0  0
   -0.9192    1.5030    1.4533 C   0  0  0  0  0  3  0  0  0  0  0  0
   -1.7042   -1.0198    0.4166 C   0  0  0  0  0  3  0  0  0  0  0  0
   -4.0946   -1.2226   -0.0659 C   0  0  0  0  0  0  0  0  0  0  0  0
   -2.0078    0.2971   -2.0823 H   0  0  0  0  0  0  0  0  0  0  0  0
   -3.7518    0.4965   -1.8088 H   0  0  0  0  0  0  0  0  0  0  0  0
   -3.3071    2.0637    0.0903 H   0  0  0  0  0  0  0  0  0  0  0  0
   -2.5268    2.6345   -1.4118 H   0  0  0  0  0  0  0  0  0  0  0  0
    0.2410    2.6703   -1.5162 H   0  0  0  0  0  0  0  0  0  0  0  0
    2.1350    2.4552    0.4127 H   0  0  0  0  0  0  0  0  0  0  0  0
    0.9711    1.5966    2.6995 H   0  0  0  0  0  0  0  0  0  0  0  0
   -1.6757    1.1663    2.1719 H   0  0  0  0  0  0  0  0  0  0  0  0
   -3.9498   -1.9992    0.7056 H   0  0  0  0  0  0  0  0  0  0  0  0
   -4.8280   -0.4719    0.3021 H   0  0  0  0  0  0  0  0  0  0  0  0
   -4.5048   -1.6921   -0.9850 H   0  0  0  0  0  0  0  0  0  0  0  0
  1 11  1  0  0  0  0
  1 10  1  0  0  0  0
  3  4  1  0  0  0  0
  3  1  1  0  0  0  0
  4  5  1  0  0  0  0
  4 14  1  0  0  0  0
  5  9  1  0  0  0  0
  6  5  2  0  0  0  0
  6  7  1  0  0  0  0
  7  8  2  0  0  0  0
  8 18  1  0  0  0  0
  9  8  1  0  0  0  0
  9 19  1  0  0  0  0
 10  2  2  0  0  0  0
 11 21  1  0  0  0  0
 11 20  1  0  0  0  0
 12  3  1  0  0  0  0
 13  3  1  0  0  0  0
 15  4  1  0  0  0  0
 16  6  1  0  0  0  0
 17  7  1  0  0  0  0
 22 11  1  0  0  0  0
M  END
