7,10
 OpenBabel05122313053D

 38 40  0  0  0  0  0  0  0  0999 V2000
    0.4519    1.2190    2.5998 C   0  0  0  0  0  0  0  0  0  0  0  0
   -0.0784    2.1795    2.5905 H   0  0  0  0  0  0  0  0  0  0  0  0
    1.5125    0.8765    3.4746 C   0  0  0  0  0  0  0  0  0  0  0  0
    1.9097    1.5165    4.2741 H   0  0  0  0  0  0  0  0  0  0  0  0
    1.9954   -0.3919    3.1125 C   0  0  0  0  0  0  0  0  0  0  0  0
    2.8006   -0.9537    3.6048 H   0  0  0  0  0  0  0  0  0  0  0  0
    1.2085   -0.8777    2.0091 C   0  0  0  0  0  3  0  0  0  0  0  0
    1.0995   -1.9499    1.7987 H   0  0  0  0  0  0  0  0  0  0  0  0
    0.2007    0.1420    1.6937 C   0  0  0  0  0  0  0  0  0  0  0  0
   -0.6434    0.1017    0.4712 C   0  0  0  0  0  3  0  0  0  0  0  0
   -1.4102    1.3579    0.1171 C   0  0  0  0  0  0  0  0  0  0  0  0
   -1.4381    1.8817   -1.1916 C   0  0  0  0  0  0  0  0  0  0  0  0
   -0.8345    1.3876   -1.9684 H   0  0  0  0  0  0  0  0  0  0  0  0
   -2.2136    3.0029   -1.5220 C   0  0  0  0  0  0  0  0  0  0  0  0
   -2.2069    3.3812   -2.5572 H   0  0  0  0  0  0  0  0  0  0  0  0
   -2.9992    3.6561   -0.5531 C   0  0  0  0  0  0  0  0  0  0  0  0
   -2.9976    3.1200    0.7514 C   0  0  0  0  0  0  0  0  0  0  0  0
   -3.6227    3.5902    1.5282 H   0  0  0  0  0  0  0  0  0  0  0  0
   -2.2324    1.9925    1.0760 C   0  0  0  0  0  0  0  0  0  0  0  0
   -2.2831    1.5760    2.0930 H   0  0  0  0  0  0  0  0  0  0  0  0
   -3.8023    4.8878   -0.8882 C   0  0  0  0  0  0  0  0  0  0  0  0
   -4.7970    4.8714   -0.3984 H   0  0  0  0  0  0  0  0  0  0  0  0
   -3.9584    4.9901   -1.9801 H   0  0  0  0  0  0  0  0  0  0  0  0
   -3.2884    5.8101   -0.5406 H   0  0  0  0  0  0  0  0  0  0  0  0
   -1.5346   -1.1088    0.3154 C   0  0  0  0  0  0  0  0  0  0  0  0
   -2.3153   -1.3081   -0.8511 C   0  0  0  0  0  0  0  0  0  0  0  0
   -2.2790   -0.5587   -1.6559 H   0  0  0  0  0  0  0  0  0  0  0  0
   -3.1436   -2.4240   -1.0023 C   0  0  0  0  0  0  0  0  0  0  0  0
   -3.7279   -2.5375   -1.9302 H   0  0  0  0  0  0  0  0  0  0  0  0
   -3.2542   -3.4038    0.0085 C   0  0  0  0  0  0  0  0  0  0  0  0
   -2.5183   -3.1884    1.1884 C   0  0  0  0  0  0  0  0  0  0  0  0
   -2.6070   -3.9092    2.0177 H   0  0  0  0  0  0  0  0  0  0  0  0
   -1.6891   -2.0670    1.3445 C   0  0  0  0  0  0  0  0  0  0  0  0
   -1.1580   -1.9188    2.2951 H   0  0  0  0  0  0  0  0  0  0  0  0
   -4.1299   -4.6173   -0.1744 C   0  0  0  0  0  0  0  0  0  0  0  0
   -4.2365   -5.1889    0.7682 H   0  0  0  0  0  0  0  0  0  0  0  0
   -3.7118   -5.3085   -0.9377 H   0  0  0  0  0  0  0  0  0  0  0  0
   -5.1467   -4.3383   -0.5208 H   0  0  0  0  0  0  0  0  0  0  0  0
  1  3  1  0  0  0  0
  2  1  1  0  0  0  0
  3  4  1  0  0  0  0
  5  3  2  0  0  0  0
  5  6  1  0  0  0  0
  7  5  1  0  0  0  0
  8  7  1  0  0  0  0
  9  7  1  0  0  0  0
  9  1  2  0  0  0  0
 10  9  1  0  0  0  0
 11 10  1  0  0  0  0
 11 19  1  0  0  0  0
 12 11  2  0  0  0  0
 13 12  1  0  0  0  0
 14 12  1  0  0  0  0
 14 16  2  0  0  0  0
 15 14  1  0  0  0  0
 16 17  1  0  0  0  0
 17 19  2  0  0  0  0
 17 18  1  0  0  0  0
 19 20  1  0  0  0  0
 21 16  1  0  0  0  0
 21 24  1  0  0  0  0
 21 22  1  0  0  0  0
 23 21  1  0  0  0  0
 25 10  1  0  0  0  0
 25 33  1  0  0  0  0
 26 25  2  0  0  0  0
 27 26  1  0  0  0  0
 28 26  1  0  0  0  0
 28 30  2  0  0  0  0
 29 28  1  0  0  0  0
 30 31  1  0  0  0  0
 31 33  2  0  0  0  0
 31 32  1  0  0  0  0
 33 34  1  0  0  0  0
 35 30  1  0  0  0  0
 35 36  1  0  0  0  0
 37 35  1  0  0  0  0
 38 35  1  0  0  0  0
M  END
