2,25
 OpenBabel05122313053D

 45 48  0  0  1  0  0  0  0  0999 V2000
   -0.9067    1.7714   -0.7650 C   0  0  1  0  0  3  0  0  0  0  0  0
   -0.4827    1.0521   -1.9312 C   0  0  0  0  0  3  0  0  0  0  0  0
   -1.3371   -0.0622   -2.1522 C   0  0  0  0  0  3  0  0  0  0  0  0
   -2.3472   -0.0409   -1.1408 C   0  0  0  0  0  0  0  0  0  0  0  0
   -3.4453   -0.9315   -0.9120 C   0  0  0  0  0  0  0  0  0  0  0  0
   -4.2677   -0.6382    0.1646 C   0  0  0  0  0  0  0  0  0  0  0  0
   -4.0512    0.4982    0.9961 C   0  0  0  0  0  0  0  0  0  0  0  0
   -2.9920    1.3817    0.8230 C   0  0  0  0  0  0  0  0  0  0  0  0
   -2.0897    1.1011   -0.2657 C   0  0  0  0  0  0  0  0  0  0  0  0
    0.0000    2.7239    0.0001 C   0  0  0  0  0  0  0  0  0  0  0  0
   -3.6293   -2.1355   -1.7863 C   0  0  0  0  0  0  0  0  0  0  0  0
   -2.8807    2.6174    1.6765 C   0  0  0  0  0  0  0  0  0  0  0  0
    0.4078    1.2857   -2.5286 H   0  0  0  0  0  0  0  0  0  0  0  0
   -1.2393   -0.7970   -2.9578 H   0  0  0  0  0  0  0  0  0  0  0  0
   -5.1221   -1.2977    0.3821 H   0  0  0  0  0  0  0  0  0  0  0  0
   -4.7685    0.6955    1.8084 H   0  0  0  0  0  0  0  0  0  0  0  0
   -0.5641    3.3765    0.6877 H   0  0  0  0  0  0  0  0  0  0  0  0
   -4.5445   -2.6969   -1.5193 H   0  0  0  0  0  0  0  0  0  0  0  0
   -2.7619   -2.8228   -1.6798 H   0  0  0  0  0  0  0  0  0  0  0  0
   -3.6905   -1.8585   -2.8597 H   0  0  0  0  0  0  0  0  0  0  0  0
   -3.7470    2.6968    2.3606 H   0  0  0  0  0  0  0  0  0  0  0  0
   -2.8557    3.5372    1.0550 H   0  0  0  0  0  0  0  0  0  0  0  0
   -1.9658    2.6342    2.3047 H   0  0  0  0  0  0  0  0  0  0  0  0
    0.9068    1.7714    0.7650 C   0  0  1  0  0  3  0  0  0  0  0  0
    0.4829    1.0521    1.9313 C   0  0  0  0  0  3  0  0  0  0  0  0
    1.3374   -0.0622    2.1522 C   0  0  0  0  0  3  0  0  0  0  0  0
   -0.4074    1.2857    2.5289 H   0  0  0  0  0  0  0  0  0  0  0  0
    2.3474   -0.0409    1.1406 C   0  0  0  0  0  0  0  0  0  0  0  0
    2.0897    1.1011    0.2655 C   0  0  0  0  0  0  0  0  0  0  0  0
    3.4455   -0.9315    0.9117 C   0  0  0  0  0  0  0  0  0  0  0  0
    4.2677   -0.6382   -0.1651 C   0  0  0  0  0  0  0  0  0  0  0  0
    4.0511    0.4982   -0.9965 C   0  0  0  0  0  0  0  0  0  0  0  0
    2.9919    1.3818   -0.8232 C   0  0  0  0  0  0  0  0  0  0  0  0
    2.8807    2.6176   -1.6766 C   0  0  0  0  0  0  0  0  0  0  0  0
    3.7468    2.6969   -2.3608 H   0  0  0  0  0  0  0  0  0  0  0  0
    2.8558    3.5373   -1.0550 H   0  0  0  0  0  0  0  0  0  0  0  0
    1.9656    2.6346   -2.3047 H   0  0  0  0  0  0  0  0  0  0  0  0
    4.7683    0.6956   -1.8088 H   0  0  0  0  0  0  0  0  0  0  0  0
    5.1220   -1.2977   -0.3827 H   0  0  0  0  0  0  0  0  0  0  0  0
    3.6295   -2.1355    1.7859 C   0  0  0  0  0  0  0  0  0  0  0  0
    4.5447   -2.6969    1.5189 H   0  0  0  0  0  0  0  0  0  0  0  0
    2.7621   -2.8228    1.6795 H   0  0  0  0  0  0  0  0  0  0  0  0
    3.6908   -1.8586    2.8594 H   0  0  0  0  0  0  0  0  0  0  0  0
    0.5641    3.3767   -0.6875 H   0  0  0  0  0  0  0  0  0  0  0  0
    1.2397   -0.7970    2.9578 H   0  0  0  0  0  0  0  0  0  0  0  0
  1  9  1  0  0  0  0
  1 10  1  1  0  0  0
  2  1  1  0  0  0  0
  3  2  1  0  0  0  0
  3  4  1  0  0  0  0
  4  5  2  0  0  0  0
  4  9  1  0  0  0  0
  5  6  1  0  0  0  0
  6 15  1  0  0  0  0
  6  7  2  0  0  0  0
  7 16  1  0  0  0  0
  8  7  1  0  0  0  0
  8 12  1  0  0  0  0
  9  8  2  0  0  0  0
 10 17  1  0  0  0  0
 11 19  1  0  0  0  0
 11 18  1  0  0  0  0
 11  5  1  0  0  0  0
 12 23  1  0  0  0  0
 12 21  1  0  0  0  0
 13  2  1  0  0  0  0
 14  3  1  0  0  0  0
 20 11  1  0  0  0  0
 22 12  1  0  0  0  0
 24 10  1  6  0  0  0
 24 25  1  0  0  0  0
 25 26  1  0  0  0  0
 25 27  1  0  0  0  0
 26 45  1  0  0  0  0
 28 26  1  0  0  0  0
 29 24  1  0  0  0  0
 29 28  2  0  0  0  0
 30 28  1  0  0  0  0
 30 40  1  0  0  0  0
 31 30  2  0  0  0  0
 32 33  2  0  0  0  0
 32 31  1  0  0  0  0
 33 29  1  0  0  0  0
 34 36  1  0  0  0  0
 34 33  1  0  0  0  0
 35 34  1  0  0  0  0
 37 34  1  0  0  0  0
 38 32  1  0  0  0  0
 39 31  1  0  0  0  0
 40 43  1  0  0  0  0
 41 40  1  0  0  0  0
 42 40  1  0  0  0  0
 44 10  1  0  0  0  0
M  END
