2,4
 OpenBabel05122313053D

 39 40  0  0  1  0  0  0  0  0999 V2000
    2.1475   -0.7058    0.7517 C   0  0  0  0  0  3  0  0  0  0  0  0
    1.1295   -1.1629   -0.1569 C   0  0  0  0  0  3  0  0  0  0  0  0
   -0.2426   -0.8928    0.1729 C   0  0  1  0  0  3  0  0  0  0  0  0
   -0.4231   -0.0093    1.3069 C   0  0  0  0  0  3  0  0  0  0  0  0
   -1.2861   -1.2927   -0.6463 N   0  0  0  0  0  0  0  0  0  0  0  0
   -0.9977   -1.6475   -2.0274 C   0  0  0  0  0  0  0  0  0  0  0  0
    4.1139   -1.1241   -0.8109 C   0  0  0  0  0  0  0  0  0  0  0  0
    3.5918   -0.8224    0.4688 C   0  0  0  0  0  0  0  0  0  0  0  0
    4.5105   -0.6279    1.5271 C   0  0  0  0  0  0  0  0  0  0  0  0
    5.8912   -0.7312    1.3199 C   0  0  0  0  0  0  0  0  0  0  0  0
    6.3919   -1.0365    0.0438 C   0  0  0  0  0  0  0  0  0  0  0  0
    5.4948   -1.2327   -1.0186 C   0  0  0  0  0  0  0  0  0  0  0  0
   -2.6350   -1.0086   -0.2775 C   0  0  0  0  0  0  0  0  0  0  0  0
   -3.4452   -0.1673   -1.0592 C   0  0  0  0  0  0  0  0  0  0  0  0
   -4.7796    0.0866   -0.7032 C   0  0  0  0  0  0  0  0  0  0  0  0
   -5.3167   -0.4891    0.4658 C   0  0  0  0  0  0  0  0  0  0  0  0
   -4.5019   -1.3284    1.2595 C   0  0  0  0  0  0  0  0  0  0  0  0
   -3.1852   -1.5921    0.8858 C   0  0  0  0  0  0  0  0  0  0  0  0
   -6.5899   -0.3021    0.9066 O   0  0  0  0  0  0  0  0  0  0  0  0
   -7.4442    0.5382    0.1544 C   0  0  0  0  0  0  0  0  0  0  0  0
    0.0791   -0.2622    2.2537 H   0  0  0  0  0  0  0  0  0  0  0  0
   -1.4221    0.4286    1.4439 H   0  0  0  0  0  0  0  0  0  0  0  0
    1.3934   -1.6854   -1.0856 H   0  0  0  0  0  0  0  0  0  0  0  0
    1.9201   -0.7357    1.8295 H   0  0  0  0  0  0  0  0  0  0  0  0
   -1.9434   -1.8816   -2.5461 H   0  0  0  0  0  0  0  0  0  0  0  0
   -0.4811   -0.8177   -2.5633 H   0  0  0  0  0  0  0  0  0  0  0  0
   -0.3516   -2.5488   -2.0821 H   0  0  0  0  0  0  0  0  0  0  0  0
   -7.6007    0.1536   -0.8788 H   0  0  0  0  0  0  0  0  0  0  0  0
   -8.4153    0.5522    0.6828 H   0  0  0  0  0  0  0  0  0  0  0  0
   -7.0525    1.5784    0.0906 H   0  0  0  0  0  0  0  0  0  0  0  0
    3.4340   -1.2666   -1.6639 H   0  0  0  0  0  0  0  0  0  0  0  0
    4.1226   -0.3855    2.5293 H   0  0  0  0  0  0  0  0  0  0  0  0
    6.5830   -0.5725    2.1613 H   0  0  0  0  0  0  0  0  0  0  0  0
    7.4765   -1.1181   -0.1232 H   0  0  0  0  0  0  0  0  0  0  0  0
    5.8752   -1.4684   -2.0242 H   0  0  0  0  0  0  0  0  0  0  0  0
   -3.0256    0.3208   -1.9506 H   0  0  0  0  0  0  0  0  0  0  0  0
   -5.3827    0.7499   -1.3370 H   0  0  0  0  0  0  0  0  0  0  0  0
   -4.9397   -1.7768    2.1629 H   0  0  0  0  0  0  0  0  0  0  0  0
   -2.5595   -2.2604    1.4953 H   0  0  0  0  0  0  0  0  0  0  0  0
  1 24  1  0  0  0  0
  2  1  1  0  0  0  0
  3  2  1  6  0  0  0
  3  4  1  0  0  0  0
  4 22  1  0  0  0  0
  4 21  1  0  0  0  0
  5 13  1  0  0  0  0
  5  3  1  0  0  0  0
  6  5  1  0  0  0  0
  7  8  1  0  0  0  0
  8  1  1  0  0  0  0
  8  9  2  0  0  0  0
  9 32  1  0  0  0  0
 10  9  1  0  0  0  0
 10 33  1  0  0  0  0
 11 10  2  0  0  0  0
 12  7  2  0  0  0  0
 12 11  1  0  0  0  0
 13 18  1  0  0  0  0
 14 15  1  0  0  0  0
 14 13  2  0  0  0  0
 15 16  2  0  0  0  0
 16 19  1  0  0  0  0
 16 17  1  0  0  0  0
 17 38  1  0  0  0  0
 18 17  2  0  0  0  0
 18 39  1  0  0  0  0
 20 29  1  0  0  0  0
 20 19  1  0  0  0  0
 23  2  1  0  0  0  0
 25  6  1  0  0  0  0
 26  6  1  0  0  0  0
 27  6  1  0  0  0  0
 28 20  1  0  0  0  0
 30 20  1  0  0  0  0
 31  7  1  0  0  0  0
 34 11  1  0  0  0  0
 35 12  1  0  0  0  0
 36 14  1  0  0  0  0
 37 15  1  0  0  0  0
M  END
