8,10
 OpenBabel05122313053D

 39 40  0  0  1  0  0  0  0  0999 V2000
    3.8173    0.0965   -2.1503 C   0  0  0  0  0  0  0  0  0  0  0  0
    2.9703    1.0973   -1.6042 O   0  0  0  0  0  0  0  0  0  0  0  0
    1.7138    0.7361   -1.2658 C   0  0  2  0  0  3  0  0  0  0  0  0
    1.0385    1.6037   -0.3265 C   0  0  0  0  0  0  0  0  0  0  0  0
    1.7464    2.6708    0.0981 O   0  0  0  0  0  0  0  0  0  0  0  0
    1.2886    3.3411    1.2649 C   0  0  0  0  0  0  0  0  0  0  0  0
   -0.2740    1.2842    0.0962 C   0  0  0  0  0  0  0  0  0  0  0  0
   -0.9577    0.1277   -0.4109 C   0  0  2  0  0  3  0  0  0  0  0  0
   -0.3019   -0.7248   -1.3363 C   0  0  1  0  0  3  0  0  0  0  0  0
    1.0397   -0.4165   -1.7416 C   0  0  0  0  0  3  0  0  0  0  0  0
   -1.0059   -1.9713   -1.8001 C   0  0  0  0  0  0  0  0  0  0  0  0
   -1.9596   -2.4596   -0.7163 C   0  0  0  0  0  0  0  0  0  0  0  0
   -2.9260   -1.4261   -0.3705 N   0  0  0  0  0  0  0  0  0  0  0  0
   -3.9289   -1.9096    0.5622 C   0  0  0  0  0  0  0  0  0  0  0  0
   -2.3869   -0.1229    0.0341 C   0  0  2  0  0  0  0  0  0  0  0  0
   -3.3090    0.9684   -0.5487 C   0  0  0  0  0  0  0  0  0  0  0  0
   -3.0659    2.1958    0.1037 O   0  0  0  0  0  0  0  0  0  0  0  0
   -3.8023    3.2662   -0.4372 C   0  0  0  0  0  0  0  0  0  0  0  0
    4.8280    0.5403   -2.2042 H   0  0  0  0  0  0  0  0  0  0  0  0
    3.5020   -0.2036   -3.1741 H   0  0  0  0  0  0  0  0  0  0  0  0
    3.8381   -0.7998   -1.4917 H   0  0  0  0  0  0  0  0  0  0  0  0
    2.0657    4.0843    1.5193 H   0  0  0  0  0  0  0  0  0  0  0  0
    1.1681    2.6250    2.1069 H   0  0  0  0  0  0  0  0  0  0  0  0
    0.3254    3.8680    1.0882 H   0  0  0  0  0  0  0  0  0  0  0  0
   -0.7947    1.9184    0.8208 H   0  0  0  0  0  0  0  0  0  0  0  0
    1.5572   -1.1117   -2.4150 H   0  0  0  0  0  0  0  0  0  0  0  0
   -1.5814   -1.7543   -2.7269 H   0  0  0  0  0  0  0  0  0  0  0  0
   -0.2651   -2.7600   -2.0398 H   0  0  0  0  0  0  0  0  0  0  0  0
   -1.3586   -2.8037    0.1654 H   0  0  0  0  0  0  0  0  0  0  0  0
   -2.5299   -3.3386   -1.0829 H   0  0  0  0  0  0  0  0  0  0  0  0
   -4.7048   -1.1377    0.7382 H   0  0  0  0  0  0  0  0  0  0  0  0
   -3.4987   -2.1921    1.5582 H   0  0  0  0  0  0  0  0  0  0  0  0
   -4.4370   -2.8015    0.1420 H   0  0  0  0  0  0  0  0  0  0  0  0
   -2.4097   -0.0023    1.1464 H   0  0  0  0  0  0  0  0  0  0  0  0
   -4.3723    0.6533   -0.4144 H   0  0  0  0  0  0  0  0  0  0  0  0
   -3.1308    1.0476   -1.6498 H   0  0  0  0  0  0  0  0  0  0  0  0
   -3.5511    4.1767    0.1410 H   0  0  0  0  0  0  0  0  0  0  0  0
   -4.9040    3.0938   -0.3669 H   0  0  0  0  0  0  0  0  0  0  0  0
   -3.5542    3.4451   -1.5118 H   0  0  0  0  0  0  0  0  0  0  0  0
  1  2  1  0  0  0  0
  1 21  1  0  0  0  0
  3  2  1  1  0  0  0
  3  4  1  0  0  0  0
  4  7  2  0  0  0  0
  4  5  1  0  0  0  0
  5  6  1  0  0  0  0
  6 22  1  0  0  0  0
  6 23  1  0  0  0  0
  7 25  1  0  0  0  0
  8 15  1  0  0  0  0
  8  7  1  6  0  0  0
  9 10  1  1  0  0  0
  9  8  1  0  0  0  0
 10  3  1  0  0  0  0
 11  9  1  0  0  0  0
 11 12  1  0  0  0  0
 12 13  1  0  0  0  0
 12 29  1  0  0  0  0
 13 15  1  0  0  0  0
 13 14  1  0  0  0  0
 14 31  1  0  0  0  0
 14 32  1  0  0  0  0
 15 34  1  1  0  0  0
 16 35  1  0  0  0  0
 16 15  1  0  0  0  0
 16 17  1  0  0  0  0
 18 38  1  0  0  0  0
 18 17  1  0  0  0  0
 18 37  1  0  0  0  0
 19  1  1  0  0  0  0
 20  1  1  0  0  0  0
 24  6  1  0  0  0  0
 26 10  1  0  0  0  0
 27 11  1  0  0  0  0
 28 11  1  0  0  0  0
 30 12  1  0  0  0  0
 33 14  1  0  0  0  0
 36 16  1  0  0  0  0
 39 18  1  0  0  0  0
M  END
