20,27
 OpenBabel05122313053D

 52 55  0  0  1  0  0  0  0  0999 V2000
    0.1588    4.4553    1.3942 S   0  0  0  0  0  0  0  0  0  0  0  0
   -4.6563   -0.5301    0.4198 C   0  0  0  0  0  0  0  0  0  0  0  0
   -5.4074   -1.6980    0.2230 C   0  0  0  0  0  0  0  0  0  0  0  0
   -4.8228   -2.9550    0.4428 C   0  0  0  0  0  0  0  0  0  0  0  0
   -3.4920   -3.0281    0.8846 C   0  0  0  0  0  0  0  0  0  0  0  0
   -2.7464   -1.8575    1.0852 C   0  0  0  0  0  0  0  0  0  0  0  0
   -3.3089   -0.5868    0.8334 C   0  0  0  0  0  0  0  0  0  0  0  0
   -2.5071    0.6825    0.9995 C   0  0  0  0  0  0  0  0  0  0  0  0
   -1.4200    0.9916   -0.1086 C   0  0  2  0  0  0  0  0  0  0  0  0
   -0.7524    2.3347    0.2099 C   0  0  0  0  0  0  0  0  0  0  0  0
    0.0027    3.0605   -0.7733 C   0  0  0  0  0  0  0  0  0  0  0  0
    0.5468    4.2249   -0.2789 C   0  0  0  0  0  0  0  0  0  0  0  0
   -0.7573    2.9847    1.4348 C   0  0  0  0  0  0  0  0  0  0  0  0
   -1.9682    1.0834   -1.4691 N   0  0  0  0  0  0  0  0  0  0  0  0
   -3.0119    2.0740   -1.6517 C   0  0  0  0  0  0  0  0  0  0  0  0
   -2.2162   -0.1637   -2.1801 C   0  0  0  0  0  0  0  0  0  0  0  0
   -0.9199   -0.9413   -2.3776 C   0  0  0  0  0  0  0  0  0  0  0  0
   -0.1567   -1.0653   -1.0803 C   0  0  0  0  0  0  0  0  0  0  0  0
   -0.3529   -0.1157   -0.0378 C   0  0  0  0  0  0  0  0  0  0  0  0
    0.4283   -0.2466    1.1541 C   0  0  0  0  0  3  0  0  0  0  0  0
    1.2791   -1.3624    1.3917 C   0  0  0  0  0  0  0  0  0  0  0  0
    1.9685   -1.5862    2.5336 O   0  0  0  0  0  0  0  0  0  0  0  0
    2.1068   -0.5037    3.4424 C   0  0  0  0  0  0  0  0  0  0  0  0
    1.4483   -2.3289    0.3417 C   0  0  0  0  0  0  0  0  0  0  0  0
    2.2831   -3.3515    0.6137 O   0  0  0  0  0  0  0  0  0  0  0  0
    2.6744   -4.2080   -0.4517 C   0  0  0  0  0  0  0  0  0  0  0  0
    0.7522   -2.1508   -0.8878 C   0  0  0  0  0  3  0  0  0  0  0  0
   -5.1220    0.4522    0.2421 H   0  0  0  0  0  0  0  0  0  0  0  0
   -6.4562   -1.6254   -0.1035 H   0  0  0  0  0  0  0  0  0  0  0  0
   -5.4069   -3.8744    0.2850 H   0  0  0  0  0  0  0  0  0  0  0  0
   -3.0296   -4.0075    1.0818 H   0  0  0  0  0  0  0  0  0  0  0  0
   -1.7083   -1.9325    1.4396 H   0  0  0  0  0  0  0  0  0  0  0  0
   -3.1933    1.5510    1.0360 H   0  0  0  0  0  0  0  0  0  0  0  0
   -1.9882    0.6543    1.9787 H   0  0  0  0  0  0  0  0  0  0  0  0
    0.1229    2.7116   -1.8060 H   0  0  0  0  0  0  0  0  0  0  0  0
    1.1795    4.9536   -0.7994 H   0  0  0  0  0  0  0  0  0  0  0  0
   -1.2625    2.6974    2.3636 H   0  0  0  0  0  0  0  0  0  0  0  0
   -2.7372    3.0140   -1.1341 H   0  0  0  0  0  0  0  0  0  0  0  0
   -4.0196    1.7581   -1.2823 H   0  0  0  0  0  0  0  0  0  0  0  0
   -3.1154    2.3040   -2.7327 H   0  0  0  0  0  0  0  0  0  0  0  0
   -2.9793   -0.8107   -1.6854 H   0  0  0  0  0  0  0  0  0  0  0  0
   -2.6320    0.1044   -3.1731 H   0  0  0  0  0  0  0  0  0  0  0  0
   -1.1424   -1.9538   -2.7712 H   0  0  0  0  0  0  0  0  0  0  0  0
   -0.2899   -0.4274   -3.1309 H   0  0  0  0  0  0  0  0  0  0  0  0
    0.3384    0.5355    1.9190 H   0  0  0  0  0  0  0  0  0  0  0  0
    2.7921   -0.8523    4.2362 H   0  0  0  0  0  0  0  0  0  0  0  0
    1.1350   -0.2232    3.9062 H   0  0  0  0  0  0  0  0  0  0  0  0
    2.5444    0.3872    2.9412 H   0  0  0  0  0  0  0  0  0  0  0  0
    3.3995   -4.9209   -0.0195 H   0  0  0  0  0  0  0  0  0  0  0  0
    3.1686   -3.6359   -1.2654 H   0  0  0  0  0  0  0  0  0  0  0  0
    1.8106   -4.7751   -0.8624 H   0  0  0  0  0  0  0  0  0  0  0  0
    0.9087   -2.8544   -1.7139 H   0  0  0  0  0  0  0  0  0  0  0  0
  1 13  1  0  0  0  0
  2  7  1  0  0  0  0
  3  2  2  0  0  0  0
  3  4  1  0  0  0  0
  4  5  2  0  0  0  0
  5 31  1  0  0  0  0
  5  6  1  0  0  0  0
  6 32  1  0  0  0  0
  7  8  1  0  0  0  0
  7  6  2  0  0  0  0
  8 33  1  0  0  0  0
  8 34  1  0  0  0  0
  9 19  1  0  0  0  0
  9 10  1  0  0  0  0
  9  8  1  1  0  0  0
 10 13  2  0  0  0  0
 11 12  2  0  0  0  0
 11 10  1  0  0  0  0
 12  1  1  0  0  0  0
 13 37  1  0  0  0  0
 14  9  1  0  0  0  0
 15 14  1  0  0  0  0
 15 39  1  0  0  0  0
 15 38  1  0  0  0  0
 16 41  1  0  0  0  0
 16 14  1  0  0  0  0
 17 16  1  0  0  0  0
 17 18  1  0  0  0  0
 18 27  1  0  0  0  0
 18 19  2  0  0  0  0
 19 20  1  0  0  0  0
 20 21  1  0  0  0  0
 20 45  1  0  0  0  0
 21 22  1  0  0  0  0
 22 23  1  0  0  0  0
 23 47  1  0  0  0  0
 23 46  1  0  0  0  0
 24 25  1  0  0  0  0
 24 21  2  0  0  0  0
 26 49  1  0  0  0  0
 26 25  1  0  0  0  0
 27 24  1  0  0  0  0
 28  2  1  0  0  0  0
 29  3  1  0  0  0  0
 30  4  1  0  0  0  0
 35 11  1  0  0  0  0
 36 12  1  0  0  0  0
 40 15  1  0  0  0  0
 42 16  1  0  0  0  0
 43 17  1  0  0  0  0
 44 17  1  0  0  0  0
 48 23  1  0  0  0  0
 50 26  1  0  0  0  0
 51 26  1  0  0  0  0
 52 27  1  0  0  0  0
M  END
