3,28
 OpenBabel05122313053D

 50 52  0  0  0  0  0  0  0  0999 V2000
    0.0881   -2.9690   -0.3042 N   0  0  0  0  0  0  0  0  0  0  0  0
   -1.2055   -1.4812   -1.1792 N   0  0  0  0  0  0  0  0  0  0  0  0
   -0.0021   -1.6079   -0.5116 C   0  0  0  0  0  2  0  0  0  0  0  0
   -1.0020   -3.6482   -0.8336 C   0  0  0  0  0  0  0  0  0  0  0  0
   -1.8250   -2.7075   -1.3846 C   0  0  0  0  0  0  0  0  0  0  0  0
    1.1567   -3.6584    0.4432 C   0  0  0  0  0  0  0  0  0  0  0  0
    1.8929   -4.6581   -0.4489 C   0  0  0  0  0  0  0  0  0  0  0  0
    0.5989   -4.2796    1.7259 C   0  0  0  0  0  0  0  0  0  0  0  0
   -1.8623   -0.2143   -1.4921 C   0  0  0  0  0  0  0  0  0  0  0  0
   -3.1530   -0.0628   -0.7081 C   0  0  0  0  0  0  0  0  0  0  0  0
   -4.3830   -0.1113   -1.3878 C   0  0  0  0  0  0  0  0  0  0  0  0
   -5.6045   -0.0503   -0.6985 C   0  0  0  0  0  0  0  0  0  0  0  0
   -1.1026   -4.7357   -0.7786 H   0  0  0  0  0  0  0  0  0  0  0  0
   -2.7924   -2.8008   -1.8863 H   0  0  0  0  0  0  0  0  0  0  0  0
    1.8552   -2.8483    0.7196 H   0  0  0  0  0  0  0  0  0  0  0  0
    2.2958   -4.1568   -1.3495 H   0  0  0  0  0  0  0  0  0  0  0  0
    2.7467   -5.0939    0.1056 H   0  0  0  0  0  0  0  0  0  0  0  0
    1.2355   -5.4940   -0.7674 H   0  0  0  0  0  0  0  0  0  0  0  0
    0.1094   -3.5111    2.3554 H   0  0  0  0  0  0  0  0  0  0  0  0
   -0.1357   -5.0840    1.5132 H   0  0  0  0  0  0  0  0  0  0  0  0
    1.4246   -4.7249    2.3150 H   0  0  0  0  0  0  0  0  0  0  0  0
   -1.1250    0.5763   -1.2541 H   0  0  0  0  0  0  0  0  0  0  0  0
   -2.0700   -0.1705   -2.5801 H   0  0  0  0  0  0  0  0  0  0  0  0
   -4.3796   -0.2043   -2.4858 H   0  0  0  0  0  0  0  0  0  0  0  0
   -6.5532   -0.0888   -1.2547 H   0  0  0  0  0  0  0  0  0  0  0  0
    0.0882    2.9690    0.3042 N   0  0  0  0  0  0  0  0  0  0  0  0
   -1.2055    1.4813    1.1792 N   0  0  0  0  0  0  0  0  0  0  0  0
   -0.0020    1.6079    0.5116 C   0  0  0  0  0  2  0  0  0  0  0  0
   -1.0018    3.6482    0.8337 C   0  0  0  0  0  0  0  0  0  0  0  0
   -1.8249    2.7076    1.3846 C   0  0  0  0  0  0  0  0  0  0  0  0
    1.1568    3.6584   -0.4432 C   0  0  0  0  0  0  0  0  0  0  0  0
    1.8931    4.6580    0.4490 C   0  0  0  0  0  0  0  0  0  0  0  0
    0.5991    4.2796   -1.7259 C   0  0  0  0  0  0  0  0  0  0  0  0
   -1.8623    0.2144    1.4921 C   0  0  0  0  0  0  0  0  0  0  0  0
   -3.1530    0.0629    0.7081 C   0  0  0  0  0  0  0  0  0  0  0  0
   -4.3830    0.1115    1.3878 C   0  0  0  0  0  0  0  0  0  0  0  0
   -5.6045    0.0505    0.6985 C   0  0  0  0  0  0  0  0  0  0  0  0
   -1.1024    4.7357    0.7786 H   0  0  0  0  0  0  0  0  0  0  0  0
   -2.7923    2.8009    1.8863 H   0  0  0  0  0  0  0  0  0  0  0  0
    1.8553    2.8483   -0.7196 H   0  0  0  0  0  0  0  0  0  0  0  0
    2.2960    4.1567    1.3495 H   0  0  0  0  0  0  0  0  0  0  0  0
    2.7469    5.0938   -0.1056 H   0  0  0  0  0  0  0  0  0  0  0  0
    1.2357    5.4940    0.7674 H   0  0  0  0  0  0  0  0  0  0  0  0
    0.1096    3.5110   -2.3554 H   0  0  0  0  0  0  0  0  0  0  0  0
   -0.1355    5.0840   -1.5132 H   0  0  0  0  0  0  0  0  0  0  0  0
    1.4248    4.7248   -2.3150 H   0  0  0  0  0  0  0  0  0  0  0  0
   -1.1251   -0.5763    1.2542 H   0  0  0  0  0  0  0  0  0  0  0  0
   -2.0700    0.1705    2.5801 H   0  0  0  0  0  0  0  0  0  0  0  0
   -4.3796    0.2045    2.4858 H   0  0  0  0  0  0  0  0  0  0  0  0
   -6.5532    0.0891    1.2547 H   0  0  0  0  0  0  0  0  0  0  0  0
  1  6  1  0  0  0  0
  2  3  1  0  0  0  0
  3  1  1  0  0  0  0
  4 13  1  0  0  0  0
  4  1  1  0  0  0  0
  5  2  1  0  0  0  0
  5  4  2  0  0  0  0
  6 15  1  0  0  0  0
  6  8  1  0  0  0  0
  7 17  1  0  0  0  0
  7  6  1  0  0  0  0
  8 21  1  0  0  0  0
  8 19  1  0  0  0  0
  9 22  1  0  0  0  0
  9  2  1  0  0  0  0
  9 10  1  0  0  0  0
 10 35  1  0  0  0  0
 11 10  2  0  0  0  0
 11 12  1  0  0  0  0
 12 37  2  0  0  0  0
 14  5  1  0  0  0  0
 16  7  1  0  0  0  0
 18  7  1  0  0  0  0
 20  8  1  0  0  0  0
 23  9  1  0  0  0  0
 24 11  1  0  0  0  0
 25 12  1  0  0  0  0
 26 28  1  0  0  0  0
 26 29  1  0  0  0  0
 27 30  1  0  0  0  0
 27 34  1  0  0  0  0
 28 27  1  0  0  0  0
 29 30  2  0  0  0  0
 30 39  1  0  0  0  0
 31 26  1  0  0  0  0
 31 32  1  0  0  0  0
 32 43  1  0  0  0  0
 32 41  1  0  0  0  0
 33 45  1  0  0  0  0
 33 31  1  0  0  0  0
 34 48  1  0  0  0  0
 35 36  2  0  0  0  0
 35 34  1  0  0  0  0
 36 49  1  0  0  0  0
 37 50  1  0  0  0  0
 37 36  1  0  0  0  0
 38 29  1  0  0  0  0
 40 31  1  0  0  0  0
 42 32  1  0  0  0  0
 44 33  1  0  0  0  0
 46 33  1  0  0  0  0
 47 34  1  0  0  0  0
M  END
