3,6
 OpenBabel05122313053D

 15 15  0  0  1  0  0  0  0  0999 V2000
   -4.3972    0.5469   -1.3552 O   0  0  0  0  0  0  0  0  0  0  0  0
   -3.1543   -0.4483    0.3949 C   0  0  1  0  0  3  0  0  0  0  0  0
   -3.2599   -1.8173   -0.0272 C   0  0  0  0  0  3  0  0  0  0  0  0
   -2.5843   -2.6567    0.9351 C   0  0  0  0  0  0  0  0  0  0  0  0
   -2.0238   -1.8181    1.9429 C   0  0  0  0  0  0  0  0  0  0  0  0
   -2.3110   -0.4588    1.5730 C   0  0  0  0  0  3  0  0  0  0  0  0
   -3.7000    0.7032   -0.3526 C   0  0  0  0  0  0  0  0  0  0  0  0
   -3.3461    2.0971    0.1520 C   0  0  0  0  0  0  0  0  0  0  0  0
   -3.8127   -2.1466   -0.9148 H   0  0  0  0  0  0  0  0  0  0  0  0
   -2.5316   -3.7516    0.9021 H   0  0  0  0  0  0  0  0  0  0  0  0
   -1.4592   -2.1398    2.8255 H   0  0  0  0  0  0  0  0  0  0  0  0
   -2.0042    0.4203    2.1515 H   0  0  0  0  0  0  0  0  0  0  0  0
   -2.2866    2.3218   -0.0943 H   0  0  0  0  0  0  0  0  0  0  0  0
   -3.4648    2.1904    1.2501 H   0  0  0  0  0  0  0  0  0  0  0  0
   -3.9866    2.8371   -0.3608 H   0  0  0  0  0  0  0  0  0  0  0  0
  1  7  2  0  0  0  0
  2  7  1  6  0  0  0
  2  6  1  0  0  0  0
  3  2  1  0  0  0  0
  3  4  1  0  0  0  0
  4  5  2  0  0  0  0
  5 11  1  0  0  0  0
  6  5  1  0  0  0  0
  6 12  1  0  0  0  0
  7  8  1  0  0  0  0
  8 14  1  0  0  0  0
  9  3  1  0  0  0  0
 10  4  1  0  0  0  0
 13  8  1  0  0  0  0
 15  8  1  0  0  0  0
M  END
