3,7
 OpenBabel05122313053D

 40 41  0  0  1  0  0  0  0  0999 V2000
    0.9563    1.0155    0.6391 C   0  0  0  0  0  0  0  0  0  0  0  0
    0.7625   -0.2764    1.2536 C   0  0  2  0  0  3  0  0  0  0  0  0
    1.8589   -0.8397    1.9714 C   0  0  0  0  0  3  0  0  0  0  0  0
    1.6840   -1.8327    2.4097 H   0  0  0  0  0  0  0  0  0  0  0  0
    3.1132   -0.1832    2.0794 C   0  0  0  0  0  3  0  0  0  0  0  0
    3.9515   -0.6699    2.5944 H   0  0  0  0  0  0  0  0  0  0  0  0
    3.2941    1.0568    1.4180 C   0  0  0  0  0  3  0  0  0  0  0  0
    4.2750    1.5525    1.4297 H   0  0  0  0  0  0  0  0  0  0  0  0
    2.2116    1.6810    0.7334 C   0  0  0  0  0  0  0  0  0  0  0  0
    2.3417    2.6631    0.2639 H   0  0  0  0  0  0  0  0  0  0  0  0
   -0.1035    1.5660   -0.0326 O   0  0  0  0  0  0  0  0  0  0  0  0
    0.1498    2.5778   -1.0330 C   0  0  0  0  0  0  0  0  0  0  0  0
    1.0045    2.2583   -1.6631 H   0  0  0  0  0  0  0  0  0  0  0  0
   -0.7968    2.5932   -1.6194 H   0  0  0  0  0  0  0  0  0  0  0  0
    0.4604    3.8147   -0.5031 O   0  0  0  0  0  0  0  0  0  0  0  0
   -0.6119    4.4423    0.1914 C   0  0  0  0  0  0  0  0  0  0  0  0
   -0.2612    5.4473    0.4899 H   0  0  0  0  0  0  0  0  0  0  0  0
   -0.9031    3.8721    1.1001 H   0  0  0  0  0  0  0  0  0  0  0  0
   -1.5071    4.5483   -0.4639 H   0  0  0  0  0  0  0  0  0  0  0  0
   -0.4628   -1.1706    1.1547 C   0  0  0  0  0  0  0  0  0  0  0  0
   -0.5474   -2.1777    1.8608 O   0  0  0  0  0  0  0  0  0  0  0  0
   -1.4025   -0.8056    0.2383 N   0  0  0  0  0  0  0  0  0  0  0  0
   -1.2118    0.0243   -0.3285 H   0  0  0  0  0  0  0  0  0  0  0  0
   -2.5605   -1.6236   -0.0722 C   0  0  2  0  0  0  0  0  0  0  0  0
   -2.5882   -2.3963    0.7257 H   0  0  0  0  0  0  0  0  0  0  0  0
   -2.3544   -2.3244   -1.4282 C   0  0  0  0  0  0  0  0  0  0  0  0
   -1.4362   -2.9425   -1.3963 H   0  0  0  0  0  0  0  0  0  0  0  0
   -2.2427   -1.5779   -2.2409 H   0  0  0  0  0  0  0  0  0  0  0  0
   -3.2078   -2.9824   -1.6821 H   0  0  0  0  0  0  0  0  0  0  0  0
   -3.8702    0.5529    0.3171 C   0  0  0  0  0  0  0  0  0  0  0  0
   -2.9257    1.0606    0.5627 H   0  0  0  0  0  0  0  0  0  0  0  0
   -5.0755    1.2728    0.3585 C   0  0  0  0  0  0  0  0  0  0  0  0
   -5.0616    2.3423    0.6200 H   0  0  0  0  0  0  0  0  0  0  0  0
   -6.2914    0.6346    0.0767 C   0  0  0  0  0  0  0  0  0  0  0  0
   -7.2365    1.1974    0.1104 H   0  0  0  0  0  0  0  0  0  0  0  0
   -6.2921   -0.7334   -0.2414 C   0  0  0  0  0  0  0  0  0  0  0  0
   -7.2406   -1.2500   -0.4541 H   0  0  0  0  0  0  0  0  0  0  0  0
   -5.0876   -1.4482   -0.2862 C   0  0  0  0  0  0  0  0  0  0  0  0
   -5.1069   -2.5219   -0.5297 H   0  0  0  0  0  0  0  0  0  0  0  0
   -3.8561   -0.8161   -0.0133 C   0  0  0  0  0  0  0  0  0  0  0  0
  1  9  2  0  0  0  0
  1  2  1  0  0  0  0
  2 20  1  6  0  0  0
  2  3  1  0  0  0  0
  3  5  1  0  0  0  0
  3  4  1  0  0  0  0
  5  6  1  0  0  0  0
  7  8  1  0  0  0  0
  7  5  1  0  0  0  0
  9  7  1  0  0  0  0
 10  9  1  0  0  0  0
 11  1  1  0  0  0  0
 12 15  1  0  0  0  0
 12 11  1  0  0  0  0
 13 12  1  0  0  0  0
 14 12  1  0  0  0  0
 15 16  1  0  0  0  0
 16 17  1  0  0  0  0
 16 18  1  0  0  0  0
 19 16  1  0  0  0  0
 20 21  2  0  0  0  0
 22 20  1  0  0  0  0
 23 22  1  0  0  0  0
 24 40  1  0  0  0  0
 24 22  1  0  0  0  0
 24 25  1  1  0  0  0
 26 27  1  0  0  0  0
 26 24  1  0  0  0  0
 28 26  1  0  0  0  0
 29 26  1  0  0  0  0
 30 32  1  0  0  0  0
 30 31  1  0  0  0  0
 32 33  1  0  0  0  0
 34 35  1  0  0  0  0
 34 32  2  0  0  0  0
 36 34  1  0  0  0  0
 37 36  1  0  0  0  0
 38 36  2  0  0  0  0
 38 40  1  0  0  0  0
 39 38  1  0  0  0  0
 40 30  2  0  0  0  0
M  END
