4,10
 OpenBabel05122313053D

 48 49  0  0  1  0  0  0  0  0999 V2000
   -1.4836    0.3422    0.4451 P   0  0  2  0  0  0  0  0  0  0  0  0
   -0.2505   -2.6756    0.9170 C   0  0  0  0  0  0  0  0  0  0  0  0
   -1.2931   -2.9940    1.0546 H   0  0  0  0  0  0  0  0  0  0  0  0
    0.4191   -3.0036   -0.2912 C   0  0  0  0  0  3  0  0  0  0  0  0
   -0.1195   -3.5478   -1.0801 H   0  0  0  0  0  0  0  0  0  0  0  0
    1.7924   -2.6193   -0.5013 C   0  0  0  0  0  0  0  0  0  0  0  0
    2.2979   -2.8655   -1.4451 H   0  0  0  0  0  0  0  0  0  0  0  0
    2.4340   -1.8295    0.4710 C   0  0  0  0  0  0  0  0  0  0  0  0
    3.4485   -1.4488    0.2839 H   0  0  0  0  0  0  0  0  0  0  0  0
    1.7249   -1.3949    1.6446 C   0  0  0  0  0  3  0  0  0  0  0  0
    2.2210   -0.7222    2.3593 H   0  0  0  0  0  0  0  0  0  0  0  0
    0.3895   -1.8378    1.9050 C   0  0  0  0  0  0  0  0  0  0  0  0
   -0.3230   -1.4515    3.1765 C   0  0  0  0  0  0  0  0  0  0  0  0
    0.3063   -0.7263    3.7323 H   0  0  0  0  0  0  0  0  0  0  0  0
   -0.3774   -2.3625    3.8115 H   0  0  0  0  0  0  0  0  0  0  0  0
   -1.7383   -0.8746    3.0142 C   0  0  0  0  0  0  0  0  0  0  0  0
   -2.4116   -1.6080    2.5192 H   0  0  0  0  0  0  0  0  0  0  0  0
   -2.1617   -0.7294    4.0288 H   0  0  0  0  0  0  0  0  0  0  0  0
   -1.7803    0.4672    2.2738 C   0  0  0  0  0  0  0  0  0  0  0  0
   -1.0223    1.1617    2.6943 H   0  0  0  0  0  0  0  0  0  0  0  0
   -2.7693    0.9509    2.4076 H   0  0  0  0  0  0  0  0  0  0  0  0
   -1.8998    2.0555   -0.2155 C   0  0  1  0  0  0  0  0  0  0  0  0
   -1.4102    2.1329   -1.2109 H   0  0  0  0  0  0  0  0  0  0  0  0
   -3.3778    1.6004   -0.3887 C   0  0  0  0  0  0  0  0  0  0  0  0
   -4.0238    2.0551    0.3891 H   0  0  0  0  0  0  0  0  0  0  0  0
   -3.8038    1.8747   -1.3734 H   0  0  0  0  0  0  0  0  0  0  0  0
   -3.2437    0.0564   -0.2053 C   0  0  1  0  0  0  0  0  0  0  0  0
   -3.8572   -0.3325    0.6370 H   0  0  0  0  0  0  0  0  0  0  0  0
   -3.5464   -0.7943   -1.4462 C   0  0  0  0  0  0  0  0  0  0  0  0
   -2.9357   -0.4054   -2.2884 H   0  0  0  0  0  0  0  0  0  0  0  0
   -3.1779   -2.2637   -1.2344 C   0  0  0  0  0  0  0  0  0  0  0  0
   -2.0866   -2.3763   -1.1068 H   0  0  0  0  0  0  0  0  0  0  0  0
   -3.4752   -2.8739   -2.1098 H   0  0  0  0  0  0  0  0  0  0  0  0
   -3.6953   -2.6844   -0.3448 H   0  0  0  0  0  0  0  0  0  0  0  0
   -5.0347   -0.6534   -1.8028 C   0  0  0  0  0  0  0  0  0  0  0  0
   -5.2663   -1.2223   -2.7249 H   0  0  0  0  0  0  0  0  0  0  0  0
   -5.3325    0.3990   -1.9814 H   0  0  0  0  0  0  0  0  0  0  0  0
   -5.6785   -1.0535   -0.9909 H   0  0  0  0  0  0  0  0  0  0  0  0
   -1.6615    3.3309    0.6033 C   0  0  0  0  0  0  0  0  0  0  0  0
   -2.2045    3.2138    1.5680 H   0  0  0  0  0  0  0  0  0  0  0  0
   -0.1859    3.5865    0.9285 C   0  0  0  0  0  0  0  0  0  0  0  0
   -0.0645    4.5072    1.5326 H   0  0  0  0  0  0  0  0  0  0  0  0
    0.4112    3.7371    0.0033 H   0  0  0  0  0  0  0  0  0  0  0  0
    0.2608    2.7611    1.5256 H   0  0  0  0  0  0  0  0  0  0  0  0
   -2.2706    4.5356   -0.1314 C   0  0  0  0  0  0  0  0  0  0  0  0
   -2.1629    5.4614    0.4680 H   0  0  0  0  0  0  0  0  0  0  0  0
   -3.3502    4.3923   -0.3336 H   0  0  0  0  0  0  0  0  0  0  0  0
   -1.7635    4.7011   -1.1049 H   0  0  0  0  0  0  0  0  0  0  0  0
  1 19  1  1  0  0  0
  2  3  1  0  0  0  0
  2 12  2  0  0  0  0
  4  2  1  0  0  0  0
  5  4  1  0  0  0  0
  6  4  1  0  0  0  0
  6  8  2  0  0  0  0
  7  6  1  0  0  0  0
  8 10  1  0  0  0  0
  9  8  1  0  0  0  0
 10 12  1  0  0  0  0
 10 11  1  0  0  0  0
 12 13  1  0  0  0  0
 13 14  1  0  0  0  0
 13 15  1  0  0  0  0
 16 13  1  0  0  0  0
 16 18  1  0  0  0  0
 17 16  1  0  0  0  0
 19 21  1  0  0  0  0
 19 20  1  0  0  0  0
 19 16  1  0  0  0  0
 22 23  1  6  0  0  0
 22  1  1  0  0  0  0
 22 39  1  0  0  0  0
 24 22  1  0  0  0  0
 24 27  1  0  0  0  0
 24 25  1  0  0  0  0
 26 24  1  0  0  0  0
 27  1  1  0  0  0  0
 27 28  1  1  0  0  0
 29 31  1  0  0  0  0
 29 27  1  0  0  0  0
 30 29  1  0  0  0  0
 31 32  1  0  0  0  0
 31 34  1  0  0  0  0
 33 31  1  0  0  0  0
 35 29  1  0  0  0  0
 35 38  1  0  0  0  0
 36 35  1  0  0  0  0
 37 35  1  0  0  0  0
 39 41  1  0  0  0  0
 39 40  1  0  0  0  0
 41 44  1  0  0  0  0
 41 42  1  0  0  0  0
 43 41  1  0  0  0  0
 45 46  1  0  0  0  0
 45 39  1  0  0  0  0
 47 45  1  0  0  0  0
 48 45  1  0  0  0  0
M  END
