1,12
 OpenBabel05122313053D

 27 29  0  0  1  0  0  0  0  0999 V2000
   -2.2426   -2.2158   -1.4494 C   0  0  0  0  0  3  0  0  0  0  0  0
   -1.6227   -2.5081   -2.3121 H   0  0  0  0  0  0  0  0  0  0  0  0
   -2.1670   -2.8096   -0.1976 C   0  0  0  0  0  3  0  0  0  0  0  0
   -1.4055   -3.5557    0.0755 H   0  0  0  0  0  0  0  0  0  0  0  0
   -3.4100   -2.5601    0.6211 C   0  0  0  0  0  0  0  0  0  0  0  0
   -3.1890   -2.2405    1.6609 H   0  0  0  0  0  0  0  0  0  0  0  0
   -3.9529   -3.5259    0.7213 H   0  0  0  0  0  0  0  0  0  0  0  0
   -4.2361   -1.5300   -0.1942 C   0  0  2  0  0  0  0  0  0  0  0  0
   -5.2621   -1.9087   -0.3679 H   0  0  0  0  0  0  0  0  0  0  0  0
   -3.4758   -1.3458   -1.5664 C   0  0  1  0  0  0  0  0  0  0  0  0
   -4.0968   -1.6355   -2.4398 H   0  0  0  0  0  0  0  0  0  0  0  0
   -2.1240    0.4165   -0.4354 C   0  0  0  0  0  3  0  0  0  0  0  0
   -1.6988    1.4325   -0.5446 H   0  0  0  0  0  0  0  0  0  0  0  0
   -3.1671    0.1661   -1.5665 C   0  0  2  0  0  0  0  0  0  0  0  0
   -2.8578    0.5718   -2.5489 H   0  0  0  0  0  0  0  0  0  0  0  0
   -4.4569    0.7482   -0.9464 C   0  0  0  0  0  0  0  0  0  0  0  0
   -5.3696    0.5242   -1.5361 H   0  0  0  0  0  0  0  0  0  0  0  0
   -4.3990    1.8373   -0.7535 H   0  0  0  0  0  0  0  0  0  0  0  0
   -4.3443   -0.0795    0.3530 C   0  0  2  0  0  0  0  0  0  0  0  0
   -5.1584    0.0472    1.0935 H   0  0  0  0  0  0  0  0  0  0  0  0
   -2.9640    0.3885    0.8634 C   0  0  2  0  0  0  0  0  0  0  0  0
   -2.5430   -0.2892    1.6420 H   0  0  0  0  0  0  0  0  0  0  0  0
   -3.0121    1.7148    1.4075 O   0  0  0  0  0  0  0  0  0  0  0  0
   -3.4987    1.7672    2.7312 C   0  0  0  0  0  0  0  0  0  0  0  0
   -2.8687    1.1625    3.4282 H   0  0  0  0  0  0  0  0  0  0  0  0
   -4.5498    1.4048    2.8178 H   0  0  0  0  0  0  0  0  0  0  0  0
   -3.4705    2.8268    3.0534 H   0  0  0  0  0  0  0  0  0  0  0  0
  1  3  1  0  0  0  0
  2  1  1  0  0  0  0
  3  4  1  0  0  0  0
  3  5  1  0  0  0  0
  5  7  1  0  0  0  0
  5  6  1  0  0  0  0
  8  9  1  6  0  0  0
  8 19  1  0  0  0  0
  8  5  1  0  0  0  0
 10 11  1  6  0  0  0
 10  1  1  0  0  0  0
 10  8  1  0  0  0  0
 12 21  1  0  0  0  0
 13 12  1  0  0  0  0
 14 15  1  6  0  0  0
 14 10  1  0  0  0  0
 14 16  1  0  0  0  0
 14 12  1  0  0  0  0
 16 18  1  0  0  0  0
 16 19  1  0  0  0  0
 17 16  1  0  0  0  0
 19 21  1  0  0  0  0
 19 20  1  1  0  0  0
 21 23  1  0  0  0  0
 21 22  1  1  0  0  0
 23 24  1  0  0  0  0
 24 26  1  0  0  0  0
 24 27  1  0  0  0  0
 24 25  1  0  0  0  0
M  END
