10,14
 OpenBabel05122313053D

 39 43  0  0  1  0  0  0  0  0999 V2000
   -0.4133   -0.5799    1.2234 C   0  0  0  0  0  0  0  0  0  0  0  0
   -0.0008   -0.5280    2.5228 C   0  0  0  0  0  0  0  0  0  0  0  0
   -0.5950   -0.1217    3.3522 H   0  0  0  0  0  0  0  0  0  0  0  0
    1.4016   -1.0604    2.6856 C   0  0  0  0  0  0  0  0  0  0  0  0
    2.0860   -0.3092    3.1359 H   0  0  0  0  0  0  0  0  0  0  0  0
    1.4390   -1.9521    3.3520 H   0  0  0  0  0  0  0  0  0  0  0  0
    1.7922   -1.4283    1.2732 C   0  0  0  0  0  0  0  0  0  0  0  0
    2.9972   -1.9636    0.7531 C   0  0  0  0  0  0  0  0  0  0  0  0
    3.8723   -2.1280    1.3960 H   0  0  0  0  0  0  0  0  0  0  0  0
    3.0683   -2.2239   -0.6487 C   0  0  0  0  0  3  0  0  0  0  0  0
    4.0098   -2.5929   -1.0795 H   0  0  0  0  0  0  0  0  0  0  0  0
    1.9563   -1.9865   -1.5083 C   0  0  0  0  0  3  0  0  0  0  0  0
    2.0513   -2.1652   -2.5873 H   0  0  0  0  0  0  0  0  0  0  0  0
    0.7635   -1.4106   -0.9814 C   0  0  0  0  0  3  0  0  0  0  0  0
   -0.0789   -1.1558   -1.6401 H   0  0  0  0  0  0  0  0  0  0  0  0
    0.6680   -1.1746    0.4167 C   0  0  2  0  0  3  0  0  0  0  0  0
   -1.6772   -0.0896    0.6256 C   0  0  0  0  0  0  0  0  0  0  0  0
   -1.8703    1.3070    0.4366 C   0  0  0  0  0  0  0  0  0  0  0  0
   -0.8924    2.2802    0.8283 C   0  0  0  0  0  0  0  0  0  0  0  0
    0.0391    1.9389    1.2988 H   0  0  0  0  0  0  0  0  0  0  0  0
   -1.1029    3.6282    0.6132 C   0  0  0  0  0  0  0  0  0  0  0  0
   -0.3312    4.3531    0.9125 H   0  0  0  0  0  0  0  0  0  0  0  0
   -2.3067    4.0890   -0.0003 C   0  0  0  0  0  0  0  0  0  0  0  0
   -2.4581    5.1669   -0.1618 H   0  0  0  0  0  0  0  0  0  0  0  0
   -3.2717    3.1850   -0.3967 C   0  0  0  0  0  0  0  0  0  0  0  0
   -4.2006    3.5294   -0.8774 H   0  0  0  0  0  0  0  0  0  0  0  0
   -3.0882    1.7765   -0.2036 C   0  0  0  0  0  0  0  0  0  0  0  0
   -4.0491    0.8426   -0.6316 C   0  0  0  0  0  0  0  0  0  0  0  0
   -4.9680    1.2045   -1.1200 H   0  0  0  0  0  0  0  0  0  0  0  0
   -3.8634   -0.5417   -0.4622 C   0  0  0  0  0  0  0  0  0  0  0  0
   -4.8368   -1.4948   -0.9075 C   0  0  0  0  0  0  0  0  0  0  0  0
   -5.7514   -1.1193   -1.3925 H   0  0  0  0  0  0  0  0  0  0  0  0
   -4.6380   -2.8506   -0.7356 C   0  0  0  0  0  0  0  0  0  0  0  0
   -5.3943   -3.5699   -1.0844 H   0  0  0  0  0  0  0  0  0  0  0  0
   -3.4516   -3.3250   -0.0986 C   0  0  0  0  0  0  0  0  0  0  0  0
   -3.3061   -4.4069    0.0416 H   0  0  0  0  0  0  0  0  0  0  0  0
   -2.4910   -2.4376    0.3487 C   0  0  0  0  0  0  0  0  0  0  0  0
   -1.5866   -2.8098    0.8520 H   0  0  0  0  0  0  0  0  0  0  0  0
   -2.6527   -1.0225    0.1800 C   0  0  0  0  0  0  0  0  0  0  0  0
  1  2  2  0  0  0  0
  2  4  1  0  0  0  0
  2  3  1  0  0  0  0
  4  5  1  0  0  0  0
  4  6  1  0  0  0  0
  7  4  1  0  0  0  0
  8  7  2  0  0  0  0
  8  9  1  0  0  0  0
 10  8  1  0  0  0  0
 11 10  1  0  0  0  0
 12 14  1  0  0  0  0
 12 10  1  0  0  0  0
 13 12  1  0  0  0  0
 15 14  1  0  0  0  0
 16 14  1  6  0  0  0
 16  1  1  0  0  0  0
 16  7  1  0  0  0  0
 17  1  1  0  0  0  0
 18 17  1  0  0  0  0
 18 19  1  0  0  0  0
 19 20  1  0  0  0  0
 21 19  2  0  0  0  0
 21 22  1  0  0  0  0
 23 21  1  0  0  0  0
 24 23  1  0  0  0  0
 25 27  1  0  0  0  0
 25 23  2  0  0  0  0
 26 25  1  0  0  0  0
 27 18  2  0  0  0  0
 28 30  2  0  0  0  0
 28 27  1  0  0  0  0
 29 28  1  0  0  0  0
 30 39  1  0  0  0  0
 31 33  2  0  0  0  0
 31 30  1  0  0  0  0
 32 31  1  0  0  0  0
 33 35  1  0  0  0  0
 34 33  1  0  0  0  0
 35 36  1  0  0  0  0
 35 37  2  0  0  0  0
 37 38  1  0  0  0  0
 39 37  1  0  0  0  0
 39 17  2  0  0  0  0
M  END
