3,11
 OpenBabel05122313053D

 60 64  0  0  1  0  0  0  0  0999 V2000
    1.8337   -0.4428    0.0323 P   0  0  0  0  0  4  0  0  0  0  0  0
   -0.9035   -1.2146    0.0289 C   0  0  2  0  0  3  0  0  0  0  0  0
   -1.3275   -2.1265   -0.9948 C   0  0  0  0  0  3  0  0  0  0  0  0
   -0.9289   -2.0114   -2.0126 H   0  0  0  0  0  0  0  0  0  0  0  0
   -2.2695   -3.1523   -0.7146 C   0  0  0  0  0  3  0  0  0  0  0  0
   -2.6125   -3.8190   -1.5165 H   0  0  0  0  0  0  0  0  0  0  0  0
   -2.8407   -3.2377    0.5888 C   0  0  0  0  0  0  0  0  0  0  0  0
   -3.6255   -3.9808    0.7892 H   0  0  0  0  0  0  0  0  0  0  0  0
   -2.4276   -2.3568    1.6239 C   0  0  0  0  0  0  0  0  0  0  0  0
   -2.8924   -2.4094    2.6172 H   0  0  0  0  0  0  0  0  0  0  0  0
   -1.4865   -1.3283    1.3301 C   0  0  0  0  0  3  0  0  0  0  0  0
   -1.2068   -0.6026    2.1071 H   0  0  0  0  0  0  0  0  0  0  0  0
    0.0567   -0.1151   -0.2839 C   0  0  0  0  0  0  0  0  0  0  0  0
   -0.2712    1.0520   -0.8149 C   0  0  0  0  0  0  0  0  0  0  0  0
   -0.5581    2.2332   -1.3376 C   0  0  0  0  0  0  0  0  0  0  0  0
   -0.5511    2.3044   -2.4416 H   0  0  0  0  0  0  0  0  0  0  0  0
   -0.8634    3.4639   -0.5955 C   0  0  0  0  0  0  0  0  0  0  0  0
   -0.8593    4.6975   -1.2847 C   0  0  0  0  0  0  0  0  0  0  0  0
   -0.6592    4.7130   -2.3672 H   0  0  0  0  0  0  0  0  0  0  0  0
   -1.1010    5.8947   -0.5983 C   0  0  0  0  0  0  0  0  0  0  0  0
   -1.0946    6.8489   -1.1457 H   0  0  0  0  0  0  0  0  0  0  0  0
   -1.3595    5.8754    0.7814 C   0  0  0  0  0  0  0  0  0  0  0  0
   -1.5585    6.8149    1.3182 H   0  0  0  0  0  0  0  0  0  0  0  0
   -1.3845    4.6507    1.4730 C   0  0  0  0  0  0  0  0  0  0  0  0
   -1.6154    4.6301    2.5484 H   0  0  0  0  0  0  0  0  0  0  0  0
   -1.1408    3.4538    0.7922 C   0  0  0  0  0  0  0  0  0  0  0  0
   -1.2038    2.4944    1.3275 H   0  0  0  0  0  0  0  0  0  0  0  0
    2.4699   -1.5058   -1.2898 C   0  0  0  0  0  0  0  0  0  0  0  0
    3.4777   -2.4563   -1.0218 C   0  0  0  0  0  0  0  0  0  0  0  0
    3.8484   -2.6010    0.0038 H   0  0  0  0  0  0  0  0  0  0  0  0
    4.0015   -3.2200   -2.0750 C   0  0  0  0  0  0  0  0  0  0  0  0
    4.7855   -3.9638   -1.8703 H   0  0  0  0  0  0  0  0  0  0  0  0
    3.5264   -3.0374   -3.3839 C   0  0  0  0  0  0  0  0  0  0  0  0
    3.9386   -3.6420   -4.2054 H   0  0  0  0  0  0  0  0  0  0  0  0
    2.5263   -2.0865   -3.6492 C   0  0  0  0  0  0  0  0  0  0  0  0
    2.1566   -1.9444   -4.6753 H   0  0  0  0  0  0  0  0  0  0  0  0
    1.9953   -1.3166   -2.6057 C   0  0  0  0  0  0  0  0  0  0  0  0
    1.2142   -0.5687   -2.8113 H   0  0  0  0  0  0  0  0  0  0  0  0
    2.0126   -1.3039    1.6151 C   0  0  0  0  0  0  0  0  0  0  0  0
    2.5878   -0.6524    2.7262 C   0  0  0  0  0  0  0  0  0  0  0  0
    2.9802    0.3706    2.6301 H   0  0  0  0  0  0  0  0  0  0  0  0
    2.6672   -1.3236    3.9552 C   0  0  0  0  0  0  0  0  0  0  0  0
    3.1204   -0.8194    4.8213 H   0  0  0  0  0  0  0  0  0  0  0  0
    2.1776   -2.6336    4.0771 C   0  0  0  0  0  0  0  0  0  0  0  0
    2.2437   -3.1558    5.0433 H   0  0  0  0  0  0  0  0  0  0  0  0
    1.6110   -3.2840    2.9676 C   0  0  0  0  0  0  0  0  0  0  0  0
    1.2344   -4.3132    3.0623 H   0  0  0  0  0  0  0  0  0  0  0  0
    1.5259   -2.6263    1.7340 C   0  0  0  0  0  0  0  0  0  0  0  0
    1.0865   -3.1415    0.8671 H   0  0  0  0  0  0  0  0  0  0  0  0
    2.7237    1.1288    0.0429 C   0  0  0  0  0  0  0  0  0  0  0  0
    2.2032    2.2153    0.7812 C   0  0  0  0  0  0  0  0  0  0  0  0
    1.2602    2.1193    1.3382 H   0  0  0  0  0  0  0  0  0  0  0  0
    2.8847    3.4384    0.7831 C   0  0  0  0  0  0  0  0  0  0  0  0
    2.4681    4.2886    1.3430 H   0  0  0  0  0  0  0  0  0  0  0  0
    4.0824    3.5777    0.0615 C   0  0  0  0  0  0  0  0  0  0  0  0
    4.6134    4.5412    0.0627 H   0  0  0  0  0  0  0  0  0  0  0  0
    4.6013    2.4949   -0.6664 C   0  0  0  0  0  0  0  0  0  0  0  0
    5.5373    2.6074   -1.2328 H   0  0  0  0  0  0  0  0  0  0  0  0
    3.9248    1.2666   -0.6831 C   0  0  0  0  0  0  0  0  0  0  0  0
    4.3240    0.4226   -1.2649 H   0  0  0  0  0  0  0  0  0  0  0  0
  1 50  1  0  0  0  0
  1 39  1  0  0  0  0
  2 13  1  6  0  0  0
  2 11  1  0  0  0  0
  3  5  1  0  0  0  0
  3  2  1  0  0  0  0
  4  3  1  0  0  0  0
  5  7  1  0  0  0  0
  6  5  1  0  0  0  0
  7  8  1  0  0  0  0
  7  9  2  0  0  0  0
  9 10  1  0  0  0  0
 11  9  1  0  0  0  0
 11 12  1  0  0  0  0
 13  1  1  0  0  0  0
 14 13  2  0  0  0  0
 15 14  2  0  0  0  0
 15 17  1  0  0  0  0
 16 15  1  0  0  0  0
 17 26  1  0  0  0  0
 18 20  1  0  0  0  0
 18 17  2  0  0  0  0
 19 18  1  0  0  0  0
 20 22  2  0  0  0  0
 21 20  1  0  0  0  0
 22 23  1  0  0  0  0
 22 24  1  0  0  0  0
 24 25  1  0  0  0  0
 26 27  1  0  0  0  0
 26 24  2  0  0  0  0
 28 29  1  0  0  0  0
 28  1  1  0  0  0  0
 29 30  1  0  0  0  0
 31 32  1  0  0  0  0
 31 29  2  0  0  0  0
 33 31  1  0  0  0  0
 34 33  1  0  0  0  0
 35 33  2  0  0  0  0
 35 37  1  0  0  0  0
 36 35  1  0  0  0  0
 37 28  2  0  0  0  0
 38 37  1  0  0  0  0
 39 48  2  0  0  0  0
 39 40  1  0  0  0  0
 40 42  2  0  0  0  0
 41 40  1  0  0  0  0
 42 44  1  0  0  0  0
 42 43  1  0  0  0  0
 44 45  1  0  0  0  0
 46 47  1  0  0  0  0
 46 44  2  0  0  0  0
 48 46  1  0  0  0  0
 49 48  1  0  0  0  0
 50 51  1  0  0  0  0
 51 53  2  0  0  0  0
 51 52  1  0  0  0  0
 53 54  1  0  0  0  0
 55 56  1  0  0  0  0
 55 53  1  0  0  0  0
 57 55  2  0  0  0  0
 58 57  1  0  0  0  0
 59 57  1  0  0  0  0
 59 50  2  0  0  0  0
 60 59  1  0  0  0  0
M  END
