7,11
 OpenBabel05122313053D

 53 53  0  0  1  0  0  0  0  0999 V2000
   -0.5717   -2.1212    1.3632 O   0  0  0  0  0  0  0  0  0  0  0  0
    0.7238    1.6269    0.1868 N   0  0  0  0  0  0  0  0  0  0  0  0
   -0.4788   -0.5218   -0.3690 C   0  0  2  0  0  3  0  0  0  0  0  0
   -1.0382   -1.7384    0.1531 C   0  0  0  0  0  0  0  0  0  0  0  0
   -2.0458   -2.4461   -0.5665 C   0  0  0  0  0  0  0  0  0  0  0  0
   -2.5240   -3.3340   -0.1378 H   0  0  0  0  0  0  0  0  0  0  0  0
   -2.4692   -1.9619   -1.8384 C   0  0  0  0  0  3  0  0  0  0  0  0
   -3.2673   -2.4939   -2.3752 H   0  0  0  0  0  0  0  0  0  0  0  0
   -1.8868   -0.7982   -2.4020 C   0  0  0  0  0  3  0  0  0  0  0  0
   -2.2380   -0.4089   -3.3662 H   0  0  0  0  0  0  0  0  0  0  0  0
   -0.9290   -0.0712   -1.6395 C   0  0  0  0  0  3  0  0  0  0  0  0
   -0.5483    0.8835   -2.0203 H   0  0  0  0  0  0  0  0  0  0  0  0
   -1.2488   -3.1526    2.0691 C   0  0  0  0  0  0  0  0  0  0  0  0
   -0.7375   -3.2416    3.0445 H   0  0  0  0  0  0  0  0  0  0  0  0
   -1.1816   -4.1255    1.5360 H   0  0  0  0  0  0  0  0  0  0  0  0
   -2.3147   -2.8894    2.2377 H   0  0  0  0  0  0  0  0  0  0  0  0
    0.6042    0.2008    0.4507 C   0  0  1  0  0  0  0  0  0  0  0  0
    0.2753    0.0916    1.5048 H   0  0  0  0  0  0  0  0  0  0  0  0
    1.8617   -0.5664    0.3151 C   0  0  0  0  0  0  0  0  0  0  0  0
    2.9011   -1.1983    0.1643 C   0  0  0  0  0  0  0  0  0  0  0  0
    4.1740   -1.8932   -0.0050 C   0  0  0  0  0  0  0  0  0  0  0  0
    4.0996   -2.6032   -0.8598 H   0  0  0  0  0  0  0  0  0  0  0  0
    4.3730   -2.5262    0.8895 H   0  0  0  0  0  0  0  0  0  0  0  0
    5.3685   -0.9456   -0.2334 C   0  0  0  0  0  0  0  0  0  0  0  0
    5.1668   -0.3182   -1.1287 H   0  0  0  0  0  0  0  0  0  0  0  0
    5.4378   -0.2394    0.6225 H   0  0  0  0  0  0  0  0  0  0  0  0
    6.6964   -1.6870   -0.4055 C   0  0  0  0  0  0  0  0  0  0  0  0
    6.8810   -2.3181    0.4925 H   0  0  0  0  0  0  0  0  0  0  0  0
    6.6093   -2.3982   -1.2572 H   0  0  0  0  0  0  0  0  0  0  0  0
    7.8844   -0.7520   -0.6328 C   0  0  0  0  0  0  0  0  0  0  0  0
    8.8318   -1.3144   -0.7545 H   0  0  0  0  0  0  0  0  0  0  0  0
    8.0166   -0.0539    0.2200 H   0  0  0  0  0  0  0  0  0  0  0  0
    7.7423   -0.1343   -1.5440 H   0  0  0  0  0  0  0  0  0  0  0  0
    1.5140    2.0552   -0.9803 C   0  0  0  0  0  0  0  0  0  0  0  0
    1.5309    1.1792   -1.6631 H   0  0  0  0  0  0  0  0  0  0  0  0
    0.8135    3.2139   -1.7085 C   0  0  0  0  0  0  0  0  0  0  0  0
   -0.2458    2.9744   -1.9283 H   0  0  0  0  0  0  0  0  0  0  0  0
    1.3331    3.4620   -2.6563 H   0  0  0  0  0  0  0  0  0  0  0  0
    0.8119    4.1320   -1.0852 H   0  0  0  0  0  0  0  0  0  0  0  0
    2.9886    2.4069   -0.7006 C   0  0  0  0  0  0  0  0  0  0  0  0
    3.0788    3.3088   -0.0612 H   0  0  0  0  0  0  0  0  0  0  0  0
    3.5144    2.6278   -1.6521 H   0  0  0  0  0  0  0  0  0  0  0  0
    3.5141    1.5690   -0.2057 H   0  0  0  0  0  0  0  0  0  0  0  0
    0.7461    2.5012    1.3739 C   0  0  0  0  0  0  0  0  0  0  0  0
    1.0316    3.5025    0.9880 H   0  0  0  0  0  0  0  0  0  0  0  0
   -0.6491    2.6447    1.9946 C   0  0  0  0  0  0  0  0  0  0  0  0
   -0.6263    3.3601    2.8419 H   0  0  0  0  0  0  0  0  0  0  0  0
   -1.0208    1.6793    2.3949 H   0  0  0  0  0  0  0  0  0  0  0  0
   -1.3795    3.0045    1.2464 H   0  0  0  0  0  0  0  0  0  0  0  0
    1.7866    2.1090    2.4417 C   0  0  0  0  0  0  0  0  0  0  0  0
    2.8019    2.0095    2.0146 H   0  0  0  0  0  0  0  0  0  0  0  0
    1.5286    1.1418    2.9209 H   0  0  0  0  0  0  0  0  0  0  0  0
    1.8205    2.8709    3.2468 H   0  0  0  0  0  0  0  0  0  0  0  0
  1 13  1  0  0  0  0
  2 17  1  0  0  0  0
  2 44  1  0  0  0  0
  3  4  1  0  0  0  0
  3 17  1  6  0  0  0
  4  1  1  0  0  0  0
  5  6  1  0  0  0  0
  5  4  2  0  0  0  0
  7  5  1  0  0  0  0
  8  7  1  0  0  0  0
  9  7  1  0  0  0  0
  9 11  1  0  0  0  0
 10  9  1  0  0  0  0
 11  3  1  0  0  0  0
 12 11  1  0  0  0  0
 13 16  1  0  0  0  0
 13 14  1  0  0  0  0
 15 13  1  0  0  0  0
 17 18  1  1  0  0  0
 19 17  1  0  0  0  0
 20 19  3  0  0  0  0
 21 20  1  0  0  0  0
 21 23  1  0  0  0  0
 22 21  1  0  0  0  0
 24 21  1  0  0  0  0
 24 26  1  0  0  0  0
 25 24  1  0  0  0  0
 27 24  1  0  0  0  0
 27 28  1  0  0  0  0
 29 27  1  0  0  0  0
 30 27  1  0  0  0  0
 30 32  1  0  0  0  0
 31 30  1  0  0  0  0
 33 30  1  0  0  0  0
 34 40  1  0  0  0  0
 34  2  1  0  0  0  0
 35 34  1  0  0  0  0
 36 39  1  0  0  0  0
 36 34  1  0  0  0  0
 37 36  1  0  0  0  0
 38 36  1  0  0  0  0
 40 43  1  0  0  0  0
 40 41  1  0  0  0  0
 42 40  1  0  0  0  0
 44 46  1  0  0  0  0
 44 50  1  0  0  0  0
 45 44  1  0  0  0  0
 46 48  1  0  0  0  0
 46 47  1  0  0  0  0
 49 46  1  0  0  0  0
 50 52  1  0  0  0  0
 50 53  1  0  0  0  0
 51 50  1  0  0  0  0
M  END
