2,5
 OpenBabel05122313053D

 78 81  0  0  1  0  0  0  0  0999 V2000
    1.2324    0.0929   -0.0282 P   0  0  0  0  0  0  0  0  0  0  0  0
   -1.3944   -0.3628    1.0884 C   0  0  1  0  0  3  0  0  0  0  0  0
   -2.0588    0.8717    0.7412 C   0  0  0  0  0  0  0  0  0  0  0  0
   -2.8963    0.5903   -0.4109 C   0  0  0  0  0  0  0  0  0  0  0  0
   -2.7655   -0.8073   -0.7366 C   0  0  1  0  0  3  0  0  0  0  0  0
   -1.8551   -1.4163    0.2141 C   0  0  2  0  0  3  0  0  0  0  0  0
   -1.5541   -2.8786    0.3795 C   0  0  0  0  0  0  0  0  0  0  0  0
   -0.5290   -2.9935    0.7845 H   0  0  0  0  0  0  0  0  0  0  0  0
   -1.5492   -3.3782   -0.6131 H   0  0  0  0  0  0  0  0  0  0  0  0
   -2.5330   -3.6020    1.3208 C   0  0  0  0  0  0  0  0  0  0  0  0
   -2.4990   -3.1551    2.3358 H   0  0  0  0  0  0  0  0  0  0  0  0
   -2.2871   -4.6816    1.4160 H   0  0  0  0  0  0  0  0  0  0  0  0
   -3.5794   -3.5213    0.9617 H   0  0  0  0  0  0  0  0  0  0  0  0
   -3.4604   -1.5182   -1.8664 C   0  0  0  0  0  0  0  0  0  0  0  0
   -2.7904   -2.3084   -2.2660 H   0  0  0  0  0  0  0  0  0  0  0  0
   -3.5920   -0.8055   -2.7079 H   0  0  0  0  0  0  0  0  0  0  0  0
   -4.8225   -2.1282   -1.5001 C   0  0  0  0  0  0  0  0  0  0  0  0
   -4.7249   -2.8817   -0.6920 H   0  0  0  0  0  0  0  0  0  0  0  0
   -5.2923   -2.6298   -2.3729 H   0  0  0  0  0  0  0  0  0  0  0  0
   -5.5263   -1.3510   -1.1367 H   0  0  0  0  0  0  0  0  0  0  0  0
   -3.7578    1.5866   -1.1379 C   0  0  0  0  0  0  0  0  0  0  0  0
   -3.8497    1.2699   -2.1984 H   0  0  0  0  0  0  0  0  0  0  0  0
   -3.2351    2.5657   -1.1774 H   0  0  0  0  0  0  0  0  0  0  0  0
   -5.1613    1.7719   -0.5402 C   0  0  0  0  0  0  0  0  0  0  0  0
   -5.1099    2.1349    0.5066 H   0  0  0  0  0  0  0  0  0  0  0  0
   -5.7227    0.8147   -0.5248 H   0  0  0  0  0  0  0  0  0  0  0  0
   -5.7581    2.5065   -1.1219 H   0  0  0  0  0  0  0  0  0  0  0  0
   -1.9500    2.1663    1.4960 C   0  0  0  0  0  0  0  0  0  0  0  0
   -2.0740    3.0181    0.7934 H   0  0  0  0  0  0  0  0  0  0  0  0
   -0.9229    2.2584    1.9035 H   0  0  0  0  0  0  0  0  0  0  0  0
   -2.9524    2.2951    2.6557 C   0  0  0  0  0  0  0  0  0  0  0  0
   -2.8462    3.2681    3.1818 H   0  0  0  0  0  0  0  0  0  0  0  0
   -2.7940    1.4879    3.4003 H   0  0  0  0  0  0  0  0  0  0  0  0
   -4.0003    2.2134    2.3007 H   0  0  0  0  0  0  0  0  0  0  0  0
   -0.3535   -0.5063    2.1431 C   0  0  0  0  0  0  0  0  0  0  0  0
   -0.6761   -0.8044    3.4810 C   0  0  0  0  0  0  0  0  0  0  0  0
   -1.7325   -0.9630    3.7504 H   0  0  0  0  0  0  0  0  0  0  0  0
    0.3290   -0.8870    4.4608 C   0  0  0  0  0  0  0  0  0  0  0  0
    0.0641   -1.1174    5.5050 H   0  0  0  0  0  0  0  0  0  0  0  0
    1.6696   -0.6605    4.1066 C   0  0  0  0  0  0  0  0  0  0  0  0
    2.4586   -0.7087    4.8746 H   0  0  0  0  0  0  0  0  0  0  0  0
    2.0051   -0.3673    2.7749 C   0  0  0  0  0  0  0  0  0  0  0  0
    3.0560   -0.1741    2.5100 H   0  0  0  0  0  0  0  0  0  0  0  0
    1.0057   -0.3014    1.7793 C   0  0  0  0  0  0  0  0  0  0  0  0
    2.3521    1.6243    0.0312 C   0  0  0  0  0  0  0  0  0  0  0  0
    3.2610    1.3985    0.6368 H   0  0  0  0  0  0  0  0  0  0  0  0
    1.5936    2.7787    0.7053 C   0  0  0  0  0  0  0  0  0  0  0  0
    0.6125    2.8933    0.2005 H   0  0  0  0  0  0  0  0  0  0  0  0
    1.3766    2.5126    1.7613 H   0  0  0  0  0  0  0  0  0  0  0  0
    2.3603    4.1056    0.6346 C   0  0  0  0  0  0  0  0  0  0  0  0
    1.7560    4.9169    1.0956 H   0  0  0  0  0  0  0  0  0  0  0  0
    3.2978    4.0312    1.2344 H   0  0  0  0  0  0  0  0  0  0  0  0
    2.7173    4.4580   -0.8146 C   0  0  0  0  0  0  0  0  0  0  0  0
    3.2688    5.4225   -0.8623 H   0  0  0  0  0  0  0  0  0  0  0  0
    1.7759    4.5878   -1.3936 H   0  0  0  0  0  0  0  0  0  0  0  0
    3.5380    3.3319   -1.4545 C   0  0  0  0  0  0  0  0  0  0  0  0
    4.5089    3.2358   -0.9138 H   0  0  0  0  0  0  0  0  0  0  0  0
    3.7887    3.5823   -2.5082 H   0  0  0  0  0  0  0  0  0  0  0  0
    2.7855    1.9945   -1.4000 C   0  0  0  0  0  0  0  0  0  0  0  0
    3.4175    1.1899   -1.8312 H   0  0  0  0  0  0  0  0  0  0  0  0
    1.8790    2.0574   -2.0375 H   0  0  0  0  0  0  0  0  0  0  0  0
    2.4755   -1.1985   -0.6743 C   0  0  0  0  0  0  0  0  0  0  0  0
    2.5192   -0.9255   -1.7548 H   0  0  0  0  0  0  0  0  0  0  0  0
    3.9080   -1.2090   -0.1206 C   0  0  0  0  0  0  0  0  0  0  0  0
    4.3740   -0.2044   -0.1896 H   0  0  0  0  0  0  0  0  0  0  0  0
    3.8792   -1.4733    0.9598 H   0  0  0  0  0  0  0  0  0  0  0  0
    4.7833   -2.2374   -0.8572 C   0  0  0  0  0  0  0  0  0  0  0  0
    4.8843   -1.9251   -1.9215 H   0  0  0  0  0  0  0  0  0  0  0  0
    5.8119   -2.2450   -0.4334 H   0  0  0  0  0  0  0  0  0  0  0  0
    4.1699   -3.6429   -0.8039 C   0  0  0  0  0  0  0  0  0  0  0  0
    4.1718   -3.9955    0.2534 H   0  0  0  0  0  0  0  0  0  0  0  0
    4.7960   -4.3629   -1.3750 H   0  0  0  0  0  0  0  0  0  0  0  0
    2.7275   -3.6389   -1.3264 C   0  0  0  0  0  0  0  0  0  0  0  0
    2.2781   -4.6513   -1.2322 H   0  0  0  0  0  0  0  0  0  0  0  0
    2.7254   -3.3965   -2.4129 H   0  0  0  0  0  0  0  0  0  0  0  0
    1.8627   -2.6032   -0.5971 C   0  0  0  0  0  0  0  0  0  0  0  0
    1.7593   -2.8920    0.4743 H   0  0  0  0  0  0  0  0  0  0  0  0
    0.8433   -2.5789   -1.0247 H   0  0  0  0  0  0  0  0  0  0  0  0
  1 45  1  0  0  0  0
  1 44  1  0  0  0  0
  2 35  1  6  0  0  0
  3  2  1  0  0  0  0
  3 28  1  0  0  0  0
  4  3  2  0  0  0  0
  5 14  1  1  0  0  0
  5  4  1  0  0  0  0
  5  6  1  0  0  0  0
  6  7  1  1  0  0  0
  6  2  1  0  0  0  0
  7  8  1  0  0  0  0
  7 10  1  0  0  0  0
  9  7  1  0  0  0  0
 10 12  1  0  0  0  0
 10 11  1  0  0  0  0
 13 10  1  0  0  0  0
 14 17  1  0  0  0  0
 15 14  1  0  0  0  0
 16 14  1  0  0  0  0
 17 20  1  0  0  0  0
 17 18  1  0  0  0  0
 19 17  1  0  0  0  0
 21 24  1  0  0  0  0
 21  4  1  0  0  0  0
 22 21  1  0  0  0  0
 23 21  1  0  0  0  0
 24 26  1  0  0  0  0
 24 25  1  0  0  0  0
 27 24  1  0  0  0  0
 28 30  1  0  0  0  0
 28 31  1  0  0  0  0
 29 28  1  0  0  0  0
 31 32  1  0  0  0  0
 31 33  1  0  0  0  0
 34 31  1  0  0  0  0
 35 36  1  0  0  0  0
 36 37  1  0  0  0  0
 36 38  2  0  0  0  0
 38 39  1  0  0  0  0
 40 38  1  0  0  0  0
 40 41  1  0  0  0  0
 42 40  2  0  0  0  0
 43 42  1  0  0  0  0
 44 35  2  0  0  0  0
 44 42  1  0  0  0  0
 45 46  1  0  0  0  0
 45 47  1  0  0  0  0
 47 49  1  0  0  0  0
 48 47  1  0  0  0  0
 50 47  1  0  0  0  0
 50 51  1  0  0  0  0
 50 52  1  0  0  0  0
 53 50  1  0  0  0  0
 54 53  1  0  0  0  0
 55 53  1  0  0  0  0
 56 59  1  0  0  0  0
 56 57  1  0  0  0  0
 56 53  1  0  0  0  0
 58 56  1  0  0  0  0
 59 45  1  0  0  0  0
 60 59  1  0  0  0  0
 61 59  1  0  0  0  0
 62 76  1  0  0  0  0
 62 64  1  0  0  0  0
 62  1  1  0  0  0  0
 63 62  1  0  0  0  0
 64 66  1  0  0  0  0
 65 64  1  0  0  0  0
 67 70  1  0  0  0  0
 67 69  1  0  0  0  0
 67 64  1  0  0  0  0
 68 67  1  0  0  0  0
 70 71  1  0  0  0  0
 72 70  1  0  0  0  0
 73 74  1  0  0  0  0
 73 70  1  0  0  0  0
 73 76  1  0  0  0  0
 75 73  1  0  0  0  0
 76 77  1  0  0  0  0
 78 76  1  0  0  0  0
M  END
