23,27
 OpenBabel05122313053D

 44 45  0  0  1  0  0  0  0  0999 V2000
    1.3554    0.4025    0.2720 N   0  0  0  0  0  0  0  0  0  0  0  0
    1.4534    1.4084    0.0251 H   0  0  0  0  0  0  0  0  0  0  0  0
    0.4320    3.0127    0.0434 N   0  0  0  0  0  0  0  0  0  0  0  0
    0.1464    0.1125    0.8137 C   0  0  0  0  0  0  0  0  0  0  0  0
    2.4621   -0.5181    0.0926 C   0  0  0  0  0  0  0  0  0  0  0  0
    2.0350   -1.5408   -0.0151 H   0  0  0  0  0  0  0  0  0  0  0  0
    3.4393   -0.5209    1.2848 C   0  0  0  0  0  0  0  0  0  0  0  0
    2.8948   -0.7894    2.2144 H   0  0  0  0  0  0  0  0  0  0  0  0
    3.8108    0.5188    1.4279 H   0  0  0  0  0  0  0  0  0  0  0  0
    4.6208   -1.4688    1.0446 C   0  0  0  0  0  0  0  0  0  0  0  0
    5.3216   -1.4329    1.9045 H   0  0  0  0  0  0  0  0  0  0  0  0
    4.2444   -2.5156    0.9947 H   0  0  0  0  0  0  0  0  0  0  0  0
    5.3498   -1.1337   -0.2632 C   0  0  0  0  0  0  0  0  0  0  0  0
    5.8195   -0.1282   -0.1710 H   0  0  0  0  0  0  0  0  0  0  0  0
    6.1789   -1.8504   -0.4391 H   0  0  0  0  0  0  0  0  0  0  0  0
    4.3827   -1.1318   -1.4544 C   0  0  0  0  0  0  0  0  0  0  0  0
    4.0002   -2.1642   -1.6176 H   0  0  0  0  0  0  0  0  0  0  0  0
    4.9117   -0.8482   -2.3878 H   0  0  0  0  0  0  0  0  0  0  0  0
    3.1933   -0.1929   -1.2204 C   0  0  0  0  0  0  0  0  0  0  0  0
    3.5538    0.8608   -1.1701 H   0  0  0  0  0  0  0  0  0  0  0  0
    2.4668   -0.2508   -2.0564 H   0  0  0  0  0  0  0  0  0  0  0  0
   -0.9513    1.0393    0.5883 C   0  0  2  0  0  3  0  0  0  0  0  0
   -2.1931    0.8018    1.2487 C   0  0  0  0  0  3  0  0  0  0  0  0
   -3.0173    1.5127    1.1076 H   0  0  0  0  0  0  0  0  0  0  0  0
   -2.4155   -0.3518    2.0514 C   0  0  0  0  0  3  0  0  0  0  0  0
   -3.3941   -0.5251    2.5169 H   0  0  0  0  0  0  0  0  0  0  0  0
   -1.3920   -1.3323    2.1211 C   0  0  0  0  0  3  0  0  0  0  0  0
   -1.5700   -2.2763    2.6552 H   0  0  0  0  0  0  0  0  0  0  0  0
   -0.1309   -1.1165    1.5016 C   0  0  0  0  0  0  0  0  0  0  0  0
    0.6473   -1.8848    1.5806 H   0  0  0  0  0  0  0  0  0  0  0  0
   -0.7414    2.2042   -0.3797 C   0  0  1  0  0  0  0  0  0  0  0  0
   -0.4208    1.7408   -1.3394 H   0  0  0  0  0  0  0  0  0  0  0  0
    0.9207    3.9213   -0.9814 C   0  0  0  0  0  0  0  0  0  0  0  0
    0.2494    4.7962   -1.1710 H   0  0  0  0  0  0  0  0  0  0  0  0
    1.0475    3.3749   -1.9385 H   0  0  0  0  0  0  0  0  0  0  0  0
    1.9101    4.3235   -0.6806 H   0  0  0  0  0  0  0  0  0  0  0  0
    0.2972    3.6509    1.3444 C   0  0  0  0  0  0  0  0  0  0  0  0
    1.2836    4.0374    1.6733 H   0  0  0  0  0  0  0  0  0  0  0  0
   -0.0477    2.9108    2.0937 H   0  0  0  0  0  0  0  0  0  0  0  0
   -0.4192    4.5104    1.3498 H   0  0  0  0  0  0  0  0  0  0  0  0
   -2.0117    3.0160   -0.6621 C   0  0  0  0  0  0  0  0  0  0  0  0
   -2.4034    3.5164    0.2462 H   0  0  0  0  0  0  0  0  0  0  0  0
   -2.8079    2.3647   -1.0707 H   0  0  0  0  0  0  0  0  0  0  0  0
   -1.8086    3.7995   -1.4174 H   0  0  0  0  0  0  0  0  0  0  0  0
  1  4  1  0  0  0  0
  2  1  1  0  0  0  0
  3 37  1  0  0  0  0
  4 29  2  0  0  0  0
  5  1  1  0  0  0  0
  5  7  1  0  0  0  0
  6  5  1  0  0  0  0
  7  9  1  0  0  0  0
  7  8  1  0  0  0  0
 10  7  1  0  0  0  0
 10 11  1  0  0  0  0
 12 10  1  0  0  0  0
 13 14  1  0  0  0  0
 13 10  1  0  0  0  0
 15 13  1  0  0  0  0
 16 19  1  0  0  0  0
 16 13  1  0  0  0  0
 17 16  1  0  0  0  0
 18 16  1  0  0  0  0
 19 20  1  0  0  0  0
 19  5  1  0  0  0  0
 21 19  1  0  0  0  0
 22 31  1  6  0  0  0
 22  4  1  0  0  0  0
 22 23  1  0  0  0  0
 23 25  1  0  0  0  0
 24 23  1  0  0  0  0
 25 27  1  0  0  0  0
 25 26  1  0  0  0  0
 27 28  1  0  0  0  0
 29 30  1  0  0  0  0
 29 27  1  0  0  0  0
 31 32  1  6  0  0  0
 31  3  1  0  0  0  0
 33 36  1  0  0  0  0
 33  3  1  0  0  0  0
 34 33  1  0  0  0  0
 35 33  1  0  0  0  0
 37 40  1  0  0  0  0
 37 38  1  0  0  0  0
 37 39  1  0  0  0  0
 41 31  1  0  0  0  0
 41 42  1  0  0  0  0
 43 41  1  0  0  0  0
 44 41  1  0  0  0  0
M  END
