13,32
 OpenBabel05122313053D

 52 54  0  0  0  0  0  0  0  0999 V2000
    3.9758    0.6060    1.1469 O   0  0  0  0  0  0  0  0  0  0  0  0
    3.9619    0.4657   -1.1598 O   0  0  0  0  0  0  0  0  0  0  0  0
   -3.9618    0.4655    1.1600 O   0  0  0  0  0  0  0  0  0  0  0  0
   -3.9759    0.6063   -1.1467 O   0  0  0  0  0  0  0  0  0  0  0  0
    0.7944    1.9466   -0.0044 C   0  0  0  0  0  0  0  0  0  0  0  0
   -0.7943    1.9467    0.0048 C   0  0  0  0  0  0  0  0  0  0  0  0
   -0.7776    3.4716   -0.0014 C   0  0  0  0  0  0  0  0  0  0  0  0
   -1.2548    3.9242    0.8920 H   0  0  0  0  0  0  0  0  0  0  0  0
   -1.2476    3.9133   -0.9041 H   0  0  0  0  0  0  0  0  0  0  0  0
    0.7779    3.4715    0.0020 C   0  0  0  0  0  0  0  0  0  0  0  0
    1.2552    3.9242   -0.8914 H   0  0  0  0  0  0  0  0  0  0  0  0
    1.2479    3.9131    0.9047 H   0  0  0  0  0  0  0  0  0  0  0  0
    1.7209    0.9777   -0.0201 C   0  0  0  0  0  3  0  0  0  0  0  0
    5.2026   -0.0791    0.7735 C   0  0  0  0  0  0  0  0  0  0  0  0
    5.3477    0.3071   -0.7513 C   0  0  0  0  0  0  0  0  0  0  0  0
    6.3345    0.4076    1.6721 C   0  0  0  0  0  0  0  0  0  0  0  0
    6.1409    0.0986    2.7182 H   0  0  0  0  0  0  0  0  0  0  0  0
    6.4214    1.5093    1.6544 H   0  0  0  0  0  0  0  0  0  0  0  0
    7.3030   -0.0311    1.3582 H   0  0  0  0  0  0  0  0  0  0  0  0
    4.9568   -1.5795    0.9826 C   0  0  0  0  0  0  0  0  0  0  0  0
    4.6507   -1.7515    2.0331 H   0  0  0  0  0  0  0  0  0  0  0  0
    5.8654   -2.1803    0.7825 H   0  0  0  0  0  0  0  0  0  0  0  0
    4.1418   -1.9424    0.3247 H   0  0  0  0  0  0  0  0  0  0  0  0
    6.0386    1.6601   -0.9599 C   0  0  0  0  0  0  0  0  0  0  0  0
    5.8982    1.9733   -2.0128 H   0  0  0  0  0  0  0  0  0  0  0  0
    7.1254    1.6047   -0.7536 H   0  0  0  0  0  0  0  0  0  0  0  0
    5.5946    2.4389   -0.3094 H   0  0  0  0  0  0  0  0  0  0  0  0
    5.9973   -0.7616   -1.6256 C   0  0  0  0  0  0  0  0  0  0  0  0
    6.0474   -0.4074   -2.6740 H   0  0  0  0  0  0  0  0  0  0  0  0
    5.4206   -1.7048   -1.6134 H   0  0  0  0  0  0  0  0  0  0  0  0
    7.0311   -0.9738   -1.2859 H   0  0  0  0  0  0  0  0  0  0  0  0
   -1.7209    0.9779    0.0203 C   0  0  0  0  0  3  0  0  0  0  0  0
   -5.3476    0.3069    0.7515 C   0  0  0  0  0  0  0  0  0  0  0  0
   -5.2026   -0.0789   -0.7734 C   0  0  0  0  0  0  0  0  0  0  0  0
   -6.0385    1.6598    0.9605 C   0  0  0  0  0  0  0  0  0  0  0  0
   -5.8982    1.9727    2.0135 H   0  0  0  0  0  0  0  0  0  0  0  0
   -7.1253    1.6044    0.7541 H   0  0  0  0  0  0  0  0  0  0  0  0
   -5.5945    2.4388    0.3102 H   0  0  0  0  0  0  0  0  0  0  0  0
   -5.9971   -0.7620    1.6256 C   0  0  0  0  0  0  0  0  0  0  0  0
   -6.0471   -0.4080    2.6741 H   0  0  0  0  0  0  0  0  0  0  0  0
   -5.4205   -1.7052    1.6132 H   0  0  0  0  0  0  0  0  0  0  0  0
   -7.0310   -0.9741    1.2859 H   0  0  0  0  0  0  0  0  0  0  0  0
   -6.3345    0.4081   -1.6718 C   0  0  0  0  0  0  0  0  0  0  0  0
   -6.1410    0.0995   -2.7180 H   0  0  0  0  0  0  0  0  0  0  0  0
   -6.4214    1.5098   -1.6537 H   0  0  0  0  0  0  0  0  0  0  0  0
   -7.3031   -0.0307   -1.3579 H   0  0  0  0  0  0  0  0  0  0  0  0
   -4.9568   -1.5792   -0.9830 C   0  0  0  0  0  0  0  0  0  0  0  0
   -4.6509   -1.7509   -2.0336 H   0  0  0  0  0  0  0  0  0  0  0  0
   -5.8653   -2.1801   -0.7829 H   0  0  0  0  0  0  0  0  0  0  0  0
   -4.1416   -1.9423   -0.3254 H   0  0  0  0  0  0  0  0  0  0  0  0
    3.2227    0.7502   -0.0154 B   0  0  0  0  0  0  0  0  0  0  0  0
   -3.2227    0.7502    0.0156 B   0  0  0  0  0  0  0  0  0  0  0  0
  2 15  1  0  0  0  0
  2 51  1  0  0  0  0
  4 34  1  0  0  0  0
  4 52  1  0  0  0  0
  5 10  1  0  0  0  0
  5  6  1  0  0  0  0
  6 32  2  0  0  0  0
  7 10  1  0  0  0  0
  7  6  1  0  0  0  0
  7  8  1  0  0  0  0
  9  7  1  0  0  0  0
 10 12  1  0  0  0  0
 11 10  1  0  0  0  0
 13 51  1  0  0  0  0
 13  5  2  0  0  0  0
 14 20  1  0  0  0  0
 14  1  1  0  0  0  0
 14 16  1  0  0  0  0
 15 14  1  0  0  0  0
 16 17  1  0  0  0  0
 18 16  1  0  0  0  0
 19 16  1  0  0  0  0
 20 21  1  0  0  0  0
 22 20  1  0  0  0  0
 23 20  1  0  0  0  0
 24 26  1  0  0  0  0
 24 15  1  0  0  0  0
 24 27  1  0  0  0  0
 25 24  1  0  0  0  0
 28 30  1  0  0  0  0
 28 31  1  0  0  0  0
 28 15  1  0  0  0  0
 29 28  1  0  0  0  0
 33 35  1  0  0  0  0
 33  3  1  0  0  0  0
 33 39  1  0  0  0  0
 34 33  1  0  0  0  0
 35 36  1  0  0  0  0
 37 35  1  0  0  0  0
 38 35  1  0  0  0  0
 39 40  1  0  0  0  0
 41 39  1  0  0  0  0
 42 39  1  0  0  0  0
 43 45  1  0  0  0  0
 43 46  1  0  0  0  0
 43 34  1  0  0  0  0
 44 43  1  0  0  0  0
 47 49  1  0  0  0  0
 47 34  1  0  0  0  0
 47 50  1  0  0  0  0
 48 47  1  0  0  0  0
 51  1  1  0  0  0  0
 52 32  1  0  0  0  0
 52  3  1  0  0  0  0
M  END
