10,35
 OpenBabel05122313053D

 61 66  0  0  1  0  0  0  0  0999 V2000
   -0.0000    3.5490    0.0000 Si  0  0  0  0  0  0  0  0  0  0  0  0
   -3.5586   -0.2482   -0.2044 N   0  0  0  0  0  0  0  0  0  0  0  0
    3.5586   -0.2482    0.2045 N   0  0  0  0  0  0  0  0  0  0  0  0
   -3.7898    0.5372   -1.3376 C   0  0  0  0  0  0  0  0  0  0  0  0
   -4.5009    0.1932   -2.0959 H   0  0  0  0  0  0  0  0  0  0  0  0
   -2.9847    1.6609   -1.3385 C   0  0  0  0  0  0  0  0  0  0  0  0
   -2.9922    2.4390   -2.1079 H   0  0  0  0  0  0  0  0  0  0  0  0
   -2.1849    1.5917   -0.1374 C   0  0  0  0  0  0  0  0  0  0  0  0
   -1.2190    2.2823    0.6913 C   0  0  1  0  0  3  0  0  0  0  0  0
   -1.0591    1.4535    1.8757 C   0  0  2  0  0  3  0  0  0  0  0  0
   -1.8759    0.2776    1.7670 C   0  0  0  0  0  3  0  0  0  0  0  0
   -1.9418   -0.5157    2.5177 H   0  0  0  0  0  0  0  0  0  0  0  0
   -2.5717    0.3810    0.5339 C   0  0  0  0  0  0  0  0  0  0  0  0
   -0.2217    1.7549    3.0896 C   0  0  0  0  0  0  0  0  0  0  0  0
   -0.6613    2.5967    3.6648 H   0  0  0  0  0  0  0  0  0  0  0  0
    0.8190    2.0299    2.8374 H   0  0  0  0  0  0  0  0  0  0  0  0
   -0.1684    0.8702    3.7508 H   0  0  0  0  0  0  0  0  0  0  0  0
   -4.1539   -1.4989    0.0807 C   0  0  0  0  0  0  0  0  0  0  0  0
   -5.4918   -1.7451   -0.2873 C   0  0  0  0  0  0  0  0  0  0  0  0
   -6.0811   -0.9524   -0.7705 H   0  0  0  0  0  0  0  0  0  0  0  0
   -6.0735   -2.9895   -0.0111 C   0  0  0  0  0  0  0  0  0  0  0  0
   -7.1194   -3.1727   -0.3006 H   0  0  0  0  0  0  0  0  0  0  0  0
   -5.3381   -3.9890    0.6456 C   0  0  0  0  0  0  0  0  0  0  0  0
   -5.8006   -4.9623    0.8671 H   0  0  0  0  0  0  0  0  0  0  0  0
   -4.0076   -3.7364    1.0161 C   0  0  0  0  0  0  0  0  0  0  0  0
   -3.4161   -4.5162    1.5192 H   0  0  0  0  0  0  0  0  0  0  0  0
   -3.4082   -2.5022    0.7322 C   0  0  0  0  0  0  0  0  0  0  0  0
   -2.3515   -2.3285    0.9769 H   0  0  0  0  0  0  0  0  0  0  0  0
    3.7898    0.5372    1.3377 C   0  0  0  0  0  0  0  0  0  0  0  0
    4.5008    0.1932    2.0960 H   0  0  0  0  0  0  0  0  0  0  0  0
    2.9847    1.6608    1.3386 C   0  0  0  0  0  0  0  0  0  0  0  0
    2.9921    2.4389    2.1080 H   0  0  0  0  0  0  0  0  0  0  0  0
    2.1849    1.5917    0.1375 C   0  0  0  0  0  0  0  0  0  0  0  0
    1.2190    2.2823   -0.6912 C   0  0  1  0  0  3  0  0  0  0  0  0
    1.0592    1.4535   -1.8757 C   0  0  2  0  0  3  0  0  0  0  0  0
    1.8760    0.2776   -1.7670 C   0  0  0  0  0  3  0  0  0  0  0  0
    1.9419   -0.5156   -2.5177 H   0  0  0  0  0  0  0  0  0  0  0  0
    2.5717    0.3810   -0.5338 C   0  0  0  0  0  0  0  0  0  0  0  0
    0.2217    1.7550   -3.0896 C   0  0  0  0  0  0  0  0  0  0  0  0
    0.6610    2.5972   -3.6644 H   0  0  0  0  0  0  0  0  0  0  0  0
   -0.8192    2.0294   -2.8374 H   0  0  0  0  0  0  0  0  0  0  0  0
    0.1690    0.8705   -3.7511 H   0  0  0  0  0  0  0  0  0  0  0  0
    4.1539   -1.4989   -0.0807 C   0  0  0  0  0  0  0  0  0  0  0  0
    3.4083   -2.5022   -0.7322 C   0  0  0  0  0  0  0  0  0  0  0  0
    2.3515   -2.3285   -0.9770 H   0  0  0  0  0  0  0  0  0  0  0  0
    4.0076   -3.7364   -1.0161 C   0  0  0  0  0  0  0  0  0  0  0  0
    3.4161   -4.5161   -1.5192 H   0  0  0  0  0  0  0  0  0  0  0  0
    5.3381   -3.9890   -0.6457 C   0  0  0  0  0  0  0  0  0  0  0  0
    5.8007   -4.9622   -0.8671 H   0  0  0  0  0  0  0  0  0  0  0  0
    6.0736   -2.9894    0.0111 C   0  0  0  0  0  0  0  0  0  0  0  0
    7.1194   -3.1726    0.3007 H   0  0  0  0  0  0  0  0  0  0  0  0
    5.4919   -1.7450    0.2873 C   0  0  0  0  0  0  0  0  0  0  0  0
    6.0811   -0.9524    0.7706 H   0  0  0  0  0  0  0  0  0  0  0  0
    0.7994    4.6485    1.3066 C   0  0  0  0  0  0  0  0  0  0  0  0
    1.2772    4.0766    2.1229 H   0  0  0  0  0  0  0  0  0  0  0  0
    0.0343    5.3112    1.7606 H   0  0  0  0  0  0  0  0  0  0  0  0
    1.5733    5.2888    0.8358 H   0  0  0  0  0  0  0  0  0  0  0  0
   -0.7995    4.6484   -1.3066 C   0  0  0  0  0  0  0  0  0  0  0  0
   -1.2771    4.0765   -2.1230 H   0  0  0  0  0  0  0  0  0  0  0  0
   -0.0345    5.3113   -1.7606 H   0  0  0  0  0  0  0  0  0  0  0  0
   -1.5736    5.2885   -0.8359 H   0  0  0  0  0  0  0  0  0  0  0  0
  1 54  1  0  0  0  0
  2 18  1  0  0  0  0
  2 13  1  0  0  0  0
  3 29  1  0  0  0  0
  4  2  1  0  0  0  0
  5  4  1  0  0  0  0
  6  4  2  0  0  0  0
  6  8  1  0  0  0  0
  7  6  1  0  0  0  0
  8 13  2  0  0  0  0
  8  9  1  0  0  0  0
  9  1  1  6  0  0  0
  9 10  1  0  0  0  0
 10 14  1  1  0  0  0
 11 10  1  0  0  0  0
 11 12  1  0  0  0  0
 13 11  1  0  0  0  0
 14 15  1  0  0  0  0
 14 17  1  0  0  0  0
 16 14  1  0  0  0  0
 18 27  1  0  0  0  0
 19 21  1  0  0  0  0
 19 18  2  0  0  0  0
 20 19  1  0  0  0  0
 21 23  2  0  0  0  0
 22 21  1  0  0  0  0
 23 24  1  0  0  0  0
 23 25  1  0  0  0  0
 25 26  1  0  0  0  0
 27 28  1  0  0  0  0
 27 25  2  0  0  0  0
 29 31  2  0  0  0  0
 29 30  1  0  0  0  0
 31 32  1  0  0  0  0
 33 31  1  0  0  0  0
 34  1  1  1  0  0  0
 34 33  1  0  0  0  0
 35 39  1  6  0  0  0
 35 36  1  0  0  0  0
 35 34  1  0  0  0  0
 36 38  1  0  0  0  0
 37 36  1  0  0  0  0
 38 33  2  0  0  0  0
 38  3  1  0  0  0  0
 39 41  1  0  0  0  0
 40 39  1  0  0  0  0
 42 39  1  0  0  0  0
 43  3  1  0  0  0  0
 43 52  1  0  0  0  0
 44 43  2  0  0  0  0
 45 44  1  0  0  0  0
 46 44  1  0  0  0  0
 46 48  2  0  0  0  0
 47 46  1  0  0  0  0
 48 50  1  0  0  0  0
 49 48  1  0  0  0  0
 50 52  2  0  0  0  0
 50 51  1  0  0  0  0
 52 53  1  0  0  0  0
 54 56  1  0  0  0  0
 54 55  1  0  0  0  0
 57 54  1  0  0  0  0
 58 61  1  0  0  0  0
 58  1  1  0  0  0  0
 59 58  1  0  0  0  0
 60 58  1  0  0  0  0
M  END
