1,5
 OpenBabel05122313053D

 28 28  0  0  1  0  0  0  0  0999 V2000
    1.4072    0.5089    0.6466 C   0  0  0  0  0  3  0  0  0  0  0  0
    1.4335   -0.0055    1.6215 H   0  0  0  0  0  0  0  0  0  0  0  0
    0.8685    1.9572    0.7938 C   0  0  1  0  0  0  0  0  0  0  0  0
    1.2717    2.5419   -0.0606 H   0  0  0  0  0  0  0  0  0  0  0  0
   -0.6863    2.0001    0.6897 C   0  0  0  0  0  3  0  0  0  0  0  0
   -1.0523    2.7594   -0.0202 H   0  0  0  0  0  0  0  0  0  0  0  0
   -1.1645    2.1752    1.6692 H   0  0  0  0  0  0  0  0  0  0  0  0
    1.3746    2.6490    2.0966 C   0  0  0  0  0  0  0  0  0  0  0  0
    0.8822    2.1170    2.9457 H   0  0  0  0  0  0  0  0  0  0  0  0
    2.8917    2.5364    2.2849 C   0  0  0  0  0  0  0  0  0  0  0  0
    3.2087    3.0359    3.2239 H   0  0  0  0  0  0  0  0  0  0  0  0
    3.4335    3.0233    1.4470 H   0  0  0  0  0  0  0  0  0  0  0  0
    3.2331    1.4841    2.3238 H   0  0  0  0  0  0  0  0  0  0  0  0
    0.9401    4.1193    2.1416 C   0  0  0  0  0  0  0  0  0  0  0  0
    1.2468    4.6021    3.0923 H   0  0  0  0  0  0  0  0  0  0  0  0
   -0.1571    4.2296    2.0389 H   0  0  0  0  0  0  0  0  0  0  0  0
    1.4147    4.6884    1.3128 H   0  0  0  0  0  0  0  0  0  0  0  0
    2.6761    0.2437   -0.0539 C   0  0  0  0  0  0  0  0  0  0  0  0
    3.2795    1.1116   -1.0010 C   0  0  0  0  0  0  0  0  0  0  0  0
    2.8305    2.0960   -1.2035 H   0  0  0  0  0  0  0  0  0  0  0  0
    4.4568    0.7608   -1.6794 C   0  0  0  0  0  0  0  0  0  0  0  0
    4.8872    1.4630   -2.4108 H   0  0  0  0  0  0  0  0  0  0  0  0
    5.0935   -0.4641   -1.4268 C   0  0  0  0  0  0  0  0  0  0  0  0
    6.0163   -0.7373   -1.9600 H   0  0  0  0  0  0  0  0  0  0  0  0
    4.5402   -1.3233   -0.4595 C   0  0  0  0  0  0  0  0  0  0  0  0
    5.0333   -2.2807   -0.2273 H   0  0  0  0  0  0  0  0  0  0  0  0
    3.3655   -0.9720    0.2120 C   0  0  0  0  0  0  0  0  0  0  0  0
    2.9377   -1.6532    0.9619 H   0  0  0  0  0  0  0  0  0  0  0  0
  1  3  1  0  0  0  0
  1  2  1  0  0  0  0
  3  4  1  6  0  0  0
  3  8  1  0  0  0  0
  5  3  1  0  0  0  0
  5  7  1  0  0  0  0
  6  5  1  0  0  0  0
  8 14  1  0  0  0  0
  8 10  1  0  0  0  0
  8  9  1  0  0  0  0
 10 13  1  0  0  0  0
 10 11  1  0  0  0  0
 12 10  1  0  0  0  0
 14 15  1  0  0  0  0
 16 14  1  0  0  0  0
 17 14  1  0  0  0  0
 18 27  1  0  0  0  0
 18  1  1  0  0  0  0
 19 18  2  0  0  0  0
 20 19  1  0  0  0  0
 21 23  2  0  0  0  0
 21 19  1  0  0  0  0
 22 21  1  0  0  0  0
 23 25  1  0  0  0  0
 24 23  1  0  0  0  0
 25 26  1  0  0  0  0
 25 27  2  0  0  0  0
 27 28  1  0  0  0  0
M  END
