8,12
 OpenBabel05122313053D

 34 34  0  0  1  0  0  0  0  0999 V2000
    2.7175    1.6399   -2.5229 O   0  0  0  0  0  0  0  0  0  0  0  0
    2.9370    2.6569   -0.4960 O   0  0  0  0  0  0  0  0  0  0  0  0
   -3.0535    0.5942   -1.3769 O   0  0  0  0  0  0  0  0  0  0  0  0
   -3.9068   -1.4948   -1.6162 O   0  0  0  0  0  0  0  0  0  0  0  0
   -2.2600    2.4238    1.7838 O   0  0  0  0  0  0  0  0  0  0  0  0
   -3.6143    0.6036    1.6250 O   0  0  0  0  0  0  0  0  0  0  0  0
    1.2442    1.0558   -0.7314 C   0  0  1  0  0  3  0  0  0  0  0  0
    0.4744    0.0284   -1.3763 C   0  0  0  0  0  3  0  0  0  0  0  0
    0.6145   -0.2885   -2.4170 H   0  0  0  0  0  0  0  0  0  0  0  0
   -0.5708   -0.4178   -0.4804 C   0  0  0  0  0  0  0  0  0  0  0  0
   -0.3899    0.2686    0.7593 C   0  0  0  0  0  0  0  0  0  0  0  0
    0.7542    1.1453    0.6145 C   0  0  0  0  0  3  0  0  0  0  0  0
    1.1292    1.8315    1.3823 H   0  0  0  0  0  0  0  0  0  0  0  0
    2.3598    1.7839   -1.3651 C   0  0  0  0  0  0  0  0  0  0  0  0
    4.0358    3.4012   -1.0289 C   0  0  0  0  0  0  0  0  0  0  0  0
    4.8558    2.7242   -1.3445 H   0  0  0  0  0  0  0  0  0  0  0  0
    4.3784    4.0671   -0.2170 H   0  0  0  0  0  0  0  0  0  0  0  0
    3.7220    3.9955   -1.9109 H   0  0  0  0  0  0  0  0  0  0  0  0
   -1.6870   -1.3543   -0.8204 C   0  0  0  0  0  0  0  0  0  0  0  0
   -1.3884   -2.0725   -1.6104 H   0  0  0  0  0  0  0  0  0  0  0  0
   -1.9815   -1.9748    0.0510 H   0  0  0  0  0  0  0  0  0  0  0  0
   -2.9334   -0.6128   -1.2955 C   0  0  0  0  0  0  0  0  0  0  0  0
   -5.1418   -0.9176   -2.0608 C   0  0  0  0  0  0  0  0  0  0  0  0
   -5.6300   -0.3566   -1.2381 H   0  0  0  0  0  0  0  0  0  0  0  0
   -5.7797   -1.7625   -2.3751 H   0  0  0  0  0  0  0  0  0  0  0  0
   -4.9717   -0.2209   -2.9055 H   0  0  0  0  0  0  0  0  0  0  0  0
   -1.2961    0.1994    1.9551 C   0  0  0  0  0  0  0  0  0  0  0  0
   -1.7202   -0.8134    2.0833 H   0  0  0  0  0  0  0  0  0  0  0  0
   -0.7320    0.4641    2.8703 H   0  0  0  0  0  0  0  0  0  0  0  0
   -2.4188    1.2210    1.7909 C   0  0  0  0  0  0  0  0  0  0  0  0
   -4.7139    1.4777    1.3250 C   0  0  0  0  0  0  0  0  0  0  0  0
   -4.7533    2.3223    2.0401 H   0  0  0  0  0  0  0  0  0  0  0  0
   -5.6261    0.8586    1.3998 H   0  0  0  0  0  0  0  0  0  0  0  0
   -4.5983    1.8753    0.2969 H   0  0  0  0  0  0  0  0  0  0  0  0
  1 14  2  0  0  0  0
  3 22  2  0  0  0  0
  4 22  1  0  0  0  0
  5 30  2  0  0  0  0
  6 30  1  0  0  0  0
  7 14  1  1  0  0  0
  7 12  1  0  0  0  0
  8  7  1  0  0  0  0
  8 10  1  0  0  0  0
  9  8  1  0  0  0  0
 10 11  2  0  0  0  0
 11 27  1  0  0  0  0
 12 11  1  0  0  0  0
 12 13  1  0  0  0  0
 14  2  1  0  0  0  0
 15  2  1  0  0  0  0
 15 17  1  0  0  0  0
 16 15  1  0  0  0  0
 18 15  1  0  0  0  0
 19 10  1  0  0  0  0
 19 21  1  0  0  0  0
 20 19  1  0  0  0  0
 22 19  1  0  0  0  0
 23  4  1  0  0  0  0
 23 24  1  0  0  0  0
 25 23  1  0  0  0  0
 26 23  1  0  0  0  0
 27 28  1  0  0  0  0
 27 29  1  0  0  0  0
 30 27  1  0  0  0  0
 31 33  1  0  0  0  0
 31  6  1  0  0  0  0
 31 32  1  0  0  0  0
 34 31  1  0  0  0  0
M  END
