2,4
 OpenBabel05122313053D

 28 29  0  0  0  0  0  0  0  0999 V2000
    0.5675    2.3163   -1.7874 O   0  0  0  0  0  0  0  0  0  0  0  0
    0.7050    1.1250   -1.5732 C   0  0  0  0  0  3  0  0  0  0  0  0
    0.6464   -2.7434   -1.1575 O   0  0  0  0  0  0  0  0  0  0  0  0
    0.7410   -1.5335   -1.2337 C   0  0  0  0  0  3  0  0  0  0  0  0
    2.0097    0.5493   -1.0884 C   0  0  0  0  0  0  0  0  0  0  0  0
    2.0154   -0.8062   -0.8767 C   0  0  0  0  0  0  0  0  0  0  0  0
    3.1516    1.4577   -0.8626 C   0  0  0  0  0  0  0  0  0  0  0  0
    2.9708    2.7001   -0.2102 C   0  0  0  0  0  0  0  0  0  0  0  0
    1.9650    2.9985    0.1149 H   0  0  0  0  0  0  0  0  0  0  0  0
    4.0647    3.5443    0.0266 C   0  0  0  0  0  0  0  0  0  0  0  0
    3.9093    4.5020    0.5461 H   0  0  0  0  0  0  0  0  0  0  0  0
    5.3493    3.1764   -0.4025 C   0  0  0  0  0  0  0  0  0  0  0  0
    6.2053    3.8442   -0.2222 H   0  0  0  0  0  0  0  0  0  0  0  0
    5.5360    1.9545   -1.0711 C   0  0  0  0  0  0  0  0  0  0  0  0
    6.5381    1.6639   -1.4213 H   0  0  0  0  0  0  0  0  0  0  0  0
    4.4500    1.1012   -1.2955 C   0  0  0  0  0  0  0  0  0  0  0  0
    4.5987    0.1454   -1.8183 H   0  0  0  0  0  0  0  0  0  0  0  0
    3.0948   -1.5766   -0.2300 C   0  0  0  0  0  0  0  0  0  0  0  0
    3.6689   -1.1101    0.9757 C   0  0  0  0  0  0  0  0  0  0  0  0
    3.3092   -0.1689    1.4145 H   0  0  0  0  0  0  0  0  0  0  0  0
    4.6692   -1.8466    1.6195 C   0  0  0  0  0  0  0  0  0  0  0  0
    5.0971   -1.4742    2.5626 H   0  0  0  0  0  0  0  0  0  0  0  0
    5.1215   -3.0567    1.0669 C   0  0  0  0  0  0  0  0  0  0  0  0
    5.9126   -3.6328    1.5707 H   0  0  0  0  0  0  0  0  0  0  0  0
    4.5538   -3.5324   -0.1255 C   0  0  0  0  0  0  0  0  0  0  0  0
    4.8999   -4.4823   -0.5606 H   0  0  0  0  0  0  0  0  0  0  0  0
    3.5386   -2.8075   -0.7648 C   0  0  0  0  0  0  0  0  0  0  0  0
    3.0875   -3.1892   -1.6904 H   0  0  0  0  0  0  0  0  0  0  0  0
  1  2  2  0  0  0  0
  2  5  1  0  0  0  0
  4  3  2  0  0  0  0
  4  6  1  0  0  0  0
  5  6  2  0  0  0  0
  5  7  1  0  0  0  0
  6 18  1  0  0  0  0
  7  8  1  0  0  0  0
  8 10  2  0  0  0  0
  8  9  1  0  0  0  0
 10 11  1  0  0  0  0
 12 13  1  0  0  0  0
 12 10  1  0  0  0  0
 14 12  2  0  0  0  0
 15 14  1  0  0  0  0
 16 14  1  0  0  0  0
 16  7  2  0  0  0  0
 17 16  1  0  0  0  0
 18 19  1  0  0  0  0
 19 20  1  0  0  0  0
 19 21  2  0  0  0  0
 21 22  1  0  0  0  0
 23 24  1  0  0  0  0
 23 21  1  0  0  0  0
 25 23  2  0  0  0  0
 26 25  1  0  0  0  0
 27 18  2  0  0  0  0
 27 25  1  0  0  0  0
 28 27  1  0  0  0  0
M  END
