7,18
 OpenBabel05122313053D

 25 26  0  0  0  0  0  0  0  0999 V2000
   -2.5419    1.5692   -0.8783 N   0  0  0  0  0  0  0  0  0  0  0  0
   -1.2538    2.6753    0.4949 N   0  0  0  0  0  0  0  0  0  0  0  0
    1.2539    2.6753    0.4948 N   0  0  0  0  0  0  0  0  0  0  0  0
    0.0001    3.0503    1.3628 B   0  0  0  0  0  0  0  0  0  0  0  0
    0.0001    2.3949    2.4084 H   0  0  0  0  0  0  0  0  0  0  0  0
    0.0001    4.2635    1.5680 H   0  0  0  0  0  0  0  0  0  0  0  0
   -1.3717    1.4925   -0.1657 C   0  0  0  0  0  2  0  0  0  0  0  0
   -3.1661    2.7898   -0.6417 C   0  0  0  0  0  0  0  0  0  0  0  0
   -4.1110    3.0666   -1.1187 H   0  0  0  0  0  0  0  0  0  0  0  0
   -2.3444    3.4782    0.2201 C   0  0  0  0  0  0  0  0  0  0  0  0
   -2.4429    4.4810    0.6467 H   0  0  0  0  0  0  0  0  0  0  0  0
   -3.0496    0.5401   -1.7684 C   0  0  0  0  0  0  0  0  0  0  0  0
   -3.3591    0.9900   -2.7320 H   0  0  0  0  0  0  0  0  0  0  0  0
   -3.9191    0.0132   -1.3231 H   0  0  0  0  0  0  0  0  0  0  0  0
   -2.2453   -0.1950   -1.9502 H   0  0  0  0  0  0  0  0  0  0  0  0
    2.3445    3.4782    0.2199 C   0  0  0  0  0  0  0  0  0  0  0  0
    2.4429    4.4809    0.6465 H   0  0  0  0  0  0  0  0  0  0  0  0
    1.3717    1.4924   -0.1657 C   0  0  0  0  0  2  0  0  0  0  0  0
    2.5418    1.5692   -0.8784 N   0  0  0  0  0  0  0  0  0  0  0  0
    3.1660    2.7897   -0.6419 C   0  0  0  0  0  0  0  0  0  0  0  0
    4.1110    3.0665   -1.1190 H   0  0  0  0  0  0  0  0  0  0  0  0
    3.0495    0.5399   -1.7684 C   0  0  0  0  0  0  0  0  0  0  0  0
    2.2450   -0.1948   -1.9508 H   0  0  0  0  0  0  0  0  0  0  0  0
    3.3598    0.9898   -2.7318 H   0  0  0  0  0  0  0  0  0  0  0  0
    3.9185    0.0125   -1.3227 H   0  0  0  0  0  0  0  0  0  0  0  0
  1  8  1  0  0  0  0
  1  7  1  0  0  0  0
  2  4  1  0  0  0  0
  3  4  1  0  0  0  0
  4  6  1  0  0  0  0
  4  5  1  0  0  0  0
  7  2  1  0  0  0  0
  8 10  2  0  0  0  0
  9  8  1  0  0  0  0
 10  2  1  0  0  0  0
 10 11  1  0  0  0  0
 12 14  1  0  0  0  0
 12  1  1  0  0  0  0
 13 12  1  0  0  0  0
 15 12  1  0  0  0  0
 16  3  1  0  0  0  0
 16 17  1  0  0  0  0
 18  3  1  0  0  0  0
 19 20  1  0  0  0  0
 19 18  1  0  0  0  0
 20 16  2  0  0  0  0
 21 20  1  0  0  0  0
 22 25  1  0  0  0  0
 22 19  1  0  0  0  0
 23 22  1  0  0  0  0
 24 22  1  0  0  0  0
M  END
