3,33
 OpenBabel05122313053D

 51 54  0  0  1  0  0  0  0  0999 V2000
   -3.9273   -0.1619   -0.2210 Si  0  0  0  0  0  0  0  0  0  0  0  0
    0.8578   -0.6440    2.6407 C   0  0  0  0  0  0  0  0  0  0  0  0
    1.6294    0.0490    1.4907 C   0  0  0  0  0  3  0  0  0  0  0  0
    2.4383   -0.6131    0.4714 C   0  0  0  0  0  0  0  0  0  0  0  0
    2.9369   -1.9456    0.3094 C   0  0  0  0  0  0  0  0  0  0  0  0
    2.7754   -2.7083    1.0776 H   0  0  0  0  0  0  0  0  0  0  0  0
    3.6722   -2.2788   -0.8214 C   0  0  0  0  0  0  0  0  0  0  0  0
    4.0526   -3.3064   -0.9234 H   0  0  0  0  0  0  0  0  0  0  0  0
    3.9454   -1.3346   -1.8461 C   0  0  0  0  0  0  0  0  0  0  0  0
    4.5250   -1.6406   -2.7290 H   0  0  0  0  0  0  0  0  0  0  0  0
    3.4842   -0.0304   -1.7309 C   0  0  0  0  0  0  0  0  0  0  0  0
    3.6862    0.7126   -2.5162 H   0  0  0  0  0  0  0  0  0  0  0  0
    2.7310    0.3378   -0.5911 C   0  0  0  0  0  0  0  0  0  0  0  0
    2.1421    1.6026   -0.2275 C   0  0  0  0  0  0  0  0  0  0  0  0
    2.1490    2.8458   -0.9024 C   0  0  0  0  0  0  0  0  0  0  0  0
    2.6602    2.9392   -1.8717 H   0  0  0  0  0  0  0  0  0  0  0  0
    1.4928    3.9290   -0.3338 C   0  0  0  0  0  0  0  0  0  0  0  0
    1.4808    4.9008   -0.8482 H   0  0  0  0  0  0  0  0  0  0  0  0
    0.8358    3.7864    0.9169 C   0  0  0  0  0  0  0  0  0  0  0  0
    0.3263    4.6566    1.3575 H   0  0  0  0  0  0  0  0  0  0  0  0
    0.8162    2.5793    1.6048 C   0  0  0  0  0  0  0  0  0  0  0  0
    0.3125    2.5329    2.5749 H   0  0  0  0  0  0  0  0  0  0  0  0
    1.4797    1.4349    1.0577 C   0  0  0  0  0  0  0  0  0  0  0  0
    0.5262    0.2902    3.8187 C   0  0  0  0  0  0  0  0  0  0  0  0
   -0.2034    1.0765    3.5640 H   0  0  0  0  0  0  0  0  0  0  0  0
    1.4438    0.7791    4.2007 H   0  0  0  0  0  0  0  0  0  0  0  0
    0.0787   -0.3021    4.6408 H   0  0  0  0  0  0  0  0  0  0  0  0
    1.5968   -1.8549    3.2398 C   0  0  0  0  0  0  0  0  0  0  0  0
    1.0381   -2.2276    4.1208 H   0  0  0  0  0  0  0  0  0  0  0  0
    2.6145   -1.5659    3.5687 H   0  0  0  0  0  0  0  0  0  0  0  0
    1.6894   -2.7044    2.5435 H   0  0  0  0  0  0  0  0  0  0  0  0
   -0.4014   -1.0583    1.8697 C   0  0  1  0  0  3  0  0  0  0  0  0
   -1.4897   -0.1888    1.5294 C   0  0  0  0  0  3  0  0  0  0  0  0
   -1.7059    0.7806    1.9962 H   0  0  0  0  0  0  0  0  0  0  0  0
   -2.2626   -0.7660    0.4587 C   0  0  0  0  0  0  0  0  0  0  0  0
   -1.6166   -1.9925    0.1244 C   0  0  0  0  0  0  0  0  0  0  0  0
   -1.9286   -2.6864   -0.6656 H   0  0  0  0  0  0  0  0  0  0  0  0
   -0.4806   -2.1727    0.9698 C   0  0  0  0  0  3  0  0  0  0  0  0
    0.2231   -3.0115    0.9098 H   0  0  0  0  0  0  0  0  0  0  0  0
   -4.2205    1.6161    0.3421 C   0  0  0  0  0  0  0  0  0  0  0  0
   -3.4346    2.2872   -0.0568 H   0  0  0  0  0  0  0  0  0  0  0  0
   -4.2219    1.6905    1.4493 H   0  0  0  0  0  0  0  0  0  0  0  0
   -5.2053    1.9780   -0.0186 H   0  0  0  0  0  0  0  0  0  0  0  0
   -5.2435   -1.2942    0.5422 C   0  0  0  0  0  0  0  0  0  0  0  0
   -6.2595   -1.0014    0.2044 H   0  0  0  0  0  0  0  0  0  0  0  0
   -5.2224   -1.2421    1.6499 H   0  0  0  0  0  0  0  0  0  0  0  0
   -5.0785   -2.3512    0.2489 H   0  0  0  0  0  0  0  0  0  0  0  0
   -3.9606   -0.3341   -2.0994 C   0  0  0  0  0  0  0  0  0  0  0  0
   -3.2264    0.3525   -2.5644 H   0  0  0  0  0  0  0  0  0  0  0  0
   -4.9696   -0.0980   -2.4958 H   0  0  0  0  0  0  0  0  0  0  0  0
   -3.7076   -1.3686   -2.4101 H   0  0  0  0  0  0  0  0  0  0  0  0
  1 40  1  0  0  0  0
  1 35  1  0  0  0  0
  1 44  1  0  0  0  0
  2 28  1  0  0  0  0
  2 24  1  0  0  0  0
  3  2  1  0  0  0  0
  4  3  1  0  0  0  0
  5  4  1  0  0  0  0
  5  6  1  0  0  0  0
  7  5  2  0  0  0  0
  8  7  1  0  0  0  0
  9 11  2  0  0  0  0
  9  7  1  0  0  0  0
 10  9  1  0  0  0  0
 11 13  1  0  0  0  0
 12 11  1  0  0  0  0
 13 14  1  0  0  0  0
 13  4  2  0  0  0  0
 14 23  1  0  0  0  0
 15 17  1  0  0  0  0
 15 14  2  0  0  0  0
 16 15  1  0  0  0  0
 17 19  2  0  0  0  0
 18 17  1  0  0  0  0
 19 20  1  0  0  0  0
 19 21  1  0  0  0  0
 21 22  1  0  0  0  0
 23  3  1  0  0  0  0
 23 21  2  0  0  0  0
 24 26  1  0  0  0  0
 24 27  1  0  0  0  0
 25 24  1  0  0  0  0
 28 30  1  0  0  0  0
 28 29  1  0  0  0  0
 31 28  1  0  0  0  0
 32  2  1  6  0  0  0
 33 32  1  0  0  0  0
 33 34  1  0  0  0  0
 35 33  1  0  0  0  0
 36 35  2  0  0  0  0
 36 38  1  0  0  0  0
 37 36  1  0  0  0  0
 38 32  1  0  0  0  0
 39 38  1  0  0  0  0
 40 42  1  0  0  0  0
 41 40  1  0  0  0  0
 43 40  1  0  0  0  0
 44 46  1  0  0  0  0
 45 44  1  0  0  0  0
 47 44  1  0  0  0  0
 48  1  1  0  0  0  0
 49 48  1  0  0  0  0
 50 48  1  0  0  0  0
 51 48  1  0  0  0  0
M  END
