3,16
 OpenBabel05122313053D

 40 40  0  0  0  0  0  0  0  0999 V2000
   -5.2451    0.2973   -0.0080 Si  0  0  0  0  0  0  0  0  0  0  0  0
   -0.8796   -2.2741    0.0210 Si  0  0  0  0  0  0  0  0  0  0  0  0
    1.3655    1.9684    0.0009 C   0  0  0  0  0  3  0  0  0  0  0  0
    1.9957    3.2261   -0.0057 C   0  0  0  0  0  0  0  0  0  0  0  0
    3.0987    3.2895   -0.0205 H   0  0  0  0  0  0  0  0  0  0  0  0
    1.2591    4.4255    0.0060 C   0  0  0  0  0  0  0  0  0  0  0  0
    1.7808    5.3958    0.0008 H   0  0  0  0  0  0  0  0  0  0  0  0
   -0.1441    4.3792    0.0248 C   0  0  0  0  0  0  0  0  0  0  0  0
   -0.7293    5.3117    0.0345 H   0  0  0  0  0  0  0  0  0  0  0  0
   -0.8015    3.1412    0.0305 C   0  0  0  0  0  0  0  0  0  0  0  0
   -1.9020    3.0965    0.0439 H   0  0  0  0  0  0  0  0  0  0  0  0
   -0.0658    1.9343    0.0184 C   0  0  0  0  0  0  0  0  0  0  0  0
   -0.7482    0.6045    0.0212 C   0  0  0  0  0  0  0  0  0  0  0  0
   -2.1811    0.5955    0.0335 C   0  0  0  0  0  0  0  0  0  0  0  0
   -3.4183    0.5345    0.0381 C   0  0  0  0  0  0  0  0  0  0  0  0
   -0.0332   -0.5880    0.0077 C   0  0  0  0  0  3  0  0  0  0  0  0
   -6.0859    1.7263    0.9000 C   0  0  0  0  0  0  0  0  0  0  0  0
   -5.7546    1.7729    1.9570 H   0  0  0  0  0  0  0  0  0  0  0  0
   -7.1888    1.6044    0.8882 H   0  0  0  0  0  0  0  0  0  0  0  0
   -5.8411    2.6964    0.4222 H   0  0  0  0  0  0  0  0  0  0  0  0
   -5.7935    0.2516   -1.8183 C   0  0  0  0  0  0  0  0  0  0  0  0
   -5.5421    1.2010   -2.3325 H   0  0  0  0  0  0  0  0  0  0  0  0
   -6.8897    0.0957   -1.8932 H   0  0  0  0  0  0  0  0  0  0  0  0
   -5.2894   -0.5740   -2.3606 H   0  0  0  0  0  0  0  0  0  0  0  0
   -5.6459   -1.3506    0.8313 C   0  0  0  0  0  0  0  0  0  0  0  0
   -5.1226   -2.1862    0.3238 H   0  0  0  0  0  0  0  0  0  0  0  0
   -6.7365   -1.5534    0.7992 H   0  0  0  0  0  0  0  0  0  0  0  0
   -5.3268   -1.3450    1.8932 H   0  0  0  0  0  0  0  0  0  0  0  0
   -2.0051   -2.5142   -1.4902 C   0  0  0  0  0  0  0  0  0  0  0  0
   -2.7954   -1.7389   -1.5197 H   0  0  0  0  0  0  0  0  0  0  0  0
   -2.4892   -3.5127   -1.4571 H   0  0  0  0  0  0  0  0  0  0  0  0
   -1.4277   -2.4496   -2.4356 H   0  0  0  0  0  0  0  0  0  0  0  0
   -1.8766   -2.5179    1.6184 C   0  0  0  0  0  0  0  0  0  0  0  0
   -1.2195   -2.4959    2.5121 H   0  0  0  0  0  0  0  0  0  0  0  0
   -2.4008   -3.4964    1.6078 H   0  0  0  0  0  0  0  0  0  0  0  0
   -2.6333   -1.7171    1.7301 H   0  0  0  0  0  0  0  0  0  0  0  0
    0.4296   -3.6560   -0.0477 C   0  0  0  0  0  0  0  0  0  0  0  0
    1.0021   -3.6374   -0.9971 H   0  0  0  0  0  0  0  0  0  0  0  0
   -0.0690   -4.6456    0.0163 H   0  0  0  0  0  0  0  0  0  0  0  0
    1.1528   -3.5962    0.7906 H   0  0  0  0  0  0  0  0  0  0  0  0
  1 15  1  0  0  0  0
  1 25  1  0  0  0  0
  1 17  1  0  0  0  0
  2 33  1  0  0  0  0
  3 12  1  0  0  0  0
  4  3  2  0  0  0  0
  4  6  1  0  0  0  0
  5  4  1  0  0  0  0
  6  8  2  0  0  0  0
  7  6  1  0  0  0  0
  8 10  1  0  0  0  0
  8  9  1  0  0  0  0
 10 11  1  0  0  0  0
 12 13  1  0  0  0  0
 12 10  2  0  0  0  0
 13 14  1  0  0  0  0
 14 15  3  0  0  0  0
 16  2  1  0  0  0  0
 16 13  2  0  0  0  0
 17 18  1  0  0  0  0
 19 17  1  0  0  0  0
 20 17  1  0  0  0  0
 21  1  1  0  0  0  0
 22 21  1  0  0  0  0
 23 21  1  0  0  0  0
 24 21  1  0  0  0  0
 25 28  1  0  0  0  0
 26 25  1  0  0  0  0
 27 25  1  0  0  0  0
 29 31  1  0  0  0  0
 29  2  1  0  0  0  0
 30 29  1  0  0  0  0
 32 29  1  0  0  0  0
 33 36  1  0  0  0  0
 33 34  1  0  0  0  0
 35 33  1  0  0  0  0
 37 39  1  0  0  0  0
 37  2  1  0  0  0  0
 37 40  1  0  0  0  0
 38 37  1  0  0  0  0
M  END
