31,32
 OpenBabel05122313053D

 32 31  0  0  1  0  0  0  0  0999 V2000
   -2.5958   -0.0612   -0.0086 P   0  0  0  0  0  4  0  0  0  0  0  0
   -0.6279   -1.4534    1.0012 O   0  0  0  0  0  0  0  0  0  0  0  0
   -0.3614    0.3875   -2.0243 O   0  0  0  0  0  0  0  0  0  0  0  0
    1.1145   -1.5711    2.3926 O   0  0  0  0  0  0  0  0  0  0  0  0
   -4.8126    0.9285   -1.4867 C   0  0  0  0  0  0  0  0  0  0  0  0
   -5.2636    1.0348   -2.4930 H   0  0  0  0  0  0  0  0  0  0  0  0
   -4.6436    1.9496   -1.0919 H   0  0  0  0  0  0  0  0  0  0  0  0
   -5.5651    0.4337   -0.8410 H   0  0  0  0  0  0  0  0  0  0  0  0
   -1.3848   -2.3286   -1.1269 C   0  0  0  0  0  0  0  0  0  0  0  0
   -2.1867   -2.9402   -0.6658 H   0  0  0  0  0  0  0  0  0  0  0  0
   -0.4775   -2.9601   -1.1801 H   0  0  0  0  0  0  0  0  0  0  0  0
   -1.6691   -2.0460   -2.1585 H   0  0  0  0  0  0  0  0  0  0  0  0
   -3.5129    0.1261   -1.5835 C   0  0  0  0  0  0  0  0  0  0  0  0
   -2.7673    0.5825   -2.2683 H   0  0  0  0  0  0  0  0  0  0  0  0
   -3.6986   -0.8996   -1.9632 H   0  0  0  0  0  0  0  0  0  0  0  0
   -3.2001   -0.9625    2.6370 C   0  0  0  0  0  0  0  0  0  0  0  0
   -3.9320   -1.5116    3.2616 H   0  0  0  0  0  0  0  0  0  0  0  0
   -3.1160    0.0636    3.0457 H   0  0  0  0  0  0  0  0  0  0  0  0
   -2.2114   -1.4480    2.7278 H   0  0  0  0  0  0  0  0  0  0  0  0
   -1.0523   -1.0924   -0.2793 C   0  0  1  0  0  0  0  0  0  0  0  0
   -1.8174    2.6804   -0.2625 C   0  0  0  0  0  0  0  0  0  0  0  0
   -1.5966    3.5976    0.3175 H   0  0  0  0  0  0  0  0  0  0  0  0
   -2.6135    2.9264   -0.9930 H   0  0  0  0  0  0  0  0  0  0  0  0
   -0.9089    2.4075   -0.8287 H   0  0  0  0  0  0  0  0  0  0  0  0
   -3.6761   -0.9545    1.1802 C   0  0  0  0  0  0  0  0  0  0  0  0
   -4.6762   -0.4789    1.0849 H   0  0  0  0  0  0  0  0  0  0  0  0
   -3.7798   -1.9864    0.7823 H   0  0  0  0  0  0  0  0  0  0  0  0
   -2.2327    1.5745    0.7116 C   0  0  0  0  0  0  0  0  0  0  0  0
   -3.1443    1.8528    1.2827 H   0  0  0  0  0  0  0  0  0  0  0  0
   -1.4099    1.3887    1.4392 H   0  0  0  0  0  0  0  0  0  0  0  0
    0.0276   -0.2332   -1.0391 C   0  0  0  0  0  3  0  0  0  0  0  0
    0.7815   -1.2291    1.2915 C   0  0  0  0  0  3  0  0  0  0  0  0
  1 28  1  0  0  0  0
  1 25  1  0  0  0  0
  2 32  1  0  0  0  0
  3 31  2  0  0  0  0
  5  7  1  0  0  0  0
  5  8  1  0  0  0  0
  6  5  1  0  0  0  0
  9 10  1  0  0  0  0
  9 20  1  0  0  0  0
 11  9  1  0  0  0  0
 12  9  1  0  0  0  0
 13  5  1  0  0  0  0
 13  1  1  0  0  0  0
 14 13  1  0  0  0  0
 15 13  1  0  0  0  0
 16 19  1  0  0  0  0
 16 18  1  0  0  0  0
 16 17  1  0  0  0  0
 20 31  1  6  0  0  0
 20  1  1  0  0  0  0
 20  2  1  0  0  0  0
 21 22  1  0  0  0  0
 21 28  1  0  0  0  0
 23 21  1  0  0  0  0
 24 21  1  0  0  0  0
 25 16  1  0  0  0  0
 26 25  1  0  0  0  0
 27 25  1  0  0  0  0
 28 29  1  0  0  0  0
 28 30  1  0  0  0  0
 32  4  2  0  0  0  0
M  END
