21,27
 OpenBabel05122313053D

 29 32  0  0  1  0  0  0  0  0999 V2000
   -1.6956    1.7557   -0.1792 S   0  0  0  0  0  0  0  0  0  0  0  0
   -1.3410   -0.5385   -2.0876 O   0  0  0  0  0  0  0  0  0  0  0  0
   -1.2706    0.4457   -2.0403 H   0  0  0  0  0  0  0  0  0  0  0  0
   -1.3259    0.0020    2.7222 O   0  0  0  0  0  0  0  0  0  0  0  0
   -3.4539    1.9648   -0.2322 C   0  0  0  0  0  0  0  0  0  0  0  0
   -3.8419    2.9485   -0.5345 H   0  0  0  0  0  0  0  0  0  0  0  0
   -4.1785    0.8895    0.1313 C   0  0  0  0  0  0  0  0  0  0  0  0
   -5.2786    0.8935    0.1557 H   0  0  0  0  0  0  0  0  0  0  0  0
   -3.3909   -0.3439    0.4784 C   0  0  1  0  0  0  0  0  0  0  0  0
   -3.5763   -0.6331    1.5375 H   0  0  0  0  0  0  0  0  0  0  0  0
   -3.6295   -1.5538   -0.4718 C   0  0  0  0  0  0  0  0  0  0  0  0
   -4.4031   -2.2508   -0.0942 H   0  0  0  0  0  0  0  0  0  0  0  0
   -3.9572   -1.1762   -1.4607 H   0  0  0  0  0  0  0  0  0  0  0  0
   -2.2500   -2.2060   -0.6248 C   0  0  0  0  0  0  0  0  0  0  0  0
   -1.9847   -2.7915    0.2806 H   0  0  0  0  0  0  0  0  0  0  0  0
   -2.1651   -2.8729   -1.5050 H   0  0  0  0  0  0  0  0  0  0  0  0
   -1.2925   -0.9990   -0.7653 C   0  0  1  0  0  0  0  0  0  0  0  0
    0.1092   -1.2987   -0.2533 C   0  0  0  0  0  0  0  0  0  0  0  0
    1.2039   -1.8761   -0.9517 C   0  0  0  0  0  0  0  0  0  0  0  0
    1.1197   -2.0988   -2.0240 H   0  0  0  0  0  0  0  0  0  0  0  0
    2.4219   -2.0712   -0.2484 C   0  0  0  0  0  3  0  0  0  0  0  0
    3.2997   -2.4626   -0.7814 H   0  0  0  0  0  0  0  0  0  0  0  0
    2.5437   -1.7226    1.1398 C   0  0  0  0  0  0  0  0  0  0  0  0
    3.5126   -1.8452    1.6432 H   0  0  0  0  0  0  0  0  0  0  0  0
    1.4579   -1.1347    1.8294 C   0  0  0  0  0  0  0  0  0  0  0  0
    1.5479   -0.8006    2.8724 H   0  0  0  0  0  0  0  0  0  0  0  0
    0.2352   -0.9311    1.1173 C   0  0  1  0  0  3  0  0  0  0  0  0
   -1.0103   -0.2617    1.5755 C   0  0  0  0  0  0  0  0  0  0  0  0
   -1.8748   -0.0190    0.3160 C   0  0  1  0  0  0  0  0  0  0  0  0
  2  3  1  0  0  0  0
  5  1  1  0  0  0  0
  5  7  2  0  0  0  0
  6  5  1  0  0  0  0
  7  8  1  0  0  0  0
  7  9  1  0  0  0  0
  9 10  1  1  0  0  0
 11 12  1  0  0  0  0
 11  9  1  0  0  0  0
 13 11  1  0  0  0  0
 14 11  1  0  0  0  0
 14 15  1  0  0  0  0
 16 14  1  0  0  0  0
 17  2  1  6  0  0  0
 17 14  1  0  0  0  0
 17 18  1  0  0  0  0
 17 29  1  0  0  0  0
 19 18  2  0  0  0  0
 19 21  1  0  0  0  0
 20 19  1  0  0  0  0
 21 23  1  0  0  0  0
 22 21  1  0  0  0  0
 23 24  1  0  0  0  0
 23 25  2  0  0  0  0
 25 26  1  0  0  0  0
 27 18  1  6  0  0  0
 27 28  1  0  0  0  0
 27 25  1  0  0  0  0
 28  4  2  0  0  0  0
 29  1  1  6  0  0  0
 29  9  1  0  0  0  0
 29 28  1  0  0  0  0
M  END
