5,8
 OpenBabel05122313053D

 15 15  0  0  1  0  0  0  0  0999 V2000
   -3.2593   -2.2630    1.0472 F   0  0  0  0  0  0  0  0  0  0  0  0
   -2.9126   -0.9780    0.9708 C   0  0  0  0  0  0  0  0  0  0  0  0
   -3.5211   -0.1589   -0.0341 C   0  0  0  0  0  3  0  0  0  0  0  0
   -4.2151   -0.6078   -0.7564 H   0  0  0  0  0  0  0  0  0  0  0  0
   -3.0830    1.1871   -0.1452 C   0  0  0  0  0  3  0  0  0  0  0  0
   -3.4348    1.7889   -0.9966 H   0  0  0  0  0  0  0  0  0  0  0  0
   -2.1083    1.7660    0.7484 C   0  0  1  0  0  3  0  0  0  0  0  0
   -1.5268    0.8953    1.7329 C   0  0  0  0  0  3  0  0  0  0  0  0
   -0.7344    1.2887    2.3895 H   0  0  0  0  0  0  0  0  0  0  0  0
   -1.9390   -0.4775    1.8784 C   0  0  0  0  0  0  0  0  0  0  0  0
   -1.4942   -1.1515    2.6231 H   0  0  0  0  0  0  0  0  0  0  0  0
   -1.6442    3.1811    0.5500 C   0  0  0  0  0  0  0  0  0  0  0  0
   -2.4326    3.9081    0.8357 H   0  0  0  0  0  0  0  0  0  0  0  0
   -1.3866    3.3406   -0.5172 H   0  0  0  0  0  0  0  0  0  0  0  0
   -0.7438    3.3965    1.1569 H   0  0  0  0  0  0  0  0  0  0  0  0
  2  1  1  0  0  0  0
  2 10  2  0  0  0  0
  3  2  1  0  0  0  0
  4  3  1  0  0  0  0
  5  3  1  0  0  0  0
  5  7  1  0  0  0  0
  6  5  1  0  0  0  0
  7 12  1  6  0  0  0
  7  8  1  0  0  0  0
  8 10  1  0  0  0  0
  8  9  1  0  0  0  0
 10 11  1  0  0  0  0
 12 13  1  0  0  0  0
 12 15  1  0  0  0  0
 14 12  1  0  0  0  0
M  END
