3,33
 OpenBabel05122313053D

 60 63  0  0  1  0  0  0  0  0999 V2000
    1.0173    1.9499    0.8964 C   0  0  0  0  0  0  0  0  0  0  0  0
   -0.2401    1.4845    1.3811 C   0  0  0  0  0  0  0  0  0  0  0  0
   -1.2638    1.7218    0.4004 C   0  0  1  0  0  3  0  0  0  0  0  0
   -0.6046    2.3950   -0.6838 C   0  0  0  0  0  0  0  0  0  0  0  0
    0.7805    2.5440   -0.3982 C   0  0  0  0  0  0  0  0  0  0  0  0
    1.7762    3.2974   -1.2270 C   0  0  0  0  0  0  0  0  0  0  0  0
    2.4466    4.4728   -0.4289 C   0  0  0  0  0  0  0  0  0  0  0  0
    3.3719    4.0121    0.6333 C   0  0  0  0  0  3  0  0  0  0  0  0
    2.8945    3.3731    1.8803 C   0  0  0  0  0  0  0  0  0  0  0  0
    2.3170    1.9284    1.6467 C   0  0  0  0  0  0  0  0  0  0  0  0
   -3.0797    1.1889    0.4879 Si  0  0  0  0  0  0  0  0  0  0  0  0
   -3.8333    1.8647    2.0956 C   0  0  0  0  0  0  0  0  0  0  0  0
   -3.9723    1.8802   -1.0297 C   0  0  0  0  0  0  0  0  0  0  0  0
   -0.3942    1.0539    2.3767 H   0  0  0  0  0  0  0  0  0  0  0  0
   -1.0851    2.7213   -1.6140 H   0  0  0  0  0  0  0  0  0  0  0  0
    2.5727    2.6151   -1.5893 H   0  0  0  0  0  0  0  0  0  0  0  0
    1.2633    3.7100   -2.1205 H   0  0  0  0  0  0  0  0  0  0  0  0
    2.1654    1.4312    2.6296 H   0  0  0  0  0  0  0  0  0  0  0  0
    3.0759    1.3388    1.0923 H   0  0  0  0  0  0  0  0  0  0  0  0
    2.0808    3.9707    2.3549 H   0  0  0  0  0  0  0  0  0  0  0  0
    3.7210    3.2872    2.6159 H   0  0  0  0  0  0  0  0  0  0  0  0
    4.4423    3.9220    0.3835 H   0  0  0  0  0  0  0  0  0  0  0  0
    2.9883    5.1040   -1.1636 H   0  0  0  0  0  0  0  0  0  0  0  0
    1.6220    5.0903   -0.0010 H   0  0  0  0  0  0  0  0  0  0  0  0
   -4.8908    1.5461    2.2008 H   0  0  0  0  0  0  0  0  0  0  0  0
   -3.2803    1.4956    2.9832 H   0  0  0  0  0  0  0  0  0  0  0  0
   -3.8007    2.9738    2.1076 H   0  0  0  0  0  0  0  0  0  0  0  0
   -5.0394    1.5792   -1.0337 H   0  0  0  0  0  0  0  0  0  0  0  0
   -3.9256    2.9888   -1.0462 H   0  0  0  0  0  0  0  0  0  0  0  0
   -3.4985    1.4933   -1.9544 H   0  0  0  0  0  0  0  0  0  0  0  0
    1.0173   -1.9499    0.8964 C   0  0  0  0  0  0  0  0  0  0  0  0
   -0.2401   -1.4845    1.3811 C   0  0  0  0  0  0  0  0  0  0  0  0
   -1.2638   -1.7218    0.4004 C   0  0  2  0  0  3  0  0  0  0  0  0
   -0.3942   -1.0539    2.3767 H   0  0  0  0  0  0  0  0  0  0  0  0
   -0.6046   -2.3950   -0.6838 C   0  0  0  0  0  0  0  0  0  0  0  0
    0.7805   -2.5440   -0.3982 C   0  0  0  0  0  0  0  0  0  0  0  0
    2.3170   -1.9284    1.6467 C   0  0  0  0  0  0  0  0  0  0  0  0
    2.8945   -3.3731    1.8803 C   0  0  0  0  0  0  0  0  0  0  0  0
    3.3719   -4.0121    0.6333 C   0  0  0  0  0  3  0  0  0  0  0  0
    2.4466   -4.4728   -0.4289 C   0  0  0  0  0  0  0  0  0  0  0  0
    1.7762   -3.2974   -1.2270 C   0  0  0  0  0  0  0  0  0  0  0  0
   -1.0851   -2.7213   -1.6140 H   0  0  0  0  0  0  0  0  0  0  0  0
    2.5727   -2.6152   -1.5893 H   0  0  0  0  0  0  0  0  0  0  0  0
    1.2633   -3.7100   -2.1205 H   0  0  0  0  0  0  0  0  0  0  0  0
    2.9883   -5.1040   -1.1636 H   0  0  0  0  0  0  0  0  0  0  0  0
    1.6220   -5.0903   -0.0010 H   0  0  0  0  0  0  0  0  0  0  0  0
    4.4423   -3.9220    0.3835 H   0  0  0  0  0  0  0  0  0  0  0  0
    2.0808   -3.9707    2.3549 H   0  0  0  0  0  0  0  0  0  0  0  0
    3.7210   -3.2872    2.6159 H   0  0  0  0  0  0  0  0  0  0  0  0
    2.1654   -1.4312    2.6296 H   0  0  0  0  0  0  0  0  0  0  0  0
    3.0759   -1.3388    1.0923 H   0  0  0  0  0  0  0  0  0  0  0  0
   -3.0797   -1.1889    0.4879 Si  0  0  0  0  0  0  0  0  0  0  0  0
   -3.8333   -1.8647    2.0956 C   0  0  0  0  0  0  0  0  0  0  0  0
   -4.8908   -1.5461    2.2008 H   0  0  0  0  0  0  0  0  0  0  0  0
   -3.2803   -1.4956    2.9832 H   0  0  0  0  0  0  0  0  0  0  0  0
   -3.8007   -2.9737    2.1076 H   0  0  0  0  0  0  0  0  0  0  0  0
   -3.9723   -1.8802   -1.0297 C   0  0  0  0  0  0  0  0  0  0  0  0
   -5.0394   -1.5792   -1.0337 H   0  0  0  0  0  0  0  0  0  0  0  0
   -3.9256   -2.9888   -1.0462 H   0  0  0  0  0  0  0  0  0  0  0  0
   -3.4985   -1.4933   -1.9544 H   0  0  0  0  0  0  0  0  0  0  0  0
  1  2  2  0  0  0  0
  1 10  1  0  0  0  0
  2 14  1  0  0  0  0
  3 11  1  6  0  0  0
  3  2  1  0  0  0  0
  4  5  2  0  0  0  0
  4  3  1  0  0  0  0
  5  1  1  0  0  0  0
  6  7  1  0  0  0  0
  6  5  1  0  0  0  0
  7 24  1  0  0  0  0
  7  8  1  0  0  0  0
  8  9  1  0  0  0  0
  9 20  1  0  0  0  0
  9 21  1  0  0  0  0
 10  9  1  0  0  0  0
 10 18  1  0  0  0  0
 11 52  1  0  0  0  0
 11 12  1  0  0  0  0
 12 27  1  0  0  0  0
 12 25  1  0  0  0  0
 12 26  1  0  0  0  0
 13 11  1  0  0  0  0
 15  4  1  0  0  0  0
 16  6  1  0  0  0  0
 17  6  1  0  0  0  0
 19 10  1  0  0  0  0
 22  8  1  0  0  0  0
 23  7  1  0  0  0  0
 28 13  1  0  0  0  0
 29 13  1  0  0  0  0
 30 13  1  0  0  0  0
 31 32  2  0  0  0  0
 31 37  1  0  0  0  0
 32 34  1  0  0  0  0
 33 52  1  6  0  0  0
 33 32  1  0  0  0  0
 35 36  2  0  0  0  0
 35 33  1  0  0  0  0
 36 31  1  0  0  0  0
 37 38  1  0  0  0  0
 37 50  1  0  0  0  0
 38 48  1  0  0  0  0
 38 49  1  0  0  0  0
 39 38  1  0  0  0  0
 40 46  1  0  0  0  0
 40 39  1  0  0  0  0
 41 40  1  0  0  0  0
 41 36  1  0  0  0  0
 42 35  1  0  0  0  0
 43 41  1  0  0  0  0
 44 41  1  0  0  0  0
 45 40  1  0  0  0  0
 47 39  1  0  0  0  0
 51 37  1  0  0  0  0
 52 53  1  0  0  0  0
 53 56  1  0  0  0  0
 53 54  1  0  0  0  0
 53 55  1  0  0  0  0
 57 52  1  0  0  0  0
 58 57  1  0  0  0  0
 59 57  1  0  0  0  0
 60 57  1  0  0  0  0
M  END
