6,9
 OpenBabel05122313053D

 40 41  0  0  0  0  0  0  0  0999 V2000
   -0.7394   -3.4652   -1.7345 O   0  0  0  0  0  0  0  0  0  0  0  0
   -0.0892   -3.8207    0.4104 O   0  0  0  0  0  0  0  0  0  0  0  0
    2.6286   -3.6272   -0.7453 O   0  0  0  0  0  0  0  0  0  0  0  0
    3.4344   -2.3635    0.9604 O   0  0  0  0  0  0  0  0  0  0  0  0
   -0.2040   -3.0624   -0.7067 C   0  0  0  0  0  0  0  0  0  0  0  0
    0.3278   -1.6921   -0.5156 C   0  0  0  0  0  3  0  0  0  0  0  0
    1.6655   -1.4550   -0.2916 C   0  0  0  0  0  0  0  0  0  0  0  0
    2.0427   -0.0388   -0.1494 C   0  0  0  0  0  0  0  0  0  0  0  0
    0.9861    0.8358   -0.2597 C   0  0  0  0  0  3  0  0  0  0  0  0
   -0.4810   -5.1901    0.2674 C   0  0  0  0  0  0  0  0  0  0  0  0
    0.1904   -5.7040   -0.4500 H   0  0  0  0  0  0  0  0  0  0  0  0
   -1.5238   -5.2713   -0.0999 H   0  0  0  0  0  0  0  0  0  0  0  0
   -0.3885   -5.6421    1.2712 H   0  0  0  0  0  0  0  0  0  0  0  0
    2.6066   -2.5931   -0.0962 C   0  0  0  0  0  0  0  0  0  0  0  0
    4.4106   -3.3767    1.2063 C   0  0  0  0  0  0  0  0  0  0  0  0
    5.0994   -3.4750    0.3421 H   0  0  0  0  0  0  0  0  0  0  0  0
    3.9290   -4.3605    1.3784 H   0  0  0  0  0  0  0  0  0  0  0  0
    4.9699   -3.0532    2.1023 H   0  0  0  0  0  0  0  0  0  0  0  0
    3.4542    0.3944    0.0213 C   0  0  0  0  0  0  0  0  0  0  0  0
    4.4613   -0.1028   -0.8371 C   0  0  0  0  0  0  0  0  0  0  0  0
    4.1893   -0.8214   -1.6266 H   0  0  0  0  0  0  0  0  0  0  0  0
    5.7916    0.3171   -0.7051 C   0  0  0  0  0  0  0  0  0  0  0  0
    6.5591   -0.0781   -1.3888 H   0  0  0  0  0  0  0  0  0  0  0  0
    6.1450    1.2420    0.2915 C   0  0  0  0  0  0  0  0  0  0  0  0
    7.1898    1.5722    0.3963 H   0  0  0  0  0  0  0  0  0  0  0  0
    5.1549    1.7404    1.1530 C   0  0  0  0  0  0  0  0  0  0  0  0
    5.4216    2.4626    1.9400 H   0  0  0  0  0  0  0  0  0  0  0  0
    3.8241    1.3204    1.0200 C   0  0  0  0  0  0  0  0  0  0  0  0
    3.0521    1.7085    1.7003 H   0  0  0  0  0  0  0  0  0  0  0  0
    1.1075    2.3058   -0.2239 C   0  0  0  0  0  0  0  0  0  0  0  0
    1.8597    2.9918   -1.2069 C   0  0  0  0  0  0  0  0  0  0  0  0
    2.3835    2.4072   -1.9780 H   0  0  0  0  0  0  0  0  0  0  0  0
    1.9510    4.3912   -1.1978 C   0  0  0  0  0  0  0  0  0  0  0  0
    2.5404    4.9036   -1.9739 H   0  0  0  0  0  0  0  0  0  0  0  0
    1.3024    5.1362   -0.2000 C   0  0  0  0  0  0  0  0  0  0  0  0
    1.3766    6.2343   -0.1910 H   0  0  0  0  0  0  0  0  0  0  0  0
    0.5595    4.4683    0.7880 C   0  0  0  0  0  0  0  0  0  0  0  0
    0.0482    5.0424    1.5759 H   0  0  0  0  0  0  0  0  0  0  0  0
    0.4561    3.0718    0.7718 C   0  0  0  0  0  0  0  0  0  0  0  0
   -0.1371    2.5553    1.5403 H   0  0  0  0  0  0  0  0  0  0  0  0
  1  5  2  0  0  0  0
  3 14  2  0  0  0  0
  4 15  1  0  0  0  0
  5  6  1  0  0  0  0
  5  2  1  0  0  0  0
  6  7  2  0  0  0  0
  7  8  1  0  0  0  0
  7 14  1  0  0  0  0
  8 19  1  0  0  0  0
  9 30  1  0  0  0  0
  9  8  2  0  0  0  0
 10  2  1  0  0  0  0
 10 13  1  0  0  0  0
 11 10  1  0  0  0  0
 12 10  1  0  0  0  0
 14  4  1  0  0  0  0
 15 17  1  0  0  0  0
 15 18  1  0  0  0  0
 16 15  1  0  0  0  0
 19 28  1  0  0  0  0
 20 22  1  0  0  0  0
 20 19  2  0  0  0  0
 21 20  1  0  0  0  0
 22 24  2  0  0  0  0
 23 22  1  0  0  0  0
 24 25  1  0  0  0  0
 24 26  1  0  0  0  0
 26 27  1  0  0  0  0
 28 26  2  0  0  0  0
 28 29  1  0  0  0  0
 30 39  1  0  0  0  0
 31 33  1  0  0  0  0
 31 30  2  0  0  0  0
 32 31  1  0  0  0  0
 33 35  2  0  0  0  0
 34 33  1  0  0  0  0
 35 36  1  0  0  0  0
 35 37  1  0  0  0  0
 37 38  1  0  0  0  0
 39 37  2  0  0  0  0
 39 40  1  0  0  0  0
M  END
