2,11
 OpenBabel05122313053D

 57 58  0  0  1  0  0  0  0  0999 V2000
   -2.4649    0.0001   -0.0001 Si  0  0  0  0  0  0  0  0  0  0  0  0
   -1.1805   -1.3686    0.3204 C   0  0  2  0  0  3  0  0  0  0  0  0
   -0.4108   -1.5447    1.5341 C   0  0  2  0  0  3  0  0  0  0  0  0
    0.7557   -2.3275    1.2315 C   0  0  0  0  0  0  0  0  0  0  0  0
    0.7426   -2.6231   -0.1622 C   0  0  0  0  0  0  0  0  0  0  0  0
   -0.4293   -2.0209   -0.7347 C   0  0  1  0  0  3  0  0  0  0  0  0
   -0.7546   -1.1689    2.9486 C   0  0  0  0  0  0  0  0  0  0  0  0
    1.7236   -2.8384    2.2518 C   0  0  0  0  0  0  0  0  0  0  0  0
    1.6922   -3.5119   -0.9020 C   0  0  0  0  0  0  0  0  0  0  0  0
   -0.8015   -2.2365   -2.1754 C   0  0  0  0  0  0  0  0  0  0  0  0
   -1.1804    1.3687   -0.3206 C   0  0  1  0  0  3  0  0  0  0  0  0
   -0.4291    2.0211    0.7344 C   0  0  1  0  0  3  0  0  0  0  0  0
    0.7429    2.6230    0.1619 C   0  0  0  0  0  0  0  0  0  0  0  0
    0.7560    2.3272   -1.2317 C   0  0  0  0  0  0  0  0  0  0  0  0
   -0.4105    1.5445   -1.5343 C   0  0  2  0  0  3  0  0  0  0  0  0
   -0.8015    2.2369    2.1751 C   0  0  0  0  0  0  0  0  0  0  0  0
    1.6927    3.5118    0.9015 C   0  0  0  0  0  0  0  0  0  0  0  0
    1.7241    2.8379   -2.2520 C   0  0  0  0  0  0  0  0  0  0  0  0
   -0.7544    1.1687   -2.9488 C   0  0  0  0  0  0  0  0  0  0  0  0
   -3.6593    0.4023    1.4329 C   0  0  0  0  0  0  0  0  0  0  0  0
   -4.3611    1.7569    1.2541 C   0  0  0  0  0  0  0  0  0  0  0  0
   -3.6593   -0.4020   -1.4330 C   0  0  0  0  0  0  0  0  0  0  0  0
   -4.3612   -1.7566   -1.2542 C   0  0  0  0  0  0  0  0  0  0  0  0
   -1.6547   -0.5375    3.0170 H   0  0  0  0  0  0  0  0  0  0  0  0
   -0.9529   -2.0866    3.5432 H   0  0  0  0  0  0  0  0  0  0  0  0
    0.0807   -0.6357    3.4453 H   0  0  0  0  0  0  0  0  0  0  0  0
    1.2446   -3.6151    2.8863 H   0  0  0  0  0  0  0  0  0  0  0  0
    2.6165   -3.2904    1.7804 H   0  0  0  0  0  0  0  0  0  0  0  0
    2.0735   -2.0258    2.9188 H   0  0  0  0  0  0  0  0  0  0  0  0
    1.2067   -4.4820   -1.1432 H   0  0  0  0  0  0  0  0  0  0  0  0
    2.0195   -3.0509   -1.8548 H   0  0  0  0  0  0  0  0  0  0  0  0
    2.6004   -3.7264   -0.3078 H   0  0  0  0  0  0  0  0  0  0  0  0
   -1.0978   -3.2958   -2.3357 H   0  0  0  0  0  0  0  0  0  0  0  0
   -1.6450   -1.6078   -2.5001 H   0  0  0  0  0  0  0  0  0  0  0  0
    0.0548   -2.0338   -2.8490 H   0  0  0  0  0  0  0  0  0  0  0  0
   -1.6449    1.6081    2.4998 H   0  0  0  0  0  0  0  0  0  0  0  0
    0.0549    2.0345    2.8487 H   0  0  0  0  0  0  0  0  0  0  0  0
   -1.0981    3.2962    2.3352 H   0  0  0  0  0  0  0  0  0  0  0  0
    1.2080    4.4828    1.1409 H   0  0  0  0  0  0  0  0  0  0  0  0
    2.6018    3.7244    0.3080 H   0  0  0  0  0  0  0  0  0  0  0  0
    2.0185    3.0517    1.8553 H   0  0  0  0  0  0  0  0  0  0  0  0
    2.0729    2.0254   -2.9198 H   0  0  0  0  0  0  0  0  0  0  0  0
    2.6176    3.2886   -1.7806 H   0  0  0  0  0  0  0  0  0  0  0  0
    1.2456    3.6155   -2.8857 H   0  0  0  0  0  0  0  0  0  0  0  0
   -0.9522    2.0863   -3.5435 H   0  0  0  0  0  0  0  0  0  0  0  0
    0.0808    0.6351   -3.4453 H   0  0  0  0  0  0  0  0  0  0  0  0
   -1.6547    0.5376   -3.0172 H   0  0  0  0  0  0  0  0  0  0  0  0
   -3.1676    0.3583    2.4233 H   0  0  0  0  0  0  0  0  0  0  0  0
   -4.4060   -0.4218    1.4487 H   0  0  0  0  0  0  0  0  0  0  0  0
   -5.1004    1.9458    2.0595 H   0  0  0  0  0  0  0  0  0  0  0  0
   -4.9089    1.8175    0.2912 H   0  0  0  0  0  0  0  0  0  0  0  0
   -3.6345    2.5946    1.2637 H   0  0  0  0  0  0  0  0  0  0  0  0
   -3.1676   -0.3580   -2.4234 H   0  0  0  0  0  0  0  0  0  0  0  0
   -4.4061    0.4221   -1.4488 H   0  0  0  0  0  0  0  0  0  0  0  0
   -3.6345   -2.5944   -1.2638 H   0  0  0  0  0  0  0  0  0  0  0  0
   -5.1004   -1.9455   -2.0595 H   0  0  0  0  0  0  0  0  0  0  0  0
   -4.9088   -1.8172   -0.2913 H   0  0  0  0  0  0  0  0  0  0  0  0
  1 20  1  0  0  0  0
  2  1  1  6  0  0  0
  2  3  1  0  0  0  0
  3  7  1  1  0  0  0
  4  3  1  0  0  0  0
  4  8  1  0  0  0  0
  5  4  2  0  0  0  0
  6 10  1  1  0  0  0
  6  5  1  0  0  0  0
  6  2  1  0  0  0  0
  7 24  1  0  0  0  0
  7 26  1  0  0  0  0
  7 25  1  0  0  0  0
  8 27  1  0  0  0  0
  8 29  1  0  0  0  0
  9 32  1  0  0  0  0
  9  5  1  0  0  0  0
 11  1  1  1  0  0  0
 11 12  1  0  0  0  0
 12 16  1  6  0  0  0
 13 12  1  0  0  0  0
 13 17  1  0  0  0  0
 14 13  2  0  0  0  0
 15 19  1  6  0  0  0
 15 14  1  0  0  0  0
 15 11  1  0  0  0  0
 16 38  1  0  0  0  0
 16 36  1  0  0  0  0
 16 37  1  0  0  0  0
 17 39  1  0  0  0  0
 17 41  1  0  0  0  0
 18 43  1  0  0  0  0
 18 14  1  0  0  0  0
 20 49  1  0  0  0  0
 20 48  1  0  0  0  0
 21 52  1  0  0  0  0
 21 20  1  0  0  0  0
 21 50  1  0  0  0  0
 22 23  1  0  0  0  0
 22  1  1  0  0  0  0
 23 57  1  0  0  0  0
 28  8  1  0  0  0  0
 30  9  1  0  0  0  0
 31  9  1  0  0  0  0
 33 10  1  0  0  0  0
 34 10  1  0  0  0  0
 35 10  1  0  0  0  0
 40 17  1  0  0  0  0
 42 18  1  0  0  0  0
 44 18  1  0  0  0  0
 45 19  1  0  0  0  0
 46 19  1  0  0  0  0
 47 19  1  0  0  0  0
 51 21  1  0  0  0  0
 53 22  1  0  0  0  0
 54 22  1  0  0  0  0
 55 23  1  0  0  0  0
 56 23  1  0  0  0  0
M  END
