7,11
 OpenBabel05122313053D

 23 25  0  0  1  0  0  0  0  0999 V2000
    1.3400   -1.9877    0.2801 C   0  0  0  0  0  0  0  0  0  0  0  0
    1.0507   -2.2100    1.3285 H   0  0  0  0  0  0  0  0  0  0  0  0
    1.6845   -2.9461   -0.1674 H   0  0  0  0  0  0  0  0  0  0  0  0
    0.1949   -1.4119   -0.5242 C   0  0  0  0  0  0  0  0  0  0  0  0
   -1.0873   -1.9614   -0.7908 C   0  0  0  0  0  0  0  0  0  0  0  0
   -1.3968   -2.9175   -0.3479 H   0  0  0  0  0  0  0  0  0  0  0  0
   -1.9914   -1.2113   -1.5964 C   0  0  0  0  0  3  0  0  0  0  0  0
   -3.0047   -1.5987   -1.7732 H   0  0  0  0  0  0  0  0  0  0  0  0
   -1.6195    0.0496   -2.1517 C   0  0  0  0  0  3  0  0  0  0  0  0
   -2.3466    0.6250   -2.7394 H   0  0  0  0  0  0  0  0  0  0  0  0
   -0.3477    0.6095   -1.8454 C   0  0  0  0  0  3  0  0  0  0  0  0
   -0.0857    1.6121   -2.2117 H   0  0  0  0  0  0  0  0  0  0  0  0
    0.5828   -0.1411   -1.0701 C   0  0  1  0  0  3  0  0  0  0  0  0
    1.9404    0.1704   -0.6083 C   0  0  0  0  0  0  0  0  0  0  0  0
    2.7523    1.2913   -0.8399 C   0  0  0  0  0  0  0  0  0  0  0  0
    2.3943    2.1312   -1.4541 H   0  0  0  0  0  0  0  0  0  0  0  0
    4.0312    1.3250   -0.2619 C   0  0  0  0  0  0  0  0  0  0  0  0
    4.6815    2.1968   -0.4288 H   0  0  0  0  0  0  0  0  0  0  0  0
    4.4884    0.2571    0.5319 C   0  0  0  0  0  0  0  0  0  0  0  0
    5.4929    0.3023    0.9787 H   0  0  0  0  0  0  0  0  0  0  0  0
    3.6742   -0.8676    0.7625 C   0  0  0  0  0  0  0  0  0  0  0  0
    4.0373   -1.6980    1.3873 H   0  0  0  0  0  0  0  0  0  0  0  0
    2.4006   -0.9105    0.1886 C   0  0  0  0  0  0  0  0  0  0  0  0
  1  2  1  0  0  0  0
  3  1  1  0  0  0  0
  4  1  1  0  0  0  0
  5  4  2  0  0  0  0
  5  6  1  0  0  0  0
  7  5  1  0  0  0  0
  8  7  1  0  0  0  0
  9 11  1  0  0  0  0
  9  7  1  0  0  0  0
 10  9  1  0  0  0  0
 12 11  1  0  0  0  0
 13 11  1  1  0  0  0
 13 14  1  0  0  0  0
 13  4  1  0  0  0  0
 14 23  1  0  0  0  0
 15 14  2  0  0  0  0
 15 17  1  0  0  0  0
 16 15  1  0  0  0  0
 17 19  2  0  0  0  0
 18 17  1  0  0  0  0
 19 21  1  0  0  0  0
 19 20  1  0  0  0  0
 21 22  1  0  0  0  0
 23  1  1  0  0  0  0
 23 21  2  0  0  0  0
M  END
