26,32
 OpenBabel05122313053D

 33 36  0  0  1  0  0  0  0  0999 V2000
    4.3785   -2.1488    1.0982 O   0  0  0  0  0  0  0  0  0  0  0  0
    3.8211    1.8744   -1.2205 O   0  0  0  0  0  0  0  0  0  0  0  0
    4.4394   -0.0728   -0.0313 N   0  0  0  0  0  0  0  0  0  0  0  0
    1.2108   -1.7029    0.2488 N   0  0  0  0  0  0  0  0  0  0  0  0
    0.3823   -0.8429   -0.3826 N   0  0  0  0  0  0  0  0  0  0  0  0
    0.9394    0.2860   -0.8971 N   0  0  0  0  0  0  0  0  0  0  0  0
   -0.9309   -1.1601   -0.4595 N   0  0  0  0  0  0  0  0  0  0  0  0
    3.8126   -1.2593    0.5008 C   0  0  0  0  0  0  0  0  0  0  0  0
    2.3846   -1.0821    0.1311 C   0  0  0  0  0  0  0  0  0  0  0  0
    2.2188    0.1272   -0.5653 C   0  0  0  0  0  0  0  0  0  0  0  0
    3.5288    0.8209   -0.6959 C   0  0  0  0  0  0  0  0  0  0  0  0
    5.8333    0.1893    0.0917 C   0  0  0  0  0  0  0  0  0  0  0  0
    6.7638   -0.8546   -0.0829 C   0  0  0  0  0  0  0  0  0  0  0  0
    6.4130   -1.8694   -0.3083 H   0  0  0  0  0  0  0  0  0  0  0  0
    8.1336   -0.5904    0.0470 C   0  0  0  0  0  0  0  0  0  0  0  0
    8.8551   -1.4106   -0.0849 H   0  0  0  0  0  0  0  0  0  0  0  0
    8.5851    0.7069    0.3351 C   0  0  0  0  0  0  0  0  0  0  0  0
    9.6624    0.9095    0.4305 H   0  0  0  0  0  0  0  0  0  0  0  0
    7.6543    1.7442    0.5009 C   0  0  0  0  0  0  0  0  0  0  0  0
    7.9979    2.7647    0.7274 H   0  0  0  0  0  0  0  0  0  0  0  0
    6.2808    1.4924    0.3881 C   0  0  0  0  0  0  0  0  0  0  0  0
    5.5548    2.3044    0.5187 H   0  0  0  0  0  0  0  0  0  0  0  0
   -1.7067   -0.3236   -1.0795 C   0  0  0  0  0  0  0  0  0  0  0  0
   -1.3158    0.6042   -1.5414 H   0  0  0  0  0  0  0  0  0  0  0  0
   -3.1256   -0.6050   -1.1761 C   0  0  1  0  0  3  0  0  0  0  0  0
   -3.8433   -1.6795   -0.5271 C   0  0  0  0  0  3  0  0  0  0  0  0
   -3.3788   -2.4440    0.1057 H   0  0  0  0  0  0  0  0  0  0  0  0
   -5.2190   -1.5670   -0.8727 C   0  0  0  0  0  0  0  0  0  0  0  0
   -6.0214   -2.2358   -0.5395 H   0  0  0  0  0  0  0  0  0  0  0  0
   -5.3802   -0.4162   -1.7258 C   0  0  0  0  0  0  0  0  0  0  0  0
   -6.3215   -0.0593   -2.1588 H   0  0  0  0  0  0  0  0  0  0  0  0
   -4.0977    0.1814   -1.8994 C   0  0  0  0  0  3  0  0  0  0  0  0
   -3.8752    1.0746   -2.4960 H   0  0  0  0  0  0  0  0  0  0  0  0
  2 11  2  0  0  0  0
  3 12  1  0  0  0  0
  3  8  1  0  0  0  0
  5  4  1  0  0  0  0
  6 10  2  0  0  0  0
  6  5  1  0  0  0  0
  7  5  1  0  0  0  0
  8  1  2  0  0  0  0
  9  4  2  0  0  0  0
  9  8  1  0  0  0  0
 10  9  1  0  0  0  0
 11 10  1  0  0  0  0
 11  3  1  0  0  0  0
 12 21  1  0  0  0  0
 13 15  1  0  0  0  0
 13 12  2  0  0  0  0
 14 13  1  0  0  0  0
 15 17  2  0  0  0  0
 16 15  1  0  0  0  0
 17 18  1  0  0  0  0
 17 19  1  0  0  0  0
 19 20  1  0  0  0  0
 21 19  2  0  0  0  0
 21 22  1  0  0  0  0
 23  7  2  0  0  0  0
 24 23  1  0  0  0  0
 25 23  1  1  0  0  0
 25 26  1  0  0  0  0
 26 27  1  0  0  0  0
 28 29  1  0  0  0  0
 28 26  1  0  0  0  0
 30 28  2  0  0  0  0
 31 30  1  0  0  0  0
 32 30  1  0  0  0  0
 32 25  1  0  0  0  0
 33 32  1  0  0  0  0
M  END
