5,22
 OpenBabel05122313053D

 79 84  0  0  0  0  0  0  0  0999 V2000
   -2.0199   -0.0437    0.1933 P   0  0  1  0  0  4  0  0  0  0  0  0
    1.0997    0.1700    0.2095 P   0  0  0  0  0  4  0  0  0  0  0  0
    2.2114   -0.2459   -0.9610 N   0  0  0  0  0  0  0  0  0  0  0  0
    1.7832   -0.7960   -1.7633 H   0  0  0  0  0  0  0  0  0  0  0  0
   -0.4514   -0.1630   -0.6120 C   0  0  0  0  0  3  0  0  0  0  0  0
   -0.4385    0.3299   -1.6049 H   0  0  0  0  0  0  0  0  0  0  0  0
   -4.1094   -0.7851   -3.2747 C   0  0  0  0  0  0  0  0  0  0  0  0
   -3.9161   -1.2414   -4.2568 H   0  0  0  0  0  0  0  0  0  0  0  0
    7.8684    0.7610   -1.4113 C   0  0  0  0  0  0  0  0  0  0  0  0
    8.4138   -0.1562   -1.7179 H   0  0  0  0  0  0  0  0  0  0  0  0
    8.3141    1.1162   -0.4618 H   0  0  0  0  0  0  0  0  0  0  0  0
    8.0737    1.5286   -2.1872 H   0  0  0  0  0  0  0  0  0  0  0  0
    1.3106   -0.7953    1.7289 C   0  0  0  0  0  0  0  0  0  0  0  0
   -2.0836   -1.3785    1.3756 C   0  0  0  0  0  0  0  0  0  0  0  0
   -2.3577    1.3651    1.1190 N   0  0  0  0  0  0  0  0  0  0  0  0
   -2.2332    1.2230    2.1253 H   0  0  0  0  0  0  0  0  0  0  0  0
    0.6095   -0.4773    2.9095 C   0  0  0  0  0  0  0  0  0  0  0  0
   -0.0286    0.4175    2.9537 H   0  0  0  0  0  0  0  0  0  0  0  0
    1.3316    1.9381    0.6103 C   0  0  0  0  0  0  0  0  0  0  0  0
    1.0508    2.8656   -0.4155 C   0  0  0  0  0  0  0  0  0  0  0  0
    0.6921    2.5151   -1.3948 H   0  0  0  0  0  0  0  0  0  0  0  0
   -1.2901   -2.4706    0.9265 C   0  0  0  0  0  3  0  0  0  0  0  0
   -1.9401    5.4274   -0.1078 C   0  0  0  0  0  0  0  0  0  0  0  0
   -3.3091   -0.1143   -1.0851 C   0  0  0  0  0  0  0  0  0  0  0  0
    4.3357    0.4954    0.0774 C   0  0  0  0  0  0  0  0  0  0  0  0
    3.8511    0.6684    1.0482 H   0  0  0  0  0  0  0  0  0  0  0  0
    3.5905    0.0184   -1.0191 C   0  0  0  0  0  0  0  0  0  0  0  0
    2.2128   -2.7843    2.7874 C   0  0  0  0  0  0  0  0  0  0  0  0
    2.8291   -3.6935    2.7342 H   0  0  0  0  0  0  0  0  0  0  0  0
   -2.3233    3.0668   -0.6699 C   0  0  0  0  0  0  0  0  0  0  0  0
   -2.5252    2.3071   -1.4371 H   0  0  0  0  0  0  0  0  0  0  0  0
   -1.8399    5.0450    1.2467 C   0  0  0  0  0  0  0  0  0  0  0  0
   -1.6421    5.8110    2.0133 H   0  0  0  0  0  0  0  0  0  0  0  0
   -2.2191    2.7000    0.6884 C   0  0  0  0  0  0  0  0  0  0  0  0
   -2.8165   -1.3857    2.5806 C   0  0  0  0  0  0  0  0  0  0  0  0
   -3.4643   -0.5382    2.8602 H   0  0  0  0  0  0  0  0  0  0  0  0
   -2.1857    4.4099   -1.0478 C   0  0  0  0  0  0  0  0  0  0  0  0
   -2.2733    4.6699   -2.1147 H   0  0  0  0  0  0  0  0  0  0  0  0
   -1.9723    3.7117    1.6418 C   0  0  0  0  0  0  0  0  0  0  0  0
   -1.8757    3.4418    2.7056 H   0  0  0  0  0  0  0  0  0  0  0  0
    1.8055    2.3973    1.8557 C   0  0  0  0  0  0  0  0  0  0  0  0
    2.0544    1.6809    2.6518 H   0  0  0  0  0  0  0  0  0  0  0  0
   -1.2194   -3.5881    1.7901 C   0  0  0  0  0  0  0  0  0  0  0  0
   -0.6302   -4.4596    1.4681 H   0  0  0  0  0  0  0  0  0  0  0  0
   -5.6307    0.2695   -1.6942 C   0  0  0  0  0  0  0  0  0  0  0  0
   -6.6328    0.6463   -1.4401 H   0  0  0  0  0  0  0  0  0  0  0  0
   -3.0619   -0.6972   -2.3456 C   0  0  0  0  0  0  0  0  0  0  0  0
   -2.0640   -1.0940   -2.6019 H   0  0  0  0  0  0  0  0  0  0  0  0
    1.6950    4.6903    1.0529 C   0  0  0  0  0  0  0  0  0  0  0  0
    1.8348    5.7681    1.2264 H   0  0  0  0  0  0  0  0  0  0  0  0
   -1.9090   -3.5932    3.0111 C   0  0  0  0  0  0  0  0  0  0  0  0
   -1.8304   -4.4742    3.6684 H   0  0  0  0  0  0  0  0  0  0  0  0
   -4.5932    0.3702   -0.7583 C   0  0  0  0  0  0  0  0  0  0  0  0
   -4.7705    0.8339    0.2238 H   0  0  0  0  0  0  0  0  0  0  0  0
    1.2364    4.2350   -0.1938 C   0  0  0  0  0  0  0  0  0  0  0  0
    1.0141    4.9512   -0.9977 H   0  0  0  0  0  0  0  0  0  0  0  0
   -1.7568    6.8650   -0.5228 C   0  0  0  0  0  0  0  0  0  0  0  0
   -2.0215    7.0199   -1.5867 H   0  0  0  0  0  0  0  0  0  0  0  0
   -0.7021    7.1915   -0.3912 H   0  0  0  0  0  0  0  0  0  0  0  0
   -2.3805    7.5505    0.0867 H   0  0  0  0  0  0  0  0  0  0  0  0
    1.9789    3.7724    2.0749 C   0  0  0  0  0  0  0  0  0  0  0  0
    2.3497    4.1255    3.0488 H   0  0  0  0  0  0  0  0  0  0  0  0
    2.1099   -1.9535    1.6644 C   0  0  0  0  0  0  0  0  0  0  0  0
    2.6201   -2.2112    0.7246 H   0  0  0  0  0  0  0  0  0  0  0  0
    5.7108    0.7381   -0.0583 C   0  0  0  0  0  0  0  0  0  0  0  0
    6.2726    1.1139    0.8116 H   0  0  0  0  0  0  0  0  0  0  0  0
    4.2593   -0.2309   -2.2397 C   0  0  0  0  0  0  0  0  0  0  0  0
    3.6819   -0.6225   -3.0911 H   0  0  0  0  0  0  0  0  0  0  0  0
   -2.7147   -2.5066    3.4110 C   0  0  0  0  0  0  0  0  0  0  0  0
   -3.2688   -2.5440    4.3609 H   0  0  0  0  0  0  0  0  0  0  0  0
    0.7074   -1.3218    4.0234 C   0  0  0  0  0  0  0  0  0  0  0  0
    0.1414   -1.0887    4.9370 H   0  0  0  0  0  0  0  0  0  0  0  0
    1.5108   -2.4716    3.9622 C   0  0  0  0  0  0  0  0  0  0  0  0
    1.5793   -3.1372    4.8358 H   0  0  0  0  0  0  0  0  0  0  0  0
    5.6313    0.0056   -2.3508 C   0  0  0  0  0  0  0  0  0  0  0  0
    6.1303   -0.2013   -3.3111 H   0  0  0  0  0  0  0  0  0  0  0  0
   -5.3896   -0.3084   -2.9519 C   0  0  0  0  0  0  0  0  0  0  0  0
   -6.2070   -0.3880   -3.6846 H   0  0  0  0  0  0  0  0  0  0  0  0
    6.3895    0.5025   -1.2677 C   0  0  0  0  0  0  0  0  0  0  0  0
  1  5  1  6  0  0  0
  1 15  1  0  0  0  0
  1 14  1  0  0  0  0
  2 19  1  0  0  0  0
  2 13  1  0  0  0  0
  3  2  1  0  0  0  0
  4  3  1  0  0  0  0
  5  2  1  0  0  0  0
  6  5  1  0  0  0  0
  7 77  2  0  0  0  0
  7 47  1  0  0  0  0
  8  7  1  0  0  0  0
  9 79  1  0  0  0  0
  9 11  1  0  0  0  0
 10  9  1  0  0  0  0
 12  9  1  0  0  0  0
 13 17  1  0  0  0  0
 14 35  1  0  0  0  0
 15 16  1  0  0  0  0
 17 18  1  0  0  0  0
 17 71  2  0  0  0  0
 19 41  1  0  0  0  0
 20 55  1  0  0  0  0
 20 19  2  0  0  0  0
 21 20  1  0  0  0  0
 22 14  2  0  0  0  0
 22 43  1  0  0  0  0
 23 32  1  0  0  0  0
 24 53  1  0  0  0  0
 24  1  1  0  0  0  0
 25 26  1  0  0  0  0
 27  3  1  0  0  0  0
 27 25  2  0  0  0  0
 28 73  2  0  0  0  0
 29 28  1  0  0  0  0
 30 34  2  0  0  0  0
 31 30  1  0  0  0  0
 32 39  2  0  0  0  0
 32 33  1  0  0  0  0
 34 15  1  0  0  0  0
 34 39  1  0  0  0  0
 35 36  1  0  0  0  0
 35 69  2  0  0  0  0
 37 30  1  0  0  0  0
 37 23  2  0  0  0  0
 38 37  1  0  0  0  0
 39 40  1  0  0  0  0
 41 61  2  0  0  0  0
 41 42  1  0  0  0  0
 43 51  2  0  0  0  0
 44 43  1  0  0  0  0
 45 46  1  0  0  0  0
 45 53  2  0  0  0  0
 47 24  2  0  0  0  0
 48 47  1  0  0  0  0
 49 50  1  0  0  0  0
 49 61  1  0  0  0  0
 51 69  1  0  0  0  0
 51 52  1  0  0  0  0
 53 54  1  0  0  0  0
 55 49  2  0  0  0  0
 56 55  1  0  0  0  0
 57 59  1  0  0  0  0
 57 23  1  0  0  0  0
 57 60  1  0  0  0  0
 58 57  1  0  0  0  0
 61 62  1  0  0  0  0
 63 13  2  0  0  0  0
 63 28  1  0  0  0  0
 64 63  1  0  0  0  0
 65 25  1  0  0  0  0
 65 66  1  0  0  0  0
 67 27  1  0  0  0  0
 68 67  1  0  0  0  0
 69 70  1  0  0  0  0
 71 72  1  0  0  0  0
 73 71  1  0  0  0  0
 73 74  1  0  0  0  0
 75 67  2  0  0  0  0
 75 79  1  0  0  0  0
 76 75  1  0  0  0  0
 77 45  1  0  0  0  0
 78 77  1  0  0  0  0
 79 65  2  0  0  0  0
M  END
