5,9
 OpenBabel05122313053D

 24 25  0  0  1  0  0  0  0  0999 V2000
   -0.6218   -0.6607   -0.6795 C   0  0  2  0  0  3  0  0  0  0  0  0
    0.1065   -1.7017    0.0012 C   0  0  0  0  0  0  0  0  0  0  0  0
    1.4328   -2.0094   -0.4364 C   0  0  0  0  0  0  0  0  0  0  0  0
    2.0011   -2.7801    0.1023 H   0  0  0  0  0  0  0  0  0  0  0  0
    2.0470   -1.2965   -1.4990 C   0  0  0  0  0  3  0  0  0  0  0  0
    3.0889   -1.5165   -1.7709 H   0  0  0  0  0  0  0  0  0  0  0  0
    1.3166   -0.3044   -2.2084 C   0  0  0  0  0  3  0  0  0  0  0  0
    1.7857    0.2623   -3.0232 H   0  0  0  0  0  0  0  0  0  0  0  0
    0.0053    0.0119   -1.7779 C   0  0  0  0  0  3  0  0  0  0  0  0
   -0.5695    0.8058   -2.2736 H   0  0  0  0  0  0  0  0  0  0  0  0
   -2.0017   -0.2264   -0.3157 C   0  0  0  0  0  0  0  0  0  0  0  0
   -2.7982    0.0798   -1.3617 N   0  0  0  0  0  0  0  0  0  0  0  0
   -4.0499    0.4897   -1.1162 C   0  0  0  0  0  0  0  0  0  0  0  0
   -4.6650    0.7335   -2.0010 H   0  0  0  0  0  0  0  0  0  0  0  0
   -4.5849    0.6197    0.1752 C   0  0  0  0  0  0  0  0  0  0  0  0
   -5.6218    0.9564    0.3204 H   0  0  0  0  0  0  0  0  0  0  0  0
   -3.7493    0.3313    1.2642 C   0  0  0  0  0  0  0  0  0  0  0  0
   -4.1091    0.4514    2.2974 H   0  0  0  0  0  0  0  0  0  0  0  0
   -2.4373   -0.0914    1.0218 C   0  0  0  0  0  0  0  0  0  0  0  0
   -1.7477   -0.2683    1.8572 H   0  0  0  0  0  0  0  0  0  0  0  0
   -0.4919   -2.5293    1.1145 C   0  0  0  0  0  0  0  0  0  0  0  0
    0.0008   -3.5195    1.1540 H   0  0  0  0  0  0  0  0  0  0  0  0
   -1.5760   -2.6859    0.9591 H   0  0  0  0  0  0  0  0  0  0  0  0
   -0.3598   -2.0584    2.1086 H   0  0  0  0  0  0  0  0  0  0  0  0
  1 11  1  1  0  0  0
  1  2  1  0  0  0  0
  2 21  1  0  0  0  0
  3  2  2  0  0  0  0
  3  4  1  0  0  0  0
  5  3  1  0  0  0  0
  6  5  1  0  0  0  0
  7  9  1  0  0  0  0
  7  5  1  0  0  0  0
  8  7  1  0  0  0  0
  9  1  1  0  0  0  0
 10  9  1  0  0  0  0
 11 19  1  0  0  0  0
 12 13  1  0  0  0  0
 12 11  2  0  0  0  0
 13 15  2  0  0  0  0
 14 13  1  0  0  0  0
 15 16  1  0  0  0  0
 15 17  1  0  0  0  0
 17 18  1  0  0  0  0
 19 17  2  0  0  0  0
 19 20  1  0  0  0  0
 21 22  1  0  0  0  0
 21 24  1  0  0  0  0
 23 21  1  0  0  0  0
M  END
