7,11
 OpenBabel05122313053D

 47 50  0  0  0  0  0  0  0  0999 V2000
    4.8364    3.8590   -0.7585 O   0  0  0  0  0  0  0  0  0  0  0  0
   -4.7483    3.6380   -0.8749 O   0  0  0  0  0  0  0  0  0  0  0  0
    2.6325   -1.2755   -1.0525 N   0  0  0  0  0  0  0  0  0  0  0  0
    1.3466   -3.0032   -0.8347 N   0  0  0  0  0  0  0  0  0  0  0  0
   -1.0339   -3.0852   -0.8289 N   0  0  0  0  0  0  0  0  0  0  0  0
   -2.4365   -1.4522   -1.0426 N   0  0  0  0  0  0  0  0  0  0  0  0
    1.4767   -1.6922   -0.4465 C   0  0  0  0  0  2  0  0  0  0  0  0
    3.2140   -2.3167   -1.7795 C   0  0  0  0  0  0  0  0  0  0  0  0
    2.3993   -3.4087   -1.6481 C   0  0  0  0  0  0  0  0  0  0  0  0
    0.1832   -3.7772   -0.4329 C   0  0  0  0  0  0  0  0  0  0  0  0
   -1.2449   -1.7810   -0.4537 C   0  0  0  0  0  2  0  0  0  0  0  0
   -2.0740   -3.5728   -1.6131 C   0  0  0  0  0  0  0  0  0  0  0  0
   -2.9630   -2.5397   -1.7420 C   0  0  0  0  0  0  0  0  0  0  0  0
    3.1717    0.0482   -0.9943 C   0  0  0  0  0  0  0  0  0  0  0  0
    4.5566    0.2327   -0.8345 C   0  0  0  0  0  0  0  0  0  0  0  0
    5.0840    1.5220   -0.7711 C   0  0  0  0  0  0  0  0  0  0  0  0
    4.2323    2.6460   -0.8509 C   0  0  0  0  0  0  0  0  0  0  0  0
    2.8443    2.4547   -1.0149 C   0  0  0  0  0  0  0  0  0  0  0  0
    2.3229    1.1584   -1.0895 C   0  0  0  0  0  0  0  0  0  0  0  0
   -3.0529   -0.1619   -0.9992 C   0  0  0  0  0  0  0  0  0  0  0  0
   -4.4112   -0.0469   -0.6825 C   0  0  0  0  0  0  0  0  0  0  0  0
   -5.0214    1.2143   -0.6378 C   0  0  0  0  0  0  0  0  0  0  0  0
   -4.2592    2.3710   -0.9044 C   0  0  0  0  0  0  0  0  0  0  0  0
   -2.8904    2.2433   -1.2302 C   0  0  0  0  0  0  0  0  0  0  0  0
   -2.2920    0.9873   -1.2791 C   0  0  0  0  0  0  0  0  0  0  0  0
    4.0216    5.0174   -0.7557 C   0  0  0  0  0  0  0  0  0  0  0  0
   -6.1010    3.8298   -0.5058 C   0  0  0  0  0  0  0  0  0  0  0  0
    4.1364   -2.1770   -2.3492 H   0  0  0  0  0  0  0  0  0  0  0  0
    2.4851   -4.4213   -2.0531 H   0  0  0  0  0  0  0  0  0  0  0  0
    0.1901   -3.8921    0.6703 H   0  0  0  0  0  0  0  0  0  0  0  0
    0.2160   -4.7698   -0.9176 H   0  0  0  0  0  0  0  0  0  0  0  0
   -2.0991   -4.5949   -2.0025 H   0  0  0  0  0  0  0  0  0  0  0  0
   -3.9053   -2.4676   -2.2918 H   0  0  0  0  0  0  0  0  0  0  0  0
    4.7041    5.8790   -0.6366 H   0  0  0  0  0  0  0  0  0  0  0  0
    3.2960    5.0089    0.0877 H   0  0  0  0  0  0  0  0  0  0  0  0
    3.4597    5.1318   -1.7101 H   0  0  0  0  0  0  0  0  0  0  0  0
    5.2195   -0.6369   -0.7174 H   0  0  0  0  0  0  0  0  0  0  0  0
    6.1604    1.6911   -0.6277 H   0  0  0  0  0  0  0  0  0  0  0  0
    2.1556    3.3072   -1.0698 H   0  0  0  0  0  0  0  0  0  0  0  0
    1.2400    1.0023   -1.1905 H   0  0  0  0  0  0  0  0  0  0  0  0
   -6.2795    4.9207   -0.5267 H   0  0  0  0  0  0  0  0  0  0  0  0
   -6.3074    3.4490    0.5194 H   0  0  0  0  0  0  0  0  0  0  0  0
   -6.8002    3.3361   -1.2181 H   0  0  0  0  0  0  0  0  0  0  0  0
   -4.9917   -0.9448   -0.4255 H   0  0  0  0  0  0  0  0  0  0  0  0
   -6.0830    1.2845   -0.3681 H   0  0  0  0  0  0  0  0  0  0  0  0
   -2.3141    3.1573   -1.4307 H   0  0  0  0  0  0  0  0  0  0  0  0
   -1.2242    0.8827   -1.5145 H   0  0  0  0  0  0  0  0  0  0  0  0
  1 26  1  0  0  0  0
  2 27  1  0  0  0  0
  3 14  1  0  0  0  0
  3  7  1  0  0  0  0
  4  7  1  0  0  0  0
  4 10  1  0  0  0  0
  5 11  1  0  0  0  0
  5 10  1  0  0  0  0
  6 20  1  0  0  0  0
  6 11  1  0  0  0  0
  8  9  2  0  0  0  0
  8  3  1  0  0  0  0
  9  4  1  0  0  0  0
 10 30  1  0  0  0  0
 12  5  1  0  0  0  0
 13 12  2  0  0  0  0
 13  6  1  0  0  0  0
 14 15  1  0  0  0  0
 15 16  2  0  0  0  0
 15 37  1  0  0  0  0
 16 38  1  0  0  0  0
 17 16  1  0  0  0  0
 17  1  1  0  0  0  0
 18 17  2  0  0  0  0
 19 18  1  0  0  0  0
 19 14  2  0  0  0  0
 20 21  1  0  0  0  0
 21 22  2  0  0  0  0
 21 44  1  0  0  0  0
 22 45  1  0  0  0  0
 23  2  1  0  0  0  0
 23 22  1  0  0  0  0
 24 23  2  0  0  0  0
 25 24  1  0  0  0  0
 25 20  2  0  0  0  0
 26 34  1  0  0  0  0
 26 35  1  0  0  0  0
 27 42  1  0  0  0  0
 28  8  1  0  0  0  0
 29  9  1  0  0  0  0
 31 10  1  0  0  0  0
 32 12  1  0  0  0  0
 33 13  1  0  0  0  0
 36 26  1  0  0  0  0
 39 18  1  0  0  0  0
 40 19  1  0  0  0  0
 41 27  1  0  0  0  0
 43 27  1  0  0  0  0
 46 24  1  0  0  0  0
 47 25  1  0  0  0  0
M  END
