16
 OpenBabel05122313053D

 80 86  0  0  1  0  0  0  0  0999 V2000
   -0.9795    0.4359   -2.2232 C   0  0  0  0  0  0  0  0  0  0  0  0
   -1.9269   -0.1872   -1.1677 C   0  0  1  0  0  0  0  0  0  0  0  0
   -1.3428   -0.0277    0.2213 C   0  0  2  0  0  3  0  0  0  0  0  0
   -1.0913   -1.0887    1.1571 C   0  0  2  0  0  3  0  0  0  0  0  0
   -1.3993   -2.5615    1.0580 C   0  0  0  0  0  0  0  0  0  0  0  0
   -1.7640   -3.1020    2.4521 C   0  0  0  0  0  0  0  0  0  0  0  0
   -0.6484   -2.8022    3.4620 C   0  0  0  0  0  0  0  0  0  0  0  0
   -0.4081   -1.2916    3.6508 C   0  0  0  0  0  0  0  0  0  0  0  0
   -0.6192   -0.5117    2.3819 C   0  0  0  0  0  0  0  0  0  0  0  0
   -0.5980    0.9027    2.2229 C   0  0  0  0  0  0  0  0  0  0  0  0
   -0.3291    1.9435    3.2719 C   0  0  0  0  0  0  0  0  0  0  0  0
   -0.9348    3.3002    2.8737 C   0  0  0  0  0  0  0  0  0  0  0  0
   -0.6300    3.6432    1.4093 C   0  0  0  0  0  0  0  0  0  0  0  0
   -1.2809    2.6322    0.4528 C   0  0  0  0  0  0  0  0  0  0  0  0
   -1.0182    1.2096    0.8849 C   0  0  2  0  0  3  0  0  0  0  0  0
    0.4668    0.1735   -1.9023 C   0  0  2  0  0  3  0  0  0  0  0  0
    1.5075    1.1386   -1.6847 C   0  0  2  0  0  3  0  0  0  0  0  0
    1.4856    2.6389   -1.8398 C   0  0  0  0  0  0  0  0  0  0  0  0
    2.8588    3.1225   -2.3409 C   0  0  0  0  0  0  0  0  0  0  0  0
    3.9846    2.6316   -1.4208 C   0  0  0  0  0  0  0  0  0  0  0  0
    4.0818    1.0948   -1.3712 C   0  0  0  0  0  0  0  0  0  0  0  0
    2.7337    0.4312   -1.4445 C   0  0  0  0  0  0  0  0  0  0  0  0
    2.4590   -0.9652   -1.5156 C   0  0  0  0  0  0  0  0  0  0  0  0
    3.4452   -2.0986   -1.5237 C   0  0  0  0  0  0  0  0  0  0  0  0
    2.7495   -3.4659   -1.6423 C   0  0  0  0  0  0  0  0  0  0  0  0
    1.5652   -3.4308   -2.6172 C   0  0  0  0  0  0  0  0  0  0  0  0
    0.4653   -2.4754   -2.1216 C   0  0  0  0  0  0  0  0  0  0  0  0
    1.0619   -1.1302   -1.7895 C   0  0  2  0  0  3  0  0  0  0  0  0
   -3.3795    0.3415   -1.2625 C   0  0  0  0  0  0  0  0  0  0  0  0
   -4.2692   -0.2178   -0.1378 C   0  0  0  0  0  0  0  0  0  0  0  0
   -5.7126    0.2918   -0.2280 C   0  0  0  0  0  0  0  0  0  0  0  0
   -6.3309   -0.0085   -1.5984 C   0  0  0  0  0  0  0  0  0  0  0  0
   -5.4607    0.5544   -2.7280 C   0  0  0  0  0  0  0  0  0  0  0  0
   -4.0138    0.0511   -2.6353 C   0  0  0  0  0  0  0  0  0  0  0  0
   -1.1541    1.5293   -2.2842 H   0  0  0  0  0  0  0  0  0  0  0  0
   -1.2147    0.0323   -3.2314 H   0  0  0  0  0  0  0  0  0  0  0  0
   -1.9738   -1.2794   -1.3680 H   0  0  0  0  0  0  0  0  0  0  0  0
   -0.5209   -3.1320    0.6846 H   0  0  0  0  0  0  0  0  0  0  0  0
   -2.2222   -2.7351    0.3345 H   0  0  0  0  0  0  0  0  0  0  0  0
   -1.9412   -4.1957    2.3941 H   0  0  0  0  0  0  0  0  0  0  0  0
   -2.7200   -2.6405    2.7870 H   0  0  0  0  0  0  0  0  0  0  0  0
    0.2894   -3.2702    3.0985 H   0  0  0  0  0  0  0  0  0  0  0  0
   -0.8788   -3.2663    4.4427 H   0  0  0  0  0  0  0  0  0  0  0  0
    0.6094   -1.1154    4.0579 H   0  0  0  0  0  0  0  0  0  0  0  0
   -1.1143   -0.8848    4.4107 H   0  0  0  0  0  0  0  0  0  0  0  0
    0.7680    2.0534    3.4162 H   0  0  0  0  0  0  0  0  0  0  0  0
   -0.7384    1.5982    4.2453 H   0  0  0  0  0  0  0  0  0  0  0  0
   -0.5487    4.0940    3.5450 H   0  0  0  0  0  0  0  0  0  0  0  0
   -2.0386    3.2751    3.0167 H   0  0  0  0  0  0  0  0  0  0  0  0
    0.4717    3.6392    1.2616 H   0  0  0  0  0  0  0  0  0  0  0  0
   -0.9867    4.6650    1.1662 H   0  0  0  0  0  0  0  0  0  0  0  0
   -0.9587    2.8190   -0.5899 H   0  0  0  0  0  0  0  0  0  0  0  0
   -2.3843    2.7909    0.4538 H   0  0  0  0  0  0  0  0  0  0  0  0
    1.2669    3.1441   -0.8748 H   0  0  0  0  0  0  0  0  0  0  0  0
    0.6801    2.9382   -2.5424 H   0  0  0  0  0  0  0  0  0  0  0  0
    2.8671    4.2307   -2.3948 H   0  0  0  0  0  0  0  0  0  0  0  0
    3.0238    2.7512   -3.3771 H   0  0  0  0  0  0  0  0  0  0  0  0
    3.7944    3.0117   -0.3962 H   0  0  0  0  0  0  0  0  0  0  0  0
    4.9583    3.0537   -1.7432 H   0  0  0  0  0  0  0  0  0  0  0  0
    4.6317    0.7749   -0.4615 H   0  0  0  0  0  0  0  0  0  0  0  0
    4.6797    0.7232   -2.2352 H   0  0  0  0  0  0  0  0  0  0  0  0
    4.0836   -2.0700   -0.6164 H   0  0  0  0  0  0  0  0  0  0  0  0
    4.1282   -1.9419   -2.3905 H   0  0  0  0  0  0  0  0  0  0  0  0
    2.3814   -3.7669   -0.6389 H   0  0  0  0  0  0  0  0  0  0  0  0
    3.4869   -4.2330   -1.9552 H   0  0  0  0  0  0  0  0  0  0  0  0
    1.1438   -4.4486   -2.7491 H   0  0  0  0  0  0  0  0  0  0  0  0
    1.9152   -3.0990   -3.6203 H   0  0  0  0  0  0  0  0  0  0  0  0
   -0.0374   -2.9324   -1.2431 H   0  0  0  0  0  0  0  0  0  0  0  0
   -0.3256   -2.3521   -2.8919 H   0  0  0  0  0  0  0  0  0  0  0  0
   -3.3431    1.4495   -1.1398 H   0  0  0  0  0  0  0  0  0  0  0  0
   -3.8305    0.0328    0.8503 H   0  0  0  0  0  0  0  0  0  0  0  0
   -4.2682   -1.3305   -0.2045 H   0  0  0  0  0  0  0  0  0  0  0  0
   -5.7208    1.3922   -0.0571 H   0  0  0  0  0  0  0  0  0  0  0  0
   -6.3265   -0.1522    0.5836 H   0  0  0  0  0  0  0  0  0  0  0  0
   -7.3616    0.3995   -1.6608 H   0  0  0  0  0  0  0  0  0  0  0  0
   -6.4226   -1.1113   -1.7231 H   0  0  0  0  0  0  0  0  0  0  0  0
   -5.4612    1.6662   -2.6679 H   0  0  0  0  0  0  0  0  0  0  0  0
   -5.8911    0.2974   -3.7186 H   0  0  0  0  0  0  0  0  0  0  0  0
   -3.9933   -1.0503   -2.8068 H   0  0  0  0  0  0  0  0  0  0  0  0
   -3.4083    0.5039   -3.4472 H   0  0  0  0  0  0  0  0  0  0  0  0
  1  2  1  0  0  0  0
  2 37  1  6  0  0  0
  3  2  1  1  0  0  0
  3 15  1  0  0  0  0
  3  4  1  0  0  0  0
  4  9  1  1  0  0  0
  5  4  1  0  0  0  0
  5  6  1  0  0  0  0
  6 41  1  0  0  0  0
  6  7  1  0  0  0  0
  7  8  1  0  0  0  0
  7 43  1  0  0  0  0
  8 44  1  0  0  0  0
  8 45  1  0  0  0  0
  9  8  1  0  0  0  0
 10  9  2  0  0  0  0
 10 11  1  0  0  0  0
 11 46  1  0  0  0  0
 11 47  1  0  0  0  0
 12 49  1  0  0  0  0
 12 11  1  0  0  0  0
 12 48  1  0  0  0  0
 13 12  1  0  0  0  0
 14 53  1  0  0  0  0
 14 15  1  0  0  0  0
 14 13  1  0  0  0  0
 15 10  1  1  0  0  0
 16  1  1  6  0  0  0
 16 28  1  0  0  0  0
 16 17  1  0  0  0  0
 17 22  1  6  0  0  0
 18 17  1  0  0  0  0
 18 54  1  0  0  0  0
 19 18  1  0  0  0  0
 19 20  1  0  0  0  0
 20 21  1  0  0  0  0
 20 58  1  0  0  0  0
 21 60  1  0  0  0  0
 22 21  1  0  0  0  0
 23 22  2  0  0  0  0
 24 23  1  0  0  0  0
 24 62  1  0  0  0  0
 25 24  1  0  0  0  0
 25 64  1  0  0  0  0
 26 27  1  0  0  0  0
 26 25  1  0  0  0  0
 27 28  1  0  0  0  0
 27 68  1  0  0  0  0
 28 23  1  6  0  0  0
 29  2  1  0  0  0  0
 29 70  1  0  0  0  0
 29 30  1  0  0  0  0
 30 71  1  0  0  0  0
 31 30  1  0  0  0  0
 31 73  1  0  0  0  0
 31 74  1  0  0  0  0
 32 31  1  0  0  0  0
 33 77  1  0  0  0  0
 33 34  1  0  0  0  0
 33 32  1  0  0  0  0
 34 29  1  0  0  0  0
 35  1  1  0  0  0  0
 36  1  1  0  0  0  0
 38  5  1  0  0  0  0
 39  5  1  0  0  0  0
 40  6  1  0  0  0  0
 42  7  1  0  0  0  0
 50 13  1  0  0  0  0
 51 13  1  0  0  0  0
 52 14  1  0  0  0  0
 55 18  1  0  0  0  0
 56 19  1  0  0  0  0
 57 19  1  0  0  0  0
 59 20  1  0  0  0  0
 61 21  1  0  0  0  0
 63 24  1  0  0  0  0
 65 25  1  0  0  0  0
 66 26  1  0  0  0  0
 67 26  1  0  0  0  0
 69 27  1  0  0  0  0
 72 30  1  0  0  0  0
 75 32  1  0  0  0  0
 76 32  1  0  0  0  0
 78 33  1  0  0  0  0
 79 34  1  0  0  0  0
 80 34  1  0  0  0  0
M  END
