3,9
 OpenBabel05122313053D

 38 39  0  0  1  0  0  0  0  0999 V2000
    2.0031    0.1946   -0.1436 Si  0  0  0  0  0  0  0  0  0  0  0  0
    4.0246   -0.9788    0.1568 Si  0  0  0  0  0  0  0  0  0  0  0  0
   -0.1884   -1.6184   -1.1241 C   0  0  0  0  0  3  0  0  0  0  0  0
   -0.0877   -1.3417   -2.1809 H   0  0  0  0  0  0  0  0  0  0  0  0
   -1.1316   -2.5609   -0.6014 C   0  0  0  0  0  0  0  0  0  0  0  0
   -1.8360   -3.1631   -1.1862 H   0  0  0  0  0  0  0  0  0  0  0  0
   -0.9527   -2.6140    0.8176 C   0  0  0  0  0  0  0  0  0  0  0  0
   -1.5293   -3.2299    1.5180 H   0  0  0  0  0  0  0  0  0  0  0  0
    0.1110   -1.7021    1.1602 C   0  0  0  0  0  3  0  0  0  0  0  0
    0.4717   -1.5074    2.1783 H   0  0  0  0  0  0  0  0  0  0  0  0
    0.6014   -1.0749   -0.0329 C   0  0  1  0  0  3  0  0  0  0  0  0
    1.9710    0.9993   -1.8576 C   0  0  0  0  0  0  0  0  0  0  0  0
    1.0353    1.5741   -2.0112 H   0  0  0  0  0  0  0  0  0  0  0  0
    2.0569    0.2421   -2.6635 H   0  0  0  0  0  0  0  0  0  0  0  0
    2.8283    1.6957   -1.9593 H   0  0  0  0  0  0  0  0  0  0  0  0
    1.7706    1.4916    1.2161 C   0  0  0  0  0  0  0  0  0  0  0  0
    0.8551    2.0874    1.0243 H   0  0  0  0  0  0  0  0  0  0  0  0
    2.6398    2.1798    1.2479 H   0  0  0  0  0  0  0  0  0  0  0  0
    1.6702    1.0188    2.2141 H   0  0  0  0  0  0  0  0  0  0  0  0
    4.2259   -2.2674   -1.2208 C   0  0  0  0  0  0  0  0  0  0  0  0
    5.1966   -2.7985   -1.1373 H   0  0  0  0  0  0  0  0  0  0  0  0
    4.1727   -1.8023   -2.2261 H   0  0  0  0  0  0  0  0  0  0  0  0
    3.4131   -3.0194   -1.1572 H   0  0  0  0  0  0  0  0  0  0  0  0
    4.0287   -1.8336    1.8526 C   0  0  0  0  0  0  0  0  0  0  0  0
    3.1908   -2.5577    1.9192 H   0  0  0  0  0  0  0  0  0  0  0  0
    3.9100   -1.1030    2.6784 H   0  0  0  0  0  0  0  0  0  0  0  0
    4.9775   -2.3846    2.0175 H   0  0  0  0  0  0  0  0  0  0  0  0
    5.4160    0.3083    0.0665 C   0  0  0  0  0  0  0  0  0  0  0  0
    5.6846    1.1559    1.1672 C   0  0  0  0  0  0  0  0  0  0  0  0
    5.1186    1.0326    2.1053 H   0  0  0  0  0  0  0  0  0  0  0  0
    6.6647    2.1572    1.0936 C   0  0  0  0  0  0  0  0  0  0  0  0
    6.8577    2.8024    1.9647 H   0  0  0  0  0  0  0  0  0  0  0  0
    7.3992    2.3358   -0.0901 C   0  0  0  0  0  0  0  0  0  0  0  0
    8.1684    3.1210   -0.1506 H   0  0  0  0  0  0  0  0  0  0  0  0
    7.1478    1.5074   -1.1949 C   0  0  0  0  0  0  0  0  0  0  0  0
    7.7218    1.6404   -2.1252 H   0  0  0  0  0  0  0  0  0  0  0  0
    6.1664    0.5064   -1.1152 C   0  0  0  0  0  0  0  0  0  0  0  0
    5.9868   -0.1354   -1.9927 H   0  0  0  0  0  0  0  0  0  0  0  0
  1  2  1  0  0  0  0
  1 16  1  0  0  0  0
  2 24  1  0  0  0  0
  3  5  1  0  0  0  0
  3 11  1  0  0  0  0
  4  3  1  0  0  0  0
  5  7  2  0  0  0  0
  6  5  1  0  0  0  0
  7  9  1  0  0  0  0
  7  8  1  0  0  0  0
  9 10  1  0  0  0  0
 11  1  1  6  0  0  0
 11  9  1  0  0  0  0
 12  1  1  0  0  0  0
 13 12  1  0  0  0  0
 14 12  1  0  0  0  0
 15 12  1  0  0  0  0
 16 18  1  0  0  0  0
 16 19  1  0  0  0  0
 17 16  1  0  0  0  0
 20 23  1  0  0  0  0
 20 21  1  0  0  0  0
 20  2  1  0  0  0  0
 22 20  1  0  0  0  0
 24 25  1  0  0  0  0
 24 27  1  0  0  0  0
 24 26  1  0  0  0  0
 28  2  1  0  0  0  0
 28 29  1  0  0  0  0
 29 30  1  0  0  0  0
 31 29  2  0  0  0  0
 31 32  1  0  0  0  0
 33 31  1  0  0  0  0
 34 33  1  0  0  0  0
 35 37  1  0  0  0  0
 35 33  2  0  0  0  0
 36 35  1  0  0  0  0
 37 28  2  0  0  0  0
 38 37  1  0  0  0  0
M  END
