5,19
 OpenBabel05122313053D

 29 30  0  0  0  0  0  0  0  0999 V2000
    1.7017    0.9505    0.4779 O   0  0  0  0  0  0  0  0  0  0  0  0
    2.3148   -0.9874    1.5032 O   0  0  0  0  0  0  0  0  0  0  0  0
   -0.4640    2.1580   -0.4897 N   0  0  0  0  0  2  0  0  0  0  0  0
    0.2668   -1.9059   -0.1525 N   0  0  0  0  0  2  0  0  0  0  0  0
   -1.2130    1.2425   -0.2967 C   0  0  0  0  0  1  0  0  0  0  0  0
    0.7055    2.8736   -0.4493 C   0  0  0  0  0  0  0  0  0  0  0  0
    1.8674    2.2406    0.0926 C   0  0  0  0  0  0  0  0  0  0  0  0
    3.0633    2.9737    0.1902 C   0  0  0  0  0  0  0  0  0  0  0  0
    3.1140    4.3031   -0.2648 C   0  0  0  0  0  0  0  0  0  0  0  0
    1.9801    4.9165   -0.8154 C   0  0  0  0  0  0  0  0  0  0  0  0
    0.7774    4.2023   -0.9052 C   0  0  0  0  0  0  0  0  0  0  0  0
    2.7372    0.3055    1.2117 C   0  0  0  0  0  0  0  0  0  0  0  0
    2.5736   -1.9647    0.5646 C   0  0  0  0  0  0  0  0  0  0  0  0
    1.5132   -2.4544   -0.2469 C   0  0  0  0  0  0  0  0  0  0  0  0
    1.7710   -3.5084   -1.1537 C   0  0  0  0  0  0  0  0  0  0  0  0
    3.0567   -4.0485   -1.2635 C   0  0  0  0  0  0  0  0  0  0  0  0
    4.1022   -3.5548   -0.4660 C   0  0  0  0  0  0  0  0  0  0  0  0
    3.8555   -2.5194    0.4483 C   0  0  0  0  0  0  0  0  0  0  0  0
   -0.7564   -1.2973   -0.0564 C   0  0  0  0  0  1  0  0  0  0  0  0
   -0.1317    4.6601   -1.3194 H   0  0  0  0  0  0  0  0  0  0  0  0
    2.0273    5.9558   -1.1707 H   0  0  0  0  0  0  0  0  0  0  0  0
    4.0590    4.8603   -0.1832 H   0  0  0  0  0  0  0  0  0  0  0  0
    3.9658    2.5145    0.6157 H   0  0  0  0  0  0  0  0  0  0  0  0
    2.8954    0.8347    2.1772 H   0  0  0  0  0  0  0  0  0  0  0  0
    3.6804    0.2984    0.6143 H   0  0  0  0  0  0  0  0  0  0  0  0
    4.6536   -2.1367    1.1017 H   0  0  0  0  0  0  0  0  0  0  0  0
    5.1117   -3.9840   -0.5455 H   0  0  0  0  0  0  0  0  0  0  0  0
    3.2425   -4.8651   -1.9764 H   0  0  0  0  0  0  0  0  0  0  0  0
    0.9410   -3.8803   -1.7706 H   0  0  0  0  0  0  0  0  0  0  0  0
  1 12  1  0  0  0  0
  3  6  1  0  0  0  0
  3  5  1  0  0  0  0
  4 19  1  0  0  0  0
  6  7  1  0  0  0  0
  7  8  2  0  0  0  0
  7  1  1  0  0  0  0
  8 23  1  0  0  0  0
  9 22  1  0  0  0  0
  9  8  1  0  0  0  0
 10  9  2  0  0  0  0
 11 10  1  0  0  0  0
 11  6  2  0  0  0  0
 12  2  1  0  0  0  0
 12 24  1  0  0  0  0
 13  2  1  0  0  0  0
 14  4  1  0  0  0  0
 14 13  2  0  0  0  0
 15 14  1  0  0  0  0
 16 15  2  0  0  0  0
 16 17  1  0  0  0  0
 17 18  2  0  0  0  0
 18 13  1  0  0  0  0
 18 26  1  0  0  0  0
 20 11  1  0  0  0  0
 21 10  1  0  0  0  0
 25 12  1  0  0  0  0
 27 17  1  0  0  0  0
 28 16  1  0  0  0  0
 29 15  1  0  0  0  0
M  END
