3,6
 OpenBabel05122313053D

 12 12  0  0  0  0  0  0  0  0999 V2000
   -0.5743    2.2685   -1.2823 C   0  0  0  0  0  0  0  0  0  0  0  0
   -1.4180    2.2335   -0.1498 C   0  0  0  0  0  0  0  0  0  0  0  0
   -0.8378    2.2024    1.1505 C   0  0  0  0  0  3  0  0  0  0  0  0
    0.5741    2.2688    1.2818 C   0  0  0  0  0  0  0  0  0  0  0  0
    1.4179    2.2337    0.1494 C   0  0  0  0  0  0  0  0  0  0  0  0
    0.8376    2.2022   -1.1509 C   0  0  0  0  0  3  0  0  0  0  0  0
   -1.1104    2.2807   -2.4997 F   0  0  0  0  0  0  0  0  0  0  0  0
    1.1102    2.2812    2.4992 F   0  0  0  0  0  0  0  0  0  0  0  0
   -2.5085    2.2181   -0.2887 H   0  0  0  0  0  0  0  0  0  0  0  0
   -1.4716    2.1214    2.0441 H   0  0  0  0  0  0  0  0  0  0  0  0
    2.5083    2.2184    0.2882 H   0  0  0  0  0  0  0  0  0  0  0  0
    1.4715    2.1211   -2.0445 H   0  0  0  0  0  0  0  0  0  0  0  0
  1  6  1  0  0  0  0
  1  2  2  0  0  0  0
  2  3  1  0  0  0  0
  3  4  1  0  0  0  0
  3 10  1  0  0  0  0
  4  8  1  0  0  0  0
  5 11  1  0  0  0  0
  5  4  2  0  0  0  0
  6  5  1  0  0  0  0
  7  1  1  0  0  0  0
  9  2  1  0  0  0  0
 12  6  1  0  0  0  0
M  END
