14,18
 OpenBabel05122313053D

 53 56  0  0  1  0  0  0  0  0999 V2000
   -1.6477   -0.1426    0.5847 P   0  0  2  0  0  0  0  0  0  0  0  0
    4.1759   -1.1719   -0.7886 C   0  0  0  0  0  0  0  0  0  0  0  0
    3.3033   -1.8162   -0.9811 H   0  0  0  0  0  0  0  0  0  0  0  0
    5.4564   -1.7261   -0.6651 C   0  0  0  0  0  0  0  0  0  0  0  0
    5.5945   -2.8079   -0.8133 H   0  0  0  0  0  0  0  0  0  0  0  0
    6.5544   -0.9157   -0.3320 C   0  0  0  0  0  0  0  0  0  0  0  0
    7.5586   -1.3562   -0.2367 H   0  0  0  0  0  0  0  0  0  0  0  0
    6.3640    0.4572   -0.1106 C   0  0  0  0  0  0  0  0  0  0  0  0
    7.2186    1.0987    0.1532 H   0  0  0  0  0  0  0  0  0  0  0  0
    5.0844    1.0173   -0.2297 C   0  0  0  0  0  0  0  0  0  0  0  0
    4.9419    2.0976   -0.0720 H   0  0  0  0  0  0  0  0  0  0  0  0
    3.9789    0.2113   -0.5775 C   0  0  0  0  0  0  0  0  0  0  0  0
    2.6323    0.8116   -0.7101 C   0  0  1  0  0  3  0  0  0  0  0  0
    1.7085    0.3900   -1.7356 C   0  0  0  0  0  3  0  0  0  0  0  0
    2.0114   -0.4169   -2.4191 H   0  0  0  0  0  0  0  0  0  0  0  0
    0.4093    0.9568   -1.8749 C   0  0  0  0  0  3  0  0  0  0  0  0
   -0.2695    0.6197   -2.6708 H   0  0  0  0  0  0  0  0  0  0  0  0
   -0.0637    1.8722   -0.8608 C   0  0  2  0  0  3  0  0  0  0  0  0
    0.8297    2.3226    0.1739 C   0  0  0  0  0  0  0  0  0  0  0  0
    0.4641    2.9945    0.9622 H   0  0  0  0  0  0  0  0  0  0  0  0
    2.1397    1.7582    0.2466 C   0  0  0  0  0  0  0  0  0  0  0  0
    2.7548    1.9722    1.1330 H   0  0  0  0  0  0  0  0  0  0  0  0
   -1.5083    2.2526   -0.8283 C   0  0  0  0  0  0  0  0  0  0  0  0
   -1.9912    3.4297   -1.4280 C   0  0  0  0  0  0  0  0  0  0  0  0
   -1.2893    4.1118   -1.9315 H   0  0  0  0  0  0  0  0  0  0  0  0
   -3.3618    3.7242   -1.3832 C   0  0  0  0  0  0  0  0  0  0  0  0
   -3.7387    4.6461   -1.8509 H   0  0  0  0  0  0  0  0  0  0  0  0
   -4.2537    2.8414   -0.7503 C   0  0  0  0  0  0  0  0  0  0  0  0
   -5.3298    3.0703   -0.7253 H   0  0  0  0  0  0  0  0  0  0  0  0
   -3.7769    1.6650   -0.1545 C   0  0  0  0  0  0  0  0  0  0  0  0
   -4.4811    0.9668    0.3237 H   0  0  0  0  0  0  0  0  0  0  0  0
   -2.4012    1.3716   -0.1807 C   0  0  0  0  0  0  0  0  0  0  0  0
   -2.5837   -1.4697   -0.2906 C   0  0  0  0  0  0  0  0  0  0  0  0
   -2.1138   -1.9038   -1.5469 C   0  0  0  0  0  0  0  0  0  0  0  0
   -1.1448   -1.5374   -1.9132 H   0  0  0  0  0  0  0  0  0  0  0  0
   -2.8536   -2.8262   -2.2990 C   0  0  0  0  0  0  0  0  0  0  0  0
   -2.4720   -3.1616   -3.2753 H   0  0  0  0  0  0  0  0  0  0  0  0
   -4.0651   -3.3342   -1.8035 C   0  0  0  0  0  0  0  0  0  0  0  0
   -4.6411   -4.0642   -2.3923 H   0  0  0  0  0  0  0  0  0  0  0  0
   -4.5344   -2.9141   -0.5502 C   0  0  0  0  0  0  0  0  0  0  0  0
   -5.4796   -3.3118   -0.1505 H   0  0  0  0  0  0  0  0  0  0  0  0
   -3.7997   -1.9851    0.2035 C   0  0  0  0  0  0  0  0  0  0  0  0
   -4.1870   -1.6712    1.1834 H   0  0  0  0  0  0  0  0  0  0  0  0
   -2.3190   -0.1242    2.3284 C   0  0  0  0  0  0  0  0  0  0  0  0
   -3.4233   -0.0671    2.1957 H   0  0  0  0  0  0  0  0  0  0  0  0
   -1.8534    1.1427    3.0560 C   0  0  0  0  0  0  0  0  0  0  0  0
   -2.3130    1.1793    4.0651 H   0  0  0  0  0  0  0  0  0  0  0  0
   -2.1502    2.0637    2.5148 H   0  0  0  0  0  0  0  0  0  0  0  0
   -0.7513    1.1291    3.1731 H   0  0  0  0  0  0  0  0  0  0  0  0
   -1.9540   -1.4152    3.0719 C   0  0  0  0  0  0  0  0  0  0  0  0
   -0.8563   -1.4769    3.2026 H   0  0  0  0  0  0  0  0  0  0  0  0
   -2.2871   -2.3220    2.5306 H   0  0  0  0  0  0  0  0  0  0  0  0
   -2.4347   -1.4146    4.0722 H   0  0  0  0  0  0  0  0  0  0  0  0
  1 44  1  1  0  0  0
  2  4  2  0  0  0  0
  2 12  1  0  0  0  0
  3  2  1  0  0  0  0
  4  6  1  0  0  0  0
  5  4  1  0  0  0  0
  6  7  1  0  0  0  0
  6  8  2  0  0  0  0
  8  9  1  0  0  0  0
 10  8  1  0  0  0  0
 10 11  1  0  0  0  0
 12 10  2  0  0  0  0
 13 12  1  1  0  0  0
 13 21  1  0  0  0  0
 14 13  1  0  0  0  0
 15 14  1  0  0  0  0
 16 14  1  0  0  0  0
 16 18  1  0  0  0  0
 17 16  1  0  0  0  0
 18 23  1  1  0  0  0
 18 19  1  0  0  0  0
 19 21  2  0  0  0  0
 19 20  1  0  0  0  0
 21 22  1  0  0  0  0
 23 32  1  0  0  0  0
 24 26  1  0  0  0  0
 24 23  2  0  0  0  0
 25 24  1  0  0  0  0
 26 28  2  0  0  0  0
 27 26  1  0  0  0  0
 28 29  1  0  0  0  0
 28 30  1  0  0  0  0
 30 31  1  0  0  0  0
 32 30  2  0  0  0  0
 32  1  1  0  0  0  0
 33 42  1  0  0  0  0
 33  1  1  0  0  0  0
 34 33  2  0  0  0  0
 35 34  1  0  0  0  0
 36 38  2  0  0  0  0
 36 34  1  0  0  0  0
 37 36  1  0  0  0  0
 38 40  1  0  0  0  0
 39 38  1  0  0  0  0
 40 41  1  0  0  0  0
 40 42  2  0  0  0  0
 42 43  1  0  0  0  0
 44 46  1  0  0  0  0
 44 50  1  0  0  0  0
 45 44  1  0  0  0  0
 46 49  1  0  0  0  0
 46 47  1  0  0  0  0
 48 46  1  0  0  0  0
 50 51  1  0  0  0  0
 50 53  1  0  0  0  0
 52 50  1  0  0  0  0
M  END
