5,20
 OpenBabel05122313053D

 41 42  0  0  1  0  0  0  0  0999 V2000
   -2.5888    0.0887   -1.2811 C   0  0  0  0  0  0  0  0  0  0  0  0
   -0.1842   -0.7981   -1.3319 C   0  0  2  0  0  3  0  0  0  0  0  0
   -0.6830   -2.9548   -0.1725 O   0  0  0  0  0  0  0  0  0  0  0  0
    3.5240   -0.1204   -0.6077 C   0  0  0  0  0  0  0  0  0  0  0  0
    1.0904   -0.1809   -1.4231 C   0  0  0  0  0  3  0  0  0  0  0  0
   -3.6952    1.8283    0.0201 C   0  0  0  0  0  0  0  0  0  0  0  0
    3.7456    1.2496   -0.8827 C   0  0  0  0  0  0  0  0  0  0  0  0
   -2.6456    1.4328   -0.8260 C   0  0  0  0  0  0  0  0  0  0  0  0
   -1.4102   -0.3632   -2.1213 C   0  0  0  0  0  0  0  0  0  0  0  0
    4.6223   -0.8998   -0.1754 C   0  0  0  0  0  0  0  0  0  0  0  0
    6.1009    1.0234   -0.3116 C   0  0  0  0  0  0  0  0  0  0  0  0
   -3.6183   -0.8203   -0.9244 C   0  0  0  0  0  0  0  0  0  0  0  0
    5.0204    1.8112   -0.7420 C   0  0  0  0  0  0  0  0  0  0  0  0
    5.8952   -0.3360   -0.0267 C   0  0  0  0  0  0  0  0  0  0  0  0
   -4.6953    0.9311    0.4327 C   0  0  0  0  0  0  0  0  0  0  0  0
   -4.6451   -0.3806   -0.0681 C   0  0  0  0  0  0  0  0  0  0  0  0
   -1.6046    2.4447   -1.2393 C   0  0  0  0  0  0  0  0  0  0  0  0
   -3.6554   -2.2343   -1.4559 C   0  0  0  0  0  0  0  0  0  0  0  0
    2.2095   -0.7715   -0.7541 C   0  0  0  0  0  3  0  0  0  0  0  0
   -0.2232   -1.8537   -0.3239 C   0  0  0  0  0  3  0  0  0  0  0  0
   -5.7682    1.3555    1.4023 C   0  0  0  0  0  0  0  0  0  0  0  0
    2.2535   -1.8717   -0.7295 H   0  0  0  0  0  0  0  0  0  0  0  0
    1.1824    0.7750   -1.9654 H   0  0  0  0  0  0  0  0  0  0  0  0
   -1.7012   -1.2272   -2.7536 H   0  0  0  0  0  0  0  0  0  0  0  0
   -1.0954    0.4406   -2.8159 H   0  0  0  0  0  0  0  0  0  0  0  0
    6.7335   -0.9623    0.3139 H   0  0  0  0  0  0  0  0  0  0  0  0
    7.0999    1.4698   -0.1953 H   0  0  0  0  0  0  0  0  0  0  0  0
    4.4636   -1.9659    0.0515 H   0  0  0  0  0  0  0  0  0  0  0  0
    2.9125    1.8919   -1.2038 H   0  0  0  0  0  0  0  0  0  0  0  0
    5.1709    2.8786   -0.9641 H   0  0  0  0  0  0  0  0  0  0  0  0
   -3.6952   -2.2503   -2.5661 H   0  0  0  0  0  0  0  0  0  0  0  0
   -2.7664   -2.8236   -1.1542 H   0  0  0  0  0  0  0  0  0  0  0  0
   -0.5904    2.1452   -0.9085 H   0  0  0  0  0  0  0  0  0  0  0  0
   -4.5527   -2.7665   -1.0873 H   0  0  0  0  0  0  0  0  0  0  0  0
   -1.5621    2.5667   -2.3429 H   0  0  0  0  0  0  0  0  0  0  0  0
   -1.8186    3.4380   -0.8013 H   0  0  0  0  0  0  0  0  0  0  0  0
   -5.4256    1.2114    2.4499 H   0  0  0  0  0  0  0  0  0  0  0  0
   -6.6944    0.7608    1.2766 H   0  0  0  0  0  0  0  0  0  0  0  0
   -6.0244    2.4275    1.2881 H   0  0  0  0  0  0  0  0  0  0  0  0
   -3.7262    2.8714    0.3747 H   0  0  0  0  0  0  0  0  0  0  0  0
   -5.4350   -1.0944    0.2169 H   0  0  0  0  0  0  0  0  0  0  0  0
  1 12  2  0  0  0  0
  1  8  1  0  0  0  0
  2 20  1  1  0  0  0
  4 10  1  0  0  0  0
  5  2  1  0  0  0  0
  5 19  1  0  0  0  0
  6 40  1  0  0  0  0
  6 15  1  0  0  0  0
  7 13  1  0  0  0  0
  7  4  2  0  0  0  0
  8  6  2  0  0  0  0
  9  2  1  0  0  0  0
  9  1  1  0  0  0  0
 10 14  2  0  0  0  0
 10 28  1  0  0  0  0
 11 27  1  0  0  0  0
 11 14  1  0  0  0  0
 12 16  1  0  0  0  0
 13 11  2  0  0  0  0
 14 26  1  0  0  0  0
 15 21  1  0  0  0  0
 16 41  1  0  0  0  0
 16 15  2  0  0  0  0
 17 33  1  0  0  0  0
 17  8  1  0  0  0  0
 17 36  1  0  0  0  0
 18 32  1  0  0  0  0
 18 34  1  0  0  0  0
 18 12  1  0  0  0  0
 19 22  1  0  0  0  0
 19  4  1  0  0  0  0
 20  3  2  0  0  0  0
 21 37  1  0  0  0  0
 23  5  1  0  0  0  0
 24  9  1  0  0  0  0
 25  9  1  0  0  0  0
 29  7  1  0  0  0  0
 30 13  1  0  0  0  0
 31 18  1  0  0  0  0
 35 17  1  0  0  0  0
 38 21  1  0  0  0  0
 39 21  1  0  0  0  0
M  END
