1,8
 OpenBabel05122313053D

 33 32  0  0  1  0  0  0  0  0999 V2000
   -2.2487    1.3816    0.4299 C   0  0  0  0  0  3  0  0  0  0  0  0
   -1.5284    1.5771   -0.8018 C   0  0  0  0  0  3  0  0  0  0  0  0
   -0.4340    2.6188   -0.9250 C   0  0  1  0  0  0  0  0  0  0  0  0
   -0.9386    4.0560   -1.0623 C   0  0  0  0  0  0  0  0  0  0  0  0
    0.4741    2.4349    0.2909 C   0  0  0  0  0  0  0  0  0  0  0  0
    0.8676    3.3619    0.9891 O   0  0  0  0  0  0  0  0  0  0  0  0
    0.7780    1.0164    0.6273 C   0  0  0  0  0  3  0  0  0  0  0  0
    1.1679    0.0279   -0.3469 C   0  0  0  0  0  3  0  0  0  0  0  0
    2.2375   -0.9846    0.0129 C   0  0  0  0  0  0  0  0  0  0  0  0
    3.7119   -0.5096   -0.1696 C   0  0  0  0  0  0  0  0  0  0  0  0
    4.6255   -1.6939    0.1963 C   0  0  0  0  0  0  0  0  0  0  0  0
    4.0326    0.6786    0.7544 C   0  0  0  0  0  0  0  0  0  0  0  0
    3.9696   -0.1081   -1.6334 C   0  0  0  0  0  0  0  0  0  0  0  0
   -1.9833    1.9951    1.3072 H   0  0  0  0  0  0  0  0  0  0  0  0
   -3.3170    1.1119    0.3953 H   0  0  0  0  0  0  0  0  0  0  0  0
   -2.0789    1.3746   -1.7370 H   0  0  0  0  0  0  0  0  0  0  0  0
    0.1843    2.3660   -1.8186 H   0  0  0  0  0  0  0  0  0  0  0  0
   -0.0889    4.7658   -1.0855 H   0  0  0  0  0  0  0  0  0  0  0  0
   -1.5707    4.3255   -0.1932 H   0  0  0  0  0  0  0  0  0  0  0  0
   -1.5402    4.1840   -1.9839 H   0  0  0  0  0  0  0  0  0  0  0  0
    1.2137    0.9194    1.6346 H   0  0  0  0  0  0  0  0  0  0  0  0
    1.2021    0.3736   -1.3972 H   0  0  0  0  0  0  0  0  0  0  0  0
    2.1139   -1.9040   -0.5999 H   0  0  0  0  0  0  0  0  0  0  0  0
    2.0897   -1.2984    1.0688 H   0  0  0  0  0  0  0  0  0  0  0  0
    4.4347   -2.5682   -0.4605 H   0  0  0  0  0  0  0  0  0  0  0  0
    4.4611   -2.0165    1.2453 H   0  0  0  0  0  0  0  0  0  0  0  0
    5.6952   -1.4186    0.0910 H   0  0  0  0  0  0  0  0  0  0  0  0
    3.8541    0.4190    1.8184 H   0  0  0  0  0  0  0  0  0  0  0  0
    3.4189    1.5708    0.5210 H   0  0  0  0  0  0  0  0  0  0  0  0
    5.0988    0.9697    0.6544 H   0  0  0  0  0  0  0  0  0  0  0  0
    3.7143   -0.9347   -2.3299 H   0  0  0  0  0  0  0  0  0  0  0  0
    5.0391    0.1430   -1.7886 H   0  0  0  0  0  0  0  0  0  0  0  0
    3.3770    0.7822   -1.9262 H   0  0  0  0  0  0  0  0  0  0  0  0
  1 14  1  0  0  0  0
  2  1  1  0  0  0  0
  3 17  1  6  0  0  0
  3  2  1  0  0  0  0
  3  5  1  0  0  0  0
  4  3  1  0  0  0  0
  4 19  1  0  0  0  0
  5  7  1  0  0  0  0
  5  6  2  0  0  0  0
  7 21  1  0  0  0  0
  8  9  1  0  0  0  0
  8  7  1  0  0  0  0
  9 24  1  0  0  0  0
 10  9  1  0  0  0  0
 10 11  1  0  0  0  0
 10 12  1  0  0  0  0
 11 26  1  0  0  0  0
 12 28  1  0  0  0  0
 13 10  1  0  0  0  0
 15  1  1  0  0  0  0
 16  2  1  0  0  0  0
 18  4  1  0  0  0  0
 20  4  1  0  0  0  0
 22  8  1  0  0  0  0
 23  9  1  0  0  0  0
 25 11  1  0  0  0  0
 27 11  1  0  0  0  0
 29 12  1  0  0  0  0
 30 12  1  0  0  0  0
 31 13  1  0  0  0  0
 32 13  1  0  0  0  0
 33 13  1  0  0  0  0
M  END
