1,8
 OpenBabel05122313053D

 33 32  0  0  1  0  0  0  0  0999 V2000
   -2.1377    1.5597    0.7598 C   0  0  0  0  0  3  0  0  0  0  0  0
   -1.4551    1.8747   -0.4678 C   0  0  0  0  0  3  0  0  0  0  0  0
   -0.2893    2.8403   -0.5110 C   0  0  2  0  0  0  0  0  0  0  0  0
    0.3324    3.0010   -1.9079 C   0  0  0  0  0  0  0  0  0  0  0  0
    0.7397    2.3905    0.5307 C   0  0  0  0  0  0  0  0  0  0  0  0
    1.4251    3.1729    1.1771 O   0  0  0  0  0  0  0  0  0  0  0  0
    0.8188    0.9155    0.7623 C   0  0  0  0  0  3  0  0  0  0  0  0
    1.1231   -0.0268   -0.2879 C   0  0  0  0  0  3  0  0  0  0  0  0
    2.0822   -1.1678   -0.0135 C   0  0  0  0  0  0  0  0  0  0  0  0
    3.5977   -0.8212   -0.1413 C   0  0  0  0  0  0  0  0  0  0  0  0
    3.9081   -0.2748   -1.5470 C   0  0  0  0  0  0  0  0  0  0  0  0
    4.0228    0.2122    0.9176 C   0  0  0  0  0  0  0  0  0  0  0  0
    4.3885   -2.1238    0.0797 C   0  0  0  0  0  0  0  0  0  0  0  0
   -1.7858    2.0195    1.6983 H   0  0  0  0  0  0  0  0  0  0  0  0
   -3.2258    1.3819    0.7432 H   0  0  0  0  0  0  0  0  0  0  0  0
   -2.0610    1.8476   -1.3908 H   0  0  0  0  0  0  0  0  0  0  0  0
   -0.6202    3.8484   -0.1773 H   0  0  0  0  0  0  0  0  0  0  0  0
    0.6453    2.0267   -2.3340 H   0  0  0  0  0  0  0  0  0  0  0  0
    1.2192    3.6637   -1.8694 H   0  0  0  0  0  0  0  0  0  0  0  0
   -0.4022    3.4503   -2.6070 H   0  0  0  0  0  0  0  0  0  0  0  0
    1.2454    0.6880    1.7532 H   0  0  0  0  0  0  0  0  0  0  0  0
    1.2068    0.3940   -1.3057 H   0  0  0  0  0  0  0  0  0  0  0  0
    1.8775   -2.0087   -0.7122 H   0  0  0  0  0  0  0  0  0  0  0  0
    1.8887   -1.5624    1.0073 H   0  0  0  0  0  0  0  0  0  0  0  0
    4.9995   -0.1221   -1.6752 H   0  0  0  0  0  0  0  0  0  0  0  0
    3.4163    0.7028   -1.7260 H   0  0  0  0  0  0  0  0  0  0  0  0
    3.5724   -0.9786   -2.3380 H   0  0  0  0  0  0  0  0  0  0  0  0
    5.1125    0.4101    0.8478 H   0  0  0  0  0  0  0  0  0  0  0  0
    3.8152   -0.1583    1.9430 H   0  0  0  0  0  0  0  0  0  0  0  0
    3.4983    1.1809    0.8008 H   0  0  0  0  0  0  0  0  0  0  0  0
    5.4811   -1.9420    0.0137 H   0  0  0  0  0  0  0  0  0  0  0  0
    4.1260   -2.8892   -0.6805 H   0  0  0  0  0  0  0  0  0  0  0  0
    4.1776   -2.5548    1.0804 H   0  0  0  0  0  0  0  0  0  0  0  0
  1 14  1  0  0  0  0
  2  1  1  0  0  0  0
  3  2  1  0  0  0  0
  3 17  1  1  0  0  0
  3  5  1  0  0  0  0
  4 19  1  0  0  0  0
  4  3  1  0  0  0  0
  5  7  1  0  0  0  0
  5  6  2  0  0  0  0
  7 21  1  0  0  0  0
  8  9  1  0  0  0  0
  8  7  1  0  0  0  0
  9 24  1  0  0  0  0
 10  9  1  0  0  0  0
 10 13  1  0  0  0  0
 10 12  1  0  0  0  0
 11 10  1  0  0  0  0
 12 29  1  0  0  0  0
 13 33  1  0  0  0  0
 15  1  1  0  0  0  0
 16  2  1  0  0  0  0
 18  4  1  0  0  0  0
 20  4  1  0  0  0  0
 22  8  1  0  0  0  0
 23  9  1  0  0  0  0
 25 11  1  0  0  0  0
 26 11  1  0  0  0  0
 27 11  1  0  0  0  0
 28 12  1  0  0  0  0
 30 12  1  0  0  0  0
 31 13  1  0  0  0  0
 32 13  1  0  0  0  0
M  END
