2,4
 OpenBabel05122313053D

 20 20  0  0  1  0  0  0  0  0999 V2000
   -1.1573    1.0854   -0.0138 C   0  0  0  0  0  3  0  0  0  0  0  0
   -0.5495    1.0993   -1.3109 C   0  0  0  0  0  3  0  0  0  0  0  0
   -0.0069    0.0071   -2.0523 C   0  0  0  0  0  3  0  0  0  0  0  0
    0.1851   -1.3078   -1.5388 C   0  0  0  0  0  3  0  0  0  0  0  0
   -0.3603   -1.8393   -0.3273 C   0  0  0  0  0  3  0  0  0  0  0  0
   -1.7786   -1.9480    0.0547 C   0  0  0  0  0  0  0  0  0  0  0  0
   -2.6877   -0.9967    0.3359 C   0  0  0  0  0  0  0  0  0  0  0  0
   -2.4669    0.4761    0.4451 C   0  0  2  0  0  0  0  0  0  0  0  0
   -3.6222    1.2514   -0.2334 C   0  0  0  0  0  0  0  0  0  0  0  0
   -1.0706    2.0868    0.4467 H   0  0  0  0  0  0  0  0  0  0  0  0
   -0.2652    2.0866   -1.7170 H   0  0  0  0  0  0  0  0  0  0  0  0
    0.5234    0.2606   -2.9832 H   0  0  0  0  0  0  0  0  0  0  0  0
    0.9408   -1.9097   -2.0720 H   0  0  0  0  0  0  0  0  0  0  0  0
    0.2022   -2.7319   -0.0008 H   0  0  0  0  0  0  0  0  0  0  0  0
   -2.1182   -2.9964    0.1402 H   0  0  0  0  0  0  0  0  0  0  0  0
   -3.7088   -1.3274    0.5921 H   0  0  0  0  0  0  0  0  0  0  0  0
   -2.5395    0.7015    1.5368 H   0  0  0  0  0  0  0  0  0  0  0  0
   -3.5244    2.3427   -0.0671 H   0  0  0  0  0  0  0  0  0  0  0  0
   -3.6206    1.0661   -1.3266 H   0  0  0  0  0  0  0  0  0  0  0  0
   -4.6040    0.9305    0.1708 H   0  0  0  0  0  0  0  0  0  0  0  0
  1  8  1  0  0  0  0
  1 10  1  0  0  0  0
  2  1  1  0  0  0  0
  3  4  1  0  0  0  0
  3  2  1  0  0  0  0
  4  5  1  0  0  0  0
  5 14  1  0  0  0  0
  5  6  1  0  0  0  0
  6 15  1  0  0  0  0
  6  7  2  0  0  0  0
  7  8  1  0  0  0  0
  7 16  1  0  0  0  0
  8 17  1  1  0  0  0
  9 18  1  0  0  0  0
  9 20  1  0  0  0  0
  9  8  1  0  0  0  0
 11  2  1  0  0  0  0
 12  3  1  0  0  0  0
 13  4  1  0  0  0  0
 19  9  1  0  0  0  0
M  END
