1,29
 OpenBabel05122313053D

 58 60  0  0  1  0  0  0  0  0999 V2000
   -0.7685    1.6806   -0.0519 C   0  0  2  0  0  3  0  0  0  0  0  0
   -0.5153    2.6096   -1.1978 C   0  0  0  0  0  0  0  0  0  0  0  0
    0.2007    3.6050   -1.2001 O   0  0  0  0  0  0  0  0  0  0  0  0
   -1.1633    2.1844   -2.3229 O   0  0  0  0  0  0  0  0  0  0  0  0
   -1.1072    3.0798   -3.4347 C   0  0  0  0  0  0  0  0  0  0  0  0
   -1.6302    2.5706   -4.2646 H   0  0  0  0  0  0  0  0  0  0  0  0
   -0.0590    3.3056   -3.7168 H   0  0  0  0  0  0  0  0  0  0  0  0
   -1.6226    4.0279   -3.1803 H   0  0  0  0  0  0  0  0  0  0  0  0
   -2.1928    1.6266    0.4487 C   0  0  1  0  0  0  0  0  0  0  0  0
   -3.2098    2.6164   -0.0775 C   0  0  0  0  0  0  0  0  0  0  0  0
   -3.0394    3.6602   -0.6738 O   0  0  0  0  0  0  0  0  0  0  0  0
   -4.4661    2.1716    0.2354 O   0  0  0  0  0  0  0  0  0  0  0  0
   -4.3739    0.9587    1.0104 C   0  0  0  0  0  0  0  0  0  0  0  0
   -5.2228    0.3055    0.7299 H   0  0  0  0  0  0  0  0  0  0  0  0
   -4.4591    1.2185    2.0889 H   0  0  0  0  0  0  0  0  0  0  0  0
   -3.0048    0.3612    0.6746 C   0  0  1  0  0  0  0  0  0  0  0  0
   -2.6289   -0.2505    1.5156 H   0  0  0  0  0  0  0  0  0  0  0  0
   -3.0067   -0.4641   -0.6350 C   0  0  0  0  0  0  0  0  0  0  0  0
   -4.0280   -0.8225   -0.8687 H   0  0  0  0  0  0  0  0  0  0  0  0
   -2.6897    0.1845   -1.4700 H   0  0  0  0  0  0  0  0  0  0  0  0
   -2.0793   -1.6561   -0.5186 C   0  0  2  0  0  0  0  0  0  0  0  0
   -2.6151   -2.7563    0.3584 C   0  0  0  0  0  0  0  0  0  0  0  0
   -2.0128   -3.7460    0.7478 O   0  0  0  0  0  0  0  0  0  0  0  0
   -3.9129   -2.5322    0.7210 O   0  0  0  0  0  0  0  0  0  0  0  0
   -4.4799   -3.5256    1.5786 C   0  0  0  0  0  0  0  0  0  0  0  0
   -5.5091   -3.1895    1.7990 H   0  0  0  0  0  0  0  0  0  0  0  0
   -3.8927   -3.6216    2.5143 H   0  0  0  0  0  0  0  0  0  0  0  0
   -4.4949   -4.5171    1.0824 H   0  0  0  0  0  0  0  0  0  0  0  0
   -0.5584   -1.4730   -0.4688 C   0  0  1  0  0  3  0  0  0  0  0  0
    0.2102   -2.2896    0.5226 C   0  0  0  0  0  0  0  0  0  0  0  0
    1.0600   -3.1387    0.2808 O   0  0  0  0  0  0  0  0  0  0  0  0
   -0.0639   -1.8864    1.8043 O   0  0  0  0  0  0  0  0  0  0  0  0
    0.8196   -2.3969    2.8243 C   0  0  0  0  0  0  0  0  0  0  0  0
    0.9698   -3.4831    2.6523 H   0  0  0  0  0  0  0  0  0  0  0  0
    0.2848   -2.2376    3.7803 H   0  0  0  0  0  0  0  0  0  0  0  0
    2.1332   -1.6658    2.8016 C   0  0  0  0  0  0  0  0  0  0  0  0
    2.7605   -1.8579    1.9142 H   0  0  0  0  0  0  0  0  0  0  0  0
    2.5427   -0.8068    3.7501 C   0  0  0  0  0  0  0  0  0  0  0  0
    1.9240   -0.5927    4.6381 H   0  0  0  0  0  0  0  0  0  0  0  0
    3.5096   -0.2839    3.6760 H   0  0  0  0  0  0  0  0  0  0  0  0
   -1.0666    2.1975    1.3458 C   0  0  0  0  0  0  0  0  0  0  0  0
   -1.0883    3.6845    1.6758 C   0  0  0  0  0  0  0  0  0  0  0  0
   -0.1006    4.0017    2.0708 H   0  0  0  0  0  0  0  0  0  0  0  0
   -1.8335    3.8852    2.4746 H   0  0  0  0  0  0  0  0  0  0  0  0
   -1.3315    4.3132    0.8028 H   0  0  0  0  0  0  0  0  0  0  0  0
   -0.6305    1.3421    2.5222 C   0  0  0  0  0  0  0  0  0  0  0  0
   -0.6083    0.2662    2.2730 H   0  0  0  0  0  0  0  0  0  0  0  0
   -1.2983    1.5046    3.3955 H   0  0  0  0  0  0  0  0  0  0  0  0
    0.3976    1.6248    2.8336 H   0  0  0  0  0  0  0  0  0  0  0  0
   -1.1646   -2.1017   -1.7020 C   0  0  0  0  0  0  0  0  0  0  0  0
   -1.0205   -3.5852   -2.0187 C   0  0  0  0  0  0  0  0  0  0  0  0
   -1.9084   -3.9373   -2.5857 H   0  0  0  0  0  0  0  0  0  0  0  0
   -0.9025   -4.2084   -1.1178 H   0  0  0  0  0  0  0  0  0  0  0  0
   -0.1380   -3.7517   -2.6718 H   0  0  0  0  0  0  0  0  0  0  0  0
   -1.2271   -1.2562   -2.9677 C   0  0  0  0  0  0  0  0  0  0  0  0
   -1.2070   -0.1710   -2.7593 H   0  0  0  0  0  0  0  0  0  0  0  0
   -2.1316   -1.4974   -3.5649 H   0  0  0  0  0  0  0  0  0  0  0  0
   -0.3458   -1.4832   -3.6049 H   0  0  0  0  0  0  0  0  0  0  0  0
  1  2  1  6  0  0  0
  1  9  1  0  0  0  0
  1 41  1  0  0  0  0
  3  2  2  0  0  0  0
  4  2  1  0  0  0  0
  5  8  1  0  0  0  0
  5  4  1  0  0  0  0
  6  5  1  0  0  0  0
  7  5  1  0  0  0  0
  9 10  1  6  0  0  0
  9 16  1  0  0  0  0
  9 41  1  0  0  0  0
 10 12  1  0  0  0  0
 11 10  2  0  0  0  0
 12 13  1  0  0  0  0
 13 15  1  0  0  0  0
 14 13  1  0  0  0  0
 16 13  1  0  0  0  0
 16 17  1  1  0  0  0
 18 21  1  0  0  0  0
 18 16  1  0  0  0  0
 19 18  1  0  0  0  0
 20 18  1  0  0  0  0
 21 29  1  0  0  0  0
 21 22  1  1  0  0  0
 22 24  1  0  0  0  0
 22 23  2  0  0  0  0
 24 25  1  0  0  0  0
 25 26  1  0  0  0  0
 25 27  1  0  0  0  0
 28 25  1  0  0  0  0
 29 30  1  1  0  0  0
 30 32  1  0  0  0  0
 31 30  2  0  0  0  0
 32 33  1  0  0  0  0
 33 35  1  0  0  0  0
 34 33  1  0  0  0  0
 36 33  1  0  0  0  0
 36 38  2  0  0  0  0
 37 36  1  0  0  0  0
 38 39  1  0  0  0  0
 40 38  1  0  0  0  0
 41 42  1  0  0  0  0
 41 46  1  0  0  0  0
 42 43  1  0  0  0  0
 42 44  1  0  0  0  0
 45 42  1  0  0  0  0
 46 49  1  0  0  0  0
 46 48  1  0  0  0  0
 47 46  1  0  0  0  0
 50 21  1  0  0  0  0
 50 29  1  0  0  0  0
 51 50  1  0  0  0  0
 51 53  1  0  0  0  0
 52 51  1  0  0  0  0
 54 51  1  0  0  0  0
 55 56  1  0  0  0  0
 55 50  1  0  0  0  0
 57 55  1  0  0  0  0
 58 55  1  0  0  0  0
M  END
