8,11
 OpenBabel05122313053D

 23 24  0  0  1  0  0  0  0  0999 V2000
    4.5308    0.4225   -0.7963 C   0  0  0  0  0  0  0  0  0  0  0  0
    3.3599    0.7470   -0.0820 O   0  0  0  0  0  0  0  0  0  0  0  0
    2.2340   -0.0512   -0.4379 C   0  0  1  0  0  0  0  0  0  0  0  0
    2.2232   -1.4479    0.2380 C   0  0  0  0  0  0  0  0  0  0  0  0
    1.5133   -1.2500    1.5959 C   0  0  0  0  0  0  0  0  0  0  0  0
    0.6047   -0.0732    1.3394 C   0  0  0  0  0  0  0  0  0  0  0  0
   -0.5381    0.3702    2.0698 C   0  0  0  0  0  0  0  0  0  0  0  0
   -1.2475    1.5080    1.6029 C   0  0  0  0  0  3  0  0  0  0  0  0
   -0.8153    2.2211    0.4383 C   0  0  0  0  0  0  0  0  0  0  0  0
    0.3132    1.7671   -0.2901 C   0  0  0  0  0  0  0  0  0  0  0  0
    1.0202    0.6170    0.1669 C   0  0  2  0  0  3  0  0  0  0  0  0
    4.3875    0.5249   -1.8999 H   0  0  0  0  0  0  0  0  0  0  0  0
    4.8873   -0.6169   -0.5973 H   0  0  0  0  0  0  0  0  0  0  0  0
    5.3220    1.1269   -0.4741 H   0  0  0  0  0  0  0  0  0  0  0  0
    2.1627   -0.1266   -1.5494 H   0  0  0  0  0  0  0  0  0  0  0  0
    1.6364   -2.1487   -0.3887 H   0  0  0  0  0  0  0  0  0  0  0  0
    3.2451   -1.8626    0.3365 H   0  0  0  0  0  0  0  0  0  0  0  0
    2.2359   -0.9744    2.3942 H   0  0  0  0  0  0  0  0  0  0  0  0
    0.9665   -2.1506    1.9369 H   0  0  0  0  0  0  0  0  0  0  0  0
   -0.8993   -0.1891    2.9437 H   0  0  0  0  0  0  0  0  0  0  0  0
   -2.1612    1.8285    2.1229 H   0  0  0  0  0  0  0  0  0  0  0  0
   -1.4000    3.0763    0.0735 H   0  0  0  0  0  0  0  0  0  0  0  0
    0.6170    2.2740   -1.2169 H   0  0  0  0  0  0  0  0  0  0  0  0
  1 13  1  0  0  0  0
  1 14  1  0  0  0  0
  1  2  1  0  0  0  0
  3 15  1  6  0  0  0
  3  2  1  0  0  0  0
  3 11  1  0  0  0  0
  3  4  1  0  0  0  0
  4 17  1  0  0  0  0
  4  5  1  0  0  0  0
  5 19  1  0  0  0  0
  5 18  1  0  0  0  0
  6  5  1  0  0  0  0
  6  7  2  0  0  0  0
  7 20  1  0  0  0  0
  8  7  1  0  0  0  0
  8 21  1  0  0  0  0
  9  8  1  0  0  0  0
 10  9  2  0  0  0  0
 11 10  1  6  0  0  0
 11  6  1  0  0  0  0
 12  1  1  0  0  0  0
 16  4  1  0  0  0  0
 22  9  1  0  0  0  0
 23 10  1  0  0  0  0
M  END
