14,18
 OpenBabel05122313053D

 31 33  0  0  1  0  0  0  0  0999 V2000
    1.4624    1.1273    0.6447 N   0  0  0  0  0  0  0  0  0  0  0  0
    3.4759    0.9482   -0.9009 C   0  0  0  0  0  0  0  0  0  0  0  0
    3.6681    0.7166   -1.9709 H   0  0  0  0  0  0  0  0  0  0  0  0
    3.6267    2.0439   -0.8062 H   0  0  0  0  0  0  0  0  0  0  0  0
    4.4670    0.1692   -0.0326 C   0  0  0  0  0  0  0  0  0  0  0  0
    5.5066    0.4382   -0.3110 H   0  0  0  0  0  0  0  0  0  0  0  0
    4.3371    0.4568    1.0340 H   0  0  0  0  0  0  0  0  0  0  0  0
    4.2330   -1.3376   -0.1833 C   0  0  0  0  0  0  0  0  0  0  0  0
    4.9689   -1.9127    0.4159 H   0  0  0  0  0  0  0  0  0  0  0  0
    4.3929   -1.6320   -1.2451 H   0  0  0  0  0  0  0  0  0  0  0  0
    2.8114   -1.7010    0.2534 C   0  0  0  0  0  0  0  0  0  0  0  0
    2.7045   -1.4719    1.3358 H   0  0  0  0  0  0  0  0  0  0  0  0
    2.6210   -2.7891    0.1465 H   0  0  0  0  0  0  0  0  0  0  0  0
   -0.5147   -1.9236    0.5453 C   0  0  0  0  0  3  0  0  0  0  0  0
   -0.4775   -2.8730   -0.0084 H   0  0  0  0  0  0  0  0  0  0  0  0
   -1.5480   -1.6934    1.5022 C   0  0  0  0  0  3  0  0  0  0  0  0
   -2.3185   -2.4541    1.6816 H   0  0  0  0  0  0  0  0  0  0  0  0
   -1.6404   -0.4183    2.1292 C   0  0  0  0  0  3  0  0  0  0  0  0
   -2.4841   -0.2094    2.8020 H   0  0  0  0  0  0  0  0  0  0  0  0
   -0.6810    0.6114    1.8874 C   0  0  0  0  0  0  0  0  0  0  0  0
   -0.7976    1.5954    2.3570 H   0  0  0  0  0  0  0  0  0  0  0  0
    1.4225    2.5577    0.8658 C   0  0  0  0  0  0  0  0  0  0  0  0
    2.4306    2.9886    0.7160 H   0  0  0  0  0  0  0  0  0  0  0  0
    1.1288    2.7700    1.9119 H   0  0  0  0  0  0  0  0  0  0  0  0
    0.7100    3.0734    0.1810 H   0  0  0  0  0  0  0  0  0  0  0  0
    1.7171   -0.9246   -0.5222 C   0  0  1  0  0  0  0  0  0  0  0  0
    1.5837   -1.3573   -1.5335 H   0  0  0  0  0  0  0  0  0  0  0  0
    0.4466   -0.9166    0.2922 C   0  0  2  0  0  3  0  0  0  0  0  0
    0.4017    0.3250    1.0084 C   0  0  0  0  0  0  0  0  0  0  0  0
    2.0120    0.5975   -0.6300 C   0  0  1  0  0  0  0  0  0  0  0  0
    1.3891    1.0117   -1.4587 H   0  0  0  0  0  0  0  0  0  0  0  0
  1 22  1  0  0  0  0
  1 29  1  0  0  0  0
  2  4  1  0  0  0  0
  2 30  1  0  0  0  0
  2  5  1  0  0  0  0
  3  2  1  0  0  0  0
  5  7  1  0  0  0  0
  6  5  1  0  0  0  0
  8  5  1  0  0  0  0
  8 11  1  0  0  0  0
  8  9  1  0  0  0  0
 10  8  1  0  0  0  0
 11 12  1  0  0  0  0
 13 11  1  0  0  0  0
 14 16  1  0  0  0  0
 15 14  1  0  0  0  0
 16 17  1  0  0  0  0
 16 18  1  0  0  0  0
 18 19  1  0  0  0  0
 20 18  1  0  0  0  0
 20 21  1  0  0  0  0
 22 24  1  0  0  0  0
 23 22  1  0  0  0  0
 25 22  1  0  0  0  0
 26 27  1  6  0  0  0
 26 11  1  0  0  0  0
 26 28  1  0  0  0  0
 28 14  1  1  0  0  0
 28 29  1  0  0  0  0
 29 20  2  0  0  0  0
 30 31  1  6  0  0  0
 30 26  1  0  0  0  0
 30  1  1  0  0  0  0
M  END
