3,6
 OpenBabel05122313053D

 28 29  0  0  1  0  0  0  0  0999 V2000
   -1.0723    0.0003    1.0390 C   0  0  2  0  0  0  0  0  0  0  0  0
   -0.2665    1.2342    0.6637 C   0  0  0  0  0  3  0  0  0  0  0  0
    0.0677    1.5923   -0.6488 C   0  0  0  0  0  3  0  0  0  0  0  0
    0.2259    0.7090   -1.7812 C   0  0  0  0  0  0  0  0  0  0  0  0
    0.2259   -0.7099   -1.7808 C   0  0  0  0  0  0  0  0  0  0  0  0
    0.0677   -1.5926   -0.6479 C   0  0  0  0  0  3  0  0  0  0  0  0
   -0.2665   -1.2339    0.6643 C   0  0  0  0  0  3  0  0  0  0  0  0
   -2.4901    0.0001    0.4286 C   0  0  1  0  0  0  0  0  0  0  0  0
   -3.3164   -1.1943    0.8295 C   0  0  0  0  0  0  0  0  0  0  0  0
   -4.4544   -1.5260    0.1495 C   0  0  0  0  0  0  0  0  0  0  0  0
   -5.1022   -0.6920   -0.8323 C   0  0  0  0  0  0  0  0  0  0  0  0
   -5.1023    0.6916   -0.8325 C   0  0  0  0  0  0  0  0  0  0  0  0
   -4.4546    1.5260    0.1489 C   0  0  0  0  0  0  0  0  0  0  0  0
   -3.3165    1.1946    0.8291 C   0  0  0  0  0  0  0  0  0  0  0  0
   -1.1736    0.0006    2.1439 H   0  0  0  0  0  0  0  0  0  0  0  0
   -0.1656    2.0279    1.4191 H   0  0  0  0  0  0  0  0  0  0  0  0
    0.3722    2.6359   -0.8276 H   0  0  0  0  0  0  0  0  0  0  0  0
    0.4930    1.1891   -2.7347 H   0  0  0  0  0  0  0  0  0  0  0  0
    0.4930   -1.1904   -2.7341 H   0  0  0  0  0  0  0  0  0  0  0  0
    0.3722   -2.6363   -0.8263 H   0  0  0  0  0  0  0  0  0  0  0  0
   -0.1656   -2.0271    1.4201 H   0  0  0  0  0  0  0  0  0  0  0  0
   -2.3978   -0.0001   -0.6822 H   0  0  0  0  0  0  0  0  0  0  0  0
   -2.9818   -1.8140    1.6791 H   0  0  0  0  0  0  0  0  0  0  0  0
   -4.9463   -2.4850    0.3871 H   0  0  0  0  0  0  0  0  0  0  0  0
   -5.7854   -1.1923   -1.5394 H   0  0  0  0  0  0  0  0  0  0  0  0
   -5.7855    1.1917   -1.5398 H   0  0  0  0  0  0  0  0  0  0  0  0
   -4.9465    2.4851    0.3863 H   0  0  0  0  0  0  0  0  0  0  0  0
   -2.9819    1.8147    1.6785 H   0  0  0  0  0  0  0  0  0  0  0  0
  1 15  1  1  0  0  0
  2  1  1  0  0  0  0
  2 16  1  0  0  0  0
  3  2  1  0  0  0  0
  4  5  2  0  0  0  0
  4  3  1  0  0  0  0
  5  6  1  0  0  0  0
  6  7  1  0  0  0  0
  7  1  1  0  0  0  0
  7 21  1  0  0  0  0
  8 22  1  6  0  0  0
  8 14  1  0  0  0  0
  8  9  1  0  0  0  0
  8  1  1  0  0  0  0
  9 23  1  0  0  0  0
 10 24  1  0  0  0  0
 10  9  2  0  0  0  0
 11 10  1  0  0  0  0
 12 11  2  0  0  0  0
 12 13  1  0  0  0  0
 13 27  1  0  0  0  0
 13 14  2  0  0  0  0
 14 28  1  0  0  0  0
 17  3  1  0  0  0  0
 18  4  1  0  0  0  0
 19  5  1  0  0  0  0
 20  6  1  0  0  0  0
 25 11  1  0  0  0  0
 26 12  1  0  0  0  0
M  END
