1,3
 OpenBabel05122313053D

  7  6  0  0  0  0  0  0  0  0999 V2000
   -1.0949    0.2442    2.2715 C   0  0  0  0  0  3  0  0  0  0  0  0
   -0.0003    0.3819    3.1737 O   0  0  0  0  0  0  0  0  0  0  0  0
    1.0944    0.2445    2.2717 C   0  0  0  0  0  3  0  0  0  0  0  0
   -1.6071    1.2132    2.0793 H   0  0  0  0  0  0  0  0  0  0  0  0
   -1.8192   -0.5213    2.6330 H   0  0  0  0  0  0  0  0  0  0  0  0
    1.8189   -0.5207    2.6334 H   0  0  0  0  0  0  0  0  0  0  0  0
    1.6064    1.2137    2.0796 H   0  0  0  0  0  0  0  0  0  0  0  0
  1  5  1  0  0  0  0
  1  2  1  0  0  0  0
  3  6  1  0  0  0  0
  3  2  1  0  0  0  0
  4  1  1  0  0  0  0
  7  3  1  0  0  0  0
M  END
