5,31
q = 0.0, confidence = 0.998

 82 88  0  0  1  0  0  0  0  0999 V2000
   -2.0054   -0.0949    0.2684 N   0  0  0  0  0  0  0  0  0  0  0  0
   -0.3580   -0.3119    1.7058 N   0  0  0  0  0  0  0  0  0  0  0  0
    2.7690    0.5012   -0.2348 N   0  0  0  0  0  0  0  0  0  0  0  0
    1.3611    1.7112   -1.3990 N   0  0  0  0  0  0  0  0  0  0  0  0
   -0.7005   -0.4965    0.3865 C   0  0  0  0  0  2  0  0  0  0  0  0
   -2.5015    0.3494    1.4935 C   0  0  0  0  0  0  0  0  0  0  0  0
   -3.7450    0.8697    1.8820 C   0  0  0  0  0  0  0  0  0  0  0  0
   -3.8951    1.2337    3.2283 C   0  0  0  0  0  0  0  0  0  0  0  0
   -2.8445    1.0760    4.1581 C   0  0  0  0  0  0  0  0  0  0  0  0
   -1.5996    0.5562    3.7705 C   0  0  0  0  0  0  0  0  0  0  0  0
   -1.4431    0.2043    2.4210 C   0  0  0  0  0  0  0  0  0  0  0  0
   -2.7445   -0.0545   -0.9977 C   0  0  0  0  0  0  0  0  0  0  0  0
   -4.1178   -0.6800   -0.9132 C   0  0  0  0  0  0  0  0  0  0  0  0
   -5.2605    0.0688   -1.2531 C   0  0  0  0  0  0  0  0  0  0  0  0
   -6.5382   -0.5087   -1.1844 C   0  0  0  0  0  0  0  0  0  0  0  0
   -6.6811   -1.8419   -0.7696 C   0  0  0  0  0  0  0  0  0  0  0  0
   -5.5422   -2.5954   -0.4382 C   0  0  0  0  0  0  0  0  0  0  0  0
   -4.2649   -2.0228   -0.5126 C   0  0  0  0  0  0  0  0  0  0  0  0
    0.9110   -0.6830    2.3898 C   0  0  2  0  0  0  0  0  0  0  0  0
    1.7318    0.5606    2.7682 C   0  0  0  0  0  0  0  0  0  0  0  0
    2.8383    0.2381    3.7728 C   0  0  0  0  0  0  0  0  0  0  0  0
    1.5673   -1.8695    1.6833 C   0  0  0  0  0  0  0  0  0  0  0  0
    0.9264   -3.0933    1.9730 C   0  0  0  0  0  0  0  0  0  0  0  0
    1.2318   -4.2818    1.3076 C   0  0  0  0  0  0  0  0  0  0  0  0
    2.2147   -4.2603    0.3148 C   0  0  0  0  0  0  0  0  0  0  0  0
    2.8839   -3.0671    0.0318 C   0  0  0  0  0  0  0  0  0  0  0  0
    2.5983   -1.8518    0.6948 C   0  0  0  0  0  0  0  0  0  0  0  0
    3.4869   -0.6375    0.3768 C   0  0  1  0  0  0  0  0  0  0  0  0
    4.7292   -0.9400   -0.4898 C   0  0  0  0  0  0  0  0  0  0  0  0
    5.8150   -1.7322    0.2370 C   0  0  0  0  0  0  0  0  0  0  0  0
    1.5950    0.4464   -0.9271 C   0  0  0  0  0  2  0  0  0  0  0  0
    3.2843    1.8033   -0.2474 C   0  0  0  0  0  0  0  0  0  0  0  0
    4.4171    2.3810    0.3443 C   0  0  0  0  0  0  0  0  0  0  0  0
    4.6053    3.7600    0.1555 C   0  0  0  0  0  0  0  0  0  0  0  0
    3.6947    4.5337   -0.5961 C   0  0  0  0  0  0  0  0  0  0  0  0
    2.5566    3.9588   -1.1837 C   0  0  0  0  0  0  0  0  0  0  0  0
    2.3706    2.5835   -0.9962 C   0  0  0  0  0  0  0  0  0  0  0  0
    0.1909    2.0788   -2.1735 C   0  0  0  0  0  0  0  0  0  0  0  0
   -0.8464    2.8632   -1.3933 C   0  0  0  0  0  0  0  0  0  0  0  0
   -1.8865    3.5089   -2.0920 C   0  0  0  0  0  0  0  0  0  0  0  0
   -2.9146    4.1620   -1.3968 C   0  0  0  0  0  0  0  0  0  0  0  0
   -2.9135    4.1832    0.0081 C   0  0  0  0  0  0  0  0  0  0  0  0
   -1.8740    3.5553    0.7100 C   0  0  0  0  0  0  0  0  0  0  0  0
   -0.8462    2.9011    0.0130 C   0  0  0  0  0  0  0  0  0  0  0  0
   -4.5655    0.9795    1.1628 H   0  0  0  0  0  0  0  0  0  0  0  0
   -4.8575    1.6448    3.5669 H   0  0  0  0  0  0  0  0  0  0  0  0
   -3.0024    1.3640    5.2079 H   0  0  0  0  0  0  0  0  0  0  0  0
   -0.7860    0.4368    4.4993 H   0  0  0  0  0  0  0  0  0  0  0  0
   -2.1124   -0.6111   -1.7217 H   0  0  0  0  0  0  0  0  0  0  0  0
   -2.8210    1.0046   -1.3199 H   0  0  0  0  0  0  0  0  0  0  0  0
   -5.1440    1.1183   -1.5704 H   0  0  0  0  0  0  0  0  0  0  0  0
   -7.4249    0.0857   -1.4533 H   0  0  0  0  0  0  0  0  0  0  0  0
   -7.6817   -2.2969   -0.7109 H   0  0  0  0  0  0  0  0  0  0  0  0
   -5.6496   -3.6461   -0.1277 H   0  0  0  0  0  0  0  0  0  0  0  0
   -3.3598   -2.6135   -0.2947 H   0  0  0  0  0  0  0  0  0  0  0  0
    0.5593   -1.1018    3.3573 H   0  0  0  0  0  0  0  0  0  0  0  0
    1.0336    1.2973    3.2170 H   0  0  0  0  0  0  0  0  0  0  0  0
    2.1348    1.0592    1.8702 H   0  0  0  0  0  0  0  0  0  0  0  0
    2.4173   -0.1347    4.7297 H   0  0  0  0  0  0  0  0  0  0  0  0
    3.4460    1.1360    3.9998 H   0  0  0  0  0  0  0  0  0  0  0  0
    3.5211   -0.5508    3.3962 H   0  0  0  0  0  0  0  0  0  0  0  0
    0.1208   -3.0927    2.7243 H   0  0  0  0  0  0  0  0  0  0  0  0
    0.6865   -5.2062    1.5456 H   0  0  0  0  0  0  0  0  0  0  0  0
    2.4529   -5.1652   -0.2622 H   0  0  0  0  0  0  0  0  0  0  0  0
    3.6212   -3.0723   -0.7773 H   0  0  0  0  0  0  0  0  0  0  0  0
    3.8581   -0.2455    1.3483 H   0  0  0  0  0  0  0  0  0  0  0  0
    4.3925   -1.4242   -1.4296 H   0  0  0  0  0  0  0  0  0  0  0  0
    5.1522    0.0349   -0.8057 H   0  0  0  0  0  0  0  0  0  0  0  0
    5.4601   -2.7257    0.5740 H   0  0  0  0  0  0  0  0  0  0  0  0
    6.1725   -1.1879    1.1370 H   0  0  0  0  0  0  0  0  0  0  0  0
    6.6905   -1.8936   -0.4225 H   0  0  0  0  0  0  0  0  0  0  0  0
    5.1303    1.7855    0.9307 H   0  0  0  0  0  0  0  0  0  0  0  0
    5.4831    4.2468    0.6050 H   0  0  0  0  0  0  0  0  0  0  0  0
    3.8765    5.6114   -0.7193 H   0  0  0  0  0  0  0  0  0  0  0  0
    1.8345    4.5617   -1.7514 H   0  0  0  0  0  0  0  0  0  0  0  0
   -0.2404    1.1174   -2.5300 H   0  0  0  0  0  0  0  0  0  0  0  0
    0.5183    2.6411   -3.0727 H   0  0  0  0  0  0  0  0  0  0  0  0
   -1.8959    3.4879   -3.1937 H   0  0  0  0  0  0  0  0  0  0  0  0
   -3.7223    4.6579   -1.9563 H   0  0  0  0  0  0  0  0  0  0  0  0
   -3.7230    4.6894    0.5551 H   0  0  0  0  0  0  0  0  0  0  0  0
   -1.8684    3.5577    1.8102 H   0  0  0  0  0  0  0  0  0  0  0  0
   -0.0432    2.3991    0.5721 H   0  0  0  0  0  0  0  0  0  0  0  0
  1  5  1  0  0  0  0
  1  6  1  0  0  0  0
  2 19  1  0  0  0  0
  2 11  1  0  0  0  0
  3 28  1  0  0  0  0
  4 37  1  0  0  0  0
  4 31  1  0  0  0  0
  5  2  1  0  0  0  0
  6  7  2  0  0  0  0
  6 11  1  0  0  0  0
  7  8  1  0  0  0  0
  8 46  1  0  0  0  0
  8  9  2  0  0  0  0
  9 47  1  0  0  0  0
 10  9  1  0  0  0  0
 10 48  1  0  0  0  0
 11 10  2  0  0  0  0
 12 13  1  0  0  0  0
 12  1  1  0  0  0  0
 13 18  1  0  0  0  0
 14 15  1  0  0  0  0
 14 13  2  0  0  0  0
 15 16  2  0  0  0  0
 16 53  1  0  0  0  0
 16 17  1  0  0  0  0
 17 54  1  0  0  0  0
 18 17  2  0  0  0  0
 18 55  1  0  0  0  0
 19 20  1  0  0  0  0
 19 56  1  1  0  0  0
 20 57  1  0  0  0  0
 20 21  1  0  0  0  0
 21 60  1  0  0  0  0
 21 59  1  0  0  0  0
 22 23  1  0  0  0  0
 22 19  1  0  0  0  0
 23 62  1  0  0  0  0
 24 63  1  0  0  0  0
 24 23  2  0  0  0  0
 25 24  1  0  0  0  0
 26 25  2  0  0  0  0
 26 27  1  0  0  0  0
 27 22  2  0  0  0  0
 28 27  1  0  0  0  0
 28 66  1  1  0  0  0
 29 30  1  0  0  0  0
 29 28  1  0  0  0  0
 30 69  1  0  0  0  0
 30 70  1  0  0  0  0
 31  3  1  0  0  0  0
 32  3  1  0  0  0  0
 32 33  1  0  0  0  0
 33 72  1  0  0  0  0
 34 33  2  0  0  0  0
 34 73  1  0  0  0  0
 35 34  1  0  0  0  0
 36 37  1  0  0  0  0
 36 35  2  0  0  0  0
 37 32  2  0  0  0  0
 38  4  1  0  0  0  0
 38 39  1  0  0  0  0
 39 44  1  0  0  0  0
 40 41  1  0  0  0  0
 40 39  2  0  0  0  0
 41 42  2  0  0  0  0
 42 80  1  0  0  0  0
 42 43  1  0  0  0  0
 43 81  1  0  0  0  0
 44 82  1  0  0  0  0
 44 43  2  0  0  0  0
 45  7  1  0  0  0  0
 49 12  1  0  0  0  0
 50 12  1  0  0  0  0
 51 14  1  0  0  0  0
 52 15  1  0  0  0  0
 58 20  1  0  0  0  0
 61 21  1  0  0  0  0
 64 25  1  0  0  0  0
 65 26  1  0  0  0  0
 67 29  1  0  0  0  0
 68 29  1  0  0  0  0
 71 30  1  0  0  0  0
 74 35  1  0  0  0  0
 75 36  1  0  0  0  0
 76 38  1  0  0  0  0
 77 38  1  0  0  0  0
 78 40  1  0  0  0  0
 79 41  1  0  0  0  0
M  END
