2,9
 OpenBabel05122313053D

 14 14  0  0  0  0  0  0  0  0999 V2000
   -1.5264    0.9005   -2.1300 O   0  0  0  0  0  0  0  0  0  0  0  0
   -1.7575    0.3246    0.1856 C   0  0  0  0  0  3  0  0  0  0  0  0
   -2.3339    0.7502   -1.0325 C   0  0  0  0  0  0  0  0  0  0  0  0
   -3.6977    1.0654   -1.1478 C   0  0  0  0  0  0  0  0  0  0  0  0
   -4.5342    0.9393   -0.0225 C   0  0  0  0  0  0  0  0  0  0  0  0
   -3.9859    0.4979    1.1930 C   0  0  0  0  0  0  0  0  0  0  0  0
   -2.6221    0.1878    1.2917 C   0  0  0  0  0  0  0  0  0  0  0  0
   -2.2610   -0.1576    2.2743 H   0  0  0  0  0  0  0  0  0  0  0  0
   -0.2835    0.2028   -2.0137 C   0  0  0  0  0  3  0  0  0  0  0  0
    0.4503    0.7837   -2.6025 H   0  0  0  0  0  0  0  0  0  0  0  0
   -0.3893   -0.8031   -2.4662 H   0  0  0  0  0  0  0  0  0  0  0  0
   -4.2279    1.4779   -2.3137 F   0  0  0  0  0  0  0  0  0  0  0  0
   -5.8408    1.2374   -0.1212 F   0  0  0  0  0  0  0  0  0  0  0  0
   -4.8025    0.3815    2.2626 F   0  0  0  0  0  0  0  0  0  0  0  0
  1  9  1  0  0  0  0
  1  3  1  0  0  0  0
  2  7  1  0  0  0  0
  3  2  2  0  0  0  0
  4  3  1  0  0  0  0
  4  5  2  0  0  0  0
  5  6  1  0  0  0  0
  6  7  2  0  0  0  0
  6 14  1  0  0  0  0
  7  8  1  0  0  0  0
 10  9  1  0  0  0  0
 11  9  1  0  0  0  0
 12  4  1  0  0  0  0
 13  5  1  0  0  0  0
M  END
