6,10
 OpenBabel05122313053D

 33 35  0  0  1  0  0  0  0  0999 V2000
   -1.7537    0.2222    0.4140 N   0  0  0  0  0  0  0  0  0  0  0  0
   -0.7577    4.5835    0.2491 N   0  0  0  0  0  0  0  0  0  0  0  0
   -2.0905    1.5278    0.8805 O   0  0  0  0  0  0  0  0  0  0  0  0
    1.4886    1.0244   -1.4052 C   0  0  0  0  0  0  0  0  0  0  0  0
    1.2161    0.8435   -2.4545 H   0  0  0  0  0  0  0  0  0  0  0  0
    2.8232    1.3698   -1.0719 C   0  0  0  0  0  3  0  0  0  0  0  0
    3.5746    1.4601   -1.8689 H   0  0  0  0  0  0  0  0  0  0  0  0
    3.2040    1.5724    0.2881 C   0  0  0  0  0  3  0  0  0  0  0  0
    4.2445    1.8118    0.5430 H   0  0  0  0  0  0  0  0  0  0  0  0
    2.2415    1.3688    1.3088 C   0  0  0  0  0  3  0  0  0  0  0  0
    2.5377    1.4590    2.3633 H   0  0  0  0  0  0  0  0  0  0  0  0
    0.8965    1.0211    0.9892 C   0  0  0  0  0  3  0  0  0  0  0  0
    0.1550    0.8434    1.7772 H   0  0  0  0  0  0  0  0  0  0  0  0
    0.5201    0.8320   -0.3678 C   0  0  0  0  0  0  0  0  0  0  0  0
   -0.9039    0.4582   -0.7518 C   0  0  2  0  0  0  0  0  0  0  0  0
   -0.8928   -0.4503   -1.3822 H   0  0  0  0  0  0  0  0  0  0  0  0
   -1.6494    1.6129   -1.4710 C   0  0  0  0  0  0  0  0  0  0  0  0
   -1.0068    2.2107   -2.1423 H   0  0  0  0  0  0  0  0  0  0  0  0
   -2.4937    1.1965   -2.0515 H   0  0  0  0  0  0  0  0  0  0  0  0
   -2.1845    2.4247   -0.2735 C   0  0  2  0  0  0  0  0  0  0  0  0
   -3.2450    2.7252   -0.4216 H   0  0  0  0  0  0  0  0  0  0  0  0
   -1.3910    3.6251    0.0228 C   0  0  0  0  0  0  0  0  0  0  0  0
   -2.9008   -0.6063    0.2321 C   0  0  0  0  0  0  0  0  0  0  0  0
   -4.1788   -0.1849    0.6521 C   0  0  0  0  0  0  0  0  0  0  0  0
   -4.2917    0.8037    1.1151 H   0  0  0  0  0  0  0  0  0  0  0  0
   -5.2817   -1.0376    0.4975 C   0  0  0  0  0  0  0  0  0  0  0  0
   -6.2739   -0.6945    0.8286 H   0  0  0  0  0  0  0  0  0  0  0  0
   -5.1302   -2.3123   -0.0672 C   0  0  0  0  0  0  0  0  0  0  0  0
   -5.9984   -2.9770   -0.1852 H   0  0  0  0  0  0  0  0  0  0  0  0
   -3.8510   -2.7358   -0.4639 C   0  0  0  0  0  0  0  0  0  0  0  0
   -3.7083   -3.7407   -0.8896 H   0  0  0  0  0  0  0  0  0  0  0  0
   -2.7372   -1.9003   -0.3123 C   0  0  0  0  0  0  0  0  0  0  0  0
   -1.7385   -2.2681   -0.5882 H   0  0  0  0  0  0  0  0  0  0  0  0
  1  3  1  0  0  0  0
  4  6  1  0  0  0  0
  4 14  2  0  0  0  0
  5  4  1  0  0  0  0
  6  8  1  0  0  0  0
  7  6  1  0  0  0  0
  8  9  1  0  0  0  0
  8 10  1  0  0  0  0
 10 11  1  0  0  0  0
 12 10  1  0  0  0  0
 12 13  1  0  0  0  0
 14 12  1  0  0  0  0
 15 16  1  6  0  0  0
 15 14  1  0  0  0  0
 15  1  1  0  0  0  0
 17 15  1  0  0  0  0
 17 20  1  0  0  0  0
 18 17  1  0  0  0  0
 19 17  1  0  0  0  0
 20 21  1  6  0  0  0
 20 22  1  0  0  0  0
 20  3  1  0  0  0  0
 22  2  3  0  0  0  0
 23  1  1  0  0  0  0
 23 24  1  0  0  0  0
 24 25  1  0  0  0  0
 26 24  2  0  0  0  0
 26 27  1  0  0  0  0
 28 26  1  0  0  0  0
 29 28  1  0  0  0  0
 30 32  1  0  0  0  0
 30 28  2  0  0  0  0
 31 30  1  0  0  0  0
 32 23  2  0  0  0  0
 33 32  1  0  0  0  0
M  END
