5,7
 OpenBabel05122313053D

 48 50  0  0  1  0  0  0  0  0999 V2000
   -1.1168    0.3581   -0.8424 P   0  0  0  0  0  0  0  0  0  0  0  0
   -1.3832   -2.5113   -0.7816 N   0  0  0  0  0  0  0  0  0  0  0  0
    0.6082   -1.6286    0.2620 C   0  0  0  0  0  0  0  0  0  0  0  0
    1.5570   -2.1245    1.1943 C   0  0  0  0  0  0  0  0  0  0  0  0
    2.0387   -1.3014    2.2590 C   0  0  0  0  0  3  0  0  0  0  0  0
    1.5489    0.0148    2.4175 C   0  0  0  0  0  3  0  0  0  0  0  0
    0.5934    0.5210    1.4834 C   0  0  0  0  0  3  0  0  0  0  0  0
    0.0950   -0.2841    0.4208 C   0  0  1  0  0  3  0  0  0  0  0  0
    0.0785   -2.4686   -0.8993 C   0  0  1  0  0  0  0  0  0  0  0  0
    0.7709   -3.8255   -1.0736 C   0  0  0  0  0  0  0  0  0  0  0  0
   -1.9066   -3.2479    0.3510 C   0  0  0  0  0  0  0  0  0  0  0  0
   -2.0910   -2.7637   -2.0191 C   0  0  0  0  0  0  0  0  0  0  0  0
   -2.7303    0.1137    0.0295 C   0  0  0  0  0  0  0  0  0  0  0  0
   -3.8950    0.1751   -0.7657 C   0  0  0  0  0  0  0  0  0  0  0  0
   -5.1624   -0.0233   -0.1972 C   0  0  0  0  0  0  0  0  0  0  0  0
   -5.2842   -0.2953    1.1752 C   0  0  0  0  0  0  0  0  0  0  0  0
   -4.1315   -0.3609    1.9742 C   0  0  0  0  0  0  0  0  0  0  0  0
   -2.8638   -0.1545    1.4073 C   0  0  0  0  0  0  0  0  0  0  0  0
   -0.8491    2.1803   -0.6118 C   0  0  0  0  0  0  0  0  0  0  0  0
   -1.6352    3.0076    0.2172 C   0  0  0  0  0  0  0  0  0  0  0  0
   -1.3489    4.3784    0.3275 C   0  0  0  0  0  0  0  0  0  0  0  0
   -0.2706    4.9346   -0.3782 C   0  0  0  0  0  0  0  0  0  0  0  0
    0.5121    4.1196   -1.2129 C   0  0  0  0  0  0  0  0  0  0  0  0
    0.2141    2.7563   -1.3415 C   0  0  0  0  0  0  0  0  0  0  0  0
    1.9748   -3.1305    1.0655 H   0  0  0  0  0  0  0  0  0  0  0  0
    0.2557    1.5642    1.5638 H   0  0  0  0  0  0  0  0  0  0  0  0
    0.2706   -1.8718   -1.8175 H   0  0  0  0  0  0  0  0  0  0  0  0
    0.3569   -4.3515   -1.9560 H   0  0  0  0  0  0  0  0  0  0  0  0
    1.8573   -3.6927   -1.2452 H   0  0  0  0  0  0  0  0  0  0  0  0
    0.6352   -4.4862   -0.1938 H   0  0  0  0  0  0  0  0  0  0  0  0
   -1.3642   -2.9628    1.2748 H   0  0  0  0  0  0  0  0  0  0  0  0
   -2.9741   -2.9857    0.4994 H   0  0  0  0  0  0  0  0  0  0  0  0
   -1.8386   -4.3606    0.2398 H   0  0  0  0  0  0  0  0  0  0  0  0
   -3.1707   -2.5539   -1.8708 H   0  0  0  0  0  0  0  0  0  0  0  0
   -1.7178   -2.0766   -2.8057 H   0  0  0  0  0  0  0  0  0  0  0  0
   -1.9985   -3.8160   -2.3923 H   0  0  0  0  0  0  0  0  0  0  0  0
   -2.4753    2.5756    0.7821 H   0  0  0  0  0  0  0  0  0  0  0  0
   -1.9709    5.0149    0.9758 H   0  0  0  0  0  0  0  0  0  0  0  0
   -0.0420    6.0070   -0.2823 H   0  0  0  0  0  0  0  0  0  0  0  0
    1.3594    4.5477   -1.7692 H   0  0  0  0  0  0  0  0  0  0  0  0
    0.8179    2.1234   -2.0108 H   0  0  0  0  0  0  0  0  0  0  0  0
   -3.8022    0.3782   -1.8447 H   0  0  0  0  0  0  0  0  0  0  0  0
   -6.0606    0.0306   -0.8315 H   0  0  0  0  0  0  0  0  0  0  0  0
   -6.2772   -0.4569    1.6215 H   0  0  0  0  0  0  0  0  0  0  0  0
   -4.2190   -0.5730    3.0511 H   0  0  0  0  0  0  0  0  0  0  0  0
   -1.9685   -0.2091    2.0443 H   0  0  0  0  0  0  0  0  0  0  0  0
    2.8179   -1.6850    2.9323 H   0  0  0  0  0  0  0  0  0  0  0  0
    1.9459    0.6663    3.2077 H   0  0  0  0  0  0  0  0  0  0  0  0
  1 19  1  0  0  0  0
  1 13  1  0  0  0  0
  2 11  1  0  0  0  0
  3  8  1  0  0  0  0
  3  4  2  0  0  0  0
  4  5  1  0  0  0  0
  5  6  1  0  0  0  0
  5 47  1  0  0  0  0
  6 48  1  0  0  0  0
  7 26  1  0  0  0  0
  7  6  1  0  0  0  0
  8  1  1  6  0  0  0
  8  7  1  0  0  0  0
  9 27  1  6  0  0  0
  9  2  1  0  0  0  0
  9  3  1  0  0  0  0
 10  9  1  0  0  0  0
 10 30  1  0  0  0  0
 11 32  1  0  0  0  0
 11 31  1  0  0  0  0
 12 34  1  0  0  0  0
 12  2  1  0  0  0  0
 13 18  1  0  0  0  0
 14 15  1  0  0  0  0
 14 13  2  0  0  0  0
 15 16  2  0  0  0  0
 16 44  1  0  0  0  0
 16 17  1  0  0  0  0
 17 45  1  0  0  0  0
 18 17  2  0  0  0  0
 18 46  1  0  0  0  0
 19 20  1  0  0  0  0
 20 21  2  0  0  0  0
 20 37  1  0  0  0  0
 21 38  1  0  0  0  0
 22 39  1  0  0  0  0
 22 21  1  0  0  0  0
 23 22  2  0  0  0  0
 24 23  1  0  0  0  0
 24 19  2  0  0  0  0
 25  4  1  0  0  0  0
 28 10  1  0  0  0  0
 29 10  1  0  0  0  0
 33 11  1  0  0  0  0
 35 12  1  0  0  0  0
 36 12  1  0  0  0  0
 40 23  1  0  0  0  0
 41 24  1  0  0  0  0
 42 14  1  0  0  0  0
 43 15  1  0  0  0  0
M  END
