6,8
 OpenBabel05122313053D

 37 38  0  0  0  0  0  0  0  0999 V2000
   -2.6018   -0.4055    0.2191 S   0  0  0  0  0  0  0  0  0  0  0  0
   -3.7994   -1.0378   -0.3791 O   0  0  0  0  0  0  0  0  0  0  0  0
   -2.3018   -0.6926    1.6690 O   0  0  0  0  0  0  0  0  0  0  0  0
   -0.2375   -1.7236   -2.5427 O   0  0  0  0  0  0  0  0  0  0  0  0
   -3.7010    3.3516   -0.6281 O   0  0  0  0  0  0  0  0  0  0  0  0
   -1.0710   -0.7699   -0.6226 C   0  0  0  0  0  2  0  0  0  0  0  0
   -2.6371    1.3520   -0.0918 C   0  0  0  0  0  0  0  0  0  0  0  0
   -1.4110    1.9055   -0.4726 C   0  0  0  0  0  3  0  0  0  0  0  0
   -0.9390   -1.9275   -1.5351 C   0  0  0  0  0  0  0  0  0  0  0  0
   -3.8280    2.2190   -0.1326 C   0  0  0  0  0  0  0  0  0  0  0  0
   -1.5815   -3.2445   -1.2893 C   0  0  0  0  0  0  0  0  0  0  0  0
   -1.5988   -4.1746   -2.3531 C   0  0  0  0  0  0  0  0  0  0  0  0
   -2.1380   -5.4500   -2.1665 C   0  0  0  0  0  0  0  0  0  0  0  0
   -2.6562   -5.8147   -0.9098 C   0  0  0  0  0  0  0  0  0  0  0  0
   -2.6329   -4.8992    0.1538 C   0  0  0  0  0  0  0  0  0  0  0  0
   -2.1000   -3.6169   -0.0313 C   0  0  0  0  0  0  0  0  0  0  0  0
   -5.1463    1.7828    0.4106 C   0  0  0  0  0  0  0  0  0  0  0  0
   -6.3070    2.3594   -0.1508 C   0  0  0  0  0  0  0  0  0  0  0  0
   -7.5701    2.0207    0.3442 C   0  0  0  0  0  0  0  0  0  0  0  0
   -7.6847    1.1240    1.4209 C   0  0  0  0  0  0  0  0  0  0  0  0
   -6.5323    0.5692    1.9994 C   0  0  0  0  0  0  0  0  0  0  0  0
   -5.2647    0.8904    1.4970 C   0  0  0  0  0  0  0  0  0  0  0  0
   -0.7825    4.1730   -1.3167 C   0  0  0  0  0  0  0  0  0  0  0  0
   -0.3257    5.2929   -1.7504 C   0  0  0  0  0  0  0  0  0  0  0  0
    0.1524    6.4306   -2.1942 C   0  0  0  0  0  2  0  0  0  0  0  0
    0.6311    7.5623   -2.6386 C   0  0  0  0  0  1  0  0  0  0  0  0
   -1.2604    3.1137   -0.9042 N   0  0  0  0  0  2  0  0  0  0  0  0
   -1.1792   -3.8630   -3.3207 H   0  0  0  0  0  0  0  0  0  0  0  0
   -2.1603   -6.1666   -3.0014 H   0  0  0  0  0  0  0  0  0  0  0  0
   -3.0824   -6.8189   -0.7615 H   0  0  0  0  0  0  0  0  0  0  0  0
   -3.0330   -5.1851    1.1379 H   0  0  0  0  0  0  0  0  0  0  0  0
   -2.0714   -2.9140    0.8133 H   0  0  0  0  0  0  0  0  0  0  0  0
   -6.1921    3.0697   -0.9822 H   0  0  0  0  0  0  0  0  0  0  0  0
   -8.4722    2.4595   -0.1079 H   0  0  0  0  0  0  0  0  0  0  0  0
   -8.6785    0.8610    1.8143 H   0  0  0  0  0  0  0  0  0  0  0  0
   -6.6189   -0.1207    2.8520 H   0  0  0  0  0  0  0  0  0  0  0  0
   -4.3701    0.4620    1.9719 H   0  0  0  0  0  0  0  0  0  0  0  0
  1  3  2  0  0  0  0
  2  1  2  0  0  0  0
  4  9  2  0  0  0  0
  5 10  2  0  0  0  0
  6  1  1  0  0  0  0
  7  1  1  0  0  0  0
  8  7  2  0  0  0  0
  9 11  1  0  0  0  0
  9  6  1  0  0  0  0
 10  7  1  0  0  0  0
 10 17  1  0  0  0  0
 11 16  1  0  0  0  0
 12 13  1  0  0  0  0
 12 11  2  0  0  0  0
 13 14  2  0  0  0  0
 14 30  1  0  0  0  0
 14 15  1  0  0  0  0
 15 31  1  0  0  0  0
 16 15  2  0  0  0  0
 16 32  1  0  0  0  0
 17 22  1  0  0  0  0
 18 19  1  0  0  0  0
 18 17  2  0  0  0  0
 19 20  2  0  0  0  0
 20 35  1  0  0  0  0
 20 21  1  0  0  0  0
 21 36  1  0  0  0  0
 22 37  1  0  0  0  0
 22 21  2  0  0  0  0
 23 27  1  0  0  0  0
 24 23  3  0  0  0  0
 25 24  1  0  0  0  0
 26 25  1  0  0  0  0
 27  8  1  0  0  0  0
 28 12  1  0  0  0  0
 29 13  1  0  0  0  0
 33 18  1  0  0  0  0
 34 19  1  0  0  0  0
M  END
