11,12
 OpenBabel05122313053D

 23 24  0  0  0  0  0  0  0  0999 V2000
    2.2653    1.8126   -1.4412 C   0  0  0  0  0  0  0  0  0  0  0  0
    3.5231    2.4435   -1.4610 C   0  0  0  0  0  0  0  0  0  0  0  0
    4.4584    2.1687   -0.4529 C   0  0  0  0  0  0  0  0  0  0  0  0
    4.1474    1.2225    0.5386 C   0  0  0  0  0  0  0  0  0  0  0  0
    3.0716   -2.9649    0.7849 C   0  0  0  0  0  0  0  0  0  0  0  0
    2.8965   -4.0415   -0.1006 C   0  0  0  0  0  0  0  0  0  0  0  0
    1.9495   -3.9362   -1.1285 C   0  0  0  0  0  0  0  0  0  0  0  0
    1.1486   -2.7827   -1.2259 C   0  0  0  0  0  0  0  0  0  0  0  0
    2.6059   -0.5675    1.5070 C   0  0  0  0  0  0  0  0  0  0  0  0
    2.2885   -1.8016    0.6748 C   0  0  0  0  0  0  0  0  0  0  0  0
    1.2683   -1.7150   -0.3125 C   0  0  0  0  0  3  0  0  0  0  0  0
    1.9160    0.9029   -0.4231 C   0  0  0  0  0  3  0  0  0  0  0  0
    2.8983    0.5759    0.5495 C   0  0  0  0  0  0  0  0  0  0  0  0
    0.4232   -2.7159   -2.0525 H   0  0  0  0  0  0  0  0  0  0  0  0
    1.8324   -4.7503   -1.8615 H   0  0  0  0  0  0  0  0  0  0  0  0
    3.5196   -4.9441   -0.0045 H   0  0  0  0  0  0  0  0  0  0  0  0
    3.8482   -3.0196    1.5658 H   0  0  0  0  0  0  0  0  0  0  0  0
    3.4701   -0.7562    2.1747 H   0  0  0  0  0  0  0  0  0  0  0  0
    1.7366   -0.3043    2.1510 H   0  0  0  0  0  0  0  0  0  0  0  0
    4.8949    0.9685    1.3083 H   0  0  0  0  0  0  0  0  0  0  0  0
    5.4396    2.6681   -0.4515 H   0  0  0  0  0  0  0  0  0  0  0  0
    3.7711    3.1511   -2.2683 H   0  0  0  0  0  0  0  0  0  0  0  0
    1.5429    2.0365   -2.2438 H   0  0  0  0  0  0  0  0  0  0  0  0
  1 12  1  0  0  0  0
  2  1  2  0  0  0  0
  2  3  1  0  0  0  0
  3 21  1  0  0  0  0
  3  4  2  0  0  0  0
  4 13  1  0  0  0  0
  4 20  1  0  0  0  0
  5 17  1  0  0  0  0
  6 16  1  0  0  0  0
  6  5  2  0  0  0  0
  7  6  1  0  0  0  0
  8  7  2  0  0  0  0
  8 11  1  0  0  0  0
  9 19  1  0  0  0  0
  9 18  1  0  0  0  0
 10  5  1  0  0  0  0
 10  9  1  0  0  0  0
 11 10  2  0  0  0  0
 12 13  2  0  0  0  0
 13  9  1  0  0  0  0
 14  8  1  0  0  0  0
 15  7  1  0  0  0  0
 22  2  1  0  0  0  0
 23  1  1  0  0  0  0
M  END
