4,12
 OpenBabel05122313053D

 34 36  0  0  0  0  0  0  0  0999 V2000
    3.3457   -1.2009    0.0110 N   0  0  0  0  0  0  0  0  0  0  0  0
    3.2754    1.0092   -0.0311 N   0  0  0  0  0  0  0  0  0  0  0  0
   -0.2728   -6.9611    0.1618 N   0  0  0  0  0  0  0  0  0  0  0  0
    2.4882   -0.1065    0.0002 C   0  0  0  0  0  2  0  0  0  0  0  0
    4.6282    0.6422   -0.0362 C   0  0  0  0  0  0  0  0  0  0  0  0
    5.8057    1.4046   -0.0590 C   0  0  0  0  0  0  0  0  0  0  0  0
    7.0286    0.7173   -0.0552 C   0  0  0  0  0  0  0  0  0  0  0  0
    7.0748   -0.6909   -0.0289 C   0  0  0  0  0  0  0  0  0  0  0  0
    5.9026   -1.4610   -0.0053 C   0  0  0  0  0  0  0  0  0  0  0  0
    4.6748   -0.7802   -0.0094 C   0  0  0  0  0  0  0  0  0  0  0  0
    2.7091   -2.4647    0.0415 C   0  0  0  0  0  0  0  0  0  0  0  0
    1.2917   -2.3430    0.0627 C   0  0  0  0  0  3  0  0  0  0  0  0
    0.5309   -3.5181    0.1012 C   0  0  0  0  0  0  0  0  0  0  0  0
    1.1666   -4.7861    0.1081 C   0  0  0  0  0  0  0  0  0  0  0  0
    0.3763   -5.9820    0.1393 C   0  0  0  0  0  0  0  0  0  0  0  0
    2.5772   -4.8749    0.0811 C   0  0  0  0  0  0  0  0  0  0  0  0
    3.3542   -3.7095    0.0493 C   0  0  0  0  0  0  0  0  0  0  0  0
    2.7393    2.3866   -0.0595 C   0  0  0  0  0  0  0  0  0  0  0  0
    3.1149    3.1044   -1.3584 C   0  0  0  0  0  0  0  0  0  0  0  0
    3.1125    3.1554    1.2111 C   0  0  0  0  0  0  0  0  0  0  0  0
    5.7796    2.5009   -0.0784 H   0  0  0  0  0  0  0  0  0  0  0  0
    7.9665    1.2912   -0.0727 H   0  0  0  0  0  0  0  0  0  0  0  0
    8.0488   -1.2016   -0.0260 H   0  0  0  0  0  0  0  0  0  0  0  0
    5.9606   -2.5549    0.0168 H   0  0  0  0  0  0  0  0  0  0  0  0
   -0.5664   -3.4519    0.1314 H   0  0  0  0  0  0  0  0  0  0  0  0
    3.0620   -5.8607    0.0859 H   0  0  0  0  0  0  0  0  0  0  0  0
    4.4470   -3.7936    0.0298 H   0  0  0  0  0  0  0  0  0  0  0  0
    1.6417    2.2509   -0.0595 H   0  0  0  0  0  0  0  0  0  0  0  0
    4.1999    3.3133   -1.4425 H   0  0  0  0  0  0  0  0  0  0  0  0
    2.5790    4.0728   -1.4052 H   0  0  0  0  0  0  0  0  0  0  0  0
    2.8078    2.5043   -2.2374 H   0  0  0  0  0  0  0  0  0  0  0  0
    2.8049    2.5906    2.1133 H   0  0  0  0  0  0  0  0  0  0  0  0
    2.5778    4.1257    1.2184 H   0  0  0  0  0  0  0  0  0  0  0  0
    4.1976    3.3662    1.2887 H   0  0  0  0  0  0  0  0  0  0  0  0
  1 11  1  0  0  0  0
  2  4  1  0  0  0  0
  4  1  1  0  0  0  0
  5  2  1  0  0  0  0
  5 10  1  0  0  0  0
  6  7  1  0  0  0  0
  6  5  2  0  0  0  0
  7  8  2  0  0  0  0
  8 23  1  0  0  0  0
  8  9  1  0  0  0  0
  9 24  1  0  0  0  0
 10  9  2  0  0  0  0
 10  1  1  0  0  0  0
 11 17  2  0  0  0  0
 11 12  1  0  0  0  0
 12 13  2  0  0  0  0
 13 14  1  0  0  0  0
 13 25  1  0  0  0  0
 14 15  1  0  0  0  0
 15  3  3  0  0  0  0
 16 26  1  0  0  0  0
 16 14  2  0  0  0  0
 17 16  1  0  0  0  0
 18  2  1  0  0  0  0
 18 20  1  0  0  0  0
 19 18  1  0  0  0  0
 20 33  1  0  0  0  0
 20 34  1  0  0  0  0
 20 32  1  0  0  0  0
 21  6  1  0  0  0  0
 22  7  1  0  0  0  0
 27 17  1  0  0  0  0
 28 18  1  0  0  0  0
 29 19  1  0  0  0  0
 30 19  1  0  0  0  0
 31 19  1  0  0  0  0
M  END
