4,8
 OpenBabel05122313053D

 54 58  0  0  1  0  0  0  0  0999 V2000
   -0.1457    1.3507    2.4421 Br  0  0  0  0  0  0  0  0  0  0  0  0
   -2.9504    0.1821    0.5984 P   0  0  0  0  0  0  0  0  0  0  0  0
    2.8130    0.8131    0.5722 P   0  0  0  0  0  0  0  0  0  0  0  0
   -0.0619    0.4324    0.7976 C   0  0  1  0  0  3  0  0  0  0  0  0
   -1.2008   -0.0134    0.0464 C   0  0  0  0  0  0  0  0  0  0  0  0
   -0.6865   -0.5300   -1.2069 C   0  0  0  0  0  0  0  0  0  0  0  0
   -1.3049   -0.9366   -2.0156 H   0  0  0  0  0  0  0  0  0  0  0  0
    0.7367   -0.3798   -1.2068 C   0  0  0  0  0  3  0  0  0  0  0  0
    1.4227   -0.6671   -2.0139 H   0  0  0  0  0  0  0  0  0  0  0  0
    1.1519    0.2340    0.0325 C   0  0  1  0  0  3  0  0  0  0  0  0
   -3.7909   -0.6124   -0.8536 C   0  0  0  0  0  0  0  0  0  0  0  0
   -4.2416   -1.9397   -0.6999 C   0  0  0  0  0  0  0  0  0  0  0  0
   -4.1033   -2.4564    0.2618 H   0  0  0  0  0  0  0  0  0  0  0  0
   -4.8565   -2.6089   -1.7697 C   0  0  0  0  0  0  0  0  0  0  0  0
   -5.1958   -3.6477   -1.6395 H   0  0  0  0  0  0  0  0  0  0  0  0
   -5.0437   -1.9525   -2.9960 C   0  0  0  0  0  0  0  0  0  0  0  0
   -5.5326   -2.4746   -3.8326 H   0  0  0  0  0  0  0  0  0  0  0  0
   -4.6124   -0.6243   -3.1512 C   0  0  0  0  0  0  0  0  0  0  0  0
   -4.7636   -0.1037   -4.1094 H   0  0  0  0  0  0  0  0  0  0  0  0
   -3.9880    0.0438   -2.0874 C   0  0  0  0  0  0  0  0  0  0  0  0
   -3.6516    1.0847   -2.2114 H   0  0  0  0  0  0  0  0  0  0  0  0
   -3.1997    1.9773    0.2037 C   0  0  0  0  0  0  0  0  0  0  0  0
   -4.4824    2.5057    0.4684 C   0  0  0  0  0  0  0  0  0  0  0  0
   -5.2718    1.8471    0.8659 H   0  0  0  0  0  0  0  0  0  0  0  0
   -4.7611    3.8577    0.2259 C   0  0  0  0  0  0  0  0  0  0  0  0
   -5.7682    4.2523    0.4300 H   0  0  0  0  0  0  0  0  0  0  0  0
   -3.7554    4.7092   -0.2622 C   0  0  0  0  0  0  0  0  0  0  0  0
   -3.9709    5.7736   -0.4405 H   0  0  0  0  0  0  0  0  0  0  0  0
   -2.4737    4.1966   -0.5119 C   0  0  0  0  0  0  0  0  0  0  0  0
   -1.6738    4.8558   -0.8835 H   0  0  0  0  0  0  0  0  0  0  0  0
   -2.1979    2.8387   -0.2859 C   0  0  0  0  0  0  0  0  0  0  0  0
   -1.1877    2.4559   -0.4890 H   0  0  0  0  0  0  0  0  0  0  0  0
    2.7410    2.5538   -0.0641 C   0  0  0  0  0  0  0  0  0  0  0  0
    1.7877    3.0190   -0.9941 C   0  0  0  0  0  0  0  0  0  0  0  0
    1.0478    2.3226   -1.4167 H   0  0  0  0  0  0  0  0  0  0  0  0
    1.7802    4.3642   -1.3948 C   0  0  0  0  0  0  0  0  0  0  0  0
    1.0290    4.7128   -2.1207 H   0  0  0  0  0  0  0  0  0  0  0  0
    2.7296    5.2599   -0.8774 C   0  0  0  0  0  0  0  0  0  0  0  0
    2.7222    6.3149   -1.1908 H   0  0  0  0  0  0  0  0  0  0  0  0
    3.6855    4.8055    0.0456 C   0  0  0  0  0  0  0  0  0  0  0  0
    4.4298    5.5035    0.4582 H   0  0  0  0  0  0  0  0  0  0  0  0
    3.6846    3.4644    0.4568 C   0  0  0  0  0  0  0  0  0  0  0  0
    4.4217    3.1158    1.1981 H   0  0  0  0  0  0  0  0  0  0  0  0
    3.8151   -0.0426   -0.7313 C   0  0  0  0  0  0  0  0  0  0  0  0
    4.2112   -1.3686   -0.4536 C   0  0  0  0  0  0  0  0  0  0  0  0
    3.9418   -1.8250    0.5122 H   0  0  0  0  0  0  0  0  0  0  0  0
    4.9287   -2.1104   -1.4023 C   0  0  0  0  0  0  0  0  0  0  0  0
    5.2076   -3.1517   -1.1818 H   0  0  0  0  0  0  0  0  0  0  0  0
    5.2885   -1.5231   -2.6265 C   0  0  0  0  0  0  0  0  0  0  0  0
    5.8593   -2.1013   -3.3689 H   0  0  0  0  0  0  0  0  0  0  0  0
    4.9237   -0.1947   -2.8977 C   0  0  0  0  0  0  0  0  0  0  0  0
    5.2107    0.2718   -3.8528 H   0  0  0  0  0  0  0  0  0  0  0  0
    4.1851    0.5434   -1.9585 C   0  0  0  0  0  0  0  0  0  0  0  0
    3.8913    1.5803   -2.1812 H   0  0  0  0  0  0  0  0  0  0  0  0
  4  1  1  6  0  0  0
  5  2  1  0  0  0  0
  5  4  1  0  0  0  0
  6  8  1  0  0  0  0
  6  5  2  0  0  0  0
  7  6  1  0  0  0  0
  8 10  1  0  0  0  0
  9  8  1  0  0  0  0
 10  3  1  6  0  0  0
 10  4  1  0  0  0  0
 11 12  1  0  0  0  0
 11  2  1  0  0  0  0
 12 13  1  0  0  0  0
 14 15  1  0  0  0  0
 14 12  2  0  0  0  0
 16 14  1  0  0  0  0
 17 16  1  0  0  0  0
 18 16  2  0  0  0  0
 18 20  1  0  0  0  0
 19 18  1  0  0  0  0
 20 11  2  0  0  0  0
 21 20  1  0  0  0  0
 22 23  1  0  0  0  0
 22  2  1  0  0  0  0
 23 24  1  0  0  0  0
 25 26  1  0  0  0  0
 25 23  2  0  0  0  0
 27 25  1  0  0  0  0
 28 27  1  0  0  0  0
 29 31  1  0  0  0  0
 29 27  2  0  0  0  0
 30 29  1  0  0  0  0
 31 22  2  0  0  0  0
 32 31  1  0  0  0  0
 33 42  1  0  0  0  0
 33  3  1  0  0  0  0
 34 33  2  0  0  0  0
 35 34  1  0  0  0  0
 36 34  1  0  0  0  0
 36 38  2  0  0  0  0
 37 36  1  0  0  0  0
 38 40  1  0  0  0  0
 39 38  1  0  0  0  0
 40 42  2  0  0  0  0
 40 41  1  0  0  0  0
 42 43  1  0  0  0  0
 44 45  1  0  0  0  0
 44  3  1  0  0  0  0
 45 46  1  0  0  0  0
 47 48  1  0  0  0  0
 47 45  2  0  0  0  0
 49 47  1  0  0  0  0
 50 49  1  0  0  0  0
 51 49  2  0  0  0  0
 51 53  1  0  0  0  0
 52 51  1  0  0  0  0
 53 44  2  0  0  0  0
 54 53  1  0  0  0  0
M  END
