4,12
 OpenBabel05122313053D

 35 35  0  0  1  0  0  0  0  0999 V2000
   -2.8207   -0.7964    0.8614 N   0  0  0  0  0  0  0  0  0  0  0  0
    0.1729    1.9502   -1.6273 C   0  0  0  0  0  0  0  0  0  0  0  0
    0.5448    0.7747   -2.2640 C   0  0  0  0  0  0  0  0  0  0  0  0
   -0.3461   -0.3472   -1.9386 C   0  0  1  0  0  3  0  0  0  0  0  0
   -1.5668    0.3186   -1.1502 C   0  0  1  0  0  0  0  0  0  0  0  0
   -1.0387    1.7365   -0.8387 C   0  0  0  0  0  0  0  0  0  0  0  0
    0.8547    3.2788   -1.6773 C   0  0  0  0  0  0  0  0  0  0  0  0
    1.6937    0.6111   -3.2138 C   0  0  0  0  0  0  0  0  0  0  0  0
   -0.6877   -1.3211   -3.0451 C   0  0  0  0  0  0  0  0  0  0  0  0
   -2.8055    0.4137   -2.0614 C   0  0  0  0  0  0  0  0  0  0  0  0
   -1.6097    2.6117    0.0308 C   0  0  0  0  0  0  0  0  0  0  0  0
   -1.8020   -0.4730    0.1752 C   0  0  0  0  0  3  0  0  0  0  0  0
   -4.2486   -0.5393    0.5609 C   0  0  0  0  0  0  0  0  0  0  0  0
   -4.6898    0.8464    0.6933 C   0  0  0  0  0  0  0  0  0  0  0  0
   -5.0440    2.0140    0.8067 C   0  0  0  0  0  0  0  0  0  0  0  0
   -5.4282    3.4139    0.9192 C   0  0  0  0  0  0  0  0  0  0  0  0
    1.7682    3.2630   -2.2991 H   0  0  0  0  0  0  0  0  0  0  0  0
    1.1527    3.6127   -0.6610 H   0  0  0  0  0  0  0  0  0  0  0  0
    0.1690    4.0540   -2.0829 H   0  0  0  0  0  0  0  0  0  0  0  0
    2.4099    1.4518   -3.1531 H   0  0  0  0  0  0  0  0  0  0  0  0
    1.3335    0.5455   -4.2634 H   0  0  0  0  0  0  0  0  0  0  0  0
    2.2496   -0.3293   -3.0145 H   0  0  0  0  0  0  0  0  0  0  0  0
    0.2272   -1.7507   -3.4915 H   0  0  0  0  0  0  0  0  0  0  0  0
   -1.2453   -0.8337   -3.8770 H   0  0  0  0  0  0  0  0  0  0  0  0
   -1.3052   -2.1662   -2.6849 H   0  0  0  0  0  0  0  0  0  0  0  0
   -2.5254    0.9215   -3.0058 H   0  0  0  0  0  0  0  0  0  0  0  0
   -3.5891    1.0178   -1.5679 H   0  0  0  0  0  0  0  0  0  0  0  0
   -3.2147   -0.5839   -2.3123 H   0  0  0  0  0  0  0  0  0  0  0  0
   -2.5112    2.3437    0.5991 H   0  0  0  0  0  0  0  0  0  0  0  0
   -1.1689    3.6068    0.1916 H   0  0  0  0  0  0  0  0  0  0  0  0
   -4.8345   -1.1649    1.2690 H   0  0  0  0  0  0  0  0  0  0  0  0
   -4.5037   -0.9112   -0.4565 H   0  0  0  0  0  0  0  0  0  0  0  0
   -4.6118    4.0759    0.5593 H   0  0  0  0  0  0  0  0  0  0  0  0
   -5.6523    3.6963    1.9692 H   0  0  0  0  0  0  0  0  0  0  0  0
   -6.3304    3.6385    0.3124 H   0  0  0  0  0  0  0  0  0  0  0  0
  2  6  1  0  0  0  0
  3  4  1  0  0  0  0
  3  2  2  0  0  0  0
  4  9  1  6  0  0  0
  4  5  1  0  0  0  0
  5  6  1  0  0  0  0
  5 12  1  1  0  0  0
  6 11  2  0  0  0  0
  7  2  1  0  0  0  0
  7 18  1  0  0  0  0
  8 20  1  0  0  0  0
  8 22  1  0  0  0  0
  8  3  1  0  0  0  0
  9 25  1  0  0  0  0
 10 27  1  0  0  0  0
 10  5  1  0  0  0  0
 11 30  1  0  0  0  0
 11 29  1  0  0  0  0
 12  1  2  0  0  0  0
 13 14  1  0  0  0  0
 13  1  1  0  0  0  0
 13 31  1  0  0  0  0
 14 15  3  0  0  0  0
 15 16  1  0  0  0  0
 16 34  1  0  0  0  0
 17  7  1  0  0  0  0
 19  7  1  0  0  0  0
 21  8  1  0  0  0  0
 23  9  1  0  0  0  0
 24  9  1  0  0  0  0
 26 10  1  0  0  0  0
 28 10  1  0  0  0  0
 32 13  1  0  0  0  0
 33 16  1  0  0  0  0
 35 16  1  0  0  0  0
M  END
