7,19
 OpenBabel05122313053D

 51 55  0  0  1  0  0  0  0  0999 V2000
    1.1697   -2.3611   -0.1429 C   0  0  0  0  0  0  0  0  0  0  0  0
    1.4277   -2.9303   -1.4228 C   0  0  0  0  0  0  0  0  0  0  0  0
    2.7322   -3.2697   -1.7470 C   0  0  0  0  0  0  0  0  0  0  0  0
    3.8067   -3.0456   -0.8341 C   0  0  0  0  0  0  0  0  0  0  0  0
    3.5919   -2.4651    0.4053 C   0  0  0  0  0  0  0  0  0  0  0  0
    2.2630   -2.1129    0.7730 C   0  0  0  0  0  0  0  0  0  0  0  0
    1.7047   -1.5081    1.9559 C   0  0  0  0  0  3  0  0  0  0  0  0
    0.2839   -1.5150    1.8071 C   0  0  0  0  0  0  0  0  0  0  0  0
   -0.0666   -1.9619    0.5028 C   0  0  0  0  0  0  0  0  0  0  0  0
   -1.4392   -2.1804   -0.0636 C   0  0  0  0  0  0  0  0  0  0  0  0
   -2.5830   -1.4624    0.6555 C   0  0  1  0  0  0  0  0  0  0  0  0
   -4.5899   -0.7541   -0.3106 C   0  0  0  0  0  0  0  0  0  0  0  0
   -4.4739   -0.5764   -1.8299 C   0  0  0  0  0  0  0  0  0  0  0  0
   -6.0257   -0.9248    0.1620 C   0  0  0  0  0  0  0  0  0  0  0  0
   -2.6209    0.0829    0.4942 C   0  0  2  0  0  0  0  0  0  0  0  0
   -2.0653    0.9380    1.6454 C   0  0  0  0  0  0  0  0  0  0  0  0
   -0.6842    1.4914    1.4240 C   0  0  0  0  0  0  0  0  0  0  0  0
    0.4374    1.4486    2.3126 C   0  0  0  0  0  0  0  0  0  0  0  0
    1.5217    2.1806    1.7600 C   0  0  0  0  0  3  0  0  0  0  0  0
    1.0534    2.7948    0.5412 C   0  0  0  0  0  0  0  0  0  0  0  0
    1.6841    3.6400   -0.4179 C   0  0  0  0  0  0  0  0  0  0  0  0
    0.9286    4.1223   -1.4753 C   0  0  0  0  0  0  0  0  0  0  0  0
   -0.4513    3.7849   -1.6182 C   0  0  0  0  0  0  0  0  0  0  0  0
   -1.0821    2.9294   -0.7293 C   0  0  0  0  0  0  0  0  0  0  0  0
   -0.3281    2.3993    0.3555 C   0  0  0  0  0  0  0  0  0  0  0  0
   -3.8219   -1.8992    0.0996 O   0  0  0  0  0  0  0  0  0  0  0  0
   -4.0168    0.3503    0.3804 O   0  0  0  0  0  0  0  0  0  0  0  0
    0.6032   -3.1016   -2.1290 H   0  0  0  0  0  0  0  0  0  0  0  0
    2.9491   -3.7200   -2.7271 H   0  0  0  0  0  0  0  0  0  0  0  0
    4.8270   -3.3315   -1.1305 H   0  0  0  0  0  0  0  0  0  0  0  0
    4.4251   -2.2730    1.0962 H   0  0  0  0  0  0  0  0  0  0  0  0
    2.2604   -1.2263    2.8584 H   0  0  0  0  0  0  0  0  0  0  0  0
   -0.4302   -1.2038    2.5765 H   0  0  0  0  0  0  0  0  0  0  0  0
   -1.6677   -3.2688   -0.0409 H   0  0  0  0  0  0  0  0  0  0  0  0
   -1.4533   -1.8844   -1.1333 H   0  0  0  0  0  0  0  0  0  0  0  0
   -2.5749   -1.7238    1.7413 H   0  0  0  0  0  0  0  0  0  0  0  0
   -5.0799    0.2875   -2.1669 H   0  0  0  0  0  0  0  0  0  0  0  0
   -4.8316   -1.4877   -2.3465 H   0  0  0  0  0  0  0  0  0  0  0  0
   -3.4209   -0.4052   -2.1285 H   0  0  0  0  0  0  0  0  0  0  0  0
   -6.6299   -0.0383   -0.1106 H   0  0  0  0  0  0  0  0  0  0  0  0
   -6.4755   -1.8216   -0.3047 H   0  0  0  0  0  0  0  0  0  0  0  0
   -6.0348   -1.0456    1.2614 H   0  0  0  0  0  0  0  0  0  0  0  0
   -2.0950    0.3513   -0.4519 H   0  0  0  0  0  0  0  0  0  0  0  0
   -2.7707    1.7905    1.7515 H   0  0  0  0  0  0  0  0  0  0  0  0
   -2.1189    0.3814    2.6035 H   0  0  0  0  0  0  0  0  0  0  0  0
    0.4634    0.9088    3.2671 H   0  0  0  0  0  0  0  0  0  0  0  0
    2.5167    2.3031    2.2015 H   0  0  0  0  0  0  0  0  0  0  0  0
    2.7447    3.9047   -0.3044 H   0  0  0  0  0  0  0  0  0  0  0  0
    1.3963    4.7845   -2.2191 H   0  0  0  0  0  0  0  0  0  0  0  0
   -1.0190    4.2074   -2.4608 H   0  0  0  0  0  0  0  0  0  0  0  0
   -2.1412    2.6617   -0.8553 H   0  0  0  0  0  0  0  0  0  0  0  0
  1  9  1  0  0  0  0
  1  6  1  0  0  0  0
  2  1  2  0  0  0  0
  3  2  1  0  0  0  0
  3  4  2  0  0  0  0
  4  5  1  0  0  0  0
  5  6  2  0  0  0  0
  5 31  1  0  0  0  0
  6  7  1  0  0  0  0
  7 32  1  0  0  0  0
  8  7  1  0  0  0  0
  8 33  1  0  0  0  0
  9  8  2  0  0  0  0
 10 34  1  0  0  0  0
 10  9  1  0  0  0  0
 10 11  1  0  0  0  0
 11 36  1  1  0  0  0
 12 26  1  0  0  0  0
 12 14  1  0  0  0  0
 12 27  1  0  0  0  0
 13 12  1  0  0  0  0
 14 42  1  0  0  0  0
 15 43  1  6  0  0  0
 15 11  1  0  0  0  0
 15 16  1  0  0  0  0
 16 44  1  0  0  0  0
 16 45  1  0  0  0  0
 17 16  1  0  0  0  0
 17 18  2  0  0  0  0
 18 46  1  0  0  0  0
 19 47  1  0  0  0  0
 19 18  1  0  0  0  0
 20 19  1  0  0  0  0
 21 48  1  0  0  0  0
 21 20  2  0  0  0  0
 22 21  1  0  0  0  0
 23 22  2  0  0  0  0
 23 24  1  0  0  0  0
 24 25  2  0  0  0  0
 25 20  1  0  0  0  0
 25 17  1  0  0  0  0
 26 11  1  0  0  0  0
 27 15  1  0  0  0  0
 28  2  1  0  0  0  0
 29  3  1  0  0  0  0
 30  4  1  0  0  0  0
 35 10  1  0  0  0  0
 37 13  1  0  0  0  0
 38 13  1  0  0  0  0
 39 13  1  0  0  0  0
 40 14  1  0  0  0  0
 41 14  1  0  0  0  0
 49 22  1  0  0  0  0
 50 23  1  0  0  0  0
 51 24  1  0  0  0  0
M  END
