10,12
 OpenBabel05122313053D

 47 49  0  0  1  0  0  0  0  0999 V2000
    0.9740    0.6108   -1.0541 N   0  0  0  0  0  0  0  0  0  0  0  0
   -0.0182    2.8120   -1.1643 C   0  0  0  0  0  0  0  0  0  0  0  0
    1.0097    3.4584   -1.1967 O   0  0  0  0  0  0  0  0  0  0  0  0
   -1.2076    3.2641   -1.6215 O   0  0  0  0  0  0  0  0  0  0  0  0
   -1.1899    4.5912   -2.1687 C   0  0  0  0  0  0  0  0  0  0  0  0
   -0.1228    1.4063   -0.5430 C   0  0  1  0  0  0  0  0  0  0  0  0
   -1.4523    0.7133   -0.7833 C   0  0  2  0  0  3  0  0  0  0  0  0
   -2.5765    0.9478    0.0778 C   0  0  0  0  0  0  0  0  0  0  0  0
   -3.7956    0.2407   -0.1706 C   0  0  0  0  0  0  0  0  0  0  0  0
   -3.8849   -0.7164   -1.2144 C   0  0  0  0  0  3  0  0  0  0  0  0
   -2.7776   -0.9440   -2.0778 C   0  0  0  0  0  3  0  0  0  0  0  0
   -1.5690   -0.2434   -1.8364 C   0  0  0  0  0  3  0  0  0  0  0  0
    1.9412    0.2602   -0.2692 C   0  0  0  0  0  0  0  0  0  0  0  0
    3.0219   -0.6060   -0.8120 C   0  0  0  0  0  0  0  0  0  0  0  0
    4.1771   -0.8903   -0.0520 C   0  0  0  0  0  0  0  0  0  0  0  0
    5.1916   -1.7046   -0.5758 C   0  0  0  0  0  0  0  0  0  0  0  0
    5.0648   -2.2462   -1.8635 C   0  0  0  0  0  0  0  0  0  0  0  0
    3.9187   -1.9654   -2.6299 C   0  0  0  0  0  0  0  0  0  0  0  0
    2.9084   -1.1518   -2.1106 C   0  0  0  0  0  0  0  0  0  0  0  0
    2.0046    0.6443    1.1799 C   0  0  0  0  0  0  0  0  0  0  0  0
    2.2452    1.9801    1.5659 C   0  0  0  0  0  0  0  0  0  0  0  0
    2.2300    2.3303    2.9249 C   0  0  0  0  0  0  0  0  0  0  0  0
    1.9615    1.3589    3.9028 C   0  0  0  0  0  0  0  0  0  0  0  0
    1.7166    0.0299    3.5211 C   0  0  0  0  0  0  0  0  0  0  0  0
    1.7495   -0.3309    2.1667 C   0  0  0  0  0  0  0  0  0  0  0  0
   -2.5137    1.9458    1.2043 C   0  0  0  0  0  0  0  0  0  0  0  0
   -4.6469    0.3907    0.5072 H   0  0  0  0  0  0  0  0  0  0  0  0
   -4.8098   -1.2969   -1.3408 H   0  0  0  0  0  0  0  0  0  0  0  0
   -2.8317   -1.7027   -2.8693 H   0  0  0  0  0  0  0  0  0  0  0  0
   -0.6706   -0.4470   -2.4342 H   0  0  0  0  0  0  0  0  0  0  0  0
   -0.0337    1.6025    0.5514 H   0  0  0  0  0  0  0  0  0  0  0  0
   -0.8482    5.3237   -1.4102 H   0  0  0  0  0  0  0  0  0  0  0  0
   -0.5046    4.6450   -3.0378 H   0  0  0  0  0  0  0  0  0  0  0  0
   -2.2273    4.8070   -2.4791 H   0  0  0  0  0  0  0  0  0  0  0  0
    2.4240    2.7379    0.7881 H   0  0  0  0  0  0  0  0  0  0  0  0
    2.4229    3.3729    3.2208 H   0  0  0  0  0  0  0  0  0  0  0  0
    1.9390    1.6391    4.9670 H   0  0  0  0  0  0  0  0  0  0  0  0
    1.4879   -0.7319    4.2811 H   0  0  0  0  0  0  0  0  0  0  0  0
    1.5538   -1.3696    1.8614 H   0  0  0  0  0  0  0  0  0  0  0  0
    4.2811   -0.4645    0.9565 H   0  0  0  0  0  0  0  0  0  0  0  0
    6.0873   -1.9169    0.0273 H   0  0  0  0  0  0  0  0  0  0  0  0
    5.8589   -2.8891   -2.2730 H   0  0  0  0  0  0  0  0  0  0  0  0
    3.8153   -2.3902   -3.6401 H   0  0  0  0  0  0  0  0  0  0  0  0
    2.0066   -0.9182   -2.6933 H   0  0  0  0  0  0  0  0  0  0  0  0
   -3.4026    1.8603    1.8565 H   0  0  0  0  0  0  0  0  0  0  0  0
   -2.4765    2.9755    0.7935 H   0  0  0  0  0  0  0  0  0  0  0  0
   -1.6179    1.8047    1.8399 H   0  0  0  0  0  0  0  0  0  0  0  0
  1  6  1  0  0  0  0
  1 13  2  0  0  0  0
  2  6  1  0  0  0  0
  3  2  2  0  0  0  0
  4  2  1  0  0  0  0
  5  4  1  0  0  0  0
  5 32  1  0  0  0  0
  6 31  1  1  0  0  0
  7  6  1  1  0  0  0
  7  8  1  0  0  0  0
  8 26  1  0  0  0  0
  9  8  2  0  0  0  0
  9 27  1  0  0  0  0
 10  9  1  0  0  0  0
 11 12  1  0  0  0  0
 11 10  1  0  0  0  0
 12  7  1  0  0  0  0
 13 20  1  0  0  0  0
 14 13  1  0  0  0  0
 14 15  1  0  0  0  0
 15 40  1  0  0  0  0
 16 15  2  0  0  0  0
 16 41  1  0  0  0  0
 17 16  1  0  0  0  0
 18 19  1  0  0  0  0
 18 17  2  0  0  0  0
 19 14  2  0  0  0  0
 20 21  2  0  0  0  0
 20 25  1  0  0  0  0
 21 22  1  0  0  0  0
 22 36  1  0  0  0  0
 22 23  2  0  0  0  0
 23 37  1  0  0  0  0
 24 23  1  0  0  0  0
 24 38  1  0  0  0  0
 25 24  2  0  0  0  0
 26 47  1  0  0  0  0
 26 45  1  0  0  0  0
 28 10  1  0  0  0  0
 29 11  1  0  0  0  0
 30 12  1  0  0  0  0
 33  5  1  0  0  0  0
 34  5  1  0  0  0  0
 35 21  1  0  0  0  0
 39 25  1  0  0  0  0
 42 17  1  0  0  0  0
 43 18  1  0  0  0  0
 44 19  1  0  0  0  0
 46 26  1  0  0  0  0
M  END
