1,5
 OpenBabel05122313053D

 26 25  0  0  0  0  0  0  0  0999 V2000
    0.3359   -2.2132   -0.1311 C   0  0  0  0  0  3  0  0  0  0  0  0
    0.0549   -2.8557    1.0374 F   0  0  0  0  0  0  0  0  0  0  0  0
    0.2767   -3.1851   -1.0916 F   0  0  0  0  0  0  0  0  0  0  0  0
    1.7541   -1.8142   -0.0350 O   0  0  0  0  0  0  0  0  0  0  0  0
    1.5508   -0.4856   -0.2037 C   0  0  0  0  0  2  0  0  0  0  0  0
    2.6242    0.2879   -0.0701 N   0  0  0  0  0  0  0  0  0  0  0  0
    3.1149    2.3499   -1.3728 C   0  0  0  0  0  0  0  0  0  0  0  0
    2.4239    1.7524   -0.1454 C   0  0  0  0  0  0  0  0  0  0  0  0
    2.8111    2.4415    1.1658 C   0  0  0  0  0  0  0  0  0  0  0  0
    4.4916   -1.0934   -0.9981 C   0  0  0  0  0  0  0  0  0  0  0  0
    4.0032   -0.2272    0.1682 C   0  0  0  0  0  0  0  0  0  0  0  0
    4.1326   -0.9164    1.5319 C   0  0  0  0  0  0  0  0  0  0  0  0
    2.7955    1.8275   -2.2968 H   0  0  0  0  0  0  0  0  0  0  0  0
    2.8483    3.4209   -1.4713 H   0  0  0  0  0  0  0  0  0  0  0  0
    4.2212    2.2880   -1.3056 H   0  0  0  0  0  0  0  0  0  0  0  0
    1.3310    1.8599   -0.2679 H   0  0  0  0  0  0  0  0  0  0  0  0
    2.2568    2.0008    2.0180 H   0  0  0  0  0  0  0  0  0  0  0  0
    3.8987    2.3756    1.3769 H   0  0  0  0  0  0  0  0  0  0  0  0
    2.5509    3.5170    1.1087 H   0  0  0  0  0  0  0  0  0  0  0  0
    4.4068   -0.5464   -1.9576 H   0  0  0  0  0  0  0  0  0  0  0  0
    5.5564   -1.3602   -0.8456 H   0  0  0  0  0  0  0  0  0  0  0  0
    3.9047   -2.0277   -1.0755 H   0  0  0  0  0  0  0  0  0  0  0  0
    4.6344    0.6842    0.1939 H   0  0  0  0  0  0  0  0  0  0  0  0
    3.7816   -0.2522    2.3461 H   0  0  0  0  0  0  0  0  0  0  0  0
    3.5463   -1.8537    1.5611 H   0  0  0  0  0  0  0  0  0  0  0  0
    5.1954   -1.1639    1.7261 H   0  0  0  0  0  0  0  0  0  0  0  0
  1  4  1  0  0  0  0
  1  2  1  0  0  0  0
  3  1  1  0  0  0  0
  5  6  1  0  0  0  0
  5  4  1  0  0  0  0
  6 11  1  0  0  0  0
  7 15  1  0  0  0  0
  7  8  1  0  0  0  0
  8  6  1  0  0  0  0
  8  9  1  0  0  0  0
  9 18  1  0  0  0  0
  9 17  1  0  0  0  0
 10 21  1  0  0  0  0
 10 11  1  0  0  0  0
 11 23  1  0  0  0  0
 11 12  1  0  0  0  0
 12 25  1  0  0  0  0
 12 26  1  0  0  0  0
 12 24  1  0  0  0  0
 13  7  1  0  0  0  0
 14  7  1  0  0  0  0
 16  8  1  0  0  0  0
 19  9  1  0  0  0  0
 20 10  1  0  0  0  0
 22 10  1  0  0  0  0
M  END
