2,11
 OpenBabel05122313053D

 13 13  0  0  1  0  0  0  0  0999 V2000
   -2.3525   -1.1153   -0.0092 O   0  0  0  0  0  0  0  0  0  0  0  0
   -1.2804   -0.7145   -0.7675 C   0  0  1  0  0  3  0  0  0  0  0  0
   -1.2612    0.7166   -0.8659 C   0  0  1  0  0  3  0  0  0  0  0  0
   -2.4031    1.1630   -0.0857 C   0  0  0  0  0  0  0  0  0  0  0  0
   -2.7278    2.1948    0.0842 H   0  0  0  0  0  0  0  0  0  0  0  0
   -3.0080    0.0285    0.3767 C   0  0  0  0  0  0  0  0  0  0  0  0
   -3.8929   -0.1332    1.0021 H   0  0  0  0  0  0  0  0  0  0  0  0
   -0.2196   -1.5291   -1.2657 C   0  0  0  0  0  3  0  0  0  0  0  0
   -0.1816   -2.5761   -0.9287 H   0  0  0  0  0  0  0  0  0  0  0  0
    0.1011   -1.3677   -2.3076 H   0  0  0  0  0  0  0  0  0  0  0  0
   -0.1244    1.3119   -1.5201 C   0  0  0  0  0  3  0  0  0  0  0  0
    0.1593    0.9239   -2.5124 H   0  0  0  0  0  0  0  0  0  0  0  0
    0.0317    2.3953   -1.4011 H   0  0  0  0  0  0  0  0  0  0  0  0
  1  6  1  0  0  0  0
  2  8  1  1  0  0  0
  2  1  1  0  0  0  0
  3 11  1  1  0  0  0
  3  2  1  0  0  0  0
  3  4  1  0  0  0  0
  4  5  1  0  0  0  0
  4  6  2  0  0  0  0
  6  7  1  0  0  0  0
  8  9  1  0  0  0  0
 10  8  1  0  0  0  0
 11 13  1  0  0  0  0
 12 11  1  0  0  0  0
M  END
