1,7
 OpenBabel05122313053D

 38 40  0  0  0  0  0  0  0  0999 V2000
   -2.0452   -0.0479    0.1007 C   0  0  0  0  0  2  0  0  0  0  0  0
   -4.2277    0.4945   -0.2323 C   0  0  0  0  0  0  0  0  0  0  0  0
   -3.6425    1.5591    0.4153 C   0  0  0  0  0  0  0  0  0  0  0  0
   -1.2944    1.9906    1.2771 C   0  0  0  0  0  0  0  0  0  0  0  0
   -1.0639    1.5405    2.2625 H   0  0  0  0  0  0  0  0  0  0  0  0
   -1.6723    3.0196    1.4186 H   0  0  0  0  0  0  0  0  0  0  0  0
    0.5399    0.8876    0.0457 C   0  0  0  0  0  2  0  0  0  0  0  0
    1.6381    2.7360   -0.7102 C   0  0  0  0  0  0  0  0  0  0  0  0
    0.5541    3.1791    0.0124 C   0  0  0  0  0  0  0  0  0  0  0  0
    2.6509    0.5040   -1.2751 C   0  0  0  0  0  0  0  0  0  0  0  0
    2.8815    0.9295   -2.2738 H   0  0  0  0  0  0  0  0  0  0  0  0
    2.1915   -0.4855   -1.4647 H   0  0  0  0  0  0  0  0  0  0  0  0
    3.9067    0.3910   -0.4389 C   0  0  0  0  0  0  0  0  0  0  0  0
    4.8143   -0.6383   -0.7504 C   0  0  0  0  0  0  0  0  0  0  0  0
    5.9977   -0.8439   -0.0367 C   0  0  0  0  0  0  0  0  0  0  0  0
    6.6622   -1.6694   -0.3289 H   0  0  0  0  0  0  0  0  0  0  0  0
    6.3014    0.0170    1.0291 C   0  0  0  0  0  0  0  0  0  0  0  0
    7.2317   -0.1285    1.5974 H   0  0  0  0  0  0  0  0  0  0  0  0
    5.4236    1.0608    1.3602 C   0  0  0  0  0  0  0  0  0  0  0  0
    5.6621    1.7397    2.1916 H   0  0  0  0  0  0  0  0  0  0  0  0
    4.2392    1.2430    0.6300 C   0  0  0  0  0  0  0  0  0  0  0  0
    3.5566    2.0593    0.9086 H   0  0  0  0  0  0  0  0  0  0  0  0
   -3.4556   -1.7261   -1.1638 C   0  0  0  0  0  0  0  0  0  0  0  0
   -4.3125   -2.2384   -0.6799 H   0  0  0  0  0  0  0  0  0  0  0  0
   -2.5422   -2.3254   -1.0020 H   0  0  0  0  0  0  0  0  0  0  0  0
   -3.6991   -1.5191   -2.6547 C   0  0  0  0  0  0  0  0  0  0  0  0
   -3.8249   -2.5086   -3.1361 H   0  0  0  0  0  0  0  0  0  0  0  0
   -2.8262   -1.0221   -3.1184 H   0  0  0  0  0  0  0  0  0  0  0  0
   -4.6136   -0.9278   -2.8499 H   0  0  0  0  0  0  0  0  0  0  0  0
   -5.8579    0.2855   -0.6687 Cl  0  0  0  0  0  0  0  0  0  0  0  0
   -4.3150    3.0285    0.9459 Cl  0  0  0  0  0  0  0  0  0  0  0  0
    2.8136    3.6357   -1.5427 Cl  0  0  0  0  0  0  0  0  0  0  0  0
    0.0286    4.7620    0.3436 Cl  0  0  0  0  0  0  0  0  0  0  0  0
    4.5064   -1.4676   -1.7719 F   0  0  0  0  0  0  0  0  0  0  0  0
   -3.2329   -0.4694   -0.4296 N   0  0  0  0  0  0  0  0  0  0  0  0
   -2.3090    1.1997    0.6088 N   0  0  0  0  0  0  0  0  0  0  0  0
   -0.0894    2.0305    0.4768 N   0  0  0  0  0  0  0  0  0  0  0  0
    1.6169    1.3374   -0.6691 N   0  0  0  0  0  0  0  0  0  0  0  0
  1 36  1  0  0  0  0
  2  3  2  0  0  0  0
  3 36  1  0  0  0  0
  3 31  1  0  0  0  0
  4  6  1  0  0  0  0
  4  5  1  0  0  0  0
  7 37  1  0  0  0  0
  8 38  1  0  0  0  0
  8  9  2  0  0  0  0
  9 33  1  0  0  0  0
  9 37  1  0  0  0  0
 10 38  1  0  0  0  0
 10 13  1  0  0  0  0
 11 10  1  0  0  0  0
 12 10  1  0  0  0  0
 13 21  1  0  0  0  0
 14 13  2  0  0  0  0
 14 15  1  0  0  0  0
 15 17  2  0  0  0  0
 16 15  1  0  0  0  0
 17 19  1  0  0  0  0
 17 18  1  0  0  0  0
 19 20  1  0  0  0  0
 21 22  1  0  0  0  0
 21 19  2  0  0  0  0
 23 25  1  0  0  0  0
 23 24  1  0  0  0  0
 23 35  1  0  0  0  0
 26 23  1  0  0  0  0
 27 26  1  0  0  0  0
 28 26  1  0  0  0  0
 29 26  1  0  0  0  0
 30  2  1  0  0  0  0
 32  8  1  0  0  0  0
 34 14  1  0  0  0  0
 35  2  1  0  0  0  0
 35  1  1  0  0  0  0
 36  4  1  0  0  0  0
 37  4  1  0  0  0  0
 38  7  1  0  0  0  0
M  END
