1,25
 OpenBabel05122313053D

 48 48  0  0  1  0  0  0  0  0999 V2000
   -1.3480    0.7146   -0.7132 C   0  0  2  0  0  3  0  0  0  0  0  0
    0.0015    1.5014   -0.9108 B   0  0  0  0  0  0  0  0  0  0  0  0
    1.3495    0.7117   -0.7133 C   0  0  1  0  0  3  0  0  0  0  0  0
   -2.6351    1.5082   -0.5108 C   0  0  0  0  0  0  0  0  0  0  0  0
   -3.3488    1.8968   -1.8142 C   0  0  0  0  0  0  0  0  0  0  0  0
    0.0031    3.0484   -1.3121 C   0  0  0  0  0  0  0  0  0  0  0  0
    0.0030    3.2010   -2.8488 C   0  0  0  0  0  0  0  0  0  0  0  0
    2.6382    1.5027   -0.5113 C   0  0  0  0  0  0  0  0  0  0  0  0
    3.3516    1.8912   -1.8149 C   0  0  0  0  0  0  0  0  0  0  0  0
   -3.3419    0.9458    0.1322 H   0  0  0  0  0  0  0  0  0  0  0  0
   -2.4002    2.4367    0.0486 H   0  0  0  0  0  0  0  0  0  0  0  0
   -2.7182    2.5527   -2.4441 H   0  0  0  0  0  0  0  0  0  0  0  0
   -3.6106    1.0077   -2.4205 H   0  0  0  0  0  0  0  0  0  0  0  0
   -4.2880    2.4437   -1.5954 H   0  0  0  0  0  0  0  0  0  0  0  0
   -0.8803    3.5803   -0.9010 H   0  0  0  0  0  0  0  0  0  0  0  0
    0.8876    3.5784   -0.9012 H   0  0  0  0  0  0  0  0  0  0  0  0
    0.8889    2.7216   -3.3121 H   0  0  0  0  0  0  0  0  0  0  0  0
    0.0043    4.2670   -3.1570 H   0  0  0  0  0  0  0  0  0  0  0  0
   -0.8845    2.7240   -3.3117 H   0  0  0  0  0  0  0  0  0  0  0  0
    2.4056    2.4312    0.0491 H   0  0  0  0  0  0  0  0  0  0  0  0
    3.3445    0.9384    0.1305 H   0  0  0  0  0  0  0  0  0  0  0  0
    2.7218    2.5490   -2.4436 H   0  0  0  0  0  0  0  0  0  0  0  0
    3.6109    1.0022   -2.4225 H   0  0  0  0  0  0  0  0  0  0  0  0
    4.2921    2.4358   -1.5965 H   0  0  0  0  0  0  0  0  0  0  0  0
    1.3480   -0.7145   -0.7133 C   0  0  2  0  0  3  0  0  0  0  0  0
   -0.0016   -1.5013   -0.9110 B   0  0  0  0  0  0  0  0  0  0  0  0
   -1.3496   -0.7116   -0.7133 C   0  0  1  0  0  3  0  0  0  0  0  0
    2.6350   -1.5081   -0.5110 C   0  0  0  0  0  0  0  0  0  0  0  0
   -0.0031   -3.0483   -1.3123 C   0  0  0  0  0  0  0  0  0  0  0  0
   -2.6382   -1.5027   -0.5112 C   0  0  0  0  0  0  0  0  0  0  0  0
    3.3487   -1.8966   -1.8145 C   0  0  0  0  0  0  0  0  0  0  0  0
    3.3419   -0.9458    0.1319 H   0  0  0  0  0  0  0  0  0  0  0  0
    2.4002   -2.4367    0.0482 H   0  0  0  0  0  0  0  0  0  0  0  0
   -0.0032   -3.2009   -2.8489 C   0  0  0  0  0  0  0  0  0  0  0  0
    0.8802   -3.5802   -0.9011 H   0  0  0  0  0  0  0  0  0  0  0  0
   -0.8877   -3.5783   -0.9012 H   0  0  0  0  0  0  0  0  0  0  0  0
   -3.3517   -1.8910   -1.8149 C   0  0  0  0  0  0  0  0  0  0  0  0
   -2.4056   -2.4312    0.0490 H   0  0  0  0  0  0  0  0  0  0  0  0
   -3.3445   -0.9384    0.1306 H   0  0  0  0  0  0  0  0  0  0  0  0
    2.7181   -2.5524   -2.4445 H   0  0  0  0  0  0  0  0  0  0  0  0
    3.6104   -1.0074   -2.4208 H   0  0  0  0  0  0  0  0  0  0  0  0
    4.2879   -2.4435   -1.5958 H   0  0  0  0  0  0  0  0  0  0  0  0
   -0.8892   -2.7216   -3.3121 H   0  0  0  0  0  0  0  0  0  0  0  0
   -0.0046   -4.2669   -3.1571 H   0  0  0  0  0  0  0  0  0  0  0  0
    0.8842   -2.7239   -3.3119 H   0  0  0  0  0  0  0  0  0  0  0  0
   -2.7219   -2.5488   -2.4437 H   0  0  0  0  0  0  0  0  0  0  0  0
   -3.6111   -1.0019   -2.4224 H   0  0  0  0  0  0  0  0  0  0  0  0
   -4.2922   -2.4357   -1.5965 H   0  0  0  0  0  0  0  0  0  0  0  0
  1  4  1  1  0  0  0
  2  3  1  0  0  0  0
  2  1  1  0  0  0  0
  3 25  1  0  0  0  0
  3  8  1  1  0  0  0
  4 11  1  0  0  0  0
  4 10  1  0  0  0  0
  5 14  1  0  0  0  0
  5  4  1  0  0  0  0
  6  2  1  0  0  0  0
  6 16  1  0  0  0  0
  6 15  1  0  0  0  0
  7  6  1  0  0  0  0
  8 20  1  0  0  0  0
  8 21  1  0  0  0  0
  9 24  1  0  0  0  0
  9  8  1  0  0  0  0
 12  5  1  0  0  0  0
 13  5  1  0  0  0  0
 17  7  1  0  0  0  0
 18  7  1  0  0  0  0
 19  7  1  0  0  0  0
 22  9  1  0  0  0  0
 23  9  1  0  0  0  0
 25 28  1  1  0  0  0
 26 25  1  0  0  0  0
 26 27  1  0  0  0  0
 27  1  1  0  0  0  0
 27 30  1  1  0  0  0
 28 33  1  0  0  0  0
 28 32  1  0  0  0  0
 29 26  1  0  0  0  0
 29 36  1  0  0  0  0
 29 35  1  0  0  0  0
 30 38  1  0  0  0  0
 30 39  1  0  0  0  0
 31 42  1  0  0  0  0
 31 28  1  0  0  0  0
 34 29  1  0  0  0  0
 37 48  1  0  0  0  0
 37 30  1  0  0  0  0
 40 31  1  0  0  0  0
 41 31  1  0  0  0  0
 43 34  1  0  0  0  0
 44 34  1  0  0  0  0
 45 34  1  0  0  0  0
 46 37  1  0  0  0  0
 47 37  1  0  0  0  0
M  END
