3,6
 OpenBabel05122313053D

 48 50  0  0  1  0  0  0  0  0999 V2000
   -2.0623    0.0246   -0.3128 Si  0  0  0  0  0  0  0  0  0  0  0  0
   -1.7186   -0.5801   -1.8690 O   0  0  0  0  0  0  0  0  0  0  0  0
   -0.5934   -0.8131    0.4791 C   0  0  0  0  0  3  0  0  0  0  0  0
   -0.1243   -1.7768   -0.4931 C   0  0  1  0  0  3  0  0  0  0  0  0
    0.6574   -2.9790    0.0878 C   0  0  0  0  0  0  0  0  0  0  0  0
    1.6936   -2.2015    0.9282 C   0  0  0  0  0  3  0  0  0  0  0  0
   -0.9512   -1.8069   -1.8121 C   0  0  0  0  0  0  0  0  0  0  0  0
   -0.2173   -3.8999    0.9670 C   0  0  0  0  0  0  0  0  0  0  0  0
    0.4321   -4.6287    1.4961 H   0  0  0  0  0  0  0  0  0  0  0  0
   -0.9603   -4.4739    0.3781 H   0  0  0  0  0  0  0  0  0  0  0  0
   -0.7626   -3.3215    1.7395 H   0  0  0  0  0  0  0  0  0  0  0  0
    1.3624   -3.8554   -0.9585 C   0  0  0  0  0  0  0  0  0  0  0  0
    0.6418   -4.4011   -1.5999 H   0  0  0  0  0  0  0  0  0  0  0  0
    1.9795   -4.6167   -0.4393 H   0  0  0  0  0  0  0  0  0  0  0  0
    2.0319   -3.2706   -1.6145 H   0  0  0  0  0  0  0  0  0  0  0  0
   -1.9631   -2.9745   -1.7559 C   0  0  0  0  0  0  0  0  0  0  0  0
   -2.5666   -2.9433   -0.8292 H   0  0  0  0  0  0  0  0  0  0  0  0
   -1.4606   -3.9587   -1.8169 H   0  0  0  0  0  0  0  0  0  0  0  0
   -2.6540   -2.8786   -2.6163 H   0  0  0  0  0  0  0  0  0  0  0  0
   -0.1561   -1.8960   -3.1166 C   0  0  0  0  0  0  0  0  0  0  0  0
   -0.8529   -1.7481   -3.9647 H   0  0  0  0  0  0  0  0  0  0  0  0
    0.3257   -2.8835   -3.2298 H   0  0  0  0  0  0  0  0  0  0  0  0
    0.6275   -1.1215   -3.1699 H   0  0  0  0  0  0  0  0  0  0  0  0
   -3.6780   -0.6177    0.4474 C   0  0  0  0  0  0  0  0  0  0  0  0
   -3.6953   -1.6911    1.3672 C   0  0  0  0  0  0  0  0  0  0  0  0
   -4.9005   -2.1720    1.9026 C   0  0  0  0  0  0  0  0  0  0  0  0
   -6.1188   -1.5865    1.5232 C   0  0  0  0  0  0  0  0  0  0  0  0
   -6.1248   -0.5181    0.6117 C   0  0  0  0  0  0  0  0  0  0  0  0
   -4.9160   -0.0374    0.0858 C   0  0  0  0  0  0  0  0  0  0  0  0
   -2.2808    1.8853   -0.4792 C   0  0  0  0  0  0  0  0  0  0  0  0
   -2.7718    2.6429    0.6103 C   0  0  0  0  0  0  0  0  0  0  0  0
   -2.9357    4.0330    0.5102 C   0  0  0  0  0  0  0  0  0  0  0  0
   -2.6312    4.6877   -0.6953 C   0  0  0  0  0  0  0  0  0  0  0  0
   -2.1749    3.9456   -1.7963 C   0  0  0  0  0  0  0  0  0  0  0  0
   -2.0007    2.5565   -1.6891 C   0  0  0  0  0  0  0  0  0  0  0  0
   -0.5654   -1.0923    1.5461 H   0  0  0  0  0  0  0  0  0  0  0  0
    1.3794   -2.1468    1.9891 H   0  0  0  0  0  0  0  0  0  0  0  0
    2.7107   -2.6397    0.8864 H   0  0  0  0  0  0  0  0  0  0  0  0
   -2.7480   -2.1662    1.6675 H   0  0  0  0  0  0  0  0  0  0  0  0
   -4.8895   -3.0083    2.6188 H   0  0  0  0  0  0  0  0  0  0  0  0
   -7.0660   -1.9625    1.9400 H   0  0  0  0  0  0  0  0  0  0  0  0
   -7.0778   -0.0552    0.3117 H   0  0  0  0  0  0  0  0  0  0  0  0
   -4.9337    0.8089   -0.6201 H   0  0  0  0  0  0  0  0  0  0  0  0
   -3.0457    2.1355    1.5502 H   0  0  0  0  0  0  0  0  0  0  0  0
   -3.3103    4.6074    1.3716 H   0  0  0  0  0  0  0  0  0  0  0  0
   -2.7614    5.7777   -0.7786 H   0  0  0  0  0  0  0  0  0  0  0  0
   -1.9502    4.4529   -2.7474 H   0  0  0  0  0  0  0  0  0  0  0  0
   -1.6357    1.9808   -2.5513 H   0  0  0  0  0  0  0  0  0  0  0  0
  1 24  1  0  0  0  0
  1  3  1  0  0  0  0
  2  7  1  0  0  0  0
  2  1  1  0  0  0  0
  3 36  1  0  0  0  0
  4  5  1  1  0  0  0
  4  3  1  0  0  0  0
  5  6  1  0  0  0  0
  5  8  1  0  0  0  0
  6 37  1  0  0  0  0
  7 16  1  0  0  0  0
  7  4  1  0  0  0  0
  8  9  1  0  0  0  0
  8 11  1  0  0  0  0
 10  8  1  0  0  0  0
 12 14  1  0  0  0  0
 12  5  1  0  0  0  0
 13 12  1  0  0  0  0
 15 12  1  0  0  0  0
 16 17  1  0  0  0  0
 18 16  1  0  0  0  0
 19 16  1  0  0  0  0
 20  7  1  0  0  0  0
 21 20  1  0  0  0  0
 22 20  1  0  0  0  0
 23 20  1  0  0  0  0
 24 25  1  0  0  0  0
 25 39  1  0  0  0  0
 25 26  2  0  0  0  0
 26 40  1  0  0  0  0
 27 26  1  0  0  0  0
 27 41  1  0  0  0  0
 28 27  2  0  0  0  0
 29 24  2  0  0  0  0
 29 28  1  0  0  0  0
 30  1  1  0  0  0  0
 30 31  1  0  0  0  0
 31 44  1  0  0  0  0
 32 31  2  0  0  0  0
 32 45  1  0  0  0  0
 33 32  1  0  0  0  0
 34 35  1  0  0  0  0
 34 33  2  0  0  0  0
 35 30  2  0  0  0  0
 38  6  1  0  0  0  0
 42 28  1  0  0  0  0
 43 29  1  0  0  0  0
 46 33  1  0  0  0  0
 47 34  1  0  0  0  0
 48 35  1  0  0  0  0
M  END
