3,6
 OpenBabel05122313053D

 21 22  0  0  1  0  0  0  0  0999 V2000
    0.0000   -1.4126    0.0000 Si  0  0  0  0  0  0  0  0  0  0  0  0
    0.0000   -2.5822   -1.7178 Cl  0  0  0  0  0  0  0  0  0  0  0  0
   -1.4283   -0.1890    0.0000 C   0  0  2  0  0  3  0  0  0  0  0  0
   -1.5631    0.6782   -1.1649 C   0  0  0  0  0  3  0  0  0  0  0  0
   -1.7636    2.0297   -0.7188 C   0  0  0  0  0  0  0  0  0  0  0  0
    1.4283   -0.1890   -0.0000 C   0  0  2  0  0  3  0  0  0  0  0  0
    1.5631    0.6782    1.1649 C   0  0  0  0  0  0  0  0  0  0  0  0
    1.7636    2.0297    0.7188 C   0  0  0  0  0  0  0  0  0  0  0  0
   -1.4801    0.3497   -2.2090 H   0  0  0  0  0  0  0  0  0  0  0  0
   -1.9091    2.9043   -1.3649 H   0  0  0  0  0  0  0  0  0  0  0  0
    1.4801    0.3497    2.2090 H   0  0  0  0  0  0  0  0  0  0  0  0
    1.9091    2.9043    1.3649 H   0  0  0  0  0  0  0  0  0  0  0  0
    0.0000   -2.5822    1.7178 Cl  0  0  0  0  0  0  0  0  0  0  0  0
   -1.5631    0.6782    1.1649 C   0  0  0  0  0  3  0  0  0  0  0  0
   -1.7636    2.0297    0.7188 C   0  0  0  0  0  0  0  0  0  0  0  0
    1.5631    0.6782   -1.1649 C   0  0  0  0  0  0  0  0  0  0  0  0
    1.7636    2.0297   -0.7188 C   0  0  0  0  0  0  0  0  0  0  0  0
    1.9091    2.9043   -1.3649 H   0  0  0  0  0  0  0  0  0  0  0  0
    1.4801    0.3497   -2.2090 H   0  0  0  0  0  0  0  0  0  0  0  0
   -1.4801    0.3497    2.2090 H   0  0  0  0  0  0  0  0  0  0  0  0
   -1.9091    2.9043    1.3649 H   0  0  0  0  0  0  0  0  0  0  0  0
  1 13  1  0  0  0  0
  2  1  1  0  0  0  0
  3  1  1  1  0  0  0
  3 14  1  0  0  0  0
  4  5  1  0  0  0  0
  4  3  1  0  0  0  0
  5 15  2  0  0  0  0
  6  1  1  1  0  0  0
  6  7  1  0  0  0  0
  7 11  1  0  0  0  0
  8  7  2  0  0  0  0
  8 12  1  0  0  0  0
  9  4  1  0  0  0  0
 10  5  1  0  0  0  0
 14 20  1  0  0  0  0
 15 14  1  0  0  0  0
 15 21  1  0  0  0  0
 16 17  2  0  0  0  0
 16  6  1  0  0  0  0
 17  8  1  0  0  0  0
 18 17  1  0  0  0  0
 19 16  1  0  0  0  0
M  END
