1,14
 OpenBabel05122313053D

 16 15  0  0  0  0  0  0  0  0999 V2000
    1.4383   -2.4426   -1.5104 C   0  0  0  0  0  3  0  0  0  0  0  0
    1.6335   -2.0989   -2.5510 H   0  0  0  0  0  0  0  0  0  0  0  0
    2.3870   -2.2624   -0.9602 H   0  0  0  0  0  0  0  0  0  0  0  0
    1.1666   -3.9587   -1.5171 C   0  0  0  0  0  0  0  0  0  0  0  0
    0.4482   -4.2092   -2.3245 H   0  0  0  0  0  0  0  0  0  0  0  0
    2.1056   -4.4890   -1.7908 H   0  0  0  0  0  0  0  0  0  0  0  0
    0.6577   -4.5181   -0.2076 C   0  0  0  0  0  0  0  0  0  0  0  0
    1.3724   -5.1132    0.3898 H   0  0  0  0  0  0  0  0  0  0  0  0
   -0.5802   -4.3479    0.3067 C   0  0  0  0  0  0  0  0  0  0  0  0
   -0.7929   -4.8343    1.2772 H   0  0  0  0  0  0  0  0  0  0  0  0
   -1.7449   -3.5926   -0.2853 C   0  0  0  0  0  0  0  0  0  0  0  0
   -2.2719   -3.0857    0.5554 H   0  0  0  0  0  0  0  0  0  0  0  0
   -2.4903   -4.3481   -0.6452 H   0  0  0  0  0  0  0  0  0  0  0  0
   -1.4671   -2.5667   -1.3933 C   0  0  0  0  0  3  0  0  0  0  0  0
   -2.4215   -2.0704   -1.6619 H   0  0  0  0  0  0  0  0  0  0  0  0
   -1.1065   -3.0591   -2.3163 H   0  0  0  0  0  0  0  0  0  0  0  0
  1  3  1  0  0  0  0
  2  1  1  0  0  0  0
  4  1  1  0  0  0  0
  4  7  1  0  0  0  0
  5  4  1  0  0  0  0
  6  4  1  0  0  0  0
  7  9  2  0  0  0  0
  7  8  1  0  0  0  0
  9 10  1  0  0  0  0
 11  9  1  0  0  0  0
 11 12  1  0  0  0  0
 13 11  1  0  0  0  0
 14 11  1  0  0  0  0
 15 14  1  0  0  0  0
 16 14  1  0  0  0  0
M  END
