5,23
 OpenBabel05122313053D

 55 58  0  0  0  0  0  0  0  0999 V2000
    1.9774    0.9373   -0.7334 N   0  0  0  0  0  0  0  0  0  0  0  0
    2.2374    0.3744    1.3724 N   0  0  0  0  0  0  0  0  0  0  0  0
   -1.5094    1.4948   -0.7978 N   0  0  0  0  0  0  0  0  0  0  0  0
   -2.0072    1.0114    1.2863 N   0  0  0  0  0  0  0  0  0  0  0  0
    1.4658    0.1516    0.2674 C   0  0  0  0  0  2  0  0  0  0  0  0
    3.2628    1.2744    1.0809 C   0  0  0  0  0  0  0  0  0  0  0  0
    3.0997    1.6365   -0.2792 C   0  0  0  0  0  0  0  0  0  0  0  0
    3.9941    2.5132   -0.9085 C   0  0  0  0  0  0  0  0  0  0  0  0
    3.8829    2.7906   -1.9657 H   0  0  0  0  0  0  0  0  0  0  0  0
    5.0481    3.0232   -0.1341 C   0  0  0  0  0  0  0  0  0  0  0  0
    5.7673    3.7147   -0.5969 H   0  0  0  0  0  0  0  0  0  0  0  0
    5.2070    2.6644    1.2218 C   0  0  0  0  0  0  0  0  0  0  0  0
    6.0474    3.0818    1.7955 H   0  0  0  0  0  0  0  0  0  0  0  0
    4.3182    1.7801    1.8525 C   0  0  0  0  0  0  0  0  0  0  0  0
    4.4505    1.4918    2.9044 H   0  0  0  0  0  0  0  0  0  0  0  0
    1.5171    0.8945   -2.1164 C   0  0  0  0  0  0  0  0  0  0  0  0
    1.2223   -0.1547   -2.3245 H   0  0  0  0  0  0  0  0  0  0  0  0
    2.4034    1.1169   -2.7435 H   0  0  0  0  0  0  0  0  0  0  0  0
    0.3725    1.8673   -2.5275 C   0  0  0  0  0  0  0  0  0  0  0  0
   -1.0426    1.3259   -2.1689 C   0  0  0  0  0  0  0  0  0  0  0  0
   -1.7836    1.8414   -2.8121 H   0  0  0  0  0  0  0  0  0  0  0  0
   -1.1076    0.2419   -2.3970 H   0  0  0  0  0  0  0  0  0  0  0  0
   -1.3156    0.5678    0.1936 C   0  0  0  0  0  2  0  0  0  0  0  0
   -2.6623    2.2093    0.9966 C   0  0  0  0  0  0  0  0  0  0  0  0
   -2.3450    2.5219   -0.3486 C   0  0  0  0  0  0  0  0  0  0  0  0
   -2.8589    3.6702   -0.9670 C   0  0  0  0  0  0  0  0  0  0  0  0
   -2.6270    3.9153   -2.0125 H   0  0  0  0  0  0  0  0  0  0  0  0
   -3.6858    4.5017   -0.1954 C   0  0  0  0  0  0  0  0  0  0  0  0
   -4.1053    5.4110   -0.6501 H   0  0  0  0  0  0  0  0  0  0  0  0
   -3.9893    4.1965    1.1490 C   0  0  0  0  0  0  0  0  0  0  0  0
   -4.6384    4.8740    1.7227 H   0  0  0  0  0  0  0  0  0  0  0  0
   -3.4851    3.0422    1.7678 C   0  0  0  0  0  0  0  0  0  0  0  0
   -3.7302    2.8003    2.8110 H   0  0  0  0  0  0  0  0  0  0  0  0
    0.4127    1.9250   -4.0685 C   0  0  0  0  0  0  0  0  0  0  0  0
   -0.3760    2.5977   -4.4611 H   0  0  0  0  0  0  0  0  0  0  0  0
    0.2563    0.9215   -4.5152 H   0  0  0  0  0  0  0  0  0  0  0  0
    1.3905    2.3065   -4.4251 H   0  0  0  0  0  0  0  0  0  0  0  0
    0.5968    3.2668   -1.9389 C   0  0  0  0  0  0  0  0  0  0  0  0
    1.5811    3.6734   -2.2450 H   0  0  0  0  0  0  0  0  0  0  0  0
    0.5660    3.2550   -0.8313 H   0  0  0  0  0  0  0  0  0  0  0  0
   -0.1795    3.9746   -2.2914 H   0  0  0  0  0  0  0  0  0  0  0  0
    2.0417   -0.2826    2.6611 C   0  0  0  0  0  0  0  0  0  0  0  0
    3.0239   -0.6826    2.9880 H   0  0  0  0  0  0  0  0  0  0  0  0
    1.3908   -1.1568    2.4590 H   0  0  0  0  0  0  0  0  0  0  0  0
    1.4416    0.6480    3.7119 C   0  0  0  0  0  0  0  0  0  0  0  0
    2.1018    1.5118    3.9273 H   0  0  0  0  0  0  0  0  0  0  0  0
    1.2809    0.0967    4.6592 H   0  0  0  0  0  0  0  0  0  0  0  0
    0.4649    1.0435    3.3719 H   0  0  0  0  0  0  0  0  0  0  0  0
   -2.1593    0.2541    2.5291 C   0  0  0  0  0  0  0  0  0  0  0  0
   -1.9584    0.9458    3.3748 H   0  0  0  0  0  0  0  0  0  0  0  0
   -1.3575   -0.5113    2.5124 H   0  0  0  0  0  0  0  0  0  0  0  0
   -3.5273   -0.4101    2.6554 C   0  0  0  0  0  0  0  0  0  0  0  0
   -4.3506    0.3314    2.6395 H   0  0  0  0  0  0  0  0  0  0  0  0
   -3.5829   -0.9668    3.6117 H   0  0  0  0  0  0  0  0  0  0  0  0
   -3.6727   -1.1270    1.8220 H   0  0  0  0  0  0  0  0  0  0  0  0
  1  7  1  0  0  0  0
  1  5  1  0  0  0  0
  2 42  1  0  0  0  0
  3 25  1  0  0  0  0
  3 23  1  0  0  0  0
  4 49  1  0  0  0  0
  5  2  1  0  0  0  0
  6  2  1  0  0  0  0
  6 14  1  0  0  0  0
  7  6  2  0  0  0  0
  8  7  1  0  0  0  0
  8 10  2  0  0  0  0
  9  8  1  0  0  0  0
 10 12  1  0  0  0  0
 11 10  1  0  0  0  0
 12 13  1  0  0  0  0
 12 14  2  0  0  0  0
 14 15  1  0  0  0  0
 16  1  1  0  0  0  0
 17 16  1  0  0  0  0
 18 16  1  0  0  0  0
 19 20  1  0  0  0  0
 19 16  1  0  0  0  0
 19 38  1  0  0  0  0
 20  3  1  0  0  0  0
 21 20  1  0  0  0  0
 22 20  1  0  0  0  0
 23  4  1  0  0  0  0
 24  4  1  0  0  0  0
 24 32  1  0  0  0  0
 25 24  2  0  0  0  0
 26 25  1  0  0  0  0
 26 28  2  0  0  0  0
 27 26  1  0  0  0  0
 28 30  1  0  0  0  0
 29 28  1  0  0  0  0
 30 31  1  0  0  0  0
 30 32  2  0  0  0  0
 32 33  1  0  0  0  0
 34 19  1  0  0  0  0
 35 34  1  0  0  0  0
 36 34  1  0  0  0  0
 37 34  1  0  0  0  0
 38 40  1  0  0  0  0
 39 38  1  0  0  0  0
 41 38  1  0  0  0  0
 42 43  1  0  0  0  0
 42 45  1  0  0  0  0
 44 42  1  0  0  0  0
 45 46  1  0  0  0  0
 45 47  1  0  0  0  0
 48 45  1  0  0  0  0
 49 52  1  0  0  0  0
 49 50  1  0  0  0  0
 51 49  1  0  0  0  0
 52 54  1  0  0  0  0
 53 52  1  0  0  0  0
 55 52  1  0  0  0  0
M  END
