4,6
 OpenBabel05122313053D

 51 54  0  0  0  0  0  0  0  0999 V2000
   -2.2338    1.7494    0.0267 S   0  0  0  0  0  0  0  0  0  0  0  0
    2.3771   -2.0664   -0.2508 S   0  0  0  0  0  0  0  0  0  0  0  0
    0.5357    0.4682    0.1659 Si  0  0  0  0  0  0  0  0  0  0  0  0
   -1.3536    0.2341    0.4435 C   0  0  0  0  0  3  0  0  0  0  0  0
   -1.5022    0.0789    1.5284 H   0  0  0  0  0  0  0  0  0  0  0  0
    1.0212   -1.0708   -0.8765 C   0  0  0  0  0  3  0  0  0  0  0  0
    1.2625   -0.7597   -1.9080 H   0  0  0  0  0  0  0  0  0  0  0  0
   -3.8922    1.4458    0.5723 C   0  0  0  0  0  0  0  0  0  0  0  0
   -4.8007    2.5294    0.5032 C   0  0  0  0  0  0  0  0  0  0  0  0
   -4.4516    3.5064    0.1338 H   0  0  0  0  0  0  0  0  0  0  0  0
   -6.1303    2.3608    0.9040 C   0  0  0  0  0  0  0  0  0  0  0  0
   -6.8239    3.2137    0.8444 H   0  0  0  0  0  0  0  0  0  0  0  0
   -6.5824    1.1176    1.3838 C   0  0  0  0  0  0  0  0  0  0  0  0
   -7.6279    0.9913    1.7021 H   0  0  0  0  0  0  0  0  0  0  0  0
   -5.6835    0.0433    1.4536 C   0  0  0  0  0  0  0  0  0  0  0  0
   -6.0232   -0.9361    1.8260 H   0  0  0  0  0  0  0  0  0  0  0  0
   -4.3470    0.1990    1.0530 C   0  0  0  0  0  0  0  0  0  0  0  0
   -3.6495   -0.6477    1.0894 H   0  0  0  0  0  0  0  0  0  0  0  0
    3.8544   -1.1007   -0.4598 C   0  0  0  0  0  0  0  0  0  0  0  0
    3.9397    0.0513   -1.2673 C   0  0  0  0  0  0  0  0  0  0  0  0
    3.0579    0.4133   -1.8104 H   0  0  0  0  0  0  0  0  0  0  0  0
    5.1459    0.7635   -1.3550 C   0  0  0  0  0  0  0  0  0  0  0  0
    5.1875    1.6701   -1.9786 H   0  0  0  0  0  0  0  0  0  0  0  0
    6.2837    0.3337   -0.6554 C   0  0  0  0  0  0  0  0  0  0  0  0
    7.2261    0.8971   -0.7240 H   0  0  0  0  0  0  0  0  0  0  0  0
    6.2038   -0.8250    0.1381 C   0  0  0  0  0  0  0  0  0  0  0  0
    7.0865   -1.1727    0.6970 H   0  0  0  0  0  0  0  0  0  0  0  0
    5.0027   -1.5365    0.2402 C   0  0  0  0  0  0  0  0  0  0  0  0
    4.9382   -2.4272    0.8846 H   0  0  0  0  0  0  0  0  0  0  0  0
    0.8661    2.0797   -0.7791 C   0  0  0  0  0  0  0  0  0  0  0  0
    1.0805    2.1417   -2.1732 C   0  0  0  0  0  0  0  0  0  0  0  0
    1.0785    1.2178   -2.7738 H   0  0  0  0  0  0  0  0  0  0  0  0
    1.3074    3.3656   -2.8218 C   0  0  0  0  0  0  0  0  0  0  0  0
    1.4739    3.3878   -3.9098 H   0  0  0  0  0  0  0  0  0  0  0  0
    1.3248    4.5579   -2.0811 C   0  0  0  0  0  0  0  0  0  0  0  0
    1.5043    5.5195   -2.5861 H   0  0  0  0  0  0  0  0  0  0  0  0
    1.1137    4.5180   -0.6938 C   0  0  0  0  0  0  0  0  0  0  0  0
    1.1264    5.4494   -0.1069 H   0  0  0  0  0  0  0  0  0  0  0  0
    0.8858    3.2919   -0.0513 C   0  0  0  0  0  0  0  0  0  0  0  0
    0.7220    3.2753    1.0379 H   0  0  0  0  0  0  0  0  0  0  0  0
    1.4373    0.5330    1.8303 C   0  0  0  0  0  0  0  0  0  0  0  0
    0.8428    0.1244    3.0437 C   0  0  0  0  0  0  0  0  0  0  0  0
   -0.2044   -0.2168    3.0577 H   0  0  0  0  0  0  0  0  0  0  0  0
    1.5585    0.1520    4.2511 C   0  0  0  0  0  0  0  0  0  0  0  0
    1.0721   -0.1723    5.1840 H   0  0  0  0  0  0  0  0  0  0  0  0
    2.8891    0.5980    4.2672 C   0  0  0  0  0  0  0  0  0  0  0  0
    3.4536    0.6184    5.2122 H   0  0  0  0  0  0  0  0  0  0  0  0
    3.4926    1.0258    3.0742 C   0  0  0  0  0  0  0  0  0  0  0  0
    4.5344    1.3814    3.0755 H   0  0  0  0  0  0  0  0  0  0  0  0
    2.7728    0.9974    1.8708 C   0  0  0  0  0  0  0  0  0  0  0  0
    3.2645    1.3369    0.9470 H   0  0  0  0  0  0  0  0  0  0  0  0
  1  4  1  0  0  0  0
  1  8  1  0  0  0  0
  3  4  1  0  0  0  0
  3 41  1  0  0  0  0
  4  5  1  0  0  0  0
  6  2  1  0  0  0  0
  6  3  1  0  0  0  0
  7  6  1  0  0  0  0
  8 17  1  0  0  0  0
  9  8  2  0  0  0  0
  9 11  1  0  0  0  0
 10  9  1  0  0  0  0
 11 13  2  0  0  0  0
 12 11  1  0  0  0  0
 13 15  1  0  0  0  0
 13 14  1  0  0  0  0
 15 16  1  0  0  0  0
 17 18  1  0  0  0  0
 17 15  2  0  0  0  0
 19  2  1  0  0  0  0
 19 28  1  0  0  0  0
 20 19  2  0  0  0  0
 21 20  1  0  0  0  0
 22 20  1  0  0  0  0
 22 24  2  0  0  0  0
 23 22  1  0  0  0  0
 24 26  1  0  0  0  0
 25 24  1  0  0  0  0
 26 28  2  0  0  0  0
 26 27  1  0  0  0  0
 28 29  1  0  0  0  0
 30 39  1  0  0  0  0
 30  3  1  0  0  0  0
 31 30  2  0  0  0  0
 32 31  1  0  0  0  0
 33 31  1  0  0  0  0
 33 35  2  0  0  0  0
 34 33  1  0  0  0  0
 35 37  1  0  0  0  0
 36 35  1  0  0  0  0
 37 38  1  0  0  0  0
 37 39  2  0  0  0  0
 39 40  1  0  0  0  0
 41 50  2  0  0  0  0
 41 42  1  0  0  0  0
 42 43  1  0  0  0  0
 42 44  2  0  0  0  0
 44 46  1  0  0  0  0
 44 45  1  0  0  0  0
 46 47  1  0  0  0  0
 48 49  1  0  0  0  0
 48 46  2  0  0  0  0
 50 48  1  0  0  0  0
 51 50  1  0  0  0  0
M  END
