1,7
 OpenBabel05122313053D

 20 20  0  0  0  0  0  0  0  0999 V2000
    1.4425   -0.8275   -0.0599 C   0  0  0  0  0  3  0  0  0  0  0  0
    1.7802   -1.3245    0.8695 H   0  0  0  0  0  0  0  0  0  0  0  0
    2.2760   -0.8340   -1.1444 C   0  0  0  0  0  0  0  0  0  0  0  0
    1.7559   -0.0850   -2.3491 C   0  0  0  0  0  0  0  0  0  0  0  0
    2.0470   -0.5890   -3.2993 H   0  0  0  0  0  0  0  0  0  0  0  0
    2.2375    0.9200   -2.3829 H   0  0  0  0  0  0  0  0  0  0  0  0
    0.2422    0.0638   -2.2013 C   0  0  0  0  0  3  0  0  0  0  0  0
   -0.2728   -0.8631   -2.5396 H   0  0  0  0  0  0  0  0  0  0  0  0
   -0.1662    0.9079   -2.7972 H   0  0  0  0  0  0  0  0  0  0  0  0
    3.6145   -1.4660   -1.1725 C   0  0  0  0  0  0  0  0  0  0  0  0
    4.5927   -1.0504   -2.1083 C   0  0  0  0  0  0  0  0  0  0  0  0
    4.3519   -0.2533   -2.8267 H   0  0  0  0  0  0  0  0  0  0  0  0
    5.8728   -1.6223   -2.1221 C   0  0  0  0  0  0  0  0  0  0  0  0
    6.6174   -1.2732   -2.8542 H   0  0  0  0  0  0  0  0  0  0  0  0
    6.2051   -2.6360   -1.2107 C   0  0  0  0  0  0  0  0  0  0  0  0
    7.2073   -3.0906   -1.2258 H   0  0  0  0  0  0  0  0  0  0  0  0
    5.2419   -3.0725   -0.2842 C   0  0  0  0  0  0  0  0  0  0  0  0
    5.4862   -3.8778    0.4257 H   0  0  0  0  0  0  0  0  0  0  0  0
    3.9673   -2.4963   -0.2664 C   0  0  0  0  0  0  0  0  0  0  0  0
    3.2141   -2.8621    0.4475 H   0  0  0  0  0  0  0  0  0  0  0  0
  1  2  1  0  0  0  0
  3  1  2  0  0  0  0
  4  7  1  0  0  0  0
  4  3  1  0  0  0  0
  5  4  1  0  0  0  0
  6  4  1  0  0  0  0
  8  7  1  0  0  0  0
  9  7  1  0  0  0  0
 10  3  1  0  0  0  0
 10 19  1  0  0  0  0
 11 10  2  0  0  0  0
 12 11  1  0  0  0  0
 13 11  1  0  0  0  0
 13 15  2  0  0  0  0
 14 13  1  0  0  0  0
 15 17  1  0  0  0  0
 16 15  1  0  0  0  0
 17 19  2  0  0  0  0
 17 18  1  0  0  0  0
 19 20  1  0  0  0  0
M  END
