41
 OpenBabel05122313053D

 80 83  0  0  1  0  0  0  0  0999 V2000
    4.6012   -1.1166    0.2699 Si  0  0  0  0  0  0  0  0  0  0  0  0
    2.9822   -0.6636    0.6935 O   0  0  0  0  0  0  0  0  0  0  0  0
    0.6786   -1.2152    1.2811 C   0  0  1  0  0  3  0  0  0  0  0  0
    1.8348   -1.3115    0.4300 C   0  0  0  0  0  0  0  0  0  0  0  0
    1.5060   -2.0767   -0.7328 C   0  0  0  0  0  0  0  0  0  0  0  0
    0.1948   -2.6244   -0.5344 C   0  0  0  0  0  0  0  0  0  0  0  0
   -0.5753   -3.5514   -1.2863 C   0  0  0  0  0  0  0  0  0  0  0  0
   -1.8218   -3.9302   -0.8092 C   0  0  0  0  0  0  0  0  0  0  0  0
   -2.3372   -3.4039    0.4107 C   0  0  0  0  0  0  0  0  0  0  0  0
   -1.6186   -2.4803    1.1581 C   0  0  0  0  0  0  0  0  0  0  0  0
   -0.3315   -2.0758    0.7023 C   0  0  0  0  0  0  0  0  0  0  0  0
    0.5892   -0.4991    2.6006 C   0  0  0  0  0  0  0  0  0  0  0  0
    4.7417   -1.6032   -1.5436 C   0  0  0  0  0  0  0  0  0  0  0  0
    5.0381   -2.5633    1.3939 C   0  0  0  0  0  0  0  0  0  0  0  0
    5.6074    0.4612    0.6421 C   0  0  0  0  0  0  0  0  0  0  0  0
    7.1067    0.1030    0.6391 C   0  0  0  0  0  0  0  0  0  0  0  0
    5.3132    1.5012   -0.4571 C   0  0  0  0  0  0  0  0  0  0  0  0
    5.2111    1.0217    2.0202 C   0  0  0  0  0  0  0  0  0  0  0  0
    4.1472   -0.9180   -2.1810 H   0  0  0  0  0  0  0  0  0  0  0  0
    4.4001   -2.6423   -1.7202 H   0  0  0  0  0  0  0  0  0  0  0  0
    5.8033   -1.5429   -1.8616 H   0  0  0  0  0  0  0  0  0  0  0  0
    4.3167   -3.3927    1.2427 H   0  0  0  0  0  0  0  0  0  0  0  0
    5.0058   -2.2727    2.4630 H   0  0  0  0  0  0  0  0  0  0  0  0
    6.0521   -2.9527    1.1697 H   0  0  0  0  0  0  0  0  0  0  0  0
    7.3661   -0.6182    1.4418 H   0  0  0  0  0  0  0  0  0  0  0  0
    7.7195    1.0165    0.8053 H   0  0  0  0  0  0  0  0  0  0  0  0
    7.4327   -0.3339   -0.3284 H   0  0  0  0  0  0  0  0  0  0  0  0
    4.2287    1.7076   -0.5557 H   0  0  0  0  0  0  0  0  0  0  0  0
    5.6798    1.1663   -1.4489 H   0  0  0  0  0  0  0  0  0  0  0  0
    5.8242    2.4622   -0.2242 H   0  0  0  0  0  0  0  0  0  0  0  0
    5.4049    0.2956    2.8373 H   0  0  0  0  0  0  0  0  0  0  0  0
    4.1372    1.2881    2.0518 H   0  0  0  0  0  0  0  0  0  0  0  0
    5.7994    1.9387    2.2466 H   0  0  0  0  0  0  0  0  0  0  0  0
    2.1604   -2.2715   -1.5859 H   0  0  0  0  0  0  0  0  0  0  0  0
   -0.1799   -3.9569   -2.2288 H   0  0  0  0  0  0  0  0  0  0  0  0
   -2.4257   -4.6531   -1.3778 H   0  0  0  0  0  0  0  0  0  0  0  0
   -3.3225   -3.7385    0.7672 H   0  0  0  0  0  0  0  0  0  0  0  0
   -2.0184   -2.0962    2.1068 H   0  0  0  0  0  0  0  0  0  0  0  0
    0.4822   -1.2271    3.4347 H   0  0  0  0  0  0  0  0  0  0  0  0
    1.5493    0.0273    2.7693 H   0  0  0  0  0  0  0  0  0  0  0  0
   -0.6786    1.2152    1.2810 C   0  0  2  0  0  3  0  0  0  0  0  0
   -1.8347    1.3114    0.4298 C   0  0  0  0  0  0  0  0  0  0  0  0
   -1.5060    2.0766   -0.7330 C   0  0  0  0  0  0  0  0  0  0  0  0
   -2.9822    0.6634    0.6933 O   0  0  0  0  0  0  0  0  0  0  0  0
   -4.6012    1.1166    0.2698 Si  0  0  0  0  0  0  0  0  0  0  0  0
   -4.7417    1.6030   -1.5438 C   0  0  0  0  0  0  0  0  0  0  0  0
   -4.1472    0.9178   -2.1811 H   0  0  0  0  0  0  0  0  0  0  0  0
   -4.4000    2.6421   -1.7205 H   0  0  0  0  0  0  0  0  0  0  0  0
   -5.8033    1.5428   -1.8617 H   0  0  0  0  0  0  0  0  0  0  0  0
   -5.0378    2.5635    1.3936 C   0  0  0  0  0  0  0  0  0  0  0  0
   -4.3164    3.3928    1.2423 H   0  0  0  0  0  0  0  0  0  0  0  0
   -5.0054    2.2730    2.4628 H   0  0  0  0  0  0  0  0  0  0  0  0
   -6.0518    2.9529    1.1696 H   0  0  0  0  0  0  0  0  0  0  0  0
   -5.6075   -0.4610    0.6422 C   0  0  0  0  0  0  0  0  0  0  0  0
   -7.1068   -0.1027    0.6391 C   0  0  0  0  0  0  0  0  0  0  0  0
   -7.3661    0.6186    1.4418 H   0  0  0  0  0  0  0  0  0  0  0  0
   -7.7196   -1.0161    0.8055 H   0  0  0  0  0  0  0  0  0  0  0  0
   -7.4328    0.3342   -0.3284 H   0  0  0  0  0  0  0  0  0  0  0  0
   -5.3134   -1.5012   -0.4569 C   0  0  0  0  0  0  0  0  0  0  0  0
   -4.2290   -1.7077   -0.5554 H   0  0  0  0  0  0  0  0  0  0  0  0
   -5.6800   -1.1664   -1.4487 H   0  0  0  0  0  0  0  0  0  0  0  0
   -5.8245   -2.4621   -0.2238 H   0  0  0  0  0  0  0  0  0  0  0  0
   -5.2113   -1.0214    2.0203 C   0  0  0  0  0  0  0  0  0  0  0  0
   -5.4050   -0.2952    2.8374 H   0  0  0  0  0  0  0  0  0  0  0  0
   -4.1374   -1.2880    2.0520 H   0  0  0  0  0  0  0  0  0  0  0  0
   -5.7997   -1.9383    2.2469 H   0  0  0  0  0  0  0  0  0  0  0  0
   -0.1948    2.6244   -0.5345 C   0  0  0  0  0  0  0  0  0  0  0  0
   -0.5893    0.4992    2.6006 C   0  0  0  0  0  0  0  0  0  0  0  0
    0.3315    2.0758    0.7022 C   0  0  0  0  0  0  0  0  0  0  0  0
    0.5753    3.5514   -1.2864 C   0  0  0  0  0  0  0  0  0  0  0  0
    1.8217    3.9303   -0.8092 C   0  0  0  0  0  0  0  0  0  0  0  0
    2.3371    3.4040    0.4107 C   0  0  0  0  0  0  0  0  0  0  0  0
    1.6186    2.4803    1.1581 C   0  0  0  0  0  0  0  0  0  0  0  0
    2.0184    2.0963    2.1067 H   0  0  0  0  0  0  0  0  0  0  0  0
    3.3224    3.7387    0.7672 H   0  0  0  0  0  0  0  0  0  0  0  0
    2.4255    4.6532   -1.3778 H   0  0  0  0  0  0  0  0  0  0  0  0
    0.1799    3.9569   -2.2289 H   0  0  0  0  0  0  0  0  0  0  0  0
   -0.4822    1.2272    3.4346 H   0  0  0  0  0  0  0  0  0  0  0  0
   -1.5493   -0.0272    2.7692 H   0  0  0  0  0  0  0  0  0  0  0  0
   -2.1603    2.2713   -1.5861 H   0  0  0  0  0  0  0  0  0  0  0  0
  1 15  1  0  0  0  0
  1  2  1  0  0  0  0
  1 14  1  0  0  0  0
  3 12  1  1  0  0  0
  4  2  1  0  0  0  0
  4  3  1  0  0  0  0
  5  6  1  0  0  0  0
  5  4  2  0  0  0  0
  6 11  1  0  0  0  0
  7  8  1  0  0  0  0
  7  6  2  0  0  0  0
  8  9  2  0  0  0  0
  9 37  1  0  0  0  0
  9 10  1  0  0  0  0
 10 38  1  0  0  0  0
 11 10  2  0  0  0  0
 11  3  1  0  0  0  0
 12 40  1  0  0  0  0
 12 39  1  0  0  0  0
 13  1  1  0  0  0  0
 14 23  1  0  0  0  0
 15 18  1  0  0  0  0
 16 15  1  0  0  0  0
 16 26  1  0  0  0  0
 16 25  1  0  0  0  0
 17 30  1  0  0  0  0
 17 15  1  0  0  0  0
 18 32  1  0  0  0  0
 18 33  1  0  0  0  0
 18 31  1  0  0  0  0
 19 13  1  0  0  0  0
 20 13  1  0  0  0  0
 21 13  1  0  0  0  0
 22 14  1  0  0  0  0
 24 14  1  0  0  0  0
 27 16  1  0  0  0  0
 28 17  1  0  0  0  0
 29 17  1  0  0  0  0
 34  5  1  0  0  0  0
 35  7  1  0  0  0  0
 36  8  1  0  0  0  0
 41 68  1  1  0  0  0
 42 44  1  0  0  0  0
 42 41  1  0  0  0  0
 43 67  1  0  0  0  0
 43 42  2  0  0  0  0
 45 54  1  0  0  0  0
 45 44  1  0  0  0  0
 45 50  1  0  0  0  0
 46 45  1  0  0  0  0
 47 46  1  0  0  0  0
 48 46  1  0  0  0  0
 49 46  1  0  0  0  0
 50 52  1  0  0  0  0
 51 50  1  0  0  0  0
 53 50  1  0  0  0  0
 54 63  1  0  0  0  0
 55 54  1  0  0  0  0
 55 57  1  0  0  0  0
 55 56  1  0  0  0  0
 58 55  1  0  0  0  0
 59 62  1  0  0  0  0
 59 54  1  0  0  0  0
 60 59  1  0  0  0  0
 61 59  1  0  0  0  0
 63 65  1  0  0  0  0
 63 66  1  0  0  0  0
 63 64  1  0  0  0  0
 67 69  1  0  0  0  0
 68 12  1  0  0  0  0
 68 79  1  0  0  0  0
 68 78  1  0  0  0  0
 69 73  2  0  0  0  0
 69 41  1  0  0  0  0
 70 71  1  0  0  0  0
 70 67  2  0  0  0  0
 71 72  2  0  0  0  0
 72 75  1  0  0  0  0
 72 73  1  0  0  0  0
 73 74  1  0  0  0  0
 76 71  1  0  0  0  0
 77 70  1  0  0  0  0
 80 43  1  0  0  0  0
M  END
