3,6
 OpenBabel05122313053D

 50 49  0  0  0  0  0  0  0  0999 V2000
    3.3366    0.1808    0.4605 Si  0  0  0  0  0  0  0  0  0  0  0  0
   -3.3363    0.1808   -0.4604 Si  0  0  0  0  0  0  0  0  0  0  0  0
    1.4746    0.2899    0.2292 C   0  0  0  0  0  3  0  0  0  0  0  0
    0.7533    1.4565    0.0542 C   0  0  0  0  0  0  0  0  0  0  0  0
   -0.7532    1.4564   -0.0540 C   0  0  0  0  0  0  0  0  0  0  0  0
   -1.4744    0.2897   -0.2287 C   0  0  0  0  0  3  0  0  0  0  0  0
    1.4510    2.7933   -0.1774 C   0  0  0  0  0  0  0  0  0  0  0  0
    2.4929    2.7376    0.1934 H   0  0  0  0  0  0  0  0  0  0  0  0
    0.9735    3.6165    0.3960 H   0  0  0  0  0  0  0  0  0  0  0  0
    1.4828    3.1759   -1.6690 C   0  0  0  0  0  0  0  0  0  0  0  0
    1.9804    2.3551   -2.2298 H   0  0  0  0  0  0  0  0  0  0  0  0
    0.4443    3.2183   -2.0641 H   0  0  0  0  0  0  0  0  0  0  0  0
    2.1981    4.5003   -1.9339 C   0  0  0  0  0  0  0  0  0  0  0  0
    2.2152    4.7504   -3.0140 H   0  0  0  0  0  0  0  0  0  0  0  0
    3.2505    4.4664   -1.5811 H   0  0  0  0  0  0  0  0  0  0  0  0
    1.7018    5.3396   -1.4029 H   0  0  0  0  0  0  0  0  0  0  0  0
   -1.4510    2.7932    0.1772 C   0  0  0  0  0  0  0  0  0  0  0  0
   -0.9737    3.6161   -0.3968 H   0  0  0  0  0  0  0  0  0  0  0  0
   -2.4929    2.7373   -0.1934 H   0  0  0  0  0  0  0  0  0  0  0  0
   -1.4825    3.1766    1.6686 C   0  0  0  0  0  0  0  0  0  0  0  0
   -0.4440    3.2194    2.0634 H   0  0  0  0  0  0  0  0  0  0  0  0
   -1.9800    2.3561    2.2299 H   0  0  0  0  0  0  0  0  0  0  0  0
   -2.1979    4.5011    1.9328 C   0  0  0  0  0  0  0  0  0  0  0  0
   -2.2148    4.7518    3.0128 H   0  0  0  0  0  0  0  0  0  0  0  0
   -3.2504    4.4669    1.5803 H   0  0  0  0  0  0  0  0  0  0  0  0
   -1.7018    5.3402    1.4012 H   0  0  0  0  0  0  0  0  0  0  0  0
    3.8567   -1.5873    0.9496 C   0  0  0  0  0  0  0  0  0  0  0  0
    4.9641   -1.6624    0.9341 H   0  0  0  0  0  0  0  0  0  0  0  0
    3.4579   -2.3712    0.2761 H   0  0  0  0  0  0  0  0  0  0  0  0
    3.5270   -1.8312    1.9799 H   0  0  0  0  0  0  0  0  0  0  0  0
    4.2889    0.6313   -1.1260 C   0  0  0  0  0  0  0  0  0  0  0  0
    5.3756    0.4423   -0.9992 H   0  0  0  0  0  0  0  0  0  0  0  0
    4.1579    1.7007   -1.3875 H   0  0  0  0  0  0  0  0  0  0  0  0
    3.9384    0.0321   -1.9914 H   0  0  0  0  0  0  0  0  0  0  0  0
    3.9683    1.2613    1.8987 C   0  0  0  0  0  0  0  0  0  0  0  0
    5.0349    1.0310    2.1036 H   0  0  0  0  0  0  0  0  0  0  0  0
    3.3926    1.0467    2.8230 H   0  0  0  0  0  0  0  0  0  0  0  0
    3.8890    2.3487    1.7022 H   0  0  0  0  0  0  0  0  0  0  0  0
   -3.9674    1.2609   -1.8991 C   0  0  0  0  0  0  0  0  0  0  0  0
   -5.0342    1.0309   -2.1037 H   0  0  0  0  0  0  0  0  0  0  0  0
   -3.3919    1.0458   -2.8234 H   0  0  0  0  0  0  0  0  0  0  0  0
   -3.8878    2.3483   -1.7030 H   0  0  0  0  0  0  0  0  0  0  0  0
   -4.2893    0.6323    1.1254 C   0  0  0  0  0  0  0  0  0  0  0  0
   -5.3762    0.4461    0.9970 H   0  0  0  0  0  0  0  0  0  0  0  0
   -4.1559    1.7012    1.3878 H   0  0  0  0  0  0  0  0  0  0  0  0
   -3.9414    0.0316    1.9909 H   0  0  0  0  0  0  0  0  0  0  0  0
   -3.8571   -1.5873   -0.9491 C   0  0  0  0  0  0  0  0  0  0  0  0
   -4.9645   -1.6619   -0.9331 H   0  0  0  0  0  0  0  0  0  0  0  0
   -3.4583   -2.3713   -0.2757 H   0  0  0  0  0  0  0  0  0  0  0  0
   -3.5279   -1.8313   -1.9795 H   0  0  0  0  0  0  0  0  0  0  0  0
  1 27  1  0  0  0  0
  1 35  1  0  0  0  0
  2  6  1  0  0  0  0
  2 43  1  0  0  0  0
  3  1  1  0  0  0  0
  4  3  2  0  0  0  0
  5  4  1  0  0  0  0
  5 17  1  0  0  0  0
  6  5  2  0  0  0  0
  7  4  1  0  0  0  0
  7  8  1  0  0  0  0
  7  9  1  0  0  0  0
 10  7  1  0  0  0  0
 11 10  1  0  0  0  0
 12 10  1  0  0  0  0
 13 10  1  0  0  0  0
 13 15  1  0  0  0  0
 13 16  1  0  0  0  0
 14 13  1  0  0  0  0
 17 20  1  0  0  0  0
 18 17  1  0  0  0  0
 19 17  1  0  0  0  0
 20 23  1  0  0  0  0
 20 21  1  0  0  0  0
 20 22  1  0  0  0  0
 23 24  1  0  0  0  0
 25 23  1  0  0  0  0
 26 23  1  0  0  0  0
 27 30  1  0  0  0  0
 28 27  1  0  0  0  0
 29 27  1  0  0  0  0
 31 32  1  0  0  0  0
 31  1  1  0  0  0  0
 33 31  1  0  0  0  0
 34 31  1  0  0  0  0
 35 36  1  0  0  0  0
 35 37  1  0  0  0  0
 38 35  1  0  0  0  0
 39 42  1  0  0  0  0
 39  2  1  0  0  0  0
 40 39  1  0  0  0  0
 41 39  1  0  0  0  0
 43 45  1  0  0  0  0
 43 46  1  0  0  0  0
 44 43  1  0  0  0  0
 47 48  1  0  0  0  0
 47  2  1  0  0  0  0
 47 49  1  0  0  0  0
 50 47  1  0  0  0  0
M  END
