3
 OpenBabel05122313053D

 55 58  0  0  1  0  0  0  0  0999 V2000
    2.1202    2.2194    0.9279 N   0  0  0  0  0  0  0  0  0  0  0  0
    0.0001    0.0004    2.4698 Si  0  0  0  0  0  0  0  0  0  0  0  0
   -0.2391    1.3802    1.1970 C   0  0  1  0  0  3  0  0  0  0  0  0
    0.8016    2.0866    0.4710 C   0  0  0  0  0  0  0  0  0  0  0  0
    0.2741    2.5987   -0.7495 C   0  0  0  0  0  0  0  0  0  0  0  0
   -1.1387    2.3622   -0.7550 C   0  0  0  0  0  0  0  0  0  0  0  0
   -1.4657    1.5942    0.4388 C   0  0  0  0  0  0  0  0  0  0  0  0
   -2.8203    1.1932    0.6446 C   0  0  0  0  0  0  0  0  0  0  0  0
   -3.7930    1.5921   -0.2623 C   0  0  0  0  0  0  0  0  0  0  0  0
   -3.4680    2.3820   -1.4019 C   0  0  0  0  0  0  0  0  0  0  0  0
   -2.1595    2.7622   -1.6591 C   0  0  0  0  0  0  0  0  0  0  0  0
    2.2646    2.9646    2.1750 C   0  0  0  0  0  0  0  0  0  0  0  0
    3.1280    2.5762   -0.0571 C   0  0  0  0  0  0  0  0  0  0  0  0
   -1.4929   -0.1286    3.6214 C   0  0  0  0  0  0  0  0  0  0  0  0
    0.8312    3.1489   -1.5139 H   0  0  0  0  0  0  0  0  0  0  0  0
   -3.0928    0.5907    1.5191 H   0  0  0  0  0  0  0  0  0  0  0  0
   -4.8390    1.2934   -0.0971 H   0  0  0  0  0  0  0  0  0  0  0  0
   -4.2694    2.6840   -2.0925 H   0  0  0  0  0  0  0  0  0  0  0  0
   -1.9017    3.3523   -2.5504 H   0  0  0  0  0  0  0  0  0  0  0  0
    1.4348    2.7301    2.8633 H   0  0  0  0  0  0  0  0  0  0  0  0
    3.2215    2.7044    2.6728 H   0  0  0  0  0  0  0  0  0  0  0  0
    2.2587    4.0684    1.9946 H   0  0  0  0  0  0  0  0  0  0  0  0
    3.0376    1.9221   -0.9451 H   0  0  0  0  0  0  0  0  0  0  0  0
    3.0542    3.6438   -0.3834 H   0  0  0  0  0  0  0  0  0  0  0  0
    4.1335    2.4291    0.3863 H   0  0  0  0  0  0  0  0  0  0  0  0
   -1.3003   -0.8655    4.4275 H   0  0  0  0  0  0  0  0  0  0  0  0
   -1.6377    0.8629    4.0989 H   0  0  0  0  0  0  0  0  0  0  0  0
   -2.4331   -0.4080    3.1150 H   0  0  0  0  0  0  0  0  0  0  0  0
    0.2392   -1.3799    1.1975 C   0  0  1  0  0  3  0  0  0  0  0  0
   -0.8016   -2.0864    0.4718 C   0  0  0  0  0  0  0  0  0  0  0  0
   -2.1202   -2.2189    0.9286 N   0  0  0  0  0  0  0  0  0  0  0  0
   -2.2647   -2.9637    2.1760 C   0  0  0  0  0  0  0  0  0  0  0  0
   -1.4349   -2.7291    2.8643 H   0  0  0  0  0  0  0  0  0  0  0  0
   -3.2216   -2.7032    2.6737 H   0  0  0  0  0  0  0  0  0  0  0  0
   -2.2589   -4.0676    1.9959 H   0  0  0  0  0  0  0  0  0  0  0  0
   -3.1280   -2.5758   -0.0563 C   0  0  0  0  0  0  0  0  0  0  0  0
   -3.0374   -1.9221   -0.9445 H   0  0  0  0  0  0  0  0  0  0  0  0
   -3.0543   -3.6436   -0.3823 H   0  0  0  0  0  0  0  0  0  0  0  0
   -4.1334   -2.4285    0.3870 H   0  0  0  0  0  0  0  0  0  0  0  0
    1.4657   -1.5941    0.4392 C   0  0  0  0  0  0  0  0  0  0  0  0
   -0.2741   -2.5990   -0.7486 C   0  0  0  0  0  0  0  0  0  0  0  0
    1.1386   -2.3625   -0.7542 C   0  0  0  0  0  0  0  0  0  0  0  0
    2.8203   -1.1931    0.6449 C   0  0  0  0  0  0  0  0  0  0  0  0
    3.7930   -1.5923   -0.2620 C   0  0  0  0  0  0  0  0  0  0  0  0
    3.4679   -2.3826   -1.4013 C   0  0  0  0  0  0  0  0  0  0  0  0
    2.1594   -2.7628   -1.6583 C   0  0  0  0  0  0  0  0  0  0  0  0
    1.9015   -3.3532   -2.5494 H   0  0  0  0  0  0  0  0  0  0  0  0
    4.2693   -2.6849   -2.0918 H   0  0  0  0  0  0  0  0  0  0  0  0
    4.8391   -1.2936   -0.0969 H   0  0  0  0  0  0  0  0  0  0  0  0
    3.0929   -0.5903    1.5192 H   0  0  0  0  0  0  0  0  0  0  0  0
   -0.8313   -3.1494   -1.5129 H   0  0  0  0  0  0  0  0  0  0  0  0
    1.4932    0.1297    3.6213 C   0  0  0  0  0  0  0  0  0  0  0  0
    1.3006    0.8668    4.4271 H   0  0  0  0  0  0  0  0  0  0  0  0
    1.6380   -0.8616    4.0991 H   0  0  0  0  0  0  0  0  0  0  0  0
    2.4333    0.4090    3.1147 H   0  0  0  0  0  0  0  0  0  0  0  0
  1 12  1  0  0  0  0
  2 52  1  0  0  0  0
  2 14  1  0  0  0  0
  3  2  1  6  0  0  0
  4  1  1  0  0  0  0
  4  3  1  0  0  0  0
  5  4  2  0  0  0  0
  6  5  1  0  0  0  0
  6  7  1  0  0  0  0
  7  8  2  0  0  0  0
  7  3  1  0  0  0  0
  8 16  1  0  0  0  0
  9 17  1  0  0  0  0
  9  8  1  0  0  0  0
 10  9  2  0  0  0  0
 11 10  1  0  0  0  0
 11  6  2  0  0  0  0
 12 21  1  0  0  0  0
 12 20  1  0  0  0  0
 13 25  1  0  0  0  0
 13  1  1  0  0  0  0
 14 27  1  0  0  0  0
 14 26  1  0  0  0  0
 15  5  1  0  0  0  0
 18 10  1  0  0  0  0
 19 11  1  0  0  0  0
 22 12  1  0  0  0  0
 23 13  1  0  0  0  0
 24 13  1  0  0  0  0
 28 14  1  0  0  0  0
 29  2  1  6  0  0  0
 30 31  1  0  0  0  0
 30 29  1  0  0  0  0
 31 32  1  0  0  0  0
 32 34  1  0  0  0  0
 32 33  1  0  0  0  0
 35 32  1  0  0  0  0
 36 39  1  0  0  0  0
 36 31  1  0  0  0  0
 37 36  1  0  0  0  0
 38 36  1  0  0  0  0
 40 43  1  0  0  0  0
 40 29  1  0  0  0  0
 41 30  2  0  0  0  0
 42 41  1  0  0  0  0
 42 40  2  0  0  0  0
 43 50  1  0  0  0  0
 44 49  1  0  0  0  0
 44 43  2  0  0  0  0
 45 44  1  0  0  0  0
 46 45  2  0  0  0  0
 46 42  1  0  0  0  0
 47 46  1  0  0  0  0
 48 45  1  0  0  0  0
 51 41  1  0  0  0  0
 52 54  1  0  0  0  0
 52 53  1  0  0  0  0
 55 52  1  0  0  0  0
M  END
