16
 OpenBabel05122313053D

 52 55  0  0  1  0  0  0  0  0999 V2000
   -1.4244    2.4507    1.3367 N   0  0  0  0  0  0  0  0  0  0  0  0
    1.4243   -2.4509    1.3366 N   0  0  0  0  0  0  0  0  0  0  0  0
    0.6416    0.4225    2.7124 C   0  0  0  0  0  0  0  0  0  0  0  0
   -0.6417   -0.4227    2.7124 C   0  0  0  0  0  0  0  0  0  0  0  0
    0.7709    1.1771    1.4147 C   0  0  1  0  0  3  0  0  0  0  0  0
   -0.1714    2.1075    0.8184 C   0  0  0  0  0  0  0  0  0  0  0  0
    0.3534    2.5394   -0.4382 C   0  0  0  0  0  0  0  0  0  0  0  0
    1.6770    2.0072   -0.5845 C   0  0  0  0  0  0  0  0  0  0  0  0
    1.9430    1.1657    0.5682 C   0  0  0  0  0  0  0  0  0  0  0  0
    3.1973    0.4997    0.6805 C   0  0  0  0  0  0  0  0  0  0  0  0
    4.1504    0.6964   -0.3090 C   0  0  0  0  0  0  0  0  0  0  0  0
    3.8931    1.5393   -1.4302 C   0  0  0  0  0  0  0  0  0  0  0  0
    2.6759    2.1872   -1.5803 C   0  0  0  0  0  0  0  0  0  0  0  0
   -1.4724    2.9594    2.6998 C   0  0  0  0  0  0  0  0  0  0  0  0
   -2.3515    3.1236    0.4414 C   0  0  0  0  0  0  0  0  0  0  0  0
   -0.7709   -1.1772    1.4146 C   0  0  1  0  0  3  0  0  0  0  0  0
    0.1713   -2.1076    0.8182 C   0  0  0  0  0  0  0  0  0  0  0  0
   -0.3535   -2.5394   -0.4384 C   0  0  0  0  0  0  0  0  0  0  0  0
   -1.6770   -2.0071   -0.5847 C   0  0  0  0  0  0  0  0  0  0  0  0
   -1.9430   -1.1657    0.5681 C   0  0  0  0  0  0  0  0  0  0  0  0
   -3.1973   -0.4997    0.6804 C   0  0  0  0  0  0  0  0  0  0  0  0
   -4.1504   -0.6962   -0.3091 C   0  0  0  0  0  0  0  0  0  0  0  0
   -3.8931   -1.5390   -1.4304 C   0  0  0  0  0  0  0  0  0  0  0  0
   -2.6759   -2.1870   -1.5805 C   0  0  0  0  0  0  0  0  0  0  0  0
    2.3514   -3.1239    0.4413 C   0  0  0  0  0  0  0  0  0  0  0  0
    1.4723   -2.9595    2.6997 C   0  0  0  0  0  0  0  0  0  0  0  0
    0.6793    1.0976    3.5963 H   0  0  0  0  0  0  0  0  0  0  0  0
    1.5232   -0.2404    2.8077 H   0  0  0  0  0  0  0  0  0  0  0  0
   -0.6794   -1.0979    3.5962 H   0  0  0  0  0  0  0  0  0  0  0  0
   -1.5232    0.2402    2.8077 H   0  0  0  0  0  0  0  0  0  0  0  0
   -0.1416    3.2125   -1.1435 H   0  0  0  0  0  0  0  0  0  0  0  0
    3.4036   -0.1510    1.5427 H   0  0  0  0  0  0  0  0  0  0  0  0
    5.1255    0.1923   -0.2313 H   0  0  0  0  0  0  0  0  0  0  0  0
    4.6759    1.6694   -2.1922 H   0  0  0  0  0  0  0  0  0  0  0  0
    2.4733    2.8245   -2.4533 H   0  0  0  0  0  0  0  0  0  0  0  0
   -2.5008    2.8558    3.1030 H   0  0  0  0  0  0  0  0  0  0  0  0
   -1.1904    4.0399    2.7535 H   0  0  0  0  0  0  0  0  0  0  0  0
   -0.7864    2.4026    3.3613 H   0  0  0  0  0  0  0  0  0  0  0  0
   -2.0690    4.1882    0.2491 H   0  0  0  0  0  0  0  0  0  0  0  0
   -3.3607    3.1178    0.8996 H   0  0  0  0  0  0  0  0  0  0  0  0
   -2.4074    2.5847   -0.5240 H   0  0  0  0  0  0  0  0  0  0  0  0
    0.1415   -3.2124   -1.1437 H   0  0  0  0  0  0  0  0  0  0  0  0
   -3.4036    0.1511    1.5426 H   0  0  0  0  0  0  0  0  0  0  0  0
   -5.1254   -0.1921   -0.2313 H   0  0  0  0  0  0  0  0  0  0  0  0
   -4.6759   -1.6690   -2.1924 H   0  0  0  0  0  0  0  0  0  0  0  0
   -2.4734   -2.8243   -2.4535 H   0  0  0  0  0  0  0  0  0  0  0  0
    2.0688   -4.1884    0.2490 H   0  0  0  0  0  0  0  0  0  0  0  0
    3.3606   -3.1182    0.8996 H   0  0  0  0  0  0  0  0  0  0  0  0
    2.4073   -2.5851   -0.5241 H   0  0  0  0  0  0  0  0  0  0  0  0
    0.7863   -2.4025    3.3612 H   0  0  0  0  0  0  0  0  0  0  0  0
    2.5007   -2.8559    3.1030 H   0  0  0  0  0  0  0  0  0  0  0  0
    1.1902   -4.0399    2.7535 H   0  0  0  0  0  0  0  0  0  0  0  0
  1 14  1  0  0  0  0
  2 26  1  0  0  0  0
  3 28  1  0  0  0  0
  3 27  1  0  0  0  0
  4  3  1  0  0  0  0
  4 30  1  0  0  0  0
  4 29  1  0  0  0  0
  5  3  1  1  0  0  0
  6  1  1  0  0  0  0
  6  5  1  0  0  0  0
  7  6  2  0  0  0  0
  8  7  1  0  0  0  0
  8  9  1  0  0  0  0
  9 10  2  0  0  0  0
  9  5  1  0  0  0  0
 10 32  1  0  0  0  0
 11 33  1  0  0  0  0
 11 10  1  0  0  0  0
 12 11  2  0  0  0  0
 13 12  1  0  0  0  0
 13  8  2  0  0  0  0
 14 37  1  0  0  0  0
 14 36  1  0  0  0  0
 14 38  1  0  0  0  0
 15 40  1  0  0  0  0
 15  1  1  0  0  0  0
 16  4  1  1  0  0  0
 17  2  1  0  0  0  0
 17 16  1  0  0  0  0
 18 17  2  0  0  0  0
 19 18  1  0  0  0  0
 19 20  1  0  0  0  0
 20 21  2  0  0  0  0
 20 16  1  0  0  0  0
 21 43  1  0  0  0  0
 22 44  1  0  0  0  0
 22 21  1  0  0  0  0
 23 22  2  0  0  0  0
 24 23  1  0  0  0  0
 24 19  2  0  0  0  0
 25 48  1  0  0  0  0
 25  2  1  0  0  0  0
 26 52  1  0  0  0  0
 26 51  1  0  0  0  0
 26 50  1  0  0  0  0
 31  7  1  0  0  0  0
 34 12  1  0  0  0  0
 35 13  1  0  0  0  0
 39 15  1  0  0  0  0
 41 15  1  0  0  0  0
 42 18  1  0  0  0  0
 45 23  1  0  0  0  0
 46 24  1  0  0  0  0
 47 25  1  0  0  0  0
 49 25  1  0  0  0  0
M  END
