9,12
 OpenBabel05122313053D

 28 29  0  0  1  0  0  0  0  0999 V2000
   -1.5491   -2.2942    0.3246 C   0  0  0  0  0  0  0  0  0  0  0  0
   -3.0227   -1.9468   -0.0469 C   0  0  0  0  0  0  0  0  0  0  0  0
   -3.6411   -0.6296    0.5053 C   0  0  0  0  0  0  0  0  0  0  0  0
   -3.4686    0.7122   -0.2931 C   0  0  0  0  0  0  0  0  0  0  0  0
   -2.8789    1.9375    0.4822 C   0  0  0  0  0  0  0  0  0  0  0  0
   -1.4513    2.4316    0.0728 C   0  0  0  0  0  0  0  0  0  0  0  0
   -0.6101    1.2551   -0.3541 C   0  0  2  0  0  3  0  0  0  0  0  0
    0.1303    1.1631   -1.5609 C   0  0  0  0  0  3  0  0  0  0  0  0
    0.5167   -0.1024   -2.0938 C   0  0  0  0  0  3  0  0  0  0  0  0
    0.0793   -1.2878   -1.4368 C   0  0  0  0  0  3  0  0  0  0  0  0
   -0.6580   -1.2189   -0.2241 C   0  0  1  0  0  3  0  0  0  0  0  0
   -0.7938    0.0556    0.3864 C   0  0  0  0  0  3  0  0  0  0  0  0
   -1.2894   -3.2914   -0.0852 H   0  0  0  0  0  0  0  0  0  0  0  0
   -1.4498   -2.3549    1.4291 H   0  0  0  0  0  0  0  0  0  0  0  0
   -3.6491   -2.7898    0.3141 H   0  0  0  0  0  0  0  0  0  0  0  0
   -3.1200   -1.9551   -1.1548 H   0  0  0  0  0  0  0  0  0  0  0  0
   -3.3118   -0.4880    1.5582 H   0  0  0  0  0  0  0  0  0  0  0  0
   -4.7307   -0.8208    0.5888 H   0  0  0  0  0  0  0  0  0  0  0  0
   -4.4723    1.0043   -0.6624 H   0  0  0  0  0  0  0  0  0  0  0  0
   -2.8753    0.5262   -1.2122 H   0  0  0  0  0  0  0  0  0  0  0  0
   -3.5667    2.8023    0.3880 H   0  0  0  0  0  0  0  0  0  0  0  0
   -2.8770    1.6982    1.5673 H   0  0  0  0  0  0  0  0  0  0  0  0
   -1.0006    2.9876    0.9215 H   0  0  0  0  0  0  0  0  0  0  0  0
   -1.5138    3.1476   -0.7720 H   0  0  0  0  0  0  0  0  0  0  0  0
    0.3901    2.0844   -2.1043 H   0  0  0  0  0  0  0  0  0  0  0  0
    1.1145   -0.1608   -3.0123 H   0  0  0  0  0  0  0  0  0  0  0  0
    0.3057   -2.2715   -1.8753 H   0  0  0  0  0  0  0  0  0  0  0  0
   -1.2846    0.1122    1.3647 H   0  0  0  0  0  0  0  0  0  0  0  0
  1 14  1  0  0  0  0
  2 15  1  0  0  0  0
  2  1  1  0  0  0  0
  2  3  1  0  0  0  0
  3 18  1  0  0  0  0
  3 17  1  0  0  0  0
  4  5  1  0  0  0  0
  4  3  1  0  0  0  0
  5 22  1  0  0  0  0
  6  5  1  0  0  0  0
  6 23  1  0  0  0  0
  7  8  1  6  0  0  0
  7  6  1  0  0  0  0
  7 12  1  0  0  0  0
  9  8  1  0  0  0  0
  9 10  1  0  0  0  0
 11 10  1  6  0  0  0
 11  1  1  0  0  0  0
 11 12  1  0  0  0  0
 12 28  1  0  0  0  0
 13  1  1  0  0  0  0
 16  2  1  0  0  0  0
 19  4  1  0  0  0  0
 20  4  1  0  0  0  0
 21  5  1  0  0  0  0
 24  6  1  0  0  0  0
 25  8  1  0  0  0  0
 26  9  1  0  0  0  0
 27 10  1  0  0  0  0
M  END
