2,16
q = 0.0, confidence = 0.698

 28 29  0  0  0  0  0  0  0  0999 V2000
    4.6740   -3.6675    0.1301 O   0  0  0  0  0  0  0  0  0  0  0  0
    1.2156   -1.3292    0.0479 C   0  0  0  0  0  2  0  0  0  0  0  0
    1.0811   -2.7159    0.0971 C   0  0  0  0  0  0  0  0  0  0  0  0
    0.0840   -3.1838    0.1142 H   0  0  0  0  0  0  0  0  0  0  0  0
    2.2233   -3.5442    0.1262 C   0  0  0  0  0  0  0  0  0  0  0  0
    2.0946   -4.6341    0.1652 H   0  0  0  0  0  0  0  0  0  0  0  0
    3.5064   -2.9616    0.1051 C   0  0  0  0  0  0  0  0  0  0  0  0
    3.6430   -1.5575    0.0551 C   0  0  0  0  0  0  0  0  0  0  0  0
    4.6597   -1.1382    0.0395 H   0  0  0  0  0  0  0  0  0  0  0  0
    2.5092   -0.7357    0.0263 C   0  0  0  0  0  0  0  0  0  0  0  0
    4.6023   -5.0774    0.1789 C   0  0  0  0  0  0  0  0  0  0  0  0
    4.0827   -5.4376    1.0960 H   0  0  0  0  0  0  0  0  0  0  0  0
    5.6452   -5.4455    0.1906 H   0  0  0  0  0  0  0  0  0  0  0  0
    4.0809   -5.5000   -0.7101 H   0  0  0  0  0  0  0  0  0  0  0  0
    4.6742    3.6673   -0.1301 O   0  0  0  0  0  0  0  0  0  0  0  0
    1.2156    1.3292   -0.0479 C   0  0  0  0  0  2  0  0  0  0  0  0
    1.0812    2.7159   -0.0971 C   0  0  0  0  0  0  0  0  0  0  0  0
    0.0841    3.1839   -0.1142 H   0  0  0  0  0  0  0  0  0  0  0  0
    2.2235    3.5441   -0.1262 C   0  0  0  0  0  0  0  0  0  0  0  0
    2.0948    4.6340   -0.1652 H   0  0  0  0  0  0  0  0  0  0  0  0
    3.5065    2.9615   -0.1051 C   0  0  0  0  0  0  0  0  0  0  0  0
    3.6430    1.5573   -0.0551 C   0  0  0  0  0  0  0  0  0  0  0  0
    4.6598    1.1380   -0.0396 H   0  0  0  0  0  0  0  0  0  0  0  0
    2.5092    0.7356   -0.0263 C   0  0  0  0  0  0  0  0  0  0  0  0
    4.6025    5.0772   -0.1789 C   0  0  0  0  0  0  0  0  0  0  0  0
    4.0830    5.4375   -1.0960 H   0  0  0  0  0  0  0  0  0  0  0  0
    5.6455    5.4453   -0.1906 H   0  0  0  0  0  0  0  0  0  0  0  0
    4.0812    5.4999    0.7101 H   0  0  0  0  0  0  0  0  0  0  0  0
  1 11  1  0  0  0  0
  2  3  1  0  0  0  0
  3  4  1  0  0  0  0
  3  5  2  0  0  0  0
  5  6  1  0  0  0  0
  7  5  1  0  0  0  0
  7  1  1  0  0  0  0
  8  7  2  0  0  0  0
  9  8  1  0  0  0  0
 10  2  1  0  0  0  0
 10  8  1  0  0  0  0
 11 13  1  0  0  0  0
 11 12  1  0  0  0  0
 14 11  1  0  0  0  0
 15 21  1  0  0  0  0
 16 24  1  0  0  0  0
 17 16  1  0  0  0  0
 18 17  1  0  0  0  0
 19 21  1  0  0  0  0
 19 17  2  0  0  0  0
 20 19  1  0  0  0  0
 21 22  2  0  0  0  0
 22 23  1  0  0  0  0
 22 24  1  0  0  0  0
 24 10  2  0  0  0  0
 25 15  1  0  0  0  0
 25 28  1  0  0  0  0
 26 25  1  0  0  0  0
 27 25  1  0  0  0  0
M  END
