4,17
q = -2.0, confidence = 0.554

 26 27  0  0  0  0  0  0  0  0999 V2000
   -5.2159   -3.2220   -0.6334 F   0  0  0  0  0  0  0  0  0  0  0  0
   -3.9423   -4.9947   -0.7703 F   0  0  0  0  0  0  0  0  0  0  0  0
   -4.4748   -4.1793    1.1792 F   0  0  0  0  0  0  0  0  0  0  0  0
   -0.6320   -1.3329   -0.0531 C   0  0  0  0  0  2  0  0  0  0  0  0
   -0.4893   -2.7217   -0.1141 C   0  0  0  0  0  0  0  0  0  0  0  0
    0.5094   -3.1848   -0.1400 H   0  0  0  0  0  0  0  0  0  0  0  0
   -1.6333   -3.5394   -0.1477 C   0  0  0  0  0  0  0  0  0  0  0  0
   -1.5323   -4.6329   -0.2039 H   0  0  0  0  0  0  0  0  0  0  0  0
   -2.9118   -2.9568   -0.1192 C   0  0  0  0  0  0  0  0  0  0  0  0
   -3.0574   -1.5603   -0.0622 C   0  0  0  0  0  0  0  0  0  0  0  0
   -4.0666   -1.1233   -0.0546 H   0  0  0  0  0  0  0  0  0  0  0  0
   -1.9209   -0.7353   -0.0280 C   0  0  0  0  0  0  0  0  0  0  0  0
   -4.1371   -3.8380   -0.0913 C   0  0  0  0  0  0  0  0  0  0  0  0
   -5.2159    3.2220    0.6336 F   0  0  0  0  0  0  0  0  0  0  0  0
   -3.9423    4.9948    0.7702 F   0  0  0  0  0  0  0  0  0  0  0  0
   -4.4750    4.1791   -1.1792 F   0  0  0  0  0  0  0  0  0  0  0  0
   -0.6320    1.3329    0.0531 C   0  0  0  0  0  2  0  0  0  0  0  0
   -0.4893    2.7217    0.1141 C   0  0  0  0  0  0  0  0  0  0  0  0
    0.5094    3.1849    0.1400 H   0  0  0  0  0  0  0  0  0  0  0  0
   -1.6334    3.5394    0.1477 C   0  0  0  0  0  0  0  0  0  0  0  0
   -1.5324    4.6329    0.2039 H   0  0  0  0  0  0  0  0  0  0  0  0
   -2.9118    2.9567    0.1192 C   0  0  0  0  0  0  0  0  0  0  0  0
   -3.0574    1.5603    0.0622 C   0  0  0  0  0  0  0  0  0  0  0  0
   -4.0666    1.1233    0.0546 H   0  0  0  0  0  0  0  0  0  0  0  0
   -1.9209    0.7353    0.0280 C   0  0  0  0  0  0  0  0  0  0  0  0
   -4.1372    3.8380    0.0913 C   0  0  0  0  0  0  0  0  0  0  0  0
  1 13  1  0  0  0  0
  2 13  1  0  0  0  0
  4 12  1  0  0  0  0
  5  4  1  0  0  0  0
  6  5  1  0  0  0  0
  7  9  1  0  0  0  0
  7  5  2  0  0  0  0
  8  7  1  0  0  0  0
  9 13  1  0  0  0  0
  9 10  2  0  0  0  0
 10 11  1  0  0  0  0
 10 12  1  0  0  0  0
 12 25  2  0  0  0  0
 13  3  1  0  0  0  0
 16 26  1  0  0  0  0
 17 18  1  0  0  0  0
 18 19  1  0  0  0  0
 18 20  2  0  0  0  0
 20 21  1  0  0  0  0
 22 20  1  0  0  0  0
 23 22  2  0  0  0  0
 24 23  1  0  0  0  0
 25 17  1  0  0  0  0
 25 23  1  0  0  0  0
 26 22  1  0  0  0  0
 26 14  1  0  0  0  0
 26 15  1  0  0  0  0
M  END
