3,5
 OpenBabel05122313053D

 32 34  0  0  1  0  0  0  0  0999 V2000
   -1.1914   -1.5550   -0.0785 C   0  0  0  0  0  0  0  0  0  0  0  0
   -2.5008   -1.8046   -0.5882 C   0  0  0  0  0  0  0  0  0  0  0  0
   -2.9914   -1.0255   -1.6753 C   0  0  0  0  0  3  0  0  0  0  0  0
   -2.1831   -0.0299   -2.2883 C   0  0  0  0  0  3  0  0  0  0  0  0
   -0.9055    0.2478   -1.7368 C   0  0  0  0  0  3  0  0  0  0  0  0
   -0.3992   -0.4935   -0.6293 C   0  0  1  0  0  3  0  0  0  0  0  0
   -0.6311   -2.2359    0.9440 O   0  0  0  0  0  0  0  0  0  0  0  0
   -1.4396   -3.1236    1.7089 C   0  0  0  0  0  0  0  0  0  0  0  0
    0.9401   -0.1589   -0.0389 C   0  0  1  0  0  0  0  0  0  0  0  0
    2.2152   -1.2470   -0.8744 S   0  0  0  0  0  0  0  0  0  0  0  0
    3.6670   -0.3930   -0.3053 C   0  0  0  0  0  0  0  0  0  0  0  0
    3.6242    0.8945    0.2807 C   0  0  0  0  0  0  0  0  0  0  0  0
    2.3289    1.6494    0.5139 C   0  0  0  0  0  0  0  0  0  0  0  0
    1.2288    1.1888   -0.2531 O   0  0  0  0  0  0  0  0  0  0  0  0
    4.8333    1.4909    0.6865 C   0  0  0  0  0  0  0  0  0  0  0  0
    6.0651    0.8487    0.5110 C   0  0  0  0  0  0  0  0  0  0  0  0
    6.0994   -0.4223   -0.0868 C   0  0  0  0  0  0  0  0  0  0  0  0
    4.9100   -1.0385   -0.4886 C   0  0  0  0  0  0  0  0  0  0  0  0
   -3.1471   -2.5598   -0.1269 H   0  0  0  0  0  0  0  0  0  0  0  0
   -4.0146   -1.2004   -2.0366 H   0  0  0  0  0  0  0  0  0  0  0  0
   -2.5775    0.5795   -3.1115 H   0  0  0  0  0  0  0  0  0  0  0  0
   -0.2881    1.0688   -2.1251 H   0  0  0  0  0  0  0  0  0  0  0  0
   -0.7875   -3.5147    2.5102 H   0  0  0  0  0  0  0  0  0  0  0  0
   -1.8062   -3.9730    1.0936 H   0  0  0  0  0  0  0  0  0  0  0  0
   -2.2991   -2.5888    2.1652 H   0  0  0  0  0  0  0  0  0  0  0  0
    0.9592   -0.4192    1.0423 H   0  0  0  0  0  0  0  0  0  0  0  0
    2.0668    1.6209    1.6011 H   0  0  0  0  0  0  0  0  0  0  0  0
    2.4564    2.7151    0.2386 H   0  0  0  0  0  0  0  0  0  0  0  0
    4.8007    2.4935    1.1441 H   0  0  0  0  0  0  0  0  0  0  0  0
    6.9953    1.3402    0.8322 H   0  0  0  0  0  0  0  0  0  0  0  0
    7.0584   -0.9408   -0.2373 H   0  0  0  0  0  0  0  0  0  0  0  0
    4.9300   -2.0392   -0.9472 H   0  0  0  0  0  0  0  0  0  0  0  0
  1  7  1  0  0  0  0
  2 19  1  0  0  0  0
  2  1  2  0  0  0  0
  3  2  1  0  0  0  0
  4  5  1  0  0  0  0
  4  3  1  0  0  0  0
  6  5  1  1  0  0  0
  6  1  1  0  0  0  0
  6  9  1  0  0  0  0
  7  8  1  0  0  0  0
  8 25  1  0  0  0  0
  8 23  1  0  0  0  0
  9 26  1  1  0  0  0
 10 11  1  0  0  0  0
 10  9  1  0  0  0  0
 11 12  1  0  0  0  0
 12 13  1  0  0  0  0
 12 15  2  0  0  0  0
 13 27  1  0  0  0  0
 14  9  1  0  0  0  0
 14 13  1  0  0  0  0
 15 29  1  0  0  0  0
 16 15  1  0  0  0  0
 16 30  1  0  0  0  0
 17 16  2  0  0  0  0
 18 11  2  0  0  0  0
 18 17  1  0  0  0  0
 20  3  1  0  0  0  0
 21  4  1  0  0  0  0
 22  5  1  0  0  0  0
 24  8  1  0  0  0  0
 28 13  1  0  0  0  0
 31 17  1  0  0  0  0
 32 18  1  0  0  0  0
M  END
