6,12
 OpenBabel05122313053D

 35 37  0  0  1  0  0  0  0  0999 V2000
    0.4512    2.3427    1.4227 O   0  0  0  0  0  0  0  0  0  0  0  0
    1.8698   -0.5533    0.4624 C   0  0  1  0  0  0  0  0  0  0  0  0
    0.4954   -0.9673    1.0524 C   0  0  1  0  0  3  0  0  0  0  0  0
   -0.1853   -1.8378    0.1826 C   0  0  1  0  0  3  0  0  0  0  0  0
    0.5293   -1.8468   -1.1732 C   0  0  1  0  0  0  0  0  0  0  0  0
   -0.2368   -0.7904   -1.9412 C   0  0  0  0  0  3  0  0  0  0  0  0
    0.2327    0.5225   -1.9543 C   0  0  0  0  0  3  0  0  0  0  0  0
    1.6710    0.8385   -1.5494 C   0  0  2  0  0  0  0  0  0  0  0  0
    2.5285   -0.3946   -1.8891 C   0  0  0  0  0  0  0  0  0  0  0  0
    1.9794   -1.3845   -0.8612 C   0  0  1  0  0  0  0  0  0  0  0  0
    1.8295    0.9644   -0.0111 C   0  0  1  0  0  0  0  0  0  0  0  0
    0.5007    1.4633    0.5945 C   0  0  0  0  0  3  0  0  0  0  0  0
    3.0084    1.8480    0.3884 C   0  0  0  0  0  0  0  0  0  0  0  0
    3.0237   -0.8598    1.4214 C   0  0  0  0  0  0  0  0  0  0  0  0
    0.3065   -0.9664    2.5486 C   0  0  0  0  0  0  0  0  0  0  0  0
   -1.1231   -2.9430    0.5731 C   0  0  0  0  0  0  0  0  0  0  0  0
    0.4876   -2.8332   -1.6772 H   0  0  0  0  0  0  0  0  0  0  0  0
   -1.0442   -1.1069   -2.6171 H   0  0  0  0  0  0  0  0  0  0  0  0
   -0.2515    1.2280   -2.6470 H   0  0  0  0  0  0  0  0  0  0  0  0
    1.9950    1.7683   -2.0560 H   0  0  0  0  0  0  0  0  0  0  0  0
    3.6048   -0.1950   -1.7105 H   0  0  0  0  0  0  0  0  0  0  0  0
    2.4116   -0.7274   -2.9406 H   0  0  0  0  0  0  0  0  0  0  0  0
    2.6213   -2.2767   -0.7178 H   0  0  0  0  0  0  0  0  0  0  0  0
    2.8507    2.8756    0.0059 H   0  0  0  0  0  0  0  0  0  0  0  0
    3.1023    1.9255    1.4873 H   0  0  0  0  0  0  0  0  0  0  0  0
    3.9665    1.4720   -0.0223 H   0  0  0  0  0  0  0  0  0  0  0  0
    2.9962   -1.9232    1.7339 H   0  0  0  0  0  0  0  0  0  0  0  0
    4.0000   -0.6831    0.9284 H   0  0  0  0  0  0  0  0  0  0  0  0
    2.9934   -0.2357    2.3348 H   0  0  0  0  0  0  0  0  0  0  0  0
    1.0156   -1.6789    3.0206 H   0  0  0  0  0  0  0  0  0  0  0  0
    0.4957    0.0324    2.9885 H   0  0  0  0  0  0  0  0  0  0  0  0
   -0.7124   -1.2749    2.8437 H   0  0  0  0  0  0  0  0  0  0  0  0
   -0.5356   -3.8653    0.7844 H   0  0  0  0  0  0  0  0  0  0  0  0
   -1.7063   -2.6970    1.4807 H   0  0  0  0  0  0  0  0  0  0  0  0
   -1.8425   -3.1893   -0.2315 H   0  0  0  0  0  0  0  0  0  0  0  0
  2  3  1  0  0  0  0
  2 14  1  1  0  0  0
  3 15  1  1  0  0  0
  4 16  1  1  0  0  0
  4  3  1  0  0  0  0
  5 17  1  6  0  0  0
  5 10  1  0  0  0  0
  5  4  1  0  0  0  0
  6  5  1  0  0  0  0
  7  6  1  0  0  0  0
  7  8  1  0  0  0  0
  8 20  1  6  0  0  0
  8 11  1  0  0  0  0
  9 21  1  0  0  0  0
  9  8  1  0  0  0  0
  9 10  1  0  0  0  0
 10 23  1  1  0  0  0
 10  2  1  0  0  0  0
 11 13  1  0  0  0  0
 11  2  1  0  0  0  0
 11 12  1  1  0  0  0
 12  1  2  0  0  0  0
 13 25  1  0  0  0  0
 14 27  1  0  0  0  0
 14 29  1  0  0  0  0
 15 32  1  0  0  0  0
 15 31  1  0  0  0  0
 15 30  1  0  0  0  0
 16 33  1  0  0  0  0
 16 34  1  0  0  0  0
 18  6  1  0  0  0  0
 19  7  1  0  0  0  0
 22  9  1  0  0  0  0
 24 13  1  0  0  0  0
 26 13  1  0  0  0  0
 28 14  1  0  0  0  0
 35 16  1  0  0  0  0
M  END
