3,12
 OpenBabel05122313053D

 26 25  0  0  0  0  0  0  0  0999 V2000
   -2.4082   -1.8165    0.0754 C   0  0  0  0  0  0  0  0  0  0  0  0
   -3.0689   -2.6919    0.1709 H   0  0  0  0  0  0  0  0  0  0  0  0
   -1.0386   -1.9226    0.0349 C   0  0  0  0  0  3  0  0  0  0  0  0
   -0.4284   -3.2531    0.2432 C   0  0  0  0  0  0  0  0  0  0  0  0
   -0.9620   -4.3343    0.0252 O   0  0  0  0  0  0  0  0  0  0  0  0
    0.8406   -3.1386    0.7529 O   0  0  0  0  0  0  0  0  0  0  0  0
    1.5637   -4.3400    1.0026 C   0  0  0  0  0  0  0  0  0  0  0  0
    2.5460   -4.2590    0.4930 H   0  0  0  0  0  0  0  0  0  0  0  0
    0.9972   -5.2152    0.6271 H   0  0  0  0  0  0  0  0  0  0  0  0
    1.7308   -4.4440    2.0945 H   0  0  0  0  0  0  0  0  0  0  0  0
   -2.1874    1.9050    0.6950 C   0  0  0  0  0  0  0  0  0  0  0  0
   -1.9301    0.5208    0.2229 C   0  0  0  0  0  3  0  0  0  0  0  0
   -2.9136   -0.4566    0.2134 C   0  0  0  0  0  0  0  0  0  0  0  0
   -4.3201   -0.1549    0.5626 C   0  0  0  0  0  0  0  0  0  0  0  0
   -1.8093    2.3343    1.7743 O   0  0  0  0  0  0  0  0  0  0  0  0
   -2.8405    2.6672   -0.2215 O   0  0  0  0  0  0  0  0  0  0  0  0
   -3.2230    3.9688    0.2316 C   0  0  0  0  0  0  0  0  0  0  0  0
   -3.6087    4.5046   -0.6548 H   0  0  0  0  0  0  0  0  0  0  0  0
   -2.3610    4.5087    0.6724 H   0  0  0  0  0  0  0  0  0  0  0  0
   -4.0183    3.8773    0.9990 H   0  0  0  0  0  0  0  0  0  0  0  0
   -4.7414    0.8982    1.0239 O   0  0  0  0  0  0  0  0  0  0  0  0
   -5.1397   -1.2236    0.3261 O   0  0  0  0  0  0  0  0  0  0  0  0
   -6.5074   -1.0240    0.6813 C   0  0  0  0  0  0  0  0  0  0  0  0
   -7.0290   -1.9699    0.4476 H   0  0  0  0  0  0  0  0  0  0  0  0
   -6.9521   -0.1859    0.1057 H   0  0  0  0  0  0  0  0  0  0  0  0
   -6.6092   -0.7837    1.7597 H   0  0  0  0  0  0  0  0  0  0  0  0
  1  2  1  0  0  0  0
  1 13  1  0  0  0  0
  3  1  2  0  0  0  0
  3  4  1  0  0  0  0
  4  6  1  0  0  0  0
  5  4  2  0  0  0  0
  6  7  1  0  0  0  0
  7 10  1  0  0  0  0
  8  7  1  0  0  0  0
  9  7  1  0  0  0  0
 11 15  2  0  0  0  0
 12 11  1  0  0  0  0
 13 12  2  0  0  0  0
 13 14  1  0  0  0  0
 14 21  2  0  0  0  0
 16 17  1  0  0  0  0
 16 11  1  0  0  0  0
 17 19  1  0  0  0  0
 17 20  1  0  0  0  0
 18 17  1  0  0  0  0
 22 14  1  0  0  0  0
 22 23  1  0  0  0  0
 23 26  1  0  0  0  0
 24 23  1  0  0  0  0
 25 23  1  0  0  0  0
M  END
