6,9
 OpenBabel05122313053D

 38 38  0  0  1  0  0  0  0  0999 V2000
   -3.3923   -1.0784   -0.0906 N   0  0  0  0  0  0  0  0  0  0  0  0
   -2.7369    0.1589   -0.4207 B   0  0  0  0  0  0  0  0  0  0  0  0
   -2.1136    0.4412   -1.8178 C   0  0  0  0  0  0  0  0  0  0  0  0
   -2.0844   -0.3233   -2.6108 H   0  0  0  0  0  0  0  0  0  0  0  0
   -1.4553    1.6331   -2.1273 C   0  0  1  0  0  3  0  0  0  0  0  0
   -1.3184    2.6654   -1.1362 C   0  0  0  0  0  3  0  0  0  0  0  0
   -0.8501    3.6180   -1.4239 H   0  0  0  0  0  0  0  0  0  0  0  0
   -1.9107    2.5459    0.1525 C   0  0  2  0  0  3  0  0  0  0  0  0
   -2.4285    1.3041    0.5839 C   0  0  0  0  0  3  0  0  0  0  0  0
   -2.7551    1.2846    1.6367 H   0  0  0  0  0  0  0  0  0  0  0  0
   -0.7561    1.8385   -3.4522 C   0  0  0  0  0  0  0  0  0  0  0  0
   -0.9499    0.9997   -4.1462 H   0  0  0  0  0  0  0  0  0  0  0  0
    0.3449    1.9162   -3.3151 H   0  0  0  0  0  0  0  0  0  0  0  0
   -1.0841    2.7832   -3.9334 H   0  0  0  0  0  0  0  0  0  0  0  0
   -2.0036    3.7686    1.0319 C   0  0  0  0  0  0  0  0  0  0  0  0
   -2.9908    4.2508    0.8666 H   0  0  0  0  0  0  0  0  0  0  0  0
   -1.2289    4.5239    0.7960 H   0  0  0  0  0  0  0  0  0  0  0  0
   -1.9433    3.5155    2.1085 H   0  0  0  0  0  0  0  0  0  0  0  0
   -3.6609   -1.5259    1.2887 C   0  0  0  0  0  0  0  0  0  0  0  0
   -4.0433   -2.5648    1.2069 H   0  0  0  0  0  0  0  0  0  0  0  0
   -4.7722   -0.7221    1.9817 C   0  0  0  0  0  0  0  0  0  0  0  0
   -4.4906    0.3385    2.1264 H   0  0  0  0  0  0  0  0  0  0  0  0
   -5.0019   -1.1517    2.9786 H   0  0  0  0  0  0  0  0  0  0  0  0
   -5.6989   -0.7397    1.3756 H   0  0  0  0  0  0  0  0  0  0  0  0
   -2.3747   -1.6211    2.1249 C   0  0  0  0  0  0  0  0  0  0  0  0
   -1.6085   -2.2130    1.5862 H   0  0  0  0  0  0  0  0  0  0  0  0
   -2.5730   -2.1023    3.1047 H   0  0  0  0  0  0  0  0  0  0  0  0
   -1.9422   -0.6222    2.3267 H   0  0  0  0  0  0  0  0  0  0  0  0
   -3.7405   -2.0560   -1.1390 C   0  0  0  0  0  0  0  0  0  0  0  0
   -3.5131   -1.5602   -2.1015 H   0  0  0  0  0  0  0  0  0  0  0  0
   -2.8848   -3.3300   -1.0732 C   0  0  0  0  0  0  0  0  0  0  0  0
   -1.8080   -3.0731   -1.1086 H   0  0  0  0  0  0  0  0  0  0  0  0
   -3.1173   -3.9968   -1.9287 H   0  0  0  0  0  0  0  0  0  0  0  0
   -3.0784   -3.9095   -0.1461 H   0  0  0  0  0  0  0  0  0  0  0  0
   -5.2452   -2.3698   -1.1612 C   0  0  0  0  0  0  0  0  0  0  0  0
   -5.5750   -2.9023   -0.2449 H   0  0  0  0  0  0  0  0  0  0  0  0
   -5.4886   -3.0243   -2.0227 H   0  0  0  0  0  0  0  0  0  0  0  0
   -5.8415   -1.4399   -1.2516 H   0  0  0  0  0  0  0  0  0  0  0  0
  1 19  1  0  0  0  0
  2  1  1  0  0  0  0
  2  9  1  0  0  0  0
  3  2  2  0  0  0  0
  4  3  1  0  0  0  0
  5 11  1  1  0  0  0
  5  3  1  0  0  0  0
  5  6  1  0  0  0  0
  6  8  1  0  0  0  0
  7  6  1  0  0  0  0
  8  9  1  0  0  0  0
  8 15  1  6  0  0  0
  9 10  1  0  0  0  0
 11 13  1  0  0  0  0
 12 11  1  0  0  0  0
 14 11  1  0  0  0  0
 15 18  1  0  0  0  0
 16 15  1  0  0  0  0
 17 15  1  0  0  0  0
 19 21  1  0  0  0  0
 19 25  1  0  0  0  0
 20 19  1  0  0  0  0
 21 22  1  0  0  0  0
 21 23  1  0  0  0  0
 24 21  1  0  0  0  0
 25 28  1  0  0  0  0
 25 27  1  0  0  0  0
 26 25  1  0  0  0  0
 29 31  1  0  0  0  0
 29  1  1  0  0  0  0
 30 29  1  0  0  0  0
 31 34  1  0  0  0  0
 32 31  1  0  0  0  0
 33 31  1  0  0  0  0
 35 29  1  0  0  0  0
 35 36  1  0  0  0  0
 37 35  1  0  0  0  0
 38 35  1  0  0  0  0
M  END
