2,7
 OpenBabel05122313053D

 30 30  0  0  0  0  0  0  0  0999 V2000
    3.6373   -0.8160   -0.0866 Si  0  0  0  0  0  0  0  0  0  0  0  0
    1.8021   -0.7684   -0.3972 C   0  0  0  0  0  3  0  0  0  0  0  0
    0.8571   -1.4890   -0.8942 C   0  0  0  0  0  0  0  0  0  0  0  0
   -0.4156   -1.7770   -1.2819 C   0  0  0  0  0  0  0  0  0  0  0  0
   -1.4323   -2.5868   -0.5058 C   0  0  0  0  0  0  0  0  0  0  0  0
   -2.6472   -1.7033   -0.3080 C   0  0  0  0  0  0  0  0  0  0  0  0
   -2.3968   -0.3092   -0.1728 C   0  0  0  0  0  3  0  0  0  0  0  0
    3.9438   -1.6648    1.5795 C   0  0  0  0  0  0  0  0  0  0  0  0
    4.3245    0.9485   -0.0463 C   0  0  0  0  0  0  0  0  0  0  0  0
    4.4897   -1.7923   -1.4650 C   0  0  0  0  0  0  0  0  0  0  0  0
   -3.9519   -2.2307   -0.2539 C   0  0  0  0  0  0  0  0  0  0  0  0
   -5.0517   -1.3818   -0.0609 C   0  0  0  0  0  0  0  0  0  0  0  0
   -4.8375   -0.0008    0.0705 C   0  0  0  0  0  0  0  0  0  0  0  0
   -3.5305    0.5147    0.0152 C   0  0  0  0  0  0  0  0  0  0  0  0
   -0.6942   -1.5575   -2.3289 H   0  0  0  0  0  0  0  0  0  0  0  0
   -1.0028   -2.8890    0.4759 H   0  0  0  0  0  0  0  0  0  0  0  0
   -1.6941   -3.5268   -1.0383 H   0  0  0  0  0  0  0  0  0  0  0  0
    3.5191   -2.6892    1.5760 H   0  0  0  0  0  0  0  0  0  0  0  0
    3.4874   -1.1101    2.4234 H   0  0  0  0  0  0  0  0  0  0  0  0
    5.0331   -1.7461    1.7756 H   0  0  0  0  0  0  0  0  0  0  0  0
    4.2705    1.4257   -1.0462 H   0  0  0  0  0  0  0  0  0  0  0  0
    5.3901    0.9428    0.2627 H   0  0  0  0  0  0  0  0  0  0  0  0
    3.7655    1.5909    0.6636 H   0  0  0  0  0  0  0  0  0  0  0  0
    4.1053   -2.8317   -1.5031 H   0  0  0  0  0  0  0  0  0  0  0  0
    5.5874   -1.8344   -1.3069 H   0  0  0  0  0  0  0  0  0  0  0  0
    4.3024   -1.3253   -2.4533 H   0  0  0  0  0  0  0  0  0  0  0  0
   -4.1086   -3.3157   -0.3736 H   0  0  0  0  0  0  0  0  0  0  0  0
   -6.0719   -1.7942   -0.0242 H   0  0  0  0  0  0  0  0  0  0  0  0
   -5.6925    0.6794    0.2136 H   0  0  0  0  0  0  0  0  0  0  0  0
   -3.4075    1.6069    0.1254 H   0  0  0  0  0  0  0  0  0  0  0  0
  1  9  1  0  0  0  0
  1  8  1  0  0  0  0
  2  1  1  0  0  0  0
  3  2  2  0  0  0  0
  4  3  2  0  0  0  0
  4  5  1  0  0  0  0
  5  6  1  0  0  0  0
  5 16  1  0  0  0  0
  6 11  2  0  0  0  0
  6  7  1  0  0  0  0
  7 14  2  0  0  0  0
  8 20  1  0  0  0  0
  8 19  1  0  0  0  0
  9 22  1  0  0  0  0
  9 23  1  0  0  0  0
 10 25  1  0  0  0  0
 10  1  1  0  0  0  0
 11 12  1  0  0  0  0
 12 28  1  0  0  0  0
 12 13  2  0  0  0  0
 13 29  1  0  0  0  0
 14 13  1  0  0  0  0
 14 30  1  0  0  0  0
 15  4  1  0  0  0  0
 17  5  1  0  0  0  0
 18  8  1  0  0  0  0
 21  9  1  0  0  0  0
 24 10  1  0  0  0  0
 26 10  1  0  0  0  0
 27 11  1  0  0  0  0
M  END
