3,28
 OpenBabel05122313053D

 49 50  0  0  0  0  0  0  0  0999 V2000
    1.1915   -1.6351    2.0225 N   0  0  0  0  0  0  0  0  0  0  0  0
    2.6554   -0.2063    1.2987 N   0  0  0  0  0  0  0  0  0  0  0  0
    1.3610   -0.6265    1.1028 C   0  0  0  0  0  2  0  0  0  0  0  0
    3.2552   -0.9266    2.3259 C   0  0  0  0  0  0  0  0  0  0  0  0
    2.3377   -1.8323    2.7829 C   0  0  0  0  0  0  0  0  0  0  0  0
    3.3290    0.8280    0.5129 C   0  0  0  0  0  0  0  0  0  0  0  0
    4.3695    0.3117   -0.5189 C   0  0  0  0  0  0  0  0  0  0  0  0
    3.7652   -0.7900   -1.4040 C   0  0  0  0  0  0  0  0  0  0  0  0
    5.6395   -0.2163    0.1738 C   0  0  0  0  0  0  0  0  0  0  0  0
    4.7303    1.5336   -1.3855 C   0  0  0  0  0  0  0  0  0  0  0  0
   -0.0002   -2.4573    2.0512 C   0  0  0  0  0  0  0  0  0  0  0  0
    2.3988   -2.5848    3.5743 H   0  0  0  0  0  0  0  0  0  0  0  0
    4.2742   -0.7175    2.6589 H   0  0  0  0  0  0  0  0  0  0  0  0
   -0.0002   -3.1170    1.1538 H   0  0  0  0  0  0  0  0  0  0  0  0
   -0.0002   -3.0638    2.9752 H   0  0  0  0  0  0  0  0  0  0  0  0
    2.5334    1.3862   -0.0116 H   0  0  0  0  0  0  0  0  0  0  0  0
    3.8128    1.5302    1.2227 H   0  0  0  0  0  0  0  0  0  0  0  0
    3.4705   -1.6791   -0.8105 H   0  0  0  0  0  0  0  0  0  0  0  0
    2.8639   -0.4303   -1.9352 H   0  0  0  0  0  0  0  0  0  0  0  0
    4.5084   -1.1230   -2.1571 H   0  0  0  0  0  0  0  0  0  0  0  0
    5.4463   -1.1505    0.7390 H   0  0  0  0  0  0  0  0  0  0  0  0
    6.4154   -0.4550   -0.5821 H   0  0  0  0  0  0  0  0  0  0  0  0
    6.0703    0.5340    0.8705 H   0  0  0  0  0  0  0  0  0  0  0  0
    5.4934    1.2604   -2.1422 H   0  0  0  0  0  0  0  0  0  0  0  0
    3.8330    1.9095   -1.9165 H   0  0  0  0  0  0  0  0  0  0  0  0
    5.1441    2.3612   -0.7717 H   0  0  0  0  0  0  0  0  0  0  0  0
   -1.1917   -1.6349    2.0226 N   0  0  0  0  0  0  0  0  0  0  0  0
   -1.3611   -0.6262    1.1029 C   0  0  0  0  0  2  0  0  0  0  0  0
   -2.6554   -0.2059    1.2988 N   0  0  0  0  0  0  0  0  0  0  0  0
   -3.2553   -0.9261    2.3260 C   0  0  0  0  0  0  0  0  0  0  0  0
   -2.3379   -1.8319    2.7830 C   0  0  0  0  0  0  0  0  0  0  0  0
   -2.3990   -2.5844    3.5744 H   0  0  0  0  0  0  0  0  0  0  0  0
   -4.2743   -0.7169    2.6590 H   0  0  0  0  0  0  0  0  0  0  0  0
   -3.3290    0.8283    0.5130 C   0  0  0  0  0  0  0  0  0  0  0  0
   -4.3695    0.3121   -0.5188 C   0  0  0  0  0  0  0  0  0  0  0  0
   -3.7652   -0.7895   -1.4040 C   0  0  0  0  0  0  0  0  0  0  0  0
   -3.4703   -1.6786   -0.8106 H   0  0  0  0  0  0  0  0  0  0  0  0
   -2.8640   -0.4297   -1.9354 H   0  0  0  0  0  0  0  0  0  0  0  0
   -4.5085   -1.1225   -2.1570 H   0  0  0  0  0  0  0  0  0  0  0  0
   -5.6393   -0.2162    0.1741 C   0  0  0  0  0  0  0  0  0  0  0  0
   -5.4459   -1.1504    0.7392 H   0  0  0  0  0  0  0  0  0  0  0  0
   -6.4153   -0.4549   -0.5817 H   0  0  0  0  0  0  0  0  0  0  0  0
   -6.0701    0.5340    0.8709 H   0  0  0  0  0  0  0  0  0  0  0  0
   -4.7306    1.5339   -1.3852 C   0  0  0  0  0  0  0  0  0  0  0  0
   -5.4939    1.2607   -2.1418 H   0  0  0  0  0  0  0  0  0  0  0  0
   -3.8335    1.9100   -1.9163 H   0  0  0  0  0  0  0  0  0  0  0  0
   -5.1445    2.3614   -0.7713 H   0  0  0  0  0  0  0  0  0  0  0  0
   -2.5334    1.3864   -0.0117 H   0  0  0  0  0  0  0  0  0  0  0  0
   -3.8126    1.5306    1.2227 H   0  0  0  0  0  0  0  0  0  0  0  0
  1 11  1  0  0  0  0
  1  5  1  0  0  0  0
  2  4  1  0  0  0  0
  3  2  1  0  0  0  0
  3  1  1  0  0  0  0
  4 13  1  0  0  0  0
  4  5  2  0  0  0  0
  5 12  1  0  0  0  0
  6 17  1  0  0  0  0
  6  2  1  0  0  0  0
  7  9  1  0  0  0  0
  7  6  1  0  0  0  0
  8 18  1  0  0  0  0
  8  7  1  0  0  0  0
  9 21  1  0  0  0  0
  9 23  1  0  0  0  0
 10 26  1  0  0  0  0
 10  7  1  0  0  0  0
 11 15  1  0  0  0  0
 14 11  1  0  0  0  0
 16  6  1  0  0  0  0
 19  8  1  0  0  0  0
 20  8  1  0  0  0  0
 22  9  1  0  0  0  0
 24 10  1  0  0  0  0
 25 10  1  0  0  0  0
 27 11  1  0  0  0  0
 27 31  1  0  0  0  0
 28 29  1  0  0  0  0
 28 27  1  0  0  0  0
 29 30  1  0  0  0  0
 30 33  1  0  0  0  0
 30 31  2  0  0  0  0
 31 32  1  0  0  0  0
 34 49  1  0  0  0  0
 34 29  1  0  0  0  0
 35 40  1  0  0  0  0
 35 34  1  0  0  0  0
 36 37  1  0  0  0  0
 36 35  1  0  0  0  0
 38 36  1  0  0  0  0
 39 36  1  0  0  0  0
 40 41  1  0  0  0  0
 40 43  1  0  0  0  0
 42 40  1  0  0  0  0
 44 47  1  0  0  0  0
 44 35  1  0  0  0  0
 45 44  1  0  0  0  0
 46 44  1  0  0  0  0
 48 34  1  0  0  0  0
M  END
