4,6
 OpenBabel05122313053D

 25 26  0  0  1  0  0  0  0  0999 V2000
   -0.6404   -0.6341   -0.6659 C   0  0  2  0  0  3  0  0  0  0  0  0
    0.0356   -1.6546    0.1167 C   0  0  0  0  0  0  0  0  0  0  0  0
    1.3529   -2.0444   -0.2588 C   0  0  0  0  0  0  0  0  0  0  0  0
    2.0190   -1.4544   -1.3728 C   0  0  0  0  0  3  0  0  0  0  0  0
    1.3736   -0.4530   -2.1323 C   0  0  0  0  0  3  0  0  0  0  0  0
    0.0596   -0.0446   -1.7605 C   0  0  0  0  0  3  0  0  0  0  0  0
   -0.6047   -2.2964    1.3136 C   0  0  0  0  0  0  0  0  0  0  0  0
   -2.0132   -0.1665   -0.3477 C   0  0  0  0  0  0  0  0  0  0  0  0
   -3.0744   -1.0961   -0.2764 C   0  0  0  0  0  0  0  0  0  0  0  0
   -4.3828   -0.6536   -0.0394 C   0  0  0  0  0  0  0  0  0  0  0  0
   -4.6444    0.7137    0.1400 C   0  0  0  0  0  0  0  0  0  0  0  0
   -3.5943    1.6436    0.0700 C   0  0  0  0  0  0  0  0  0  0  0  0
   -2.2865    1.2088   -0.1789 C   0  0  0  0  0  0  0  0  0  0  0  0
    1.8844   -2.7850    0.3562 H   0  0  0  0  0  0  0  0  0  0  0  0
    3.0507   -1.7514   -1.6122 H   0  0  0  0  0  0  0  0  0  0  0  0
    1.8915    0.0386   -2.9678 H   0  0  0  0  0  0  0  0  0  0  0  0
   -0.4400    0.7567   -2.3245 H   0  0  0  0  0  0  0  0  0  0  0  0
   -1.1836   -3.1862    0.9904 H   0  0  0  0  0  0  0  0  0  0  0  0
   -1.3104   -1.6157    1.8234 H   0  0  0  0  0  0  0  0  0  0  0  0
    0.1594   -2.6440    2.0337 H   0  0  0  0  0  0  0  0  0  0  0  0
   -2.8847   -2.1668   -0.4409 H   0  0  0  0  0  0  0  0  0  0  0  0
   -5.2044   -1.3837    0.0016 H   0  0  0  0  0  0  0  0  0  0  0  0
   -5.6711    1.0568    0.3348 H   0  0  0  0  0  0  0  0  0  0  0  0
   -3.7938    2.7154    0.2156 H   0  0  0  0  0  0  0  0  0  0  0  0
   -1.4673    1.9429   -0.2198 H   0  0  0  0  0  0  0  0  0  0  0  0
  1  8  1  1  0  0  0
  1  2  1  0  0  0  0
  2  7  1  0  0  0  0
  3  2  2  0  0  0  0
  3 14  1  0  0  0  0
  4  3  1  0  0  0  0
  5  6  1  0  0  0  0
  5  4  1  0  0  0  0
  6  1  1  0  0  0  0
  7 19  1  0  0  0  0
  7 20  1  0  0  0  0
  8  9  2  0  0  0  0
  8 13  1  0  0  0  0
  9 10  1  0  0  0  0
 10 22  1  0  0  0  0
 10 11  2  0  0  0  0
 11 23  1  0  0  0  0
 12 11  1  0  0  0  0
 12 24  1  0  0  0  0
 13 12  2  0  0  0  0
 15  4  1  0  0  0  0
 16  5  1  0  0  0  0
 17  6  1  0  0  0  0
 18  7  1  0  0  0  0
 21  9  1  0  0  0  0
 25 13  1  0  0  0  0
M  END
