7,10
 OpenBabel05122313053D

 58 61  0  0  0  0  0  0  0  0999 V2000
    3.2572    0.9766   -1.6402 N   0  0  0  0  0  0  0  0  0  0  0  0
    1.4373    2.1000   -1.5192 N   0  0  0  0  0  0  0  0  0  0  0  0
    2.1264    2.6470   -2.5700 N   0  0  0  0  0  0  0  0  0  0  0  0
    2.9994   -1.9669   -0.9426 N   0  0  0  0  0  0  0  0  0  0  0  0
    0.9758   -2.6316   -1.0696 N   0  0  0  0  0  0  0  0  0  0  0  0
    1.7064   -3.5766   -1.7508 N   0  0  0  0  0  0  0  0  0  0  0  0
    2.0986    1.0752   -0.8943 C   0  0  0  0  0  2  0  0  0  0  0  0
    3.2290    1.9501   -2.6232 C   0  0  0  0  0  0  0  0  0  0  0  0
    4.0332    2.1079   -3.3521 H   0  0  0  0  0  0  0  0  0  0  0  0
    1.7269   -1.6322   -0.5330 C   0  0  0  0  0  2  0  0  0  0  0  0
    2.9403   -3.1461   -1.6595 C   0  0  0  0  0  0  0  0  0  0  0  0
    3.8123   -3.6566   -2.0862 H   0  0  0  0  0  0  0  0  0  0  0  0
    4.3842    0.0427   -1.5063 C   0  0  0  0  0  0  0  0  0  0  0  0
    5.2674    0.5969   -1.1241 H   0  0  0  0  0  0  0  0  0  0  0  0
    4.6337   -0.3080   -2.5285 H   0  0  0  0  0  0  0  0  0  0  0  0
    4.1590   -1.1578   -0.5897 C   0  0  0  0  0  0  0  0  0  0  0  0
    5.0662   -1.7919   -0.6290 H   0  0  0  0  0  0  0  0  0  0  0  0
    4.0020   -0.8237    0.4568 H   0  0  0  0  0  0  0  0  0  0  0  0
    0.1300    2.6025   -1.2211 C   0  0  0  0  0  0  0  0  0  0  0  0
   -0.1888    3.9326   -1.5356 C   0  0  0  0  0  0  0  0  0  0  0  0
    0.5609    4.5713   -2.0215 H   0  0  0  0  0  0  0  0  0  0  0  0
   -1.4643    4.4206   -1.2215 C   0  0  0  0  0  0  0  0  0  0  0  0
   -1.7096    5.4667   -1.4614 H   0  0  0  0  0  0  0  0  0  0  0  0
   -2.4371    3.6111   -0.6001 C   0  0  0  0  0  0  0  0  0  0  0  0
   -2.0916    2.2735   -0.3122 C   0  0  0  0  0  0  0  0  0  0  0  0
   -2.8289    1.6042    0.1581 H   0  0  0  0  0  0  0  0  0  0  0  0
   -0.8273    1.7663   -0.6239 C   0  0  0  0  0  0  0  0  0  0  0  0
   -0.5606    0.7220   -0.3810 H   0  0  0  0  0  0  0  0  0  0  0  0
   -3.8084    4.1595   -0.2417 C   0  0  0  0  0  0  0  0  0  0  0  0
   -3.8376    5.2117   -0.5980 H   0  0  0  0  0  0  0  0  0  0  0  0
   -4.9337    3.3920   -0.9562 C   0  0  0  0  0  0  0  0  0  0  0  0
   -4.7949    3.3974   -2.0554 H   0  0  0  0  0  0  0  0  0  0  0  0
   -5.9189    3.8478   -0.7319 H   0  0  0  0  0  0  0  0  0  0  0  0
   -4.9761    2.3336   -0.6239 H   0  0  0  0  0  0  0  0  0  0  0  0
   -4.0163    4.1758    1.2832 C   0  0  0  0  0  0  0  0  0  0  0  0
   -3.2212    4.7538    1.7951 H   0  0  0  0  0  0  0  0  0  0  0  0
   -4.0107    3.1469    1.7006 H   0  0  0  0  0  0  0  0  0  0  0  0
   -4.9928    4.6332    1.5403 H   0  0  0  0  0  0  0  0  0  0  0  0
   -0.4480   -2.7446   -0.9718 C   0  0  0  0  0  0  0  0  0  0  0  0
   -1.0244   -3.8840   -0.3897 C   0  0  0  0  0  0  0  0  0  0  0  0
   -0.3824   -4.7135   -0.0607 H   0  0  0  0  0  0  0  0  0  0  0  0
   -2.4136   -3.9346   -0.2257 C   0  0  0  0  0  0  0  0  0  0  0  0
   -2.8606   -4.8257    0.2399 H   0  0  0  0  0  0  0  0  0  0  0  0
   -3.2431   -2.8649   -0.6310 C   0  0  0  0  0  0  0  0  0  0  0  0
   -2.6355   -1.7497   -1.2424 C   0  0  0  0  0  0  0  0  0  0  0  0
   -3.2628   -0.9151   -1.5931 H   0  0  0  0  0  0  0  0  0  0  0  0
   -1.2480   -1.6868   -1.4249 C   0  0  0  0  0  0  0  0  0  0  0  0
   -0.7841   -0.8262   -1.9253 H   0  0  0  0  0  0  0  0  0  0  0  0
   -4.7441   -2.8964   -0.3925 C   0  0  0  0  0  0  0  0  0  0  0  0
   -5.1702   -2.0186   -0.9253 H   0  0  0  0  0  0  0  0  0  0  0  0
   -5.0538   -2.7275    1.1067 C   0  0  0  0  0  0  0  0  0  0  0  0
   -4.6538   -3.5792    1.6952 H   0  0  0  0  0  0  0  0  0  0  0  0
   -6.1482   -2.6853    1.2783 H   0  0  0  0  0  0  0  0  0  0  0  0
   -4.6055   -1.7976    1.5118 H   0  0  0  0  0  0  0  0  0  0  0  0
   -5.4052   -4.1590   -0.9670 C   0  0  0  0  0  0  0  0  0  0  0  0
   -5.1855   -4.2781   -2.0464 H   0  0  0  0  0  0  0  0  0  0  0  0
   -6.5054   -4.1088   -0.8438 H   0  0  0  0  0  0  0  0  0  0  0  0
   -5.0590   -5.0754   -0.4461 H   0  0  0  0  0  0  0  0  0  0  0  0
  1 13  1  0  0  0  0
  1  7  1  0  0  0  0
  2 19  1  0  0  0  0
  2  7  1  0  0  0  0
  3  2  1  0  0  0  0
  4 16  1  0  0  0  0
  4 10  1  0  0  0  0
  5 39  1  0  0  0  0
  5 10  1  0  0  0  0
  6 11  2  0  0  0  0
  6  5  1  0  0  0  0
  8  3  2  0  0  0  0
  8  1  1  0  0  0  0
  9  8  1  0  0  0  0
 11  4  1  0  0  0  0
 12 11  1  0  0  0  0
 13 14  1  0  0  0  0
 13 16  1  0  0  0  0
 15 13  1  0  0  0  0
 16 18  1  0  0  0  0
 17 16  1  0  0  0  0
 19 27  1  0  0  0  0
 20 22  1  0  0  0  0
 20 19  2  0  0  0  0
 21 20  1  0  0  0  0
 22 24  2  0  0  0  0
 23 22  1  0  0  0  0
 24 25  1  0  0  0  0
 24 29  1  0  0  0  0
 25 26  1  0  0  0  0
 27 28  1  0  0  0  0
 27 25  2  0  0  0  0
 29 35  1  0  0  0  0
 30 29  1  0  0  0  0
 31 33  1  0  0  0  0
 31 34  1  0  0  0  0
 31 29  1  0  0  0  0
 32 31  1  0  0  0  0
 35 38  1  0  0  0  0
 35 37  1  0  0  0  0
 35 36  1  0  0  0  0
 39 40  1  0  0  0  0
 40 42  2  0  0  0  0
 40 41  1  0  0  0  0
 42 43  1  0  0  0  0
 44 49  1  0  0  0  0
 44 42  1  0  0  0  0
 45 44  2  0  0  0  0
 46 45  1  0  0  0  0
 47 45  1  0  0  0  0
 47 39  2  0  0  0  0
 48 47  1  0  0  0  0
 49 51  1  0  0  0  0
 50 49  1  0  0  0  0
 51 53  1  0  0  0  0
 51 54  1  0  0  0  0
 51 52  1  0  0  0  0
 55 57  1  0  0  0  0
 55 58  1  0  0  0  0
 55 49  1  0  0  0  0
 56 55  1  0  0  0  0
M  END
