5,12
 OpenBabel05122313053D

 52 55  0  0  0  0  0  0  0  0999 V2000
   -1.1934    1.4305   -1.2311 N   0  0  0  0  0  0  0  0  0  0  0  0
   -2.2207    0.7719    0.5935 N   0  0  0  0  0  0  0  0  0  0  0  0
    1.7082    0.7111   -1.1502 N   0  0  0  0  0  0  0  0  0  0  0  0
    2.2460    0.2615    0.9253 N   0  0  0  0  0  0  0  0  0  0  0  0
   -1.2835    0.3895   -0.3340 C   0  0  0  0  0  2  0  0  0  0  0  0
   -2.0911    2.4513   -0.8946 C   0  0  0  0  0  0  0  0  0  0  0  0
   -2.7480    2.0325    0.2848 C   0  0  0  0  0  0  0  0  0  0  0  0
   -3.7130    2.8504    0.8961 C   0  0  0  0  0  0  0  0  0  0  0  0
   -3.9957    4.0813    0.2864 C   0  0  0  0  0  0  0  0  0  0  0  0
   -3.3421    4.4893   -0.8960 C   0  0  0  0  0  0  0  0  0  0  0  0
   -2.3771    3.6781   -1.5100 C   0  0  0  0  0  0  0  0  0  0  0  0
    1.3765   -0.0699   -0.0722 C   0  0  0  0  0  2  0  0  0  0  0  0
    2.7873    1.5442   -0.8537 C   0  0  0  0  0  0  0  0  0  0  0  0
    3.1476    1.2469    0.4856 C   0  0  0  0  0  0  0  0  0  0  0  0
    4.2348    1.8957    1.0932 C   0  0  0  0  0  0  0  0  0  0  0  0
    4.9271    2.8480    0.3309 C   0  0  0  0  0  0  0  0  0  0  0  0
    4.5555    3.1470   -0.9978 C   0  0  0  0  0  0  0  0  0  0  0  0
    3.4780    2.4964   -1.6156 C   0  0  0  0  0  0  0  0  0  0  0  0
   -0.2859    1.5870   -2.3692 C   0  0  0  0  0  0  0  0  0  0  0  0
    0.9304    0.6626   -2.3784 C   0  0  0  0  0  0  0  0  0  0  0  0
   -2.4910    0.0041    1.8287 C   0  0  0  0  0  0  0  0  0  0  0  0
    2.2032   -0.3657    2.2623 C   0  0  0  0  0  0  0  0  0  0  0  0
   -1.9945    0.7618    3.0627 C   0  0  0  0  0  0  0  0  0  0  0  0
   -3.9570   -0.4225    1.9355 C   0  0  0  0  0  0  0  0  0  0  0  0
    2.0135    0.6747    3.3691 C   0  0  0  0  0  0  0  0  0  0  0  0
    3.4145   -1.2751    2.4844 C   0  0  0  0  0  0  0  0  0  0  0  0
   -4.2361    2.5499    1.8121 H   0  0  0  0  0  0  0  0  0  0  0  0
   -4.7491    4.7410    0.7406 H   0  0  0  0  0  0  0  0  0  0  0  0
   -3.5964    5.4591   -1.3473 H   0  0  0  0  0  0  0  0  0  0  0  0
   -1.8782    3.9959   -2.4359 H   0  0  0  0  0  0  0  0  0  0  0  0
    4.5449    1.6734    2.1217 H   0  0  0  0  0  0  0  0  0  0  0  0
    5.7821    3.3723    0.7814 H   0  0  0  0  0  0  0  0  0  0  0  0
    5.1238    3.9012   -1.5609 H   0  0  0  0  0  0  0  0  0  0  0  0
    3.1939    2.7253   -2.6525 H   0  0  0  0  0  0  0  0  0  0  0  0
    0.0557    2.6426   -2.3554 H   0  0  0  0  0  0  0  0  0  0  0  0
   -0.8460    1.4395   -3.3180 H   0  0  0  0  0  0  0  0  0  0  0  0
    0.6120   -0.3931   -2.5070 H   0  0  0  0  0  0  0  0  0  0  0  0
    1.5764    0.9416   -3.2340 H   0  0  0  0  0  0  0  0  0  0  0  0
   -1.8555   -0.8997    1.7028 H   0  0  0  0  0  0  0  0  0  0  0  0
    1.2870   -0.9916    2.2136 H   0  0  0  0  0  0  0  0  0  0  0  0
   -0.9232    1.0204    2.9608 H   0  0  0  0  0  0  0  0  0  0  0  0
   -2.1109    0.1259    3.9620 H   0  0  0  0  0  0  0  0  0  0  0  0
   -2.5601    1.6976    3.2377 H   0  0  0  0  0  0  0  0  0  0  0  0
   -4.3093   -0.9124    1.0068 H   0  0  0  0  0  0  0  0  0  0  0  0
   -4.6312    0.4310    2.1415 H   0  0  0  0  0  0  0  0  0  0  0  0
   -4.0722   -1.1426    2.7690 H   0  0  0  0  0  0  0  0  0  0  0  0
    1.1744    1.3585    3.1358 H   0  0  0  0  0  0  0  0  0  0  0  0
    2.9186    1.2899    3.5329 H   0  0  0  0  0  0  0  0  0  0  0  0
    1.7849    0.1610    4.3231 H   0  0  0  0  0  0  0  0  0  0  0  0
    3.5022   -2.0290    1.6774 H   0  0  0  0  0  0  0  0  0  0  0  0
    3.3108   -1.8110    3.4481 H   0  0  0  0  0  0  0  0  0  0  0  0
    4.3616   -0.7015    2.5196 H   0  0  0  0  0  0  0  0  0  0  0  0
  1  6  1  0  0  0  0
  1  5  1  0  0  0  0
  2 21  1  0  0  0  0
  3 13  1  0  0  0  0
  3 12  1  0  0  0  0
  4 22  1  0  0  0  0
  5  2  1  0  0  0  0
  6  7  1  0  0  0  0
  7  2  1  0  0  0  0
  7  8  2  0  0  0  0
  8 27  1  0  0  0  0
  9 28  1  0  0  0  0
  9  8  1  0  0  0  0
 10  9  2  0  0  0  0
 11 10  1  0  0  0  0
 11  6  2  0  0  0  0
 12  4  1  0  0  0  0
 13 14  1  0  0  0  0
 14  4  1  0  0  0  0
 14 15  2  0  0  0  0
 15 31  1  0  0  0  0
 16 32  1  0  0  0  0
 16 15  1  0  0  0  0
 17 16  2  0  0  0  0
 18 17  1  0  0  0  0
 18 13  2  0  0  0  0
 19 35  1  0  0  0  0
 19  1  1  0  0  0  0
 20 19  1  0  0  0  0
 20  3  1  0  0  0  0
 21 24  1  0  0  0  0
 21 23  1  0  0  0  0
 22 26  1  0  0  0  0
 22 25  1  0  0  0  0
 23 43  1  0  0  0  0
 23 42  1  0  0  0  0
 24 45  1  0  0  0  0
 24 46  1  0  0  0  0
 25 48  1  0  0  0  0
 25 49  1  0  0  0  0
 26 52  1  0  0  0  0
 26 51  1  0  0  0  0
 29 10  1  0  0  0  0
 30 11  1  0  0  0  0
 33 17  1  0  0  0  0
 34 18  1  0  0  0  0
 36 19  1  0  0  0  0
 37 20  1  0  0  0  0
 38 20  1  0  0  0  0
 39 21  1  0  0  0  0
 40 22  1  0  0  0  0
 41 23  1  0  0  0  0
 44 24  1  0  0  0  0
 47 25  1  0  0  0  0
 50 26  1  0  0  0  0
M  END
