7,9
 OpenBabel05122313053D

 26 27  0  0  0  0  0  0  0  0999 V2000
    2.0484    1.4835   -0.7540 N   0  0  0  0  0  0  0  0  0  0  0  0
    1.2174    2.2884    1.0418 N   0  0  0  0  0  0  0  0  0  0  0  0
    2.3583    3.0082    0.8306 N   0  0  0  0  0  0  0  0  0  0  0  0
    1.8481   -1.4773   -0.8779 N   0  0  0  0  0  0  0  0  0  0  0  0
    1.4772   -2.2134    1.0895 N   0  0  0  0  0  0  0  0  0  0  0  0
    2.6038   -2.8702    0.6668 N   0  0  0  0  0  0  0  0  0  0  0  0
    0.9662    1.3438    0.0956 C   0  0  0  0  0  2  0  0  0  0  0  0
    2.8498    2.5036   -0.2706 C   0  0  0  0  0  0  0  0  0  0  0  0
    0.9652   -1.3533    0.1753 C   0  0  0  0  0  2  0  0  0  0  0  0
    2.8148   -2.4013   -0.5383 C   0  0  0  0  0  0  0  0  0  0  0  0
    2.3864    0.7175   -1.9601 C   0  0  0  0  0  0  0  0  0  0  0  0
    1.7260   -0.6594   -2.0779 C   0  0  0  0  0  0  0  0  0  0  0  0
    0.4493    2.5458    2.2505 C   0  0  0  0  0  0  0  0  0  0  0  0
    0.9708   -2.4840    2.4254 C   0  0  0  0  0  0  0  0  0  0  0  0
    3.7762    2.8369   -0.7540 H   0  0  0  0  0  0  0  0  0  0  0  0
    3.6387   -2.7091   -1.1936 H   0  0  0  0  0  0  0  0  0  0  0  0
    3.4895    0.6086   -1.9658 H   0  0  0  0  0  0  0  0  0  0  0  0
    2.1102    1.3044   -2.8615 H   0  0  0  0  0  0  0  0  0  0  0  0
    0.6385   -0.5517   -2.2698 H   0  0  0  0  0  0  0  0  0  0  0  0
    2.1845   -1.1925   -2.9338 H   0  0  0  0  0  0  0  0  0  0  0  0
    1.1358    2.5498    3.1173 H   0  0  0  0  0  0  0  0  0  0  0  0
   -0.2972    1.7387    2.3582 H   0  0  0  0  0  0  0  0  0  0  0  0
   -0.0536    3.5300    2.1852 H   0  0  0  0  0  0  0  0  0  0  0  0
    1.8084   -2.4330    3.1452 H   0  0  0  0  0  0  0  0  0  0  0  0
    0.5196   -3.4943    2.4694 H   0  0  0  0  0  0  0  0  0  0  0  0
    0.2143   -1.7185    2.6711 H   0  0  0  0  0  0  0  0  0  0  0  0
  1  8  1  0  0  0  0
  1  7  1  0  0  0  0
  2 13  1  0  0  0  0
  3  2  1  0  0  0  0
  4 10  1  0  0  0  0
  4  9  1  0  0  0  0
  5 14  1  0  0  0  0
  6  5  1  0  0  0  0
  7  2  1  0  0  0  0
  8  3  2  0  0  0  0
  9  5  1  0  0  0  0
 10  6  2  0  0  0  0
 11  1  1  0  0  0  0
 12 11  1  0  0  0  0
 12  4  1  0  0  0  0
 13 22  1  0  0  0  0
 13 21  1  0  0  0  0
 14 25  1  0  0  0  0
 14 26  1  0  0  0  0
 14 24  1  0  0  0  0
 15  8  1  0  0  0  0
 16 10  1  0  0  0  0
 17 11  1  0  0  0  0
 18 11  1  0  0  0  0
 19 12  1  0  0  0  0
 20 12  1  0  0  0  0
 23 13  1  0  0  0  0
M  END
