14,16
 OpenBabel05122313053D

 39 40  0  0  0  0  0  0  0  0999 V2000
    3.3655    1.3975   -0.0148 C   0  0  0  0  0  0  0  0  0  0  0  0
    2.9053    0.4013    0.0279 H   0  0  0  0  0  0  0  0  0  0  0  0
    4.7576    1.5384    0.0216 C   0  0  0  0  0  0  0  0  0  0  0  0
    5.3914    0.6400    0.0969 H   0  0  0  0  0  0  0  0  0  0  0  0
    5.3500    2.8127   -0.0359 C   0  0  0  0  0  0  0  0  0  0  0  0
    6.4450    2.9209   -0.0121 H   0  0  0  0  0  0  0  0  0  0  0  0
    4.5241    3.9463   -0.1199 C   0  0  0  0  0  0  0  0  0  0  0  0
    4.9717    4.9516   -0.1604 H   0  0  0  0  0  0  0  0  0  0  0  0
    3.1312    3.8059   -0.1481 C   0  0  0  0  0  0  0  0  0  0  0  0
    2.4896    4.6995   -0.2047 H   0  0  0  0  0  0  0  0  0  0  0  0
    2.5143    2.5284   -0.1040 C   0  0  0  0  0  0  0  0  0  0  0  0
    1.0570    2.4481   -0.1155 C   0  0  0  0  0  0  0  0  0  0  0  0
    0.5430    3.4237   -0.0199 H   0  0  0  0  0  0  0  0  0  0  0  0
    0.2356    1.3579   -0.1699 C   0  0  0  0  0  3  0  0  0  0  0  0
   -1.2239    1.3437   -0.0412 C   0  0  0  0  0  0  0  0  0  0  0  0
   -1.5093   -0.0061   -0.0290 C   0  0  0  0  0  3  0  0  0  0  0  0
   -2.7678   -0.7371    0.0514 C   0  0  0  0  0  0  0  0  0  0  0  0
   -2.8657   -1.9152    0.8337 C   0  0  0  0  0  0  0  0  0  0  0  0
   -1.9752   -2.2528    1.3852 H   0  0  0  0  0  0  0  0  0  0  0  0
   -4.0703   -2.6266    0.9000 C   0  0  0  0  0  0  0  0  0  0  0  0
   -4.1353   -3.5331    1.5218 H   0  0  0  0  0  0  0  0  0  0  0  0
   -5.1898   -2.1970    0.1665 C   0  0  0  0  0  0  0  0  0  0  0  0
   -6.1312   -2.7661    0.2083 H   0  0  0  0  0  0  0  0  0  0  0  0
   -5.0987   -1.0410   -0.6277 C   0  0  0  0  0  0  0  0  0  0  0  0
   -5.9697   -0.7032   -1.2103 H   0  0  0  0  0  0  0  0  0  0  0  0
   -3.9046   -0.3111   -0.6828 C   0  0  0  0  0  0  0  0  0  0  0  0
   -3.8316    0.5950   -1.3014 H   0  0  0  0  0  0  0  0  0  0  0  0
   -3.5888    4.3605   -1.3764 C   0  0  0  0  0  0  0  0  0  0  0  0
   -4.6361    4.1930   -1.0467 H   0  0  0  0  0  0  0  0  0  0  0  0
   -3.5805    4.6432   -2.4464 H   0  0  0  0  0  0  0  0  0  0  0  0
   -3.1454    5.1798   -0.7726 H   0  0  0  0  0  0  0  0  0  0  0  0
   -3.7566    1.9182    2.2859 C   0  0  0  0  0  0  0  0  0  0  0  0
   -3.4514    0.8615    2.4536 H   0  0  0  0  0  0  0  0  0  0  0  0
   -4.8063    2.0381    2.6183 H   0  0  0  0  0  0  0  0  0  0  0  0
   -3.1083    2.5959    2.8811 H   0  0  0  0  0  0  0  0  0  0  0  0
   -2.8182    3.1593   -1.2468 O   0  0  0  0  0  0  0  0  0  0  0  0
   -3.7033    2.2413    0.8988 O   0  0  0  0  0  0  0  0  0  0  0  0
   -1.6332    3.8839    1.0370 O   0  0  0  0  0  0  0  0  0  0  0  0
   -2.2762    2.7663    0.2525 P   0  0  0  0  0  0  0  0  0  0  0  0
  1  3  1  0  0  0  0
  1  2  1  0  0  0  0
  3  4  1  0  0  0  0
  5  6  1  0  0  0  0
  5  3  2  0  0  0  0
  7  5  1  0  0  0  0
  8  7  1  0  0  0  0
  9  7  2  0  0  0  0
  9 11  1  0  0  0  0
 10  9  1  0  0  0  0
 11  1  2  0  0  0  0
 12 11  1  0  0  0  0
 12 13  1  0  0  0  0
 14 12  2  0  0  0  0
 14 15  1  0  0  0  0
 15 16  2  0  0  0  0
 15 39  1  0  0  0  0
 16 17  1  0  0  0  0
 17 18  1  0  0  0  0
 18 20  2  0  0  0  0
 18 19  1  0  0  0  0
 20 21  1  0  0  0  0
 22 23  1  0  0  0  0
 22 20  1  0  0  0  0
 24 22  2  0  0  0  0
 25 24  1  0  0  0  0
 26 24  1  0  0  0  0
 26 17  2  0  0  0  0
 27 26  1  0  0  0  0
 28 36  1  0  0  0  0
 28 29  1  0  0  0  0
 28 31  1  0  0  0  0
 30 28  1  0  0  0  0
 32 33  1  0  0  0  0
 32 34  1  0  0  0  0
 32 35  1  0  0  0  0
 36 39  1  0  0  0  0
 37 32  1  0  0  0  0
 39 37  1  0  0  0  0
 39 38  2  0  0  0  0
M  END
