5,42
 OpenBabel05122313053D

 50 55  0  0  1  0  0  0  0  0999 V2000
   -0.6824    2.8081    0.0040 Si  0  0  0  0  0  0  0  0  0  0  0  0
    2.4474    0.2659   -0.7113 C   0  0  0  0  0  0  0  0  0  0  0  0
    1.5400    1.2674   -1.1609 C   0  0  0  0  0  3  0  0  0  0  0  0
    1.2863    1.4978   -2.2043 H   0  0  0  0  0  0  0  0  0  0  0  0
    0.9810    1.9161    0.0027 C   0  0  2  0  0  3  0  0  0  0  0  0
    1.5401    1.2636    1.1641 C   0  0  0  0  0  3  0  0  0  0  0  0
    1.2867    1.4906    2.2083 H   0  0  0  0  0  0  0  0  0  0  0  0
    2.4475    0.2636    0.7111 C   0  0  0  0  0  0  0  0  0  0  0  0
    3.5861   -0.6260    1.1470 C   0  0  2  0  0  0  0  0  0  0  0  0
    3.5460   -1.0159    2.1794 H   0  0  0  0  0  0  0  0  0  0  0  0
    4.8759    0.1833    0.7813 C   0  0  0  0  0  0  0  0  0  0  0  0
    4.8596    1.2025    1.2141 H   0  0  0  0  0  0  0  0  0  0  0  0
    5.7693   -0.3352    1.1835 H   0  0  0  0  0  0  0  0  0  0  0  0
    4.8757    0.1860   -0.7822 C   0  0  0  0  0  0  0  0  0  0  0  0
    5.7691   -0.3312   -1.1863 H   0  0  0  0  0  0  0  0  0  0  0  0
    4.8594    1.2066   -1.2116 H   0  0  0  0  0  0  0  0  0  0  0  0
    3.5859   -0.6222   -1.1504 C   0  0  1  0  0  0  0  0  0  0  0  0
    3.5456   -1.0086   -2.1841 H   0  0  0  0  0  0  0  0  0  0  0  0
    3.5796   -1.6681   -0.0035 C   0  0  0  0  0  0  0  0  0  0  0  0
    4.4873   -2.3054   -0.0046 H   0  0  0  0  0  0  0  0  0  0  0  0
    2.6777   -2.3087   -0.0045 H   0  0  0  0  0  0  0  0  0  0  0  0
   -2.0656    0.4273    1.1628 C   0  0  0  0  0  0  0  0  0  0  0  0
   -1.9558    0.6769    2.5623 C   0  0  0  0  0  0  0  0  0  0  0  0
   -1.5948    1.6472    2.9270 H   0  0  0  0  0  0  0  0  0  0  0  0
   -2.3386   -0.3113    3.4624 C   0  0  0  0  0  0  0  0  0  0  0  0
   -2.2593   -0.1167    4.5426 H   0  0  0  0  0  0  0  0  0  0  0  0
   -2.8278   -1.5696    3.0200 C   0  0  0  0  0  0  0  0  0  0  0  0
   -3.1141   -2.3288    3.7626 H   0  0  0  0  0  0  0  0  0  0  0  0
   -2.9479   -1.8485    1.6625 C   0  0  0  0  0  0  0  0  0  0  0  0
   -3.3217   -2.8242    1.3185 H   0  0  0  0  0  0  0  0  0  0  0  0
   -2.5630   -0.8641    0.7241 C   0  0  0  0  0  0  0  0  0  0  0  0
   -2.5641   -0.8622   -0.7235 C   0  0  0  0  0  0  0  0  0  0  0  0
   -2.9504   -1.8443   -1.6639 C   0  0  0  0  0  0  0  0  0  0  0  0
   -3.3234   -2.8209   -1.3219 H   0  0  0  0  0  0  0  0  0  0  0  0
   -2.8327   -1.5617   -3.0208 C   0  0  0  0  0  0  0  0  0  0  0  0
   -3.1201   -2.3190   -3.7650 H   0  0  0  0  0  0  0  0  0  0  0  0
   -2.3446   -0.3021   -3.4608 C   0  0  0  0  0  0  0  0  0  0  0  0
   -2.2674   -0.1045   -4.5405 H   0  0  0  0  0  0  0  0  0  0  0  0
   -1.9605    0.6838   -2.5587 C   0  0  0  0  0  0  0  0  0  0  0  0
   -1.6003    1.6552   -2.9214 H   0  0  0  0  0  0  0  0  0  0  0  0
   -2.0676    0.4304   -1.1597 C   0  0  0  0  0  0  0  0  0  0  0  0
   -1.7217    1.2383    0.0023 C   0  0  0  0  0  3  0  0  0  0  0  0
   -0.8940    3.8744    1.5462 C   0  0  0  0  0  0  0  0  0  0  0  0
   -1.9622    4.1121    1.7250 H   0  0  0  0  0  0  0  0  0  0  0  0
   -0.3469    4.8294    1.4080 H   0  0  0  0  0  0  0  0  0  0  0  0
   -0.4914    3.3906    2.4572 H   0  0  0  0  0  0  0  0  0  0  0  0
   -0.8941    3.8776   -1.5360 C   0  0  0  0  0  0  0  0  0  0  0  0
   -0.3460    4.8318   -1.3962 H   0  0  0  0  0  0  0  0  0  0  0  0
   -1.9622    4.1166   -1.7137 H   0  0  0  0  0  0  0  0  0  0  0  0
   -0.4925    3.3952   -2.4482 H   0  0  0  0  0  0  0  0  0  0  0  0
  1 43  1  0  0  0  0
  2  8  2  0  0  0  0
  3  2  1  0  0  0  0
  3  5  1  0  0  0  0
  4  3  1  0  0  0  0
  5  1  1  6  0  0  0
  5  6  1  0  0  0  0
  6  7  1  0  0  0  0
  8  9  1  0  0  0  0
  8  6  1  0  0  0  0
  9 10  1  1  0  0  0
 11  9  1  0  0  0  0
 11 13  1  0  0  0  0
 11 12  1  0  0  0  0
 14 11  1  0  0  0  0
 15 14  1  0  0  0  0
 16 14  1  0  0  0  0
 17 18  1  6  0  0  0
 17 14  1  0  0  0  0
 17  2  1  0  0  0  0
 17 19  1  0  0  0  0
 19  9  1  0  0  0  0
 20 19  1  0  0  0  0
 21 19  1  0  0  0  0
 22 23  1  0  0  0  0
 23 24  1  0  0  0  0
 23 25  2  0  0  0  0
 25 26  1  0  0  0  0
 27 25  1  0  0  0  0
 27 28  1  0  0  0  0
 29 27  2  0  0  0  0
 30 29  1  0  0  0  0
 31 22  2  0  0  0  0
 31 29  1  0  0  0  0
 32 31  1  0  0  0  0
 33 34  1  0  0  0  0
 33 32  2  0  0  0  0
 35 33  1  0  0  0  0
 36 35  1  0  0  0  0
 37 35  2  0  0  0  0
 37 39  1  0  0  0  0
 38 37  1  0  0  0  0
 39 41  2  0  0  0  0
 40 39  1  0  0  0  0
 41 32  1  0  0  0  0
 41 42  1  0  0  0  0
 42  1  1  0  0  0  0
 42 22  1  0  0  0  0
 43 44  1  0  0  0  0
 43 46  1  0  0  0  0
 45 43  1  0  0  0  0
 47 48  1  0  0  0  0
 47  1  1  0  0  0  0
 49 47  1  0  0  0  0
 50 47  1  0  0  0  0
M  END
