3,6
 OpenBabel05122313053D

 39 39  0  0  0  0  0  0  0  0999 V2000
    3.4225    0.7385   -0.0833 Si  0  0  0  0  0  0  0  0  0  0  0  0
   -3.4154    0.7667   -0.0152 Si  0  0  0  0  0  0  0  0  0  0  0  0
    1.5520    0.7513   -0.0892 C   0  0  0  0  0  3  0  0  0  0  0  0
    0.7681    1.8813   -0.0920 C   0  0  0  0  0  0  0  0  0  0  0  0
   -0.7411    1.8969   -0.0505 C   0  0  0  0  0  0  0  0  0  0  0  0
   -1.5453    0.7833    0.0213 C   0  0  0  0  0  3  0  0  0  0  0  0
    4.1930    1.9423   -1.3391 C   0  0  0  0  0  0  0  0  0  0  0  0
    4.0800   -0.9890   -0.5332 C   0  0  0  0  0  0  0  0  0  0  0  0
    4.0502    1.1757    1.6590 C   0  0  0  0  0  0  0  0  0  0  0  0
    1.2380    3.3371   -0.1406 C   0  0  0  0  0  0  0  0  0  0  0  0
    0.0405    4.1539    0.3683 C   0  0  0  0  0  0  0  0  0  0  0  0
   -1.1774    3.3599   -0.1276 C   0  0  0  0  0  0  0  0  0  0  0  0
   -4.0121    1.0665   -1.7965 C   0  0  0  0  0  0  0  0  0  0  0  0
   -4.2451    2.0530    1.1193 C   0  0  0  0  0  0  0  0  0  0  0  0
   -4.0668   -0.9256    0.5612 C   0  0  0  0  0  0  0  0  0  0  0  0
    4.0091    3.0021   -1.0744 H   0  0  0  0  0  0  0  0  0  0  0  0
    3.7784    1.7721   -2.3544 H   0  0  0  0  0  0  0  0  0  0  0  0
    5.2916    1.7908   -1.3935 H   0  0  0  0  0  0  0  0  0  0  0  0
    3.8523   -1.2445   -1.5884 H   0  0  0  0  0  0  0  0  0  0  0  0
    3.6469   -1.7848    0.1057 H   0  0  0  0  0  0  0  0  0  0  0  0
    5.1828   -1.0226   -0.4145 H   0  0  0  0  0  0  0  0  0  0  0  0
    3.6814    0.4501    2.4127 H   0  0  0  0  0  0  0  0  0  0  0  0
    3.7000    2.1823    1.9665 H   0  0  0  0  0  0  0  0  0  0  0  0
    5.1596    1.1730    1.6978 H   0  0  0  0  0  0  0  0  0  0  0  0
    1.4690    3.6080   -1.1960 H   0  0  0  0  0  0  0  0  0  0  0  0
    2.1671    3.5032    0.4400 H   0  0  0  0  0  0  0  0  0  0  0  0
    0.0495    5.2074    0.0243 H   0  0  0  0  0  0  0  0  0  0  0  0
    0.0439    4.1674    1.4795 H   0  0  0  0  0  0  0  0  0  0  0  0
   -2.1029    3.5599    0.4431 H   0  0  0  0  0  0  0  0  0  0  0  0
   -1.3936    3.6134   -1.1915 H   0  0  0  0  0  0  0  0  0  0  0  0
   -3.6273    0.2926   -2.4916 H   0  0  0  0  0  0  0  0  0  0  0  0
   -3.6589    2.0521   -2.1639 H   0  0  0  0  0  0  0  0  0  0  0  0
   -5.1205    1.0566   -1.8555 H   0  0  0  0  0  0  0  0  0  0  0  0
   -4.1791    3.0832    0.7160 H   0  0  0  0  0  0  0  0  0  0  0  0
   -3.7873    2.0528    2.1300 H   0  0  0  0  0  0  0  0  0  0  0  0
   -5.3220    1.8092    1.2361 H   0  0  0  0  0  0  0  0  0  0  0  0
   -3.6015   -1.7672    0.0101 H   0  0  0  0  0  0  0  0  0  0  0  0
   -5.1645   -0.9867    0.4106 H   0  0  0  0  0  0  0  0  0  0  0  0
   -3.8711   -1.0837    1.6417 H   0  0  0  0  0  0  0  0  0  0  0  0
  1  9  1  0  0  0  0
  2  6  1  0  0  0  0
  2 15  1  0  0  0  0
  2 14  1  0  0  0  0
  3  1  1  0  0  0  0
  4  3  2  0  0  0  0
  4  5  1  0  0  0  0
  5  6  2  0  0  0  0
  7 16  1  0  0  0  0
  7  1  1  0  0  0  0
  8 21  1  0  0  0  0
  8  1  1  0  0  0  0
  8 20  1  0  0  0  0
  9 24  1  0  0  0  0
  9 23  1  0  0  0  0
  9 22  1  0  0  0  0
 10  4  1  0  0  0  0
 10 11  1  0  0  0  0
 10 26  1  0  0  0  0
 11 28  1  0  0  0  0
 12  5  1  0  0  0  0
 12 11  1  0  0  0  0
 12 29  1  0  0  0  0
 13  2  1  0  0  0  0
 14 36  1  0  0  0  0
 14 35  1  0  0  0  0
 15 39  1  0  0  0  0
 17  7  1  0  0  0  0
 18  7  1  0  0  0  0
 19  8  1  0  0  0  0
 25 10  1  0  0  0  0
 27 11  1  0  0  0  0
 30 12  1  0  0  0  0
 31 13  1  0  0  0  0
 32 13  1  0  0  0  0
 33 13  1  0  0  0  0
 34 14  1  0  0  0  0
 37 15  1  0  0  0  0
 38 15  1  0  0  0  0
M  END
