12,17
 OpenBabel05122313053D

 30 31  0  0  0  0  0  0  0  0999 V2000
    4.0261   -1.2903   -1.4651 C   0  0  0  0  0  0  0  0  0  0  0  0
    4.0202   -0.4756   -2.2060 H   0  0  0  0  0  0  0  0  0  0  0  0
    5.2430   -1.8830   -1.1062 C   0  0  0  0  0  0  0  0  0  0  0  0
    6.1788   -1.5105   -1.5515 H   0  0  0  0  0  0  0  0  0  0  0  0
    5.2735   -2.9527   -0.1962 C   0  0  0  0  0  0  0  0  0  0  0  0
    6.2279   -3.4209    0.0872 H   0  0  0  0  0  0  0  0  0  0  0  0
    4.0604   -3.4241    0.3318 C   0  0  0  0  0  0  0  0  0  0  0  0
    4.0588   -4.2724    1.0341 H   0  0  0  0  0  0  0  0  0  0  0  0
    2.8442   -2.8272   -0.0239 C   0  0  0  0  0  0  0  0  0  0  0  0
    1.9141   -3.2244    0.4076 H   0  0  0  0  0  0  0  0  0  0  0  0
    2.7888   -1.7297   -0.9228 C   0  0  0  0  0  0  0  0  0  0  0  0
    1.5343   -1.0733   -1.3178 C   0  0  0  0  0  3  0  0  0  0  0  0
    1.6509   -0.4215   -2.2040 H   0  0  0  0  0  0  0  0  0  0  0  0
    0.2483   -1.6912   -1.1510 C   0  0  0  0  0  0  0  0  0  0  0  0
    0.1868   -2.6336   -0.5873 H   0  0  0  0  0  0  0  0  0  0  0  0
   -0.9560   -1.1256   -1.6135 C   0  0  0  0  0  0  0  0  0  0  0  0
   -0.8972    0.1797   -2.2682 C   0  0  0  0  0  3  0  0  0  0  0  0
   -1.8520    0.6389   -2.5612 H   0  0  0  0  0  0  0  0  0  0  0  0
   -0.1176    0.3111   -3.0458 H   0  0  0  0  0  0  0  0  0  0  0  0
   -2.2352   -1.8287   -1.3404 C   0  0  0  0  0  0  0  0  0  0  0  0
   -2.4110   -2.6512   -0.2009 C   0  0  0  0  0  0  0  0  0  0  0  0
   -1.6054   -2.7135    0.5450 H   0  0  0  0  0  0  0  0  0  0  0  0
   -3.6055   -3.3485    0.0114 C   0  0  0  0  0  0  0  0  0  0  0  0
   -3.7161   -3.9766    0.9092 H   0  0  0  0  0  0  0  0  0  0  0  0
   -4.6703   -3.2316   -0.8997 C   0  0  0  0  0  0  0  0  0  0  0  0
   -5.6124   -3.7739   -0.7283 H   0  0  0  0  0  0  0  0  0  0  0  0
   -4.5193   -2.4072   -2.0255 C   0  0  0  0  0  0  0  0  0  0  0  0
   -5.3435   -2.3054   -2.7485 H   0  0  0  0  0  0  0  0  0  0  0  0
   -3.3178   -1.7157   -2.2425 C   0  0  0  0  0  0  0  0  0  0  0  0
   -3.1996   -1.0904   -3.1402 H   0  0  0  0  0  0  0  0  0  0  0  0
  1  3  2  0  0  0  0
  1 11  1  0  0  0  0
  2  1  1  0  0  0  0
  3  5  1  0  0  0  0
  4  3  1  0  0  0  0
  5  6  1  0  0  0  0
  5  7  2  0  0  0  0
  7  8  1  0  0  0  0
  9  7  1  0  0  0  0
  9 10  1  0  0  0  0
 11  9  2  0  0  0  0
 12 14  1  0  0  0  0
 12 11  1  0  0  0  0
 13 12  1  0  0  0  0
 14 15  1  0  0  0  0
 16 20  1  0  0  0  0
 16 14  2  0  0  0  0
 17 16  1  0  0  0  0
 18 17  1  0  0  0  0
 19 17  1  0  0  0  0
 20 21  1  0  0  0  0
 21 23  2  0  0  0  0
 21 22  1  0  0  0  0
 23 24  1  0  0  0  0
 25 26  1  0  0  0  0
 25 23  1  0  0  0  0
 27 25  2  0  0  0  0
 28 27  1  0  0  0  0
 29 27  1  0  0  0  0
 29 20  2  0  0  0  0
 30 29  1  0  0  0  0
M  END
