2,16
 OpenBabel05122313053D

 58 63  0  0  1  0  0  0  0  0999 V2000
    0.9386    1.2291    1.0543 C   0  0  1  0  0  3  0  0  0  0  0  0
    0.5759    0.2937    2.0786 C   0  0  0  0  0  3  0  0  0  0  0  0
    1.4871   -0.8133    2.0344 C   0  0  0  0  0  0  0  0  0  0  0  0
    2.4004   -0.5785    0.9727 C   0  0  0  0  0  0  0  0  0  0  0  0
    2.0482    0.6677    0.3523 C   0  0  2  0  0  3  0  0  0  0  0  0
    3.0272    1.2452   -0.6328 C   0  0  2  0  0  0  0  0  0  0  0  0
    3.5167    0.1089   -1.5761 C   0  0  0  0  0  0  0  0  0  0  0  0
    4.4523   -0.3327   -0.4150 C   0  0  2  0  0  0  0  0  0  0  0  0
    3.6860   -1.2523    0.5629 C   0  0  0  0  0  0  0  0  0  0  0  0
    4.4615    1.1739    0.0533 C   0  0  0  0  0  0  0  0  0  0  0  0
    5.4964    2.0075   -0.7124 C   0  0  0  0  0  0  0  0  0  0  0  0
    4.5841    1.4933    1.5425 C   0  0  0  0  0  0  0  0  0  0  0  0
    0.2614    2.5343    0.7266 C   0  0  0  0  0  0  0  0  0  0  0  0
   -0.2614    2.5344   -0.7261 C   0  0  0  0  0  0  0  0  0  0  0  0
   -0.9386    1.2292   -1.0541 C   0  0  1  0  0  3  0  0  0  0  0  0
   -0.5758    0.2940   -2.0784 C   0  0  0  0  0  3  0  0  0  0  0  0
   -1.4870   -0.8130   -2.0344 C   0  0  0  0  0  0  0  0  0  0  0  0
   -2.4003   -0.5784   -0.9728 C   0  0  0  0  0  0  0  0  0  0  0  0
   -2.0482    0.6678   -0.3522 C   0  0  2  0  0  3  0  0  0  0  0  0
   -3.0273    1.2452    0.6329 C   0  0  2  0  0  0  0  0  0  0  0  0
   -3.5168    0.1087    1.5761 C   0  0  0  0  0  0  0  0  0  0  0  0
   -4.4524   -0.3328    0.4148 C   0  0  2  0  0  0  0  0  0  0  0  0
   -3.6859   -1.2522   -0.5631 C   0  0  0  0  0  0  0  0  0  0  0  0
   -4.4615    1.1739   -0.0534 C   0  0  0  0  0  0  0  0  0  0  0  0
   -4.5839    1.4934   -1.5425 C   0  0  0  0  0  0  0  0  0  0  0  0
   -5.4965    2.0075    0.7123 C   0  0  0  0  0  0  0  0  0  0  0  0
   -0.2625    0.4110    2.7780 H   0  0  0  0  0  0  0  0  0  0  0  0
    1.4675   -1.6865    2.6967 H   0  0  0  0  0  0  0  0  0  0  0  0
    2.7129    2.2165   -1.0642 H   0  0  0  0  0  0  0  0  0  0  0  0
    2.7640   -0.6222   -1.9245 H   0  0  0  0  0  0  0  0  0  0  0  0
    4.0784    0.4963   -2.4450 H   0  0  0  0  0  0  0  0  0  0  0  0
    5.4345   -0.7751   -0.6805 H   0  0  0  0  0  0  0  0  0  0  0  0
    3.4830   -2.2298    0.0745 H   0  0  0  0  0  0  0  0  0  0  0  0
    4.2968   -1.4610    1.4668 H   0  0  0  0  0  0  0  0  0  0  0  0
    6.5205    1.7667   -0.3590 H   0  0  0  0  0  0  0  0  0  0  0  0
    5.3293    3.0906   -0.5361 H   0  0  0  0  0  0  0  0  0  0  0  0
    5.4728    1.8376   -1.8057 H   0  0  0  0  0  0  0  0  0  0  0  0
    5.6025    1.2414    1.9052 H   0  0  0  0  0  0  0  0  0  0  0  0
    3.8567    0.9471    2.1713 H   0  0  0  0  0  0  0  0  0  0  0  0
    4.4304    2.5786    1.7190 H   0  0  0  0  0  0  0  0  0  0  0  0
   -0.5769    2.6905    1.4340 H   0  0  0  0  0  0  0  0  0  0  0  0
    0.9639    3.3812    0.8830 H   0  0  0  0  0  0  0  0  0  0  0  0
    0.5769    2.6908   -1.4335 H   0  0  0  0  0  0  0  0  0  0  0  0
   -0.9640    3.3814   -0.8823 H   0  0  0  0  0  0  0  0  0  0  0  0
    0.2627    0.4114   -2.7777 H   0  0  0  0  0  0  0  0  0  0  0  0
   -1.4673   -1.6861   -2.6969 H   0  0  0  0  0  0  0  0  0  0  0  0
   -2.7130    2.2164    1.0645 H   0  0  0  0  0  0  0  0  0  0  0  0
   -2.7642   -0.6225    1.9244 H   0  0  0  0  0  0  0  0  0  0  0  0
   -4.0786    0.4960    2.4450 H   0  0  0  0  0  0  0  0  0  0  0  0
   -5.4346   -0.7752    0.6802 H   0  0  0  0  0  0  0  0  0  0  0  0
   -4.2967   -1.4608   -1.4672 H   0  0  0  0  0  0  0  0  0  0  0  0
   -3.4830   -2.2298   -0.0749 H   0  0  0  0  0  0  0  0  0  0  0  0
   -5.6023    1.2416   -1.9054 H   0  0  0  0  0  0  0  0  0  0  0  0
   -3.8565    0.9473   -2.1713 H   0  0  0  0  0  0  0  0  0  0  0  0
   -4.4302    2.5788   -1.7190 H   0  0  0  0  0  0  0  0  0  0  0  0
   -6.5206    1.7667    0.3587 H   0  0  0  0  0  0  0  0  0  0  0  0
   -5.3294    3.0905    0.5361 H   0  0  0  0  0  0  0  0  0  0  0  0
   -5.4731    1.8374    1.8055 H   0  0  0  0  0  0  0  0  0  0  0  0
  1 13  1  6  0  0  0
  1  2  1  0  0  0  0
  2 27  1  0  0  0  0
  3  2  1  0  0  0  0
  3 28  1  0  0  0  0
  4  3  2  0  0  0  0
  5  4  1  1  0  0  0
  5  1  1  0  0  0  0
  6 29  1  6  0  0  0
  6 10  1  0  0  0  0
  6  5  1  0  0  0  0
  7  6  1  0  0  0  0
  7  8  1  0  0  0  0
  8 32  1  6  0  0  0
  8 10  1  0  0  0  0
  8  9  1  0  0  0  0
  9  4  1  0  0  0  0
  9 34  1  0  0  0  0
 10 12  1  0  0  0  0
 11 36  1  0  0  0  0
 11 35  1  0  0  0  0
 11 10  1  0  0  0  0
 12 40  1  0  0  0  0
 12 38  1  0  0  0  0
 12 39  1  0  0  0  0
 13 42  1  0  0  0  0
 13 41  1  0  0  0  0
 14 13  1  0  0  0  0
 15 14  1  1  0  0  0
 15 19  1  0  0  0  0
 16 17  1  0  0  0  0
 16 15  1  0  0  0  0
 17 18  2  0  0  0  0
 18 23  1  0  0  0  0
 19 18  1  6  0  0  0
 19 20  1  0  0  0  0
 20 47  1  1  0  0  0
 20 21  1  0  0  0  0
 21 48  1  0  0  0  0
 21 49  1  0  0  0  0
 22 50  1  1  0  0  0
 22 21  1  0  0  0  0
 23 52  1  0  0  0  0
 23 22  1  0  0  0  0
 24 22  1  0  0  0  0
 24 20  1  0  0  0  0
 24 26  1  0  0  0  0
 25 24  1  0  0  0  0
 26 58  1  0  0  0  0
 30  7  1  0  0  0  0
 31  7  1  0  0  0  0
 33  9  1  0  0  0  0
 37 11  1  0  0  0  0
 43 14  1  0  0  0  0
 44 14  1  0  0  0  0
 45 16  1  0  0  0  0
 46 17  1  0  0  0  0
 51 23  1  0  0  0  0
 53 25  1  0  0  0  0
 54 25  1  0  0  0  0
 55 25  1  0  0  0  0
 56 26  1  0  0  0  0
 57 26  1  0  0  0  0
M  END
