25,29
 OpenBabel05122313053D

 60 63  0  0  1  0  0  0  0  0999 V2000
    1.4629   -0.3178    2.1515 O   0  0  0  0  0  0  0  0  0  0  0  0
    0.6795   -2.0008    3.4629 O   0  0  0  0  0  0  0  0  0  0  0  0
   -0.1005    5.5435    0.0312 N   0  0  0  0  0  0  0  0  0  0  0  0
    6.9133   -1.0624   -0.9592 N   0  0  0  0  0  0  0  0  0  0  0  0
   -1.9522   -4.2852   -0.8397 N   0  0  0  0  0  0  0  0  0  0  0  0
    1.4987    0.0504    0.7232 C   0  0  0  0  0  0  0  0  0  0  0  0
    0.7352   -1.4542    2.3886 C   0  0  0  0  0  0  0  0  0  0  0  0
    1.1462    1.5226    0.5872 C   0  0  0  0  0  0  0  0  0  0  0  0
    1.4053    2.1998   -0.6194 C   0  0  0  0  0  0  0  0  0  0  0  0
    1.0145    3.5295   -0.8089 C   0  0  0  0  0  0  0  0  0  0  0  0
    0.3480    4.2459    0.2253 C   0  0  0  0  0  0  0  0  0  0  0  0
    0.1525    3.5720    1.4624 C   0  0  0  0  0  0  0  0  0  0  0  0
    0.5313    2.2367    1.6294 C   0  0  0  0  0  0  0  0  0  0  0  0
    0.1773    6.2223   -1.2160 C   0  0  0  0  0  0  0  0  0  0  0  0
   -0.6989    6.2705    1.1319 C   0  0  0  0  0  0  0  0  0  0  0  0
    2.9096   -0.2542    0.2194 C   0  0  0  0  0  0  0  0  0  0  0  0
    3.2147   -1.3385   -0.6218 C   0  0  0  0  0  0  0  0  0  0  0  0
    4.5290   -1.6115   -1.0180 C   0  0  0  0  0  0  0  0  0  0  0  0
    5.6107   -0.8027   -0.5733 C   0  0  0  0  0  0  0  0  0  0  0  0
    5.2964    0.2883    0.2885 C   0  0  0  0  0  0  0  0  0  0  0  0
    3.9793    0.5486    0.6650 C   0  0  0  0  0  0  0  0  0  0  0  0
    7.2014   -2.2020   -1.8033 C   0  0  0  0  0  0  0  0  0  0  0  0
    7.9950   -0.2432   -0.4542 C   0  0  0  0  0  0  0  0  0  0  0  0
    0.4726   -0.8930    0.1120 C   0  0  2  0  0  3  0  0  0  0  0  0
    0.1153   -1.8641    1.0879 C   0  0  2  0  0  3  0  0  0  0  0  0
   -0.7421   -2.9642    0.8321 C   0  0  0  0  0  0  0  0  0  0  0  0
   -1.1810   -3.2000   -0.5326 C   0  0  0  0  0  0  0  0  0  0  0  0
   -0.9380   -2.1475   -1.4971 C   0  0  0  0  0  3  0  0  0  0  0  0
   -0.1401   -0.9922   -1.1713 C   0  0  0  0  0  3  0  0  0  0  0  0
   -2.4608   -5.1241    0.2418 C   0  0  0  0  0  0  0  0  0  0  0  0
   -2.6841   -4.3088   -2.0987 C   0  0  0  0  0  0  0  0  0  0  0  0
    1.9359    1.6780   -1.4312 H   0  0  0  0  0  0  0  0  0  0  0  0
    1.2347    4.0125   -1.7693 H   0  0  0  0  0  0  0  0  0  0  0  0
   -0.3296    4.0849    2.3041 H   0  0  0  0  0  0  0  0  0  0  0  0
    0.3229    1.7273    2.5791 H   0  0  0  0  0  0  0  0  0  0  0  0
    1.2692    6.3549   -1.4025 H   0  0  0  0  0  0  0  0  0  0  0  0
   -0.2882    7.2245   -1.1997 H   0  0  0  0  0  0  0  0  0  0  0  0
   -0.2432    5.6710   -2.0871 H   0  0  0  0  0  0  0  0  0  0  0  0
   -1.0192    7.2681    0.7803 H   0  0  0  0  0  0  0  0  0  0  0  0
    0.0051    6.4162    1.9843 H   0  0  0  0  0  0  0  0  0  0  0  0
   -1.5977    5.7486    1.5290 H   0  0  0  0  0  0  0  0  0  0  0  0
    2.4119   -1.9986   -0.9816 H   0  0  0  0  0  0  0  0  0  0  0  0
    4.7104   -2.4689   -1.6783 H   0  0  0  0  0  0  0  0  0  0  0  0
    6.0916    0.9415    0.6695 H   0  0  0  0  0  0  0  0  0  0  0  0
    3.7678    1.3994    1.3300 H   0  0  0  0  0  0  0  0  0  0  0  0
    6.9097   -3.1674   -1.3282 H   0  0  0  0  0  0  0  0  0  0  0  0
    8.2862   -2.2411   -2.0101 H   0  0  0  0  0  0  0  0  0  0  0  0
    6.6727   -2.1416   -2.7817 H   0  0  0  0  0  0  0  0  0  0  0  0
    8.9517   -0.5973   -0.8790 H   0  0  0  0  0  0  0  0  0  0  0  0
    8.0788   -0.2863    0.6564 H   0  0  0  0  0  0  0  0  0  0  0  0
    7.8759    0.8273   -0.7367 H   0  0  0  0  0  0  0  0  0  0  0  0
   -1.0360   -3.6055    1.6698 H   0  0  0  0  0  0  0  0  0  0  0  0
   -1.4023   -2.1954   -2.4883 H   0  0  0  0  0  0  0  0  0  0  0  0
    0.0075   -0.2018   -1.9239 H   0  0  0  0  0  0  0  0  0  0  0  0
   -1.9969   -4.1797   -2.9587 H   0  0  0  0  0  0  0  0  0  0  0  0
   -3.4644   -3.5158   -2.1241 H   0  0  0  0  0  0  0  0  0  0  0  0
   -3.1745   -5.2928   -2.2090 H   0  0  0  0  0  0  0  0  0  0  0  0
   -3.1691   -4.5608    0.8879 H   0  0  0  0  0  0  0  0  0  0  0  0
   -1.6292   -5.5150    0.8600 H   0  0  0  0  0  0  0  0  0  0  0  0
   -2.9869   -5.9903   -0.1983 H   0  0  0  0  0  0  0  0  0  0  0  0
  1  7  1  0  0  0  0
  3 11  1  0  0  0  0
  3 15  1  0  0  0  0
  4 19  1  0  0  0  0
  4 23  1  0  0  0  0
  5 27  1  0  0  0  0
  5 30  1  0  0  0  0
  6  1  1  0  0  0  0
  7  2  2  0  0  0  0
  8  6  1  0  0  0  0
  8 13  1  0  0  0  0
  9  8  2  0  0  0  0
 10  9  1  0  0  0  0
 10 11  2  0  0  0  0
 11 12  1  0  0  0  0
 12 13  2  0  0  0  0
 12 34  1  0  0  0  0
 13 35  1  0  0  0  0
 14 37  1  0  0  0  0
 14  3  1  0  0  0  0
 15 41  1  0  0  0  0
 15 40  1  0  0  0  0
 16 21  1  0  0  0  0
 16  6  1  0  0  0  0
 17 16  2  0  0  0  0
 18 17  1  0  0  0  0
 18 19  2  0  0  0  0
 19 20  1  0  0  0  0
 20 21  2  0  0  0  0
 20 44  1  0  0  0  0
 21 45  1  0  0  0  0
 22 46  1  0  0  0  0
 22  4  1  0  0  0  0
 23 50  1  0  0  0  0
 24 29  1  6  0  0  0
 24  6  1  0  0  0  0
 24 25  1  0  0  0  0
 25 26  1  1  0  0  0
 25  7  1  0  0  0  0
 26 52  1  0  0  0  0
 27 26  2  0  0  0  0
 28 29  1  0  0  0  0
 28 27  1  0  0  0  0
 30 59  1  0  0  0  0
 30 58  1  0  0  0  0
 31  5  1  0  0  0  0
 32  9  1  0  0  0  0
 33 10  1  0  0  0  0
 36 14  1  0  0  0  0
 38 14  1  0  0  0  0
 39 15  1  0  0  0  0
 42 17  1  0  0  0  0
 43 18  1  0  0  0  0
 47 22  1  0  0  0  0
 48 22  1  0  0  0  0
 49 23  1  0  0  0  0
 51 23  1  0  0  0  0
 53 28  1  0  0  0  0
 54 29  1  0  0  0  0
 55 31  1  0  0  0  0
 56 31  1  0  0  0  0
 57 31  1  0  0  0  0
 60 30  1  0  0  0  0
M  END
