29,35
 OpenBabel05122313053D

 37 40  0  0  1  0  0  0  0  0999 V2000
    0.5934    2.6294    0.8371 N   0  0  0  0  0  0  0  0  0  0  0  0
    1.8334    2.2025    0.8841 N   0  0  0  0  0  0  0  0  0  0  0  0
    2.1803    1.1602    0.0741 C   0  0  0  0  0  0  0  0  0  0  0  0
    1.2765    0.3741   -0.5278 N   0  0  0  0  0  0  0  0  0  0  0  0
   -0.0172    0.7122   -0.4420 C   0  0  0  0  0  0  0  0  0  0  0  0
   -0.3499    1.9883    0.1080 C   0  0  0  0  0  0  0  0  0  0  0  0
   -1.6542    2.6689   -0.0240 C   0  0  0  0  0  0  0  0  0  0  0  0
   -2.1336    3.4747    1.0332 C   0  0  0  0  0  0  0  0  0  0  0  0
   -1.5246    3.5591    1.9443 H   0  0  0  0  0  0  0  0  0  0  0  0
   -3.3576    4.1446    0.9132 C   0  0  0  0  0  0  0  0  0  0  0  0
   -3.7260    4.7604    1.7477 H   0  0  0  0  0  0  0  0  0  0  0  0
   -4.1136    4.0328   -0.2655 C   0  0  0  0  0  0  0  0  0  0  0  0
   -5.0753    4.5599   -0.3577 H   0  0  0  0  0  0  0  0  0  0  0  0
   -3.6336    3.2522   -1.3304 C   0  0  0  0  0  0  0  0  0  0  0  0
   -4.2111    3.1772   -2.2641 H   0  0  0  0  0  0  0  0  0  0  0  0
   -2.4133    2.5749   -1.2129 C   0  0  0  0  0  0  0  0  0  0  0  0
   -2.0340    1.9802   -2.0572 H   0  0  0  0  0  0  0  0  0  0  0  0
    3.6177    0.8550   -0.0723 C   0  0  0  0  0  0  0  0  0  0  0  0
    4.5884    1.7499    0.4300 C   0  0  0  0  0  0  0  0  0  0  0  0
    4.2474    2.6684    0.9280 H   0  0  0  0  0  0  0  0  0  0  0  0
    5.9505    1.4587    0.2901 C   0  0  0  0  0  0  0  0  0  0  0  0
    6.7025    2.1609    0.6806 H   0  0  0  0  0  0  0  0  0  0  0  0
    6.3580    0.2745   -0.3474 C   0  0  0  0  0  0  0  0  0  0  0  0
    7.4297    0.0474   -0.4553 H   0  0  0  0  0  0  0  0  0  0  0  0
    5.3958   -0.6223   -0.8425 C   0  0  0  0  0  0  0  0  0  0  0  0
    5.7126   -1.5559   -1.3315 H   0  0  0  0  0  0  0  0  0  0  0  0
    4.0323   -0.3368   -0.7067 C   0  0  0  0  0  0  0  0  0  0  0  0
    3.2673   -1.0386   -1.0668 H   0  0  0  0  0  0  0  0  0  0  0  0
   -2.3572   -0.4832   -0.4266 C   0  0  0  0  0  3  0  0  0  0  0  0
   -2.8868    0.1577    0.2866 H   0  0  0  0  0  0  0  0  0  0  0  0
   -2.8918   -1.6338   -1.0765 C   0  0  0  0  0  0  0  0  0  0  0  0
   -3.9045   -2.0322   -0.9452 H   0  0  0  0  0  0  0  0  0  0  0  0
   -1.8641   -2.1874   -1.9211 C   0  0  0  0  0  0  0  0  0  0  0  0
   -1.9598   -3.0768   -2.5545 H   0  0  0  0  0  0  0  0  0  0  0  0
   -0.6994   -1.3784   -1.7847 C   0  0  0  0  0  3  0  0  0  0  0  0
    0.2647   -1.5146   -2.2868 H   0  0  0  0  0  0  0  0  0  0  0  0
   -0.9949   -0.3006   -0.8693 C   0  0  2  0  0  3  0  0  0  0  0  0
  1  2  1  0  0  0  0
  3  2  2  0  0  0  0
  4  5  2  0  0  0  0
  4  3  1  0  0  0  0
  5  6  1  0  0  0  0
  6  1  2  0  0  0  0
  7  6  1  0  0  0  0
  7  8  1  0  0  0  0
  8  9  1  0  0  0  0
 10  8  2  0  0  0  0
 10 11  1  0  0  0  0
 12 10  1  0  0  0  0
 13 12  1  0  0  0  0
 14 16  1  0  0  0  0
 14 12  2  0  0  0  0
 15 14  1  0  0  0  0
 16  7  2  0  0  0  0
 17 16  1  0  0  0  0
 18  3  1  0  0  0  0
 18 19  1  0  0  0  0
 19 20  1  0  0  0  0
 21 19  2  0  0  0  0
 21 22  1  0  0  0  0
 23 21  1  0  0  0  0
 24 23  1  0  0  0  0
 25 27  1  0  0  0  0
 25 23  2  0  0  0  0
 26 25  1  0  0  0  0
 27 18  2  0  0  0  0
 28 27  1  0  0  0  0
 29 30  1  0  0  0  0
 31 32  1  0  0  0  0
 31 29  1  0  0  0  0
 33 35  1  0  0  0  0
 33 31  2  0  0  0  0
 34 33  1  0  0  0  0
 35 37  1  0  0  0  0
 36 35  1  0  0  0  0
 37  5  1  1  0  0  0
 37 29  1  0  0  0  0
M  END
