4,10
 OpenBabel05122313053D

 19 20  0  0  1  0  0  0  0  0999 V2000
    0.4258    0.6280   -0.9352 C   0  0  2  0  0  3  0  0  0  0  0  0
    2.3226   -0.8586   -0.4204 N   0  3  0  0  0  0  0  0  0  0  0  0
    1.7743    0.4294   -0.4172 C   0  0  0  0  0  0  0  0  0  0  0  0
   -0.3967    1.7896   -0.6564 C   0  0  0  0  0  3  0  0  0  0  0  0
   -0.1191    2.6380   -0.0205 H   0  0  0  0  0  0  0  0  0  0  0  0
    4.3453   -0.0486    0.6041 N   0  0  0  0  0  0  0  0  0  0  0  0
    1.7005   -1.8656   -0.8656 O   0  5  0  0  0  0  0  0  0  0  0  0
    2.5639    1.4687    0.1063 C   0  0  0  0  0  0  0  0  0  0  0  0
    2.1668    2.4932    0.1015 H   0  0  0  0  0  0  0  0  0  0  0  0
   -0.3555   -0.2377   -1.7927 C   0  0  0  0  0  3  0  0  0  0  0  0
   -0.0114   -1.2079   -2.1595 H   0  0  0  0  0  0  0  0  0  0  0  0
    3.8373    1.2014    0.6088 C   0  0  0  0  0  0  0  0  0  0  0  0
    4.4708    2.0032    1.0210 H   0  0  0  0  0  0  0  0  0  0  0  0
   -1.6334    1.6448   -1.3452 C   0  0  0  0  0  0  0  0  0  0  0  0
   -2.4632    2.3608   -1.3268 H   0  0  0  0  0  0  0  0  0  0  0  0
   -1.6065    0.3936   -2.0546 C   0  0  0  0  0  0  0  0  0  0  0  0
   -2.4118   -0.0152   -2.6752 H   0  0  0  0  0  0  0  0  0  0  0  0
    3.6058   -1.0140    0.1097 C   0  0  0  0  0  0  0  0  0  0  0  0
    3.9473   -2.0612    0.0712 H   0  0  0  0  0  0  0  0  0  0  0  0
  1  4  1  0  0  0  0
  1  3  1  1  0  0  0
  2  3  2  0  0  0  0
  2 18  1  0  0  0  0
  3  8  1  0  0  0  0
  4  5  1  0  0  0  0
  6 12  1  0  0  0  0
  7  2  1  0  0  0  0
  8 12  2  0  0  0  0
  9  8  1  0  0  0  0
 10  1  1  0  0  0  0
 11 10  1  0  0  0  0
 12 13  1  0  0  0  0
 14 15  1  0  0  0  0
 14  4  1  0  0  0  0
 16 10  1  0  0  0  0
 16 14  2  0  0  0  0
 17 16  1  0  0  0  0
 18  6  2  0  0  0  0
 19 18  1  0  0  0  0
M  CHG  2   2   1   7  -1
M  END
