4,8
 OpenBabel05122313053D

 39 42  0  0  1  0  0  0  0  0999 V2000
   -0.5968   -0.4720   -0.1030 N   0  0  0  0  0  0  0  0  0  0  0  0
   -1.6376    1.4537   -0.1170 N   0  0  0  0  0  0  0  0  0  0  0  0
   -8.0918   -2.7720    0.3577 N   0  0  0  0  0  0  0  0  0  0  0  0
    0.4171    0.5215   -0.0734 C   0  0  0  0  0  3  0  0  0  0  0  0
   -0.2717    1.7244   -0.0959 C   0  0  0  0  0  0  0  0  0  0  0  0
   -1.8349    0.0945   -0.1078 C   0  0  2  0  0  3  0  0  0  0  0  0
   -0.1123   -1.8107   -0.2095 C   0  0  0  0  0  0  0  0  0  0  0  0
    1.3117   -1.8566   -0.1322 C   0  0  0  0  0  2  0  0  0  0  0  0
    1.9156   -3.1280   -0.2207 C   0  0  0  0  0  3  0  0  0  0  0  0
    1.1415   -4.2843   -0.4029 C   0  0  0  0  0  0  0  0  0  0  0  0
   -0.2576   -4.1988   -0.5218 C   0  0  0  0  0  0  0  0  0  0  0  0
   -0.8976   -2.9536   -0.4311 C   0  0  0  0  0  0  0  0  0  0  0  0
   -2.6546    2.4565   -0.0548 C   0  0  0  0  0  0  0  0  0  0  0  0
   -2.6454    3.4924   -1.0053 C   0  0  0  0  0  0  0  0  0  0  0  0
   -3.6277    4.4911   -0.9458 C   0  0  0  0  0  0  0  0  0  0  0  0
   -4.6174    4.4515    0.0493 C   0  0  0  0  0  0  0  0  0  0  0  0
   -4.6159    3.4154    0.9973 C   0  0  0  0  0  0  0  0  0  0  0  0
   -3.6315    2.4191    0.9562 C   0  0  0  0  0  0  0  0  0  0  0  0
   -3.1479   -0.5511   -0.0434 C   0  0  0  0  0  0  0  0  0  0  0  0
   -4.1775   -0.1806   -0.9404 C   0  0  0  0  0  0  0  0  0  0  0  0
   -5.4472   -0.7516   -0.8415 C   0  0  0  0  0  0  0  0  0  0  0  0
   -5.7174   -1.7124    0.1617 C   0  0  0  0  0  0  0  0  0  0  0  0
   -4.6902   -2.0894    1.0607 C   0  0  0  0  0  0  0  0  0  0  0  0
   -3.4237   -1.5125    0.9589 C   0  0  0  0  0  0  0  0  0  0  0  0
   -7.0215   -2.2966    0.2687 C   0  0  0  0  0  0  0  0  0  0  0  0
    0.1039    2.7494   -0.0441 H   0  0  0  0  0  0  0  0  0  0  0  0
    3.0126   -3.1914   -0.1561 H   0  0  0  0  0  0  0  0  0  0  0  0
    1.6344   -5.2670   -0.4707 H   0  0  0  0  0  0  0  0  0  0  0  0
   -0.8584   -5.1042   -0.6941 H   0  0  0  0  0  0  0  0  0  0  0  0
   -1.9860   -2.8904   -0.5540 H   0  0  0  0  0  0  0  0  0  0  0  0
   -1.8748    3.5008   -1.7900 H   0  0  0  0  0  0  0  0  0  0  0  0
   -3.6228    5.3016   -1.6897 H   0  0  0  0  0  0  0  0  0  0  0  0
   -5.3901    5.2334    0.0893 H   0  0  0  0  0  0  0  0  0  0  0  0
   -5.3822    3.3865    1.7860 H   0  0  0  0  0  0  0  0  0  0  0  0
   -3.6121    1.6156    1.7054 H   0  0  0  0  0  0  0  0  0  0  0  0
   -3.9727    0.5583   -1.7278 H   0  0  0  0  0  0  0  0  0  0  0  0
   -6.2412   -0.4646   -1.5450 H   0  0  0  0  0  0  0  0  0  0  0  0
   -4.9004   -2.8306    1.8444 H   0  0  0  0  0  0  0  0  0  0  0  0
   -2.6334   -1.7991    1.6676 H   0  0  0  0  0  0  0  0  0  0  0  0
  1  4  1  0  0  0  0
  2  6  1  0  0  0  0
  2  5  1  0  0  0  0
  2 13  1  0  0  0  0
  5  4  2  0  0  0  0
  5 26  1  0  0  0  0
  6  1  1  0  0  0  0
  6 19  1  1  0  0  0
  7  8  1  0  0  0  0
  7  1  1  0  0  0  0
  9 27  1  0  0  0  0
  9  8  1  0  0  0  0
 10  9  1  0  0  0  0
 11 12  1  0  0  0  0
 11 10  2  0  0  0  0
 12  7  2  0  0  0  0
 13 18  1  0  0  0  0
 14 15  1  0  0  0  0
 14 13  2  0  0  0  0
 15 16  2  0  0  0  0
 16 33  1  0  0  0  0
 16 17  1  0  0  0  0
 17 34  1  0  0  0  0
 18 17  2  0  0  0  0
 18 35  1  0  0  0  0
 19 24  1  0  0  0  0
 20 21  1  0  0  0  0
 20 19  2  0  0  0  0
 21 22  2  0  0  0  0
 22 25  1  0  0  0  0
 22 23  1  0  0  0  0
 23 38  1  0  0  0  0
 24 23  2  0  0  0  0
 24 39  1  0  0  0  0
 25  3  3  0  0  0  0
 28 10  1  0  0  0  0
 29 11  1  0  0  0  0
 30 12  1  0  0  0  0
 31 14  1  0  0  0  0
 32 15  1  0  0  0  0
 36 20  1  0  0  0  0
 37 21  1  0  0  0  0
M  END
