13,17
 OpenBabel05122313053D

 22 23  0  0  1  0  0  0  0  0999 V2000
   -0.8676   -0.0307   -1.4340 P   0  0  0  0  0  4  0  0  0  0  0  0
   -2.4849    1.3991    0.3298 P   0  0  0  0  0  4  0  0  0  0  0  0
   -2.4939   -1.3800    0.3841 P   0  0  0  0  0  4  0  0  0  0  0  0
   -1.2919   -0.0638   -2.9886 F   0  0  0  0  0  0  0  0  0  0  0  0
   -1.9897    2.3452    1.5017 F   0  0  0  0  0  0  0  0  0  0  0  0
   -3.7361    2.2628   -0.1333 F   0  0  0  0  0  0  0  0  0  0  0  0
   -3.7506   -2.2491   -0.0541 F   0  0  0  0  0  0  0  0  0  0  0  0
   -2.0136   -2.2867    1.5925 F   0  0  0  0  0  0  0  0  0  0  0  0
   -1.3913    1.3812   -0.8362 N   0  0  0  0  0  2  0  0  0  0  0  0
   -3.0101    0.0229    0.9577 N   0  0  0  0  0  2  0  0  0  0  0  0
   -1.3929   -1.4144   -0.7746 N   0  0  0  0  0  2  0  0  0  0  0  0
    0.9178   -0.0352   -1.5334 C   0  0  1  0  0  3  0  0  0  0  0  0
    1.6386    1.2019   -1.5151 C   0  0  0  0  0  3  0  0  0  0  0  0
    3.0582    1.2026   -1.4786 C   0  0  0  0  0  3  0  0  0  0  0  0
    3.7544   -0.0359   -1.3894 C   0  0  0  0  0  0  0  0  0  0  0  0
    3.0545   -1.2755   -1.4218 C   0  0  0  0  0  0  0  0  0  0  0  0
    1.6352   -1.2724   -1.4593 C   0  0  0  0  0  3  0  0  0  0  0  0
    1.0770    2.1468   -1.4944 H   0  0  0  0  0  0  0  0  0  0  0  0
    3.6063    2.1523   -1.4257 H   0  0  0  0  0  0  0  0  0  0  0  0
    4.8478   -0.0350   -1.2767 H   0  0  0  0  0  0  0  0  0  0  0  0
    3.5999   -2.2234   -1.3256 H   0  0  0  0  0  0  0  0  0  0  0  0
    1.0709   -2.2138   -1.3957 H   0  0  0  0  0  0  0  0  0  0  0  0
  1  9  1  0  0  0  0
  1 11  1  0  0  0  0
  2 10  1  0  0  0  0
  2  5  1  0  0  0  0
  3 10  1  0  0  0  0
  3  8  1  0  0  0  0
  4  1  1  0  0  0  0
  6  2  1  0  0  0  0
  7  3  1  0  0  0  0
  9  2  1  0  0  0  0
 11  3  1  0  0  0  0
 12 13  1  1  0  0  0
 12 17  1  0  0  0  0
 12  1  1  0  0  0  0
 13 18  1  0  0  0  0
 13 14  1  0  0  0  0
 14 19  1  0  0  0  0
 14 15  1  0  0  0  0
 15 20  1  0  0  0  0
 16 15  2  0  0  0  0
 16 21  1  0  0  0  0
 17 16  1  0  0  0  0
 17 22  1  0  0  0  0
M  END
