1,11
 OpenBabel05122313053D

 26 26  0  0  1  0  0  0  0  0999 V2000
    0.5208    0.5148    0.4068 C   0  0  1  0  0  3  0  0  0  0  0  0
    0.5522   -0.9060    0.0754 C   0  0  2  0  0  3  0  0  0  0  0  0
    1.6195   -1.5328   -0.7980 C   0  0  0  0  0  0  0  0  0  0  0  0
    2.7865   -2.0837    0.0448 C   0  0  0  0  0  0  0  0  0  0  0  0
    3.5925   -0.9991    0.7912 C   0  0  0  0  0  0  0  0  0  0  0  0
    4.2406   -0.0353   -0.1602 C   0  0  0  0  0  0  0  0  0  0  0  0
    3.8202    1.2157   -0.4419 C   0  0  0  0  0  0  0  0  0  0  0  0
    2.6544    1.9402    0.1875 C   0  0  0  0  0  0  0  0  0  0  0  0
    1.2533    1.5736   -0.3932 C   0  0  0  0  0  0  0  0  0  0  0  0
   -0.2598    0.9203    1.5191 C   0  0  0  0  0  3  0  0  0  0  0  0
   -0.5677   -1.6165    0.5382 C   0  0  0  0  0  2  0  0  0  0  0  0
   -0.3652    0.2786    2.4033 H   0  0  0  0  0  0  0  0  0  0  0  0
   -0.3854    2.0009    1.6910 H   0  0  0  0  0  0  0  0  0  0  0  0
    4.3683    1.7728   -1.2219 H   0  0  0  0  0  0  0  0  0  0  0  0
    5.1048   -0.4271   -0.7268 H   0  0  0  0  0  0  0  0  0  0  0  0
    4.3689   -1.5035    1.4054 H   0  0  0  0  0  0  0  0  0  0  0  0
    2.9256   -0.4656    1.5011 H   0  0  0  0  0  0  0  0  0  0  0  0
    2.6318    1.7752    1.2859 H   0  0  0  0  0  0  0  0  0  0  0  0
    2.8057    3.0290    0.0480 H   0  0  0  0  0  0  0  0  0  0  0  0
    1.3467    1.2813   -1.4579 H   0  0  0  0  0  0  0  0  0  0  0  0
    0.6197    2.4831   -0.3761 H   0  0  0  0  0  0  0  0  0  0  0  0
    1.1699   -2.3609   -1.3805 H   0  0  0  0  0  0  0  0  0  0  0  0
    2.0096   -0.7957   -1.5303 H   0  0  0  0  0  0  0  0  0  0  0  0
    2.3915   -2.8164    0.7811 H   0  0  0  0  0  0  0  0  0  0  0  0
    3.4666   -2.6512   -0.6268 H   0  0  0  0  0  0  0  0  0  0  0  0
   -0.6401   -2.7175    0.5568 H   0  0  0  0  0  0  0  0  0  0  0  0
  1 10  1  6  0  0  0
  2  1  1  0  0  0  0
  2 11  1  6  0  0  0
  3  4  1  0  0  0  0
  3  2  1  0  0  0  0
  4 24  1  0  0  0  0
  4  5  1  0  0  0  0
  5 16  1  0  0  0  0
  5 17  1  0  0  0  0
  6  5  1  0  0  0  0
  7  6  2  0  0  0  0
  7  8  1  0  0  0  0
  8 18  1  0  0  0  0
  9 21  1  0  0  0  0
  9  8  1  0  0  0  0
  9  1  1  0  0  0  0
 10 13  1  0  0  0  0
 10 12  1  0  0  0  0
 11 26  1  0  0  0  0
 14  7  1  0  0  0  0
 15  6  1  0  0  0  0
 19  8  1  0  0  0  0
 20  9  1  0  0  0  0
 22  3  1  0  0  0  0
 23  3  1  0  0  0  0
 25  4  1  0  0  0  0
M  END
