1,5
 OpenBabel05122313053D

 39 39  0  0  0  0  0  0  0  0999 V2000
   -0.9844    0.8044   -0.0419 C   0  0  0  0  0  3  0  0  0  0  0  0
   -0.8748    2.1604   -0.1460 C   0  0  0  0  0  0  0  0  0  0  0  0
    0.5325    2.7538   -0.1613 C   0  0  0  0  0  0  0  0  0  0  0  0
    1.4737    1.5781   -0.3916 C   0  0  0  0  0  3  0  0  0  0  0  0
    2.2812    0.9832    0.5879 C   0  0  0  0  0  3  0  0  0  0  0  0
    3.0007   -0.2273    0.2872 C   0  0  0  0  0  3  0  0  0  0  0  0
   -2.3212    0.1646    0.0708 C   0  0  0  0  0  0  0  0  0  0  0  0
   -2.7378   -0.4664    1.2682 C   0  0  0  0  0  0  0  0  0  0  0  0
   -3.9929   -1.0842    1.3600 C   0  0  0  0  0  0  0  0  0  0  0  0
   -4.8649   -1.0970    0.2577 C   0  0  0  0  0  0  0  0  0  0  0  0
   -4.4725   -0.4693   -0.9348 C   0  0  0  0  0  0  0  0  0  0  0  0
   -3.2194    0.1559   -1.0239 C   0  0  0  0  0  0  0  0  0  0  0  0
   -2.0413    3.1191   -0.1510 C   0  0  0  0  0  0  0  0  0  0  0  0
    0.8127    3.4523    1.1876 C   0  0  0  0  0  0  0  0  0  0  0  0
    0.7220    3.7696   -1.3088 C   0  0  0  0  0  0  0  0  0  0  0  0
    3.8359   -0.2688   -0.9867 C   0  0  0  0  0  0  0  0  0  0  0  0
    3.6504   -0.9704    1.4393 C   0  0  0  0  0  0  0  0  0  0  0  0
    1.7177    1.3870   -1.4523 H   0  0  0  0  0  0  0  0  0  0  0  0
    2.1849    1.3081    1.6356 H   0  0  0  0  0  0  0  0  0  0  0  0
   -2.0594   -0.4744    2.1334 H   0  0  0  0  0  0  0  0  0  0  0  0
   -4.2933   -1.5632    2.3049 H   0  0  0  0  0  0  0  0  0  0  0  0
   -5.8461   -1.5903    0.3298 H   0  0  0  0  0  0  0  0  0  0  0  0
   -5.1490   -0.4628   -1.8038 H   0  0  0  0  0  0  0  0  0  0  0  0
   -2.9214    0.6586   -1.9579 H   0  0  0  0  0  0  0  0  0  0  0  0
   -2.9915    2.6136    0.1011 H   0  0  0  0  0  0  0  0  0  0  0  0
   -1.8914    3.9460    0.5758 H   0  0  0  0  0  0  0  0  0  0  0  0
   -2.1720    3.5988   -1.1457 H   0  0  0  0  0  0  0  0  0  0  0  0
    0.6286    2.7677    2.0387 H   0  0  0  0  0  0  0  0  0  0  0  0
    1.8605    3.8130    1.2400 H   0  0  0  0  0  0  0  0  0  0  0  0
    0.1487    4.3293    1.3184 H   0  0  0  0  0  0  0  0  0  0  0  0
    0.4964    3.3046   -2.2908 H   0  0  0  0  0  0  0  0  0  0  0  0
    1.7669    4.1420   -1.3349 H   0  0  0  0  0  0  0  0  0  0  0  0
    0.0550    4.6459   -1.1862 H   0  0  0  0  0  0  0  0  0  0  0  0
    4.7986    0.2592   -0.8011 H   0  0  0  0  0  0  0  0  0  0  0  0
    3.3549    0.2236   -1.8520 H   0  0  0  0  0  0  0  0  0  0  0  0
    4.0971   -1.3028   -1.2861 H   0  0  0  0  0  0  0  0  0  0  0  0
    3.0755   -0.8665    2.3790 H   0  0  0  0  0  0  0  0  0  0  0  0
    3.7363   -2.0546    1.2186 H   0  0  0  0  0  0  0  0  0  0  0  0
    4.6851   -0.5980    1.6183 H   0  0  0  0  0  0  0  0  0  0  0  0
  1  7  1  0  0  0  0
  2  1  2  0  0  0  0
  3  2  1  0  0  0  0
  3 14  1  0  0  0  0
  4  3  1  0  0  0  0
  4  5  1  0  0  0  0
  5 19  1  0  0  0  0
  6  5  1  0  0  0  0
  6 17  1  0  0  0  0
  7  8  1  0  0  0  0
  8  9  2  0  0  0  0
  8 20  1  0  0  0  0
  9 21  1  0  0  0  0
 10 22  1  0  0  0  0
 10  9  1  0  0  0  0
 11 10  2  0  0  0  0
 12 11  1  0  0  0  0
 12  7  2  0  0  0  0
 13  2  1  0  0  0  0
 13 25  1  0  0  0  0
 13 26  1  0  0  0  0
 14 29  1  0  0  0  0
 14 30  1  0  0  0  0
 14 28  1  0  0  0  0
 15 33  1  0  0  0  0
 15  3  1  0  0  0  0
 16 34  1  0  0  0  0
 16  6  1  0  0  0  0
 17 39  1  0  0  0  0
 17 37  1  0  0  0  0
 18  4  1  0  0  0  0
 23 11  1  0  0  0  0
 24 12  1  0  0  0  0
 27 13  1  0  0  0  0
 31 15  1  0  0  0  0
 32 15  1  0  0  0  0
 35 16  1  0  0  0  0
 36 16  1  0  0  0  0
 38 17  1  0  0  0  0
M  END
