4,7
 OpenBabel05122313053D

 24 26  0  0  1  0  0  0  0  0999 V2000
   -3.0215   -0.4201   -0.8152 O   0  0  0  0  0  0  0  0  0  0  0  0
   -2.0512   -0.8275    1.2013 O   0  0  0  0  0  0  0  0  0  0  0  0
   -0.0422   -1.2464   -1.3309 C   0  0  0  0  0  0  0  0  0  0  0  0
   -0.6015   -0.0684   -0.7503 C   0  0  2  0  0  3  0  0  0  0  0  0
   -1.1387   -2.1219   -0.7772 C   0  0  0  0  0  0  0  0  0  0  0  0
   -1.4330   -3.2900   -0.8188 O   0  0  0  0  0  0  0  0  0  0  0  0
    1.3063    1.2099   -1.5175 C   0  0  0  0  0  3  0  0  0  0  0  0
    1.8702    2.1522   -1.5571 H   0  0  0  0  0  0  0  0  0  0  0  0
    1.2302   -1.2324   -1.9727 C   0  0  0  0  0  0  0  0  0  0  0  0
    1.7034   -2.1492   -2.3500 H   0  0  0  0  0  0  0  0  0  0  0  0
    0.0521    1.1896   -0.8311 C   0  0  1  0  0  3  0  0  0  0  0  0
   -1.4143    3.0125   -1.1095 F   0  0  0  0  0  0  0  0  0  0  0  0
   -1.8334   -0.8071   -0.1739 C   0  0  0  0  0  0  0  0  0  0  0  0
    1.8720    0.0299   -2.1022 C   0  0  0  0  0  3  0  0  0  0  0  0
    2.8649    0.0948   -2.5681 H   0  0  0  0  0  0  0  0  0  0  0  0
   -4.0732   -0.5616    0.1457 C   0  0  0  0  0  0  0  0  0  0  0  0
   -4.4827   -1.5967    0.1288 H   0  0  0  0  0  0  0  0  0  0  0  0
   -4.8735    0.1604   -0.1065 H   0  0  0  0  0  0  0  0  0  0  0  0
    0.4070    3.3629    0.0387 F   0  0  0  0  0  0  0  0  0  0  0  0
   -0.5422    2.4443   -0.2433 C   0  0  0  0  0  0  0  0  0  0  0  0
   -1.2234    2.1795    0.8964 F   0  0  0  0  0  0  0  0  0  0  0  0
   -3.3452   -0.2646    1.4533 C   0  0  0  0  0  0  0  0  0  0  0  0
   -3.2633    0.8280    1.6436 H   0  0  0  0  0  0  0  0  0  0  0  0
   -3.7769   -0.7675    2.3396 H   0  0  0  0  0  0  0  0  0  0  0  0
  1 13  1  0  0  0  0
  1 16  1  0  0  0  0
  2 22  1  0  0  0  0
  3  5  1  0  0  0  0
  4  3  1  1  0  0  0
  4 13  1  0  0  0  0
  5 13  1  0  0  0  0
  6  5  2  0  0  0  0
  7 11  1  0  0  0  0
  8  7  1  0  0  0  0
  9  3  2  0  0  0  0
 10  9  1  0  0  0  0
 11  4  1  0  0  0  0
 11 20  1  6  0  0  0
 12 20  1  0  0  0  0
 13  2  1  0  0  0  0
 14  9  1  0  0  0  0
 14  7  1  0  0  0  0
 15 14  1  0  0  0  0
 16 22  1  0  0  0  0
 17 16  1  0  0  0  0
 18 16  1  0  0  0  0
 20 19  1  0  0  0  0
 20 21  1  0  0  0  0
 22 23  1  0  0  0  0
 22 24  1  0  0  0  0
M  END
