2,4
 OpenBabel05122313053D

 51 54  0  0  0  0  0  0  0  0999 V2000
   -1.6638   -0.2813    0.1469 P   0  0  0  0  0  4  0  0  0  0  0  0
    1.8368    0.0238    1.6162 C   0  0  0  0  0  3  0  0  0  0  0  0
    2.2113   -0.4256    2.6731 O   0  0  0  0  0  0  0  0  0  0  0  0
   -0.0708    0.2349   -0.4104 C   0  0  0  0  0  2  0  0  0  0  0  0
    0.5444    1.4899    0.0842 C   0  0  0  0  0  0  0  0  0  0  0  0
    0.4137    2.7692   -0.5745 C   0  0  0  0  0  0  0  0  0  0  0  0
    1.0576    3.8946   -0.0449 C   0  0  0  0  0  0  0  0  0  0  0  0
    1.8924    3.7770    1.0919 C   0  0  0  0  0  0  0  0  0  0  0  0
    2.1143    2.5502    1.7100 C   0  0  0  0  0  0  0  0  0  0  0  0
    1.4113    1.4111    1.2422 C   0  0  0  0  0  0  0  0  0  0  0  0
   -0.3630    2.7712   -1.6729 O   0  0  0  0  0  0  0  0  0  0  0  0
   -0.6042    4.0023   -2.3484 C   0  0  0  0  0  0  0  0  0  0  0  0
   -1.6285   -2.0919   -1.9847 C   0  0  0  0  0  0  0  0  0  0  0  0
   -2.1296   -3.1810   -2.7121 C   0  0  0  0  0  0  0  0  0  0  0  0
   -3.2147   -3.9210   -2.2171 C   0  0  0  0  0  0  0  0  0  0  0  0
   -3.8123   -3.5695   -0.9948 C   0  0  0  0  0  0  0  0  0  0  0  0
   -3.3237   -2.4807   -0.2613 C   0  0  0  0  0  0  0  0  0  0  0  0
   -2.2194   -1.7513   -0.7520 C   0  0  0  0  0  0  0  0  0  0  0  0
   -1.2896    0.4814    2.7919 C   0  0  0  0  0  0  0  0  0  0  0  0
   -0.9363    0.2510    4.1278 C   0  0  0  0  0  0  0  0  0  0  0  0
   -0.7797   -1.0615    4.5999 C   0  0  0  0  0  0  0  0  0  0  0  0
   -0.9783   -2.1500    3.7361 C   0  0  0  0  0  0  0  0  0  0  0  0
   -1.3273   -1.9355    2.3958 C   0  0  0  0  0  0  0  0  0  0  0  0
   -1.4931   -0.6166    1.9221 C   0  0  0  0  0  0  0  0  0  0  0  0
   -3.0715    1.5186   -1.4193 C   0  0  0  0  0  0  0  0  0  0  0  0
   -4.0952    2.4336   -1.6945 C   0  0  0  0  0  0  0  0  0  0  0  0
   -4.9912    2.8164   -0.6813 C   0  0  0  0  0  0  0  0  0  0  0  0
   -4.8708    2.2743    0.6072 C   0  0  0  0  0  0  0  0  0  0  0  0
   -3.8504    1.3540    0.8936 C   0  0  0  0  0  0  0  0  0  0  0  0
   -2.9399    0.9885   -0.1181 C   0  0  0  0  0  0  0  0  0  0  0  0
    0.9238    4.8807   -0.5083 H   0  0  0  0  0  0  0  0  0  0  0  0
    2.3743    4.6841    1.4879 H   0  0  0  0  0  0  0  0  0  0  0  0
    2.7881    2.4440    2.5723 H   0  0  0  0  0  0  0  0  0  0  0  0
   -1.2611    3.7605   -3.2029 H   0  0  0  0  0  0  0  0  0  0  0  0
    0.3402    4.4484   -2.7267 H   0  0  0  0  0  0  0  0  0  0  0  0
   -1.1188    4.7296   -1.6853 H   0  0  0  0  0  0  0  0  0  0  0  0
   -0.7753   -1.5073   -2.3595 H   0  0  0  0  0  0  0  0  0  0  0  0
   -1.6683   -3.4538   -3.6728 H   0  0  0  0  0  0  0  0  0  0  0  0
   -3.6027   -4.7765   -2.7899 H   0  0  0  0  0  0  0  0  0  0  0  0
   -4.6681   -4.1450   -0.6122 H   0  0  0  0  0  0  0  0  0  0  0  0
   -3.8032   -2.1987    0.6887 H   0  0  0  0  0  0  0  0  0  0  0  0
   -1.3979    1.5128    2.4259 H   0  0  0  0  0  0  0  0  0  0  0  0
   -0.7736    1.1046    4.8019 H   0  0  0  0  0  0  0  0  0  0  0  0
   -0.4943   -1.2373    5.6475 H   0  0  0  0  0  0  0  0  0  0  0  0
   -0.8515   -3.1784    4.1048 H   0  0  0  0  0  0  0  0  0  0  0  0
   -1.4544   -2.7918    1.7185 H   0  0  0  0  0  0  0  0  0  0  0  0
   -2.3712    1.2132   -2.2102 H   0  0  0  0  0  0  0  0  0  0  0  0
   -4.2025    2.8452   -2.7093 H   0  0  0  0  0  0  0  0  0  0  0  0
   -5.7953    3.5343   -0.9017 H   0  0  0  0  0  0  0  0  0  0  0  0
   -5.5794    2.5632    1.3975 H   0  0  0  0  0  0  0  0  0  0  0  0
   -3.7703    0.9204    1.9008 H   0  0  0  0  0  0  0  0  0  0  0  0
  1 24  1  0  0  0  0
  2  3  2  0  0  0  0
  4  5  1  0  0  0  0
  4  1  1  0  0  0  0
  5 10  1  0  0  0  0
  6  7  1  0  0  0  0
  6  5  2  0  0  0  0
  7  8  2  0  0  0  0
  8 32  1  0  0  0  0
  8  9  1  0  0  0  0
  9 33  1  0  0  0  0
 10  2  1  0  0  0  0
 10  9  2  0  0  0  0
 11  6  1  0  0  0  0
 12 36  1  0  0  0  0
 12 11  1  0  0  0  0
 13 18  1  0  0  0  0
 14 15  1  0  0  0  0
 14 13  2  0  0  0  0
 15 16  2  0  0  0  0
 16 40  1  0  0  0  0
 16 17  1  0  0  0  0
 17 41  1  0  0  0  0
 18 17  2  0  0  0  0
 18  1  1  0  0  0  0
 19 20  1  0  0  0  0
 20 21  2  0  0  0  0
 20 43  1  0  0  0  0
 21 44  1  0  0  0  0
 22 45  1  0  0  0  0
 22 21  1  0  0  0  0
 23 22  2  0  0  0  0
 24 23  1  0  0  0  0
 24 19  2  0  0  0  0
 25 30  1  0  0  0  0
 26 25  2  0  0  0  0
 26 27  1  0  0  0  0
 27 28  2  0  0  0  0
 28 29  1  0  0  0  0
 28 50  1  0  0  0  0
 29 51  1  0  0  0  0
 30  1  1  0  0  0  0
 30 29  2  0  0  0  0
 31  7  1  0  0  0  0
 34 12  1  0  0  0  0
 35 12  1  0  0  0  0
 37 13  1  0  0  0  0
 38 14  1  0  0  0  0
 39 15  1  0  0  0  0
 42 19  1  0  0  0  0
 46 23  1  0  0  0  0
 47 25  1  0  0  0  0
 48 26  1  0  0  0  0
 49 27  1  0  0  0  0
M  END
