1,2
 OpenBabel05122313053D

 79 82  0  0  1  0  0  0  0  0999 V2000
   -1.1495   -0.8542   -0.3129 C   0  0  0  0  0  2  0  0  0  0  0  0
   -0.5595    1.7825    0.3057 C   0  0  0  0  0  2  0  0  0  0  0  0
   -0.3727   -1.1940   -1.3727 N   0  0  0  0  0  0  0  0  0  0  0  0
   -0.8528   -1.4443   -2.2435 H   0  0  0  0  0  0  0  0  0  0  0  0
    0.5484    2.2694   -0.3010 N   0  0  0  0  0  0  0  0  0  0  0  0
    0.4480    3.0466   -0.9629 H   0  0  0  0  0  0  0  0  0  0  0  0
   -2.4712   -1.0982   -0.4386 N   0  0  0  0  0  0  0  0  0  0  0  0
   -1.7381    2.3983    0.0735 N   0  0  0  0  0  0  0  0  0  0  0  0
   -3.0533   -2.0018   -1.4689 C   0  0  2  0  0  0  0  0  0  0  0  0
   -2.1977   -2.5342   -1.9346 H   0  0  0  0  0  0  0  0  0  0  0  0
   -3.7822   -1.2175   -2.5625 C   0  0  0  0  0  0  0  0  0  0  0  0
   -4.6916   -0.7188   -2.1732 H   0  0  0  0  0  0  0  0  0  0  0  0
   -4.0867   -1.8860   -3.3913 H   0  0  0  0  0  0  0  0  0  0  0  0
   -3.1243   -0.4296   -2.9786 H   0  0  0  0  0  0  0  0  0  0  0  0
   -1.8789    3.6243   -0.7620 C   0  0  2  0  0  0  0  0  0  0  0  0
   -1.0501    3.6110   -1.5011 H   0  0  0  0  0  0  0  0  0  0  0  0
   -1.7379    4.8870    0.0909 C   0  0  0  0  0  0  0  0  0  0  0  0
   -2.5169    4.9385    0.8765 H   0  0  0  0  0  0  0  0  0  0  0  0
   -1.8171    5.7969   -0.5355 H   0  0  0  0  0  0  0  0  0  0  0  0
   -0.7573    4.8902    0.6051 H   0  0  0  0  0  0  0  0  0  0  0  0
   -3.4151   -0.5476    0.5496 C   0  0  0  0  0  0  0  0  0  0  0  0
   -2.9790   -0.7007    1.5598 H   0  0  0  0  0  0  0  0  0  0  0  0
   -4.3203   -1.1825    0.4942 H   0  0  0  0  0  0  0  0  0  0  0  0
   -2.9160    2.0219    0.8808 C   0  0  0  0  0  0  0  0  0  0  0  0
   -3.5232    2.9425    0.9861 H   0  0  0  0  0  0  0  0  0  0  0  0
   -2.5458    1.7638    1.8958 H   0  0  0  0  0  0  0  0  0  0  0  0
   -3.8337    0.9158    0.3398 C   0  0  0  0  0  0  0  0  0  0  0  0
   -4.0777    1.1021   -0.7253 H   0  0  0  0  0  0  0  0  0  0  0  0
   -4.7908    1.0356    0.8913 H   0  0  0  0  0  0  0  0  0  0  0  0
    1.0300   -1.3002   -1.4883 C   0  0  0  0  0  0  0  0  0  0  0  0
    1.5589   -1.2569   -2.7966 C   0  0  0  0  0  0  0  0  0  0  0  0
    0.8850   -1.0850   -3.6516 H   0  0  0  0  0  0  0  0  0  0  0  0
    2.9220   -1.4585   -3.0155 C   0  0  0  0  0  0  0  0  0  0  0  0
    3.3237   -1.4531   -4.0387 H   0  0  0  0  0  0  0  0  0  0  0  0
    3.7788   -1.6893   -1.9253 C   0  0  0  0  0  0  0  0  0  0  0  0
    3.2561   -1.7037   -0.6202 C   0  0  0  0  0  0  0  0  0  0  0  0
    3.9268   -1.8856    0.2307 H   0  0  0  0  0  0  0  0  0  0  0  0
    1.8860   -1.5203   -0.3922 C   0  0  0  0  0  0  0  0  0  0  0  0
    1.4660   -1.5992    0.6227 H   0  0  0  0  0  0  0  0  0  0  0  0
    5.2489   -1.9037   -2.1849 C   0  0  0  0  0  0  0  0  0  0  0  0
    5.9107   -0.7212   -2.3420 F   0  0  0  0  0  0  0  0  0  0  0  0
    5.4500   -2.6038   -3.3318 F   0  0  0  0  0  0  0  0  0  0  0  0
    5.8555   -2.5734   -1.1850 F   0  0  0  0  0  0  0  0  0  0  0  0
    1.9031    1.8886   -0.0900 C   0  0  0  0  0  0  0  0  0  0  0  0
    2.7795    1.9077   -1.1914 C   0  0  0  0  0  0  0  0  0  0  0  0
    2.3922    2.1320   -2.1972 H   0  0  0  0  0  0  0  0  0  0  0  0
    4.1390    1.6254   -1.0132 C   0  0  0  0  0  0  0  0  0  0  0  0
    4.8226    1.6262   -1.8721 H   0  0  0  0  0  0  0  0  0  0  0  0
    4.6274    1.3172    0.2670 C   0  0  0  0  0  0  0  0  0  0  0  0
    3.7464    1.2922    1.3626 C   0  0  0  0  0  0  0  0  0  0  0  0
    4.1271    1.0699    2.3701 H   0  0  0  0  0  0  0  0  0  0  0  0
    2.3907    1.5837    1.1945 C   0  0  0  0  0  0  0  0  0  0  0  0
    1.7113    1.6053    2.0614 H   0  0  0  0  0  0  0  0  0  0  0  0
    6.0801    0.9760    0.4872 C   0  0  0  0  0  0  0  0  0  0  0  0
    6.8649    1.3743   -0.5383 F   0  0  0  0  0  0  0  0  0  0  0  0
    6.5586    1.5538    1.6171 F   0  0  0  0  0  0  0  0  0  0  0  0
    6.2560   -0.3660    0.6359 F   0  0  0  0  0  0  0  0  0  0  0  0
   -3.8666   -3.1087   -0.7971 C   0  0  0  0  0  0  0  0  0  0  0  0
   -5.1503   -3.4778   -1.2400 C   0  0  0  0  0  0  0  0  0  0  0  0
   -5.6246   -2.9515   -2.0807 H   0  0  0  0  0  0  0  0  0  0  0  0
   -5.8452   -4.5260   -0.6129 C   0  0  0  0  0  0  0  0  0  0  0  0
   -6.8481   -4.8040   -0.9709 H   0  0  0  0  0  0  0  0  0  0  0  0
   -5.2668   -5.2101    0.4654 C   0  0  0  0  0  0  0  0  0  0  0  0
   -5.8140   -6.0276    0.9590 H   0  0  0  0  0  0  0  0  0  0  0  0
   -3.9881   -4.8408    0.9160 C   0  0  0  0  0  0  0  0  0  0  0  0
   -3.5275   -5.3602    1.7699 H   0  0  0  0  0  0  0  0  0  0  0  0
   -3.2896   -3.8017    0.2892 C   0  0  0  0  0  0  0  0  0  0  0  0
   -2.3017   -3.4986    0.6792 H   0  0  0  0  0  0  0  0  0  0  0  0
   -3.1352    3.5333   -1.6203 C   0  0  0  0  0  0  0  0  0  0  0  0
   -3.1301    2.6575   -2.7259 C   0  0  0  0  0  0  0  0  0  0  0  0
   -2.2140    2.0880   -2.9539 H   0  0  0  0  0  0  0  0  0  0  0  0
   -4.2699    2.4975   -3.5240 C   0  0  0  0  0  0  0  0  0  0  0  0
   -4.2470    1.8111   -4.3841 H   0  0  0  0  0  0  0  0  0  0  0  0
   -5.4402    3.2161   -3.2263 C   0  0  0  0  0  0  0  0  0  0  0  0
   -6.3384    3.0935   -3.8498 H   0  0  0  0  0  0  0  0  0  0  0  0
   -5.4531    4.0985   -2.1363 C   0  0  0  0  0  0  0  0  0  0  0  0
   -6.3630    4.6711   -1.9014 H   0  0  0  0  0  0  0  0  0  0  0  0
   -4.3067    4.2589   -1.3405 C   0  0  0  0  0  0  0  0  0  0  0  0
   -4.3334    4.9574   -0.4915 H   0  0  0  0  0  0  0  0  0  0  0  0
  3  1  1  0  0  0  0
  4  3  1  0  0  0  0
  5 44  1  0  0  0  0
  5  2  1  0  0  0  0
  6  5  1  0  0  0  0
  7  1  1  0  0  0  0
  7 21  1  0  0  0  0
  8  2  1  0  0  0  0
  8 24  1  0  0  0  0
  9 10  1  6  0  0  0
  9 58  1  0  0  0  0
  9  7  1  0  0  0  0
 11 12  1  0  0  0  0
 11  9  1  0  0  0  0
 13 11  1  0  0  0  0
 14 11  1  0  0  0  0
 15 16  1  6  0  0  0
 15  8  1  0  0  0  0
 15 17  1  0  0  0  0
 17 20  1  0  0  0  0
 17 18  1  0  0  0  0
 19 17  1  0  0  0  0
 21 22  1  0  0  0  0
 23 21  1  0  0  0  0
 24 25  1  0  0  0  0
 24 26  1  0  0  0  0
 27 21  1  0  0  0  0
 27 24  1  0  0  0  0
 27 29  1  0  0  0  0
 28 27  1  0  0  0  0
 30  3  1  0  0  0  0
 30 38  1  0  0  0  0
 31 30  2  0  0  0  0
 32 31  1  0  0  0  0
 33 31  1  0  0  0  0
 33 35  2  0  0  0  0
 34 33  1  0  0  0  0
 35 36  1  0  0  0  0
 36 38  2  0  0  0  0
 36 37  1  0  0  0  0
 38 39  1  0  0  0  0
 40 35  1  0  0  0  0
 40 43  1  0  0  0  0
 41 40  1  0  0  0  0
 42 40  1  0  0  0  0
 44 52  1  0  0  0  0
 45 47  1  0  0  0  0
 45 44  2  0  0  0  0
 46 45  1  0  0  0  0
 47 49  2  0  0  0  0
 48 47  1  0  0  0  0
 49 54  1  0  0  0  0
 49 50  1  0  0  0  0
 50 51  1  0  0  0  0
 52 50  2  0  0  0  0
 52 53  1  0  0  0  0
 54 57  1  0  0  0  0
 54 56  1  0  0  0  0
 55 54  1  0  0  0  0
 58 67  1  0  0  0  0
 59 58  2  0  0  0  0
 59 61  1  0  0  0  0
 60 59  1  0  0  0  0
 61 63  2  0  0  0  0
 62 61  1  0  0  0  0
 63 65  1  0  0  0  0
 63 64  1  0  0  0  0
 65 66  1  0  0  0  0
 67 68  1  0  0  0  0
 67 65  2  0  0  0  0
 69 78  1  0  0  0  0
 69 15  1  0  0  0  0
 70 69  2  0  0  0  0
 71 70  1  0  0  0  0
 72 74  2  0  0  0  0
 72 70  1  0  0  0  0
 73 72  1  0  0  0  0
 74 76  1  0  0  0  0
 75 74  1  0  0  0  0
 76 77  1  0  0  0  0
 76 78  2  0  0  0  0
 78 79  1  0  0  0  0
M  END
