19,30
 OpenBabel05122313053D

 40 43  0  0  0  0  0  0  0  0999 V2000
   -1.5645    3.7656   -0.0012 C   0  0  0  0  0  0  0  0  0  0  0  0
   -1.1376    4.7777   -0.0016 H   0  0  0  0  0  0  0  0  0  0  0  0
   -2.9566    3.5836   -0.0017 C   0  0  0  0  0  0  0  0  0  0  0  0
   -3.6247    4.4572   -0.0025 H   0  0  0  0  0  0  0  0  0  0  0  0
   -3.5075    2.2930   -0.0013 C   0  0  0  0  0  0  0  0  0  0  0  0
   -4.5964    2.1543   -0.0019 H   0  0  0  0  0  0  0  0  0  0  0  0
   -2.5978    1.2173   -0.0003 C   0  0  0  0  0  0  0  0  0  0  0  0
   -1.2891    1.3909    0.0003 N   0  0  0  0  0  0  0  0  0  0  0  0
    1.2891    1.3909   -0.0003 N   0  0  0  0  0  0  0  0  0  0  0  0
    2.5978    1.2173    0.0003 C   0  0  0  0  0  0  0  0  0  0  0  0
    3.5075    2.2930    0.0014 C   0  0  0  0  0  0  0  0  0  0  0  0
    4.5964    2.1543    0.0020 H   0  0  0  0  0  0  0  0  0  0  0  0
    2.9566    3.5836    0.0018 C   0  0  0  0  0  0  0  0  0  0  0  0
    3.6247    4.4572    0.0026 H   0  0  0  0  0  0  0  0  0  0  0  0
    1.5645    3.7656    0.0012 C   0  0  0  0  0  0  0  0  0  0  0  0
    1.1375    4.7777    0.0017 H   0  0  0  0  0  0  0  0  0  0  0  0
    0.7484    2.6171    0.0002 C   0  0  0  0  0  0  0  0  0  0  0  0
   -0.7484    2.6171   -0.0002 C   0  0  0  0  0  0  0  0  0  0  0  0
   -2.1149   -1.2133    0.0002 C   0  0  0  0  0  2  0  0  0  0  0  0
   -3.0088   -0.1565    0.0002 N   0  0  0  0  0  0  0  0  0  0  0  0
   -4.3258   -0.6075    0.0006 C   0  0  0  0  0  0  0  0  0  0  0  0
   -5.1922    0.0579    0.0007 H   0  0  0  0  0  0  0  0  0  0  0  0
   -4.2655   -1.9732    0.0009 C   0  0  0  0  0  0  0  0  0  0  0  0
   -5.0645   -2.7211    0.0013 H   0  0  0  0  0  0  0  0  0  0  0  0
   -2.9168   -2.3124    0.0007 N   0  0  0  0  0  0  0  0  0  0  0  0
   -2.4320   -3.6860    0.0010 C   0  0  0  0  0  0  0  0  0  0  0  0
   -2.7874   -4.2190   -0.9023 H   0  0  0  0  0  0  0  0  0  0  0  0
   -2.7870   -4.2184    0.9048 H   0  0  0  0  0  0  0  0  0  0  0  0
   -1.3277   -3.6553    0.0007 H   0  0  0  0  0  0  0  0  0  0  0  0
    2.1149   -1.2133   -0.0002 C   0  0  0  0  0  2  0  0  0  0  0  0
    3.0088   -0.1565   -0.0002 N   0  0  0  0  0  0  0  0  0  0  0  0
    4.3258   -0.6075   -0.0007 C   0  0  0  0  0  0  0  0  0  0  0  0
    5.1922    0.0579   -0.0009 H   0  0  0  0  0  0  0  0  0  0  0  0
    4.2655   -1.9732   -0.0010 C   0  0  0  0  0  0  0  0  0  0  0  0
    5.0645   -2.7211   -0.0014 H   0  0  0  0  0  0  0  0  0  0  0  0
    2.9168   -2.3124   -0.0007 N   0  0  0  0  0  0  0  0  0  0  0  0
    2.4320   -3.6860   -0.0008 C   0  0  0  0  0  0  0  0  0  0  0  0
    1.3277   -3.6553   -0.0008 H   0  0  0  0  0  0  0  0  0  0  0  0
    2.7872   -4.2188    0.9026 H   0  0  0  0  0  0  0  0  0  0  0  0
    2.7872   -4.2186   -0.9044 H   0  0  0  0  0  0  0  0  0  0  0  0
  1 18  1  0  0  0  0
  2  1  1  0  0  0  0
  3  5  1  0  0  0  0
  3  1  2  0  0  0  0
  4  3  1  0  0  0  0
  5  7  2  0  0  0  0
  6  5  1  0  0  0  0
  7 20  1  0  0  0  0
  7  8  1  0  0  0  0
  9 17  2  0  0  0  0
  9 10  1  0  0  0  0
 10 11  2  0  0  0  0
 11 13  1  0  0  0  0
 11 12  1  0  0  0  0
 13 14  1  0  0  0  0
 15 16  1  0  0  0  0
 15 13  2  0  0  0  0
 17 15  1  0  0  0  0
 18 17  1  0  0  0  0
 18  8  2  0  0  0  0
 19 25  1  0  0  0  0
 20 19  1  0  0  0  0
 20 21  1  0  0  0  0
 21 22  1  0  0  0  0
 21 23  2  0  0  0  0
 23 24  1  0  0  0  0
 25 23  1  0  0  0  0
 25 26  1  0  0  0  0
 26 28  1  0  0  0  0
 27 26  1  0  0  0  0
 29 26  1  0  0  0  0
 30 31  1  0  0  0  0
 31 10  1  0  0  0  0
 32 31  1  0  0  0  0
 33 32  1  0  0  0  0
 34 36  1  0  0  0  0
 34 32  2  0  0  0  0
 35 34  1  0  0  0  0
 36 30  1  0  0  0  0
 37 38  1  0  0  0  0
 37 36  1  0  0  0  0
 37 39  1  0  0  0  0
 40 37  1  0  0  0  0
M  END
