3,5
 OpenBabel05122313053D

 40 43  0  0  1  0  0  0  0  0999 V2000
   -0.0498   -0.9112    1.4975 S   0  0  2  0  0  0  0  0  0  0  0  0
   -0.4960   -2.3094    1.8204 O   0  0  0  0  0  0  0  0  0  0  0  0
    1.3984    0.4475   -0.7606 C   0  0  1  0  0  3  0  0  0  0  0  0
    0.9138   -0.1043   -1.9959 C   0  0  1  0  0  3  0  0  0  0  0  0
   -0.1226    0.7926   -2.4788 C   0  0  0  0  0  3  0  0  0  0  0  0
   -0.7139    0.6357   -3.3901 H   0  0  0  0  0  0  0  0  0  0  0  0
   -0.1352    1.9887   -1.6689 C   0  0  0  0  0  0  0  0  0  0  0  0
   -0.8482    3.2179   -1.7558 C   0  0  0  0  0  0  0  0  0  0  0  0
   -1.5666    3.3878   -2.5703 H   0  0  0  0  0  0  0  0  0  0  0  0
   -0.5881    4.1971   -0.8090 C   0  0  0  0  0  0  0  0  0  0  0  0
   -1.1090    5.1637   -0.8753 H   0  0  0  0  0  0  0  0  0  0  0  0
    0.3538    3.9947    0.2505 C   0  0  0  0  0  0  0  0  0  0  0  0
    0.5376    4.8142    0.9609 H   0  0  0  0  0  0  0  0  0  0  0  0
    1.0399    2.7980    0.3898 C   0  0  0  0  0  0  0  0  0  0  0  0
    1.7777    2.6441    1.1912 H   0  0  0  0  0  0  0  0  0  0  0  0
    0.7967    1.7740   -0.5703 C   0  0  0  0  0  0  0  0  0  0  0  0
    2.3040   -0.2141    0.2151 C   0  0  0  0  0  0  0  0  0  0  0  0
    1.7668   -0.8740    1.3210 C   0  0  0  0  0  0  0  0  0  0  0  0
    2.5567   -1.5755    2.2642 C   0  0  0  0  0  0  0  0  0  0  0  0
    2.0757   -2.1345    3.0804 H   0  0  0  0  0  0  0  0  0  0  0  0
    3.9333   -1.5669    2.1090 C   0  0  0  0  0  0  0  0  0  0  0  0
    4.5709   -2.1082    2.8244 H   0  0  0  0  0  0  0  0  0  0  0  0
    4.5506   -0.8778    1.0223 C   0  0  0  0  0  0  0  0  0  0  0  0
    5.9655   -0.8596    0.8545 C   0  0  0  0  0  0  0  0  0  0  0  0
    6.5926   -1.3870    1.5890 H   0  0  0  0  0  0  0  0  0  0  0  0
    6.5450   -0.1898   -0.2128 C   0  0  0  0  0  0  0  0  0  0  0  0
    7.6388   -0.1832   -0.3292 H   0  0  0  0  0  0  0  0  0  0  0  0
    5.7341    0.4913   -1.1601 C   0  0  0  0  0  0  0  0  0  0  0  0
    6.2073    1.0222   -1.9993 H   0  0  0  0  0  0  0  0  0  0  0  0
    4.3532    0.4912   -1.0321 C   0  0  0  0  0  0  0  0  0  0  0  0
    3.7269    1.0233   -1.7640 H   0  0  0  0  0  0  0  0  0  0  0  0
    3.7277   -0.1879    0.0542 C   0  0  0  0  0  0  0  0  0  0  0  0
   -0.2938    0.1002    2.9874 C   0  0  0  0  0  0  0  0  0  0  0  0
   -1.3851    0.1225    3.1638 H   0  0  0  0  0  0  0  0  0  0  0  0
    0.0907    1.1189    2.7942 H   0  0  0  0  0  0  0  0  0  0  0  0
    0.2383   -0.3935    3.8215 H   0  0  0  0  0  0  0  0  0  0  0  0
    1.4236   -1.3385   -2.6686 C   0  0  0  0  0  0  0  0  0  0  0  0
    2.3068   -1.0908   -3.2949 H   0  0  0  0  0  0  0  0  0  0  0  0
    0.6662   -1.7828   -3.3418 H   0  0  0  0  0  0  0  0  0  0  0  0
    1.7521   -2.0988   -1.9332 H   0  0  0  0  0  0  0  0  0  0  0  0
  1  2  2  1  0  0  0
  1 33  1  0  0  0  0
  3 16  1  0  0  0  0
  3 17  1  1  0  0  0
  4 37  1  6  0  0  0
  4  3  1  0  0  0  0
  5  4  1  0  0  0  0
  5  7  1  0  0  0  0
  6  5  1  0  0  0  0
  7 16  1  0  0  0  0
  8  7  2  0  0  0  0
  8 10  1  0  0  0  0
  9  8  1  0  0  0  0
 10 12  2  0  0  0  0
 11 10  1  0  0  0  0
 12 14  1  0  0  0  0
 12 13  1  0  0  0  0
 14 15  1  0  0  0  0
 16 14  2  0  0  0  0
 17 18  1  0  0  0  0
 18  1  1  0  0  0  0
 18 19  2  0  0  0  0
 19 20  1  0  0  0  0
 21 19  1  0  0  0  0
 21 22  1  0  0  0  0
 23 21  2  0  0  0  0
 24 23  1  0  0  0  0
 24 25  1  0  0  0  0
 26 24  2  0  0  0  0
 27 26  1  0  0  0  0
 28 30  2  0  0  0  0
 28 26  1  0  0  0  0
 29 28  1  0  0  0  0
 30 32  1  0  0  0  0
 31 30  1  0  0  0  0
 32 17  2  0  0  0  0
 32 23  1  0  0  0  0
 33 34  1  0  0  0  0
 33 36  1  0  0  0  0
 35 33  1  0  0  0  0
 37 40  1  0  0  0  0
 38 37  1  0  0  0  0
 39 37  1  0  0  0  0
M  END
