4,20
 OpenBabel05122313053D

 37 38  0  0  0  0  0  0  0  0999 V2000
   -1.4019   -0.1473    0.3662 Si  0  0  0  0  0  0  0  0  0  0  0  0
   -0.9857    0.0110   -2.7627 O   0  0  0  0  0  1  0  0  0  0  0  0
   -0.1519   -0.6631    1.5692 C   0  0  0  0  0  2  0  0  0  0  0  0
    0.9672   -1.3068    1.5581 C   0  0  0  0  0  2  0  0  0  0  0  0
    1.7657   -2.3172    2.3111 C   0  0  0  0  0  0  0  0  0  0  0  0
    2.6591   -3.1810    1.4105 C   0  0  0  0  0  0  0  0  0  0  0  0
    0.8424   -3.1722    3.1975 C   0  0  0  0  0  0  0  0  0  0  0  0
   -2.3179    1.4613    0.6474 C   0  0  0  0  0  0  0  0  0  0  0  0
   -2.3191    2.1190    1.8978 C   0  0  0  0  0  0  0  0  0  0  0  0
   -2.9540    3.3610    2.0532 C   0  0  0  0  0  0  0  0  0  0  0  0
   -3.6019    3.9622    0.9614 C   0  0  0  0  0  0  0  0  0  0  0  0
   -3.6181    3.3156   -0.2855 C   0  0  0  0  0  0  0  0  0  0  0  0
   -2.9807    2.0757   -0.4420 C   0  0  0  0  0  0  0  0  0  0  0  0
   -2.5424   -1.5479   -0.1494 C   0  0  0  0  0  0  0  0  0  0  0  0
   -3.9430   -1.3775   -0.1745 C   0  0  0  0  0  0  0  0  0  0  0  0
   -4.7841   -2.4344   -0.5599 C   0  0  0  0  0  0  0  0  0  0  0  0
   -4.2346   -3.6737   -0.9206 C   0  0  0  0  0  0  0  0  0  0  0  0
   -2.8407   -3.8558   -0.8968 C   0  0  0  0  0  0  0  0  0  0  0  0
   -2.0017   -2.8002   -0.5167 C   0  0  0  0  0  0  0  0  0  0  0  0
   -0.2698   -0.0530   -1.8214 C   0  0  0  0  0  2  0  0  0  0  0  0
    2.4400   -1.7337    2.9795 H   0  0  0  0  0  0  0  0  0  0  0  0
    3.3278   -2.5564    0.7873 H   0  0  0  0  0  0  0  0  0  0  0  0
    3.2816   -3.8597    2.0268 H   0  0  0  0  0  0  0  0  0  0  0  0
    2.0523   -3.7993    0.7205 H   0  0  0  0  0  0  0  0  0  0  0  0
    1.4324   -3.8786    3.8163 H   0  0  0  0  0  0  0  0  0  0  0  0
    0.1434   -3.7602    2.5687 H   0  0  0  0  0  0  0  0  0  0  0  0
    0.2356   -2.5351    3.8701 H   0  0  0  0  0  0  0  0  0  0  0  0
   -1.8140    1.6509    2.7569 H   0  0  0  0  0  0  0  0  0  0  0  0
   -2.9470    3.8620    3.0336 H   0  0  0  0  0  0  0  0  0  0  0  0
   -4.0999    4.9363    1.0839 H   0  0  0  0  0  0  0  0  0  0  0  0
   -4.1261    3.7831   -1.1429 H   0  0  0  0  0  0  0  0  0  0  0  0
   -2.9849    1.5846   -1.4287 H   0  0  0  0  0  0  0  0  0  0  0  0
   -4.3838   -0.4089    0.1100 H   0  0  0  0  0  0  0  0  0  0  0  0
   -5.8751   -2.2875   -0.5782 H   0  0  0  0  0  0  0  0  0  0  0  0
   -4.8935   -4.5018   -1.2241 H   0  0  0  0  0  0  0  0  0  0  0  0
   -2.4058   -4.8257   -1.1829 H   0  0  0  0  0  0  0  0  0  0  0  0
   -0.9091   -2.9404   -0.5123 H   0  0  0  0  0  0  0  0  0  0  0  0
  1  8  1  0  0  0  0
  1  3  1  0  0  0  0
  1 20  1  0  0  0  0
  2 20  1  0  0  0  0
  4  3  1  0  0  0  0
  4  5  1  0  0  0  0
  5 21  1  0  0  0  0
  5  7  1  0  0  0  0
  6 23  1  0  0  0  0
  6  5  1  0  0  0  0
  7 25  1  0  0  0  0
  7 27  1  0  0  0  0
  8  9  1  0  0  0  0
  9 10  2  0  0  0  0
  9 28  1  0  0  0  0
 10 29  1  0  0  0  0
 11 30  1  0  0  0  0
 11 10  1  0  0  0  0
 12 11  2  0  0  0  0
 13 12  1  0  0  0  0
 13  8  2  0  0  0  0
 14  1  1  0  0  0  0
 15 14  1  0  0  0  0
 15 33  1  0  0  0  0
 16 15  2  0  0  0  0
 17 18  2  0  0  0  0
 17 16  1  0  0  0  0
 18 19  1  0  0  0  0
 19 37  1  0  0  0  0
 19 14  2  0  0  0  0
 22  6  1  0  0  0  0
 24  6  1  0  0  0  0
 26  7  1  0  0  0  0
 31 12  1  0  0  0  0
 32 13  1  0  0  0  0
 34 16  1  0  0  0  0
 35 17  1  0  0  0  0
 36 18  1  0  0  0  0
M  HYD  4   2   0   3   0   4   0  20   0
M  ZBO  1   3   0
M  END
