1,14
 OpenBabel05122313053D

 36 38  0  0  0  0  0  0  0  0999 V2000
   -1.4190   -1.0126   -0.7213 C   0  0  0  0  0  2  0  0  0  0  0  0
   -2.5030   -1.7638   -0.3491 N   0  0  0  0  0  0  0  0  0  0  0  0
   -3.7002   -1.1794   -0.7658 C   0  0  0  0  0  0  0  0  0  0  0  0
   -4.6710   -1.6312   -0.5445 H   0  0  0  0  0  0  0  0  0  0  0  0
   -3.3883   -0.0033   -1.4399 C   0  0  0  0  0  0  0  0  0  0  0  0
   -4.0254    1.1649   -2.0041 C   0  0  0  0  0  0  0  0  0  0  0  0
   -5.1190    1.1838   -2.0992 H   0  0  0  0  0  0  0  0  0  0  0  0
   -3.2705    2.2636   -2.3560 C   0  0  0  0  0  0  0  0  0  0  0  0
   -3.7524    3.1746   -2.7344 H   0  0  0  0  0  0  0  0  0  0  0  0
   -1.8379    2.2521   -2.1683 C   0  0  0  0  0  0  0  0  0  0  0  0
   -0.7470    3.1142   -2.1519 C   0  0  0  0  0  0  0  0  0  0  0  0
   -0.6761    4.1742   -2.4116 H   0  0  0  0  0  0  0  0  0  0  0  0
    0.3632    2.3916   -1.7134 N   0  0  0  0  0  0  0  0  0  0  0  0
    0.0377    1.0917   -1.4283 C   0  0  0  0  0  2  0  0  0  0  0  0
   -1.2698    1.0498   -1.7795 N   0  0  0  0  0  0  0  0  0  0  0  0
   -2.0038   -0.0093   -1.4189 N   0  0  0  0  0  0  0  0  0  0  0  0
   -2.4572   -2.9723    0.4881 C   0  0  0  0  0  0  0  0  0  0  0  0
   -1.3892   -3.2285    0.6062 H   0  0  0  0  0  0  0  0  0  0  0  0
   -2.9385   -3.7970   -0.0758 H   0  0  0  0  0  0  0  0  0  0  0  0
   -3.1209   -2.7757    1.8557 C   0  0  0  0  0  0  0  0  0  0  0  0
   -3.0152   -3.7399    2.3964 H   0  0  0  0  0  0  0  0  0  0  0  0
   -4.2147   -2.6345    1.7175 H   0  0  0  0  0  0  0  0  0  0  0  0
   -2.5373   -1.6267    2.6747 C   0  0  0  0  0  0  0  0  0  0  0  0
   -1.4449   -1.7362    2.8293 H   0  0  0  0  0  0  0  0  0  0  0  0
   -3.0077   -1.5770    3.6752 H   0  0  0  0  0  0  0  0  0  0  0  0
   -2.7053   -0.6478    2.1828 H   0  0  0  0  0  0  0  0  0  0  0  0
    1.6513    3.0218   -1.4030 C   0  0  0  0  0  0  0  0  0  0  0  0
    1.7876    3.8644   -2.1097 H   0  0  0  0  0  0  0  0  0  0  0  0
    2.4478    2.2859   -1.6270 H   0  0  0  0  0  0  0  0  0  0  0  0
    1.7256    3.5044    0.0501 C   0  0  0  0  0  0  0  0  0  0  0  0
    0.8989    4.2232    0.2306 H   0  0  0  0  0  0  0  0  0  0  0  0
    1.5338    2.6463    0.7278 H   0  0  0  0  0  0  0  0  0  0  0  0
    3.0755    4.1413    0.3746 C   0  0  0  0  0  0  0  0  0  0  0  0
    3.9100    3.4227    0.2345 H   0  0  0  0  0  0  0  0  0  0  0  0
    3.1032    4.4805    1.4278 H   0  0  0  0  0  0  0  0  0  0  0  0
    3.2814    5.0220   -0.2674 H   0  0  0  0  0  0  0  0  0  0  0  0
  1  2  1  0  0  0  0
  2 17  1  0  0  0  0
  3  4  1  0  0  0  0
  3  2  1  0  0  0  0
  5 16  1  0  0  0  0
  5  3  2  0  0  0  0
  6  5  1  0  0  0  0
  7  6  1  0  0  0  0
  8 10  1  0  0  0  0
  8  6  2  0  0  0  0
  9  8  1  0  0  0  0
 10 11  2  0  0  0  0
 10 15  1  0  0  0  0
 11 13  1  0  0  0  0
 12 11  1  0  0  0  0
 13 14  1  0  0  0  0
 13 27  1  0  0  0  0
 15 14  1  0  0  0  0
 15 16  1  0  0  0  0
 16  1  1  0  0  0  0
 17 18  1  0  0  0  0
 17 20  1  0  0  0  0
 19 17  1  0  0  0  0
 20 21  1  0  0  0  0
 20 23  1  0  0  0  0
 22 20  1  0  0  0  0
 23 24  1  0  0  0  0
 23 25  1  0  0  0  0
 26 23  1  0  0  0  0
 27 30  1  0  0  0  0
 28 27  1  0  0  0  0
 29 27  1  0  0  0  0
 30 31  1  0  0  0  0
 30 33  1  0  0  0  0
 30 32  1  0  0  0  0
 33 35  1  0  0  0  0
 34 33  1  0  0  0  0
 36 33  1  0  0  0  0
M  END
