26
 OpenBabel05122313053D

 62 67  0  0  0  0  0  0  0  0999 V2000
    1.7758    3.3680   -0.2446 N   0  0  0  0  0  0  0  0  0  0  0  0
    1.2824    1.0183    0.8128 C   0  0  0  0  0  3  0  0  0  0  0  0
    0.8441    2.3721    0.1482 B   0  0  0  0  0  0  0  0  0  0  0  0
   -1.7756    3.3680    0.2446 N   0  0  0  0  0  0  0  0  0  0  0  0
    2.3645    0.0973    0.5008 C   0  0  0  0  0  0  0  0  0  0  0  0
   -0.8440    2.3721   -0.1482 B   0  0  0  0  0  0  0  0  0  0  0  0
    2.3540   -1.0118    1.4361 C   0  0  0  0  0  0  0  0  0  0  0  0
    1.2942   -0.7643    2.3921 C   0  0  0  0  0  0  0  0  0  0  0  0
    0.6403    0.4681    2.0006 C   0  0  0  0  0  0  0  0  0  0  0  0
    3.3219    0.0975   -0.5556 C   0  0  0  0  0  0  0  0  0  0  0  0
    3.3208    0.9054   -1.3000 H   0  0  0  0  0  0  0  0  0  0  0  0
    4.2358   -0.9431   -0.6410 C   0  0  0  0  0  0  0  0  0  0  0  0
    4.9767   -0.9478   -1.4547 H   0  0  0  0  0  0  0  0  0  0  0  0
    4.2253   -2.0210    0.2902 C   0  0  0  0  0  0  0  0  0  0  0  0
    4.9583   -2.8338    0.1799 H   0  0  0  0  0  0  0  0  0  0  0  0
    3.2952   -2.0646    1.3206 C   0  0  0  0  0  0  0  0  0  0  0  0
    3.2745   -2.9062    2.0286 H   0  0  0  0  0  0  0  0  0  0  0  0
    0.8776   -1.4670    3.5488 C   0  0  0  0  0  0  0  0  0  0  0  0
    1.3891   -2.3937    3.8473 H   0  0  0  0  0  0  0  0  0  0  0  0
   -0.1993   -0.9806    4.2795 C   0  0  0  0  0  0  0  0  0  0  0  0
   -0.5415   -1.5205    5.1746 H   0  0  0  0  0  0  0  0  0  0  0  0
   -0.8766    0.2060    3.8805 C   0  0  0  0  0  0  0  0  0  0  0  0
   -1.7322    0.5601    4.4756 H   0  0  0  0  0  0  0  0  0  0  0  0
   -0.4738    0.9298    2.7646 C   0  0  0  0  0  0  0  0  0  0  0  0
   -0.9842    1.8614    2.4794 H   0  0  0  0  0  0  0  0  0  0  0  0
   -1.2824    1.0183   -0.8128 C   0  0  0  0  0  3  0  0  0  0  0  0
   -0.6403    0.4682   -2.0006 C   0  0  0  0  0  0  0  0  0  0  0  0
   -1.2944   -0.7642   -2.3921 C   0  0  0  0  0  0  0  0  0  0  0  0
   -2.3541   -1.0117   -1.4361 C   0  0  0  0  0  0  0  0  0  0  0  0
    0.4738    0.9298   -2.7646 C   0  0  0  0  0  0  0  0  0  0  0  0
    0.9842    1.8613   -2.4794 H   0  0  0  0  0  0  0  0  0  0  0  0
    0.8765    0.2060   -3.8806 C   0  0  0  0  0  0  0  0  0  0  0  0
    1.7320    0.5600   -4.4757 H   0  0  0  0  0  0  0  0  0  0  0  0
    0.1990   -0.9805   -4.2796 C   0  0  0  0  0  0  0  0  0  0  0  0
    0.5411   -1.5204   -5.1747 H   0  0  0  0  0  0  0  0  0  0  0  0
   -0.8779   -1.4669   -3.5488 C   0  0  0  0  0  0  0  0  0  0  0  0
   -1.3894   -2.3935   -3.8473 H   0  0  0  0  0  0  0  0  0  0  0  0
   -3.2954   -2.0644   -1.3206 C   0  0  0  0  0  0  0  0  0  0  0  0
   -3.2747   -2.9059   -2.0285 H   0  0  0  0  0  0  0  0  0  0  0  0
   -4.2254   -2.0207   -0.2901 C   0  0  0  0  0  0  0  0  0  0  0  0
   -4.9584   -2.8335   -0.1797 H   0  0  0  0  0  0  0  0  0  0  0  0
   -4.2358   -0.9429    0.6412 C   0  0  0  0  0  0  0  0  0  0  0  0
   -4.9766   -0.9476    1.4550 H   0  0  0  0  0  0  0  0  0  0  0  0
   -3.3218    0.0977    0.5557 C   0  0  0  0  0  0  0  0  0  0  0  0
   -3.3206    0.9055    1.3002 H   0  0  0  0  0  0  0  0  0  0  0  0
   -2.3645    0.0974   -0.5007 C   0  0  0  0  0  0  0  0  0  0  0  0
    3.1909    3.3652    0.0942 C   0  0  0  0  0  0  0  0  0  0  0  0
    3.4269    2.5214    0.7655 H   0  0  0  0  0  0  0  0  0  0  0  0
    3.4658    4.3132    0.6093 H   0  0  0  0  0  0  0  0  0  0  0  0
    3.8348    3.2889   -0.8118 H   0  0  0  0  0  0  0  0  0  0  0  0
    1.3883    4.5296   -1.0287 C   0  0  0  0  0  0  0  0  0  0  0  0
    0.3104    4.4808   -1.2685 H   0  0  0  0  0  0  0  0  0  0  0  0
    1.9563    4.5721   -1.9862 H   0  0  0  0  0  0  0  0  0  0  0  0
    1.5964    5.4795   -0.4846 H   0  0  0  0  0  0  0  0  0  0  0  0
   -3.1907    3.3653   -0.0941 C   0  0  0  0  0  0  0  0  0  0  0  0
   -3.4268    2.5214   -0.7653 H   0  0  0  0  0  0  0  0  0  0  0  0
   -3.4657    4.3132   -0.6092 H   0  0  0  0  0  0  0  0  0  0  0  0
   -3.8346    3.2890    0.8119 H   0  0  0  0  0  0  0  0  0  0  0  0
   -1.3880    4.5297    1.0286 C   0  0  0  0  0  0  0  0  0  0  0  0
   -0.3101    4.4809    1.2684 H   0  0  0  0  0  0  0  0  0  0  0  0
   -1.9560    4.5723    1.9862 H   0  0  0  0  0  0  0  0  0  0  0  0
   -1.5961    5.4796    0.4845 H   0  0  0  0  0  0  0  0  0  0  0  0
  1 47  1  0  0  0  0
  1  3  1  0  0  0  0
  2  9  1  0  0  0  0
  3  2  1  0  0  0  0
  4 59  1  0  0  0  0
  5  2  1  0  0  0  0
  5  7  1  0  0  0  0
  6  3  1  0  0  0  0
  6  4  1  0  0  0  0
  7  8  1  0  0  0  0
  8 18  1  0  0  0  0
  9  8  2  0  0  0  0
  9 24  1  0  0  0  0
 10  5  2  0  0  0  0
 11 10  1  0  0  0  0
 12 10  1  0  0  0  0
 12 14  2  0  0  0  0
 13 12  1  0  0  0  0
 14 16  1  0  0  0  0
 15 14  1  0  0  0  0
 16  7  2  0  0  0  0
 16 17  1  0  0  0  0
 18 19  1  0  0  0  0
 18 20  2  0  0  0  0
 20 21  1  0  0  0  0
 22 20  1  0  0  0  0
 22 23  1  0  0  0  0
 24 22  2  0  0  0  0
 25 24  1  0  0  0  0
 26 46  1  0  0  0  0
 26  6  1  0  0  0  0
 27 26  1  0  0  0  0
 28 27  1  0  0  0  0
 28 29  1  0  0  0  0
 29 38  2  0  0  0  0
 29 46  1  0  0  0  0
 30 31  1  0  0  0  0
 30 27  2  0  0  0  0
 32 30  1  0  0  0  0
 33 32  1  0  0  0  0
 34 32  2  0  0  0  0
 34 36  1  0  0  0  0
 35 34  1  0  0  0  0
 36 28  2  0  0  0  0
 37 36  1  0  0  0  0
 38 40  1  0  0  0  0
 39 38  1  0  0  0  0
 40 41  1  0  0  0  0
 40 42  2  0  0  0  0
 42 43  1  0  0  0  0
 44 42  1  0  0  0  0
 44 45  1  0  0  0  0
 46 44  2  0  0  0  0
 47 49  1  0  0  0  0
 47 48  1  0  0  0  0
 50 47  1  0  0  0  0
 51 54  1  0  0  0  0
 51  1  1  0  0  0  0
 52 51  1  0  0  0  0
 53 51  1  0  0  0  0
 55  4  1  0  0  0  0
 55 58  1  0  0  0  0
 56 55  1  0  0  0  0
 57 55  1  0  0  0  0
 59 60  1  0  0  0  0
 59 61  1  0  0  0  0
 62 59  1  0  0  0  0
M  END
