1,11
 OpenBabel05122313053D

 36 38  0  0  0  0  0  0  0  0999 V2000
    0.1507    1.5865    0.1978 C   0  0  0  0  0  3  0  0  0  0  0  0
   -0.9771    2.4596    0.1751 C   0  0  0  0  0  0  0  0  0  0  0  0
   -0.8279    3.8619    0.1845 C   0  0  0  0  0  0  0  0  0  0  0  0
   -1.7088    4.5222    0.1672 H   0  0  0  0  0  0  0  0  0  0  0  0
    0.4532    4.4294    0.1877 C   0  0  0  0  0  0  0  0  0  0  0  0
    0.5729    5.5240    0.1936 H   0  0  0  0  0  0  0  0  0  0  0  0
    1.5818    3.6001    0.1712 C   0  0  0  0  0  0  0  0  0  0  0  0
    2.5905    4.0434    0.1702 H   0  0  0  0  0  0  0  0  0  0  0  0
    1.4398    2.1915    0.1815 C   0  0  0  0  0  0  0  0  0  0  0  0
   -2.2959    1.7898    0.0736 C   0  0  0  0  0  0  0  0  0  0  0  0
   -2.2845    0.3714   -0.0955 C   0  0  0  0  0  3  0  0  0  0  0  0
   -3.5226   -0.2893   -0.2410 C   0  0  0  0  0  0  0  0  0  0  0  0
   -3.5426   -1.3796   -0.3850 H   0  0  0  0  0  0  0  0  0  0  0  0
   -4.7614    0.3863   -0.2111 C   0  0  0  0  0  0  0  0  0  0  0  0
   -4.7401    1.7824   -0.0236 C   0  0  0  0  0  0  0  0  0  0  0  0
   -5.6899    2.3410    0.0127 H   0  0  0  0  0  0  0  0  0  0  0  0
   -3.5295    2.4726    0.1132 C   0  0  0  0  0  0  0  0  0  0  0  0
   -3.5525    3.5640    0.2551 H   0  0  0  0  0  0  0  0  0  0  0  0
   -6.0634   -0.3563   -0.3804 C   0  0  0  0  0  0  0  0  0  0  0  0
   -6.7562   -0.1650    0.4658 H   0  0  0  0  0  0  0  0  0  0  0  0
   -5.9001   -1.4501   -0.4445 H   0  0  0  0  0  0  0  0  0  0  0  0
   -6.5942   -0.0414   -1.3041 H   0  0  0  0  0  0  0  0  0  0  0  0
    2.6840    1.3708    0.1328 C   0  0  0  0  0  0  0  0  0  0  0  0
    3.6635    1.5966   -0.8586 C   0  0  0  0  0  0  0  0  0  0  0  0
    3.4964    2.3899   -1.6038 H   0  0  0  0  0  0  0  0  0  0  0  0
    4.8305    0.8201   -0.9179 C   0  0  0  0  0  0  0  0  0  0  0  0
    5.5720    1.0160   -1.7093 H   0  0  0  0  0  0  0  0  0  0  0  0
    5.0716   -0.2105    0.0122 C   0  0  0  0  0  0  0  0  0  0  0  0
    4.1046   -0.4195    1.0183 C   0  0  0  0  0  0  0  0  0  0  0  0
    4.2781   -1.1982    1.7791 H   0  0  0  0  0  0  0  0  0  0  0  0
    2.9387    0.3544    1.0786 C   0  0  0  0  0  0  0  0  0  0  0  0
    2.2111    0.1967    1.8862 H   0  0  0  0  0  0  0  0  0  0  0  0
    6.3063   -1.0727   -0.0708 C   0  0  0  0  0  0  0  0  0  0  0  0
    7.1019   -0.5915   -0.6727 H   0  0  0  0  0  0  0  0  0  0  0  0
    6.0815   -2.0524   -0.5458 H   0  0  0  0  0  0  0  0  0  0  0  0
    6.7200   -1.2914    0.9344 H   0  0  0  0  0  0  0  0  0  0  0  0
  2  3  1  0  0  0  0
  2  1  2  0  0  0  0
  3  5  2  0  0  0  0
  4  3  1  0  0  0  0
  5  6  1  0  0  0  0
  7  9  2  0  0  0  0
  7  5  1  0  0  0  0
  8  7  1  0  0  0  0
  9  1  1  0  0  0  0
 10 17  1  0  0  0  0
 10  2  1  0  0  0  0
 11 10  2  0  0  0  0
 12 14  2  0  0  0  0
 12 11  1  0  0  0  0
 13 12  1  0  0  0  0
 14 15  1  0  0  0  0
 15 16  1  0  0  0  0
 15 17  2  0  0  0  0
 17 18  1  0  0  0  0
 19 14  1  0  0  0  0
 19 20  1  0  0  0  0
 21 19  1  0  0  0  0
 22 19  1  0  0  0  0
 23  9  1  0  0  0  0
 23 31  1  0  0  0  0
 24 23  2  0  0  0  0
 25 24  1  0  0  0  0
 26 24  1  0  0  0  0
 26 28  2  0  0  0  0
 27 26  1  0  0  0  0
 28 29  1  0  0  0  0
 29 31  2  0  0  0  0
 29 30  1  0  0  0  0
 31 32  1  0  0  0  0
 33 28  1  0  0  0  0
 33 36  1  0  0  0  0
 34 33  1  0  0  0  0
 35 33  1  0  0  0  0
M  END
