3,5
 OpenBabel05122313053D

 43 45  0  0  1  0  0  0  0  0999 V2000
   -1.2729    1.5682   -0.1503 C   0  0  0  0  0  0  0  0  0  0  0  0
   -0.1913    0.6294   -0.2755 C   0  0  1  0  0  3  0  0  0  0  0  0
   -0.2183   -0.2819   -1.3678 C   0  0  0  0  0  3  0  0  0  0  0  0
   -1.2672   -0.2771   -2.3293 C   0  0  0  0  0  3  0  0  0  0  0  0
   -2.3556    0.6139   -2.1466 C   0  0  0  0  0  3  0  0  0  0  0  0
   -2.3609    1.5508   -1.0708 C   0  0  0  0  0  0  0  0  0  0  0  0
    0.9836    0.6419    0.7093 C   0  0  1  0  0  0  0  0  0  0  0  0
   -1.1931    2.4280    0.8950 O   0  0  0  0  0  0  0  0  0  0  0  0
   -2.3500    3.1682    1.2652 C   0  0  0  0  0  0  0  0  0  0  0  0
    1.5579   -0.7024    0.8478 N   0  0  0  0  0  0  0  0  0  0  0  0
    2.1154    1.4860    0.2595 N   0  0  0  0  0  0  0  0  0  0  0  0
    1.1351   -1.4311    2.0267 C   0  0  0  0  0  0  0  0  0  0  0  0
    1.8108    2.6954   -0.4721 C   0  0  0  0  0  0  0  0  0  0  0  0
    2.9965   -0.5902    0.6497 C   0  0  1  0  0  0  0  0  0  0  0  0
    3.7536   -1.8061    0.1260 C   0  0  0  0  0  0  0  0  0  0  0  0
    5.2250   -1.3953   -0.0777 C   0  0  0  0  0  0  0  0  0  0  0  0
    5.3803   -0.1381   -0.9539 C   0  0  0  0  0  0  0  0  0  0  0  0
    4.5326    1.0520   -0.4618 C   0  0  0  0  0  0  0  0  0  0  0  0
    3.0884    0.5788   -0.3245 C   0  0  2  0  0  0  0  0  0  0  0  0
    0.5846   -1.0318   -1.4015 H   0  0  0  0  0  0  0  0  0  0  0  0
   -1.2837   -1.0169   -3.1402 H   0  0  0  0  0  0  0  0  0  0  0  0
   -3.2154    0.5812   -2.8307 H   0  0  0  0  0  0  0  0  0  0  0  0
   -3.2195    2.2192   -0.9402 H   0  0  0  0  0  0  0  0  0  0  0  0
    0.6016    1.0379    1.6793 H   0  0  0  0  0  0  0  0  0  0  0  0
   -2.0825    3.7126    2.1888 H   0  0  0  0  0  0  0  0  0  0  0  0
   -2.6351    3.9033    0.4816 H   0  0  0  0  0  0  0  0  0  0  0  0
   -3.2059    2.4921    1.4738 H   0  0  0  0  0  0  0  0  0  0  0  0
    0.0309   -1.4369    2.0932 H   0  0  0  0  0  0  0  0  0  0  0  0
    1.4625   -2.4874    1.9582 H   0  0  0  0  0  0  0  0  0  0  0  0
    1.5437   -0.9956    2.9759 H   0  0  0  0  0  0  0  0  0  0  0  0
    2.7332    3.3006   -0.5825 H   0  0  0  0  0  0  0  0  0  0  0  0
    1.3951    2.5208   -1.4989 H   0  0  0  0  0  0  0  0  0  0  0  0
    1.0772    3.3032    0.0928 H   0  0  0  0  0  0  0  0  0  0  0  0
    3.4977   -0.2618    1.6017 H   0  0  0  0  0  0  0  0  0  0  0  0
    3.2983   -2.1402   -0.8319 H   0  0  0  0  0  0  0  0  0  0  0  0
    3.6850   -2.6594    0.8321 H   0  0  0  0  0  0  0  0  0  0  0  0
    5.8003   -2.2352   -0.5189 H   0  0  0  0  0  0  0  0  0  0  0  0
    5.6796   -1.1986    0.9186 H   0  0  0  0  0  0  0  0  0  0  0  0
    5.0733   -0.3847   -1.9948 H   0  0  0  0  0  0  0  0  0  0  0  0
    6.4494    0.1537   -1.0095 H   0  0  0  0  0  0  0  0  0  0  0  0
    4.6155    1.8991   -1.1744 H   0  0  0  0  0  0  0  0  0  0  0  0
    4.8922    1.4168    0.5246 H   0  0  0  0  0  0  0  0  0  0  0  0
    2.7615    0.2174   -1.3409 H   0  0  0  0  0  0  0  0  0  0  0  0
  1  8  1  0  0  0  0
  2  3  1  6  0  0  0
  2  1  1  0  0  0  0
  2  7  1  0  0  0  0
  4  5  1  0  0  0  0
  4  3  1  0  0  0  0
  5  6  1  0  0  0  0
  6 23  1  0  0  0  0
  6  1  2  0  0  0  0
  7 10  1  0  0  0  0
  7 24  1  1  0  0  0
  8  9  1  0  0  0  0
  9 27  1  0  0  0  0
  9 25  1  0  0  0  0
 10 12  1  0  0  0  0
 11  7  1  0  0  0  0
 12 28  1  0  0  0  0
 12 30  1  0  0  0  0
 13 33  1  0  0  0  0
 13 11  1  0  0  0  0
 14 10  1  0  0  0  0
 14 34  1  1  0  0  0
 15 14  1  0  0  0  0
 15 36  1  0  0  0  0
 16 15  1  0  0  0  0
 16 38  1  0  0  0  0
 17 18  1  0  0  0  0
 17 16  1  0  0  0  0
 18 19  1  0  0  0  0
 18 42  1  0  0  0  0
 19 43  1  6  0  0  0
 19 11  1  0  0  0  0
 19 14  1  0  0  0  0
 20  3  1  0  0  0  0
 21  4  1  0  0  0  0
 22  5  1  0  0  0  0
 26  9  1  0  0  0  0
 29 12  1  0  0  0  0
 31 13  1  0  0  0  0
 32 13  1  0  0  0  0
 35 15  1  0  0  0  0
 37 16  1  0  0  0  0
 39 17  1  0  0  0  0
 40 17  1  0  0  0  0
 41 18  1  0  0  0  0
M  END
