3,4
 OpenBabel05122313053D

 12 11  0  0  0  0  0  0  0  0999 V2000
    1.4702   -1.0608    2.6951 N   0  0  0  0  0  2  0  0  0  0  0  0
   -1.6470   -1.3428    2.4485 N   0  0  0  0  0  2  0  0  0  0  0  0
    0.8757   -0.6233    1.6783 C   0  0  0  0  0  3  0  0  0  0  0  0
   -0.9795   -0.8424    1.5112 C   0  0  0  0  0  3  0  0  0  0  0  0
    1.2990   -0.5244    4.0295 C   0  0  0  0  0  0  0  0  0  0  0  0
   -1.4252   -2.6512    3.0204 C   0  0  0  0  0  0  0  0  0  0  0  0
    1.5941    0.5484    4.0875 H   0  0  0  0  0  0  0  0  0  0  0  0
    0.2289   -0.5795    4.3418 H   0  0  0  0  0  0  0  0  0  0  0  0
    1.9100   -1.0891    4.7616 H   0  0  0  0  0  0  0  0  0  0  0  0
   -2.1171   -2.8358    3.8662 H   0  0  0  0  0  0  0  0  0  0  0  0
   -1.5664   -3.4672    2.2737 H   0  0  0  0  0  0  0  0  0  0  0  0
   -0.3735   -2.7411    3.3856 H   0  0  0  0  0  0  0  0  0  0  0  0
  1  5  1  0  0  0  0
  2  6  1  0  0  0  0
  3  1  1  0  0  0  0
  4  3  2  0  0  0  0
  4  2  1  0  0  0  0
  5  7  1  0  0  0  0
  5  8  1  0  0  0  0
  5  9  1  0  0  0  0
  6 12  1  0  0  0  0
  6 10  1  0  0  0  0
 11  6  1  0  0  0  0
M  END
