5,8
 OpenBabel05122313053D

 15 15  0  0  0  0  0  0  0  0999 V2000
    2.2604    0.2026   -0.0000 S   0  0  0  0  0  0  0  0  0  0  0  0
    3.0832   -1.0264    0.0000 O   0  0  0  0  0  0  0  0  0  0  0  0
    2.8620    1.5520   -0.0001 O   0  0  0  0  0  0  0  0  0  0  0  0
    1.0646    0.1329   -1.3276 C   0  0  0  0  0  3  0  0  0  0  0  0
    0.3531   -1.0393   -1.6254 C   0  0  0  0  0  3  0  0  0  0  0  0
   -0.0829   -2.0501   -0.7093 C   0  0  0  0  0  0  0  0  0  0  0  0
   -0.0829   -2.0500    0.7095 C   0  0  0  0  0  0  0  0  0  0  0  0
    0.3531   -1.0391    1.6255 C   0  0  0  0  0  3  0  0  0  0  0  0
    1.0646    0.1331    1.3276 C   0  0  0  0  0  3  0  0  0  0  0  0
    1.2029    0.9119   -2.0924 H   0  0  0  0  0  0  0  0  0  0  0  0
   -0.0339   -1.1469   -2.6522 H   0  0  0  0  0  0  0  0  0  0  0  0
   -0.6623   -2.8683   -1.1646 H   0  0  0  0  0  0  0  0  0  0  0  0
   -0.6623   -2.8682    1.1649 H   0  0  0  0  0  0  0  0  0  0  0  0
   -0.0339   -1.1466    2.6524 H   0  0  0  0  0  0  0  0  0  0  0  0
    1.2029    0.9122    2.0923 H   0  0  0  0  0  0  0  0  0  0  0  0
  1  2  2  0  0  0  0
  1  9  1  0  0  0  0
  3  1  2  0  0  0  0
  4  1  1  0  0  0  0
  5  4  1  0  0  0  0
  5  6  1  0  0  0  0
  6  7  2  0  0  0  0
  7 13  1  0  0  0  0
  7  8  1  0  0  0  0
  8 14  1  0  0  0  0
  9  8  1  0  0  0  0
  9 15  1  0  0  0  0
 10  4  1  0  0  0  0
 11  5  1  0  0  0  0
 12  6  1  0  0  0  0
M  END
