1,5
 OpenBabel05122313053D

 31 32  0  0  0  0  0  0  0  0999 V2000
    0.5024   -1.7261   -0.1263 C   0  0  0  0  0  3  0  0  0  0  0  0
   -0.5393   -2.6299   -0.0547 C   0  0  0  0  0  0  0  0  0  0  0  0
   -1.9429   -2.3259    0.0737 C   0  0  0  0  0  0  0  0  0  0  0  0
   -2.4870   -1.1149    0.4412 C   0  0  0  0  0  0  0  0  0  0  0  0
   -1.6124   -0.0129    0.9702 C   0  0  0  0  0  3  0  0  0  0  0  0
    2.3172   -3.3586    0.5182 C   0  0  0  0  0  0  0  0  0  0  0  0
    3.5993   -3.9084    0.3737 C   0  0  0  0  0  0  0  0  0  0  0  0
    4.4645   -3.4282   -0.6222 C   0  0  0  0  0  0  0  0  0  0  0  0
    4.0235   -2.4019   -1.4747 C   0  0  0  0  0  0  0  0  0  0  0  0
    2.7468   -1.8454   -1.3207 C   0  0  0  0  0  0  0  0  0  0  0  0
    1.8627   -2.3013   -0.3124 C   0  0  0  0  0  0  0  0  0  0  0  0
   -4.7775   -1.6131   -0.5184 C   0  0  0  0  0  0  0  0  0  0  0  0
   -6.1606   -1.4047   -0.5648 C   0  0  0  0  0  0  0  0  0  0  0  0
   -6.7699   -0.4753    0.2961 C   0  0  0  0  0  0  0  0  0  0  0  0
   -5.9711    0.2418    1.2009 C   0  0  0  0  0  0  0  0  0  0  0  0
   -4.5862    0.0333    1.2475 C   0  0  0  0  0  0  0  0  0  0  0  0
   -3.9506   -0.9089    0.3970 C   0  0  0  0  0  0  0  0  0  0  0  0
   -0.3006   -3.6972   -0.2188 H   0  0  0  0  0  0  0  0  0  0  0  0
   -2.6356   -3.1565   -0.1456 H   0  0  0  0  0  0  0  0  0  0  0  0
   -2.1232    0.9714    0.8849 H   0  0  0  0  0  0  0  0  0  0  0  0
   -1.4868   -0.1800    2.0671 H   0  0  0  0  0  0  0  0  0  0  0  0
    1.6414   -3.7484    1.2956 H   0  0  0  0  0  0  0  0  0  0  0  0
    3.9239   -4.7198    1.0440 H   0  0  0  0  0  0  0  0  0  0  0  0
    5.4725   -3.8549   -0.7380 H   0  0  0  0  0  0  0  0  0  0  0  0
    4.6845   -2.0288   -2.2729 H   0  0  0  0  0  0  0  0  0  0  0  0
    2.4211   -1.0337   -1.9815 H   0  0  0  0  0  0  0  0  0  0  0  0
   -4.3137   -2.3179   -1.2252 H   0  0  0  0  0  0  0  0  0  0  0  0
   -6.7702   -1.9632   -1.2922 H   0  0  0  0  0  0  0  0  0  0  0  0
   -7.8565   -0.3056    0.2545 H   0  0  0  0  0  0  0  0  0  0  0  0
   -6.4328    0.9732    1.8826 H   0  0  0  0  0  0  0  0  0  0  0  0
   -3.9794    0.5966    1.9709 H   0  0  0  0  0  0  0  0  0  0  0  0
  1  2  2  0  0  0  0
  2  3  1  0  0  0  0
  3  4  2  0  0  0  0
  4  5  1  0  0  0  0
  5 21  1  0  0  0  0
  6 22  1  0  0  0  0
  7  6  1  0  0  0  0
  7 23  1  0  0  0  0
  8  7  2  0  0  0  0
  9 10  2  0  0  0  0
  9  8  1  0  0  0  0
 10 11  1  0  0  0  0
 11  1  1  0  0  0  0
 11  6  2  0  0  0  0
 12 17  1  0  0  0  0
 13 12  2  0  0  0  0
 13 14  1  0  0  0  0
 14 15  2  0  0  0  0
 15 16  1  0  0  0  0
 15 30  1  0  0  0  0
 16 31  1  0  0  0  0
 17  4  1  0  0  0  0
 17 16  2  0  0  0  0
 18  2  1  0  0  0  0
 19  3  1  0  0  0  0
 20  5  1  0  0  0  0
 24  8  1  0  0  0  0
 25  9  1  0  0  0  0
 26 10  1  0  0  0  0
 27 12  1  0  0  0  0
 28 13  1  0  0  0  0
 29 14  1  0  0  0  0
M  END
