6,8
 OpenBabel05122313053D

 33 33  0  0  1  0  0  0  0  0999 V2000
    1.3793   -0.9828   -1.5513 O   0  0  0  0  0  0  0  0  0  0  0  0
    1.2608    2.2896   -1.4290 O   0  0  0  0  0  0  0  0  0  0  0  0
    2.8611   -0.1153   -0.0407 N   0  0  0  0  0  0  0  0  0  0  0  0
    0.4500    0.0866    0.3905 C   0  0  0  0  0  0  0  0  0  0  0  0
   -0.1209    1.4110    0.3275 C   0  0  2  0  0  3  0  0  0  0  0  0
   -1.2216    1.7345    1.1831 C   0  0  0  0  0  3  0  0  0  0  0  0
   -1.7239    0.7918    2.1167 C   0  0  0  0  0  3  0  0  0  0  0  0
   -1.1868   -0.5212    2.1181 C   0  0  0  0  0  3  0  0  0  0  0  0
   -0.0756   -0.8905    1.2910 C   0  0  0  0  0  0  0  0  0  0  0  0
    1.5984   -0.3503   -0.5172 C   0  0  0  0  0  0  0  0  0  0  0  0
    0.2839    2.3926   -0.7033 C   0  0  0  0  0  0  0  0  0  0  0  0
    0.4996   -2.2806    1.3507 C   0  0  0  0  0  0  0  0  0  0  0  0
    3.1639    0.6101    1.1892 C   0  0  0  0  0  0  0  0  0  0  0  0
    3.7052    2.0240    0.9635 C   0  0  0  0  0  0  0  0  0  0  0  0
    3.9800   -0.6196   -0.8398 C   0  0  0  0  0  0  0  0  0  0  0  0
    4.3600   -2.0551   -0.4748 C   0  0  0  0  0  0  0  0  0  0  0  0
   -1.6860    2.7286    1.0952 H   0  0  0  0  0  0  0  0  0  0  0  0
   -2.5867    1.0386    2.7495 H   0  0  0  0  0  0  0  0  0  0  0  0
   -1.6355   -1.2854    2.7694 H   0  0  0  0  0  0  0  0  0  0  0  0
   -0.4025    3.2897   -0.7606 H   0  0  0  0  0  0  0  0  0  0  0  0
    1.4388   -2.2912    1.9435 H   0  0  0  0  0  0  0  0  0  0  0  0
   -0.2120   -2.9836    1.8231 H   0  0  0  0  0  0  0  0  0  0  0  0
    0.7383   -2.6484    0.3355 H   0  0  0  0  0  0  0  0  0  0  0  0
    3.8945    0.0090    1.7757 H   0  0  0  0  0  0  0  0  0  0  0  0
    2.2423    0.6521    1.8021 H   0  0  0  0  0  0  0  0  0  0  0  0
    3.8811    2.5272    1.9355 H   0  0  0  0  0  0  0  0  0  0  0  0
    2.9942    2.6261    0.3674 H   0  0  0  0  0  0  0  0  0  0  0  0
    4.6697    2.0094    0.4172 H   0  0  0  0  0  0  0  0  0  0  0  0
    4.8392    0.0670   -0.6987 H   0  0  0  0  0  0  0  0  0  0  0  0
    3.6767   -0.5653   -1.9033 H   0  0  0  0  0  0  0  0  0  0  0  0
    4.6339   -2.1471    0.5966 H   0  0  0  0  0  0  0  0  0  0  0  0
    5.2277   -2.3943   -1.0756 H   0  0  0  0  0  0  0  0  0  0  0  0
    3.5135   -2.7392   -0.6809 H   0  0  0  0  0  0  0  0  0  0  0  0
  1 10  2  0  0  0  0
  2 11  2  0  0  0  0
  3 13  1  0  0  0  0
  4  9  2  0  0  0  0
  5 11  1  6  0  0  0
  5  4  1  0  0  0  0
  5  6  1  0  0  0  0
  6  7  1  0  0  0  0
  7  8  1  0  0  0  0
  7 18  1  0  0  0  0
  8 19  1  0  0  0  0
  9 12  1  0  0  0  0
  9  8  1  0  0  0  0
 10  3  1  0  0  0  0
 10  4  1  0  0  0  0
 12 22  1  0  0  0  0
 12 21  1  0  0  0  0
 13 24  1  0  0  0  0
 13 25  1  0  0  0  0
 14 13  1  0  0  0  0
 14 26  1  0  0  0  0
 15 29  1  0  0  0  0
 15 16  1  0  0  0  0
 15  3  1  0  0  0  0
 16 31  1  0  0  0  0
 17  6  1  0  0  0  0
 20 11  1  0  0  0  0
 23 12  1  0  0  0  0
 27 14  1  0  0  0  0
 28 14  1  0  0  0  0
 30 15  1  0  0  0  0
 32 16  1  0  0  0  0
 33 16  1  0  0  0  0
M  END
