1,7
 OpenBabel05122313053D

 13 15  0  0  1  0  0  0  0  0999 V2000
   -1.1695    3.1689    0.8315 C   0  0  0  0  0  3  0  0  0  0  0  0
   -1.3342    3.1684   -0.5575 C   0  0  0  0  0  3  0  0  0  0  0  0
    0.0955    4.0206    0.8281 C   0  0  2  0  0  0  0  0  0  0  0  0
    0.0004    5.2755   -0.0006 C   0  0  0  0  0  0  0  0  0  0  0  0
   -0.0950    4.0206   -0.8293 C   0  0  2  0  0  0  0  0  0  0  0  0
    1.3346    3.1682    0.5563 C   0  0  0  0  0  3  0  0  0  0  0  0
    1.1699    3.1687   -0.8327 C   0  0  0  0  0  3  0  0  0  0  0  0
   -1.8483    2.9400    1.6659 H   0  0  0  0  0  0  0  0  0  0  0  0
   -2.1882    2.9344   -1.2136 H   0  0  0  0  0  0  0  0  0  0  0  0
   -0.9203    5.8727    0.1022 H   0  0  0  0  0  0  0  0  0  0  0  0
    0.9212    5.8725   -0.1034 H   0  0  0  0  0  0  0  0  0  0  0  0
    2.1885    2.9342    1.2124 H   0  0  0  0  0  0  0  0  0  0  0  0
    1.8486    2.9396   -1.6671 H   0  0  0  0  0  0  0  0  0  0  0  0
  1  8  1  0  0  0  0
  2  1  1  0  0  0  0
  3  6  1  1  0  0  0
  3  1  1  0  0  0  0
  4 10  1  0  0  0  0
  4  3  1  0  0  0  0
  5  7  1  6  0  0  0
  5  2  1  0  0  0  0
  5  4  1  0  0  0  0
  5  3  1  0  0  0  0
  6 12  1  0  0  0  0
  7  6  1  0  0  0  0
  9  2  1  0  0  0  0
 11  4  1  0  0  0  0
 13  7  1  0  0  0  0
M  END
