6,33
q = -2.0, confidence = 0.75

 54 55  0  0  1  0  0  0  0  0999 V2000
    1.6023    5.8055    2.1379 C   0  0  0  0  0  0  0  0  0  0  0  0
    2.3585    6.3799    2.6542 H   0  0  0  0  0  0  0  0  0  0  0  0
   -0.2061    3.2845   -1.5729 O   0  0  0  0  0  0  0  0  0  0  0  0
    3.9206    1.2241    0.9539 O   0  0  0  0  0  0  0  0  0  0  0  0
    0.1181    3.0252    0.6624 O   0  0  0  0  0  0  0  0  0  0  0  0
    0.5710    1.1587   -0.7386 C   0  0  1  0  0  3  0  0  0  0  0  0
    0.1569    2.5793   -0.6362 C   0  0  0  0  0  0  0  0  0  0  0  0
    2.9190    2.8759   -0.2174 O   0  0  0  0  0  0  0  0  0  0  0  0
    1.5072    0.7153   -1.8327 C   0  0  0  0  0  0  0  0  0  0  0  0
   -0.2855    4.3895    0.8670 C   0  0  0  0  0  0  0  0  0  0  0  0
   -1.2162    4.3753    1.4751 H   0  0  0  0  0  0  0  0  0  0  0  0
   -0.5206    4.8360   -0.1237 H   0  0  0  0  0  0  0  0  0  0  0  0
    3.0403    1.5804    0.1887 C   0  0  0  0  0  0  0  0  0  0  0  0
    1.9754    0.6693   -0.3449 C   0  0  1  0  0  0  0  0  0  0  0  0
    1.2438   -0.5920   -2.5636 C   0  0  0  0  0  0  0  0  0  0  0  0
    0.8248   -1.3810   -1.9188 H   0  0  0  0  0  0  0  0  0  0  0  0
    2.1787   -0.9709   -3.0222 H   0  0  0  0  0  0  0  0  0  0  0  0
    0.5142   -0.4013   -3.3795 H   0  0  0  0  0  0  0  0  0  0  0  0
    2.1359    1.7310   -2.7787 C   0  0  0  0  0  0  0  0  0  0  0  0
    1.4933    1.8398   -3.6762 H   0  0  0  0  0  0  0  0  0  0  0  0
    3.1250    1.3523   -3.1097 H   0  0  0  0  0  0  0  0  0  0  0  0
    2.2708    2.7282   -2.3340 H   0  0  0  0  0  0  0  0  0  0  0  0
    3.9115    3.7684    0.2935 C   0  0  0  0  0  0  0  0  0  0  0  0
    3.8788    3.7960    1.4009 H   0  0  0  0  0  0  0  0  0  0  0  0
    3.6664    4.7637   -0.1173 H   0  0  0  0  0  0  0  0  0  0  0  0
    4.9263    3.4498   -0.0195 H   0  0  0  0  0  0  0  0  0  0  0  0
    0.7523    5.1494    1.5542 C   0  0  0  0  0  0  0  0  0  0  0  0
    1.5962   -5.8075   -2.1374 C   0  0  0  0  0  0  0  0  0  0  0  0
    2.3516   -6.3831   -2.6535 H   0  0  0  0  0  0  0  0  0  0  0  0
   -0.2092   -3.2842    1.5730 O   0  0  0  0  0  0  0  0  0  0  0  0
    3.9192   -1.2279   -0.9543 O   0  0  0  0  0  0  0  0  0  0  0  0
    0.1151   -3.0253   -0.6623 O   0  0  0  0  0  0  0  0  0  0  0  0
    0.5699   -1.1591    0.7386 C   0  0  1  0  0  3  0  0  0  0  0  0
    0.1544   -2.5793    0.6362 C   0  0  0  0  0  0  0  0  0  0  0  0
    2.9162   -2.8787    0.2172 O   0  0  0  0  0  0  0  0  0  0  0  0
    1.5067   -0.7167    1.8326 C   0  0  0  0  0  0  0  0  0  0  0  0
   -0.2900   -4.3891   -0.8668 C   0  0  0  0  0  0  0  0  0  0  0  0
   -1.2207   -4.3741   -1.4749 H   0  0  0  0  0  0  0  0  0  0  0  0
   -0.5256   -4.8354    0.1239 H   0  0  0  0  0  0  0  0  0  0  0  0
    3.0388   -1.5833   -0.1889 C   0  0  0  0  0  0  0  0  0  0  0  0
    1.9747   -0.6712    0.3447 C   0  0  2  0  0  0  0  0  0  0  0  0
    1.2447    0.5910    2.5634 C   0  0  0  0  0  0  0  0  0  0  0  0
    0.8264    1.3804    1.9186 H   0  0  0  0  0  0  0  0  0  0  0  0
    2.1800    0.9690    3.0218 H   0  0  0  0  0  0  0  0  0  0  0  0
    0.5151    0.4011    3.3794 H   0  0  0  0  0  0  0  0  0  0  0  0
    2.1345   -1.7329    2.7786 C   0  0  0  0  0  0  0  0  0  0  0  0
    1.4919   -1.8411    3.6761 H   0  0  0  0  0  0  0  0  0  0  0  0
    3.1241   -1.3552    3.1095 H   0  0  0  0  0  0  0  0  0  0  0  0
    2.2685   -2.7302    2.3338 H   0  0  0  0  0  0  0  0  0  0  0  0
    3.9076   -3.7722   -0.2938 C   0  0  0  0  0  0  0  0  0  0  0  0
    3.8747   -3.7998   -1.4012 H   0  0  0  0  0  0  0  0  0  0  0  0
    3.6616   -4.7673    0.1171 H   0  0  0  0  0  0  0  0  0  0  0  0
    4.9229   -3.4546    0.0189 H   0  0  0  0  0  0  0  0  0  0  0  0
    0.7471   -5.1503   -1.5539 C   0  0  0  0  0  0  0  0  0  0  0  0
  1  2  1  0  0  0  0
  3  7  2  0  0  0  0
  5 10  1  0  0  0  0
  6  7  1  6  0  0  0
  6 14  1  0  0  0  0
  7  5  1  0  0  0  0
  8 13  1  0  0  0  0
  8 23  1  0  0  0  0
  9  6  1  0  0  0  0
  9 14  1  0  0  0  0
 10 11  1  0  0  0  0
 10 27  1  0  0  0  0
 12 10  1  0  0  0  0
 13  4  2  0  0  0  0
 14 13  1  1  0  0  0
 14 41  1  0  0  0  0
 15 16  1  0  0  0  0
 15  9  1  0  0  0  0
 17 15  1  0  0  0  0
 18 15  1  0  0  0  0
 19 22  1  0  0  0  0
 19  9  1  0  0  0  0
 20 19  1  0  0  0  0
 21 19  1  0  0  0  0
 23 24  1  0  0  0  0
 25 23  1  0  0  0  0
 26 23  1  0  0  0  0
 27  1  3  0  0  0  0
 28 54  3  0  0  0  0
 29 28  1  0  0  0  0
 31 40  2  0  0  0  0
 32 34  1  0  0  0  0
 33 34  1  1  0  0  0
 33 36  1  0  0  0  0
 34 30  2  0  0  0  0
 36 42  1  0  0  0  0
 36 46  1  0  0  0  0
 37 32  1  0  0  0  0
 37 39  1  0  0  0  0
 38 37  1  0  0  0  0
 40 35  1  0  0  0  0
 41 40  1  6  0  0  0
 41 33  1  0  0  0  0
 41 36  1  0  0  0  0
 42 44  1  0  0  0  0
 42 45  1  0  0  0  0
 43 42  1  0  0  0  0
 46 48  1  0  0  0  0
 46 47  1  0  0  0  0
 49 46  1  0  0  0  0
 50 53  1  0  0  0  0
 50 52  1  0  0  0  0
 50 35  1  0  0  0  0
 51 50  1  0  0  0  0
 54 37  1  0  0  0  0
M  END
