6,30
 OpenBabel05122313053D

 56 58  0  0  0  0  0  0  0  0999 V2000
    2.1658   -1.5006    0.4382 N   0  0  0  0  0  0  0  0  0  0  0  0
    3.7992    0.1748   -0.3743 C   0  0  0  0  0  0  0  0  0  0  0  0
    2.9000   -0.9986   -0.7261 C   0  0  0  0  0  0  0  0  0  0  0  0
    2.1319   -0.7636   -1.4875 H   0  0  0  0  0  0  0  0  0  0  0  0
    3.5090   -1.8327   -1.1260 H   0  0  0  0  0  0  0  0  0  0  0  0
    0.8424   -1.2502    0.6704 C   0  0  0  0  0  2  0  0  0  0  0  0
    0.5852   -1.8292    1.8817 N   0  0  0  0  0  0  0  0  0  0  0  0
   -0.6941   -1.7823    2.5908 C   0  0  0  0  0  0  0  0  0  0  0  0
   -1.2960   -1.0090    2.0793 H   0  0  0  0  0  0  0  0  0  0  0  0
   -0.4873   -1.4202    3.6195 H   0  0  0  0  0  0  0  0  0  0  0  0
   -1.4447   -3.1169    2.6313 C   0  0  0  0  0  0  0  0  0  0  0  0
   -0.7660   -3.8983    3.0387 H   0  0  0  0  0  0  0  0  0  0  0  0
   -2.2592   -3.0030    3.3811 H   0  0  0  0  0  0  0  0  0  0  0  0
   -2.0345   -3.5701    1.2901 C   0  0  0  0  0  0  0  0  0  0  0  0
   -2.4358   -4.5976    1.4224 H   0  0  0  0  0  0  0  0  0  0  0  0
   -1.2304   -3.6447    0.5256 H   0  0  0  0  0  0  0  0  0  0  0  0
   -3.1335   -2.6539    0.7498 C   0  0  0  0  0  0  0  0  0  0  0  0
   -3.9581   -2.5189    1.4828 H   0  0  0  0  0  0  0  0  0  0  0  0
   -3.5626   -3.0660   -0.1839 H   0  0  0  0  0  0  0  0  0  0  0  0
   -2.7386   -1.6531    0.4722 H   0  0  0  0  0  0  0  0  0  0  0  0
    1.7233   -2.4531    2.3827 C   0  0  0  0  0  0  0  0  0  0  0  0
    1.7232   -2.9922    3.3344 H   0  0  0  0  0  0  0  0  0  0  0  0
    2.7235   -2.2408    1.4725 C   0  0  0  0  0  0  0  0  0  0  0  0
    3.7721   -2.5495    1.4768 H   0  0  0  0  0  0  0  0  0  0  0  0
    3.3824    1.5311   -0.4346 C   0  0  0  0  0  0  0  0  0  0  0  0
    1.0280    2.2400    0.1180 N   0  0  0  0  0  0  0  0  0  0  0  0
    2.0152    1.9637   -0.9327 C   0  0  0  0  0  0  0  0  0  0  0  0
    2.1200    2.8892   -1.5334 H   0  0  0  0  0  0  0  0  0  0  0  0
    1.5423    1.2043   -1.5843 H   0  0  0  0  0  0  0  0  0  0  0  0
   -0.0591    1.4431    0.3536 C   0  0  0  0  0  2  0  0  0  0  0  0
   -0.7882    2.1060    1.2970 N   0  0  0  0  0  0  0  0  0  0  0  0
   -2.1241    1.6922    1.7226 C   0  0  0  0  0  0  0  0  0  0  0  0
   -2.1688    1.7166    2.8325 H   0  0  0  0  0  0  0  0  0  0  0  0
   -2.2294    0.6398    1.3926 H   0  0  0  0  0  0  0  0  0  0  0  0
   -3.2356    2.5274    1.0872 C   0  0  0  0  0  0  0  0  0  0  0  0
   -3.0649    2.5222   -0.0114 H   0  0  0  0  0  0  0  0  0  0  0  0
   -3.1653    3.5830    1.4331 H   0  0  0  0  0  0  0  0  0  0  0  0
   -4.6232    1.9604    1.3966 C   0  0  0  0  0  0  0  0  0  0  0  0
   -4.6632    0.9086    1.0362 H   0  0  0  0  0  0  0  0  0  0  0  0
   -4.7767    1.9134    2.4988 H   0  0  0  0  0  0  0  0  0  0  0  0
   -5.7501    2.7645    0.7482 C   0  0  0  0  0  0  0  0  0  0  0  0
   -5.7534    3.8166    1.1030 H   0  0  0  0  0  0  0  0  0  0  0  0
   -6.7444    2.3309    0.9758 H   0  0  0  0  0  0  0  0  0  0  0  0
   -5.6356    2.7855   -0.3548 H   0  0  0  0  0  0  0  0  0  0  0  0
   -0.1737    3.3054    1.6415 C   0  0  0  0  0  0  0  0  0  0  0  0
   -0.6057    3.9960    2.3715 H   0  0  0  0  0  0  0  0  0  0  0  0
    0.9754    3.3889    0.8999 C   0  0  0  0  0  0  0  0  0  0  0  0
    1.7475    4.1621    0.8644 H   0  0  0  0  0  0  0  0  0  0  0  0
    4.2946    2.5381   -0.0554 C   0  0  0  0  0  0  0  0  0  0  0  0
    3.9874    3.5929   -0.1384 H   0  0  0  0  0  0  0  0  0  0  0  0
    5.5849    2.2361    0.3970 C   0  0  0  0  0  0  0  0  0  0  0  0
    6.2722    3.0452    0.6858 H   0  0  0  0  0  0  0  0  0  0  0  0
    5.9986    0.8978    0.4504 C   0  0  0  0  0  0  0  0  0  0  0  0
    7.0159    0.6405    0.7815 H   0  0  0  0  0  0  0  0  0  0  0  0
    5.1113   -0.1118    0.0575 C   0  0  0  0  0  0  0  0  0  0  0  0
    5.4480   -1.1608    0.0714 H   0  0  0  0  0  0  0  0  0  0  0  0
  1  6  1  0  0  0  0
  1 23  1  0  0  0  0
  2 55  1  0  0  0  0
  3  2  1  0  0  0  0
  3  1  1  0  0  0  0
  4  3  1  0  0  0  0
  5  3  1  0  0  0  0
  6  7  1  0  0  0  0
  7 21  1  0  0  0  0
  7  8  1  0  0  0  0
  8 11  1  0  0  0  0
  8 10  1  0  0  0  0
  9  8  1  0  0  0  0
 11 12  1  0  0  0  0
 11 13  1  0  0  0  0
 14 15  1  0  0  0  0
 14 11  1  0  0  0  0
 16 14  1  0  0  0  0
 17 14  1  0  0  0  0
 17 18  1  0  0  0  0
 19 17  1  0  0  0  0
 20 17  1  0  0  0  0
 21 22  1  0  0  0  0
 23 24  1  0  0  0  0
 23 21  2  0  0  0  0
 25  2  2  0  0  0  0
 25 49  1  0  0  0  0
 26 30  1  0  0  0  0
 26 47  1  0  0  0  0
 27 25  1  0  0  0  0
 27 26  1  0  0  0  0
 28 27  1  0  0  0  0
 29 27  1  0  0  0  0
 30 31  1  0  0  0  0
 31 45  1  0  0  0  0
 31 32  1  0  0  0  0
 32 33  1  0  0  0  0
 34 32  1  0  0  0  0
 35 38  1  0  0  0  0
 35 37  1  0  0  0  0
 35 32  1  0  0  0  0
 36 35  1  0  0  0  0
 38 40  1  0  0  0  0
 39 38  1  0  0  0  0
 41 43  1  0  0  0  0
 41 42  1  0  0  0  0
 41 38  1  0  0  0  0
 44 41  1  0  0  0  0
 45 46  1  0  0  0  0
 47 45  2  0  0  0  0
 48 47  1  0  0  0  0
 49 51  2  0  0  0  0
 50 49  1  0  0  0  0
 51 53  1  0  0  0  0
 51 52  1  0  0  0  0
 53 54  1  0  0  0  0
 55 56  1  0  0  0  0
 55 53  2  0  0  0  0
M  END
