1,14
 OpenBabel05122313053D

 25 26  0  0  0  0  0  0  0  0999 V2000
    0.6254    0.2598    0.0512 C   0  0  0  0  0  2  0  0  0  0  0  0
    0.8691    1.7104    0.0758 C   0  0  0  0  0  0  0  0  0  0  0  0
    1.7354    2.3228   -0.8668 C   0  0  0  0  0  0  0  0  0  0  0  0
    1.9251    3.7107   -0.8690 C   0  0  0  0  0  0  0  0  0  0  0  0
    1.2868    4.5136    0.0913 C   0  0  0  0  0  0  0  0  0  0  0  0
    0.4483    3.9193    1.0500 C   0  0  0  0  0  0  0  0  0  0  0  0
    0.2320    2.5359    1.0354 C   0  0  0  0  0  0  0  0  0  0  0  0
    1.7543   -0.6518   -0.0827 C   0  0  0  0  0  0  0  0  0  0  0  0
    3.1011   -0.3824    0.2699 C   0  0  0  0  0  0  0  0  0  0  0  0
    4.0503   -1.4064    0.2037 C   0  0  0  0  0  0  0  0  0  0  0  0
    3.6684   -2.6968   -0.2200 C   0  0  0  0  0  0  0  0  0  0  0  0
    2.3438   -2.9678   -0.5976 C   0  0  0  0  0  0  0  0  0  0  0  0
    1.3815   -1.9439   -0.5630 C   0  0  0  0  0  0  0  0  0  0  0  0
   -0.0407   -2.0487   -0.9963 C   0  0  0  0  0  3  0  0  0  0  0  0
    2.2357    1.6943   -1.6189 H   0  0  0  0  0  0  0  0  0  0  0  0
    2.5802    4.1711   -1.6244 H   0  0  0  0  0  0  0  0  0  0  0  0
    1.4463    5.6026    0.0951 H   0  0  0  0  0  0  0  0  0  0  0  0
   -0.0415    4.5416    1.8147 H   0  0  0  0  0  0  0  0  0  0  0  0
   -0.4209    2.0554    1.7793 H   0  0  0  0  0  0  0  0  0  0  0  0
    3.3785    0.6150    0.6432 H   0  0  0  0  0  0  0  0  0  0  0  0
    5.0911   -1.2151    0.5060 H   0  0  0  0  0  0  0  0  0  0  0  0
    4.4208   -3.5000   -0.2588 H   0  0  0  0  0  0  0  0  0  0  0  0
    2.0592   -3.9754   -0.9392 H   0  0  0  0  0  0  0  0  0  0  0  0
   -0.1354   -1.7136   -2.0531 H   0  0  0  0  0  0  0  0  0  0  0  0
   -0.4365   -3.0817   -0.9273 H   0  0  0  0  0  0  0  0  0  0  0  0
  1  2  1  0  0  0  0
  2  7  1  0  0  0  0
  3  2  2  0  0  0  0
  4  3  1  0  0  0  0
  4  5  2  0  0  0  0
  5 17  1  0  0  0  0
  5  6  1  0  0  0  0
  6 18  1  0  0  0  0
  7  6  2  0  0  0  0
  7 19  1  0  0  0  0
  8  1  1  0  0  0  0
  8  9  1  0  0  0  0
  9 20  1  0  0  0  0
 10  9  2  0  0  0  0
 10 21  1  0  0  0  0
 11 10  1  0  0  0  0
 12 13  1  0  0  0  0
 12 11  2  0  0  0  0
 13  8  2  0  0  0  0
 14 25  1  0  0  0  0
 14 13  1  0  0  0  0
 15  3  1  0  0  0  0
 16  4  1  0  0  0  0
 22 11  1  0  0  0  0
 23 12  1  0  0  0  0
 24 14  1  0  0  0  0
M  END
