1,14
 OpenBabel05122313053D

 34 36  0  0  1  0  0  0  0  0999 V2000
    0.4222   -1.3356   -0.3437 C   0  0  0  0  0  2  0  0  0  0  0  0
    0.2204   -2.6062   -0.8352 N   0  0  0  0  0  0  0  0  0  0  0  0
    1.7869   -1.2073   -0.2753 N   0  0  0  0  0  0  0  0  0  0  0  0
   -1.0681   -3.2251   -1.0936 C   0  0  0  0  0  0  0  0  0  0  0  0
   -1.8584   -2.4937   -0.8491 H   0  0  0  0  0  0  0  0  0  0  0  0
   -1.1825   -4.1386   -0.4757 H   0  0  0  0  0  0  0  0  0  0  0  0
   -1.1611   -3.4860   -2.1654 H   0  0  0  0  0  0  0  0  0  0  0  0
    1.4328   -3.2480   -1.0522 C   0  0  0  0  0  0  0  0  0  0  0  0
    1.4896   -4.2642   -1.4526 H   0  0  0  0  0  0  0  0  0  0  0  0
    2.4207   -2.3728   -0.6918 C   0  0  0  0  0  0  0  0  0  0  0  0
    3.5071   -2.4803   -0.7000 H   0  0  0  0  0  0  0  0  0  0  0  0
    2.4472   -0.0333    0.3528 C   0  0  2  0  0  0  0  0  0  0  0  0
    2.2119   -0.1148    1.4365 H   0  0  0  0  0  0  0  0  0  0  0  0
    0.4490    1.4201   -0.2972 C   0  0  0  0  0  3  0  0  0  0  0  0
   -0.0397    2.6737   -0.7411 C   0  0  0  0  0  0  0  0  0  0  0  0
   -1.1206    2.7883   -0.9149 H   0  0  0  0  0  0  0  0  0  0  0  0
    0.8085    3.7657   -0.9705 C   0  0  0  0  0  0  0  0  0  0  0  0
    0.3849    4.7251   -1.3076 H   0  0  0  0  0  0  0  0  0  0  0  0
    2.1904    3.6308   -0.7733 C   0  0  0  0  0  0  0  0  0  0  0  0
    2.8697    4.4807   -0.9388 H   0  0  0  0  0  0  0  0  0  0  0  0
    2.7043    2.3911   -0.3715 C   0  0  0  0  0  0  0  0  0  0  0  0
    3.7879    2.2850   -0.2185 H   0  0  0  0  0  0  0  0  0  0  0  0
    1.8545    1.2849   -0.1511 C   0  0  0  0  0  0  0  0  0  0  0  0
    3.9518   -0.1433    0.2021 C   0  0  0  0  0  0  0  0  0  0  0  0
    4.7679   -0.3103    1.3338 C   0  0  0  0  0  0  0  0  0  0  0  0
    4.3019   -0.3599    2.3308 H   0  0  0  0  0  0  0  0  0  0  0  0
    6.1633   -0.4098    1.2045 C   0  0  0  0  0  0  0  0  0  0  0  0
    6.7890   -0.5357    2.1010 H   0  0  0  0  0  0  0  0  0  0  0  0
    6.7548   -0.3506   -0.0656 C   0  0  0  0  0  0  0  0  0  0  0  0
    7.8475   -0.4301   -0.1707 H   0  0  0  0  0  0  0  0  0  0  0  0
    5.9468   -0.1858   -1.2043 C   0  0  0  0  0  0  0  0  0  0  0  0
    6.4063   -0.1335   -2.2031 H   0  0  0  0  0  0  0  0  0  0  0  0
    4.5563   -0.0783   -1.0717 C   0  0  0  0  0  0  0  0  0  0  0  0
    3.9239    0.0663   -1.9610 H   0  0  0  0  0  0  0  0  0  0  0  0
  1  3  1  0  0  0  0
  2  1  1  0  0  0  0
  3 12  1  0  0  0  0
  4  5  1  0  0  0  0
  4  2  1  0  0  0  0
  4  6  1  0  0  0  0
  7  4  1  0  0  0  0
  8  2  1  0  0  0  0
  8 10  2  0  0  0  0
  9  8  1  0  0  0  0
 10  3  1  0  0  0  0
 11 10  1  0  0  0  0
 12 13  1  1  0  0  0
 14 23  1  0  0  0  0
 15 14  2  0  0  0  0
 16 15  1  0  0  0  0
 17 19  2  0  0  0  0
 17 15  1  0  0  0  0
 18 17  1  0  0  0  0
 19 21  1  0  0  0  0
 20 19  1  0  0  0  0
 21 22  1  0  0  0  0
 21 23  2  0  0  0  0
 23 12  1  0  0  0  0
 24 12  1  0  0  0  0
 24 25  1  0  0  0  0
 25 26  1  0  0  0  0
 27 25  2  0  0  0  0
 27 28  1  0  0  0  0
 29 27  1  0  0  0  0
 30 29  1  0  0  0  0
 31 33  1  0  0  0  0
 31 29  2  0  0  0  0
 32 31  1  0  0  0  0
 33 24  2  0  0  0  0
 34 33  1  0  0  0  0
M  END
