2,38
 OpenBabel05122313053D

 44 45  0  0  1  0  0  0  0  0999 V2000
    0.1029   -0.6858    2.4472 N   0  0  0  0  0  0  0  0  0  0  0  0
   -0.0520   -0.3771    1.1660 C   0  0  0  0  0  2  0  0  0  0  0  0
    1.3472   -0.1150   -0.1117 Si  0  0  0  0  0  0  0  0  0  0  0  0
    1.3835   -0.9964    3.0893 C   0  0  0  0  0  0  0  0  0  0  0  0
    1.3073   -1.9564    3.6410 H   0  0  0  0  0  0  0  0  0  0  0  0
    1.6514   -0.2014    3.8172 H   0  0  0  0  0  0  0  0  0  0  0  0
    2.1796   -1.0845    2.3318 H   0  0  0  0  0  0  0  0  0  0  0  0
   -1.0365   -0.7882    3.3653 C   0  0  0  0  0  0  0  0  0  0  0  0
   -0.7612   -0.3668    4.3528 H   0  0  0  0  0  0  0  0  0  0  0  0
   -1.3213   -1.8529    3.5019 H   0  0  0  0  0  0  0  0  0  0  0  0
   -1.8940   -0.2383    2.9450 H   0  0  0  0  0  0  0  0  0  0  0  0
    3.0029   -1.0622   -0.1264 C   0  0  0  0  0  0  0  0  0  0  0  0
    4.0776   -0.6512    0.6989 C   0  0  0  0  0  0  0  0  0  0  0  0
    3.9530    0.2190    1.3647 H   0  0  0  0  0  0  0  0  0  0  0  0
    5.3129   -1.3145    0.6687 C   0  0  0  0  0  0  0  0  0  0  0  0
    6.1339   -0.9773    1.3202 H   0  0  0  0  0  0  0  0  0  0  0  0
    5.5071   -2.3977   -0.2047 C   0  0  0  0  0  0  0  0  0  0  0  0
    6.4772   -2.9171   -0.2336 H   0  0  0  0  0  0  0  0  0  0  0  0
    4.4641   -2.8042   -1.0508 C   0  0  0  0  0  0  0  0  0  0  0  0
    4.6159   -3.6402   -1.7510 H   0  0  0  0  0  0  0  0  0  0  0  0
    3.2265   -2.1416   -1.0097 C   0  0  0  0  0  0  0  0  0  0  0  0
    2.4248   -2.4596   -1.6930 H   0  0  0  0  0  0  0  0  0  0  0  0
    1.8353    1.7090    0.0015 C   0  0  0  0  0  0  0  0  0  0  0  0
    1.3051    2.5727    0.9847 C   0  0  0  0  0  0  0  0  0  0  0  0
    0.5490    2.1942    1.6910 H   0  0  0  0  0  0  0  0  0  0  0  0
    1.7048    3.9156    1.0565 C   0  0  0  0  0  0  0  0  0  0  0  0
    1.2764    4.5749    1.8268 H   0  0  0  0  0  0  0  0  0  0  0  0
    2.6397    4.4203    0.1392 C   0  0  0  0  0  0  0  0  0  0  0  0
    2.9478    5.4759    0.1891 H   0  0  0  0  0  0  0  0  0  0  0  0
    3.1800    3.5755   -0.8440 C   0  0  0  0  0  0  0  0  0  0  0  0
    3.9143    3.9666   -1.5649 H   0  0  0  0  0  0  0  0  0  0  0  0
    2.7867    2.2302   -0.9051 C   0  0  0  0  0  0  0  0  0  0  0  0
    3.2334    1.5734   -1.6696 H   0  0  0  0  0  0  0  0  0  0  0  0
    0.3394    0.3723   -2.8724 C   0  0  0  0  0  0  0  0  0  0  0  0
    0.4355    1.4437   -2.6137 H   0  0  0  0  0  0  0  0  0  0  0  0
   -0.5647    0.2438   -3.5027 H   0  0  0  0  0  0  0  0  0  0  0  0
    1.2221    0.1089   -3.4970 H   0  0  0  0  0  0  0  0  0  0  0  0
    0.3052   -0.5306   -1.6557 C   0  0  1  0  0  3  0  0  0  0  0  0
   -0.3917   -1.7387   -1.7137 C   0  0  0  0  0  3  0  0  0  0  0  0
   -0.9978   -1.9055   -2.6271 H   0  0  0  0  0  0  0  0  0  0  0  0
   -0.1270   -2.9920   -0.9160 C   0  0  0  0  0  0  0  0  0  0  0  0
   -1.0527   -3.5607   -0.7068 H   0  0  0  0  0  0  0  0  0  0  0  0
    0.3827   -2.7957    0.0478 H   0  0  0  0  0  0  0  0  0  0  0  0
    0.5321   -3.6660   -1.5086 H   0  0  0  0  0  0  0  0  0  0  0  0
  1  4  1  0  0  0  0
  1  8  1  0  0  0  0
  2  1  1  0  0  0  0
  3 23  1  0  0  0  0
  3  2  1  0  0  0  0
  4  5  1  0  0  0  0
  4  6  1  0  0  0  0
  7  4  1  0  0  0  0
  8 10  1  0  0  0  0
  8  9  1  0  0  0  0
 11  8  1  0  0  0  0
 12  3  1  0  0  0  0
 12 13  1  0  0  0  0
 13 14  1  0  0  0  0
 15 13  2  0  0  0  0
 15 16  1  0  0  0  0
 17 15  1  0  0  0  0
 18 17  1  0  0  0  0
 19 21  1  0  0  0  0
 19 17  2  0  0  0  0
 20 19  1  0  0  0  0
 21 12  2  0  0  0  0
 22 21  1  0  0  0  0
 23 24  1  0  0  0  0
 24 26  2  0  0  0  0
 24 25  1  0  0  0  0
 26 27  1  0  0  0  0
 28 29  1  0  0  0  0
 28 26  1  0  0  0  0
 30 28  2  0  0  0  0
 31 30  1  0  0  0  0
 32 30  1  0  0  0  0
 32 23  2  0  0  0  0
 33 32  1  0  0  0  0
 34 35  1  0  0  0  0
 34 38  1  0  0  0  0
 36 34  1  0  0  0  0
 37 34  1  0  0  0  0
 38 39  1  6  0  0  0
 38  3  1  0  0  0  0
 39 41  1  0  0  0  0
 40 39  1  0  0  0  0
 41 42  1  0  0  0  0
 41 43  1  0  0  0  0
 44 41  1  0  0  0  0
M  END
