3,5
 OpenBabel05122313053D

 30 31  0  0  0  0  0  0  0  0999 V2000
   -1.9545   -0.8900    0.4223 O   0  0  0  0  0  0  0  0  0  0  0  0
    0.7931   -0.6882    0.8879 C   0  0  0  0  0  0  0  0  0  0  0  0
    1.8144   -1.6218    1.2054 C   0  0  0  0  0  3  0  0  0  0  0  0
    2.6425   -2.1754    0.1913 C   0  0  0  0  0  3  0  0  0  0  0  0
    2.4558   -1.7496   -1.1515 C   0  0  0  0  0  3  0  0  0  0  0  0
    1.4360   -0.8159   -1.4819 C   0  0  0  0  0  3  0  0  0  0  0  0
    0.5921   -0.2732   -0.4668 C   0  0  0  0  0  0  0  0  0  0  0  0
   -0.5422    0.6407   -0.7992 C   0  0  0  0  0  0  0  0  0  0  0  0
   -1.9066   -0.0182   -0.4222 C   0  0  0  0  0  0  0  0  0  0  0  0
   -3.1084    0.5285   -1.1739 C   0  0  0  0  0  0  0  0  0  0  0  0
   -4.4358    0.2875   -0.5000 C   0  0  0  0  0  0  0  0  0  0  0  0
   -5.1274    1.3565    0.1009 C   0  0  0  0  0  0  0  0  0  0  0  0
   -6.3530    1.1375    0.7477 C   0  0  0  0  0  0  0  0  0  0  0  0
   -6.8956   -0.1552    0.8038 C   0  0  0  0  0  0  0  0  0  0  0  0
   -6.2099   -1.2270    0.2093 C   0  0  0  0  0  0  0  0  0  0  0  0
   -4.9867   -1.0076   -0.4386 C   0  0  0  0  0  0  0  0  0  0  0  0
    0.1866   -0.2481    1.6890 H   0  0  0  0  0  0  0  0  0  0  0  0
    1.9827   -1.8993    2.2567 H   0  0  0  0  0  0  0  0  0  0  0  0
    3.4496   -2.8753    0.4481 H   0  0  0  0  0  0  0  0  0  0  0  0
    3.1225   -2.1256   -1.9418 H   0  0  0  0  0  0  0  0  0  0  0  0
    1.3216   -0.4790   -2.5222 H   0  0  0  0  0  0  0  0  0  0  0  0
   -0.5331    0.9486   -1.8627 H   0  0  0  0  0  0  0  0  0  0  0  0
   -0.5041    1.5749   -0.1975 H   0  0  0  0  0  0  0  0  0  0  0  0
   -3.0672    0.0358   -2.1754 H   0  0  0  0  0  0  0  0  0  0  0  0
   -2.9414    1.6073   -1.3796 H   0  0  0  0  0  0  0  0  0  0  0  0
   -4.7081    2.3745    0.0552 H   0  0  0  0  0  0  0  0  0  0  0  0
   -6.8878    1.9823    1.2067 H   0  0  0  0  0  0  0  0  0  0  0  0
   -7.8579   -0.3281    1.3083 H   0  0  0  0  0  0  0  0  0  0  0  0
   -6.6339   -2.2415    0.2474 H   0  0  0  0  0  0  0  0  0  0  0  0
   -4.4549   -1.8524   -0.9026 H   0  0  0  0  0  0  0  0  0  0  0  0
  2  3  1  0  0  0  0
  2 17  1  0  0  0  0
  3 18  1  0  0  0  0
  4 19  1  0  0  0  0
  4  3  1  0  0  0  0
  5  4  1  0  0  0  0
  6  5  1  0  0  0  0
  6  7  1  0  0  0  0
  7  2  2  0  0  0  0
  8  7  1  0  0  0  0
  8  9  1  0  0  0  0
  8 23  1  0  0  0  0
  9  1  2  0  0  0  0
 10 11  1  0  0  0  0
 10  9  1  0  0  0  0
 11 16  2  0  0  0  0
 11 12  1  0  0  0  0
 12 13  2  0  0  0  0
 13 14  1  0  0  0  0
 13 27  1  0  0  0  0
 14 28  1  0  0  0  0
 15 29  1  0  0  0  0
 15 14  2  0  0  0  0
 16 15  1  0  0  0  0
 20  5  1  0  0  0  0
 21  6  1  0  0  0  0
 22  8  1  0  0  0  0
 24 10  1  0  0  0  0
 25 10  1  0  0  0  0
 26 12  1  0  0  0  0
 30 16  1  0  0  0  0
M  END
