12,16
 OpenBabel05122313053D

 33 36  0  0  1  0  0  0  0  0999 V2000
   -1.5056    2.8536   -0.5274 C   0  0  2  0  0  0  0  0  0  0  0  0
   -1.8096    3.8374   -0.9332 H   0  0  0  0  0  0  0  0  0  0  0  0
   -2.6813    2.1345   -0.1142 O   0  0  0  0  0  0  0  0  0  0  0  0
   -2.5959    0.8666   -0.5856 C   0  0  0  0  0  0  0  0  0  0  0  0
   -1.4353    0.6236   -1.3837 C   0  0  2  0  0  3  0  0  0  0  0  0
   -0.6213    1.8926   -1.3904 C   0  0  2  0  0  0  0  0  0  0  0  0
   -0.3038    2.2293   -2.3989 H   0  0  0  0  0  0  0  0  0  0  0  0
    0.4228    2.0271   -0.3573 N   0  0  0  0  0  0  0  0  0  0  0  0
   -0.3238    2.8471    0.4874 C   0  0  0  0  0  0  0  0  0  0  0  0
   -3.5585   -0.1369   -0.3258 C   0  0  0  0  0  0  0  0  0  0  0  0
   -4.4012    0.0509    0.3503 H   0  0  0  0  0  0  0  0  0  0  0  0
   -3.3772   -1.3934   -0.9828 C   0  0  0  0  0  3  0  0  0  0  0  0
   -4.1041   -2.1972   -0.7989 H   0  0  0  0  0  0  0  0  0  0  0  0
   -2.2757   -1.6374   -1.8541 C   0  0  0  0  0  3  0  0  0  0  0  0
   -2.1507   -2.6256   -2.3151 H   0  0  0  0  0  0  0  0  0  0  0  0
   -1.2630   -0.6436   -2.0043 C   0  0  0  0  0  3  0  0  0  0  0  0
   -0.3653   -0.8536   -2.6023 H   0  0  0  0  0  0  0  0  0  0  0  0
    1.6326    1.3350   -0.2138 C   0  0  0  0  0  0  0  0  0  0  0  0
    2.1932    0.6564   -1.3100 C   0  0  0  0  0  0  0  0  0  0  0  0
    1.7012    0.6945   -2.2932 H   0  0  0  0  0  0  0  0  0  0  0  0
    3.3729   -0.0866   -1.1629 C   0  0  0  0  0  0  0  0  0  0  0  0
    3.7777   -0.6222   -2.0311 H   0  0  0  0  0  0  0  0  0  0  0  0
    4.0088   -0.1506    0.0929 C   0  0  0  0  0  0  0  0  0  0  0  0
    3.4542    0.5527    1.1862 C   0  0  0  0  0  0  0  0  0  0  0  0
    3.9657    0.4904    2.1573 H   0  0  0  0  0  0  0  0  0  0  0  0
    2.2797    1.2867    1.0434 C   0  0  0  0  0  0  0  0  0  0  0  0
    1.8371    1.8203    1.8951 H   0  0  0  0  0  0  0  0  0  0  0  0
    5.1431   -0.8556    0.3493 O   0  0  0  0  0  0  0  0  0  0  0  0
    5.7010   -1.6297   -0.6943 C   0  0  0  0  0  0  0  0  0  0  0  0
    6.5867   -2.1376   -0.2697 H   0  0  0  0  0  0  0  0  0  0  0  0
    4.9857   -2.3979   -1.0653 H   0  0  0  0  0  0  0  0  0  0  0  0
    6.0256   -0.9993   -1.5533 H   0  0  0  0  0  0  0  0  0  0  0  0
   -0.1000    3.3352    1.5725 O   0  0  0  0  0  0  0  0  0  0  0  0
  1  2  1  6  0  0  0
  1  3  1  0  0  0  0
  1  9  1  0  0  0  0
  4 10  2  0  0  0  0
  4  3  1  0  0  0  0
  5 16  1  6  0  0  0
  5  4  1  0  0  0  0
  6  7  1  6  0  0  0
  6  5  1  0  0  0  0
  6  1  1  0  0  0  0
  6  8  1  0  0  0  0
  8 18  1  0  0  0  0
  8  9  1  0  0  0  0
  9 33  2  0  0  0  0
 10 11  1  0  0  0  0
 12 13  1  0  0  0  0
 12 10  1  0  0  0  0
 14 12  1  0  0  0  0
 15 14  1  0  0  0  0
 16 14  1  0  0  0  0
 17 16  1  0  0  0  0
 18 26  1  0  0  0  0
 19 21  1  0  0  0  0
 19 18  2  0  0  0  0
 20 19  1  0  0  0  0
 21 23  2  0  0  0  0
 22 21  1  0  0  0  0
 23 28  1  0  0  0  0
 23 24  1  0  0  0  0
 24 25  1  0  0  0  0
 26 24  2  0  0  0  0
 26 27  1  0  0  0  0
 29 30  1  0  0  0  0
 29 28  1  0  0  0  0
 31 29  1  0  0  0  0
 32 29  1  0  0  0  0
M  END
