3,6
 OpenBabel05122313053D

  8  7  0  0  0  0  0  0  0  0999 V2000
    1.5365    0.5156    2.8860 O   0  0  0  0  0  0  0  0  0  0  0  0
    1.7042    1.8659   -2.1511 O   0  0  0  0  0  0  0  0  0  0  0  0
    1.6163    0.8364    1.7030 C   0  0  0  0  0  3  0  0  0  0  0  0
    2.2091    2.1728    1.3532 C   0  0  0  0  0  0  0  0  0  0  0  0
    2.2779    2.5202    0.0491 C   0  0  0  0  0  0  0  0  0  0  0  0
    1.7320    1.5530   -0.9656 C   0  0  0  0  0  3  0  0  0  0  0  0
    2.5546    2.8095    2.1849 H   0  0  0  0  0  0  0  0  0  0  0  0
    2.6836    3.4773   -0.3197 H   0  0  0  0  0  0  0  0  0  0  0  0
  2  6  2  0  0  0  0
  3  1  2  0  0  0  0
  4  3  1  0  0  0  0
  4  7  1  0  0  0  0
  5  4  2  0  0  0  0
  6  5  1  0  0  0  0
  8  5  1  0  0  0  0
M  END
