2,13
 OpenBabel05122313053D

 25 26  0  0  1  0  0  0  0  0999 V2000
    1.0092    3.4710   -0.2762 Cl  0  0  0  0  0  0  0  0  0  0  0  0
   -1.7929    0.6258    0.0700 C   0  0  0  0  0  3  0  0  0  0  0  0
   -3.1805    0.4940    0.1747 C   0  0  0  0  0  0  0  0  0  0  0  0
   -3.6223   -0.5105    0.2440 H   0  0  0  0  0  0  0  0  0  0  0  0
   -3.9853    1.6496    0.1832 C   0  0  0  0  0  0  0  0  0  0  0  0
   -5.0777    1.5405    0.2699 H   0  0  0  0  0  0  0  0  0  0  0  0
   -3.4166    2.9318    0.0793 C   0  0  0  0  0  0  0  0  0  0  0  0
   -4.0597    3.8244    0.0821 H   0  0  0  0  0  0  0  0  0  0  0  0
   -2.0301    3.0709   -0.0294 C   0  0  0  0  0  3  0  0  0  0  0  0
   -1.5654    4.0639   -0.1142 H   0  0  0  0  0  0  0  0  0  0  0  0
   -1.2124    1.9184   -0.0276 C   0  0  0  0  0  0  0  0  0  0  0  0
    0.2369    1.9061   -0.0983 C   0  0  0  0  0  0  0  0  0  0  0  0
    0.9128    0.6946   -0.0506 C   0  0  0  0  0  2  0  0  0  0  0  0
    2.3406    0.5770   -0.0066 C   0  0  1  0  0  3  0  0  0  0  0  0
    3.3871    1.6622    0.2120 C   0  0  0  0  0  0  0  0  0  0  0  0
    3.0771    2.3935    0.9795 H   0  0  0  0  0  0  0  0  0  0  0  0
    3.5010    2.2367   -0.7323 H   0  0  0  0  0  0  0  0  0  0  0  0
    4.4193   -0.5101   -0.0539 C   0  0  0  0  0  0  0  0  0  0  0  0
    4.8580   -0.5981   -1.0738 H   0  0  0  0  0  0  0  0  0  0  0  0
    4.8053   -1.3596    0.5441 H   0  0  0  0  0  0  0  0  0  0  0  0
    4.6565    0.8693    0.5805 C   0  0  0  0  0  0  0  0  0  0  0  0
    5.5860    1.3523    0.2268 H   0  0  0  0  0  0  0  0  0  0  0  0
    4.7278    0.7677    1.6822 H   0  0  0  0  0  0  0  0  0  0  0  0
    2.9670   -0.5794   -0.1449 N   0  0  0  0  0  0  0  0  0  0  0  0
    2.4175   -1.4905   -0.2645 H   0  0  0  0  0  0  0  0  0  0  0  0
  1 12  1  0  0  0  0
  2  3  2  0  0  0  0
  3  5  1  0  0  0  0
  3  4  1  0  0  0  0
  5  6  1  0  0  0  0
  7  8  1  0  0  0  0
  7  5  2  0  0  0  0
  9 11  1  0  0  0  0
  9  7  1  0  0  0  0
 10  9  1  0  0  0  0
 11  2  1  0  0  0  0
 12 13  1  0  0  0  0
 12 11  2  0  0  0  0
 14 13  1  1  0  0  0
 14 15  1  0  0  0  0
 15 21  1  0  0  0  0
 15 16  1  0  0  0  0
 17 15  1  0  0  0  0
 18 20  1  0  0  0  0
 18 21  1  0  0  0  0
 19 18  1  0  0  0  0
 21 23  1  0  0  0  0
 22 21  1  0  0  0  0
 24 18  1  0  0  0  0
 24 14  1  0  0  0  0
 25 24  1  0  0  0  0
M  END
