7,27
q = 0.0, confidence = 0.998

 43 44  0  0  0  0  0  0  0  0999 V2000
   -2.6458   -0.6884   -0.3974 N   0  0  0  0  0  0  0  0  0  0  0  0
   -3.0454    0.0439   -0.9855 H   0  0  0  0  0  0  0  0  0  0  0  0
   -1.1950   -1.8142    0.7146 N   0  0  0  0  0  0  0  0  0  0  0  0
    1.1994   -1.8124    0.7161 N   0  0  0  0  0  0  0  0  0  0  0  0
    2.6491   -0.6854   -0.3958 N   0  0  0  0  0  0  0  0  0  0  0  0
    3.0485    0.0478   -0.9827 H   0  0  0  0  0  0  0  0  0  0  0  0
   -1.3565   -0.6289    0.0428 C   0  0  0  0  0  2  0  0  0  0  0  0
   -3.3000   -1.8623   -0.0183 C   0  0  0  0  0  0  0  0  0  0  0  0
   -2.3672   -2.5770    0.6932 C   0  0  0  0  0  0  0  0  0  0  0  0
   -2.4416   -3.5521    1.1816 H   0  0  0  0  0  0  0  0  0  0  0  0
   -4.7367   -2.1544   -0.3840 C   0  0  0  0  0  0  0  0  0  0  0  0
   -5.6421   -1.0464    0.2025 C   0  0  0  0  0  0  0  0  0  0  0  0
   -5.5578   -1.0031    1.3066 H   0  0  0  0  0  0  0  0  0  0  0  0
   -6.7014   -1.2439   -0.0558 H   0  0  0  0  0  0  0  0  0  0  0  0
   -5.3866   -0.0446   -0.2011 H   0  0  0  0  0  0  0  0  0  0  0  0
   -4.8767   -2.1857   -1.9235 C   0  0  0  0  0  0  0  0  0  0  0  0
   -4.6035   -1.2148   -2.3860 H   0  0  0  0  0  0  0  0  0  0  0  0
   -5.9268   -2.3997   -2.2053 H   0  0  0  0  0  0  0  0  0  0  0  0
   -4.2321   -2.9693   -2.3683 H   0  0  0  0  0  0  0  0  0  0  0  0
   -5.1425   -3.5180    0.2003 C   0  0  0  0  0  0  0  0  0  0  0  0
   -4.5143   -4.3360   -0.2060 H   0  0  0  0  0  0  0  0  0  0  0  0
   -6.1950   -3.7431   -0.0599 H   0  0  0  0  0  0  0  0  0  0  0  0
   -5.0607   -3.5262    1.3058 H   0  0  0  0  0  0  0  0  0  0  0  0
    0.0020   -2.1064    1.4806 C   0  0  0  0  0  0  0  0  0  0  0  0
    0.0009   -1.4949    2.4104 H   0  0  0  0  0  0  0  0  0  0  0  0
    0.0026   -3.1768    1.7562 H   0  0  0  0  0  0  0  0  0  0  0  0
    1.3600   -0.6266    0.0451 C   0  0  0  0  0  2  0  0  0  0  0  0
    2.3717   -2.5750    0.6933 C   0  0  0  0  0  0  0  0  0  0  0  0
    2.4466   -3.5505    1.1808 H   0  0  0  0  0  0  0  0  0  0  0  0
    3.3039   -1.8593   -0.0180 C   0  0  0  0  0  0  0  0  0  0  0  0
    4.7404   -2.1505   -0.3849 C   0  0  0  0  0  0  0  0  0  0  0  0
    5.6459   -1.0431    0.2025 C   0  0  0  0  0  0  0  0  0  0  0  0
    5.3898   -0.0408   -0.1993 H   0  0  0  0  0  0  0  0  0  0  0  0
    6.7051   -1.2398   -0.0570 H   0  0  0  0  0  0  0  0  0  0  0  0
    5.5626   -1.0014    1.3067 H   0  0  0  0  0  0  0  0  0  0  0  0
    4.8796   -2.1797   -1.9245 C   0  0  0  0  0  0  0  0  0  0  0  0
    4.2348   -2.9628   -2.3700 H   0  0  0  0  0  0  0  0  0  0  0  0
    5.9295   -2.3932   -2.2072 H   0  0  0  0  0  0  0  0  0  0  0  0
    4.6059   -1.2083   -2.3855 H   0  0  0  0  0  0  0  0  0  0  0  0
    5.1470   -3.5148    0.1973 C   0  0  0  0  0  0  0  0  0  0  0  0
    5.0659   -3.5245    1.3029 H   0  0  0  0  0  0  0  0  0  0  0  0
    6.1995   -3.7392   -0.0638 H   0  0  0  0  0  0  0  0  0  0  0  0
    4.5189   -4.3325   -0.2097 H   0  0  0  0  0  0  0  0  0  0  0  0
  1  8  1  0  0  0  0
  1  7  1  0  0  0  0
  2  1  1  0  0  0  0
  3 24  1  0  0  0  0
  4 24  1  0  0  0  0
  5 30  1  0  0  0  0
  5 27  1  0  0  0  0
  6  5  1  0  0  0  0
  7  3  1  0  0  0  0
  8  9  2  0  0  0  0
  9  3  1  0  0  0  0
  9 10  1  0  0  0  0
 11  8  1  0  0  0  0
 11 20  1  0  0  0  0
 11 12  1  0  0  0  0
 12 13  1  0  0  0  0
 14 12  1  0  0  0  0
 15 12  1  0  0  0  0
 16 11  1  0  0  0  0
 17 16  1  0  0  0  0
 18 16  1  0  0  0  0
 19 16  1  0  0  0  0
 20 23  1  0  0  0  0
 21 20  1  0  0  0  0
 22 20  1  0  0  0  0
 24 26  1  0  0  0  0
 24 25  1  0  0  0  0
 27  4  1  0  0  0  0
 28  4  1  0  0  0  0
 28 29  1  0  0  0  0
 30 28  2  0  0  0  0
 31 30  1  0  0  0  0
 31 40  1  0  0  0  0
 31 32  1  0  0  0  0
 32 35  1  0  0  0  0
 33 32  1  0  0  0  0
 34 32  1  0  0  0  0
 36 31  1  0  0  0  0
 37 36  1  0  0  0  0
 38 36  1  0  0  0  0
 39 36  1  0  0  0  0
 40 41  1  0  0  0  0
 42 40  1  0  0  0  0
 43 40  1  0  0  0  0
M  END
