5,30
 OpenBabel05122313053D

 52 53  0  0  1  0  0  0  0  0999 V2000
    2.3045   -0.0806   -0.7708 C   0  0  0  0  0  0  0  0  0  0  0  0
    2.1162    1.2770   -0.3828 C   0  0  0  0  0  0  0  0  0  0  0  0
    2.7465    1.8338    0.3197 H   0  0  0  0  0  0  0  0  0  0  0  0
    0.9814    1.8214   -1.0581 C   0  0  2  0  0  3  0  0  0  0  0  0
    0.4388    0.7713   -1.8644 C   0  0  0  0  0  3  0  0  0  0  0  0
   -0.4110    0.8668   -2.5476 H   0  0  0  0  0  0  0  0  0  0  0  0
    1.2368   -0.3959   -1.6716 C   0  0  0  0  0  3  0  0  0  0  0  0
    1.0752   -1.3648   -2.1556 H   0  0  0  0  0  0  0  0  0  0  0  0
    0.5683    3.2770   -1.0017 C   0  0  0  0  0  0  0  0  0  0  0  0
    1.3528    3.8653   -1.5249 H   0  0  0  0  0  0  0  0  0  0  0  0
    0.6019    3.6107    0.0585 H   0  0  0  0  0  0  0  0  0  0  0  0
   -0.7766    3.5828   -1.6084 C   0  0  0  0  0  0  0  0  0  0  0  0
   -0.7933    3.9159   -2.6601 H   0  0  0  0  0  0  0  0  0  0  0  0
    3.5394   -0.9193   -0.4502 C   0  0  0  0  0  0  0  0  0  0  0  0
    3.8472   -0.9211    1.0610 C   0  0  0  0  0  0  0  0  0  0  0  0
    3.0464   -1.4306    1.6290 H   0  0  0  0  0  0  0  0  0  0  0  0
    3.9452    0.1080    1.4603 H   0  0  0  0  0  0  0  0  0  0  0  0
    4.8037   -1.4497    1.2508 H   0  0  0  0  0  0  0  0  0  0  0  0
    3.3806   -2.3632   -0.9573 C   0  0  0  0  0  0  0  0  0  0  0  0
    2.5139   -2.8614   -0.4828 H   0  0  0  0  0  0  0  0  0  0  0  0
    4.2908   -2.9487   -0.7169 H   0  0  0  0  0  0  0  0  0  0  0  0
    3.2484   -2.3929   -2.0584 H   0  0  0  0  0  0  0  0  0  0  0  0
    4.7213   -0.2578   -1.2026 C   0  0  0  0  0  0  0  0  0  0  0  0
    5.6503   -0.8437   -1.0436 H   0  0  0  0  0  0  0  0  0  0  0  0
    4.9023    0.7750   -0.8429 H   0  0  0  0  0  0  0  0  0  0  0  0
    4.5252   -0.2106   -2.2931 H   0  0  0  0  0  0  0  0  0  0  0  0
   -2.3716   -0.8052    0.0642 C   0  0  0  0  0  0  0  0  0  0  0  0
   -2.2776    0.5142   -0.4797 C   0  0  0  0  0  0  0  0  0  0  0  0
   -2.3974    0.7862   -1.5336 H   0  0  0  0  0  0  0  0  0  0  0  0
   -2.0992    1.4562    0.5834 C   0  0  2  0  0  3  0  0  0  0  0  0
   -2.0757    0.7058    1.7994 C   0  0  0  0  0  0  0  0  0  0  0  0
   -1.9268    1.1206    2.8022 H   0  0  0  0  0  0  0  0  0  0  0  0
   -2.2314   -0.6687    1.4831 C   0  0  0  0  0  0  0  0  0  0  0  0
   -2.2206   -1.4905    2.2066 H   0  0  0  0  0  0  0  0  0  0  0  0
   -2.0691    2.9660    0.4681 C   0  0  0  0  0  0  0  0  0  0  0  0
   -3.0039    3.3591    0.9222 H   0  0  0  0  0  0  0  0  0  0  0  0
   -1.2402    3.3589    1.0964 H   0  0  0  0  0  0  0  0  0  0  0  0
   -1.9472    3.4573   -0.9512 C   0  0  0  0  0  0  0  0  0  0  0  0
   -2.8831    3.6876   -1.4881 H   0  0  0  0  0  0  0  0  0  0  0  0
   -2.7673   -2.0622   -0.7100 C   0  0  0  0  0  0  0  0  0  0  0  0
   -4.1814   -1.8154   -1.2885 C   0  0  0  0  0  0  0  0  0  0  0  0
   -4.1863   -0.9708   -2.0068 H   0  0  0  0  0  0  0  0  0  0  0  0
   -4.9049   -1.5804   -0.4820 H   0  0  0  0  0  0  0  0  0  0  0  0
   -4.5412   -2.7191   -1.8226 H   0  0  0  0  0  0  0  0  0  0  0  0
   -2.8157   -3.2859    0.2212 C   0  0  0  0  0  0  0  0  0  0  0  0
   -1.8290   -3.4726    0.6879 H   0  0  0  0  0  0  0  0  0  0  0  0
   -3.1038   -4.1883   -0.3550 H   0  0  0  0  0  0  0  0  0  0  0  0
   -3.5646   -3.1499    1.0273 H   0  0  0  0  0  0  0  0  0  0  0  0
   -1.7900   -2.3457   -1.8680 C   0  0  0  0  0  0  0  0  0  0  0  0
   -1.6980   -1.4754   -2.5493 H   0  0  0  0  0  0  0  0  0  0  0  0
   -2.1468   -3.2057   -2.4708 H   0  0  0  0  0  0  0  0  0  0  0  0
   -0.7856   -2.5947   -1.4746 H   0  0  0  0  0  0  0  0  0  0  0  0
  1 14  1  0  0  0  0
  1  2  2  0  0  0  0
  2  3  1  0  0  0  0
  4  9  1  6  0  0  0
  4  2  1  0  0  0  0
  5  7  1  0  0  0  0
  5  4  1  0  0  0  0
  6  5  1  0  0  0  0
  7  1  1  0  0  0  0
  8  7  1  0  0  0  0
  9 11  1  0  0  0  0
 10  9  1  0  0  0  0
 12  9  1  0  0  0  0
 12 38  2  0  0  0  0
 13 12  1  0  0  0  0
 14 15  1  0  0  0  0
 15 18  1  0  0  0  0
 15 17  1  0  0  0  0
 15 16  1  0  0  0  0
 19 21  1  0  0  0  0
 19 20  1  0  0  0  0
 19 14  1  0  0  0  0
 22 19  1  0  0  0  0
 23 24  1  0  0  0  0
 23 25  1  0  0  0  0
 23 14  1  0  0  0  0
 26 23  1  0  0  0  0
 27 33  1  0  0  0  0
 28 27  2  0  0  0  0
 28 30  1  0  0  0  0
 29 28  1  0  0  0  0
 30 35  1  1  0  0  0
 30 31  1  0  0  0  0
 31 32  1  0  0  0  0
 33 31  2  0  0  0  0
 33 34  1  0  0  0  0
 35 36  1  0  0  0  0
 35 37  1  0  0  0  0
 38 35  1  0  0  0  0
 39 38  1  0  0  0  0
 40 27  1  0  0  0  0
 40 45  1  0  0  0  0
 41 40  1  0  0  0  0
 41 43  1  0  0  0  0
 42 41  1  0  0  0  0
 44 41  1  0  0  0  0
 45 46  1  0  0  0  0
 45 48  1  0  0  0  0
 47 45  1  0  0  0  0
 49 52  1  0  0  0  0
 49 40  1  0  0  0  0
 50 49  1  0  0  0  0
 51 49  1  0  0  0  0
M  END
