4,14
 OpenBabel05122313053D

 19 19  0  0  0  0  0  0  0  0999 V2000
   -3.2216   -2.8916   -1.4566 O   0  0  0  0  0  0  0  0  0  0  0  0
   -2.2377    0.2487   -2.4076 C   0  0  0  0  0  3  0  0  0  0  0  0
   -3.1061    0.9181   -2.3057 H   0  0  0  0  0  0  0  0  0  0  0  0
   -0.9698    0.9236   -2.4669 C   0  0  0  0  0  3  0  0  0  0  0  0
   -0.9836    2.0252   -2.4035 H   0  0  0  0  0  0  0  0  0  0  0  0
    0.2824    0.2556   -2.2509 C   0  0  0  0  0  3  0  0  0  0  0  0
    1.1315    0.9355   -2.0678 H   0  0  0  0  0  0  0  0  0  0  0  0
    0.6396   -1.0950   -2.8808 C   0  0  0  0  0  0  0  0  0  0  0  0
    0.1163   -1.1999   -3.8524 H   0  0  0  0  0  0  0  0  0  0  0  0
    1.7203   -1.1093   -3.1260 H   0  0  0  0  0  0  0  0  0  0  0  0
    0.2895   -2.2561   -1.9459 C   0  0  0  0  0  0  0  0  0  0  0  0
    1.0976   -2.3584   -1.1897 H   0  0  0  0  0  0  0  0  0  0  0  0
    0.2544   -3.2259   -2.4904 H   0  0  0  0  0  0  0  0  0  0  0  0
   -1.0094   -1.9979   -1.1671 C   0  0  0  0  0  3  0  0  0  0  0  0
   -1.0493   -2.6719   -0.2852 H   0  0  0  0  0  0  0  0  0  0  0  0
   -2.3373   -2.1494   -1.8651 C   0  0  0  0  0  0  0  0  0  0  0  0
   -2.5734   -1.1246   -2.9806 C   0  0  0  0  0  0  0  0  0  0  0  0
   -3.6350   -1.1793   -3.2806 H   0  0  0  0  0  0  0  0  0  0  0  0
   -1.9584   -1.3706   -3.8695 H   0  0  0  0  0  0  0  0  0  0  0  0
  2  3  1  0  0  0  0
  4  2  1  0  0  0  0
  4  5  1  0  0  0  0
  4  6  1  0  0  0  0
  6  7  1  0  0  0  0
  8  6  1  0  0  0  0
  8 11  1  0  0  0  0
  9  8  1  0  0  0  0
 10  8  1  0  0  0  0
 11 12  1  0  0  0  0
 11 14  1  0  0  0  0
 13 11  1  0  0  0  0
 14 15  1  0  0  0  0
 16  1  2  0  0  0  0
 16 14  1  0  0  0  0
 17  2  1  0  0  0  0
 17 16  1  0  0  0  0
 18 17  1  0  0  0  0
 19 17  1  0  0  0  0
M  END
