5,21
 OpenBabel05122313053D

 50 52  0  0  1  0  0  0  0  0999 V2000
   -0.4983    2.9128   -0.7960 N   0  0  0  0  0  0  0  0  0  0  0  0
    0.8910    1.8406    0.4540 N   0  0  0  0  0  0  0  0  0  0  0  0
    0.9338   -1.7174   -0.6620 N   0  0  0  0  0  0  0  0  0  0  0  0
   -0.3653   -2.8803    0.6044 N   0  0  0  0  0  0  0  0  0  0  0  0
   -0.3509    1.7121   -0.1326 C   0  0  0  0  0  2  0  0  0  0  0  0
    0.5994    3.7445   -0.6122 C   0  0  0  0  0  0  0  0  0  0  0  0
    1.4844    3.0640    0.1780 C   0  0  0  0  0  0  0  0  0  0  0  0
   -1.6541    3.3059   -1.5892 C   0  0  0  0  0  0  0  0  0  0  0  0
    1.5478    0.7697    1.2142 C   0  0  2  0  0  0  0  0  0  0  0  0
    1.6190    1.1150    2.7086 C   0  0  0  0  0  0  0  0  0  0  0  0
    1.9395   -0.0977    3.5824 C   0  0  0  0  0  0  0  0  0  0  0  0
    2.8642    0.4115    0.5249 C   0  0  0  0  0  0  0  0  0  0  0  0
    4.0935    0.7483    1.1204 C   0  0  0  0  0  0  0  0  0  0  0  0
    5.3184    0.4894    0.4874 C   0  0  0  0  0  0  0  0  0  0  0  0
    5.3233   -0.1141   -0.7737 C   0  0  0  0  0  0  0  0  0  0  0  0
    4.1058   -0.4553   -1.3823 C   0  0  0  0  0  0  0  0  0  0  0  0
    2.8671   -0.2099   -0.7594 C   0  0  0  0  0  0  0  0  0  0  0  0
    1.5593   -0.6360   -1.4426 C   0  0  1  0  0  0  0  0  0  0  0  0
    1.7147   -1.0547   -2.9146 C   0  0  0  0  0  0  0  0  0  0  0  0
    0.3970   -1.3752   -3.6140 C   0  0  0  0  0  0  0  0  0  0  0  0
   -0.2954   -1.6554   -0.0307 C   0  0  0  0  0  2  0  0  0  0  0  0
    1.5884   -2.9194   -0.4307 C   0  0  0  0  0  0  0  0  0  0  0  0
    0.7620   -3.6560    0.3694 C   0  0  0  0  0  0  0  0  0  0  0  0
   -1.4577   -3.3479    1.4470 C   0  0  0  0  0  0  0  0  0  0  0  0
    0.6588    4.7411   -1.0594 H   0  0  0  0  0  0  0  0  0  0  0  0
    2.4812    3.3312    0.5396 H   0  0  0  0  0  0  0  0  0  0  0  0
   -1.9974    2.4534   -2.1999 H   0  0  0  0  0  0  0  0  0  0  0  0
   -1.3613    4.1380   -2.2561 H   0  0  0  0  0  0  0  0  0  0  0  0
   -2.4914    3.6297   -0.9423 H   0  0  0  0  0  0  0  0  0  0  0  0
    0.8444   -0.0804    1.1176 H   0  0  0  0  0  0  0  0  0  0  0  0
    2.3400    1.9418    2.8880 H   0  0  0  0  0  0  0  0  0  0  0  0
    0.6248    1.5161    2.9897 H   0  0  0  0  0  0  0  0  0  0  0  0
    1.1602   -0.8772    3.4628 H   0  0  0  0  0  0  0  0  0  0  0  0
    1.9671    0.1813    4.6541 H   0  0  0  0  0  0  0  0  0  0  0  0
    2.9160   -0.5547    3.3242 H   0  0  0  0  0  0  0  0  0  0  0  0
    4.0991    1.2308    2.1079 H   0  0  0  0  0  0  0  0  0  0  0  0
    6.2623    0.7640    0.9819 H   0  0  0  0  0  0  0  0  0  0  0  0
    6.2718   -0.3236   -1.2909 H   0  0  0  0  0  0  0  0  0  0  0  0
    4.1317   -0.9281   -2.3731 H   0  0  0  0  0  0  0  0  0  0  0  0
    0.8219    0.1911   -1.3921 H   0  0  0  0  0  0  0  0  0  0  0  0
    2.2353   -0.2299   -3.4446 H   0  0  0  0  0  0  0  0  0  0  0  0
    2.3914   -1.9342   -2.9773 H   0  0  0  0  0  0  0  0  0  0  0  0
   -0.1784   -2.1474   -3.0656 H   0  0  0  0  0  0  0  0  0  0  0  0
    0.5812   -1.7547   -4.6383 H   0  0  0  0  0  0  0  0  0  0  0  0
   -0.2521   -0.4839   -3.6964 H   0  0  0  0  0  0  0  0  0  0  0  0
    2.5836   -3.1347   -0.8290 H   0  0  0  0  0  0  0  0  0  0  0  0
    0.8810   -4.6579    0.7920 H   0  0  0  0  0  0  0  0  0  0  0  0
   -1.7265   -2.5749    2.1879 H   0  0  0  0  0  0  0  0  0  0  0  0
   -1.1247   -4.2595    1.9767 H   0  0  0  0  0  0  0  0  0  0  0  0
   -2.3555   -3.5813    0.8463 H   0  0  0  0  0  0  0  0  0  0  0  0
  1  6  1  0  0  0  0
  1  5  1  0  0  0  0
  2  9  1  0  0  0  0
  3 22  1  0  0  0  0
  3 21  1  0  0  0  0
  4 24  1  0  0  0  0
  5  2  1  0  0  0  0
  6  7  2  0  0  0  0
  7  2  1  0  0  0  0
  7 26  1  0  0  0  0
  8 29  1  0  0  0  0
  8  1  1  0  0  0  0
  9 30  1  6  0  0  0
  9 10  1  0  0  0  0
 10 31  1  0  0  0  0
 10 32  1  0  0  0  0
 10 11  1  0  0  0  0
 11 34  1  0  0  0  0
 12 13  1  0  0  0  0
 12  9  1  0  0  0  0
 13 36  1  0  0  0  0
 14 37  1  0  0  0  0
 14 13  2  0  0  0  0
 15 14  1  0  0  0  0
 16 15  2  0  0  0  0
 16 17  1  0  0  0  0
 17 12  2  0  0  0  0
 18 40  1  1  0  0  0
 18 17  1  0  0  0  0
 18  3  1  0  0  0  0
 19 18  1  0  0  0  0
 20 43  1  0  0  0  0
 20 19  1  0  0  0  0
 21  4  1  0  0  0  0
 22 23  2  0  0  0  0
 23  4  1  0  0  0  0
 23 47  1  0  0  0  0
 24 49  1  0  0  0  0
 24 48  1  0  0  0  0
 25  6  1  0  0  0  0
 27  8  1  0  0  0  0
 28  8  1  0  0  0  0
 33 11  1  0  0  0  0
 35 11  1  0  0  0  0
 38 15  1  0  0  0  0
 39 16  1  0  0  0  0
 41 19  1  0  0  0  0
 42 19  1  0  0  0  0
 44 20  1  0  0  0  0
 45 20  1  0  0  0  0
 46 22  1  0  0  0  0
 50 24  1  0  0  0  0
M  END
