6,23
 OpenBabel05122313053D

 33 33  0  0  1  0  0  0  0  0999 V2000
    3.1025   -1.0286   -0.9534 Si  0  0  0  0  0  0  0  0  0  0  0  0
    2.2106    1.0719    0.9597 C   0  0  0  0  0  0  0  0  0  0  0  0
    1.2550    2.1467    0.9141 C   0  0  0  0  0  0  0  0  0  0  0  0
    0.9796    2.4391   -0.4587 C   0  0  0  0  0  0  0  0  0  0  0  0
    1.7800    1.5624   -1.2643 C   0  0  0  0  0  0  0  0  0  0  0  0
    2.5604    0.7124   -0.3965 C   0  0  2  0  0  3  0  0  0  0  0  0
    2.8656    0.5556    2.2143 C   0  0  0  0  0  0  0  0  0  0  0  0
    3.9587    0.7439    2.1872 H   0  0  0  0  0  0  0  0  0  0  0  0
    2.7385   -0.5349    2.3596 H   0  0  0  0  0  0  0  0  0  0  0  0
    2.4655    1.0585    3.1141 H   0  0  0  0  0  0  0  0  0  0  0  0
    0.7962    2.9870    2.0697 C   0  0  0  0  0  0  0  0  0  0  0  0
    0.7806    2.4289    3.0248 H   0  0  0  0  0  0  0  0  0  0  0  0
   -0.2151    3.4053    1.9068 H   0  0  0  0  0  0  0  0  0  0  0  0
    1.4823    3.8508    2.2113 H   0  0  0  0  0  0  0  0  0  0  0  0
    0.0990    3.5511   -0.9465 C   0  0  0  0  0  0  0  0  0  0  0  0
   -0.7890    3.6888   -0.2977 H   0  0  0  0  0  0  0  0  0  0  0  0
   -0.2702    3.3600   -1.9720 H   0  0  0  0  0  0  0  0  0  0  0  0
    0.6447    4.5202   -0.9586 H   0  0  0  0  0  0  0  0  0  0  0  0
    1.8175    1.5813   -2.7680 C   0  0  0  0  0  0  0  0  0  0  0  0
    0.9444    2.1174   -3.1851 H   0  0  0  0  0  0  0  0  0  0  0  0
    1.8149    0.5653   -3.2070 H   0  0  0  0  0  0  0  0  0  0  0  0
    2.7361    2.0897   -3.1320 H   0  0  0  0  0  0  0  0  0  0  0  0
    1.3624   -1.6729   -1.1500 C   0  0  0  0  0  3  0  0  0  0  0  0
    1.1615   -2.7503   -1.0104 H   0  0  0  0  0  0  0  0  0  0  0  0
    0.9200   -1.3487   -2.1306 H   0  0  0  0  0  0  0  0  0  0  0  0
    4.0214   -1.9970    0.3943 C   0  0  0  0  0  0  0  0  0  0  0  0
    3.3640   -2.2636    1.2446 H   0  0  0  0  0  0  0  0  0  0  0  0
    4.8970   -1.4427    0.7885 H   0  0  0  0  0  0  0  0  0  0  0  0
    4.3943   -2.9448   -0.0471 H   0  0  0  0  0  0  0  0  0  0  0  0
    4.2545   -0.9823   -2.4606 C   0  0  0  0  0  0  0  0  0  0  0  0
    4.5175   -2.0164   -2.7667 H   0  0  0  0  0  0  0  0  0  0  0  0
    5.1967   -0.4504   -2.2096 H   0  0  0  0  0  0  0  0  0  0  0  0
    3.8017   -0.4754   -3.3341 H   0  0  0  0  0  0  0  0  0  0  0  0
  1 26  1  0  0  0  0
  2  7  1  0  0  0  0
  3  2  2  0  0  0  0
  3 11  1  0  0  0  0
  4  3  1  0  0  0  0
  5  4  2  0  0  0  0
  5  6  1  0  0  0  0
  6  1  1  6  0  0  0
  6  2  1  0  0  0  0
  7  9  1  0  0  0  0
  7 10  1  0  0  0  0
  8  7  1  0  0  0  0
 11 14  1  0  0  0  0
 11 12  1  0  0  0  0
 13 11  1  0  0  0  0
 15  4  1  0  0  0  0
 15 16  1  0  0  0  0
 17 15  1  0  0  0  0
 18 15  1  0  0  0  0
 19  5  1  0  0  0  0
 20 19  1  0  0  0  0
 21 19  1  0  0  0  0
 22 19  1  0  0  0  0
 23 24  1  0  0  0  0
 23  1  1  0  0  0  0
 25 23  1  0  0  0  0
 26 28  1  0  0  0  0
 26 27  1  0  0  0  0
 29 26  1  0  0  0  0
 30 32  1  0  0  0  0
 30  1  1  0  0  0  0
 31 30  1  0  0  0  0
 33 30  1  0  0  0  0
M  END
