3,4
 OpenBabel05122313053D

 15 16  0  0  0  0  0  0  0  0999 V2000
    1.0128    2.2105   -0.0013 P   0  0  0  0  0  2  0  0  0  0  0  0
   -1.1741    0.7900    0.7273 C   0  0  0  0  0  0  0  0  0  0  0  0
   -0.0092    1.4534    1.2550 C   0  0  0  0  0  3  0  0  0  0  0  0
   -0.0113    1.4538   -1.2574 C   0  0  0  0  0  3  0  0  0  0  0  0
   -1.1743    0.7903   -0.7276 C   0  0  0  0  0  0  0  0  0  0  0  0
   -2.2496    0.1531   -1.4302 C   0  0  0  0  0  0  0  0  0  0  0  0
   -3.2771   -0.4305   -0.7136 C   0  0  0  0  0  0  0  0  0  0  0  0
   -3.2752   -0.4330    0.7162 C   0  0  0  0  0  0  0  0  0  0  0  0
   -2.2457    0.1493    1.4312 C   0  0  0  0  0  0  0  0  0  0  0  0
    0.1830    1.5446    2.3330 H   0  0  0  0  0  0  0  0  0  0  0  0
    0.1793    1.5449   -2.3357 H   0  0  0  0  0  0  0  0  0  0  0  0
   -2.2508    0.1535   -2.5300 H   0  0  0  0  0  0  0  0  0  0  0  0
   -4.1125   -0.9064   -1.2487 H   0  0  0  0  0  0  0  0  0  0  0  0
   -4.1086   -0.9114    1.2522 H   0  0  0  0  0  0  0  0  0  0  0  0
   -2.2436    0.1470    2.5311 H   0  0  0  0  0  0  0  0  0  0  0  0
  1  3  1  0  0  0  0
  2  3  1  0  0  0  0
  2  9  1  0  0  0  0
  3 10  1  0  0  0  0
  4  5  1  0  0  0  0
  4  1  1  0  0  0  0
  5  2  2  0  0  0  0
  6  5  1  0  0  0  0
  6  7  2  0  0  0  0
  7  8  1  0  0  0  0
  8 14  1  0  0  0  0
  8  9  2  0  0  0  0
  9 15  1  0  0  0  0
 11  4  1  0  0  0  0
 12  6  1  0  0  0  0
 13  7  1  0  0  0  0
M  END
