5,13
 OpenBabel05122313053D

 31 31  0  0  1  0  0  0  0  0999 V2000
   -2.7149    2.2330   -0.0494 O   0  0  0  0  0  0  0  0  0  0  0  0
   -2.9559    3.1721    0.0578 H   0  0  0  0  0  0  0  0  0  0  0  0
   -2.9261   -0.7388    0.2822 N   0  3  0  0  0  0  0  0  0  0  0  0
   -0.4298   -0.4879   -0.3263 C   0  0  2  0  0  3  0  0  0  0  0  0
    0.3729   -1.6781   -0.4012 C   0  0  0  0  0  3  0  0  0  0  0  0
    0.1679   -2.5164    0.2818 H   0  0  0  0  0  0  0  0  0  0  0  0
    1.4609   -1.7782   -1.3109 C   0  0  0  0  0  3  0  0  0  0  0  0
    2.0865   -2.6804   -1.3240 H   0  0  0  0  0  0  0  0  0  0  0  0
    1.8042   -0.6522   -2.1102 C   0  0  0  0  0  0  0  0  0  0  0  0
    2.6961   -0.6949   -2.7515 H   0  0  0  0  0  0  0  0  0  0  0  0
    1.0225    0.5368   -2.0711 C   0  0  0  0  0  0  0  0  0  0  0  0
    1.3127    1.4110   -2.6687 H   0  0  0  0  0  0  0  0  0  0  0  0
   -0.0627    0.6277   -1.1580 C   0  0  0  0  0  3  0  0  0  0  0  0
   -0.6230    1.5688   -1.0543 H   0  0  0  0  0  0  0  0  0  0  0  0
   -1.4795   -0.3326    0.7262 C   0  0  0  0  0  0  0  0  0  0  0  0
   -1.5730    0.7190    1.0461 H   0  0  0  0  0  0  0  0  0  0  0  0
   -1.2697   -0.9757    1.6022 H   0  0  0  0  0  0  0  0  0  0  0  0
   -3.4032    0.0920   -0.9030 C   0  0  0  0  0  0  0  0  0  0  0  0
   -2.5857    0.0488   -1.6477 H   0  0  0  0  0  0  0  0  0  0  0  0
   -4.2797   -0.4371   -1.3251 H   0  0  0  0  0  0  0  0  0  0  0  0
   -3.8049    1.5294   -0.6103 C   0  0  0  0  0  0  0  0  0  0  0  0
   -4.1253    1.9480   -1.5936 H   0  0  0  0  0  0  0  0  0  0  0  0
   -4.7048    1.5551    0.0482 H   0  0  0  0  0  0  0  0  0  0  0  0
   -3.8269   -0.5638    1.4673 C   0  0  0  0  0  0  0  0  0  0  0  0
   -4.8700   -0.7806    1.1730 H   0  0  0  0  0  0  0  0  0  0  0  0
   -3.7363    0.4712    1.8396 H   0  0  0  0  0  0  0  0  0  0  0  0
   -3.5096   -1.2669    2.2580 H   0  0  0  0  0  0  0  0  0  0  0  0
   -2.9291   -2.1789   -0.1381 C   0  0  0  0  0  0  0  0  0  0  0  0
   -3.9661   -2.4889   -0.3607 H   0  0  0  0  0  0  0  0  0  0  0  0
   -2.5226   -2.7944    0.6845 H   0  0  0  0  0  0  0  0  0  0  0  0
   -2.2977   -2.2927   -1.0368 H   0  0  0  0  0  0  0  0  0  0  0  0
  1  2  1  0  0  0  0
  3 15  1  0  0  0  0
  3 24  1  0  0  0  0
  4 15  1  1  0  0  0
  5  4  1  0  0  0  0
  5  6  1  0  0  0  0
  7  5  1  0  0  0  0
  8  7  1  0  0  0  0
  9 11  2  0  0  0  0
  9  7  1  0  0  0  0
 10  9  1  0  0  0  0
 11 13  1  0  0  0  0
 12 11  1  0  0  0  0
 13 14  1  0  0  0  0
 13  4  1  0  0  0  0
 15 16  1  0  0  0  0
 15 17  1  0  0  0  0
 18 21  1  0  0  0  0
 18  3  1  0  0  0  0
 19 18  1  0  0  0  0
 20 18  1  0  0  0  0
 21  1  1  0  0  0  0
 21 23  1  0  0  0  0
 22 21  1  0  0  0  0
 24 26  1  0  0  0  0
 24 27  1  0  0  0  0
 25 24  1  0  0  0  0
 28  3  1  0  0  0  0
 28 30  1  0  0  0  0
 29 28  1  0  0  0  0
 31 28  1  0  0  0  0
M  CHG  1   3   1
M  END
