1,5
 OpenBabel05122313053D

 24 25  0  0  0  0  0  0  0  0999 V2000
   -1.4623   -0.1688   -0.8994 C   0  0  0  0  0  3  0  0  0  0  0  0
   -1.7929   -0.1966   -1.9606 H   0  0  0  0  0  0  0  0  0  0  0  0
   -2.4501   -0.1738    0.0602 C   0  0  0  0  0  0  0  0  0  0  0  0
   -1.9199   -0.1358    1.4311 C   0  0  0  0  0  0  0  0  0  0  0  0
   -0.4931   -0.0333    1.5201 C   0  0  0  0  0  3  0  0  0  0  0  0
    0.1446    0.0115    2.7700 C   0  0  0  0  0  0  0  0  0  0  0  0
    1.2384    0.1126    2.8199 H   0  0  0  0  0  0  0  0  0  0  0  0
   -0.6173   -0.0747    3.9512 C   0  0  0  0  0  0  0  0  0  0  0  0
   -0.1092   -0.0392    4.9276 H   0  0  0  0  0  0  0  0  0  0  0  0
   -2.0130   -0.2137    3.8816 C   0  0  0  0  0  0  0  0  0  0  0  0
   -2.6070   -0.2993    4.8044 H   0  0  0  0  0  0  0  0  0  0  0  0
   -2.6552   -0.2437    2.6335 C   0  0  0  0  0  0  0  0  0  0  0  0
   -3.7479   -0.3642    2.5820 H   0  0  0  0  0  0  0  0  0  0  0  0
   -3.8992   -0.1930   -0.2501 C   0  0  0  0  0  0  0  0  0  0  0  0
   -4.4113   -1.0580   -1.2466 C   0  0  0  0  0  0  0  0  0  0  0  0
   -3.7203   -1.7552   -1.7453 H   0  0  0  0  0  0  0  0  0  0  0  0
   -5.7692   -1.0470   -1.5934 C   0  0  0  0  0  0  0  0  0  0  0  0
   -6.1398   -1.7348   -2.3697 H   0  0  0  0  0  0  0  0  0  0  0  0
   -6.6587   -0.1733   -0.9468 C   0  0  0  0  0  0  0  0  0  0  0  0
   -7.7266   -0.1678   -1.2136 H   0  0  0  0  0  0  0  0  0  0  0  0
   -6.1703    0.6924    0.0454 C   0  0  0  0  0  0  0  0  0  0  0  0
   -6.8553    1.3900    0.5526 H   0  0  0  0  0  0  0  0  0  0  0  0
   -4.8111    0.6823    0.3895 C   0  0  0  0  0  0  0  0  0  0  0  0
   -4.4358    1.3840    1.1498 H   0  0  0  0  0  0  0  0  0  0  0  0
  1  3  2  0  0  0  0
  2  1  1  0  0  0  0
  3  4  1  0  0  0  0
  4  5  2  0  0  0  0
  4 12  1  0  0  0  0
  5  6  1  0  0  0  0
  6  7  1  0  0  0  0
  6  8  2  0  0  0  0
  8  9  1  0  0  0  0
 10  8  1  0  0  0  0
 10 11  1  0  0  0  0
 12 10  2  0  0  0  0
 13 12  1  0  0  0  0
 14  3  1  0  0  0  0
 14 23  1  0  0  0  0
 15 14  2  0  0  0  0
 16 15  1  0  0  0  0
 17 15  1  0  0  0  0
 17 19  2  0  0  0  0
 18 17  1  0  0  0  0
 19 21  1  0  0  0  0
 20 19  1  0  0  0  0
 21 23  2  0  0  0  0
 21 22  1  0  0  0  0
 23 24  1  0  0  0  0
M  END
