1,4
 OpenBabel05122313053D

 19 20  0  0  1  0  0  0  0  0999 V2000
   -0.5055   -2.9639   -1.9188 C   0  0  1  0  0  3  0  0  0  0  0  0
   -1.4407   -2.1286   -2.6191 C   0  0  0  0  0  3  0  0  0  0  0  0
   -1.3646   -1.8455   -3.6765 H   0  0  0  0  0  0  0  0  0  0  0  0
   -2.4082   -1.6480   -1.6851 C   0  0  0  0  0  3  0  0  0  0  0  0
   -3.2401   -0.9680   -1.9031 H   0  0  0  0  0  0  0  0  0  0  0  0
   -2.2177   -2.3571   -0.4206 C   0  0  0  0  0  0  0  0  0  0  0  0
   -2.9092   -2.3171    0.8117 C   0  0  0  0  0  0  0  0  0  0  0  0
   -3.8014   -1.6850    0.9293 H   0  0  0  0  0  0  0  0  0  0  0  0
   -2.4335   -3.0980    1.8714 C   0  0  0  0  0  0  0  0  0  0  0  0
   -2.9691   -3.0892    2.8330 H   0  0  0  0  0  0  0  0  0  0  0  0
   -1.2723   -3.8964    1.7326 C   0  0  0  0  0  0  0  0  0  0  0  0
   -0.9231   -4.4942    2.5881 H   0  0  0  0  0  0  0  0  0  0  0  0
   -0.5620   -3.9358    0.5262 C   0  0  0  0  0  0  0  0  0  0  0  0
    0.3519   -4.5401    0.4279 H   0  0  0  0  0  0  0  0  0  0  0  0
   -1.0372   -3.1780   -0.5646 C   0  0  0  0  0  0  0  0  0  0  0  0
    0.6775   -3.6720   -2.4961 C   0  0  0  0  0  0  0  0  0  0  0  0
    1.5418   -3.6221   -1.8052 H   0  0  0  0  0  0  0  0  0  0  0  0
    0.9885   -3.2145   -3.4543 H   0  0  0  0  0  0  0  0  0  0  0  0
    0.4414   -4.7421   -2.6802 H   0  0  0  0  0  0  0  0  0  0  0  0
  1 16  1  6  0  0  0
  1 15  1  0  0  0  0
  2  1  1  0  0  0  0
  2  4  1  0  0  0  0
  3  2  1  0  0  0  0
  4  6  1  0  0  0  0
  5  4  1  0  0  0  0
  6  7  1  0  0  0  0
  7  8  1  0  0  0  0
  7  9  2  0  0  0  0
  9 10  1  0  0  0  0
 11  9  1  0  0  0  0
 11 12  1  0  0  0  0
 13 11  2  0  0  0  0
 14 13  1  0  0  0  0
 15  6  2  0  0  0  0
 15 13  1  0  0  0  0
 16 17  1  0  0  0  0
 18 16  1  0  0  0  0
 19 16  1  0  0  0  0
M  END
