23,34
 OpenBabel05122313053D

 37 37  0  0  1  0  0  0  0  0999 V2000
    3.4221   -1.0819    1.6160 C   0  0  0  0  0  0  0  0  0  0  0  0
    3.8482   -1.1245    2.6418 H   0  0  0  0  0  0  0  0  0  0  0  0
    2.9385   -2.0703    1.4652 H   0  0  0  0  0  0  0  0  0  0  0  0
    2.0845    3.4187    0.7804 C   0  0  0  0  0  0  0  0  0  0  0  0
    3.0120    2.8380    0.5960 H   0  0  0  0  0  0  0  0  0  0  0  0
    1.8876    3.4106    1.8727 H   0  0  0  0  0  0  0  0  0  0  0  0
    2.2879    4.4678    0.4807 H   0  0  0  0  0  0  0  0  0  0  0  0
    2.3544    0.0186    1.6150 C   0  0  0  0  0  0  0  0  0  0  0  0
    2.8198    0.9798    1.9172 H   0  0  0  0  0  0  0  0  0  0  0  0
    1.6062   -0.2151    2.4024 H   0  0  0  0  0  0  0  0  0  0  0  0
    3.3012   -2.1163   -1.3348 C   0  0  0  0  0  0  0  0  0  0  0  0
    3.3360   -2.9758   -0.6281 H   0  0  0  0  0  0  0  0  0  0  0  0
    3.6416   -2.5272   -2.3088 H   0  0  0  0  0  0  0  0  0  0  0  0
    1.2374    2.8664   -1.5107 C   0  0  0  0  0  0  0  0  0  0  0  0
    2.0744    2.1800   -1.7566 H   0  0  0  0  0  0  0  0  0  0  0  0
    1.5605    3.8865   -1.8035 H   0  0  0  0  0  0  0  0  0  0  0  0
    0.3775    2.5825   -2.1431 H   0  0  0  0  0  0  0  0  0  0  0  0
    0.8899    2.8413   -0.0135 C   0  0  0  0  0  0  0  0  0  0  0  0
    1.8397   -1.6544   -1.5255 C   0  0  0  0  0  0  0  0  0  0  0  0
    1.8080   -0.8610   -2.3033 H   0  0  0  0  0  0  0  0  0  0  0  0
    1.2584   -2.5055   -1.9426 H   0  0  0  0  0  0  0  0  0  0  0  0
    1.5926    0.2538    0.2886 C   0  0  1  0  0  0  0  0  0  0  0  0
    1.0975   -1.1582   -0.2961 C   0  0  0  0  0  3  0  0  0  0  0  0
    4.5916   -0.9394    0.6312 C   0  0  0  0  0  0  0  0  0  0  0  0
    5.3181   -1.7442    0.8793 H   0  0  0  0  0  0  0  0  0  0  0  0
    5.1281    0.0139    0.8354 H   0  0  0  0  0  0  0  0  0  0  0  0
    4.2944   -1.0243   -0.8824 C   0  0  0  0  0  0  0  0  0  0  0  0
    3.9448   -0.0413   -1.2651 H   0  0  0  0  0  0  0  0  0  0  0  0
    5.2678   -1.1895   -1.3903 H   0  0  0  0  0  0  0  0  0  0  0  0
   -0.3427    3.7372    0.2222 C   0  0  0  0  0  0  0  0  0  0  0  0
   -0.1463    4.7782   -0.1082 H   0  0  0  0  0  0  0  0  0  0  0  0
   -0.6183    3.7691    1.2968 H   0  0  0  0  0  0  0  0  0  0  0  0
   -1.2113    3.3459   -0.3451 H   0  0  0  0  0  0  0  0  0  0  0  0
    0.5209    1.4406    0.5227 C   0  0  0  0  0  3  0  0  0  0  0  0
    0.3511    1.5298    1.6189 H   0  0  0  0  0  0  0  0  0  0  0  0
    1.1254   -1.9150    0.5157 H   0  0  0  0  0  0  0  0  0  0  0  0
    2.2634    0.6591   -0.4891 H   0  0  0  0  0  0  0  0  0  0  0  0
  1  2  1  0  0  0  0
  3  1  1  0  0  0  0
  4  6  1  0  0  0  0
  5  4  1  0  0  0  0
  7  4  1  0  0  0  0
  8  1  1  0  0  0  0
  8  9  1  0  0  0  0
  8 10  1  0  0  0  0
 11 27  1  0  0  0  0
 11 12  1  0  0  0  0
 13 11  1  0  0  0  0
 14 18  1  0  0  0  0
 15 14  1  0  0  0  0
 16 14  1  0  0  0  0
 17 14  1  0  0  0  0
 18 30  1  0  0  0  0
 18 34  1  0  0  0  0
 18  4  1  0  0  0  0
 19 11  1  0  0  0  0
 19 23  1  0  0  0  0
 20 19  1  0  0  0  0
 21 19  1  0  0  0  0
 22 37  1  6  0  0  0
 22 34  1  0  0  0  0
 22  8  1  0  0  0  0
 23 22  1  0  0  0  0
 23 36  1  0  0  0  0
 24 26  1  0  0  0  0
 24 25  1  0  0  0  0
 24  1  1  0  0  0  0
 27 24  1  0  0  0  0
 28 27  1  0  0  0  0
 29 27  1  0  0  0  0
 30 32  1  0  0  0  0
 31 30  1  0  0  0  0
 33 30  1  0  0  0  0
 34 35  1  0  0  0  0
M  END
