4,17
 OpenBabel05122313053D

 30 31  0  0  0  0  0  0  0  0999 V2000
    3.5790    0.7834   -1.1307 N   0  0  0  0  0  0  0  0  0  0  0  0
    3.2698    0.9618    1.0045 N   0  0  0  0  0  0  0  0  0  0  0  0
    0.7992    0.9984    3.6795 O   0  0  0  0  0  0  0  0  0  0  0  0
    2.6631    0.5232   -0.1407 C   0  0  0  0  0  2  0  0  0  0  0  0
    3.4143    0.4853   -2.5480 C   0  0  0  0  0  0  0  0  0  0  0  0
    3.3574   -0.6060   -2.7157 H   0  0  0  0  0  0  0  0  0  0  0  0
    4.2879    0.8855   -3.0929 H   0  0  0  0  0  0  0  0  0  0  0  0
    2.4992    0.9588   -2.9459 H   0  0  0  0  0  0  0  0  0  0  0  0
    4.7275    1.3633   -0.6079 C   0  0  0  0  0  0  0  0  0  0  0  0
    5.5750    1.6494   -1.2370 H   0  0  0  0  0  0  0  0  0  0  0  0
    4.5314    1.4750    0.7409 C   0  0  0  0  0  0  0  0  0  0  0  0
    5.1753    1.8704    1.5314 H   0  0  0  0  0  0  0  0  0  0  0  0
    2.7358    0.8633    2.3604 C   0  0  0  0  0  0  0  0  0  0  0  0
    3.1747    1.6871    2.9572 H   0  0  0  0  0  0  0  0  0  0  0  0
    3.0369   -0.1025    2.8103 H   0  0  0  0  0  0  0  0  0  0  0  0
    1.2119    0.9817    2.5249 C   0  0  0  0  0  0  0  0  0  0  0  0
    0.3656    1.1629    1.3051 C   0  0  0  0  0  3  0  0  0  0  0  0
   -0.5013    2.2067    1.4807 C   0  0  0  0  0  0  0  0  0  0  0  0
   -0.5276    2.6407    2.5019 H   0  0  0  0  0  0  0  0  0  0  0  0
   -1.4624    2.8297    0.5537 C   0  0  0  0  0  0  0  0  0  0  0  0
   -1.0895    3.2891   -0.7268 C   0  0  0  0  0  0  0  0  0  0  0  0
   -0.0402    3.2000   -1.0359 H   0  0  0  0  0  0  0  0  0  0  0  0
   -2.0278    3.8829   -1.5831 C   0  0  0  0  0  0  0  0  0  0  0  0
   -1.7122    4.2237   -2.5810 H   0  0  0  0  0  0  0  0  0  0  0  0
   -3.3594    4.0444   -1.1708 C   0  0  0  0  0  0  0  0  0  0  0  0
   -4.0971    4.5065   -1.8442 H   0  0  0  0  0  0  0  0  0  0  0  0
   -3.7391    3.6315    0.1182 C   0  0  0  0  0  0  0  0  0  0  0  0
   -4.7765    3.7716    0.4592 H   0  0  0  0  0  0  0  0  0  0  0  0
   -2.7984    3.0459    0.9751 C   0  0  0  0  0  0  0  0  0  0  0  0
   -3.0978    2.7325    1.9880 H   0  0  0  0  0  0  0  0  0  0  0  0
  1  9  1  0  0  0  0
  1  4  1  0  0  0  0
  2 13  1  0  0  0  0
  4  2  1  0  0  0  0
  5  1  1  0  0  0  0
  6  5  1  0  0  0  0
  7  5  1  0  0  0  0
  8  5  1  0  0  0  0
  9 11  2  0  0  0  0
 10  9  1  0  0  0  0
 11  2  1  0  0  0  0
 11 12  1  0  0  0  0
 13 16  1  0  0  0  0
 13 15  1  0  0  0  0
 13 14  1  0  0  0  0
 16  3  2  0  0  0  0
 17 18  2  0  0  0  0
 17 16  1  0  0  0  0
 18 19  1  0  0  0  0
 20 29  1  0  0  0  0
 20 18  1  0  0  0  0
 21 20  2  0  0  0  0
 22 21  1  0  0  0  0
 23 25  2  0  0  0  0
 23 21  1  0  0  0  0
 24 23  1  0  0  0  0
 25 27  1  0  0  0  0
 26 25  1  0  0  0  0
 27 28  1  0  0  0  0
 27 29  2  0  0  0  0
 29 30  1  0  0  0  0
M  END
