5,36
 OpenBabel05122313053D

 54 59  0  0  0  0  0  0  0  0999 V2000
   -0.1699    2.6946   -0.5593 N   0  0  0  0  0  0  0  0  0  0  0  0
    1.1969    1.6314    0.7973 N   0  0  0  0  0  0  0  0  0  0  0  0
    1.2258   -1.6205   -0.7830 N   0  0  0  0  0  0  0  0  0  0  0  0
   -0.1536   -2.6962    0.5509 N   0  0  0  0  0  0  0  0  0  0  0  0
    0.0375    1.4661    0.0435 C   0  0  0  0  0  2  0  0  0  0  0  0
    1.7146    2.9184    0.6413 C   0  0  0  0  0  0  0  0  0  0  0  0
    0.8379    3.5953   -0.2293 C   0  0  0  0  0  0  0  0  0  0  0  0
    1.0756    4.9226   -0.6137 C   0  0  0  0  0  0  0  0  0  0  0  0
    0.4000    5.4530   -1.2984 H   0  0  0  0  0  0  0  0  0  0  0  0
    2.2226    5.5433   -0.0926 C   0  0  0  0  0  0  0  0  0  0  0  0
    2.4425    6.5841   -0.3721 H   0  0  0  0  0  0  0  0  0  0  0  0
    3.0998    4.8607    0.7781 C   0  0  0  0  0  0  0  0  0  0  0  0
    3.9882    5.3808    1.1656 H   0  0  0  0  0  0  0  0  0  0  0  0
    2.8617    3.5306    1.1609 C   0  0  0  0  0  0  0  0  0  0  0  0
    3.5363    2.9886    1.8380 H   0  0  0  0  0  0  0  0  0  0  0  0
    1.9748    0.6534    1.5026 C   0  0  0  0  0  0  0  0  0  0  0  0
    1.9072    0.5438    2.8986 C   0  0  0  0  0  0  0  0  0  0  0  0
    1.1689    1.1427    3.4467 H   0  0  0  0  0  0  0  0  0  0  0  0
    2.7730   -0.3400    3.5600 C   0  0  0  0  0  0  0  0  0  0  0  0
    2.7133   -0.4401    4.6538 H   0  0  0  0  0  0  0  0  0  0  0  0
    3.7067   -1.0926    2.8312 C   0  0  0  0  0  0  0  0  0  0  0  0
    4.3802   -1.7897    3.3520 H   0  0  0  0  0  0  0  0  0  0  0  0
    3.7903   -0.9562    1.4373 C   0  0  0  0  0  0  0  0  0  0  0  0
    4.5187   -1.5434    0.8592 H   0  0  0  0  0  0  0  0  0  0  0  0
    2.9317   -0.0709    0.7609 C   0  0  0  0  0  0  0  0  0  0  0  0
    2.9438    0.0978   -0.7169 C   0  0  0  0  0  0  0  0  0  0  0  0
    3.8062    0.9906   -1.3785 C   0  0  0  0  0  0  0  0  0  0  0  0
    4.5192    1.5843   -0.7880 H   0  0  0  0  0  0  0  0  0  0  0  0
    3.7457    1.1258   -2.7737 C   0  0  0  0  0  0  0  0  0  0  0  0
    4.4221    1.8287   -3.2830 H   0  0  0  0  0  0  0  0  0  0  0  0
    2.8316    0.3647   -3.5184 C   0  0  0  0  0  0  0  0  0  0  0  0
    2.7901    0.4641   -4.6131 H   0  0  0  0  0  0  0  0  0  0  0  0
    1.9622   -0.5265   -2.8719 C   0  0  0  0  0  0  0  0  0  0  0  0
    1.2387   -1.1319   -3.4322 H   0  0  0  0  0  0  0  0  0  0  0  0
    2.0066   -0.6352   -1.4749 C   0  0  0  0  0  0  0  0  0  0  0  0
    0.0524   -1.4660   -0.0491 C   0  0  0  0  0  2  0  0  0  0  0  0
    0.8681   -3.5875    0.2382 C   0  0  0  0  0  0  0  0  0  0  0  0
    1.7528   -2.9026   -0.6180 C   0  0  0  0  0  0  0  0  0  0  0  0
    2.9142   -3.5039   -1.1180 C   0  0  0  0  0  0  0  0  0  0  0  0
    3.5948   -2.9557   -1.7842 H   0  0  0  0  0  0  0  0  0  0  0  0
    3.1586   -4.8315   -0.7307 C   0  0  0  0  0  0  0  0  0  0  0  0
    4.0583   -5.3433   -1.1031 H   0  0  0  0  0  0  0  0  0  0  0  0
    2.2737   -5.5221    0.1257 C   0  0  0  0  0  0  0  0  0  0  0  0
    2.4988   -6.5607    0.4094 H   0  0  0  0  0  0  0  0  0  0  0  0
    1.1123   -4.9123    0.6272 C   0  0  0  0  0  0  0  0  0  0  0  0
    0.4307   -5.4489    1.3011 H   0  0  0  0  0  0  0  0  0  0  0  0
   -1.2821    3.0866   -1.4144 C   0  0  0  0  0  0  0  0  0  0  0  0
   -2.1290    2.3968   -1.2731 H   0  0  0  0  0  0  0  0  0  0  0  0
   -0.9737    3.0767   -2.4778 H   0  0  0  0  0  0  0  0  0  0  0  0
   -1.6015    4.1070   -1.1257 H   0  0  0  0  0  0  0  0  0  0  0  0
   -1.2755   -3.0972    1.3890 C   0  0  0  0  0  0  0  0  0  0  0  0
   -2.1299   -2.4214    1.2258 H   0  0  0  0  0  0  0  0  0  0  0  0
   -0.9871   -3.0734    2.4577 H   0  0  0  0  0  0  0  0  0  0  0  0
   -1.5743   -4.1247    1.1035 H   0  0  0  0  0  0  0  0  0  0  0  0
  1  7  1  0  0  0  0
  1  5  1  0  0  0  0
  2 16  1  0  0  0  0
  3 38  1  0  0  0  0
  3 36  1  0  0  0  0
  4 51  1  0  0  0  0
  5  2  1  0  0  0  0
  6  2  1  0  0  0  0
  6 14  1  0  0  0  0
  7  6  2  0  0  0  0
  8  7  1  0  0  0  0
  8 10  2  0  0  0  0
  9  8  1  0  0  0  0
 10 12  1  0  0  0  0
 11 10  1  0  0  0  0
 12 14  2  0  0  0  0
 12 13  1  0  0  0  0
 14 15  1  0  0  0  0
 16 17  1  0  0  0  0
 17 18  1  0  0  0  0
 17 19  2  0  0  0  0
 19 20  1  0  0  0  0
 21 22  1  0  0  0  0
 21 19  1  0  0  0  0
 23 21  2  0  0  0  0
 24 23  1  0  0  0  0
 25 23  1  0  0  0  0
 25 16  2  0  0  0  0
 26 25  1  0  0  0  0
 27 28  1  0  0  0  0
 27 26  1  0  0  0  0
 29 27  2  0  0  0  0
 30 29  1  0  0  0  0
 31 33  2  0  0  0  0
 31 29  1  0  0  0  0
 32 31  1  0  0  0  0
 33 35  1  0  0  0  0
 34 33  1  0  0  0  0
 35  3  1  0  0  0  0
 35 26  2  0  0  0  0
 36  4  1  0  0  0  0
 37  4  1  0  0  0  0
 37 45  1  0  0  0  0
 38 37  2  0  0  0  0
 39 41  2  0  0  0  0
 39 38  1  0  0  0  0
 40 39  1  0  0  0  0
 41 43  1  0  0  0  0
 42 41  1  0  0  0  0
 43 44  1  0  0  0  0
 43 45  2  0  0  0  0
 45 46  1  0  0  0  0
 47 48  1  0  0  0  0
 47 50  1  0  0  0  0
 47  1  1  0  0  0  0
 49 47  1  0  0  0  0
 51 53  1  0  0  0  0
 52 51  1  0  0  0  0
 54 51  1  0  0  0  0
M  END
