5,7
 OpenBabel05122313053D

 34 35  0  0  1  0  0  0  0  0999 V2000
    0.9380   -0.8290    0.2361 N   0  0  0  0  0  0  0  0  0  0  0  0
    1.3610   -1.0364    1.5613 O   0  0  0  0  0  0  0  0  0  0  0  0
   -0.3912   -1.1590    0.0100 C   0  0  0  0  0  0  0  0  0  0  0  0
   -1.2696   -1.4455    1.0998 C   0  0  0  0  0  0  0  0  0  0  0  0
   -2.6428   -1.7426    0.8589 C   0  0  0  0  0  3  0  0  0  0  0  0
   -3.1712   -1.7852   -0.4555 C   0  0  0  0  0  3  0  0  0  0  0  0
   -2.3156   -1.4212   -1.5350 C   0  0  0  0  0  3  0  0  0  0  0  0
   -0.9513   -1.0938   -1.3153 C   0  0  0  0  0  3  0  0  0  0  0  0
    1.4370    0.2093    2.2704 C   0  0  0  0  0  0  0  0  0  0  0  0
    2.0072   -1.1659   -0.7205 C   0  0  2  0  0  0  0  0  0  0  0  0
    2.3581   -2.6550   -0.6643 C   0  0  0  0  0  0  0  0  0  0  0  0
    3.1759   -0.2034   -0.5226 C   0  0  0  0  0  0  0  0  0  0  0  0
    2.9691    1.1705   -0.7684 C   0  0  0  0  0  0  0  0  0  0  0  0
    4.0050    2.0944   -0.5812 C   0  0  0  0  0  0  0  0  0  0  0  0
    5.2673    1.6589   -0.1423 C   0  0  0  0  0  0  0  0  0  0  0  0
    5.4808    0.2961    0.1068 C   0  0  0  0  0  0  0  0  0  0  0  0
    4.4406   -0.6297   -0.0828 C   0  0  0  0  0  0  0  0  0  0  0  0
   -0.8717   -1.4438    2.1191 H   0  0  0  0  0  0  0  0  0  0  0  0
   -3.2982   -1.9415    1.7187 H   0  0  0  0  0  0  0  0  0  0  0  0
   -4.2330   -2.0004   -0.6300 H   0  0  0  0  0  0  0  0  0  0  0  0
   -2.7155   -1.3649   -2.5571 H   0  0  0  0  0  0  0  0  0  0  0  0
   -0.3353   -0.7777   -2.1651 H   0  0  0  0  0  0  0  0  0  0  0  0
    1.7928   -0.0638    3.2824 H   0  0  0  0  0  0  0  0  0  0  0  0
    0.4407    0.6945    2.3414 H   0  0  0  0  0  0  0  0  0  0  0  0
    2.1565    0.9043    1.7931 H   0  0  0  0  0  0  0  0  0  0  0  0
    1.5840   -0.9389   -1.7197 H   0  0  0  0  0  0  0  0  0  0  0  0
    3.1531   -2.9057   -1.3930 H   0  0  0  0  0  0  0  0  0  0  0  0
    2.7026   -2.9348    0.3497 H   0  0  0  0  0  0  0  0  0  0  0  0
    1.4638   -3.2634   -0.9036 H   0  0  0  0  0  0  0  0  0  0  0  0
    1.9735    1.5233   -1.0795 H   0  0  0  0  0  0  0  0  0  0  0  0
    3.8244    3.1626   -0.7749 H   0  0  0  0  0  0  0  0  0  0  0  0
    6.0823    2.3835    0.0063 H   0  0  0  0  0  0  0  0  0  0  0  0
    6.4646   -0.0543    0.4545 H   0  0  0  0  0  0  0  0  0  0  0  0
    4.6241   -1.6936    0.1229 H   0  0  0  0  0  0  0  0  0  0  0  0
  1  2  1  0  0  0  0
  2  9  1  0  0  0  0
  3  1  1  0  0  0  0
  3  4  2  0  0  0  0
  4 18  1  0  0  0  0
  5  4  1  0  0  0  0
  5 19  1  0  0  0  0
  6  5  1  0  0  0  0
  7  8  1  0  0  0  0
  7  6  1  0  0  0  0
  8  3  1  0  0  0  0
  9 24  1  0  0  0  0
  9 23  1  0  0  0  0
 10 26  1  6  0  0  0
 10 11  1  0  0  0  0
 10 12  1  0  0  0  0
 10  1  1  0  0  0  0
 11 28  1  0  0  0  0
 12 17  1  0  0  0  0
 13 14  1  0  0  0  0
 13 12  2  0  0  0  0
 14 15  2  0  0  0  0
 15 32  1  0  0  0  0
 15 16  1  0  0  0  0
 16 33  1  0  0  0  0
 17 16  2  0  0  0  0
 17 34  1  0  0  0  0
 20  6  1  0  0  0  0
 21  7  1  0  0  0  0
 22  8  1  0  0  0  0
 25  9  1  0  0  0  0
 27 11  1  0  0  0  0
 29 11  1  0  0  0  0
 30 13  1  0  0  0  0
 31 14  1  0  0  0  0
M  END
