2,3
 OpenBabel05122313053D

 25 25  0  0  0  0  0  0  0  0999 V2000
   -2.3135    1.1016    0.1419 N   0  0  0  0  0  0  0  0  0  0  0  0
   -1.4591    0.0681   -0.0785 C   0  0  0  0  0  2  0  0  0  0  0  0
    0.1736   -1.4536   -1.9475 C   0  0  0  0  0  3  0  0  0  0  0  0
   -0.6125   -1.0373   -2.5975 H   0  0  0  0  0  0  0  0  0  0  0  0
    1.1153   -1.7012   -2.4621 H   0  0  0  0  0  0  0  0  0  0  0  0
   -2.2480   -1.0402   -0.1639 N   0  0  0  0  0  0  0  0  0  0  0  0
   -0.1741   -2.1317   -0.7402 C   0  0  0  0  0  3  0  0  0  0  0  0
    0.5187   -2.8974   -0.3572 H   0  0  0  0  0  0  0  0  0  0  0  0
   -1.6175   -2.3412   -0.3066 C   0  0  0  0  0  0  0  0  0  0  0  0
   -2.1708   -2.9512   -1.0518 H   0  0  0  0  0  0  0  0  0  0  0  0
   -1.6581   -2.8826    0.6625 H   0  0  0  0  0  0  0  0  0  0  0  0
   -3.5963   -0.7284    0.0109 C   0  0  0  0  0  0  0  0  0  0  0  0
   -4.6737   -1.7552   -0.0329 C   0  0  0  0  0  0  0  0  0  0  0  0
   -5.6582   -1.2913    0.1589 H   0  0  0  0  0  0  0  0  0  0  0  0
   -4.5224   -2.5469    0.7302 H   0  0  0  0  0  0  0  0  0  0  0  0
   -4.7280   -2.2529   -1.0239 H   0  0  0  0  0  0  0  0  0  0  0  0
   -3.6391    0.6391    0.2044 C   0  0  0  0  0  0  0  0  0  0  0  0
   -4.7921    1.5540    0.4276 C   0  0  0  0  0  0  0  0  0  0  0  0
   -5.7335    0.9775    0.4804 H   0  0  0  0  0  0  0  0  0  0  0  0
   -4.8996    2.2926   -0.3943 H   0  0  0  0  0  0  0  0  0  0  0  0
   -4.6936    2.1234    1.3749 H   0  0  0  0  0  0  0  0  0  0  0  0
   -1.9381    2.4991    0.2967 C   0  0  0  0  0  0  0  0  0  0  0  0
   -0.8865    2.6151   -0.0141 H   0  0  0  0  0  0  0  0  0  0  0  0
   -2.0811    2.8261    1.3461 H   0  0  0  0  0  0  0  0  0  0  0  0
   -2.5610    3.1310   -0.3635 H   0  0  0  0  0  0  0  0  0  0  0  0
  1 17  1  0  0  0  0
  1 22  1  0  0  0  0
  2  1  1  0  0  0  0
  3  7  1  0  0  0  0
  4  3  1  0  0  0  0
  5  3  1  0  0  0  0
  6  2  1  0  0  0  0
  6 12  1  0  0  0  0
  7  8  1  0  0  0  0
  7  9  1  0  0  0  0
  9  6  1  0  0  0  0
  9 11  1  0  0  0  0
 10  9  1  0  0  0  0
 12 17  2  0  0  0  0
 13 12  1  0  0  0  0
 13 14  1  0  0  0  0
 13 15  1  0  0  0  0
 16 13  1  0  0  0  0
 17 18  1  0  0  0  0
 18 19  1  0  0  0  0
 18 21  1  0  0  0  0
 20 18  1  0  0  0  0
 22 24  1  0  0  0  0
 23 22  1  0  0  0  0
 25 22  1  0  0  0  0
M  END
