7,25
 OpenBabel05122313053D

 25 26  0  0  0  0  0  0  0  0999 V2000
    1.0945   -2.1145   -1.2205 O   0  0  0  0  0  0  0  0  0  0  0  0
   -0.1373    2.7507    0.7204 N   0  0  0  0  0  0  0  0  0  0  0  0
    1.7535    1.7641    0.5918 N   0  0  0  0  0  0  0  0  0  0  0  0
    0.7956    3.7204    0.9766 N   0  0  0  0  0  0  0  0  0  0  0  0
    4.0287    1.0665    0.4690 N   0  0  0  0  0  0  0  0  0  0  0  0
    4.6384   -0.0524   -0.0008 N   0  0  0  0  0  0  0  0  0  0  0  0
    0.3928    1.5069    0.4865 C   0  0  0  0  0  2  0  0  0  0  0  0
    1.9439    3.0982    0.8918 C   0  0  0  0  0  0  0  0  0  0  0  0
    2.9346    3.5452    1.0246 H   0  0  0  0  0  0  0  0  0  0  0  0
   -1.5253    3.1487    0.5955 C   0  0  0  0  0  0  0  0  0  0  0  0
   -2.1077    2.2612    0.2937 H   0  0  0  0  0  0  0  0  0  0  0  0
   -1.6123    3.9201   -0.1927 H   0  0  0  0  0  0  0  0  0  0  0  0
   -1.8948    3.5568    1.5555 H   0  0  0  0  0  0  0  0  0  0  0  0
    2.7324    0.8103    0.2992 C   0  0  0  0  0  0  0  0  0  0  0  0
    2.4714   -0.4606   -0.2755 C   0  0  0  0  0  0  0  0  0  0  0  0
    3.7622   -0.9994   -0.4596 C   0  0  0  0  0  0  0  0  0  0  0  0
    4.1803   -2.3140   -1.0217 C   0  0  0  0  0  0  0  0  0  0  0  0
    4.8380   -2.1891   -1.9078 H   0  0  0  0  0  0  0  0  0  0  0  0
    3.2675   -2.8520   -1.3366 H   0  0  0  0  0  0  0  0  0  0  0  0
    4.7323   -2.9283   -0.2794 H   0  0  0  0  0  0  0  0  0  0  0  0
    6.0793   -0.1626    0.0907 C   0  0  0  0  0  0  0  0  0  0  0  0
    6.3870   -0.7178    1.0019 H   0  0  0  0  0  0  0  0  0  0  0  0
    6.4965    0.8590    0.1338 H   0  0  0  0  0  0  0  0  0  0  0  0
    6.4776   -0.6869   -0.7985 H   0  0  0  0  0  0  0  0  0  0  0  0
    1.1522   -1.0568   -0.5856 C   0  0  0  0  0  3  0  0  0  0  0  0
  1 25  2  0  0  0  0
  2  4  1  0  0  0  0
  3  8  1  0  0  0  0
  6 21  1  0  0  0  0
  6  5  1  0  0  0  0
  7  3  1  0  0  0  0
  7  2  1  0  0  0  0
  8  4  2  0  0  0  0
  8  9  1  0  0  0  0
 10  2  1  0  0  0  0
 10 13  1  0  0  0  0
 11 10  1  0  0  0  0
 12 10  1  0  0  0  0
 14  5  2  0  0  0  0
 14  3  1  0  0  0  0
 15 14  1  0  0  0  0
 16 15  2  0  0  0  0
 16  6  1  0  0  0  0
 17 16  1  0  0  0  0
 17 20  1  0  0  0  0
 18 17  1  0  0  0  0
 19 17  1  0  0  0  0
 21 23  1  0  0  0  0
 21 22  1  0  0  0  0
 24 21  1  0  0  0  0
 25 15  1  0  0  0  0
M  END
