27,31
 OpenBabel05122313053D

 48 49  0  0  1  0  0  0  0  0999 V2000
    5.3540    0.1352   -0.2885 O   0  0  0  0  0  0  0  0  0  0  0  0
   -0.7468    1.8336    0.3038 N   0  0  0  0  0  0  0  0  0  0  0  0
   -1.6330    2.2287   -0.0722 H   0  0  0  0  0  0  0  0  0  0  0  0
   -3.4335    1.7341   -0.4206 N   0  0  0  0  0  0  0  0  0  0  0  0
   -0.9479    0.6042    0.8596 C   0  0  0  0  0  0  0  0  0  0  0  0
    0.3541    2.7314    0.6324 C   0  0  1  0  0  0  0  0  0  0  0  0
    0.3399    2.9541    1.7285 H   0  0  0  0  0  0  0  0  0  0  0  0
    1.7086    2.1070    0.3208 C   0  0  0  0  0  0  0  0  0  0  0  0
    1.8901    1.3296   -0.8337 C   0  0  0  0  0  0  0  0  0  0  0  0
    1.0555    1.2020   -1.5374 H   0  0  0  0  0  0  0  0  0  0  0  0
    3.0977    0.6650   -1.0846 C   0  0  0  0  0  0  0  0  0  0  0  0
    3.1802    0.0301   -1.9762 H   0  0  0  0  0  0  0  0  0  0  0  0
    4.1638    0.7806   -0.1688 C   0  0  0  0  0  0  0  0  0  0  0  0
    5.4718   -0.8591   -1.2929 C   0  0  0  0  0  0  0  0  0  0  0  0
    4.6905   -1.6422   -1.1779 H   0  0  0  0  0  0  0  0  0  0  0  0
    6.4706   -1.3157   -1.1637 H   0  0  0  0  0  0  0  0  0  0  0  0
    5.4062   -0.4274   -2.3171 H   0  0  0  0  0  0  0  0  0  0  0  0
    4.0114    1.6049    0.9681 C   0  0  0  0  0  0  0  0  0  0  0  0
    4.8560    1.6911    1.6668 H   0  0  0  0  0  0  0  0  0  0  0  0
    2.7949    2.2496    1.2076 C   0  0  0  0  0  0  0  0  0  0  0  0
    2.6755    2.8548    2.1217 H   0  0  0  0  0  0  0  0  0  0  0  0
    0.1418    4.0497   -0.1221 C   0  0  0  0  0  0  0  0  0  0  0  0
    0.1739    3.8754   -1.2166 H   0  0  0  0  0  0  0  0  0  0  0  0
    0.9419    4.7695    0.1336 H   0  0  0  0  0  0  0  0  0  0  0  0
   -0.8360    4.5077    0.1366 H   0  0  0  0  0  0  0  0  0  0  0  0
   -2.1076   -0.1676    0.4224 C   0  0  1  0  0  3  0  0  0  0  0  0
   -2.4424   -1.3608    1.1195 C   0  0  0  0  0  3  0  0  0  0  0  0
   -3.3422   -1.9187    0.8325 H   0  0  0  0  0  0  0  0  0  0  0  0
   -1.5899   -1.8979    2.1327 C   0  0  0  0  0  3  0  0  0  0  0  0
   -1.8415   -2.8520    2.6143 H   0  0  0  0  0  0  0  0  0  0  0  0
   -0.3771   -1.2377    2.4274 C   0  0  0  0  0  3  0  0  0  0  0  0
    0.3331   -1.6761    3.1417 H   0  0  0  0  0  0  0  0  0  0  0  0
   -0.0477   -0.0067    1.7834 C   0  0  0  0  0  0  0  0  0  0  0  0
    0.9068    0.4820    2.0105 H   0  0  0  0  0  0  0  0  0  0  0  0
   -2.9452    0.3676   -0.7395 C   0  0  1  0  0  0  0  0  0  0  0  0
   -2.2319    0.5211   -1.5787 H   0  0  0  0  0  0  0  0  0  0  0  0
   -3.9278    2.4628   -1.5786 C   0  0  0  0  0  0  0  0  0  0  0  0
   -4.9048    2.0828   -1.9696 H   0  0  0  0  0  0  0  0  0  0  0  0
   -3.1862    2.4085   -2.4015 H   0  0  0  0  0  0  0  0  0  0  0  0
   -4.0705    3.5306   -1.3132 H   0  0  0  0  0  0  0  0  0  0  0  0
   -4.3363    1.8114    0.7187 C   0  0  0  0  0  0  0  0  0  0  0  0
   -4.4758    2.8725    1.0105 H   0  0  0  0  0  0  0  0  0  0  0  0
   -3.9019    1.2728    1.5840 H   0  0  0  0  0  0  0  0  0  0  0  0
   -5.3500    1.3834    0.5163 H   0  0  0  0  0  0  0  0  0  0  0  0
   -4.0205   -0.6085   -1.2305 C   0  0  0  0  0  0  0  0  0  0  0  0
   -4.7991   -0.8033   -0.4661 H   0  0  0  0  0  0  0  0  0  0  0  0
   -3.5568   -1.5747   -1.5082 H   0  0  0  0  0  0  0  0  0  0  0  0
   -4.5239   -0.2098   -2.1321 H   0  0  0  0  0  0  0  0  0  0  0  0
  1 13  1  0  0  0  0
  2  6  1  0  0  0  0
  2  5  1  0  0  0  0
  3  2  1  0  0  0  0
  4 41  1  0  0  0  0
  5 33  2  0  0  0  0
  6  7  1  1  0  0  0
  8  6  1  0  0  0  0
  8 20  1  0  0  0  0
  9  8  2  0  0  0  0
 10  9  1  0  0  0  0
 11  9  1  0  0  0  0
 11 13  2  0  0  0  0
 12 11  1  0  0  0  0
 13 18  1  0  0  0  0
 14 15  1  0  0  0  0
 14 16  1  0  0  0  0
 14  1  1  0  0  0  0
 17 14  1  0  0  0  0
 18 20  2  0  0  0  0
 18 19  1  0  0  0  0
 20 21  1  0  0  0  0
 22 24  1  0  0  0  0
 22 25  1  0  0  0  0
 22  6  1  0  0  0  0
 23 22  1  0  0  0  0
 26 35  1  1  0  0  0
 26  5  1  0  0  0  0
 26 27  1  0  0  0  0
 27 29  1  0  0  0  0
 28 27  1  0  0  0  0
 29 31  1  0  0  0  0
 29 30  1  0  0  0  0
 31 32  1  0  0  0  0
 33 34  1  0  0  0  0
 33 31  1  0  0  0  0
 35 36  1  6  0  0  0
 35  4  1  0  0  0  0
 37 40  1  0  0  0  0
 37  4  1  0  0  0  0
 38 37  1  0  0  0  0
 39 37  1  0  0  0  0
 41 42  1  0  0  0  0
 41 43  1  0  0  0  0
 44 41  1  0  0  0  0
 45 35  1  0  0  0  0
 45 46  1  0  0  0  0
 47 45  1  0  0  0  0
 48 45  1  0  0  0  0
M  END
