9,13
 OpenBabel05122313053D

 31 31  0  0  1  0  0  0  0  0999 V2000
   -4.2927    1.6337   -0.0917 Cl  0  0  0  0  0  0  0  0  0  0  0  0
   -2.1933    3.7402   -0.1079 Cl  0  0  0  0  0  0  0  0  0  0  0  0
   -1.5049   -1.0504   -1.8002 Cl  0  0  0  0  0  0  0  0  0  0  0  0
   -0.3650   -3.6312   -1.0512 Cl  0  0  0  0  0  0  0  0  0  0  0  0
   -2.9980   -2.0150    0.3972 O   0  0  0  0  0  0  0  0  0  0  0  0
   -1.3115   -2.5119    1.8396 O   0  0  0  0  0  0  0  0  0  0  0  0
   -2.0755    0.4884    1.3835 O   0  0  0  0  0  0  0  0  0  0  0  0
    0.5774   -1.3230    0.0631 C   0  0  2  0  0  0  0  0  0  0  0  0
    0.6503    0.0642    0.7247 C   0  0  0  0  0  3  0  0  0  0  0  0
   -0.1374    1.2560    0.1835 C   0  0  1  0  0  0  0  0  0  0  0  0
    0.3060    1.6564   -1.2352 C   0  0  0  0  0  0  0  0  0  0  0  0
    1.6946    1.1392   -1.5548 C   0  0  0  0  0  3  0  0  0  0  0  0
    2.0596   -0.2326   -1.7605 C   0  0  0  0  0  3  0  0  0  0  0  0
    1.7269   -1.3152   -0.9157 C   0  0  0  0  0  3  0  0  0  0  0  0
   -0.7457   -1.9523   -0.4356 C   0  0  0  0  0  0  0  0  0  0  0  0
   -1.7225   -2.1809    0.7466 C   0  0  0  0  0  0  0  0  0  0  0  0
   -3.9525   -2.0992    1.4686 C   0  0  0  0  0  0  0  0  0  0  0  0
   -1.6397    1.1475    0.4597 C   0  0  0  0  0  0  0  0  0  0  0  0
   -2.5904    2.0002   -0.4179 C   0  0  0  0  0  0  0  0  0  0  0  0
    0.4883   -0.0194    1.8131 H   0  0  0  0  0  0  0  0  0  0  0  0
    0.1372    2.1135    0.8413 H   0  0  0  0  0  0  0  0  0  0  0  0
    2.2348   -2.2709   -1.1177 H   0  0  0  0  0  0  0  0  0  0  0  0
    2.2938    1.8362   -2.1646 H   0  0  0  0  0  0  0  0  0  0  0  0
   -0.3865    1.2531   -2.0020 H   0  0  0  0  0  0  0  0  0  0  0  0
    0.8445   -2.0383    0.8681 H   0  0  0  0  0  0  0  0  0  0  0  0
    0.2894    2.7578   -1.3402 H   0  0  0  0  0  0  0  0  0  0  0  0
    2.8640   -0.4308   -2.4896 H   0  0  0  0  0  0  0  0  0  0  0  0
   -2.4094    1.8268   -1.4936 H   0  0  0  0  0  0  0  0  0  0  0  0
   -3.7985   -3.0227    2.0599 H   0  0  0  0  0  0  0  0  0  0  0  0
   -3.8359   -1.2128    2.1219 H   0  0  0  0  0  0  0  0  0  0  0  0
   -4.9458   -2.0953    0.9876 H   0  0  0  0  0  0  0  0  0  0  0  0
  3 15  1  0  0  0  0
  4 15  1  0  0  0  0
  5 16  1  0  0  0  0
  5 17  1  0  0  0  0
  8  9  1  0  0  0  0
  8 25  1  1  0  0  0
  9 20  1  0  0  0  0
 10 18  1  0  0  0  0
 10  9  1  0  0  0  0
 10 21  1  1  0  0  0
 11 10  1  0  0  0  0
 12 11  1  0  0  0  0
 13 12  1  0  0  0  0
 13 14  1  0  0  0  0
 14  8  1  0  0  0  0
 15  8  1  0  0  0  0
 15 16  1  0  0  0  0
 16  6  2  0  0  0  0
 17 29  1  0  0  0  0
 17 30  1  0  0  0  0
 18  7  2  0  0  0  0
 19  2  1  0  0  0  0
 19  1  1  0  0  0  0
 19 18  1  0  0  0  0
 22 14  1  0  0  0  0
 23 12  1  0  0  0  0
 24 11  1  0  0  0  0
 26 11  1  0  0  0  0
 27 13  1  0  0  0  0
 28 19  1  0  0  0  0
 31 17  1  0  0  0  0
M  END
