5,29
 OpenBabel05122313053D

 53 56  0  0  0  0  0  0  0  0999 V2000
   -2.3182   -0.1392    0.4675 N   0  0  0  0  0  0  0  0  0  0  0  0
   -2.0285    0.5759   -1.5959 N   0  0  0  0  0  0  0  0  0  0  0  0
    0.8658   -0.9972   -2.6864 N   0  0  0  0  0  0  0  0  0  0  0  0
    0.8278   -2.3594   -1.0005 N   0  0  0  0  0  0  0  0  0  0  0  0
   -1.3847    0.3177   -0.4154 C   0  0  0  0  0  2  0  0  0  0  0  0
   -3.5780   -0.1528   -0.1315 C   0  0  0  0  0  0  0  0  0  0  0  0
   -4.8418   -0.5151    0.3513 C   0  0  0  0  0  0  0  0  0  0  0  0
   -4.9846   -0.8562    1.3860 H   0  0  0  0  0  0  0  0  0  0  0  0
   -5.9206   -0.4096   -0.5410 C   0  0  0  0  0  0  0  0  0  0  0  0
   -6.9295   -0.6833   -0.1995 H   0  0  0  0  0  0  0  0  0  0  0  0
   -5.7383    0.0488   -1.8638 C   0  0  0  0  0  0  0  0  0  0  0  0
   -6.6084    0.1232   -2.5325 H   0  0  0  0  0  0  0  0  0  0  0  0
   -4.4718    0.4160   -2.3460 C   0  0  0  0  0  0  0  0  0  0  0  0
   -4.3367    0.7737   -3.3763 H   0  0  0  0  0  0  0  0  0  0  0  0
   -3.3923    0.3055   -1.4598 C   0  0  0  0  0  0  0  0  0  0  0  0
   -2.0536   -0.4309    1.8678 C   0  0  0  0  0  0  0  0  0  0  0  0
   -0.9664   -0.5836    1.9906 H   0  0  0  0  0  0  0  0  0  0  0  0
   -2.5865   -1.3525    2.1684 H   0  0  0  0  0  0  0  0  0  0  0  0
   -2.3712    0.4215    2.5010 H   0  0  0  0  0  0  0  0  0  0  0  0
   -1.4377    1.3889   -2.6630 C   0  0  0  0  0  0  0  0  0  0  0  0
   -0.7880    2.1307   -2.1555 H   0  0  0  0  0  0  0  0  0  0  0  0
   -2.2768    1.9596   -3.1061 H   0  0  0  0  0  0  0  0  0  0  0  0
   -0.6874    0.6505   -3.7797 C   0  0  0  0  0  0  0  0  0  0  0  0
   -0.6323    1.3606   -4.6315 H   0  0  0  0  0  0  0  0  0  0  0  0
   -1.2830   -0.2162   -4.1408 H   0  0  0  0  0  0  0  0  0  0  0  0
    0.7580    0.2233   -3.4869 C   0  0  0  0  0  0  0  0  0  0  0  0
    1.2862    0.0231   -4.4394 H   0  0  0  0  0  0  0  0  0  0  0  0
    1.3341    1.0062   -2.9470 H   0  0  0  0  0  0  0  0  0  0  0  0
    0.7849   -1.0291   -1.3269 C   0  0  0  0  0  2  0  0  0  0  0  0
    0.9815   -2.2810   -3.2070 C   0  0  0  0  0  0  0  0  0  0  0  0
    1.0897   -2.4654   -4.2797 H   0  0  0  0  0  0  0  0  0  0  0  0
    0.9594   -3.1437   -2.1433 C   0  0  0  0  0  0  0  0  0  0  0  0
    1.0401   -4.2327   -2.0889 H   0  0  0  0  0  0  0  0  0  0  0  0
    0.5905   -2.8787    0.3208 C   0  0  0  0  0  0  0  0  0  0  0  0
   -0.7043   -3.3608    0.6147 C   0  0  0  0  0  0  0  0  0  0  0  0
   -0.9398   -3.8475    1.9136 C   0  0  0  0  0  0  0  0  0  0  0  0
   -1.9443   -4.2251    2.1644 H   0  0  0  0  0  0  0  0  0  0  0  0
    0.0668   -3.8589    2.8957 C   0  0  0  0  0  0  0  0  0  0  0  0
    1.3471   -3.3866    2.5474 C   0  0  0  0  0  0  0  0  0  0  0  0
    2.1515   -3.4022    3.3000 H   0  0  0  0  0  0  0  0  0  0  0  0
    1.6441   -2.8960    1.2636 C   0  0  0  0  0  0  0  0  0  0  0  0
   -1.7986   -3.3676   -0.4235 C   0  0  0  0  0  0  0  0  0  0  0  0
   -1.7724   -2.4644   -1.0635 H   0  0  0  0  0  0  0  0  0  0  0  0
   -2.7972   -3.4232    0.0502 H   0  0  0  0  0  0  0  0  0  0  0  0
   -1.7071   -4.2413   -1.1031 H   0  0  0  0  0  0  0  0  0  0  0  0
   -0.2096   -4.3560    4.2921 C   0  0  0  0  0  0  0  0  0  0  0  0
    0.5351   -5.1164    4.6043 H   0  0  0  0  0  0  0  0  0  0  0  0
   -1.2169   -4.8073    4.3764 H   0  0  0  0  0  0  0  0  0  0  0  0
   -0.1468   -3.5273    5.0284 H   0  0  0  0  0  0  0  0  0  0  0  0
    3.0177   -2.3990    0.9135 C   0  0  0  0  0  0  0  0  0  0  0  0
    3.3477   -2.7674   -0.0788 H   0  0  0  0  0  0  0  0  0  0  0  0
    3.7599   -2.7178    1.6686 H   0  0  0  0  0  0  0  0  0  0  0  0
    3.0380   -1.2895    0.8568 H   0  0  0  0  0  0  0  0  0  0  0  0
  1 16  1  0  0  0  0
  2 15  1  0  0  0  0
  2  5  1  0  0  0  0
  3 29  1  0  0  0  0
  4 34  1  0  0  0  0
  5  1  1  0  0  0  0
  6  7  1  0  0  0  0
  6  1  1  0  0  0  0
  7  8  1  0  0  0  0
  9 10  1  0  0  0  0
  9  7  2  0  0  0  0
 11  9  1  0  0  0  0
 12 11  1  0  0  0  0
 13 11  2  0  0  0  0
 13 15  1  0  0  0  0
 14 13  1  0  0  0  0
 15  6  2  0  0  0  0
 16 17  1  0  0  0  0
 16 18  1  0  0  0  0
 16 19  1  0  0  0  0
 20 21  1  0  0  0  0
 20  2  1  0  0  0  0
 22 20  1  0  0  0  0
 23 26  1  0  0  0  0
 23 20  1  0  0  0  0
 24 23  1  0  0  0  0
 25 23  1  0  0  0  0
 26 28  1  0  0  0  0
 26  3  1  0  0  0  0
 27 26  1  0  0  0  0
 29  4  1  0  0  0  0
 30  3  1  0  0  0  0
 30 32  2  0  0  0  0
 31 30  1  0  0  0  0
 32 33  1  0  0  0  0
 32  4  1  0  0  0  0
 34 35  2  0  0  0  0
 34 41  1  0  0  0  0
 35 36  1  0  0  0  0
 36 37  1  0  0  0  0
 36 38  2  0  0  0  0
 38 46  1  0  0  0  0
 39 38  1  0  0  0  0
 39 40  1  0  0  0  0
 41 39  2  0  0  0  0
 42 44  1  0  0  0  0
 42 35  1  0  0  0  0
 43 42  1  0  0  0  0
 45 42  1  0  0  0  0
 46 48  1  0  0  0  0
 46 47  1  0  0  0  0
 46 49  1  0  0  0  0
 50 41  1  0  0  0  0
 50 52  1  0  0  0  0
 51 50  1  0  0  0  0
 53 50  1  0  0  0  0
M  END
