1,5
 OpenBabel05122313053D

 22 22  0  0  0  0  0  0  0  0999 V2000
   -2.3672    0.9994    0.2355 C   0  0  0  0  0  3  0  0  0  0  0  0
   -1.5827    1.9472   -0.4977 C   0  0  0  0  0  0  0  0  0  0  0  0
   -0.8699    1.4453   -1.6289 C   0  0  0  0  0  0  0  0  0  0  0  0
   -0.9275    0.0594   -1.9531 C   0  0  0  0  0  3  0  0  0  0  0  0
   -1.7428   -0.8414   -1.1761 C   0  0  0  0  0  3  0  0  0  0  0  0
   -2.9642   -0.2194   -0.4912 C   0  0  0  0  0  0  0  0  0  0  0  0
   -1.5638    3.4090   -0.1293 C   0  0  0  0  0  0  0  0  0  0  0  0
   -3.5708   -1.2110    0.5120 C   0  0  0  0  0  0  0  0  0  0  0  0
   -4.0549    0.2065   -1.5000 C   0  0  0  0  0  0  0  0  0  0  0  0
   -2.9098    1.3746    1.1203 H   0  0  0  0  0  0  0  0  0  0  0  0
   -0.2726    2.1354   -2.2432 H   0  0  0  0  0  0  0  0  0  0  0  0
   -0.2991   -0.3080   -2.7767 H   0  0  0  0  0  0  0  0  0  0  0  0
   -1.8578   -1.8727   -1.5523 H   0  0  0  0  0  0  0  0  0  0  0  0
   -0.6632    3.9296   -0.5092 H   0  0  0  0  0  0  0  0  0  0  0  0
   -2.4547    3.9281   -0.5486 H   0  0  0  0  0  0  0  0  0  0  0  0
   -1.6014    3.5531    0.9697 H   0  0  0  0  0  0  0  0  0  0  0  0
   -4.3721   -0.7355    1.1161 H   0  0  0  0  0  0  0  0  0  0  0  0
   -4.0197   -2.0767   -0.0189 H   0  0  0  0  0  0  0  0  0  0  0  0
   -2.7961   -1.6031    1.2010 H   0  0  0  0  0  0  0  0  0  0  0  0
   -3.6387    0.9174   -2.2413 H   0  0  0  0  0  0  0  0  0  0  0  0
   -4.4523   -0.6734   -2.0510 H   0  0  0  0  0  0  0  0  0  0  0  0
   -4.9050    0.7039   -0.9844 H   0  0  0  0  0  0  0  0  0  0  0  0
  1 10  1  0  0  0  0
  2  7  1  0  0  0  0
  2  1  1  0  0  0  0
  3  2  2  0  0  0  0
  4  3  1  0  0  0  0
  4  5  1  0  0  0  0
  5  6  1  0  0  0  0
  6  1  1  0  0  0  0
  6  8  1  0  0  0  0
  7 16  1  0  0  0  0
  8 17  1  0  0  0  0
  8 19  1  0  0  0  0
  9 22  1  0  0  0  0
  9  6  1  0  0  0  0
 11  3  1  0  0  0  0
 12  4  1  0  0  0  0
 13  5  1  0  0  0  0
 14  7  1  0  0  0  0
 15  7  1  0  0  0  0
 18  8  1  0  0  0  0
 20  9  1  0  0  0  0
 21  9  1  0  0  0  0
M  END
