1,3
 OpenBabel05122313053D

 35 36  0  0  1  0  0  0  0  0999 V2000
   -0.9826    1.3752    0.1066 C   0  0  1  0  0  3  0  0  0  0  0  0
   -0.2310    1.6964    1.2892 C   0  0  1  0  0  3  0  0  0  0  0  0
    0.9953    2.2993    0.8721 C   0  0  1  0  0  3  0  0  0  0  0  0
    0.9756    2.4181   -0.5591 C   0  0  0  0  0  0  0  0  0  0  0  0
   -0.2425    1.8478   -1.0362 C   0  0  0  0  0  0  0  0  0  0  0  0
   -0.6630    1.4845    2.7050 C   0  0  0  0  0  0  0  0  0  0  0  0
    2.1129    2.7627    1.7561 C   0  0  0  0  0  0  0  0  0  0  0  0
    2.0545    3.0597   -1.3715 C   0  0  0  0  0  0  0  0  0  0  0  0
   -0.6701    1.7401   -2.4665 C   0  0  0  0  0  0  0  0  0  0  0  0
   -2.2780    0.6667    0.0731 C   0  0  0  0  0  0  0  0  0  0  0  0
   -2.4809   -0.5178    0.8218 C   0  0  0  0  0  0  0  0  0  0  0  0
   -3.7064   -1.1910    0.7868 C   0  0  0  0  0  0  0  0  0  0  0  0
   -4.7826   -0.7188    0.0049 C   0  0  0  0  0  0  0  0  0  0  0  0
   -4.5791    0.4584   -0.7401 C   0  0  0  0  0  0  0  0  0  0  0  0
   -3.3539    1.1397   -0.7077 C   0  0  0  0  0  0  0  0  0  0  0  0
   -6.1003   -1.4522   -0.0206 C   0  0  0  0  0  0  0  0  0  0  0  0
   -6.8100   -0.9931   -0.7361 H   0  0  0  0  0  0  0  0  0  0  0  0
   -1.6424   -0.9175    1.4123 H   0  0  0  0  0  0  0  0  0  0  0  0
   -3.8325   -2.1146    1.3755 H   0  0  0  0  0  0  0  0  0  0  0  0
   -5.4023    0.8541   -1.3567 H   0  0  0  0  0  0  0  0  0  0  0  0
   -3.2335    2.0668   -1.2868 H   0  0  0  0  0  0  0  0  0  0  0  0
   -5.9678   -2.5160   -0.3091 H   0  0  0  0  0  0  0  0  0  0  0  0
   -6.5836   -1.4514    0.9796 H   0  0  0  0  0  0  0  0  0  0  0  0
   -0.3740    2.3461    3.3399 H   0  0  0  0  0  0  0  0  0  0  0  0
   -0.1886    0.5700    3.1205 H   0  0  0  0  0  0  0  0  0  0  0  0
   -1.7605    1.3574    2.7705 H   0  0  0  0  0  0  0  0  0  0  0  0
    2.1693    3.8723    1.7980 H   0  0  0  0  0  0  0  0  0  0  0  0
    3.0870    2.3955    1.3734 H   0  0  0  0  0  0  0  0  0  0  0  0
    1.9929    2.3915    2.7919 H   0  0  0  0  0  0  0  0  0  0  0  0
    3.0392    2.6159   -1.1208 H   0  0  0  0  0  0  0  0  0  0  0  0
    2.1076    4.1510   -1.1692 H   0  0  0  0  0  0  0  0  0  0  0  0
    1.8857    2.9281   -2.4576 H   0  0  0  0  0  0  0  0  0  0  0  0
   -1.3119    2.5970   -2.7648 H   0  0  0  0  0  0  0  0  0  0  0  0
   -1.2407    0.8064   -2.6285 H   0  0  0  0  0  0  0  0  0  0  0  0
    0.2020    1.7265   -3.1491 H   0  0  0  0  0  0  0  0  0  0  0  0
  1 10  1  6  0  0  0
  1  2  1  0  0  0  0
  2  6  1  1  0  0  0
  3  2  1  0  0  0  0
  3  7  1  1  0  0  0
  4  3  1  0  0  0  0
  5  4  2  0  0  0  0
  5  1  1  0  0  0  0
  6 26  1  0  0  0  0
  6 25  1  0  0  0  0
  6 24  1  0  0  0  0
  7 27  1  0  0  0  0
  7 29  1  0  0  0  0
  8 31  1  0  0  0  0
  8 30  1  0  0  0  0
  8  4  1  0  0  0  0
  9  5  1  0  0  0  0
 10 11  1  0  0  0  0
 11 18  1  0  0  0  0
 12 11  2  0  0  0  0
 12 19  1  0  0  0  0
 13 12  1  0  0  0  0
 14 15  1  0  0  0  0
 14 13  2  0  0  0  0
 15 10  2  0  0  0  0
 16 13  1  0  0  0  0
 16 23  1  0  0  0  0
 17 16  1  0  0  0  0
 20 14  1  0  0  0  0
 21 15  1  0  0  0  0
 22 16  1  0  0  0  0
 28  7  1  0  0  0  0
 32  8  1  0  0  0  0
 33  9  1  0  0  0  0
 34  9  1  0  0  0  0
 35  9  1  0  0  0  0
M  END
