21
 OpenBabel05122313053D

 57 62  0  0  1  0  0  0  0  0999 V2000
    1.7974   -1.1702    2.0846 S   0  0  0  0  0  0  0  0  0  0  0  0
   -1.8045   -1.1616    2.0844 S   0  0  0  0  0  0  0  0  0  0  0  0
    0.0043    2.2091    2.2191 Si  0  0  0  0  0  0  0  0  0  0  0  0
    1.8157    0.2401    1.0278 C   0  0  0  0  0  0  0  0  0  0  0  0
    2.5233   -0.0112   -0.1933 C   0  0  0  0  0  0  0  0  0  0  0  0
    2.5463    1.2058   -0.9416 C   0  0  0  0  0  0  0  0  0  0  0  0
    1.8781    2.2035   -0.1504 C   0  0  0  0  0  0  0  0  0  0  0  0
    1.4076    1.6168    1.0947 C   0  0  1  0  0  3  0  0  0  0  0  0
    2.7153   -2.1030    0.8916 C   0  0  0  0  0  0  0  0  0  0  0  0
    3.0467   -1.3580   -0.2797 C   0  0  0  0  0  0  0  0  0  0  0  0
    3.7761   -1.9904   -1.3053 C   0  0  0  0  0  0  0  0  0  0  0  0
    4.1622   -3.3278   -1.1586 C   0  0  0  0  0  0  0  0  0  0  0  0
    3.8227   -4.0497    0.0036 C   0  0  0  0  0  0  0  0  0  0  0  0
    3.0937   -3.4459    1.0372 C   0  0  0  0  0  0  0  0  0  0  0  0
    3.2496    1.4264   -2.2446 C   0  0  0  0  0  0  0  0  0  0  0  0
    1.7978    3.6512   -0.5476 C   0  0  0  0  0  0  0  0  0  0  0  0
   -1.8155    0.2483    1.0271 C   0  0  0  0  0  0  0  0  0  0  0  0
   -2.5234   -0.0001   -0.1943 C   0  0  0  0  0  0  0  0  0  0  0  0
   -2.5402    1.2167   -0.9432 C   0  0  0  0  0  0  0  0  0  0  0  0
   -1.8672    2.2114   -0.1522 C   0  0  0  0  0  0  0  0  0  0  0  0
   -1.4006    1.6230    1.0936 C   0  0  2  0  0  3  0  0  0  0  0  0
   -2.7258   -2.0906    0.8912 C   0  0  0  0  0  0  0  0  0  0  0  0
   -3.0529   -1.3445   -0.2807 C   0  0  0  0  0  0  0  0  0  0  0  0
   -3.7845   -1.9739   -1.3066 C   0  0  0  0  0  0  0  0  0  0  0  0
   -4.1769   -3.3094   -1.1597 C   0  0  0  0  0  0  0  0  0  0  0  0
   -3.8417   -4.0324    0.0030 C   0  0  0  0  0  0  0  0  0  0  0  0
   -3.1106   -3.4317    1.0369 C   0  0  0  0  0  0  0  0  0  0  0  0
   -3.2417    1.4394   -2.2469 C   0  0  0  0  0  0  0  0  0  0  0  0
   -1.7789    3.6584   -0.5501 C   0  0  0  0  0  0  0  0  0  0  0  0
    0.0018    1.2347    3.8313 C   0  0  0  0  0  0  0  0  0  0  0  0
    0.0077    4.0434    2.6567 C   0  0  0  0  0  0  0  0  0  0  0  0
    4.0320   -1.4336   -2.2175 H   0  0  0  0  0  0  0  0  0  0  0  0
    4.7299   -3.8220   -1.9607 H   0  0  0  0  0  0  0  0  0  0  0  0
    4.1287   -5.1020    0.1027 H   0  0  0  0  0  0  0  0  0  0  0  0
    2.8237   -4.0120    1.9407 H   0  0  0  0  0  0  0  0  0  0  0  0
    3.0404    0.6086   -2.9613 H   0  0  0  0  0  0  0  0  0  0  0  0
    4.3493    1.4683   -2.0891 H   0  0  0  0  0  0  0  0  0  0  0  0
    2.9326    2.3703   -2.7238 H   0  0  0  0  0  0  0  0  0  0  0  0
    2.8065    4.1143   -0.5067 H   0  0  0  0  0  0  0  0  0  0  0  0
    1.4151    3.7712   -1.5805 H   0  0  0  0  0  0  0  0  0  0  0  0
    1.1475    4.2303    0.1297 H   0  0  0  0  0  0  0  0  0  0  0  0
   -4.0371   -1.4162   -2.2192 H   0  0  0  0  0  0  0  0  0  0  0  0
   -4.7463   -3.8013   -1.9621 H   0  0  0  0  0  0  0  0  0  0  0  0
   -4.1526   -5.0833    0.1023 H   0  0  0  0  0  0  0  0  0  0  0  0
   -2.8440   -3.9987    1.9409 H   0  0  0  0  0  0  0  0  0  0  0  0
   -3.0349    0.6206   -2.9631 H   0  0  0  0  0  0  0  0  0  0  0  0
   -4.3413    1.4853   -2.0921 H   0  0  0  0  0  0  0  0  0  0  0  0
   -2.9210    2.3820   -2.7262 H   0  0  0  0  0  0  0  0  0  0  0  0
   -1.4131    3.7743   -1.5895 H   0  0  0  0  0  0  0  0  0  0  0  0
   -1.1100    4.2307    0.1147 H   0  0  0  0  0  0  0  0  0  0  0  0
   -2.7817    4.1323   -0.4910 H   0  0  0  0  0  0  0  0  0  0  0  0
    0.0004    0.1378    3.6790 H   0  0  0  0  0  0  0  0  0  0  0  0
   -0.8969    1.4939    4.4276 H   0  0  0  0  0  0  0  0  0  0  0  0
    0.9003    1.4914    4.4290 H   0  0  0  0  0  0  0  0  0  0  0  0
    0.0035    4.7338    1.7936 H   0  0  0  0  0  0  0  0  0  0  0  0
    0.9078    4.2677    3.2653 H   0  0  0  0  0  0  0  0  0  0  0  0
   -0.8863    4.2683    3.2740 H   0  0  0  0  0  0  0  0  0  0  0  0
  3 31  1  0  0  0  0
  3 30  1  0  0  0  0
  4  8  1  0  0  0  0
  4  1  1  0  0  0  0
  5  4  2  0  0  0  0
  6  5  1  0  0  0  0
  6  7  2  0  0  0  0
  7  8  1  0  0  0  0
  8  3  1  6  0  0  0
  9 14  1  0  0  0  0
  9  1  1  0  0  0  0
 10  5  1  0  0  0  0
 10  9  2  0  0  0  0
 11 12  2  0  0  0  0
 11 10  1  0  0  0  0
 12 13  1  0  0  0  0
 13 34  1  0  0  0  0
 13 14  2  0  0  0  0
 14 35  1  0  0  0  0
 15 37  1  0  0  0  0
 15  6  1  0  0  0  0
 16 39  1  0  0  0  0
 16  7  1  0  0  0  0
 16 41  1  0  0  0  0
 17 21  1  0  0  0  0
 17  2  1  0  0  0  0
 18 17  2  0  0  0  0
 19 18  1  0  0  0  0
 19 20  2  0  0  0  0
 20 21  1  0  0  0  0
 21  3  1  6  0  0  0
 22 27  1  0  0  0  0
 22  2  1  0  0  0  0
 23 18  1  0  0  0  0
 23 22  2  0  0  0  0
 24 25  2  0  0  0  0
 24 23  1  0  0  0  0
 25 26  1  0  0  0  0
 26 44  1  0  0  0  0
 26 27  2  0  0  0  0
 27 45  1  0  0  0  0
 28 47  1  0  0  0  0
 28 19  1  0  0  0  0
 29 51  1  0  0  0  0
 29 20  1  0  0  0  0
 29 50  1  0  0  0  0
 30 53  1  0  0  0  0
 30 54  1  0  0  0  0
 31 56  1  0  0  0  0
 31 57  1  0  0  0  0
 32 11  1  0  0  0  0
 33 12  1  0  0  0  0
 36 15  1  0  0  0  0
 38 15  1  0  0  0  0
 40 16  1  0  0  0  0
 42 24  1  0  0  0  0
 43 25  1  0  0  0  0
 46 28  1  0  0  0  0
 48 28  1  0  0  0  0
 49 29  1  0  0  0  0
 52 30  1  0  0  0  0
 55 31  1  0  0  0  0
M  END
