31,35
 OpenBabel05122313053D

 38 39  0  0  1  0  0  0  0  0999 V2000
    3.4170   -1.1744    1.2212 C   0  0  0  0  0  0  0  0  0  0  0  0
    3.4573   -0.5836   -0.1318 C   0  0  0  0  0  0  0  0  0  0  0  0
    1.9795   -0.1400   -0.4618 C   0  0  2  0  0  0  0  0  0  0  0  0
    1.3911   -1.0685   -0.3286 H   0  0  0  0  0  0  0  0  0  0  0  0
    1.7889    0.2705   -1.9232 C   0  0  0  0  0  0  0  0  0  0  0  0
    0.7235    0.4979   -2.1125 H   0  0  0  0  0  0  0  0  0  0  0  0
    2.0567   -0.5557   -2.6077 H   0  0  0  0  0  0  0  0  0  0  0  0
    2.3860    1.1597   -2.2072 H   0  0  0  0  0  0  0  0  0  0  0  0
    3.9250   -1.6933   -1.1036 C   0  0  0  0  0  0  0  0  0  0  0  0
    4.8777   -2.1376   -0.7561 H   0  0  0  0  0  0  0  0  0  0  0  0
    4.0939   -1.2717   -2.1128 H   0  0  0  0  0  0  0  0  0  0  0  0
    3.1700   -2.5004   -1.1816 H   0  0  0  0  0  0  0  0  0  0  0  0
    4.4753    0.5778   -0.1355 C   0  0  0  0  0  0  0  0  0  0  0  0
    4.2391    1.3397    0.6312 H   0  0  0  0  0  0  0  0  0  0  0  0
    4.4866    1.0669   -1.1294 H   0  0  0  0  0  0  0  0  0  0  0  0
    5.4954    0.1975    0.0689 H   0  0  0  0  0  0  0  0  0  0  0  0
    1.4205    0.8908    0.5771 C   0  0  1  0  0  0  0  0  0  0  0  0
    2.0143    0.7274    1.5032 H   0  0  0  0  0  0  0  0  0  0  0  0
    1.5880    2.3819    0.2007 C   0  0  0  0  0  0  0  0  0  0  0  0
    1.7469    2.9626    1.1354 H   0  0  0  0  0  0  0  0  0  0  0  0
    2.5092    2.5190   -0.3968 H   0  0  0  0  0  0  0  0  0  0  0  0
    0.3837    2.9770   -0.5331 C   0  0  0  0  0  0  0  0  0  0  0  0
    0.5815    4.0377   -0.7886 H   0  0  0  0  0  0  0  0  0  0  0  0
    0.2077    2.4524   -1.4925 H   0  0  0  0  0  0  0  0  0  0  0  0
   -0.8684    2.8826    0.3351 C   0  0  0  0  0  0  0  0  0  0  0  0
   -0.7829    3.5896    1.1916 H   0  0  0  0  0  0  0  0  0  0  0  0
   -1.7724    3.1884   -0.2295 H   0  0  0  0  0  0  0  0  0  0  0  0
   -1.0844    1.5056    0.9174 C   0  0  0  0  0  0  0  0  0  0  0  0
   -2.3765    1.1637    1.4292 C   0  0  0  0  0  0  0  0  0  0  0  0
   -3.2008    1.8823    1.3217 H   0  0  0  0  0  0  0  0  0  0  0  0
   -2.6168   -0.1121    1.9982 C   0  0  0  0  0  3  0  0  0  0  0  0
   -3.6276   -0.3770    2.3394 H   0  0  0  0  0  0  0  0  0  0  0  0
   -1.5593   -1.0573    2.1021 C   0  0  0  0  0  3  0  0  0  0  0  0
   -1.7395   -2.0575    2.5169 H   0  0  0  0  0  0  0  0  0  0  0  0
   -0.2851   -0.7202    1.5801 C   0  0  0  0  0  3  0  0  0  0  0  0
    0.5261   -1.4618    1.6354 H   0  0  0  0  0  0  0  0  0  0  0  0
   -0.0074    0.5644    1.0102 C   0  0  2  0  0  3  0  0  0  0  0  0
    3.3365   -1.6518    2.2892 N   0  0  0  0  0  0  0  0  0  0  0  0
  1 38  3  0  0  0  0
  2  1  1  0  0  0  0
  3  4  1  1  0  0  0
  3  2  1  0  0  0  0
  3 17  1  0  0  0  0
  5  3  1  0  0  0  0
  6  5  1  0  0  0  0
  7  5  1  0  0  0  0
  8  5  1  0  0  0  0
  9 10  1  0  0  0  0
  9  2  1  0  0  0  0
 11  9  1  0  0  0  0
 12  9  1  0  0  0  0
 13  2  1  0  0  0  0
 13 16  1  0  0  0  0
 13 14  1  0  0  0  0
 15 13  1  0  0  0  0
 17 37  1  0  0  0  0
 17 18  1  1  0  0  0
 19 17  1  0  0  0  0
 19 20  1  0  0  0  0
 21 19  1  0  0  0  0
 22 19  1  0  0  0  0
 22 25  1  0  0  0  0
 23 22  1  0  0  0  0
 24 22  1  0  0  0  0
 25 28  1  0  0  0  0
 25 26  1  0  0  0  0
 27 25  1  0  0  0  0
 28 29  2  0  0  0  0
 29 31  1  0  0  0  0
 30 29  1  0  0  0  0
 31 33  1  0  0  0  0
 31 32  1  0  0  0  0
 33 34  1  0  0  0  0
 35 36  1  0  0  0  0
 35 33  1  0  0  0  0
 37 28  1  1  0  0  0
 37 35  1  0  0  0  0
M  END
