6,8
 OpenBabel05122313053D

 23 23  0  0  1  0  0  0  0  0999 V2000
   -1.6138   -2.4564   -1.6504 O   0  0  0  0  0  0  0  0  0  0  0  0
   -1.4694    1.5932   -1.0333 O   0  0  0  0  0  0  0  0  0  0  0  0
   -0.3441   -0.4695   -1.3723 C   0  0  1  0  0  3  0  0  0  0  0  0
   -0.2950    0.9628   -1.2102 C   0  0  0  0  0  0  0  0  0  0  0  0
    0.9627    1.6354   -1.2283 C   0  0  0  0  0  0  0  0  0  0  0  0
    2.1605    0.8999   -1.4601 C   0  0  0  0  0  3  0  0  0  0  0  0
    2.1183   -0.4925   -1.7361 C   0  0  0  0  0  3  0  0  0  0  0  0
    0.8721   -1.1628   -1.6618 C   0  0  0  0  0  3  0  0  0  0  0  0
   -1.5641   -1.3289   -1.1565 C   0  0  0  0  0  0  0  0  0  0  0  0
   -2.5950   -0.8348   -0.2716 C   0  0  0  0  0  0  0  0  0  0  0  0
   -3.4150   -0.4873    0.5732 C   0  0  0  0  0  0  0  0  0  0  0  0
   -4.3440   -0.0414    1.5947 C   0  0  0  0  0  0  0  0  0  0  0  0
   -1.4762    2.9378   -0.5714 C   0  0  0  0  0  0  0  0  0  0  0  0
    1.0207    2.7116   -1.0295 H   0  0  0  0  0  0  0  0  0  0  0  0
    3.1248    1.4266   -1.4304 H   0  0  0  0  0  0  0  0  0  0  0  0
    3.0452   -1.0566   -1.9021 H   0  0  0  0  0  0  0  0  0  0  0  0
    0.7978   -2.2528   -1.7851 H   0  0  0  0  0  0  0  0  0  0  0  0
   -5.0823    0.6748    1.1760 H   0  0  0  0  0  0  0  0  0  0  0  0
   -4.9092   -0.8882    2.0358 H   0  0  0  0  0  0  0  0  0  0  0  0
   -3.7953    0.4752    2.4102 H   0  0  0  0  0  0  0  0  0  0  0  0
   -0.9233    3.0338    0.3870 H   0  0  0  0  0  0  0  0  0  0  0  0
   -1.0466    3.6331   -1.3245 H   0  0  0  0  0  0  0  0  0  0  0  0
   -2.5377    3.1967   -0.4071 H   0  0  0  0  0  0  0  0  0  0  0  0
  1  9  2  0  0  0  0
  2 13  1  0  0  0  0
  3  4  1  0  0  0  0
  3  9  1  1  0  0  0
  4  2  1  0  0  0  0
  5  4  2  0  0  0  0
  5 14  1  0  0  0  0
  6 15  1  0  0  0  0
  6  5  1  0  0  0  0
  7  8  1  0  0  0  0
  7  6  1  0  0  0  0
  8  3  1  0  0  0  0
  9 10  1  0  0  0  0
 10 11  3  0  0  0  0
 11 12  1  0  0  0  0
 12 19  1  0  0  0  0
 12 20  1  0  0  0  0
 13 23  1  0  0  0  0
 13 21  1  0  0  0  0
 16  7  1  0  0  0  0
 17  8  1  0  0  0  0
 18 12  1  0  0  0  0
 22 13  1  0  0  0  0
M  END
