10,14
 OpenBabel05122313053D

 54 57  0  0  1  0  0  0  0  0999 V2000
    2.4637   -2.6505    0.5669 O   0  0  0  0  0  0  0  0  0  0  0  0
    1.2048   -2.3548    1.1823 C   0  0  0  0  0  0  0  0  0  0  0  0
    1.3756   -1.6481    2.0269 H   0  0  0  0  0  0  0  0  0  0  0  0
    0.8362   -3.3125    1.5951 H   0  0  0  0  0  0  0  0  0  0  0  0
    0.2077   -1.7787    0.1771 C   0  0  2  0  0  0  0  0  0  0  0  0
    0.0701   -2.5094   -0.6477 H   0  0  0  0  0  0  0  0  0  0  0  0
    0.7485   -0.4552   -0.4102 C   0  0  1  0  0  0  0  0  0  0  0  0
    0.7291    0.2943    0.4064 H   0  0  0  0  0  0  0  0  0  0  0  0
    2.2045   -0.6496   -0.8179 C   0  0  1  0  0  3  0  0  0  0  0  0
    2.8375    0.2564   -1.7227 C   0  0  0  0  0  3  0  0  0  0  0  0
    2.2258    1.0738   -2.1304 H   0  0  0  0  0  0  0  0  0  0  0  0
    4.1971    0.1064   -2.0955 C   0  0  0  0  0  3  0  0  0  0  0  0
    4.6703    0.8298   -2.7717 H   0  0  0  0  0  0  0  0  0  0  0  0
    4.9635   -0.9379   -1.4999 C   0  0  0  0  0  3  0  0  0  0  0  0
    6.0370   -1.0240   -1.7192 H   0  0  0  0  0  0  0  0  0  0  0  0
    4.3641   -1.8516   -0.5973 C   0  0  0  0  0  0  0  0  0  0  0  0
    4.9415   -2.6476   -0.1105 H   0  0  0  0  0  0  0  0  0  0  0  0
    2.9777   -1.7198   -0.2730 C   0  0  0  0  0  0  0  0  0  0  0  0
   -1.1010   -1.5914    0.7665 N   0  0  0  0  0  0  0  0  0  0  0  0
   -1.1783   -1.0480    1.6286 H   0  0  0  0  0  0  0  0  0  0  0  0
   -2.2468   -1.8013    0.0394 C   0  0  0  0  0  0  0  0  0  0  0  0
   -2.2022   -2.3835   -1.0598 O   0  0  0  0  0  0  0  0  0  0  0  0
   -3.5076   -1.2598    0.6413 C   0  0  0  0  0  0  0  0  0  0  0  0
   -4.7420   -1.9503    0.4974 C   0  0  0  0  0  0  0  0  0  0  0  0
   -5.8986   -1.3516    1.0292 C   0  0  0  0  0  0  0  0  0  0  0  0
   -6.8584   -1.8824    0.9285 H   0  0  0  0  0  0  0  0  0  0  0  0
   -5.8584   -0.1034    1.6684 C   0  0  0  0  0  0  0  0  0  0  0  0
   -6.7847    0.3421    2.0621 H   0  0  0  0  0  0  0  0  0  0  0  0
   -4.6400    0.5796    1.7884 C   0  0  0  0  0  0  0  0  0  0  0  0
   -4.5979    1.5753    2.2542 H   0  0  0  0  0  0  0  0  0  0  0  0
   -3.4723   -0.0017    1.2806 C   0  0  0  0  0  0  0  0  0  0  0  0
   -2.5309    0.5686    1.3201 H   0  0  0  0  0  0  0  0  0  0  0  0
   -4.8473   -3.2768   -0.2426 C   0  0  0  0  0  0  0  0  0  0  0  0
   -4.0856   -3.9878    0.1669 H   0  0  0  0  0  0  0  0  0  0  0  0
   -5.8428   -3.7200   -0.0306 H   0  0  0  0  0  0  0  0  0  0  0  0
   -4.7390   -3.1236   -1.6387 O   0  0  0  0  0  0  0  0  0  0  0  0
   -3.8022   -2.8371   -1.7652 H   0  0  0  0  0  0  0  0  0  0  0  0
   -0.0795    0.0659   -1.4824 N   0  0  0  0  0  0  0  0  0  0  0  0
   -0.4289   -0.6735   -2.0991 H   0  0  0  0  0  0  0  0  0  0  0  0
   -1.0615    1.0402   -1.2108 C   0  0  0  0  0  0  0  0  0  0  0  0
   -2.3346    0.9535   -1.8253 C   0  0  0  0  0  0  0  0  0  0  0  0
   -2.5602    0.1003   -2.4834 H   0  0  0  0  0  0  0  0  0  0  0  0
   -3.3240    1.9025   -1.5712 C   0  0  0  0  0  0  0  0  0  0  0  0
   -4.3184    1.8166   -2.0319 H   0  0  0  0  0  0  0  0  0  0  0  0
   -3.0860    2.9682   -0.6783 C   0  0  0  0  0  0  0  0  0  0  0  0
   -1.8173    3.0794   -0.0770 C   0  0  0  0  0  0  0  0  0  0  0  0
   -1.5812    3.9109    0.6005 H   0  0  0  0  0  0  0  0  0  0  0  0
   -0.8147    2.1325   -0.3523 C   0  0  0  0  0  0  0  0  0  0  0  0
    0.1785    2.2772    0.0989 H   0  0  0  0  0  0  0  0  0  0  0  0
   -4.1312    3.8208   -0.4601 O   0  0  0  0  0  0  0  0  0  0  0  0
   -3.9324    4.8974    0.4308 C   0  0  0  0  0  0  0  0  0  0  0  0
   -4.8868    5.4550    0.4716 H   0  0  0  0  0  0  0  0  0  0  0  0
   -3.1282    5.5862    0.0844 H   0  0  0  0  0  0  0  0  0  0  0  0
   -3.6754    4.5483    1.4580 H   0  0  0  0  0  0  0  0  0  0  0  0
  1  2  1  0  0  0  0
  2  4  1  0  0  0  0
  2  3  1  0  0  0  0
  5  6  1  6  0  0  0
  5 19  1  0  0  0  0
  5  2  1  0  0  0  0
  7  5  1  0  0  0  0
  7  8  1  1  0  0  0
  9 10  1  1  0  0  0
  9  7  1  0  0  0  0
  9 18  1  0  0  0  0
 11 10  1  0  0  0  0
 12 10  1  0  0  0  0
 12 14  1  0  0  0  0
 13 12  1  0  0  0  0
 14 16  1  0  0  0  0
 15 14  1  0  0  0  0
 16 18  2  0  0  0  0
 16 17  1  0  0  0  0
 18  1  1  0  0  0  0
 19 20  1  0  0  0  0
 21 23  1  0  0  0  0
 21 19  1  0  0  0  0
 22 21  2  0  0  0  0
 23 31  1  0  0  0  0
 24 23  2  0  0  0  0
 24 25  1  0  0  0  0
 25 27  2  0  0  0  0
 26 25  1  0  0  0  0
 27 29  1  0  0  0  0
 27 28  1  0  0  0  0
 29 30  1  0  0  0  0
 31 32  1  0  0  0  0
 31 29  2  0  0  0  0
 33 35  1  0  0  0  0
 33 34  1  0  0  0  0
 33 24  1  0  0  0  0
 36 33  1  0  0  0  0
 37 36  1  0  0  0  0
 38 40  1  0  0  0  0
 38  7  1  0  0  0  0
 39 38  1  0  0  0  0
 40 48  1  0  0  0  0
 41 43  1  0  0  0  0
 41 40  2  0  0  0  0
 42 41  1  0  0  0  0
 43 45  2  0  0  0  0
 44 43  1  0  0  0  0
 45 50  1  0  0  0  0
 45 46  1  0  0  0  0
 46 47  1  0  0  0  0
 48 46  2  0  0  0  0
 48 49  1  0  0  0  0
 50 51  1  0  0  0  0
 51 52  1  0  0  0  0
 51 54  1  0  0  0  0
 53 51  1  0  0  0  0
M  END
