6,7
 OpenBabel05122313053D

 27 28  0  0  0  0  0  0  0  0999 V2000
    4.9992    1.1837    1.4214 O   0  0  0  0  0  0  0  0  0  0  0  0
    4.1930    0.2663    0.8295 C   0  0  0  0  0  0  0  0  0  0  0  0
    1.6107   -2.4603   -0.9192 N   0  0  0  0  0  0  0  0  0  0  0  0
    3.9426   -1.7784   -0.2331 C   0  0  0  0  0  0  0  0  0  0  0  0
    4.7355   -0.8545    0.3560 N   0  0  0  0  0  0  0  0  0  0  0  0
    0.2912   -2.0464   -0.9688 C   0  0  0  0  0  2  0  0  0  0  0  0
    1.9487   -0.3553    0.1570 C   0  0  0  0  0  3  0  0  0  0  0  0
    2.8142    0.5680    0.7515 C   0  0  0  0  0  0  0  0  0  0  0  0
    2.4518    1.5222    1.1616 H   0  0  0  0  0  0  0  0  0  0  0  0
    1.7460   -3.7376   -1.4537 C   0  0  0  0  0  0  0  0  0  0  0  0
    2.6956   -4.2665   -1.5214 H   0  0  0  0  0  0  0  0  0  0  0  0
   -1.8135   -3.1339   -1.7650 C   0  0  0  0  0  0  0  0  0  0  0  0
   -2.1903   -2.1053   -1.9026 H   0  0  0  0  0  0  0  0  0  0  0  0
   -2.3308   -3.5756   -0.8894 H   0  0  0  0  0  0  0  0  0  0  0  0
   -2.0339   -3.7404   -2.6635 H   0  0  0  0  0  0  0  0  0  0  0  0
   -0.3756   -3.0902   -1.5494 N   0  0  0  0  0  0  0  0  0  0  0  0
    2.5554   -1.5539   -0.3347 C   0  0  0  0  0  0  0  0  0  0  0  0
    0.4930   -4.1338   -1.8473 C   0  0  0  0  0  0  0  0  0  0  0  0
    0.1555   -5.0638   -2.3145 H   0  0  0  0  0  0  0  0  0  0  0  0
    4.6711   -2.9997   -0.7446 C   0  0  0  0  0  0  0  0  0  0  0  0
    5.7505   -2.8523   -0.5610 H   0  0  0  0  0  0  0  0  0  0  0  0
    4.5207   -3.1562   -1.8331 H   0  0  0  0  0  0  0  0  0  0  0  0
    4.3580   -3.9283   -0.2220 H   0  0  0  0  0  0  0  0  0  0  0  0
    6.3865    0.8768    1.4889 C   0  0  0  0  0  0  0  0  0  0  0  0
    6.8630    1.7360    1.9970 H   0  0  0  0  0  0  0  0  0  0  0  0
    6.8238    0.7394    0.4775 H   0  0  0  0  0  0  0  0  0  0  0  0
    6.5710   -0.0568    2.0611 H   0  0  0  0  0  0  0  0  0  0  0  0
  1 24  1  0  0  0  0
  2  1  1  0  0  0  0
  3 17  1  0  0  0  0
  4  5  1  0  0  0  0
  5  2  2  0  0  0  0
  6  3  1  0  0  0  0
  7  8  2  0  0  0  0
  8  2  1  0  0  0  0
  8  9  1  0  0  0  0
 10  3  1  0  0  0  0
 11 10  1  0  0  0  0
 12 16  1  0  0  0  0
 12 14  1  0  0  0  0
 13 12  1  0  0  0  0
 15 12  1  0  0  0  0
 16  6  1  0  0  0  0
 17  4  2  0  0  0  0
 17  7  1  0  0  0  0
 18 16  1  0  0  0  0
 18 10  2  0  0  0  0
 19 18  1  0  0  0  0
 20 21  1  0  0  0  0
 20  4  1  0  0  0  0
 20 23  1  0  0  0  0
 22 20  1  0  0  0  0
 24 25  1  0  0  0  0
 24 27  1  0  0  0  0
 26 24  1  0  0  0  0
M  END
