5,11
 OpenBabel05122313053D

 57 59  0  0  0  0  0  0  0  0999 V2000
   -1.1206   -1.1416    2.3238 N   0  0  0  0  0  0  0  0  0  0  0  0
    0.4376   -0.1159    1.1975 N   0  0  0  0  0  0  0  0  0  0  0  0
    3.2814    0.4179    0.6215 N   0  0  0  0  0  0  0  0  0  0  0  0
    3.3488    1.0720    1.4053 H   0  0  0  0  0  0  0  0  0  0  0  0
   -0.9291   -0.2927    1.2693 C   0  0  0  0  0  2  0  0  0  0  0  0
    0.1029   -1.4904    2.8942 C   0  0  0  0  0  0  0  0  0  0  0  0
    0.1776   -2.1593    3.7558 H   0  0  0  0  0  0  0  0  0  0  0  0
    1.0868   -0.8490    2.1870 C   0  0  0  0  0  0  0  0  0  0  0  0
    2.1744   -0.8630    2.2748 H   0  0  0  0  0  0  0  0  0  0  0  0
    0.8905    0.5592    0.0355 C   0  0  0  0  0  0  0  0  0  0  0  0
   -0.1772    0.8990   -0.8349 C   0  0  0  0  0  3  0  0  0  0  0  0
    0.1595    1.3911   -2.1080 C   0  0  0  0  0  0  0  0  0  0  0  0
   -0.6308    1.5916   -2.8445 H   0  0  0  0  0  0  0  0  0  0  0  0
    1.5046    1.5822   -2.4715 C   0  0  0  0  0  0  0  0  0  0  0  0
    1.7501    1.9633   -3.4751 H   0  0  0  0  0  0  0  0  0  0  0  0
    2.5393    1.2869   -1.5742 C   0  0  0  0  0  0  0  0  0  0  0  0
    3.5922    1.4291   -1.8569 H   0  0  0  0  0  0  0  0  0  0  0  0
    2.2475    0.7633   -0.2972 C   0  0  0  0  0  0  0  0  0  0  0  0
   -2.4092   -1.7593    2.6780 C   0  0  0  0  0  0  0  0  0  0  0  0
   -3.1458   -1.2045    2.0643 H   0  0  0  0  0  0  0  0  0  0  0  0
   -2.7184   -1.5745    4.1651 C   0  0  0  0  0  0  0  0  0  0  0  0
   -2.0273   -2.1664    4.8001 H   0  0  0  0  0  0  0  0  0  0  0  0
   -3.7457   -1.9276    4.3824 H   0  0  0  0  0  0  0  0  0  0  0  0
   -2.6447   -0.5131    4.4703 H   0  0  0  0  0  0  0  0  0  0  0  0
   -2.4356   -3.2291    2.2485 C   0  0  0  0  0  0  0  0  0  0  0  0
   -2.2289   -3.3130    1.1630 H   0  0  0  0  0  0  0  0  0  0  0  0
   -3.4355   -3.6621    2.4506 H   0  0  0  0  0  0  0  0  0  0  0  0
   -1.6856   -3.8250    2.8085 H   0  0  0  0  0  0  0  0  0  0  0  0
    4.5365   -0.0491    0.1641 C   0  0  0  0  0  0  0  0  0  0  0  0
    4.5901   -1.2388   -0.6167 C   0  0  0  0  0  0  0  0  0  0  0  0
    5.8446   -1.6731   -1.0806 C   0  0  0  0  0  0  0  0  0  0  0  0
    5.8974   -2.5839   -1.6975 H   0  0  0  0  0  0  0  0  0  0  0  0
    7.0235   -0.9952   -0.7492 C   0  0  0  0  0  0  0  0  0  0  0  0
    7.9953   -1.3588   -1.1155 H   0  0  0  0  0  0  0  0  0  0  0  0
    6.9607    0.1398    0.0702 C   0  0  0  0  0  0  0  0  0  0  0  0
    7.8915    0.6565    0.3440 H   0  0  0  0  0  0  0  0  0  0  0  0
    5.7299    0.6392    0.5316 C   0  0  0  0  0  0  0  0  0  0  0  0
    3.3482   -2.0783   -0.9049 C   0  0  0  0  0  0  0  0  0  0  0  0
    2.4834   -1.5913   -0.4172 H   0  0  0  0  0  0  0  0  0  0  0  0
    3.0284   -2.1591   -2.4062 C   0  0  0  0  0  0  0  0  0  0  0  0
    2.9068   -1.1485   -2.8422 H   0  0  0  0  0  0  0  0  0  0  0  0
    2.0808   -2.7114   -2.5706 H   0  0  0  0  0  0  0  0  0  0  0  0
    3.8325   -2.6827   -2.9648 H   0  0  0  0  0  0  0  0  0  0  0  0
    3.4721   -3.4790   -0.2796 C   0  0  0  0  0  0  0  0  0  0  0  0
    4.2989   -4.0615   -0.7368 H   0  0  0  0  0  0  0  0  0  0  0  0
    2.5338   -4.0517   -0.4293 H   0  0  0  0  0  0  0  0  0  0  0  0
    3.6680   -3.4175    0.8101 H   0  0  0  0  0  0  0  0  0  0  0  0
    5.6575    1.9151    1.3701 C   0  0  0  0  0  0  0  0  0  0  0  0
    4.8926    1.7557    2.1676 H   0  0  0  0  0  0  0  0  0  0  0  0
    5.1970    3.1132    0.5155 C   0  0  0  0  0  0  0  0  0  0  0  0
    5.9459    3.3231   -0.2755 H   0  0  0  0  0  0  0  0  0  0  0  0
    5.0879    4.0271    1.1354 H   0  0  0  0  0  0  0  0  0  0  0  0
    4.2288    2.9203    0.0136 H   0  0  0  0  0  0  0  0  0  0  0  0
    6.9594    2.2497    2.1086 C   0  0  0  0  0  0  0  0  0  0  0  0
    7.3243    1.3931    2.7096 H   0  0  0  0  0  0  0  0  0  0  0  0
    6.8030    3.1094    2.7907 H   0  0  0  0  0  0  0  0  0  0  0  0
    7.7654    2.5386    1.4032 H   0  0  0  0  0  0  0  0  0  0  0  0
  1 19  1  0  0  0  0
  1  6  1  0  0  0  0
  2  5  1  0  0  0  0
  2  8  1  0  0  0  0
  3  4  1  0  0  0  0
  5  1  1  0  0  0  0
  6  7  1  0  0  0  0
  8  9  1  0  0  0  0
  8  6  2  0  0  0  0
 10  2  1  0  0  0  0
 11 10  2  0  0  0  0
 12 11  1  0  0  0  0
 13 12  1  0  0  0  0
 14 12  2  0  0  0  0
 14 16  1  0  0  0  0
 15 14  1  0  0  0  0
 16 18  2  0  0  0  0
 17 16  1  0  0  0  0
 18 10  1  0  0  0  0
 18  3  1  0  0  0  0
 19 21  1  0  0  0  0
 20 19  1  0  0  0  0
 21 23  1  0  0  0  0
 21 24  1  0  0  0  0
 21 22  1  0  0  0  0
 25 27  1  0  0  0  0
 25 19  1  0  0  0  0
 25 28  1  0  0  0  0
 26 25  1  0  0  0  0
 29 37  1  0  0  0  0
 29  3  1  0  0  0  0
 30 29  2  0  0  0  0
 31 33  2  0  0  0  0
 31 30  1  0  0  0  0
 32 31  1  0  0  0  0
 33 35  1  0  0  0  0
 34 33  1  0  0  0  0
 35 36  1  0  0  0  0
 35 37  2  0  0  0  0
 37 48  1  0  0  0  0
 38 30  1  0  0  0  0
 38 39  1  0  0  0  0
 38 44  1  0  0  0  0
 40 38  1  0  0  0  0
 41 40  1  0  0  0  0
 42 40  1  0  0  0  0
 43 40  1  0  0  0  0
 44 47  1  0  0  0  0
 45 44  1  0  0  0  0
 46 44  1  0  0  0  0
 48 54  1  0  0  0  0
 48 49  1  0  0  0  0
 50 52  1  0  0  0  0
 50 48  1  0  0  0  0
 51 50  1  0  0  0  0
 53 50  1  0  0  0  0
 54 55  1  0  0  0  0
 54 56  1  0  0  0  0
 57 54  1  0  0  0  0
M  END
