1,6
 OpenBabel05122313053D

 37 39  0  0  1  0  0  0  0  0999 V2000
   -0.7935   -0.5785    0.3379 C   0  0  2  0  0  3  0  0  0  0  0  0
   -0.2116   -0.5512    1.6442 C   0  0  0  0  0  3  0  0  0  0  0  0
    0.6716   -1.6669    1.7725 C   0  0  0  0  0  0  0  0  0  0  0  0
    0.6733   -2.3663    0.5485 C   0  0  0  0  0  0  0  0  0  0  0  0
   -0.2053   -1.6878   -0.3501 C   0  0  0  0  0  3  0  0  0  0  0  0
   -0.1766    1.3167   -0.7792 C   0  0  1  0  0  3  0  0  0  0  0  0
    0.6559    2.1055    0.0777 C   0  0  0  0  0  3  0  0  0  0  0  0
    1.9439    2.2355   -0.5254 C   0  0  0  0  0  0  0  0  0  0  0  0
    1.9358    1.5077   -1.7320 C   0  0  0  0  0  0  0  0  0  0  0  0
    0.6447    0.9181   -1.8836 C   0  0  0  0  0  3  0  0  0  0  0  0
   -1.4710    0.6095   -0.3437 C   0  0  0  0  0  0  0  0  0  0  0  0
   -2.3394    0.2172   -1.5644 C   0  0  0  0  0  0  0  0  0  0  0  0
   -3.2985   -0.9796   -1.4195 C   0  0  0  0  0  0  0  0  0  0  0  0
   -4.0398   -1.1378   -0.0827 C   0  0  0  0  0  0  0  0  0  0  0  0
   -4.5193    0.1639    0.5757 C   0  0  0  0  0  0  0  0  0  0  0  0
   -3.4310    0.8618    1.4018 C   0  0  0  0  0  0  0  0  0  0  0  0
   -2.2711    1.5040    0.6327 C   0  0  0  0  0  0  0  0  0  0  0  0
   -0.3781    0.2126    2.4119 H   0  0  0  0  0  0  0  0  0  0  0  0
    1.2924   -1.8890    2.6466 H   0  0  0  0  0  0  0  0  0  0  0  0
    1.2959   -3.2312    0.2976 H   0  0  0  0  0  0  0  0  0  0  0  0
   -0.3679   -1.9582   -1.3993 H   0  0  0  0  0  0  0  0  0  0  0  0
    0.3821    2.5169    1.0551 H   0  0  0  0  0  0  0  0  0  0  0  0
    2.8029    2.7509   -0.0834 H   0  0  0  0  0  0  0  0  0  0  0  0
    2.7876    1.3522   -2.4021 H   0  0  0  0  0  0  0  0  0  0  0  0
    0.3588    0.2461   -2.7004 H   0  0  0  0  0  0  0  0  0  0  0  0
   -2.9111    1.1266   -1.8443 H   0  0  0  0  0  0  0  0  0  0  0  0
   -1.6880    0.0141   -2.4371 H   0  0  0  0  0  0  0  0  0  0  0  0
   -4.0411   -0.8933   -2.2417 H   0  0  0  0  0  0  0  0  0  0  0  0
   -2.7505   -1.9235   -1.6204 H   0  0  0  0  0  0  0  0  0  0  0  0
   -4.9032   -1.8154   -0.2496 H   0  0  0  0  0  0  0  0  0  0  0  0
   -3.3842   -1.6675    0.6429 H   0  0  0  0  0  0  0  0  0  0  0  0
   -5.3644   -0.0698    1.2568 H   0  0  0  0  0  0  0  0  0  0  0  0
   -4.9344    0.8591   -0.1886 H   0  0  0  0  0  0  0  0  0  0  0  0
   -3.8956    1.6602    2.0190 H   0  0  0  0  0  0  0  0  0  0  0  0
   -3.0239    0.1225    2.1265 H   0  0  0  0  0  0  0  0  0  0  0  0
   -1.5796    1.9401    1.3812 H   0  0  0  0  0  0  0  0  0  0  0  0
   -2.6443    2.3665    0.0391 H   0  0  0  0  0  0  0  0  0  0  0  0
  1 11  1  6  0  0  0
  1  2  1  0  0  0  0
  2  3  1  0  0  0  0
  2 18  1  0  0  0  0
  3 19  1  0  0  0  0
  4  3  2  0  0  0  0
  5  1  1  0  0  0  0
  5  4  1  0  0  0  0
  6 11  1  1  0  0  0
  6  7  1  0  0  0  0
  7 22  1  0  0  0  0
  8 23  1  0  0  0  0
  8  7  1  0  0  0  0
  9  8  2  0  0  0  0
 10  9  1  0  0  0  0
 10  6  1  0  0  0  0
 11 17  1  0  0  0  0
 12 13  1  0  0  0  0
 12 11  1  0  0  0  0
 13 14  1  0  0  0  0
 14 15  1  0  0  0  0
 14 31  1  0  0  0  0
 15 32  1  0  0  0  0
 15 16  1  0  0  0  0
 16 34  1  0  0  0  0
 16 35  1  0  0  0  0
 17 36  1  0  0  0  0
 17 16  1  0  0  0  0
 20  4  1  0  0  0  0
 21  5  1  0  0  0  0
 24  9  1  0  0  0  0
 25 10  1  0  0  0  0
 26 12  1  0  0  0  0
 27 12  1  0  0  0  0
 28 13  1  0  0  0  0
 29 13  1  0  0  0  0
 30 14  1  0  0  0  0
 33 15  1  0  0  0  0
 37 17  1  0  0  0  0
M  END
