3,32
 OpenBabel05122313053D

 53 57  0  0  1  0  0  0  0  0999 V2000
    0.3830   -2.5785   -0.3513 N   0  0  1  0  0  0  0  0  0  0  0  0
   -1.6797   -1.9686   -0.8525 N   0  0  0  0  0  0  0  0  0  0  0  0
   -0.4847   -1.5184   -0.3597 C   0  0  0  0  0  2  0  0  0  0  0  0
   -0.1427   -3.7361   -1.0669 C   0  0  0  0  0  0  0  0  0  0  0  0
    0.0884   -4.6875   -0.5471 H   0  0  0  0  0  0  0  0  0  0  0  0
    0.2842   -3.7956   -2.0953 H   0  0  0  0  0  0  0  0  0  0  0  0
   -1.6512   -3.4218   -1.0941 C   0  0  0  0  0  0  0  0  0  0  0  0
   -2.1342   -3.6716   -2.0596 H   0  0  0  0  0  0  0  0  0  0  0  0
   -2.1986   -3.9587   -0.2878 H   0  0  0  0  0  0  0  0  0  0  0  0
    1.7852   -2.2774   -0.0893 C   0  0  2  0  0  0  0  0  0  0  0  0
    2.5541   -2.0492   -1.4134 C   0  0  0  0  0  0  0  0  0  0  0  0
    2.5718   -2.9938   -2.0004 H   0  0  0  0  0  0  0  0  0  0  0  0
    2.0166   -1.2905   -2.0150 H   0  0  0  0  0  0  0  0  0  0  0  0
    3.9880   -1.5811   -1.1180 C   0  0  2  0  0  0  0  0  0  0  0  0
    4.5274   -1.4212   -2.0761 H   0  0  0  0  0  0  0  0  0  0  0  0
    4.7093   -2.6613   -0.2903 C   0  0  0  0  0  0  0  0  0  0  0  0
    5.7524   -2.3460   -0.0732 H   0  0  0  0  0  0  0  0  0  0  0  0
    4.7717   -3.6083   -0.8696 H   0  0  0  0  0  0  0  0  0  0  0  0
    3.9459   -2.8921    1.0286 C   0  0  2  0  0  0  0  0  0  0  0  0
    4.4647   -3.6698    1.6287 H   0  0  0  0  0  0  0  0  0  0  0  0
    2.5102   -3.3749    0.7172 C   0  0  0  0  0  0  0  0  0  0  0  0
    2.5524   -4.3291    0.1450 H   0  0  0  0  0  0  0  0  0  0  0  0
    1.9484   -3.5715    1.6547 H   0  0  0  0  0  0  0  0  0  0  0  0
    3.9113   -1.5674    1.8197 C   0  0  0  0  0  0  0  0  0  0  0  0
    4.9511   -1.2438    2.0458 H   0  0  0  0  0  0  0  0  0  0  0  0
    3.3976   -1.7139    2.7937 H   0  0  0  0  0  0  0  0  0  0  0  0
    3.1747   -0.4822    0.9950 C   0  0  1  0  0  0  0  0  0  0  0  0
    3.1503    0.4661    1.5695 H   0  0  0  0  0  0  0  0  0  0  0  0
    3.9250   -0.2591   -0.3297 C   0  0  0  0  0  0  0  0  0  0  0  0
    4.9533    0.1095   -0.1245 H   0  0  0  0  0  0  0  0  0  0  0  0
    3.4125    0.5190   -0.9310 H   0  0  0  0  0  0  0  0  0  0  0  0
    1.7400   -0.9816    0.7613 C   0  0  0  0  0  3  0  0  0  0  0  0
    1.3210   -1.2737    1.7585 H   0  0  0  0  0  0  0  0  0  0  0  0
   -2.9186   -1.2569   -0.7520 C   0  0  0  0  0  0  0  0  0  0  0  0
   -3.7058   -1.3882    0.4188 C   0  0  0  0  0  0  0  0  0  0  0  0
   -4.8994   -0.6532    0.5016 C   0  0  0  0  0  0  0  0  0  0  0  0
   -5.4991   -0.7242    1.4231 H   0  0  0  0  0  0  0  0  0  0  0  0
   -5.3301    0.1900   -0.5379 C   0  0  0  0  0  0  0  0  0  0  0  0
   -4.5345    0.2794   -1.6924 C   0  0  0  0  0  0  0  0  0  0  0  0
   -4.8557    0.9343   -2.5187 H   0  0  0  0  0  0  0  0  0  0  0  0
   -3.3263   -0.4284   -1.8212 C   0  0  0  0  0  0  0  0  0  0  0  0
   -3.2822   -2.2652    1.5717 C   0  0  0  0  0  0  0  0  0  0  0  0
   -3.6443   -1.8424    2.5282 H   0  0  0  0  0  0  0  0  0  0  0  0
   -2.1822   -2.3508    1.6475 H   0  0  0  0  0  0  0  0  0  0  0  0
   -3.7033   -3.2901    1.4800 H   0  0  0  0  0  0  0  0  0  0  0  0
   -6.5884    1.0072   -0.3905 C   0  0  0  0  0  0  0  0  0  0  0  0
   -6.9387    1.4022   -1.3640 H   0  0  0  0  0  0  0  0  0  0  0  0
   -6.4121    1.8763    0.2790 H   0  0  0  0  0  0  0  0  0  0  0  0
   -7.4106    0.4155    0.0602 H   0  0  0  0  0  0  0  0  0  0  0  0
   -2.4720   -0.2561   -3.0488 C   0  0  0  0  0  0  0  0  0  0  0  0
   -3.0819    0.0427   -3.9230 H   0  0  0  0  0  0  0  0  0  0  0  0
   -1.9134   -1.1786   -3.3003 H   0  0  0  0  0  0  0  0  0  0  0  0
   -1.7139    0.5375   -2.8795 H   0  0  0  0  0  0  0  0  0  0  0  0
  1  3  1  6  0  0  0
  1 10  1  0  0  0  0
  2 34  1  0  0  0  0
  2  3  1  0  0  0  0
  4  5  1  0  0  0  0
  4  1  1  0  0  0  0
  6  4  1  0  0  0  0
  7  4  1  0  0  0  0
  7  2  1  0  0  0  0
  7  9  1  0  0  0  0
  8  7  1  0  0  0  0
 10 21  1  0  0  0  0
 10 32  1  1  0  0  0
 11 14  1  0  0  0  0
 11 10  1  0  0  0  0
 12 11  1  0  0  0  0
 13 11  1  0  0  0  0
 14 15  1  6  0  0  0
 14 29  1  0  0  0  0
 14 16  1  0  0  0  0
 16 17  1  0  0  0  0
 16 19  1  0  0  0  0
 18 16  1  0  0  0  0
 19 20  1  1  0  0  0
 19 24  1  0  0  0  0
 21 19  1  0  0  0  0
 21 23  1  0  0  0  0
 22 21  1  0  0  0  0
 24 25  1  0  0  0  0
 24 26  1  0  0  0  0
 27 28  1  1  0  0  0
 27 24  1  0  0  0  0
 29 30  1  0  0  0  0
 29 27  1  0  0  0  0
 31 29  1  0  0  0  0
 32 27  1  0  0  0  0
 32 33  1  0  0  0  0
 34 35  1  0  0  0  0
 35 36  2  0  0  0  0
 35 42  1  0  0  0  0
 36 37  1  0  0  0  0
 38 46  1  0  0  0  0
 38 36  1  0  0  0  0
 39 38  2  0  0  0  0
 40 39  1  0  0  0  0
 41 39  1  0  0  0  0
 41 34  2  0  0  0  0
 42 44  1  0  0  0  0
 42 43  1  0  0  0  0
 45 42  1  0  0  0  0
 46 49  1  0  0  0  0
 46 48  1  0  0  0  0
 47 46  1  0  0  0  0
 50 53  1  0  0  0  0
 50 41  1  0  0  0  0
 51 50  1  0  0  0  0
 52 50  1  0  0  0  0
M  END
