2,5
 OpenBabel05122313053D

 33 34  0  0  0  0  0  0  0  0999 V2000
   -0.1267   -0.0836   -3.0662 O   0  0  0  0  0  0  0  0  0  0  0  0
   -0.5571   -0.3536   -1.9571 C   0  0  0  0  0  3  0  0  0  0  0  0
   -2.0285   -0.7688   -1.7990 C   0  0  0  0  0  0  0  0  0  0  0  0
   -2.5608   -0.5255   -0.3771 C   0  0  0  0  0  0  0  0  0  0  0  0
   -1.4383   -0.9442    0.5792 C   0  0  0  0  0  3  0  0  0  0  0  0
   -0.6738   -2.1358    0.3388 C   0  0  0  0  0  3  0  0  0  0  0  0
   -3.8484   -1.3569   -0.1816 C   0  0  0  0  0  0  0  0  0  0  0  0
   -3.9189   -2.4644    0.6843 C   0  0  0  0  0  0  0  0  0  0  0  0
   -5.1053   -3.2081    0.8080 C   0  0  0  0  0  0  0  0  0  0  0  0
   -6.2428   -2.8587    0.0675 C   0  0  0  0  0  0  0  0  0  0  0  0
   -6.1872   -1.7510   -0.7955 C   0  0  0  0  0  0  0  0  0  0  0  0
   -5.0056   -1.0082   -0.9123 C   0  0  0  0  0  0  0  0  0  0  0  0
   -2.9167    0.9491   -0.1235 C   0  0  0  0  0  0  0  0  0  0  0  0
   -3.4422    1.3071    1.1371 C   0  0  0  0  0  0  0  0  0  0  0  0
   -3.8049    2.6283    1.4247 C   0  0  0  0  0  0  0  0  0  0  0  0
   -3.6638    3.6267    0.4460 C   0  0  0  0  0  0  0  0  0  0  0  0
   -3.1582    3.2821   -0.8140 C   0  0  0  0  0  0  0  0  0  0  0  0
   -2.7824    1.9574   -1.0951 C   0  0  0  0  0  0  0  0  0  0  0  0
   -2.0544   -1.8596   -2.0096 H   0  0  0  0  0  0  0  0  0  0  0  0
   -2.6393   -0.3015   -2.5959 H   0  0  0  0  0  0  0  0  0  0  0  0
   -1.5807   -0.6410    1.6285 H   0  0  0  0  0  0  0  0  0  0  0  0
   -0.9097   -2.7916   -0.5143 H   0  0  0  0  0  0  0  0  0  0  0  0
   -0.2869   -2.6903    1.2083 H   0  0  0  0  0  0  0  0  0  0  0  0
   -3.0342   -2.7514    1.2693 H   0  0  0  0  0  0  0  0  0  0  0  0
   -5.1368   -4.0689    1.4940 H   0  0  0  0  0  0  0  0  0  0  0  0
   -7.1715   -3.4415    0.1649 H   0  0  0  0  0  0  0  0  0  0  0  0
   -7.0749   -1.4594   -1.3780 H   0  0  0  0  0  0  0  0  0  0  0  0
   -4.9785   -0.1288   -1.5743 H   0  0  0  0  0  0  0  0  0  0  0  0
   -3.5864    0.5255    1.8992 H   0  0  0  0  0  0  0  0  0  0  0  0
   -4.2134    2.8796    2.4160 H   0  0  0  0  0  0  0  0  0  0  0  0
   -3.9573    4.6650    0.6638 H   0  0  0  0  0  0  0  0  0  0  0  0
   -3.0498    4.0518   -1.5934 H   0  0  0  0  0  0  0  0  0  0  0  0
   -2.3652    1.7245   -2.0836 H   0  0  0  0  0  0  0  0  0  0  0  0
  1  2  2  0  0  0  0
  2  3  1  0  0  0  0
  3  4  1  0  0  0  0
  4  7  1  0  0  0  0
  4 13  1  0  0  0  0
  4  5  1  0  0  0  0
  5 21  1  0  0  0  0
  6  5  1  0  0  0  0
  6 23  1  0  0  0  0
  7  8  1  0  0  0  0
  8  9  2  0  0  0  0
  8 24  1  0  0  0  0
  9 25  1  0  0  0  0
 10 26  1  0  0  0  0
 10  9  1  0  0  0  0
 11 10  2  0  0  0  0
 12 11  1  0  0  0  0
 12  7  2  0  0  0  0
 13 14  1  0  0  0  0
 14 15  2  0  0  0  0
 14 29  1  0  0  0  0
 15 30  1  0  0  0  0
 16 31  1  0  0  0  0
 16 15  1  0  0  0  0
 17 16  2  0  0  0  0
 18 17  1  0  0  0  0
 18 13  2  0  0  0  0
 19  3  1  0  0  0  0
 20  3  1  0  0  0  0
 22  6  1  0  0  0  0
 27 11  1  0  0  0  0
 28 12  1  0  0  0  0
 32 17  1  0  0  0  0
 33 18  1  0  0  0  0
M  END
