5,9
 OpenBabel05122313053D

 35 35  0  0  0  0  0  0  0  0999 V2000
   -5.5404   -0.6226   -0.5139 O   0  0  0  0  0  0  0  0  0  0  0  0
   -6.0387    1.3198    0.6397 O   0  0  0  0  0  0  0  0  0  0  0  0
   -0.7591    0.3347    1.5420 C   0  0  0  0  0  3  0  0  0  0  0  0
   -1.0490    1.3737    1.3302 H   0  0  0  0  0  0  0  0  0  0  0  0
    0.4207    0.0751    2.3032 C   0  0  0  0  0  3  0  0  0  0  0  0
    1.0031    0.9184    2.7051 H   0  0  0  0  0  0  0  0  0  0  0  0
    0.8799   -1.2771    2.4927 C   0  0  0  0  0  3  0  0  0  0  0  0
    1.8150   -1.4893    3.0301 H   0  0  0  0  0  0  0  0  0  0  0  0
    0.1543   -2.3303    1.8669 C   0  0  0  0  0  3  0  0  0  0  0  0
    0.5624   -3.3508    1.8796 H   0  0  0  0  0  0  0  0  0  0  0  0
   -1.0828   -2.0763    1.1713 C   0  0  0  0  0  0  0  0  0  0  0  0
   -1.5998   -2.9032    0.6650 H   0  0  0  0  0  0  0  0  0  0  0  0
   -1.5443   -0.7503    0.9868 C   0  0  0  0  0  0  0  0  0  0  0  0
   -2.7322   -0.4491    0.1161 C   0  0  0  0  0  0  0  0  0  0  0  0
   -3.1390   -1.3911   -0.2982 H   0  0  0  0  0  0  0  0  0  0  0  0
   -2.3603    0.1447   -0.7505 H   0  0  0  0  0  0  0  0  0  0  0  0
   -3.8508    0.3089    0.8403 C   0  0  0  0  0  0  0  0  0  0  0  0
   -4.2357   -0.2738    1.7030 H   0  0  0  0  0  0  0  0  0  0  0  0
   -3.4847    1.2758    1.2416 H   0  0  0  0  0  0  0  0  0  0  0  0
   -5.0388    0.6065   -0.0709 C   0  0  0  0  0  0  0  0  0  0  0  0
   -4.7129    1.2228   -0.9540 H   0  0  0  0  0  0  0  0  0  0  0  0
   -6.3144    2.6397    0.1905 C   0  0  0  0  0  0  0  0  0  0  0  0
   -7.3208    2.8856    0.5899 H   0  0  0  0  0  0  0  0  0  0  0  0
   -6.3917    2.6628   -0.9242 H   0  0  0  0  0  0  0  0  0  0  0  0
   -5.2949    3.6702    0.6666 C   0  0  0  0  0  0  0  0  0  0  0  0
   -5.1979    3.6376    1.7705 H   0  0  0  0  0  0  0  0  0  0  0  0
   -5.6071    4.6936    0.3735 H   0  0  0  0  0  0  0  0  0  0  0  0
   -4.2930    3.4872    0.2265 H   0  0  0  0  0  0  0  0  0  0  0  0
   -6.5710   -0.5228   -1.4895 C   0  0  0  0  0  0  0  0  0  0  0  0
   -6.2073    0.0764   -2.3619 H   0  0  0  0  0  0  0  0  0  0  0  0
   -7.4446    0.0207   -1.0615 H   0  0  0  0  0  0  0  0  0  0  0  0
   -6.9655   -1.9224   -1.9218 C   0  0  0  0  0  0  0  0  0  0  0  0
   -6.1011   -2.4578   -2.3628 H   0  0  0  0  0  0  0  0  0  0  0  0
   -7.7752   -1.8827   -2.6770 H   0  0  0  0  0  0  0  0  0  0  0  0
   -7.3264   -2.5083   -1.0532 H   0  0  0  0  0  0  0  0  0  0  0  0
  1 20  1  0  0  0  0
  3  5  1  0  0  0  0
  4  3  1  0  0  0  0
  5  7  1  0  0  0  0
  5  6  1  0  0  0  0
  7  8  1  0  0  0  0
  9 10  1  0  0  0  0
  9  7  1  0  0  0  0
 11  9  1  0  0  0  0
 12 11  1  0  0  0  0
 13 11  2  0  0  0  0
 13  3  1  0  0  0  0
 14 17  1  0  0  0  0
 14 13  1  0  0  0  0
 15 14  1  0  0  0  0
 16 14  1  0  0  0  0
 17 19  1  0  0  0  0
 17 18  1  0  0  0  0
 20  2  1  0  0  0  0
 20 17  1  0  0  0  0
 21 20  1  0  0  0  0
 22 23  1  0  0  0  0
 22  2  1  0  0  0  0
 22 25  1  0  0  0  0
 24 22  1  0  0  0  0
 25 26  1  0  0  0  0
 27 25  1  0  0  0  0
 28 25  1  0  0  0  0
 29 31  1  0  0  0  0
 29  1  1  0  0  0  0
 30 29  1  0  0  0  0
 32 29  1  0  0  0  0
 32 35  1  0  0  0  0
 33 32  1  0  0  0  0
 34 32  1  0  0  0  0
M  END
