12,16
 OpenBabel05122313053D

 60 62  0  0  1  0  0  0  0  0999 V2000
    0.8404    2.0598    0.6503 P   0  0  0  0  0  0  0  0  0  0  0  0
   -2.0773    0.2682    0.3848 P   0  0  0  0  0  0  0  0  0  0  0  0
   -1.1725   -1.1712   -1.9805 C   0  0  0  0  0  0  0  0  0  0  0  0
   -0.3454   -1.3772   -2.6878 H   0  0  0  0  0  0  0  0  0  0  0  0
   -1.9981   -0.7053   -2.5525 H   0  0  0  0  0  0  0  0  0  0  0  0
   -1.5504   -2.1370   -1.5927 H   0  0  0  0  0  0  0  0  0  0  0  0
   -0.7158   -0.2350   -0.8664 C   0  0  2  0  0  0  0  0  0  0  0  0
   -0.4160    0.7463   -1.2908 H   0  0  0  0  0  0  0  0  0  0  0  0
    0.4457   -0.7114   -0.0204 C   0  0  0  0  0  0  0  0  0  0  0  0
    0.6851   -2.1078    0.1525 C   0  0  0  0  0  0  0  0  0  0  0  0
    0.0719   -2.8348   -0.3928 H   0  0  0  0  0  0  0  0  0  0  0  0
    1.7613   -2.5674    0.9588 C   0  0  0  0  0  3  0  0  0  0  0  0
    1.9603   -3.6461    1.0304 H   0  0  0  0  0  0  0  0  0  0  0  0
    2.5894   -1.6461    1.6523 C   0  0  0  0  0  3  0  0  0  0  0  0
    3.4407   -1.9960    2.2510 H   0  0  0  0  0  0  0  0  0  0  0  0
    2.3546   -0.2557    1.4731 C   0  0  0  0  0  3  0  0  0  0  0  0
    3.0263    0.4618    1.9680 H   0  0  0  0  0  0  0  0  0  0  0  0
    1.2740    0.2432    0.6816 C   0  0  2  0  0  3  0  0  0  0  0  0
    2.6900    2.8086   -1.2956 C   0  0  0  0  0  0  0  0  0  0  0  0
    1.9724    3.5095   -1.7702 H   0  0  0  0  0  0  0  0  0  0  0  0
    2.5154    1.8038   -1.7224 H   0  0  0  0  0  0  0  0  0  0  0  0
    3.7168    3.1168   -1.5823 H   0  0  0  0  0  0  0  0  0  0  0  0
    2.5306    2.8231    0.2287 C   0  0  0  0  0  0  0  0  0  0  0  0
    3.3210    2.1857    0.6819 H   0  0  0  0  0  0  0  0  0  0  0  0
    2.6865    4.2479    0.7703 C   0  0  0  0  0  0  0  0  0  0  0  0
    3.6572    4.6681    0.4332 H   0  0  0  0  0  0  0  0  0  0  0  0
    2.6738    4.2960    1.8766 H   0  0  0  0  0  0  0  0  0  0  0  0
    1.8892    4.9180    0.3849 H   0  0  0  0  0  0  0  0  0  0  0  0
    0.0551    1.2689    3.3264 C   0  0  0  0  0  0  0  0  0  0  0  0
   -0.0594    1.5801    4.3862 H   0  0  0  0  0  0  0  0  0  0  0  0
    0.6493    0.3351    3.3133 H   0  0  0  0  0  0  0  0  0  0  0  0
   -0.9522    1.0354    2.9259 H   0  0  0  0  0  0  0  0  0  0  0  0
    0.7066    2.4014    2.5250 C   0  0  0  0  0  0  0  0  0  0  0  0
    1.7419    2.5590    2.9042 H   0  0  0  0  0  0  0  0  0  0  0  0
   -0.1014    3.6972    2.6974 C   0  0  0  0  0  0  0  0  0  0  0  0
   -1.1420    3.5487    2.3421 H   0  0  0  0  0  0  0  0  0  0  0  0
    0.3246    4.5483    2.1323 H   0  0  0  0  0  0  0  0  0  0  0  0
   -0.1437    3.9897    3.7679 H   0  0  0  0  0  0  0  0  0  0  0  0
   -3.3532    1.0201   -0.7086 C   0  0  0  0  0  0  0  0  0  0  0  0
   -2.9943    1.8055   -1.8269 C   0  0  0  0  0  0  0  0  0  0  0  0
   -1.9399    1.8932   -2.1284 H   0  0  0  0  0  0  0  0  0  0  0  0
   -3.9714    2.4938   -2.5620 C   0  0  0  0  0  0  0  0  0  0  0  0
   -3.6701    3.0945   -3.4337 H   0  0  0  0  0  0  0  0  0  0  0  0
   -5.3227    2.4185   -2.1913 C   0  0  0  0  0  0  0  0  0  0  0  0
   -6.0879    2.9561   -2.7712 H   0  0  0  0  0  0  0  0  0  0  0  0
   -5.6893    1.6571   -1.0696 C   0  0  0  0  0  0  0  0  0  0  0  0
   -6.7450    1.5980   -0.7631 H   0  0  0  0  0  0  0  0  0  0  0  0
   -4.7153    0.9705   -0.3312 C   0  0  0  0  0  0  0  0  0  0  0  0
   -5.0174    0.3859    0.5516 H   0  0  0  0  0  0  0  0  0  0  0  0
   -2.7570   -1.4054    0.7881 C   0  0  0  0  0  0  0  0  0  0  0  0
   -3.7011   -2.1099    0.0096 C   0  0  0  0  0  0  0  0  0  0  0  0
   -4.1264   -1.6409   -0.8902 H   0  0  0  0  0  0  0  0  0  0  0  0
   -4.1022   -3.4033    0.3767 C   0  0  0  0  0  0  0  0  0  0  0  0
   -4.8411   -3.9399   -0.2382 H   0  0  0  0  0  0  0  0  0  0  0  0
   -3.5597   -4.0164    1.5184 C   0  0  0  0  0  0  0  0  0  0  0  0
   -3.8757   -5.0318    1.8024 H   0  0  0  0  0  0  0  0  0  0  0  0
   -2.6190   -3.3265    2.2989 C   0  0  0  0  0  0  0  0  0  0  0  0
   -2.1944   -3.7976    3.1986 H   0  0  0  0  0  0  0  0  0  0  0  0
   -2.2277   -2.0272    1.9410 C   0  0  0  0  0  0  0  0  0  0  0  0
   -1.4991   -1.4812    2.5612 H   0  0  0  0  0  0  0  0  0  0  0  0
  1 33  1  0  0  0  0
  2 50  1  0  0  0  0
  3  6  1  0  0  0  0
  3  7  1  0  0  0  0
  4  3  1  0  0  0  0
  5  3  1  0  0  0  0
  7  8  1  6  0  0  0
  7  9  1  0  0  0  0
  7  2  1  0  0  0  0
  9 10  2  0  0  0  0
  9 18  1  0  0  0  0
 10 12  1  0  0  0  0
 11 10  1  0  0  0  0
 12 13  1  0  0  0  0
 12 14  1  0  0  0  0
 14 15  1  0  0  0  0
 16 14  1  0  0  0  0
 16 17  1  0  0  0  0
 18  1  1  1  0  0  0
 18 16  1  0  0  0  0
 19 23  1  0  0  0  0
 20 19  1  0  0  0  0
 21 19  1  0  0  0  0
 22 19  1  0  0  0  0
 23  1  1  0  0  0  0
 23 24  1  0  0  0  0
 23 25  1  0  0  0  0
 25 27  1  0  0  0  0
 26 25  1  0  0  0  0
 28 25  1  0  0  0  0
 29 30  1  0  0  0  0
 31 29  1  0  0  0  0
 32 29  1  0  0  0  0
 33 35  1  0  0  0  0
 33 34  1  0  0  0  0
 33 29  1  0  0  0  0
 35 38  1  0  0  0  0
 36 35  1  0  0  0  0
 37 35  1  0  0  0  0
 39 48  1  0  0  0  0
 39  2  1  0  0  0  0
 40 39  2  0  0  0  0
 41 40  1  0  0  0  0
 42 44  2  0  0  0  0
 42 40  1  0  0  0  0
 43 42  1  0  0  0  0
 44 46  1  0  0  0  0
 45 44  1  0  0  0  0
 46 47  1  0  0  0  0
 46 48  2  0  0  0  0
 48 49  1  0  0  0  0
 50 59  1  0  0  0  0
 51 53  1  0  0  0  0
 51 50  2  0  0  0  0
 52 51  1  0  0  0  0
 53 55  2  0  0  0  0
 54 53  1  0  0  0  0
 55 56  1  0  0  0  0
 55 57  1  0  0  0  0
 57 58  1  0  0  0  0
 59 57  2  0  0  0  0
 59 60  1  0  0  0  0
M  END
