2,8
 OpenBabel05122313053D

 23 24  0  0  1  0  0  0  0  0999 V2000
    1.1158    0.6284   -0.9938 C   0  0  2  0  0  3  0  0  0  0  0  0
    1.9394    1.7509   -0.5878 C   0  0  0  0  0  3  0  0  0  0  0  0
    1.6132    2.5852    0.0396 H   0  0  0  0  0  0  0  0  0  0  0  0
    3.2360    1.5866   -1.1514 C   0  0  0  0  0  0  0  0  0  0  0  0
    4.0792    2.2750   -1.0224 H   0  0  0  0  0  0  0  0  0  0  0  0
    3.2480    0.3658   -1.9099 C   0  0  0  0  0  0  0  0  0  0  0  0
    4.0971   -0.0451   -2.4672 H   0  0  0  0  0  0  0  0  0  0  0  0
    1.9559   -0.2283   -1.7992 C   0  0  0  0  0  3  0  0  0  0  0  0
    1.6419   -1.1692   -2.2614 H   0  0  0  0  0  0  0  0  0  0  0  0
   -0.3016    0.4159   -0.6631 C   0  0  0  0  0  0  0  0  0  0  0  0
   -1.1535    1.4844   -0.3113 C   0  0  0  0  0  0  0  0  0  0  0  0
   -0.6878    2.7427   -0.2777 F   0  0  0  0  0  0  0  0  0  0  0  0
   -2.5101    1.2970    0.0082 C   0  0  0  0  0  0  0  0  0  0  0  0
   -3.2176    2.3823    0.3232 F   0  0  0  0  0  0  0  0  0  0  0  0
   -3.0842    0.0139   -0.0187 C   0  0  0  0  0  0  0  0  0  0  0  0
   -2.2465   -1.0626   -0.3726 C   0  0  0  0  0  0  0  0  0  0  0  0
   -2.7330   -2.3054   -0.4088 F   0  0  0  0  0  0  0  0  0  0  0  0
   -0.8978   -0.8659   -0.6883 C   0  0  0  0  0  0  0  0  0  0  0  0
   -0.1659   -1.9470   -0.9965 F   0  0  0  0  0  0  0  0  0  0  0  0
   -4.5376   -0.2789    0.3075 C   0  0  0  0  0  0  0  0  0  0  0  0
   -5.2303    0.8280    0.6279 F   0  0  0  0  0  0  0  0  0  0  0  0
   -5.1530   -0.8573   -0.7495 F   0  0  0  0  0  0  0  0  0  0  0  0
   -4.6276   -1.1364    1.3489 F   0  0  0  0  0  0  0  0  0  0  0  0
  1 10  1  6  0  0  0
  1  2  1  0  0  0  0
  2  3  1  0  0  0  0
  4  5  1  0  0  0  0
  4  2  1  0  0  0  0
  6  8  1  0  0  0  0
  6  4  2  0  0  0  0
  7  6  1  0  0  0  0
  8  1  1  0  0  0  0
  9  8  1  0  0  0  0
 10 11  1  0  0  0  0
 11 12  1  0  0  0  0
 11 13  2  0  0  0  0
 13 14  1  0  0  0  0
 15 13  1  0  0  0  0
 15 20  1  0  0  0  0
 16 15  2  0  0  0  0
 17 16  1  0  0  0  0
 18 10  2  0  0  0  0
 18 16  1  0  0  0  0
 19 18  1  0  0  0  0
 20 21  1  0  0  0  0
 20 23  1  0  0  0  0
 22 20  1  0  0  0  0
M  END
