3,5
 OpenBabel05122313053D

 53 56  0  0  0  0  0  0  0  0999 V2000
    2.3544    1.2501   -2.4413 Cl  0  0  0  0  0  0  0  0  0  0  0  0
   -0.0256    3.0357   -1.3093 O   0  0  0  0  0  0  0  0  0  0  0  0
    0.8730    1.0625   -0.1675 C   0  0  0  0  0  3  0  0  0  0  0  0
   -0.2070    2.0144   -0.6482 C   0  0  0  0  0  0  0  0  0  0  0  0
   -1.4634    1.2326   -0.4428 C   0  0  0  0  0  3  0  0  0  0  0  0
    2.2463    1.1024   -0.6836 C   0  0  0  0  0  0  0  0  0  0  0  0
    3.3972    0.9531    0.0505 C   0  0  0  0  0  0  0  0  0  0  0  0
    3.3369    0.6985    1.5219 C   0  0  0  0  0  0  0  0  0  0  0  0
    2.6344   -0.3992    2.0664 C   0  0  0  0  0  0  0  0  0  0  0  0
    2.6263   -0.6307    3.4502 C   0  0  0  0  0  0  0  0  0  0  0  0
    3.3206    0.2284    4.3152 C   0  0  0  0  0  0  0  0  0  0  0  0
    4.0347    1.3163    3.7848 C   0  0  0  0  0  0  0  0  0  0  0  0
    4.0509    1.5433    2.4026 C   0  0  0  0  0  0  0  0  0  0  0  0
    4.7695    1.0123   -0.5195 C   0  0  0  0  0  0  0  0  0  0  0  0
    5.7041    0.0103   -0.1664 C   0  0  0  0  0  0  0  0  0  0  0  0
    7.0106    0.0354   -0.6719 C   0  0  0  0  0  0  0  0  0  0  0  0
    7.4177    1.0759   -1.5226 C   0  0  0  0  0  0  0  0  0  0  0  0
    6.5067    2.0891   -1.8625 C   0  0  0  0  0  0  0  0  0  0  0  0
    5.1952    2.0585   -1.3691 C   0  0  0  0  0  0  0  0  0  0  0  0
   -2.7574    1.5623   -0.1551 C   0  0  0  0  0  0  0  0  0  0  0  0
   -3.2449    2.9319    0.1763 C   0  0  0  0  0  0  0  0  0  0  0  0
   -4.3523    3.0740    1.0516 C   0  0  0  0  0  0  0  0  0  0  0  0
   -4.8364    4.3395    1.4054 C   0  0  0  0  0  0  0  0  0  0  0  0
   -4.2404    5.4960    0.8777 C   0  0  0  0  0  0  0  0  0  0  0  0
   -3.1550    5.3700   -0.0042 C   0  0  0  0  0  0  0  0  0  0  0  0
   -2.6584    4.1073   -0.3546 C   0  0  0  0  0  0  0  0  0  0  0  0
   -3.8296    0.5104   -0.1585 C   0  0  0  0  0  0  0  0  0  0  0  0
   -4.7945    0.5410   -1.1890 C   0  0  0  0  0  0  0  0  0  0  0  0
   -5.8299   -0.4041   -1.2329 C   0  0  0  0  0  0  0  0  0  0  0  0
   -5.9312   -1.3858   -0.2339 C   0  0  0  0  0  0  0  0  0  0  0  0
   -4.9906   -1.4117    0.8067 C   0  0  0  0  0  0  0  0  0  0  0  0
   -3.9483   -0.4730    0.8442 C   0  0  0  0  0  0  0  0  0  0  0  0
    0.8902    1.0195    0.9361 H   0  0  0  0  0  0  0  0  0  0  0  0
    2.1006   -1.0800    1.3914 H   0  0  0  0  0  0  0  0  0  0  0  0
    2.0718   -1.4930    3.8504 H   0  0  0  0  0  0  0  0  0  0  0  0
    3.3125    0.0481    5.4011 H   0  0  0  0  0  0  0  0  0  0  0  0
    4.5864    1.9933    4.4550 H   0  0  0  0  0  0  0  0  0  0  0  0
    4.6184    2.3898    1.9873 H   0  0  0  0  0  0  0  0  0  0  0  0
    5.3882   -0.7992    0.5093 H   0  0  0  0  0  0  0  0  0  0  0  0
    7.7186   -0.7609   -0.3952 H   0  0  0  0  0  0  0  0  0  0  0  0
    8.4461    1.1015   -1.9141 H   0  0  0  0  0  0  0  0  0  0  0  0
    6.8216    2.9170   -2.5160 H   0  0  0  0  0  0  0  0  0  0  0  0
    4.4889    2.8582   -1.6328 H   0  0  0  0  0  0  0  0  0  0  0  0
   -4.8313    2.1744    1.4651 H   0  0  0  0  0  0  0  0  0  0  0  0
   -5.6905    4.4223    2.0952 H   0  0  0  0  0  0  0  0  0  0  0  0
   -4.6262    6.4914    1.1468 H   0  0  0  0  0  0  0  0  0  0  0  0
   -2.6883    6.2695   -0.4349 H   0  0  0  0  0  0  0  0  0  0  0  0
   -1.8091    4.0129   -1.0465 H   0  0  0  0  0  0  0  0  0  0  0  0
   -4.7235    1.3214   -1.9623 H   0  0  0  0  0  0  0  0  0  0  0  0
   -6.5664   -0.3695   -2.0506 H   0  0  0  0  0  0  0  0  0  0  0  0
   -6.7449   -2.1263   -0.2646 H   0  0  0  0  0  0  0  0  0  0  0  0
   -5.0644   -2.1723    1.5989 H   0  0  0  0  0  0  0  0  0  0  0  0
   -3.2251   -0.4934    1.6694 H   0  0  0  0  0  0  0  0  0  0  0  0
  1  6  1  0  0  0  0
  2  4  2  0  0  0  0
  3 33  1  0  0  0  0
  4  5  1  0  0  0  0
  4  3  1  0  0  0  0
  5 20  2  0  0  0  0
  6  3  1  0  0  0  0
  6  7  2  0  0  0  0
  7  8  1  0  0  0  0
  8  9  2  0  0  0  0
  8 13  1  0  0  0  0
  9 10  1  0  0  0  0
 10 35  1  0  0  0  0
 10 11  2  0  0  0  0
 11 36  1  0  0  0  0
 12 11  1  0  0  0  0
 12 37  1  0  0  0  0
 13 12  2  0  0  0  0
 14 15  1  0  0  0  0
 14  7  1  0  0  0  0
 15 39  1  0  0  0  0
 16 40  1  0  0  0  0
 16 15  2  0  0  0  0
 17 16  1  0  0  0  0
 18 17  2  0  0  0  0
 18 19  1  0  0  0  0
 19 14  2  0  0  0  0
 20 21  1  0  0  0  0
 21 22  1  0  0  0  0
 22 23  2  0  0  0  0
 22 44  1  0  0  0  0
 23 45  1  0  0  0  0
 24 46  1  0  0  0  0
 24 23  1  0  0  0  0
 25 24  2  0  0  0  0
 26 25  1  0  0  0  0
 26 21  2  0  0  0  0
 27 20  1  0  0  0  0
 27 32  1  0  0  0  0
 28 27  2  0  0  0  0
 29 28  1  0  0  0  0
 29 30  2  0  0  0  0
 30 31  1  0  0  0  0
 31 32  2  0  0  0  0
 31 52  1  0  0  0  0
 32 53  1  0  0  0  0
 34  9  1  0  0  0  0
 38 13  1  0  0  0  0
 41 17  1  0  0  0  0
 42 18  1  0  0  0  0
 43 19  1  0  0  0  0
 47 25  1  0  0  0  0
 48 26  1  0  0  0  0
 49 28  1  0  0  0  0
 50 29  1  0  0  0  0
 51 30  1  0  0  0  0
M  END
