2,4
 OpenBabel05122313053D

 51 54  0  0  0  0  0  0  0  0999 V2000
   -0.3552    3.3470    0.4793 O   0  0  0  0  0  0  0  0  0  0  0  0
    0.7856    1.2548   -0.0899 C   0  0  0  0  0  3  0  0  0  0  0  0
   -0.3853    2.1659    0.1506 C   0  0  0  0  0  0  0  0  0  0  0  0
   -1.5166    1.2229   -0.1333 C   0  0  0  0  0  3  0  0  0  0  0  0
    2.0697    1.3021    0.1401 C   0  0  0  0  0  0  0  0  0  0  0  0
    3.3951    1.1924    0.3189 C   0  0  0  0  0  0  0  0  0  0  0  0
    4.3078    1.7361   -0.7209 C   0  0  0  0  0  0  0  0  0  0  0  0
    5.5372    1.1012   -1.0174 C   0  0  0  0  0  0  0  0  0  0  0  0
    6.3599    1.5820   -2.0458 C   0  0  0  0  0  0  0  0  0  0  0  0
    5.9742    2.7026   -2.7992 C   0  0  0  0  0  0  0  0  0  0  0  0
    4.7546    3.3401   -2.5148 C   0  0  0  0  0  0  0  0  0  0  0  0
    3.9315    2.8655   -1.4863 C   0  0  0  0  0  0  0  0  0  0  0  0
    3.9181    0.4763    1.5140 C   0  0  0  0  0  0  0  0  0  0  0  0
    3.2057   -0.6205    2.0523 C   0  0  0  0  0  0  0  0  0  0  0  0
    3.6704   -1.2888    3.1915 C   0  0  0  0  0  0  0  0  0  0  0  0
    4.8615   -0.8809    3.8145 C   0  0  0  0  0  0  0  0  0  0  0  0
    5.5806    0.2045    3.2871 C   0  0  0  0  0  0  0  0  0  0  0  0
    5.1153    0.8782    2.1491 C   0  0  0  0  0  0  0  0  0  0  0  0
   -2.8556    1.3757    0.1245 C   0  0  0  0  0  0  0  0  0  0  0  0
   -3.4886    2.6627    0.5259 C   0  0  0  0  0  0  0  0  0  0  0  0
   -3.1244    3.8955   -0.0621 C   0  0  0  0  0  0  0  0  0  0  0  0
   -3.7651    5.0824    0.3144 C   0  0  0  0  0  0  0  0  0  0  0  0
   -4.7726    5.0672    1.2927 C   0  0  0  0  0  0  0  0  0  0  0  0
   -5.1492    3.8496    1.8825 C   0  0  0  0  0  0  0  0  0  0  0  0
   -4.5243    2.6586    1.4923 C   0  0  0  0  0  0  0  0  0  0  0  0
   -3.8079    0.2275    0.0308 C   0  0  0  0  0  0  0  0  0  0  0  0
   -4.9142    0.3008   -0.8442 C   0  0  0  0  0  0  0  0  0  0  0  0
   -5.8317   -0.7565   -0.9290 C   0  0  0  0  0  0  0  0  0  0  0  0
   -5.6789   -1.8899   -0.1138 C   0  0  0  0  0  0  0  0  0  0  0  0
   -4.6003   -1.9595    0.7816 C   0  0  0  0  0  0  0  0  0  0  0  0
   -3.6685   -0.9142    0.8482 C   0  0  0  0  0  0  0  0  0  0  0  0
    5.8380    0.2130   -0.4419 H   0  0  0  0  0  0  0  0  0  0  0  0
    7.3108    1.0719   -2.2642 H   0  0  0  0  0  0  0  0  0  0  0  0
    6.6238    3.0807   -3.6031 H   0  0  0  0  0  0  0  0  0  0  0  0
    4.4462    4.2239   -3.0942 H   0  0  0  0  0  0  0  0  0  0  0  0
    2.9841    3.3732   -1.2482 H   0  0  0  0  0  0  0  0  0  0  0  0
    2.2837   -0.9481    1.5529 H   0  0  0  0  0  0  0  0  0  0  0  0
    3.0975   -2.1400    3.5909 H   0  0  0  0  0  0  0  0  0  0  0  0
    5.2300   -1.4074    4.7080 H   0  0  0  0  0  0  0  0  0  0  0  0
    6.5115    0.5362    3.7723 H   0  0  0  0  0  0  0  0  0  0  0  0
    5.6759    1.7369    1.7507 H   0  0  0  0  0  0  0  0  0  0  0  0
   -2.3395    3.9146   -0.8281 H   0  0  0  0  0  0  0  0  0  0  0  0
   -3.4725    6.0309   -0.1611 H   0  0  0  0  0  0  0  0  0  0  0  0
   -5.2692    6.0035    1.5904 H   0  0  0  0  0  0  0  0  0  0  0  0
   -5.9402    3.8267    2.6477 H   0  0  0  0  0  0  0  0  0  0  0  0
   -4.8296    1.7043    1.9469 H   0  0  0  0  0  0  0  0  0  0  0  0
   -5.0463    1.2006   -1.4645 H   0  0  0  0  0  0  0  0  0  0  0  0
   -6.6786   -0.6902   -1.6293 H   0  0  0  0  0  0  0  0  0  0  0  0
   -6.4041   -2.7158   -0.1726 H   0  0  0  0  0  0  0  0  0  0  0  0
   -4.4774   -2.8393    1.4314 H   0  0  0  0  0  0  0  0  0  0  0  0
   -2.8279   -0.9682    1.5516 H   0  0  0  0  0  0  0  0  0  0  0  0
  2  5  2  0  0  0  0
  2  3  1  0  0  0  0
  3  1  2  0  0  0  0
  4 19  2  0  0  0  0
  4  3  1  0  0  0  0
  5  6  2  0  0  0  0
  6 13  1  0  0  0  0
  7  6  1  0  0  0  0
  8  7  1  0  0  0  0
  8 32  1  0  0  0  0
  9  8  2  0  0  0  0
 10 11  2  0  0  0  0
 10  9  1  0  0  0  0
 11 12  1  0  0  0  0
 12 36  1  0  0  0  0
 12  7  2  0  0  0  0
 13 14  2  0  0  0  0
 13 18  1  0  0  0  0
 14 15  1  0  0  0  0
 15 38  1  0  0  0  0
 15 16  2  0  0  0  0
 16 39  1  0  0  0  0
 17 40  1  0  0  0  0
 17 16  1  0  0  0  0
 18 17  2  0  0  0  0
 19 20  1  0  0  0  0
 20 25  1  0  0  0  0
 21 22  1  0  0  0  0
 21 20  2  0  0  0  0
 22 23  2  0  0  0  0
 23 44  1  0  0  0  0
 23 24  1  0  0  0  0
 24 45  1  0  0  0  0
 25 24  2  0  0  0  0
 25 46  1  0  0  0  0
 26 19  1  0  0  0  0
 26 31  1  0  0  0  0
 27 26  2  0  0  0  0
 28 27  1  0  0  0  0
 28 29  2  0  0  0  0
 29 30  1  0  0  0  0
 30 31  2  0  0  0  0
 30 50  1  0  0  0  0
 31 51  1  0  0  0  0
 33  9  1  0  0  0  0
 34 10  1  0  0  0  0
 35 11  1  0  0  0  0
 37 14  1  0  0  0  0
 41 18  1  0  0  0  0
 42 21  1  0  0  0  0
 43 22  1  0  0  0  0
 47 27  1  0  0  0  0
 48 28  1  0  0  0  0
 49 29  1  0  0  0  0
M  END
