4,11
 OpenBabel05122313053D

 26 26  0  0  1  0  0  0  0  0999 V2000
   -0.4529   -2.4707   -0.4639 O   0  0  0  0  0  0  0  0  0  0  0  0
    2.2971   -2.9909   -0.3198 O   0  0  0  0  0  0  0  0  0  0  0  0
    2.7187    3.8196   -0.0484 N   0  0  0  0  0  0  0  0  0  0  0  0
   -0.2146   -1.3320   -0.1250 C   0  0  0  0  0  3  0  0  0  0  0  0
    1.1886   -0.8636    0.2967 C   0  0  1  0  0  0  0  0  0  0  0  0
    2.2750   -1.6029   -0.5482 C   0  0  1  0  0  0  0  0  0  0  0  0
    3.6629   -1.0363   -0.2296 C   0  0  0  0  0  0  0  0  0  0  0  0
    3.7459    0.4855   -0.3863 C   0  0  0  0  0  0  0  0  0  0  0  0
    2.6321    1.2234    0.4032 C   0  0  2  0  0  0  0  0  0  0  0  0
    1.2497    0.6437   -0.0044 C   0  0  2  0  0  0  0  0  0  0  0  0
    0.0200    1.3499    0.5434 C   0  0  0  0  0  3  0  0  0  0  0  0
    1.3289   -1.2238    1.7888 C   0  0  0  0  0  0  0  0  0  0  0  0
    2.6858    2.6683    0.1665 C   0  0  0  0  0  0  0  0  0  0  0  0
    2.0438   -1.3748   -1.6218 H   0  0  0  0  0  0  0  0  0  0  0  0
    3.9344   -1.3405    0.8026 H   0  0  0  0  0  0  0  0  0  0  0  0
    4.3995   -1.5285   -0.8963 H   0  0  0  0  0  0  0  0  0  0  0  0
    4.7402    0.8532   -0.0633 H   0  0  0  0  0  0  0  0  0  0  0  0
    3.6410    0.7624   -1.4571 H   0  0  0  0  0  0  0  0  0  0  0  0
    2.7845    1.0719    1.4948 H   0  0  0  0  0  0  0  0  0  0  0  0
    1.2284    0.7391   -1.1133 H   0  0  0  0  0  0  0  0  0  0  0  0
    0.0429    1.4309    1.6480 H   0  0  0  0  0  0  0  0  0  0  0  0
   -0.0797    2.3735    0.1364 H   0  0  0  0  0  0  0  0  0  0  0  0
    1.2892   -2.3233    1.9013 H   0  0  0  0  0  0  0  0  0  0  0  0
    0.5392   -0.7717    2.4145 H   0  0  0  0  0  0  0  0  0  0  0  0
    2.3031   -0.8873    2.1910 H   0  0  0  0  0  0  0  0  0  0  0  0
    1.3817   -3.2995   -0.4967 H   0  0  0  0  0  0  0  0  0  0  0  0
  1  4  2  0  0  0  0
  3 13  3  0  0  0  0
  5  4  1  6  0  0  0
  5 12  1  0  0  0  0
  6 14  1  6  0  0  0
  6  2  1  0  0  0  0
  6  7  1  0  0  0  0
  6  5  1  0  0  0  0
  7 15  1  0  0  0  0
  8  7  1  0  0  0  0
  8 17  1  0  0  0  0
  8  9  1  0  0  0  0
  9 19  1  1  0  0  0
 10 20  1  6  0  0  0
 10  5  1  0  0  0  0
 10  9  1  0  0  0  0
 10 11  1  0  0  0  0
 11 21  1  0  0  0  0
 12 23  1  0  0  0  0
 12 25  1  0  0  0  0
 12 24  1  0  0  0  0
 13  9  1  0  0  0  0
 16  7  1  0  0  0  0
 18  8  1  0  0  0  0
 22 11  1  0  0  0  0
 26  2  1  0  0  0  0
M  END
