3,5
 OpenBabel05122313053D

 48 48  0  0  1  0  0  0  0  0999 V2000
   -0.6615   -0.4048   -1.9460 S   0  0  0  0  0  0  0  0  0  0  0  0
   -1.2125    0.1837   -0.3600 C   0  0  1  0  0  3  0  0  0  0  0  0
   -0.0909    0.6039    0.3996 C   0  0  0  0  0  3  0  0  0  0  0  0
    1.2013    0.3914   -0.2055 C   0  0  2  0  0  3  0  0  0  0  0  0
    1.0631   -0.2713   -1.4563 C   0  0  2  0  0  3  0  0  0  0  0  0
    2.1013   -0.6308   -2.4755 C   0  0  0  0  0  0  0  0  0  0  0  0
   -3.0489    0.3964    0.0593 Si  0  0  0  0  0  0  0  0  0  0  0  0
   -3.2439    0.0462    1.9025 C   0  0  0  0  0  0  0  0  0  0  0  0
   -4.0575   -0.8004   -0.9929 C   0  0  0  0  0  0  0  0  0  0  0  0
   -3.5131    2.2065   -0.3617 C   0  0  0  0  0  0  0  0  0  0  0  0
   -5.0009    2.4813   -0.0887 C   0  0  0  0  0  0  0  0  0  0  0  0
   -2.6099    3.2206    0.3562 C   0  0  0  0  0  0  0  0  0  0  0  0
    2.8157    0.9173    0.6595 Si  0  0  0  0  0  0  0  0  0  0  0  0
    2.4776    1.0723    2.5110 C   0  0  0  0  0  0  0  0  0  0  0  0
    4.2012   -0.3384    0.3855 C   0  0  0  0  0  0  0  0  0  0  0  0
    3.2903    2.6364   -0.0431 C   0  0  0  0  0  0  0  0  0  0  0  0
    2.2424    3.6997    0.3225 C   0  0  0  0  0  0  0  0  0  0  0  0
    3.5467    2.6088   -1.5567 C   0  0  0  0  0  0  0  0  0  0  0  0
   -0.2135    1.0334    1.4029 H   0  0  0  0  0  0  0  0  0  0  0  0
    1.7721   -1.4832   -3.0999 H   0  0  0  0  0  0  0  0  0  0  0  0
    3.0384   -0.9300   -1.9728 H   0  0  0  0  0  0  0  0  0  0  0  0
    2.3243    0.2271   -3.1427 H   0  0  0  0  0  0  0  0  0  0  0  0
   -2.5780    0.6848    2.5171 H   0  0  0  0  0  0  0  0  0  0  0  0
   -4.2875    0.2326    2.2287 H   0  0  0  0  0  0  0  0  0  0  0  0
   -2.9973   -1.0123    2.1168 H   0  0  0  0  0  0  0  0  0  0  0  0
   -5.1413   -0.6595   -0.8042 H   0  0  0  0  0  0  0  0  0  0  0  0
   -3.8826   -0.6368   -2.0764 H   0  0  0  0  0  0  0  0  0  0  0  0
   -3.8043   -1.8512   -0.7516 H   0  0  0  0  0  0  0  0  0  0  0  0
   -3.3371    2.2993   -1.4589 H   0  0  0  0  0  0  0  0  0  0  0  0
   -5.2791    3.5164   -0.3825 H   0  0  0  0  0  0  0  0  0  0  0  0
   -5.6670    1.7905   -0.6446 H   0  0  0  0  0  0  0  0  0  0  0  0
   -5.2405    2.3772    0.9911 H   0  0  0  0  0  0  0  0  0  0  0  0
   -2.8717    4.2632    0.0747 H   0  0  0  0  0  0  0  0  0  0  0  0
   -2.7166    3.1485    1.4598 H   0  0  0  0  0  0  0  0  0  0  0  0
   -1.5375    3.0710    0.1149 H   0  0  0  0  0  0  0  0  0  0  0  0
    3.3758    1.4931    3.0092 H   0  0  0  0  0  0  0  0  0  0  0  0
    1.6290    1.7493    2.7348 H   0  0  0  0  0  0  0  0  0  0  0  0
    2.2617    0.0863    2.9664 H   0  0  0  0  0  0  0  0  0  0  0  0
    4.6408   -0.2925   -0.6304 H   0  0  0  0  0  0  0  0  0  0  0  0
    5.0188   -0.1417    1.1093 H   0  0  0  0  0  0  0  0  0  0  0  0
    3.8324   -1.3692    0.5608 H   0  0  0  0  0  0  0  0  0  0  0  0
    4.2468    2.8957    0.4693 H   0  0  0  0  0  0  0  0  0  0  0  0
    2.5271    4.6997   -0.0698 H   0  0  0  0  0  0  0  0  0  0  0  0
    1.2492    3.4517   -0.1115 H   0  0  0  0  0  0  0  0  0  0  0  0
    2.1088    3.8004    1.4184 H   0  0  0  0  0  0  0  0  0  0  0  0
    3.9087    3.5936   -1.9229 H   0  0  0  0  0  0  0  0  0  0  0  0
    4.3022    1.8506   -1.8477 H   0  0  0  0  0  0  0  0  0  0  0  0
    2.6122    2.3825   -2.1129 H   0  0  0  0  0  0  0  0  0  0  0  0
  1  5  1  0  0  0  0
  1  2  1  0  0  0  0
  2  7  1  6  0  0  0
  2  3  1  0  0  0  0
  3 19  1  0  0  0  0
  4  3  1  0  0  0  0
  4 13  1  1  0  0  0
  5  6  1  6  0  0  0
  5  4  1  0  0  0  0
  6 21  1  0  0  0  0
  7  8  1  0  0  0  0
  8 25  1  0  0  0  0
  8 24  1  0  0  0  0
  8 23  1  0  0  0  0
  9 26  1  0  0  0  0
  9 28  1  0  0  0  0
  9  7  1  0  0  0  0
 10 11  1  0  0  0  0
 10  7  1  0  0  0  0
 10 12  1  0  0  0  0
 11 32  1  0  0  0  0
 12 34  1  0  0  0  0
 13 14  1  0  0  0  0
 14 37  1  0  0  0  0
 14 38  1  0  0  0  0
 14 36  1  0  0  0  0
 15 41  1  0  0  0  0
 15 13  1  0  0  0  0
 15 40  1  0  0  0  0
 16 17  1  0  0  0  0
 16 42  1  0  0  0  0
 16 13  1  0  0  0  0
 17 45  1  0  0  0  0
 18 16  1  0  0  0  0
 20  6  1  0  0  0  0
 22  6  1  0  0  0  0
 27  9  1  0  0  0  0
 29 10  1  0  0  0  0
 30 11  1  0  0  0  0
 31 11  1  0  0  0  0
 33 12  1  0  0  0  0
 35 12  1  0  0  0  0
 39 15  1  0  0  0  0
 43 17  1  0  0  0  0
 44 17  1  0  0  0  0
 46 18  1  0  0  0  0
 47 18  1  0  0  0  0
 48 18  1  0  0  0  0
M  END
