2,6
 OpenBabel05122313053D

 29 29  0  0  1  0  0  0  0  0999 V2000
    2.2204   -0.9605   -0.5205 N   0  0  0  0  0  0  0  0  0  0  0  0
    0.5991    0.4202   -1.7908 C   0  0  0  0  0  3  0  0  0  0  0  0
   -0.1475    0.2291   -2.5770 H   0  0  0  0  0  0  0  0  0  0  0  0
    1.4102    1.0881   -2.1152 H   0  0  0  0  0  0  0  0  0  0  0  0
    0.9350   -0.6580   -0.8837 C   0  0  2  0  0  3  0  0  0  0  0  0
   -0.2008   -1.2671   -0.2454 C   0  0  0  0  0  3  0  0  0  0  0  0
   -0.0659   -1.9836    0.5777 H   0  0  0  0  0  0  0  0  0  0  0  0
   -1.5211   -0.9046   -0.6967 C   0  0  0  0  0  3  0  0  0  0  0  0
   -1.6730   -0.7123   -1.7722 H   0  0  0  0  0  0  0  0  0  0  0  0
   -2.7104   -1.3844    0.0053 C   0  0  0  0  0  0  0  0  0  0  0  0
   -2.5731   -1.7063    1.0546 H   0  0  0  0  0  0  0  0  0  0  0  0
   -3.9513   -1.4450   -0.5339 C   0  0  0  0  0  0  0  0  0  0  0  0
   -4.0805   -1.1067   -1.5793 H   0  0  0  0  0  0  0  0  0  0  0  0
   -5.1791   -1.9223    0.1747 C   0  0  0  0  0  0  0  0  0  0  0  0
   -5.6514   -2.7773   -0.3569 H   0  0  0  0  0  0  0  0  0  0  0  0
   -5.9544   -1.1260    0.2207 H   0  0  0  0  0  0  0  0  0  0  0  0
   -4.9578   -2.2426    1.2124 H   0  0  0  0  0  0  0  0  0  0  0  0
    3.3814   -0.2513   -1.0593 C   0  0  0  0  0  0  0  0  0  0  0  0
    3.3654    0.8303   -0.7811 H   0  0  0  0  0  0  0  0  0  0  0  0
    3.4004   -0.3136   -2.1667 H   0  0  0  0  0  0  0  0  0  0  0  0
    4.5573   -0.9614   -0.3842 C   0  0  0  0  0  0  0  0  0  0  0  0
    5.4784   -0.3476   -0.3770 H   0  0  0  0  0  0  0  0  0  0  0  0
    4.7825   -1.9104   -0.9146 H   0  0  0  0  0  0  0  0  0  0  0  0
    4.0009   -1.2466    1.0185 C   0  0  0  0  0  0  0  0  0  0  0  0
    4.0471   -0.3235    1.6326 H   0  0  0  0  0  0  0  0  0  0  0  0
    4.5503   -2.0389    1.5624 H   0  0  0  0  0  0  0  0  0  0  0  0
    2.5316   -1.6168    0.7545 C   0  0  0  0  0  0  0  0  0  0  0  0
    2.3823   -2.7175    0.6782 H   0  0  0  0  0  0  0  0  0  0  0  0
    1.8553   -1.2416    1.5557 H   0  0  0  0  0  0  0  0  0  0  0  0
  1 27  1  0  0  0  0
  3  2  1  0  0  0  0
  4  2  1  0  0  0  0
  5  2  1  1  0  0  0
  5  1  1  0  0  0  0
  5  6  1  0  0  0  0
  6  7  1  0  0  0  0
  8  6  1  0  0  0  0
  8 10  1  0  0  0  0
  9  8  1  0  0  0  0
 10 11  1  0  0  0  0
 12 10  2  0  0  0  0
 12 14  1  0  0  0  0
 13 12  1  0  0  0  0
 14 16  1  0  0  0  0
 14 17  1  0  0  0  0
 15 14  1  0  0  0  0
 18 19  1  0  0  0  0
 18  1  1  0  0  0  0
 18 21  1  0  0  0  0
 20 18  1  0  0  0  0
 21 22  1  0  0  0  0
 21 24  1  0  0  0  0
 23 21  1  0  0  0  0
 24 26  1  0  0  0  0
 24 25  1  0  0  0  0
 27 24  1  0  0  0  0
 27 29  1  0  0  0  0
 28 27  1  0  0  0  0
M  END
