4,6
 OpenBabel05122313053D

 45 48  0  0  1  0  0  0  0  0999 V2000
    1.0848   -3.2989    0.2569 O   0  0  0  0  0  0  0  0  0  0  0  0
    1.5876   -1.1136   -0.7126 C   0  0  2  0  0  0  0  0  0  0  0  0
    1.2488    0.2017   -0.0239 C   0  0  0  0  0  3  0  0  0  0  0  0
    0.2561    1.0825   -0.5424 C   0  0  2  0  0  3  0  0  0  0  0  0
   -1.0040    0.5319   -0.9558 C   0  0  0  0  0  3  0  0  0  0  0  0
   -1.4759   -0.7837   -0.6331 C   0  0  1  0  0  3  0  0  0  0  0  0
   -0.7223   -1.7812    0.0862 C   0  0  0  0  0  3  0  0  0  0  0  0
    0.6878   -2.2022   -0.1002 C   0  0  0  0  0  0  0  0  0  0  0  0
    3.0638   -1.4274   -0.6522 C   0  0  0  0  0  0  0  0  0  0  0  0
    3.6827   -1.7447    0.5744 C   0  0  0  0  0  0  0  0  0  0  0  0
    5.0598   -2.0004    0.6294 C   0  0  0  0  0  0  0  0  0  0  0  0
    5.8389   -1.9427   -0.5379 C   0  0  0  0  0  0  0  0  0  0  0  0
    5.2318   -1.6284   -1.7629 C   0  0  0  0  0  0  0  0  0  0  0  0
    3.8526   -1.3726   -1.8163 C   0  0  0  0  0  0  0  0  0  0  0  0
    0.5106    2.5442   -0.6918 C   0  0  0  0  0  0  0  0  0  0  0  0
    1.8258    2.9913   -0.9439 C   0  0  0  0  0  0  0  0  0  0  0  0
    2.0963    4.3544   -1.1298 C   0  0  0  0  0  0  0  0  0  0  0  0
    1.0556    5.2934   -1.0742 C   0  0  0  0  0  0  0  0  0  0  0  0
   -0.2586    4.8606   -0.8300 C   0  0  0  0  0  0  0  0  0  0  0  0
   -0.5279    3.5005   -0.6389 C   0  0  0  0  0  0  0  0  0  0  0  0
   -2.9008   -1.0961   -0.9671 C   0  0  0  0  0  0  0  0  0  0  0  0
   -3.9321   -0.1429   -0.8232 C   0  0  0  0  0  0  0  0  0  0  0  0
   -5.2504   -0.4590   -1.1740 C   0  0  0  0  0  0  0  0  0  0  0  0
   -5.5613   -1.7328   -1.6776 C   0  0  0  0  0  0  0  0  0  0  0  0
   -4.5450   -2.6894   -1.8226 C   0  0  0  0  0  0  0  0  0  0  0  0
   -3.2259   -2.3752   -1.4664 C   0  0  0  0  0  0  0  0  0  0  0  0
    1.2827   -1.0398   -1.7791 H   0  0  0  0  0  0  0  0  0  0  0  0
    2.0849    0.6701    0.5174 H   0  0  0  0  0  0  0  0  0  0  0  0
   -1.7171    1.1980   -1.4609 H   0  0  0  0  0  0  0  0  0  0  0  0
   -1.3287   -2.6026    0.4993 H   0  0  0  0  0  0  0  0  0  0  0  0
    3.0802   -1.8008    1.4932 H   0  0  0  0  0  0  0  0  0  0  0  0
    5.5283   -2.2523    1.5930 H   0  0  0  0  0  0  0  0  0  0  0  0
    6.9198   -2.1452   -0.4920 H   0  0  0  0  0  0  0  0  0  0  0  0
    5.8334   -1.5824   -2.6835 H   0  0  0  0  0  0  0  0  0  0  0  0
    3.3765   -1.1280   -2.7796 H   0  0  0  0  0  0  0  0  0  0  0  0
    2.6412    2.2562   -1.0174 H   0  0  0  0  0  0  0  0  0  0  0  0
    3.1277    4.6830   -1.3273 H   0  0  0  0  0  0  0  0  0  0  0  0
    1.2668    6.3635   -1.2198 H   0  0  0  0  0  0  0  0  0  0  0  0
   -1.0790    5.5917   -0.7747 H   0  0  0  0  0  0  0  0  0  0  0  0
   -1.5555    3.1789   -0.4125 H   0  0  0  0  0  0  0  0  0  0  0  0
   -3.7023    0.8453   -0.3967 H   0  0  0  0  0  0  0  0  0  0  0  0
   -6.0446    0.2908   -1.0404 H   0  0  0  0  0  0  0  0  0  0  0  0
   -6.5979   -1.9811   -1.9508 H   0  0  0  0  0  0  0  0  0  0  0  0
   -4.7792   -3.6895   -2.2174 H   0  0  0  0  0  0  0  0  0  0  0  0
   -2.4287   -3.1233   -1.5921 H   0  0  0  0  0  0  0  0  0  0  0  0
  2 27  1  6  0  0  0
  2  9  1  0  0  0  0
  2  8  1  0  0  0  0
  2  3  1  0  0  0  0
  3 28  1  0  0  0  0
  4 15  1  6  0  0  0
  4  3  1  0  0  0  0
  5  6  1  0  0  0  0
  5  4  1  0  0  0  0
  6 21  1  1  0  0  0
  6  7  1  0  0  0  0
  7 30  1  0  0  0  0
  8  7  1  0  0  0  0
  8  1  2  0  0  0  0
  9 10  1  0  0  0  0
 10 11  2  0  0  0  0
 10 31  1  0  0  0  0
 11 32  1  0  0  0  0
 12 33  1  0  0  0  0
 12 11  1  0  0  0  0
 13 12  2  0  0  0  0
 14 13  1  0  0  0  0
 14  9  2  0  0  0  0
 15 20  1  0  0  0  0
 16 15  2  0  0  0  0
 17 18  2  0  0  0  0
 17 16  1  0  0  0  0
 18 19  1  0  0  0  0
 19 39  1  0  0  0  0
 19 20  2  0  0  0  0
 20 40  1  0  0  0  0
 21 22  1  0  0  0  0
 22 41  1  0  0  0  0
 23 42  1  0  0  0  0
 23 22  2  0  0  0  0
 24 23  1  0  0  0  0
 25 24  2  0  0  0  0
 25 26  1  0  0  0  0
 26 21  2  0  0  0  0
 29  5  1  0  0  0  0
 34 13  1  0  0  0  0
 35 14  1  0  0  0  0
 36 16  1  0  0  0  0
 37 17  1  0  0  0  0
 38 18  1  0  0  0  0
 43 24  1  0  0  0  0
 44 25  1  0  0  0  0
 45 26  1  0  0  0  0
M  END
