1,6
 OpenBabel05122313053D

 21 21  0  0  1  0  0  0  0  0999 V2000
    1.7433    0.0921    1.4811 C   0  0  0  0  0  3  0  0  0  0  0  0
    2.6470   -1.1740    1.4290 C   0  0  0  0  0  0  0  0  0  0  0  0
    2.2227   -2.2229    2.4655 C   0  0  0  0  0  0  0  0  0  0  0  0
    4.1355   -0.8468    1.6087 C   0  0  0  0  0  0  0  0  0  0  0  0
    2.3474   -1.6507    0.0023 C   0  0  2  0  0  3  0  0  0  0  0  0
    2.7723   -0.9594   -1.1821 C   0  0  0  0  0  3  0  0  0  0  0  0
    1.9189   -1.3422   -2.2670 C   0  0  0  0  0  3  0  0  0  0  0  0
    0.9647   -2.2651   -1.7652 C   0  0  0  0  0  0  0  0  0  0  0  0
    1.2276   -2.4526   -0.3750 C   0  0  0  0  0  0  0  0  0  0  0  0
    1.0696    0.1027    2.3652 H   0  0  0  0  0  0  0  0  0  0  0  0
    2.3562    1.0146    1.5199 H   0  0  0  0  0  0  0  0  0  0  0  0
    1.1350   -2.4335    2.4159 H   0  0  0  0  0  0  0  0  0  0  0  0
    2.7625   -3.1819    2.3209 H   0  0  0  0  0  0  0  0  0  0  0  0
    2.4390   -1.8519    3.4878 H   0  0  0  0  0  0  0  0  0  0  0  0
    4.7701   -1.7463    1.4625 H   0  0  0  0  0  0  0  0  0  0  0  0
    4.4721   -0.0726    0.8898 H   0  0  0  0  0  0  0  0  0  0  0  0
    4.3181   -0.4511    2.6287 H   0  0  0  0  0  0  0  0  0  0  0  0
    3.6003   -0.2425   -1.2411 H   0  0  0  0  0  0  0  0  0  0  0  0
    2.0031   -1.0014   -3.3065 H   0  0  0  0  0  0  0  0  0  0  0  0
    0.1686   -2.7564   -2.3365 H   0  0  0  0  0  0  0  0  0  0  0  0
    0.6220   -3.0698    0.2981 H   0  0  0  0  0  0  0  0  0  0  0  0
  1 11  1  0  0  0  0
  1 10  1  0  0  0  0
  2  1  1  0  0  0  0
  2  4  1  0  0  0  0
  2  3  1  0  0  0  0
  3 14  1  0  0  0  0
  4 17  1  0  0  0  0
  5  2  1  1  0  0  0
  6  5  1  0  0  0  0
  7  8  1  0  0  0  0
  7  6  1  0  0  0  0
  8  9  2  0  0  0  0
  9  5  1  0  0  0  0
  9 21  1  0  0  0  0
 12  3  1  0  0  0  0
 13  3  1  0  0  0  0
 15  4  1  0  0  0  0
 16  4  1  0  0  0  0
 18  6  1  0  0  0  0
 19  7  1  0  0  0  0
 20  8  1  0  0  0  0
M  END
