5,10
 OpenBabel05122313053D

 49 50  0  0  0  0  0  0  0  0999 V2000
   -1.6451    3.0985    1.0822 O   0  0  0  0  0  0  0  0  0  0  0  0
   -0.9636    3.4343   -1.0569 O   0  0  0  0  0  0  0  0  0  0  0  0
    1.5635    3.1900    0.5789 O   0  0  0  0  0  0  0  0  0  0  0  0
    3.4290   -1.1672    0.3224 O   0  0  0  0  0  0  0  0  0  0  0  0
   -0.5348    0.3408   -0.1541 C   0  0  0  0  0  2  0  0  0  0  0  0
   -0.0177    1.5916    0.1031 C   0  0  0  0  0  0  0  0  0  0  0  0
    1.3691    1.8767    0.3773 C   0  0  0  0  0  0  0  0  0  0  0  0
    2.4385    0.9677    0.4402 C   0  0  0  0  0  0  0  0  0  0  0  0
    3.4198    1.3948    0.6843 H   0  0  0  0  0  0  0  0  0  0  0  0
    2.3212   -0.4170    0.2190 C   0  0  0  0  0  3  0  0  0  0  0  0
   -1.9782    0.2819   -0.5137 C   0  0  0  0  0  0  0  0  0  0  0  0
   -2.3638    0.4601   -1.8441 C   0  0  0  0  0  0  0  0  0  0  0  0
   -1.5985    0.7057   -2.5956 H   0  0  0  0  0  0  0  0  0  0  0  0
   -3.7151    0.2995   -2.2429 C   0  0  0  0  0  0  0  0  0  0  0  0
   -3.9825    0.4357   -3.3019 H   0  0  0  0  0  0  0  0  0  0  0  0
   -4.6875   -0.0399   -1.3155 C   0  0  0  0  0  0  0  0  0  0  0  0
   -5.7347   -0.1830   -1.6239 H   0  0  0  0  0  0  0  0  0  0  0  0
   -4.3467   -0.2004    0.0591 C   0  0  0  0  0  0  0  0  0  0  0  0
   -5.3259   -0.5242    1.0445 C   0  0  0  0  0  0  0  0  0  0  0  0
   -6.3690   -0.6664    0.7208 H   0  0  0  0  0  0  0  0  0  0  0  0
   -4.9806   -0.6533    2.3811 C   0  0  0  0  0  0  0  0  0  0  0  0
   -5.7488   -0.9055    3.1279 H   0  0  0  0  0  0  0  0  0  0  0  0
   -3.6370   -0.4464    2.7928 C   0  0  0  0  0  0  0  0  0  0  0  0
   -3.3714   -0.5294    3.8575 H   0  0  0  0  0  0  0  0  0  0  0  0
   -2.6606   -0.1299    1.8602 C   0  0  0  0  0  0  0  0  0  0  0  0
   -1.6297    0.0675    2.1843 H   0  0  0  0  0  0  0  0  0  0  0  0
   -2.9780   -0.0177    0.4758 C   0  0  0  0  0  0  0  0  0  0  0  0
   -0.9536    2.7827    0.1350 C   0  0  0  0  0  0  0  0  0  0  0  0
   -1.9056    4.5127   -1.1443 C   0  0  0  0  0  0  0  0  0  0  0  0
   -2.9372    4.1395   -0.9846 H   0  0  0  0  0  0  0  0  0  0  0  0
   -1.7990    4.9307   -2.1611 H   0  0  0  0  0  0  0  0  0  0  0  0
   -1.6916    5.2874   -0.3806 H   0  0  0  0  0  0  0  0  0  0  0  0
    2.8626    3.7654    0.7728 C   0  0  0  0  0  0  0  0  0  0  0  0
    3.5395    3.4275   -0.0441 H   0  0  0  0  0  0  0  0  0  0  0  0
    3.2811    3.4127    1.7413 H   0  0  0  0  0  0  0  0  0  0  0  0
    2.6916    5.2770    0.7498 C   0  0  0  0  0  0  0  0  0  0  0  0
    2.0015    5.5611    1.5724 H   0  0  0  0  0  0  0  0  0  0  0  0
    3.6761    5.7289    0.9961 H   0  0  0  0  0  0  0  0  0  0  0  0
    2.1709    5.8003   -0.5898 C   0  0  0  0  0  0  0  0  0  0  0  0
    1.2101    5.3145   -0.8523 H   0  0  0  0  0  0  0  0  0  0  0  0
    2.8876    5.5889   -1.4107 H   0  0  0  0  0  0  0  0  0  0  0  0
    2.0087    6.8955   -0.5581 H   0  0  0  0  0  0  0  0  0  0  0  0
    4.7291   -0.6260    0.6530 C   0  0  0  0  0  0  0  0  0  0  0  0
    4.6724   -0.1169    1.6403 H   0  0  0  0  0  0  0  0  0  0  0  0
    5.0130    0.1329   -0.1091 H   0  0  0  0  0  0  0  0  0  0  0  0
    5.7050   -1.7847    0.6773 C   0  0  0  0  0  0  0  0  0  0  0  0
    5.7401   -2.2887   -0.3082 H   0  0  0  0  0  0  0  0  0  0  0  0
    5.4059   -2.5338    1.4361 H   0  0  0  0  0  0  0  0  0  0  0  0
    6.7225   -1.4225    0.9235 H   0  0  0  0  0  0  0  0  0  0  0  0
  2 28  1  0  0  0  0
  3 33  1  0  0  0  0
  4 43  1  0  0  0  0
  5  6  1  0  0  0  0
  6 28  1  0  0  0  0
  6  7  2  0  0  0  0
  7  8  1  0  0  0  0
  7  3  1  0  0  0  0
  8  9  1  0  0  0  0
 10  4  1  0  0  0  0
 10  8  2  0  0  0  0
 11  5  1  0  0  0  0
 11 27  1  0  0  0  0
 12 11  2  0  0  0  0
 13 12  1  0  0  0  0
 14 12  1  0  0  0  0
 14 16  2  0  0  0  0
 15 14  1  0  0  0  0
 16 18  1  0  0  0  0
 17 16  1  0  0  0  0
 18 27  2  0  0  0  0
 18 19  1  0  0  0  0
 19 21  2  0  0  0  0
 20 19  1  0  0  0  0
 21 23  1  0  0  0  0
 21 22  1  0  0  0  0
 23 24  1  0  0  0  0
 25 26  1  0  0  0  0
 25 23  2  0  0  0  0
 27 25  1  0  0  0  0
 28  1  2  0  0  0  0
 29  2  1  0  0  0  0
 29 30  1  0  0  0  0
 29 32  1  0  0  0  0
 31 29  1  0  0  0  0
 33 35  1  0  0  0  0
 34 33  1  0  0  0  0
 36 33  1  0  0  0  0
 36 38  1  0  0  0  0
 36 37  1  0  0  0  0
 39 42  1  0  0  0  0
 39 36  1  0  0  0  0
 40 39  1  0  0  0  0
 41 39  1  0  0  0  0
 43 46  1  0  0  0  0
 43 44  1  0  0  0  0
 45 43  1  0  0  0  0
 46 49  1  0  0  0  0
 46 48  1  0  0  0  0
 47 46  1  0  0  0  0
M  END
