3,13
 OpenBabel05122313053D

 24 24  0  0  0  0  0  0  0  0999 V2000
   -1.4506   -0.2682   -1.6479 O   0  0  0  0  0  0  0  0  0  0  0  0
   -2.3646   -2.2192   -2.1791 O   0  0  0  0  0  0  0  0  0  0  0  0
   -0.5963    0.4494   -0.8811 C   0  0  0  0  0  2  0  0  0  0  0  0
   -0.6721    1.8730   -1.2667 C   0  0  0  0  0  0  0  0  0  0  0  0
   -1.9093    2.4342   -1.6674 C   0  0  0  0  0  0  0  0  0  0  0  0
   -1.9981    3.7909   -1.9990 C   0  0  0  0  0  0  0  0  0  0  0  0
   -0.8518    4.6030   -1.9697 C   0  0  0  0  0  0  0  0  0  0  0  0
    0.3856    4.0497   -1.5996 C   0  0  0  0  0  0  0  0  0  0  0  0
    0.4746    2.6997   -1.2397 C   0  0  0  0  0  0  0  0  0  0  0  0
   -1.4665   -1.6295   -1.3507 C   0  0  0  0  0  0  0  0  0  0  0  0
   -2.4882   -3.6303   -2.0286 C   0  0  0  0  0  0  0  0  0  0  0  0
   -3.5208   -4.1269   -3.0210 C   0  0  0  0  0  0  0  0  0  0  0  0
   -0.6458   -2.0680   -0.3710 C   0  0  0  0  0  3  0  0  0  0  0  0
   -2.8025    1.7944   -1.6845 H   0  0  0  0  0  0  0  0  0  0  0  0
   -2.9717    4.2195   -2.2822 H   0  0  0  0  0  0  0  0  0  0  0  0
   -0.9223    5.6688   -2.2357 H   0  0  0  0  0  0  0  0  0  0  0  0
    1.2898    4.6767   -1.5852 H   0  0  0  0  0  0  0  0  0  0  0  0
    1.4430    2.2680   -0.9503 H   0  0  0  0  0  0  0  0  0  0  0  0
   -1.4954   -4.1108   -2.1966 H   0  0  0  0  0  0  0  0  0  0  0  0
   -2.7839   -3.8697   -0.9794 H   0  0  0  0  0  0  0  0  0  0  0  0
   -3.2130   -3.8930   -4.0593 H   0  0  0  0  0  0  0  0  0  0  0  0
   -3.6422   -5.2243   -2.9309 H   0  0  0  0  0  0  0  0  0  0  0  0
   -4.5043   -3.6504   -2.8378 H   0  0  0  0  0  0  0  0  0  0  0  0
   -0.6136   -3.1332   -0.0925 H   0  0  0  0  0  0  0  0  0  0  0  0
  1 10  1  0  0  0  0
  1  3  1  0  0  0  0
  2 11  1  0  0  0  0
  2 10  1  0  0  0  0
  4  9  1  0  0  0  0
  4  3  1  0  0  0  0
  5  4  2  0  0  0  0
  6  7  2  0  0  0  0
  6  5  1  0  0  0  0
  7  8  1  0  0  0  0
  8 17  1  0  0  0  0
  8  9  2  0  0  0  0
  9 18  1  0  0  0  0
 10 13  2  0  0  0  0
 11 20  1  0  0  0  0
 12 22  1  0  0  0  0
 12 23  1  0  0  0  0
 12 11  1  0  0  0  0
 13 24  1  0  0  0  0
 14  5  1  0  0  0  0
 15  6  1  0  0  0  0
 16  7  1  0  0  0  0
 19 11  1  0  0  0  0
 21 12  1  0  0  0  0
M  END
