2,8
 OpenBabel05122313053D

 54 57  0  0  1  0  0  0  0  0999 V2000
    0.8530   -1.1469   -1.0339 C   0  0  2  0  0  3  0  0  0  0  0  0
    1.8472   -0.6980   -2.0009 C   0  0  0  0  0  3  0  0  0  0  0  0
    1.7515    0.1744   -2.6580 H   0  0  0  0  0  0  0  0  0  0  0  0
    2.8881   -1.6742   -2.0591 C   0  0  0  0  0  0  0  0  0  0  0  0
    3.7556   -1.6425   -2.7273 H   0  0  0  0  0  0  0  0  0  0  0  0
    2.6020   -2.6930   -1.0847 C   0  0  0  0  0  0  0  0  0  0  0  0
    3.2271   -3.5672   -0.8698 H   0  0  0  0  0  0  0  0  0  0  0  0
    1.3677   -2.3819   -0.4468 C   0  0  0  0  0  3  0  0  0  0  0  0
    0.8966   -2.9593    0.3567 H   0  0  0  0  0  0  0  0  0  0  0  0
   -0.4022   -0.5204   -0.7252 C   0  0  1  0  0  3  0  0  0  0  0  0
   -1.6033   -1.1577   -0.4954 N   0  0  0  0  0  0  0  0  0  0  0  0
   -1.8891   -2.5111   -0.5659 C   0  0  0  0  0  0  0  0  0  0  0  0
   -1.0537   -3.1634   -0.8468 H   0  0  0  0  0  0  0  0  0  0  0  0
   -3.1614   -2.9475   -0.3004 C   0  0  0  0  0  0  0  0  0  0  0  0
   -3.3451   -4.0284   -0.3689 H   0  0  0  0  0  0  0  0  0  0  0  0
   -4.2340   -2.0511    0.0504 C   0  0  0  0  0  0  0  0  0  0  0  0
   -3.9344   -0.6953    0.0806 C   0  0  0  0  0  0  0  0  0  0  0  0
   -4.6957    0.0570    0.3224 H   0  0  0  0  0  0  0  0  0  0  0  0
   -2.6296   -0.2328   -0.2009 C   0  0  0  0  0  0  0  0  0  0  0  0
   -2.0363    1.0434   -0.2778 C   0  0  0  0  0  0  0  0  0  0  0  0
   -2.5099    2.3610   -0.0903 C   0  0  0  0  0  0  0  0  0  0  0  0
   -3.5769    2.4920    0.1289 H   0  0  0  0  0  0  0  0  0  0  0  0
   -1.6412    3.4442   -0.1648 C   0  0  0  0  0  0  0  0  0  0  0  0
   -0.2536    3.1558   -0.4148 C   0  0  0  0  0  0  0  0  0  0  0  0
    0.4962    3.9586   -0.4223 H   0  0  0  0  0  0  0  0  0  0  0  0
    0.2105    1.8836   -0.6280 C   0  0  0  0  0  0  0  0  0  0  0  0
    1.2692    1.6168   -0.7562 H   0  0  0  0  0  0  0  0  0  0  0  0
   -0.6811    0.8264   -0.5905 N   0  0  0  0  0  0  0  0  0  0  0  0
   -5.6223   -2.6180    0.3638 C   0  0  0  0  0  0  0  0  0  0  0  0
   -6.1435   -3.3925   -0.8692 C   0  0  0  0  0  0  0  0  0  0  0  0
   -7.1443   -3.8204   -0.6564 H   0  0  0  0  0  0  0  0  0  0  0  0
   -5.4757   -4.2321   -1.1470 H   0  0  0  0  0  0  0  0  0  0  0  0
   -6.2339   -2.7248   -1.7495 H   0  0  0  0  0  0  0  0  0  0  0  0
   -5.5118   -3.5778    1.5715 C   0  0  0  0  0  0  0  0  0  0  0  0
   -6.5054   -4.0093    1.8094 H   0  0  0  0  0  0  0  0  0  0  0  0
   -5.1426   -3.0447    2.4705 H   0  0  0  0  0  0  0  0  0  0  0  0
   -4.8215   -4.4212    1.3706 H   0  0  0  0  0  0  0  0  0  0  0  0
   -6.6280   -1.5073    0.7082 C   0  0  0  0  0  0  0  0  0  0  0  0
   -7.6177   -1.9530    0.9303 H   0  0  0  0  0  0  0  0  0  0  0  0
   -6.7650   -0.7990   -0.1338 H   0  0  0  0  0  0  0  0  0  0  0  0
   -6.3155   -0.9315    1.6026 H   0  0  0  0  0  0  0  0  0  0  0  0
   -2.0871    4.8969    0.0282 C   0  0  0  0  0  0  0  0  0  0  0  0
   -1.7425    5.6998   -1.2478 C   0  0  0  0  0  0  0  0  0  0  0  0
   -2.0425    6.7603   -1.1238 H   0  0  0  0  0  0  0  0  0  0  0  0
   -2.2742    5.2919   -2.1310 H   0  0  0  0  0  0  0  0  0  0  0  0
   -0.6566    5.6831   -1.4670 H   0  0  0  0  0  0  0  0  0  0  0  0
   -1.3336    5.4961    1.2388 C   0  0  0  0  0  0  0  0  0  0  0  0
   -1.6343    6.5530    1.3889 H   0  0  0  0  0  0  0  0  0  0  0  0
   -0.2352    5.4784    1.0963 H   0  0  0  0  0  0  0  0  0  0  0  0
   -1.5629    4.9358    2.1672 H   0  0  0  0  0  0  0  0  0  0  0  0
   -3.5990    5.0033    0.2854 C   0  0  0  0  0  0  0  0  0  0  0  0
   -3.8836    6.0664    0.4128 H   0  0  0  0  0  0  0  0  0  0  0  0
   -3.8991    4.4680    1.2089 H   0  0  0  0  0  0  0  0  0  0  0  0
   -4.1910    4.6003   -0.5614 H   0  0  0  0  0  0  0  0  0  0  0  0
  1  2  1  6  0  0  0
  1 10  1  0  0  0  0
  1  8  1  0  0  0  0
  3  2  1  0  0  0  0
  4  2  1  0  0  0  0
  4  6  2  0  0  0  0
  5  4  1  0  0  0  0
  6  7  1  0  0  0  0
  6  8  1  0  0  0  0
  8  9  1  0  0  0  0
 10 28  1  1  0  0  0
 10 11  1  0  0  0  0
 11 19  1  0  0  0  0
 12 11  1  0  0  0  0
 12 14  2  0  0  0  0
 13 12  1  0  0  0  0
 14 16  1  0  0  0  0
 15 14  1  0  0  0  0
 16 17  2  0  0  0  0
 16 29  1  0  0  0  0
 17 18  1  0  0  0  0
 19 17  1  0  0  0  0
 20 19  2  0  0  0  0
 20 21  1  0  0  0  0
 21 22  1  0  0  0  0
 23 21  2  0  0  0  0
 23 42  1  0  0  0  0
 24 23  1  0  0  0  0
 25 24  1  0  0  0  0
 26 28  1  0  0  0  0
 26 24  2  0  0  0  0
 27 26  1  0  0  0  0
 28 20  1  0  0  0  0
 29 38  1  0  0  0  0
 29 34  1  0  0  0  0
 30 31  1  0  0  0  0
 30 29  1  0  0  0  0
 32 30  1  0  0  0  0
 33 30  1  0  0  0  0
 34 35  1  0  0  0  0
 34 36  1  0  0  0  0
 37 34  1  0  0  0  0
 38 39  1  0  0  0  0
 38 41  1  0  0  0  0
 40 38  1  0  0  0  0
 42 51  1  0  0  0  0
 42 47  1  0  0  0  0
 43 44  1  0  0  0  0
 43 42  1  0  0  0  0
 45 43  1  0  0  0  0
 46 43  1  0  0  0  0
 47 48  1  0  0  0  0
 47 50  1  0  0  0  0
 49 47  1  0  0  0  0
 51 52  1  0  0  0  0
 51 53  1  0  0  0  0
 54 51  1  0  0  0  0
M  END
