3,21
 OpenBabel05122313053D

 51 53  0  0  0  0  0  0  0  0999 V2000
   -0.7605   -2.1670    0.1743 N   0  0  0  0  0  0  0  0  0  0  0  0
    1.5438   -1.8367    0.0652 N   0  0  0  0  0  0  0  0  0  0  0  0
    0.2913   -1.3174   -0.0016 C   0  0  0  0  0  2  0  0  0  0  0  0
   -0.6086   -3.6243    0.2986 C   0  0  0  0  0  0  0  0  0  0  0  0
   -1.5005   -4.0985   -0.1565 H   0  0  0  0  0  0  0  0  0  0  0  0
   -0.5844   -3.9295    1.3680 H   0  0  0  0  0  0  0  0  0  0  0  0
    0.6728   -4.0725   -0.3957 C   0  0  0  0  0  0  0  0  0  0  0  0
    0.8383   -5.1561   -0.2345 H   0  0  0  0  0  0  0  0  0  0  0  0
    0.5848   -3.9021   -1.4893 H   0  0  0  0  0  0  0  0  0  0  0  0
    1.8459   -3.2715    0.1544 C   0  0  0  0  0  0  0  0  0  0  0  0
    2.0560   -3.5604    1.2102 H   0  0  0  0  0  0  0  0  0  0  0  0
    2.7734   -3.4632   -0.4229 H   0  0  0  0  0  0  0  0  0  0  0  0
   -2.0706   -1.6038   -0.0188 C   0  0  0  0  0  0  0  0  0  0  0  0
   -2.2481   -0.7609   -1.1599 C   0  0  0  0  0  0  0  0  0  0  0  0
   -3.5183   -0.1694   -1.3290 C   0  0  0  0  0  0  0  0  0  0  0  0
   -3.6804    0.4714   -2.2103 H   0  0  0  0  0  0  0  0  0  0  0  0
   -4.5716   -0.3681   -0.4149 C   0  0  0  0  0  0  0  0  0  0  0  0
   -4.3402   -1.1794    0.7073 C   0  0  0  0  0  0  0  0  0  0  0  0
   -5.1420   -1.3218    1.4497 H   0  0  0  0  0  0  0  0  0  0  0  0
   -3.0891   -1.7979    0.9315 C   0  0  0  0  0  0  0  0  0  0  0  0
   -1.0979   -0.4577   -2.0448 C   0  0  0  0  0  3  0  0  0  0  0  0
   -1.3800    0.1857   -2.8983 H   0  0  0  0  0  0  0  0  0  0  0  0
   -0.5886   -1.3700   -2.4228 H   0  0  0  0  0  0  0  0  0  0  0  0
   -5.9084    0.2946   -0.6400 C   0  0  0  0  0  0  0  0  0  0  0  0
   -6.3672   -0.0362   -1.5957 H   0  0  0  0  0  0  0  0  0  0  0  0
   -5.8046    1.3983   -0.7028 H   0  0  0  0  0  0  0  0  0  0  0  0
   -6.6226    0.0662    0.1749 H   0  0  0  0  0  0  0  0  0  0  0  0
   -2.8523   -2.5765    2.2024 C   0  0  0  0  0  0  0  0  0  0  0  0
   -2.8862   -3.6760    2.0467 H   0  0  0  0  0  0  0  0  0  0  0  0
   -3.6223   -2.3321    2.9591 H   0  0  0  0  0  0  0  0  0  0  0  0
   -1.8589   -2.3390    2.6357 H   0  0  0  0  0  0  0  0  0  0  0  0
    2.6542   -0.9196    0.0451 C   0  0  0  0  0  0  0  0  0  0  0  0
    3.1662   -0.4476    1.2741 C   0  0  0  0  0  0  0  0  0  0  0  0
    4.2520    0.4463    1.2432 C   0  0  0  0  0  0  0  0  0  0  0  0
    4.6496    0.8317    2.1962 H   0  0  0  0  0  0  0  0  0  0  0  0
    4.8371    0.8628    0.0338 C   0  0  0  0  0  0  0  0  0  0  0  0
    4.3121    0.3534   -1.1698 C   0  0  0  0  0  0  0  0  0  0  0  0
    4.7583    0.6651   -2.1282 H   0  0  0  0  0  0  0  0  0  0  0  0
    3.2258   -0.5377   -1.1905 C   0  0  0  0  0  0  0  0  0  0  0  0
    2.5397   -0.8712    2.5777 C   0  0  0  0  0  0  0  0  0  0  0  0
    2.9301   -0.2717    3.4219 H   0  0  0  0  0  0  0  0  0  0  0  0
    2.7438   -1.9390    2.8059 H   0  0  0  0  0  0  0  0  0  0  0  0
    1.4374   -0.7521    2.5424 H   0  0  0  0  0  0  0  0  0  0  0  0
    5.9752    1.8526    0.0190 C   0  0  0  0  0  0  0  0  0  0  0  0
    6.7272    1.5984   -0.7547 H   0  0  0  0  0  0  0  0  0  0  0  0
    6.4895    1.9007    0.9986 H   0  0  0  0  0  0  0  0  0  0  0  0
    5.6084    2.8760   -0.2117 H   0  0  0  0  0  0  0  0  0  0  0  0
    2.6477   -1.0358   -2.4883 C   0  0  0  0  0  0  0  0  0  0  0  0
    3.2415   -0.6863   -3.3537 H   0  0  0  0  0  0  0  0  0  0  0  0
    1.6058   -0.6659   -2.5960 H   0  0  0  0  0  0  0  0  0  0  0  0
    2.6003   -2.1441   -2.5268 H   0  0  0  0  0  0  0  0  0  0  0  0
  1  4  1  0  0  0  0
  2 10  1  0  0  0  0
  3  2  1  0  0  0  0
  3  1  1  0  0  0  0
  4  6  1  0  0  0  0
  5  4  1  0  0  0  0
  7  8  1  0  0  0  0
  7 10  1  0  0  0  0
  7  4  1  0  0  0  0
  9  7  1  0  0  0  0
 10 11  1  0  0  0  0
 12 10  1  0  0  0  0
 13  1  1  0  0  0  0
 13 20  1  0  0  0  0
 14 13  2  0  0  0  0
 15 14  1  0  0  0  0
 15 17  2  0  0  0  0
 16 15  1  0  0  0  0
 17 18  1  0  0  0  0
 18 20  2  0  0  0  0
 18 19  1  0  0  0  0
 20 28  1  0  0  0  0
 21 14  1  0  0  0  0
 22 21  1  0  0  0  0
 23 21  1  0  0  0  0
 24 17  1  0  0  0  0
 24 27  1  0  0  0  0
 25 24  1  0  0  0  0
 26 24  1  0  0  0  0
 28 31  1  0  0  0  0
 28 30  1  0  0  0  0
 29 28  1  0  0  0  0
 32  2  1  0  0  0  0
 32 33  1  0  0  0  0
 33 40  1  0  0  0  0
 34 33  2  0  0  0  0
 34 35  1  0  0  0  0
 36 34  1  0  0  0  0
 37 36  2  0  0  0  0
 38 37  1  0  0  0  0
 39 37  1  0  0  0  0
 39 32  2  0  0  0  0
 40 42  1  0  0  0  0
 40 41  1  0  0  0  0
 43 40  1  0  0  0  0
 44 36  1  0  0  0  0
 44 46  1  0  0  0  0
 45 44  1  0  0  0  0
 47 44  1  0  0  0  0
 48 39  1  0  0  0  0
 49 48  1  0  0  0  0
 50 48  1  0  0  0  0
 51 48  1  0  0  0  0
M  END
