11
 OpenBabel05122313053D

 58 60  0  0  1  0  0  0  0  0999 V2000
   -0.1342    2.1963    1.4742 C   0  0  2  0  0  0  0  0  0  0  0  0
    1.0137    1.1910    1.4309 C   0  0  2  0  0  3  0  0  0  0  0  0
    1.9516    1.0063    0.3704 C   0  0  0  0  0  3  0  0  0  0  0  0
    2.5858   -0.2740    0.5091 C   0  0  0  0  0  0  0  0  0  0  0  0
    1.9902   -0.8991    1.6333 C   0  0  0  0  0  0  0  0  0  0  0  0
    1.0204   -0.0231    2.1931 C   0  0  0  0  0  3  0  0  0  0  0  0
    3.7792   -0.8136   -0.2686 C   0  0  0  0  0  0  0  0  0  0  0  0
    3.5341   -2.2710   -0.7107 C   0  0  0  0  0  0  0  0  0  0  0  0
    4.9928   -0.7701    0.6927 C   0  0  0  0  0  0  0  0  0  0  0  0
    4.0866    0.0622   -1.4958 C   0  0  0  0  0  0  0  0  0  0  0  0
   -1.2105    1.2906    0.8872 C   0  0  2  0  0  3  0  0  0  0  0  0
   -1.8748    0.0759    1.2338 C   0  0  0  0  0  0  0  0  0  0  0  0
   -2.4089   -0.4839    0.0158 C   0  0  0  0  0  0  0  0  0  0  0  0
   -1.9767    0.3411   -1.0630 C   0  0  0  0  0  0  0  0  0  0  0  0
   -1.2511    1.4406   -0.5211 C   0  0  0  0  0  0  0  0  0  0  0  0
   -3.4306   -1.6083   -0.1084 C   0  0  0  0  0  0  0  0  0  0  0  0
   -3.5363   -2.4204    1.1947 C   0  0  0  0  0  0  0  0  0  0  0  0
   -3.0992   -2.5376   -1.2927 C   0  0  0  0  0  0  0  0  0  0  0  0
   -4.7944   -0.9201   -0.3718 C   0  0  0  0  0  0  0  0  0  0  0  0
    0.0033    3.2850    0.3599 C   0  0  0  0  0  0  0  0  0  0  0  0
   -0.3953    2.7661    2.8672 C   0  0  0  0  0  0  0  0  0  0  0  0
   -0.7022    2.7842   -0.9643 C   0  0  0  0  0  0  0  0  0  0  0  0
    0.2126    2.7700   -2.1968 C   0  0  0  0  0  0  0  0  0  0  0  0
   -1.9228    3.6861   -1.2710 C   0  0  0  0  0  0  0  0  0  0  0  0
    0.3800   -0.2533    3.0527 H   0  0  0  0  0  0  0  0  0  0  0  0
    2.2080   -1.9091    1.9958 H   0  0  0  0  0  0  0  0  0  0  0  0
    2.1632    1.7242   -0.4267 H   0  0  0  0  0  0  0  0  0  0  0  0
    1.0656    3.5461    0.1885 H   0  0  0  0  0  0  0  0  0  0  0  0
   -0.4907    4.2126    0.7106 H   0  0  0  0  0  0  0  0  0  0  0  0
   -2.1718    0.1514   -2.1238 H   0  0  0  0  0  0  0  0  0  0  0  0
   -2.0023   -0.3519    2.2337 H   0  0  0  0  0  0  0  0  0  0  0  0
    2.6793   -2.3303   -1.4104 H   0  0  0  0  0  0  0  0  0  0  0  0
    3.3123   -2.9286    0.1533 H   0  0  0  0  0  0  0  0  0  0  0  0
    4.4380   -2.6698   -1.2150 H   0  0  0  0  0  0  0  0  0  0  0  0
    5.1825    0.2616    1.0528 H   0  0  0  0  0  0  0  0  0  0  0  0
    5.9050   -1.1268    0.1710 H   0  0  0  0  0  0  0  0  0  0  0  0
    4.8302   -1.4164    1.5787 H   0  0  0  0  0  0  0  0  0  0  0  0
    3.2241    0.0903   -2.1886 H   0  0  0  0  0  0  0  0  0  0  0  0
    4.9588   -0.3484   -2.0433 H   0  0  0  0  0  0  0  0  0  0  0  0
    4.3404    1.1008   -1.1992 H   0  0  0  0  0  0  0  0  0  0  0  0
   -0.5216    1.9612    3.6181 H   0  0  0  0  0  0  0  0  0  0  0  0
   -1.3184    3.3797    2.8687 H   0  0  0  0  0  0  0  0  0  0  0  0
    0.4507    3.4031    3.1948 H   0  0  0  0  0  0  0  0  0  0  0  0
   -2.6189    3.7232   -0.4091 H   0  0  0  0  0  0  0  0  0  0  0  0
   -2.4847    3.3067   -2.1483 H   0  0  0  0  0  0  0  0  0  0  0  0
   -1.5901    4.7207   -1.4966 H   0  0  0  0  0  0  0  0  0  0  0  0
    1.0794    2.0964   -2.0750 H   0  0  0  0  0  0  0  0  0  0  0  0
    0.5766    3.7946   -2.4157 H   0  0  0  0  0  0  0  0  0  0  0  0
   -0.3404    2.4101   -3.0875 H   0  0  0  0  0  0  0  0  0  0  0  0
   -3.8761   -1.7856    2.0388 H   0  0  0  0  0  0  0  0  0  0  0  0
   -2.5639   -2.8759    1.4605 H   0  0  0  0  0  0  0  0  0  0  0  0
   -4.2813   -3.2323    1.0725 H   0  0  0  0  0  0  0  0  0  0  0  0
   -3.0643   -1.9798   -2.2501 H   0  0  0  0  0  0  0  0  0  0  0  0
   -3.8813   -3.3178   -1.3909 H   0  0  0  0  0  0  0  0  0  0  0  0
   -2.1201   -3.0300   -1.1436 H   0  0  0  0  0  0  0  0  0  0  0  0
   -5.0545   -0.2191    0.4475 H   0  0  0  0  0  0  0  0  0  0  0  0
   -5.5978   -1.6826   -0.4414 H   0  0  0  0  0  0  0  0  0  0  0  0
   -4.7807   -0.3464   -1.3203 H   0  0  0  0  0  0  0  0  0  0  0  0
  1 21  1  1  0  0  0
  2  3  1  6  0  0  0
  2  1  1  0  0  0  0
  2  6  1  0  0  0  0
  3  4  1  0  0  0  0
  4  5  2  0  0  0  0
  5 26  1  0  0  0  0
  5  6  1  0  0  0  0
  6 25  1  0  0  0  0
  7  4  1  0  0  0  0
  7  9  1  0  0  0  0
  8  7  1  0  0  0  0
  8 33  1  0  0  0  0
  9 35  1  0  0  0  0
  9 37  1  0  0  0  0
 10 40  1  0  0  0  0
 10  7  1  0  0  0  0
 11 15  1  6  0  0  0
 11 12  1  0  0  0  0
 11  1  1  0  0  0  0
 12 31  1  0  0  0  0
 13 12  2  0  0  0  0
 14 15  2  0  0  0  0
 14 13  1  0  0  0  0
 16 13  1  0  0  0  0
 16 17  1  0  0  0  0
 17 51  1  0  0  0  0
 17 50  1  0  0  0  0
 18 55  1  0  0  0  0
 18 16  1  0  0  0  0
 19 16  1  0  0  0  0
 19 56  1  0  0  0  0
 20 29  1  0  0  0  0
 20  1  1  0  0  0  0
 21 42  1  0  0  0  0
 21 43  1  0  0  0  0
 21 41  1  0  0  0  0
 22 15  1  0  0  0  0
 22 20  1  0  0  0  0
 23 47  1  0  0  0  0
 23 22  1  0  0  0  0
 24 22  1  0  0  0  0
 24 44  1  0  0  0  0
 27  3  1  0  0  0  0
 28 20  1  0  0  0  0
 30 14  1  0  0  0  0
 32  8  1  0  0  0  0
 34  8  1  0  0  0  0
 36  9  1  0  0  0  0
 38 10  1  0  0  0  0
 39 10  1  0  0  0  0
 45 24  1  0  0  0  0
 46 24  1  0  0  0  0
 48 23  1  0  0  0  0
 49 23  1  0  0  0  0
 52 17  1  0  0  0  0
 53 18  1  0  0  0  0
 54 18  1  0  0  0  0
 57 19  1  0  0  0  0
 58 19  1  0  0  0  0
M  END
