1,4
 OpenBabel05122313053D

 16 16  0  0  1  0  0  0  0  0999 V2000
   -1.4213   -1.2660    0.3205 C   0  0  1  0  0  3  0  0  0  0  0  0
   -0.7012   -1.4902   -0.9058 C   0  0  0  0  0  0  0  0  0  0  0  0
    0.7043   -1.4894   -0.9067 C   0  0  0  0  0  0  0  0  0  0  0  0
    1.4245   -1.2628    0.3191 C   0  0  2  0  0  3  0  0  0  0  0  0
    0.7136   -1.0721    1.5375 C   0  0  0  0  0  0  0  0  0  0  0  0
   -0.7091   -1.0724    1.5377 C   0  0  0  0  0  0  0  0  0  0  0  0
   -2.9052   -1.1433    0.2913 C   0  0  0  0  0  0  0  0  0  0  0  0
   -3.5768   -1.3138   -0.7093 O   0  0  0  0  0  0  0  0  0  0  0  0
    2.9086   -1.1393    0.2892 C   0  0  0  0  0  0  0  0  0  0  0  0
    3.5798   -1.3122   -0.7111 O   0  0  0  0  0  0  0  0  0  0  0  0
   -1.2853   -1.6006   -1.8305 H   0  0  0  0  0  0  0  0  0  0  0  0
    1.2877   -1.5990   -1.8319 H   0  0  0  0  0  0  0  0  0  0  0  0
    1.2717   -0.8642    2.4627 H   0  0  0  0  0  0  0  0  0  0  0  0
   -1.2666   -0.8650    2.4634 H   0  0  0  0  0  0  0  0  0  0  0  0
   -3.3692   -0.8744    1.2863 H   0  0  0  0  0  0  0  0  0  0  0  0
    3.3731   -0.8713    1.2842 H   0  0  0  0  0  0  0  0  0  0  0  0
  1  7  1  6  0  0  0
  1  6  1  0  0  0  0
  2  1  1  0  0  0  0
  3  2  2  0  0  0  0
  3  4  1  0  0  0  0
  4  9  1  6  0  0  0
  4  5  1  0  0  0  0
  5  6  2  0  0  0  0
  5 13  1  0  0  0  0
  6 14  1  0  0  0  0
  7 15  1  0  0  0  0
  8  7  2  0  0  0  0
  9 16  1  0  0  0  0
 10  9  2  0  0  0  0
 11  2  1  0  0  0  0
 12  3  1  0  0  0  0
M  END
