5,8
 OpenBabel05122313053D

 32 32  0  0  1  0  0  0  0  0999 V2000
    2.3215   -1.6038   -1.6150 F   0  0  0  0  0  0  0  0  0  0  0  0
    3.4014   -3.1573    0.3843 F   0  0  0  0  0  0  0  0  0  0  0  0
    2.3893   -4.1750   -1.2546 F   0  0  0  0  0  0  0  0  0  0  0  0
    1.4629   -4.1251    0.7099 F   0  0  0  0  0  0  0  0  0  0  0  0
    1.4633   -2.0977   -0.5765 C   0  0  1  0  0  3  0  0  0  0  0  0
    0.0615   -2.2585   -1.0469 C   0  0  0  0  0  0  0  0  0  0  0  0
   -0.2753   -2.9092   -1.8794 H   0  0  0  0  0  0  0  0  0  0  0  0
   -0.6234   -1.3862   -0.2652 C   0  0  0  0  0  3  0  0  0  0  0  0
   -2.0479   -1.0505   -0.2649 C   0  0  0  0  0  0  0  0  0  0  0  0
   -2.9946   -1.8397   -0.9677 C   0  0  0  0  0  0  0  0  0  0  0  0
   -2.6573   -2.7480   -1.4894 H   0  0  0  0  0  0  0  0  0  0  0  0
   -4.3450   -1.4881   -0.9971 C   0  0  0  0  0  0  0  0  0  0  0  0
   -5.0437   -2.1330   -1.5525 H   0  0  0  0  0  0  0  0  0  0  0  0
   -4.8327   -0.3359   -0.3337 C   0  0  0  0  0  0  0  0  0  0  0  0
   -3.8929    0.4414    0.3705 C   0  0  0  0  0  0  0  0  0  0  0  0
   -4.2123    1.3457    0.9066 H   0  0  0  0  0  0  0  0  0  0  0  0
   -2.5361    0.0890    0.4096 C   0  0  0  0  0  0  0  0  0  0  0  0
   -1.8234    0.7156    0.9626 H   0  0  0  0  0  0  0  0  0  0  0  0
   -6.3290    0.0118   -0.3986 C   0  0  0  0  0  0  0  0  0  0  0  0
   -7.1470   -1.1476    0.2152 C   0  0  0  0  0  0  0  0  0  0  0  0
   -6.9792   -2.1004   -0.3248 H   0  0  0  0  0  0  0  0  0  0  0  0
   -8.2327   -0.9216    0.1718 H   0  0  0  0  0  0  0  0  0  0  0  0
   -6.8699   -1.3084    1.2766 H   0  0  0  0  0  0  0  0  0  0  0  0
   -6.7416    0.2088   -1.8755 C   0  0  0  0  0  0  0  0  0  0  0  0
   -6.5622   -0.7031   -2.4786 H   0  0  0  0  0  0  0  0  0  0  0  0
   -6.1693    1.0377   -2.3391 H   0  0  0  0  0  0  0  0  0  0  0  0
   -7.8218    0.4529   -1.9468 H   0  0  0  0  0  0  0  0  0  0  0  0
   -6.6593    1.3010    0.3731 C   0  0  0  0  0  0  0  0  0  0  0  0
   -6.4107    1.2125    1.4498 H   0  0  0  0  0  0  0  0  0  0  0  0
   -7.7442    1.5165    0.2978 H   0  0  0  0  0  0  0  0  0  0  0  0
   -6.1159    2.1767   -0.0359 H   0  0  0  0  0  0  0  0  0  0  0  0
    2.1770   -3.3826   -0.1712 C   0  0  0  0  0  0  0  0  0  0  0  0
  3 32  1  0  0  0  0
  5  1  1  6  0  0  0
  5 32  1  0  0  0  0
  6  5  1  0  0  0  0
  6  8  2  0  0  0  0
  7  6  1  0  0  0  0
  8  9  1  0  0  0  0
  9 17  1  0  0  0  0
 10  9  2  0  0  0  0
 11 10  1  0  0  0  0
 12 10  1  0  0  0  0
 12 14  2  0  0  0  0
 13 12  1  0  0  0  0
 14 15  1  0  0  0  0
 15 17  2  0  0  0  0
 15 16  1  0  0  0  0
 17 18  1  0  0  0  0
 19 14  1  0  0  0  0
 19 20  1  0  0  0  0
 19 28  1  0  0  0  0
 20 23  1  0  0  0  0
 21 20  1  0  0  0  0
 22 20  1  0  0  0  0
 24 19  1  0  0  0  0
 25 24  1  0  0  0  0
 26 24  1  0  0  0  0
 27 24  1  0  0  0  0
 28 29  1  0  0  0  0
 30 28  1  0  0  0  0
 31 28  1  0  0  0  0
 32  2  1  0  0  0  0
 32  4  1  0  0  0  0
M  END
