6,21
 OpenBabel05122313053D

 35 36  0  0  0  0  0  0  0  0999 V2000
    0.1259   -2.3930   -1.5117 O   0  0  0  0  0  0  0  0  0  0  0  0
    2.1607    2.5724   -0.9355 N   0  0  0  0  0  0  0  0  0  0  0  0
    1.5313    2.1614    1.1012 N   0  0  0  0  0  0  0  0  0  0  0  0
    2.4009   -0.7851    2.1006 N   0  0  0  0  0  0  0  0  0  0  0  0
    2.2440   -2.5191    0.8105 N   0  0  0  0  0  0  0  0  0  0  0  0
    1.6205    1.5625   -0.1496 C   0  0  0  0  0  2  0  0  0  0  0  0
    2.5306    2.5053   -2.3460 C   0  0  0  0  0  0  0  0  0  0  0  0
    2.7347    1.4523   -2.6109 H   0  0  0  0  0  0  0  0  0  0  0  0
    3.4473    3.1107   -2.4890 H   0  0  0  0  0  0  0  0  0  0  0  0
    1.7121    2.8840   -2.9853 H   0  0  0  0  0  0  0  0  0  0  0  0
    2.3553    3.7339   -0.2002 C   0  0  0  0  0  0  0  0  0  0  0  0
    2.7490    4.6443   -0.6606 H   0  0  0  0  0  0  0  0  0  0  0  0
    1.9696    3.4784    1.0840 C   0  0  0  0  0  0  0  0  0  0  0  0
    1.9522    4.1132    1.9740 H   0  0  0  0  0  0  0  0  0  0  0  0
    1.2404    1.4421    2.3191 C   0  0  0  0  0  0  0  0  0  0  0  0
    0.3070    0.8604    2.2129 H   0  0  0  0  0  0  0  0  0  0  0  0
    1.0699    2.1911    3.1154 H   0  0  0  0  0  0  0  0  0  0  0  0
    2.3853    0.5289    2.7351 C   0  0  0  0  0  0  0  0  0  0  0  0
    3.3507    1.0483    2.5463 H   0  0  0  0  0  0  0  0  0  0  0  0
    2.3146    0.3492    3.8274 H   0  0  0  0  0  0  0  0  0  0  0  0
    1.9030   -1.1648    0.8538 C   0  0  0  0  0  2  0  0  0  0  0  0
    2.9042   -2.9343    1.9555 C   0  0  0  0  0  0  0  0  0  0  0  0
    3.2480   -3.9640    2.0902 H   0  0  0  0  0  0  0  0  0  0  0  0
    3.0078   -1.8456    2.7688 C   0  0  0  0  0  0  0  0  0  0  0  0
    3.4581   -1.7288    3.7587 H   0  0  0  0  0  0  0  0  0  0  0  0
    1.9907   -3.4261   -0.3049 C   0  0  0  0  0  0  0  0  0  0  0  0
    2.3348   -4.4298    0.0124 H   0  0  0  0  0  0  0  0  0  0  0  0
    2.6019   -3.0890   -1.1700 H   0  0  0  0  0  0  0  0  0  0  0  0
    0.5205   -3.4902   -0.7059 C   0  0  0  0  0  0  0  0  0  0  0  0
    0.3269   -4.4403   -1.2530 H   0  0  0  0  0  0  0  0  0  0  0  0
   -0.1217   -3.4779    0.2013 H   0  0  0  0  0  0  0  0  0  0  0  0
    0.3184   -2.5965   -2.9172 C   0  0  0  0  0  0  0  0  0  0  0  0
   -0.2589   -3.4907   -3.2406 H   0  0  0  0  0  0  0  0  0  0  0  0
    1.3958   -2.7094   -3.1620 H   0  0  0  0  0  0  0  0  0  0  0  0
   -0.0599   -1.6799   -3.4058 H   0  0  0  0  0  0  0  0  0  0  0  0
  1 29  1  0  0  0  0
  2 11  1  0  0  0  0
  2  6  1  0  0  0  0
  3 15  1  0  0  0  0
  4 18  1  0  0  0  0
  4 24  1  0  0  0  0
  5 21  1  0  0  0  0
  5 22  1  0  0  0  0
  6  3  1  0  0  0  0
  7  2  1  0  0  0  0
  8  7  1  0  0  0  0
  9  7  1  0  0  0  0
 10  7  1  0  0  0  0
 11 13  2  0  0  0  0
 12 11  1  0  0  0  0
 13  3  1  0  0  0  0
 13 14  1  0  0  0  0
 15 18  1  0  0  0  0
 15 17  1  0  0  0  0
 16 15  1  0  0  0  0
 18 20  1  0  0  0  0
 19 18  1  0  0  0  0
 21  4  1  0  0  0  0
 22 23  1  0  0  0  0
 22 24  2  0  0  0  0
 24 25  1  0  0  0  0
 26 27  1  0  0  0  0
 26  5  1  0  0  0  0
 28 26  1  0  0  0  0
 29 26  1  0  0  0  0
 29 31  1  0  0  0  0
 30 29  1  0  0  0  0
 32  1  1  0  0  0  0
 33 32  1  0  0  0  0
 34 32  1  0  0  0  0
 35 32  1  0  0  0  0
M  END
