1,4
 OpenBabel05122313053D

 24 23  0  0  0  0  0  0  0  0999 V2000
   -1.5475   -1.5985   -0.4183 C   0  0  0  0  0  3  0  0  0  0  0  0
   -1.0562   -2.6681    0.3125 C   0  0  0  0  0  0  0  0  0  0  0  0
    0.3774   -2.8454    0.2155 C   0  0  0  0  0  0  0  0  0  0  0  0
    1.0156   -1.9008   -0.5766 C   0  0  0  0  0  3  0  0  0  0  0  0
   -2.9067   -1.2508   -0.4815 C   0  0  0  0  0  0  0  0  0  0  0  0
   -4.0903   -0.8999   -0.5726 C   0  0  0  0  0  0  0  0  0  0  0  0
   -5.4812   -0.4805   -0.6595 C   0  0  0  0  0  0  0  0  0  0  0  0
   -1.9026   -3.5478    1.1901 C   0  0  0  0  0  0  0  0  0  0  0  0
    1.0877   -3.9486    0.9490 C   0  0  0  0  0  0  0  0  0  0  0  0
    2.4011   -1.8573   -0.7940 C   0  0  0  0  0  0  0  0  0  0  0  0
    3.6181   -1.7606   -0.9957 C   0  0  0  0  0  0  0  0  0  0  0  0
    5.0514   -1.6210   -1.1967 C   0  0  0  0  0  0  0  0  0  0  0  0
   -5.9521   -0.7903   -1.6184 H   0  0  0  0  0  0  0  0  0  0  0  0
   -6.0949   -0.9139    0.1594 H   0  0  0  0  0  0  0  0  0  0  0  0
   -5.5838    0.6255   -0.5924 H   0  0  0  0  0  0  0  0  0  0  0  0
   -2.9758   -3.2978    1.0897 H   0  0  0  0  0  0  0  0  0  0  0  0
   -1.7688   -4.6236    0.9474 H   0  0  0  0  0  0  0  0  0  0  0  0
   -1.6212   -3.4244    2.2587 H   0  0  0  0  0  0  0  0  0  0  0  0
    0.9164   -3.8771    2.0456 H   0  0  0  0  0  0  0  0  0  0  0  0
    0.7148   -4.9490    0.6397 H   0  0  0  0  0  0  0  0  0  0  0  0
    2.1783   -3.9149    0.7636 H   0  0  0  0  0  0  0  0  0  0  0  0
    5.4044   -0.6133   -0.8824 H   0  0  0  0  0  0  0  0  0  0  0  0
    5.6266   -2.3676   -0.6081 H   0  0  0  0  0  0  0  0  0  0  0  0
    5.3409   -1.7532   -2.2624 H   0  0  0  0  0  0  0  0  0  0  0  0
  1  2  2  0  0  0  0
  2  8  1  0  0  0  0
  3  2  1  0  0  0  0
  3  9  1  0  0  0  0
  4  3  2  0  0  0  0
  5  1  1  0  0  0  0
  6  5  3  0  0  0  0
  7 15  1  0  0  0  0
  7  6  1  0  0  0  0
  7 14  1  0  0  0  0
  8 18  1  0  0  0  0
  9 19  1  0  0  0  0
 10  4  1  0  0  0  0
 11 10  3  0  0  0  0
 12 11  1  0  0  0  0
 12 22  1  0  0  0  0
 12 23  1  0  0  0  0
 13  7  1  0  0  0  0
 16  8  1  0  0  0  0
 17  8  1  0  0  0  0
 20  9  1  0  0  0  0
 21  9  1  0  0  0  0
 24 12  1  0  0  0  0
M  END
