1
 OpenBabel05122313053D

 47 51  0  0  1  0  0  0  0  0999 V2000
    0.2478    0.1618   -0.9483 C   0  0  1  0  0  3  0  0  0  0  0  0
   -0.3116   -0.8712   -1.7719 C   0  0  0  0  0  0  0  0  0  0  0  0
    0.1328   -1.8634   -1.9194 H   0  0  0  0  0  0  0  0  0  0  0  0
   -1.5552   -0.4452   -2.3087 C   0  0  0  0  0  0  0  0  0  0  0  0
   -2.2110   -1.0363   -2.9574 H   0  0  0  0  0  0  0  0  0  0  0  0
   -1.7864    0.8953   -1.8666 C   0  0  0  0  0  0  0  0  0  0  0  0
   -2.8496    1.8075   -2.1188 C   0  0  0  0  0  0  0  0  0  0  0  0
   -3.6741    1.5142   -2.7849 H   0  0  0  0  0  0  0  0  0  0  0  0
   -2.8293    3.0467   -1.5023 C   0  0  0  0  0  0  0  0  0  0  0  0
   -3.6460    3.7610   -1.6839 H   0  0  0  0  0  0  0  0  0  0  0  0
   -1.7674    3.4141   -0.6224 C   0  0  0  0  0  0  0  0  0  0  0  0
   -1.7887    4.4052   -0.1450 H   0  0  0  0  0  0  0  0  0  0  0  0
   -0.7120    2.5571   -0.3538 C   0  0  0  0  0  0  0  0  0  0  0  0
    0.1021    2.8681    0.3130 H   0  0  0  0  0  0  0  0  0  0  0  0
   -0.6825    1.2736   -0.9872 C   0  0  0  0  0  0  0  0  0  0  0  0
    1.3754   -0.0602    0.0728 C   0  0  0  0  0  0  0  0  0  0  0  0
    0.5398   -0.6033    1.2398 C   0  0  2  0  0  3  0  0  0  0  0  0
    0.0944   -1.9582    1.3628 C   0  0  0  0  0  3  0  0  0  0  0  0
    0.4898   -2.8145    0.8038 H   0  0  0  0  0  0  0  0  0  0  0  0
   -0.9683   -2.0033    2.3199 C   0  0  0  0  0  0  0  0  0  0  0  0
   -1.5200   -2.9023    2.6169 H   0  0  0  0  0  0  0  0  0  0  0  0
   -1.2048   -0.6851    2.7754 C   0  0  0  0  0  0  0  0  0  0  0  0
   -1.9741   -0.3726    3.4901 H   0  0  0  0  0  0  0  0  0  0  0  0
   -0.2973    0.1866    2.0966 C   0  0  0  0  0  3  0  0  0  0  0  0
   -0.2553    1.2761    2.2077 H   0  0  0  0  0  0  0  0  0  0  0  0
    2.4374   -1.0648   -0.4079 C   0  0  0  0  0  0  0  0  0  0  0  0
    3.1419   -1.8506    0.5253 C   0  0  0  0  0  0  0  0  0  0  0  0
    2.8768   -1.7952    1.5914 H   0  0  0  0  0  0  0  0  0  0  0  0
    4.1795   -2.6987    0.1124 C   0  0  0  0  0  0  0  0  0  0  0  0
    4.7133   -3.3077    0.8578 H   0  0  0  0  0  0  0  0  0  0  0  0
    4.5373   -2.7701   -1.2428 C   0  0  0  0  0  0  0  0  0  0  0  0
    5.3490   -3.4378   -1.5684 H   0  0  0  0  0  0  0  0  0  0  0  0
    3.8535   -1.9784   -2.1780 C   0  0  0  0  0  0  0  0  0  0  0  0
    4.1291   -2.0186   -3.2428 H   0  0  0  0  0  0  0  0  0  0  0  0
    2.8154   -1.1310   -1.7631 C   0  0  0  0  0  0  0  0  0  0  0  0
    2.2924   -0.5106   -2.5052 H   0  0  0  0  0  0  0  0  0  0  0  0
    2.1516    1.2216    0.4067 C   0  0  0  0  0  0  0  0  0  0  0  0
    2.6196    1.4738    1.7094 C   0  0  0  0  0  0  0  0  0  0  0  0
    2.3744    0.7731    2.5209 H   0  0  0  0  0  0  0  0  0  0  0  0
    3.3945    2.6121    1.9830 C   0  0  0  0  0  0  0  0  0  0  0  0
    3.7468    2.7961    3.0094 H   0  0  0  0  0  0  0  0  0  0  0  0
    3.7186    3.5103    0.9554 C   0  0  0  0  0  0  0  0  0  0  0  0
    4.3228    4.4046    1.1703 H   0  0  0  0  0  0  0  0  0  0  0  0
    3.2680    3.2577   -0.3507 C   0  0  0  0  0  0  0  0  0  0  0  0
    3.5176    3.9538   -1.1658 H   0  0  0  0  0  0  0  0  0  0  0  0
    2.4945    2.1212   -0.6218 C   0  0  0  0  0  0  0  0  0  0  0  0
    2.1363    1.9339   -1.6452 H   0  0  0  0  0  0  0  0  0  0  0  0
  1 16  1  1  0  0  0
  2  1  1  0  0  0  0
  3  2  1  0  0  0  0
  4  6  1  0  0  0  0
  4  2  2  0  0  0  0
  5  4  1  0  0  0  0
  6 15  1  0  0  0  0
  7  6  2  0  0  0  0
  7  9  1  0  0  0  0
  8  7  1  0  0  0  0
  9 11  2  0  0  0  0
 10  9  1  0  0  0  0
 11 13  1  0  0  0  0
 11 12  1  0  0  0  0
 13 14  1  0  0  0  0
 15  1  1  0  0  0  0
 15 13  2  0  0  0  0
 16 37  1  0  0  0  0
 17 16  1  6  0  0  0
 17 18  1  0  0  0  0
 17 24  1  0  0  0  0
 18 20  1  0  0  0  0
 19 18  1  0  0  0  0
 20 21  1  0  0  0  0
 20 22  2  0  0  0  0
 22 23  1  0  0  0  0
 24 25  1  0  0  0  0
 24 22  1  0  0  0  0
 26 16  1  0  0  0  0
 26 27  1  0  0  0  0
 27 28  1  0  0  0  0
 29 27  2  0  0  0  0
 29 30  1  0  0  0  0
 31 29  1  0  0  0  0
 32 31  1  0  0  0  0
 33 35  1  0  0  0  0
 33 31  2  0  0  0  0
 34 33  1  0  0  0  0
 35 26  2  0  0  0  0
 36 35  1  0  0  0  0
 37 38  1  0  0  0  0
 38 40  2  0  0  0  0
 38 39  1  0  0  0  0
 40 41  1  0  0  0  0
 42 43  1  0  0  0  0
 42 40  1  0  0  0  0
 44 42  2  0  0  0  0
 45 44  1  0  0  0  0
 46 44  1  0  0  0  0
 46 37  2  0  0  0  0
 47 46  1  0  0  0  0
M  END
