3,7
 OpenBabel05122313053D

 31 33  0  0  1  0  0  0  0  0999 V2000
    1.6833    2.3744    0.7395 C   0  0  2  0  0  0  0  0  0  0  0  0
    1.3116    1.3723   -0.3908 C   0  0  1  0  0  3  0  0  0  0  0  0
    0.2031    1.6330   -1.2552 C   0  0  0  0  0  3  0  0  0  0  0  0
   -0.5677    2.9333   -1.1966 C   0  0  0  0  0  0  0  0  0  0  0  0
   -0.5234    3.3973    0.2643 C   0  0  1  0  0  0  0  0  0  0  0  0
   -1.0402    2.2555    1.1543 C   0  0  0  0  0  3  0  0  0  0  0  0
   -0.2152    1.5308    2.0445 C   0  0  0  0  0  3  0  0  0  0  0  0
    1.2679    1.8167    2.1149 C   0  0  0  0  0  0  0  0  0  0  0  0
    0.9458    3.7110    0.5728 C   0  0  0  0  0  0  0  0  0  0  0  0
    2.3755    0.4017   -0.7977 C   0  0  0  0  0  0  0  0  0  0  0  0
    3.4583    0.1048    0.0637 C   0  0  0  0  0  0  0  0  0  0  0  0
    4.4556   -0.8137   -0.2941 C   0  0  0  0  0  0  0  0  0  0  0  0
    4.4052   -1.4697   -1.5324 C   0  0  0  0  0  0  0  0  0  0  0  0
    3.3454   -1.1827   -2.4084 C   0  0  0  0  0  0  0  0  0  0  0  0
    2.3538   -0.2638   -2.0466 C   0  0  0  0  0  0  0  0  0  0  0  0
    2.7776    2.5467    0.7115 H   0  0  0  0  0  0  0  0  0  0  0  0
    0.1597    1.1027   -2.2205 H   0  0  0  0  0  0  0  0  0  0  0  0
   -1.6068    2.7707   -1.5389 H   0  0  0  0  0  0  0  0  0  0  0  0
   -0.1126    3.6968   -1.8684 H   0  0  0  0  0  0  0  0  0  0  0  0
   -1.1623    4.2928    0.4114 H   0  0  0  0  0  0  0  0  0  0  0  0
   -2.1306    2.2195    1.3008 H   0  0  0  0  0  0  0  0  0  0  0  0
   -0.6808    1.0073    2.8973 H   0  0  0  0  0  0  0  0  0  0  0  0
    1.8147    0.8876    2.3631 H   0  0  0  0  0  0  0  0  0  0  0  0
    1.4961    2.5580    2.9145 H   0  0  0  0  0  0  0  0  0  0  0  0
    1.0536    4.3034    1.5050 H   0  0  0  0  0  0  0  0  0  0  0  0
    1.3783    4.3164   -0.2506 H   0  0  0  0  0  0  0  0  0  0  0  0
    3.5216    0.5896    1.0466 H   0  0  0  0  0  0  0  0  0  0  0  0
    5.2793   -1.0188    0.4072 H   0  0  0  0  0  0  0  0  0  0  0  0
    5.1870   -2.1902   -1.8171 H   0  0  0  0  0  0  0  0  0  0  0  0
    3.2933   -1.6758   -3.3917 H   0  0  0  0  0  0  0  0  0  0  0  0
    1.5434   -0.0630   -2.7595 H   0  0  0  0  0  0  0  0  0  0  0  0
  1 16  1  6  0  0  0
  1  8  1  0  0  0  0
  2 10  1  6  0  0  0
  2  1  1  0  0  0  0
  3  4  1  0  0  0  0
  3  2  1  0  0  0  0
  4  5  1  0  0  0  0
  5 20  1  1  0  0  0
  5  9  1  0  0  0  0
  5  6  1  0  0  0  0
  6 21  1  0  0  0  0
  6  7  1  0  0  0  0
  7  8  1  0  0  0  0
  7 22  1  0  0  0  0
  8 23  1  0  0  0  0
  8 24  1  0  0  0  0
  9  1  1  0  0  0  0
  9 25  1  0  0  0  0
 10 11  1  0  0  0  0
 11 27  1  0  0  0  0
 12 11  2  0  0  0  0
 12 28  1  0  0  0  0
 13 12  1  0  0  0  0
 14 15  1  0  0  0  0
 14 13  2  0  0  0  0
 15 10  2  0  0  0  0
 17  3  1  0  0  0  0
 18  4  1  0  0  0  0
 19  4  1  0  0  0  0
 26  9  1  0  0  0  0
 29 13  1  0  0  0  0
 30 14  1  0  0  0  0
 31 15  1  0  0  0  0
M  END
