13,29
 OpenBabel05122313053D

 30 32  0  0  0  0  0  0  0  0999 V2000
   -3.0512    1.6254   -1.1877 N   0  0  0  0  0  0  0  0  0  0  0  0
   -4.3805    1.7935   -1.1541 C   0  0  0  0  0  0  0  0  0  0  0  0
   -4.8885    1.8343   -2.1351 H   0  0  0  0  0  0  0  0  0  0  0  0
   -5.1248    1.9139    0.0292 C   0  0  0  0  0  0  0  0  0  0  0  0
   -6.2155    2.0513   -0.0033 H   0  0  0  0  0  0  0  0  0  0  0  0
   -4.4240    1.8584    1.2461 C   0  0  0  0  0  0  0  0  0  0  0  0
   -4.9567    1.9533    2.2050 H   0  0  0  0  0  0  0  0  0  0  0  0
   -3.0389    1.6851    1.2274 C   0  0  0  0  0  0  0  0  0  0  0  0
   -2.4738    1.6405    2.1689 H   0  0  0  0  0  0  0  0  0  0  0  0
   -2.3654    1.5648   -0.0158 C   0  0  0  0  0  0  0  0  0  0  0  0
   -0.9106    1.3786   -0.1413 C   0  0  0  0  0  3  0  0  0  0  0  0
   -0.5534    1.6448   -1.1493 H   0  0  0  0  0  0  0  0  0  0  0  0
    0.0441    1.4745    0.9354 C   0  0  0  0  0  3  0  0  0  0  0  0
   -0.3153    1.7414    1.9443 H   0  0  0  0  0  0  0  0  0  0  0  0
    1.3955    1.9476    0.5714 C   0  0  0  0  0  0  0  0  0  0  0  0
    2.0365    3.0620    1.1099 C   0  0  0  0  0  0  0  0  0  0  0  0
    1.5601    3.6333    1.9220 H   0  0  0  0  0  0  0  0  0  0  0  0
    3.2866    3.4845    0.5822 C   0  0  0  0  0  0  0  0  0  0  0  0
    3.7797    4.3712    1.0102 H   0  0  0  0  0  0  0  0  0  0  0  0
    3.8845    2.8062   -0.4729 C   0  0  0  0  0  0  0  0  0  0  0  0
    4.8517    3.1442   -0.8773 H   0  0  0  0  0  0  0  0  0  0  0  0
    3.2761    1.6365   -1.0220 C   0  0  0  0  0  0  0  0  0  0  0  0
    3.8753    0.8407   -2.0430 C   0  0  0  0  0  0  0  0  0  0  0  0
    4.8272    1.1643   -2.4922 H   0  0  0  0  0  0  0  0  0  0  0  0
    3.2660   -0.3410   -2.4408 C   0  0  0  0  0  0  0  0  0  0  0  0
    3.7296   -0.9574   -3.2279 H   0  0  0  0  0  0  0  0  0  0  0  0
    2.0589   -0.7921   -1.8314 C   0  0  0  0  0  0  0  0  0  0  0  0
    1.6570   -1.7612   -2.1655 H   0  0  0  0  0  0  0  0  0  0  0  0
    1.4168   -0.0553   -0.8329 C   0  0  0  0  0  3  0  0  0  0  0  0
    2.0283    1.1938   -0.4668 C   0  0  0  0  0  0  0  0  0  0  0  0
  1  2  2  0  0  0  0
  1 10  1  0  0  0  0
  2  4  1  0  0  0  0
  3  2  1  0  0  0  0
  4  6  2  0  0  0  0
  5  4  1  0  0  0  0
  6  7  1  0  0  0  0
  8  6  1  0  0  0  0
  8  9  1  0  0  0  0
 10  8  2  0  0  0  0
 11 10  1  0  0  0  0
 11 13  1  0  0  0  0
 12 11  1  0  0  0  0
 13 14  1  0  0  0  0
 15 13  1  0  0  0  0
 15 16  1  0  0  0  0
 16 17  1  0  0  0  0
 18 19  1  0  0  0  0
 18 16  2  0  0  0  0
 20 18  1  0  0  0  0
 21 20  1  0  0  0  0
 22 20  2  0  0  0  0
 22 30  1  0  0  0  0
 23 22  1  0  0  0  0
 24 23  1  0  0  0  0
 25 23  2  0  0  0  0
 25 27  1  0  0  0  0
 26 25  1  0  0  0  0
 27 29  2  0  0  0  0
 28 27  1  0  0  0  0
 29 30  1  0  0  0  0
 30 15  2  0  0  0  0
M  END
