1
 OpenBabel05122313053D

 64 69  0  0  1  0  0  0  0  0999 V2000
   -2.5585    0.3310    1.5005 C   0  0  0  0  0  3  0  0  0  0  0  0
   -3.0786   -0.9295    1.0113 C   0  0  0  0  0  0  0  0  0  0  0  0
   -3.1263   -2.2235    1.6039 C   0  0  0  0  0  0  0  0  0  0  0  0
   -2.7428   -2.3860    2.6216 H   0  0  0  0  0  0  0  0  0  0  0  0
   -3.6895   -3.2711    0.8855 C   0  0  0  0  0  0  0  0  0  0  0  0
   -3.7387   -4.2733    1.3375 H   0  0  0  0  0  0  0  0  0  0  0  0
   -4.2053   -3.0783   -0.4268 C   0  0  0  0  0  0  0  0  0  0  0  0
   -4.6338   -3.9355   -0.9667 H   0  0  0  0  0  0  0  0  0  0  0  0
   -4.1813   -1.8252   -1.0284 C   0  0  0  0  0  0  0  0  0  0  0  0
   -4.5844   -1.6780   -2.0411 H   0  0  0  0  0  0  0  0  0  0  0  0
   -3.6200   -0.7373   -0.3195 C   0  0  0  0  0  0  0  0  0  0  0  0
   -3.4995    0.6703   -0.6412 C   0  0  0  0  0  0  0  0  0  0  0  0
   -3.8904    1.4149   -1.7795 C   0  0  0  0  0  0  0  0  0  0  0  0
   -4.3395    0.9063   -2.6450 H   0  0  0  0  0  0  0  0  0  0  0  0
   -3.6843    2.7892   -1.7874 C   0  0  0  0  0  0  0  0  0  0  0  0
   -3.9752    3.3814   -2.6673 H   0  0  0  0  0  0  0  0  0  0  0  0
   -3.1041    3.4454   -0.6664 C   0  0  0  0  0  0  0  0  0  0  0  0
   -2.9653    4.5365   -0.6971 H   0  0  0  0  0  0  0  0  0  0  0  0
   -2.7075    2.7404    0.4631 C   0  0  0  0  0  0  0  0  0  0  0  0
   -2.2685    3.2670    1.3206 H   0  0  0  0  0  0  0  0  0  0  0  0
   -2.8945    1.3291    0.5013 C   0  0  0  0  0  0  0  0  0  0  0  0
   -2.0653    0.5737    2.9061 C   0  0  0  0  0  0  0  0  0  0  0  0
   -2.8302    0.2544    3.6477 H   0  0  0  0  0  0  0  0  0  0  0  0
   -1.9391    1.6634    3.0583 H   0  0  0  0  0  0  0  0  0  0  0  0
   -0.7293   -0.1548    3.1610 C   0  0  0  0  0  0  0  0  0  0  0  0
   -0.2272    0.2475    4.0687 H   0  0  0  0  0  0  0  0  0  0  0  0
   -0.9099   -1.2299    3.3628 H   0  0  0  0  0  0  0  0  0  0  0  0
    0.1734   -0.0388    1.9602 C   0  0  1  0  0  3  0  0  0  0  0  0
    0.6155    1.1944    1.3443 C   0  0  0  0  0  0  0  0  0  0  0  0
    0.3995    2.5664    1.6743 C   0  0  0  0  0  0  0  0  0  0  0  0
   -0.2267    2.8387    2.5353 H   0  0  0  0  0  0  0  0  0  0  0  0
    1.0384    3.5467    0.9323 C   0  0  0  0  0  0  0  0  0  0  0  0
    0.8925    4.6062    1.1916 H   0  0  0  0  0  0  0  0  0  0  0  0
    1.9023    3.2075   -0.1515 C   0  0  0  0  0  0  0  0  0  0  0  0
    2.3980    4.0134   -0.7129 H   0  0  0  0  0  0  0  0  0  0  0  0
    2.1438    1.8882   -0.4938 C   0  0  0  0  0  0  0  0  0  0  0  0
    2.8351    1.6355   -1.3077 H   0  0  0  0  0  0  0  0  0  0  0  0
    1.5041    0.8528    0.2484 C   0  0  0  0  0  0  0  0  0  0  0  0
    1.6185   -0.5839    0.1841 C   0  0  0  0  0  0  0  0  0  0  0  0
    0.8280   -1.0980    1.2585 C   0  0  0  0  0  0  0  0  0  0  0  0
    0.7168   -2.1610    1.5055 H   0  0  0  0  0  0  0  0  0  0  0  0
    2.6299   -1.3373   -0.6848 C   0  0  0  0  0  0  0  0  0  0  0  0
    4.0472   -0.7356   -0.4497 C   0  0  0  0  0  0  0  0  0  0  0  0
    4.8584   -0.4346   -1.5656 C   0  0  0  0  0  0  0  0  0  0  0  0
    4.4662   -0.6007   -2.5762 H   0  0  0  0  0  0  0  0  0  0  0  0
    6.1574    0.0778   -1.4435 C   0  0  0  0  0  0  0  0  0  0  0  0
    6.7455    0.2957   -2.3479 H   0  0  0  0  0  0  0  0  0  0  0  0
    6.6904    0.3060   -0.1709 C   0  0  0  0  0  0  0  0  0  0  0  0
    7.7077    0.7071   -0.0467 H   0  0  0  0  0  0  0  0  0  0  0  0
    5.9052    0.0124    0.9498 C   0  0  0  0  0  0  0  0  0  0  0  0
    6.3167    0.1870    1.9569 H   0  0  0  0  0  0  0  0  0  0  0  0
    4.5942   -0.5014    0.8489 C   0  0  0  0  0  0  0  0  0  0  0  0
    3.8586   -0.7312    2.1496 C   0  0  0  0  0  0  0  0  0  0  0  0
    3.0958    0.0539    2.3301 H   0  0  0  0  0  0  0  0  0  0  0  0
    4.5696   -0.7028    2.9978 H   0  0  0  0  0  0  0  0  0  0  0  0
    3.3281   -1.7001    2.1868 H   0  0  0  0  0  0  0  0  0  0  0  0
    2.6596   -2.8400   -0.3208 C   0  0  0  0  0  0  0  0  0  0  0  0
    2.9662   -3.0182    0.7275 H   0  0  0  0  0  0  0  0  0  0  0  0
    3.3866   -3.3619   -0.9729 H   0  0  0  0  0  0  0  0  0  0  0  0
    1.6609   -3.2928   -0.4796 H   0  0  0  0  0  0  0  0  0  0  0  0
    2.2094   -1.2394   -2.1705 C   0  0  0  0  0  0  0  0  0  0  0  0
    1.1993   -1.6676   -2.2922 H   0  0  0  0  0  0  0  0  0  0  0  0
    2.8954   -1.8202   -2.8173 H   0  0  0  0  0  0  0  0  0  0  0  0
    2.1761   -0.1956   -2.5352 H   0  0  0  0  0  0  0  0  0  0  0  0
  1 22  1  0  0  0  0
  2  1  1  0  0  0  0
  2  3  1  0  0  0  0
  3  4  1  0  0  0  0
  5  6  1  0  0  0  0
  5  3  2  0  0  0  0
  7  5  1  0  0  0  0
  8  7  1  0  0  0  0
  9  7  2  0  0  0  0
  9 11  1  0  0  0  0
 10  9  1  0  0  0  0
 11  2  2  0  0  0  0
 12 11  1  0  0  0  0
 12 21  1  0  0  0  0
 13 12  2  0  0  0  0
 14 13  1  0  0  0  0
 15 13  1  0  0  0  0
 15 17  2  0  0  0  0
 16 15  1  0  0  0  0
 17 19  1  0  0  0  0
 18 17  1  0  0  0  0
 19 21  2  0  0  0  0
 19 20  1  0  0  0  0
 21  1  1  0  0  0  0
 22 24  1  0  0  0  0
 22 25  1  0  0  0  0
 22 23  1  0  0  0  0
 25 27  1  0  0  0  0
 25 26  1  0  0  0  0
 28 25  1  1  0  0  0
 29 30  1  0  0  0  0
 29 28  1  0  0  0  0
 30 31  1  0  0  0  0
 32 33  1  0  0  0  0
 32 30  2  0  0  0  0
 34 32  1  0  0  0  0
 35 34  1  0  0  0  0
 36 34  2  0  0  0  0
 36 38  1  0  0  0  0
 37 36  1  0  0  0  0
 38 29  2  0  0  0  0
 39 38  1  0  0  0  0
 39 40  2  0  0  0  0
 40 41  1  0  0  0  0
 40 28  1  0  0  0  0
 42 43  1  0  0  0  0
 42 57  1  0  0  0  0
 42 39  1  0  0  0  0
 43 52  1  0  0  0  0
 44 46  1  0  0  0  0
 44 43  2  0  0  0  0
 45 44  1  0  0  0  0
 46 48  2  0  0  0  0
 47 46  1  0  0  0  0
 48 49  1  0  0  0  0
 48 50  1  0  0  0  0
 50 51  1  0  0  0  0
 52 50  2  0  0  0  0
 52 53  1  0  0  0  0
 53 56  1  0  0  0  0
 53 54  1  0  0  0  0
 53 55  1  0  0  0  0
 57 58  1  0  0  0  0
 59 57  1  0  0  0  0
 60 57  1  0  0  0  0
 61 42  1  0  0  0  0
 62 61  1  0  0  0  0
 63 61  1  0  0  0  0
 64 61  1  0  0  0  0
M  END
