9,23
 OpenBabel05122313053D

 25 27  0  0  0  0  0  0  0  0999 V2000
    4.9811   -1.4325    0.5434 O   0  0  0  0  0  0  0  0  0  0  0  0
    1.5572   -2.1115   -0.1165 N   0  0  0  0  0  0  0  0  0  0  0  0
    2.8470   -2.1963    0.2162 N   0  0  0  0  0  0  0  0  0  0  0  0
    1.8550    0.2939   -0.3091 C   0  0  0  0  0  0  0  0  0  0  0  0
    3.8106   -1.1778    0.2741 C   0  0  0  0  0  0  0  0  0  0  0  0
    1.0547   -0.9246   -0.3953 C   0  0  0  0  0  0  0  0  0  0  0  0
    1.3371    1.6026   -0.4804 C   0  0  0  0  0  0  0  0  0  0  0  0
    0.2641    1.7446   -0.6549 H   0  0  0  0  0  0  0  0  0  0  0  0
   -1.0437   -0.1757   -1.7944 C   0  0  0  0  0  3  0  0  0  0  0  0
   -0.6073    0.6496   -2.3677 H   0  0  0  0  0  0  0  0  0  0  0  0
    3.2393    0.1554    0.0027 C   0  0  0  0  0  0  0  0  0  0  0  0
    4.0765    1.2846    0.0924 C   0  0  0  0  0  0  0  0  0  0  0  0
    5.1364    1.1176    0.3343 H   0  0  0  0  0  0  0  0  0  0  0  0
    2.1750    2.7144   -0.3836 C   0  0  0  0  0  0  0  0  0  0  0  0
    1.7505    3.7214   -0.5130 H   0  0  0  0  0  0  0  0  0  0  0  0
   -0.3662   -0.9679   -0.8049 C   0  0  0  0  0  0  0  0  0  0  0  0
    3.5502    2.5606   -0.1088 C   0  0  0  0  0  0  0  0  0  0  0  0
    4.1999    3.4457   -0.0370 H   0  0  0  0  0  0  0  0  0  0  0  0
   -1.3017   -1.9669   -0.3416 C   0  0  0  0  0  0  0  0  0  0  0  0
   -1.0742   -2.7319    0.4074 H   0  0  0  0  0  0  0  0  0  0  0  0
   -2.3793   -0.6822   -1.9468 C   0  0  0  0  0  3  0  0  0  0  0  0
   -3.1409   -0.2926   -2.6316 H   0  0  0  0  0  0  0  0  0  0  0  0
   -2.5309   -1.7822   -1.0440 C   0  0  0  0  0  3  0  0  0  0  0  0
   -3.4407   -2.3797   -0.9095 H   0  0  0  0  0  0  0  0  0  0  0  0
    3.1889   -3.1432    0.4148 H   0  0  0  0  0  0  0  0  0  0  0  0
  2  3  1  0  0  0  0
  3  5  1  0  0  0  0
  3 25  1  0  0  0  0
  4 11  1  0  0  0  0
  5  1  2  0  0  0  0
  6  4  1  0  0  0  0
  6  2  2  0  0  0  0
  7 14  1  0  0  0  0
  7  4  2  0  0  0  0
  8  7  1  0  0  0  0
  9 16  1  0  0  0  0
 10  9  1  0  0  0  0
 11 12  2  0  0  0  0
 11  5  1  0  0  0  0
 12 13  1  0  0  0  0
 14 17  2  0  0  0  0
 15 14  1  0  0  0  0
 16  6  1  0  0  0  0
 16 19  2  0  0  0  0
 17 18  1  0  0  0  0
 17 12  1  0  0  0  0
 19 20  1  0  0  0  0
 21  9  1  0  0  0  0
 21 23  1  0  0  0  0
 22 21  1  0  0  0  0
 23 24  1  0  0  0  0
 23 19  1  0  0  0  0
M  END
