4,8
q = -2.0, confidence = 0.77

 56 57  0  0  1  0  0  0  0  0999 V2000
    7.3707   -1.0903   -0.3396 I   0  0  0  0  0  0  0  0  0  0  0  0
   -7.0389   -0.1415    0.4515 I   0  0  0  0  0  0  0  0  0  0  0  0
   -0.0299    2.3838   -0.3177 C   0  0  1  0  0  0  0  0  0  0  0  0
    1.1917    0.4605    0.8336 C   0  0  2  0  0  3  0  0  0  0  0  0
   -2.9140    1.3225    0.3390 O   0  0  0  0  0  0  0  0  0  0  0  0
   -3.0288    1.1992   -1.9197 O   0  0  0  0  0  0  0  0  0  0  0  0
   -1.8724    3.9675   -0.2596 O   0  0  0  0  0  0  0  0  0  0  0  0
   -0.8562    1.1943   -0.8540 C   0  0  1  0  0  3  0  0  0  0  0  0
    2.9660   -0.8758    1.7924 O   0  0  0  0  0  0  0  0  0  0  0  0
   -2.3466    1.2746   -0.9038 C   0  0  0  0  0  0  0  0  0  0  0  0
    3.0611   -0.3441   -0.4061 O   0  0  0  0  0  0  0  0  0  0  0  0
   -0.4741    1.5314    2.5392 C   0  0  0  0  0  0  0  0  0  0  0  0
   -1.2775    1.3990    1.7963 H   0  0  0  0  0  0  0  0  0  0  0  0
   -0.6170    2.5045    3.0513 H   0  0  0  0  0  0  0  0  0  0  0  0
   -0.5884    0.7311    3.3007 H   0  0  0  0  0  0  0  0  0  0  0  0
    1.1658    1.9696    0.4979 C   0  0  2  0  0  0  0  0  0  0  0  0
    5.4406   -0.1348   -0.0056 C   0  0  0  0  0  0  0  0  0  0  0  0
    5.3722    0.0461    1.0805 H   0  0  0  0  0  0  0  0  0  0  0  0
    5.4663    0.8305   -0.5401 H   0  0  0  0  0  0  0  0  0  0  0  0
    0.9235    1.4406    1.9494 C   0  0  0  0  0  0  0  0  0  0  0  0
   -0.0514    2.0109   -1.8350 C   0  0  0  0  0  0  0  0  0  0  0  0
    2.2766    3.7314   -0.6142 O   0  0  0  0  0  0  0  0  0  0  0  0
   -0.0667    4.3057    1.0564 O   0  0  0  0  0  0  0  0  0  0  0  0
    3.5702    2.3310    0.5961 O   0  0  0  0  0  0  0  0  0  0  0  0
    1.1925    1.4031   -2.4607 C   0  0  0  0  0  0  0  0  0  0  0  0
    1.7625    0.7560   -1.7744 H   0  0  0  0  0  0  0  0  0  0  0  0
    1.8641    2.1989   -2.8422 H   0  0  0  0  0  0  0  0  0  0  0  0
    0.8838    0.7812   -3.3273 H   0  0  0  0  0  0  0  0  0  0  0  0
    2.4847   -0.2875    0.8289 C   0  0  0  0  0  0  0  0  0  0  0  0
   -0.7673    3.6069    0.1231 C   0  0  0  0  0  0  0  0  0  0  0  0
   -0.7433    2.9557   -2.8076 C   0  0  0  0  0  0  0  0  0  0  0  0
   -1.0230    2.4004   -3.7253 H   0  0  0  0  0  0  0  0  0  0  0  0
   -0.0354    3.7604   -3.0967 H   0  0  0  0  0  0  0  0  0  0  0  0
   -1.6531    3.4208   -2.3962 H   0  0  0  0  0  0  0  0  0  0  0  0
    1.9782    1.7126    3.0126 C   0  0  0  0  0  0  0  0  0  0  0  0
    1.8788    0.9683    3.8282 H   0  0  0  0  0  0  0  0  0  0  0  0
    1.8073    2.7203    3.4457 H   0  0  0  0  0  0  0  0  0  0  0  0
    3.0099    1.6690    2.6296 H   0  0  0  0  0  0  0  0  0  0  0  0
    4.3190   -1.0354   -0.4979 C   0  0  0  0  0  0  0  0  0  0  0  0
    4.4382   -1.2814   -1.5701 H   0  0  0  0  0  0  0  0  0  0  0  0
    4.2772   -1.9687    0.0988 H   0  0  0  0  0  0  0  0  0  0  0  0
    2.4578    2.6582    0.1996 C   0  0  0  0  0  0  0  0  0  0  0  0
   -4.3488    1.3444    0.3805 C   0  0  0  0  0  0  0  0  0  0  0  0
   -4.7379    1.9891   -0.4320 H   0  0  0  0  0  0  0  0  0  0  0  0
   -4.6120    1.7804    1.3627 H   0  0  0  0  0  0  0  0  0  0  0  0
    3.4667    4.4342   -0.9732 C   0  0  0  0  0  0  0  0  0  0  0  0
    4.0183    4.7703   -0.0722 H   0  0  0  0  0  0  0  0  0  0  0  0
    3.1401    5.3015   -1.5746 H   0  0  0  0  0  0  0  0  0  0  0  0
    4.1434    3.7884   -1.5704 H   0  0  0  0  0  0  0  0  0  0  0  0
   -0.7193    5.4745    1.5543 C   0  0  0  0  0  0  0  0  0  0  0  0
   -0.9326    6.1906    0.7349 H   0  0  0  0  0  0  0  0  0  0  0  0
   -0.0264    5.9231    2.2887 H   0  0  0  0  0  0  0  0  0  0  0  0
   -1.6819    5.2141    2.0404 H   0  0  0  0  0  0  0  0  0  0  0  0
   -4.8714   -0.0773    0.2426 C   0  0  0  0  0  0  0  0  0  0  0  0
   -4.4690   -0.7428    1.0280 H   0  0  0  0  0  0  0  0  0  0  0  0
   -4.6543   -0.4873   -0.7596 H   0  0  0  0  0  0  0  0  0  0  0  0
  1 17  1  0  0  0  0
  3 30  1  1  0  0  0
  3 16  1  0  0  0  0
  4 29  1  1  0  0  0
  4 20  1  0  0  0  0
  5 43  1  0  0  0  0
  6 10  2  0  0  0  0
  7 30  2  0  0  0  0
  8 10  1  6  0  0  0
  8  3  1  0  0  0  0
 10  5  1  0  0  0  0
 11 29  1  0  0  0  0
 12 14  1  0  0  0  0
 12 15  1  0  0  0  0
 13 12  1  0  0  0  0
 16 42  1  6  0  0  0
 16  4  1  0  0  0  0
 16 20  1  0  0  0  0
 17 18  1  0  0  0  0
 19 17  1  0  0  0  0
 20 12  1  0  0  0  0
 20 35  1  0  0  0  0
 21  8  1  0  0  0  0
 21  3  1  0  0  0  0
 22 42  1  0  0  0  0
 23 50  1  0  0  0  0
 25 21  1  0  0  0  0
 25 26  1  0  0  0  0
 27 25  1  0  0  0  0
 28 25  1  0  0  0  0
 29  9  2  0  0  0  0
 30 23  1  0  0  0  0
 31 34  1  0  0  0  0
 31 21  1  0  0  0  0
 32 31  1  0  0  0  0
 33 31  1  0  0  0  0
 35 37  1  0  0  0  0
 35 36  1  0  0  0  0
 38 35  1  0  0  0  0
 39 11  1  0  0  0  0
 39 17  1  0  0  0  0
 39 41  1  0  0  0  0
 40 39  1  0  0  0  0
 42 24  2  0  0  0  0
 43 45  1  0  0  0  0
 44 43  1  0  0  0  0
 46 22  1  0  0  0  0
 46 47  1  0  0  0  0
 48 46  1  0  0  0  0
 49 46  1  0  0  0  0
 50 53  1  0  0  0  0
 50 52  1  0  0  0  0
 51 50  1  0  0  0  0
 54 43  1  0  0  0  0
 54  2  1  0  0  0  0
 54 55  1  0  0  0  0
 56 54  1  0  0  0  0
M  END
