2,14
 OpenBabel05122313053D

 33 35  0  0  0  0  0  0  0  0999 V2000
   -0.4936   -0.8144    0.0008 C   0  0  0  0  0  3  0  0  0  0  0  0
    0.3584   -0.8878    1.1658 C   0  0  0  0  0  3  0  0  0  0  0  0
    0.0384   -0.8288    2.2102 H   0  0  0  0  0  0  0  0  0  0  0  0
    1.6896   -1.2550    0.7263 C   0  0  0  0  0  0  0  0  0  0  0  0
    2.8857   -1.5770    1.4367 C   0  0  0  0  0  0  0  0  0  0  0  0
    2.8885   -1.5784    2.5367 H   0  0  0  0  0  0  0  0  0  0  0  0
    4.0225   -1.9052    0.7158 C   0  0  0  0  0  0  0  0  0  0  0  0
    4.9479   -2.1666    1.2506 H   0  0  0  0  0  0  0  0  0  0  0  0
    4.0224   -1.9069   -0.7122 C   0  0  0  0  0  0  0  0  0  0  0  0
    4.9476   -2.1698   -1.2465 H   0  0  0  0  0  0  0  0  0  0  0  0
    2.8855   -1.5804   -1.4338 C   0  0  0  0  0  0  0  0  0  0  0  0
    2.8882   -1.5845   -2.5337 H   0  0  0  0  0  0  0  0  0  0  0  0
    1.6896   -1.2565   -0.7240 C   0  0  0  0  0  0  0  0  0  0  0  0
    0.3584   -0.8901   -1.1642 C   0  0  0  0  0  3  0  0  0  0  0  0
    0.0384   -0.8330   -2.2086 H   0  0  0  0  0  0  0  0  0  0  0  0
   -1.8594   -0.6732    0.0006 N   0  0  0  0  0  0  0  0  0  0  0  0
   -2.5327   -0.2471   -1.2241 C   0  0  0  0  0  0  0  0  0  0  0  0
   -2.0562   -0.7429   -2.0903 H   0  0  0  0  0  0  0  0  0  0  0  0
   -2.4319    0.8561   -1.3563 H   0  0  0  0  0  0  0  0  0  0  0  0
   -4.0107   -0.6268   -1.1907 C   0  0  0  0  0  0  0  0  0  0  0  0
   -4.1042   -1.7469   -1.2521 H   0  0  0  0  0  0  0  0  0  0  0  0
   -4.5060   -0.2064   -2.0903 H   0  0  0  0  0  0  0  0  0  0  0  0
   -4.6570   -0.0997   -0.0003 N   0  0  0  0  0  0  0  0  0  0  0  0
   -6.0906   -0.3098    0.0005 C   0  0  0  0  0  0  0  0  0  0  0  0
   -6.5427    0.1630    0.8960 H   0  0  0  0  0  0  0  0  0  0  0  0
   -6.3818   -1.3950    0.0032 H   0  0  0  0  0  0  0  0  0  0  0  0
   -6.5430    0.1585   -0.8972 H   0  0  0  0  0  0  0  0  0  0  0  0
   -4.0103   -0.6208    1.1925 C   0  0  0  0  0  0  0  0  0  0  0  0
   -4.1038   -1.7406    1.2596 H   0  0  0  0  0  0  0  0  0  0  0  0
   -4.5053   -0.1959    2.0901 H   0  0  0  0  0  0  0  0  0  0  0  0
   -2.5322   -0.2411    1.2234 C   0  0  0  0  0  0  0  0  0  0  0  0
   -2.4313    0.8627    1.3501 H   0  0  0  0  0  0  0  0  0  0  0  0
   -2.0555   -0.7326    2.0919 H   0  0  0  0  0  0  0  0  0  0  0  0
  1  2  1  0  0  0  0
  2  3  1  0  0  0  0
  4  2  1  0  0  0  0
  4  5  1  0  0  0  0
  5  6  1  0  0  0  0
  7  8  1  0  0  0  0
  7  5  2  0  0  0  0
  9  7  1  0  0  0  0
 10  9  1  0  0  0  0
 11 13  1  0  0  0  0
 11  9  2  0  0  0  0
 12 11  1  0  0  0  0
 13  4  2  0  0  0  0
 14 13  1  0  0  0  0
 14  1  1  0  0  0  0
 15 14  1  0  0  0  0
 16  1  1  0  0  0  0
 16 31  1  0  0  0  0
 17 20  1  0  0  0  0
 17 16  1  0  0  0  0
 18 17  1  0  0  0  0
 19 17  1  0  0  0  0
 20 23  1  0  0  0  0
 21 20  1  0  0  0  0
 22 20  1  0  0  0  0
 23 24  1  0  0  0  0
 23 28  1  0  0  0  0
 24 26  1  0  0  0  0
 24 25  1  0  0  0  0
 27 24  1  0  0  0  0
 28 31  1  0  0  0  0
 28 29  1  0  0  0  0
 28 30  1  0  0  0  0
 31 32  1  0  0  0  0
 31 33  1  0  0  0  0
M  END
