5,12
 OpenBabel05122313053D

 32 33  0  0  1  0  0  0  0  0999 V2000
    0.7914   -2.6066    0.8818 N   0  0  0  0  0  0  0  0  0  0  0  0
    1.8553   -0.8117    1.4559 N   0  0  0  0  0  0  0  0  0  0  0  0
    1.4522   -2.9173    2.0572 C   0  0  0  0  0  0  0  0  0  0  0  0
    1.3882   -3.8989    2.5353 H   0  0  0  0  0  0  0  0  0  0  0  0
    1.0188   -1.3140    0.4855 C   0  0  0  0  0  2  0  0  0  0  0  0
    2.1342   -1.7830    2.4177 C   0  0  0  0  0  0  0  0  0  0  0  0
    2.8006   -1.5840    3.2622 H   0  0  0  0  0  0  0  0  0  0  0  0
   -0.2029   -3.3662    0.1393 C   0  0  0  0  0  0  0  0  0  0  0  0
   -1.1762   -3.2886    0.6668 H   0  0  0  0  0  0  0  0  0  0  0  0
    0.0945   -4.4337    0.1203 H   0  0  0  0  0  0  0  0  0  0  0  0
   -0.2860   -2.7830   -1.2737 C   0  0  2  0  0  3  0  0  0  0  0  0
   -1.4379   -2.0268   -1.6396 C   0  0  0  0  0  3  0  0  0  0  0  0
   -2.2944   -1.9781   -0.9491 H   0  0  0  0  0  0  0  0  0  0  0  0
   -1.7245   -1.9969   -2.7039 H   0  0  0  0  0  0  0  0  0  0  0  0
    0.4559   -3.6157   -2.3044 C   0  0  0  0  0  0  0  0  0  0  0  0
    0.3155   -3.2333   -3.3318 H   0  0  0  0  0  0  0  0  0  0  0  0
    0.0579   -4.6546   -2.2873 H   0  0  0  0  0  0  0  0  0  0  0  0
    1.5428   -3.6803   -2.0936 H   0  0  0  0  0  0  0  0  0  0  0  0
    2.4116    0.5345    1.4976 C   0  0  0  0  0  0  0  0  0  0  0  0
    2.4839    0.8277    2.5659 H   0  0  0  0  0  0  0  0  0  0  0  0
    1.6668    1.2128    1.0437 H   0  0  0  0  0  0  0  0  0  0  0  0
    3.7561    0.6912    0.8146 C   0  0  0  0  0  0  0  0  0  0  0  0
    4.1799    1.9870    0.4592 C   0  0  0  0  0  0  0  0  0  0  0  0
    3.5320    2.8510    0.6816 H   0  0  0  0  0  0  0  0  0  0  0  0
    5.4152    2.1843   -0.1738 C   0  0  0  0  0  0  0  0  0  0  0  0
    5.7328    3.2012   -0.4487 H   0  0  0  0  0  0  0  0  0  0  0  0
    6.2426    1.0864   -0.4612 C   0  0  0  0  0  0  0  0  0  0  0  0
    7.2103    1.2398   -0.9614 H   0  0  0  0  0  0  0  0  0  0  0  0
    5.8294   -0.2064   -0.1054 C   0  0  0  0  0  0  0  0  0  0  0  0
    6.4740   -1.0709   -0.3238 H   0  0  0  0  0  0  0  0  0  0  0  0
    4.5931   -0.4039    0.5316 C   0  0  0  0  0  0  0  0  0  0  0  0
    4.2766   -1.4239    0.7985 H   0  0  0  0  0  0  0  0  0  0  0  0
  1  3  1  0  0  0  0
  2 19  1  0  0  0  0
  2  6  1  0  0  0  0
  3  6  2  0  0  0  0
  3  4  1  0  0  0  0
  5  1  1  0  0  0  0
  5  2  1  0  0  0  0
  6  7  1  0  0  0  0
  8  9  1  0  0  0  0
  8  1  1  0  0  0  0
 10  8  1  0  0  0  0
 11 12  1  6  0  0  0
 11  8  1  0  0  0  0
 12 13  1  0  0  0  0
 14 12  1  0  0  0  0
 15 17  1  0  0  0  0
 15 18  1  0  0  0  0
 15 11  1  0  0  0  0
 16 15  1  0  0  0  0
 19 20  1  0  0  0  0
 21 19  1  0  0  0  0
 22 19  1  0  0  0  0
 23 24  1  0  0  0  0
 23 22  2  0  0  0  0
 25 23  1  0  0  0  0
 26 25  1  0  0  0  0
 27 25  2  0  0  0  0
 27 29  1  0  0  0  0
 28 27  1  0  0  0  0
 29 31  2  0  0  0  0
 30 29  1  0  0  0  0
 31 32  1  0  0  0  0
 31 22  1  0  0  0  0
M  END
