5,12
 OpenBabel05122313053D

 22 22  0  0  1  0  0  0  0  0999 V2000
   -3.4684    2.1870   -0.1275 C   0  0  0  0  0  0  0  0  0  0  0  0
   -4.0933    2.8063   -0.7774 H   0  0  0  0  0  0  0  0  0  0  0  0
   -2.7716    1.0813   -0.5803 N   0  0  0  0  0  0  0  0  0  0  0  0
   -2.3267    1.2384    1.5333 N   0  0  0  0  0  0  0  0  0  0  0  0
   -2.0557    0.4784    0.4204 C   0  0  0  0  0  2  0  0  0  0  0  0
   -3.1949    2.2823    1.2136 C   0  0  0  0  0  0  0  0  0  0  0  0
   -3.5509    2.9911    1.9672 H   0  0  0  0  0  0  0  0  0  0  0  0
   -2.5807    0.5728   -1.9303 C   0  0  0  0  0  0  0  0  0  0  0  0
   -1.8062    1.1850   -2.4371 H   0  0  0  0  0  0  0  0  0  0  0  0
   -3.5278    0.6779   -2.4962 H   0  0  0  0  0  0  0  0  0  0  0  0
   -2.1529   -0.8937   -1.8222 C   0  0  2  0  0  3  0  0  0  0  0  0
   -0.8072   -1.2453   -2.1334 C   0  0  0  0  0  3  0  0  0  0  0  0
   -0.1348   -0.4853   -2.5614 H   0  0  0  0  0  0  0  0  0  0  0  0
   -0.6053   -2.2678   -2.4932 H   0  0  0  0  0  0  0  0  0  0  0  0
   -3.2882   -1.8675   -2.0824 C   0  0  0  0  0  0  0  0  0  0  0  0
   -4.1215   -1.7477   -1.3608 H   0  0  0  0  0  0  0  0  0  0  0  0
   -2.9496   -2.9195   -2.0635 H   0  0  0  0  0  0  0  0  0  0  0  0
   -3.7052   -1.6777   -3.0964 H   0  0  0  0  0  0  0  0  0  0  0  0
   -1.8211    0.9967    2.8761 C   0  0  0  0  0  0  0  0  0  0  0  0
   -1.7161    1.9604    3.4068 H   0  0  0  0  0  0  0  0  0  0  0  0
   -0.8272    0.5243    2.8078 H   0  0  0  0  0  0  0  0  0  0  0  0
   -2.5075    0.3430    3.4510 H   0  0  0  0  0  0  0  0  0  0  0  0
  1  6  2  0  0  0  0
  2  1  1  0  0  0  0
  3  1  1  0  0  0  0
  3  5  1  0  0  0  0
  4 19  1  0  0  0  0
  5  4  1  0  0  0  0
  6  4  1  0  0  0  0
  6  7  1  0  0  0  0
  8 11  1  0  0  0  0
  8  3  1  0  0  0  0
  9  8  1  0  0  0  0
 10  8  1  0  0  0  0
 11 12  1  6  0  0  0
 13 12  1  0  0  0  0
 14 12  1  0  0  0  0
 15 17  1  0  0  0  0
 15 11  1  0  0  0  0
 15 16  1  0  0  0  0
 18 15  1  0  0  0  0
 19 20  1  0  0  0  0
 19 22  1  0  0  0  0
 21 19  1  0  0  0  0
M  END
