4,10
 OpenBabel05122313053D

 40 42  0  0  0  0  0  0  0  0999 V2000
    5.4864    2.6747   -1.2057 F   0  0  0  0  0  0  0  0  0  0  0  0
    0.3088    1.9268    0.5000 N   0  0  0  0  0  0  0  0  0  0  0  0
   -1.4234    0.6236    0.6128 N   0  0  0  0  0  0  0  0  0  0  0  0
   -0.0897    0.6251    0.3107 C   0  0  0  0  0  2  0  0  0  0  0  0
   -0.7473    2.7232    0.9154 C   0  0  0  0  0  0  0  0  0  0  0  0
   -0.6485    3.7946    1.1071 H   0  0  0  0  0  0  0  0  0  0  0  0
   -1.8432    1.8993    0.9876 C   0  0  0  0  0  0  0  0  0  0  0  0
   -2.8845    2.1102    1.2450 H   0  0  0  0  0  0  0  0  0  0  0  0
    1.6416    2.2086    0.1238 C   0  0  0  0  0  0  0  0  0  0  0  0
    2.2975    1.0642   -0.4063 C   0  0  0  0  0  3  0  0  0  0  0  0
    3.6116    1.2634   -0.8699 C   0  0  0  0  0  0  0  0  0  0  0  0
    4.1864    0.4571   -1.3474 H   0  0  0  0  0  0  0  0  0  0  0  0
    4.2186    2.5240   -0.7612 C   0  0  0  0  0  0  0  0  0  0  0  0
    3.5615    3.6317   -0.2118 C   0  0  0  0  0  0  0  0  0  0  0  0
    4.0793    4.5985   -0.1502 H   0  0  0  0  0  0  0  0  0  0  0  0
    2.2399    3.4686    0.2326 C   0  0  0  0  0  0  0  0  0  0  0  0
    1.6914    4.3259    0.6509 H   0  0  0  0  0  0  0  0  0  0  0  0
   -2.2841   -0.5649    0.5117 C   0  0  0  0  0  0  0  0  0  0  0  0
   -2.1469   -1.1759    1.4261 H   0  0  0  0  0  0  0  0  0  0  0  0
   -1.8828   -1.1502   -0.3368 H   0  0  0  0  0  0  0  0  0  0  0  0
   -3.7377   -0.2124    0.3097 C   0  0  0  0  0  0  0  0  0  0  0  0
   -4.6119   -0.1198    1.4216 C   0  0  0  0  0  0  0  0  0  0  0  0
   -5.9536    0.2482    1.2060 C   0  0  0  0  0  0  0  0  0  0  0  0
   -6.6313    0.3216    2.0721 H   0  0  0  0  0  0  0  0  0  0  0  0
   -6.4489    0.5291   -0.0787 C   0  0  0  0  0  0  0  0  0  0  0  0
   -5.5594    0.4341   -1.1652 C   0  0  0  0  0  0  0  0  0  0  0  0
   -5.9252    0.6544   -2.1814 H   0  0  0  0  0  0  0  0  0  0  0  0
   -4.2125    0.0682   -0.9994 C   0  0  0  0  0  0  0  0  0  0  0  0
   -4.1327   -0.3980    2.8283 C   0  0  0  0  0  0  0  0  0  0  0  0
   -3.8096   -1.4532    2.9547 H   0  0  0  0  0  0  0  0  0  0  0  0
   -4.9372   -0.2106    3.5646 H   0  0  0  0  0  0  0  0  0  0  0  0
   -3.2667    0.2367    3.1104 H   0  0  0  0  0  0  0  0  0  0  0  0
   -7.8924    0.9069   -0.2971 C   0  0  0  0  0  0  0  0  0  0  0  0
   -8.4111    1.1164    0.6584 H   0  0  0  0  0  0  0  0  0  0  0  0
   -8.4460    0.0896   -0.8065 H   0  0  0  0  0  0  0  0  0  0  0  0
   -7.9832    1.8041   -0.9428 H   0  0  0  0  0  0  0  0  0  0  0  0
   -3.3027   -0.0319   -2.1972 C   0  0  0  0  0  0  0  0  0  0  0  0
   -2.9840   -1.0809   -2.3781 H   0  0  0  0  0  0  0  0  0  0  0  0
   -2.3596    0.5409   -2.0837 H   0  0  0  0  0  0  0  0  0  0  0  0
   -3.8119    0.3201   -3.1141 H   0  0  0  0  0  0  0  0  0  0  0  0
  1 13  1  0  0  0  0
  2  5  1  0  0  0  0
  3  7  1  0  0  0  0
  4  2  1  0  0  0  0
  4  3  1  0  0  0  0
  5  7  2  0  0  0  0
  5  6  1  0  0  0  0
  7  8  1  0  0  0  0
  9 16  1  0  0  0  0
  9  2  1  0  0  0  0
 10  9  2  0  0  0  0
 11 13  2  0  0  0  0
 11 10  1  0  0  0  0
 12 11  1  0  0  0  0
 13 14  1  0  0  0  0
 14 15  1  0  0  0  0
 14 16  2  0  0  0  0
 16 17  1  0  0  0  0
 18  3  1  0  0  0  0
 18 19  1  0  0  0  0
 20 18  1  0  0  0  0
 21 18  1  0  0  0  0
 21 22  1  0  0  0  0
 22 29  1  0  0  0  0
 23 22  2  0  0  0  0
 23 24  1  0  0  0  0
 25 23  1  0  0  0  0
 26 28  1  0  0  0  0
 26 25  2  0  0  0  0
 27 26  1  0  0  0  0
 28 21  2  0  0  0  0
 29 30  1  0  0  0  0
 29 32  1  0  0  0  0
 29 31  1  0  0  0  0
 33 25  1  0  0  0  0
 33 34  1  0  0  0  0
 35 33  1  0  0  0  0
 36 33  1  0  0  0  0
 37 39  1  0  0  0  0
 37 28  1  0  0  0  0
 38 37  1  0  0  0  0
 40 37  1  0  0  0  0
M  END
