4,10
 OpenBabel05122313053D

 40 42  0  0  0  0  0  0  0  0999 V2000
    5.8683   -2.4219   -0.9232 Cl  0  0  0  0  0  0  0  0  0  0  0  0
    0.2199   -1.7889    0.7022 N   0  0  0  0  0  0  0  0  0  0  0  0
   -1.5808   -0.5775    0.6664 N   0  0  0  0  0  0  0  0  0  0  0  0
   -0.2420   -0.5310    0.3930 C   0  0  0  0  0  2  0  0  0  0  0  0
   -0.8029   -2.6041    1.1633 C   0  0  0  0  0  0  0  0  0  0  0  0
   -0.6525   -3.6483    1.4487 H   0  0  0  0  0  0  0  0  0  0  0  0
   -1.9417   -1.8382    1.1413 C   0  0  0  0  0  0  0  0  0  0  0  0
   -2.9766   -2.0829    1.3946 H   0  0  0  0  0  0  0  0  0  0  0  0
    1.5734   -2.0280    0.3791 C   0  0  0  0  0  0  0  0  0  0  0  0
    2.1805   -0.9006   -0.2366 C   0  0  0  0  0  3  0  0  0  0  0  0
    3.5157   -1.0637   -0.6513 C   0  0  0  0  0  0  0  0  0  0  0  0
    4.0458   -0.2626   -1.1848 H   0  0  0  0  0  0  0  0  0  0  0  0
    4.1975   -2.2719   -0.4131 C   0  0  0  0  0  0  0  0  0  0  0  0
    3.5784   -3.3610    0.2207 C   0  0  0  0  0  0  0  0  0  0  0  0
    4.1365   -4.2912    0.3908 H   0  0  0  0  0  0  0  0  0  0  0  0
    2.2376   -3.2362    0.6152 C   0  0  0  0  0  0  0  0  0  0  0  0
    1.7272   -4.0838    1.0971 H   0  0  0  0  0  0  0  0  0  0  0  0
   -2.5017    0.5486    0.4465 C   0  0  0  0  0  0  0  0  0  0  0  0
   -2.1125    1.0814   -0.4413 H   0  0  0  0  0  0  0  0  0  0  0  0
   -2.4192    1.2413    1.3077 H   0  0  0  0  0  0  0  0  0  0  0  0
   -3.9289    0.0995    0.2480 C   0  0  0  0  0  0  0  0  0  0  0  0
   -4.3576   -0.3145   -1.0416 C   0  0  0  0  0  0  0  0  0  0  0  0
   -5.6782   -0.7686   -1.2004 C   0  0  0  0  0  0  0  0  0  0  0  0
   -6.0082   -1.0921   -2.2012 H   0  0  0  0  0  0  0  0  0  0  0  0
   -6.5856   -0.8241   -0.1260 C   0  0  0  0  0  0  0  0  0  0  0  0
   -6.1363   -0.4093    1.1392 C   0  0  0  0  0  0  0  0  0  0  0  0
   -6.8289   -0.4481    1.9956 H   0  0  0  0  0  0  0  0  0  0  0  0
   -4.8220    0.0506    1.3475 C   0  0  0  0  0  0  0  0  0  0  0  0
   -3.4282   -0.2610   -2.2273 C   0  0  0  0  0  0  0  0  0  0  0  0
   -3.1677    0.7865   -2.4911 H   0  0  0  0  0  0  0  0  0  0  0  0
   -3.8954   -0.7184   -3.1198 H   0  0  0  0  0  0  0  0  0  0  0  0
   -2.4560   -0.7646   -2.0494 H   0  0  0  0  0  0  0  0  0  0  0  0
   -4.3917    0.4725    2.7341 C   0  0  0  0  0  0  0  0  0  0  0  0
   -4.1294    1.5511    2.7762 H   0  0  0  0  0  0  0  0  0  0  0  0
   -3.4995   -0.0867    3.0857 H   0  0  0  0  0  0  0  0  0  0  0  0
   -5.2020    0.3029    3.4685 H   0  0  0  0  0  0  0  0  0  0  0  0
   -7.9991   -1.3052   -0.3378 C   0  0  0  0  0  0  0  0  0  0  0  0
   -8.5721   -0.5954   -0.9713 H   0  0  0  0  0  0  0  0  0  0  0  0
   -8.5434   -1.4147    0.6200 H   0  0  0  0  0  0  0  0  0  0  0  0
   -8.0190   -2.2845   -0.8587 H   0  0  0  0  0  0  0  0  0  0  0  0
  1 13  1  0  0  0  0
  2  5  1  0  0  0  0
  3  7  1  0  0  0  0
  4  3  1  0  0  0  0
  4  2  1  0  0  0  0
  5  6  1  0  0  0  0
  7  5  2  0  0  0  0
  7  8  1  0  0  0  0
  9 16  1  0  0  0  0
  9  2  1  0  0  0  0
 10  9  2  0  0  0  0
 11 13  2  0  0  0  0
 11 10  1  0  0  0  0
 12 11  1  0  0  0  0
 13 14  1  0  0  0  0
 14 15  1  0  0  0  0
 14 16  2  0  0  0  0
 16 17  1  0  0  0  0
 18  3  1  0  0  0  0
 18 20  1  0  0  0  0
 19 18  1  0  0  0  0
 21 18  1  0  0  0  0
 21 28  1  0  0  0  0
 22 21  2  0  0  0  0
 23 22  1  0  0  0  0
 23 25  2  0  0  0  0
 24 23  1  0  0  0  0
 25 26  1  0  0  0  0
 26 28  2  0  0  0  0
 26 27  1  0  0  0  0
 28 33  1  0  0  0  0
 29 32  1  0  0  0  0
 29 22  1  0  0  0  0
 30 29  1  0  0  0  0
 31 29  1  0  0  0  0
 33 34  1  0  0  0  0
 33 35  1  0  0  0  0
 33 36  1  0  0  0  0
 37 25  1  0  0  0  0
 37 39  1  0  0  0  0
 38 37  1  0  0  0  0
 40 37  1  0  0  0  0
M  END
