7,13
 OpenBabel05122313053D

 20 21  0  0  1  0  0  0  0  0999 V2000
   -3.3027    2.4425   -0.9078 F   0  0  0  0  0  0  0  0  0  0  0  0
   -5.3417    2.3378    0.7969 F   0  0  0  0  0  0  0  0  0  0  0  0
   -6.2969   -0.0714    1.7244 F   0  0  0  0  0  0  0  0  0  0  0  0
   -5.0935   -2.3954    0.8859 F   0  0  0  0  0  0  0  0  0  0  0  0
   -3.0596   -2.3528   -0.8254 F   0  0  0  0  0  0  0  0  0  0  0  0
   -1.9236    0.0893   -1.9045 C   0  0  1  0  0  3  0  0  0  0  0  0
   -1.2398    1.2629   -2.4051 C   0  0  0  0  0  3  0  0  0  0  0  0
   -1.5071    2.2937   -2.1655 H   0  0  0  0  0  0  0  0  0  0  0  0
   -0.2355    0.8715   -3.3671 C   0  0  0  0  0  0  0  0  0  0  0  0
    0.3845    1.5525   -3.9620 H   0  0  0  0  0  0  0  0  0  0  0  0
   -0.2293   -0.5439   -3.4263 C   0  0  0  0  0  0  0  0  0  0  0  0
    0.3985   -1.1645   -4.0760 H   0  0  0  0  0  0  0  0  0  0  0  0
   -1.2311   -1.0301   -2.5026 C   0  0  0  0  0  3  0  0  0  0  0  0
   -1.4868   -2.0807   -2.3497 H   0  0  0  0  0  0  0  0  0  0  0  0
   -3.0520    0.0487   -0.9773 C   0  0  0  0  0  0  0  0  0  0  0  0
   -3.7209    1.2157   -0.5241 C   0  0  0  0  0  0  0  0  0  0  0  0
   -4.8042    1.1893    0.3619 C   0  0  0  0  0  0  0  0  0  0  0  0
   -5.3066   -0.0348    0.8227 C   0  0  0  0  0  0  0  0  0  0  0  0
   -4.6817   -1.2167    0.4021 C   0  0  0  0  0  0  0  0  0  0  0  0
   -3.6024   -1.1641   -0.4856 C   0  0  0  0  0  0  0  0  0  0  0  0
  1 16  1  0  0  0  0
  5 20  1  0  0  0  0
  6 15  1  1  0  0  0
  7  8  1  0  0  0  0
  7  6  1  0  0  0  0
  9  7  1  0  0  0  0
 10  9  1  0  0  0  0
 11  9  2  0  0  0  0
 11 13  1  0  0  0  0
 12 11  1  0  0  0  0
 13 14  1  0  0  0  0
 13  6  1  0  0  0  0
 15 16  2  0  0  0  0
 15 20  1  0  0  0  0
 16 17  1  0  0  0  0
 17  2  1  0  0  0  0
 17 18  2  0  0  0  0
 18  3  1  0  0  0  0
 19 18  1  0  0  0  0
 19  4  1  0  0  0  0
 20 19  2  0  0  0  0
M  END
