12,18
 OpenBabel05122313053D

 35 37  0  0  0  0  0  0  0  0999 V2000
   -1.0423    0.0788   -0.1762 P   0  0  0  0  0  0  0  0  0  0  0  0
   -2.3006   -0.9119   -0.5164 O   0  0  0  0  0  0  0  0  0  0  0  0
   -1.5461    0.7596    1.2482 O   0  0  0  0  0  0  0  0  0  0  0  0
   -1.2554    1.2737   -1.3088 O   0  0  0  0  0  0  0  0  0  0  0  0
   -3.6665   -0.6578   -0.3871 C   0  0  0  0  0  0  0  0  0  0  0  0
   -4.4894   -1.7887   -0.2732 C   0  0  0  0  0  0  0  0  0  0  0  0
   -5.8768   -1.6203   -0.1645 C   0  0  0  0  0  0  0  0  0  0  0  0
   -6.4368   -0.3326   -0.1641 C   0  0  0  0  0  0  0  0  0  0  0  0
   -5.5984    0.7872   -0.2781 C   0  0  0  0  0  0  0  0  0  0  0  0
   -4.2080    0.6369   -0.3932 C   0  0  0  0  0  0  0  0  0  0  0  0
   -0.4949    1.1516    2.0909 C   0  0  0  0  0  0  0  0  0  0  0  0
    0.8466    0.8490    1.7436 C   0  0  0  0  0  3  0  0  0  0  0  0
    1.8295    1.2838    2.6603 C   0  0  0  0  0  0  0  0  0  0  0  0
    1.4957    1.9633    3.8449 C   0  0  0  0  0  0  0  0  0  0  0  0
    0.1537    2.2363    4.1492 C   0  0  0  0  0  0  0  0  0  0  0  0
   -0.8540    1.8283    3.2633 C   0  0  0  0  0  0  0  0  0  0  0  0
   -0.0644    1.9144   -1.6830 C   0  0  0  0  0  0  0  0  0  0  0  0
    1.1794    1.4398   -1.1958 C   0  0  0  0  0  3  0  0  0  0  0  0
    2.3183    2.1552   -1.6297 C   0  0  0  0  0  0  0  0  0  0  0  0
    2.2224    3.2566   -2.4977 C   0  0  0  0  0  0  0  0  0  0  0  0
    0.9692    3.6856   -2.9597 C   0  0  0  0  0  0  0  0  0  0  0  0
   -0.1881    3.0094   -2.5476 C   0  0  0  0  0  0  0  0  0  0  0  0
   -4.0281   -2.7867   -0.2727 H   0  0  0  0  0  0  0  0  0  0  0  0
   -6.5237   -2.5062   -0.0759 H   0  0  0  0  0  0  0  0  0  0  0  0
   -7.5254   -0.2023   -0.0756 H   0  0  0  0  0  0  0  0  0  0  0  0
   -6.0278    1.8005   -0.2808 H   0  0  0  0  0  0  0  0  0  0  0  0
   -3.5521    1.5117   -0.4928 H   0  0  0  0  0  0  0  0  0  0  0  0
    2.8898    1.0927    2.4369 H   0  0  0  0  0  0  0  0  0  0  0  0
    2.2944    2.2862    4.5300 H   0  0  0  0  0  0  0  0  0  0  0  0
   -0.1143    2.7706    5.0730 H   0  0  0  0  0  0  0  0  0  0  0  0
   -1.9173    2.0258    3.4613 H   0  0  0  0  0  0  0  0  0  0  0  0
    3.3115    1.8451   -1.2717 H   0  0  0  0  0  0  0  0  0  0  0  0
    3.1366    3.7852   -2.8082 H   0  0  0  0  0  0  0  0  0  0  0  0
    0.8863    4.5486   -3.6372 H   0  0  0  0  0  0  0  0  0  0  0  0
   -1.1894    3.3163   -2.8824 H   0  0  0  0  0  0  0  0  0  0  0  0
  1  3  1  0  0  0  0
  2  5  1  0  0  0  0
  2  1  1  0  0  0  0
  3 11  1  0  0  0  0
  4  1  1  0  0  0  0
  5  6  1  0  0  0  0
  6 23  1  0  0  0  0
  6  7  2  0  0  0  0
  7  8  1  0  0  0  0
  7 24  1  0  0  0  0
  8 25  1  0  0  0  0
  9  8  2  0  0  0  0
 10  5  2  0  0  0  0
 10  9  1  0  0  0  0
 11 16  1  0  0  0  0
 12 11  2  0  0  0  0
 12 13  1  0  0  0  0
 13 14  2  0  0  0  0
 14 15  1  0  0  0  0
 14 29  1  0  0  0  0
 15 30  1  0  0  0  0
 16 31  1  0  0  0  0
 16 15  2  0  0  0  0
 17  4  1  0  0  0  0
 17 18  1  0  0  0  0
 19 32  1  0  0  0  0
 19 18  2  0  0  0  0
 20 19  1  0  0  0  0
 21 22  1  0  0  0  0
 21 20  2  0  0  0  0
 22 17  2  0  0  0  0
 26  9  1  0  0  0  0
 27 10  1  0  0  0  0
 28 13  1  0  0  0  0
 33 20  1  0  0  0  0
 34 21  1  0  0  0  0
 35 22  1  0  0  0  0
M  END
