1,3
 OpenBabel05122313053D

 14 13  0  0  0  0  0  0  0  0999 V2000
   -1.6319    0.1123   -1.3052 C   0  0  0  0  0  3  0  0  0  0  0  0
   -2.4606    0.1162   -0.0678 C   0  0  0  0  0  0  0  0  0  0  0  0
   -1.7677    0.0720    1.1177 C   0  0  0  0  0  3  0  0  0  0  0  0
   -2.1219    0.1803   -2.5633 C   0  0  0  0  0  0  0  0  0  0  0  0
   -3.9708    0.2192   -0.1861 C   0  0  0  0  0  0  0  0  0  0  0  0
   -2.3743    0.1475    2.4803 C   0  0  0  0  0  0  0  0  0  0  0  0
   -3.2065    0.2246   -2.7831 H   0  0  0  0  0  0  0  0  0  0  0  0
   -1.4622    0.1949   -3.4475 H   0  0  0  0  0  0  0  0  0  0  0  0
   -4.3750   -0.5659   -0.8595 H   0  0  0  0  0  0  0  0  0  0  0  0
   -4.2684    1.1945   -0.6283 H   0  0  0  0  0  0  0  0  0  0  0  0
   -4.4715    0.1260    0.7965 H   0  0  0  0  0  0  0  0  0  0  0  0
   -1.6697   -0.1494    3.2822 H   0  0  0  0  0  0  0  0  0  0  0  0
   -3.2849   -0.4833    2.5862 H   0  0  0  0  0  0  0  0  0  0  0  0
   -2.6917    1.1887    2.7150 H   0  0  0  0  0  0  0  0  0  0  0  0
  1  2  1  0  0  0  0
  2  3  2  0  0  0  0
  3  6  1  0  0  0  0
  4  1  2  0  0  0  0
  5  2  1  0  0  0  0
  5 11  1  0  0  0  0
  6 13  1  0  0  0  0
  6 14  1  0  0  0  0
  6 12  1  0  0  0  0
  7  4  1  0  0  0  0
  8  4  1  0  0  0  0
  9  5  1  0  0  0  0
 10  5  1  0  0  0  0
M  END
