1,13
 OpenBabel05122313053D

 50 52  0  0  0  0  0  0  0  0999 V2000
   -1.6460   -1.3368    0.3715 C   0  0  0  0  0  3  0  0  0  0  0  0
   -1.5653   -2.3974    0.1158 H   0  0  0  0  0  0  0  0  0  0  0  0
   -2.5090   -0.7950    1.4018 C   0  0  0  0  0  0  0  0  0  0  0  0
   -3.4694   -1.3961    2.2706 C   0  0  0  0  0  0  0  0  0  0  0  0
   -3.6555   -2.4790    2.2190 H   0  0  0  0  0  0  0  0  0  0  0  0
   -4.1368   -0.5964    3.1847 C   0  0  0  0  0  0  0  0  0  0  0  0
   -4.8709   -1.0492    3.8678 H   0  0  0  0  0  0  0  0  0  0  0  0
   -3.8967    0.8092    3.2564 C   0  0  0  0  0  0  0  0  0  0  0  0
   -4.4509    1.4094    3.9935 H   0  0  0  0  0  0  0  0  0  0  0  0
   -2.9870    1.4294    2.4149 C   0  0  0  0  0  0  0  0  0  0  0  0
   -2.8028    2.5122    2.4738 H   0  0  0  0  0  0  0  0  0  0  0  0
   -2.2653    0.6336    1.4742 C   0  0  0  0  0  0  0  0  0  0  0  0
   -1.2559    0.9590    0.4875 C   0  0  0  0  0  3  0  0  0  0  0  0
   -0.8259    1.9521    0.3278 H   0  0  0  0  0  0  0  0  0  0  0  0
   -0.7760   -0.2773   -0.0880 C   0  0  0  0  0  3  0  0  0  0  0  0
    0.2601   -0.4042   -0.9719 N   0  0  0  0  0  0  0  0  0  0  0  0
    0.9621    0.7848   -1.4313 C   0  0  0  0  0  0  0  0  0  0  0  0
    0.2393    1.6036   -1.6421 H   0  0  0  0  0  0  0  0  0  0  0  0
    1.4514    0.5497   -2.3962 H   0  0  0  0  0  0  0  0  0  0  0  0
    2.0360    1.2865   -0.4645 C   0  0  0  0  0  0  0  0  0  0  0  0
    1.5830    1.5744    0.5162 H   0  0  0  0  0  0  0  0  0  0  0  0
    2.7706    0.4804   -0.2515 H   0  0  0  0  0  0  0  0  0  0  0  0
    2.6188    2.4182   -1.0951 O   0  0  0  0  0  0  0  0  0  0  0  0
    3.5005    3.1869   -0.3079 C   0  0  0  0  0  0  0  0  0  0  0  0
    3.0751    3.3777    0.7086 H   0  0  0  0  0  0  0  0  0  0  0  0
    3.6058    4.1652   -0.8229 H   0  0  0  0  0  0  0  0  0  0  0  0
    4.8858    2.5751   -0.1493 C   0  0  0  0  0  0  0  0  0  0  0  0
    5.6077    3.3582    0.2001 H   0  0  0  0  0  0  0  0  0  0  0  0
    5.2379    2.2237   -1.1511 H   0  0  0  0  0  0  0  0  0  0  0  0
    4.8189    1.5019    0.7649 O   0  0  0  0  0  0  0  0  0  0  0  0
    5.9494    0.6651    0.7676 C   0  0  0  0  0  0  0  0  0  0  0  0
    6.8628    1.2017    1.1334 H   0  0  0  0  0  0  0  0  0  0  0  0
    6.1842    0.3145   -0.2695 H   0  0  0  0  0  0  0  0  0  0  0  0
    5.6719   -0.5145    1.6916 C   0  0  0  0  0  0  0  0  0  0  0  0
    6.6045   -1.1247    1.7892 H   0  0  0  0  0  0  0  0  0  0  0  0
    5.4160   -0.1187    2.6962 H   0  0  0  0  0  0  0  0  0  0  0  0
    4.5750   -1.3109    1.2964 O   0  0  0  0  0  0  0  0  0  0  0  0
    4.8369   -2.2003    0.2326 C   0  0  0  0  0  0  0  0  0  0  0  0
    5.6381   -2.9304    0.5128 H   0  0  0  0  0  0  0  0  0  0  0  0
    5.1780   -1.6698   -0.6891 H   0  0  0  0  0  0  0  0  0  0  0  0
    3.5659   -2.9585   -0.0875 C   0  0  0  0  0  0  0  0  0  0  0  0
    3.8141   -3.8584   -0.7051 H   0  0  0  0  0  0  0  0  0  0  0  0
    3.1207   -3.3227    0.8705 H   0  0  0  0  0  0  0  0  0  0  0  0
    2.6656   -2.1129   -0.7720 O   0  0  0  0  0  0  0  0  0  0  0  0
    1.3668   -2.6509   -0.8735 C   0  0  0  0  0  0  0  0  0  0  0  0
    0.9414   -2.8454    0.1426 H   0  0  0  0  0  0  0  0  0  0  0  0
    1.3765   -3.6313   -1.4155 H   0  0  0  0  0  0  0  0  0  0  0  0
    0.4806   -1.6774   -1.6414 C   0  0  0  0  0  0  0  0  0  0  0  0
    0.9529   -1.4709   -2.6223 H   0  0  0  0  0  0  0  0  0  0  0  0
   -0.4950   -2.1640   -1.8583 H   0  0  0  0  0  0  0  0  0  0  0  0
  1  3  1  0  0  0  0
  2  1  1  0  0  0  0
  3 12  2  0  0  0  0
  3  4  1  0  0  0  0
  4  6  2  0  0  0  0
  5  4  1  0  0  0  0
  6  8  1  0  0  0  0
  6  7  1  0  0  0  0
  8  9  1  0  0  0  0
 10 11  1  0  0  0  0
 10  8  2  0  0  0  0
 12 10  1  0  0  0  0
 13 12  1  0  0  0  0
 14 13  1  0  0  0  0
 15  1  1  0  0  0  0
 15 13  1  0  0  0  0
 16 15  1  0  0  0  0
 17 16  1  0  0  0  0
 17 20  1  0  0  0  0
 18 17  1  0  0  0  0
 19 17  1  0  0  0  0
 20 22  1  0  0  0  0
 20 21  1  0  0  0  0
 23 20  1  0  0  0  0
 23 24  1  0  0  0  0
 24 27  1  0  0  0  0
 24 25  1  0  0  0  0
 26 24  1  0  0  0  0
 27 28  1  0  0  0  0
 27 30  1  0  0  0  0
 29 27  1  0  0  0  0
 30 31  1  0  0  0  0
 31 32  1  0  0  0  0
 31 34  1  0  0  0  0
 33 31  1  0  0  0  0
 34 35  1  0  0  0  0
 34 36  1  0  0  0  0
 37 34  1  0  0  0  0
 38 39  1  0  0  0  0
 38 37  1  0  0  0  0
 40 38  1  0  0  0  0
 41 38  1  0  0  0  0
 41 43  1  0  0  0  0
 42 41  1  0  0  0  0
 44 41  1  0  0  0  0
 45 44  1  0  0  0  0
 45 46  1  0  0  0  0
 47 45  1  0  0  0  0
 48 16  1  0  0  0  0
 48 45  1  0  0  0  0
 49 48  1  0  0  0  0
 50 48  1  0  0  0  0
M  END
