1,9
q = 0.0, confidence = 1.0

 16 16  0  0  1  0  0  0  0  0999 V2000
   -1.4608    1.1797   -1.9576 C   0  0  0  0  0  3  0  0  0  0  0  0
   -2.5557    1.0972   -1.8766 H   0  0  0  0  0  0  0  0  0  0  0  0
   -0.7509    0.1970   -2.7107 C   0  0  0  0  0  0  0  0  0  0  0  0
   -1.2994   -0.5868   -3.2525 H   0  0  0  0  0  0  0  0  0  0  0  0
    0.6652    0.2408   -2.7596 C   0  0  0  0  0  0  0  0  0  0  0  0
    1.2326   -0.4926   -3.3509 H   0  0  0  0  0  0  0  0  0  0  0  0
    1.3334    1.2943   -2.0637 C   0  0  0  0  0  3  0  0  0  0  0  0
    2.4320    1.3122   -2.0461 H   0  0  0  0  0  0  0  0  0  0  0  0
    0.6245    2.2438   -1.2709 C   0  0  0  0  0  3  0  0  0  0  0  0
    1.1882    3.0022   -0.7085 H   0  0  0  0  0  0  0  0  0  0  0  0
   -0.8029    2.2302   -1.2249 C   0  0  1  0  0  3  0  0  0  0  0  0
   -1.5903    3.2305   -0.5010 C   0  0  0  0  0  0  0  0  0  0  0  0
   -2.6665    2.9966   -0.4143 H   0  0  0  0  0  0  0  0  0  0  0  0
   -1.1455    4.3854    0.0464 C   0  0  0  0  0  0  0  0  0  0  0  0
   -0.0926    4.7010   -0.0232 H   0  0  0  0  0  0  0  0  0  0  0  0
   -1.8307    5.0555    0.5864 H   0  0  0  0  0  0  0  0  0  0  0  0
  1  2  1  0  0  0  0
  1 11  1  0  0  0  0
  3  1  1  0  0  0  0
  4  3  1  0  0  0  0
  5  3  2  0  0  0  0
  5  7  1  0  0  0  0
  6  5  1  0  0  0  0
  7  8  1  0  0  0  0
  7  9  1  0  0  0  0
  9 11  1  0  0  0  0
  9 10  1  0  0  0  0
 11 12  1  6  0  0  0
 12 13  1  0  0  0  0
 12 14  2  0  0  0  0
 14 16  1  0  0  0  0
 15 14  1  0  0  0  0
M  END
