5,9
q = -1.0, confidence = 0.004

 19 19  0  0  0  0  0  0  0  0999 V2000
    1.4414   -2.7520   -1.1192 C   0  0  0  0  0  0  0  0  0  0  0  0
    1.8300   -3.2869   -2.0281 H   0  0  0  0  0  0  0  0  0  0  0  0
    2.0478   -1.3672   -0.9686 C   0  0  0  0  0  3  0  0  0  0  0  0
    2.9692   -1.2524   -0.3756 H   0  0  0  0  0  0  0  0  0  0  0  0
    1.7386   -0.3484   -1.9105 C   0  0  0  0  0  3  0  0  0  0  0  0
    2.4094    0.5154   -2.0464 H   0  0  0  0  0  0  0  0  0  0  0  0
    0.4806   -0.3775   -2.5990 C   0  0  0  0  0  3  0  0  0  0  0  0
    0.2095    0.3874   -3.3405 H   0  0  0  0  0  0  0  0  0  0  0  0
   -0.4304   -1.4018   -2.1996 C   0  0  0  0  0  3  0  0  0  0  0  0
   -1.4654   -1.3812   -2.5761 H   0  0  0  0  0  0  0  0  0  0  0  0
   -0.0231   -2.3782   -1.2458 C   0  0  0  0  0  3  0  0  0  0  0  0
   -0.7826   -3.0954   -0.8959 H   0  0  0  0  0  0  0  0  0  0  0  0
    1.7031   -3.6648    0.0867 C   0  0  0  0  0  0  0  0  0  0  0  0
    1.3345   -3.1446    0.9980 H   0  0  0  0  0  0  0  0  0  0  0  0
    1.0780   -4.5780   -0.0273 H   0  0  0  0  0  0  0  0  0  0  0  0
    3.1666   -4.0703    0.2623 C   0  0  0  0  0  0  0  0  0  0  0  0
    3.8192   -3.1916    0.4456 H   0  0  0  0  0  0  0  0  0  0  0  0
    3.5551   -4.5852   -0.6416 H   0  0  0  0  0  0  0  0  0  0  0  0
    3.2977   -4.7587    1.1217 H   0  0  0  0  0  0  0  0  0  0  0  0
  1  3  1  0  0  0  0
  1 13  1  0  0  0  0
  2  1  1  0  0  0  0
  3  4  1  0  0  0  0
  5  3  1  0  0  0  0
  6  5  1  0  0  0  0
  7  9  1  0  0  0  0
  7  5  1  0  0  0  0
  8  7  1  0  0  0  0
  9 11  1  0  0  0  0
 10  9  1  0  0  0  0
 11  1  1  0  0  0  0
 11 12  1  0  0  0  0
 13 16  1  0  0  0  0
 13 14  1  0  0  0  0
 15 13  1  0  0  0  0
 16 17  1  0  0  0  0
 16 19  1  0  0  0  0
 18 16  1  0  0  0  0
M  END
