1,2
q = -2.0, confidence = 0.708

 27 28  0  0  0  0  0  0  0  0999 V2000
    1.3754   -1.2722   -0.0512 C   0  0  0  0  0  3  0  0  0  0  0  0
    0.4502    0.7532    0.0408 C   0  0  0  0  0  3  0  0  0  0  0  0
   -0.8420    2.7125   -0.0265 C   0  0  0  0  0  0  0  0  0  0  0  0
   -1.2804    3.3056   -1.2349 C   0  0  0  0  0  0  0  0  0  0  0  0
   -2.4929    4.0059   -1.2888 C   0  0  0  0  0  0  0  0  0  0  0  0
   -3.2835    4.1564   -0.1371 C   0  0  0  0  0  0  0  0  0  0  0  0
   -2.8360    3.6064    1.0754 C   0  0  0  0  0  0  0  0  0  0  0  0
   -1.6303    2.8940    1.1343 C   0  0  0  0  0  0  0  0  0  0  0  0
    2.9935    0.6904    0.0417 C   0  0  0  0  0  0  0  0  0  0  0  0
    4.0244    0.2095   -0.7882 C   0  0  0  0  0  0  0  0  0  0  0  0
    5.2841    0.8240   -0.7544 C   0  0  0  0  0  0  0  0  0  0  0  0
    5.5221    1.9156    0.0953 C   0  0  0  0  0  0  0  0  0  0  0  0
    4.4885    2.3949    0.9157 C   0  0  0  0  0  0  0  0  0  0  0  0
    3.2258    1.7878    0.8940 C   0  0  0  0  0  0  0  0  0  0  0  0
    1.7004    0.0762    0.0218 N   0  0  0  0  0  0  0  0  0  0  0  0
    0.3768    2.0316    0.0050 N   0  0  0  0  0  0  0  0  0  0  0  0
    2.3925   -2.5675   -0.1323 S   0  0  0  0  0  0  0  0  0  0  0  0
   -0.6464    3.2101   -2.1291 H   0  0  0  0  0  0  0  0  0  0  0  0
   -2.8195    4.4481   -2.2429 H   0  0  0  0  0  0  0  0  0  0  0  0
   -4.2314    4.7127   -0.1805 H   0  0  0  0  0  0  0  0  0  0  0  0
   -3.4328    3.7354    1.9920 H   0  0  0  0  0  0  0  0  0  0  0  0
   -1.2755    2.4816    2.0893 H   0  0  0  0  0  0  0  0  0  0  0  0
    3.8367   -0.6514   -1.4417 H   0  0  0  0  0  0  0  0  0  0  0  0
    6.0875    0.4431   -1.4029 H   0  0  0  0  0  0  0  0  0  0  0  0
    6.5128    2.3942    0.1172 H   0  0  0  0  0  0  0  0  0  0  0  0
    4.6643    3.2527    1.5824 H   0  0  0  0  0  0  0  0  0  0  0  0
    2.4120    2.1682    1.5237 H   0  0  0  0  0  0  0  0  0  0  0  0
  1 15  1  0  0  0  0
  3 16  1  0  0  0  0
  3  8  1  0  0  0  0
  4  3  2  0  0  0  0
  5  4  1  0  0  0  0
  5  6  2  0  0  0  0
  6  7  1  0  0  0  0
  7  8  2  0  0  0  0
  7 21  1  0  0  0  0
  8 22  1  0  0  0  0
  9 14  1  0  0  0  0
 10 11  1  0  0  0  0
 10  9  2  0  0  0  0
 11 12  2  0  0  0  0
 12 25  1  0  0  0  0
 12 13  1  0  0  0  0
 13 26  1  0  0  0  0
 14 13  2  0  0  0  0
 14 27  1  0  0  0  0
 15  2  1  0  0  0  0
 15  9  1  0  0  0  0
 16  2  2  0  0  0  0
 17  1  2  0  0  0  0
 18  4  1  0  0  0  0
 19  5  1  0  0  0  0
 20  6  1  0  0  0  0
 23 10  1  0  0  0  0
 24 11  1  0  0  0  0
M  END
