3,17
q = -1.0, confidence = 0.022

 23 23  0  0  0  0  0  0  0  0999 V2000
   -4.5110    2.2479    0.7699 O   0  0  0  0  0  0  0  0  0  0  0  0
   -5.4427    1.9645    0.6547 H   0  0  0  0  0  0  0  0  0  0  0  0
   -1.5971    0.1179    0.0310 C   0  0  0  0  0  3  0  0  0  0  0  0
   -5.7808    0.0743    0.0002 O   0  0  0  0  0  0  0  0  0  0  0  0
   -2.2472   -1.0668   -0.3896 C   0  0  0  0  0  0  0  0  0  0  0  0
   -3.6556   -1.1279   -0.4201 C   0  0  0  0  0  0  0  0  0  0  0  0
   -4.1549   -2.0508   -0.7497 H   0  0  0  0  0  0  0  0  0  0  0  0
   -4.4053   -0.0121   -0.0283 C   0  0  0  0  0  0  0  0  0  0  0  0
   -3.7574    1.1786    0.3962 C   0  0  0  0  0  0  0  0  0  0  0  0
   -2.3573    1.2359    0.4239 C   0  0  0  0  0  0  0  0  0  0  0  0
   -1.8731    2.1732    0.7307 H   0  0  0  0  0  0  0  0  0  0  0  0
   -1.3600   -2.2067   -0.8340 C   0  0  0  0  0  0  0  0  0  0  0  0
   -1.7937   -3.1996   -0.5749 H   0  0  0  0  0  0  0  0  0  0  0  0
   -1.2455   -2.2001   -1.9411 H   0  0  0  0  0  0  0  0  0  0  0  0
    0.0145   -2.0614   -0.2004 C   0  0  0  0  0  3  0  0  0  0  0  0
    0.8542   -2.5405   -0.7354 H   0  0  0  0  0  0  0  0  0  0  0  0
    0.1747   -1.7769    1.1841 C   0  0  0  0  0  3  0  0  0  0  0  0
   -0.7110   -1.7017    1.8372 H   0  0  0  0  0  0  0  0  0  0  0  0
    1.1104   -2.0627    1.6930 H   0  0  0  0  0  0  0  0  0  0  0  0
   -6.5273   -1.0465   -0.4214 C   0  0  0  0  0  0  0  0  0  0  0  0
   -6.3073   -1.3138   -1.4801 H   0  0  0  0  0  0  0  0  0  0  0  0
   -7.5954   -0.7725   -0.3331 H   0  0  0  0  0  0  0  0  0  0  0  0
   -6.3282   -1.9383    0.2156 H   0  0  0  0  0  0  0  0  0  0  0  0
  2  1  1  0  0  0  0
  3 10  1  0  0  0  0
  5  3  2  0  0  0  0
  6  5  1  0  0  0  0
  6  8  2  0  0  0  0
  7  6  1  0  0  0  0
  8  4  1  0  0  0  0
  8  9  1  0  0  0  0
  9 10  2  0  0  0  0
  9  1  1  0  0  0  0
 10 11  1  0  0  0  0
 12 13  1  0  0  0  0
 12  5  1  0  0  0  0
 12 15  1  0  0  0  0
 14 12  1  0  0  0  0
 15 17  1  0  0  0  0
 16 15  1  0  0  0  0
 17 19  1  0  0  0  0
 17 18  1  0  0  0  0
 20 22  1  0  0  0  0
 20  4  1  0  0  0  0
 20 23  1  0  0  0  0
 21 20  1  0  0  0  0
M  END
