4,15
q = 0.0, confidence = 0.518

 61 64  0  0  0  0  0  0  0  0999 V2000
   -0.1975    2.6690   -0.1867 N   0  0  0  0  0  0  0  0  0  0  0  0
    1.8515    1.8385   -0.2841 N   0  0  0  0  0  0  0  0  0  0  0  0
   -1.2014   -2.2662    0.2900 O   0  0  0  0  0  0  0  0  0  0  0  0
   -1.9273    0.2788   -0.1257 C   0  0  0  0  0  2  0  0  0  0  0  0
   -2.8351   -0.8066   -0.5411 C   0  0  0  0  0  0  0  0  0  0  0  0
   -2.4363   -2.1534   -0.2825 C   0  0  0  0  0  0  0  0  0  0  0  0
   -3.2537   -3.2385   -0.6304 C   0  0  0  0  0  0  0  0  0  0  0  0
   -2.9548   -4.2675   -0.3930 H   0  0  0  0  0  0  0  0  0  0  0  0
   -4.4567   -3.0001   -1.3147 C   0  0  0  0  0  0  0  0  0  0  0  0
   -5.0900   -3.8539   -1.5993 H   0  0  0  0  0  0  0  0  0  0  0  0
   -4.8371   -1.6931   -1.6550 C   0  0  0  0  0  0  0  0  0  0  0  0
   -5.7599   -1.5146   -2.2259 H   0  0  0  0  0  0  0  0  0  0  0  0
   -4.0348   -0.6126   -1.2674 C   0  0  0  0  0  0  0  0  0  0  0  0
   -4.3224    0.4099   -1.5489 H   0  0  0  0  0  0  0  0  0  0  0  0
    0.5377    1.4963   -0.1073 C   0  0  0  0  0  2  0  0  0  0  0  0
   -1.5612    2.7829    0.0725 C   0  0  0  0  0  0  0  0  0  0  0  0
   -2.4143    1.6286    0.1377 C   0  0  0  0  0  0  0  0  0  0  0  0
   -3.7591    1.8369    0.5493 C   0  0  0  0  0  0  0  0  0  0  0  0
   -4.3959    0.9541    0.6937 H   0  0  0  0  0  0  0  0  0  0  0  0
   -4.2808    3.1063    0.8043 C   0  0  0  0  0  0  0  0  0  0  0  0
   -5.3252    3.2186    1.1300 H   0  0  0  0  0  0  0  0  0  0  0  0
   -3.4558    4.2300    0.6415 C   0  0  0  0  0  0  0  0  0  0  0  0
   -3.8487    5.2428    0.8167 H   0  0  0  0  0  0  0  0  0  0  0  0
   -2.1130    4.0678    0.2871 C   0  0  0  0  0  0  0  0  0  0  0  0
   -1.4782    4.9586    0.2026 H   0  0  0  0  0  0  0  0  0  0  0  0
    0.6670    3.8525   -0.2936 C   0  0  0  0  0  0  0  0  0  0  0  0
    0.6697    4.4083    0.6702 H   0  0  0  0  0  0  0  0  0  0  0  0
    0.3045    4.5388   -1.0843 H   0  0  0  0  0  0  0  0  0  0  0  0
    2.0407    3.2511   -0.6169 C   0  0  0  0  0  0  0  0  0  0  0  0
    2.8569    3.6946   -0.0121 H   0  0  0  0  0  0  0  0  0  0  0  0
    2.3068    3.3695   -1.6901 H   0  0  0  0  0  0  0  0  0  0  0  0
    2.9450    0.9131   -0.2456 C   0  0  0  0  0  0  0  0  0  0  0  0
    3.4929    0.5644    1.0145 C   0  0  0  0  0  0  0  0  0  0  0  0
    4.5303   -0.3854    1.0436 C   0  0  0  0  0  0  0  0  0  0  0  0
    4.9558   -0.6712    2.0192 H   0  0  0  0  0  0  0  0  0  0  0  0
    5.0495   -0.9590   -0.1305 C   0  0  0  0  0  0  0  0  0  0  0  0
    4.5356   -0.5240   -1.3656 C   0  0  0  0  0  0  0  0  0  0  0  0
    4.9552   -0.9324   -2.2991 H   0  0  0  0  0  0  0  0  0  0  0  0
    3.4951    0.4165   -1.4531 C   0  0  0  0  0  0  0  0  0  0  0  0
    3.0085    1.2097    2.2841 C   0  0  0  0  0  0  0  0  0  0  0  0
    2.0239    0.7965    2.5932 H   0  0  0  0  0  0  0  0  0  0  0  0
    2.8694    2.3028    2.1582 H   0  0  0  0  0  0  0  0  0  0  0  0
    3.7286    1.0439    3.1079 H   0  0  0  0  0  0  0  0  0  0  0  0
    3.0233    0.9048   -2.7973 C   0  0  0  0  0  0  0  0  0  0  0  0
    3.2641    0.1703   -3.5889 H   0  0  0  0  0  0  0  0  0  0  0  0
    3.5248    1.8597   -3.0691 H   0  0  0  0  0  0  0  0  0  0  0  0
    1.9283    1.0580   -2.8106 H   0  0  0  0  0  0  0  0  0  0  0  0
    6.1223   -2.0168   -0.0682 C   0  0  0  0  0  0  0  0  0  0  0  0
    6.7423   -1.9186    0.8447 H   0  0  0  0  0  0  0  0  0  0  0  0
    6.7917   -1.9746   -0.9502 H   0  0  0  0  0  0  0  0  0  0  0  0
    5.6726   -3.0331   -0.0500 H   0  0  0  0  0  0  0  0  0  0  0  0
   -0.6512   -3.5479    0.7269 C   0  0  0  0  0  0  0  0  0  0  0  0
   -0.9363   -4.2974   -0.0425 H   0  0  0  0  0  0  0  0  0  0  0  0
    0.8626   -3.3952    0.7332 C   0  0  0  0  0  0  0  0  0  0  0  0
    1.1694   -2.6352    1.4798 H   0  0  0  0  0  0  0  0  0  0  0  0
    1.3291   -4.3631    1.0035 H   0  0  0  0  0  0  0  0  0  0  0  0
    1.2250   -3.0848   -0.2660 H   0  0  0  0  0  0  0  0  0  0  0  0
   -1.2418   -3.9005    2.0862 C   0  0  0  0  0  0  0  0  0  0  0  0
   -0.9728   -3.1107    2.8151 H   0  0  0  0  0  0  0  0  0  0  0  0
   -0.8410   -4.8728    2.4362 H   0  0  0  0  0  0  0  0  0  0  0  0
   -2.3461   -3.9770    2.0432 H   0  0  0  0  0  0  0  0  0  0  0  0
  1 15  1  0  0  0  0
  1 16  1  0  0  0  0
  2 32  1  0  0  0  0
  2 15  1  0  0  0  0
  3 52  1  0  0  0  0
  4 17  1  0  0  0  0
  5  6  1  0  0  0  0
  5  4  1  0  0  0  0
  6  3  1  0  0  0  0
  7  8  1  0  0  0  0
  7  6  2  0  0  0  0
  9  7  1  0  0  0  0
 10  9  1  0  0  0  0
 11  9  2  0  0  0  0
 11 13  1  0  0  0  0
 12 11  1  0  0  0  0
 13  5  2  0  0  0  0
 14 13  1  0  0  0  0
 16 17  2  0  0  0  0
 16 24  1  0  0  0  0
 17 18  1  0  0  0  0
 18 19  1  0  0  0  0
 18 20  2  0  0  0  0
 20 21  1  0  0  0  0
 22 20  1  0  0  0  0
 22 23  1  0  0  0  0
 24 22  2  0  0  0  0
 25 24  1  0  0  0  0
 26  1  1  0  0  0  0
 26 27  1  0  0  0  0
 28 26  1  0  0  0  0
 29 26  1  0  0  0  0
 29  2  1  0  0  0  0
 29 30  1  0  0  0  0
 31 29  1  0  0  0  0
 32 33  1  0  0  0  0
 33 34  2  0  0  0  0
 33 40  1  0  0  0  0
 34 35  1  0  0  0  0
 36 48  1  0  0  0  0
 36 34  1  0  0  0  0
 37 36  2  0  0  0  0
 38 37  1  0  0  0  0
 39 37  1  0  0  0  0
 39 32  2  0  0  0  0
 40 41  1  0  0  0  0
 40 43  1  0  0  0  0
 42 40  1  0  0  0  0
 44 39  1  0  0  0  0
 45 44  1  0  0  0  0
 46 44  1  0  0  0  0
 47 44  1  0  0  0  0
 48 51  1  0  0  0  0
 48 49  1  0  0  0  0
 50 48  1  0  0  0  0
 52 54  1  0  0  0  0
 52 58  1  0  0  0  0
 53 52  1  0  0  0  0
 54 56  1  0  0  0  0
 54 55  1  0  0  0  0
 57 54  1  0  0  0  0
 58 60  1  0  0  0  0
 58 59  1  0  0  0  0
 61 58  1  0  0  0  0
M  END
