1,3
q = -1.0, confidence = 0.01

 33 33  0  0  0  0  0  0  0  0999 V2000
   -0.0852    1.9797   -0.4912 C   0  0  0  0  0  2  0  0  0  0  0  0
   -0.0629    1.5651   -1.8650 C   0  0  0  0  0  0  0  0  0  0  0  0
   -0.0166    0.1314   -2.2319 C   0  0  0  0  0  3  0  0  0  0  0  0
   -0.0895    3.3179    0.0969 C   0  0  0  0  0  0  0  0  0  0  0  0
   -1.2908    3.8538    0.6409 C   0  0  0  0  0  0  0  0  0  0  0  0
   -1.2535    5.1361    1.2091 C   0  0  0  0  0  0  0  0  0  0  0  0
   -2.1847    5.5527    1.6264 H   0  0  0  0  0  0  0  0  0  0  0  0
   -0.0703    5.8977    1.2659 C   0  0  0  0  0  0  0  0  0  0  0  0
    1.1052    5.3350    0.7386 C   0  0  0  0  0  0  0  0  0  0  0  0
    2.0466    5.9055    0.7882 H   0  0  0  0  0  0  0  0  0  0  0  0
    1.1243    4.0553    0.1584 C   0  0  0  0  0  0  0  0  0  0  0  0
   -2.5649    3.0558    0.6178 C   0  0  0  0  0  0  0  0  0  0  0  0
   -2.4627    2.1177    1.2001 H   0  0  0  0  0  0  0  0  0  0  0  0
   -2.8373    2.7437   -0.4079 H   0  0  0  0  0  0  0  0  0  0  0  0
   -3.4097    3.6314    1.0401 H   0  0  0  0  0  0  0  0  0  0  0  0
   -0.0703    7.2673    1.8953 C   0  0  0  0  0  0  0  0  0  0  0  0
   -0.8508    7.9168    1.4481 H   0  0  0  0  0  0  0  0  0  0  0  0
    0.9070    7.7735    1.7772 H   0  0  0  0  0  0  0  0  0  0  0  0
   -0.2906    7.2066    2.9821 H   0  0  0  0  0  0  0  0  0  0  0  0
    2.4060    3.4570   -0.3528 C   0  0  0  0  0  0  0  0  0  0  0  0
    3.2672    4.1267   -0.1700 H   0  0  0  0  0  0  0  0  0  0  0  0
    2.3652    3.2541   -1.4424 H   0  0  0  0  0  0  0  0  0  0  0  0
    2.6132    2.4840    0.1346 H   0  0  0  0  0  0  0  0  0  0  0  0
   -0.0962    2.5639   -2.9865 C   0  0  0  0  0  0  0  0  0  0  0  0
   -0.1156    3.5976   -2.5965 H   0  0  0  0  0  0  0  0  0  0  0  0
   -0.9955    2.3729   -3.6057 H   0  0  0  0  0  0  0  0  0  0  0  0
    0.7878    2.4106   -3.6370 H   0  0  0  0  0  0  0  0  0  0  0  0
    0.0719   -0.3699   -3.5198 C   0  0  0  0  0  0  0  0  0  0  0  0
    0.1656   -0.8339   -4.6579 C   0  0  0  0  0  0  0  0  0  0  0  0
    0.2805   -1.4139   -5.9816 C   0  0  0  0  0  0  0  0  0  0  0  0
    1.0883   -2.1757   -6.0118 H   0  0  0  0  0  0  0  0  0  0  0  0
    0.5138   -0.6434   -6.7459 H   0  0  0  0  0  0  0  0  0  0  0  0
   -0.6638   -1.9147   -6.2843 H   0  0  0  0  0  0  0  0  0  0  0  0
  1  4  1  0  0  0  0
  2  1  1  0  0  0  0
  3  2  2  0  0  0  0
  4 11  2  0  0  0  0
  4  5  1  0  0  0  0
  5  6  2  0  0  0  0
  6  8  1  0  0  0  0
  6  7  1  0  0  0  0
  8 16  1  0  0  0  0
  9 10  1  0  0  0  0
  9  8  2  0  0  0  0
 11  9  1  0  0  0  0
 12  5  1  0  0  0  0
 12 15  1  0  0  0  0
 12 13  1  0  0  0  0
 14 12  1  0  0  0  0
 16 19  1  0  0  0  0
 17 16  1  0  0  0  0
 18 16  1  0  0  0  0
 20 21  1  0  0  0  0
 20 23  1  0  0  0  0
 20 11  1  0  0  0  0
 22 20  1  0  0  0  0
 24 25  1  0  0  0  0
 24  2  1  0  0  0  0
 26 24  1  0  0  0  0
 27 24  1  0  0  0  0
 28  3  1  0  0  0  0
 29 28  3  0  0  0  0
 30 29  1  0  0  0  0
 31 30  1  0  0  0  0
 32 30  1  0  0  0  0
 33 30  1  0  0  0  0
M  END
