5,7
q = -1.0, confidence = 0.008

 51 55  0  0  1  0  0  0  0  0999 V2000
    0.2072   -2.8700   -1.1598 O   0  0  0  0  0  0  0  0  0  0  0  0
    1.1624   -3.1081   -1.2114 H   0  0  0  0  0  0  0  0  0  0  0  0
    0.1057   -1.5792   -0.8493 C   0  0  0  0  0  0  0  0  0  0  0  0
   -1.1356   -0.8664   -0.6677 C   0  0  0  0  0  0  0  0  0  0  0  0
   -0.7643    0.5413   -0.4182 C   0  0  1  0  0  3  0  0  0  0  0  0
    0.6837    0.6575   -0.4655 C   0  0  1  0  0  3  0  0  0  0  0  0
    1.2315   -0.6813   -0.6323 C   0  0  2  0  0  3  0  0  0  0  0  0
   -2.4961   -1.3970   -0.8844 C   0  0  0  0  0  0  0  0  0  0  0  0
   -2.6954   -2.4987   -1.7503 C   0  0  0  0  0  0  0  0  0  0  0  0
   -1.8377   -2.9802   -2.2364 H   0  0  0  0  0  0  0  0  0  0  0  0
   -3.9875   -2.9778   -2.0030 C   0  0  0  0  0  0  0  0  0  0  0  0
   -4.1249   -3.8310   -2.6835 H   0  0  0  0  0  0  0  0  0  0  0  0
   -5.0982   -2.3766   -1.3929 C   0  0  0  0  0  0  0  0  0  0  0  0
   -6.1111   -2.7589   -1.5884 H   0  0  0  0  0  0  0  0  0  0  0  0
   -4.9109   -1.2851   -0.5286 C   0  0  0  0  0  0  0  0  0  0  0  0
   -5.7757   -0.8097   -0.0429 H   0  0  0  0  0  0  0  0  0  0  0  0
   -3.6249   -0.7956   -0.2781 C   0  0  0  0  0  0  0  0  0  0  0  0
   -3.5017    0.0611    0.3967 H   0  0  0  0  0  0  0  0  0  0  0  0
   -1.7125    1.6840   -0.4596 C   0  0  0  0  0  0  0  0  0  0  0  0
   -2.2364    2.0461   -1.7187 C   0  0  0  0  0  0  0  0  0  0  0  0
   -1.9400    1.4814   -2.6153 H   0  0  0  0  0  0  0  0  0  0  0  0
   -3.1339    3.1169   -1.8279 C   0  0  0  0  0  0  0  0  0  0  0  0
   -3.5350    3.3916   -2.8147 H   0  0  0  0  0  0  0  0  0  0  0  0
   -3.5221    3.8328   -0.6846 C   0  0  0  0  0  0  0  0  0  0  0  0
   -4.2299    4.6702   -0.7722 H   0  0  0  0  0  0  0  0  0  0  0  0
   -3.0082    3.4754    0.5716 C   0  0  0  0  0  0  0  0  0  0  0  0
   -3.3123    4.0292    1.4720 H   0  0  0  0  0  0  0  0  0  0  0  0
   -2.1081    2.4063    0.6835 C   0  0  0  0  0  0  0  0  0  0  0  0
   -1.7153    2.1201    1.6711 H   0  0  0  0  0  0  0  0  0  0  0  0
    1.4750    1.9040   -0.4999 C   0  0  0  0  0  0  0  0  0  0  0  0
    2.4941    2.0216   -1.4736 C   0  0  0  0  0  0  0  0  0  0  0  0
    2.6994    1.1867   -2.1579 H   0  0  0  0  0  0  0  0  0  0  0  0
    3.2280    3.2090   -1.5901 C   0  0  0  0  0  0  0  0  0  0  0  0
    4.0110    3.2903   -2.3583 H   0  0  0  0  0  0  0  0  0  0  0  0
    2.9658    4.2879   -0.7321 C   0  0  0  0  0  0  0  0  0  0  0  0
    3.5485    5.2168   -0.8196 H   0  0  0  0  0  0  0  0  0  0  0  0
    1.9590    4.1775    0.2408 C   0  0  0  0  0  0  0  0  0  0  0  0
    1.7527    5.0174    0.9203 H   0  0  0  0  0  0  0  0  0  0  0  0
    1.2157    2.9971    0.3554 C   0  0  0  0  0  0  0  0  0  0  0  0
    0.4365    2.9208    1.1246 H   0  0  0  0  0  0  0  0  0  0  0  0
    2.6369   -1.1073   -0.8279 C   0  0  0  0  0  0  0  0  0  0  0  0
    2.9776   -1.7905   -2.0207 C   0  0  0  0  0  0  0  0  0  0  0  0
    2.2168   -1.9555   -2.8009 H   0  0  0  0  0  0  0  0  0  0  0  0
    4.2986   -2.2111   -2.2448 C   0  0  0  0  0  0  0  0  0  0  0  0
    4.5521   -2.7373   -3.1769 H   0  0  0  0  0  0  0  0  0  0  0  0
    5.2911   -1.9465   -1.2903 C   0  0  0  0  0  0  0  0  0  0  0  0
    6.3259   -2.2754   -1.4656 H   0  0  0  0  0  0  0  0  0  0  0  0
    4.9618   -1.2581   -0.1098 C   0  0  0  0  0  0  0  0  0  0  0  0
    5.7388   -1.0474    0.6397 H   0  0  0  0  0  0  0  0  0  0  0  0
    3.6447   -0.8461    0.1243 C   0  0  0  0  0  0  0  0  0  0  0  0
    3.3898   -0.3169    1.0536 H   0  0  0  0  0  0  0  0  0  0  0  0
  1  3  1  0  0  0  0
  2  1  1  0  0  0  0
  3  4  2  0  0  0  0
  3  7  1  0  0  0  0
  4  5  1  0  0  0  0
  5 19  1  6  0  0  0
  6 30  1  6  0  0  0
  6  5  1  0  0  0  0
  7 41  1  6  0  0  0
  7  6  1  0  0  0  0
  8  4  1  0  0  0  0
  8 17  1  0  0  0  0
  9  8  2  0  0  0  0
 10  9  1  0  0  0  0
 11  9  1  0  0  0  0
 11 13  2  0  0  0  0
 12 11  1  0  0  0  0
 13 15  1  0  0  0  0
 14 13  1  0  0  0  0
 15 17  2  0  0  0  0
 15 16  1  0  0  0  0
 17 18  1  0  0  0  0
 19 28  1  0  0  0  0
 20 19  2  0  0  0  0
 21 20  1  0  0  0  0
 22 20  1  0  0  0  0
 22 24  2  0  0  0  0
 23 22  1  0  0  0  0
 24 26  1  0  0  0  0
 25 24  1  0  0  0  0
 26 28  2  0  0  0  0
 26 27  1  0  0  0  0
 28 29  1  0  0  0  0
 30 39  1  0  0  0  0
 31 30  2  0  0  0  0
 32 31  1  0  0  0  0
 33 31  1  0  0  0  0
 33 35  2  0  0  0  0
 34 33  1  0  0  0  0
 35 37  1  0  0  0  0
 36 35  1  0  0  0  0
 37 39  2  0  0  0  0
 37 38  1  0  0  0  0
 39 40  1  0  0  0  0
 41 50  1  0  0  0  0
 42 41  2  0  0  0  0
 43 42  1  0  0  0  0
 44 42  1  0  0  0  0
 44 46  2  0  0  0  0
 45 44  1  0  0  0  0
 46 48  1  0  0  0  0
 47 46  1  0  0  0  0
 48 50  2  0  0  0  0
 48 49  1  0  0  0  0
 50 51  1  0  0  0  0
M  END
