3,5
q = 0.0, confidence = 0.944

 25 27  0  0  1  0  0  0  0  0999 V2000
    1.7691    0.8067   -1.2990 C   0  0  2  0  0  0  0  0  0  0  0  0
    0.4377    0.0765   -1.5117 C   0  0  0  0  0  3  0  0  0  0  0  0
    0.3121   -1.2674   -1.0673 C   0  0  0  0  0  3  0  0  0  0  0  0
    1.2255   -1.7404    0.0470 C   0  0  2  0  0  0  0  0  0  0  0  0
    0.3117   -1.2081    1.1340 C   0  0  0  0  0  3  0  0  0  0  0  0
    0.4373    0.1577    1.5055 C   0  0  0  0  0  3  0  0  0  0  0  0
    1.7688    0.8753    1.2541 C   0  0  1  0  0  0  0  0  0  0  0  0
    2.8715   -0.2056    1.2529 C   0  0  0  0  0  0  0  0  0  0  0  0
    2.6681   -1.1136    0.0303 C   0  0  2  0  0  0  0  0  0  0  0  0
    2.8717   -0.2727   -1.2395 C   0  0  0  0  0  0  0  0  0  0  0  0
    1.8591    1.6942   -0.0454 C   0  0  0  0  0  0  0  0  0  0  0  0
    1.9293    1.4549   -2.1848 H   0  0  0  0  0  0  0  0  0  0  0  0
   -0.0857    0.3316   -2.4465 H   0  0  0  0  0  0  0  0  0  0  0  0
   -0.2431   -2.0228   -1.6416 H   0  0  0  0  0  0  0  0  0  0  0  0
    1.2730   -2.8437    0.0767 H   0  0  0  0  0  0  0  0  0  0  0  0
   -0.2438   -1.9316    1.7480 H   0  0  0  0  0  0  0  0  0  0  0  0
   -0.0862    0.4629    2.4252 H   0  0  0  0  0  0  0  0  0  0  0  0
    1.9290    1.5702    2.1038 H   0  0  0  0  0  0  0  0  0  0  0  0
    2.8288   -0.7909    2.1953 H   0  0  0  0  0  0  0  0  0  0  0  0
    3.8764    0.2653    1.2037 H   0  0  0  0  0  0  0  0  0  0  0  0
    3.4053   -1.9414    0.0526 H   0  0  0  0  0  0  0  0  0  0  0  0
    2.8290   -0.9080   -2.1490 H   0  0  0  0  0  0  0  0  0  0  0  0
    3.8767    0.1999   -1.2157 H   0  0  0  0  0  0  0  0  0  0  0  0
    2.8364    2.2255   -0.0596 H   0  0  0  0  0  0  0  0  0  0  0  0
    1.0751    2.4745   -0.0663 H   0  0  0  0  0  0  0  0  0  0  0  0
  1 12  1  6  0  0  0
  1 10  1  0  0  0  0
  1 11  1  0  0  0  0
  2  1  1  0  0  0  0
  2  3  1  0  0  0  0
  3  4  1  0  0  0  0
  4 15  1  1  0  0  0
  4  5  1  0  0  0  0
  5  6  1  0  0  0  0
  5 16  1  0  0  0  0
  6 17  1  0  0  0  0
  7  6  1  0  0  0  0
  7 18  1  1  0  0  0
  8  7  1  0  0  0  0
  8 19  1  0  0  0  0
  9  4  1  0  0  0  0
  9 21  1  1  0  0  0
  9  8  1  0  0  0  0
 10 23  1  0  0  0  0
 10  9  1  0  0  0  0
 11  7  1  0  0  0  0
 13  2  1  0  0  0  0
 14  3  1  0  0  0  0
 20  8  1  0  0  0  0
 22 10  1  0  0  0  0
 24 11  1  0  0  0  0
 25 11  1  0  0  0  0
M  END
