4,24
q = -1.0, confidence = 0.002

 32 33  0  0  0  0  0  0  0  0999 V2000
    2.0473   -3.2260    0.9430 N   0  0  0  0  0  0  0  0  0  0  0  0
    1.3921   -2.9413    2.0693 N   0  0  0  0  0  2  0  0  0  0  0  0
    0.6544   -1.8946    1.7191 N   0  0  0  0  0  0  0  0  0  0  0  0
    0.7983   -1.4873    0.4029 C   0  0  0  0  0  3  0  0  0  0  0  0
    1.7336   -2.3943   -0.1114 C   0  0  0  0  0  0  0  0  0  0  0  0
    2.9767   -4.3419    0.9402 C   0  0  0  0  0  0  0  0  0  0  0  0
    3.0245   -4.7403    1.9680 H   0  0  0  0  0  0  0  0  0  0  0  0
    3.9800   -3.9983    0.6232 H   0  0  0  0  0  0  0  0  0  0  0  0
    2.6280   -5.1332    0.2485 H   0  0  0  0  0  0  0  0  0  0  0  0
    2.3838   -2.4318   -1.4517 C   0  0  0  0  0  0  0  0  0  0  0  0
    1.6035   -2.1663   -2.1946 H   0  0  0  0  0  0  0  0  0  0  0  0
    2.7557   -3.4517   -1.6855 H   0  0  0  0  0  0  0  0  0  0  0  0
    3.5150   -1.3910   -1.5712 C   0  0  0  0  0  0  0  0  0  0  0  0
    3.1032   -0.4113   -1.2508 H   0  0  0  0  0  0  0  0  0  0  0  0
    4.3423   -1.6417   -0.8678 H   0  0  0  0  0  0  0  0  0  0  0  0
    4.0492   -1.2533   -2.9970 C   0  0  0  0  0  0  0  0  0  0  0  0
    4.4263   -2.2367   -3.3587 H   0  0  0  0  0  0  0  0  0  0  0  0
    3.1945   -0.9825   -3.6536 H   0  0  0  0  0  0  0  0  0  0  0  0
    5.1445   -0.1937   -3.1147 C   0  0  0  0  0  0  0  0  0  0  0  0
    4.7665    0.7994   -2.7944 H   0  0  0  0  0  0  0  0  0  0  0  0
    5.5088   -0.0935   -4.1569 H   0  0  0  0  0  0  0  0  0  0  0  0
    6.0198   -0.4387   -2.4761 H   0  0  0  0  0  0  0  0  0  0  0  0
   -0.2207   -1.1570    2.5505 C   0  0  0  0  0  0  0  0  0  0  0  0
   -0.8184   -0.0703    1.8654 C   0  0  0  0  0  3  0  0  0  0  0  0
   -1.7032    0.7375    2.5970 C   0  0  0  0  0  0  0  0  0  0  0  0
   -2.1932    1.5940    2.1105 H   0  0  0  0  0  0  0  0  0  0  0  0
   -1.9669    0.4576    3.9490 C   0  0  0  0  0  0  0  0  0  0  0  0
   -2.6636    1.1013    4.5079 H   0  0  0  0  0  0  0  0  0  0  0  0
   -1.3552   -0.6315    4.5981 C   0  0  0  0  0  0  0  0  0  0  0  0
   -1.5723   -0.8375    5.6566 H   0  0  0  0  0  0  0  0  0  0  0  0
   -0.4668   -1.4570    3.8966 C   0  0  0  0  0  0  0  0  0  0  0  0
    0.0300   -2.3153    4.3709 H   0  0  0  0  0  0  0  0  0  0  0  0
  1  2  1  0  0  0  0
  3  2  1  0  0  0  0
  3 23  1  0  0  0  0
  4  3  1  0  0  0  0
  5  4  2  0  0  0  0
  5  1  1  0  0  0  0
  6  1  1  0  0  0  0
  6  7  1  0  0  0  0
  8  6  1  0  0  0  0
  9  6  1  0  0  0  0
 10  5  1  0  0  0  0
 11 10  1  0  0  0  0
 12 10  1  0  0  0  0
 13 10  1  0  0  0  0
 13 14  1  0  0  0  0
 13 15  1  0  0  0  0
 16 13  1  0  0  0  0
 17 16  1  0  0  0  0
 18 16  1  0  0  0  0
 19 16  1  0  0  0  0
 19 20  1  0  0  0  0
 19 22  1  0  0  0  0
 21 19  1  0  0  0  0
 23 31  1  0  0  0  0
 24 23  2  0  0  0  0
 24 25  1  0  0  0  0
 25 27  2  0  0  0  0
 26 25  1  0  0  0  0
 27 28  1  0  0  0  0
 27 29  1  0  0  0  0
 29 30  1  0  0  0  0
 31 32  1  0  0  0  0
 31 29  2  0  0  0  0
M  END
