5,16
q = 0.0, confidence = 0.996

 54 57  0  0  0  0  0  0  0  0999 V2000
   -0.0813   -1.7026   -1.7611 N   0  0  0  0  0  0  0  0  0  0  0  0
    2.0016   -1.1885   -2.0975 N   0  0  0  0  0  0  0  0  0  0  0  0
    2.8154    1.4423   -0.9106 N   0  0  0  0  0  0  0  0  0  0  0  0
    0.9604    2.5331   -0.6578 N   0  0  0  0  0  0  0  0  0  0  0  0
    1.0040   -1.1286   -1.1548 C   0  0  0  0  0  2  0  0  0  0  0  0
    0.2325   -2.1323   -3.0467 C   0  0  0  0  0  0  0  0  0  0  0  0
   -0.5095   -2.6015   -3.6982 H   0  0  0  0  0  0  0  0  0  0  0  0
    1.5443   -1.8118   -3.2602 C   0  0  0  0  0  0  0  0  0  0  0  0
    2.1896   -1.9733   -4.1287 H   0  0  0  0  0  0  0  0  0  0  0  0
    3.3965   -0.7457   -1.9759 C   0  0  0  0  0  0  0  0  0  0  0  0
    3.6802   -0.3358   -2.9673 H   0  0  0  0  0  0  0  0  0  0  0  0
    4.0418   -1.6301   -1.7858 H   0  0  0  0  0  0  0  0  0  0  0  0
    3.7041    0.2897   -0.8861 C   0  0  0  0  0  0  0  0  0  0  0  0
    3.6086   -0.1624    0.1221 H   0  0  0  0  0  0  0  0  0  0  0  0
    4.7499    0.6296   -1.0232 H   0  0  0  0  0  0  0  0  0  0  0  0
    1.5869    1.3668   -0.3139 C   0  0  0  0  0  2  0  0  0  0  0  0
    1.8045    3.3359   -1.4286 C   0  0  0  0  0  0  0  0  0  0  0  0
    1.5093    4.3362   -1.7559 H   0  0  0  0  0  0  0  0  0  0  0  0
    2.9743    2.6422   -1.5959 C   0  0  0  0  0  0  0  0  0  0  0  0
    3.9015    2.9143   -2.1087 H   0  0  0  0  0  0  0  0  0  0  0  0
   -1.3948   -1.7650   -1.1765 C   0  0  0  0  0  0  0  0  0  0  0  0
   -2.0591   -0.5607   -0.9119 C   0  0  0  0  0  0  0  0  0  0  0  0
   -1.5694    0.3932   -1.1459 H   0  0  0  0  0  0  0  0  0  0  0  0
   -3.3318   -0.5767   -0.3325 C   0  0  0  0  0  0  0  0  0  0  0  0
   -3.8375    0.3777   -0.1213 H   0  0  0  0  0  0  0  0  0  0  0  0
   -3.9549   -1.7978   -0.0140 C   0  0  0  0  0  0  0  0  0  0  0  0
   -3.2621   -2.9920   -0.2954 C   0  0  0  0  0  0  0  0  0  0  0  0
   -3.7289   -3.9552   -0.0328 H   0  0  0  0  0  0  0  0  0  0  0  0
   -1.9766   -3.0139   -0.8659 C   0  0  0  0  0  0  0  0  0  0  0  0
   -1.2223   -4.3032   -1.0452 C   0  0  0  0  0  0  0  0  0  0  0  0
   -0.9201   -4.4873   -2.0964 H   0  0  0  0  0  0  0  0  0  0  0  0
   -1.8294   -5.1649   -0.7102 H   0  0  0  0  0  0  0  0  0  0  0  0
   -0.2982   -4.2631   -0.4274 H   0  0  0  0  0  0  0  0  0  0  0  0
   -5.3055   -1.8325    0.6549 C   0  0  0  0  0  0  0  0  0  0  0  0
   -5.1955   -1.9762    1.7513 H   0  0  0  0  0  0  0  0  0  0  0  0
   -5.9288   -2.6686    0.2798 H   0  0  0  0  0  0  0  0  0  0  0  0
   -5.8623   -0.8874    0.5008 H   0  0  0  0  0  0  0  0  0  0  0  0
   -0.4165    2.8252   -0.3659 C   0  0  0  0  0  0  0  0  0  0  0  0
   -1.3357    2.9476   -1.4336 C   0  0  0  0  0  0  0  0  0  0  0  0
   -2.6832    3.1871   -1.0985 C   0  0  0  0  0  0  0  0  0  0  0  0
   -3.4173    3.2753   -1.9158 H   0  0  0  0  0  0  0  0  0  0  0  0
   -3.1285    3.2803    0.2333 C   0  0  0  0  0  0  0  0  0  0  0  0
   -2.1782    3.1300    1.2639 C   0  0  0  0  0  0  0  0  0  0  0  0
   -2.4980    3.1733    2.3165 H   0  0  0  0  0  0  0  0  0  0  0  0
   -0.8297    2.9058    0.9724 C   0  0  0  0  0  0  0  0  0  0  0  0
   -0.0909    2.7328    1.7726 H   0  0  0  0  0  0  0  0  0  0  0  0
   -0.9248    2.7659   -2.8741 C   0  0  0  0  0  0  0  0  0  0  0  0
   -0.2163    1.9202   -2.9904 H   0  0  0  0  0  0  0  0  0  0  0  0
   -0.4195    3.6633   -3.2885 H   0  0  0  0  0  0  0  0  0  0  0  0
   -1.8090    2.5640   -3.5081 H   0  0  0  0  0  0  0  0  0  0  0  0
   -4.5865    3.4901    0.5553 C   0  0  0  0  0  0  0  0  0  0  0  0
   -5.0213    2.5860    1.0330 H   0  0  0  0  0  0  0  0  0  0  0  0
   -5.1816    3.7116   -0.3515 H   0  0  0  0  0  0  0  0  0  0  0  0
   -4.7261    4.3248    1.2721 H   0  0  0  0  0  0  0  0  0  0  0  0
  1 21  1  0  0  0  0
  1  5  1  0  0  0  0
  2 10  1  0  0  0  0
  2  5  1  0  0  0  0
  3 13  1  0  0  0  0
  3 16  1  0  0  0  0
  4 38  1  0  0  0  0
  4 16  1  0  0  0  0
  6  1  1  0  0  0  0
  7  6  1  0  0  0  0
  8  6  2  0  0  0  0
  8  2  1  0  0  0  0
  9  8  1  0  0  0  0
 10 12  1  0  0  0  0
 10 13  1  0  0  0  0
 11 10  1  0  0  0  0
 13 14  1  0  0  0  0
 15 13  1  0  0  0  0
 17  4  1  0  0  0  0
 18 17  1  0  0  0  0
 19 17  2  0  0  0  0
 19  3  1  0  0  0  0
 20 19  1  0  0  0  0
 21 22  2  0  0  0  0
 21 29  1  0  0  0  0
 22 24  1  0  0  0  0
 23 22  1  0  0  0  0
 24 25  1  0  0  0  0
 24 26  2  0  0  0  0
 26 34  1  0  0  0  0
 27 28  1  0  0  0  0
 27 26  1  0  0  0  0
 29 27  2  0  0  0  0
 30 29  1  0  0  0  0
 30 32  1  0  0  0  0
 30 33  1  0  0  0  0
 31 30  1  0  0  0  0
 34 35  1  0  0  0  0
 36 34  1  0  0  0  0
 37 34  1  0  0  0  0
 38 45  1  0  0  0  0
 39 40  1  0  0  0  0
 39 38  2  0  0  0  0
 40 42  2  0  0  0  0
 41 40  1  0  0  0  0
 42 51  1  0  0  0  0
 42 43  1  0  0  0  0
 43 44  1  0  0  0  0
 45 43  2  0  0  0  0
 45 46  1  0  0  0  0
 47 39  1  0  0  0  0
 48 47  1  0  0  0  0
 49 47  1  0  0  0  0
 50 47  1  0  0  0  0
 51 52  1  0  0  0  0
 51 54  1  0  0  0  0
 53 51  1  0  0  0  0
M  END
