5,9
q = -1.0, confidence = 0.018

 34 34  0  0  0  0  0  0  0  0999 V2000
   -1.5533   -3.0580   -1.2393 O   0  0  0  0  0  0  0  0  0  0  0  0
   -0.3049   -2.6951    0.6074 O   0  0  0  0  0  0  0  0  0  0  0  0
   -4.9078   -1.7489   -0.8365 O   0  0  0  0  0  0  0  0  0  0  0  0
   -3.5223   -2.5265    0.7796 O   0  0  0  0  0  0  0  0  0  0  0  0
   -1.1183    1.8041    0.4313 C   0  0  0  0  0  2  0  0  0  0  0  0
   -2.5137    1.9856    0.0596 C   0  0  0  0  0  0  0  0  0  0  0  0
   -3.3607    0.8714   -0.3045 C   0  0  0  0  0  0  0  0  0  0  0  0
   -2.8813   -0.5133   -0.2594 C   0  0  0  0  0  0  0  0  0  0  0  0
   -1.5372   -0.8456   -0.2661 C   0  0  0  0  0  3  0  0  0  0  0  0
   -0.5003    2.8087    1.3873 C   0  0  0  0  0  0  0  0  0  0  0  0
   -0.4626    3.7898    0.8596 H   0  0  0  0  0  0  0  0  0  0  0  0
    0.5548    2.5317    1.5683 H   0  0  0  0  0  0  0  0  0  0  0  0
   -1.2197    2.9999    2.7329 C   0  0  0  0  0  0  0  0  0  0  0  0
   -2.2865    3.2673    2.6041 H   0  0  0  0  0  0  0  0  0  0  0  0
   -0.7302    3.8071    3.3141 H   0  0  0  0  0  0  0  0  0  0  0  0
   -1.1734    2.0773    3.3415 H   0  0  0  0  0  0  0  0  0  0  0  0
   -3.0700    3.2972    0.0509 C   0  0  0  0  0  0  0  0  0  0  0  0
   -2.4215    4.1464    0.3093 H   0  0  0  0  0  0  0  0  0  0  0  0
   -4.3856    3.5441   -0.3310 C   0  0  0  0  0  0  0  0  0  0  0  0
   -4.7700    4.5745   -0.3665 H   0  0  0  0  0  0  0  0  0  0  0  0
   -5.2094    2.4557   -0.6761 C   0  0  0  0  0  0  0  0  0  0  0  0
   -6.2532    2.6270   -0.9813 H   0  0  0  0  0  0  0  0  0  0  0  0
   -4.7100    1.1534   -0.6478 C   0  0  0  0  0  0  0  0  0  0  0  0
   -5.3548    0.3118   -0.9313 H   0  0  0  0  0  0  0  0  0  0  0  0
   -3.8867   -1.6215   -0.1807 C   0  0  0  0  0  0  0  0  0  0  0  0
   -4.2481   -3.7579    0.7696 C   0  0  0  0  0  0  0  0  0  0  0  0
   -5.3396   -3.5755    0.7201 H   0  0  0  0  0  0  0  0  0  0  0  0
   -3.9791   -4.2849    1.7029 H   0  0  0  0  0  0  0  0  0  0  0  0
   -3.9455   -4.3616   -0.1117 H   0  0  0  0  0  0  0  0  0  0  0  0
   -1.1745   -2.3032   -0.3520 C   0  0  0  0  0  0  0  0  0  0  0  0
    0.2155   -4.0182    0.4675 C   0  0  0  0  0  0  0  0  0  0  0  0
   -0.5991   -4.7705    0.4506 H   0  0  0  0  0  0  0  0  0  0  0  0
    0.8734   -4.1769    1.3409 H   0  0  0  0  0  0  0  0  0  0  0  0
    0.7958   -4.1078   -0.4742 H   0  0  0  0  0  0  0  0  0  0  0  0
  1 30  2  0  0  0  0
  3 25  2  0  0  0  0
  5 10  1  0  0  0  0
  6  5  1  0  0  0  0
  7  8  1  0  0  0  0
  7  6  2  0  0  0  0
  8 25  1  0  0  0  0
  9  8  2  0  0  0  0
 10 12  1  0  0  0  0
 10 13  1  0  0  0  0
 11 10  1  0  0  0  0
 13 15  1  0  0  0  0
 13 16  1  0  0  0  0
 14 13  1  0  0  0  0
 17  6  1  0  0  0  0
 17 18  1  0  0  0  0
 19 17  2  0  0  0  0
 20 19  1  0  0  0  0
 21 23  2  0  0  0  0
 21 19  1  0  0  0  0
 22 21  1  0  0  0  0
 23  7  1  0  0  0  0
 24 23  1  0  0  0  0
 25  4  1  0  0  0  0
 26  4  1  0  0  0  0
 26 28  1  0  0  0  0
 27 26  1  0  0  0  0
 29 26  1  0  0  0  0
 30  9  1  0  0  0  0
 30  2  1  0  0  0  0
 31  2  1  0  0  0  0
 31 33  1  0  0  0  0
 32 31  1  0  0  0  0
 34 31  1  0  0  0  0
M  END
