3,4
q = 0.0, confidence = 0.92

 14 14  0  0  0  0  0  0  0  0999 V2000
    2.4083   -0.1432    1.4333 N   0  0  0  0  0  2  0  0  0  0  0  0
    2.3845    0.1223   -1.4650 N   0  0  0  0  0  2  0  0  0  0  0  0
    1.2210   -0.0915    1.0680 C   0  0  0  0  0  1  0  0  0  0  0  0
    1.1899    0.1109   -1.0978 C   0  0  0  0  0  1  0  0  0  0  0  0
    3.5738    0.0315   -0.7415 C   0  0  0  0  0  0  0  0  0  0  0  0
    4.8050    0.0706   -1.4293 C   0  0  0  0  0  0  0  0  0  0  0  0
    4.7687    0.1709   -2.5244 H   0  0  0  0  0  0  0  0  0  0  0  0
    6.0267   -0.0137   -0.7475 C   0  0  0  0  0  0  0  0  0  0  0  0
    6.9709    0.0197   -1.3118 H   0  0  0  0  0  0  0  0  0  0  0  0
    6.0397   -0.1399    0.6524 C   0  0  0  0  0  0  0  0  0  0  0  0
    6.9938   -0.2062    1.1966 H   0  0  0  0  0  0  0  0  0  0  0  0
    4.8300   -0.1810    1.3589 C   0  0  0  0  0  0  0  0  0  0  0  0
    4.8120   -0.2789    2.4547 H   0  0  0  0  0  0  0  0  0  0  0  0
    3.5890   -0.0983    0.6944 C   0  0  0  0  0  0  0  0  0  0  0  0
  2  4  1  0  0  0  0
  2  5  1  0  0  0  0
  3  1  1  0  0  0  0
  5 14  1  0  0  0  0
  6  8  1  0  0  0  0
  6  5  2  0  0  0  0
  7  6  1  0  0  0  0
  8 10  2  0  0  0  0
  9  8  1  0  0  0  0
 10 11  1  0  0  0  0
 10 12  1  0  0  0  0
 12 13  1  0  0  0  0
 14 12  2  0  0  0  0
 14  1  1  0  0  0  0
M  END
