1,7
q = -2.0, confidence = 0.798

 17 17  0  0  1  0  0  0  0  0999 V2000
   -1.1327    0.5397    1.1553 C   0  0  0  0  0  3  0  0  0  0  0  0
   -2.2075    1.0522    0.1853 C   0  0  2  0  0  0  0  0  0  0  0  0
   -3.6324    0.7866    0.6872 C   0  0  0  0  0  0  0  0  0  0  0  0
   -3.8979   -0.5815    0.3774 O   0  0  0  0  0  0  0  0  0  0  0  0
   -3.0253   -1.0116   -0.6675 C   0  0  0  0  0  0  0  0  0  0  0  0
   -2.2019    0.2132   -1.1091 C   0  0  2  0  0  0  0  0  0  0  0  0
   -0.7975   -0.0765   -1.6479 C   0  0  0  0  0  3  0  0  0  0  0  0
   -0.8998    1.2939    1.9328 H   0  0  0  0  0  0  0  0  0  0  0  0
   -1.5018   -0.3586    1.6890 H   0  0  0  0  0  0  0  0  0  0  0  0
   -2.0471    2.1283   -0.0380 H   0  0  0  0  0  0  0  0  0  0  0  0
   -4.3649    1.4602    0.1772 H   0  0  0  0  0  0  0  0  0  0  0  0
   -3.7452    0.9293    1.7832 H   0  0  0  0  0  0  0  0  0  0  0  0
   -3.6183   -1.4379   -1.5075 H   0  0  0  0  0  0  0  0  0  0  0  0
   -2.3680   -1.8285   -0.2869 H   0  0  0  0  0  0  0  0  0  0  0  0
   -2.7895    0.7558   -1.8836 H   0  0  0  0  0  0  0  0  0  0  0  0
   -0.7508   -1.0556   -2.1669 H   0  0  0  0  0  0  0  0  0  0  0  0
   -0.5047    0.6779   -2.4035 H   0  0  0  0  0  0  0  0  0  0  0  0
  1  9  1  0  0  0  0
  1  8  1  0  0  0  0
  2 10  1  6  0  0  0
  2  3  1  0  0  0  0
  2  1  1  0  0  0  0
  3 12  1  0  0  0  0
  4  3  1  0  0  0  0
  5 14  1  0  0  0  0
  5  4  1  0  0  0  0
  6 15  1  6  0  0  0
  6  5  1  0  0  0  0
  6  2  1  0  0  0  0
  7  6  1  0  0  0  0
 11  3  1  0  0  0  0
 13  5  1  0  0  0  0
 16  7  1  0  0  0  0
 17  7  1  0  0  0  0
M  END
