2,5
q = -1.0, confidence = 0.01

 23 25  0  0  1  0  0  0  0  0999 V2000
    0.9141   -1.9470   -0.0236 C   0  0  0  0  0  3  0  0  0  0  0  0
    1.2504   -1.2014    1.1494 C   0  0  0  0  0  3  0  0  0  0  0  0
    2.6496   -0.6110    1.0315 C   0  0  2  0  0  0  0  0  0  0  0  0
    2.6478    0.9374    1.0521 C   0  0  2  0  0  0  0  0  0  0  0  0
    1.3722    1.3578    0.2996 C   0  0  0  0  0  3  0  0  0  0  0  0
    1.6663    1.0038   -1.1509 C   0  0  0  0  0  0  0  0  0  0  0  0
    3.1007    0.4309   -1.1192 C   0  0  1  0  0  0  0  0  0  0  0  0
    3.7293    1.2976    0.0009 C   0  0  0  0  0  0  0  0  0  0  0  0
    2.1087   -2.0270   -0.9585 C   0  0  0  0  0  0  0  0  0  0  0  0
    3.0962   -0.9601   -0.4386 C   0  0  2  0  0  0  0  0  0  0  0  0
    0.1668   -2.7569   -0.0266 H   0  0  0  0  0  0  0  0  0  0  0  0
    0.8132   -1.4024    2.1399 H   0  0  0  0  0  0  0  0  0  0  0  0
    3.3280   -1.0400    1.7964 H   0  0  0  0  0  0  0  0  0  0  0  0
    2.7543    1.3944    2.0527 H   0  0  0  0  0  0  0  0  0  0  0  0
    1.0067    2.3817    0.4954 H   0  0  0  0  0  0  0  0  0  0  0  0
    1.4740    1.8177   -1.8760 H   0  0  0  0  0  0  0  0  0  0  0  0
    0.9265    0.1681   -1.5861 H   0  0  0  0  0  0  0  0  0  0  0  0
    3.6019    0.4463   -2.1050 H   0  0  0  0  0  0  0  0  0  0  0  0
    4.7508    0.9699    0.2795 H   0  0  0  0  0  0  0  0  0  0  0  0
    3.7584    2.3791   -0.2417 H   0  0  0  0  0  0  0  0  0  0  0  0
    1.8521   -1.9175   -2.0332 H   0  0  0  0  0  0  0  0  0  0  0  0
    2.5554   -3.0397   -0.8569 H   0  0  0  0  0  0  0  0  0  0  0  0
    4.1336   -1.3441   -0.4594 H   0  0  0  0  0  0  0  0  0  0  0  0
  1  2  1  0  0  0  0
  2 12  1  0  0  0  0
  3  4  1  0  0  0  0
  3  2  1  0  0  0  0
  3 13  1  1  0  0  0
  4 14  1  1  0  0  0
  5 15  1  0  0  0  0
  5  4  1  0  0  0  0
  6  7  1  0  0  0  0
  6  5  1  0  0  0  0
  7 18  1  6  0  0  0
  7 10  1  0  0  0  0
  7  8  1  0  0  0  0
  8 19  1  0  0  0  0
  8  4  1  0  0  0  0
  9 22  1  0  0  0  0
  9 10  1  0  0  0  0
  9  1  1  0  0  0  0
 10 23  1  1  0  0  0
 10  3  1  0  0  0  0
 11  1  1  0  0  0  0
 16  6  1  0  0  0  0
 17  6  1  0  0  0  0
 20  8  1  0  0  0  0
 21  9  1  0  0  0  0
M  END
