4,5
q = 0.0, confidence = 0.878

 16 16  0  0  0  0  0  0  0  0999 V2000
   -2.0066   -1.3888   -2.3729 O   0  0  0  0  0  0  0  0  0  0  0  0
    0.1383   -0.9596   -2.8511 O   0  0  0  0  0  0  0  0  0  0  0  0
    1.3654   -0.6125   -2.2942 N   0  0  0  0  0  0  0  0  0  0  0  0
   -0.9062   -1.1456   -1.9285 C   0  0  0  0  0  3  0  0  0  0  0  0
    1.3665   -0.5565   -0.9971 C   0  0  0  0  0  3  0  0  0  0  0  0
    2.6383   -0.0965   -0.3756 C   0  0  0  0  0  0  0  0  0  0  0  0
    2.8445   -0.1502    1.0189 C   0  0  0  0  0  0  0  0  0  0  0  0
    4.0384    0.3094    1.5953 C   0  0  0  0  0  0  0  0  0  0  0  0
    5.0550    0.8370    0.7864 C   0  0  0  0  0  0  0  0  0  0  0  0
    4.8653    0.8986   -0.6062 C   0  0  0  0  0  0  0  0  0  0  0  0
    3.6757    0.4408   -1.1811 C   0  0  0  0  0  0  0  0  0  0  0  0
    2.0447   -0.5531    1.6521 H   0  0  0  0  0  0  0  0  0  0  0  0
    4.1719    0.2554    2.6868 H   0  0  0  0  0  0  0  0  0  0  0  0
    5.9911    1.2015    1.2363 H   0  0  0  0  0  0  0  0  0  0  0  0
    5.6561    1.3122   -1.2511 H   0  0  0  0  0  0  0  0  0  0  0  0
    3.5181    0.4870   -2.2679 H   0  0  0  0  0  0  0  0  0  0  0  0
  1  4  2  0  0  0  0
  2  3  1  0  0  0  0
  2  4  1  0  0  0  0
  3  5  2  0  0  0  0
  5  6  1  0  0  0  0
  6  7  1  0  0  0  0
  7  8  2  0  0  0  0
  7 12  1  0  0  0  0
  8 13  1  0  0  0  0
  9 14  1  0  0  0  0
  9  8  1  0  0  0  0
 10  9  2  0  0  0  0
 11 10  1  0  0  0  0
 11  6  2  0  0  0  0
 15 10  1  0  0  0  0
 16 11  1  0  0  0  0
M  END
