2,5
q = -2.0, confidence = 0.562

  9  8  0  0  0  0  0  0  0  0999 V2000
   -2.8426    0.7721   -1.5675 O   0  0  0  0  0  0  0  0  0  0  0  0
    0.2965   -1.6460   -2.1529 C   0  0  0  0  0  3  0  0  0  0  0  0
   -0.8809   -1.7810   -3.0637 C   0  0  0  0  0  0  0  0  0  0  0  0
   -1.9536   -0.9755   -2.8859 C   0  0  0  0  0  0  0  0  0  0  0  0
   -1.8949   -0.0085   -1.7533 C   0  0  0  0  0  3  0  0  0  0  0  0
    1.1799   -1.3694   -2.7749 H   0  0  0  0  0  0  0  0  0  0  0  0
    0.5670   -2.6500   -1.7450 H   0  0  0  0  0  0  0  0  0  0  0  0
   -0.8652   -2.5245   -3.8845 H   0  0  0  0  0  0  0  0  0  0  0  0
   -2.8549   -0.9894   -3.5232 H   0  0  0  0  0  0  0  0  0  0  0  0
  2  7  1  0  0  0  0
  3  4  2  0  0  0  0
  3  2  1  0  0  0  0
  4  5  1  0  0  0  0
  5  1  2  0  0  0  0
  6  2  1  0  0  0  0
  8  3  1  0  0  0  0
  9  4  1  0  0  0  0
M  END
