2,14
q = 0.0, confidence = 0.536

 52 56  0  0  0  0  0  0  0  0999 V2000
    0.2976    1.1354    0.3658 P   0  0  0  0  0  0  0  0  0  0  0  0
   -2.0402   -0.2889   -1.1053 C   0  0  0  0  0  3  0  0  0  0  0  0
   -3.3771   -0.0363   -0.7442 C   0  0  0  0  0  0  0  0  0  0  0  0
   -3.6849   -0.1266    0.3109 H   0  0  0  0  0  0  0  0  0  0  0  0
   -4.3277    0.3534   -1.7077 C   0  0  0  0  0  0  0  0  0  0  0  0
   -5.3690    0.5440   -1.4021 H   0  0  0  0  0  0  0  0  0  0  0  0
   -3.9525    0.5096   -3.0551 C   0  0  0  0  0  0  0  0  0  0  0  0
   -4.6986    0.8179   -3.8036 H   0  0  0  0  0  0  0  0  0  0  0  0
   -2.6236    0.2803   -3.4385 C   0  0  0  0  0  0  0  0  0  0  0  0
   -2.3160    0.4195   -4.4876 H   0  0  0  0  0  0  0  0  0  0  0  0
   -1.6664   -0.1175   -2.4798 C   0  0  0  0  0  0  0  0  0  0  0  0
   -0.2480   -0.2969   -2.7233 C   0  0  0  0  0  0  0  0  0  0  0  0
    0.1993   -0.0715   -3.7073 H   0  0  0  0  0  0  0  0  0  0  0  0
    0.5063   -0.5995   -1.6175 C   0  0  0  0  0  3  0  0  0  0  0  0
    1.9697   -0.6532   -1.5925 C   0  0  0  0  0  0  0  0  0  0  0  0
    2.6679   -1.3963   -2.5561 C   0  0  0  0  0  0  0  0  0  0  0  0
    2.0851   -1.9041   -3.3392 H   0  0  0  0  0  0  0  0  0  0  0  0
    4.0748   -1.5387   -2.5194 C   0  0  0  0  0  0  0  0  0  0  0  0
    4.5803   -2.1363   -3.2934 H   0  0  0  0  0  0  0  0  0  0  0  0
    4.8084   -0.9565   -1.4973 C   0  0  0  0  0  0  0  0  0  0  0  0
    5.8998   -1.0869   -1.4384 H   0  0  0  0  0  0  0  0  0  0  0  0
    4.1561   -0.1824   -0.4925 C   0  0  0  0  0  0  0  0  0  0  0  0
    4.9049    0.3904    0.5788 C   0  0  0  0  0  0  0  0  0  0  0  0
    5.9923    0.2189    0.6081 H   0  0  0  0  0  0  0  0  0  0  0  0
    4.2823    1.1331    1.5668 C   0  0  0  0  0  0  0  0  0  0  0  0
    4.8644    1.5537    2.4006 H   0  0  0  0  0  0  0  0  0  0  0  0
    2.8862    1.3747    1.4958 C   0  0  0  0  0  0  0  0  0  0  0  0
    2.4094    1.9872    2.2741 H   0  0  0  0  0  0  0  0  0  0  0  0
    2.1172    0.8524    0.4569 C   0  0  0  0  0  0  0  0  0  0  0  0
    2.7262    0.0098   -0.5465 C   0  0  0  0  0  0  0  0  0  0  0  0
    0.0870    2.3840   -0.9719 C   0  0  0  0  0  0  0  0  0  0  0  0
   -1.2188    2.8332   -1.2576 C   0  0  0  0  0  0  0  0  0  0  0  0
   -2.0740    2.4380   -0.6908 H   0  0  0  0  0  0  0  0  0  0  0  0
   -1.4301    3.7658   -2.2824 C   0  0  0  0  0  0  0  0  0  0  0  0
   -2.4550    4.0952   -2.5105 H   0  0  0  0  0  0  0  0  0  0  0  0
   -0.3446    4.2634   -3.0205 C   0  0  0  0  0  0  0  0  0  0  0  0
   -0.5135    4.9931   -3.8271 H   0  0  0  0  0  0  0  0  0  0  0  0
    0.9577    3.8273   -2.7281 C   0  0  0  0  0  0  0  0  0  0  0  0
    1.8132    4.2158   -3.3017 H   0  0  0  0  0  0  0  0  0  0  0  0
    1.1759    2.8890   -1.7079 C   0  0  0  0  0  0  0  0  0  0  0  0
    2.1962    2.5391   -1.4926 H   0  0  0  0  0  0  0  0  0  0  0  0
   -0.1983    2.1416    1.8281 C   0  0  0  0  0  0  0  0  0  0  0  0
    0.3376    3.4263    2.0628 C   0  0  0  0  0  0  0  0  0  0  0  0
    1.0989    3.8380    1.3825 H   0  0  0  0  0  0  0  0  0  0  0  0
   -0.1187    4.1887    3.1473 C   0  0  0  0  0  0  0  0  0  0  0  0
    0.3052    5.1881    3.3294 H   0  0  0  0  0  0  0  0  0  0  0  0
   -1.1265    3.6874    3.9896 C   0  0  0  0  0  0  0  0  0  0  0  0
   -1.4872    4.2924    4.8354 H   0  0  0  0  0  0  0  0  0  0  0  0
   -1.6867    2.4258    3.7371 C   0  0  0  0  0  0  0  0  0  0  0  0
   -2.4943    2.0404    4.3783 H   0  0  0  0  0  0  0  0  0  0  0  0
   -1.2253    1.6573    2.6569 C   0  0  0  0  0  0  0  0  0  0  0  0
   -1.6670    0.6780    2.4168 H   0  0  0  0  0  0  0  0  0  0  0  0
  1 29  1  0  0  0  0
  1 42  1  0  0  0  0
  2  3  1  0  0  0  0
  3  4  1  0  0  0  0
  5  6  1  0  0  0  0
  5  3  2  0  0  0  0
  7  5  1  0  0  0  0
  8  7  1  0  0  0  0
  9  7  2  0  0  0  0
  9 11  1  0  0  0  0
 10  9  1  0  0  0  0
 11  2  2  0  0  0  0
 12 11  1  0  0  0  0
 12 14  2  0  0  0  0
 13 12  1  0  0  0  0
 14 15  1  0  0  0  0
 15 30  1  0  0  0  0
 16 18  1  0  0  0  0
 16 15  2  0  0  0  0
 17 16  1  0  0  0  0
 18 20  2  0  0  0  0
 19 18  1  0  0  0  0
 20 21  1  0  0  0  0
 20 22  1  0  0  0  0
 22 23  1  0  0  0  0
 23 24  1  0  0  0  0
 23 25  2  0  0  0  0
 25 26  1  0  0  0  0
 27 25  1  0  0  0  0
 27 28  1  0  0  0  0
 29 27  2  0  0  0  0
 30 22  2  0  0  0  0
 30 29  1  0  0  0  0
 31  1  1  0  0  0  0
 32 31  1  0  0  0  0
 32 33  1  0  0  0  0
 34 32  2  0  0  0  0
 35 34  1  0  0  0  0
 36 38  2  0  0  0  0
 36 34  1  0  0  0  0
 37 36  1  0  0  0  0
 38 40  1  0  0  0  0
 39 38  1  0  0  0  0
 40 41  1  0  0  0  0
 40 31  2  0  0  0  0
 42 43  2  0  0  0  0
 42 51  1  0  0  0  0
 43 45  1  0  0  0  0
 44 43  1  0  0  0  0
 45 46  1  0  0  0  0
 45 47  2  0  0  0  0
 47 48  1  0  0  0  0
 49 47  1  0  0  0  0
 49 50  1  0  0  0  0
 51 49  2  0  0  0  0
 52 51  1  0  0  0  0
M  END
