5,11
q = -2.0, confidence = 0.872

 36 37  0  0  1  0  0  0  0  0999 V2000
   -2.8042    0.0217    2.0639 C   0  0  0  0  0  0  0  0  0  0  0  0
   -1.5818    0.6938    2.3793 C   0  0  0  0  0  0  0  0  0  0  0  0
   -0.6195    0.3295    3.4613 C   0  0  0  0  0  0  0  0  0  0  0  0
   -1.4420    1.7507    1.4455 C   0  0  0  0  0  0  0  0  0  0  0  0
   -2.5836    1.7639    0.5860 C   0  0  0  0  0  3  0  0  0  0  0  0
   -3.4568    0.7134    0.9932 C   0  0  0  0  0  0  0  0  0  0  0  0
   -4.8040    0.3841    0.3925 C   0  0  1  0  0  0  0  0  0  0  0  0
   -5.8201    1.5081    0.6356 C   0  0  0  0  0  0  0  0  0  0  0  0
   -4.6107    0.0372   -1.1059 C   0  0  2  0  0  0  0  0  0  0  0  0
   -5.8404   -0.6220   -1.7461 C   0  0  0  0  0  0  0  0  0  0  0  0
   -3.3843   -0.8337   -1.2277 C   0  0  2  0  0  3  0  0  0  0  0  0
   -3.0829   -1.9735   -0.4050 C   0  0  0  0  0  0  0  0  0  0  0  0
   -1.8484   -2.5429   -0.8352 C   0  0  0  0  0  0  0  0  0  0  0  0
   -1.2297   -3.7972   -0.3051 C   0  0  0  0  0  0  0  0  0  0  0  0
   -1.3545   -1.7182   -1.8855 C   0  0  0  0  0  0  0  0  0  0  0  0
   -2.3040   -0.6832   -2.1360 C   0  0  0  0  0  0  0  0  0  0  0  0
   -3.2040   -0.8571    2.5865 H   0  0  0  0  0  0  0  0  0  0  0  0
   -0.3799   -0.7512    3.4199 H   0  0  0  0  0  0  0  0  0  0  0  0
   -1.0484    0.5533    4.4604 H   0  0  0  0  0  0  0  0  0  0  0  0
    0.3281    0.8918    3.3591 H   0  0  0  0  0  0  0  0  0  0  0  0
   -0.5837    2.4298    1.3851 H   0  0  0  0  0  0  0  0  0  0  0  0
   -2.7512    2.4688   -0.2381 H   0  0  0  0  0  0  0  0  0  0  0  0
   -5.1757   -0.5325    0.9011 H   0  0  0  0  0  0  0  0  0  0  0  0
   -5.9221    1.7235    1.7175 H   0  0  0  0  0  0  0  0  0  0  0  0
   -6.8228    1.2395    0.2475 H   0  0  0  0  0  0  0  0  0  0  0  0
   -5.4994    2.4451    0.1356 H   0  0  0  0  0  0  0  0  0  0  0  0
   -4.4010    0.9864   -1.6476 H   0  0  0  0  0  0  0  0  0  0  0  0
   -5.6533   -0.8545   -2.8130 H   0  0  0  0  0  0  0  0  0  0  0  0
   -6.7300    0.0371   -1.6940 H   0  0  0  0  0  0  0  0  0  0  0  0
   -6.0873   -1.5744   -1.2330 H   0  0  0  0  0  0  0  0  0  0  0  0
   -3.7126   -2.3723    0.3999 H   0  0  0  0  0  0  0  0  0  0  0  0
   -1.2788   -3.8380    0.8002 H   0  0  0  0  0  0  0  0  0  0  0  0
   -0.1686   -3.8856   -0.6007 H   0  0  0  0  0  0  0  0  0  0  0  0
   -1.7720   -4.6823   -0.7001 H   0  0  0  0  0  0  0  0  0  0  0  0
   -0.3957   -1.8537   -2.3985 H   0  0  0  0  0  0  0  0  0  0  0  0
   -2.1913    0.1313   -2.8609 H   0  0  0  0  0  0  0  0  0  0  0  0
  1  2  1  0  0  0  0
  1 17  1  0  0  0  0
  2  3  1  0  0  0  0
  3 19  1  0  0  0  0
  4  2  2  0  0  0  0
  5  6  1  0  0  0  0
  5  4  1  0  0  0  0
  6  1  2  0  0  0  0
  7  8  1  0  0  0  0
  7 23  1  1  0  0  0
  7  6  1  0  0  0  0
  8 24  1  0  0  0  0
  9 27  1  6  0  0  0
  9  7  1  0  0  0  0
 10 29  1  0  0  0  0
 10 30  1  0  0  0  0
 10  9  1  0  0  0  0
 11  9  1  1  0  0  0
 11 12  1  0  0  0  0
 12 31  1  0  0  0  0
 13 12  2  0  0  0  0
 13 14  1  0  0  0  0
 14 32  1  0  0  0  0
 15 13  1  0  0  0  0
 16 15  2  0  0  0  0
 16 11  1  0  0  0  0
 18  3  1  0  0  0  0
 20  3  1  0  0  0  0
 21  4  1  0  0  0  0
 22  5  1  0  0  0  0
 25  8  1  0  0  0  0
 26  8  1  0  0  0  0
 28 10  1  0  0  0  0
 33 14  1  0  0  0  0
 34 14  1  0  0  0  0
 35 15  1  0  0  0  0
 36 16  1  0  0  0  0
M  END
