4,6
q = -1.0, confidence = 0.0

 33 32  0  0  1  0  0  0  0  0999 V2000
    2.7873    0.0294   -1.8119 O   0  0  0  0  0  0  0  0  0  0  0  0
   -2.8074   -1.2394    0.3107 N   0  0  0  0  0  0  0  0  0  0  0  0
    3.3764   -0.7453    0.2476 N   0  0  0  0  0  0  0  0  0  0  0  0
   -1.7250   -0.6294   -0.1505 C   0  0  0  0  0  2  0  0  0  0  0  0
   -1.2661   -0.4327   -1.5002 C   0  0  2  0  0  3  0  0  0  0  0  0
    0.1545   -0.4006   -1.5851 C   0  0  0  0  0  3  0  0  0  0  0  0
    0.9877   -0.8764   -0.5123 C   0  0  2  0  0  3  0  0  0  0  0  0
    2.4414   -0.4759   -0.7354 C   0  0  0  0  0  0  0  0  0  0  0  0
   -3.2536   -1.0202    1.6827 C   0  0  0  0  0  0  0  0  0  0  0  0
   -3.6516   -2.1099   -0.5035 C   0  0  0  0  0  0  0  0  0  0  0  0
    3.0929   -1.0487    1.6354 C   0  0  0  0  0  0  0  0  0  0  0  0
    4.7775   -0.5244   -0.0644 C   0  0  0  0  0  0  0  0  0  0  0  0
   -2.1533   -0.0606   -2.6658 C   0  0  0  0  0  0  0  0  0  0  0  0
    0.7086   -2.2250    0.1465 C   0  0  0  0  0  0  0  0  0  0  0  0
    0.6533    0.0713   -2.4473 H   0  0  0  0  0  0  0  0  0  0  0  0
   -3.4972   -1.9894    2.1648 H   0  0  0  0  0  0  0  0  0  0  0  0
   -2.4488   -0.5164    2.2454 H   0  0  0  0  0  0  0  0  0  0  0  0
   -4.1610   -0.3791    1.7021 H   0  0  0  0  0  0  0  0  0  0  0  0
   -3.8399   -3.0622    0.0345 H   0  0  0  0  0  0  0  0  0  0  0  0
   -4.6336   -1.6336   -0.7139 H   0  0  0  0  0  0  0  0  0  0  0  0
   -3.1465   -2.3332   -1.4590 H   0  0  0  0  0  0  0  0  0  0  0  0
    3.3399   -2.1026    1.8977 H   0  0  0  0  0  0  0  0  0  0  0  0
    3.7029   -0.3881    2.2890 H   0  0  0  0  0  0  0  0  0  0  0  0
    2.0384   -0.8574    1.8808 H   0  0  0  0  0  0  0  0  0  0  0  0
    4.8676   -0.3258   -1.1467 H   0  0  0  0  0  0  0  0  0  0  0  0
    5.1807    0.3506    0.4934 H   0  0  0  0  0  0  0  0  0  0  0  0
    5.3806   -1.4161    0.2131 H   0  0  0  0  0  0  0  0  0  0  0  0
   -1.6495    0.6900   -3.3065 H   0  0  0  0  0  0  0  0  0  0  0  0
   -2.3806   -0.9404   -3.3057 H   0  0  0  0  0  0  0  0  0  0  0  0
   -3.1144    0.3701   -2.3239 H   0  0  0  0  0  0  0  0  0  0  0  0
    0.6092   -2.1939    1.2474 H   0  0  0  0  0  0  0  0  0  0  0  0
   -0.2344   -2.6502   -0.2493 H   0  0  0  0  0  0  0  0  0  0  0  0
    1.5245   -2.9416   -0.0910 H   0  0  0  0  0  0  0  0  0  0  0  0
  1  8  2  0  0  0  0
  2  9  1  0  0  0  0
  3 11  1  0  0  0  0
  4  2  1  0  0  0  0
  5  4  1  1  0  0  0
  6  5  1  0  0  0  0
  7  6  1  6  0  0  0
  7 14  1  0  0  0  0
  8  7  1  0  0  0  0
  8  3  1  0  0  0  0
  9 18  1  0  0  0  0
  9 16  1  0  0  0  0
  9 17  1  0  0  0  0
 10 19  1  0  0  0  0
 10  2  1  0  0  0  0
 11 24  1  0  0  0  0
 11 22  1  0  0  0  0
 11 23  1  0  0  0  0
 12 27  1  0  0  0  0
 12  3  1  0  0  0  0
 12 26  1  0  0  0  0
 13 30  1  0  0  0  0
 13  5  1  0  0  0  0
 14 31  1  0  0  0  0
 15  6  1  0  0  0  0
 20 10  1  0  0  0  0
 21 10  1  0  0  0  0
 25 12  1  0  0  0  0
 28 13  1  0  0  0  0
 29 13  1  0  0  0  0
 32 14  1  0  0  0  0
 33 14  1  0  0  0  0
M  END
