6,8
q = 0.0, confidence = 0.998

 25 25  0  0  1  0  0  0  0  0999 V2000
   -0.7191    2.3286   -0.0043 O   0  0  0  0  0  0  0  0  0  0  0  0
   -1.8114   -1.2832   -1.5857 O   0  0  0  0  0  0  0  0  0  0  0  0
   -4.0678   -1.9757    1.1589 N   0  0  0  0  0  0  0  0  0  0  0  0
   -0.2660    1.2309    0.6406 C   0  0  0  0  0  0  0  0  0  0  0  0
   -0.8706   -0.0141    0.2558 C   0  0  2  0  0  3  0  0  0  0  0  0
   -0.4792   -1.2073    0.9293 C   0  0  0  0  0  3  0  0  0  0  0  0
    0.5168   -1.1918    1.9431 C   0  0  0  0  0  3  0  0  0  0  0  0
    1.1756    0.0286    2.2356 C   0  0  0  0  0  3  0  0  0  0  0  0
    0.7836    1.2466    1.6029 C   0  0  0  0  0  0  0  0  0  0  0  0
    0.0250    3.5396    0.0942 C   0  0  0  0  0  0  0  0  0  0  0  0
   -1.8929   -0.0696   -0.8723 C   0  0  2  0  0  0  0  0  0  0  0  0
   -3.3035    0.0477   -0.3022 C   0  0  0  0  0  0  0  0  0  0  0  0
   -3.7484   -1.0608    0.4959 C   0  0  0  0  0  0  0  0  0  0  0  0
   -4.0804    1.1379   -0.4911 C   0  0  0  0  0  0  0  0  0  0  0  0
   -0.8703   -1.3933   -1.8348 H   0  0  0  0  0  0  0  0  0  0  0  0
   -0.9478   -2.1507    0.6161 H   0  0  0  0  0  0  0  0  0  0  0  0
    0.8357   -2.1267    2.4216 H   0  0  0  0  0  0  0  0  0  0  0  0
    2.0059    0.0457    2.9555 H   0  0  0  0  0  0  0  0  0  0  0  0
    1.3132    2.1756    1.8425 H   0  0  0  0  0  0  0  0  0  0  0  0
    0.0222    3.9362    1.1319 H   0  0  0  0  0  0  0  0  0  0  0  0
    1.0703    3.3927   -0.2505 H   0  0  0  0  0  0  0  0  0  0  0  0
   -0.4797    4.2636   -0.5701 H   0  0  0  0  0  0  0  0  0  0  0  0
   -1.7279    0.8193   -1.5207 H   0  0  0  0  0  0  0  0  0  0  0  0
   -5.0808    1.2158   -0.0418 H   0  0  0  0  0  0  0  0  0  0  0  0
   -3.7126    1.9778   -1.0993 H   0  0  0  0  0  0  0  0  0  0  0  0
  1 10  1  0  0  0  0
  1  4  1  0  0  0  0
  2 11  1  0  0  0  0
  4  9  2  0  0  0  0
  5 11  1  6  0  0  0
  5  4  1  0  0  0  0
  5  6  1  0  0  0  0
  6  7  1  0  0  0  0
  7  8  1  0  0  0  0
  7 17  1  0  0  0  0
  8 18  1  0  0  0  0
  9 19  1  0  0  0  0
  9  8  1  0  0  0  0
 10 20  1  0  0  0  0
 11 23  1  6  0  0  0
 11 12  1  0  0  0  0
 12 13  1  0  0  0  0
 13  3  3  0  0  0  0
 14 12  2  0  0  0  0
 14 24  1  0  0  0  0
 15  2  1  0  0  0  0
 16  6  1  0  0  0  0
 21 10  1  0  0  0  0
 22 10  1  0  0  0  0
 25 14  1  0  0  0  0
M  END
