2,10
q = -1.0, confidence = 0.0

 19 19  0  0  0  0  0  0  0  0999 V2000
   -0.9779    2.4144   -0.2595 O   0  0  0  0  0  0  0  0  0  0  0  0
   -0.8976    1.0746   -0.1950 C   0  0  0  0  0  2  0  0  0  0  0  0
    0.1805    3.2401   -0.2118 C   0  0  0  0  0  0  0  0  0  0  0  0
   -2.2409    0.4936   -0.2728 C   0  0  0  0  0  0  0  0  0  0  0  0
   -3.4522    1.1989   -0.0878 C   0  0  0  0  0  0  0  0  0  0  0  0
   -4.6619    0.4975   -0.0981 C   0  0  0  0  0  0  0  0  0  0  0  0
   -4.6667   -0.8963   -0.3119 C   0  0  0  0  0  0  0  0  0  0  0  0
   -3.4690   -1.5908   -0.5393 C   0  0  0  0  0  0  0  0  0  0  0  0
   -2.2440   -0.8983   -0.5397 C   0  0  0  0  0  0  0  0  0  0  0  0
   -0.9123   -1.4844   -0.8223 C   0  0  0  0  0  3  0  0  0  0  0  0
   -0.1880    4.2825   -0.2111 H   0  0  0  0  0  0  0  0  0  0  0  0
    0.8186    3.0771   -1.1036 H   0  0  0  0  0  0  0  0  0  0  0  0
    0.7728    3.0504    0.7049 H   0  0  0  0  0  0  0  0  0  0  0  0
   -3.4237    2.2819    0.0986 H   0  0  0  0  0  0  0  0  0  0  0  0
   -5.6094    1.0286    0.0790 H   0  0  0  0  0  0  0  0  0  0  0  0
   -5.6215   -1.4448   -0.3044 H   0  0  0  0  0  0  0  0  0  0  0  0
   -3.4819   -2.6759   -0.7262 H   0  0  0  0  0  0  0  0  0  0  0  0
   -0.8817   -2.5775   -0.6476 H   0  0  0  0  0  0  0  0  0  0  0  0
   -0.6654   -1.3216   -1.8956 H   0  0  0  0  0  0  0  0  0  0  0  0
  1  3  1  0  0  0  0
  1  2  1  0  0  0  0
  3 11  1  0  0  0  0
  3 13  1  0  0  0  0
  4  2  1  0  0  0  0
  4  5  1  0  0  0  0
  5 14  1  0  0  0  0
  6  5  2  0  0  0  0
  6 15  1  0  0  0  0
  7 16  1  0  0  0  0
  7  6  1  0  0  0  0
  8  7  2  0  0  0  0
  9  8  1  0  0  0  0
  9  4  2  0  0  0  0
 10 18  1  0  0  0  0
 10  9  1  0  0  0  0
 12  3  1  0  0  0  0
 17  8  1  0  0  0  0
 19 10  1  0  0  0  0
M  END
