1,20
q = -1.0, confidence = 0.006

 33 34  0  0  0  0  0  0  0  0999 V2000
   -0.4411    1.0937    0.3603 C   0  0  0  0  0  2  0  0  0  0  0  0
   -1.6960    0.9483    0.8938 N   0  0  0  0  0  0  0  0  0  0  0  0
   -0.3056    2.4361    0.1436 N   0  0  0  0  0  0  0  0  0  0  0  0
   -2.3287   -0.3402    1.1732 C   0  0  0  0  0  0  0  0  0  0  0  0
   -2.4221   -0.4737    2.2712 H   0  0  0  0  0  0  0  0  0  0  0  0
   -1.6177   -1.0971    0.7878 H   0  0  0  0  0  0  0  0  0  0  0  0
   -2.3207    2.1876    1.0139 C   0  0  0  0  0  0  0  0  0  0  0  0
   -3.3438    2.2854    1.3879 H   0  0  0  0  0  0  0  0  0  0  0  0
   -1.4374    3.1274    0.5436 C   0  0  0  0  0  0  0  0  0  0  0  0
   -1.5358    4.2127    0.4551 H   0  0  0  0  0  0  0  0  0  0  0  0
    0.9718    2.9077   -0.4388 C   0  0  0  0  0  0  0  0  0  0  0  0
    0.6946    4.0314   -1.4456 C   0  0  0  0  0  0  0  0  0  0  0  0
   -0.0195    3.6922   -2.2214 H   0  0  0  0  0  0  0  0  0  0  0  0
    1.6409    4.3121   -1.9479 H   0  0  0  0  0  0  0  0  0  0  0  0
    0.2905    4.9456   -0.9612 H   0  0  0  0  0  0  0  0  0  0  0  0
    1.8622    3.4080    0.7098 C   0  0  0  0  0  0  0  0  0  0  0  0
    1.3834    4.2446    1.2591 H   0  0  0  0  0  0  0  0  0  0  0  0
    2.8329    3.7650    0.3120 H   0  0  0  0  0  0  0  0  0  0  0  0
    2.0563    2.5824    1.4201 H   0  0  0  0  0  0  0  0  0  0  0  0
    1.5704    1.6530   -1.1254 C   0  0  0  0  0  3  0  0  0  0  0  0
    2.6759    1.7453   -1.1490 H   0  0  0  0  0  0  0  0  0  0  0  0
    1.2062    1.6004   -2.1723 H   0  0  0  0  0  0  0  0  0  0  0  0
   -3.6821   -0.4792    0.5114 C   0  0  0  0  0  0  0  0  0  0  0  0
   -4.8581   -0.5157    1.2831 C   0  0  0  0  0  0  0  0  0  0  0  0
   -4.7890   -0.4569    2.3818 H   0  0  0  0  0  0  0  0  0  0  0  0
   -6.1140   -0.6316    0.6649 C   0  0  0  0  0  0  0  0  0  0  0  0
   -7.0275   -0.6617    1.2784 H   0  0  0  0  0  0  0  0  0  0  0  0
   -6.1995   -0.7083   -0.7332 C   0  0  0  0  0  0  0  0  0  0  0  0
   -7.1822   -0.7989   -1.2211 H   0  0  0  0  0  0  0  0  0  0  0  0
   -5.0271   -0.6727   -1.5081 C   0  0  0  0  0  0  0  0  0  0  0  0
   -5.0903   -0.7389   -2.6052 H   0  0  0  0  0  0  0  0  0  0  0  0
   -3.7725   -0.5595   -0.8938 C   0  0  0  0  0  0  0  0  0  0  0  0
   -2.8452   -0.5385   -1.4937 H   0  0  0  0  0  0  0  0  0  0  0  0
  1  2  1  0  0  0  0
  2  7  1  0  0  0  0
  2  4  1  0  0  0  0
  3  1  1  0  0  0  0
  3  9  1  0  0  0  0
  4  5  1  0  0  0  0
  6  4  1  0  0  0  0
  7  8  1  0  0  0  0
  9  7  2  0  0  0  0
 10  9  1  0  0  0  0
 11  3  1  0  0  0  0
 11 16  1  0  0  0  0
 12 15  1  0  0  0  0
 12 11  1  0  0  0  0
 13 12  1  0  0  0  0
 14 12  1  0  0  0  0
 16 17  1  0  0  0  0
 16 19  1  0  0  0  0
 18 16  1  0  0  0  0
 20 11  1  0  0  0  0
 21 20  1  0  0  0  0
 22 20  1  0  0  0  0
 23  4  1  0  0  0  0
 23 24  1  0  0  0  0
 24 25  1  0  0  0  0
 26 27  1  0  0  0  0
 26 24  2  0  0  0  0
 28 26  1  0  0  0  0
 29 28  1  0  0  0  0
 30 32  1  0  0  0  0
 30 28  2  0  0  0  0
 31 30  1  0  0  0  0
 32 23  2  0  0  0  0
 33 32  1  0  0  0  0
M  END
