1,7
q = 0.0, confidence = 0.912

 15 14  0  0  0  0  0  0  0  0999 V2000
   -0.4405    1.9413    0.0669 C   0  0  0  0  0  2  0  0  0  0  0  0
   -1.5799    1.3558    0.1034 C   0  0  0  0  0  2  0  0  0  0  0  0
   -3.0533    1.2512    0.1447 C   0  0  0  0  0  0  0  0  0  0  0  0
   -3.5898   -0.0393   -0.4989 C   0  0  0  0  0  0  0  0  0  0  0  0
   -2.9979   -1.3026    0.1504 C   0  0  0  0  0  0  0  0  0  0  0  0
   -1.5215   -1.3443    0.1071 C   0  0  0  0  0  2  0  0  0  0  0  0
   -0.3603   -1.8863    0.0700 C   0  0  0  0  0  2  0  0  0  0  0  0
    0.1351    2.8695    0.0421 H   0  0  0  0  0  0  0  0  0  0  0  0
   -3.5055    2.1378   -0.3514 H   0  0  0  0  0  0  0  0  0  0  0  0
   -3.3826    1.2907    1.2087 H   0  0  0  0  0  0  0  0  0  0  0  0
   -4.6965   -0.0634   -0.4211 H   0  0  0  0  0  0  0  0  0  0  0  0
   -3.3393   -0.0364   -1.5812 H   0  0  0  0  0  0  0  0  0  0  0  0
   -3.4128   -2.2105   -0.3396 H   0  0  0  0  0  0  0  0  0  0  0  0
   -3.3227   -1.3499    1.2154 H   0  0  0  0  0  0  0  0  0  0  0  0
    0.2365   -2.8021    0.0456 H   0  0  0  0  0  0  0  0  0  0  0  0
  1  2  1  0  0  0  0
  2  3  1  0  0  0  0
  3 10  1  0  0  0  0
  4 11  1  0  0  0  0
  4  3  1  0  0  0  0
  4  5  1  0  0  0  0
  5 14  1  0  0  0  0
  6  5  1  0  0  0  0
  7  6  1  0  0  0  0
  8  1  1  0  0  0  0
  9  3  1  0  0  0  0
 12  4  1  0  0  0  0
 13  5  1  0  0  0  0
 15  7  1  0  0  0  0
M  END
