1,5
q = -1.0, confidence = 0.0

 17 16  0  0  0  0  0  0  0  0999 V2000
    1.3490   -0.0269   -0.0086 C   0  0  0  0  0  2  0  0  0  0  0  0
    2.0066    1.1058    0.0333 O   0  0  0  0  0  0  0  0  0  0  0  0
    1.1895    2.2986    0.1972 C   0  0  0  0  0  0  0  0  0  0  0  0
   -0.2863    2.0345    0.0076 C   0  0  0  0  0  3  0  0  0  0  0  0
   -0.8956    1.6062   -1.2116 C   0  0  0  0  0  3  0  0  0  0  0  0
   -0.3099    0.6381   -2.0608 C   0  0  0  0  0  3  0  0  0  0  0  0
    2.0950   -1.0848   -0.0652 O   0  0  0  0  0  0  0  0  0  0  0  0
    3.5554   -0.9878   -0.0514 C   0  0  0  0  0  0  0  0  0  0  0  0
    1.5835    3.0323   -0.5359 H   0  0  0  0  0  0  0  0  0  0  0  0
    1.3998    2.6783    1.2156 H   0  0  0  0  0  0  0  0  0  0  0  0
   -0.9210    2.6550    0.6616 H   0  0  0  0  0  0  0  0  0  0  0  0
   -1.9510    1.8806   -1.3797 H   0  0  0  0  0  0  0  0  0  0  0  0
   -0.9272    0.2001   -2.8602 H   0  0  0  0  0  0  0  0  0  0  0  0
    0.7727    0.6163   -2.2564 H   0  0  0  0  0  0  0  0  0  0  0  0
    3.8838   -0.4774    0.8729 H   0  0  0  0  0  0  0  0  0  0  0  0
    3.9095   -2.0310   -0.0787 H   0  0  0  0  0  0  0  0  0  0  0  0
    3.8976   -0.4267   -0.9407 H   0  0  0  0  0  0  0  0  0  0  0  0
  1  2  1  0  0  0  0
  2  3  1  0  0  0  0
  3 10  1  0  0  0  0
  4  3  1  0  0  0  0
  4 11  1  0  0  0  0
  5  4  1  0  0  0  0
  6  5  1  0  0  0  0
  7  8  1  0  0  0  0
  7  1  1  0  0  0  0
  8 15  1  0  0  0  0
  9  3  1  0  0  0  0
 12  5  1  0  0  0  0
 13  6  1  0  0  0  0
 14  6  1  0  0  0  0
 16  8  1  0  0  0  0
 17  8  1  0  0  0  0
M  END
