16,28
q = 0.0, confidence = 0.992

 74 76  0  0  0  0  0  0  0  0999 V2000
    4.3065   -1.4704    0.6389 C   0  0  0  0  0  0  0  0  0  0  0  0
    4.6990   -0.1164    0.4736 C   0  0  0  0  0  0  0  0  0  0  0  0
    5.9949    0.1595   -0.0109 C   0  0  0  0  0  0  0  0  0  0  0  0
    6.8887   -0.8615   -0.3556 C   0  0  0  0  0  0  0  0  0  0  0  0
    0.1674    1.9941   -2.4614 C   0  0  0  0  0  0  0  0  0  0  0  0
   -0.8272    2.9475   -1.7631 C   0  0  0  0  0  0  0  0  0  0  0  0
   -2.0756    2.2329   -1.2375 C   0  0  0  0  0  0  0  0  0  0  0  0
   -3.0074    3.1541   -0.4489 C   0  0  0  0  0  0  0  0  0  0  0  0
   -4.1906    2.4387    0.2173 C   0  0  0  0  0  0  0  0  0  0  0  0
   -3.7830    1.4444    1.3110 C   0  0  0  0  0  0  0  0  0  0  0  0
   -4.9658    0.8597    2.0811 C   0  0  0  0  0  0  0  0  0  0  0  0
    6.4997   -2.1990   -0.1960 C   0  0  0  0  0  0  0  0  0  0  0  0
    5.2260   -2.4880    0.3086 C   0  0  0  0  0  0  0  0  0  0  0  0
    2.9505   -1.8882    1.1800 C   0  0  0  0  0  0  0  0  0  0  0  0
    1.9685   -2.2332    0.1477 N   0  0  0  0  0  0  0  0  0  0  0  0
    0.9111   -1.4290   -0.1912 C   0  0  0  0  0  2  0  0  0  0  0  0
    0.2050   -2.1500   -1.1148 N   0  0  0  0  0  0  0  0  0  0  0  0
   -1.0905   -1.7332   -1.6483 C   0  0  0  0  0  0  0  0  0  0  0  0
   -2.2717   -2.3021   -0.8623 C   0  0  0  0  0  0  0  0  0  0  0  0
   -3.6014   -1.7048   -1.3258 C   0  0  0  0  0  0  0  0  0  0  0  0
   -4.7939   -2.1539   -0.4786 C   0  0  0  0  0  0  0  0  0  0  0  0
   -6.1203   -1.5241   -0.9094 C   0  0  0  0  0  0  0  0  0  0  0  0
   -7.3122   -1.9332   -0.0394 C   0  0  0  0  0  0  0  0  0  0  0  0
   -8.6271   -1.2764   -0.4606 C   0  0  0  0  0  0  0  0  0  0  0  0
    0.8025   -3.3833   -1.3405 C   0  0  0  0  0  0  0  0  0  0  0  0
    1.9196   -3.4347   -0.5491 C   0  0  0  0  0  0  0  0  0  0  0  0
    1.4846    1.9328   -1.8212 N   0  0  0  0  0  0  0  0  0  0  0  0
    1.7449    1.3080   -0.6308 C   0  0  0  0  0  2  0  0  0  0  0  0
    3.0711    1.5569   -0.3903 N   0  0  0  0  0  0  0  0  0  0  0  0
    3.6248    2.3308   -1.4013 C   0  0  0  0  0  0  0  0  0  0  0  0
    2.6203    2.5730   -2.3001 C   0  0  0  0  0  0  0  0  0  0  0  0
    3.7934    1.0632    0.7850 C   0  0  0  0  0  0  0  0  0  0  0  0
    6.3149    1.2095   -0.1054 H   0  0  0  0  0  0  0  0  0  0  0  0
    7.8927   -0.6130   -0.7308 H   0  0  0  0  0  0  0  0  0  0  0  0
    0.3487    2.2792   -3.5159 H   0  0  0  0  0  0  0  0  0  0  0  0
   -0.2306    0.9607   -2.4730 H   0  0  0  0  0  0  0  0  0  0  0  0
   -1.1104    3.7703   -2.4538 H   0  0  0  0  0  0  0  0  0  0  0  0
   -0.3134    3.4100   -0.8944 H   0  0  0  0  0  0  0  0  0  0  0  0
   -1.7287    1.4129   -0.5695 H   0  0  0  0  0  0  0  0  0  0  0  0
   -2.6308    1.7531   -2.0770 H   0  0  0  0  0  0  0  0  0  0  0  0
   -3.3829    3.9606   -1.1182 H   0  0  0  0  0  0  0  0  0  0  0  0
   -2.4023    3.6518    0.3403 H   0  0  0  0  0  0  0  0  0  0  0  0
   -4.8008    1.9157   -0.5572 H   0  0  0  0  0  0  0  0  0  0  0  0
   -4.8669    3.2048    0.6587 H   0  0  0  0  0  0  0  0  0  0  0  0
   -3.0821    1.9426    2.0143 H   0  0  0  0  0  0  0  0  0  0  0  0
   -3.1837    0.6149    0.8813 H   0  0  0  0  0  0  0  0  0  0  0  0
   -4.6231    0.1203    2.8328 H   0  0  0  0  0  0  0  0  0  0  0  0
   -5.6817    0.3446    1.4054 H   0  0  0  0  0  0  0  0  0  0  0  0
   -5.5360    1.6479    2.6175 H   0  0  0  0  0  0  0  0  0  0  0  0
    7.1936   -3.0159   -0.4445 H   0  0  0  0  0  0  0  0  0  0  0  0
    4.9376   -3.5390    0.4702 H   0  0  0  0  0  0  0  0  0  0  0  0
    2.4701   -1.0969    1.7860 H   0  0  0  0  0  0  0  0  0  0  0  0
    3.0714   -2.7780    1.8291 H   0  0  0  0  0  0  0  0  0  0  0  0
   -1.1298   -2.0117   -2.7225 H   0  0  0  0  0  0  0  0  0  0  0  0
   -1.1059   -0.6281   -1.5749 H   0  0  0  0  0  0  0  0  0  0  0  0
   -2.1013   -2.0600    0.2098 H   0  0  0  0  0  0  0  0  0  0  0  0
   -2.2899   -3.4109   -0.9526 H   0  0  0  0  0  0  0  0  0  0  0  0
   -3.7861   -1.9545   -2.3962 H   0  0  0  0  0  0  0  0  0  0  0  0
   -3.5302   -0.5952   -1.2808 H   0  0  0  0  0  0  0  0  0  0  0  0
   -4.5925   -1.8968    0.5847 H   0  0  0  0  0  0  0  0  0  0  0  0
   -4.8798   -3.2638   -0.5114 H   0  0  0  0  0  0  0  0  0  0  0  0
   -6.3306   -1.7855   -1.9719 H   0  0  0  0  0  0  0  0  0  0  0  0
   -6.0178   -0.4149   -0.8902 H   0  0  0  0  0  0  0  0  0  0  0  0
   -7.0893   -1.6773    1.0202 H   0  0  0  0  0  0  0  0  0  0  0  0
   -7.4187   -3.0408   -0.0628 H   0  0  0  0  0  0  0  0  0  0  0  0
   -9.4715   -1.5920    0.1850 H   0  0  0  0  0  0  0  0  0  0  0  0
   -8.8913   -1.5350   -1.5077 H   0  0  0  0  0  0  0  0  0  0  0  0
   -8.5581   -0.1698   -0.4030 H   0  0  0  0  0  0  0  0  0  0  0  0
    0.3820   -4.1165   -2.0349 H   0  0  0  0  0  0  0  0  0  0  0  0
    2.6720   -4.2180   -0.4251 H   0  0  0  0  0  0  0  0  0  0  0  0
    4.6722    2.6432   -1.3981 H   0  0  0  0  0  0  0  0  0  0  0  0
    2.6151    3.1476   -3.2308 H   0  0  0  0  0  0  0  0  0  0  0  0
    4.3973    1.9028    1.1820 H   0  0  0  0  0  0  0  0  0  0  0  0
    3.0144    0.8283    1.5345 H   0  0  0  0  0  0  0  0  0  0  0  0
  1 14  1  0  0  0  0
  2  1  1  0  0  0  0
  2 32  1  0  0  0  0
  3  2  2  0  0  0  0
  4 12  2  0  0  0  0
  4  3  1  0  0  0  0
  5 27  1  0  0  0  0
  5  6  1  0  0  0  0
  6  7  1  0  0  0  0
  6 38  1  0  0  0  0
  7 39  1  0  0  0  0
  7  8  1  0  0  0  0
  8  9  1  0  0  0  0
  8 42  1  0  0  0  0
  9 44  1  0  0  0  0
  9 10  1  0  0  0  0
 10 45  1  0  0  0  0
 10 11  1  0  0  0  0
 11 49  1  0  0  0  0
 11 47  1  0  0  0  0
 12 13  1  0  0  0  0
 13 51  1  0  0  0  0
 13  1  2  0  0  0  0
 14 52  1  0  0  0  0
 14 53  1  0  0  0  0
 15 14  1  0  0  0  0
 16 15  1  0  0  0  0
 17 16  1  0  0  0  0
 18 55  1  0  0  0  0
 18 17  1  0  0  0  0
 18 19  1  0  0  0  0
 19 56  1  0  0  0  0
 20 59  1  0  0  0  0
 20 19  1  0  0  0  0
 20 21  1  0  0  0  0
 21 60  1  0  0  0  0
 22 63  1  0  0  0  0
 22 21  1  0  0  0  0
 22 23  1  0  0  0  0
 23 64  1  0  0  0  0
 24 68  1  0  0  0  0
 24 23  1  0  0  0  0
 24 66  1  0  0  0  0
 25 17  1  0  0  0  0
 25 26  2  0  0  0  0
 26 70  1  0  0  0  0
 26 15  1  0  0  0  0
 27 28  1  0  0  0  0
 28 29  1  0  0  0  0
 29 32  1  0  0  0  0
 30 71  1  0  0  0  0
 30 29  1  0  0  0  0
 31 27  1  0  0  0  0
 31 30  2  0  0  0  0
 32 73  1  0  0  0  0
 32 74  1  0  0  0  0
 33  3  1  0  0  0  0
 34  4  1  0  0  0  0
 35  5  1  0  0  0  0
 36  5  1  0  0  0  0
 37  6  1  0  0  0  0
 40  7  1  0  0  0  0
 41  8  1  0  0  0  0
 43  9  1  0  0  0  0
 46 10  1  0  0  0  0
 48 11  1  0  0  0  0
 50 12  1  0  0  0  0
 54 18  1  0  0  0  0
 57 19  1  0  0  0  0
 58 20  1  0  0  0  0
 61 21  1  0  0  0  0
 62 22  1  0  0  0  0
 65 23  1  0  0  0  0
 67 24  1  0  0  0  0
 69 25  1  0  0  0  0
 72 31  1  0  0  0  0
M  END
