2,3
q = 0.0, confidence = 0.688

 10  9  0  0  0  0  0  0  0  0999 V2000
    0.0001   -1.5642   -2.2104 S   0  0  0  0  0  0  0  0  0  0  0  0
    0.0001   -2.0163   -0.5923 C   0  0  0  0  0  3  0  0  0  0  0  0
    0.0001   -0.8510    2.0171 C   0  0  0  0  0  3  0  0  0  0  0  0
    0.0003   -0.1267    2.8537 H   0  0  0  0  0  0  0  0  0  0  0  0
   -0.0001   -3.2553    0.0746 C   0  0  0  0  0  0  0  0  0  0  0  0
   -0.0001   -4.1906   -0.5062 H   0  0  0  0  0  0  0  0  0  0  0  0
    0.0000   -2.1895    2.3652 C   0  0  0  0  0  0  0  0  0  0  0  0
    0.0001   -2.4345    3.4419 H   0  0  0  0  0  0  0  0  0  0  0  0
   -0.0001   -3.3048    1.4674 C   0  0  0  0  0  0  0  0  0  0  0  0
   -0.0002   -4.3051    1.9325 H   0  0  0  0  0  0  0  0  0  0  0  0
  1  2  2  0  0  0  0
  2  5  1  0  0  0  0
  3  7  2  0  0  0  0
  3  4  1  0  0  0  0
  5  9  2  0  0  0  0
  6  5  1  0  0  0  0
  7  8  1  0  0  0  0
  9 10  1  0  0  0  0
  9  7  1  0  0  0  0
M  END
