2,6
q = 0.0, confidence = 0.982

 18 18  0  0  1  0  0  0  0  0999 V2000
    1.0054    0.2523   -0.0009 C   0  0  2  0  0  3  0  0  0  0  0  0
    0.4091    0.6422    1.2276 C   0  0  0  0  0  3  0  0  0  0  0  0
   -0.7259    1.4985    1.2315 C   0  0  0  0  0  0  0  0  0  0  0  0
   -1.2801    1.9768    0.0001 C   0  0  0  0  0  0  0  0  0  0  0  0
   -0.7269    1.4985   -1.2318 C   0  0  0  0  0  3  0  0  0  0  0  0
    0.4082    0.6422   -1.2288 C   0  0  0  0  0  3  0  0  0  0  0  0
    2.1070   -0.6034   -0.0014 O   0  0  0  0  0  0  0  0  0  0  0  0
    3.5056    0.7929   -1.0860 F   0  0  0  0  0  0  0  0  0  0  0  0
    3.5055    0.7882    1.0893 F   0  0  0  0  0  0  0  0  0  0  0  0
    4.2564   -0.9497   -0.0020 F   0  0  0  0  0  0  0  0  0  0  0  0
   -2.3391    2.8546    0.0004 N   0  0  0  0  0  0  0  0  0  0  0  0
    3.3302    0.0064   -0.0000 C   0  0  0  0  0  0  0  0  0  0  0  0
    0.8348    0.2726    2.1699 H   0  0  0  0  0  0  0  0  0  0  0  0
   -1.1879    1.7846    2.1859 H   0  0  0  0  0  0  0  0  0  0  0  0
   -1.1897    1.7845   -2.1859 H   0  0  0  0  0  0  0  0  0  0  0  0
    0.8332    0.2726   -2.1714 H   0  0  0  0  0  0  0  0  0  0  0  0
   -2.9056    2.8767    0.8500 H   0  0  0  0  0  0  0  0  0  0  0  0
   -2.9064    2.8765   -0.8487 H   0  0  0  0  0  0  0  0  0  0  0  0
  1  7  1  1  0  0  0
  1  2  1  0  0  0  0
  2  3  1  0  0  0  0
  2 13  1  0  0  0  0
  3 14  1  0  0  0  0
  4 11  1  0  0  0  0
  4  3  2  0  0  0  0
  5  6  1  0  0  0  0
  5  4  1  0  0  0  0
  6  1  1  0  0  0  0
  7 12  1  0  0  0  0
  8 12  1  0  0  0  0
 10 12  1  0  0  0  0
 11 17  1  0  0  0  0
 12  9  1  0  0  0  0
 15  5  1  0  0  0  0
 16  6  1  0  0  0  0
 18 11  1  0  0  0  0
M  END
