4,6
q = 0.0, confidence = 0.832

 53 56  0  0  0  0  0  0  0  0999 V2000
    1.5971    0.8044   -0.0163 Si  0  0  0  0  0  0  0  0  0  0  0  0
    2.4063    1.7735    1.9823 Si  0  0  0  0  0  0  0  0  0  0  0  0
    2.3809    1.7587   -2.0273 Si  0  0  0  0  0  0  0  0  0  0  0  0
    0.1314   -1.0840    0.0088 C   0  0  0  0  0  0  0  0  0  0  0  0
   -0.2873    0.4012    0.0016 C   0  0  0  0  0  0  0  0  0  0  0  0
   -1.5588    0.9014    0.0020 C   0  0  0  0  0  3  0  0  0  0  0  0
   -1.9684    2.2978    0.0136 C   0  0  0  0  0  0  0  0  0  0  0  0
   -1.0396    3.3651    0.1315 C   0  0  0  0  0  0  0  0  0  0  0  0
    0.0314    3.1290    0.2211 H   0  0  0  0  0  0  0  0  0  0  0  0
   -1.4627    4.6976    0.1375 C   0  0  0  0  0  0  0  0  0  0  0  0
   -0.7210    5.5067    0.2289 H   0  0  0  0  0  0  0  0  0  0  0  0
   -2.8318    5.0053    0.0270 C   0  0  0  0  0  0  0  0  0  0  0  0
   -3.1654    6.0541    0.0326 H   0  0  0  0  0  0  0  0  0  0  0  0
   -3.7688    3.9652   -0.0871 C   0  0  0  0  0  0  0  0  0  0  0  0
   -4.8414    4.1986   -0.1720 H   0  0  0  0  0  0  0  0  0  0  0  0
   -3.3422    2.6301   -0.0913 C   0  0  0  0  0  0  0  0  0  0  0  0
   -4.0686    1.8065   -0.1783 H   0  0  0  0  0  0  0  0  0  0  0  0
    1.5119   -1.0915    0.0021 C   0  0  0  0  0  0  0  0  0  0  0  0
    2.4179   -2.2269    0.0077 C   0  0  0  0  0  0  0  0  0  0  0  0
    1.9304   -3.5600    0.0402 C   0  0  0  0  0  0  0  0  0  0  0  0
    0.8405   -3.7155    0.0615 H   0  0  0  0  0  0  0  0  0  0  0  0
    2.8126   -4.6446    0.0448 C   0  0  0  0  0  0  0  0  0  0  0  0
    2.4170   -5.6720    0.0705 H   0  0  0  0  0  0  0  0  0  0  0  0
    4.2037   -4.4304    0.0172 C   0  0  0  0  0  0  0  0  0  0  0  0
    4.8956   -5.2863    0.0211 H   0  0  0  0  0  0  0  0  0  0  0  0
    4.7033   -3.1181   -0.0147 C   0  0  0  0  0  0  0  0  0  0  0  0
    5.7899   -2.9423   -0.0359 H   0  0  0  0  0  0  0  0  0  0  0  0
    3.8211   -2.0297   -0.0190 C   0  0  0  0  0  0  0  0  0  0  0  0
    4.2112   -0.9999   -0.0421 H   0  0  0  0  0  0  0  0  0  0  0  0
    2.5465    3.6663    1.8685 C   0  0  0  0  0  0  0  0  0  0  0  0
    1.5640    4.1424    1.6752 H   0  0  0  0  0  0  0  0  0  0  0  0
    3.2422    3.9697    1.0597 H   0  0  0  0  0  0  0  0  0  0  0  0
    2.9375    4.0764    2.8237 H   0  0  0  0  0  0  0  0  0  0  0  0
    4.1296    1.0521    2.3326 C   0  0  0  0  0  0  0  0  0  0  0  0
    4.5364    1.4612    3.2816 H   0  0  0  0  0  0  0  0  0  0  0  0
    4.8437    1.3029    1.5213 H   0  0  0  0  0  0  0  0  0  0  0  0
    4.0885   -0.0523    2.4212 H   0  0  0  0  0  0  0  0  0  0  0  0
    1.2103    1.3041    3.3778 C   0  0  0  0  0  0  0  0  0  0  0  0
    1.5666    1.6807    4.3595 H   0  0  0  0  0  0  0  0  0  0  0  0
    1.1087    0.2019    3.4453 H   0  0  0  0  0  0  0  0  0  0  0  0
    0.2058    1.7327    3.1839 H   0  0  0  0  0  0  0  0  0  0  0  0
    4.2645    1.5054   -2.1061 C   0  0  0  0  0  0  0  0  0  0  0  0
    4.6785    1.9430   -3.0391 H   0  0  0  0  0  0  0  0  0  0  0  0
    4.5203    0.4264   -2.0927 H   0  0  0  0  0  0  0  0  0  0  0  0
    4.7747    1.9902   -1.2483 H   0  0  0  0  0  0  0  0  0  0  0  0
    1.9867    3.6139   -2.1263 C   0  0  0  0  0  0  0  0  0  0  0  0
    2.3922    4.0402   -3.0682 H   0  0  0  0  0  0  0  0  0  0  0  0
    2.4343    4.1713   -1.2788 H   0  0  0  0  0  0  0  0  0  0  0  0
    0.8925    3.7927   -2.1117 H   0  0  0  0  0  0  0  0  0  0  0  0
    1.5497    0.8555   -3.4738 C   0  0  0  0  0  0  0  0  0  0  0  0
    0.4568    1.0442   -3.4657 H   0  0  0  0  0  0  0  0  0  0  0  0
    1.7132   -0.2389   -3.4000 H   0  0  0  0  0  0  0  0  0  0  0  0
    1.9521    1.2024   -4.4485 H   0  0  0  0  0  0  0  0  0  0  0  0
  1  5  1  0  0  0  0
  1 18  1  0  0  0  0
  1  2  1  0  0  0  0
  1  4  1  0  0  0  0
  2 34  1  0  0  0  0
  2 38  1  0  0  0  0
  3  1  1  0  0  0  0
  5  6  2  0  0  0  0
  5  4  1  0  0  0  0
  6  7  1  0  0  0  0
  7  8  1  0  0  0  0
  8 10  2  0  0  0  0
  8  9  1  0  0  0  0
 10 11  1  0  0  0  0
 12 13  1  0  0  0  0
 12 10  1  0  0  0  0
 14 12  2  0  0  0  0
 15 14  1  0  0  0  0
 16 14  1  0  0  0  0
 16  7  2  0  0  0  0
 17 16  1  0  0  0  0
 18 19  1  0  0  0  0
 18  4  2  3  0  0  0
 19 20  1  0  0  0  0
 20 22  2  0  0  0  0
 20 21  1  0  0  0  0
 22 23  1  0  0  0  0
 24 25  1  0  0  0  0
 24 22  1  0  0  0  0
 26 24  2  0  0  0  0
 27 26  1  0  0  0  0
 28 26  1  0  0  0  0
 28 19  2  0  0  0  0
 29 28  1  0  0  0  0
 30  2  1  0  0  0  0
 30 33  1  0  0  0  0
 31 30  1  0  0  0  0
 32 30  1  0  0  0  0
 34 37  1  0  0  0  0
 34 35  1  0  0  0  0
 36 34  1  0  0  0  0
 38 40  1  0  0  0  0
 38 39  1  0  0  0  0
 41 38  1  0  0  0  0
 42 44  1  0  0  0  0
 42  3  1  0  0  0  0
 42 45  1  0  0  0  0
 43 42  1  0  0  0  0
 46 49  1  0  0  0  0
 46  3  1  0  0  0  0
 46 48  1  0  0  0  0
 47 46  1  0  0  0  0
 50 51  1  0  0  0  0
 50 52  1  0  0  0  0
 50  3  1  0  0  0  0
 53 50  1  0  0  0  0
M  HYD  2   4   0   6   0
M  ZBO  1   4   0
M  END
