15,18
q = -1.0, confidence = 0.006

 29 30  0  0  1  0  0  0  0  0999 V2000
   -0.5676    3.5753   -0.2873 Cl  0  0  0  0  0  0  0  0  0  0  0  0
    5.0827    0.0479    0.1737 O   0  0  0  0  0  0  0  0  0  0  0  0
   -3.4481    0.1085   -0.0876 N   0  0  0  0  0  0  0  0  0  0  0  0
   -3.1399   -0.9064   -0.2040 H   0  0  0  0  0  0  0  0  0  0  0  0
   -4.8375    0.5310    0.0130 C   0  0  0  0  0  0  0  0  0  0  0  0
   -5.4133   -0.1860    0.6319 H   0  0  0  0  0  0  0  0  0  0  0  0
   -5.2998    0.5372   -1.0006 H   0  0  0  0  0  0  0  0  0  0  0  0
   -4.7228    1.9373    0.6212 C   0  0  0  0  0  0  0  0  0  0  0  0
   -4.7961    1.8745    1.7257 H   0  0  0  0  0  0  0  0  0  0  0  0
   -5.5144    2.6251    0.2703 H   0  0  0  0  0  0  0  0  0  0  0  0
   -3.3062    2.3927    0.2193 C   0  0  0  0  0  0  0  0  0  0  0  0
   -3.2956    2.9596   -0.7363 H   0  0  0  0  0  0  0  0  0  0  0  0
   -2.8185    3.0425    0.9669 H   0  0  0  0  0  0  0  0  0  0  0  0
   -2.5541    1.0823    0.0148 C   0  0  1  0  0  3  0  0  0  0  0  0
   -1.1455    0.8541   -0.0520 C   0  0  0  0  0  2  0  0  0  0  0  0
   -0.1924    1.8672   -0.1154 C   0  0  0  0  0  0  0  0  0  0  0  0
    1.2091    1.5326   -0.0707 C   0  0  0  0  0  0  0  0  0  0  0  0
    1.4696    0.1339    0.0235 C   0  0  0  0  0  3  0  0  0  0  0  0
    2.7734   -0.3310    0.1014 C   0  0  0  0  0  0  0  0  0  0  0  0
    2.9851   -1.4079    0.1686 H   0  0  0  0  0  0  0  0  0  0  0  0
    3.8499    0.5940    0.0875 C   0  0  0  0  0  0  0  0  0  0  0  0
    3.6041    1.9851   -0.0145 C   0  0  0  0  0  0  0  0  0  0  0  0
    4.4298    2.7079   -0.0325 H   0  0  0  0  0  0  0  0  0  0  0  0
    2.2881    2.4426   -0.0955 C   0  0  0  0  0  3  0  0  0  0  0  0
    2.0833    3.5200   -0.1780 H   0  0  0  0  0  0  0  0  0  0  0  0
    6.2173    0.8991    0.1673 C   0  0  0  0  0  0  0  0  0  0  0  0
    6.2870    1.4838   -0.7763 H   0  0  0  0  0  0  0  0  0  0  0  0
    7.1001    0.2392    0.2493 H   0  0  0  0  0  0  0  0  0  0  0  0
    6.2079    1.6029    1.0286 H   0  0  0  0  0  0  0  0  0  0  0  0
  1 16  1  0  0  0  0
  3  5  1  0  0  0  0
  3 14  1  0  0  0  0
  4  3  1  0  0  0  0
  5  8  1  0  0  0  0
  5  6  1  0  0  0  0
  7  5  1  0  0  0  0
  8  9  1  0  0  0  0
 10  8  1  0  0  0  0
 11  8  1  0  0  0  0
 11 13  1  0  0  0  0
 12 11  1  0  0  0  0
 14 15  1  1  0  0  0
 14 11  1  0  0  0  0
 16 17  2  0  0  0  0
 16 15  1  0  0  0  0
 17 18  1  0  0  0  0
 18 19  2  0  0  0  0
 19 20  1  0  0  0  0
 21 19  1  0  0  0  0
 21  2  1  0  0  0  0
 22 21  2  0  0  0  0
 23 22  1  0  0  0  0
 24 17  1  0  0  0  0
 24 22  1  0  0  0  0
 25 24  1  0  0  0  0
 26  2  1  0  0  0  0
 26 28  1  0  0  0  0
 26 29  1  0  0  0  0
 27 26  1  0  0  0  0
M  END
