5,36
q = -1.0, confidence = 0.008

 37 38  0  0  1  0  0  0  0  0999 V2000
   -3.5775   -0.3528    1.3135 O   0  0  0  0  0  0  0  0  0  0  0  0
   -4.1400   -1.8593   -0.2836 O   0  0  0  0  0  0  0  0  0  0  0  0
   -2.1671    2.6425    0.3992 O   0  0  0  0  0  0  0  0  0  0  0  0
   -3.6440    1.5340   -0.9246 O   0  0  0  0  0  0  0  0  0  0  0  0
    3.3018   -1.4036   -1.3121 C   0  0  0  0  0  3  0  0  0  0  0  0
    4.3716   -1.3145   -1.5649 H   0  0  0  0  0  0  0  0  0  0  0  0
    2.6214   -1.4409   -2.1786 H   0  0  0  0  0  0  0  0  0  0  0  0
    2.9153   -1.9072   -0.0545 C   0  0  0  0  0  3  0  0  0  0  0  0
    3.7138   -2.2014    0.6522 H   0  0  0  0  0  0  0  0  0  0  0  0
    1.5323   -2.4127    0.2725 C   0  0  0  0  0  0  0  0  0  0  0  0
    1.3935   -2.3374    1.3709 H   0  0  0  0  0  0  0  0  0  0  0  0
    1.4702   -3.4997    0.0399 H   0  0  0  0  0  0  0  0  0  0  0  0
    0.4335   -1.6114   -0.4461 C   0  0  1  0  0  0  0  0  0  0  0  0
    0.1888   -2.0935   -1.4153 H   0  0  0  0  0  0  0  0  0  0  0  0
   -0.8365   -1.4549    0.4361 C   0  0  2  0  0  0  0  0  0  0  0  0
   -1.1093   -2.3873    0.9672 H   0  0  0  0  0  0  0  0  0  0  0  0
   -1.9872   -0.8911   -0.4487 C   0  0  1  0  0  0  0  0  0  0  0  0
   -2.0869   -1.4635   -1.3889 H   0  0  0  0  0  0  0  0  0  0  0  0
   -3.3125   -0.9730    0.2968 C   0  0  0  0  0  0  0  0  0  0  0  0
   -5.4138   -2.0359    0.3624 C   0  0  0  0  0  0  0  0  0  0  0  0
   -5.2782   -2.3716    1.4093 H   0  0  0  0  0  0  0  0  0  0  0  0
   -5.9506   -2.7991   -0.2267 H   0  0  0  0  0  0  0  0  0  0  0  0
   -5.9774   -1.0820    0.3697 H   0  0  0  0  0  0  0  0  0  0  0  0
   -4.6753    2.4698   -0.5590 C   0  0  0  0  0  0  0  0  0  0  0  0
   -4.9638    2.3095    0.4989 H   0  0  0  0  0  0  0  0  0  0  0  0
   -5.5270    2.2615   -1.2292 H   0  0  0  0  0  0  0  0  0  0  0  0
   -4.3210    3.5111   -0.6838 H   0  0  0  0  0  0  0  0  0  0  0  0
   -2.4577    1.7019   -0.3147 C   0  0  0  0  0  0  0  0  0  0  0  0
   -1.4959    0.5785   -0.7104 C   0  0  1  0  0  0  0  0  0  0  0  0
   -1.3171    0.7112   -1.7982 H   0  0  0  0  0  0  0  0  0  0  0  0
   -0.1791    0.6760    0.1110 C   0  0  1  0  0  0  0  0  0  0  0  0
    0.0315    1.7357    0.3425 H   0  0  0  0  0  0  0  0  0  0  0  0
   -0.4827   -0.2371    1.3121 C   0  0  0  0  0  0  0  0  0  0  0  0
   -1.3384    0.1147    1.9172 H   0  0  0  0  0  0  0  0  0  0  0  0
    0.3944   -0.3979    1.9718 H   0  0  0  0  0  0  0  0  0  0  0  0
    0.8539   -0.1222   -0.6825 C   0  0  0  0  0  3  0  0  0  0  0  0
    0.9142    0.1753   -1.7513 H   0  0  0  0  0  0  0  0  0  0  0  0
  2 19  1  0  0  0  0
  2 20  1  0  0  0  0
  4 24  1  0  0  0  0
  4 28  1  0  0  0  0
  5  8  1  0  0  0  0
  6  5  1  0  0  0  0
  7  5  1  0  0  0  0
  8 10  1  0  0  0  0
  8  9  1  0  0  0  0
 10 11  1  0  0  0  0
 12 10  1  0  0  0  0
 13 14  1  6  0  0  0
 13 10  1  0  0  0  0
 13 15  1  0  0  0  0
 15 16  1  1  0  0  0
 15 33  1  0  0  0  0
 17 18  1  6  0  0  0
 17 19  1  0  0  0  0
 17 15  1  0  0  0  0
 19  1  2  0  0  0  0
 20 23  1  0  0  0  0
 20 21  1  0  0  0  0
 22 20  1  0  0  0  0
 24 25  1  0  0  0  0
 26 24  1  0  0  0  0
 27 24  1  0  0  0  0
 28  3  2  0  0  0  0
 29 30  1  6  0  0  0
 29 17  1  0  0  0  0
 29 28  1  0  0  0  0
 29 31  1  0  0  0  0
 31 32  1  1  0  0  0
 31 33  1  0  0  0  0
 33 34  1  0  0  0  0
 33 35  1  0  0  0  0
 36 13  1  0  0  0  0
 36 31  1  0  0  0  0
 37 36  1  0  0  0  0
M  END
