5,23
q = 0.0, confidence = 0.996

 62 64  0  0  1  0  0  0  0  0999 V2000
   -0.3030   -2.9433    0.6047 N   0  0  0  0  0  0  0  0  0  0  0  0
    1.0126   -1.3759    1.2854 N   0  0  0  0  0  0  0  0  0  0  0  0
    1.0108    1.3770   -1.2853 N   0  0  0  0  0  0  0  0  0  0  0  0
   -0.3071    2.9427   -0.6053 N   0  0  0  0  0  0  0  0  0  0  0  0
   -0.2105   -1.5685    0.6739 C   0  0  0  0  0  2  0  0  0  0  0  0
    0.8085   -3.5653    1.1604 C   0  0  0  0  0  0  0  0  0  0  0  0
    1.6451   -2.5730    1.5892 C   0  0  0  0  0  0  0  0  0  0  0  0
   -1.3992   -3.7053   -0.0221 C   0  0  0  0  0  0  0  0  0  0  0  0
   -2.1187   -4.5755    1.0089 C   0  0  0  0  0  0  0  0  0  0  0  0
   -0.8887   -4.4912   -1.2319 C   0  0  0  0  0  0  0  0  0  0  0  0
    1.6350   -0.0608    1.4900 C   0  0  1  0  0  0  0  0  0  0  0  0
    1.6973    0.2974    2.9818 C   0  0  0  0  0  0  0  0  0  0  0  0
    2.0134    1.7728    3.2270 C   0  0  0  0  0  0  0  0  0  0  0  0
    2.9531   -0.0068    0.7132 C   0  0  0  0  0  0  0  0  0  0  0  0
    4.1861   -0.0205    1.3903 C   0  0  0  0  0  0  0  0  0  0  0  0
    5.4076   -0.0090    0.6996 C   0  0  0  0  0  0  0  0  0  0  0  0
    5.4077    0.0165   -0.6991 C   0  0  0  0  0  0  0  0  0  0  0  0
    4.1862    0.0262   -1.3899 C   0  0  0  0  0  0  0  0  0  0  0  0
    2.9531    0.0107   -0.7129 C   0  0  0  0  0  0  0  0  0  0  0  0
    1.6350    0.0628   -1.4898 C   0  0  2  0  0  0  0  0  0  0  0  0
    1.6980   -0.2954   -2.9815 C   0  0  0  0  0  0  0  0  0  0  0  0
    2.0164   -1.7703   -3.2266 C   0  0  0  0  0  0  0  0  0  0  0  0
   -0.2128    1.5681   -0.6741 C   0  0  0  0  0  2  0  0  0  0  0  0
    1.6416    2.5749   -1.5894 C   0  0  0  0  0  0  0  0  0  0  0  0
    0.8035    3.5661   -1.1610 C   0  0  0  0  0  0  0  0  0  0  0  0
   -1.4047    3.7034    0.0208 C   0  0  0  0  0  0  0  0  0  0  0  0
   -2.1257    4.5713   -1.0110 C   0  0  0  0  0  0  0  0  0  0  0  0
   -0.8955    4.4914    1.2299 C   0  0  0  0  0  0  0  0  0  0  0  0
    0.9153   -4.6526    1.2037 H   0  0  0  0  0  0  0  0  0  0  0  0
    2.6317   -2.6154    2.0588 H   0  0  0  0  0  0  0  0  0  0  0  0
   -2.0975   -2.9269   -0.3782 H   0  0  0  0  0  0  0  0  0  0  0  0
   -1.4575   -5.3699    1.4140 H   0  0  0  0  0  0  0  0  0  0  0  0
   -2.9908   -5.0693    0.5377 H   0  0  0  0  0  0  0  0  0  0  0  0
   -2.4925   -3.9594    1.8488 H   0  0  0  0  0  0  0  0  0  0  0  0
   -0.4064   -3.8158   -1.9653 H   0  0  0  0  0  0  0  0  0  0  0  0
   -1.7380   -4.9898   -1.7388 H   0  0  0  0  0  0  0  0  0  0  0  0
   -0.1603   -5.2769   -0.9425 H   0  0  0  0  0  0  0  0  0  0  0  0
    0.9129    0.6396    1.0251 H   0  0  0  0  0  0  0  0  0  0  0  0
    0.7013    0.0605    3.4065 H   0  0  0  0  0  0  0  0  0  0  0  0
    2.4188   -0.3590    3.5153 H   0  0  0  0  0  0  0  0  0  0  0  0
    3.0038    2.0634    2.8231 H   0  0  0  0  0  0  0  0  0  0  0  0
    2.0049    2.0066    4.3096 H   0  0  0  0  0  0  0  0  0  0  0  0
    1.2546    2.4190    2.7406 H   0  0  0  0  0  0  0  0  0  0  0  0
    4.1987   -0.0406    2.4894 H   0  0  0  0  0  0  0  0  0  0  0  0
    6.3552   -0.0199    1.2590 H   0  0  0  0  0  0  0  0  0  0  0  0
    6.3552    0.0288   -1.2585 H   0  0  0  0  0  0  0  0  0  0  0  0
    4.1988    0.0463   -2.4890 H   0  0  0  0  0  0  0  0  0  0  0  0
    0.9139   -0.6386   -1.0249 H   0  0  0  0  0  0  0  0  0  0  0  0
    0.7016   -0.0602   -3.4063 H   0  0  0  0  0  0  0  0  0  0  0  0
    2.4184    0.3621   -3.5150 H   0  0  0  0  0  0  0  0  0  0  0  0
    3.0073   -2.0593   -2.8226 H   0  0  0  0  0  0  0  0  0  0  0  0
    2.0084   -2.0042   -4.3092 H   0  0  0  0  0  0  0  0  0  0  0  0
    1.2588   -2.4177   -2.7401 H   0  0  0  0  0  0  0  0  0  0  0  0
    2.6283    2.6185   -2.0588 H   0  0  0  0  0  0  0  0  0  0  0  0
    0.9089    4.6536   -1.2046 H   0  0  0  0  0  0  0  0  0  0  0  0
   -2.1015    2.9241    0.3777 H   0  0  0  0  0  0  0  0  0  0  0  0
   -1.4660    5.3664   -1.4170 H   0  0  0  0  0  0  0  0  0  0  0  0
   -2.9986    5.0641   -0.5402 H   0  0  0  0  0  0  0  0  0  0  0  0
   -2.4986    3.9537   -1.8502 H   0  0  0  0  0  0  0  0  0  0  0  0
   -0.4116    3.8176    1.9637 H   0  0  0  0  0  0  0  0  0  0  0  0
   -1.7457    4.9887    1.7365 H   0  0  0  0  0  0  0  0  0  0  0  0
   -0.1688    5.2785    0.9396 H   0  0  0  0  0  0  0  0  0  0  0  0
  1  5  1  0  0  0  0
  1  6  1  0  0  0  0
  2 11  1  0  0  0  0
  2  7  1  0  0  0  0
  3 23  1  0  0  0  0
  4 26  1  0  0  0  0
  5  2  1  0  0  0  0
  6 29  1  0  0  0  0
  6  7  2  0  0  0  0
  7 30  1  0  0  0  0
  8  1  1  0  0  0  0
  8  9  1  0  0  0  0
  9 32  1  0  0  0  0
  9 34  1  0  0  0  0
 10 37  1  0  0  0  0
 10  8  1  0  0  0  0
 11 38  1  6  0  0  0
 11 12  1  0  0  0  0
 12 13  1  0  0  0  0
 12 39  1  0  0  0  0
 12 40  1  0  0  0  0
 13 42  1  0  0  0  0
 14 15  1  0  0  0  0
 14 11  1  0  0  0  0
 15 44  1  0  0  0  0
 16 45  1  0  0  0  0
 16 15  2  0  0  0  0
 17 16  1  0  0  0  0
 18 19  1  0  0  0  0
 18 17  2  0  0  0  0
 19 14  2  0  0  0  0
 20  3  1  0  0  0  0
 20 48  1  1  0  0  0
 20 19  1  0  0  0  0
 21 20  1  0  0  0  0
 22 21  1  0  0  0  0
 22 51  1  0  0  0  0
 22 53  1  0  0  0  0
 23  4  1  0  0  0  0
 24  3  1  0  0  0  0
 24 25  2  0  0  0  0
 25  4  1  0  0  0  0
 26 56  1  0  0  0  0
 26 28  1  0  0  0  0
 27 58  1  0  0  0  0
 27 26  1  0  0  0  0
 28 61  1  0  0  0  0
 28 60  1  0  0  0  0
 31  8  1  0  0  0  0
 33  9  1  0  0  0  0
 35 10  1  0  0  0  0
 36 10  1  0  0  0  0
 41 13  1  0  0  0  0
 43 13  1  0  0  0  0
 46 17  1  0  0  0  0
 47 18  1  0  0  0  0
 49 21  1  0  0  0  0
 50 21  1  0  0  0  0
 52 22  1  0  0  0  0
 54 24  1  0  0  0  0
 55 25  1  0  0  0  0
 57 27  1  0  0  0  0
 59 27  1  0  0  0  0
 62 28  1  0  0  0  0
M  END
