11,17
q = -2.0, confidence = 0.544

 30 29  0  0  1  0  0  0  0  0999 V2000
    0.3807    2.2096   -1.5617 O   0  0  0  0  0  0  0  0  0  0  0  0
    1.4443    2.7691    0.3647 O   0  0  0  0  0  0  0  0  0  0  0  0
   -3.1195   -1.3290   -1.3787 O   0  0  0  0  0  0  0  0  0  0  0  0
   -4.3889   -0.7982    0.4285 O   0  0  0  0  0  0  0  0  0  0  0  0
   -3.2001    1.8976   -0.2615 O   0  0  0  0  0  0  0  0  0  0  0  0
   -2.1953    1.9366    1.6843 O   0  0  0  0  0  0  0  0  0  0  0  0
   -2.5715    1.3825    0.6570 N   0  0  0  0  0  0  0  0  0  0  0  0
    0.7603   -1.6573    1.8314 C   0  0  0  0  0  3  0  0  0  0  0  0
    1.3200   -2.3067    2.5219 H   0  0  0  0  0  0  0  0  0  0  0  0
    0.2532   -0.8095    2.3122 H   0  0  0  0  0  0  0  0  0  0  0  0
    0.2597   -2.2521    0.6354 C   0  0  0  0  0  3  0  0  0  0  0  0
    0.4883   -3.3140    0.4394 H   0  0  0  0  0  0  0  0  0  0  0  0
   -0.2573   -1.5042   -0.4467 C   0  0  0  0  0  3  0  0  0  0  0  0
   -0.4892   -2.0425   -1.3774 H   0  0  0  0  0  0  0  0  0  0  0  0
   -0.8058   -0.0964   -0.2902 C   0  0  2  0  0  0  0  0  0  0  0  0
   -0.9928    0.3150   -1.3037 H   0  0  0  0  0  0  0  0  0  0  0  0
    0.3300    0.7030    0.3316 C   0  0  0  0  0  3  0  0  0  0  0  0
    0.2330    0.9267    1.4076 H   0  0  0  0  0  0  0  0  0  0  0  0
    0.6875    1.9457   -0.4083 C   0  0  0  0  0  0  0  0  0  0  0  0
    1.8877    3.9708   -0.2732 C   0  0  0  0  0  0  0  0  0  0  0  0
    2.5058    4.5030    0.4716 H   0  0  0  0  0  0  0  0  0  0  0  0
    1.0256    4.5974   -0.5788 H   0  0  0  0  0  0  0  0  0  0  0  0
    2.4846    3.7409   -1.1794 H   0  0  0  0  0  0  0  0  0  0  0  0
   -2.1463   -0.0719    0.4683 C   0  0  2  0  0  0  0  0  0  0  0  0
   -2.0485   -0.4782    1.4925 H   0  0  0  0  0  0  0  0  0  0  0  0
   -3.2524   -0.8039   -0.2918 C   0  0  0  0  0  0  0  0  0  0  0  0
   -5.5315   -1.3859   -0.2142 C   0  0  0  0  0  0  0  0  0  0  0  0
   -6.3542   -1.3341    0.5197 H   0  0  0  0  0  0  0  0  0  0  0  0
   -5.3234   -2.4366   -0.4976 H   0  0  0  0  0  0  0  0  0  0  0  0
   -5.7918   -0.8174   -1.1292 H   0  0  0  0  0  0  0  0  0  0  0  0
  1 19  2  0  0  0  0
  3 26  2  0  0  0  0
  5  7  2  0  0  0  0
  7  6  2  0  0  0  0
  8 10  1  0  0  0  0
  8  9  1  0  0  0  0
 11  8  1  0  0  0  0
 12 11  1  0  0  0  0
 13 15  1  0  0  0  0
 13 11  1  0  0  0  0
 14 13  1  0  0  0  0
 15 16  1  6  0  0  0
 15 17  1  0  0  0  0
 15 24  1  0  0  0  0
 17 18  1  0  0  0  0
 19 17  1  0  0  0  0
 19  2  1  0  0  0  0
 20  2  1  0  0  0  0
 20 21  1  0  0  0  0
 22 20  1  0  0  0  0
 23 20  1  0  0  0  0
 24  7  1  0  0  0  0
 24 25  1  1  0  0  0
 26  4  1  0  0  0  0
 26 24  1  0  0  0  0
 27  4  1  0  0  0  0
 27 28  1  0  0  0  0
 29 27  1  0  0  0  0
 30 27  1  0  0  0  0
M  END
