4,8
q = 0.0, confidence = 1.0

 31 31  0  0  1  0  0  0  0  0999 V2000
   -4.2063   -0.2397    1.1972 O   0  0  0  0  0  0  0  0  0  0  0  0
   -1.8874   -1.6842   -0.2388 O   0  0  0  0  0  0  0  0  0  0  0  0
   -0.5663    2.1624    0.5536 O   0  0  0  0  0  0  0  0  0  0  0  0
    2.0271    1.0623   -1.8923 C   0  0  0  0  0  3  0  0  0  0  0  0
    2.9971    1.3821   -2.2985 H   0  0  0  0  0  0  0  0  0  0  0  0
    1.3750    1.8850   -0.9230 C   0  0  0  0  0  0  0  0  0  0  0  0
    1.8461    2.8201   -0.5990 H   0  0  0  0  0  0  0  0  0  0  0  0
    0.2389   -0.5994   -1.7044 C   0  0  0  0  0  3  0  0  0  0  0  0
   -0.1958   -1.5811   -1.9383 H   0  0  0  0  0  0  0  0  0  0  0  0
    1.4486   -0.1600   -2.3165 C   0  0  0  0  0  3  0  0  0  0  0  0
    1.9704   -0.8011   -3.0389 H   0  0  0  0  0  0  0  0  0  0  0  0
    0.1409    1.4542   -0.3596 C   0  0  0  0  0  0  0  0  0  0  0  0
   -0.4288    0.1871   -0.7286 C   0  0  1  0  0  3  0  0  0  0  0  0
   -1.7298   -0.2826   -0.0979 C   0  0  1  0  0  0  0  0  0  0  0  0
   -1.7338    0.0087    0.9743 H   0  0  0  0  0  0  0  0  0  0  0  0
   -2.9416    0.3843   -0.7518 C   0  0  0  0  0  0  0  0  0  0  0  0
   -3.0385    0.0569   -1.8082 H   0  0  0  0  0  0  0  0  0  0  0  0
   -2.8091    1.4892   -0.7716 H   0  0  0  0  0  0  0  0  0  0  0  0
   -4.2279    0.0929    0.0227 C   0  0  0  0  0  0  0  0  0  0  0  0
    0.0690    3.2500    1.2164 C   0  0  0  0  0  0  0  0  0  0  0  0
   -0.6422    3.5977    1.9869 H   0  0  0  0  0  0  0  0  0  0  0  0
    0.2849    4.0865    0.5171 H   0  0  0  0  0  0  0  0  0  0  0  0
    1.0092    2.9196    1.7065 H   0  0  0  0  0  0  0  0  0  0  0  0
   -5.5223    0.2500   -0.7488 C   0  0  0  0  0  0  0  0  0  0  0  0
   -6.3849    0.2232   -0.0587 H   0  0  0  0  0  0  0  0  0  0  0  0
   -5.6093   -0.5887   -1.4725 H   0  0  0  0  0  0  0  0  0  0  0  0
   -5.5282    1.1854   -1.3452 H   0  0  0  0  0  0  0  0  0  0  0  0
   -1.6202   -2.4172    0.9489 C   0  0  0  0  0  0  0  0  0  0  0  0
   -1.6971   -3.4909    0.6910 H   0  0  0  0  0  0  0  0  0  0  0  0
   -2.3659   -2.1729    1.7379 H   0  0  0  0  0  0  0  0  0  0  0  0
   -0.5973   -2.2229    1.3400 H   0  0  0  0  0  0  0  0  0  0  0  0
  2 14  1  0  0  0  0
  2 28  1  0  0  0  0
  3 20  1  0  0  0  0
  4  6  1  0  0  0  0
  5  4  1  0  0  0  0
  6  7  1  0  0  0  0
  6 12  2  0  0  0  0
  8 13  1  0  0  0  0
  9  8  1  0  0  0  0
 10  4  1  0  0  0  0
 10  8  1  0  0  0  0
 11 10  1  0  0  0  0
 12  3  1  0  0  0  0
 13 12  1  0  0  0  0
 13 14  1  6  0  0  0
 14 15  1  1  0  0  0
 16 14  1  0  0  0  0
 16 19  1  0  0  0  0
 17 16  1  0  0  0  0
 18 16  1  0  0  0  0
 19  1  2  0  0  0  0
 20 23  1  0  0  0  0
 20 21  1  0  0  0  0
 22 20  1  0  0  0  0
 24 25  1  0  0  0  0
 24 19  1  0  0  0  0
 26 24  1  0  0  0  0
 27 24  1  0  0  0  0
 28 31  1  0  0  0  0
 28 30  1  0  0  0  0
 29 28  1  0  0  0  0
M  END
