7,15
q = -1.0, confidence = 0.334

 47 48  0  0  1  0  0  0  0  0999 V2000
    3.0365    0.5759   -0.4728 S   0  0  0  0  0  0  0  0  0  0  0  0
    2.7599    1.1256    1.1147 O   0  0  0  0  0  0  0  0  0  0  0  0
    1.9385   -0.3644   -0.7936 O   0  0  0  0  0  1  0  0  0  0  0  0
    3.2359    1.7857   -1.3024 O   0  0  0  0  0  1  0  0  0  0  0  0
   -0.4866    2.4062    0.0676 N   0  3  0  0  0  0  0  0  0  0  0  0
   -2.0258    0.3466   -0.0403 C   0  0  2  0  0  3  0  0  0  0  0  0
   -2.3040   -0.1846   -1.3455 C   0  0  0  0  0  3  0  0  0  0  0  0
   -2.3956    0.4992   -2.2022 H   0  0  0  0  0  0  0  0  0  0  0  0
   -2.5028   -1.5765   -1.5480 C   0  0  0  0  0  0  0  0  0  0  0  0
   -2.7509   -1.9567   -2.5476 H   0  0  0  0  0  0  0  0  0  0  0  0
   -2.4967   -2.4506   -0.4257 C   0  0  0  0  0  0  0  0  0  0  0  0
   -2.7335   -3.5149   -0.5659 H   0  0  0  0  0  0  0  0  0  0  0  0
   -2.2114   -1.9608    0.8789 C   0  0  0  0  0  3  0  0  0  0  0  0
   -2.2372   -2.6356    1.7444 H   0  0  0  0  0  0  0  0  0  0  0  0
   -2.0144   -0.5664    1.0689 C   0  0  0  0  0  3  0  0  0  0  0  0
   -1.8822   -0.1786    2.0901 H   0  0  0  0  0  0  0  0  0  0  0  0
   -1.9253    1.8213    0.1809 C   0  0  0  0  0  0  0  0  0  0  0  0
   -2.2781    2.1014    1.1918 H   0  0  0  0  0  0  0  0  0  0  0  0
   -2.5213    2.3817   -0.5644 H   0  0  0  0  0  0  0  0  0  0  0  0
    0.3792    1.7476    1.1280 C   0  0  0  0  0  0  0  0  0  0  0  0
    0.3700    0.6629    0.9138 H   0  0  0  0  0  0  0  0  0  0  0  0
   -0.1490    1.9188    2.0855 H   0  0  0  0  0  0  0  0  0  0  0  0
    1.8488    2.2163    1.2112 C   0  0  0  0  0  0  0  0  0  0  0  0
    2.0980    2.9871    0.4480 H   0  0  0  0  0  0  0  0  0  0  0  0
    2.0499    2.6639    2.2033 H   0  0  0  0  0  0  0  0  0  0  0  0
   -0.5791    3.8821    0.3162 C   0  0  0  0  0  0  0  0  0  0  0  0
   -0.9762    4.0557    1.3328 H   0  0  0  0  0  0  0  0  0  0  0  0
   -1.2586    4.3293   -0.4314 H   0  0  0  0  0  0  0  0  0  0  0  0
    0.4225    4.3357    0.2173 H   0  0  0  0  0  0  0  0  0  0  0  0
    0.0402    2.1581   -1.3180 C   0  0  0  0  0  0  0  0  0  0  0  0
    1.0446    2.6038   -1.4252 H   0  0  0  0  0  0  0  0  0  0  0  0
   -0.6599    2.6137   -2.0409 H   0  0  0  0  0  0  0  0  0  0  0  0
    0.1295    1.0697   -1.4768 H   0  0  0  0  0  0  0  0  0  0  0  0
    4.5496   -0.2855   -0.2087 C   0  0  0  0  0  0  0  0  0  0  0  0
    4.5073   -1.6590    0.0776 C   0  0  0  0  0  0  0  0  0  0  0  0
    3.5440   -2.1863    0.1196 H   0  0  0  0  0  0  0  0  0  0  0  0
    5.7166   -2.3287    0.2934 C   0  0  0  0  0  0  0  0  0  0  0  0
    5.7023   -3.4059    0.5179 H   0  0  0  0  0  0  0  0  0  0  0  0
    6.9539   -1.6511    0.2255 C   0  0  0  0  0  0  0  0  0  0  0  0
    6.9510   -0.2673   -0.0678 C   0  0  0  0  0  0  0  0  0  0  0  0
    7.9072    0.2747   -0.1280 H   0  0  0  0  0  0  0  0  0  0  0  0
    5.7588    0.4269   -0.2876 C   0  0  0  0  0  0  0  0  0  0  0  0
    5.7570    1.4995   -0.5273 H   0  0  0  0  0  0  0  0  0  0  0  0
    8.2506   -2.3838    0.4303 C   0  0  0  0  0  0  0  0  0  0  0  0
    8.7343   -2.5930   -0.5479 H   0  0  0  0  0  0  0  0  0  0  0  0
    8.1007   -3.3537    0.9407 H   0  0  0  0  0  0  0  0  0  0  0  0
    8.9686   -1.7807    1.0201 H   0  0  0  0  0  0  0  0  0  0  0  0
  1 34  1  0  0  0  0
  1  2  1  0  0  0  0
  2 23  1  0  0  0  0
  3  1  1  0  0  0  0
  4  1  1  0  0  0  0
  5 17  1  0  0  0  0
  5 26  1  0  0  0  0
  5 20  1  0  0  0  0
  6 17  1  1  0  0  0
  6 15  1  0  0  0  0
  7  6  1  0  0  0  0
  8  7  1  0  0  0  0
  9  7  1  0  0  0  0
  9 11  2  0  0  0  0
 10  9  1  0  0  0  0
 11 13  1  0  0  0  0
 12 11  1  0  0  0  0
 13 15  1  0  0  0  0
 13 14  1  0  0  0  0
 15 16  1  0  0  0  0
 17 18  1  0  0  0  0
 19 17  1  0  0  0  0
 20 23  1  0  0  0  0
 20 22  1  0  0  0  0
 21 20  1  0  0  0  0
 23 25  1  0  0  0  0
 24 23  1  0  0  0  0
 26 27  1  0  0  0  0
 28 26  1  0  0  0  0
 29 26  1  0  0  0  0
 30  5  1  0  0  0  0
 31 30  1  0  0  0  0
 32 30  1  0  0  0  0
 33 30  1  0  0  0  0
 34 35  1  0  0  0  0
 35 36  1  0  0  0  0
 35 37  2  0  0  0  0
 37 38  1  0  0  0  0
 39 37  1  0  0  0  0
 39 44  1  0  0  0  0
 40 39  2  0  0  0  0
 41 40  1  0  0  0  0
 42 34  2  0  0  0  0
 42 40  1  0  0  0  0
 43 42  1  0  0  0  0
 44 46  1  0  0  0  0
 44 47  1  0  0  0  0
 45 44  1  0  0  0  0
M  CHG  1   5   1
M  END
