7,10
q = 0.0, confidence = 0.986

 62 65  0  0  0  0  0  0  0  0999 V2000
    0.3640    0.7829   -0.6212 C   0  0  0  0  0  0  0  0  0  0  0  0
    1.6132    1.4476   -0.4606 C   0  0  0  0  0  0  0  0  0  0  0  0
    2.8284    0.7738   -0.4405 C   0  0  0  0  0  0  0  0  0  0  0  0
    2.8285   -0.6648   -0.5874 C   0  0  0  0  0  0  0  0  0  0  0  0
    1.6180   -1.3233   -0.7637 C   0  0  0  0  0  0  0  0  0  0  0  0
    0.3646   -0.6459   -0.7831 C   0  0  0  0  0  0  0  0  0  0  0  0
   -0.9014   -1.3304   -0.8357 C   0  0  0  0  0  3  0  0  0  0  0  0
   -2.1458   -0.6476   -0.8442 C   0  0  0  0  0  0  0  0  0  0  0  0
   -2.1484    0.7970   -0.7317 C   0  0  0  0  0  0  0  0  0  0  0  0
   -0.9077    1.4557   -0.5379 C   0  0  0  0  0  3  0  0  0  0  0  0
    4.1065   -1.5054   -0.4364 C   0  0  0  0  0  0  0  0  0  0  0  0
    5.3591   -0.6253   -0.6349 C   0  0  0  0  0  0  0  0  0  0  0  0
    5.2894    0.6804    0.1442 C   0  0  0  0  0  0  0  0  0  0  0  0
    4.1259    1.5889   -0.3092 C   0  0  0  0  0  0  0  0  0  0  0  0
    4.1613   -2.6536   -1.4630 C   0  0  0  0  0  0  0  0  0  0  0  0
    4.0998   -2.1079    0.9906 C   0  0  0  0  0  0  0  0  0  0  0  0
    3.9779    2.7234    0.7251 C   0  0  0  0  0  0  0  0  0  0  0  0
    4.4467    2.2092   -1.6901 C   0  0  0  0  0  0  0  0  0  0  0  0
   -3.4385   -1.4493   -1.0486 C   0  0  0  0  0  0  0  0  0  0  0  0
   -4.6525   -0.5934   -0.6258 C   0  0  0  0  0  0  0  0  0  0  0  0
   -4.6335    0.7941   -1.2524 C   0  0  0  0  0  0  0  0  0  0  0  0
   -3.4275    1.6546   -0.8063 C   0  0  0  0  0  0  0  0  0  0  0  0
   -3.2231    2.7638   -1.8632 C   0  0  0  0  0  0  0  0  0  0  0  0
   -3.7295    2.3147    0.5558 C   0  0  0  0  0  0  0  0  0  0  0  0
   -3.4551   -2.7552   -0.2326 C   0  0  0  0  0  0  0  0  0  0  0  0
   -3.5210   -1.8053   -2.5529 C   0  0  0  0  0  0  0  0  0  0  0  0
    1.5898    2.5409   -0.3462 H   0  0  0  0  0  0  0  0  0  0  0  0
    1.5993   -2.4185   -0.8599 H   0  0  0  0  0  0  0  0  0  0  0  0
   -0.8880   -2.4269   -0.8928 H   0  0  0  0  0  0  0  0  0  0  0  0
   -0.8970    2.5421   -0.3726 H   0  0  0  0  0  0  0  0  0  0  0  0
    6.2545   -1.2094   -0.3351 H   0  0  0  0  0  0  0  0  0  0  0  0
    5.4824   -0.4114   -1.7185 H   0  0  0  0  0  0  0  0  0  0  0  0
    6.2400    1.2454    0.0437 H   0  0  0  0  0  0  0  0  0  0  0  0
    5.1756    0.4644    1.2280 H   0  0  0  0  0  0  0  0  0  0  0  0
    5.1354   -3.1783   -1.3842 H   0  0  0  0  0  0  0  0  0  0  0  0
    4.0597   -2.2714   -2.4987 H   0  0  0  0  0  0  0  0  0  0  0  0
    3.3714   -3.4120   -1.2961 H   0  0  0  0  0  0  0  0  0  0  0  0
    4.9984   -2.7404    1.1474 H   0  0  0  0  0  0  0  0  0  0  0  0
    3.1981   -2.7306    1.1540 H   0  0  0  0  0  0  0  0  0  0  0  0
    4.0891   -1.3208    1.7698 H   0  0  0  0  0  0  0  0  0  0  0  0
    3.2760    3.5136    0.3933 H   0  0  0  0  0  0  0  0  0  0  0  0
    4.9607    3.2111    0.8882 H   0  0  0  0  0  0  0  0  0  0  0  0
    3.6179    2.3345    1.6987 H   0  0  0  0  0  0  0  0  0  0  0  0
    4.5855    1.4339   -2.4693 H   0  0  0  0  0  0  0  0  0  0  0  0
    5.3745    2.8161   -1.6359 H   0  0  0  0  0  0  0  0  0  0  0  0
    3.6213    2.8687   -2.0250 H   0  0  0  0  0  0  0  0  0  0  0  0
   -5.5796   -1.1318   -0.9140 H   0  0  0  0  0  0  0  0  0  0  0  0
   -4.6710   -0.5154    0.4806 H   0  0  0  0  0  0  0  0  0  0  0  0
   -5.5650    1.3449   -1.0063 H   0  0  0  0  0  0  0  0  0  0  0  0
   -4.6228    0.6991   -2.3589 H   0  0  0  0  0  0  0  0  0  0  0  0
   -2.4683    3.5112   -1.5483 H   0  0  0  0  0  0  0  0  0  0  0  0
   -4.1772    3.3055   -2.0256 H   0  0  0  0  0  0  0  0  0  0  0  0
   -2.9004    2.3387   -2.8353 H   0  0  0  0  0  0  0  0  0  0  0  0
   -2.8502    2.8620    0.9486 H   0  0  0  0  0  0  0  0  0  0  0  0
   -4.0193    1.5680    1.3178 H   0  0  0  0  0  0  0  0  0  0  0  0
   -4.5631    3.0384    0.4442 H   0  0  0  0  0  0  0  0  0  0  0  0
   -4.4234   -3.2725   -0.3896 H   0  0  0  0  0  0  0  0  0  0  0  0
   -3.3418   -2.5564    0.8496 H   0  0  0  0  0  0  0  0  0  0  0  0
   -2.6583   -3.4603   -0.5412 H   0  0  0  0  0  0  0  0  0  0  0  0
   -4.4622   -2.3519   -2.7676 H   0  0  0  0  0  0  0  0  0  0  0  0
   -2.6723   -2.4537   -2.8492 H   0  0  0  0  0  0  0  0  0  0  0  0
   -3.4889   -0.9060   -3.1988 H   0  0  0  0  0  0  0  0  0  0  0  0
  1 10  1  0  0  0  0
  1  2  1  0  0  0  0
  2  3  2  0  0  0  0
  2 27  1  0  0  0  0
  3 14  1  0  0  0  0
  4  3  1  0  0  0  0
  4 11  1  0  0  0  0
  5  4  2  0  0  0  0
  6  5  1  0  0  0  0
  6  1  2  0  0  0  0
  7  6  1  0  0  0  0
  8  7  1  0  0  0  0
  8  9  2  0  0  0  0
  9 10  1  0  0  0  0
 10 30  1  0  0  0  0
 11 16  1  0  0  0  0
 12 11  1  0  0  0  0
 12 31  1  0  0  0  0
 12 13  1  0  0  0  0
 13 34  1  0  0  0  0
 14 13  1  0  0  0  0
 14 17  1  0  0  0  0
 15 35  1  0  0  0  0
 15 37  1  0  0  0  0
 15 11  1  0  0  0  0
 16 38  1  0  0  0  0
 16 39  1  0  0  0  0
 16 40  1  0  0  0  0
 17 42  1  0  0  0  0
 17 43  1  0  0  0  0
 18 45  1  0  0  0  0
 18 14  1  0  0  0  0
 19  8  1  0  0  0  0
 19 20  1  0  0  0  0
 19 25  1  0  0  0  0
 20 48  1  0  0  0  0
 21 49  1  0  0  0  0
 21 22  1  0  0  0  0
 21 20  1  0  0  0  0
 22  9  1  0  0  0  0
 22 24  1  0  0  0  0
 23 51  1  0  0  0  0
 23 22  1  0  0  0  0
 24 54  1  0  0  0  0
 24 55  1  0  0  0  0
 25 58  1  0  0  0  0
 26 19  1  0  0  0  0
 28  5  1  0  0  0  0
 29  7  1  0  0  0  0
 32 12  1  0  0  0  0
 33 13  1  0  0  0  0
 36 15  1  0  0  0  0
 41 17  1  0  0  0  0
 44 18  1  0  0  0  0
 46 18  1  0  0  0  0
 47 20  1  0  0  0  0
 50 21  1  0  0  0  0
 52 23  1  0  0  0  0
 53 23  1  0  0  0  0
 56 24  1  0  0  0  0
 57 25  1  0  0  0  0
 59 25  1  0  0  0  0
 60 26  1  0  0  0  0
 61 26  1  0  0  0  0
 62 26  1  0  0  0  0
M  END
