7,10
q = 0.0, confidence = 0.992

 35 36  0  0  1  0  0  0  0  0999 V2000
    3.2361   -0.4289    0.1811 Si  0  0  0  0  0  0  0  0  0  0  0  0
    1.5474   -0.0345   -0.7394 C   0  0  2  0  0  0  0  0  0  0  0  0
    1.5192    1.4578   -0.9276 C   0  0  0  0  0  0  0  0  0  0  0  0
    0.6268    2.0805   -0.1011 C   0  0  0  0  0  0  0  0  0  0  0  0
   -0.0489    1.0396    0.6879 C   0  0  0  0  0  0  0  0  0  0  0  0
   -1.0669    1.1422    1.6800 C   0  0  0  0  0  3  0  0  0  0  0  0
   -1.5717   -0.0595    2.2540 C   0  0  0  0  0  3  0  0  0  0  0  0
   -1.0743   -1.3372    1.8597 C   0  0  0  0  0  3  0  0  0  0  0  0
    0.4583   -0.2403    0.2749 C   0  0  0  0  0  0  0  0  0  0  0  0
   -0.0956   -1.4271    0.8272 C   0  0  0  0  0  3  0  0  0  0  0  0
    3.3882   -2.2980    0.4369 C   0  0  0  0  0  0  0  0  0  0  0  0
    4.6627    0.1784   -0.9028 C   0  0  0  0  0  0  0  0  0  0  0  0
    3.2485    0.4550    1.8491 C   0  0  0  0  0  0  0  0  0  0  0  0
    1.4177   -0.8565   -2.0314 C   0  0  0  0  0  0  0  0  0  0  0  0
    0.3069    3.5362    0.0021 C   0  0  0  0  0  0  0  0  0  0  0  0
    2.1550    1.9734   -1.6624 H   0  0  0  0  0  0  0  0  0  0  0  0
   -1.4830    2.1169    1.9666 H   0  0  0  0  0  0  0  0  0  0  0  0
   -2.3826   -0.0046    2.9941 H   0  0  0  0  0  0  0  0  0  0  0  0
   -1.5141   -2.2500    2.2824 H   0  0  0  0  0  0  0  0  0  0  0  0
    0.2288   -2.4140    0.4680 H   0  0  0  0  0  0  0  0  0  0  0  0
    3.3341   -2.8541   -0.5207 H   0  0  0  0  0  0  0  0  0  0  0  0
    2.5978   -2.6856    1.1104 H   0  0  0  0  0  0  0  0  0  0  0  0
    4.3677   -2.5307    0.9041 H   0  0  0  0  0  0  0  0  0  0  0  0
    4.6444   -0.2897   -1.9080 H   0  0  0  0  0  0  0  0  0  0  0  0
    5.6341   -0.0789   -0.4319 H   0  0  0  0  0  0  0  0  0  0  0  0
    4.6325    1.2788   -1.0336 H   0  0  0  0  0  0  0  0  0  0  0  0
    3.1004    1.5462    1.7237 H   0  0  0  0  0  0  0  0  0  0  0  0
    4.2199    0.2961    2.3609 H   0  0  0  0  0  0  0  0  0  0  0  0
    2.4458    0.0731    2.5113 H   0  0  0  0  0  0  0  0  0  0  0  0
    1.3955   -1.9443   -1.8223 H   0  0  0  0  0  0  0  0  0  0  0  0
    2.2627   -0.6634   -2.7225 H   0  0  0  0  0  0  0  0  0  0  0  0
    0.4728   -0.5953   -2.5500 H   0  0  0  0  0  0  0  0  0  0  0  0
   -0.7461    3.7244   -0.2983 H   0  0  0  0  0  0  0  0  0  0  0  0
    0.9605    4.1426   -0.6531 H   0  0  0  0  0  0  0  0  0  0  0  0
    0.4190    3.9086    1.0425 H   0  0  0  0  0  0  0  0  0  0  0  0
  1 11  1  0  0  0  0
  1 13  1  0  0  0  0
  2 14  1  6  0  0  0
  2  1  1  0  0  0  0
  2  9  1  0  0  0  0
  3  2  1  0  0  0  0
  3  4  2  0  0  0  0
  4 15  1  0  0  0  0
  4  5  1  0  0  0  0
  5  6  1  0  0  0  0
  6 17  1  0  0  0  0
  6  7  1  0  0  0  0
  7 18  1  0  0  0  0
  8  7  1  0  0  0  0
  8 19  1  0  0  0  0
  9  5  2  0  0  0  0
  9 10  1  0  0  0  0
 10  8  1  0  0  0  0
 11 23  1  0  0  0  0
 11 22  1  0  0  0  0
 12 25  1  0  0  0  0
 12  1  1  0  0  0  0
 13 28  1  0  0  0  0
 13 29  1  0  0  0  0
 14 30  1  0  0  0  0
 15 35  1  0  0  0  0
 16  3  1  0  0  0  0
 20 10  1  0  0  0  0
 21 11  1  0  0  0  0
 24 12  1  0  0  0  0
 26 12  1  0  0  0  0
 27 13  1  0  0  0  0
 31 14  1  0  0  0  0
 32 14  1  0  0  0  0
 33 15  1  0  0  0  0
 34 15  1  0  0  0  0
M  END
