5,11
q = 0.0, confidence = 0.996

 47 51  0  0  1  0  0  0  0  0999 V2000
   -0.9654   -2.1840    1.9632 O   0  0  0  0  0  0  0  0  0  0  0  0
   -1.6241   -1.9090    2.6293 H   0  0  0  0  0  0  0  0  0  0  0  0
   -5.4638   -0.2834   -0.9546 O   0  0  0  0  0  0  0  0  0  0  0  0
    1.8447   -0.6283    1.4770 C   0  0  0  0  0  0  0  0  0  0  0  0
    3.2285   -0.4138    1.8019 C   0  0  0  0  0  3  0  0  0  0  0  0
    3.4749    0.1944    2.6842 H   0  0  0  0  0  0  0  0  0  0  0  0
    4.2658   -0.9109    0.9836 C   0  0  0  0  0  0  0  0  0  0  0  0
    5.3145   -0.6923    1.2263 H   0  0  0  0  0  0  0  0  0  0  0  0
    3.9351   -1.6261   -0.2084 C   0  0  0  0  0  0  0  0  0  0  0  0
    4.7277   -1.9654   -0.8890 H   0  0  0  0  0  0  0  0  0  0  0  0
    2.5781   -1.8523   -0.5345 C   0  0  0  0  0  3  0  0  0  0  0  0
    2.3321   -2.3653   -1.4738 H   0  0  0  0  0  0  0  0  0  0  0  0
    1.5137   -1.3806    0.3087 C   0  0  0  0  0  0  0  0  0  0  0  0
    0.0708   -1.6125   -0.1218 C   0  0  2  0  0  0  0  0  0  0  0  0
   -0.1085   -0.9641   -1.0066 H   0  0  0  0  0  0  0  0  0  0  0  0
   -0.9626   -1.1574    0.9456 C   0  0  2  0  0  0  0  0  0  0  0  0
   -0.5362    0.1671    1.5884 C   0  0  0  0  0  0  0  0  0  0  0  0
   -1.3387    0.5367    2.2600 H   0  0  0  0  0  0  0  0  0  0  0  0
   -0.4000    0.9427    0.8123 H   0  0  0  0  0  0  0  0  0  0  0  0
    0.7705   -0.0351    2.3531 C   0  0  0  0  0  0  0  0  0  0  0  0
    1.1257    0.9276    2.7708 H   0  0  0  0  0  0  0  0  0  0  0  0
    0.6039   -0.7239    3.2083 H   0  0  0  0  0  0  0  0  0  0  0  0
   -0.2523   -3.0578   -0.5556 C   0  0  0  0  0  0  0  0  0  0  0  0
    0.4778   -3.4033   -1.3144 H   0  0  0  0  0  0  0  0  0  0  0  0
   -0.1536   -3.7261    0.3229 H   0  0  0  0  0  0  0  0  0  0  0  0
   -1.6667   -3.1433   -1.1476 C   0  0  0  0  0  0  0  0  0  0  0  0
   -1.9127   -4.1938   -1.4080 H   0  0  0  0  0  0  0  0  0  0  0  0
   -1.6972   -2.5611   -2.0954 H   0  0  0  0  0  0  0  0  0  0  0  0
   -2.7503   -2.5716   -0.2039 C   0  0  2  0  0  0  0  0  0  0  0  0
   -2.8096   -3.2380    0.6821 H   0  0  0  0  0  0  0  0  0  0  0  0
   -4.1294   -2.3476   -0.8371 C   0  0  0  0  0  0  0  0  0  0  0  0
   -4.1495   -2.5912   -1.9204 H   0  0  0  0  0  0  0  0  0  0  0  0
   -4.9421   -2.9377   -0.3687 H   0  0  0  0  0  0  0  0  0  0  0  0
   -4.4193   -0.8489   -0.6780 C   0  0  0  0  0  0  0  0  0  0  0  0
   -3.1895   -0.2061   -0.0983 C   0  0  0  0  0  0  0  0  0  0  0  0
   -2.3094   -1.1896    0.2524 C   0  0  0  0  0  0  0  0  0  0  0  0
   -3.0819    1.2638   -0.0170 C   0  0  0  0  0  0  0  0  0  0  0  0
   -2.0519    1.9485   -0.7012 C   0  0  0  0  0  0  0  0  0  0  0  0
   -1.3245    1.3829   -1.3035 H   0  0  0  0  0  0  0  0  0  0  0  0
   -1.9586    3.3452   -0.6375 C   0  0  0  0  0  0  0  0  0  0  0  0
   -1.1416    3.8587   -1.1665 H   0  0  0  0  0  0  0  0  0  0  0  0
   -2.9041    4.0811    0.0950 C   0  0  0  0  0  0  0  0  0  0  0  0
   -2.8298    5.1779    0.1479 H   0  0  0  0  0  0  0  0  0  0  0  0
   -3.9535    3.4132    0.7462 C   0  0  0  0  0  0  0  0  0  0  0  0
   -4.7078    3.9865    1.3064 H   0  0  0  0  0  0  0  0  0  0  0  0
   -4.0497    2.0155    0.6837 C   0  0  0  0  0  0  0  0  0  0  0  0
   -4.8787    1.4940    1.1829 H   0  0  0  0  0  0  0  0  0  0  0  0
  1  2  1  0  0  0  0
  3 34  2  0  0  0  0
  4  5  1  0  0  0  0
  4 20  1  0  0  0  0
  5  6  1  0  0  0  0
  7  8  1  0  0  0  0
  7  5  1  0  0  0  0
  9  7  2  0  0  0  0
 10  9  1  0  0  0  0
 11  9  1  0  0  0  0
 11 13  1  0  0  0  0
 12 11  1  0  0  0  0
 13  4  2  0  0  0  0
 14 15  1  6  0  0  0
 14 13  1  0  0  0  0
 14 16  1  0  0  0  0
 16 17  1  0  0  0  0
 16  1  1  1  0  0  0
 17 18  1  0  0  0  0
 17 20  1  0  0  0  0
 19 17  1  0  0  0  0
 20 21  1  0  0  0  0
 20 22  1  0  0  0  0
 23 14  1  0  0  0  0
 23 25  1  0  0  0  0
 24 23  1  0  0  0  0
 26 23  1  0  0  0  0
 26 29  1  0  0  0  0
 27 26  1  0  0  0  0
 28 26  1  0  0  0  0
 29 36  1  0  0  0  0
 29 30  1  1  0  0  0
 31 34  1  0  0  0  0
 31 33  1  0  0  0  0
 31 29  1  0  0  0  0
 32 31  1  0  0  0  0
 34 35  1  0  0  0  0
 35 37  1  0  0  0  0
 35 36  2  0  0  0  0
 36 16  1  0  0  0  0
 37 46  1  0  0  0  0
 38 40  1  0  0  0  0
 38 37  2  0  0  0  0
 39 38  1  0  0  0  0
 40 42  2  0  0  0  0
 41 40  1  0  0  0  0
 42 43  1  0  0  0  0
 42 44  1  0  0  0  0
 44 45  1  0  0  0  0
 46 44  2  0  0  0  0
 46 47  1  0  0  0  0
M  END
