5,7
q = 0.0, confidence = 1.0

 30 31  0  0  1  0  0  0  0  0999 V2000
   -0.7363   -1.6055    1.1777 O   0  0  0  0  0  0  0  0  0  0  0  0
   -2.9291   -1.2756   -0.7743 O   0  0  0  0  0  0  0  0  0  0  0  0
   -0.0025   -1.3059    0.0872 C   0  0  0  0  0  0  0  0  0  0  0  0
    1.1612   -2.0255   -0.3092 C   0  0  0  0  0  0  0  0  0  0  0  0
    1.8836   -1.6196   -1.4714 C   0  0  0  0  0  3  0  0  0  0  0  0
    1.4461   -0.5224   -2.2540 C   0  0  0  0  0  3  0  0  0  0  0  0
    0.3124    0.2201   -1.8165 C   0  0  0  0  0  3  0  0  0  0  0  0
   -0.4330   -0.1506   -0.6590 C   0  0  1  0  0  3  0  0  0  0  0  0
   -0.2253   -2.5465    2.1108 C   0  0  0  0  0  0  0  0  0  0  0  0
   -0.1578   -3.5663    1.6729 H   0  0  0  0  0  0  0  0  0  0  0  0
   -0.9412   -2.5627    2.9523 H   0  0  0  0  0  0  0  0  0  0  0  0
    0.7725   -2.2353    2.4877 H   0  0  0  0  0  0  0  0  0  0  0  0
   -1.6344    0.6214   -0.2426 C   0  0  0  0  0  0  0  0  0  0  0  0
   -2.9137    0.0058   -0.3141 C   0  0  0  0  0  0  0  0  0  0  0  0
   -4.0634    0.7261    0.0628 C   0  0  0  0  0  0  0  0  0  0  0  0
   -5.0552    0.2572    0.0181 H   0  0  0  0  0  0  0  0  0  0  0  0
   -3.9451    2.0589    0.4900 C   0  0  0  0  0  0  0  0  0  0  0  0
   -4.8517    2.6108    0.7818 H   0  0  0  0  0  0  0  0  0  0  0  0
   -2.6916    2.6810    0.5475 C   0  0  0  0  0  0  0  0  0  0  0  0
   -2.5989    3.7228    0.8869 H   0  0  0  0  0  0  0  0  0  0  0  0
   -1.5455    1.9560    0.1846 C   0  0  0  0  0  0  0  0  0  0  0  0
   -0.5484    2.4159    0.2484 H   0  0  0  0  0  0  0  0  0  0  0  0
   -4.1581   -1.9731   -0.7957 C   0  0  0  0  0  0  0  0  0  0  0  0
   -4.6072   -2.0506    0.2198 H   0  0  0  0  0  0  0  0  0  0  0  0
   -3.9345   -2.9895   -1.1697 H   0  0  0  0  0  0  0  0  0  0  0  0
   -4.8978   -1.4943   -1.4764 H   0  0  0  0  0  0  0  0  0  0  0  0
    1.5331   -2.8639    0.2907 H   0  0  0  0  0  0  0  0  0  0  0  0
    2.7978   -2.1631   -1.7489 H   0  0  0  0  0  0  0  0  0  0  0  0
    2.0193   -0.1968   -3.1315 H   0  0  0  0  0  0  0  0  0  0  0  0
   -0.0088    1.1125   -2.3721 H   0  0  0  0  0  0  0  0  0  0  0  0
  1  9  1  0  0  0  0
  2 14  1  0  0  0  0
  3  1  1  0  0  0  0
  4  3  2  0  0  0  0
  4 27  1  0  0  0  0
  5  4  1  0  0  0  0
  6  7  1  0  0  0  0
  6  5  1  0  0  0  0
  7  8  1  0  0  0  0
  8 13  1  6  0  0  0
  8  3  1  0  0  0  0
  9 12  1  0  0  0  0
  9 11  1  0  0  0  0
 10  9  1  0  0  0  0
 13 21  1  0  0  0  0
 14 13  2  0  0  0  0
 14 15  1  0  0  0  0
 15 17  2  0  0  0  0
 16 15  1  0  0  0  0
 17 19  1  0  0  0  0
 17 18  1  0  0  0  0
 19 20  1  0  0  0  0
 21 22  1  0  0  0  0
 21 19  2  0  0  0  0
 23  2  1  0  0  0  0
 23 24  1  0  0  0  0
 25 23  1  0  0  0  0
 26 23  1  0  0  0  0
 28  5  1  0  0  0  0
 29  6  1  0  0  0  0
 30  7  1  0  0  0  0
M  END
