6,8
q = 0.0, confidence = 0.998

 23 23  0  0  1  0  0  0  0  0999 V2000
    1.2895   -1.1285    0.5946 C   0  0  0  0  0  0  0  0  0  0  0  0
    2.4094   -1.7472    0.0953 N   0  0  0  0  0  0  0  0  0  0  0  0
    3.7265   -1.2723    0.4925 C   0  0  0  0  0  0  0  0  0  0  0  0
    2.3140   -2.5069   -1.1428 C   0  0  0  0  0  0  0  0  0  0  0  0
   -0.0060   -1.3547    0.0145 C   0  0  0  0  0  3  0  0  0  0  0  0
   -1.1679   -0.7411    0.5670 C   0  0  2  0  0  3  0  0  0  0  0  0
   -1.0892    0.1222    1.6964 C   0  0  0  0  0  3  0  0  0  0  0  0
    0.2017    0.4394    2.1903 C   0  0  0  0  0  3  0  0  0  0  0  0
    1.3765   -0.1503    1.6471 C   0  0  0  0  0  0  0  0  0  0  0  0
   -2.5224   -1.1081   -0.0015 C   0  0  0  0  0  0  0  0  0  0  0  0
   -2.4549   -1.4098   -1.3169 F   0  0  0  0  0  0  0  0  0  0  0  0
   -3.0093   -2.2028    0.6375 F   0  0  0  0  0  0  0  0  0  0  0  0
   -3.4219   -0.1158    0.1576 F   0  0  0  0  0  0  0  0  0  0  0  0
   -0.1269   -1.9830   -0.8726 H   0  0  0  0  0  0  0  0  0  0  0  0
   -1.9902    0.6028    2.0960 H   0  0  0  0  0  0  0  0  0  0  0  0
    0.3067    1.1797    2.9958 H   0  0  0  0  0  0  0  0  0  0  0  0
    2.3489    0.1590    2.0423 H   0  0  0  0  0  0  0  0  0  0  0  0
    3.8388   -1.2865    1.5948 H   0  0  0  0  0  0  0  0  0  0  0  0
    4.4927   -1.9497    0.0742 H   0  0  0  0  0  0  0  0  0  0  0  0
    3.9343   -0.2412    0.1261 H   0  0  0  0  0  0  0  0  0  0  0  0
    1.5335   -3.2898   -1.0692 H   0  0  0  0  0  0  0  0  0  0  0  0
    3.2771   -3.0164   -1.3258 H   0  0  0  0  0  0  0  0  0  0  0  0
    2.0880   -1.8603   -2.0211 H   0  0  0  0  0  0  0  0  0  0  0  0
  1  9  2  0  0  0  0
  2  3  1  0  0  0  0
  2  1  1  0  0  0  0
  3 18  1  0  0  0  0
  4 21  1  0  0  0  0
  4  2  1  0  0  0  0
  5  6  1  0  0  0  0
  5  1  1  0  0  0  0
  6 10  1  1  0  0  0
  6  7  1  0  0  0  0
  7 15  1  0  0  0  0
  7  8  1  0  0  0  0
  8 16  1  0  0  0  0
  9 17  1  0  0  0  0
  9  8  1  0  0  0  0
 10 13  1  0  0  0  0
 10 12  1  0  0  0  0
 11 10  1  0  0  0  0
 14  5  1  0  0  0  0
 19  3  1  0  0  0  0
 20  3  1  0  0  0  0
 22  4  1  0  0  0  0
 23  4  1  0  0  0  0
M  END
