10,31
q = -2.0, confidence = 0.908

 48 50  0  0  1  0  0  0  0  0999 V2000
    0.4569    2.4775   -0.4398 Si  0  0  0  0  0  0  0  0  0  0  0  0
    0.0623    3.7729    0.8775 C   0  0  0  0  0  0  0  0  0  0  0  0
   -0.7080    4.4651    0.4794 H   0  0  0  0  0  0  0  0  0  0  0  0
    0.9709    4.3692    1.1015 H   0  0  0  0  0  0  0  0  0  0  0  0
   -0.3099    3.3548    1.8295 H   0  0  0  0  0  0  0  0  0  0  0  0
    1.0044    3.4253   -1.9845 C   0  0  0  0  0  0  0  0  0  0  0  0
    0.9246    2.8304   -2.9146 H   0  0  0  0  0  0  0  0  0  0  0  0
    2.0518    3.7769   -1.8873 H   0  0  0  0  0  0  0  0  0  0  0  0
    0.3535    4.3155   -2.1065 H   0  0  0  0  0  0  0  0  0  0  0  0
    1.6710    1.1313    0.1324 C   0  0  1  0  0  3  0  0  0  0  0  0
    1.6784    0.5488    1.4561 C   0  0  0  0  0  0  0  0  0  0  0  0
    2.2741   -0.7525    1.3820 C   0  0  0  0  0  0  0  0  0  0  0  0
    2.6423   -0.9941    0.0186 C   0  0  0  0  0  0  0  0  0  0  0  0
    2.2661    0.1521   -0.7523 C   0  0  0  0  0  0  0  0  0  0  0  0
    1.1994    1.1999    2.7262 C   0  0  0  0  0  0  0  0  0  0  0  0
    1.4224    0.5649    3.6036 H   0  0  0  0  0  0  0  0  0  0  0  0
    0.1063    1.3831    2.7330 H   0  0  0  0  0  0  0  0  0  0  0  0
    1.7017    2.1758    2.8832 H   0  0  0  0  0  0  0  0  0  0  0  0
    2.5765   -1.6683    2.5301 C   0  0  0  0  0  0  0  0  0  0  0  0
    2.5130   -2.7325    2.2282 H   0  0  0  0  0  0  0  0  0  0  0  0
    1.8764   -1.5251    3.3744 H   0  0  0  0  0  0  0  0  0  0  0  0
    3.6059   -1.4987    2.9141 H   0  0  0  0  0  0  0  0  0  0  0  0
    3.4505   -2.1506   -0.4846 C   0  0  0  0  0  0  0  0  0  0  0  0
    3.2027   -2.4074   -1.5324 H   0  0  0  0  0  0  0  0  0  0  0  0
    3.2970   -3.0609    0.1268 H   0  0  0  0  0  0  0  0  0  0  0  0
    4.5362   -1.9117   -0.4497 H   0  0  0  0  0  0  0  0  0  0  0  0
    2.5827    0.2877   -2.2173 C   0  0  0  0  0  0  0  0  0  0  0  0
    3.6800    0.3811   -2.3683 H   0  0  0  0  0  0  0  0  0  0  0  0
    2.1187    1.1807   -2.6688 H   0  0  0  0  0  0  0  0  0  0  0  0
    2.2556   -0.5995   -2.7977 H   0  0  0  0  0  0  0  0  0  0  0  0
   -0.9789    1.3215   -0.8422 C   0  0  1  0  0  3  0  0  0  0  0  0
   -0.9143    0.4324   -1.9754 C   0  0  0  0  0  0  0  0  0  0  0  0
   -0.2295    0.5483   -2.8272 H   0  0  0  0  0  0  0  0  0  0  0  0
   -1.8344   -0.6416   -1.8491 C   0  0  0  0  0  0  0  0  0  0  0  0
   -2.5407   -0.4288   -0.6119 C   0  0  0  0  0  0  0  0  0  0  0  0
   -2.0144    0.7788    0.0118 C   0  0  0  0  0  0  0  0  0  0  0  0
   -2.5488    1.1967    1.2664 C   0  0  0  0  0  0  0  0  0  0  0  0
   -2.1717    2.1094    1.7497 H   0  0  0  0  0  0  0  0  0  0  0  0
   -3.5797    0.4678    1.8446 C   0  0  0  0  0  0  0  0  0  0  0  0
   -4.0063    0.7983    2.8037 H   0  0  0  0  0  0  0  0  0  0  0  0
   -4.1064   -0.6993    1.2165 C   0  0  0  0  0  0  0  0  0  0  0  0
   -4.9293   -1.2447    1.7026 H   0  0  0  0  0  0  0  0  0  0  0  0
   -3.5996   -1.1504    0.0046 C   0  0  0  0  0  0  0  0  0  0  0  0
   -4.0123   -2.0480   -0.4805 H   0  0  0  0  0  0  0  0  0  0  0  0
   -2.1485   -1.6831   -2.8764 C   0  0  0  0  0  0  0  0  0  0  0  0
   -2.3370   -2.6748   -2.4186 H   0  0  0  0  0  0  0  0  0  0  0  0
   -1.3175   -1.8021   -3.5982 H   0  0  0  0  0  0  0  0  0  0  0  0
   -3.0594   -1.4084   -3.4510 H   0  0  0  0  0  0  0  0  0  0  0  0
  1  2  1  0  0  0  0
  2  4  1  0  0  0  0
  2  5  1  0  0  0  0
  3  2  1  0  0  0  0
  6  8  1  0  0  0  0
  6  1  1  0  0  0  0
  7  6  1  0  0  0  0
  9  6  1  0  0  0  0
 10  1  1  6  0  0  0
 10 11  1  0  0  0  0
 11 15  1  0  0  0  0
 12 11  2  0  0  0  0
 12 19  1  0  0  0  0
 13 12  1  0  0  0  0
 14 13  2  0  0  0  0
 14 10  1  0  0  0  0
 15 17  1  0  0  0  0
 15 18  1  0  0  0  0
 15 16  1  0  0  0  0
 19 22  1  0  0  0  0
 19 21  1  0  0  0  0
 20 19  1  0  0  0  0
 23 26  1  0  0  0  0
 23 13  1  0  0  0  0
 23 25  1  0  0  0  0
 24 23  1  0  0  0  0
 27 14  1  0  0  0  0
 28 27  1  0  0  0  0
 29 27  1  0  0  0  0
 30 27  1  0  0  0  0
 31  1  1  1  0  0  0
 31 36  1  0  0  0  0
 32 34  2  0  0  0  0
 32 31  1  0  0  0  0
 33 32  1  0  0  0  0
 34 35  1  0  0  0  0
 35 43  2  0  0  0  0
 35 36  1  0  0  0  0
 36 37  2  0  0  0  0
 37 38  1  0  0  0  0
 37 39  1  0  0  0  0
 39 40  1  0  0  0  0
 41 42  1  0  0  0  0
 41 39  2  0  0  0  0
 43 41  1  0  0  0  0
 44 43  1  0  0  0  0
 45 46  1  0  0  0  0
 45 34  1  0  0  0  0
 47 45  1  0  0  0  0
 48 45  1  0  0  0  0
M  END
