2,13
q = 0.0, confidence = 0.996

 19 19  0  0  0  0  0  0  0  0999 V2000
    2.0088    1.1348    0.0611 N   0  0  0  0  0  0  0  0  0  0  0  0
    1.1595    0.0833   -0.1132 C   0  0  0  0  0  2  0  0  0  0  0  0
    1.9497   -1.0298   -0.1750 N   0  0  0  0  0  0  0  0  0  0  0  0
    4.6661    1.6974    0.3318 Cl  0  0  0  0  0  0  0  0  0  0  0  0
    3.3296    0.6728    0.1202 C   0  0  0  0  0  0  0  0  0  0  0  0
    4.5451   -1.8434   -0.0488 Cl  0  0  0  0  0  0  0  0  0  0  0  0
    3.2907   -0.6993   -0.0299 C   0  0  0  0  0  0  0  0  0  0  0  0
    1.3306   -2.3428   -0.2724 C   0  0  0  0  0  0  0  0  0  0  0  0
    1.3973   -2.8521    0.7115 H   0  0  0  0  0  0  0  0  0  0  0  0
    1.8865   -2.9618   -1.0076 H   0  0  0  0  0  0  0  0  0  0  0  0
   -0.1207   -2.1508   -0.6874 C   0  0  0  0  0  3  0  0  0  0  0  0
   -0.8016   -2.9064   -0.2654 H   0  0  0  0  0  0  0  0  0  0  0  0
   -0.4937   -1.5140   -1.9085 C   0  0  0  0  0  3  0  0  0  0  0  0
   -1.4450   -1.7806   -2.3950 H   0  0  0  0  0  0  0  0  0  0  0  0
    0.2764   -1.1150   -2.5878 H   0  0  0  0  0  0  0  0  0  0  0  0
    1.6304    2.5386    0.1752 C   0  0  0  0  0  0  0  0  0  0  0  0
    0.6405    2.6624   -0.2974 H   0  0  0  0  0  0  0  0  0  0  0  0
    2.3685    3.1564   -0.3676 H   0  0  0  0  0  0  0  0  0  0  0  0
    1.6158    2.8495    1.2383 H   0  0  0  0  0  0  0  0  0  0  0  0
  1  5  1  0  0  0  0
  1 16  1  0  0  0  0
  2  1  1  0  0  0  0
  3  2  1  0  0  0  0
  3  7  1  0  0  0  0
  5  4  1  0  0  0  0
  6  7  1  0  0  0  0
  7  5  2  0  0  0  0
  8  3  1  0  0  0  0
  8  9  1  0  0  0  0
 10  8  1  0  0  0  0
 11  8  1  0  0  0  0
 11 12  1  0  0  0  0
 13 11  1  0  0  0  0
 14 13  1  0  0  0  0
 15 13  1  0  0  0  0
 16 19  1  0  0  0  0
 17 16  1  0  0  0  0
 18 16  1  0  0  0  0
M  END
