2,16
q = 0.0, confidence = 0.996

 22 22  0  0  0  0  0  0  0  0999 V2000
    2.3865    1.4079    0.0138 N   0  0  0  0  0  0  0  0  0  0  0  0
    1.7365    0.1992   -0.0763 C   0  0  0  0  0  2  0  0  0  0  0  0
    2.7083   -0.7273    0.2096 N   0  0  0  0  0  0  0  0  0  0  0  0
    3.7213    1.2275    0.3463 C   0  0  0  0  0  0  0  0  0  0  0  0
    4.4105    2.0705    0.4521 H   0  0  0  0  0  0  0  0  0  0  0  0
    3.9266   -0.1181    0.4667 C   0  0  0  0  0  0  0  0  0  0  0  0
    4.8302   -0.6905    0.6966 H   0  0  0  0  0  0  0  0  0  0  0  0
    2.5362   -2.1782    0.1664 C   0  0  0  0  0  0  0  0  0  0  0  0
    2.0649   -2.5260    1.1104 H   0  0  0  0  0  0  0  0  0  0  0  0
    3.5466   -2.6252    0.1135 H   0  0  0  0  0  0  0  0  0  0  0  0
    1.6904   -2.5697   -1.0380 C   0  0  0  0  0  0  0  0  0  0  0  0
    2.1008   -2.0893   -1.9494 H   0  0  0  0  0  0  0  0  0  0  0  0
    1.7675   -3.6687   -1.1830 H   0  0  0  0  0  0  0  0  0  0  0  0
    0.2399   -2.2175   -0.8478 C   0  0  0  0  0  3  0  0  0  0  0  0
   -0.2698   -2.8583   -0.1069 H   0  0  0  0  0  0  0  0  0  0  0  0
   -0.5470   -1.6160   -1.8625 C   0  0  0  0  0  3  0  0  0  0  0  0
   -1.6241   -1.8283   -1.9418 H   0  0  0  0  0  0  0  0  0  0  0  0
   -0.0698   -1.2833   -2.7967 H   0  0  0  0  0  0  0  0  0  0  0  0
    1.8283    2.7437   -0.1690 C   0  0  0  0  0  0  0  0  0  0  0  0
    0.8987    2.6699   -0.7580 H   0  0  0  0  0  0  0  0  0  0  0  0
    2.5522    3.3573   -0.7362 H   0  0  0  0  0  0  0  0  0  0  0  0
    1.6470    3.2220    0.8129 H   0  0  0  0  0  0  0  0  0  0  0  0
  1  4  1  0  0  0  0
  2  1  1  0  0  0  0
  2  3  1  0  0  0  0
  3  6  1  0  0  0  0
  4  5  1  0  0  0  0
  4  6  2  0  0  0  0
  6  7  1  0  0  0  0
  8  3  1  0  0  0  0
  8  9  1  0  0  0  0
 10  8  1  0  0  0  0
 11 14  1  0  0  0  0
 11  8  1  0  0  0  0
 12 11  1  0  0  0  0
 13 11  1  0  0  0  0
 14 15  1  0  0  0  0
 16 14  1  0  0  0  0
 17 16  1  0  0  0  0
 18 16  1  0  0  0  0
 19  1  1  0  0  0  0
 19 22  1  0  0  0  0
 20 19  1  0  0  0  0
 21 19  1  0  0  0  0
M  END
