1,3
q = 0.0, confidence = 0.956

 32 33  0  0  0  0  0  0  0  0999 V2000
    0.4637    0.9324   -0.0037 C   0  0  0  0  0  2  0  0  0  0  0  0
    1.1939    2.0445   -0.0450 O   0  0  0  0  0  0  0  0  0  0  0  0
   -0.8410   -1.3939    0.2211 C   0  0  0  0  0  2  0  0  0  0  0  0
   -1.3559   -2.6092    0.3778 O   0  0  0  0  0  0  0  0  0  0  0  0
    1.5930   -2.8943    0.2153 S   0  0  0  0  0  0  0  0  0  0  0  0
    0.5918   -1.4531    0.1509 C   0  0  0  0  0  0  0  0  0  0  0  0
    1.3209   -0.2476    0.0233 C   0  0  0  0  0  0  0  0  0  0  0  0
    2.7244   -0.5237   -0.0247 C   0  0  0  0  0  0  0  0  0  0  0  0
    3.0249   -1.9135    0.0656 C   0  0  0  0  0  0  0  0  0  0  0  0
    4.4313   -2.0812   -0.0001 C   0  0  0  0  0  0  0  0  0  0  0  0
    5.0118   -3.0080    0.0389 H   0  0  0  0  0  0  0  0  0  0  0  0
    4.9459   -0.7915   -0.1297 C   0  0  0  0  0  0  0  0  0  0  0  0
    5.9891   -0.4649   -0.2146 H   0  0  0  0  0  0  0  0  0  0  0  0
    3.9288    0.1463   -0.1458 N   0  0  0  0  0  0  0  0  0  0  0  0
    4.1387    1.5771   -0.2790 C   0  0  0  0  0  0  0  0  0  0  0  0
    5.2231    1.7649   -0.3816 H   0  0  0  0  0  0  0  0  0  0  0  0
    3.7574    2.1181    0.6075 H   0  0  0  0  0  0  0  0  0  0  0  0
    3.6164    1.9705   -1.1717 H   0  0  0  0  0  0  0  0  0  0  0  0
    0.5622    3.3423   -0.0448 C   0  0  0  0  0  0  0  0  0  0  0  0
   -0.1126    3.3997    0.8327 H   0  0  0  0  0  0  0  0  0  0  0  0
   -0.0655    3.4241   -0.9547 H   0  0  0  0  0  0  0  0  0  0  0  0
    1.6440    4.4018   -0.0023 C   0  0  0  0  0  0  0  0  0  0  0  0
    1.1755    5.4054   -0.0011 H   0  0  0  0  0  0  0  0  0  0  0  0
    2.3107    4.3387   -0.8855 H   0  0  0  0  0  0  0  0  0  0  0  0
    2.2617    4.3131    0.9138 H   0  0  0  0  0  0  0  0  0  0  0  0
   -2.7825   -2.8192    0.4484 C   0  0  0  0  0  0  0  0  0  0  0  0
   -2.8935   -3.7378    1.0578 H   0  0  0  0  0  0  0  0  0  0  0  0
   -3.2380   -1.9702    0.9926 H   0  0  0  0  0  0  0  0  0  0  0  0
   -3.3780   -2.9967   -0.9362 C   0  0  0  0  0  0  0  0  0  0  0  0
   -4.4676   -3.1797   -0.8530 H   0  0  0  0  0  0  0  0  0  0  0  0
   -2.9141   -3.8554   -1.4605 H   0  0  0  0  0  0  0  0  0  0  0  0
   -3.2315   -2.0864   -1.5485 H   0  0  0  0  0  0  0  0  0  0  0  0
  1  7  1  0  0  0  0
  2 19  1  0  0  0  0
  2  1  1  0  0  0  0
  3  4  1  0  0  0  0
  4 26  1  0  0  0  0
  6  5  1  0  0  0  0
  6  3  1  0  0  0  0
  7  6  2  0  0  0  0
  8  7  1  0  0  0  0
  8  9  2  0  0  0  0
  9  5  1  0  0  0  0
 10 11  1  0  0  0  0
 10  9  1  0  0  0  0
 12 10  2  0  0  0  0
 13 12  1  0  0  0  0
 14 12  1  0  0  0  0
 14  8  1  0  0  0  0
 15 14  1  0  0  0  0
 15 17  1  0  0  0  0
 16 15  1  0  0  0  0
 18 15  1  0  0  0  0
 19 22  1  0  0  0  0
 19 20  1  0  0  0  0
 21 19  1  0  0  0  0
 22 23  1  0  0  0  0
 22 25  1  0  0  0  0
 24 22  1  0  0  0  0
 26 28  1  0  0  0  0
 26 27  1  0  0  0  0
 29 30  1  0  0  0  0
 29 26  1  0  0  0  0
 31 29  1  0  0  0  0
 32 29  1  0  0  0  0
M  END
