6,14
q = -1.0, confidence = 0.0

 23 24  0  0  0  0  0  0  0  0999 V2000
    0.4241    2.9673   -0.5657 N   0  0  0  0  0  0  0  0  0  0  0  0
   -1.4811    2.0192   -0.8154 N   0  0  0  0  0  0  0  0  0  0  0  0
   -0.4591    3.9812   -0.8339 N   0  0  0  0  0  0  0  0  0  0  0  0
   -3.6545    0.8610   -0.6803 N   0  0  0  0  0  0  0  0  0  0  0  0
   -3.8932   -0.4154   -0.2884 N   0  0  0  0  0  0  0  0  0  0  0  0
   -0.1476    1.7329   -0.5525 C   0  0  0  0  0  2  0  0  0  0  0  0
   -1.6204    3.3736   -0.9751 C   0  0  0  0  0  0  0  0  0  0  0  0
   -2.5734    3.8724   -1.1803 H   0  0  0  0  0  0  0  0  0  0  0  0
    1.7866    3.2883   -0.1959 C   0  0  0  0  0  0  0  0  0  0  0  0
    2.2231    2.3913    0.2790 H   0  0  0  0  0  0  0  0  0  0  0  0
    1.7709    4.1208    0.5315 H   0  0  0  0  0  0  0  0  0  0  0  0
    2.3820    3.5874   -1.0809 H   0  0  0  0  0  0  0  0  0  0  0  0
   -2.3243    0.9098   -0.6542 C   0  0  0  0  0  0  0  0  0  0  0  0
   -1.6571   -0.2802   -0.2663 C   0  0  0  0  0  3  0  0  0  0  0  0
   -2.7380   -1.1356   -0.0068 C   0  0  0  0  0  0  0  0  0  0  0  0
   -2.7915   -2.5151    0.5609 C   0  0  0  0  0  0  0  0  0  0  0  0
   -3.5145   -2.5849    1.4004 H   0  0  0  0  0  0  0  0  0  0  0  0
   -1.7946   -2.7744    0.9626 H   0  0  0  0  0  0  0  0  0  0  0  0
   -3.0777   -3.2889   -0.1845 H   0  0  0  0  0  0  0  0  0  0  0  0
   -5.2562   -0.8830   -0.1782 C   0  0  0  0  0  0  0  0  0  0  0  0
   -5.9143   -0.0600   -0.5076 H   0  0  0  0  0  0  0  0  0  0  0  0
   -5.5094   -1.1504    0.8695 H   0  0  0  0  0  0  0  0  0  0  0  0
   -5.4334   -1.7714   -0.8198 H   0  0  0  0  0  0  0  0  0  0  0  0
  1  6  1  0  0  0  0
  1  9  1  0  0  0  0
  2 13  1  0  0  0  0
  2  6  1  0  0  0  0
  3  1  1  0  0  0  0
  4 13  2  0  0  0  0
  4  5  1  0  0  0  0
  5 20  1  0  0  0  0
  5 15  1  0  0  0  0
  7  3  2  0  0  0  0
  7  2  1  0  0  0  0
  8  7  1  0  0  0  0
  9 10  1  0  0  0  0
  9 11  1  0  0  0  0
 12  9  1  0  0  0  0
 13 14  1  0  0  0  0
 14 15  2  0  0  0  0
 15 16  1  0  0  0  0
 16 18  1  0  0  0  0
 16 17  1  0  0  0  0
 19 16  1  0  0  0  0
 20 22  1  0  0  0  0
 21 20  1  0  0  0  0
 23 20  1  0  0  0  0
M  END
