4,13
q = -1.0, confidence = 0.0

 20 21  0  0  0  0  0  0  0  0999 V2000
    4.7968   -2.2066    0.0001 Cl  0  0  0  0  0  0  0  0  0  0  0  0
   -1.0065    3.0482   -0.0001 N   0  0  0  0  0  0  0  0  0  0  0  0
    1.0255    2.3523   -0.0001 N   0  0  0  0  0  0  0  0  0  0  0  0
   -0.2841    1.9000   -0.0000 C   0  0  0  0  0  2  0  0  0  0  0  0
   -0.2305    4.1773   -0.0002 N   0  0  0  0  0  0  0  0  0  0  0  0
   -2.4528    3.1634   -0.0002 C   0  0  0  0  0  0  0  0  0  0  0  0
   -2.7809    3.7163    0.9013 H   0  0  0  0  0  0  0  0  0  0  0  0
   -2.8752    2.1410   -0.0002 H   0  0  0  0  0  0  0  0  0  0  0  0
   -2.7809    3.7164   -0.9016 H   0  0  0  0  0  0  0  0  0  0  0  0
    2.0213    1.3412   -0.0000 C   0  0  0  0  0  0  0  0  0  0  0  0
    1.0066    3.7245   -0.0001 C   0  0  0  0  0  0  0  0  0  0  0  0
    1.8990    4.3599   -0.0001 H   0  0  0  0  0  0  0  0  0  0  0  0
    1.4450    0.0418    0.0000 C   0  0  0  0  0  3  0  0  0  0  0  0
    4.2626    0.4626   -0.0000 C   0  0  0  0  0  0  0  0  0  0  0  0
    5.3526    0.5963   -0.0000 H   0  0  0  0  0  0  0  0  0  0  0  0
    2.3244   -1.0538    0.0001 C   0  0  0  0  0  0  0  0  0  0  0  0
    1.9252   -2.0779    0.0001 H   0  0  0  0  0  0  0  0  0  0  0  0
    3.4000    1.5702   -0.0001 C   0  0  0  0  0  0  0  0  0  0  0  0
    3.8138    2.5899   -0.0001 H   0  0  0  0  0  0  0  0  0  0  0  0
    3.7135   -0.8318    0.0000 C   0  0  0  0  0  0  0  0  0  0  0  0
  2  4  1  0  0  0  0
  3 10  1  0  0  0  0
  3  4  1  0  0  0  0
  5  2  1  0  0  0  0
  5 11  2  0  0  0  0
  6  2  1  0  0  0  0
  6  7  1  0  0  0  0
  8  6  1  0  0  0  0
  9  6  1  0  0  0  0
 10 13  1  0  0  0  0
 11  3  1  0  0  0  0
 12 11  1  0  0  0  0
 13 16  2  0  0  0  0
 14 20  2  0  0  0  0
 15 14  1  0  0  0  0
 16 17  1  0  0  0  0
 18 10  2  0  0  0  0
 18 14  1  0  0  0  0
 19 18  1  0  0  0  0
 20 16  1  0  0  0  0
 20  1  1  0  0  0  0
M  END
