11,18
q = -1.0, confidence = 0.218

 36 37  0  0  0  0  0  0  0  0999 V2000
   -0.7073   -2.9206   -1.1287 F   0  0  0  0  0  0  0  0  0  0  0  0
   -2.7884   -4.5304   -1.2463 F   0  0  0  0  0  0  0  0  0  0  0  0
   -5.2421   -3.7632   -0.2505 F   0  0  0  0  0  0  0  0  0  0  0  0
   -5.4980   -1.2774    0.8978 F   0  0  0  0  0  0  0  0  0  0  0  0
   -3.4343    0.3661    1.0695 F   0  0  0  0  0  0  0  0  0  0  0  0
   -0.3017    2.2368    2.1747 F   0  0  0  0  0  0  0  0  0  0  0  0
   -1.2127    4.7062    1.8544 F   0  0  0  0  0  0  0  0  0  0  0  0
   -2.6391    5.4132   -0.3869 F   0  0  0  0  0  0  0  0  0  0  0  0
   -3.1332    3.5264   -2.3233 F   0  0  0  0  0  0  0  0  0  0  0  0
   -2.2334    1.0160   -2.0347 F   0  0  0  0  0  0  0  0  0  0  0  0
    0.3675   -0.2137   -1.2754 C   0  0  0  0  0  3  0  0  0  0  0  0
    0.2215    0.6459   -1.9499 H   0  0  0  0  0  0  0  0  0  0  0  0
    0.1333   -1.1162   -1.8572 H   0  0  0  0  0  0  0  0  0  0  0  0
    2.0515   -0.4280    3.2284 C   0  0  0  0  0  0  0  0  0  0  0  0
    1.5529    0.2379    3.9652 H   0  0  0  0  0  0  0  0  0  0  0  0
    3.1232   -0.1434    3.1965 H   0  0  0  0  0  0  0  0  0  0  0  0
    2.0037   -1.4582    3.6473 H   0  0  0  0  0  0  0  0  0  0  0  0
    1.4024   -0.3473    1.8772 C   0  0  0  0  0  3  0  0  0  0  0  0
    0.0673   -0.3876    1.6019 C   0  0  0  0  0  0  0  0  0  0  0  0
   -0.9338   -0.6238    2.7174 C   0  0  0  0  0  0  0  0  0  0  0  0
   -1.4067   -1.6226    2.6030 H   0  0  0  0  0  0  0  0  0  0  0  0
   -1.7615    0.1098    2.6730 H   0  0  0  0  0  0  0  0  0  0  0  0
   -0.4769   -0.5782    3.7244 H   0  0  0  0  0  0  0  0  0  0  0  0
   -1.9219   -1.1407   -0.0456 C   0  0  0  0  0  0  0  0  0  0  0  0
   -1.8640   -2.4269   -0.6094 C   0  0  0  0  0  0  0  0  0  0  0  0
   -2.9466   -3.3191   -0.6934 C   0  0  0  0  0  0  0  0  0  0  0  0
   -4.1942   -2.9353   -0.1857 C   0  0  0  0  0  0  0  0  0  0  0  0
   -4.3191   -1.6659    0.3956 C   0  0  0  0  0  0  0  0  0  0  0  0
   -3.2000   -0.8174    0.4589 C   0  0  0  0  0  0  0  0  0  0  0  0
   -1.2045    1.4709    0.0731 C   0  0  0  0  0  0  0  0  0  0  0  0
   -0.9994    2.4745    1.0348 C   0  0  0  0  0  0  0  0  0  0  0  0
   -1.4616    3.7969    0.9012 C   0  0  0  0  0  0  0  0  0  0  0  0
   -2.1875    4.1628   -0.2405 C   0  0  0  0  0  0  0  0  0  0  0  0
   -2.4333    3.1969   -1.2297 C   0  0  0  0  0  0  0  0  0  0  0  0
   -1.9469    1.8927   -1.0485 C   0  0  0  0  0  0  0  0  0  0  0  0
   -0.6316   -0.0895    0.0920 B   0  0  0  0  0  0  0  0  0  0  0  0
  1 25  1  0  0  0  0
  2 26  1  0  0  0  0
  3 27  1  0  0  0  0
  8 33  1  0  0  0  0
  9 34  1  0  0  0  0
 10 35  1  0  0  0  0
 11 36  1  0  0  0  0
 12 11  1  0  0  0  0
 13 11  1  0  0  0  0
 14 17  1  0  0  0  0
 14 15  1  0  0  0  0
 16 14  1  0  0  0  0
 18 14  1  0  0  0  0
 19 18  2  0  0  0  0
 19 20  1  0  0  0  0
 20 23  1  0  0  0  0
 21 20  1  0  0  0  0
 22 20  1  0  0  0  0
 24 36  1  0  0  0  0
 24 29  1  0  0  0  0
 25 24  2  0  0  0  0
 26 25  1  0  0  0  0
 26 27  2  0  0  0  0
 27 28  1  0  0  0  0
 28 29  2  0  0  0  0
 28  4  1  0  0  0  0
 29  5  1  0  0  0  0
 30 36  1  0  0  0  0
 30 31  1  0  0  0  0
 31  6  1  0  0  0  0
 32 31  2  0  0  0  0
 32  7  1  0  0  0  0
 33 32  1  0  0  0  0
 34 35  1  0  0  0  0
 34 33  2  0  0  0  0
 35 30  2  0  0  0  0
 36 19  1  0  0  0  0
M  END
