20,24
q = 0.0, confidence = 0.998

 41 42  0  0  1  0  0  0  0  0999 V2000
    1.3683   -1.1120    0.4584 N   0  0  0  0  0  0  0  0  0  0  0  0
    2.1023    2.3335    0.1807 N   0  0  0  0  0  0  0  0  0  0  0  0
    0.2772   -0.3751    0.9353 C   0  0  0  0  0  0  0  0  0  0  0  0
    1.2275   -2.5613    0.3401 C   0  0  0  0  0  0  0  0  0  0  0  0
    0.1907   -2.7852    0.0211 H   0  0  0  0  0  0  0  0  0  0  0  0
    1.3945   -3.0679    1.3270 H   0  0  0  0  0  0  0  0  0  0  0  0
    2.2287   -3.1041   -0.6839 C   0  0  0  0  0  0  0  0  0  0  0  0
    2.1256   -4.2073   -0.7443 H   0  0  0  0  0  0  0  0  0  0  0  0
    1.9576   -2.6939   -1.6800 H   0  0  0  0  0  0  0  0  0  0  0  0
    3.6640   -2.7066   -0.3222 C   0  0  0  0  0  0  0  0  0  0  0  0
    3.9587   -3.2172    0.6226 H   0  0  0  0  0  0  0  0  0  0  0  0
    4.3752   -3.0516   -1.1012 H   0  0  0  0  0  0  0  0  0  0  0  0
    3.7642   -1.1899   -0.1233 C   0  0  0  0  0  0  0  0  0  0  0  0
    3.6038   -0.6772   -1.0970 H   0  0  0  0  0  0  0  0  0  0  0  0
    4.7746   -0.9002    0.2337 H   0  0  0  0  0  0  0  0  0  0  0  0
    2.7148   -0.6941    0.8732 C   0  0  0  0  0  0  0  0  0  0  0  0
    2.9392   -1.1198    1.8864 H   0  0  0  0  0  0  0  0  0  0  0  0
    2.7294    0.4113    0.9629 H   0  0  0  0  0  0  0  0  0  0  0  0
    0.0510    0.9936    0.4818 C   0  0  2  0  0  3  0  0  0  0  0  0
   -1.0972    1.6820    0.9663 C   0  0  0  0  0  3  0  0  0  0  0  0
   -1.2964    2.6987    0.6023 H   0  0  0  0  0  0  0  0  0  0  0  0
   -2.0406    1.0752    1.8485 C   0  0  0  0  0  3  0  0  0  0  0  0
   -2.9414    1.6226    2.1557 H   0  0  0  0  0  0  0  0  0  0  0  0
   -1.8482   -0.2714    2.2289 C   0  0  0  0  0  3  0  0  0  0  0  0
   -2.5955   -0.7828    2.8521 H   0  0  0  0  0  0  0  0  0  0  0  0
   -0.6924   -0.9819    1.7921 C   0  0  0  0  0  0  0  0  0  0  0  0
   -0.5591   -2.0263    2.0985 H   0  0  0  0  0  0  0  0  0  0  0  0
    0.9878    1.6590   -0.5227 C   0  0  1  0  0  0  0  0  0  0  0  0
    1.4545    0.8179   -1.0787 H   0  0  0  0  0  0  0  0  0  0  0  0
    3.2306    2.6361   -0.6815 C   0  0  0  0  0  0  0  0  0  0  0  0
    3.0427    3.4674   -1.4096 H   0  0  0  0  0  0  0  0  0  0  0  0
    3.5144    1.7358   -1.2635 H   0  0  0  0  0  0  0  0  0  0  0  0
    4.1040    2.9319   -0.0638 H   0  0  0  0  0  0  0  0  0  0  0  0
    1.7350    3.4557    1.0244 C   0  0  0  0  0  0  0  0  0  0  0  0
    2.6225    3.7797    1.6057 H   0  0  0  0  0  0  0  0  0  0  0  0
    0.9548    3.1572    1.7515 H   0  0  0  0  0  0  0  0  0  0  0  0
    1.3632    4.3522    0.4628 H   0  0  0  0  0  0  0  0  0  0  0  0
    0.2619    2.5433   -1.5515 C   0  0  0  0  0  0  0  0  0  0  0  0
   -0.2258    3.4269   -1.0938 H   0  0  0  0  0  0  0  0  0  0  0  0
   -0.5167    1.9645   -2.0817 H   0  0  0  0  0  0  0  0  0  0  0  0
    0.9811    2.9198   -2.3050 H   0  0  0  0  0  0  0  0  0  0  0  0
  1 16  1  0  0  0  0
  1  3  1  0  0  0  0
  2 34  1  0  0  0  0
  3 26  2  0  0  0  0
  4  1  1  0  0  0  0
  4  6  1  0  0  0  0
  5  4  1  0  0  0  0
  7 10  1  0  0  0  0
  7  4  1  0  0  0  0
  8  7  1  0  0  0  0
  9  7  1  0  0  0  0
 10 13  1  0  0  0  0
 10 11  1  0  0  0  0
 12 10  1  0  0  0  0
 13 15  1  0  0  0  0
 13 16  1  0  0  0  0
 14 13  1  0  0  0  0
 16 18  1  0  0  0  0
 16 17  1  0  0  0  0
 19 28  1  6  0  0  0
 19  3  1  0  0  0  0
 19 20  1  0  0  0  0
 20 22  1  0  0  0  0
 21 20  1  0  0  0  0
 22 23  1  0  0  0  0
 22 24  1  0  0  0  0
 24 25  1  0  0  0  0
 26 27  1  0  0  0  0
 26 24  1  0  0  0  0
 28 29  1  6  0  0  0
 28  2  1  0  0  0  0
 30 33  1  0  0  0  0
 30  2  1  0  0  0  0
 31 30  1  0  0  0  0
 32 30  1  0  0  0  0
 34 35  1  0  0  0  0
 34 36  1  0  0  0  0
 37 34  1  0  0  0  0
 38 39  1  0  0  0  0
 38 28  1  0  0  0  0
 40 38  1  0  0  0  0
 41 38  1  0  0  0  0
M  END
