20,24
q = 0.0, confidence = 0.998

 41 42  0  0  1  0  0  0  0  0999 V2000
   -1.0253    0.7007    0.8440 N   0  0  0  0  0  0  0  0  0  0  0  0
   -0.9021    1.7290    0.9364 H   0  0  0  0  0  0  0  0  0  0  0  0
    0.1406    3.1288    0.2115 N   0  0  0  0  0  0  0  0  0  0  0  0
   -0.2353    0.1667   -0.1288 C   0  0  0  0  0  0  0  0  0  0  0  0
   -2.0803   -0.0145    1.5188 C   0  0  0  0  0  0  0  0  0  0  0  0
   -2.3752    0.5937    2.4005 H   0  0  0  0  0  0  0  0  0  0  0  0
   -1.6820   -0.9655    1.9381 H   0  0  0  0  0  0  0  0  0  0  0  0
   -3.3200   -0.3070    0.6808 C   0  0  0  0  0  0  0  0  0  0  0  0
   -4.1575   -1.3885    1.0148 C   0  0  0  0  0  0  0  0  0  0  0  0
   -3.8912   -2.0385    1.8644 H   0  0  0  0  0  0  0  0  0  0  0  0
   -5.3206   -1.6482    0.2746 C   0  0  0  0  0  0  0  0  0  0  0  0
   -5.9636   -2.4992    0.5465 H   0  0  0  0  0  0  0  0  0  0  0  0
   -5.6582   -0.8309   -0.8162 C   0  0  0  0  0  0  0  0  0  0  0  0
   -6.5671   -1.0369   -1.4014 H   0  0  0  0  0  0  0  0  0  0  0  0
   -4.8248    0.2450   -1.1600 C   0  0  0  0  0  0  0  0  0  0  0  0
   -5.0789    0.8866   -2.0177 H   0  0  0  0  0  0  0  0  0  0  0  0
   -3.6639    0.5041   -0.4160 C   0  0  0  0  0  0  0  0  0  0  0  0
   -3.0031    1.3408   -0.6916 H   0  0  0  0  0  0  0  0  0  0  0  0
    0.9272    0.9187   -0.5613 C   0  0  2  0  0  3  0  0  0  0  0  0
    1.6936    0.4150   -1.6547 C   0  0  0  0  0  3  0  0  0  0  0  0
    2.5613    0.9871   -2.0071 H   0  0  0  0  0  0  0  0  0  0  0  0
    1.3939   -0.8264   -2.2810 C   0  0  0  0  0  3  0  0  0  0  0  0
    2.0242   -1.2031   -3.0966 H   0  0  0  0  0  0  0  0  0  0  0  0
    0.3518   -1.6233   -1.7389 C   0  0  0  0  0  3  0  0  0  0  0  0
    0.1586   -2.6265   -2.1440 H   0  0  0  0  0  0  0  0  0  0  0  0
   -0.4532   -1.1430   -0.6706 C   0  0  0  0  0  0  0  0  0  0  0  0
   -1.2669   -1.7658   -0.2816 H   0  0  0  0  0  0  0  0  0  0  0  0
    1.3000    2.1958    0.1917 C   0  0  1  0  0  0  0  0  0  0  0  0
    1.4235    1.8928    1.2553 H   0  0  0  0  0  0  0  0  0  0  0  0
   -0.3033    3.5781   -1.1005 C   0  0  0  0  0  0  0  0  0  0  0  0
   -1.2845    4.0870   -1.0064 H   0  0  0  0  0  0  0  0  0  0  0  0
   -0.4304    2.7078   -1.7748 H   0  0  0  0  0  0  0  0  0  0  0  0
    0.4013    4.2961   -1.5900 H   0  0  0  0  0  0  0  0  0  0  0  0
    0.2848    4.2238    1.1588 C   0  0  0  0  0  0  0  0  0  0  0  0
    1.0328    4.9954    0.8484 H   0  0  0  0  0  0  0  0  0  0  0  0
    0.5938    3.8274    2.1475 H   0  0  0  0  0  0  0  0  0  0  0  0
   -0.6897    4.7394    1.2829 H   0  0  0  0  0  0  0  0  0  0  0  0
    2.6222    2.8233   -0.2659 C   0  0  0  0  0  0  0  0  0  0  0  0
    2.5882    3.1573   -1.3223 H   0  0  0  0  0  0  0  0  0  0  0  0
    3.4531    2.1002   -0.1567 H   0  0  0  0  0  0  0  0  0  0  0  0
    2.8694    3.7031    0.3588 H   0  0  0  0  0  0  0  0  0  0  0  0
  1  2  1  0  0  0  0
  1  5  1  0  0  0  0
  3 34  1  0  0  0  0
  4  1  1  0  0  0  0
  5  7  1  0  0  0  0
  5  6  1  0  0  0  0
  8  9  1  0  0  0  0
  8  5  1  0  0  0  0
  9 10  1  0  0  0  0
 11 12  1  0  0  0  0
 11  9  2  0  0  0  0
 13 11  1  0  0  0  0
 14 13  1  0  0  0  0
 15 13  2  0  0  0  0
 15 17  1  0  0  0  0
 16 15  1  0  0  0  0
 17  8  2  0  0  0  0
 18 17  1  0  0  0  0
 19  4  1  0  0  0  0
 19 28  1  1  0  0  0
 20 19  1  0  0  0  0
 21 20  1  0  0  0  0
 22 24  1  0  0  0  0
 22 20  1  0  0  0  0
 23 22  1  0  0  0  0
 24 26  1  0  0  0  0
 25 24  1  0  0  0  0
 26 27  1  0  0  0  0
 26  4  2  0  0  0  0
 28  3  1  0  0  0  0
 28 29  1  1  0  0  0
 30 31  1  0  0  0  0
 30  3  1  0  0  0  0
 32 30  1  0  0  0  0
 33 30  1  0  0  0  0
 34 37  1  0  0  0  0
 34 36  1  0  0  0  0
 35 34  1  0  0  0  0
 38 40  1  0  0  0  0
 38 28  1  0  0  0  0
 38 41  1  0  0  0  0
 39 38  1  0  0  0  0
M  END
