22,33
q = 0.0, confidence = 0.996

 50 52  0  0  0  0  0  0  0  0999 V2000
   -1.2709   -2.2240   -0.9311 N   0  0  0  0  0  0  0  0  0  0  0  0
   -2.8818   -0.8794   -1.4711 N   0  0  0  0  0  0  0  0  0  0  0  0
   -2.3845    2.0385   -0.8704 N   0  0  0  0  0  0  0  0  0  0  0  0
   -0.2546    2.3887   -0.6994 N   0  0  0  0  0  0  0  0  0  0  0  0
    1.1307   -2.0137   -0.2647 C   0  0  0  0  0  0  0  0  0  0  0  0
    1.6432   -1.4533    0.9184 C   0  0  0  0  0  0  0  0  0  0  0  0
    1.0898   -1.5916    1.8603 H   0  0  0  0  0  0  0  0  0  0  0  0
    2.8340   -0.7099    0.9000 C   0  0  0  0  0  0  0  0  0  0  0  0
    3.1869   -0.2825    1.8477 H   0  0  0  0  0  0  0  0  0  0  0  0
    3.5512   -0.4955   -0.2934 C   0  0  0  0  0  0  0  0  0  0  0  0
    3.0167   -1.0522   -1.4794 C   0  0  0  0  0  0  0  0  0  0  0  0
    3.5449   -0.9138   -2.4354 H   0  0  0  0  0  0  0  0  0  0  0  0
    1.8304   -1.7960   -1.4675 C   0  0  0  0  0  0  0  0  0  0  0  0
    1.4475   -2.2205   -2.4104 H   0  0  0  0  0  0  0  0  0  0  0  0
   -0.1356   -2.8411   -0.2229 C   0  0  0  0  0  0  0  0  0  0  0  0
    0.0231   -3.8294   -0.6979 H   0  0  0  0  0  0  0  0  0  0  0  0
   -0.4645   -2.9820    0.8281 H   0  0  0  0  0  0  0  0  0  0  0  0
   -1.8403   -2.7325   -2.0868 C   0  0  0  0  0  0  0  0  0  0  0  0
   -1.4788   -3.6502   -2.5596 H   0  0  0  0  0  0  0  0  0  0  0  0
   -2.8594   -1.8883   -2.4325 C   0  0  0  0  0  0  0  0  0  0  0  0
   -3.5710   -1.9210   -3.2626 H   0  0  0  0  0  0  0  0  0  0  0  0
   -1.9018   -1.0786   -0.5261 C   0  0  0  0  0  2  0  0  0  0  0  0
   -3.9017    0.1726   -1.5293 C   0  0  0  0  0  0  0  0  0  0  0  0
   -4.8847   -0.2651   -1.2511 H   0  0  0  0  0  0  0  0  0  0  0  0
   -3.9711    0.4937   -2.5896 H   0  0  0  0  0  0  0  0  0  0  0  0
   -3.6669    1.3916   -0.6412 C   0  0  0  0  0  0  0  0  0  0  0  0
   -4.4800    2.1193   -0.8323 H   0  0  0  0  0  0  0  0  0  0  0  0
   -3.6966    1.1050    0.4295 H   0  0  0  0  0  0  0  0  0  0  0  0
   -2.0999    3.1124   -1.7057 C   0  0  0  0  0  0  0  0  0  0  0  0
   -2.8676    3.6389   -2.2803 H   0  0  0  0  0  0  0  0  0  0  0  0
   -0.7499    3.3322   -1.5921 C   0  0  0  0  0  0  0  0  0  0  0  0
   -0.1086    4.0880   -2.0548 H   0  0  0  0  0  0  0  0  0  0  0  0
   -1.2542    1.5856   -0.2465 C   0  0  0  0  0  2  0  0  0  0  0  0
    4.8805    0.2801   -0.3384 C   0  0  0  0  0  0  0  0  0  0  0  0
    6.0116   -0.7067   -0.7106 C   0  0  0  0  0  0  0  0  0  0  0  0
    6.0875   -1.5196    0.0392 H   0  0  0  0  0  0  0  0  0  0  0  0
    6.9889   -0.1819   -0.7522 H   0  0  0  0  0  0  0  0  0  0  0  0
    5.8344   -1.1755   -1.6993 H   0  0  0  0  0  0  0  0  0  0  0  0
    5.2178    0.9268    1.0163 C   0  0  0  0  0  0  0  0  0  0  0  0
    4.4275    1.6330    1.3424 H   0  0  0  0  0  0  0  0  0  0  0  0
    6.1666    1.4947    0.9362 H   0  0  0  0  0  0  0  0  0  0  0  0
    5.3504    0.1702    1.8148 H   0  0  0  0  0  0  0  0  0  0  0  0
    4.8099    1.3986   -1.4021 C   0  0  0  0  0  0  0  0  0  0  0  0
    4.6026    0.9999   -2.4148 H   0  0  0  0  0  0  0  0  0  0  0  0
    5.7745    1.9448   -1.4499 H   0  0  0  0  0  0  0  0  0  0  0  0
    4.0158    2.1321   -1.1569 H   0  0  0  0  0  0  0  0  0  0  0  0
    1.1341    2.2503   -0.2765 C   0  0  0  0  0  0  0  0  0  0  0  0
    1.1329    2.0718    0.8189 H   0  0  0  0  0  0  0  0  0  0  0  0
    1.6797    3.1806   -0.5182 H   0  0  0  0  0  0  0  0  0  0  0  0
    1.6080    1.3899   -0.7871 H   0  0  0  0  0  0  0  0  0  0  0  0
  1 22  1  0  0  0  0
  1 15  1  0  0  0  0
  2 22  1  0  0  0  0
  3 26  1  0  0  0  0
  3 33  1  0  0  0  0
  4 47  1  0  0  0  0
  4 33  1  0  0  0  0
  5 15  1  0  0  0  0
  5  6  1  0  0  0  0
  6  7  1  0  0  0  0
  8  6  2  0  0  0  0
  8  9  1  0  0  0  0
 10  8  1  0  0  0  0
 11 13  1  0  0  0  0
 11 10  2  0  0  0  0
 12 11  1  0  0  0  0
 13  5  2  0  0  0  0
 14 13  1  0  0  0  0
 15 17  1  0  0  0  0
 16 15  1  0  0  0  0
 18  1  1  0  0  0  0
 19 18  1  0  0  0  0
 20 18  2  0  0  0  0
 20  2  1  0  0  0  0
 21 20  1  0  0  0  0
 23  2  1  0  0  0  0
 23 24  1  0  0  0  0
 23 26  1  0  0  0  0
 25 23  1  0  0  0  0
 26 28  1  0  0  0  0
 27 26  1  0  0  0  0
 29 31  2  0  0  0  0
 29  3  1  0  0  0  0
 30 29  1  0  0  0  0
 31  4  1  0  0  0  0
 32 31  1  0  0  0  0
 34 10  1  0  0  0  0
 34 39  1  0  0  0  0
 35 34  1  0  0  0  0
 35 36  1  0  0  0  0
 37 35  1  0  0  0  0
 38 35  1  0  0  0  0
 39 40  1  0  0  0  0
 39 42  1  0  0  0  0
 41 39  1  0  0  0  0
 43 46  1  0  0  0  0
 43 34  1  0  0  0  0
 44 43  1  0  0  0  0
 45 43  1  0  0  0  0
 47 48  1  0  0  0  0
 49 47  1  0  0  0  0
 50 47  1  0  0  0  0
M  END
