6,30
q = 0.0, confidence = 1.0

 36 38  0  0  0  0  0  0  0  0999 V2000
    1.8574   -0.7372    1.0796 N   0  0  0  0  0  0  0  0  0  0  0  0
    1.8594    0.2405   -0.8841 N   0  0  0  0  0  0  0  0  0  0  0  0
   -0.7947    2.5619   -0.4694 N   0  0  0  0  0  0  0  0  0  0  0  0
   -1.3416    3.4716    1.4820 N   0  0  0  0  0  0  0  0  0  0  0  0
   -1.3675    2.1052    1.5376 N   0  0  0  0  0  0  0  0  0  0  0  0
    1.0463   -0.3427    0.0527 C   0  0  0  0  0  2  0  0  0  0  0  0
    3.1852   -0.4050    0.8110 C   0  0  0  0  0  0  0  0  0  0  0  0
    4.3682   -0.5955    1.5370 C   0  0  0  0  0  0  0  0  0  0  0  0
    4.3655   -1.0844    2.5211 H   0  0  0  0  0  0  0  0  0  0  0  0
    5.5586   -0.1334    0.9535 C   0  0  0  0  0  0  0  0  0  0  0  0
    6.5075   -0.2635    1.4941 H   0  0  0  0  0  0  0  0  0  0  0  0
    5.5638    0.4943   -0.3109 C   0  0  0  0  0  0  0  0  0  0  0  0
    6.5165    0.8431   -0.7356 H   0  0  0  0  0  0  0  0  0  0  0  0
    4.3786    0.6849   -1.0398 C   0  0  0  0  0  0  0  0  0  0  0  0
    4.3891    1.1761   -2.0231 H   0  0  0  0  0  0  0  0  0  0  0  0
    3.1894    0.2267   -0.4576 C   0  0  0  0  0  0  0  0  0  0  0  0
    1.3964   -1.4523    2.2570 C   0  0  0  0  0  0  0  0  0  0  0  0
    0.4056   -1.8865    2.0231 H   0  0  0  0  0  0  0  0  0  0  0  0
    1.3278   -0.7750    3.1333 H   0  0  0  0  0  0  0  0  0  0  0  0
    2.0998   -2.2757    2.4866 H   0  0  0  0  0  0  0  0  0  0  0  0
    1.4013    0.6891   -2.1936 C   0  0  0  0  0  0  0  0  0  0  0  0
    0.5811    0.0070   -2.4979 H   0  0  0  0  0  0  0  0  0  0  0  0
    2.2430    0.5248   -2.8952 H   0  0  0  0  0  0  0  0  0  0  0  0
    0.9468    2.1557   -2.2818 C   0  0  0  0  0  0  0  0  0  0  0  0
    1.6396    2.8095   -1.7103 H   0  0  0  0  0  0  0  0  0  0  0  0
    1.0497    2.4556   -3.3459 H   0  0  0  0  0  0  0  0  0  0  0  0
   -0.5101    2.4567   -1.8992 C   0  0  0  0  0  0  0  0  0  0  0  0
   -0.8103    3.4246   -2.3466 H   0  0  0  0  0  0  0  0  0  0  0  0
   -1.1882    1.6780   -2.3046 H   0  0  0  0  0  0  0  0  0  0  0  0
   -1.0504    1.5028    0.3665 C   0  0  0  0  0  2  0  0  0  0  0  0
   -0.9897    3.7272    0.2446 C   0  0  0  0  0  0  0  0  0  0  0  0
   -0.8751    4.7316   -0.1791 H   0  0  0  0  0  0  0  0  0  0  0  0
   -1.8111    1.4197    2.7404 C   0  0  0  0  0  0  0  0  0  0  0  0
   -2.6178    0.7133    2.4582 H   0  0  0  0  0  0  0  0  0  0  0  0
   -2.1803    2.1854    3.4440 H   0  0  0  0  0  0  0  0  0  0  0  0
   -0.9725    0.8573    3.1955 H   0  0  0  0  0  0  0  0  0  0  0  0
  1 17  1  0  0  0  0
  2 16  1  0  0  0  0
  2  6  1  0  0  0  0
  3 31  1  0  0  0  0
  3 30  1  0  0  0  0
  4  5  1  0  0  0  0
  5 33  1  0  0  0  0
  6  1  1  0  0  0  0
  7  1  1  0  0  0  0
  7  8  1  0  0  0  0
  8  9  1  0  0  0  0
 10 11  1  0  0  0  0
 10  8  2  0  0  0  0
 12 10  1  0  0  0  0
 13 12  1  0  0  0  0
 14 16  1  0  0  0  0
 14 12  2  0  0  0  0
 15 14  1  0  0  0  0
 16  7  2  0  0  0  0
 17 20  1  0  0  0  0
 17 19  1  0  0  0  0
 18 17  1  0  0  0  0
 21  2  1  0  0  0  0
 22 21  1  0  0  0  0
 23 21  1  0  0  0  0
 24 21  1  0  0  0  0
 24 27  1  0  0  0  0
 24 25  1  0  0  0  0
 26 24  1  0  0  0  0
 27  3  1  0  0  0  0
 28 27  1  0  0  0  0
 29 27  1  0  0  0  0
 30  5  1  0  0  0  0
 31  4  2  0  0  0  0
 32 31  1  0  0  0  0
 33 36  1  0  0  0  0
 33 35  1  0  0  0  0
 34 33  1  0  0  0  0
M  END
