1,8
q = -2.0, confidence = 0.706

 33 34  0  0  1  0  0  0  0  0999 V2000
    0.0000    1.1969   -1.5365 C   0  0  2  0  0  3  0  0  0  0  0  0
    1.1646    1.6889   -0.8412 C   0  0  2  0  0  3  0  0  0  0  0  0
    0.7053    2.4445    0.2849 C   0  0  0  0  0  0  0  0  0  0  0  0
   -0.7060    2.4443    0.2848 C   0  0  0  0  0  0  0  0  0  0  0  0
   -1.1648    1.6886   -0.8414 C   0  0  1  0  0  3  0  0  0  0  0  0
    2.6063    1.6152   -1.2551 C   0  0  0  0  0  0  0  0  0  0  0  0
   -2.6064    1.6145   -1.2559 C   0  0  0  0  0  0  0  0  0  0  0  0
    0.0003   -1.1966   -1.5367 C   0  0  2  0  0  3  0  0  0  0  0  0
   -1.1643   -1.6888   -0.8417 C   0  0  2  0  0  3  0  0  0  0  0  0
   -0.7051   -2.4447    0.2843 C   0  0  0  0  0  0  0  0  0  0  0  0
    0.7062   -2.4443    0.2844 C   0  0  0  0  0  0  0  0  0  0  0  0
    1.1651   -1.6884   -0.8417 C   0  0  1  0  0  3  0  0  0  0  0  0
   -2.6060   -1.6147   -1.2556 C   0  0  0  0  0  0  0  0  0  0  0  0
    2.6068   -1.6143   -1.2558 C   0  0  0  0  0  0  0  0  0  0  0  0
    0.0002    0.0003   -2.4849 C   0  0  0  0  0  0  0  0  0  0  0  0
    1.3544    2.9362    1.0192 H   0  0  0  0  0  0  0  0  0  0  0  0
   -1.3553    2.9358    1.0189 H   0  0  0  0  0  0  0  0  0  0  0  0
    2.7487    1.0452   -2.1897 H   0  0  0  0  0  0  0  0  0  0  0  0
    3.2447    1.1673   -0.4684 H   0  0  0  0  0  0  0  0  0  0  0  0
    2.9837    2.6429   -1.4373 H   0  0  0  0  0  0  0  0  0  0  0  0
   -2.7486    1.0425   -2.1893 H   0  0  0  0  0  0  0  0  0  0  0  0
   -2.9833    2.6420   -1.4404 H   0  0  0  0  0  0  0  0  0  0  0  0
   -3.2452    1.1685   -0.4685 H   0  0  0  0  0  0  0  0  0  0  0  0
   -1.3542   -2.9366    1.0183 H   0  0  0  0  0  0  0  0  0  0  0  0
    1.3555   -2.9360    1.0184 H   0  0  0  0  0  0  0  0  0  0  0  0
   -2.7481   -1.0451   -2.1906 H   0  0  0  0  0  0  0  0  0  0  0  0
   -3.2442   -1.1662   -0.4692 H   0  0  0  0  0  0  0  0  0  0  0  0
   -2.9838   -2.6424   -1.4373 H   0  0  0  0  0  0  0  0  0  0  0  0
    2.7490   -1.0430   -2.1897 H   0  0  0  0  0  0  0  0  0  0  0  0
    2.9839   -2.6418   -1.4396 H   0  0  0  0  0  0  0  0  0  0  0  0
    3.2454   -1.1676   -0.4687 H   0  0  0  0  0  0  0  0  0  0  0  0
   -0.8915    0.0002   -3.1410 H   0  0  0  0  0  0  0  0  0  0  0  0
    0.8920    0.0004   -3.1409 H   0  0  0  0  0  0  0  0  0  0  0  0
  1 15  1  1  0  0  0
  1  5  1  0  0  0  0
  1  2  1  0  0  0  0
  2  6  1  6  0  0  0
  2  3  1  0  0  0  0
  3 16  1  0  0  0  0
  4  3  2  0  0  0  0
  4 17  1  0  0  0  0
  5  7  1  6  0  0  0
  5  4  1  0  0  0  0
  6 19  1  0  0  0  0
  7 23  1  0  0  0  0
  8 15  1  1  0  0  0
  8  9  1  0  0  0  0
  8 12  1  0  0  0  0
  9 13  1  6  0  0  0
  9 10  1  0  0  0  0
 10 11  2  0  0  0  0
 10 24  1  0  0  0  0
 11 25  1  0  0  0  0
 12 14  1  6  0  0  0
 12 11  1  0  0  0  0
 13 27  1  0  0  0  0
 14 31  1  0  0  0  0
 18  6  1  0  0  0  0
 20  6  1  0  0  0  0
 21  7  1  0  0  0  0
 22  7  1  0  0  0  0
 26 13  1  0  0  0  0
 28 13  1  0  0  0  0
 29 14  1  0  0  0  0
 30 14  1  0  0  0  0
 32 15  1  0  0  0  0
 33 15  1  0  0  0  0
M  END
