4,6
q = 0.0, confidence = 0.998

 39 42  0  0  1  0  0  0  0  0999 V2000
    3.1985    1.4859    2.0133 O   0  0  0  0  0  0  0  0  0  0  0  0
   -0.8866    1.0354    0.0453 C   0  0  0  0  0  0  0  0  0  0  0  0
   -2.0357    1.8542    0.2081 C   0  0  0  0  0  0  0  0  0  0  0  0
   -3.1318    1.7482   -0.6970 C   0  0  0  0  0  3  0  0  0  0  0  0
   -3.0699    0.8649   -1.8073 C   0  0  0  0  0  3  0  0  0  0  0  0
   -1.9318    0.0257   -1.9580 C   0  0  0  0  0  3  0  0  0  0  0  0
   -0.8092    0.1239   -1.0761 C   0  0  2  0  0  3  0  0  0  0  0  0
    0.2949    1.1008    0.9945 C   0  0  0  0  0  0  0  0  0  0  0  0
    0.3806   -0.7093   -1.2213 C   0  0  0  0  0  0  0  0  0  0  0  0
    1.5324   -0.3435   -0.5936 C   0  0  0  0  0  0  0  0  0  0  0  0
    1.6033    0.9580    0.1991 C   0  0  2  0  0  0  0  0  0  0  0  0
    2.8539    0.7622    1.0892 C   0  0  0  0  0  0  0  0  0  0  0  0
    3.5640   -0.4407    0.5808 C   0  0  0  0  0  0  0  0  0  0  0  0
    4.8046   -0.9534    0.9858 C   0  0  0  0  0  0  0  0  0  0  0  0
    5.2759   -2.1177    0.3655 C   0  0  0  0  0  0  0  0  0  0  0  0
    4.5079   -2.7544   -0.6369 C   0  0  0  0  0  0  0  0  0  0  0  0
    3.2635   -2.2486   -1.0364 C   0  0  0  0  0  0  0  0  0  0  0  0
    2.7844   -1.0748   -0.4220 C   0  0  0  0  0  0  0  0  0  0  0  0
    1.8435    2.1843   -0.7662 C   0  0  0  0  0  0  0  0  0  0  0  0
    1.8258    3.5255   -0.0224 C   0  0  0  0  0  0  0  0  0  0  0  0
    3.1264    2.0411   -1.5963 C   0  0  0  0  0  0  0  0  0  0  0  0
    5.3750   -0.4390    1.7739 H   0  0  0  0  0  0  0  0  0  0  0  0
    6.2466   -2.5461    0.6575 H   0  0  0  0  0  0  0  0  0  0  0  0
    4.8965   -3.6686   -1.1113 H   0  0  0  0  0  0  0  0  0  0  0  0
    2.6790   -2.7585   -1.8170 H   0  0  0  0  0  0  0  0  0  0  0  0
    0.2762    2.0358    1.5841 H   0  0  0  0  0  0  0  0  0  0  0  0
    0.2334    0.2666    1.7234 H   0  0  0  0  0  0  0  0  0  0  0  0
   -2.1015    2.5260    1.0750 H   0  0  0  0  0  0  0  0  0  0  0  0
   -4.0366    2.3481   -0.5256 H   0  0  0  0  0  0  0  0  0  0  0  0
   -3.9247    0.7668   -2.4891 H   0  0  0  0  0  0  0  0  0  0  0  0
   -1.8995   -0.7078   -2.7768 H   0  0  0  0  0  0  0  0  0  0  0  0
    0.8344    3.7514    0.4168 H   0  0  0  0  0  0  0  0  0  0  0  0
    2.5708    3.5380    0.7979 H   0  0  0  0  0  0  0  0  0  0  0  0
    2.0669    4.3494   -0.7239 H   0  0  0  0  0  0  0  0  0  0  0  0
    4.0339    2.0995   -0.9601 H   0  0  0  0  0  0  0  0  0  0  0  0
    3.1621    1.0833   -2.1517 H   0  0  0  0  0  0  0  0  0  0  0  0
    3.1910    2.8623   -2.3379 H   0  0  0  0  0  0  0  0  0  0  0  0
    0.9858    2.1671   -1.4753 H   0  0  0  0  0  0  0  0  0  0  0  0
    0.3047   -1.6379   -1.8085 H   0  0  0  0  0  0  0  0  0  0  0  0
  2  3  2  0  0  0  0
  2  8  1  0  0  0  0
  3 28  1  0  0  0  0
  4 29  1  0  0  0  0
  4  3  1  0  0  0  0
  5  4  1  0  0  0  0
  6  5  1  0  0  0  0
  7  6  1  1  0  0  0
  7  2  1  0  0  0  0
  8 26  1  0  0  0  0
  8 27  1  0  0  0  0
  9  7  1  0  0  0  0
  9 10  2  0  0  0  0
 10 18  1  0  0  0  0
 10 11  1  0  0  0  0
 11 19  1  6  0  0  0
 11  8  1  0  0  0  0
 11 12  1  0  0  0  0
 12  1  2  0  0  0  0
 13 14  1  0  0  0  0
 13 12  1  0  0  0  0
 14 22  1  0  0  0  0
 15 23  1  0  0  0  0
 15 14  2  0  0  0  0
 16 15  1  0  0  0  0
 17 16  2  0  0  0  0
 17 18  1  0  0  0  0
 18 13  2  0  0  0  0
 19 20  1  0  0  0  0
 20 32  1  0  0  0  0
 20 33  1  0  0  0  0
 21 35  1  0  0  0  0
 21 19  1  0  0  0  0
 24 16  1  0  0  0  0
 25 17  1  0  0  0  0
 30  5  1  0  0  0  0
 31  6  1  0  0  0  0
 34 20  1  0  0  0  0
 36 21  1  0  0  0  0
 37 21  1  0  0  0  0
 38 19  1  0  0  0  0
 39  9  1  0  0  0  0
M  END
