15
q = -2.0, confidence = 0.648

 45 48  0  0  1  0  0  0  0  0999 V2000
    0.0000    2.6161    0.0002 Si  0  0  0  0  0  0  0  0  0  0  0  0
    3.2812    0.8509   -0.8824 S   0  0  0  0  0  0  0  0  0  0  0  0
    2.1020    0.6330    0.4024 C   0  0  0  0  0  0  0  0  0  0  0  0
    0.9936    1.3449    0.9828 C   0  0  2  0  0  3  0  0  0  0  0  0
    0.5898    0.5310    2.1182 C   0  0  0  0  0  0  0  0  0  0  0  0
    1.4361   -0.6257    2.2250 C   0  0  0  0  0  0  0  0  0  0  0  0
    2.3996   -0.5439    1.1709 C   0  0  0  0  0  0  0  0  0  0  0  0
    3.5695   -1.2342    0.7027 C   0  0  0  0  0  0  0  0  0  0  0  0
    4.1276   -0.6025   -0.3795 C   0  0  0  0  0  0  0  0  0  0  0  0
   -0.4692    0.8554    3.1339 C   0  0  0  0  0  0  0  0  0  0  0  0
    1.3986   -1.6401    3.3235 C   0  0  0  0  0  0  0  0  0  0  0  0
   -1.1411    3.7191    1.0175 C   0  0  0  0  0  0  0  0  0  0  0  0
   -3.2813    0.8508    0.8824 S   0  0  0  0  0  0  0  0  0  0  0  0
   -2.1020    0.6331   -0.4024 C   0  0  0  0  0  0  0  0  0  0  0  0
   -0.9936    1.3450   -0.9827 C   0  0  2  0  0  3  0  0  0  0  0  0
   -0.5897    0.5313   -2.1181 C   0  0  0  0  0  0  0  0  0  0  0  0
   -1.4360   -0.6254   -2.2251 C   0  0  0  0  0  0  0  0  0  0  0  0
   -2.3995   -0.5437   -1.1711 C   0  0  0  0  0  0  0  0  0  0  0  0
   -3.5694   -1.2342   -0.7030 C   0  0  0  0  0  0  0  0  0  0  0  0
   -4.1276   -0.6025    0.3793 C   0  0  0  0  0  0  0  0  0  0  0  0
    0.4693    0.8558   -3.1338 C   0  0  0  0  0  0  0  0  0  0  0  0
   -1.3985   -1.6397   -3.3237 C   0  0  0  0  0  0  0  0  0  0  0  0
    1.1411    3.7193   -1.0171 C   0  0  0  0  0  0  0  0  0  0  0  0
    3.9635   -2.1650    1.1296 H   0  0  0  0  0  0  0  0  0  0  0  0
    5.0017   -0.9206   -0.9618 H   0  0  0  0  0  0  0  0  0  0  0  0
    0.0081    1.1410    4.0961 H   0  0  0  0  0  0  0  0  0  0  0  0
   -1.1227   -0.0172    3.3309 H   0  0  0  0  0  0  0  0  0  0  0  0
   -1.1110    1.6955    2.8188 H   0  0  0  0  0  0  0  0  0  0  0  0
    1.7568   -1.2009    4.2793 H   0  0  0  0  0  0  0  0  0  0  0  0
    2.0385   -2.5113    3.0868 H   0  0  0  0  0  0  0  0  0  0  0  0
    0.3681   -2.0153    3.4851 H   0  0  0  0  0  0  0  0  0  0  0  0
   -1.5816    4.4910    0.3534 H   0  0  0  0  0  0  0  0  0  0  0  0
   -0.5680    4.2367    1.8135 H   0  0  0  0  0  0  0  0  0  0  0  0
   -1.9792    3.1748    1.4933 H   0  0  0  0  0  0  0  0  0  0  0  0
   -3.9635   -2.1649   -1.1300 H   0  0  0  0  0  0  0  0  0  0  0  0
   -5.0018   -0.9207    0.9615 H   0  0  0  0  0  0  0  0  0  0  0  0
   -0.0081    1.1423   -4.0957 H   0  0  0  0  0  0  0  0  0  0  0  0
    1.1224   -0.0169   -3.3314 H   0  0  0  0  0  0  0  0  0  0  0  0
    1.1115    1.6954   -2.8182 H   0  0  0  0  0  0  0  0  0  0  0  0
   -1.7571   -1.2005   -4.2794 H   0  0  0  0  0  0  0  0  0  0  0  0
   -2.0381   -2.5111   -3.0869 H   0  0  0  0  0  0  0  0  0  0  0  0
   -0.3680   -2.0147   -3.4855 H   0  0  0  0  0  0  0  0  0  0  0  0
    0.5680    4.2369   -1.8131 H   0  0  0  0  0  0  0  0  0  0  0  0
    1.9793    3.1751   -1.4928 H   0  0  0  0  0  0  0  0  0  0  0  0
    1.5814    4.4912   -0.3529 H   0  0  0  0  0  0  0  0  0  0  0  0
  1 12  1  0  0  0  0
  2  9  1  0  0  0  0
  2  3  1  0  0  0  0
  3  4  1  0  0  0  0
  3  7  2  0  0  0  0
  4  1  1  6  0  0  0
  4  5  1  0  0  0  0
  5  6  2  0  0  0  0
  5 10  1  0  0  0  0
  6 11  1  0  0  0  0
  7  6  1  0  0  0  0
  8 24  1  0  0  0  0
  8  7  1  0  0  0  0
  9  8  2  0  0  0  0
 10 27  1  0  0  0  0
 10 26  1  0  0  0  0
 11 31  1  0  0  0  0
 11 29  1  0  0  0  0
 12 34  1  0  0  0  0
 12 33  1  0  0  0  0
 14 13  1  0  0  0  0
 15 14  1  0  0  0  0
 15  1  1  1  0  0  0
 16 15  1  0  0  0  0
 17 16  2  0  0  0  0
 17 18  1  0  0  0  0
 18 19  1  0  0  0  0
 18 14  2  0  0  0  0
 19 20  2  0  0  0  0
 20 13  1  0  0  0  0
 20 36  1  0  0  0  0
 21 39  1  0  0  0  0
 21 16  1  0  0  0  0
 22 41  1  0  0  0  0
 22 17  1  0  0  0  0
 23 45  1  0  0  0  0
 23  1  1  0  0  0  0
 25  9  1  0  0  0  0
 28 10  1  0  0  0  0
 30 11  1  0  0  0  0
 32 12  1  0  0  0  0
 35 19  1  0  0  0  0
 37 21  1  0  0  0  0
 38 21  1  0  0  0  0
 40 22  1  0  0  0  0
 42 22  1  0  0  0  0
 43 23  1  0  0  0  0
 44 23  1  0  0  0  0
M  END
