7
q = -2.0, confidence = 0.868

 57 62  0  0  1  0  0  0  0  0999 V2000
    1.2570   -2.9488   -1.8994 S   0  0  0  0  0  0  0  0  0  0  0  0
    0.3454    3.4882   -1.4403 S   0  0  0  0  0  0  0  0  0  0  0  0
   -0.7319   -0.2905    2.6795 Si  0  0  0  0  0  0  0  0  0  0  0  0
    0.0187   -2.4790   -0.7658 C   0  0  0  0  0  0  0  0  0  0  0  0
   -1.3835   -2.6643   -0.6812 C   0  0  0  0  0  0  0  0  0  0  0  0
   -1.7789   -2.1353    0.6006 C   0  0  0  0  0  0  0  0  0  0  0  0
   -0.6189   -1.5988    1.3006 C   0  0  1  0  0  3  0  0  0  0  0  0
    0.5124   -1.8464    0.4237 C   0  0  0  0  0  0  0  0  0  0  0  0
    1.9701   -1.8147    0.4273 C   0  0  0  0  0  0  0  0  0  0  0  0
    2.8840   -1.4800    1.4458 C   0  0  0  0  0  0  0  0  0  0  0  0
    4.2621   -1.5780    1.2229 C   0  0  0  0  0  0  0  0  0  0  0  0
    4.7582   -2.0151   -0.0201 C   0  0  0  0  0  0  0  0  0  0  0  0
    3.8773   -2.4104   -1.0355 C   0  0  0  0  0  0  0  0  0  0  0  0
    2.4969   -2.3363   -0.7971 C   0  0  0  0  0  0  0  0  0  0  0  0
   -2.2346   -3.3989   -1.6687 C   0  0  0  0  0  0  0  0  0  0  0  0
   -3.1918   -2.2506    1.1067 C   0  0  0  0  0  0  0  0  0  0  0  0
   -0.6584    2.5491   -0.3730 C   0  0  0  0  0  0  0  0  0  0  0  0
   -2.0542    2.3904   -0.2220 C   0  0  0  0  0  0  0  0  0  0  0  0
   -2.2386    1.5873    0.9563 C   0  0  0  0  0  0  0  0  0  0  0  0
   -0.9522    1.2128    1.5235 C   0  0  2  0  0  3  0  0  0  0  0  0
    0.0490    1.8356    0.6573 C   0  0  0  0  0  0  0  0  0  0  0  0
    1.4876    2.0869    0.5473 C   0  0  0  0  0  0  0  0  0  0  0  0
    2.5724    1.6816    1.3474 C   0  0  0  0  0  0  0  0  0  0  0  0
    3.8805    2.0671    1.0357 C   0  0  0  0  0  0  0  0  0  0  0  0
    4.1420    2.8773   -0.0843 C   0  0  0  0  0  0  0  0  0  0  0  0
    3.0873    3.3270   -0.8885 C   0  0  0  0  0  0  0  0  0  0  0  0
    1.7783    2.9438   -0.5633 C   0  0  0  0  0  0  0  0  0  0  0  0
   -3.1295    3.0522   -1.0209 C   0  0  0  0  0  0  0  0  0  0  0  0
   -3.6198    1.3544    1.5019 C   0  0  0  0  0  0  0  0  0  0  0  0
   -2.1722   -0.6242    3.8666 C   0  0  0  0  0  0  0  0  0  0  0  0
    0.6987   -0.1844    3.9122 C   0  0  0  0  0  0  0  0  0  0  0  0
    2.5084   -1.1655    2.4253 H   0  0  0  0  0  0  0  0  0  0  0  0
    4.9622   -1.3125    2.0291 H   0  0  0  0  0  0  0  0  0  0  0  0
    5.8436   -2.0738   -0.1905 H   0  0  0  0  0  0  0  0  0  0  0  0
    4.2580   -2.7935   -1.9936 H   0  0  0  0  0  0  0  0  0  0  0  0
   -1.7229   -3.4724   -2.6477 H   0  0  0  0  0  0  0  0  0  0  0  0
   -2.4442   -4.4309   -1.3158 H   0  0  0  0  0  0  0  0  0  0  0  0
   -3.2004   -2.8839   -1.8373 H   0  0  0  0  0  0  0  0  0  0  0  0
   -3.6259   -1.2887    1.4321 H   0  0  0  0  0  0  0  0  0  0  0  0
   -3.2388   -2.9473    1.9692 H   0  0  0  0  0  0  0  0  0  0  0  0
   -3.8528   -2.6439    0.3137 H   0  0  0  0  0  0  0  0  0  0  0  0
    2.3902    1.0581    2.2252 H   0  0  0  0  0  0  0  0  0  0  0  0
    4.7097    1.7234    1.6713 H   0  0  0  0  0  0  0  0  0  0  0  0
    5.1748    3.1677   -0.3279 H   0  0  0  0  0  0  0  0  0  0  0  0
    3.2769    3.9735   -1.7579 H   0  0  0  0  0  0  0  0  0  0  0  0
   -3.9131    2.3261   -1.3160 H   0  0  0  0  0  0  0  0  0  0  0  0
   -2.7203    3.5016   -1.9458 H   0  0  0  0  0  0  0  0  0  0  0  0
   -3.6143    3.8602   -0.4321 H   0  0  0  0  0  0  0  0  0  0  0  0
   -3.6228    0.7402    2.4154 H   0  0  0  0  0  0  0  0  0  0  0  0
   -4.2817    0.8824    0.7477 H   0  0  0  0  0  0  0  0  0  0  0  0
   -4.0779    2.3317    1.7648 H   0  0  0  0  0  0  0  0  0  0  0  0
   -3.1319   -0.9231    3.4154 H   0  0  0  0  0  0  0  0  0  0  0  0
   -2.3426    0.2708    4.4998 H   0  0  0  0  0  0  0  0  0  0  0  0
   -1.8507   -1.4478    4.5381 H   0  0  0  0  0  0  0  0  0  0  0  0
    0.8968   -1.1947    4.3254 H   0  0  0  0  0  0  0  0  0  0  0  0
    1.6517    0.2353    3.5525 H   0  0  0  0  0  0  0  0  0  0  0  0
    0.3577    0.4586    4.7498 H   0  0  0  0  0  0  0  0  0  0  0  0
  1 14  1  0  0  0  0
  1  4  1  0  0  0  0
  2 27  1  0  0  0  0
  2 17  1  0  0  0  0
  3 30  1  0  0  0  0
  3 31  1  0  0  0  0
  4  5  1  0  0  0  0
  4  8  2  0  0  0  0
  5  6  2  0  0  0  0
  6 16  1  0  0  0  0
  6  7  1  0  0  0  0
  7  3  1  6  0  0  0
  8  9  1  0  0  0  0
  8  7  1  0  0  0  0
  9 10  1  0  0  0  0
 10 32  1  0  0  0  0
 11 10  2  0  0  0  0
 11 33  1  0  0  0  0
 12 11  1  0  0  0  0
 13 14  1  0  0  0  0
 13 12  2  0  0  0  0
 14  9  2  0  0  0  0
 15 37  1  0  0  0  0
 15  5  1  0  0  0  0
 16 39  1  0  0  0  0
 16 40  1  0  0  0  0
 17 18  1  0  0  0  0
 17 21  2  0  0  0  0
 18 19  2  0  0  0  0
 19 29  1  0  0  0  0
 19 20  1  0  0  0  0
 20  3  1  6  0  0  0
 21 20  1  0  0  0  0
 22 21  1  0  0  0  0
 22 23  1  0  0  0  0
 23 42  1  0  0  0  0
 24 23  2  0  0  0  0
 24 43  1  0  0  0  0
 25 24  1  0  0  0  0
 26 27  1  0  0  0  0
 26 25  2  0  0  0  0
 27 22  2  0  0  0  0
 28 48  1  0  0  0  0
 28 18  1  0  0  0  0
 29 51  1  0  0  0  0
 29 49  1  0  0  0  0
 30 53  1  0  0  0  0
 30 54  1  0  0  0  0
 31 55  1  0  0  0  0
 31 57  1  0  0  0  0
 34 12  1  0  0  0  0
 35 13  1  0  0  0  0
 36 15  1  0  0  0  0
 38 15  1  0  0  0  0
 41 16  1  0  0  0  0
 44 25  1  0  0  0  0
 45 26  1  0  0  0  0
 46 28  1  0  0  0  0
 47 28  1  0  0  0  0
 50 29  1  0  0  0  0
 52 30  1  0  0  0  0
 56 31  1  0  0  0  0
M  END
