2,14
q = -2.0, confidence = 0.764

 36 37  0  0  1  0  0  0  0  0999 V2000
    0.6082    1.4121   -1.2924 C   0  0  0  0  0  0  0  0  0  0  0  0
   -0.4529    0.7689   -2.0239 C   0  0  2  0  0  3  0  0  0  0  0  0
    0.0640   -0.4665   -2.5274 C   0  0  0  0  0  0  0  0  0  0  0  0
   -0.5065   -1.1987   -3.1101 H   0  0  0  0  0  0  0  0  0  0  0  0
    1.4085   -0.5986   -2.1093 C   0  0  0  0  0  0  0  0  0  0  0  0
    2.0671   -1.4525   -2.3064 H   0  0  0  0  0  0  0  0  0  0  0  0
    1.7659    0.5592   -1.3445 C   0  0  0  0  0  0  0  0  0  0  0  0
   -0.6079    1.4126    1.2920 C   0  0  0  0  0  0  0  0  0  0  0  0
   -1.7656    0.5599    1.3445 C   0  0  0  0  0  0  0  0  0  0  0  0
   -1.4084   -0.5977    2.1097 C   0  0  0  0  0  0  0  0  0  0  0  0
   -2.0671   -1.4514    2.3071 H   0  0  0  0  0  0  0  0  0  0  0  0
   -0.0638   -0.4657    2.5275 C   0  0  0  0  0  0  0  0  0  0  0  0
    0.5066   -1.1977    3.1105 H   0  0  0  0  0  0  0  0  0  0  0  0
    0.4532    0.7695    2.0236 C   0  0  2  0  0  3  0  0  0  0  0  0
    0.5134    2.7404   -0.5823 C   0  0  0  0  0  0  0  0  0  0  0  0
    0.2546    3.5411   -1.3081 H   0  0  0  0  0  0  0  0  0  0  0  0
    1.5186    3.0028   -0.1986 H   0  0  0  0  0  0  0  0  0  0  0  0
   -0.5129    2.7407    0.5814 C   0  0  0  0  0  0  0  0  0  0  0  0
   -1.5181    3.0030    0.1976 H   0  0  0  0  0  0  0  0  0  0  0  0
   -0.2541    3.5416    1.3069 H   0  0  0  0  0  0  0  0  0  0  0  0
   -1.8017    1.3293   -2.3744 C   0  0  0  0  0  0  0  0  0  0  0  0
   -2.0595    2.2194   -1.7724 H   0  0  0  0  0  0  0  0  0  0  0  0
   -2.6030    0.5757   -2.2415 H   0  0  0  0  0  0  0  0  0  0  0  0
   -1.8164    1.6409   -3.4404 H   0  0  0  0  0  0  0  0  0  0  0  0
    3.1466    0.8304   -0.8228 C   0  0  0  0  0  0  0  0  0  0  0  0
    3.1742    1.6670   -0.1017 H   0  0  0  0  0  0  0  0  0  0  0  0
    3.8256    1.0941   -1.6610 H   0  0  0  0  0  0  0  0  0  0  0  0
    3.5626   -0.0675   -0.3238 H   0  0  0  0  0  0  0  0  0  0  0  0
   -3.1464    0.8312    0.8229 C   0  0  0  0  0  0  0  0  0  0  0  0
   -3.1738    1.6669    0.1008 H   0  0  0  0  0  0  0  0  0  0  0  0
   -3.8250    1.0964    1.6610 H   0  0  0  0  0  0  0  0  0  0  0  0
   -3.5630   -0.0670    0.3251 H   0  0  0  0  0  0  0  0  0  0  0  0
    1.8021    1.3299    2.3739 C   0  0  0  0  0  0  0  0  0  0  0  0
    1.8168    1.6419    3.4397 H   0  0  0  0  0  0  0  0  0  0  0  0
    2.0600    2.2197    1.7714 H   0  0  0  0  0  0  0  0  0  0  0  0
    2.6033    0.5761    2.2413 H   0  0  0  0  0  0  0  0  0  0  0  0
  1 15  1  0  0  0  0
  2 21  1  6  0  0  0
  2  1  1  0  0  0  0
  3  5  2  0  0  0  0
  3  2  1  0  0  0  0
  4  3  1  0  0  0  0
  5  7  1  0  0  0  0
  6  5  1  0  0  0  0
  7  1  2  0  0  0  0
  7 25  1  0  0  0  0
  8  9  2  0  0  0  0
  8 14  1  0  0  0  0
  9 10  1  0  0  0  0
 10 11  1  0  0  0  0
 10 12  2  0  0  0  0
 12 13  1  0  0  0  0
 14 33  1  1  0  0  0
 14 12  1  0  0  0  0
 15 17  1  0  0  0  0
 15 18  1  0  0  0  0
 16 15  1  0  0  0  0
 18  8  1  0  0  0  0
 18 20  1  0  0  0  0
 19 18  1  0  0  0  0
 21 23  1  0  0  0  0
 21 22  1  0  0  0  0
 24 21  1  0  0  0  0
 25 28  1  0  0  0  0
 25 26  1  0  0  0  0
 27 25  1  0  0  0  0
 29  9  1  0  0  0  0
 29 31  1  0  0  0  0
 30 29  1  0  0  0  0
 32 29  1  0  0  0  0
 33 34  1  0  0  0  0
 35 33  1  0  0  0  0
 36 33  1  0  0  0  0
M  END
