6
q = -2.0, confidence = 0.894

 76 78  0  0  1  0  0  0  0  0999 V2000
    0.1034    2.7570   -0.0459 Si  0  0  0  0  0  0  0  0  0  0  0  0
   -0.5702    1.0074    2.9264 Si  0  0  0  0  0  0  0  0  0  0  0  0
    3.4262   -2.2438    0.2714 Si  0  0  0  0  0  0  0  0  0  0  0  0
    3.2939    1.2450   -1.5866 Si  0  0  0  0  0  0  0  0  0  0  0  0
   -1.4274    1.6654    0.2330 C   0  0  2  0  0  3  0  0  0  0  0  0
   -1.7264    0.8969    1.4356 C   0  0  1  0  0  3  0  0  0  0  0  0
   -2.5875   -0.1794    1.0457 C   0  0  0  0  0  3  0  0  0  0  0  0
   -2.9607   -0.9617    1.7178 H   0  0  0  0  0  0  0  0  0  0  0  0
   -2.8350   -0.1151   -0.3600 C   0  0  0  0  0  0  0  0  0  0  0  0
   -2.1169    1.0209   -0.8415 C   0  0  0  0  0  0  0  0  0  0  0  0
   -2.0855    1.3185   -1.8967 H   0  0  0  0  0  0  0  0  0  0  0  0
    1.2909    1.4030    0.5811 C   0  0  1  0  0  3  0  0  0  0  0  0
    0.9717    0.7310    1.8424 C   0  0  2  0  0  3  0  0  0  0  0  0
    1.6617   -0.5175    1.8119 C   0  0  0  0  0  0  0  0  0  0  0  0
    1.5948   -1.2871    2.5921 H   0  0  0  0  0  0  0  0  0  0  0  0
    2.4089   -0.6606    0.5981 C   0  0  0  0  0  0  0  0  0  0  0  0
    2.2155    0.5624   -0.1562 C   0  0  2  0  0  3  0  0  0  0  0  0
    0.0751    3.1086   -1.9015 C   0  0  0  0  0  0  0  0  0  0  0  0
    0.9035    3.7525   -2.2491 H   0  0  0  0  0  0  0  0  0  0  0  0
   -0.8762    3.6377   -2.1199 H   0  0  0  0  0  0  0  0  0  0  0  0
    0.0862    2.1721   -2.4907 H   0  0  0  0  0  0  0  0  0  0  0  0
    0.2381    4.3902    0.8897 C   0  0  0  0  0  0  0  0  0  0  0  0
    1.0331    5.0039    0.4182 H   0  0  0  0  0  0  0  0  0  0  0  0
    0.5101    4.2503    1.9515 H   0  0  0  0  0  0  0  0  0  0  0  0
   -0.7114    4.9606    0.8353 H   0  0  0  0  0  0  0  0  0  0  0  0
   -0.6897    2.6199    3.8976 C   0  0  0  0  0  0  0  0  0  0  0  0
   -1.5163    2.5321    4.6323 H   0  0  0  0  0  0  0  0  0  0  0  0
   -0.9012    3.4930    3.2543 H   0  0  0  0  0  0  0  0  0  0  0  0
    0.2472    2.8129    4.4590 H   0  0  0  0  0  0  0  0  0  0  0  0
   -0.7952   -0.4509    4.0965 C   0  0  0  0  0  0  0  0  0  0  0  0
   -1.7648   -0.3654    4.6285 H   0  0  0  0  0  0  0  0  0  0  0  0
    0.0068   -0.4657    4.8626 H   0  0  0  0  0  0  0  0  0  0  0  0
   -0.7802   -1.4152    3.5512 H   0  0  0  0  0  0  0  0  0  0  0  0
   -3.7434   -0.9797   -1.2047 C   0  0  1  0  0  0  0  0  0  0  0  0
   -3.3970   -0.8513   -2.2542 H   0  0  0  0  0  0  0  0  0  0  0  0
   -3.6151   -2.4703   -0.8639 C   0  0  0  0  0  0  0  0  0  0  0  0
   -2.5725   -2.8091   -1.0103 H   0  0  0  0  0  0  0  0  0  0  0  0
   -4.2655   -3.0892   -1.5103 H   0  0  0  0  0  0  0  0  0  0  0  0
   -3.8798   -2.6865    0.1903 H   0  0  0  0  0  0  0  0  0  0  0  0
   -5.2300   -0.4423   -1.1877 C   0  0  0  0  0  0  0  0  0  0  0  0
   -5.2549    1.0415   -1.6008 C   0  0  0  0  0  0  0  0  0  0  0  0
   -6.3012    1.4025   -1.6741 H   0  0  0  0  0  0  0  0  0  0  0  0
   -4.7779    1.1921   -2.5919 H   0  0  0  0  0  0  0  0  0  0  0  0
   -4.7281    1.6848   -0.8685 H   0  0  0  0  0  0  0  0  0  0  0  0
   -6.0669   -1.2353   -2.2104 C   0  0  0  0  0  0  0  0  0  0  0  0
   -7.0867   -0.8058   -2.2872 H   0  0  0  0  0  0  0  0  0  0  0  0
   -6.1791   -2.3000   -1.9268 H   0  0  0  0  0  0  0  0  0  0  0  0
   -5.6080   -1.1973   -3.2203 H   0  0  0  0  0  0  0  0  0  0  0  0
   -5.8633   -0.5818    0.2076 C   0  0  0  0  0  0  0  0  0  0  0  0
   -6.9073   -0.2067    0.1954 H   0  0  0  0  0  0  0  0  0  0  0  0
   -5.3076    0.0054    0.9666 H   0  0  0  0  0  0  0  0  0  0  0  0
   -5.8943   -1.6377    0.5435 H   0  0  0  0  0  0  0  0  0  0  0  0
    2.7572   -3.6348    1.3642 C   0  0  0  0  0  0  0  0  0  0  0  0
    3.3430   -4.5561    1.1638 H   0  0  0  0  0  0  0  0  0  0  0  0
    1.6885   -3.8442    1.1682 H   0  0  0  0  0  0  0  0  0  0  0  0
    2.8717   -3.3998    2.4425 H   0  0  0  0  0  0  0  0  0  0  0  0
    5.2275   -2.0219    0.8287 C   0  0  0  0  0  0  0  0  0  0  0  0
    5.8131   -1.3062    0.2252 H   0  0  0  0  0  0  0  0  0  0  0  0
    5.7378   -3.0070    0.7839 H   0  0  0  0  0  0  0  0  0  0  0  0
    5.2511   -1.6828    1.8851 H   0  0  0  0  0  0  0  0  0  0  0  0
    3.2782   -2.7687   -1.5382 C   0  0  0  0  0  0  0  0  0  0  0  0
    3.6500   -2.0035   -2.2468 H   0  0  0  0  0  0  0  0  0  0  0  0
    2.2136   -2.9563   -1.7847 H   0  0  0  0  0  0  0  0  0  0  0  0
    3.8498   -3.7033   -1.7135 H   0  0  0  0  0  0  0  0  0  0  0  0
    2.6666    0.9530   -3.3441 C   0  0  0  0  0  0  0  0  0  0  0  0
    3.4203    1.3464   -4.0578 H   0  0  0  0  0  0  0  0  0  0  0  0
    1.6996    1.4437   -3.5572 H   0  0  0  0  0  0  0  0  0  0  0  0
    2.5353   -0.1304   -3.5337 H   0  0  0  0  0  0  0  0  0  0  0  0
    5.0552    0.5503   -1.5180 C   0  0  0  0  0  0  0  0  0  0  0  0
    5.6611    1.1248   -2.2500 H   0  0  0  0  0  0  0  0  0  0  0  0
    5.1324   -0.5187   -1.7895 H   0  0  0  0  0  0  0  0  0  0  0  0
    5.5098    0.6953   -0.5185 H   0  0  0  0  0  0  0  0  0  0  0  0
    3.5538    3.0911   -1.2154 C   0  0  0  0  0  0  0  0  0  0  0  0
    4.1992    3.5406   -1.9985 H   0  0  0  0  0  0  0  0  0  0  0  0
    4.0785    3.1948   -0.2433 H   0  0  0  0  0  0  0  0  0  0  0  0
    2.6284    3.6924   -1.1594 H   0  0  0  0  0  0  0  0  0  0  0  0
  1  5  1  0  0  0  0
  1 22  1  0  0  0  0
  2 26  1  0  0  0  0
  2 30  1  0  0  0  0
  3 16  1  0  0  0  0
  3 57  1  0  0  0  0
  3 53  1  0  0  0  0
  4 69  1  0  0  0  0
  4 73  1  0  0  0  0
  5 10  1  6  0  0  0
  5  6  1  0  0  0  0
  6  7  1  6  0  0  0
  6  2  1  0  0  0  0
  7  8  1  0  0  0  0
  9  7  1  0  0  0  0
 10  9  2  0  0  0  0
 11 10  1  0  0  0  0
 12  1  1  6  0  0  0
 12 13  1  0  0  0  0
 13 14  1  6  0  0  0
 13  2  1  0  0  0  0
 14 15  1  0  0  0  0
 16 14  2  0  0  0  0
 17  4  1  1  0  0  0
 17 12  1  0  0  0  0
 17 16  1  0  0  0  0
 18  1  1  0  0  0  0
 19 18  1  0  0  0  0
 20 18  1  0  0  0  0
 21 18  1  0  0  0  0
 22 24  1  0  0  0  0
 23 22  1  0  0  0  0
 25 22  1  0  0  0  0
 26 29  1  0  0  0  0
 26 27  1  0  0  0  0
 28 26  1  0  0  0  0
 30 31  1  0  0  0  0
 30 32  1  0  0  0  0
 33 30  1  0  0  0  0
 34 35  1  6  0  0  0
 34 40  1  0  0  0  0
 34 36  1  0  0  0  0
 34  9  1  0  0  0  0
 36 39  1  0  0  0  0
 37 36  1  0  0  0  0
 38 36  1  0  0  0  0
 40 49  1  0  0  0  0
 41 40  1  0  0  0  0
 41 44  1  0  0  0  0
 42 41  1  0  0  0  0
 43 41  1  0  0  0  0
 45 47  1  0  0  0  0
 45 40  1  0  0  0  0
 46 45  1  0  0  0  0
 48 45  1  0  0  0  0
 49 52  1  0  0  0  0
 49 51  1  0  0  0  0
 50 49  1  0  0  0  0
 53 56  1  0  0  0  0
 54 53  1  0  0  0  0
 55 53  1  0  0  0  0
 57 60  1  0  0  0  0
 58 57  1  0  0  0  0
 59 57  1  0  0  0  0
 61  3  1  0  0  0  0
 62 61  1  0  0  0  0
 63 61  1  0  0  0  0
 64 61  1  0  0  0  0
 65  4  1  0  0  0  0
 66 65  1  0  0  0  0
 67 65  1  0  0  0  0
 68 65  1  0  0  0  0
 69 72  1  0  0  0  0
 70 69  1  0  0  0  0
 71 69  1  0  0  0  0
 73 76  1  0  0  0  0
 73 75  1  0  0  0  0
 74 73  1  0  0  0  0
M  END
