5,7
q = 0.0, confidence = 1.0

 24 24  0  0  1  0  0  0  0  0999 V2000
    2.4939   -2.0207    0.1873 O   0  0  0  0  0  0  0  0  0  0  0  0
    0.5473   -0.9758   -0.6874 C   0  0  1  0  0  3  0  0  0  0  0  0
   -0.4400   -1.8311   -0.0697 C   0  0  0  0  0  0  0  0  0  0  0  0
   -1.7853   -1.7685   -0.5376 C   0  0  0  0  0  0  0  0  0  0  0  0
   -2.1685   -0.8752   -1.5766 C   0  0  0  0  0  3  0  0  0  0  0  0
   -1.1991   -0.0623   -2.2175 C   0  0  0  0  0  3  0  0  0  0  0  0
    0.1367   -0.0898   -1.7360 C   0  0  0  0  0  3  0  0  0  0  0  0
    1.9815   -0.9795   -0.2296 C   0  0  0  0  0  0  0  0  0  0  0  0
    2.7342    0.3017   -0.3012 C   0  0  0  0  0  0  0  0  0  0  0  0
    4.0478    0.3426    0.0235 C   0  0  0  0  0  0  0  0  0  0  0  0
    4.9028    1.5624    0.0403 C   0  0  0  0  0  0  0  0  0  0  0  0
   -0.1016   -2.7807    1.0477 C   0  0  0  0  0  0  0  0  0  0  0  0
   -2.5508   -2.3745   -0.0339 H   0  0  0  0  0  0  0  0  0  0  0  0
   -3.2244   -0.8098   -1.8750 H   0  0  0  0  0  0  0  0  0  0  0  0
   -1.4895    0.6405   -3.0093 H   0  0  0  0  0  0  0  0  0  0  0  0
    0.8810    0.5805   -2.1876 H   0  0  0  0  0  0  0  0  0  0  0  0
    2.2017    1.2277   -0.5693 H   0  0  0  0  0  0  0  0  0  0  0  0
    4.5098   -0.6208    0.3095 H   0  0  0  0  0  0  0  0  0  0  0  0
    4.3479    2.4738   -0.2556 H   0  0  0  0  0  0  0  0  0  0  0  0
    5.7762    1.4414   -0.6370 H   0  0  0  0  0  0  0  0  0  0  0  0
    5.3317    1.7247    1.0533 H   0  0  0  0  0  0  0  0  0  0  0  0
   -1.0244   -3.1215    1.5545 H   0  0  0  0  0  0  0  0  0  0  0  0
    0.4396   -3.6582    0.6431 H   0  0  0  0  0  0  0  0  0  0  0  0
    0.5711   -2.3226    1.7946 H   0  0  0  0  0  0  0  0  0  0  0  0
  2  8  1  1  0  0  0
  2  3  1  0  0  0  0
  3 12  1  0  0  0  0
  4  3  2  0  0  0  0
  4 13  1  0  0  0  0
  5  4  1  0  0  0  0
  6  7  1  0  0  0  0
  6  5  1  0  0  0  0
  7  2  1  0  0  0  0
  8  1  2  0  0  0  0
  9  8  1  0  0  0  0
  9 10  2  0  0  0  0
 10 11  1  0  0  0  0
 10 18  1  0  0  0  0
 11 21  1  0  0  0  0
 12 22  1  0  0  0  0
 12 24  1  0  0  0  0
 14  5  1  0  0  0  0
 15  6  1  0  0  0  0
 16  7  1  0  0  0  0
 17  9  1  0  0  0  0
 19 11  1  0  0  0  0
 20 11  1  0  0  0  0
 23 12  1  0  0  0  0
M  END
