1,6
q = -2.0, confidence = 0.518

 34 36  0  0  1  0  0  0  0  0999 V2000
   -0.8957   -0.8282    0.0001 C   0  0  2  0  0  3  0  0  0  0  0  0
   -0.2601   -1.3997    1.1477 C   0  0  0  0  0  3  0  0  0  0  0  0
    0.7096   -2.3503    0.7051 C   0  0  0  0  0  0  0  0  0  0  0  0
    0.7096   -2.3505   -0.7046 C   0  0  0  0  0  0  0  0  0  0  0  0
   -0.2601   -1.4000   -1.1473 C   0  0  0  0  0  3  0  0  0  0  0  0
   -0.4746    1.4235   -0.0002 C   0  0  1  0  0  3  0  0  0  0  0  0
    0.3244    1.7265    1.1479 C   0  0  0  0  0  3  0  0  0  0  0  0
    1.5718    2.2623    0.7046 C   0  0  0  0  0  0  0  0  0  0  0  0
    1.5718    2.2622   -0.7052 C   0  0  0  0  0  0  0  0  0  0  0  0
    0.3244    1.7262   -1.1483 C   0  0  0  0  0  3  0  0  0  0  0  0
   -1.6807    0.4872   -0.0001 C   0  0  0  0  0  0  0  0  0  0  0  0
   -2.5609    0.6489    1.2560 C   0  0  0  0  0  0  0  0  0  0  0  0
   -3.7403   -0.3305    1.2634 C   0  0  0  0  0  0  0  0  0  0  0  0
   -4.5968   -0.1878    0.0000 C   0  0  0  0  0  0  0  0  0  0  0  0
   -3.7403   -0.3308   -1.2633 C   0  0  0  0  0  0  0  0  0  0  0  0
   -2.5609    0.6486   -1.2562 C   0  0  0  0  0  0  0  0  0  0  0  0
   -0.4509   -1.1360    2.1939 H   0  0  0  0  0  0  0  0  0  0  0  0
    1.3840   -2.9195    1.3532 H   0  0  0  0  0  0  0  0  0  0  0  0
    1.3840   -2.9198   -1.3525 H   0  0  0  0  0  0  0  0  0  0  0  0
   -0.4510   -1.1365   -2.1936 H   0  0  0  0  0  0  0  0  0  0  0  0
    0.0511    1.5500    2.1941 H   0  0  0  0  0  0  0  0  0  0  0  0
    2.4061    2.5503    1.3525 H   0  0  0  0  0  0  0  0  0  0  0  0
    2.4061    2.5500   -1.3531 H   0  0  0  0  0  0  0  0  0  0  0  0
    0.0511    1.5495   -2.1945 H   0  0  0  0  0  0  0  0  0  0  0  0
   -1.9550    0.5237    2.1756 H   0  0  0  0  0  0  0  0  0  0  0  0
   -2.9347    1.6957    1.2745 H   0  0  0  0  0  0  0  0  0  0  0  0
   -3.3498   -1.3701    1.3281 H   0  0  0  0  0  0  0  0  0  0  0  0
   -4.3555   -0.1706    2.1731 H   0  0  0  0  0  0  0  0  0  0  0  0
   -5.0847    0.8130   -0.0001 H   0  0  0  0  0  0  0  0  0  0  0  0
   -5.4170   -0.9354    0.0001 H   0  0  0  0  0  0  0  0  0  0  0  0
   -3.3498   -1.3704   -1.3278 H   0  0  0  0  0  0  0  0  0  0  0  0
   -4.3555   -0.1712   -2.1730 H   0  0  0  0  0  0  0  0  0  0  0  0
   -2.9347    1.6954   -1.2749 H   0  0  0  0  0  0  0  0  0  0  0  0
   -1.9550    0.5231   -2.1757 H   0  0  0  0  0  0  0  0  0  0  0  0
  1 11  1  6  0  0  0
  1  2  1  0  0  0  0
  2 17  1  0  0  0  0
  3  2  1  0  0  0  0
  3 18  1  0  0  0  0
  4  3  2  0  0  0  0
  5  4  1  0  0  0  0
  5  1  1  0  0  0  0
  6 11  1  1  0  0  0
  6  7  1  0  0  0  0
  7 21  1  0  0  0  0
  8  7  1  0  0  0  0
  8 22  1  0  0  0  0
  9  8  2  0  0  0  0
 10  9  1  0  0  0  0
 10  6  1  0  0  0  0
 11 12  1  0  0  0  0
 12 13  1  0  0  0  0
 12 26  1  0  0  0  0
 12 25  1  0  0  0  0
 13 27  1  0  0  0  0
 13 28  1  0  0  0  0
 14 30  1  0  0  0  0
 14 13  1  0  0  0  0
 15 16  1  0  0  0  0
 15 14  1  0  0  0  0
 16 11  1  0  0  0  0
 19  4  1  0  0  0  0
 20  5  1  0  0  0  0
 23  9  1  0  0  0  0
 24 10  1  0  0  0  0
 29 14  1  0  0  0  0
 31 15  1  0  0  0  0
 32 15  1  0  0  0  0
 33 16  1  0  0  0  0
 34 16  1  0  0  0  0
M  END
