7,8
q = 0.0, confidence = 0.902

 22 22  0  0  0  0  0  0  0  0999 V2000
   -1.5438   -1.4056   -0.6076 C   0  0  0  0  0  0  0  0  0  0  0  0
   -2.6603   -0.7229   -0.1511 C   0  0  0  0  0  0  0  0  0  0  0  0
   -2.6603    0.7229   -0.1512 C   0  0  0  0  0  0  0  0  0  0  0  0
   -1.5438    1.4055   -0.6078 C   0  0  0  0  0  0  0  0  0  0  0  0
   -0.3918    0.7272   -1.1249 C   0  0  0  0  0  0  0  0  0  0  0  0
   -0.3918   -0.7273   -1.1248 C   0  0  0  0  0  0  0  0  0  0  0  0
    0.8602    1.3561   -1.4955 C   0  0  0  0  0  3  0  0  0  0  0  0
    0.8602   -1.3563   -1.4953 C   0  0  0  0  0  3  0  0  0  0  0  0
   -3.8630   -1.4722    0.3584 C   0  0  0  0  0  0  0  0  0  0  0  0
   -3.8630    1.4722    0.3582 C   0  0  0  0  0  0  0  0  0  0  0  0
   -1.5386   -2.5071   -0.6020 H   0  0  0  0  0  0  0  0  0  0  0  0
   -1.5386    2.5070   -0.6023 H   0  0  0  0  0  0  0  0  0  0  0  0
    1.3662    1.0297   -2.4184 H   0  0  0  0  0  0  0  0  0  0  0  0
    0.9492    2.4373   -1.3024 H   0  0  0  0  0  0  0  0  0  0  0  0
    1.3662   -1.0300   -2.4183 H   0  0  0  0  0  0  0  0  0  0  0  0
    0.9492   -2.4375   -1.3020 H   0  0  0  0  0  0  0  0  0  0  0  0
   -4.7780   -1.2168   -0.2168 H   0  0  0  0  0  0  0  0  0  0  0  0
   -3.7146   -2.5667    0.2944 H   0  0  0  0  0  0  0  0  0  0  0  0
   -4.0811   -1.2190    1.4176 H   0  0  0  0  0  0  0  0  0  0  0  0
   -4.7780    1.2169   -0.2170 H   0  0  0  0  0  0  0  0  0  0  0  0
   -3.7145    2.5667    0.2942 H   0  0  0  0  0  0  0  0  0  0  0  0
   -4.0812    1.2191    1.4174 H   0  0  0  0  0  0  0  0  0  0  0  0
  1 11  1  0  0  0  0
  1  2  1  0  0  0  0
  2  9  1  0  0  0  0
  3  2  2  0  0  0  0
  3 10  1  0  0  0  0
  4 12  1  0  0  0  0
  4  3  1  0  0  0  0
  5  6  1  0  0  0  0
  5  4  2  0  0  0  0
  6  1  2  0  0  0  0
  7 14  1  0  0  0  0
  7  5  1  0  0  0  0
  8 16  1  0  0  0  0
  8  6  1  0  0  0  0
  9 19  1  0  0  0  0
 10 22  1  0  0  0  0
 13  7  1  0  0  0  0
 15  8  1  0  0  0  0
 17  9  1  0  0  0  0
 18  9  1  0  0  0  0
 20 10  1  0  0  0  0
 21 10  1  0  0  0  0
M  END
