3,5
q = -2.0, confidence = 0.71

 45 47  0  0  0  0  0  0  0  0999 V2000
    1.6009   -2.6397   -0.9908 Cl  0  0  0  0  0  0  0  0  0  0  0  0
   -0.4772   -3.1083    1.2584 O   0  0  0  0  0  0  0  0  0  0  0  0
    0.6086   -0.9324    0.8868 C   0  0  0  0  0  3  0  0  0  0  0  0
   -0.5096   -1.8839    1.2960 C   0  0  0  0  0  0  0  0  0  0  0  0
   -1.7333   -1.0022    1.3816 C   0  0  0  0  0  3  0  0  0  0  0  0
    1.8425   -1.3976    0.2440 C   0  0  0  0  0  0  0  0  0  0  0  0
    3.1073   -0.9048    0.4546 C   0  0  0  0  0  0  0  0  0  0  0  0
    3.3214    0.2678    1.3559 C   0  0  0  0  0  0  0  0  0  0  0  0
    2.7176    1.5176    1.0967 C   0  0  0  0  0  0  0  0  0  0  0  0
    2.9818    2.6246    1.9177 C   0  0  0  0  0  0  0  0  0  0  0  0
    3.8488    2.5009    3.0139 C   0  0  0  0  0  0  0  0  0  0  0  0
    4.4606    1.2635    3.2783 C   0  0  0  0  0  0  0  0  0  0  0  0
    4.2082    0.1611    2.4514 C   0  0  0  0  0  0  0  0  0  0  0  0
    4.3396   -1.4377   -0.1832 C   0  0  0  0  0  0  0  0  0  0  0  0
    5.2806   -0.5343   -0.7321 C   0  0  0  0  0  0  0  0  0  0  0  0
    6.4611   -0.9977   -1.3274 C   0  0  0  0  0  0  0  0  0  0  0  0
    6.7385   -2.3737   -1.3667 C   0  0  0  0  0  0  0  0  0  0  0  0
    5.8247   -3.2800   -0.8047 C   0  0  0  0  0  0  0  0  0  0  0  0
    4.6371   -2.8196   -0.2205 C   0  0  0  0  0  0  0  0  0  0  0  0
   -3.1133   -1.5247    1.2529 C   0  0  0  0  0  0  0  0  0  0  0  0
   -4.1983   -0.7531    1.7284 C   0  0  0  0  0  0  0  0  0  0  0  0
   -5.5239   -1.1638    1.5401 C   0  0  0  0  0  0  0  0  0  0  0  0
   -5.8259   -2.3667    0.8703 C   0  0  0  0  0  0  0  0  0  0  0  0
   -4.7422   -3.1429    0.4055 C   0  0  0  0  0  0  0  0  0  0  0  0
   -3.4145   -2.7405    0.5925 C   0  0  0  0  0  0  0  0  0  0  0  0
   -7.2495   -2.8299    0.6881 C   0  0  0  0  0  0  0  0  0  0  0  0
    0.8442   -0.2057    1.6846 H   0  0  0  0  0  0  0  0  0  0  0  0
   -1.6568   -0.2479    2.1851 H   0  0  0  0  0  0  0  0  0  0  0  0
    2.0440    1.6160    0.2347 H   0  0  0  0  0  0  0  0  0  0  0  0
    2.5034    3.5901    1.6946 H   0  0  0  0  0  0  0  0  0  0  0  0
    4.0549    3.3689    3.6588 H   0  0  0  0  0  0  0  0  0  0  0  0
    5.1452    1.1585    4.1340 H   0  0  0  0  0  0  0  0  0  0  0  0
    4.6990   -0.8040    2.6487 H   0  0  0  0  0  0  0  0  0  0  0  0
    5.0696    0.5452   -0.6927 H   0  0  0  0  0  0  0  0  0  0  0  0
    7.1732   -0.2780   -1.7600 H   0  0  0  0  0  0  0  0  0  0  0  0
    7.6693   -2.7389   -1.8269 H   0  0  0  0  0  0  0  0  0  0  0  0
    6.0411   -4.3593   -0.8157 H   0  0  0  0  0  0  0  0  0  0  0  0
    3.9310   -3.5340    0.2254 H   0  0  0  0  0  0  0  0  0  0  0  0
   -3.9911    0.2016    2.2384 H   0  0  0  0  0  0  0  0  0  0  0  0
   -6.3460   -0.5340    1.9169 H   0  0  0  0  0  0  0  0  0  0  0  0
   -4.9460   -4.0939   -0.1131 H   0  0  0  0  0  0  0  0  0  0  0  0
   -2.5882   -3.3772    0.2475 H   0  0  0  0  0  0  0  0  0  0  0  0
   -7.9688   -1.9936    0.7904 H   0  0  0  0  0  0  0  0  0  0  0  0
   -7.4035   -3.2979   -0.3053 H   0  0  0  0  0  0  0  0  0  0  0  0
   -7.5235   -3.5936    1.4481 H   0  0  0  0  0  0  0  0  0  0  0  0
  1  6  1  0  0  0  0
  2  4  2  0  0  0  0
  3  4  1  0  0  0  0
  3 27  1  0  0  0  0
  4  5  1  0  0  0  0
  5 28  1  0  0  0  0
  6  7  2  0  0  0  0
  6  3  1  0  0  0  0
  7  8  1  0  0  0  0
  8 13  1  0  0  0  0
  9  8  2  0  0  0  0
  9 10  1  0  0  0  0
 10 11  2  0  0  0  0
 11 12  1  0  0  0  0
 11 31  1  0  0  0  0
 12 32  1  0  0  0  0
 13 33  1  0  0  0  0
 13 12  2  0  0  0  0
 14  7  1  0  0  0  0
 15 34  1  0  0  0  0
 15 14  2  0  0  0  0
 16 15  1  0  0  0  0
 17 16  2  0  0  0  0
 17 18  1  0  0  0  0
 18 19  2  0  0  0  0
 19 14  1  0  0  0  0
 19 38  1  0  0  0  0
 20  5  1  0  0  0  0
 20 21  1  0  0  0  0
 21 39  1  0  0  0  0
 22 21  2  0  0  0  0
 22 40  1  0  0  0  0
 23 22  1  0  0  0  0
 24 25  1  0  0  0  0
 24 23  2  0  0  0  0
 25 20  2  0  0  0  0
 26 43  1  0  0  0  0
 26 23  1  0  0  0  0
 26 45  1  0  0  0  0
 29  9  1  0  0  0  0
 30 10  1  0  0  0  0
 35 16  1  0  0  0  0
 36 17  1  0  0  0  0
 37 18  1  0  0  0  0
 41 24  1  0  0  0  0
 42 25  1  0  0  0  0
 44 26  1  0  0  0  0
M  END
