24,38
q = -1.0, confidence = 0.006

 38 40  0  0  0  0  0  0  0  0999 V2000
   -4.3829   -3.5759    1.4452 O   0  0  0  0  0  0  0  0  0  0  0  0
    4.3302    5.0538   -0.0360 O   0  0  0  0  0  0  0  0  0  0  0  0
    2.3788    0.0934    1.5288 N   0  0  0  0  0  0  0  0  0  0  0  0
    0.7747   -1.3945    1.6470 N   0  0  0  0  0  0  0  0  0  0  0  0
    5.5773    5.5481    0.3932 C   0  0  0  0  0  0  0  0  0  0  0  0
    5.6336    5.6427    1.5028 H   0  0  0  0  0  0  0  0  0  0  0  0
    5.6939    6.5529   -0.0560 H   0  0  0  0  0  0  0  0  0  0  0  0
    6.4238    4.9048    0.0570 H   0  0  0  0  0  0  0  0  0  0  0  0
    2.6837    3.3630   -0.0730 C   0  0  0  0  0  0  0  0  0  0  0  0
    2.1350    4.0374   -0.7491 H   0  0  0  0  0  0  0  0  0  0  0  0
   -0.6724   -3.3711    1.6140 C   0  0  0  0  0  0  0  0  0  0  0  0
    0.2059   -4.0311    1.6187 H   0  0  0  0  0  0  0  0  0  0  0  0
    3.9455    3.8105    0.3934 C   0  0  0  0  0  0  0  0  0  0  0  0
    1.9464   -2.0928    2.2112 C   0  0  0  0  0  0  0  0  0  0  0  0
    2.2930   -2.8785    1.5047 H   0  0  0  0  0  0  0  0  0  0  0  0
    1.6902   -2.5738    3.1760 H   0  0  0  0  0  0  0  0  0  0  0  0
    4.2226    1.7312    1.6171 C   0  0  0  0  0  0  0  0  0  0  0  0
    4.8278    1.0885    2.2757 H   0  0  0  0  0  0  0  0  0  0  0  0
   -3.0971   -3.1226    1.5215 C   0  0  0  0  0  0  0  0  0  0  0  0
    2.9656    1.3253    1.1570 C   0  0  0  0  0  0  0  0  0  0  0  0
   -0.5056   -1.9728    1.6187 C   0  0  0  0  0  0  0  0  0  0  0  0
   -2.9326   -1.7194    1.5570 C   0  0  0  0  0  0  0  0  0  0  0  0
   -3.8286   -1.0814    1.5491 H   0  0  0  0  0  0  0  0  0  0  0  0
    2.1581    2.1209    0.2892 C   0  0  0  0  0  3  0  0  0  0  0  0
    2.9801   -0.9577    2.3479 C   0  0  0  0  0  0  0  0  0  0  0  0
    3.1114   -0.6106    3.3973 H   0  0  0  0  0  0  0  0  0  0  0  0
    3.9764   -1.2409    1.9528 H   0  0  0  0  0  0  0  0  0  0  0  0
   -1.6611   -1.1543    1.6200 C   0  0  0  0  0  0  0  0  0  0  0  0
   -1.5413   -0.0641    1.6651 H   0  0  0  0  0  0  0  0  0  0  0  0
   -1.9552   -3.9464    1.5705 C   0  0  0  0  0  0  0  0  0  0  0  0
   -2.0453   -5.0409    1.5660 H   0  0  0  0  0  0  0  0  0  0  0  0
   -4.5967   -4.9721    1.4325 C   0  0  0  0  0  0  0  0  0  0  0  0
   -4.1187   -5.4605    0.5521 H   0  0  0  0  0  0  0  0  0  0  0  0
   -5.6907   -5.1239    1.3750 H   0  0  0  0  0  0  0  0  0  0  0  0
   -4.2132   -5.4615    2.3567 H   0  0  0  0  0  0  0  0  0  0  0  0
    4.7227    2.9920    1.2338 C   0  0  0  0  0  0  0  0  0  0  0  0
    5.7074    3.3128    1.5978 H   0  0  0  0  0  0  0  0  0  0  0  0
    1.1124   -0.1698    1.1381 C   0  0  0  0  0  2  0  0  0  0  0  0
  1 19  1  0  0  0  0
  2  5  1  0  0  0  0
  2 13  1  0  0  0  0
  3 25  1  0  0  0  0
  4 14  1  0  0  0  0
  5  6  1  0  0  0  0
  7  5  1  0  0  0  0
  8  5  1  0  0  0  0
  9 24  2  0  0  0  0
  9 13  1  0  0  0  0
 10  9  1  0  0  0  0
 11 21  1  0  0  0  0
 11 12  1  0  0  0  0
 13 36  2  0  0  0  0
 14 25  1  0  0  0  0
 14 16  1  0  0  0  0
 15 14  1  0  0  0  0
 17 18  1  0  0  0  0
 19 22  2  0  0  0  0
 19 30  1  0  0  0  0
 20  3  1  0  0  0  0
 20 17  2  0  0  0  0
 21 28  2  0  0  0  0
 21  4  1  0  0  0  0
 22 28  1  0  0  0  0
 23 22  1  0  0  0  0
 24 20  1  0  0  0  0
 25 26  1  0  0  0  0
 27 25  1  0  0  0  0
 28 29  1  0  0  0  0
 30 11  2  0  0  0  0
 31 30  1  0  0  0  0
 32  1  1  0  0  0  0
 32 35  1  0  0  0  0
 33 32  1  0  0  0  0
 34 32  1  0  0  0  0
 36 37  1  0  0  0  0
 36 17  1  0  0  0  0
 38  3  1  0  0  0  0
 38  4  1  0  0  0  0
M  END
