11,13
q = 0.0, confidence = 0.996

 36 38  0  0  1  0  0  0  0  0999 V2000
   -2.6384    1.2374    0.5709 S   0  0  0  0  0  0  0  0  0  0  0  0
   -1.2499   -1.6346   -0.0341 O   0  0  0  0  0  0  0  0  0  0  0  0
   -2.1981    1.0260    1.9731 O   0  0  0  0  0  0  0  0  0  0  0  0
   -3.1084    2.5636    0.0924 O   0  0  0  0  0  0  0  0  0  0  0  0
   -0.4753   -0.4452    0.0113 C   0  0  2  0  0  0  0  0  0  0  0  0
   -1.2129    0.7798   -0.5303 C   0  0  2  0  0  0  0  0  0  0  0  0
   -0.2873    1.9914   -0.6382 C   0  0  0  0  0  0  0  0  0  0  0  0
    0.7959    1.7190   -1.6825 C   0  0  0  0  0  0  0  0  0  0  0  0
    1.4839    0.3896   -1.4793 C   0  0  0  0  0  0  0  0  0  0  0  0
    2.7533    0.1309   -2.0984 C   0  0  0  0  0  0  0  0  0  0  0  0
    3.4130   -1.1057   -1.9051 C   0  0  0  0  0  3  0  0  0  0  0  0
    2.8067   -2.1300   -1.1145 C   0  0  0  0  0  3  0  0  0  0  0  0
    1.5566   -1.8785   -0.5026 C   0  0  0  0  0  3  0  0  0  0  0  0
    0.8711   -0.6330   -0.6923 C   0  0  1  0  0  3  0  0  0  0  0  0
   -3.9443    0.0485    0.1944 C   0  0  0  0  0  0  0  0  0  0  0  0
   -4.8153    0.3272   -0.8693 C   0  0  0  0  0  0  0  0  0  0  0  0
   -5.8469   -0.5815   -1.1498 C   0  0  0  0  0  0  0  0  0  0  0  0
   -6.0015   -1.7338   -0.3611 C   0  0  0  0  0  0  0  0  0  0  0  0
   -5.1307   -1.9835    0.7136 C   0  0  0  0  0  0  0  0  0  0  0  0
   -4.0899   -1.0888    1.0008 C   0  0  0  0  0  0  0  0  0  0  0  0
   -0.2987   -0.2677    1.0936 H   0  0  0  0  0  0  0  0  0  0  0  0
   -1.6794    0.5588   -1.5169 H   0  0  0  0  0  0  0  0  0  0  0  0
    0.1749    2.1850    0.3526 H   0  0  0  0  0  0  0  0  0  0  0  0
   -0.8793    2.8879   -0.9029 H   0  0  0  0  0  0  0  0  0  0  0  0
    0.3444    1.7193   -2.7006 H   0  0  0  0  0  0  0  0  0  0  0  0
    1.5481    2.5332   -1.6763 H   0  0  0  0  0  0  0  0  0  0  0  0
    3.2415    0.9304   -2.6732 H   0  0  0  0  0  0  0  0  0  0  0  0
    4.4120   -1.2637   -2.3351 H   0  0  0  0  0  0  0  0  0  0  0  0
    3.3337   -3.0755   -0.9298 H   0  0  0  0  0  0  0  0  0  0  0  0
    1.0866   -2.6345    0.1414 H   0  0  0  0  0  0  0  0  0  0  0  0
   -4.6898    1.2561   -1.4447 H   0  0  0  0  0  0  0  0  0  0  0  0
   -6.5420   -0.3812   -1.9790 H   0  0  0  0  0  0  0  0  0  0  0  0
   -6.8159   -2.4409   -0.5803 H   0  0  0  0  0  0  0  0  0  0  0  0
   -5.2652   -2.8810    1.3358 H   0  0  0  0  0  0  0  0  0  0  0  0
   -3.3927   -1.2548    1.8331 H   0  0  0  0  0  0  0  0  0  0  0  0
   -1.4825   -1.8049   -0.9677 H   0  0  0  0  0  0  0  0  0  0  0  0
  1  3  2  0  0  0  0
  2  5  1  0  0  0  0
  4  1  2  0  0  0  0
  5 21  1  1  0  0  0
  6 22  1  6  0  0  0
  6  5  1  0  0  0  0
  6  1  1  0  0  0  0
  7  6  1  0  0  0  0
  7 23  1  0  0  0  0
  8 26  1  0  0  0  0
  8  9  1  0  0  0  0
  8  7  1  0  0  0  0
 10 11  1  0  0  0  0
 10  9  2  0  0  0  0
 11 12  1  0  0  0  0
 12 29  1  0  0  0  0
 12 13  1  0  0  0  0
 13 30  1  0  0  0  0
 14  9  1  1  0  0  0
 14 13  1  0  0  0  0
 14  5  1  0  0  0  0
 15  1  1  0  0  0  0
 15 20  1  0  0  0  0
 16 15  2  0  0  0  0
 17 16  1  0  0  0  0
 17 18  2  0  0  0  0
 18 19  1  0  0  0  0
 19 20  2  0  0  0  0
 19 34  1  0  0  0  0
 20 35  1  0  0  0  0
 24  7  1  0  0  0  0
 25  8  1  0  0  0  0
 27 10  1  0  0  0  0
 28 11  1  0  0  0  0
 31 16  1  0  0  0  0
 32 17  1  0  0  0  0
 33 18  1  0  0  0  0
 36  2  1  0  0  0  0
M  END
