11,14
q = -1.0, confidence = 0.028

 59 62  0  0  1  0  0  0  0  0999 V2000
   -5.2401    0.5957    1.1106 O   0  0  0  0  0  0  0  0  0  0  0  0
   -4.5618   -0.3686   -0.8176 O   0  0  0  0  0  0  0  0  0  0  0  0
    3.4356   -0.8404    1.7759 O   0  0  0  0  0  0  0  0  0  0  0  0
   -1.2207    1.4424    1.8303 C   0  0  0  0  0  0  0  0  0  0  0  0
   -2.5815    2.0332    2.2113 C   0  0  0  0  0  0  0  0  0  0  0  0
   -3.3095    2.6268    1.0044 C   0  0  0  0  0  0  0  0  0  0  0  0
   -3.4466    1.6535   -0.1889 C   0  0  2  0  0  0  0  0  0  0  0  0
   -2.0292    1.0829   -0.5200 C   0  0  2  0  0  0  0  0  0  0  0  0
   -1.8720    0.2515   -1.8003 C   0  0  0  0  0  0  0  0  0  0  0  0
   -0.4104    0.3104   -2.2407 C   0  0  0  0  0  0  0  0  0  0  0  0
    0.5546    0.0389   -1.1112 C   0  0  1  0  0  3  0  0  0  0  0  0
    0.1052    0.0030    0.2527 C   0  0  2  0  0  3  0  0  0  0  0  0
   -1.3195    0.3911    0.6898 C   0  0  1  0  0  0  0  0  0  0  0  0
    1.1022   -0.3514    1.2407 C   0  0  0  0  0  3  0  0  0  0  0  0
    2.4680   -0.4564    0.9135 C   0  0  1  0  0  3  0  0  0  0  0  0
    2.9985    0.1455   -0.3657 C   0  0  1  0  0  0  0  0  0  0  0  0
    1.9255   -0.2554   -1.3693 C   0  0  0  0  0  3  0  0  0  0  0  0
   -4.0013    2.4436   -1.3976 C   0  0  0  0  0  0  0  0  0  0  0  0
   -4.4987    0.5870    0.1436 C   0  0  0  0  0  0  0  0  0  0  0  0
   -2.0647   -0.8582    1.2043 C   0  0  0  0  0  0  0  0  0  0  0  0
    3.0524   -1.4560    2.9975 C   0  0  0  0  0  0  0  0  0  0  0  0
   -5.5201   -1.4098   -0.5932 C   0  0  0  0  0  0  0  0  0  0  0  0
    3.3220    1.6350   -0.3346 C   0  0  0  0  0  0  0  0  0  0  0  0
    2.6200    2.5420    0.4831 C   0  0  0  0  0  0  0  0  0  0  0  0
    2.9026    3.9157    0.4360 C   0  0  0  0  0  0  0  0  0  0  0  0
    3.8887    4.4060   -0.4343 C   0  0  0  0  0  0  0  0  0  0  0  0
    4.5967    3.5106   -1.2519 C   0  0  0  0  0  0  0  0  0  0  0  0
    4.3160    2.1378   -1.1976 C   0  0  0  0  0  0  0  0  0  0  0  0
   -0.7448    0.9893    2.7249 H   0  0  0  0  0  0  0  0  0  0  0  0
   -0.5436    2.2582    1.4917 H   0  0  0  0  0  0  0  0  0  0  0  0
   -2.4412    2.8182    2.9834 H   0  0  0  0  0  0  0  0  0  0  0  0
   -3.2235    1.2585    2.6773 H   0  0  0  0  0  0  0  0  0  0  0  0
   -2.7502    3.5153    0.6373 H   0  0  0  0  0  0  0  0  0  0  0  0
   -4.3178    2.9763    1.3026 H   0  0  0  0  0  0  0  0  0  0  0  0
   -1.4358    2.0119   -0.6977 H   0  0  0  0  0  0  0  0  0  0  0  0
   -2.5153    0.6403   -2.6116 H   0  0  0  0  0  0  0  0  0  0  0  0
   -2.1901   -0.7957   -1.6338 H   0  0  0  0  0  0  0  0  0  0  0  0
   -0.1797    1.3308   -2.6219 H   0  0  0  0  0  0  0  0  0  0  0  0
   -0.2056   -0.3832   -3.0818 H   0  0  0  0  0  0  0  0  0  0  0  0
    0.7676   -0.5679    2.2642 H   0  0  0  0  0  0  0  0  0  0  0  0
    3.9299   -0.4021   -0.6139 H   0  0  0  0  0  0  0  0  0  0  0  0
    2.2261   -0.3673   -2.4230 H   0  0  0  0  0  0  0  0  0  0  0  0
   -4.9320    2.9736   -1.1118 H   0  0  0  0  0  0  0  0  0  0  0  0
   -3.2622    3.2032   -1.7254 H   0  0  0  0  0  0  0  0  0  0  0  0
   -4.2350    1.7855   -2.2548 H   0  0  0  0  0  0  0  0  0  0  0  0
   -1.4675   -1.3684    1.9843 H   0  0  0  0  0  0  0  0  0  0  0  0
   -3.0381   -0.6058    1.6635 H   0  0  0  0  0  0  0  0  0  0  0  0
   -2.2347   -1.5890    0.3927 H   0  0  0  0  0  0  0  0  0  0  0  0
    3.9852   -1.7994    3.4802 H   0  0  0  0  0  0  0  0  0  0  0  0
    2.5372   -0.7405    3.6753 H   0  0  0  0  0  0  0  0  0  0  0  0
    2.3872   -2.3273    2.8122 H   0  0  0  0  0  0  0  0  0  0  0  0
   -5.4723   -2.0657   -1.4804 H   0  0  0  0  0  0  0  0  0  0  0  0
   -5.2654   -1.9829    0.3217 H   0  0  0  0  0  0  0  0  0  0  0  0
   -6.5382   -0.9906   -0.4687 H   0  0  0  0  0  0  0  0  0  0  0  0
    1.8471    2.1677    1.1703 H   0  0  0  0  0  0  0  0  0  0  0  0
    2.3477    4.6091    1.0868 H   0  0  0  0  0  0  0  0  0  0  0  0
    4.1093    5.4836   -0.4716 H   0  0  0  0  0  0  0  0  0  0  0  0
    5.3784    3.8835   -1.9315 H   0  0  0  0  0  0  0  0  0  0  0  0
    4.8788    1.4374   -1.8359 H   0  0  0  0  0  0  0  0  0  0  0  0
  2 22  1  0  0  0  0
  2 19  1  0  0  0  0
  3 21  1  0  0  0  0
  4  5  1  0  0  0  0
  4 29  1  0  0  0  0
  5 32  1  0  0  0  0
  5 31  1  0  0  0  0
  6 34  1  0  0  0  0
  6  5  1  0  0  0  0
  7 19  1  1  0  0  0
  7  6  1  0  0  0  0
  8 35  1  6  0  0  0
  8  7  1  0  0  0  0
  8 13  1  0  0  0  0
  9 37  1  0  0  0  0
  9  8  1  0  0  0  0
 10  9  1  0  0  0  0
 10 11  1  0  0  0  0
 11 17  1  6  0  0  0
 11 12  1  0  0  0  0
 12 13  1  0  0  0  0
 12 14  1  1  0  0  0
 13 20  1  1  0  0  0
 13  4  1  0  0  0  0
 14 40  1  0  0  0  0
 15 14  1  0  0  0  0
 15  3  1  1  0  0  0
 16 41  1  6  0  0  0
 16 23  1  0  0  0  0
 16 15  1  0  0  0  0
 17 16  1  0  0  0  0
 18 43  1  0  0  0  0
 18  7  1  0  0  0  0
 19  1  2  0  0  0  0
 20 47  1  0  0  0  0
 20 46  1  0  0  0  0
 21 49  1  0  0  0  0
 21 50  1  0  0  0  0
 22 54  1  0  0  0  0
 22 53  1  0  0  0  0
 23 24  1  0  0  0  0
 24 55  1  0  0  0  0
 25 24  2  0  0  0  0
 25 56  1  0  0  0  0
 26 25  1  0  0  0  0
 27 28  1  0  0  0  0
 27 26  2  0  0  0  0
 28 23  2  0  0  0  0
 30  4  1  0  0  0  0
 33  6  1  0  0  0  0
 36  9  1  0  0  0  0
 38 10  1  0  0  0  0
 39 10  1  0  0  0  0
 42 17  1  0  0  0  0
 44 18  1  0  0  0  0
 45 18  1  0  0  0  0
 48 20  1  0  0  0  0
 51 21  1  0  0  0  0
 52 22  1  0  0  0  0
 57 26  1  0  0  0  0
 58 27  1  0  0  0  0
 59 28  1  0  0  0  0
M  END
