2,4
q = 0.0, confidence = 0.762

 37 37  0  0  1  0  0  0  0  0999 V2000
    1.6617    0.1624    1.4138 B   0  0  0  0  0  0  0  0  0  0  0  0
    1.5974   -0.7233    0.1160 C   0  0  1  0  0  3  0  0  0  0  0  0
    1.7900    0.0596   -1.2237 B   0  0  0  0  0  0  0  0  0  0  0  0
    0.8482    1.3093   -1.2094 C   0  0  1  0  0  3  0  0  0  0  0  0
    1.0068    2.2180    0.0610 B   0  0  0  0  0  0  0  0  0  0  0  0
    1.9247    1.7218    1.2602 C   0  0  2  0  0  0  0  0  0  0  0  0
    1.6038   -0.4460    2.8841 C   0  0  0  0  0  0  0  0  0  0  0  0
    0.8925    0.1335    3.5132 H   0  0  0  0  0  0  0  0  0  0  0  0
    2.5947   -0.2930    3.3685 H   0  0  0  0  0  0  0  0  0  0  0  0
    1.3572   -1.5234    2.9763 H   0  0  0  0  0  0  0  0  0  0  0  0
    1.8788   -2.2253    0.2627 C   0  0  0  0  0  0  0  0  0  0  0  0
    3.3682   -2.4362    0.5930 C   0  0  0  0  0  0  0  0  0  0  0  0
    3.6536   -1.9148    1.5280 H   0  0  0  0  0  0  0  0  0  0  0  0
    4.0090   -2.0369   -0.2201 H   0  0  0  0  0  0  0  0  0  0  0  0
    3.6063   -3.5139    0.7146 H   0  0  0  0  0  0  0  0  0  0  0  0
    1.4805   -3.0858   -0.9488 C   0  0  0  0  0  0  0  0  0  0  0  0
    0.4480   -2.8660   -1.2894 H   0  0  0  0  0  0  0  0  0  0  0  0
    1.5400   -4.1676   -0.7076 H   0  0  0  0  0  0  0  0  0  0  0  0
    2.1485   -2.9036   -1.8125 H   0  0  0  0  0  0  0  0  0  0  0  0
    2.5821   -0.3757   -2.5308 C   0  0  0  0  0  0  0  0  0  0  0  0
    1.8738   -0.8524   -3.2461 H   0  0  0  0  0  0  0  0  0  0  0  0
    3.4046   -1.0981   -2.3615 H   0  0  0  0  0  0  0  0  0  0  0  0
    2.9970    0.5061   -3.0637 H   0  0  0  0  0  0  0  0  0  0  0  0
    0.3508    1.9203   -2.5093 C   0  0  0  0  0  0  0  0  0  0  0  0
    0.0714    1.1590   -3.2677 H   0  0  0  0  0  0  0  0  0  0  0  0
    1.1553    2.5358   -2.9687 H   0  0  0  0  0  0  0  0  0  0  0  0
   -0.5162    2.6022   -2.3775 H   0  0  0  0  0  0  0  0  0  0  0  0
    0.3779    3.6766    0.1521 C   0  0  0  0  0  0  0  0  0  0  0  0
    1.2050    4.4150    0.2520 H   0  0  0  0  0  0  0  0  0  0  0  0
   -0.2067    3.7817    1.0934 H   0  0  0  0  0  0  0  0  0  0  0  0
   -0.2589    4.0073   -0.6934 H   0  0  0  0  0  0  0  0  0  0  0  0
    3.4185    1.9927    0.9424 C   0  0  0  0  0  0  0  0  0  0  0  0
    3.6262    3.0750    0.7948 H   0  0  0  0  0  0  0  0  0  0  0  0
    3.7336    1.4694    0.0155 H   0  0  0  0  0  0  0  0  0  0  0  0
    4.0873    1.6405    1.7579 H   0  0  0  0  0  0  0  0  0  0  0  0
    1.6816    2.2692    2.1988 H   0  0  0  0  0  0  0  0  0  0  0  0
    1.3058   -2.6026    1.1412 H   0  0  0  0  0  0  0  0  0  0  0  0
  1  7  1  0  0  0  0
  2 11  1  1  0  0  0
  2  1  1  0  0  0  0
  3  4  1  0  0  0  0
  3  2  1  0  0  0  0
  4 24  1  6  0  0  0
  4  5  1  0  0  0  0
  5 28  1  0  0  0  0
  5  6  1  0  0  0  0
  6  1  1  0  0  0  0
  6 36  1  1  0  0  0
  7 10  1  0  0  0  0
  7  9  1  0  0  0  0
  7  8  1  0  0  0  0
 11 12  1  0  0  0  0
 11 37  1  0  0  0  0
 12 15  1  0  0  0  0
 12 13  1  0  0  0  0
 14 12  1  0  0  0  0
 16 18  1  0  0  0  0
 16 11  1  0  0  0  0
 17 16  1  0  0  0  0
 19 16  1  0  0  0  0
 20 22  1  0  0  0  0
 20  3  1  0  0  0  0
 21 20  1  0  0  0  0
 23 20  1  0  0  0  0
 24 27  1  0  0  0  0
 25 24  1  0  0  0  0
 26 24  1  0  0  0  0
 28 29  1  0  0  0  0
 28 30  1  0  0  0  0
 31 28  1  0  0  0  0
 32  6  1  0  0  0  0
 32 35  1  0  0  0  0
 33 32  1  0  0  0  0
 34 32  1  0  0  0  0
M  END
