4,6
q = 0.0, confidence = 1.0

 69 71  0  0  1  0  0  0  0  0999 V2000
   -2.4752   -0.4944   -0.1348 P   0  0  0  0  0  0  0  0  0  0  0  0
    2.3288   -0.5162    0.1564 N   0  0  0  0  0  0  0  0  0  0  0  0
    0.4507   -0.3008   -1.4202 C   0  0  1  0  0  3  0  0  0  0  0  0
    1.3799    0.3073   -0.5086 C   0  0  2  0  0  3  0  0  0  0  0  0
    1.4248    1.7365   -0.2975 C   0  0  2  0  0  3  0  0  0  0  0  0
    0.4814    2.5355   -1.0127 C   0  0  0  0  0  3  0  0  0  0  0  0
    0.4498    3.6135   -0.8084 H   0  0  0  0  0  0  0  0  0  0  0  0
   -0.3897    1.9676   -1.9852 C   0  0  0  0  0  0  0  0  0  0  0  0
   -1.0930    2.6074   -2.5350 H   0  0  0  0  0  0  0  0  0  0  0  0
   -0.4236    0.5737   -2.1598 C   0  0  0  0  0  0  0  0  0  0  0  0
   -1.1090    0.1331   -2.8935 H   0  0  0  0  0  0  0  0  0  0  0  0
    2.4226    2.4230    0.5816 C   0  0  0  0  0  0  0  0  0  0  0  0
    2.7135    1.9407    1.9789 C   0  0  0  0  0  0  0  0  0  0  0  0
    3.4963    2.5707    2.4416 H   0  0  0  0  0  0  0  0  0  0  0  0
    3.0605    0.8901    2.0073 H   0  0  0  0  0  0  0  0  0  0  0  0
    1.8055    1.9864    2.6111 H   0  0  0  0  0  0  0  0  0  0  0  0
    3.0441    3.5176    0.0809 C   0  0  0  0  0  0  0  0  0  0  0  0
    3.7837    4.0688    0.6820 H   0  0  0  0  0  0  0  0  0  0  0  0
    2.8544    3.8796   -0.9413 H   0  0  0  0  0  0  0  0  0  0  0  0
    0.3781   -1.7666   -1.6610 C   0  0  0  0  0  0  0  0  0  0  0  0
    1.6501   -2.5153   -1.9897 C   0  0  0  0  0  0  0  0  0  0  0  0
    2.2705   -2.7192   -1.0933 H   0  0  0  0  0  0  0  0  0  0  0  0
    2.2848   -1.9355   -2.6904 H   0  0  0  0  0  0  0  0  0  0  0  0
    1.4123   -3.4898   -2.4584 H   0  0  0  0  0  0  0  0  0  0  0  0
   -0.8206   -2.4095   -1.6542 C   0  0  0  0  0  0  0  0  0  0  0  0
   -0.7982   -3.4908   -1.8779 H   0  0  0  0  0  0  0  0  0  0  0  0
   -2.1916   -1.8369   -1.4441 C   0  0  0  0  0  0  0  0  0  0  0  0
   -2.9145   -2.6564   -1.2649 H   0  0  0  0  0  0  0  0  0  0  0  0
   -2.5398   -1.3530   -2.3817 H   0  0  0  0  0  0  0  0  0  0  0  0
   -4.1430    0.2418   -0.8280 C   0  0  0  0  0  0  0  0  0  0  0  0
   -3.7740    1.2955   -1.8866 C   0  0  0  0  0  0  0  0  0  0  0  0
   -3.2059    0.8601   -2.7332 H   0  0  0  0  0  0  0  0  0  0  0  0
   -3.1779    2.1187   -1.4535 H   0  0  0  0  0  0  0  0  0  0  0  0
   -4.7086    1.7237   -2.3074 H   0  0  0  0  0  0  0  0  0  0  0  0
   -4.9197    0.9444    0.2996 C   0  0  0  0  0  0  0  0  0  0  0  0
   -4.2899    1.6461    0.8775 H   0  0  0  0  0  0  0  0  0  0  0  0
   -5.3818    0.2232    0.9995 H   0  0  0  0  0  0  0  0  0  0  0  0
   -5.7463    1.5348   -0.1504 H   0  0  0  0  0  0  0  0  0  0  0  0
   -5.0628   -0.7932   -1.5061 C   0  0  0  0  0  0  0  0  0  0  0  0
   -4.6188   -1.2183   -2.4267 H   0  0  0  0  0  0  0  0  0  0  0  0
   -5.9994   -0.2802   -1.8124 H   0  0  0  0  0  0  0  0  0  0  0  0
   -5.3489   -1.6293   -0.8451 H   0  0  0  0  0  0  0  0  0  0  0  0
   -2.9125   -1.5599    1.4218 C   0  0  0  0  0  0  0  0  0  0  0  0
   -3.2088   -0.6640    2.6404 C   0  0  0  0  0  0  0  0  0  0  0  0
   -2.4651    0.1397    2.7729 H   0  0  0  0  0  0  0  0  0  0  0  0
   -3.1825   -1.2901    3.5576 H   0  0  0  0  0  0  0  0  0  0  0  0
   -4.2100   -0.2016    2.5870 H   0  0  0  0  0  0  0  0  0  0  0  0
   -4.1044   -2.5111    1.2188 C   0  0  0  0  0  0  0  0  0  0  0  0
   -3.9762   -3.1957    0.3568 H   0  0  0  0  0  0  0  0  0  0  0  0
   -5.0622   -1.9710    1.1015 H   0  0  0  0  0  0  0  0  0  0  0  0
   -4.2027   -3.1490    2.1229 H   0  0  0  0  0  0  0  0  0  0  0  0
   -1.6617   -2.4122    1.7199 C   0  0  0  0  0  0  0  0  0  0  0  0
   -1.3223   -3.0027    0.8460 H   0  0  0  0  0  0  0  0  0  0  0  0
   -1.9022   -3.1251    2.5367 H   0  0  0  0  0  0  0  0  0  0  0  0
   -0.8220   -1.7892    2.0723 H   0  0  0  0  0  0  0  0  0  0  0  0
    2.0720   -1.5049    1.1006 C   0  0  0  0  0  0  0  0  0  0  0  0
    1.0460   -1.6751    1.4327 H   0  0  0  0  0  0  0  0  0  0  0  0
    3.2514   -2.1324    1.4518 C   0  0  0  0  0  0  0  0  0  0  0  0
    3.3522   -2.9384    2.1865 H   0  0  0  0  0  0  0  0  0  0  0  0
    4.3052   -1.5218    0.6820 C   0  0  0  0  0  0  0  0  0  0  0  0
    5.6999   -1.7253    0.5770 C   0  0  0  0  0  0  0  0  0  0  0  0
    6.1962   -2.4916    1.1918 H   0  0  0  0  0  0  0  0  0  0  0  0
    6.4328   -0.9454   -0.3217 C   0  0  0  0  0  0  0  0  0  0  0  0
    7.5192   -1.0960   -0.4122 H   0  0  0  0  0  0  0  0  0  0  0  0
    5.8012    0.0356   -1.1257 C   0  0  0  0  0  0  0  0  0  0  0  0
    6.4049    0.6301   -1.8278 H   0  0  0  0  0  0  0  0  0  0  0  0
    4.4233    0.2654   -1.0440 C   0  0  0  0  0  0  0  0  0  0  0  0
    3.9313    1.0277   -1.6636 H   0  0  0  0  0  0  0  0  0  0  0  0
    3.6930   -0.5139   -0.1312 C   0  0  0  0  0  0  0  0  0  0  0  0
  1 43  1  0  0  0  0
  2 56  1  0  0  0  0
  3 20  1  6  0  0  0
  3  4  1  0  0  0  0
  4  5  1  0  0  0  0
  4  2  1  6  0  0  0
  5 12  1  6  0  0  0
  6  7  1  0  0  0  0
  6  5  1  0  0  0  0
  8  6  1  0  0  0  0
  9  8  1  0  0  0  0
 10  8  2  0  0  0  0
 10  3  1  0  0  0  0
 11 10  1  0  0  0  0
 12 13  1  0  0  0  0
 13 15  1  0  0  0  0
 13 14  1  0  0  0  0
 13 16  1  0  0  0  0
 17 12  2  0  0  0  0
 17 18  1  0  0  0  0
 19 17  1  0  0  0  0
 20 25  2  0  0  0  0
 21 20  1  0  0  0  0
 21 22  1  0  0  0  0
 23 21  1  0  0  0  0
 24 21  1  0  0  0  0
 25 27  1  0  0  0  0
 26 25  1  0  0  0  0
 27 28  1  0  0  0  0
 27  1  1  0  0  0  0
 29 27  1  0  0  0  0
 30  1  1  0  0  0  0
 30 35  1  0  0  0  0
 31 33  1  0  0  0  0
 31 30  1  0  0  0  0
 32 31  1  0  0  0  0
 34 31  1  0  0  0  0
 35 36  1  0  0  0  0
 35 37  1  0  0  0  0
 38 35  1  0  0  0  0
 39 42  1  0  0  0  0
 39 30  1  0  0  0  0
 40 39  1  0  0  0  0
 41 39  1  0  0  0  0
 43 52  1  0  0  0  0
 43 44  1  0  0  0  0
 44 45  1  0  0  0  0
 44 46  1  0  0  0  0
 47 44  1  0  0  0  0
 48 43  1  0  0  0  0
 48 51  1  0  0  0  0
 49 48  1  0  0  0  0
 50 48  1  0  0  0  0
 52 55  1  0  0  0  0
 52 54  1  0  0  0  0
 53 52  1  0  0  0  0
 56 57  1  0  0  0  0
 56 58  2  0  0  0  0
 58 59  1  0  0  0  0
 60 58  1  0  0  0  0
 61 60  1  0  0  0  0
 61 62  1  0  0  0  0
 63 61  2  0  0  0  0
 64 63  1  0  0  0  0
 65 67  2  0  0  0  0
 65 63  1  0  0  0  0
 66 65  1  0  0  0  0
 67 69  1  0  0  0  0
 68 67  1  0  0  0  0
 69  2  1  0  0  0  0
 69 60  2  0  0  0  0
M  END
