9,12
q = -2.0, confidence = 0.838

 46 48  0  0  1  0  0  0  0  0999 V2000
   -2.2138    1.8977   -0.5820 C   0  0  0  0  0  3  0  0  0  0  0  0
   -2.2759    2.1729   -1.6412 H   0  0  0  0  0  0  0  0  0  0  0  0
   -3.2870    1.3546    0.1859 C   0  0  0  0  0  0  0  0  0  0  0  0
   -4.2935    1.1357   -0.1880 H   0  0  0  0  0  0  0  0  0  0  0  0
   -2.8079    1.1112    1.4940 C   0  0  0  0  0  0  0  0  0  0  0  0
   -3.3724    0.6710    2.3240 H   0  0  0  0  0  0  0  0  0  0  0  0
   -1.4362    1.5140    1.5418 C   0  0  0  0  0  3  0  0  0  0  0  0
   -0.7983    1.4282    2.4255 H   0  0  0  0  0  0  0  0  0  0  0  0
   -1.0537    2.0194    0.2579 C   0  0  1  0  0  3  0  0  0  0  0  0
    0.3772    2.1893   -0.2869 C   0  0  2  0  0  0  0  0  0  0  0  0
    0.6097    0.7978   -0.8882 C   0  0  2  0  0  3  0  0  0  0  0  0
   -0.0559    0.2237   -2.0225 C   0  0  0  0  0  3  0  0  0  0  0  0
   -0.6107    0.7658   -2.7976 H   0  0  0  0  0  0  0  0  0  0  0  0
    0.1069   -1.1944   -1.9600 C   0  0  0  0  0  0  0  0  0  0  0  0
   -0.3012   -1.9183   -2.6742 H   0  0  0  0  0  0  0  0  0  0  0  0
    0.8514   -1.5015   -0.7923 C   0  0  0  0  0  0  0  0  0  0  0  0
    1.1301   -2.5064   -0.4554 H   0  0  0  0  0  0  0  0  0  0  0  0
    1.1892   -0.2731   -0.1334 C   0  0  1  0  0  3  0  0  0  0  0  0
    2.1995   -0.0297    0.9733 C   0  0  1  0  0  0  0  0  0  0  0  0
    1.8133    1.2701    1.7223 C   0  0  0  0  0  0  0  0  0  0  0  0
    1.0009    1.0212    2.4309 H   0  0  0  0  0  0  0  0  0  0  0  0
    2.6708    1.5779    2.3574 H   0  0  0  0  0  0  0  0  0  0  0  0
    1.4246    2.4576    0.8242 C   0  0  0  0  0  0  0  0  0  0  0  0
    2.3392    2.8331    0.3195 H   0  0  0  0  0  0  0  0  0  0  0  0
    1.0617    3.2971    1.4534 H   0  0  0  0  0  0  0  0  0  0  0  0
    0.4438    3.3065   -1.3370 C   0  0  0  0  0  0  0  0  0  0  0  0
    0.2334    4.2894   -0.8696 H   0  0  0  0  0  0  0  0  0  0  0  0
   -0.2893    3.1582   -2.1531 H   0  0  0  0  0  0  0  0  0  0  0  0
    1.4522    3.3424   -1.7952 H   0  0  0  0  0  0  0  0  0  0  0  0
    2.2835   -1.1882    1.9774 C   0  0  0  0  0  0  0  0  0  0  0  0
    3.0474   -0.9647    2.7500 H   0  0  0  0  0  0  0  0  0  0  0  0
    2.5714   -2.1401    1.4904 H   0  0  0  0  0  0  0  0  0  0  0  0
    1.3101   -1.3535    2.4772 H   0  0  0  0  0  0  0  0  0  0  0  0
    3.5920    0.1917    0.2966 C   0  0  0  0  0  0  0  0  0  0  0  0
    3.5374    1.1047   -0.3353 H   0  0  0  0  0  0  0  0  0  0  0  0
    4.3065    0.4241    1.1166 H   0  0  0  0  0  0  0  0  0  0  0  0
    4.1423   -0.9495   -0.5619 C   0  0  0  0  0  0  0  0  0  0  0  0
    3.4102   -1.1902   -1.3612 H   0  0  0  0  0  0  0  0  0  0  0  0
    4.2434   -1.8726    0.0504 H   0  0  0  0  0  0  0  0  0  0  0  0
    5.4982   -0.6343   -1.2125 C   0  0  0  0  0  0  0  0  0  0  0  0
    5.7500   -1.4558   -1.9172 H   0  0  0  0  0  0  0  0  0  0  0  0
    5.3956    0.2784   -1.8417 H   0  0  0  0  0  0  0  0  0  0  0  0
    6.6545   -0.4496   -0.2265 C   0  0  0  0  0  0  0  0  0  0  0  0
    7.6151   -0.2854   -0.7551 H   0  0  0  0  0  0  0  0  0  0  0  0
    6.7778   -1.3450    0.4188 H   0  0  0  0  0  0  0  0  0  0  0  0
    6.4980    0.4205    0.4436 H   0  0  0  0  0  0  0  0  0  0  0  0
  1  3  1  0  0  0  0
  2  1  1  0  0  0  0
  3  5  2  0  0  0  0
  4  3  1  0  0  0  0
  5  7  1  0  0  0  0
  5  6  1  0  0  0  0
  7  8  1  0  0  0  0
  9  1  1  6  0  0  0
  9  7  1  0  0  0  0
 10 26  1  6  0  0  0
 10  9  1  0  0  0  0
 10 23  1  0  0  0  0
 11 12  1  1  0  0  0
 11 10  1  0  0  0  0
 11 18  1  0  0  0  0
 12 14  1  0  0  0  0
 13 12  1  0  0  0  0
 14 16  2  0  0  0  0
 15 14  1  0  0  0  0
 16 17  1  0  0  0  0
 18 16  1  6  0  0  0
 18 19  1  0  0  0  0
 19 34  1  6  0  0  0
 19 20  1  0  0  0  0
 19 30  1  0  0  0  0
 20 22  1  0  0  0  0
 20 21  1  0  0  0  0
 23 25  1  0  0  0  0
 23 20  1  0  0  0  0
 24 23  1  0  0  0  0
 26 27  1  0  0  0  0
 28 26  1  0  0  0  0
 29 26  1  0  0  0  0
 30 33  1  0  0  0  0
 30 31  1  0  0  0  0
 32 30  1  0  0  0  0
 34 36  1  0  0  0  0
 35 34  1  0  0  0  0
 37 39  1  0  0  0  0
 37 34  1  0  0  0  0
 38 37  1  0  0  0  0
 40 37  1  0  0  0  0
 40 43  1  0  0  0  0
 41 40  1  0  0  0  0
 42 40  1  0  0  0  0
 43 45  1  0  0  0  0
 43 46  1  0  0  0  0
 44 43  1  0  0  0  0
M  END
