2,11
q = -1.0, confidence = 0.014

 20 20  0  0  0  0  0  0  0  0999 V2000
   -2.3458    1.4650    1.6975 O   0  0  0  0  0  0  0  0  0  0  0  0
   -1.0037   -1.8882    0.3584 C   0  0  0  0  0  2  0  0  0  0  0  0
   -2.4462   -1.9409    0.5865 C   0  0  0  0  0  0  0  0  0  0  0  0
   -3.0310   -0.7319    1.0543 C   0  0  0  0  0  0  0  0  0  0  0  0
   -4.4227   -0.6258    1.2664 C   0  0  0  0  0  0  0  0  0  0  0  0
   -5.2092   -1.7717    1.0065 C   0  0  0  0  0  0  0  0  0  0  0  0
   -4.6564   -2.9868    0.5560 C   0  0  0  0  0  0  0  0  0  0  0  0
   -3.2639   -3.0597    0.3434 C   0  0  0  0  0  0  0  0  0  0  0  0
   -5.5303   -4.1946    0.3275 C   0  0  0  0  0  0  0  0  0  0  0  0
   -5.0752    0.6460    1.7375 C   0  0  0  0  0  0  0  0  0  0  0  0
   -2.0259    0.3581    1.2684 C   0  0  0  0  0  3  0  0  0  0  0  0
   -0.5593   -2.8307   -0.0211 H   0  0  0  0  0  0  0  0  0  0  0  0
   -6.2988   -1.7075    1.1624 H   0  0  0  0  0  0  0  0  0  0  0  0
   -2.8096   -3.9956   -0.0218 H   0  0  0  0  0  0  0  0  0  0  0  0
   -5.4684   -4.8957    1.1878 H   0  0  0  0  0  0  0  0  0  0  0  0
   -6.5951   -3.9156    0.2059 H   0  0  0  0  0  0  0  0  0  0  0  0
   -5.2137   -4.7619   -0.5709 H   0  0  0  0  0  0  0  0  0  0  0  0
   -4.8587    1.4841    1.0450 H   0  0  0  0  0  0  0  0  0  0  0  0
   -6.1722    0.5207    1.8257 H   0  0  0  0  0  0  0  0  0  0  0  0
   -4.6651    0.9689    2.7149 H   0  0  0  0  0  0  0  0  0  0  0  0
  2  3  1  0  0  0  0
  3  4  1  0  0  0  0
  4  5  2  0  0  0  0
  4 11  1  0  0  0  0
  5 10  1  0  0  0  0
  6 13  1  0  0  0  0
  6  5  1  0  0  0  0
  7  6  2  0  0  0  0
  8  7  1  0  0  0  0
  8  3  2  0  0  0  0
  9  7  1  0  0  0  0
  9 15  1  0  0  0  0
 10 19  1  0  0  0  0
 10 20  1  0  0  0  0
 11  1  2  0  0  0  0
 12  2  1  0  0  0  0
 14  8  1  0  0  0  0
 16  9  1  0  0  0  0
 17  9  1  0  0  0  0
 18 10  1  0  0  0  0
M  END
