5,14
q = -2.0, confidence = 0.882

 47 50  0  0  1  0  0  0  0  0999 V2000
   -0.0000    2.6805    0.0000 Si  0  0  0  0  0  0  0  0  0  0  0  0
   -0.9672    3.7608    1.2030 C   0  0  0  0  0  0  0  0  0  0  0  0
    0.9668    3.7612   -1.2028 C   0  0  0  0  0  0  0  0  0  0  0  0
   -1.0447    1.3961   -0.9092 C   0  0  1  0  0  3  0  0  0  0  0  0
   -0.5217    0.6366   -2.0149 C   0  0  0  0  0  3  0  0  0  0  0  0
   -1.3241   -0.5281   -2.2019 C   0  0  0  0  0  0  0  0  0  0  0  0
   -2.3485   -0.5210   -1.2183 C   0  0  0  0  0  0  0  0  0  0  0  0
   -2.1577    0.6405   -0.3938 C   0  0  2  0  0  3  0  0  0  0  0  0
   -3.1297    1.0166    0.6987 C   0  0  0  0  0  0  0  0  0  0  0  0
   -4.1382   -0.1062    0.9976 C   0  0  0  0  0  0  0  0  0  0  0  0
   -4.6488   -0.7802   -0.2830 C   0  0  0  0  0  0  0  0  0  0  0  0
   -3.5013   -1.4686   -1.0412 C   0  0  0  0  0  0  0  0  0  0  0  0
    1.0449    1.3963    0.9091 C   0  0  1  0  0  3  0  0  0  0  0  0
    0.5223    0.6369    2.0150 C   0  0  0  0  0  3  0  0  0  0  0  0
    1.3249   -0.5277    2.2020 C   0  0  0  0  0  0  0  0  0  0  0  0
    2.3489   -0.5207    1.2179 C   0  0  0  0  0  0  0  0  0  0  0  0
    2.1578    0.6407    0.3934 C   0  0  2  0  0  3  0  0  0  0  0  0
    3.1295    1.0167   -0.6995 C   0  0  0  0  0  0  0  0  0  0  0  0
    4.1376   -0.1063   -0.9989 C   0  0  0  0  0  0  0  0  0  0  0  0
    4.6489   -0.7801    0.2816 C   0  0  0  0  0  0  0  0  0  0  0  0
    3.5017   -1.4682    1.0406 C   0  0  0  0  0  0  0  0  0  0  0  0
   -1.4268    3.1785    2.0242 H   0  0  0  0  0  0  0  0  0  0  0  0
   -1.7771    4.3045    0.6752 H   0  0  0  0  0  0  0  0  0  0  0  0
   -0.2892    4.5120    1.6576 H   0  0  0  0  0  0  0  0  0  0  0  0
    1.4267    3.1791   -2.0240 H   0  0  0  0  0  0  0  0  0  0  0  0
    1.7766    4.3051   -0.6750 H   0  0  0  0  0  0  0  0  0  0  0  0
    0.2886    4.5122   -1.6574 H   0  0  0  0  0  0  0  0  0  0  0  0
    0.3528    0.9036   -2.6234 H   0  0  0  0  0  0  0  0  0  0  0  0
   -1.1765   -1.2961   -2.9702 H   0  0  0  0  0  0  0  0  0  0  0  0
   -2.6016    1.3086    1.6298 H   0  0  0  0  0  0  0  0  0  0  0  0
   -3.6700    1.9322    0.3669 H   0  0  0  0  0  0  0  0  0  0  0  0
   -4.9841    0.3075    1.5838 H   0  0  0  0  0  0  0  0  0  0  0  0
   -3.6495   -0.8744    1.6329 H   0  0  0  0  0  0  0  0  0  0  0  0
   -5.4336   -1.5240   -0.0363 H   0  0  0  0  0  0  0  0  0  0  0  0
   -5.1281   -0.0196   -0.9394 H   0  0  0  0  0  0  0  0  0  0  0  0
   -3.8373   -1.8393   -2.0314 H   0  0  0  0  0  0  0  0  0  0  0  0
   -3.1624   -2.3565   -0.4633 H   0  0  0  0  0  0  0  0  0  0  0  0
   -0.3520    0.9039    2.6237 H   0  0  0  0  0  0  0  0  0  0  0  0
    1.1776   -1.2957    2.9704 H   0  0  0  0  0  0  0  0  0  0  0  0
    3.6701    1.9321   -0.3678 H   0  0  0  0  0  0  0  0  0  0  0  0
    2.6010    1.3089   -1.6303 H   0  0  0  0  0  0  0  0  0  0  0  0
    4.9831    0.3071   -1.5856 H   0  0  0  0  0  0  0  0  0  0  0  0
    3.6483   -0.8745   -1.6336 H   0  0  0  0  0  0  0  0  0  0  0  0
    5.4335   -1.5239    0.0347 H   0  0  0  0  0  0  0  0  0  0  0  0
    5.1286   -0.0193    0.9376 H   0  0  0  0  0  0  0  0  0  0  0  0
    3.8383   -1.8385    2.0308 H   0  0  0  0  0  0  0  0  0  0  0  0
    3.1627   -2.3564    0.4632 H   0  0  0  0  0  0  0  0  0  0  0  0
  1  2  1  0  0  0  0
  2 24  1  0  0  0  0
  2 22  1  0  0  0  0
  3 26  1  0  0  0  0
  3  1  1  0  0  0  0
  4  8  1  0  0  0  0
  4  1  1  1  0  0  0
  5  4  1  0  0  0  0
  6  5  1  0  0  0  0
  6  7  2  0  0  0  0
  7 12  1  0  0  0  0
  8  7  1  6  0  0  0
  8  9  1  0  0  0  0
  9 10  1  0  0  0  0
  9 30  1  0  0  0  0
 10 32  1  0  0  0  0
 10 33  1  0  0  0  0
 11 34  1  0  0  0  0
 11 10  1  0  0  0  0
 12 37  1  0  0  0  0
 12 11  1  0  0  0  0
 13  1  1  6  0  0  0
 13 14  1  0  0  0  0
 14 15  1  0  0  0  0
 14 38  1  0  0  0  0
 15 39  1  0  0  0  0
 16 15  2  0  0  0  0
 17 13  1  0  0  0  0
 17 16  1  1  0  0  0
 18 40  1  0  0  0  0
 18 17  1  0  0  0  0
 19 18  1  0  0  0  0
 19 20  1  0  0  0  0
 20 45  1  0  0  0  0
 20 21  1  0  0  0  0
 21 16  1  0  0  0  0
 21 46  1  0  0  0  0
 23  2  1  0  0  0  0
 25  3  1  0  0  0  0
 27  3  1  0  0  0  0
 28  5  1  0  0  0  0
 29  6  1  0  0  0  0
 31  9  1  0  0  0  0
 35 11  1  0  0  0  0
 36 12  1  0  0  0  0
 41 18  1  0  0  0  0
 42 19  1  0  0  0  0
 43 19  1  0  0  0  0
 44 20  1  0  0  0  0
 47 21  1  0  0  0  0
M  END
