4,6
q = 0.0, confidence = 0.992

 42 44  0  0  1  0  0  0  0  0999 V2000
    0.6052   -1.5278    0.0119 C   0  0  1  0  0  3  0  0  0  0  0  0
    1.5441   -2.4400    0.7641 C   0  0  0  0  0  0  0  0  0  0  0  0
    2.8310   -1.6796    1.0060 C   0  0  0  0  0  3  0  0  0  0  0  0
    3.7805   -1.4203    0.0063 C   0  0  0  0  0  3  0  0  0  0  0  0
    3.4743   -1.2081   -1.3800 C   0  0  0  0  0  3  0  0  0  0  0  0
    2.1841   -1.0000   -1.9241 C   0  0  0  0  0  3  0  0  0  0  0  0
    0.9043   -1.0260   -1.2598 C   0  0  0  0  0  3  0  0  0  0  0  0
   -0.5863   -1.3872    0.6183 O   0  0  0  0  0  0  0  0  0  0  0  0
   -1.5499   -0.4098    0.1319 C   0  0  1  0  0  0  0  0  0  0  0  0
   -2.2853   -0.9305   -1.1394 C   0  0  0  0  0  0  0  0  0  0  0  0
   -3.8108   -0.8483   -1.0337 C   0  0  2  0  0  0  0  0  0  0  0  0
   -4.2652    0.5379   -0.4566 C   0  0  0  0  0  0  0  0  0  0  0  0
   -3.9585   -0.1137    0.9443 C   0  0  2  0  0  0  0  0  0  0  0  0
   -2.4718   -0.0802    1.3428 C   0  0  2  0  0  0  0  0  0  0  0  0
   -5.7716    0.7690   -0.6424 C   0  0  0  0  0  0  0  0  0  0  0  0
   -3.5307    1.7988   -0.9174 C   0  0  0  0  0  0  0  0  0  0  0  0
   -2.0564    1.2000    2.0751 C   0  0  0  0  0  0  0  0  0  0  0  0
   -4.2549   -1.4942    0.3014 C   0  0  0  0  0  0  0  0  0  0  0  0
    1.7138   -3.3829    0.2000 H   0  0  0  0  0  0  0  0  0  0  0  0
    1.0619   -2.6988    1.7238 H   0  0  0  0  0  0  0  0  0  0  0  0
    3.1783   -1.6021    2.0471 H   0  0  0  0  0  0  0  0  0  0  0  0
    4.8227   -1.2304    0.3083 H   0  0  0  0  0  0  0  0  0  0  0  0
    4.3216   -1.0162   -2.0555 H   0  0  0  0  0  0  0  0  0  0  0  0
    2.1563   -0.6642   -2.9720 H   0  0  0  0  0  0  0  0  0  0  0  0
    0.0908   -0.5546   -1.8254 H   0  0  0  0  0  0  0  0  0  0  0  0
   -0.9541    0.4937   -0.1237 H   0  0  0  0  0  0  0  0  0  0  0  0
   -1.9432   -0.3640   -2.0309 H   0  0  0  0  0  0  0  0  0  0  0  0
   -1.9914   -1.9883   -1.3037 H   0  0  0  0  0  0  0  0  0  0  0  0
   -4.2884   -1.1883   -1.9771 H   0  0  0  0  0  0  0  0  0  0  0  0
   -4.5888    0.2177    1.7965 H   0  0  0  0  0  0  0  0  0  0  0  0
   -2.3258   -0.9261    2.0492 H   0  0  0  0  0  0  0  0  0  0  0  0
   -6.0026    0.9949   -1.7043 H   0  0  0  0  0  0  0  0  0  0  0  0
   -6.1071    1.6353   -0.0352 H   0  0  0  0  0  0  0  0  0  0  0  0
   -6.3841   -0.1037   -0.3448 H   0  0  0  0  0  0  0  0  0  0  0  0
   -3.7709    2.0088   -1.9811 H   0  0  0  0  0  0  0  0  0  0  0  0
   -3.8573    2.6813   -0.3298 H   0  0  0  0  0  0  0  0  0  0  0  0
   -2.4294    1.7420   -0.8379 H   0  0  0  0  0  0  0  0  0  0  0  0
   -2.1529    2.0976    1.4333 H   0  0  0  0  0  0  0  0  0  0  0  0
   -1.0076    1.1414    2.4225 H   0  0  0  0  0  0  0  0  0  0  0  0
   -2.6980    1.3572    2.9657 H   0  0  0  0  0  0  0  0  0  0  0  0
   -3.6576   -2.3548    0.6680 H   0  0  0  0  0  0  0  0  0  0  0  0
   -5.3247   -1.7712    0.3188 H   0  0  0  0  0  0  0  0  0  0  0  0
  1  8  1  6  0  0  0
  1  2  1  0  0  0  0
  2  3  1  0  0  0  0
  2 20  1  0  0  0  0
  3 21  1  0  0  0  0
  4 22  1  0  0  0  0
  4  3  1  0  0  0  0
  5  4  1  0  0  0  0
  6  5  1  0  0  0  0
  6  7  1  0  0  0  0
  7  1  1  0  0  0  0
  9 26  1  6  0  0  0
  9  8  1  0  0  0  0
  9 14  1  0  0  0  0
 10 11  1  0  0  0  0
 10  9  1  0  0  0  0
 11 29  1  6  0  0  0
 11 12  1  0  0  0  0
 11 18  1  0  0  0  0
 12 13  1  0  0  0  0
 13 14  1  0  0  0  0
 13 30  1  1  0  0  0
 14 31  1  1  0  0  0
 14 17  1  0  0  0  0
 15 12  1  0  0  0  0
 15 34  1  0  0  0  0
 15 33  1  0  0  0  0
 16 37  1  0  0  0  0
 16 12  1  0  0  0  0
 16 36  1  0  0  0  0
 17 39  1  0  0  0  0
 17 40  1  0  0  0  0
 18 42  1  0  0  0  0
 18 41  1  0  0  0  0
 18 13  1  0  0  0  0
 19  2  1  0  0  0  0
 23  5  1  0  0  0  0
 24  6  1  0  0  0  0
 25  7  1  0  0  0  0
 27 10  1  0  0  0  0
 28 10  1  0  0  0  0
 32 15  1  0  0  0  0
 35 16  1  0  0  0  0
 38 17  1  0  0  0  0
M  END
