2,12
q = -2.0, confidence = 0.876

 44 47  0  0  1  0  0  0  0  0999 V2000
   -2.4568    0.3435   -0.4822 C   0  0  0  0  0  0  0  0  0  0  0  0
   -1.7763    1.5670   -0.7879 C   0  0  0  0  0  3  0  0  0  0  0  0
   -1.2889    2.1293    0.4325 C   0  0  0  0  0  0  0  0  0  0  0  0
   -1.5669    1.1878    1.4670 C   0  0  0  0  0  0  0  0  0  0  0  0
   -2.3413    0.1160    0.9169 C   0  0  0  0  0  0  0  0  0  0  0  0
   -2.9981   -1.0299    1.6245 C   0  0  0  0  0  0  0  0  0  0  0  0
   -4.0203   -1.7428    0.7203 C   0  0  0  0  0  0  0  0  0  0  0  0
   -3.4942   -1.9106   -0.7126 C   0  0  0  0  0  0  0  0  0  0  0  0
   -3.2579   -0.5487   -1.3802 C   0  0  0  0  0  0  0  0  0  0  0  0
    2.4073    0.1356   -0.7306 C   0  0  0  0  0  0  0  0  0  0  0  0
    1.7441    1.2687   -1.3028 C   0  0  0  0  0  0  0  0  0  0  0  0
    1.3344    2.1353   -0.2544 C   0  0  2  0  0  3  0  0  0  0  0  0
    1.6868    1.4954    0.9833 C   0  0  0  0  0  0  0  0  0  0  0  0
    2.4118    0.3024    0.6849 C   0  0  0  0  0  0  0  0  0  0  0  0
    3.1341   -0.6237    1.6165 C   0  0  0  0  0  0  0  0  0  0  0  0
    4.0733   -1.5715    0.8468 C   0  0  0  0  0  0  0  0  0  0  0  0
    3.4057   -2.1328   -0.4177 C   0  0  0  0  0  0  0  0  0  0  0  0
    3.0786   -1.0145   -1.4181 C   0  0  0  0  0  0  0  0  0  0  0  0
   -0.5745    3.4457    0.5730 C   0  0  0  0  0  0  0  0  0  0  0  0
    0.6251    3.4547   -0.3835 C   0  0  0  0  0  0  0  0  0  0  0  0
   -1.6964    2.0160   -1.7861 H   0  0  0  0  0  0  0  0  0  0  0  0
   -1.2893    1.3016    2.5231 H   0  0  0  0  0  0  0  0  0  0  0  0
   -3.4779   -0.6623    2.5562 H   0  0  0  0  0  0  0  0  0  0  0  0
   -2.2057   -1.7420    1.9465 H   0  0  0  0  0  0  0  0  0  0  0  0
   -4.9673   -1.1587    0.6907 H   0  0  0  0  0  0  0  0  0  0  0  0
   -4.2761   -2.7289    1.1586 H   0  0  0  0  0  0  0  0  0  0  0  0
   -2.5307   -2.4645   -0.6945 H   0  0  0  0  0  0  0  0  0  0  0  0
   -4.2035   -2.5114   -1.3176 H   0  0  0  0  0  0  0  0  0  0  0  0
   -2.7413   -0.6650   -2.3544 H   0  0  0  0  0  0  0  0  0  0  0  0
   -4.2324   -0.0492   -1.5874 H   0  0  0  0  0  0  0  0  0  0  0  0
    1.5701    1.4355   -2.3727 H   0  0  0  0  0  0  0  0  0  0  0  0
    1.5173    1.9001    1.9890 H   0  0  0  0  0  0  0  0  0  0  0  0
    2.3827   -1.2160    2.1835 H   0  0  0  0  0  0  0  0  0  0  0  0
    3.6968   -0.0264    2.3649 H   0  0  0  0  0  0  0  0  0  0  0  0
    4.9992   -1.0261    0.5560 H   0  0  0  0  0  0  0  0  0  0  0  0
    4.3936   -2.3960    1.5157 H   0  0  0  0  0  0  0  0  0  0  0  0
    4.0599   -2.8888   -0.8976 H   0  0  0  0  0  0  0  0  0  0  0  0
    2.4626   -2.6473   -0.1352 H   0  0  0  0  0  0  0  0  0  0  0  0
    4.0142   -0.6406   -1.8943 H   0  0  0  0  0  0  0  0  0  0  0  0
    2.4298   -1.3831   -2.2393 H   0  0  0  0  0  0  0  0  0  0  0  0
   -0.2342    3.5660    1.6213 H   0  0  0  0  0  0  0  0  0  0  0  0
   -1.2658    4.2910    0.3687 H   0  0  0  0  0  0  0  0  0  0  0  0
    0.2860    3.5873   -1.4310 H   0  0  0  0  0  0  0  0  0  0  0  0
    1.3144    4.2993   -0.1657 H   0  0  0  0  0  0  0  0  0  0  0  0
  1  5  2  0  0  0  0
  2  1  1  0  0  0  0
  2  3  1  0  0  0  0
  3 19  1  0  0  0  0
  3  4  2  0  0  0  0
  4 22  1  0  0  0  0
  5  4  1  0  0  0  0
  5  6  1  0  0  0  0
  6 24  1  0  0  0  0
  6 23  1  0  0  0  0
  7 26  1  0  0  0  0
  7  6  1  0  0  0  0
  8 27  1  0  0  0  0
  8  7  1  0  0  0  0
  9  8  1  0  0  0  0
  9  1  1  0  0  0  0
 10 14  1  0  0  0  0
 11 10  2  0  0  0  0
 11 12  1  0  0  0  0
 12 20  1  1  0  0  0
 12 13  1  0  0  0  0
 13 32  1  0  0  0  0
 14 13  2  0  0  0  0
 14 15  1  0  0  0  0
 15 33  1  0  0  0  0
 15 34  1  0  0  0  0
 16 36  1  0  0  0  0
 16 15  1  0  0  0  0
 17 38  1  0  0  0  0
 17 16  1  0  0  0  0
 18 10  1  0  0  0  0
 18 17  1  0  0  0  0
 19 41  1  0  0  0  0
 20 44  1  0  0  0  0
 20 19  1  0  0  0  0
 21  2  1  0  0  0  0
 25  7  1  0  0  0  0
 28  8  1  0  0  0  0
 29  9  1  0  0  0  0
 30  9  1  0  0  0  0
 31 11  1  0  0  0  0
 35 16  1  0  0  0  0
 37 17  1  0  0  0  0
 39 18  1  0  0  0  0
 40 18  1  0  0  0  0
 42 19  1  0  0  0  0
 43 20  1  0  0  0  0
M  END
