4,6
q = 0.0, confidence = 1.0

 30 32  0  0  1  0  0  0  0  0999 V2000
    2.7448   -0.0170   -0.7875 N   0  0  0  0  0  0  0  0  0  0  0  0
    0.2638    1.4225   -0.2173 C   0  0  2  0  0  3  0  0  0  0  0  0
    0.2965    0.7074    1.0065 C   0  0  0  0  0  3  0  0  0  0  0  0
    0.2457   -0.7082    0.9923 C   0  0  0  0  0  3  0  0  0  0  0  0
    0.2076   -1.4222   -0.2376 C   0  0  1  0  0  3  0  0  0  0  0  0
   -0.1524   -0.6906   -1.4109 C   0  0  0  0  0  3  0  0  0  0  0  0
   -0.1030    0.7367   -1.4125 C   0  0  0  0  0  3  0  0  0  0  0  0
    0.9562    2.7563   -0.2539 C   0  0  0  0  0  0  0  0  0  0  0  0
    2.4980    2.4617   -0.5320 C   0  0  0  0  0  0  0  0  0  0  0  0
    2.9867    1.1216   -0.0431 C   0  0  0  0  0  0  0  0  0  0  0  0
    3.4663    0.6755    1.1929 C   0  0  0  0  0  0  0  0  0  0  0  0
    3.4462   -0.7556    1.1832 C   0  0  0  0  0  0  0  0  0  0  0  0
    2.9547   -1.1715   -0.0587 C   0  0  0  0  0  0  0  0  0  0  0  0
    2.4387   -2.4920   -0.5706 C   0  0  0  0  0  0  0  0  0  0  0  0
    0.8924   -2.7584   -0.2959 C   0  0  0  0  0  0  0  0  0  0  0  0
    0.4635    1.2442    1.9485 H   0  0  0  0  0  0  0  0  0  0  0  0
    0.3786   -1.2643    1.9306 H   0  0  0  0  0  0  0  0  0  0  0  0
   -0.3379   -1.2315   -2.3513 H   0  0  0  0  0  0  0  0  0  0  0  0
   -0.2638    1.2992   -2.3431 H   0  0  0  0  0  0  0  0  0  0  0  0
    0.5603    3.4288   -1.0403 H   0  0  0  0  0  0  0  0  0  0  0  0
    0.8482    3.2730    0.7198 H   0  0  0  0  0  0  0  0  0  0  0  0
    3.0985    3.2724   -0.0747 H   0  0  0  0  0  0  0  0  0  0  0  0
    2.6676    2.5301   -1.6276 H   0  0  0  0  0  0  0  0  0  0  0  0
    3.7727    1.3199    2.0252 H   0  0  0  0  0  0  0  0  0  0  0  0
    3.7366   -1.4196    2.0058 H   0  0  0  0  0  0  0  0  0  0  0  0
    2.2933   -0.0034   -1.7006 H   0  0  0  0  0  0  0  0  0  0  0  0
    2.6067   -2.5424   -1.6677 H   0  0  0  0  0  0  0  0  0  0  0  0
    3.0246   -3.3229   -0.1307 H   0  0  0  0  0  0  0  0  0  0  0  0
    0.7777   -3.2874    0.6709 H   0  0  0  0  0  0  0  0  0  0  0  0
    0.4866   -3.4172   -1.0894 H   0  0  0  0  0  0  0  0  0  0  0  0
  1 13  1  0  0  0  0
  1 10  1  0  0  0  0
  2  7  1  6  0  0  0
  2  3  1  0  0  0  0
  3 16  1  0  0  0  0
  4  3  1  0  0  0  0
  4 17  1  0  0  0  0
  5  6  1  6  0  0  0
  5  4  1  0  0  0  0
  7  6  1  0  0  0  0
  8  2  1  0  0  0  0
  8 21  1  0  0  0  0
  9  8  1  0  0  0  0
  9 22  1  0  0  0  0
  9 10  1  0  0  0  0
 10 11  2  0  0  0  0
 11 24  1  0  0  0  0
 12 11  1  0  0  0  0
 12 25  1  0  0  0  0
 13 12  2  0  0  0  0
 14 15  1  0  0  0  0
 14 28  1  0  0  0  0
 14 13  1  0  0  0  0
 15  5  1  0  0  0  0
 15 29  1  0  0  0  0
 18  6  1  0  0  0  0
 19  7  1  0  0  0  0
 20  8  1  0  0  0  0
 23  9  1  0  0  0  0
 26  1  1  0  0  0  0
 27 14  1  0  0  0  0
 30 15  1  0  0  0  0
M  END
