3,31
q = -2.0, confidence = 0.782

 57 60  0  0  1  0  0  0  0  0999 V2000
    0.0001    2.6630    0.0001 Si  0  0  0  0  0  0  0  0  0  0  0  0
    1.1137    1.3799   -0.8780 C   0  0  2  0  0  3  0  0  0  0  0  0
    0.5906    0.6309   -2.0177 C   0  0  2  0  0  3  0  0  0  0  0  0
    1.3316   -0.5691   -2.1699 C   0  0  0  0  0  3  0  0  0  0  0  0
    1.1380   -1.3341   -2.9293 H   0  0  0  0  0  0  0  0  0  0  0  0
    2.3713   -0.5977   -1.1946 C   0  0  0  0  0  0  0  0  0  0  0  0
    3.3728   -1.5912   -0.9627 C   0  0  0  0  0  0  0  0  0  0  0  0
    4.3092   -1.3046    0.0185 C   0  0  0  0  0  0  0  0  0  0  0  0
    5.0998   -2.0375    0.2423 H   0  0  0  0  0  0  0  0  0  0  0  0
    4.3083   -0.0597    0.7042 C   0  0  0  0  0  0  0  0  0  0  0  0
    5.1424    0.1579    1.3904 H   0  0  0  0  0  0  0  0  0  0  0  0
    3.3404    0.9246    0.5156 C   0  0  0  0  0  0  0  0  0  0  0  0
    2.2781    0.6289   -0.4121 C   0  0  0  0  0  0  0  0  0  0  0  0
   -0.5395    0.9792   -2.9476 C   0  0  0  0  0  0  0  0  0  0  0  0
   -0.2714    1.8498   -3.5811 H   0  0  0  0  0  0  0  0  0  0  0  0
   -1.4801    1.2233   -2.4231 H   0  0  0  0  0  0  0  0  0  0  0  0
   -0.7574    0.1213   -3.6099 H   0  0  0  0  0  0  0  0  0  0  0  0
    3.3504   -2.8772   -1.7336 C   0  0  0  0  0  0  0  0  0  0  0  0
    3.3845   -2.7010   -2.8294 H   0  0  0  0  0  0  0  0  0  0  0  0
    2.4106   -3.4330   -1.5250 H   0  0  0  0  0  0  0  0  0  0  0  0
    4.2022   -3.5289   -1.4615 H   0  0  0  0  0  0  0  0  0  0  0  0
    3.5351    2.2809    1.1376 C   0  0  0  0  0  0  0  0  0  0  0  0
    2.9138    2.4485    2.0398 H   0  0  0  0  0  0  0  0  0  0  0  0
    3.2819    3.0885    0.4229 H   0  0  0  0  0  0  0  0  0  0  0  0
    4.5893    2.4127    1.4481 H   0  0  0  0  0  0  0  0  0  0  0  0
    0.6984    3.8769    1.2738 C   0  0  0  0  0  0  0  0  0  0  0  0
    1.1401    3.4410    2.1832 H   0  0  0  0  0  0  0  0  0  0  0  0
   -0.1670    4.4987    1.5871 H   0  0  0  0  0  0  0  0  0  0  0  0
    1.4422    4.5537    0.8085 H   0  0  0  0  0  0  0  0  0  0  0  0
   -1.1136    1.3799    0.8781 C   0  0  2  0  0  3  0  0  0  0  0  0
   -0.5904    0.6308    2.0177 C   0  0  2  0  0  3  0  0  0  0  0  0
   -2.2780    0.6290    0.4122 C   0  0  0  0  0  0  0  0  0  0  0  0
   -1.3316   -0.5690    2.1700 C   0  0  0  0  0  3  0  0  0  0  0  0
    0.5397    0.9791    2.9476 C   0  0  0  0  0  0  0  0  0  0  0  0
    0.2717    1.8497    3.5812 H   0  0  0  0  0  0  0  0  0  0  0  0
    1.4802    1.2231    2.4231 H   0  0  0  0  0  0  0  0  0  0  0  0
    0.7576    0.1211    3.6098 H   0  0  0  0  0  0  0  0  0  0  0  0
   -1.1379   -1.3341    2.9293 H   0  0  0  0  0  0  0  0  0  0  0  0
   -2.3713   -0.5976    1.1947 C   0  0  0  0  0  0  0  0  0  0  0  0
   -3.3729   -1.5910    0.9629 C   0  0  0  0  0  0  0  0  0  0  0  0
   -4.3093   -1.3044   -0.0183 C   0  0  0  0  0  0  0  0  0  0  0  0
   -5.1000   -2.0372   -0.2421 H   0  0  0  0  0  0  0  0  0  0  0  0
   -4.3083   -0.0595   -0.7041 C   0  0  0  0  0  0  0  0  0  0  0  0
   -5.1423    0.1581   -1.3903 H   0  0  0  0  0  0  0  0  0  0  0  0
   -3.3403    0.9247   -0.5155 C   0  0  0  0  0  0  0  0  0  0  0  0
   -3.5347    2.2810   -1.1377 C   0  0  0  0  0  0  0  0  0  0  0  0
   -2.9133    2.4484   -2.0398 H   0  0  0  0  0  0  0  0  0  0  0  0
   -3.2815    3.0886   -0.4231 H   0  0  0  0  0  0  0  0  0  0  0  0
   -4.5889    2.4129   -1.4483 H   0  0  0  0  0  0  0  0  0  0  0  0
   -3.3505   -2.8770    1.7337 C   0  0  0  0  0  0  0  0  0  0  0  0
   -3.3847   -2.7008    2.8295 H   0  0  0  0  0  0  0  0  0  0  0  0
   -2.4108   -3.4328    1.5251 H   0  0  0  0  0  0  0  0  0  0  0  0
   -4.2023   -3.5287    1.4616 H   0  0  0  0  0  0  0  0  0  0  0  0
   -0.6982    3.8769   -1.2736 C   0  0  0  0  0  0  0  0  0  0  0  0
   -1.1400    3.4411   -2.1831 H   0  0  0  0  0  0  0  0  0  0  0  0
    0.1672    4.4987   -1.5870 H   0  0  0  0  0  0  0  0  0  0  0  0
   -1.4420    4.5538   -0.8082 H   0  0  0  0  0  0  0  0  0  0  0  0
  1 26  1  0  0  0  0
  2 13  1  0  0  0  0
  2  1  1  1  0  0  0
  3 14  1  6  0  0  0
  3  2  1  0  0  0  0
  4  3  1  0  0  0  0
  4  6  1  0  0  0  0
  5  4  1  0  0  0  0
  6  7  2  0  0  0  0
  6 13  1  0  0  0  0
  7  8  1  0  0  0  0
  8  9  1  0  0  0  0
  8 10  2  0  0  0  0
 10 11  1  0  0  0  0
 12 10  1  0  0  0  0
 12 22  1  0  0  0  0
 13 12  2  0  0  0  0
 14 16  1  0  0  0  0
 15 14  1  0  0  0  0
 17 14  1  0  0  0  0
 18 20  1  0  0  0  0
 18 21  1  0  0  0  0
 18  7  1  0  0  0  0
 19 18  1  0  0  0  0
 22 25  1  0  0  0  0
 22 23  1  0  0  0  0
 24 22  1  0  0  0  0
 26 28  1  0  0  0  0
 26 27  1  0  0  0  0
 29 26  1  0  0  0  0
 30  1  1  6  0  0  0
 30 31  1  0  0  0  0
 31 33  1  0  0  0  0
 31 34  1  1  0  0  0
 32 30  1  0  0  0  0
 32 39  1  0  0  0  0
 33 38  1  0  0  0  0
 34 35  1  0  0  0  0
 34 37  1  0  0  0  0
 36 34  1  0  0  0  0
 39 33  1  0  0  0  0
 40 39  2  0  0  0  0
 40 50  1  0  0  0  0
 41 40  1  0  0  0  0
 42 41  1  0  0  0  0
 43 45  1  0  0  0  0
 43 41  2  0  0  0  0
 44 43  1  0  0  0  0
 45 32  2  0  0  0  0
 46 45  1  0  0  0  0
 46 48  1  0  0  0  0
 47 46  1  0  0  0  0
 49 46  1  0  0  0  0
 50 51  1  0  0  0  0
 52 50  1  0  0  0  0
 53 50  1  0  0  0  0
 54 57  1  0  0  0  0
 54  1  1  0  0  0  0
 55 54  1  0  0  0  0
 56 54  1  0  0  0  0
M  END
