14
q = -2.0, confidence = 0.96

 61 62  0  0  1  0  0  0  0  0999 V2000
    3.3941    0.0201   -0.3540 Si  0  0  0  0  0  0  0  0  0  0  0  0
    1.9564   -2.3409    1.0662 Si  0  0  0  0  0  0  0  0  0  0  0  0
    3.1309   -1.1580    0.8229 O   0  0  0  0  0  0  0  0  0  0  0  0
   -1.7671   -0.5382    1.5777 C   0  0  0  0  0  0  0  0  0  0  0  0
   -0.3709   -0.5877    1.8420 C   0  0  0  0  0  0  0  0  0  0  0  0
    0.2246   -1.5962    1.0046 C   0  0  2  0  0  3  0  0  0  0  0  0
   -0.8588   -2.1593    0.2485 C   0  0  0  0  0  0  0  0  0  0  0  0
   -2.0873   -1.5344    0.5982 C   0  0  0  0  0  0  0  0  0  0  0  0
   -3.4716   -2.0047    0.1602 C   0  0  0  0  0  0  0  0  0  0  0  0
   -4.5704   -1.0578    0.6735 C   0  0  0  0  0  0  0  0  0  0  0  0
   -3.5636   -2.1351   -1.3736 C   0  0  0  0  0  0  0  0  0  0  0  0
   -3.6806   -3.4007    0.7985 C   0  0  0  0  0  0  0  0  0  0  0  0
    1.1987    1.7696    0.6332 C   0  0  0  0  0  0  0  0  0  0  0  0
    1.8653    1.1146   -0.4612 C   0  0  1  0  0  3  0  0  0  0  0  0
    1.2846    1.6605   -1.6557 C   0  0  0  0  0  0  0  0  0  0  0  0
    0.2867    2.5988   -1.2978 C   0  0  0  0  0  0  0  0  0  0  0  0
    0.2328    2.6934    0.1326 C   0  0  0  0  0  0  0  0  0  0  0  0
   -0.5472    3.7142    0.9597 C   0  0  0  0  0  0  0  0  0  0  0  0
    0.4932    4.6390    1.6362 C   0  0  0  0  0  0  0  0  0  0  0  0
   -1.3997    3.0298    2.0469 C   0  0  0  0  0  0  0  0  0  0  0  0
   -1.4635    4.5637    0.0619 C   0  0  0  0  0  0  0  0  0  0  0  0
    2.2584   -3.0339    2.7860 C   0  0  0  0  0  0  0  0  0  0  0  0
    2.0706   -3.6628   -0.2675 C   0  0  0  0  0  0  0  0  0  0  0  0
    3.7363   -0.7448   -2.0360 C   0  0  0  0  0  0  0  0  0  0  0  0
    4.8413    1.0529    0.2548 C   0  0  0  0  0  0  0  0  0  0  0  0
   -2.4845    0.1392    2.0539 H   0  0  0  0  0  0  0  0  0  0  0  0
    0.1530    0.0133    2.5936 H   0  0  0  0  0  0  0  0  0  0  0  0
   -0.7497   -2.9559   -0.4960 H   0  0  0  0  0  0  0  0  0  0  0  0
   -4.4289   -0.0320    0.2830 H   0  0  0  0  0  0  0  0  0  0  0  0
   -4.5839   -1.0166    1.7820 H   0  0  0  0  0  0  0  0  0  0  0  0
   -5.5648   -1.4201    0.3430 H   0  0  0  0  0  0  0  0  0  0  0  0
   -2.7699   -2.7946   -1.7772 H   0  0  0  0  0  0  0  0  0  0  0  0
   -3.4637   -1.1478   -1.8625 H   0  0  0  0  0  0  0  0  0  0  0  0
   -4.5434   -2.5708   -1.6573 H   0  0  0  0  0  0  0  0  0  0  0  0
   -4.6907   -3.7866    0.5492 H   0  0  0  0  0  0  0  0  0  0  0  0
   -3.5919   -3.3534    1.9030 H   0  0  0  0  0  0  0  0  0  0  0  0
   -2.9340   -4.1311    0.4268 H   0  0  0  0  0  0  0  0  0  0  0  0
    1.4511    1.6270    1.6907 H   0  0  0  0  0  0  0  0  0  0  0  0
    1.5397    1.3647   -2.6797 H   0  0  0  0  0  0  0  0  0  0  0  0
   -0.3540    3.1459   -1.9975 H   0  0  0  0  0  0  0  0  0  0  0  0
   -0.0201    5.4342    2.2153 H   0  0  0  0  0  0  0  0  0  0  0  0
    1.1420    5.1267    0.8810 H   0  0  0  0  0  0  0  0  0  0  0  0
    1.1463    4.0766    2.3335 H   0  0  0  0  0  0  0  0  0  0  0  0
   -0.7852    2.3826    2.7050 H   0  0  0  0  0  0  0  0  0  0  0  0
   -2.1937    2.4121    1.5847 H   0  0  0  0  0  0  0  0  0  0  0  0
   -1.8859    3.7926    2.6887 H   0  0  0  0  0  0  0  0  0  0  0  0
   -0.8789    5.1311   -0.6900 H   0  0  0  0  0  0  0  0  0  0  0  0
   -2.0202    5.2987    0.6775 H   0  0  0  0  0  0  0  0  0  0  0  0
   -2.1989    3.9303   -0.4714 H   0  0  0  0  0  0  0  0  0  0  0  0
    1.5125   -3.8161    3.0335 H   0  0  0  0  0  0  0  0  0  0  0  0
    2.1834   -2.2329    3.5490 H   0  0  0  0  0  0  0  0  0  0  0  0
    3.2711   -3.4801    2.8569 H   0  0  0  0  0  0  0  0  0  0  0  0
    1.4253   -4.5325   -0.0270 H   0  0  0  0  0  0  0  0  0  0  0  0
    3.1136   -4.0274   -0.3608 H   0  0  0  0  0  0  0  0  0  0  0  0
    1.7529   -3.2607   -1.2509 H   0  0  0  0  0  0  0  0  0  0  0  0
    4.0802    0.0265   -2.7557 H   0  0  0  0  0  0  0  0  0  0  0  0
    2.8227   -1.2153   -2.4517 H   0  0  0  0  0  0  0  0  0  0  0  0
    4.5303   -1.5150   -1.9590 H   0  0  0  0  0  0  0  0  0  0  0  0
    5.0573    1.8822   -0.4489 H   0  0  0  0  0  0  0  0  0  0  0  0
    5.7543    0.4307    0.3515 H   0  0  0  0  0  0  0  0  0  0  0  0
    4.6182    1.4925    1.2477 H   0  0  0  0  0  0  0  0  0  0  0  0
  1 25  1  0  0  0  0
  1  3  1  0  0  0  0
  2 22  1  0  0  0  0
  3  2  1  0  0  0  0
  4  5  2  0  0  0  0
  4 26  1  0  0  0  0
  5 27  1  0  0  0  0
  6  2  1  1  0  0  0
  6  5  1  0  0  0  0
  7  8  2  0  0  0  0
  7  6  1  0  0  0  0
  8  4  1  0  0  0  0
  9  8  1  0  0  0  0
  9 10  1  0  0  0  0
  9 12  1  0  0  0  0
 10 30  1  0  0  0  0
 11  9  1  0  0  0  0
 12 36  1  0  0  0  0
 13 38  1  0  0  0  0
 14  1  1  6  0  0  0
 14 13  1  0  0  0  0
 15 16  2  0  0  0  0
 15 14  1  0  0  0  0
 16 17  1  0  0  0  0
 17 13  2  0  0  0  0
 17 18  1  0  0  0  0
 18 19  1  0  0  0  0
 18 20  1  0  0  0  0
 19 41  1  0  0  0  0
 19 43  1  0  0  0  0
 20 46  1  0  0  0  0
 20 44  1  0  0  0  0
 21 48  1  0  0  0  0
 21 18  1  0  0  0  0
 22 52  1  0  0  0  0
 22 50  1  0  0  0  0
 22 51  1  0  0  0  0
 23 53  1  0  0  0  0
 23  2  1  0  0  0  0
 24 58  1  0  0  0  0
 24  1  1  0  0  0  0
 25 60  1  0  0  0  0
 25 61  1  0  0  0  0
 28  7  1  0  0  0  0
 29 10  1  0  0  0  0
 31 10  1  0  0  0  0
 32 11  1  0  0  0  0
 33 11  1  0  0  0  0
 34 11  1  0  0  0  0
 35 12  1  0  0  0  0
 37 12  1  0  0  0  0
 39 15  1  0  0  0  0
 40 16  1  0  0  0  0
 42 19  1  0  0  0  0
 45 20  1  0  0  0  0
 47 21  1  0  0  0  0
 49 21  1  0  0  0  0
 54 23  1  0  0  0  0
 55 23  1  0  0  0  0
 56 24  1  0  0  0  0
 57 24  1  0  0  0  0
 59 25  1  0  0  0  0
M  END
