3,4
q = -2.0, confidence = 0.648

 24 23  0  0  0  0  0  0  0  0999 V2000
    2.3440    1.1969    0.1758 Si  0  0  0  0  0  0  0  0  0  0  0  0
    2.4132   -1.1549   -0.0037 Si  0  0  0  0  0  0  0  0  0  0  0  0
    0.8439    1.4906   -0.9573 C   0  0  0  0  0  3  0  0  0  0  0  0
    0.8775   -1.3612   -1.1088 C   0  0  0  0  0  3  0  0  0  0  0  0
    3.8856    2.1683   -0.3799 C   0  0  0  0  0  0  0  0  0  0  0  0
    1.9176    1.7350    1.9550 C   0  0  0  0  0  0  0  0  0  0  0  0
    3.9750   -1.9198   -0.7814 C   0  0  0  0  0  0  0  0  0  0  0  0
    2.1297   -1.9955    1.6844 C   0  0  0  0  0  0  0  0  0  0  0  0
    0.4249    2.5186   -0.8713 H   0  0  0  0  0  0  0  0  0  0  0  0
    1.1514    1.3361   -2.0152 H   0  0  0  0  0  0  0  0  0  0  0  0
    1.1527   -1.0817   -2.1497 H   0  0  0  0  0  0  0  0  0  0  0  0
    0.4798   -2.4009   -1.1320 H   0  0  0  0  0  0  0  0  0  0  0  0
    4.7492    1.9656    0.2874 H   0  0  0  0  0  0  0  0  0  0  0  0
    4.1803    1.8876   -1.4117 H   0  0  0  0  0  0  0  0  0  0  0  0
    3.6931    3.2620   -0.3659 H   0  0  0  0  0  0  0  0  0  0  0  0
    2.7741    1.5778    2.6420 H   0  0  0  0  0  0  0  0  0  0  0  0
    1.6490    2.8126    1.9881 H   0  0  0  0  0  0  0  0  0  0  0  0
    1.0558    1.1564    2.3453 H   0  0  0  0  0  0  0  0  0  0  0  0
    4.8634   -1.7609   -0.1351 H   0  0  0  0  0  0  0  0  0  0  0  0
    3.8516   -3.0135   -0.9295 H   0  0  0  0  0  0  0  0  0  0  0  0
    4.1885   -1.4645   -1.7701 H   0  0  0  0  0  0  0  0  0  0  0  0
    3.0344   -1.9239    2.3225 H   0  0  0  0  0  0  0  0  0  0  0  0
    1.2919   -1.5222    2.2354 H   0  0  0  0  0  0  0  0  0  0  0  0
    1.8915   -3.0731    1.5559 H   0  0  0  0  0  0  0  0  0  0  0  0
  1  6  1  0  0  0  0
  2  1  1  0  0  0  0
  2  8  1  0  0  0  0
  3  9  1  0  0  0  0
  3  1  1  0  0  0  0
  4  2  1  0  0  0  0
  5 15  1  0  0  0  0
  5  1  1  0  0  0  0
  5 13  1  0  0  0  0
  6 17  1  0  0  0  0
  6 18  1  0  0  0  0
  6 16  1  0  0  0  0
  7 19  1  0  0  0  0
  7  2  1  0  0  0  0
  8 23  1  0  0  0  0
  8 22  1  0  0  0  0
 10  3  1  0  0  0  0
 11  4  1  0  0  0  0
 12  4  1  0  0  0  0
 14  5  1  0  0  0  0
 20  7  1  0  0  0  0
 21  7  1  0  0  0  0
 24  8  1  0  0  0  0
M  END
