1,4
q = -2.0, confidence = 0.744

 13 12  0  0  0  0  0  0  0  0999 V2000
   -0.4669    0.5474   -2.5769 C   0  0  0  0  0  3  0  0  0  0  0  0
   -1.6905   -0.1636   -3.1859 C   0  0  0  0  0  0  0  0  0  0  0  0
   -1.9026   -1.3618   -2.2668 C   0  0  0  0  0  3  0  0  0  0  0  0
   -0.9181   -2.3680   -2.0863 C   0  0  0  0  0  3  0  0  0  0  0  0
    0.4672   -2.1461   -2.3873 C   0  0  0  0  0  3  0  0  0  0  0  0
   -0.6776    1.6120   -2.3453 H   0  0  0  0  0  0  0  0  0  0  0  0
    0.4262    0.5186   -3.2345 H   0  0  0  0  0  0  0  0  0  0  0  0
   -2.5929    0.4780   -3.1534 H   0  0  0  0  0  0  0  0  0  0  0  0
   -1.5611   -0.4766   -4.2478 H   0  0  0  0  0  0  0  0  0  0  0  0
   -2.9223   -1.5895   -1.9177 H   0  0  0  0  0  0  0  0  0  0  0  0
   -1.1905   -3.2516   -1.4828 H   0  0  0  0  0  0  0  0  0  0  0  0
    1.1688   -2.9457   -2.1044 H   0  0  0  0  0  0  0  0  0  0  0  0
    0.7643   -1.5762   -3.2823 H   0  0  0  0  0  0  0  0  0  0  0  0
  1  6  1  0  0  0  0
  2  8  1  0  0  0  0
  2  1  1  0  0  0  0
  2  3  1  0  0  0  0
  3  4  1  0  0  0  0
  3 10  1  0  0  0  0
  4 11  1  0  0  0  0
  5 12  1  0  0  0  0
  5  4  1  0  0  0  0
  7  1  1  0  0  0  0
  9  2  1  0  0  0  0
 13  5  1  0  0  0  0
M  END
