4
q = -2.0, confidence = 0.942

 75 76  0  0  1  0  0  0  0  0999 V2000
    0.0001    0.0001    2.6826 Si  0  0  0  0  0  0  0  0  0  0  0  0
   -0.6556    1.3773    3.7868 C   0  0  0  0  0  0  0  0  0  0  0  0
    0.6559   -1.3770    3.7869 C   0  0  0  0  0  0  0  0  0  0  0  0
    1.2123    0.6803    1.3989 C   0  0  1  0  0  3  0  0  0  0  0  0
    2.1686   -0.0217    0.5672 C   0  0  2  0  0  3  0  0  0  0  0  0
    3.2849   -1.5359    0.8710 Si  0  0  0  0  0  0  0  0  0  0  0  0
    4.5352   -1.5802   -0.5468 C   0  0  0  0  0  0  0  0  0  0  0  0
    4.1955   -1.2272    2.5037 C   0  0  0  0  0  0  0  0  0  0  0  0
    2.4532   -3.2371    0.9098 C   0  0  0  0  0  0  0  0  0  0  0  0
    2.4401    0.8396   -0.5553 C   0  0  0  0  0  0  0  0  0  0  0  0
    1.6993    2.0444   -0.4525 C   0  0  0  0  0  0  0  0  0  0  0  0
    1.9299    3.2975   -1.2904 C   0  0  0  0  0  0  0  0  0  0  0  0
    0.7730    4.3025   -1.1549 C   0  0  0  0  0  0  0  0  0  0  0  0
    2.1505    2.9495   -2.7752 C   0  0  0  0  0  0  0  0  0  0  0  0
    3.2193    3.9469   -0.7259 C   0  0  0  0  0  0  0  0  0  0  0  0
    0.9020    1.9148    0.7296 C   0  0  0  0  0  3  0  0  0  0  0  0
   -1.2122   -0.6802    1.3990 C   0  0  1  0  0  3  0  0  0  0  0  0
   -2.1685    0.0219    0.5674 C   0  0  2  0  0  3  0  0  0  0  0  0
   -3.2846    1.5362    0.8711 Si  0  0  0  0  0  0  0  0  0  0  0  0
   -4.5349    1.5806   -0.5467 C   0  0  0  0  0  0  0  0  0  0  0  0
   -4.1953    1.2275    2.5038 C   0  0  0  0  0  0  0  0  0  0  0  0
   -2.4530    3.2374    0.9099 C   0  0  0  0  0  0  0  0  0  0  0  0
   -2.4402   -0.8394   -0.5550 C   0  0  0  0  0  0  0  0  0  0  0  0
   -1.6996   -2.0443   -0.4522 C   0  0  0  0  0  0  0  0  0  0  0  0
   -1.9304   -3.2974   -1.2901 C   0  0  0  0  0  0  0  0  0  0  0  0
   -3.2201   -3.9464   -0.7258 C   0  0  0  0  0  0  0  0  0  0  0  0
   -2.1506   -2.9495   -2.7750 C   0  0  0  0  0  0  0  0  0  0  0  0
   -0.7738   -4.3028   -1.1543 C   0  0  0  0  0  0  0  0  0  0  0  0
   -0.9022   -1.9148    0.7298 C   0  0  0  0  0  3  0  0  0  0  0  0
   -1.1271    2.2038    3.2249 H   0  0  0  0  0  0  0  0  0  0  0  0
   -1.4038    0.9773    4.5008 H   0  0  0  0  0  0  0  0  0  0  0  0
    0.1847    1.7999    4.3751 H   0  0  0  0  0  0  0  0  0  0  0  0
    1.1273   -2.2036    3.2250 H   0  0  0  0  0  0  0  0  0  0  0  0
    1.4041   -0.9770    4.5008 H   0  0  0  0  0  0  0  0  0  0  0  0
   -0.1844   -1.7995    4.3753 H   0  0  0  0  0  0  0  0  0  0  0  0
    5.2354   -2.4290   -0.4050 H   0  0  0  0  0  0  0  0  0  0  0  0
    4.0171   -1.7220   -1.5170 H   0  0  0  0  0  0  0  0  0  0  0  0
    5.1357   -0.6499   -0.5999 H   0  0  0  0  0  0  0  0  0  0  0  0
    4.9277   -2.0373    2.7016 H   0  0  0  0  0  0  0  0  0  0  0  0
    4.7479   -0.2664    2.4615 H   0  0  0  0  0  0  0  0  0  0  0  0
    3.4983   -1.1796    3.3631 H   0  0  0  0  0  0  0  0  0  0  0  0
    3.2496   -4.0082    0.9672 H   0  0  0  0  0  0  0  0  0  0  0  0
    1.7812   -3.3992    1.7750 H   0  0  0  0  0  0  0  0  0  0  0  0
    1.8797   -3.4082   -0.0216 H   0  0  0  0  0  0  0  0  0  0  0  0
    3.1345    0.6008   -1.3683 H   0  0  0  0  0  0  0  0  0  0  0  0
    1.0000    5.2174   -1.7387 H   0  0  0  0  0  0  0  0  0  0  0  0
   -0.1723    3.8748   -1.5384 H   0  0  0  0  0  0  0  0  0  0  0  0
    0.6214    4.6126   -0.1012 H   0  0  0  0  0  0  0  0  0  0  0  0
    2.3633    3.8725   -3.3519 H   0  0  0  0  0  0  0  0  0  0  0  0
    3.0138    2.2679   -2.9117 H   0  0  0  0  0  0  0  0  0  0  0  0
    1.2538    2.4652   -3.2064 H   0  0  0  0  0  0  0  0  0  0  0  0
    3.4506    4.8808   -1.2792 H   0  0  0  0  0  0  0  0  0  0  0  0
    3.1021    4.2009    0.3472 H   0  0  0  0  0  0  0  0  0  0  0  0
    4.0873    3.2640   -0.8217 H   0  0  0  0  0  0  0  0  0  0  0  0
    0.1833    2.6618    1.0851 H   0  0  0  0  0  0  0  0  0  0  0  0
   -5.2350    2.4294   -0.4050 H   0  0  0  0  0  0  0  0  0  0  0  0
   -4.0168    1.7222   -1.5169 H   0  0  0  0  0  0  0  0  0  0  0  0
   -5.1355    0.6503   -0.5998 H   0  0  0  0  0  0  0  0  0  0  0  0
   -4.9275    2.0377    2.7016 H   0  0  0  0  0  0  0  0  0  0  0  0
   -4.7478    0.2668    2.4616 H   0  0  0  0  0  0  0  0  0  0  0  0
   -3.4982    1.1800    3.3632 H   0  0  0  0  0  0  0  0  0  0  0  0
   -3.2493    4.0085    0.9672 H   0  0  0  0  0  0  0  0  0  0  0  0
   -1.7810    3.3995    1.7751 H   0  0  0  0  0  0  0  0  0  0  0  0
   -1.8794    3.4085   -0.0214 H   0  0  0  0  0  0  0  0  0  0  0  0
   -3.1346   -0.6006   -1.3680 H   0  0  0  0  0  0  0  0  0  0  0  0
   -3.4515   -4.8803   -1.2791 H   0  0  0  0  0  0  0  0  0  0  0  0
   -3.1032   -4.2003    0.3473 H   0  0  0  0  0  0  0  0  0  0  0  0
   -4.0879   -3.2633   -0.8219 H   0  0  0  0  0  0  0  0  0  0  0  0
   -2.3636   -3.8725   -3.3516 H   0  0  0  0  0  0  0  0  0  0  0  0
   -3.0136   -2.2676   -2.9117 H   0  0  0  0  0  0  0  0  0  0  0  0
   -1.2536   -2.4656   -3.2060 H   0  0  0  0  0  0  0  0  0  0  0  0
   -1.0009   -5.2176   -1.7380 H   0  0  0  0  0  0  0  0  0  0  0  0
    0.1717   -3.8753   -1.5376 H   0  0  0  0  0  0  0  0  0  0  0  0
   -0.6226   -4.6129   -0.1004 H   0  0  0  0  0  0  0  0  0  0  0  0
   -0.1836   -2.6619    1.0853 H   0  0  0  0  0  0  0  0  0  0  0  0
  1  2  1  0  0  0  0
  1  3  1  0  0  0  0
  2 32  1  0  0  0  0
  2 31  1  0  0  0  0
  3 35  1  0  0  0  0
  3 34  1  0  0  0  0
  4  1  1  6  0  0  0
  5  6  1  1  0  0  0
  5  4  1  0  0  0  0
  6  9  1  0  0  0  0
  6  8  1  0  0  0  0
  7 36  1  0  0  0  0
  7  6  1  0  0  0  0
  8 39  1  0  0  0  0
  8 41  1  0  0  0  0
  9 42  1  0  0  0  0
  9 43  1  0  0  0  0
 10 11  2  0  0  0  0
 10  5  1  0  0  0  0
 11 16  1  0  0  0  0
 12 13  1  0  0  0  0
 12 15  1  0  0  0  0
 12 11  1  0  0  0  0
 13 48  1  0  0  0  0
 14 12  1  0  0  0  0
 15 53  1  0  0  0  0
 16 55  1  0  0  0  0
 16  4  1  0  0  0  0
 17  1  1  6  0  0  0
 18 19  1  1  0  0  0
 18 17  1  0  0  0  0
 19 22  1  0  0  0  0
 19 21  1  0  0  0  0
 20 56  1  0  0  0  0
 20 19  1  0  0  0  0
 21 59  1  0  0  0  0
 21 61  1  0  0  0  0
 22 62  1  0  0  0  0
 22 63  1  0  0  0  0
 23 24  2  0  0  0  0
 23 18  1  0  0  0  0
 24 29  1  0  0  0  0
 25 28  1  0  0  0  0
 25 26  1  0  0  0  0
 25 24  1  0  0  0  0
 26 67  1  0  0  0  0
 27 25  1  0  0  0  0
 28 74  1  0  0  0  0
 29 75  1  0  0  0  0
 29 17  1  0  0  0  0
 30  2  1  0  0  0  0
 33  3  1  0  0  0  0
 37  7  1  0  0  0  0
 38  7  1  0  0  0  0
 40  8  1  0  0  0  0
 44  9  1  0  0  0  0
 45 10  1  0  0  0  0
 46 13  1  0  0  0  0
 47 13  1  0  0  0  0
 49 14  1  0  0  0  0
 50 14  1  0  0  0  0
 51 14  1  0  0  0  0
 52 15  1  0  0  0  0
 54 15  1  0  0  0  0
 57 20  1  0  0  0  0
 58 20  1  0  0  0  0
 60 21  1  0  0  0  0
 64 22  1  0  0  0  0
 65 23  1  0  0  0  0
 66 26  1  0  0  0  0
 68 26  1  0  0  0  0
 69 27  1  0  0  0  0
 70 27  1  0  0  0  0
 71 27  1  0  0  0  0
 72 28  1  0  0  0  0
 73 28  1  0  0  0  0
M  END
