3,10
q = 0.0, confidence = 0.988

 35 36  0  0  1  0  0  0  0  0999 V2000
   -0.1854   -3.4807    2.1199 C   0  0  0  0  0  0  0  0  0  0  0  0
   -0.6523   -4.2442    2.7489 H   0  0  0  0  0  0  0  0  0  0  0  0
   -0.0418   -1.9587    0.4228 C   0  0  0  0  0  2  0  0  0  0  0  0
    1.0670   -2.9221    2.1625 C   0  0  0  0  0  0  0  0  0  0  0  0
    1.9108   -3.1106    2.8329 H   0  0  0  0  0  0  0  0  0  0  0  0
   -2.2263   -2.9632    0.6401 C   0  0  0  0  0  0  0  0  0  0  0  0
   -2.8358   -2.3365    1.3245 H   0  0  0  0  0  0  0  0  0  0  0  0
   -2.5745   -4.0112    0.7320 H   0  0  0  0  0  0  0  0  0  0  0  0
   -2.3254   -2.4682   -0.8060 C   0  0  2  0  0  3  0  0  0  0  0  0
   -2.9022   -1.1897   -1.0633 C   0  0  0  0  0  3  0  0  0  0  0  0
   -3.3726   -0.6331   -0.2380 H   0  0  0  0  0  0  0  0  0  0  0  0
   -3.3851   -1.0253   -2.0409 H   0  0  0  0  0  0  0  0  0  0  0  0
   -0.8332   -2.8838    1.0525 N   0  0  0  0  0  0  0  0  0  0  0  0
    1.1400   -1.9932    1.1252 N   0  0  0  0  0  0  0  0  0  0  0  0
   -2.4827   -3.5982   -1.8089 C   0  0  0  0  0  0  0  0  0  0  0  0
   -1.6234   -4.2990   -1.7984 H   0  0  0  0  0  0  0  0  0  0  0  0
   -2.6277   -3.2272   -2.8399 H   0  0  0  0  0  0  0  0  0  0  0  0
   -3.3878   -4.1901   -1.5470 H   0  0  0  0  0  0  0  0  0  0  0  0
    2.2817   -1.1091    0.9104 C   0  0  0  0  0  0  0  0  0  0  0  0
    2.4968   -0.5844    1.8629 H   0  0  0  0  0  0  0  0  0  0  0  0
    1.9451   -0.3358    0.2015 H   0  0  0  0  0  0  0  0  0  0  0  0
    3.5608   -1.7836    0.3917 C   0  0  0  0  0  0  0  0  0  0  0  0
    3.9445   -2.5078    1.1407 H   0  0  0  0  0  0  0  0  0  0  0  0
    3.3375   -2.3590   -0.5293 H   0  0  0  0  0  0  0  0  0  0  0  0
    4.5870   -0.7075    0.1105 C   0  0  0  0  0  0  0  0  0  0  0  0
    5.2994   -0.1074    1.1682 C   0  0  0  0  0  0  0  0  0  0  0  0
    5.1754   -0.4901    2.1942 H   0  0  0  0  0  0  0  0  0  0  0  0
    6.1692    0.9669    0.9297 C   0  0  0  0  0  0  0  0  0  0  0  0
    6.7257    1.4164    1.7661 H   0  0  0  0  0  0  0  0  0  0  0  0
    6.3380    1.4610   -0.3739 C   0  0  0  0  0  0  0  0  0  0  0  0
    7.0247    2.2996   -0.5630 H   0  0  0  0  0  0  0  0  0  0  0  0
    5.6412    0.8660   -1.4374 C   0  0  0  0  0  0  0  0  0  0  0  0
    5.7831    1.2339   -2.4648 H   0  0  0  0  0  0  0  0  0  0  0  0
    4.7723   -0.2095   -1.1946 C   0  0  0  0  0  0  0  0  0  0  0  0
    4.2416   -0.6818   -2.0370 H   0  0  0  0  0  0  0  0  0  0  0  0
  1  4  2  0  0  0  0
  1  2  1  0  0  0  0
  3 13  1  0  0  0  0
  3 14  1  0  0  0  0
  4  5  1  0  0  0  0
  6  8  1  0  0  0  0
  6 13  1  0  0  0  0
  6  7  1  0  0  0  0
  9 10  1  1  0  0  0
  9  6  1  0  0  0  0
 10 11  1  0  0  0  0
 12 10  1  0  0  0  0
 13  1  1  0  0  0  0
 14  4  1  0  0  0  0
 15 16  1  0  0  0  0
 15 18  1  0  0  0  0
 15  9  1  0  0  0  0
 17 15  1  0  0  0  0
 19 14  1  0  0  0  0
 19 20  1  0  0  0  0
 21 19  1  0  0  0  0
 22 19  1  0  0  0  0
 22 23  1  0  0  0  0
 24 22  1  0  0  0  0
 25 22  1  0  0  0  0
 25 26  1  0  0  0  0
 26 27  1  0  0  0  0
 28 26  2  0  0  0  0
 28 29  1  0  0  0  0
 30 28  1  0  0  0  0
 31 30  1  0  0  0  0
 32 34  1  0  0  0  0
 32 30  2  0  0  0  0
 33 32  1  0  0  0  0
 34 25  2  0  0  0  0
 35 34  1  0  0  0  0
M  END
