2,4
q = -1.0, confidence = 0.0

 32 34  0  0  1  0  0  0  0  0999 V2000
   -1.1982   -0.8392    0.6733 C   0  0  2  0  0  3  0  0  0  0  0  0
   -0.0731   -0.7700   -0.1391 C   0  0  0  0  0  2  0  0  0  0  0  0
    1.1404   -0.4229    0.5172 C   0  0  2  0  0  3  0  0  0  0  0  0
    0.9194    0.7030    1.3711 C   0  0  0  0  0  2  0  0  0  0  0  0
   -0.2169    0.6635    2.1491 C   0  0  1  0  0  3  0  0  0  0  0  0
   -0.7509    1.6864    3.0890 C   0  0  0  0  0  0  0  0  0  0  0  0
   -2.5638   -1.1500    0.2770 C   0  0  0  0  0  0  0  0  0  0  0  0
   -2.7997   -1.6691   -1.0204 C   0  0  0  0  0  0  0  0  0  0  0  0
   -4.1053   -1.9067   -1.4591 C   0  0  0  0  0  0  0  0  0  0  0  0
   -5.1934   -1.6743   -0.5993 C   0  0  0  0  0  0  0  0  0  0  0  0
   -4.9671   -1.1893    0.7008 C   0  0  0  0  0  0  0  0  0  0  0  0
   -3.6658   -0.9217    1.1379 C   0  0  0  0  0  0  0  0  0  0  0  0
    2.4367   -1.0827    0.3183 C   0  0  0  0  0  0  0  0  0  0  0  0
    2.5462   -2.1934   -0.5485 C   0  0  0  0  0  0  0  0  0  0  0  0
    3.7721   -2.8500   -0.7010 C   0  0  0  0  0  0  0  0  0  0  0  0
    4.9035   -2.4018    0.0038 C   0  0  0  0  0  0  0  0  0  0  0  0
    4.8051   -1.2916    0.8612 C   0  0  0  0  0  0  0  0  0  0  0  0
    3.5808   -0.6321    1.0153 C   0  0  0  0  0  0  0  0  0  0  0  0
   -1.0552   -0.4501    2.0107 O   0  0  0  0  0  0  0  0  0  0  0  0
   -0.1271    2.5973    3.0341 H   0  0  0  0  0  0  0  0  0  0  0  0
   -0.7193    1.3092    4.1337 H   0  0  0  0  0  0  0  0  0  0  0  0
   -1.8078    1.9357    2.8617 H   0  0  0  0  0  0  0  0  0  0  0  0
   -1.9335   -1.8820   -1.6643 H   0  0  0  0  0  0  0  0  0  0  0  0
   -4.2779   -2.2958   -2.4737 H   0  0  0  0  0  0  0  0  0  0  0  0
   -6.2193   -1.8806   -0.9400 H   0  0  0  0  0  0  0  0  0  0  0  0
   -5.8171   -1.0096    1.3764 H   0  0  0  0  0  0  0  0  0  0  0  0
   -3.4827   -0.5238    2.1457 H   0  0  0  0  0  0  0  0  0  0  0  0
    1.6518   -2.5220   -1.1000 H   0  0  0  0  0  0  0  0  0  0  0  0
    3.8522   -3.7137   -1.3783 H   0  0  0  0  0  0  0  0  0  0  0  0
    5.8694   -2.9138   -0.1239 H   0  0  0  0  0  0  0  0  0  0  0  0
    5.6931   -0.9359    1.4053 H   0  0  0  0  0  0  0  0  0  0  0  0
    3.4887    0.2482    1.6702 H   0  0  0  0  0  0  0  0  0  0  0  0
  1  7  1  6  0  0  0
  1 19  1  0  0  0  0
  2  3  1  0  0  0  0
  2  1  1  0  0  0  0
  3 13  1  6  0  0  0
  3  4  1  0  0  0  0
  4  5  1  0  0  0  0
  5  6  1  6  0  0  0
  6 21  1  0  0  0  0
  7 12  1  0  0  0  0
  8  7  2  0  0  0  0
  9  8  1  0  0  0  0
  9 10  2  0  0  0  0
 10 11  1  0  0  0  0
 11 12  2  0  0  0  0
 11 26  1  0  0  0  0
 12 27  1  0  0  0  0
 13 18  1  0  0  0  0
 14 13  2  0  0  0  0
 15 14  1  0  0  0  0
 15 16  2  0  0  0  0
 16 17  1  0  0  0  0
 17 18  2  0  0  0  0
 17 31  1  0  0  0  0
 18 32  1  0  0  0  0
 19  5  1  0  0  0  0
 20  6  1  0  0  0  0
 22  6  1  0  0  0  0
 23  8  1  0  0  0  0
 24  9  1  0  0  0  0
 25 10  1  0  0  0  0
 28 14  1  0  0  0  0
 29 15  1  0  0  0  0
 30 16  1  0  0  0  0
M  END
