8,10
q = 0.0, confidence = 0.996

 23 24  0  0  1  0  0  0  0  0999 V2000
   -1.9018   -2.3075   -0.3756 O   0  0  0  0  0  0  0  0  0  0  0  0
   -2.2820   -0.9504   -0.5261 C   0  0  1  0  0  0  0  0  0  0  0  0
   -2.9020   -0.3459    0.7355 C   0  0  0  0  0  0  0  0  0  0  0  0
   -3.1922    1.1386    0.5078 C   0  0  0  0  0  0  0  0  0  0  0  0
   -1.8998    1.9304    0.2666 C   0  0  0  0  0  0  0  0  0  0  0  0
   -0.8803    1.1996   -0.5873 C   0  0  0  0  0  0  0  0  0  0  0  0
   -1.0597   -0.1684   -0.9658 C   0  0  1  0  0  3  0  0  0  0  0  0
   -0.0550   -0.8160   -1.7548 C   0  0  0  0  0  3  0  0  0  0  0  0
    1.0963   -0.1216   -2.1984 C   0  0  0  0  0  3  0  0  0  0  0  0
    1.2843    1.2327   -1.7921 C   0  0  0  0  0  3  0  0  0  0  0  0
    0.2992    1.8913   -1.0141 C   0  0  0  0  0  0  0  0  0  0  0  0
   -3.0345   -0.8535   -1.3545 H   0  0  0  0  0  0  0  0  0  0  0  0
   -2.6967   -2.8066   -0.1157 H   0  0  0  0  0  0  0  0  0  0  0  0
   -3.8350   -0.8943    0.9862 H   0  0  0  0  0  0  0  0  0  0  0  0
   -2.1927   -0.4895    1.5782 H   0  0  0  0  0  0  0  0  0  0  0  0
   -3.7384    1.5703    1.3699 H   0  0  0  0  0  0  0  0  0  0  0  0
   -3.8672    1.2425   -0.3704 H   0  0  0  0  0  0  0  0  0  0  0  0
   -2.1281    2.9025   -0.2192 H   0  0  0  0  0  0  0  0  0  0  0  0
   -1.4262    2.1831    1.2379 H   0  0  0  0  0  0  0  0  0  0  0  0
   -0.1865   -1.8829   -1.9789 H   0  0  0  0  0  0  0  0  0  0  0  0
    1.8727   -0.6436   -2.7730 H   0  0  0  0  0  0  0  0  0  0  0  0
    2.2059    1.7653   -2.0665 H   0  0  0  0  0  0  0  0  0  0  0  0
    0.4611    2.9274   -0.6855 H   0  0  0  0  0  0  0  0  0  0  0  0
  1 13  1  0  0  0  0
  2 12  1  6  0  0  0
  2  1  1  0  0  0  0
  2  3  1  0  0  0  0
  3 14  1  0  0  0  0
  3 15  1  0  0  0  0
  4  3  1  0  0  0  0
  4 16  1  0  0  0  0
  5  4  1  0  0  0  0
  5 19  1  0  0  0  0
  6  5  1  0  0  0  0
  7  8  1  1  0  0  0
  7  6  1  0  0  0  0
  7  2  1  0  0  0  0
  9 10  1  0  0  0  0
  9  8  1  0  0  0  0
 10 11  1  0  0  0  0
 11 23  1  0  0  0  0
 11  6  2  0  0  0  0
 17  4  1  0  0  0  0
 18  5  1  0  0  0  0
 20  8  1  0  0  0  0
 21  9  1  0  0  0  0
 22 10  1  0  0  0  0
M  END
