1,4
q = 0.0, confidence = 0.954

 18 17  0  0  0  0  0  0  0  0999 V2000
   -0.6414    1.4434    1.5932 C   0  0  0  0  0  3  0  0  0  0  0  0
   -1.8878    0.9049    1.1042 C   0  0  0  0  0  0  0  0  0  0  0  0
   -2.0114   -0.5407    1.1322 C   0  0  0  0  0  0  0  0  0  0  0  0
   -0.8719   -1.2625    1.6493 C   0  0  0  0  0  3  0  0  0  0  0  0
   -2.8753    1.5582    0.5376 O   0  0  0  0  0  0  0  0  0  0  0  0
   -3.0976   -1.0370    0.5899 O   0  0  0  0  0  0  0  0  0  0  0  0
   -2.8921    3.0008    0.5377 C   0  0  0  0  0  0  0  0  0  0  0  0
   -3.3682   -2.4532    0.6589 C   0  0  0  0  0  0  0  0  0  0  0  0
   -0.3391    1.1379    2.6087 H   0  0  0  0  0  0  0  0  0  0  0  0
   -0.4576    2.5056    1.3754 H   0  0  0  0  0  0  0  0  0  0  0  0
   -0.8696   -2.3476    1.4675 H   0  0  0  0  0  0  0  0  0  0  0  0
   -0.5400   -0.9811    2.6615 H   0  0  0  0  0  0  0  0  0  0  0  0
   -3.8801    3.2800    0.1339 H   0  0  0  0  0  0  0  0  0  0  0  0
   -2.0913    3.3879   -0.1198 H   0  0  0  0  0  0  0  0  0  0  0  0
   -2.7808    3.3834    1.5724 H   0  0  0  0  0  0  0  0  0  0  0  0
   -2.6468   -3.0062    0.0290 H   0  0  0  0  0  0  0  0  0  0  0  0
   -4.3894   -2.5731    0.2590 H   0  0  0  0  0  0  0  0  0  0  0  0
   -3.3274   -2.7971    1.7121 H   0  0  0  0  0  0  0  0  0  0  0  0
  1  9  1  0  0  0  0
  2  3  2  0  0  0  0
  2  1  1  0  0  0  0
  3  4  1  0  0  0  0
  4 12  1  0  0  0  0
  5  7  1  0  0  0  0
  5  2  1  0  0  0  0
  6  8  1  0  0  0  0
  6  3  1  0  0  0  0
  7 15  1  0  0  0  0
  8 18  1  0  0  0  0
 10  1  1  0  0  0  0
 11  4  1  0  0  0  0
 13  7  1  0  0  0  0
 14  7  1  0  0  0  0
 16  8  1  0  0  0  0
 17  8  1  0  0  0  0
M  END
