2,4
q = -2.0, confidence = 0.57

 30 30  0  0  0  0  0  0  0  0999 V2000
   -2.0767    2.1601   -0.4810 Si  0  0  0  0  0  0  0  0  0  0  0  0
   -0.3804   -1.6324    0.4620 C   0  0  0  0  0  3  0  0  0  0  0  0
   -1.3930   -0.5690    0.1922 C   0  0  0  0  0  0  0  0  0  0  0  0
   -0.9405    0.6966   -0.1219 C   0  0  0  0  0  3  0  0  0  0  0  0
   -0.6829   -2.8982    0.8281 C   0  0  0  0  0  0  0  0  0  0  0  0
   -2.9311    2.8318    1.0875 C   0  0  0  0  0  0  0  0  0  0  0  0
   -3.5184    1.7590   -1.6578 C   0  0  0  0  0  0  0  0  0  0  0  0
   -1.1419    3.6241   -1.2570 C   0  0  0  0  0  0  0  0  0  0  0  0
   -2.8470   -0.9580    0.2632 C   0  0  0  0  0  0  0  0  0  0  0  0
   -3.4562   -1.6547   -0.8025 C   0  0  0  0  0  0  0  0  0  0  0  0
   -4.8169   -1.9910   -0.7647 C   0  0  0  0  0  0  0  0  0  0  0  0
   -5.5983   -1.6496    0.3510 C   0  0  0  0  0  0  0  0  0  0  0  0
   -5.0008   -0.9801    1.4296 C   0  0  0  0  0  0  0  0  0  0  0  0
   -3.6383   -0.6438    1.3879 C   0  0  0  0  0  0  0  0  0  0  0  0
   -1.7274   -3.2453    0.9458 H   0  0  0  0  0  0  0  0  0  0  0  0
    0.1000   -3.6532    1.0133 H   0  0  0  0  0  0  0  0  0  0  0  0
   -2.2360    3.1500    1.8888 H   0  0  0  0  0  0  0  0  0  0  0  0
   -3.5368    3.7183    0.8035 H   0  0  0  0  0  0  0  0  0  0  0  0
   -3.6205    2.0749    1.5092 H   0  0  0  0  0  0  0  0  0  0  0  0
   -3.1790    1.3615   -2.6340 H   0  0  0  0  0  0  0  0  0  0  0  0
   -4.2140    1.0219   -1.2114 H   0  0  0  0  0  0  0  0  0  0  0  0
   -4.0859    2.6939   -1.8515 H   0  0  0  0  0  0  0  0  0  0  0  0
   -0.7663    3.3952   -2.2741 H   0  0  0  0  0  0  0  0  0  0  0  0
   -0.2804    3.9490   -0.6419 H   0  0  0  0  0  0  0  0  0  0  0  0
   -1.8341    4.4869   -1.3484 H   0  0  0  0  0  0  0  0  0  0  0  0
   -2.8539   -1.9193   -1.6837 H   0  0  0  0  0  0  0  0  0  0  0  0
   -5.2713   -2.5205   -1.6164 H   0  0  0  0  0  0  0  0  0  0  0  0
   -6.6672   -1.9099    0.3813 H   0  0  0  0  0  0  0  0  0  0  0  0
   -5.5992   -0.7161    2.3154 H   0  0  0  0  0  0  0  0  0  0  0  0
   -3.1775   -0.1245    2.2387 H   0  0  0  0  0  0  0  0  0  0  0  0
  1  4  1  0  0  0  0
  1  6  1  0  0  0  0
  2  5  2  0  0  0  0
  3  9  1  0  0  0  0
  3  2  1  0  0  0  0
  4  3  2  0  0  0  0
  5 15  1  0  0  0  0
  5 16  1  0  0  0  0
  6 19  1  0  0  0  0
  6 17  1  0  0  0  0
  7 21  1  0  0  0  0
  7  1  1  0  0  0  0
  8 24  1  0  0  0  0
  8  1  1  0  0  0  0
  9 14  1  0  0  0  0
 10 11  1  0  0  0  0
 10  9  2  0  0  0  0
 11 12  2  0  0  0  0
 12 28  1  0  0  0  0
 12 13  1  0  0  0  0
 13 29  1  0  0  0  0
 14 13  2  0  0  0  0
 14 30  1  0  0  0  0
 18  6  1  0  0  0  0
 20  7  1  0  0  0  0
 22  7  1  0  0  0  0
 23  8  1  0  0  0  0
 25  8  1  0  0  0  0
 26 10  1  0  0  0  0
 27 11  1  0  0  0  0
M  END
