2,5
q = 0.0, confidence = 0.836

 25 25  0  0  0  0  0  0  0  0999 V2000
    3.2082   -1.7615   -0.9022 I   0  0  0  0  0  0  0  0  0  0  0  0
   -0.1891    1.9804   -0.4512 C   0  0  0  0  0  3  0  0  0  0  0  0
    0.6514    0.9463    0.1945 C   0  0  0  0  0  0  0  0  0  0  0  0
    0.6059   -0.3222   -0.4335 C   0  0  0  0  0  0  0  0  0  0  0  0
   -0.2215   -0.4664   -1.6111 C   0  0  0  0  0  3  0  0  0  0  0  0
    1.4351    1.2857    1.4425 C   0  0  0  0  0  0  0  0  0  0  0  0
    2.9018    1.5096    1.1195 C   0  0  0  0  0  0  0  0  0  0  0  0
    3.2658    2.4000    0.0877 C   0  0  0  0  0  0  0  0  0  0  0  0
    4.6165    2.5962   -0.2310 C   0  0  0  0  0  0  0  0  0  0  0  0
    5.6184    1.9120    0.4773 C   0  0  0  0  0  0  0  0  0  0  0  0
    5.2623    1.0311    1.5094 C   0  0  0  0  0  0  0  0  0  0  0  0
    3.9101    0.8286    1.8249 C   0  0  0  0  0  0  0  0  0  0  0  0
    1.2923   -1.5113    0.1566 C   0  0  0  0  0  0  0  0  0  0  0  0
    0.0348    3.1332   -0.7834 O   0  0  0  0  0  0  0  0  0  0  0  0
   -0.0969    0.2732   -2.4181 H   0  0  0  0  0  0  0  0  0  0  0  0
   -0.3972   -1.4990   -1.9531 H   0  0  0  0  0  0  0  0  0  0  0  0
    1.0024    2.2110    1.8772 H   0  0  0  0  0  0  0  0  0  0  0  0
    1.3276    0.4939    2.2115 H   0  0  0  0  0  0  0  0  0  0  0  0
    2.4765    2.9403   -0.4601 H   0  0  0  0  0  0  0  0  0  0  0  0
    4.8899    3.2908   -1.0399 H   0  0  0  0  0  0  0  0  0  0  0  0
    6.6783    2.0662    0.2240 H   0  0  0  0  0  0  0  0  0  0  0  0
    6.0407    0.4893    2.0678 H   0  0  0  0  0  0  0  0  0  0  0  0
    3.6335    0.1258    2.6270 H   0  0  0  0  0  0  0  0  0  0  0  0
    1.5496   -1.4117    1.2237 H   0  0  0  0  0  0  0  0  0  0  0  0
    0.7422   -2.4489   -0.0242 H   0  0  0  0  0  0  0  0  0  0  0  0
  1 13  1  0  0  0  0
  2  3  1  0  0  0  0
  3  6  1  0  0  0  0
  4 13  1  0  0  0  0
  4  3  2  0  0  0  0
  5  4  1  0  0  0  0
  6 17  1  0  0  0  0
  6 18  1  0  0  0  0
  7  6  1  0  0  0  0
  7 12  1  0  0  0  0
  8  7  2  0  0  0  0
  9  8  1  0  0  0  0
  9 10  2  0  0  0  0
 10 11  1  0  0  0  0
 11 12  2  0  0  0  0
 11 22  1  0  0  0  0
 12 23  1  0  0  0  0
 13 24  1  0  0  0  0
 14  2  2  0  0  0  0
 15  5  1  0  0  0  0
 16  5  1  0  0  0  0
 19  8  1  0  0  0  0
 20  9  1  0  0  0  0
 21 10  1  0  0  0  0
 25 13  1  0  0  0  0
M  END
