1,2,3,4
q = 0.0, confidence = 0.994

 58 60  0  0  0  0  0  0  0  0999 V2000
   -1.8429   -1.2540    1.2203 P   0  0  0  0  0  0  0  0  0  0  0  0
   -1.0736    0.6021   -1.0845 P   0  0  1  0  0  0  0  0  0  0  0  0
    1.0739    0.6029    1.0841 P   0  0  2  0  0  0  0  0  0  0  0  0
    1.8434   -1.2548   -1.2196 P   0  0  0  0  0  0  0  0  0  0  0  0
   -2.4088   -2.9929    1.2947 C   0  0  0  0  0  0  0  0  0  0  0  0
   -1.9094   -0.7324    2.9805 C   0  0  0  0  0  0  0  0  0  0  0  0
   -3.2124   -0.3112    0.4402 C   0  0  0  0  0  0  0  0  0  0  0  0
   -4.5533   -0.3999    0.8576 C   0  0  0  0  0  0  0  0  0  0  0  0
   -5.5385    0.3656    0.2178 C   0  0  0  0  0  0  0  0  0  0  0  0
   -5.1882    1.2195   -0.8411 C   0  0  0  0  0  0  0  0  0  0  0  0
   -3.8544    1.3089   -1.2646 C   0  0  0  0  0  0  0  0  0  0  0  0
   -2.8608    0.5449   -0.6234 C   0  0  0  0  0  0  0  0  0  0  0  0
   -1.1167    0.7153   -2.9127 C   0  0  0  0  0  0  0  0  0  0  0  0
   -0.4822    2.2541   -0.5162 C   0  0  0  0  0  0  0  0  0  0  0  0
   -0.9538    3.4745   -1.0365 C   0  0  0  0  0  0  0  0  0  0  0  0
   -0.4751    4.6864   -0.5190 C   0  0  0  0  0  0  0  0  0  0  0  0
    0.4721    4.6868    0.5192 C   0  0  0  0  0  0  0  0  0  0  0  0
    0.9518    3.4752    1.0365 C   0  0  0  0  0  0  0  0  0  0  0  0
    0.4813    2.2544    0.5160 C   0  0  0  0  0  0  0  0  0  0  0  0
    1.1180    0.7160    2.9123 C   0  0  0  0  0  0  0  0  0  0  0  0
    2.8609    0.5462    0.6222 C   0  0  0  0  0  0  0  0  0  0  0  0
    3.8544    1.3114    1.2623 C   0  0  0  0  0  0  0  0  0  0  0  0
    5.1881    1.2219    0.8388 C   0  0  0  0  0  0  0  0  0  0  0  0
    5.5385    0.3668   -0.2190 C   0  0  0  0  0  0  0  0  0  0  0  0
    4.5536   -0.3999   -0.8577 C   0  0  0  0  0  0  0  0  0  0  0  0
    3.2127   -0.3111   -0.4403 C   0  0  0  0  0  0  0  0  0  0  0  0
    1.9097   -0.7345   -2.9801 C   0  0  0  0  0  0  0  0  0  0  0  0
    2.4094   -2.9937   -1.2926 C   0  0  0  0  0  0  0  0  0  0  0  0
   -2.5456   -3.3662    0.2644 H   0  0  0  0  0  0  0  0  0  0  0  0
   -1.6139   -3.5804    1.7917 H   0  0  0  0  0  0  0  0  0  0  0  0
   -3.3532   -3.0578    1.8694 H   0  0  0  0  0  0  0  0  0  0  0  0
   -2.8693   -1.0586    3.4266 H   0  0  0  0  0  0  0  0  0  0  0  0
   -1.0734   -1.2158    3.5201 H   0  0  0  0  0  0  0  0  0  0  0  0
   -1.8369    0.3677    3.0608 H   0  0  0  0  0  0  0  0  0  0  0  0
   -4.8384   -1.0729    1.6810 H   0  0  0  0  0  0  0  0  0  0  0  0
   -6.5870    0.2919    0.5423 H   0  0  0  0  0  0  0  0  0  0  0  0
   -5.9617    1.8163   -1.3467 H   0  0  0  0  0  0  0  0  0  0  0  0
   -3.6045    1.9766   -2.1022 H   0  0  0  0  0  0  0  0  0  0  0  0
   -1.8805    1.4485   -3.2334 H   0  0  0  0  0  0  0  0  0  0  0  0
   -0.1345    1.0322   -3.3021 H   0  0  0  0  0  0  0  0  0  0  0  0
   -1.3778   -0.2885   -3.2974 H   0  0  0  0  0  0  0  0  0  0  0  0
   -1.7019    3.4889   -1.8428 H   0  0  0  0  0  0  0  0  0  0  0  0
   -0.8462    5.6389   -0.9255 H   0  0  0  0  0  0  0  0  0  0  0  0
    0.8424    5.6395    0.9259 H   0  0  0  0  0  0  0  0  0  0  0  0
    1.6998    3.4901    1.8430 H   0  0  0  0  0  0  0  0  0  0  0  0
    0.1360    1.0323    3.3023 H   0  0  0  0  0  0  0  0  0  0  0  0
    1.3797   -0.2878    3.2967 H   0  0  0  0  0  0  0  0  0  0  0  0
    1.8818    1.4494    3.2326 H   0  0  0  0  0  0  0  0  0  0  0  0
    3.6043    1.9802    2.0990 H   0  0  0  0  0  0  0  0  0  0  0  0
    5.9615    1.8198    1.3434 H   0  0  0  0  0  0  0  0  0  0  0  0
    6.5871    0.2930   -0.5436 H   0  0  0  0  0  0  0  0  0  0  0  0
    4.8388   -1.0738   -1.6803 H   0  0  0  0  0  0  0  0  0  0  0  0
    1.8379    0.3655   -3.0611 H   0  0  0  0  0  0  0  0  0  0  0  0
    2.8693   -1.0616   -3.4263 H   0  0  0  0  0  0  0  0  0  0  0  0
    1.0733   -1.2179   -3.5192 H   0  0  0  0  0  0  0  0  0  0  0  0
    1.6141   -3.5819   -1.7883 H   0  0  0  0  0  0  0  0  0  0  0  0
    3.3533   -3.0593   -1.8679 H   0  0  0  0  0  0  0  0  0  0  0  0
    2.5469   -3.3660   -0.2620 H   0  0  0  0  0  0  0  0  0  0  0  0
  1  5  1  0  0  0  0
  1  6  1  0  0  0  0
  2 13  1  6  0  0  0
  2 12  1  0  0  0  0
  2 14  1  0  0  0  0
  3 20  1  1  0  0  0
  4 26  1  0  0  0  0
  5 30  1  0  0  0  0
  5 31  1  0  0  0  0
  6 34  1  0  0  0  0
  6 32  1  0  0  0  0
  6 33  1  0  0  0  0
  7  8  1  0  0  0  0
  7  1  1  0  0  0  0
  8 35  1  0  0  0  0
  9 36  1  0  0  0  0
  9  8  2  0  0  0  0
 10  9  1  0  0  0  0
 11 10  2  0  0  0  0
 11 12  1  0  0  0  0
 12  7  2  0  0  0  0
 14 19  1  0  0  0  0
 15 16  1  0  0  0  0
 15 14  2  0  0  0  0
 16 17  2  0  0  0  0
 17 44  1  0  0  0  0
 17 18  1  0  0  0  0
 18 45  1  0  0  0  0
 19 18  2  0  0  0  0
 19  3  1  0  0  0  0
 20 48  1  0  0  0  0
 20 47  1  0  0  0  0
 20 46  1  0  0  0  0
 21  3  1  0  0  0  0
 21 22  1  0  0  0  0
 22 49  1  0  0  0  0
 23 22  2  0  0  0  0
 23 50  1  0  0  0  0
 24 23  1  0  0  0  0
 25 26  1  0  0  0  0
 25 24  2  0  0  0  0
 26 21  2  0  0  0  0
 27  4  1  0  0  0  0
 28  4  1  0  0  0  0
 28 58  1  0  0  0  0
 29  5  1  0  0  0  0
 37 10  1  0  0  0  0
 38 11  1  0  0  0  0
 39 13  1  0  0  0  0
 40 13  1  0  0  0  0
 41 13  1  0  0  0  0
 42 15  1  0  0  0  0
 43 16  1  0  0  0  0
 51 24  1  0  0  0  0
 52 25  1  0  0  0  0
 53 27  1  0  0  0  0
 54 27  1  0  0  0  0
 55 27  1  0  0  0  0
 56 28  1  0  0  0  0
 57 28  1  0  0  0  0
M  END
