1,2,3,18
q = -1.0, confidence = 0.372

 30 31  0  0  1  0  0  0  0  0999 V2000
   -0.4607    1.8521   -0.0182 N   0  0  0  0  0  2  0  0  0  0  0  0
    1.4131    1.3389    1.5291 O   0  0  0  0  0  1  0  0  0  0  0  0
   -0.2391   -0.0746   -1.6467 O   0  0  0  0  0  1  0  0  0  0  0  0
    0.9255    2.6401    1.7129 C   0  0  0  0  0  0  0  0  0  0  0  0
    1.7279    3.3829    1.4808 H   0  0  0  0  0  0  0  0  0  0  0  0
    0.6329    2.8097    2.7762 H   0  0  0  0  0  0  0  0  0  0  0  0
   -0.2704    2.8823    0.8117 C   0  0  2  0  0  3  0  0  0  0  0  0
   -1.1595    3.9699    0.7845 C   0  0  0  0  0  0  0  0  0  0  0  0
   -1.0185    4.8270    1.4585 H   0  0  0  0  0  0  0  0  0  0  0  0
   -2.2335    3.9235   -0.1191 C   0  0  0  0  0  0  0  0  0  0  0  0
   -2.9386    4.7671   -0.1722 H   0  0  0  0  0  0  0  0  0  0  0  0
   -2.4389    2.7902   -0.9323 C   0  0  0  0  0  0  0  0  0  0  0  0
   -3.3060    2.7241   -1.6041 H   0  0  0  0  0  0  0  0  0  0  0  0
   -1.5280    1.7345   -0.8365 C   0  0  0  0  0  0  0  0  0  0  0  0
   -1.5576    0.3013   -1.3699 C   0  0  2  0  0  0  0  0  0  0  0  0
   -2.2123    0.1858   -2.2601 H   0  0  0  0  0  0  0  0  0  0  0  0
   -2.0296   -0.5073   -0.1208 C   0  0  0  0  0  0  0  0  0  0  0  0
   -0.9974   -0.6406    0.7498 C   0  0  0  0  0  3  0  0  0  0  0  0
   -1.1602   -1.1213    1.7324 H   0  0  0  0  0  0  0  0  0  0  0  0
   -3.4353   -0.9135    0.0421 C   0  0  0  0  0  0  0  0  0  0  0  0
   -3.8055   -1.8651    1.0269 C   0  0  0  0  0  0  0  0  0  0  0  0
   -3.0198   -2.3097    1.6560 H   0  0  0  0  0  0  0  0  0  0  0  0
   -5.1366   -2.2556    1.1993 C   0  0  0  0  0  0  0  0  0  0  0  0
   -5.3897   -3.0001    1.9701 H   0  0  0  0  0  0  0  0  0  0  0  0
   -6.1497   -1.7098    0.3903 C   0  0  0  0  0  0  0  0  0  0  0  0
   -7.1973   -2.0188    0.5249 H   0  0  0  0  0  0  0  0  0  0  0  0
   -5.8061   -0.7732   -0.5952 C   0  0  0  0  0  0  0  0  0  0  0  0
   -6.5865   -0.3391   -1.2394 H   0  0  0  0  0  0  0  0  0  0  0  0
   -4.4695   -0.3854   -0.7704 C   0  0  0  0  0  0  0  0  0  0  0  0
   -4.2308    0.3503   -1.5518 H   0  0  0  0  0  0  0  0  0  0  0  0
  1  7  1  0  0  0  0
  2  4  1  0  0  0  0
  3 15  1  0  0  0  0
  4  6  1  0  0  0  0
  5  4  1  0  0  0  0
  7  4  1  1  0  0  0
  8  7  1  0  0  0  0
  8  9  1  0  0  0  0
 10  8  2  0  0  0  0
 11 10  1  0  0  0  0
 12 14  2  0  0  0  0
 12 10  1  0  0  0  0
 13 12  1  0  0  0  0
 14  1  1  0  0  0  0
 15 16  1  6  0  0  0
 15 14  1  0  0  0  0
 15 17  1  0  0  0  0
 17 20  1  0  0  0  0
 17 18  2  0  0  0  0
 18 19  1  0  0  0  0
 20 21  1  0  0  0  0
 21 23  2  0  0  0  0
 21 22  1  0  0  0  0
 23 24  1  0  0  0  0
 25 26  1  0  0  0  0
 25 23  1  0  0  0  0
 27 25  2  0  0  0  0
 28 27  1  0  0  0  0
 29 27  1  0  0  0  0
 29 20  2  0  0  0  0
 30 29  1  0  0  0  0
M  END
