1,3,4,19
 OpenBabel05122313063D

 25 25  0  0  1  0  0  0  0  0999 V2000
   -1.7222   -1.0206   -0.1213 N   0  0  0  0  0  2  0  0  0  0  0  0
   -2.6920    4.1005    0.2698 N   0  0  0  0  0  0  0  0  0  0  0  0
    0.2336   -1.8607    1.1565 O   0  0  0  0  0  1  0  0  0  0  0  0
   -0.6532    0.9123   -1.3668 O   0  0  0  0  0  1  0  0  0  0  0  0
   -0.8273   -2.7766    1.1631 C   0  0  0  0  0  0  0  0  0  0  0  0
   -1.1069   -3.0555    2.2067 H   0  0  0  0  0  0  0  0  0  0  0  0
   -0.5173   -3.7217    0.6527 H   0  0  0  0  0  0  0  0  0  0  0  0
   -2.0317   -2.1856    0.4548 C   0  0  1  0  0  3  0  0  0  0  0  0
   -3.3500   -2.6677    0.3839 C   0  0  0  0  0  0  0  0  0  0  0  0
   -3.6229   -3.6251    0.8504 H   0  0  0  0  0  0  0  0  0  0  0  0
   -4.3050   -1.8873   -0.2882 C   0  0  0  0  0  0  0  0  0  0  0  0
   -5.3423   -2.2463   -0.3708 H   0  0  0  0  0  0  0  0  0  0  0  0
   -3.9551   -0.6319   -0.8270 C   0  0  0  0  0  0  0  0  0  0  0  0
   -4.7049    0.0089   -1.3124 H   0  0  0  0  0  0  0  0  0  0  0  0
   -2.6301   -0.2052   -0.6997 C   0  0  0  0  0  0  0  0  0  0  0  0
   -1.9648    1.1480   -0.9382 C   0  0  1  0  0  0  0  0  0  0  0  0
   -2.5340    1.7802   -1.6578 H   0  0  0  0  0  0  0  0  0  0  0  0
   -1.9082    1.7290    0.5040 C   0  0  0  0  0  0  0  0  0  0  0  0
   -0.9172    1.1462    1.2100 C   0  0  0  0  0  3  0  0  0  0  0  0
   -0.7648    1.4211    2.2716 H   0  0  0  0  0  0  0  0  0  0  0  0
   -2.8989    2.7902    0.9088 C   0  0  0  0  0  0  0  0  0  0  0  0
   -3.9376    2.4586    0.6753 H   0  0  0  0  0  0  0  0  0  0  0  0
   -2.8615    2.9266    2.0106 H   0  0  0  0  0  0  0  0  0  0  0  0
   -2.7895    4.0029   -0.7506 H   0  0  0  0  0  0  0  0  0  0  0  0
   -1.7095    4.3747    0.4120 H   0  0  0  0  0  0  0  0  0  0  0  0
  1  8  1  0  0  0  0
  2 25  1  0  0  0  0
  2 21  1  0  0  0  0
  3  5  1  0  0  0  0
  4 16  1  0  0  0  0
  5  6  1  0  0  0  0
  7  5  1  0  0  0  0
  8  5  1  1  0  0  0
  9  8  1  0  0  0  0
  9 10  1  0  0  0  0
 11  9  2  0  0  0  0
 12 11  1  0  0  0  0
 13 15  2  0  0  0  0
 13 11  1  0  0  0  0
 14 13  1  0  0  0  0
 15  1  1  0  0  0  0
 16 17  1  6  0  0  0
 16 15  1  0  0  0  0
 16 18  1  0  0  0  0
 18 21  1  0  0  0  0
 18 19  2  0  0  0  0
 19 20  1  0  0  0  0
 21 23  1  0  0  0  0
 22 21  1  0  0  0  0
 24  2  1  0  0  0  0
M  END
