1,2,12,13
q = -2.0, confidence = 0.796

 22 21  0  0  0  0  0  0  0  0999 V2000
    1.0690   -0.9940    1.2653 S   0  0  0  0  0  0  0  0  0  0  0  0
    1.6888    0.3889   -1.5770 S   0  0  0  0  0  1  0  0  0  0  0  0
    0.1609   -2.4970    0.7400 C   0  0  0  0  0  0  0  0  0  0  0  0
    2.7093   -1.2524    0.4274 C   0  0  0  0  0  0  0  0  0  0  0  0
    3.0493   -0.0418   -0.4336 C   0  0  0  0  0  0  0  0  0  0  0  0
   -0.7527   -2.4605    1.3679 H   0  0  0  0  0  0  0  0  0  0  0  0
    0.7605   -3.3830    1.0349 H   0  0  0  0  0  0  0  0  0  0  0  0
    2.6333   -2.1678   -0.1914 H   0  0  0  0  0  0  0  0  0  0  0  0
    3.4504   -1.4287    1.2348 H   0  0  0  0  0  0  0  0  0  0  0  0
    3.3041    0.8281    0.2086 H   0  0  0  0  0  0  0  0  0  0  0  0
    3.9498   -0.2658   -1.0449 H   0  0  0  0  0  0  0  0  0  0  0  0
   -1.0689   -0.9941   -1.2653 S   0  0  0  0  0  0  0  0  0  0  0  0
   -1.6888    0.3888    1.5770 S   0  0  0  0  0  1  0  0  0  0  0  0
   -0.1607   -2.4971   -0.7399 C   0  0  0  0  0  0  0  0  0  0  0  0
   -2.7091   -1.2526   -0.4274 C   0  0  0  0  0  0  0  0  0  0  0  0
   -3.0493   -0.0420    0.4336 C   0  0  0  0  0  0  0  0  0  0  0  0
    0.7528   -2.4606   -1.3678 H   0  0  0  0  0  0  0  0  0  0  0  0
   -0.7603   -3.3831   -1.0348 H   0  0  0  0  0  0  0  0  0  0  0  0
   -2.6332   -2.1680    0.1915 H   0  0  0  0  0  0  0  0  0  0  0  0
   -3.4503   -1.4290   -1.2348 H   0  0  0  0  0  0  0  0  0  0  0  0
   -3.3042    0.8279   -0.2087 H   0  0  0  0  0  0  0  0  0  0  0  0
   -3.9498   -0.2660    1.0448 H   0  0  0  0  0  0  0  0  0  0  0  0
  2  5  1  0  0  0  0
  3  7  1  0  0  0  0
  3  1  1  0  0  0  0
  3  6  1  0  0  0  0
  4  9  1  0  0  0  0
  4  1  1  0  0  0  0
  5 10  1  0  0  0  0
  5  4  1  0  0  0  0
  8  4  1  0  0  0  0
 11  5  1  0  0  0  0
 12 14  1  0  0  0  0
 12 15  1  0  0  0  0
 14  3  1  0  0  0  0
 15 19  1  0  0  0  0
 15 16  1  0  0  0  0
 16 22  1  0  0  0  0
 16 13  1  0  0  0  0
 17 14  1  0  0  0  0
 18 14  1  0  0  0  0
 20 15  1  0  0  0  0
 21 16  1  0  0  0  0
M  END
