1,2,3,4
q = 0.0, confidence = 0.976

 64 64  0  0  0  0  0  0  0  0999 V2000
    2.3792   -0.5216    0.3783 S   0  0  0  0  0  0  0  0  0  0  0  0
   -0.5216   -2.3793    0.3783 S   0  0  0  0  0  0  0  0  0  0  0  0
   -2.3794    0.5214    0.3783 S   0  0  0  0  0  0  0  0  0  0  0  0
    0.5213    2.3793    0.3783 S   0  0  0  0  0  0  0  0  0  0  0  0
    2.7936   -1.9937   -0.6596 C   0  0  0  0  0  0  0  0  0  0  0  0
    2.1227   -3.3151   -0.2253 C   0  0  0  0  0  0  0  0  0  0  0  0
    0.6420   -3.3715   -0.6600 C   0  0  0  0  0  0  0  0  0  0  0  0
   -1.9938   -2.7939   -0.6595 C   0  0  0  0  0  0  0  0  0  0  0  0
   -3.3152   -2.1229   -0.2253 C   0  0  0  0  0  0  0  0  0  0  0  0
   -3.3716   -0.6422   -0.6600 C   0  0  0  0  0  0  0  0  0  0  0  0
   -2.7940    1.9936   -0.6595 C   0  0  0  0  0  0  0  0  0  0  0  0
   -2.1230    3.3149   -0.2253 C   0  0  0  0  0  0  0  0  0  0  0  0
   -0.6423    3.3714   -0.6601 C   0  0  0  0  0  0  0  0  0  0  0  0
    1.9935    2.7938   -0.6594 C   0  0  0  0  0  0  0  0  0  0  0  0
    3.3148    2.1228   -0.2251 C   0  0  0  0  0  0  0  0  0  0  0  0
    3.3713    0.6421   -0.6600 C   0  0  0  0  0  0  0  0  0  0  0  0
    2.2743   -3.5529    1.2872 C   0  0  0  0  0  0  0  0  0  0  0  0
    2.8446   -4.4416   -0.9977 C   0  0  0  0  0  0  0  0  0  0  0  0
   -4.4417   -2.8448   -0.9977 C   0  0  0  0  0  0  0  0  0  0  0  0
   -3.5530   -2.2745    1.2872 C   0  0  0  0  0  0  0  0  0  0  0  0
   -2.8450    4.4414   -0.9978 C   0  0  0  0  0  0  0  0  0  0  0  0
   -2.2746    3.5528    1.2872 C   0  0  0  0  0  0  0  0  0  0  0  0
    3.5526    2.2743    1.2874 C   0  0  0  0  0  0  0  0  0  0  0  0
    4.4414    2.8447   -0.9975 C   0  0  0  0  0  0  0  0  0  0  0  0
    3.8976   -2.1068   -0.6011 H   0  0  0  0  0  0  0  0  0  0  0  0
    2.5220   -1.7547   -1.7096 H   0  0  0  0  0  0  0  0  0  0  0  0
    0.5383   -3.0242   -1.7099 H   0  0  0  0  0  0  0  0  0  0  0  0
    0.2826   -4.4215   -0.6019 H   0  0  0  0  0  0  0  0  0  0  0  0
   -2.1068   -3.8979   -0.6010 H   0  0  0  0  0  0  0  0  0  0  0  0
   -1.7548   -2.5223   -1.7095 H   0  0  0  0  0  0  0  0  0  0  0  0
   -3.0242   -0.5386   -1.7099 H   0  0  0  0  0  0  0  0  0  0  0  0
   -4.4216   -0.2828   -0.6020 H   0  0  0  0  0  0  0  0  0  0  0  0
   -3.8980    2.1065   -0.6009 H   0  0  0  0  0  0  0  0  0  0  0  0
   -2.5225    1.7545   -1.7095 H   0  0  0  0  0  0  0  0  0  0  0  0
   -0.5387    3.0240   -1.7099 H   0  0  0  0  0  0  0  0  0  0  0  0
   -0.2830    4.4214   -0.6021 H   0  0  0  0  0  0  0  0  0  0  0  0
    2.1066    3.8978   -0.6009 H   0  0  0  0  0  0  0  0  0  0  0  0
    1.7545    2.5222   -1.7095 H   0  0  0  0  0  0  0  0  0  0  0  0
    3.0240    0.5385   -1.7099 H   0  0  0  0  0  0  0  0  0  0  0  0
    4.4213    0.2828   -0.6019 H   0  0  0  0  0  0  0  0  0  0  0  0
    1.7671   -2.7632    1.8773 H   0  0  0  0  0  0  0  0  0  0  0  0
    1.8326   -4.5285    1.5750 H   0  0  0  0  0  0  0  0  0  0  0  0
    3.3449   -3.5585    1.5762 H   0  0  0  0  0  0  0  0  0  0  0  0
    3.9239   -4.4636   -0.7426 H   0  0  0  0  0  0  0  0  0  0  0  0
    2.4131   -5.4314   -0.7434 H   0  0  0  0  0  0  0  0  0  0  0  0
    2.7551   -4.3009   -2.0947 H   0  0  0  0  0  0  0  0  0  0  0  0
   -4.4637   -3.9241   -0.7426 H   0  0  0  0  0  0  0  0  0  0  0  0
   -5.4314   -2.4133   -0.7435 H   0  0  0  0  0  0  0  0  0  0  0  0
   -4.3009   -2.7554   -2.0947 H   0  0  0  0  0  0  0  0  0  0  0  0
   -2.7633   -1.7673    1.8773 H   0  0  0  0  0  0  0  0  0  0  0  0
   -4.5286   -1.8328    1.5750 H   0  0  0  0  0  0  0  0  0  0  0  0
   -3.5586   -3.3451    1.5762 H   0  0  0  0  0  0  0  0  0  0  0  0
   -3.9242    4.4634   -0.7426 H   0  0  0  0  0  0  0  0  0  0  0  0
   -2.4135    5.4312   -0.7436 H   0  0  0  0  0  0  0  0  0  0  0  0
   -2.7555    4.3007   -2.0948 H   0  0  0  0  0  0  0  0  0  0  0  0
   -1.7674    2.7631    1.8773 H   0  0  0  0  0  0  0  0  0  0  0  0
   -1.8329    4.5284    1.5749 H   0  0  0  0  0  0  0  0  0  0  0  0
   -3.3452    3.5584    1.5762 H   0  0  0  0  0  0  0  0  0  0  0  0
    2.7629    1.7670    1.8774 H   0  0  0  0  0  0  0  0  0  0  0  0
    4.5282    1.8325    1.5752 H   0  0  0  0  0  0  0  0  0  0  0  0
    3.5582    3.3448    1.5764 H   0  0  0  0  0  0  0  0  0  0  0  0
    4.4634    3.9240   -0.7423 H   0  0  0  0  0  0  0  0  0  0  0  0
    5.4312    2.4132   -0.7432 H   0  0  0  0  0  0  0  0  0  0  0  0
    4.3007    2.7553   -2.0945 H   0  0  0  0  0  0  0  0  0  0  0  0
  5 25  1  0  0  0  0
  5  6  1  0  0  0  0
  5  1  1  0  0  0  0
  6 17  1  0  0  0  0
  7 28  1  0  0  0  0
  7  6  1  0  0  0  0
  7  2  1  0  0  0  0
  8 29  1  0  0  0  0
  8  9  1  0  0  0  0
  8  2  1  0  0  0  0
  9 20  1  0  0  0  0
 10 32  1  0  0  0  0
 10  9  1  0  0  0  0
 10  3  1  0  0  0  0
 11 33  1  0  0  0  0
 11 12  1  0  0  0  0
 11  3  1  0  0  0  0
 12 22  1  0  0  0  0
 13 36  1  0  0  0  0
 13 12  1  0  0  0  0
 13  4  1  0  0  0  0
 14 37  1  0  0  0  0
 14 15  1  0  0  0  0
 14  4  1  0  0  0  0
 15 23  1  0  0  0  0
 16 40  1  0  0  0  0
 16 15  1  0  0  0  0
 16  1  1  0  0  0  0
 17 42  1  0  0  0  0
 17 43  1  0  0  0  0
 17 41  1  0  0  0  0
 18 45  1  0  0  0  0
 18 44  1  0  0  0  0
 18  6  1  0  0  0  0
 19 48  1  0  0  0  0
 19 47  1  0  0  0  0
 19  9  1  0  0  0  0
 20 51  1  0  0  0  0
 20 52  1  0  0  0  0
 20 50  1  0  0  0  0
 21 54  1  0  0  0  0
 21 53  1  0  0  0  0
 21 12  1  0  0  0  0
 22 57  1  0  0  0  0
 22 58  1  0  0  0  0
 22 56  1  0  0  0  0
 23 60  1  0  0  0  0
 23 61  1  0  0  0  0
 23 59  1  0  0  0  0
 24 63  1  0  0  0  0
 24 62  1  0  0  0  0
 24 15  1  0  0  0  0
 26  5  1  0  0  0  0
 27  7  1  0  0  0  0
 30  8  1  0  0  0  0
 31 10  1  0  0  0  0
 34 11  1  0  0  0  0
 35 13  1  0  0  0  0
 38 14  1  0  0  0  0
 39 16  1  0  0  0  0
 46 18  1  0  0  0  0
 49 19  1  0  0  0  0
 55 21  1  0  0  0  0
 64 24  1  0  0  0  0
M  END
