1,2,3,4
q = -2.0, confidence = 0.8

 34 36  0  0  0  0  0  0  0  0999 V2000
   -1.4858   -0.3089   -1.8890 S   0  0  0  0  0  1  0  0  0  0  0  0
   -1.4004    1.2995    0.9512 S   0  0  0  0  0  0  0  0  0  0  0  0
    1.2498    1.4108   -0.9623 S   0  0  0  0  0  0  0  0  0  0  0  0
    1.4795   -0.1433    1.8909 S   0  0  0  0  0  1  0  0  0  0  0  0
   -2.8490    0.6465   -1.3429 C   0  0  0  0  0  0  0  0  0  0  0  0
   -2.8846    1.2966   -0.0807 C   0  0  0  0  0  0  0  0  0  0  0  0
   -4.0402    1.9455    0.3894 C   0  0  0  0  0  0  0  0  0  0  0  0
   -4.0336    2.3973    1.3937 H   0  0  0  0  0  0  0  0  0  0  0  0
   -5.1865    2.0079   -0.4124 C   0  0  0  0  0  0  0  0  0  0  0  0
   -6.0947    2.5072   -0.0451 H   0  0  0  0  0  0  0  0  0  0  0  0
   -5.1559    1.4167   -1.6925 C   0  0  0  0  0  0  0  0  0  0  0  0
   -6.0467    1.4633   -2.3382 H   0  0  0  0  0  0  0  0  0  0  0  0
   -4.0160    0.7516   -2.1488 C   0  0  0  0  0  0  0  0  0  0  0  0
   -4.0095    0.2699   -3.1386 H   0  0  0  0  0  0  0  0  0  0  0  0
   -0.6878    2.8867    0.4329 C   0  0  0  0  0  0  0  0  0  0  0  0
    0.4496    2.9346   -0.3859 C   0  0  0  0  0  0  0  0  0  0  0  0
    0.9754    4.1768   -0.7848 C   0  0  0  0  0  0  0  0  0  0  0  0
    1.8598    4.2056   -1.4379 H   0  0  0  0  0  0  0  0  0  0  0  0
    0.3778    5.3647   -0.3465 C   0  0  0  0  0  0  0  0  0  0  0  0
    0.7960    6.3333   -0.6585 H   0  0  0  0  0  0  0  0  0  0  0  0
   -0.7531    5.3169    0.4870 C   0  0  0  0  0  0  0  0  0  0  0  0
   -1.2236    6.2477    0.8370 H   0  0  0  0  0  0  0  0  0  0  0  0
   -1.2820    4.0812    0.8790 C   0  0  0  0  0  0  0  0  0  0  0  0
   -2.1631    4.0348    1.5354 H   0  0  0  0  0  0  0  0  0  0  0  0
    2.7599    1.4931    0.0271 C   0  0  0  0  0  0  0  0  0  0  0  0
    2.7851    0.8641    1.3000 C   0  0  0  0  0  0  0  0  0  0  0  0
    3.9628    1.0409    2.0768 C   0  0  0  0  0  0  0  0  0  0  0  0
    4.0025    0.5780    3.0747 H   0  0  0  0  0  0  0  0  0  0  0  0
    5.0592    1.7497    1.5806 C   0  0  0  0  0  0  0  0  0  0  0  0
    5.9621    1.8494    2.2031 H   0  0  0  0  0  0  0  0  0  0  0  0
    5.0323    2.3171    0.2898 C   0  0  0  0  0  0  0  0  0  0  0  0
    5.9077    2.8503   -0.1084 H   0  0  0  0  0  0  0  0  0  0  0  0
    3.8707    2.1885   -0.4822 C   0  0  0  0  0  0  0  0  0  0  0  0
    3.8173    2.6226   -1.4930 H   0  0  0  0  0  0  0  0  0  0  0  0
  1  5  1  0  0  0  0
  3 16  1  0  0  0  0
  3 25  1  0  0  0  0
  5  6  1  0  0  0  0
  6  7  2  0  0  0  0
  6  2  1  0  0  0  0
  7  8  1  0  0  0  0
  9 10  1  0  0  0  0
  9  7  1  0  0  0  0
 11  9  2  0  0  0  0
 12 11  1  0  0  0  0
 13 11  1  0  0  0  0
 13  5  2  0  0  0  0
 14 13  1  0  0  0  0
 15 23  1  0  0  0  0
 15  2  1  0  0  0  0
 16 15  2  0  0  0  0
 17 16  1  0  0  0  0
 17 19  2  0  0  0  0
 18 17  1  0  0  0  0
 19 21  1  0  0  0  0
 20 19  1  0  0  0  0
 21 22  1  0  0  0  0
 21 23  2  0  0  0  0
 23 24  1  0  0  0  0
 25 26  1  0  0  0  0
 26  4  1  0  0  0  0
 26 27  2  0  0  0  0
 27 28  1  0  0  0  0
 29 27  1  0  0  0  0
 29 30  1  0  0  0  0
 31 29  2  0  0  0  0
 32 31  1  0  0  0  0
 33 25  2  0  0  0  0
 33 31  1  0  0  0  0
 34 33  1  0  0  0  0
M  END
