1,2,3,4
q = -1.0, confidence = 0.0

 34 35  0  0  0  0  0  0  0  0999 V2000
   -0.8684   -1.8709    1.5588 S   0  0  0  0  0  1  0  0  0  0  0  0
   -1.5995   -0.7779   -1.5004 S   0  0  0  0  0  0  0  0  0  0  0  0
   -1.5885    1.3480    1.2085 S   0  0  0  0  0  0  0  0  0  0  0  0
    0.6599    1.8875   -1.1263 S   0  0  0  0  0  0  0  0  0  0  0  0
   -2.4390   -2.1894   -0.7700 C   0  0  0  0  0  0  0  0  0  0  0  0
   -3.4078   -2.8563   -1.5397 C   0  0  0  0  0  0  0  0  0  0  0  0
   -4.0847   -3.9603   -1.0022 C   0  0  0  0  0  0  0  0  0  0  0  0
   -3.7796   -4.3988    0.2972 C   0  0  0  0  0  0  0  0  0  0  0  0
   -2.8054   -3.7421    1.0600 C   0  0  0  0  0  0  0  0  0  0  0  0
   -2.1141   -2.6278    0.5349 C   0  0  0  0  0  0  0  0  0  0  0  0
   -1.2865    2.9937    0.5502 C   0  0  0  0  0  0  0  0  0  0  0  0
   -2.0465    4.0610    1.0659 C   0  0  0  0  0  0  0  0  0  0  0  0
   -1.8242    5.3651    0.6050 C   0  0  0  0  0  0  0  0  0  0  0  0
   -0.8393    5.6080   -0.3665 C   0  0  0  0  0  0  0  0  0  0  0  0
   -0.0784    4.5501   -0.8816 C   0  0  0  0  0  0  0  0  0  0  0  0
   -0.2880    3.2389   -0.4144 C   0  0  0  0  0  0  0  0  0  0  0  0
   -2.8384    0.5671   -1.2058 C   0  0  0  0  0  0  0  0  0  0  0  0
   -3.0969    0.8485    0.2593 C   0  0  0  0  0  0  0  0  0  0  0  0
    2.3708    2.3538   -0.6764 C   0  0  0  0  0  0  0  0  0  0  0  0
   -3.6222   -2.5134   -2.5634 H   0  0  0  0  0  0  0  0  0  0  0  0
   -4.8413   -4.4839   -1.6041 H   0  0  0  0  0  0  0  0  0  0  0  0
   -4.3020   -5.2689    0.7217 H   0  0  0  0  0  0  0  0  0  0  0  0
   -2.5618   -4.0909    2.0747 H   0  0  0  0  0  0  0  0  0  0  0  0
   -2.8014    3.8648    1.8422 H   0  0  0  0  0  0  0  0  0  0  0  0
   -2.4171    6.1962    1.0136 H   0  0  0  0  0  0  0  0  0  0  0  0
   -0.6630    6.6304   -0.7316 H   0  0  0  0  0  0  0  0  0  0  0  0
    0.6781    4.7429   -1.6568 H   0  0  0  0  0  0  0  0  0  0  0  0
   -2.4335    1.4511   -1.7415 H   0  0  0  0  0  0  0  0  0  0  0  0
   -3.7724    0.2597   -1.7189 H   0  0  0  0  0  0  0  0  0  0  0  0
   -3.4638   -0.0518    0.7942 H   0  0  0  0  0  0  0  0  0  0  0  0
   -3.8437    1.6575    0.3913 H   0  0  0  0  0  0  0  0  0  0  0  0
    3.0076    1.5177   -1.0231 H   0  0  0  0  0  0  0  0  0  0  0  0
    2.4605    2.4701    0.4184 H   0  0  0  0  0  0  0  0  0  0  0  0
    2.6457    3.2831   -1.2077 H   0  0  0  0  0  0  0  0  0  0  0  0
  2 17  1  0  0  0  0
  2  5  1  0  0  0  0
  4 19  1  0  0  0  0
  4 16  1  0  0  0  0
  5 10  1  0  0  0  0
  6  7  1  0  0  0  0
  6  5  2  0  0  0  0
  7  8  2  0  0  0  0
  8 22  1  0  0  0  0
  8  9  1  0  0  0  0
  9 23  1  0  0  0  0
 10  9  2  0  0  0  0
 10  1  1  0  0  0  0
 11 12  1  0  0  0  0
 11  3  1  0  0  0  0
 12 24  1  0  0  0  0
 13 25  1  0  0  0  0
 13 12  2  0  0  0  0
 14 13  1  0  0  0  0
 15 16  1  0  0  0  0
 15 14  2  0  0  0  0
 16 11  2  0  0  0  0
 17 18  1  0  0  0  0
 18 31  1  0  0  0  0
 18 30  1  0  0  0  0
 18  3  1  0  0  0  0
 19 33  1  0  0  0  0
 20  6  1  0  0  0  0
 21  7  1  0  0  0  0
 26 14  1  0  0  0  0
 27 15  1  0  0  0  0
 28 17  1  0  0  0  0
 29 17  1  0  0  0  0
 32 19  1  0  0  0  0
 34 19  1  0  0  0  0
M  END
