1,2,3,4
q = -1.0

 37 38  0  0  0  0  0  0  0  0999 V2000
    0.3757    2.0022    1.5420 S   0  0  0  0  0  1  0  0  0  0  0  0
   -0.9903    1.4941   -1.4528 S   0  0  0  0  0  0  0  0  0  0  0  0
   -2.1217   -0.1758    1.3347 S   0  0  0  0  0  0  0  0  0  0  0  0
   -0.6665   -2.0422   -0.9756 S   0  0  0  0  0  0  0  0  0  0  0  0
   -0.6941    3.1468   -0.8073 C   0  0  0  0  0  0  0  0  0  0  0  0
   -1.0334    4.2433   -1.6184 C   0  0  0  0  0  0  0  0  0  0  0  0
   -0.8414    5.5476   -1.1410 C   0  0  0  0  0  0  0  0  0  0  0  0
   -0.3055    5.7474    0.1422 C   0  0  0  0  0  0  0  0  0  0  0  0
    0.0413    4.6550    0.9473 C   0  0  0  0  0  0  0  0  0  0  0  0
   -0.1400    3.3341    0.4803 C   0  0  0  0  0  0  0  0  0  0  0  0
   -2.9626   -1.5717    0.5755 C   0  0  0  0  0  0  0  0  0  0  0  0
   -4.2678   -1.8785    1.0051 C   0  0  0  0  0  0  0  0  0  0  0  0
   -4.9671   -2.9410    0.4175 C   0  0  0  0  0  0  0  0  0  0  0  0
   -4.3657   -3.7029   -0.5978 C   0  0  0  0  0  0  0  0  0  0  0  0
   -3.0626   -3.4092   -1.0207 C   0  0  0  0  0  0  0  0  0  0  0  0
   -2.3483   -2.3516   -0.4248 C   0  0  0  0  0  0  0  0  0  0  0  0
   -2.7706    1.2708   -0.9987 C   0  0  0  0  0  0  0  0  0  0  0  0
   -3.0149    1.2109    0.4945 C   0  0  0  0  0  0  0  0  0  0  0  0
    0.1683   -3.5220   -0.2074 C   0  0  0  0  0  0  0  0  0  0  0  0
    1.6441   -3.5765   -0.5550 C   0  0  0  0  0  0  0  0  0  0  0  0
   -1.4399    4.0701   -2.6264 H   0  0  0  0  0  0  0  0  0  0  0  0
   -1.1020    6.4063   -1.7763 H   0  0  0  0  0  0  0  0  0  0  0  0
   -0.1478    6.7684    0.5203 H   0  0  0  0  0  0  0  0  0  0  0  0
    0.4691    4.8127    1.9487 H   0  0  0  0  0  0  0  0  0  0  0  0
   -4.7301   -1.2852    1.8086 H   0  0  0  0  0  0  0  0  0  0  0  0
   -5.9861   -3.1764    0.7576 H   0  0  0  0  0  0  0  0  0  0  0  0
   -4.9153   -4.5320   -1.0669 H   0  0  0  0  0  0  0  0  0  0  0  0
   -2.5939   -3.9978   -1.8238 H   0  0  0  0  0  0  0  0  0  0  0  0
   -3.3239    2.1159   -1.4563 H   0  0  0  0  0  0  0  0  0  0  0  0
   -3.0864    0.3390   -1.5125 H   0  0  0  0  0  0  0  0  0  0  0  0
   -2.6563    2.1224    1.0150 H   0  0  0  0  0  0  0  0  0  0  0  0
   -4.0929    1.0839    0.7213 H   0  0  0  0  0  0  0  0  0  0  0  0
   -0.0106   -3.4601    0.8837 H   0  0  0  0  0  0  0  0  0  0  0  0
   -0.3878   -4.3910   -0.6118 H   0  0  0  0  0  0  0  0  0  0  0  0
    1.8139   -3.5616   -1.6496 H   0  0  0  0  0  0  0  0  0  0  0  0
    2.2118   -2.7437   -0.1006 H   0  0  0  0  0  0  0  0  0  0  0  0
    2.0628   -4.5234   -0.1585 H   0  0  0  0  0  0  0  0  0  0  0  0
  2 17  1  0  0  0  0
  2  5  1  0  0  0  0
  4 16  1  0  0  0  0
  4 19  1  0  0  0  0
  5 10  1  0  0  0  0
  6  7  1  0  0  0  0
  6  5  2  0  0  0  0
  7  8  2  0  0  0  0
  8 23  1  0  0  0  0
  8  9  1  0  0  0  0
  9 24  1  0  0  0  0
 10  9  2  0  0  0  0
 10  1  1  0  0  0  0
 11 12  1  0  0  0  0
 11  3  1  0  0  0  0
 12 25  1  0  0  0  0
 13 26  1  0  0  0  0
 13 12  2  0  0  0  0
 14 13  1  0  0  0  0
 15 14  2  0  0  0  0
 15 16  1  0  0  0  0
 16 11  2  0  0  0  0
 17 18  1  0  0  0  0
 18 32  1  0  0  0  0
 18 31  1  0  0  0  0
 18  3  1  0  0  0  0
 19 33  1  0  0  0  0
 20 19  1  0  0  0  0
 20 37  1  0  0  0  0
 20 36  1  0  0  0  0
 21  6  1  0  0  0  0
 22  7  1  0  0  0  0
 27 14  1  0  0  0  0
 28 15  1  0  0  0  0
 29 17  1  0  0  0  0
 30 17  1  0  0  0  0
 34 19  1  0  0  0  0
 35 20  1  0  0  0  0
M  END
