1,2,5,6
q = -2.0, confidence = 0.78

 44 45  0  0  0  0  0  0  0  0999 V2000
    1.3561   -1.0061   -1.7347 S   0  0  0  0  0  1  0  0  0  0  0  0
    1.6780   -1.1283    1.3972 S   0  0  0  0  0  0  0  0  0  0  0  0
    1.8471    3.3516    1.2679 S   0  0  0  0  0  0  0  0  0  0  0  0
   -1.8472    3.3516   -1.2678 S   0  0  0  0  0  0  0  0  0  0  0  0
   -1.6779   -1.1283   -1.3971 S   0  0  0  0  0  0  0  0  0  0  0  0
   -1.3560   -1.0065    1.7346 S   0  0  0  0  0  1  0  0  0  0  0  0
    3.1469   -1.2041    0.3690 C   0  0  0  0  0  0  0  0  0  0  0  0
    4.4178   -1.3264    0.9517 C   0  0  0  0  0  0  0  0  0  0  0  0
    5.5512   -1.3573    0.1276 C   0  0  0  0  0  0  0  0  0  0  0  0
    5.3910   -1.2812   -1.2697 C   0  0  0  0  0  0  0  0  0  0  0  0
    4.1201   -1.1765   -1.8455 C   0  0  0  0  0  0  0  0  0  0  0  0
    2.9633   -1.1342   -1.0301 C   0  0  0  0  0  0  0  0  0  0  0  0
   -3.1469   -1.2040   -0.3690 C   0  0  0  0  0  0  0  0  0  0  0  0
   -4.4178   -1.3262   -0.9517 C   0  0  0  0  0  0  0  0  0  0  0  0
   -5.5512   -1.3572   -0.1276 C   0  0  0  0  0  0  0  0  0  0  0  0
   -5.3910   -1.2812    1.2697 C   0  0  0  0  0  0  0  0  0  0  0  0
   -4.1201   -1.1767    1.8455 C   0  0  0  0  0  0  0  0  0  0  0  0
   -2.9633   -1.1344    1.0301 C   0  0  0  0  0  0  0  0  0  0  0  0
    1.7624    0.6448    1.9751 C   0  0  0  0  0  0  0  0  0  0  0  0
    2.1587    1.5996    0.8571 C   0  0  0  0  0  0  0  0  0  0  0  0
    0.0873    3.4496    0.7595 C   0  0  0  0  0  0  0  0  0  0  0  0
   -1.7626    0.6447   -1.9752 C   0  0  0  0  0  0  0  0  0  0  0  0
   -2.1586    1.5996   -0.8570 C   0  0  0  0  0  0  0  0  0  0  0  0
   -0.0874    3.4497   -0.7594 C   0  0  0  0  0  0  0  0  0  0  0  0
    4.5136   -1.3978    2.0463 H   0  0  0  0  0  0  0  0  0  0  0  0
    6.5530   -1.4519    0.5709 H   0  0  0  0  0  0  0  0  0  0  0  0
    6.2762   -1.3117   -1.9233 H   0  0  0  0  0  0  0  0  0  0  0  0
    4.0032   -1.1264   -2.9384 H   0  0  0  0  0  0  0  0  0  0  0  0
   -4.5136   -1.3975   -2.0464 H   0  0  0  0  0  0  0  0  0  0  0  0
   -6.5530   -1.4517   -0.5710 H   0  0  0  0  0  0  0  0  0  0  0  0
   -6.2762   -1.3118    1.9232 H   0  0  0  0  0  0  0  0  0  0  0  0
   -4.0032   -1.1268    2.9384 H   0  0  0  0  0  0  0  0  0  0  0  0
    2.4691    0.6793    2.8286 H   0  0  0  0  0  0  0  0  0  0  0  0
    0.7388    0.8333    2.3576 H   0  0  0  0  0  0  0  0  0  0  0  0
    3.2373    1.5120    0.6248 H   0  0  0  0  0  0  0  0  0  0  0  0
    1.6108    1.3311   -0.0705 H   0  0  0  0  0  0  0  0  0  0  0  0
   -0.3095    4.3849    1.2012 H   0  0  0  0  0  0  0  0  0  0  0  0
   -0.4683    2.6111    1.2303 H   0  0  0  0  0  0  0  0  0  0  0  0
   -2.4695    0.6791   -2.8285 H   0  0  0  0  0  0  0  0  0  0  0  0
   -0.7391    0.8334   -2.3580 H   0  0  0  0  0  0  0  0  0  0  0  0
   -3.2372    1.5119   -0.6245 H   0  0  0  0  0  0  0  0  0  0  0  0
   -1.6105    1.3310    0.0704 H   0  0  0  0  0  0  0  0  0  0  0  0
    0.3094    4.3851   -1.2010 H   0  0  0  0  0  0  0  0  0  0  0  0
    0.4683    2.6113   -1.2303 H   0  0  0  0  0  0  0  0  0  0  0  0
  1 12  1  0  0  0  0
  2 19  1  0  0  0  0
  4 23  1  0  0  0  0
  4 24  1  0  0  0  0
  5 13  1  0  0  0  0
  7  8  1  0  0  0  0
  7  2  1  0  0  0  0
  8 25  1  0  0  0  0
  9 26  1  0  0  0  0
  9  8  2  0  0  0  0
 10  9  1  0  0  0  0
 11 10  2  0  0  0  0
 11 12  1  0  0  0  0
 12  7  2  0  0  0  0
 13 18  1  0  0  0  0
 14 13  2  0  0  0  0
 14 15  1  0  0  0  0
 15 16  2  0  0  0  0
 16 17  1  0  0  0  0
 16 31  1  0  0  0  0
 17 32  1  0  0  0  0
 18  6  1  0  0  0  0
 18 17  2  0  0  0  0
 19 34  1  0  0  0  0
 19 33  1  0  0  0  0
 20  3  1  0  0  0  0
 20 19  1  0  0  0  0
 21 37  1  0  0  0  0
 21 38  1  0  0  0  0
 21  3  1  0  0  0  0
 22  5  1  0  0  0  0
 22 23  1  0  0  0  0
 23 41  1  0  0  0  0
 23 42  1  0  0  0  0
 24 21  1  0  0  0  0
 27 10  1  0  0  0  0
 28 11  1  0  0  0  0
 29 14  1  0  0  0  0
 30 15  1  0  0  0  0
 35 20  1  0  0  0  0
 36 20  1  0  0  0  0
 39 22  1  0  0  0  0
 40 22  1  0  0  0  0
 43 24  1  0  0  0  0
 44 24  1  0  0  0  0
M  END
