1,2,3,4
q = 0.0, confidence = 1.0

 41 42  0  0  1  0  0  0  0  0999 V2000
   -0.9564   -1.2812   -1.1507 S   0  0  0  0  0  0  0  0  0  0  0  0
   -0.9572    1.2813    1.1507 S   0  0  0  0  0  0  0  0  0  0  0  0
    2.1256    1.3118   -1.0853 S   0  0  0  0  0  0  0  0  0  0  0  0
    2.1264   -1.3121    1.0854 S   0  0  0  0  0  0  0  0  0  0  0  0
   -2.3762   -0.7631   -0.0960 C   0  0  2  0  0  0  0  0  0  0  0  0
   -2.2485   -1.2520    0.8951 H   0  0  0  0  0  0  0  0  0  0  0  0
   -3.7681   -1.0388   -0.6838 C   0  0  0  0  0  0  0  0  0  0  0  0
   -4.0891   -2.0868   -0.5283 H   0  0  0  0  0  0  0  0  0  0  0  0
   -3.7265   -0.8704   -1.7792 H   0  0  0  0  0  0  0  0  0  0  0  0
   -4.7019   -0.0017    0.0014 C   0  0  0  0  0  0  0  0  0  0  0  0
   -5.3672    0.4716   -0.7457 H   0  0  0  0  0  0  0  0  0  0  0  0
   -5.3613   -0.4779    0.7520 H   0  0  0  0  0  0  0  0  0  0  0  0
   -3.7687    1.0389    0.6825 C   0  0  0  0  0  0  0  0  0  0  0  0
   -3.7268    0.8749    1.7785 H   0  0  0  0  0  0  0  0  0  0  0  0
   -4.0908    2.0860    0.5230 H   0  0  0  0  0  0  0  0  0  0  0  0
   -2.3764    0.7629    0.0954 C   0  0  1  0  0  0  0  0  0  0  0  0
   -2.2481    1.2516   -0.8957 H   0  0  0  0  0  0  0  0  0  0  0  0
   -0.7029    3.0344    0.6299 C   0  0  0  0  0  0  0  0  0  0  0  0
   -1.7122    3.4527    0.4439 H   0  0  0  0  0  0  0  0  0  0  0  0
   -0.3172    3.5319    1.5433 H   0  0  0  0  0  0  0  0  0  0  0  0
    0.2245    3.2913   -0.5583 C   0  0  0  0  0  0  0  0  0  0  0  0
    0.1587    4.3786   -0.7759 H   0  0  0  0  0  0  0  0  0  0  0  0
   -0.1594    2.7892   -1.4729 H   0  0  0  0  0  0  0  0  0  0  0  0
    1.7094    2.9445   -0.3347 C   0  0  0  0  0  0  0  0  0  0  0  0
    1.9552    2.8989    0.7469 H   0  0  0  0  0  0  0  0  0  0  0  0
    2.3675    3.7008   -0.8044 H   0  0  0  0  0  0  0  0  0  0  0  0
    3.5803    0.7588   -0.0880 C   0  0  0  0  0  0  0  0  0  0  0  0
    4.5088    1.0717   -0.6073 H   0  0  0  0  0  0  0  0  0  0  0  0
    3.5421    1.2776    0.8921 H   0  0  0  0  0  0  0  0  0  0  0  0
    3.5808   -0.7577    0.0884 C   0  0  0  0  0  0  0  0  0  0  0  0
    4.5094   -1.0701    0.6080 H   0  0  0  0  0  0  0  0  0  0  0  0
    3.5432   -1.2766   -0.8917 H   0  0  0  0  0  0  0  0  0  0  0  0
    1.7102   -2.9439    0.3330 C   0  0  0  0  0  0  0  0  0  0  0  0
    1.9551   -2.8968   -0.7487 H   0  0  0  0  0  0  0  0  0  0  0  0
    2.3690   -3.7006    0.8012 H   0  0  0  0  0  0  0  0  0  0  0  0
    0.2255   -3.2915    0.5573 C   0  0  0  0  0  0  0  0  0  0  0  0
    0.1602   -4.3789    0.7747 H   0  0  0  0  0  0  0  0  0  0  0  0
   -0.1581   -2.7897    1.4722 H   0  0  0  0  0  0  0  0  0  0  0  0
   -0.7024   -3.0344   -0.6303 C   0  0  0  0  0  0  0  0  0  0  0  0
   -1.7118   -3.4525   -0.4439 H   0  0  0  0  0  0  0  0  0  0  0  0
   -0.3173   -3.5319   -1.5441 H   0  0  0  0  0  0  0  0  0  0  0  0
  1 39  1  0  0  0  0
  1  5  1  0  0  0  0
  3 24  1  0  0  0  0
  3 27  1  0  0  0  0
  5 16  1  0  0  0  0
  5  6  1  1  0  0  0
  7  8  1  0  0  0  0
  7  5  1  0  0  0  0
  7 10  1  0  0  0  0
  9  7  1  0  0  0  0
 10 13  1  0  0  0  0
 10 12  1  0  0  0  0
 11 10  1  0  0  0  0
 13 14  1  0  0  0  0
 15 13  1  0  0  0  0
 16 17  1  6  0  0  0
 16 13  1  0  0  0  0
 16  2  1  0  0  0  0
 18  2  1  0  0  0  0
 18 20  1  0  0  0  0
 19 18  1  0  0  0  0
 21 24  1  0  0  0  0
 21 18  1  0  0  0  0
 22 21  1  0  0  0  0
 23 21  1  0  0  0  0
 24 25  1  0  0  0  0
 26 24  1  0  0  0  0
 27 30  1  0  0  0  0
 27 29  1  0  0  0  0
 28 27  1  0  0  0  0
 30 31  1  0  0  0  0
 30  4  1  0  0  0  0
 32 30  1  0  0  0  0
 33 36  1  0  0  0  0
 33 35  1  0  0  0  0
 33  4  1  0  0  0  0
 34 33  1  0  0  0  0
 36 37  1  0  0  0  0
 36 38  1  0  0  0  0
 39 40  1  0  0  0  0
 39 36  1  0  0  0  0
 41 39  1  0  0  0  0
M  END
