1,2,33,34
q = 0.0, confidence = 0.986

 59 60  0  0  0  0  0  0  0  0999 V2000
    1.5978    0.7882    0.5417 S   0  0  0  0  0  0  0  0  0  0  0  0
   -1.8085   -2.2822   -0.6027 S   0  0  0  0  0  0  0  0  0  0  0  0
    2.8867    0.0817    1.6346 C   0  0  0  0  0  0  0  0  0  0  0  0
    3.7070   -1.0806    1.0839 C   0  0  0  0  0  0  0  0  0  0  0  0
   -2.9454   -2.3790    0.8409 C   0  0  0  0  0  0  0  0  0  0  0  0
   -1.2818   -4.0396   -0.6052 C   0  0  0  0  0  0  0  0  0  0  0  0
    0.0001   -4.2996   -1.3944 C   0  0  0  0  0  0  0  0  0  0  0  0
    2.5757    1.2547   -0.9606 C   0  0  0  0  0  0  0  0  0  0  0  0
    3.6740    2.2118   -0.5924 C   0  0  0  0  0  0  0  0  0  0  0  0
    5.0239    1.8594   -0.7933 C   0  0  0  0  0  0  0  0  0  0  0  0
    6.0523    2.7492   -0.4469 C   0  0  0  0  0  0  0  0  0  0  0  0
    5.7418    3.9976    0.1132 C   0  0  0  0  0  0  0  0  0  0  0  0
    4.3989    4.3578    0.3178 C   0  0  0  0  0  0  0  0  0  0  0  0
    3.3716    3.4722   -0.0329 C   0  0  0  0  0  0  0  0  0  0  0  0
    2.3151   -0.2078    2.5389 H   0  0  0  0  0  0  0  0  0  0  0  0
    3.5398    0.9414    1.8854 H   0  0  0  0  0  0  0  0  0  0  0  0
    4.2614   -0.7738    0.1735 H   0  0  0  0  0  0  0  0  0  0  0  0
    4.4891   -1.3036    1.8417 H   0  0  0  0  0  0  0  0  0  0  0  0
   -2.3333   -2.6692    1.7191 H   0  0  0  0  0  0  0  0  0  0  0  0
   -3.6497   -3.1968    0.5867 H   0  0  0  0  0  0  0  0  0  0  0  0
   -2.1367   -4.5854   -1.0529 H   0  0  0  0  0  0  0  0  0  0  0  0
   -1.1743   -4.3584    0.4518 H   0  0  0  0  0  0  0  0  0  0  0  0
    0.0001   -5.3757   -1.6663 H   0  0  0  0  0  0  0  0  0  0  0  0
    0.0000   -3.7466   -2.3583 H   0  0  0  0  0  0  0  0  0  0  0  0
    1.8026    1.6896   -1.6240 H   0  0  0  0  0  0  0  0  0  0  0  0
    2.9444    0.3357   -1.4554 H   0  0  0  0  0  0  0  0  0  0  0  0
    5.2718    0.8870   -1.2480 H   0  0  0  0  0  0  0  0  0  0  0  0
    7.1014    2.4664   -0.6196 H   0  0  0  0  0  0  0  0  0  0  0  0
    6.5473    4.6952    0.3866 H   0  0  0  0  0  0  0  0  0  0  0  0
    4.1514    5.3393    0.7488 H   0  0  0  0  0  0  0  0  0  0  0  0
    2.3202    3.7586    0.1277 H   0  0  0  0  0  0  0  0  0  0  0  0
    2.9455   -2.3789    0.8409 C   0  0  0  0  0  0  0  0  0  0  0  0
    1.8086   -2.2821   -0.6027 S   0  0  0  0  0  0  0  0  0  0  0  0
   -1.5979    0.7881    0.5417 S   0  0  0  0  0  0  0  0  0  0  0  0
   -2.8867    0.0816    1.6347 C   0  0  0  0  0  0  0  0  0  0  0  0
   -3.7070   -1.0808    1.0840 C   0  0  0  0  0  0  0  0  0  0  0  0
    1.2819   -4.0395   -0.6052 C   0  0  0  0  0  0  0  0  0  0  0  0
    2.1369   -4.5853   -1.0529 H   0  0  0  0  0  0  0  0  0  0  0  0
    1.1744   -4.3583    0.4518 H   0  0  0  0  0  0  0  0  0  0  0  0
   -4.2614   -0.7740    0.1736 H   0  0  0  0  0  0  0  0  0  0  0  0
   -4.4890   -1.3038    1.8418 H   0  0  0  0  0  0  0  0  0  0  0  0
   -2.3151   -0.2079    2.5390 H   0  0  0  0  0  0  0  0  0  0  0  0
   -3.5399    0.9413    1.8854 H   0  0  0  0  0  0  0  0  0  0  0  0
   -2.5758    1.2546   -0.9605 C   0  0  0  0  0  0  0  0  0  0  0  0
   -3.6741    2.2117   -0.5924 C   0  0  0  0  0  0  0  0  0  0  0  0
   -5.0240    1.8595   -0.7932 C   0  0  0  0  0  0  0  0  0  0  0  0
   -6.0524    2.7493   -0.4468 C   0  0  0  0  0  0  0  0  0  0  0  0
   -5.7417    3.9977    0.1131 C   0  0  0  0  0  0  0  0  0  0  0  0
   -4.3988    4.3578    0.3176 C   0  0  0  0  0  0  0  0  0  0  0  0
   -3.3716    3.4722   -0.0330 C   0  0  0  0  0  0  0  0  0  0  0  0
   -2.3202    3.7585    0.1275 H   0  0  0  0  0  0  0  0  0  0  0  0
   -4.1513    5.3394    0.7486 H   0  0  0  0  0  0  0  0  0  0  0  0
   -6.5472    4.6953    0.3866 H   0  0  0  0  0  0  0  0  0  0  0  0
   -7.1015    2.4666   -0.6195 H   0  0  0  0  0  0  0  0  0  0  0  0
   -5.2720    0.8870   -1.2479 H   0  0  0  0  0  0  0  0  0  0  0  0
   -1.8027    1.6894   -1.6240 H   0  0  0  0  0  0  0  0  0  0  0  0
   -2.9446    0.3356   -1.4553 H   0  0  0  0  0  0  0  0  0  0  0  0
    2.3335   -2.6692    1.7191 H   0  0  0  0  0  0  0  0  0  0  0  0
    3.6499   -3.1966    0.5865 H   0  0  0  0  0  0  0  0  0  0  0  0
  1  3  1  0  0  0  0
  2  5  1  0  0  0  0
  3 16  1  0  0  0  0
  3 15  1  0  0  0  0
  4  3  1  0  0  0  0
  4 18  1  0  0  0  0
  5 36  1  0  0  0  0
  5 19  1  0  0  0  0
  6  2  1  0  0  0  0
  6 22  1  0  0  0  0
  7 37  1  0  0  0  0
  7  6  1  0  0  0  0
  8  9  1  0  0  0  0
  8  1  1  0  0  0  0
  9 14  1  0  0  0  0
 10  9  2  0  0  0  0
 10 11  1  0  0  0  0
 11 12  2  0  0  0  0
 12 13  1  0  0  0  0
 12 29  1  0  0  0  0
 13 30  1  0  0  0  0
 14 31  1  0  0  0  0
 14 13  2  0  0  0  0
 17  4  1  0  0  0  0
 20  5  1  0  0  0  0
 21  6  1  0  0  0  0
 23  7  1  0  0  0  0
 24  7  1  0  0  0  0
 25  8  1  0  0  0  0
 26  8  1  0  0  0  0
 27 10  1  0  0  0  0
 28 11  1  0  0  0  0
 32  4  1  0  0  0  0
 32 58  1  0  0  0  0
 33 32  1  0  0  0  0
 34 35  1  0  0  0  0
 35 43  1  0  0  0  0
 35 42  1  0  0  0  0
 36 35  1  0  0  0  0
 36 41  1  0  0  0  0
 37 33  1  0  0  0  0
 37 39  1  0  0  0  0
 38 37  1  0  0  0  0
 40 36  1  0  0  0  0
 44 45  1  0  0  0  0
 44 34  1  0  0  0  0
 45 50  1  0  0  0  0
 46 45  2  0  0  0  0
 46 47  1  0  0  0  0
 47 48  2  0  0  0  0
 48 49  1  0  0  0  0
 48 53  1  0  0  0  0
 49 52  1  0  0  0  0
 50 51  1  0  0  0  0
 50 49  2  0  0  0  0
 54 47  1  0  0  0  0
 55 46  1  0  0  0  0
 56 44  1  0  0  0  0
 57 44  1  0  0  0  0
 59 32  1  0  0  0  0
M  END
