1,2,3,4
q = 0.0, confidence = 0.998

 53 54  0  0  0  0  0  0  0  0999 V2000
   -1.0775   -0.2998    0.6470 S   0  0  0  0  0  0  0  0  0  0  0  0
    1.6376   -2.0284    1.2924 S   0  0  0  0  0  0  0  0  0  0  0  0
    3.5459    0.3733   -0.0218 S   0  0  0  0  0  0  0  0  0  0  0  0
    0.8652    1.9869   -1.0563 S   0  0  0  0  0  0  0  0  0  0  0  0
   -1.0759   -1.9888    1.3870 C   0  0  0  0  0  0  0  0  0  0  0  0
    0.0514   -2.8723    0.8900 C   0  0  0  0  0  0  0  0  0  0  0  0
    2.8155   -2.9979    0.2694 C   0  0  0  0  0  0  0  0  0  0  0  0
    4.1959   -2.3392    0.1991 C   0  0  0  0  0  0  0  0  0  0  0  0
    4.3072   -1.1364   -0.7417 C   0  0  0  0  0  0  0  0  0  0  0  0
    3.5565    1.4881   -1.4882 C   0  0  0  0  0  0  0  0  0  0  0  0
    2.5939    2.6290   -1.2183 C   0  0  0  0  0  0  0  0  0  0  0  0
   -1.9843   -0.5523   -0.9634 C   0  0  0  0  0  0  0  0  0  0  0  0
   -3.2378   -1.3483   -0.7656 C   0  0  0  0  0  0  0  0  0  0  0  0
   -3.3138   -2.6720   -1.2482 C   0  0  0  0  0  0  0  0  0  0  0  0
   -4.4720   -3.4378   -1.0440 C   0  0  0  0  0  0  0  0  0  0  0  0
   -5.5611   -2.8912   -0.3471 C   0  0  0  0  0  0  0  0  0  0  0  0
   -5.4915   -1.5751    0.1407 C   0  0  0  0  0  0  0  0  0  0  0  0
   -4.3377   -0.8072   -0.0656 C   0  0  0  0  0  0  0  0  0  0  0  0
    0.1520    3.3191    0.0109 C   0  0  0  0  0  0  0  0  0  0  0  0
   -1.3377    3.1494    0.1273 C   0  0  0  0  0  0  0  0  0  0  0  0
   -1.9175    2.8465    1.3752 C   0  0  0  0  0  0  0  0  0  0  0  0
   -3.3110    2.7350    1.4982 C   0  0  0  0  0  0  0  0  0  0  0  0
   -4.1346    2.9067    0.3745 C   0  0  0  0  0  0  0  0  0  0  0  0
   -3.5624    3.1874   -0.8788 C   0  0  0  0  0  0  0  0  0  0  0  0
   -2.1717    3.3115   -1.0011 C   0  0  0  0  0  0  0  0  0  0  0  0
   -2.0674   -2.4317    1.1607 H   0  0  0  0  0  0  0  0  0  0  0  0
   -1.0154   -1.8111    2.4796 H   0  0  0  0  0  0  0  0  0  0  0  0
    0.0498   -3.8556    1.4043 H   0  0  0  0  0  0  0  0  0  0  0  0
    0.0170   -3.0138   -0.2094 H   0  0  0  0  0  0  0  0  0  0  0  0
    2.3674   -3.1123   -0.7378 H   0  0  0  0  0  0  0  0  0  0  0  0
    2.8833   -3.9853    0.7689 H   0  0  0  0  0  0  0  0  0  0  0  0
    4.8961   -3.1093   -0.1878 H   0  0  0  0  0  0  0  0  0  0  0  0
    4.5669   -2.0843    1.2155 H   0  0  0  0  0  0  0  0  0  0  0  0
    5.3713   -0.8734   -0.9079 H   0  0  0  0  0  0  0  0  0  0  0  0
    3.8078   -1.3311   -1.7116 H   0  0  0  0  0  0  0  0  0  0  0  0
    3.2553    0.8911   -2.3734 H   0  0  0  0  0  0  0  0  0  0  0  0
    4.5908    1.8662   -1.6188 H   0  0  0  0  0  0  0  0  0  0  0  0
    2.8465    3.1671   -0.2816 H   0  0  0  0  0  0  0  0  0  0  0  0
    2.5939    3.3486   -2.0616 H   0  0  0  0  0  0  0  0  0  0  0  0
   -1.2774   -1.0095   -1.6812 H   0  0  0  0  0  0  0  0  0  0  0  0
   -2.1809    0.4973   -1.2654 H   0  0  0  0  0  0  0  0  0  0  0  0
   -2.4622   -3.0962   -1.8041 H   0  0  0  0  0  0  0  0  0  0  0  0
   -4.5262   -4.4645   -1.4358 H   0  0  0  0  0  0  0  0  0  0  0  0
   -6.4695   -3.4909   -0.1871 H   0  0  0  0  0  0  0  0  0  0  0  0
   -6.3466   -1.1434    0.6822 H   0  0  0  0  0  0  0  0  0  0  0  0
   -4.2809    0.2252    0.3123 H   0  0  0  0  0  0  0  0  0  0  0  0
    0.4221    4.2614   -0.5099 H   0  0  0  0  0  0  0  0  0  0  0  0
    0.6618    3.2576    0.9922 H   0  0  0  0  0  0  0  0  0  0  0  0
   -1.2667    2.6954    2.2494 H   0  0  0  0  0  0  0  0  0  0  0  0
   -3.7546    2.5139    2.4804 H   0  0  0  0  0  0  0  0  0  0  0  0
   -5.2279    2.8291    0.4735 H   0  0  0  0  0  0  0  0  0  0  0  0
   -4.2050    3.3251   -1.7611 H   0  0  0  0  0  0  0  0  0  0  0  0
   -1.7272    3.5490   -1.9808 H   0  0  0  0  0  0  0  0  0  0  0  0
  1  5  1  0  0  0  0
  4 19  1  0  0  0  0
  5 27  1  0  0  0  0
  6  2  1  0  0  0  0
  6  5  1  0  0  0  0
  6 28  1  0  0  0  0
  7 31  1  0  0  0  0
  7  2  1  0  0  0  0
  8  7  1  0  0  0  0
  8 33  1  0  0  0  0
  9  3  1  0  0  0  0
  9  8  1  0  0  0  0
 10 11  1  0  0  0  0
 10  3  1  0  0  0  0
 11  4  1  0  0  0  0
 11 38  1  0  0  0  0
 12 13  1  0  0  0  0
 12  1  1  0  0  0  0
 13 18  1  0  0  0  0
 14 15  1  0  0  0  0
 14 13  2  0  0  0  0
 15 16  2  0  0  0  0
 16 44  1  0  0  0  0
 16 17  1  0  0  0  0
 17 45  1  0  0  0  0
 18 17  2  0  0  0  0
 18 46  1  0  0  0  0
 19 20  1  0  0  0  0
 19 48  1  0  0  0  0
 20 21  1  0  0  0  0
 21 22  2  0  0  0  0
 21 49  1  0  0  0  0
 22 50  1  0  0  0  0
 23 51  1  0  0  0  0
 23 22  1  0  0  0  0
 24 23  2  0  0  0  0
 25 24  1  0  0  0  0
 25 20  2  0  0  0  0
 26  5  1  0  0  0  0
 29  6  1  0  0  0  0
 30  7  1  0  0  0  0
 32  8  1  0  0  0  0
 34  9  1  0  0  0  0
 35  9  1  0  0  0  0
 36 10  1  0  0  0  0
 37 10  1  0  0  0  0
 39 11  1  0  0  0  0
 40 12  1  0  0  0  0
 41 12  1  0  0  0  0
 42 14  1  0  0  0  0
 43 15  1  0  0  0  0
 47 19  1  0  0  0  0
 52 24  1  0  0  0  0
 53 25  1  0  0  0  0
M  END
