1,2,3,4
q = -2.0, confidence = 0.834

 37 38  0  0  0  0  0  0  0  0999 V2000
    1.5869   -1.6160    0.5254 S   0  0  0  0  0  1  0  0  0  0  0  0
    1.6582    1.4107   -0.4623 S   0  0  0  0  0  0  0  0  0  0  0  0
   -1.4988    1.4662   -0.8497 S   0  0  0  0  0  1  0  0  0  0  0  0
   -1.5975   -1.5125    0.3464 S   0  0  0  0  0  0  0  0  0  0  0  0
    3.1790    0.4596   -0.4053 C   0  0  0  0  0  0  0  0  0  0  0  0
    4.3872    1.0501   -0.8095 C   0  0  0  0  0  0  0  0  0  0  0  0
    5.5823    0.3291   -0.6906 C   0  0  0  0  0  0  0  0  0  0  0  0
    5.5448   -0.9779   -0.1640 C   0  0  0  0  0  0  0  0  0  0  0  0
    4.3379   -1.5675    0.2230 C   0  0  0  0  0  0  0  0  0  0  0  0
    3.1104   -0.8655    0.0975 C   0  0  0  0  0  0  0  0  0  0  0  0
   -3.1189   -0.6743   -0.1208 C   0  0  0  0  0  0  0  0  0  0  0  0
   -4.3451   -1.3500    0.0053 C   0  0  0  0  0  0  0  0  0  0  0  0
   -5.5353   -0.7012   -0.3457 C   0  0  0  0  0  0  0  0  0  0  0  0
   -5.4774    0.6182   -0.8389 C   0  0  0  0  0  0  0  0  0  0  0  0
   -4.2551    1.2790   -0.9860 C   0  0  0  0  0  0  0  0  0  0  0  0
   -3.0348    0.6441   -0.6340 C   0  0  0  0  0  0  0  0  0  0  0  0
    1.6775    2.0777    1.2890 C   0  0  0  0  0  0  0  0  0  0  0  0
    0.2935    1.9940    1.8910 C   0  0  0  0  0  0  0  0  0  0  0  0
   -0.0996    0.6214    1.8082 O   0  0  0  0  0  0  0  0  0  0  0  0
   -1.3480    0.3002    2.4273 C   0  0  0  0  0  0  0  0  0  0  0  0
   -1.5918   -1.1701    2.1690 C   0  0  0  0  0  0  0  0  0  0  0  0
    4.3815    2.0746   -1.2133 H   0  0  0  0  0  0  0  0  0  0  0  0
    6.5343    0.7779   -1.0093 H   0  0  0  0  0  0  0  0  0  0  0  0
    6.4783   -1.5538   -0.0675 H   0  0  0  0  0  0  0  0  0  0  0  0
    4.3189   -2.5965    0.6127 H   0  0  0  0  0  0  0  0  0  0  0  0
   -4.3572   -2.3859    0.3797 H   0  0  0  0  0  0  0  0  0  0  0  0
   -6.4993   -1.2209   -0.2473 H   0  0  0  0  0  0  0  0  0  0  0  0
   -6.4062    1.1352   -1.1258 H   0  0  0  0  0  0  0  0  0  0  0  0
   -4.2184    2.3029   -1.3879 H   0  0  0  0  0  0  0  0  0  0  0  0
    2.0476    3.1207    1.2590 H   0  0  0  0  0  0  0  0  0  0  0  0
    2.3890    1.4391    1.8467 H   0  0  0  0  0  0  0  0  0  0  0  0
   -0.4445    2.6239    1.3418 H   0  0  0  0  0  0  0  0  0  0  0  0
    0.3209    2.3060    2.9596 H   0  0  0  0  0  0  0  0  0  0  0  0
   -1.2740    0.4990    3.5210 H   0  0  0  0  0  0  0  0  0  0  0  0
   -2.1646    0.9273    2.0019 H   0  0  0  0  0  0  0  0  0  0  0  0
   -0.7638   -1.7882    2.5717 H   0  0  0  0  0  0  0  0  0  0  0  0
   -2.5574   -1.5102    2.5905 H   0  0  0  0  0  0  0  0  0  0  0  0
  2  5  1  0  0  0  0
  2 17  1  0  0  0  0
  3 16  1  0  0  0  0
  4 21  1  0  0  0  0
  5 10  1  0  0  0  0
  6  7  1  0  0  0  0
  6  5  2  0  0  0  0
  7  8  2  0  0  0  0
  8 24  1  0  0  0  0
  8  9  1  0  0  0  0
  9 25  1  0  0  0  0
 10  9  2  0  0  0  0
 10  1  1  0  0  0  0
 11 12  1  0  0  0  0
 11  4  1  0  0  0  0
 12 26  1  0  0  0  0
 13 27  1  0  0  0  0
 13 12  2  0  0  0  0
 14 13  1  0  0  0  0
 15 14  2  0  0  0  0
 15 16  1  0  0  0  0
 16 11  2  0  0  0  0
 17 31  1  0  0  0  0
 17 18  1  0  0  0  0
 18 33  1  0  0  0  0
 19 18  1  0  0  0  0
 19 20  1  0  0  0  0
 20 34  1  0  0  0  0
 21 20  1  0  0  0  0
 21 36  1  0  0  0  0
 21 37  1  0  0  0  0
 22  6  1  0  0  0  0
 23  7  1  0  0  0  0
 28 14  1  0  0  0  0
 29 15  1  0  0  0  0
 30 17  1  0  0  0  0
 32 18  1  0  0  0  0
 35 20  1  0  0  0  0
M  END
