1,2,3,4
q = -2.0, confidence = 0.922

 32 33  0  0  0  0  0  0  0  0999 V2000
    1.6903   -1.4643    0.4467 S   0  0  0  0  0  5  0  0  0  0  0  0
    1.9876    1.2389   -1.3050 S   0  0  0  0  0  0  0  0  0  0  0  0
   -0.0454    1.3932    1.2364 S   0  0  0  0  0  0  0  0  0  0  0  0
   -1.2778    1.4007   -1.7924 S   0  0  0  0  0  1  0  0  0  0  0  0
    1.9808   -2.6738   -0.4601 O   0  0  0  0  0  0  0  0  0  0  0  0
    1.5849   -1.8252    1.9111 O   0  0  0  0  0  0  0  0  0  0  0  0
    3.4518    0.5288   -0.4986 C   0  0  0  0  0  0  0  0  0  0  0  0
    4.7203    1.1068   -0.6949 C   0  0  0  0  0  0  0  0  0  0  0  0
    4.8358    1.9712   -1.3675 H   0  0  0  0  0  0  0  0  0  0  0  0
    5.8292    0.5724   -0.0234 C   0  0  0  0  0  0  0  0  0  0  0  0
    6.8227    1.0224   -0.1693 H   0  0  0  0  0  0  0  0  0  0  0  0
    5.6742   -0.5362    0.8313 C   0  0  0  0  0  0  0  0  0  0  0  0
    6.5483   -0.9473    1.3591 H   0  0  0  0  0  0  0  0  0  0  0  0
    4.4140   -1.1216    1.0066 C   0  0  0  0  0  0  0  0  0  0  0  0
    4.2558   -1.9870    1.6683 H   0  0  0  0  0  0  0  0  0  0  0  0
    3.3065   -0.5855    0.3326 C   0  0  0  0  0  0  0  0  0  0  0  0
   -1.1921    2.6809    0.6832 C   0  0  0  0  0  0  0  0  0  0  0  0
   -1.5760    3.6723    1.6046 C   0  0  0  0  0  0  0  0  0  0  0  0
   -1.1825    3.6325    2.6333 H   0  0  0  0  0  0  0  0  0  0  0  0
   -2.4571    4.6884    1.2175 C   0  0  0  0  0  0  0  0  0  0  0  0
   -2.7593    5.4647    1.9354 H   0  0  0  0  0  0  0  0  0  0  0  0
   -2.9587    4.6913   -0.1008 C   0  0  0  0  0  0  0  0  0  0  0  0
   -3.6570    5.4809   -0.4192 H   0  0  0  0  0  0  0  0  0  0  0  0
   -2.5902    3.6979   -1.0100 C   0  0  0  0  0  0  0  0  0  0  0  0
   -2.9924    3.7015   -2.0347 H   0  0  0  0  0  0  0  0  0  0  0  0
   -1.6970    2.6543   -0.6411 C   0  0  0  0  0  0  0  0  0  0  0  0
    1.8513    2.7694   -0.2718 C   0  0  0  0  0  0  0  0  0  0  0  0
    2.8156    3.3089   -0.3552 H   0  0  0  0  0  0  0  0  0  0  0  0
    1.0533    3.3688   -0.7556 H   0  0  0  0  0  0  0  0  0  0  0  0
    1.5071    2.4171    1.1551 C   0  0  0  0  0  0  0  0  0  0  0  0
    1.3252    3.3205    1.7703 H   0  0  0  0  0  0  0  0  0  0  0  0
    2.2950    1.8043    1.6394 H   0  0  0  0  0  0  0  0  0  0  0  0
  1  6  2  0  0  0  0
  2  7  1  0  0  0  0
  2 27  1  0  0  0  0
  4 26  1  0  0  0  0
  5  1  2  0  0  0  0
  7 16  1  0  0  0  0
  8  7  2  0  0  0  0
  8 10  1  0  0  0  0
  9  8  1  0  0  0  0
 10 12  2  0  0  0  0
 11 10  1  0  0  0  0
 12 14  1  0  0  0  0
 12 13  1  0  0  0  0
 14 15  1  0  0  0  0
 16  1  1  0  0  0  0
 16 14  2  0  0  0  0
 17  3  1  0  0  0  0
 17 18  1  0  0  0  0
 18 19  1  0  0  0  0
 20 18  2  0  0  0  0
 20 21  1  0  0  0  0
 22 20  1  0  0  0  0
 23 22  1  0  0  0  0
 24 26  1  0  0  0  0
 24 22  2  0  0  0  0
 25 24  1  0  0  0  0
 26 17  2  0  0  0  0
 27 30  1  0  0  0  0
 28 27  1  0  0  0  0
 29 27  1  0  0  0  0
 30  3  1  0  0  0  0
 30 32  1  0  0  0  0
 30 31  1  0  0  0  0
M  END
