1,2,3,4
q = 0.0, confidence = 1.0

 48 50  0  0  1  0  0  0  0  0999 V2000
   -1.7009    1.1561    1.2254 S   0  0  0  0  0  0  0  0  0  0  0  0
   -1.3648   -1.4282   -1.0153 S   0  0  0  0  0  0  0  0  0  0  0  0
    1.7009   -1.1561    1.2254 S   0  0  0  0  0  0  0  0  0  0  0  0
    1.3648    1.4282   -1.0153 S   0  0  0  0  0  0  0  0  0  0  0  0
   -2.9825    0.5763    0.0354 C   0  0  2  0  0  0  0  0  0  0  0  0
   -2.7724    1.0592   -0.9449 H   0  0  0  0  0  0  0  0  0  0  0  0
   -4.4390    0.7939    0.4560 C   0  0  0  0  0  0  0  0  0  0  0  0
   -4.5429    0.5184    1.5263 H   0  0  0  0  0  0  0  0  0  0  0  0
   -4.7668    1.8465    0.3522 H   0  0  0  0  0  0  0  0  0  0  0  0
   -5.2254   -0.1832   -0.4493 C   0  0  0  0  0  0  0  0  0  0  0  0
   -5.5575    0.3288   -1.3736 H   0  0  0  0  0  0  0  0  0  0  0  0
   -6.1399   -0.5503    0.0541 H   0  0  0  0  0  0  0  0  0  0  0  0
   -4.2353   -1.3335   -0.8031 C   0  0  0  0  0  0  0  0  0  0  0  0
   -4.0811   -1.4044   -1.8980 H   0  0  0  0  0  0  0  0  0  0  0  0
   -4.5864   -2.3267   -0.4637 H   0  0  0  0  0  0  0  0  0  0  0  0
   -2.9045   -0.9552   -0.1203 C   0  0  1  0  0  0  0  0  0  0  0  0
   -2.8299   -1.4084    0.8923 H   0  0  0  0  0  0  0  0  0  0  0  0
   -0.8834   -3.0268   -0.2361 C   0  0  0  0  0  0  0  0  0  0  0  0
   -1.1624   -2.9862    0.8375 H   0  0  0  0  0  0  0  0  0  0  0  0
   -1.4814   -3.8250   -0.7168 H   0  0  0  0  0  0  0  0  0  0  0  0
    0.6237   -3.2907   -0.4167 C   0  0  0  0  0  0  0  0  0  0  0  0
    0.9916   -2.8091   -1.3489 H   0  0  0  0  0  0  0  0  0  0  0  0
    0.7576   -4.3804   -0.5863 H   0  0  0  0  0  0  0  0  0  0  0  0
    1.5213   -2.9343    0.7695 C   0  0  0  0  0  0  0  0  0  0  0  0
    2.5496   -3.3178    0.6137 H   0  0  0  0  0  0  0  0  0  0  0  0
    1.1463   -3.4059    1.7011 H   0  0  0  0  0  0  0  0  0  0  0  0
    2.9824   -0.5763    0.0354 C   0  0  2  0  0  0  0  0  0  0  0  0
    2.7724   -1.0592   -0.9449 H   0  0  0  0  0  0  0  0  0  0  0  0
    4.4390   -0.7939    0.4560 C   0  0  0  0  0  0  0  0  0  0  0  0
    4.7667   -1.8465    0.3523 H   0  0  0  0  0  0  0  0  0  0  0  0
    4.5429   -0.5183    1.5263 H   0  0  0  0  0  0  0  0  0  0  0  0
    5.2254    0.1831   -0.4493 C   0  0  0  0  0  0  0  0  0  0  0  0
    6.1400    0.5501    0.0539 H   0  0  0  0  0  0  0  0  0  0  0  0
    5.5573   -0.3290   -1.3737 H   0  0  0  0  0  0  0  0  0  0  0  0
    4.2353    1.3335   -0.8031 C   0  0  0  0  0  0  0  0  0  0  0  0
    4.0812    1.4045   -1.8979 H   0  0  0  0  0  0  0  0  0  0  0  0
    4.5865    2.3266   -0.4635 H   0  0  0  0  0  0  0  0  0  0  0  0
    2.9045    0.9552   -0.1203 C   0  0  1  0  0  0  0  0  0  0  0  0
    2.8299    1.4084    0.8923 H   0  0  0  0  0  0  0  0  0  0  0  0
    0.8833    3.0267   -0.2359 C   0  0  0  0  0  0  0  0  0  0  0  0
    1.1623    2.9860    0.8377 H   0  0  0  0  0  0  0  0  0  0  0  0
    1.4815    3.8250   -0.7164 H   0  0  0  0  0  0  0  0  0  0  0  0
   -0.6237    3.2907   -0.4167 C   0  0  0  0  0  0  0  0  0  0  0  0
   -0.7576    4.3803   -0.5864 H   0  0  0  0  0  0  0  0  0  0  0  0
   -0.9916    2.8091   -1.3490 H   0  0  0  0  0  0  0  0  0  0  0  0
   -1.5214    2.9343    0.7694 C   0  0  0  0  0  0  0  0  0  0  0  0
   -2.5497    3.3178    0.6135 H   0  0  0  0  0  0  0  0  0  0  0  0
   -1.1464    3.4060    1.7010 H   0  0  0  0  0  0  0  0  0  0  0  0
  2 18  1  0  0  0  0
  2 16  1  0  0  0  0
  4 40  1  0  0  0  0
  4 38  1  0  0  0  0
  5  6  1  6  0  0  0
  5  7  1  0  0  0  0
  5  1  1  0  0  0  0
  7  8  1  0  0  0  0
  9  7  1  0  0  0  0
 10 12  1  0  0  0  0
 10  7  1  0  0  0  0
 11 10  1  0  0  0  0
 13 15  1  0  0  0  0
 13 10  1  0  0  0  0
 13 16  1  0  0  0  0
 14 13  1  0  0  0  0
 16  5  1  0  0  0  0
 16 17  1  1  0  0  0
 18 19  1  0  0  0  0
 20 18  1  0  0  0  0
 21 18  1  0  0  0  0
 21 24  1  0  0  0  0
 22 21  1  0  0  0  0
 23 21  1  0  0  0  0
 24  3  1  0  0  0  0
 24 26  1  0  0  0  0
 25 24  1  0  0  0  0
 27 28  1  6  0  0  0
 27 29  1  0  0  0  0
 27  3  1  0  0  0  0
 29 31  1  0  0  0  0
 30 29  1  0  0  0  0
 32 33  1  0  0  0  0
 32 29  1  0  0  0  0
 34 32  1  0  0  0  0
 35 37  1  0  0  0  0
 35 32  1  0  0  0  0
 35 38  1  0  0  0  0
 36 35  1  0  0  0  0
 38 27  1  0  0  0  0
 38 39  1  1  0  0  0
 40 41  1  0  0  0  0
 42 40  1  0  0  0  0
 43 40  1  0  0  0  0
 43 46  1  0  0  0  0
 44 43  1  0  0  0  0
 45 43  1  0  0  0  0
 46  1  1  0  0  0  0
 46 48  1  0  0  0  0
 47 46  1  0  0  0  0
M  END
