1,2,3,4
q = -2.0, confidence = 0.874

 34 35  0  0  0  0  0  0  0  0999 V2000
    1.6514   -2.0318    0.1624 S   0  0  0  0  0  1  0  0  0  0  0  0
    1.6493    1.1688   -0.5861 S   0  0  0  0  0  0  0  0  0  0  0  0
   -1.6483    1.1693   -0.5711 S   0  0  0  0  0  0  0  0  0  0  0  0
   -1.6540   -2.0362    0.1482 S   0  0  0  0  0  1  0  0  0  0  0  0
    1.3202    2.1677    0.9550 C   0  0  0  0  0  0  0  0  0  0  0  0
    0.0060    2.9489    0.8754 C   0  0  0  0  0  0  0  0  0  0  0  0
   -1.2959    2.1384    0.9840 C   0  0  0  0  0  0  0  0  0  0  0  0
    0.0621    3.7260   -0.3055 O   0  0  0  0  0  0  0  0  0  0  0  0
    3.1597    0.3211   -0.1216 C   0  0  0  0  0  0  0  0  0  0  0  0
    4.3670    1.0442   -0.1414 C   0  0  0  0  0  0  0  0  0  0  0  0
    5.5682    0.4032    0.1792 C   0  0  0  0  0  0  0  0  0  0  0  0
    5.5489   -0.9715    0.4910 C   0  0  0  0  0  0  0  0  0  0  0  0
    4.3536   -1.6931    0.4836 C   0  0  0  0  0  0  0  0  0  0  0  0
    3.1191   -1.0632    0.1733 C   0  0  0  0  0  0  0  0  0  0  0  0
   -3.1608    0.3209   -0.1176 C   0  0  0  0  0  0  0  0  0  0  0  0
   -4.3684    1.0438   -0.1338 C   0  0  0  0  0  0  0  0  0  0  0  0
   -5.5697    0.4016    0.1828 C   0  0  0  0  0  0  0  0  0  0  0  0
   -5.5495   -0.9750    0.4877 C   0  0  0  0  0  0  0  0  0  0  0  0
   -4.3545   -1.6961    0.4763 C   0  0  0  0  0  0  0  0  0  0  0  0
   -3.1186   -1.0661    0.1686 C   0  0  0  0  0  0  0  0  0  0  0  0
    4.3563    2.1114   -0.4141 H   0  0  0  0  0  0  0  0  0  0  0  0
    6.5133    0.9648    0.1749 H   0  0  0  0  0  0  0  0  0  0  0  0
    6.4880   -1.4903    0.7373 H   0  0  0  0  0  0  0  0  0  0  0  0
    4.3499   -2.7681    0.7195 H   0  0  0  0  0  0  0  0  0  0  0  0
   -4.3585    2.1125   -0.4006 H   0  0  0  0  0  0  0  0  0  0  0  0
   -6.5151    0.9629    0.1811 H   0  0  0  0  0  0  0  0  0  0  0  0
   -6.4884   -1.4953    0.7314 H   0  0  0  0  0  0  0  0  0  0  0  0
   -4.3508   -2.7724    0.7064 H   0  0  0  0  0  0  0  0  0  0  0  0
   -0.8072    4.1458   -0.4420 H   0  0  0  0  0  0  0  0  0  0  0  0
    0.0106    3.5952    1.7932 H   0  0  0  0  0  0  0  0  0  0  0  0
    2.1597    2.8866    1.0295 H   0  0  0  0  0  0  0  0  0  0  0  0
    1.3362    1.4793    1.8206 H   0  0  0  0  0  0  0  0  0  0  0  0
   -1.2748    1.4312    1.8359 H   0  0  0  0  0  0  0  0  0  0  0  0
   -2.1557    2.8291    1.1154 H   0  0  0  0  0  0  0  0  0  0  0  0
  1 14  1  0  0  0  0
  2  9  1  0  0  0  0
  2  5  1  0  0  0  0
  3 15  1  0  0  0  0
  3  7  1  0  0  0  0
  4 20  1  0  0  0  0
  5 31  1  0  0  0  0
  5 32  1  0  0  0  0
  6  5  1  0  0  0  0
  6  7  1  0  0  0  0
  6 30  1  0  0  0  0
  7 34  1  0  0  0  0
  7 33  1  0  0  0  0
  8  6  1  0  0  0  0
  9 14  1  0  0  0  0
 10  9  2  0  0  0  0
 10 11  1  0  0  0  0
 11 12  2  0  0  0  0
 12 23  1  0  0  0  0
 13 12  1  0  0  0  0
 13 24  1  0  0  0  0
 14 13  2  0  0  0  0
 15 20  1  0  0  0  0
 16 15  2  0  0  0  0
 16 17  1  0  0  0  0
 17 18  2  0  0  0  0
 18 27  1  0  0  0  0
 19 18  1  0  0  0  0
 19 28  1  0  0  0  0
 20 19  2  0  0  0  0
 21 10  1  0  0  0  0
 22 11  1  0  0  0  0
 25 16  1  0  0  0  0
 26 17  1  0  0  0  0
 29  8  1  0  0  0  0
M  END
