1,44
q = -1.0

 49 50  0  0  0  0  0  0  0  0999 V2000
    0.5063    1.8229   -0.0000 P   0  0  0  0  0  0  0  0  0  0  0  0
    1.3740    2.3978    1.6009 C   0  0  0  0  0  0  0  0  0  0  0  0
    1.2759    3.9238    1.7628 C   0  0  0  0  0  0  0  0  0  0  0  0
    1.6669    4.2071    2.7633 H   0  0  0  0  0  0  0  0  0  0  0  0
    0.2274    4.2763    1.7010 H   0  0  0  0  0  0  0  0  0  0  0  0
    1.8772    4.4676    1.0093 H   0  0  0  0  0  0  0  0  0  0  0  0
    2.8394    1.9437    1.6667 C   0  0  0  0  0  0  0  0  0  0  0  0
    3.4905    2.5405    1.0013 H   0  0  0  0  0  0  0  0  0  0  0  0
    2.9570    0.8755    1.4011 H   0  0  0  0  0  0  0  0  0  0  0  0
    3.2153    2.0816    2.7030 H   0  0  0  0  0  0  0  0  0  0  0  0
    0.5665    1.7207    2.7261 C   0  0  0  0  0  0  0  0  0  0  0  0
    0.6302    0.6159    2.6621 H   0  0  0  0  0  0  0  0  0  0  0  0
   -0.5046    2.0018    2.6775 H   0  0  0  0  0  0  0  0  0  0  0  0
    0.9698    2.0408    3.7103 H   0  0  0  0  0  0  0  0  0  0  0  0
    1.3750    2.3982   -1.6003 C   0  0  0  0  0  0  0  0  0  0  0  0
    2.8403    1.9438   -1.6655 C   0  0  0  0  0  0  0  0  0  0  0  0
    2.9575    0.8754   -1.4003 H   0  0  0  0  0  0  0  0  0  0  0  0
    3.4913    2.5402   -0.9995 H   0  0  0  0  0  0  0  0  0  0  0  0
    3.2168    2.0820   -2.7016 H   0  0  0  0  0  0  0  0  0  0  0  0
    0.5678    1.7218   -2.7261 C   0  0  0  0  0  0  0  0  0  0  0  0
    0.9718    2.0420   -3.7099 H   0  0  0  0  0  0  0  0  0  0  0  0
   -0.5031    2.0032   -2.6780 H   0  0  0  0  0  0  0  0  0  0  0  0
    0.6312    0.6169   -2.6624 H   0  0  0  0  0  0  0  0  0  0  0  0
    1.2774    3.9243   -1.7617 C   0  0  0  0  0  0  0  0  0  0  0  0
    1.6689    4.2078   -2.7619 H   0  0  0  0  0  0  0  0  0  0  0  0
    1.8785    4.4677   -1.0077 H   0  0  0  0  0  0  0  0  0  0  0  0
    0.2290    4.2771   -1.7003 H   0  0  0  0  0  0  0  0  0  0  0  0
   -1.1250    2.5551   -0.0005 C   0  0  0  0  0  3  0  0  0  0  0  0
   -1.2764    3.6430   -0.0009 H   0  0  0  0  0  0  0  0  0  0  0  0
   -2.2208    1.6850   -0.0004 C   0  0  0  0  0  0  0  0  0  0  0  0
   -3.6081    2.1125   -0.0006 C   0  0  0  0  0  0  0  0  0  0  0  0
   -3.8201    3.1915   -0.0007 H   0  0  0  0  0  0  0  0  0  0  0  0
   -4.6304    1.1971   -0.0005 C   0  0  0  0  0  0  0  0  0  0  0  0
   -5.6785    1.5360   -0.0006 H   0  0  0  0  0  0  0  0  0  0  0  0
   -4.3649   -0.2184   -0.0002 C   0  0  0  0  0  0  0  0  0  0  0  0
   -5.3639   -1.2236   -0.0001 C   0  0  0  0  0  3  0  0  0  0  0  0
   -6.4224   -0.9209   -0.0002 H   0  0  0  0  0  0  0  0  0  0  0  0
   -5.0128   -2.5715    0.0000 C   0  0  0  0  0  0  0  0  0  0  0  0
   -5.7896   -3.3496    0.0001 H   0  0  0  0  0  0  0  0  0  0  0  0
   -3.6485   -2.9593    0.0001 C   0  0  0  0  0  0  0  0  0  0  0  0
   -3.3884   -4.0261    0.0003 H   0  0  0  0  0  0  0  0  0  0  0  0
   -2.6532   -1.9860    0.0001 C   0  0  0  0  0  0  0  0  0  0  0  0
   -2.9839   -0.5934   -0.0001 C   0  0  0  0  0  0  0  0  0  0  0  0
   -1.9827    0.3264   -0.0003 N   0  0  0  0  0  2  0  0  0  0  0  0
   -1.2893   -2.2577    0.0002 O   0  0  0  0  0  0  0  0  0  0  0  0
   -0.8434   -3.6113    0.0002 C   0  0  0  0  0  0  0  0  0  0  0  0
   -1.2006   -4.1426    0.9078 H   0  0  0  0  0  0  0  0  0  0  0  0
    0.2607   -3.5687    0.0002 H   0  0  0  0  0  0  0  0  0  0  0  0
   -1.2007   -4.1425   -0.9075 H   0  0  0  0  0  0  0  0  0  0  0  0
  1  2  1  0  0  0  0
  2  7  1  0  0  0  0
  2  3  1  0  0  0  0
  2 11  1  0  0  0  0
  3  4  1  0  0  0  0
  5  3  1  0  0  0  0
  6  3  1  0  0  0  0
  7 10  1  0  0  0  0
  8  7  1  0  0  0  0
  9  7  1  0  0  0  0
 11 14  1  0  0  0  0
 12 11  1  0  0  0  0
 13 11  1  0  0  0  0
 15  1  1  0  0  0  0
 16 15  1  0  0  0  0
 16 17  1  0  0  0  0
 16 18  1  0  0  0  0
 19 16  1  0  0  0  0
 20 22  1  0  0  0  0
 20 23  1  0  0  0  0
 20 15  1  0  0  0  0
 21 20  1  0  0  0  0
 24 27  1  0  0  0  0
 24 15  1  0  0  0  0
 24 26  1  0  0  0  0
 25 24  1  0  0  0  0
 28 30  1  0  0  0  0
 28  1  1  0  0  0  0
 29 28  1  0  0  0  0
 30 44  1  0  0  0  0
 31 33  1  0  0  0  0
 31 30  2  0  0  0  0
 32 31  1  0  0  0  0
 33 35  2  0  0  0  0
 34 33  1  0  0  0  0
 35 36  1  0  0  0  0
 35 43  1  0  0  0  0
 36 38  1  0  0  0  0
 37 36  1  0  0  0  0
 38 39  1  0  0  0  0
 38 40  2  0  0  0  0
 40 41  1  0  0  0  0
 42 40  1  0  0  0  0
 42 45  1  0  0  0  0
 43 42  2  0  0  0  0
 44 43  1  0  0  0  0
 46 48  1  0  0  0  0
 46 45  1  0  0  0  0
 46 47  1  0  0  0  0
 49 46  1  0  0  0  0
M  END
