1,2
q = 0.0, confidence = 0.998

 63 67  0  0  1  0  0  0  0  0999 V2000
   -1.5231    0.1918   -0.0426 P   0  0  0  0  0  0  0  0  0  0  0  0
    0.9207   -0.6157    1.6048 N   0  0  0  0  0  2  0  0  0  0  0  0
   -0.7064    1.2742   -1.2755 C   0  0  0  0  0  0  0  0  0  0  0  0
   -0.3878    2.6216   -1.0192 C   0  0  0  0  0  0  0  0  0  0  0  0
   -0.6695    3.0842   -0.0613 H   0  0  0  0  0  0  0  0  0  0  0  0
    0.3002    3.3705   -1.9876 C   0  0  0  0  0  0  0  0  0  0  0  0
    0.5580    4.4207   -1.7831 H   0  0  0  0  0  0  0  0  0  0  0  0
    0.6600    2.7815   -3.2096 C   0  0  0  0  0  0  0  0  0  0  0  0
    1.2012    3.3710   -3.9653 H   0  0  0  0  0  0  0  0  0  0  0  0
    0.3366    1.4374   -3.4658 C   0  0  0  0  0  0  0  0  0  0  0  0
    0.6251    0.9715   -4.4201 H   0  0  0  0  0  0  0  0  0  0  0  0
   -0.3364    0.6767   -2.5011 C   0  0  0  0  0  0  0  0  0  0  0  0
   -0.5726   -0.3865   -2.6759 H   0  0  0  0  0  0  0  0  0  0  0  0
   -3.2635    0.0339   -0.5804 C   0  0  0  0  0  0  0  0  0  0  0  0
   -4.0712   -0.9377    0.0457 C   0  0  0  0  0  0  0  0  0  0  0  0
   -3.6263   -1.6269    0.7790 H   0  0  0  0  0  0  0  0  0  0  0  0
   -5.4269   -1.0344   -0.2903 C   0  0  0  0  0  0  0  0  0  0  0  0
   -6.0546   -1.7969    0.1946 H   0  0  0  0  0  0  0  0  0  0  0  0
   -5.9788   -0.1762   -1.2576 C   0  0  0  0  0  0  0  0  0  0  0  0
   -7.0425   -0.2630   -1.5266 H   0  0  0  0  0  0  0  0  0  0  0  0
   -5.1722    0.7826   -1.8882 C   0  0  0  0  0  0  0  0  0  0  0  0
   -5.5993    1.4497   -2.6523 H   0  0  0  0  0  0  0  0  0  0  0  0
   -3.8131    0.8923   -1.5507 C   0  0  0  0  0  0  0  0  0  0  0  0
   -3.1785    1.6419   -2.0470 H   0  0  0  0  0  0  0  0  0  0  0  0
   -1.6391    1.2005    1.4902 C   0  0  0  0  0  0  0  0  0  0  0  0
   -0.5674    1.2130    2.4273 C   0  0  0  0  0  0  0  0  0  0  0  0
   -0.6643    2.0596    3.5578 C   0  0  0  0  0  0  0  0  0  0  0  0
    0.1743    2.0871    4.2711 H   0  0  0  0  0  0  0  0  0  0  0  0
   -1.8033    2.8368    3.7920 C   0  0  0  0  0  0  0  0  0  0  0  0
   -1.8611    3.4710    4.6889 H   0  0  0  0  0  0  0  0  0  0  0  0
   -2.8657    2.8019    2.8764 C   0  0  0  0  0  0  0  0  0  0  0  0
   -3.7672    3.4094    3.0461 H   0  0  0  0  0  0  0  0  0  0  0  0
   -2.7750    1.9957    1.7311 C   0  0  0  0  0  0  0  0  0  0  0  0
   -3.6025    1.9825    1.0067 H   0  0  0  0  0  0  0  0  0  0  0  0
    0.6789    0.4562    2.2966 C   0  0  0  0  0  3  0  0  0  0  0  0
    1.5231    0.8677    2.8867 H   0  0  0  0  0  0  0  0  0  0  0  0
    2.3074   -1.0916    1.5838 C   0  0  0  0  0  0  0  0  0  0  0  0
    2.2785   -2.1667    1.8612 H   0  0  0  0  0  0  0  0  0  0  0  0
    2.9030   -0.5161    2.3229 H   0  0  0  0  0  0  0  0  0  0  0  0
    2.9261   -0.9948    0.1756 C   0  0  1  0  0  0  0  0  0  0  0  0
    2.2828   -1.6353   -0.4663 H   0  0  0  0  0  0  0  0  0  0  0  0
    2.8969    0.4054   -0.4562 C   0  0  1  0  0  0  0  0  0  0  0  0
    1.8912    0.8650   -0.3735 H   0  0  0  0  0  0  0  0  0  0  0  0
    4.1260    1.3190   -0.0928 C   0  0  0  0  0  0  0  0  0  0  0  0
    4.8772    0.5072   -1.2071 C   0  0  1  0  0  0  0  0  0  0  0  0
    5.6620    1.0453   -1.7812 H   0  0  0  0  0  0  0  0  0  0  0  0
    5.3999   -0.8390   -0.6862 C   0  0  0  0  0  0  0  0  0  0  0  0
    6.3357   -0.6854   -0.1085 H   0  0  0  0  0  0  0  0  0  0  0  0
    5.6833   -1.4542   -1.5660 H   0  0  0  0  0  0  0  0  0  0  0  0
    4.3607   -1.6005    0.1888 C   0  0  0  0  0  0  0  0  0  0  0  0
    4.7256   -1.6276    1.2366 H   0  0  0  0  0  0  0  0  0  0  0  0
    4.2980   -2.6642   -0.1133 H   0  0  0  0  0  0  0  0  0  0  0  0
    3.5009    0.2714   -1.8803 C   0  0  0  0  0  0  0  0  0  0  0  0
    3.3471   -0.6997   -2.3946 H   0  0  0  0  0  0  0  0  0  0  0  0
    3.1916    1.0848   -2.5609 H   0  0  0  0  0  0  0  0  0  0  0  0
    3.8648    2.7726   -0.5150 C   0  0  0  0  0  0  0  0  0  0  0  0
    4.8044    3.3636   -0.4885 H   0  0  0  0  0  0  0  0  0  0  0  0
    3.1444    3.2533    0.1804 H   0  0  0  0  0  0  0  0  0  0  0  0
    3.4394    2.8562   -1.5332 H   0  0  0  0  0  0  0  0  0  0  0  0
    4.7052    1.3386    1.3238 C   0  0  0  0  0  0  0  0  0  0  0  0
    5.6333    1.9482    1.3474 H   0  0  0  0  0  0  0  0  0  0  0  0
    4.9597    0.3383    1.7172 H   0  0  0  0  0  0  0  0  0  0  0  0
    3.9931    1.8114    2.0338 H   0  0  0  0  0  0  0  0  0  0  0  0
  1 25  1  0  0  0  0
  2 35  1  0  0  0  0
  3  4  1  0  0  0  0
  3  1  1  0  0  0  0
  4  5  1  0  0  0  0
  6  7  1  0  0  0  0
  6  4  2  0  0  0  0
  8  6  1  0  0  0  0
  9  8  1  0  0  0  0
 10  8  2  0  0  0  0
 10 12  1  0  0  0  0
 11 10  1  0  0  0  0
 12  3  2  0  0  0  0
 13 12  1  0  0  0  0
 14  1  1  0  0  0  0
 14 15  1  0  0  0  0
 15 16  1  0  0  0  0
 17 15  2  0  0  0  0
 17 18  1  0  0  0  0
 19 17  1  0  0  0  0
 20 19  1  0  0  0  0
 21 23  1  0  0  0  0
 21 19  2  0  0  0  0
 22 21  1  0  0  0  0
 23 14  2  0  0  0  0
 24 23  1  0  0  0  0
 25 33  2  0  0  0  0
 25 26  1  0  0  0  0
 26 27  2  0  0  0  0
 27 29  1  0  0  0  0
 27 28  1  0  0  0  0
 29 30  1  0  0  0  0
 31 32  1  0  0  0  0
 31 29  2  0  0  0  0
 33 31  1  0  0  0  0
 34 33  1  0  0  0  0
 35 26  1  0  0  0  0
 35 36  1  0  0  0  0
 37  2  1  0  0  0  0
 37 38  1  0  0  0  0
 37 39  1  0  0  0  0
 40 41  1  6  0  0  0
 40 50  1  0  0  0  0
 40 37  1  0  0  0  0
 42 43  1  1  0  0  0
 42 44  1  0  0  0  0
 42 40  1  0  0  0  0
 44 60  1  0  0  0  0
 45 46  1  6  0  0  0
 45 47  1  0  0  0  0
 45 44  1  0  0  0  0
 47 48  1  0  0  0  0
 47 50  1  0  0  0  0
 49 47  1  0  0  0  0
 50 51  1  0  0  0  0
 52 50  1  0  0  0  0
 53 45  1  0  0  0  0
 53 42  1  0  0  0  0
 54 53  1  0  0  0  0
 55 53  1  0  0  0  0
 56 57  1  0  0  0  0
 56 44  1  0  0  0  0
 56 58  1  0  0  0  0
 59 56  1  0  0  0  0
 60 61  1  0  0  0  0
 60 62  1  0  0  0  0
 60 63  1  0  0  0  0
M  END
