1,2
q = 0.0, confidence = 0.996

 39 42  0  0  0  0  0  0  0  0999 V2000
    0.6050    0.3135    0.0601 P   0  0  0  0  0  0  0  0  0  0  0  0
   -2.3166    0.0651   -0.1150 N   0  0  0  0  0  2  0  0  0  0  0  0
   -1.9042    1.2433   -0.6963 C   0  0  0  0  0  0  0  0  0  0  0  0
   -0.5049    1.5323   -0.7766 C   0  0  0  0  0  0  0  0  0  0  0  0
   -0.0769    2.6819   -1.4349 C   0  0  0  0  0  0  0  0  0  0  0  0
    1.0004    2.8857   -1.5304 H   0  0  0  0  0  0  0  0  0  0  0  0
   -1.0113    3.5910   -1.9950 C   0  0  0  0  0  0  0  0  0  0  0  0
   -0.6479    4.4930   -2.5095 H   0  0  0  0  0  0  0  0  0  0  0  0
   -2.3736    3.3493   -1.8902 C   0  0  0  0  0  3  0  0  0  0  0  0
   -3.1037    4.0562   -2.3139 H   0  0  0  0  0  0  0  0  0  0  0  0
   -2.8537    2.1733   -1.2458 C   0  0  0  0  0  0  0  0  0  0  0  0
   -4.2377    1.8556   -1.1301 C   0  0  0  0  0  0  0  0  0  0  0  0
   -4.9862    2.5533   -1.5369 H   0  0  0  0  0  0  0  0  0  0  0  0
   -4.6159    0.6730   -0.5169 C   0  0  0  0  0  0  0  0  0  0  0  0
   -5.6742    0.3938   -0.4127 H   0  0  0  0  0  0  0  0  0  0  0  0
   -3.6170   -0.2075   -0.0282 C   0  0  0  0  0  0  0  0  0  0  0  0
   -3.8502   -1.1856    0.4350 H   0  0  0  0  0  0  0  0  0  0  0  0
    2.0191    0.1056   -1.0793 C   0  0  0  0  0  0  0  0  0  0  0  0
    1.7445   -0.2094   -2.4279 C   0  0  0  0  0  0  0  0  0  0  0  0
    0.7021   -0.2335   -2.7816 H   0  0  0  0  0  0  0  0  0  0  0  0
    2.7918   -0.5035   -3.3103 C   0  0  0  0  0  0  0  0  0  0  0  0
    2.5681   -0.7436   -4.3606 H   0  0  0  0  0  0  0  0  0  0  0  0
    4.1199   -0.5111   -2.8522 C   0  0  0  0  0  0  0  0  0  0  0  0
    4.9408   -0.7509   -3.5446 H   0  0  0  0  0  0  0  0  0  0  0  0
    4.3957   -0.2262   -1.5059 C   0  0  0  0  0  0  0  0  0  0  0  0
    5.4330   -0.2438   -1.1387 H   0  0  0  0  0  0  0  0  0  0  0  0
    3.3516    0.0803   -0.6191 C   0  0  0  0  0  0  0  0  0  0  0  0
    3.5748    0.2972    0.4359 H   0  0  0  0  0  0  0  0  0  0  0  0
    1.2744    1.2149    1.5189 C   0  0  0  0  0  0  0  0  0  0  0  0
    0.9476    0.7219    2.7979 C   0  0  0  0  0  0  0  0  0  0  0  0
    0.3299   -0.1883    2.8745 H   0  0  0  0  0  0  0  0  0  0  0  0
    1.4026    1.3879    3.9469 C   0  0  0  0  0  0  0  0  0  0  0  0
    1.1440    0.9964    4.9422 H   0  0  0  0  0  0  0  0  0  0  0  0
    2.1844    2.5465    3.8249 C   0  0  0  0  0  0  0  0  0  0  0  0
    2.5415    3.0683    4.7258 H   0  0  0  0  0  0  0  0  0  0  0  0
    2.5142    3.0412    2.5511 C   0  0  0  0  0  0  0  0  0  0  0  0
    3.1289    3.9490    2.4537 H   0  0  0  0  0  0  0  0  0  0  0  0
    2.0623    2.3796    1.4011 C   0  0  0  0  0  0  0  0  0  0  0  0
    2.3326    2.7688    0.4080 H   0  0  0  0  0  0  0  0  0  0  0  0
  1 29  1  0  0  0  0
  2 16  1  0  0  0  0
  3  2  1  0  0  0  0
  4  3  2  0  0  0  0
  4  1  1  0  0  0  0
  5  4  1  0  0  0  0
  6  5  1  0  0  0  0
  7  9  1  0  0  0  0
  7  5  2  0  0  0  0
  8  7  1  0  0  0  0
  9 11  1  0  0  0  0
 10  9  1  0  0  0  0
 11 12  2  0  0  0  0
 11  3  1  0  0  0  0
 12 14  1  0  0  0  0
 13 12  1  0  0  0  0
 14 15  1  0  0  0  0
 14 16  2  0  0  0  0
 16 17  1  0  0  0  0
 18 27  1  0  0  0  0
 18  1  1  0  0  0  0
 19 18  2  0  0  0  0
 20 19  1  0  0  0  0
 21 23  2  0  0  0  0
 21 19  1  0  0  0  0
 22 21  1  0  0  0  0
 23 25  1  0  0  0  0
 24 23  1  0  0  0  0
 25 26  1  0  0  0  0
 25 27  2  0  0  0  0
 27 28  1  0  0  0  0
 29 30  1  0  0  0  0
 30 31  1  0  0  0  0
 30 32  2  0  0  0  0
 32 33  1  0  0  0  0
 34 32  1  0  0  0  0
 34 35  1  0  0  0  0
 36 34  2  0  0  0  0
 37 36  1  0  0  0  0
 38 29  2  0  0  0  0
 38 36  1  0  0  0  0
 39 38  1  0  0  0  0
M  END
