1,2
q = -1.0, confidence = 0.0

 36 38  0  0  0  0  0  0  0  0999 V2000
   -1.2702    1.2041   -1.1672 P   0  0  0  0  0  0  0  0  0  0  0  0
    1.5544    0.8955   -0.8776 N   0  0  0  0  0  0  0  0  0  0  0  0
    2.7998    1.0762   -0.4115 N   0  0  0  0  0  2  0  0  0  0  0  0
   -0.0987    1.8072   -2.4888 C   0  0  0  0  0  0  0  0  0  0  0  0
   -0.2068    1.1096   -3.3485 H   0  0  0  0  0  0  0  0  0  0  0  0
   -0.3765    2.8189   -2.8467 H   0  0  0  0  0  0  0  0  0  0  0  0
    1.2747    1.7828   -1.8881 C   0  0  0  0  0  0  0  0  0  0  0  0
    2.4096    2.5820   -2.0892 C   0  0  0  0  0  0  0  0  0  0  0  0
    2.5541    3.3913   -2.8116 H   0  0  0  0  0  0  0  0  0  0  0  0
    3.3285    2.0848   -1.1359 C   0  0  0  0  0  0  0  0  0  0  0  0
    4.7042    2.5868   -0.8351 C   0  0  0  0  0  0  0  0  0  0  0  0
   -2.8570    0.8500   -2.0220 C   0  0  0  0  0  0  0  0  0  0  0  0
   -3.6569   -0.2142   -1.5563 C   0  0  0  0  0  0  0  0  0  0  0  0
   -3.3034   -0.8314   -0.7168 H   0  0  0  0  0  0  0  0  0  0  0  0
   -4.8861   -0.4936   -2.1743 C   0  0  0  0  0  0  0  0  0  0  0  0
   -5.5032   -1.3263   -1.8041 H   0  0  0  0  0  0  0  0  0  0  0  0
   -5.3193    0.2801   -3.2617 C   0  0  0  0  0  0  0  0  0  0  0  0
   -6.2808    0.0575   -3.7489 H   0  0  0  0  0  0  0  0  0  0  0  0
   -4.5241    1.3399   -3.7305 C   0  0  0  0  0  0  0  0  0  0  0  0
   -4.8632    1.9492   -4.5821 H   0  0  0  0  0  0  0  0  0  0  0  0
   -3.2996    1.6291   -3.1121 C   0  0  0  0  0  0  0  0  0  0  0  0
   -2.6908    2.4707   -3.4760 H   0  0  0  0  0  0  0  0  0  0  0  0
   -1.6590    2.6914   -0.1634 C   0  0  0  0  0  0  0  0  0  0  0  0
   -2.8200    2.6855    0.6387 C   0  0  0  0  0  0  0  0  0  0  0  0
   -3.5178    1.8351    0.5898 H   0  0  0  0  0  0  0  0  0  0  0  0
   -3.0890    3.7603    1.4967 C   0  0  0  0  0  0  0  0  0  0  0  0
   -3.9978    3.7467    2.1173 H   0  0  0  0  0  0  0  0  0  0  0  0
   -2.2040    4.8489    1.5648 C   0  0  0  0  0  0  0  0  0  0  0  0
   -2.4178    5.6927    2.2382 H   0  0  0  0  0  0  0  0  0  0  0  0
   -1.0457    4.8554    0.7731 C   0  0  0  0  0  0  0  0  0  0  0  0
   -0.3444    5.7021    0.8255 H   0  0  0  0  0  0  0  0  0  0  0  0
   -0.7653    3.7799   -0.0839 C   0  0  0  0  0  0  0  0  0  0  0  0
    0.1632    3.7827   -0.6746 H   0  0  0  0  0  0  0  0  0  0  0  0
    5.6481    1.6193   -0.9132 F   0  0  0  0  0  0  0  0  0  0  0  0
    5.0578    3.5711   -1.7041 F   0  0  0  0  0  0  0  0  0  0  0  0
    4.7917    3.1132    0.4181 F   0  0  0  0  0  0  0  0  0  0  0  0
  1 23  1  0  0  0  0
  2  3  1  0  0  0  0
  4  7  1  0  0  0  0
  4  1  1  0  0  0  0
  5  4  1  0  0  0  0
  6  4  1  0  0  0  0
  7  2  2  0  0  0  0
  8  7  1  0  0  0  0
  8 10  2  0  0  0  0
  9  8  1  0  0  0  0
 10 11  1  0  0  0  0
 10  3  1  0  0  0  0
 11 36  1  0  0  0  0
 12 13  1  0  0  0  0
 12  1  1  0  0  0  0
 13 14  1  0  0  0  0
 15 16  1  0  0  0  0
 15 13  2  0  0  0  0
 17 15  1  0  0  0  0
 18 17  1  0  0  0  0
 19 17  2  0  0  0  0
 19 21  1  0  0  0  0
 20 19  1  0  0  0  0
 21 12  2  0  0  0  0
 22 21  1  0  0  0  0
 23 32  2  0  0  0  0
 23 24  1  0  0  0  0
 24 26  2  0  0  0  0
 25 24  1  0  0  0  0
 26 28  1  0  0  0  0
 26 27  1  0  0  0  0
 28 29  1  0  0  0  0
 30 31  1  0  0  0  0
 30 28  2  0  0  0  0
 32 30  1  0  0  0  0
 33 32  1  0  0  0  0
 34 11  1  0  0  0  0
 35 11  1  0  0  0  0
M  END
