1,2
q = 0.0, confidence = 0.998

 63 64  0  0  1  0  0  0  0  0999 V2000
    1.6373    1.1686   -0.0020 P   0  0  0  0  0  0  0  0  0  0  0  0
   -0.3735   -0.2493    0.0000 N   0  0  0  0  0  2  0  0  0  0  0  0
    2.1710    2.1922    1.4874 C   0  0  0  0  0  0  0  0  0  0  0  0
    2.1557    3.2545    1.1557 H   0  0  0  0  0  0  0  0  0  0  0  0
    1.2114    2.0237    2.6712 C   0  0  0  0  0  0  0  0  0  0  0  0
    1.1713    0.9716    3.0128 H   0  0  0  0  0  0  0  0  0  0  0  0
    0.1813    2.3519    2.4340 H   0  0  0  0  0  0  0  0  0  0  0  0
    1.5715    2.6312    3.5271 H   0  0  0  0  0  0  0  0  0  0  0  0
    3.6080    1.8101    1.8713 C   0  0  0  0  0  0  0  0  0  0  0  0
    4.3277    1.9692    1.0450 H   0  0  0  0  0  0  0  0  0  0  0  0
    3.6688    0.7448    2.1700 H   0  0  0  0  0  0  0  0  0  0  0  0
    3.9441    2.4250    2.7317 H   0  0  0  0  0  0  0  0  0  0  0  0
    2.1693    2.1865   -1.4960 C   0  0  0  0  0  0  0  0  0  0  0  0
    2.1500    3.2504   -1.1696 H   0  0  0  0  0  0  0  0  0  0  0  0
    1.2111    2.0089   -2.6796 C   0  0  0  0  0  0  0  0  0  0  0  0
    0.1798    2.3346   -2.4445 H   0  0  0  0  0  0  0  0  0  0  0  0
    1.1749    0.9551   -3.0161 H   0  0  0  0  0  0  0  0  0  0  0  0
    1.5696    2.6137   -3.5381 H   0  0  0  0  0  0  0  0  0  0  0  0
    3.6079    1.8074   -1.8766 C   0  0  0  0  0  0  0  0  0  0  0  0
    3.6730    0.7402   -2.1677 H   0  0  0  0  0  0  0  0  0  0  0  0
    4.3265    1.9755   -1.0512 H   0  0  0  0  0  0  0  0  0  0  0  0
    3.9419    2.4175   -2.7412 H   0  0  0  0  0  0  0  0  0  0  0  0
   -0.2286    1.0596   -0.0021 C   0  0  2  0  0  3  0  0  0  0  0  0
   -1.2246    2.1360   -0.0048 C   0  0  0  0  0  0  0  0  0  0  0  0
   -0.7513    3.4751   -0.0053 C   0  0  0  0  0  0  0  0  0  0  0  0
    0.3313    3.6616   -0.0035 H   0  0  0  0  0  0  0  0  0  0  0  0
   -1.6322    4.5608   -0.0080 C   0  0  0  0  0  0  0  0  0  0  0  0
   -1.2336    5.5863   -0.0082 H   0  0  0  0  0  0  0  0  0  0  0  0
   -3.0189    4.3403   -0.0104 C   0  0  0  0  0  0  0  0  0  0  0  0
   -3.7162    5.1915   -0.0125 H   0  0  0  0  0  0  0  0  0  0  0  0
   -3.5085    3.0234   -0.0100 C   0  0  0  0  0  0  0  0  0  0  0  0
   -4.5933    2.8392   -0.0120 H   0  0  0  0  0  0  0  0  0  0  0  0
   -2.6324    1.9324   -0.0073 C   0  0  0  0  0  0  0  0  0  0  0  0
   -3.0423    0.9165   -0.0070 H   0  0  0  0  0  0  0  0  0  0  0  0
   -1.6272   -0.9364    0.0012 C   0  0  0  0  0  0  0  0  0  0  0  0
   -2.2156   -1.2944   -1.2389 C   0  0  0  0  0  0  0  0  0  0  0  0
   -3.4429   -1.9811   -1.2084 C   0  0  0  0  0  0  0  0  0  0  0  0
   -3.9199   -2.2625   -2.1597 H   0  0  0  0  0  0  0  0  0  0  0  0
   -4.0621   -2.3128    0.0030 C   0  0  0  0  0  0  0  0  0  0  0  0
   -5.0233   -2.8484    0.0038 H   0  0  0  0  0  0  0  0  0  0  0  0
   -3.4457   -1.9727    1.2136 C   0  0  0  0  0  0  0  0  0  0  0  0
   -3.9250   -2.2476    2.1657 H   0  0  0  0  0  0  0  0  0  0  0  0
   -2.2185   -1.2858    1.2423 C   0  0  0  0  0  0  0  0  0  0  0  0
   -1.5613   -0.9382   -2.5654 C   0  0  0  0  0  0  0  0  0  0  0  0
   -0.5758   -0.4928   -2.3305 H   0  0  0  0  0  0  0  0  0  0  0  0
   -2.3694    0.1205   -3.3349 C   0  0  0  0  0  0  0  0  0  0  0  0
   -2.5119    1.0408   -2.7331 H   0  0  0  0  0  0  0  0  0  0  0  0
   -3.3750   -0.2603   -3.6105 H   0  0  0  0  0  0  0  0  0  0  0  0
   -1.8482    0.4017   -4.2731 H   0  0  0  0  0  0  0  0  0  0  0  0
   -1.3020   -2.1899   -3.4183 C   0  0  0  0  0  0  0  0  0  0  0  0
   -2.2504   -2.6554   -3.7582 H   0  0  0  0  0  0  0  0  0  0  0  0
   -0.7353   -2.9509   -2.8469 H   0  0  0  0  0  0  0  0  0  0  0  0
   -0.7100   -1.9303   -4.3187 H   0  0  0  0  0  0  0  0  0  0  0  0
   -1.5673   -0.9211    2.5680 C   0  0  0  0  0  0  0  0  0  0  0  0
   -0.5818   -0.4757    2.3329 H   0  0  0  0  0  0  0  0  0  0  0  0
   -2.3782    0.1409    3.3301 C   0  0  0  0  0  0  0  0  0  0  0  0
   -3.3839   -0.2396    3.6058 H   0  0  0  0  0  0  0  0  0  0  0  0
   -2.5204    1.0576    2.7229 H   0  0  0  0  0  0  0  0  0  0  0  0
   -1.8591    0.4278    4.2677 H   0  0  0  0  0  0  0  0  0  0  0  0
   -1.3085   -2.1679    3.4284 C   0  0  0  0  0  0  0  0  0  0  0  0
   -0.7400   -2.9315    2.8623 H   0  0  0  0  0  0  0  0  0  0  0  0
   -2.2571   -2.6323    3.7690 H   0  0  0  0  0  0  0  0  0  0  0  0
   -0.7184   -1.9028    4.3285 H   0  0  0  0  0  0  0  0  0  0  0  0
  1  3  1  0  0  0  0
  2 35  1  0  0  0  0
  3  9  1  0  0  0  0
  3  5  1  0  0  0  0
  4  3  1  0  0  0  0
  5  6  1  0  0  0  0
  5  8  1  0  0  0  0
  7  5  1  0  0  0  0
  9 11  1  0  0  0  0
  9 12  1  0  0  0  0
 10  9  1  0  0  0  0
 13 14  1  0  0  0  0
 13  1  1  0  0  0  0
 15 16  1  0  0  0  0
 15 13  1  0  0  0  0
 17 15  1  0  0  0  0
 18 15  1  0  0  0  0
 19 13  1  0  0  0  0
 19 21  1  0  0  0  0
 20 19  1  0  0  0  0
 22 19  1  0  0  0  0
 23  1  1  0  0  0  0
 23  2  1  6  0  0  0
 24 23  1  0  0  0  0
 25 24  1  0  0  0  0
 25 26  1  0  0  0  0
 27 25  2  0  0  0  0
 28 27  1  0  0  0  0
 29 31  2  0  0  0  0
 29 27  1  0  0  0  0
 30 29  1  0  0  0  0
 31 33  1  0  0  0  0
 32 31  1  0  0  0  0
 33 34  1  0  0  0  0
 33 24  2  0  0  0  0
 35 43  1  0  0  0  0
 36 37  1  0  0  0  0
 36 35  2  0  0  0  0
 37 39  2  0  0  0  0
 38 37  1  0  0  0  0
 39 40  1  0  0  0  0
 39 41  1  0  0  0  0
 41 43  2  0  0  0  0
 41 42  1  0  0  0  0
 43 54  1  0  0  0  0
 44 45  1  0  0  0  0
 44 36  1  0  0  0  0
 46 47  1  0  0  0  0
 46 44  1  0  0  0  0
 48 46  1  0  0  0  0
 49 46  1  0  0  0  0
 50 52  1  0  0  0  0
 50 44  1  0  0  0  0
 51 50  1  0  0  0  0
 53 50  1  0  0  0  0
 54 56  1  0  0  0  0
 54 60  1  0  0  0  0
 55 54  1  0  0  0  0
 56 57  1  0  0  0  0
 56 59  1  0  0  0  0
 58 56  1  0  0  0  0
 60 62  1  0  0  0  0
 60 63  1  0  0  0  0
 61 60  1  0  0  0  0
M  END
