1,3
q = 0.0, confidence = 0.996

 59 64  0  0  1  0  0  0  0  0999 V2000
    1.5365    0.1572   -0.2435 P   0  0  0  0  0  0  0  0  0  0  0  0
   -2.2842    0.7442    1.8327 O   0  0  0  0  0  0  0  0  0  0  0  0
   -1.2426   -0.7867    0.3904 N   0  0  0  0  0  2  0  0  0  0  0  0
   -3.6154    0.4084    1.3495 C   0  0  1  0  0  0  0  0  0  0  0  0
   -3.9888   -0.4159    1.9937 H   0  0  0  0  0  0  0  0  0  0  0  0
   -4.4498    1.6893    1.4207 C   0  0  0  0  0  0  0  0  0  0  0  0
   -5.5083    1.4260    1.6144 H   0  0  0  0  0  0  0  0  0  0  0  0
   -4.1099    2.3118    2.2711 H   0  0  0  0  0  0  0  0  0  0  0  0
   -4.2783    2.3761    0.0346 C   0  0  0  0  0  0  0  0  0  0  0  0
   -3.8276    3.3840    0.1195 H   0  0  0  0  0  0  0  0  0  0  0  0
   -5.2667    2.5114   -0.4485 H   0  0  0  0  0  0  0  0  0  0  0  0
   -3.3881    1.4220   -0.7929 C   0  0  0  0  0  0  0  0  0  0  0  0
   -3.6369    1.4063   -1.8722 H   0  0  0  0  0  0  0  0  0  0  0  0
   -2.3233    1.7243   -0.7190 H   0  0  0  0  0  0  0  0  0  0  0  0
   -3.5728    0.0371   -0.1415 C   0  0  2  0  0  0  0  0  0  0  0  0
   -4.8755   -0.7167   -0.5555 C   0  0  0  0  0  0  0  0  0  0  0  0
   -5.5826   -0.7696    0.2993 H   0  0  0  0  0  0  0  0  0  0  0  0
   -5.4090   -0.1829   -1.3670 H   0  0  0  0  0  0  0  0  0  0  0  0
   -4.4308   -2.1370   -0.9816 C   0  0  0  0  0  0  0  0  0  0  0  0
   -5.1861   -2.9130   -0.7502 H   0  0  0  0  0  0  0  0  0  0  0  0
   -4.2574   -2.1686   -2.0772 H   0  0  0  0  0  0  0  0  0  0  0  0
   -3.0952   -2.3580   -0.2640 C   0  0  0  0  0  0  0  0  0  0  0  0
   -2.4679   -3.1510   -0.7154 H   0  0  0  0  0  0  0  0  0  0  0  0
   -3.2430   -2.5940    0.8121 H   0  0  0  0  0  0  0  0  0  0  0  0
   -2.4438   -0.9738   -0.4089 C   0  0  2  0  0  0  0  0  0  0  0  0
   -2.1103   -0.8937   -1.4684 H   0  0  0  0  0  0  0  0  0  0  0  0
   -1.2211    0.0555    1.3751 C   0  0  1  0  0  3  0  0  0  0  0  0
    0.0092    0.4008    2.1440 C   0  0  0  0  0  0  0  0  0  0  0  0
    1.2951    0.5236    1.5469 C   0  0  0  0  0  0  0  0  0  0  0  0
    2.3896    0.8793    2.3552 C   0  0  0  0  0  0  0  0  0  0  0  0
    3.3850    0.9756    1.8981 H   0  0  0  0  0  0  0  0  0  0  0  0
    2.2316    1.1079    3.7304 C   0  0  0  0  0  0  0  0  0  0  0  0
    3.1061    1.3783    4.3411 H   0  0  0  0  0  0  0  0  0  0  0  0
    0.9644    0.9960    4.3169 C   0  0  0  0  0  0  0  0  0  0  0  0
    0.8299    1.1738    5.3941 H   0  0  0  0  0  0  0  0  0  0  0  0
   -0.1376    0.6568    3.5222 C   0  0  0  0  0  0  0  0  0  0  0  0
   -1.1386    0.5760    3.9679 H   0  0  0  0  0  0  0  0  0  0  0  0
    3.3293    0.3376   -0.5214 C   0  0  0  0  0  0  0  0  0  0  0  0
    4.1263   -0.7859   -0.2042 C   0  0  0  0  0  0  0  0  0  0  0  0
    3.6459   -1.6947    0.1994 H   0  0  0  0  0  0  0  0  0  0  0  0
    5.5127   -0.7280   -0.4031 C   0  0  0  0  0  0  0  0  0  0  0  0
    6.1342   -1.6012   -0.1533 H   0  0  0  0  0  0  0  0  0  0  0  0
    6.1043    0.4320   -0.9319 C   0  0  0  0  0  0  0  0  0  0  0  0
    7.1922    0.4691   -1.0953 H   0  0  0  0  0  0  0  0  0  0  0  0
    5.3085    1.5411   -1.2610 C   0  0  0  0  0  0  0  0  0  0  0  0
    5.7706    2.4469   -1.6824 H   0  0  0  0  0  0  0  0  0  0  0  0
    3.9207    1.4990   -1.0551 C   0  0  0  0  0  0  0  0  0  0  0  0
    3.2944    2.3666   -1.3133 H   0  0  0  0  0  0  0  0  0  0  0  0
    0.6938    1.5255   -1.1192 C   0  0  0  0  0  0  0  0  0  0  0  0
    0.5183    2.8078   -0.5593 C   0  0  0  0  0  0  0  0  0  0  0  0
    0.9126    3.0262    0.4452 H   0  0  0  0  0  0  0  0  0  0  0  0
   -0.1695    3.7968   -1.2795 C   0  0  0  0  0  0  0  0  0  0  0  0
   -0.3085    4.7964   -0.8399 H   0  0  0  0  0  0  0  0  0  0  0  0
   -0.6787    3.5118   -2.5577 C   0  0  0  0  0  0  0  0  0  0  0  0
   -1.2181    4.2896   -3.1195 H   0  0  0  0  0  0  0  0  0  0  0  0
   -0.5114    2.2324   -3.1128 C   0  0  0  0  0  0  0  0  0  0  0  0
   -0.9248    2.0023   -4.1064 H   0  0  0  0  0  0  0  0  0  0  0  0
    0.1648    1.2340   -2.3957 C   0  0  0  0  0  0  0  0  0  0  0  0
    0.2534    0.2115   -2.8018 H   0  0  0  0  0  0  0  0  0  0  0  0
  1 29  1  0  0  0  0
  3 27  1  0  0  0  0
  4  6  1  0  0  0  0
  4  2  1  0  0  0  0
  4  5  1  1  0  0  0
  6  7  1  0  0  0  0
  6  8  1  0  0  0  0
  9 10  1  0  0  0  0
  9  6  1  0  0  0  0
 11  9  1  0  0  0  0
 12 14  1  0  0  0  0
 12  9  1  0  0  0  0
 13 12  1  0  0  0  0
 15 12  1  6  0  0  0
 15  4  1  0  0  0  0
 16 15  1  0  0  0  0
 16 17  1  0  0  0  0
 18 16  1  0  0  0  0
 19 20  1  0  0  0  0
 19 16  1  0  0  0  0
 19 22  1  0  0  0  0
 21 19  1  0  0  0  0
 22 24  1  0  0  0  0
 23 22  1  0  0  0  0
 25 26  1  6  0  0  0
 25 22  1  0  0  0  0
 25 15  1  0  0  0  0
 25  3  1  0  0  0  0
 27  2  1  0  0  0  0
 27 28  1  6  0  0  0
 28 36  1  0  0  0  0
 29 28  2  0  0  0  0
 29 30  1  0  0  0  0
 30 32  2  0  0  0  0
 31 30  1  0  0  0  0
 32 34  1  0  0  0  0
 32 33  1  0  0  0  0
 34 35  1  0  0  0  0
 36 37  1  0  0  0  0
 36 34  2  0  0  0  0
 38  1  1  0  0  0  0
 38 39  1  0  0  0  0
 39 40  1  0  0  0  0
 41 39  2  0  0  0  0
 41 42  1  0  0  0  0
 43 41  1  0  0  0  0
 44 43  1  0  0  0  0
 45 47  1  0  0  0  0
 45 43  2  0  0  0  0
 46 45  1  0  0  0  0
 47 38  2  0  0  0  0
 48 47  1  0  0  0  0
 49 50  1  0  0  0  0
 49  1  1  0  0  0  0
 50 51  1  0  0  0  0
 52 53  1  0  0  0  0
 52 50  2  0  0  0  0
 54 52  1  0  0  0  0
 55 54  1  0  0  0  0
 56 54  2  0  0  0  0
 56 58  1  0  0  0  0
 57 56  1  0  0  0  0
 58 49  2  0  0  0  0
 59 58  1  0  0  0  0
M  END
