1,3
q = 0.0, confidence = 1.0

 81 84  0  0  0  0  0  0  0  0999 V2000
    1.0416   -0.1911    0.6801 P   0  0  0  0  0  0  0  0  0  0  0  0
   -1.9242   -0.0678    0.0691 P   0  0  0  0  0  0  0  0  0  0  0  0
    1.2246    0.6582   -2.1948 N   0  0  0  0  0  0  0  0  0  0  0  0
    3.8992    0.5475    0.6039 N   0  0  0  0  0  0  0  0  0  0  0  0
   -2.0880   -3.1488    0.1065 N   0  0  0  0  0  0  0  0  0  0  0  0
   -2.7377    2.3032   -1.7254 N   0  0  0  0  0  0  0  0  0  0  0  0
    0.9968    1.5586    0.1323 C   0  0  0  0  0  0  0  0  0  0  0  0
    0.8691    2.6410    1.0230 C   0  0  0  0  0  0  0  0  0  0  0  0
    0.8027    3.9512    0.5361 C   0  0  0  0  0  0  0  0  0  0  0  0
    0.8627    4.1797   -0.8483 C   0  0  0  0  0  0  0  0  0  0  0  0
    0.9909    3.1051   -1.7390 C   0  0  0  0  0  0  0  0  0  0  0  0
    1.0602    1.7864   -1.2545 C   0  0  0  0  0  0  0  0  0  0  0  0
    0.0574    0.5684   -3.1179 C   0  0  0  0  0  0  0  0  0  0  0  0
    2.4850    0.8186   -2.9720 C   0  0  0  0  0  0  0  0  0  0  0  0
    2.1538   -0.2059    2.1314 C   0  0  0  0  0  0  0  0  0  0  0  0
    1.7297   -0.5978    3.4148 C   0  0  0  0  0  0  0  0  0  0  0  0
    2.5792   -0.4354    4.5195 C   0  0  0  0  0  0  0  0  0  0  0  0
    3.8522    0.1284    4.3445 C   0  0  0  0  0  0  0  0  0  0  0  0
    4.2967    0.4840    3.0621 C   0  0  0  0  0  0  0  0  0  0  0  0
    3.4688    0.2898    1.9401 C   0  0  0  0  0  0  0  0  0  0  0  0
    4.5439   -0.6182   -0.0105 C   0  0  0  0  0  0  0  0  0  0  0  0
    4.6300    1.7870    0.4020 C   0  0  0  0  0  0  0  0  0  0  0  0
   -0.6337   -0.5739    1.3374 C   0  0  0  0  0  0  0  0  0  0  0  0
   -3.3330   -1.0985    0.6968 C   0  0  0  0  0  0  0  0  0  0  0  0
   -4.4968   -0.5085    1.2280 C   0  0  0  0  0  0  0  0  0  0  0  0
   -5.5364   -1.2845    1.7640 C   0  0  0  0  0  0  0  0  0  0  0  0
   -5.4045   -2.6793    1.7890 C   0  0  0  0  0  0  0  0  0  0  0  0
   -4.2674   -3.2898    1.2434 C   0  0  0  0  0  0  0  0  0  0  0  0
   -3.2284   -2.5286    0.6562 C   0  0  0  0  0  0  0  0  0  0  0  0
   -1.8489   -2.9853   -1.3288 C   0  0  0  0  0  0  0  0  0  0  0  0
   -1.7509   -4.4868    0.5616 C   0  0  0  0  0  0  0  0  0  0  0  0
   -2.3759    1.6425    0.6233 C   0  0  0  0  0  0  0  0  0  0  0  0
   -2.3293    2.0243    1.9782 C   0  0  0  0  0  0  0  0  0  0  0  0
   -2.4359    3.3629    2.3791 C   0  0  0  0  0  0  0  0  0  0  0  0
   -2.5923    4.3518    1.3960 C   0  0  0  0  0  0  0  0  0  0  0  0
   -2.6886    3.9998    0.0456 C   0  0  0  0  0  0  0  0  0  0  0  0
   -2.6130    2.6455   -0.3709 C   0  0  0  0  0  0  0  0  0  0  0  0
   -3.7077    1.2931   -2.1310 C   0  0  0  0  0  0  0  0  0  0  0  0
   -2.5428    3.3291   -2.7276 C   0  0  0  0  0  0  0  0  0  0  0  0
    0.8153    2.4471    2.1045 H   0  0  0  0  0  0  0  0  0  0  0  0
    0.6898    4.7931    1.2343 H   0  0  0  0  0  0  0  0  0  0  0  0
    0.8089    5.2063   -1.2412 H   0  0  0  0  0  0  0  0  0  0  0  0
    1.0414    3.2993   -2.8200 H   0  0  0  0  0  0  0  0  0  0  0  0
   -0.8602    0.4903   -2.5057 H   0  0  0  0  0  0  0  0  0  0  0  0
    0.0037    1.4689   -3.7688 H   0  0  0  0  0  0  0  0  0  0  0  0
    0.1921   -0.3425   -3.7320 H   0  0  0  0  0  0  0  0  0  0  0  0
    2.6135   -0.0911   -3.5899 H   0  0  0  0  0  0  0  0  0  0  0  0
    2.4404    1.7222   -3.6185 H   0  0  0  0  0  0  0  0  0  0  0  0
    3.3274    0.9119   -2.2642 H   0  0  0  0  0  0  0  0  0  0  0  0
    0.7259   -1.0216    3.5589 H   0  0  0  0  0  0  0  0  0  0  0  0
    2.2391   -0.7393    5.5205 H   0  0  0  0  0  0  0  0  0  0  0  0
    4.5149    0.2728    5.2115 H   0  0  0  0  0  0  0  0  0  0  0  0
    5.3093    0.8907    2.9241 H   0  0  0  0  0  0  0  0  0  0  0  0
    3.9238   -1.5232    0.1411 H   0  0  0  0  0  0  0  0  0  0  0  0
    4.6431   -0.4622   -1.1035 H   0  0  0  0  0  0  0  0  0  0  0  0
    5.5628   -0.8022    0.4132 H   0  0  0  0  0  0  0  0  0  0  0  0
    5.6728    1.7754    0.8096 H   0  0  0  0  0  0  0  0  0  0  0  0
    4.7091    1.9876   -0.6865 H   0  0  0  0  0  0  0  0  0  0  0  0
    4.0768    2.6286    0.8633 H   0  0  0  0  0  0  0  0  0  0  0  0
   -0.6836   -1.6844    1.3672 H   0  0  0  0  0  0  0  0  0  0  0  0
   -0.8142   -0.1512    2.3444 H   0  0  0  0  0  0  0  0  0  0  0  0
   -4.5711    0.5891    1.2602 H   0  0  0  0  0  0  0  0  0  0  0  0
   -6.4291   -0.7959    2.1819 H   0  0  0  0  0  0  0  0  0  0  0  0
   -6.2000   -3.3053    2.2222 H   0  0  0  0  0  0  0  0  0  0  0  0
   -4.1935   -4.3859    1.2423 H   0  0  0  0  0  0  0  0  0  0  0  0
   -2.5151   -3.6541   -1.9274 H   0  0  0  0  0  0  0  0  0  0  0  0
   -2.0269   -1.9400   -1.6423 H   0  0  0  0  0  0  0  0  0  0  0  0
   -0.7932   -3.2235   -1.5638 H   0  0  0  0  0  0  0  0  0  0  0  0
   -1.8421   -4.5512    1.6635 H   0  0  0  0  0  0  0  0  0  0  0  0
   -2.3889   -5.2852    0.1054 H   0  0  0  0  0  0  0  0  0  0  0  0
   -0.6950   -4.6831    0.2884 H   0  0  0  0  0  0  0  0  0  0  0  0
   -2.1892    1.2484    2.7470 H   0  0  0  0  0  0  0  0  0  0  0  0
   -2.3886    3.6301    3.4451 H   0  0  0  0  0  0  0  0  0  0  0  0
   -2.6670    5.4123    1.6832 H   0  0  0  0  0  0  0  0  0  0  0  0
   -2.8553    4.7882   -0.7004 H   0  0  0  0  0  0  0  0  0  0  0  0
   -4.6419    1.7697   -2.5175 H   0  0  0  0  0  0  0  0  0  0  0  0
   -3.2964    0.6397   -2.9296 H   0  0  0  0  0  0  0  0  0  0  0  0
   -3.9971    0.6493   -1.2818 H   0  0  0  0  0  0  0  0  0  0  0  0
   -1.6604    3.9485   -2.4787 H   0  0  0  0  0  0  0  0  0  0  0  0
   -2.3536    2.8432   -3.7070 H   0  0  0  0  0  0  0  0  0  0  0  0
   -3.4276    4.0023   -2.8571 H   0  0  0  0  0  0  0  0  0  0  0  0
  1 23  1  0  0  0  0
  1 15  1  0  0  0  0
  2 32  1  0  0  0  0
  2 24  1  0  0  0  0
  2 23  1  0  0  0  0
  3 12  1  0  0  0  0
  4 20  1  0  0  0  0
  5 31  1  0  0  0  0
  5 29  1  0  0  0  0
  6 37  1  0  0  0  0
  7  1  1  0  0  0  0
  7  8  1  0  0  0  0
  8 40  1  0  0  0  0
  9  8  2  0  0  0  0
  9 41  1  0  0  0  0
 10  9  1  0  0  0  0
 11 12  1  0  0  0  0
 11 10  2  0  0  0  0
 12  7  2  0  0  0  0
 13 44  1  0  0  0  0
 13  3  1  0  0  0  0
 14 49  1  0  0  0  0
 14  3  1  0  0  0  0
 15 16  1  0  0  0  0
 16 50  1  0  0  0  0
 16 17  2  0  0  0  0
 17 51  1  0  0  0  0
 18 17  1  0  0  0  0
 18 52  1  0  0  0  0
 19 18  2  0  0  0  0
 20 15  2  0  0  0  0
 20 19  1  0  0  0  0
 21 54  1  0  0  0  0
 21 56  1  0  0  0  0
 21  4  1  0  0  0  0
 22  4  1  0  0  0  0
 22 57  1  0  0  0  0
 22 59  1  0  0  0  0
 23 60  1  0  0  0  0
 23 61  1  0  0  0  0
 24 25  1  0  0  0  0
 25 62  1  0  0  0  0
 25 26  2  0  0  0  0
 26 27  1  0  0  0  0
 26 63  1  0  0  0  0
 27 64  1  0  0  0  0
 28 27  2  0  0  0  0
 29 24  2  0  0  0  0
 29 28  1  0  0  0  0
 30  5  1  0  0  0  0
 31 69  1  0  0  0  0
 32 33  1  0  0  0  0
 33 34  2  0  0  0  0
 33 72  1  0  0  0  0
 34 73  1  0  0  0  0
 35 74  1  0  0  0  0
 35 34  1  0  0  0  0
 36 35  2  0  0  0  0
 37 36  1  0  0  0  0
 37 32  2  0  0  0  0
 38  6  1  0  0  0  0
 38 78  1  0  0  0  0
 39 79  1  0  0  0  0
 39  6  1  0  0  0  0
 42 10  1  0  0  0  0
 43 11  1  0  0  0  0
 45 13  1  0  0  0  0
 46 13  1  0  0  0  0
 47 14  1  0  0  0  0
 48 14  1  0  0  0  0
 53 19  1  0  0  0  0
 55 21  1  0  0  0  0
 58 22  1  0  0  0  0
 65 28  1  0  0  0  0
 66 30  1  0  0  0  0
 67 30  1  0  0  0  0
 68 30  1  0  0  0  0
 70 31  1  0  0  0  0
 71 31  1  0  0  0  0
 75 36  1  0  0  0  0
 76 38  1  0  0  0  0
 77 38  1  0  0  0  0
 80 39  1  0  0  0  0
 81 39  1  0  0  0  0
M  END
