2,3
q = 0.0, confidence = 1.0

 71 76  0  0  0  0  0  0  0  0999 V2000
    1.1278    1.0306    0.6816 P   0  0  0  0  0  4  0  0  0  0  0  0
   -1.5743   -0.0598    0.4544 P   0  0  0  0  0  0  0  0  0  0  0  0
    1.3476   -0.1142   -0.4506 N   0  0  0  0  0  2  0  0  0  0  0  0
    2.5714   -0.7374   -0.7719 C   0  0  0  0  0  0  0  0  0  0  0  0
    2.6728   -2.1524   -0.6585 C   0  0  0  0  0  0  0  0  0  0  0  0
    3.9072   -2.7697   -0.9270 C   0  0  0  0  0  0  0  0  0  0  0  0
    3.9788   -3.8646   -0.8385 H   0  0  0  0  0  0  0  0  0  0  0  0
    5.0327   -2.0150   -1.2952 C   0  0  0  0  0  0  0  0  0  0  0  0
    5.9894   -2.5185   -1.5001 H   0  0  0  0  0  0  0  0  0  0  0  0
    4.9267   -0.6208   -1.4094 C   0  0  0  0  0  0  0  0  0  0  0  0
    5.7990   -0.0201   -1.7090 H   0  0  0  0  0  0  0  0  0  0  0  0
    3.7013    0.0104   -1.1612 C   0  0  0  0  0  0  0  0  0  0  0  0
    3.5996    1.1003   -1.2702 H   0  0  0  0  0  0  0  0  0  0  0  0
    1.4816   -2.9412   -0.2299 C   0  0  0  0  0  0  0  0  0  0  0  0
    0.4612   -3.2562   -1.1539 C   0  0  0  0  0  0  0  0  0  0  0  0
    0.5793   -2.9537   -2.2055 H   0  0  0  0  0  0  0  0  0  0  0  0
   -0.6919   -3.9371   -0.7323 C   0  0  0  0  0  0  0  0  0  0  0  0
   -1.4871   -4.1486   -1.4624 H   0  0  0  0  0  0  0  0  0  0  0  0
   -0.8431   -4.3109    0.6118 C   0  0  0  0  0  0  0  0  0  0  0  0
   -1.7582   -4.8233    0.9445 H   0  0  0  0  0  0  0  0  0  0  0  0
    0.1703   -4.0126    1.5358 C   0  0  0  0  0  0  0  0  0  0  0  0
    0.0587   -4.3084    2.5905 H   0  0  0  0  0  0  0  0  0  0  0  0
    1.3259   -3.3330    1.1157 C   0  0  0  0  0  0  0  0  0  0  0  0
    2.1295   -3.1105    1.8366 H   0  0  0  0  0  0  0  0  0  0  0  0
   -0.2662    0.4111    1.7068 C   0  0  0  0  0  0  0  0  0  0  0  0
   -0.6223    1.1339    2.4659 H   0  0  0  0  0  0  0  0  0  0  0  0
    0.1167   -0.5077    2.1956 H   0  0  0  0  0  0  0  0  0  0  0  0
    2.5836    1.2449    1.7443 C   0  0  0  0  0  0  0  0  0  0  0  0
    3.1148    0.0981    2.3732 C   0  0  0  0  0  0  0  0  0  0  0  0
    2.6337   -0.8818    2.2327 H   0  0  0  0  0  0  0  0  0  0  0  0
    4.2749    0.2057    3.1494 C   0  0  0  0  0  0  0  0  0  0  0  0
    4.6940   -0.6902    3.6311 H   0  0  0  0  0  0  0  0  0  0  0  0
    4.9076    1.4514    3.3007 C   0  0  0  0  0  0  0  0  0  0  0  0
    5.8213    1.5320    3.9089 H   0  0  0  0  0  0  0  0  0  0  0  0
    4.3824    2.5907    2.6718 C   0  0  0  0  0  0  0  0  0  0  0  0
    4.8822    3.5644    2.7847 H   0  0  0  0  0  0  0  0  0  0  0  0
    3.2224    2.4916    1.8886 C   0  0  0  0  0  0  0  0  0  0  0  0
    2.8168    3.3803    1.3824 H   0  0  0  0  0  0  0  0  0  0  0  0
    0.6199    2.6365    0.0015 C   0  0  0  0  0  0  0  0  0  0  0  0
    0.0842    3.6479    0.8255 C   0  0  0  0  0  0  0  0  0  0  0  0
   -0.0103    3.4966    1.9122 H   0  0  0  0  0  0  0  0  0  0  0  0
   -0.3486    4.8507    0.2521 C   0  0  0  0  0  0  0  0  0  0  0  0
   -0.7795    5.6370    0.8894 H   0  0  0  0  0  0  0  0  0  0  0  0
   -0.2498    5.0403   -1.1370 C   0  0  0  0  0  0  0  0  0  0  0  0
   -0.6022    5.9816   -1.5858 H   0  0  0  0  0  0  0  0  0  0  0  0
    0.2821    4.0308   -1.9545 C   0  0  0  0  0  0  0  0  0  0  0  0
    0.3444    4.1720   -3.0437 H   0  0  0  0  0  0  0  0  0  0  0  0
    0.7194    2.8215   -1.3928 C   0  0  0  0  0  0  0  0  0  0  0  0
    1.0903    2.0044   -2.0363 H   0  0  0  0  0  0  0  0  0  0  0  0
   -2.6461    1.4355    0.4425 C   0  0  0  0  0  0  0  0  0  0  0  0
   -3.3031    1.8471    1.6203 C   0  0  0  0  0  0  0  0  0  0  0  0
   -3.2445    1.2305    2.5319 H   0  0  0  0  0  0  0  0  0  0  0  0
   -4.0455    3.0363    1.6288 C   0  0  0  0  0  0  0  0  0  0  0  0
   -4.5588    3.3550    2.5490 H   0  0  0  0  0  0  0  0  0  0  0  0
   -4.1417    3.8121    0.4607 C   0  0  0  0  0  0  0  0  0  0  0  0
   -4.7268    4.7445    0.4679 H   0  0  0  0  0  0  0  0  0  0  0  0
   -3.5032    3.3913   -0.7158 C   0  0  0  0  0  0  0  0  0  0  0  0
   -3.5847    3.9905   -1.6351 H   0  0  0  0  0  0  0  0  0  0  0  0
   -2.7568    2.2034   -0.7316 C   0  0  0  0  0  0  0  0  0  0  0  0
   -2.2643    1.8542   -1.6514 H   0  0  0  0  0  0  0  0  0  0  0  0
   -2.5728   -1.3566    1.2768 C   0  0  0  0  0  0  0  0  0  0  0  0
   -2.4290   -1.6889    2.6383 C   0  0  0  0  0  0  0  0  0  0  0  0
   -1.6942   -1.1699    3.2712 H   0  0  0  0  0  0  0  0  0  0  0  0
   -3.2232   -2.6998    3.2019 C   0  0  0  0  0  0  0  0  0  0  0  0
   -3.1039   -2.9569    4.2654 H   0  0  0  0  0  0  0  0  0  0  0  0
   -4.1634   -3.3792    2.4122 C   0  0  0  0  0  0  0  0  0  0  0  0
   -4.7840   -4.1725    2.8562 H   0  0  0  0  0  0  0  0  0  0  0  0
   -4.3070   -3.0473    1.0545 C   0  0  0  0  0  0  0  0  0  0  0  0
   -5.0376   -3.5826    0.4292 H   0  0  0  0  0  0  0  0  0  0  0  0
   -3.5149   -2.0435    0.4815 C   0  0  0  0  0  0  0  0  0  0  0  0
   -3.5945   -1.7927   -0.5901 H   0  0  0  0  0  0  0  0  0  0  0  0
  1 25  1  0  0  0  0
  1 28  1  0  0  0  0
  2 61  1  0  0  0  0
  2 25  1  0  0  0  0
  3  1  1  0  0  0  0
  4  5  1  0  0  0  0
  4  3  1  0  0  0  0
  5 14  1  0  0  0  0
  6  7  1  0  0  0  0
  6  5  2  0  0  0  0
  8  6  1  0  0  0  0
  9  8  1  0  0  0  0
 10  8  2  0  0  0  0
 10 12  1  0  0  0  0
 11 10  1  0  0  0  0
 12  4  2  0  0  0  0
 13 12  1  0  0  0  0
 14 23  1  0  0  0  0
 15 17  1  0  0  0  0
 15 14  2  0  0  0  0
 16 15  1  0  0  0  0
 17 19  2  0  0  0  0
 18 17  1  0  0  0  0
 19 20  1  0  0  0  0
 19 21  1  0  0  0  0
 21 22  1  0  0  0  0
 23 21  2  0  0  0  0
 23 24  1  0  0  0  0
 25 27  1  0  0  0  0
 25 26  1  0  0  0  0
 28 37  2  0  0  0  0
 28 29  1  0  0  0  0
 29 31  2  0  0  0  0
 30 29  1  0  0  0  0
 31 33  1  0  0  0  0
 31 32  1  0  0  0  0
 33 34  1  0  0  0  0
 35 36  1  0  0  0  0
 35 33  2  0  0  0  0
 37 35  1  0  0  0  0
 38 37  1  0  0  0  0
 39  1  1  0  0  0  0
 39 40  1  0  0  0  0
 40 41  1  0  0  0  0
 42 40  2  0  0  0  0
 42 43  1  0  0  0  0
 44 42  1  0  0  0  0
 45 44  1  0  0  0  0
 46 48  1  0  0  0  0
 46 44  2  0  0  0  0
 47 46  1  0  0  0  0
 48 39  2  0  0  0  0
 49 48  1  0  0  0  0
 50  2  1  0  0  0  0
 50 51  1  0  0  0  0
 51 53  2  0  0  0  0
 51 52  1  0  0  0  0
 53 54  1  0  0  0  0
 55 56  1  0  0  0  0
 55 53  1  0  0  0  0
 57 55  2  0  0  0  0
 58 57  1  0  0  0  0
 59 57  1  0  0  0  0
 59 50  2  0  0  0  0
 60 59  1  0  0  0  0
 61 62  1  0  0  0  0
 62 64  2  0  0  0  0
 62 63  1  0  0  0  0
 64 65  1  0  0  0  0
 66 67  1  0  0  0  0
 66 64  1  0  0  0  0
 68 66  2  0  0  0  0
 69 68  1  0  0  0  0
 70 68  1  0  0  0  0
 70 61  2  0  0  0  0
 71 70  1  0  0  0  0
M  END
