1,2
q = -1.0

 34 36  0  0  0  0  0  0  0  0999 V2000
   -0.4298   -1.2028    0.0504 P   0  0  0  0  0  0  0  0  0  0  0  0
    2.4318   -0.7557   -0.2559 N   0  0  0  0  0  2  0  0  0  0  0  0
    3.4405   -3.1960   -0.2093 S   0  0  0  0  0  0  0  0  0  0  0  0
    3.8707   -0.5742   -0.2089 C   0  0  0  0  0  0  0  0  0  0  0  0
    4.2324   -0.4044    0.8373 H   0  0  0  0  0  0  0  0  0  0  0  0
    4.1775    0.3091   -0.8104 H   0  0  0  0  0  0  0  0  0  0  0  0
    4.5313   -1.8374   -0.7794 C   0  0  0  0  0  0  0  0  0  0  0  0
    5.5590   -1.9970   -0.4003 H   0  0  0  0  0  0  0  0  0  0  0  0
    4.5498   -1.8251   -1.8892 H   0  0  0  0  0  0  0  0  0  0  0  0
    2.0650   -2.0493   -0.1742 C   0  0  0  0  0  0  0  0  0  0  0  0
    0.7505   -2.5044   -0.0641 C   0  0  0  0  0  0  0  0  0  0  0  0
    0.4794   -3.5622   -0.1694 H   0  0  0  0  0  0  0  0  0  0  0  0
   -1.7808   -1.5886   -1.1357 C   0  0  0  0  0  0  0  0  0  0  0  0
   -1.4242   -1.6629   -2.4997 C   0  0  0  0  0  0  0  0  0  0  0  0
   -0.3761   -1.4882   -2.7905 H   0  0  0  0  0  0  0  0  0  0  0  0
   -2.3937   -1.9530   -3.4676 C   0  0  0  0  0  0  0  0  0  0  0  0
   -2.1087   -2.0049   -4.5295 H   0  0  0  0  0  0  0  0  0  0  0  0
   -3.7285   -2.1749   -3.0839 C   0  0  0  0  0  0  0  0  0  0  0  0
   -4.4906   -2.4011   -3.8452 H   0  0  0  0  0  0  0  0  0  0  0  0
   -4.0857   -2.1086   -1.7291 C   0  0  0  0  0  0  0  0  0  0  0  0
   -5.1280   -2.2874   -1.4235 H   0  0  0  0  0  0  0  0  0  0  0  0
   -3.1172   -1.8149   -0.7547 C   0  0  0  0  0  0  0  0  0  0  0  0
   -3.4026   -1.7608    0.3061 H   0  0  0  0  0  0  0  0  0  0  0  0
   -1.2466   -1.1945    1.7052 C   0  0  0  0  0  0  0  0  0  0  0  0
   -2.1559   -0.1766    2.0660 C   0  0  0  0  0  0  0  0  0  0  0  0
   -2.3878    0.6299    1.3537 H   0  0  0  0  0  0  0  0  0  0  0  0
   -2.7505   -0.1854    3.3358 C   0  0  0  0  0  0  0  0  0  0  0  0
   -3.4591    0.6112    3.6099 H   0  0  0  0  0  0  0  0  0  0  0  0
   -2.4348   -1.1971    4.2592 C   0  0  0  0  0  0  0  0  0  0  0  0
   -2.8988   -1.1969    5.2575 H   0  0  0  0  0  0  0  0  0  0  0  0
   -1.5200   -2.2017    3.9080 C   0  0  0  0  0  0  0  0  0  0  0  0
   -1.2632   -2.9922    4.6300 H   0  0  0  0  0  0  0  0  0  0  0  0
   -0.9269   -2.2018    2.6354 C   0  0  0  0  0  0  0  0  0  0  0  0
   -0.1966   -2.9757    2.3501 H   0  0  0  0  0  0  0  0  0  0  0  0
  1 24  1  0  0  0  0
  2  4  1  0  0  0  0
  2 10  1  0  0  0  0
  3 10  1  0  0  0  0
  4  5  1  0  0  0  0
  6  4  1  0  0  0  0
  7  8  1  0  0  0  0
  7  3  1  0  0  0  0
  7  4  1  0  0  0  0
  9  7  1  0  0  0  0
 10 11  2  0  0  0  0
 11  1  1  0  0  0  0
 12 11  1  0  0  0  0
 13 22  1  0  0  0  0
 13  1  1  0  0  0  0
 14 13  2  0  0  0  0
 15 14  1  0  0  0  0
 16 18  2  0  0  0  0
 16 14  1  0  0  0  0
 17 16  1  0  0  0  0
 18 20  1  0  0  0  0
 19 18  1  0  0  0  0
 20 21  1  0  0  0  0
 20 22  2  0  0  0  0
 22 23  1  0  0  0  0
 24 25  2  0  0  0  0
 24 33  1  0  0  0  0
 25 27  1  0  0  0  0
 26 25  1  0  0  0  0
 27 28  1  0  0  0  0
 27 29  2  0  0  0  0
 29 30  1  0  0  0  0
 31 29  1  0  0  0  0
 31 32  1  0  0  0  0
 33 31  2  0  0  0  0
 34 33  1  0  0  0  0
M  END
