1,2
q = 0.0, confidence = 0.998

 39 41  0  0  0  0  0  0  0  0999 V2000
    1.5686    0.3822   -0.4500 P   0  0  0  0  0  0  0  0  0  0  0  0
   -1.2471    1.5292   -0.0122 N   0  0  0  0  0  2  0  0  0  0  0  0
    0.2494    2.5582   -1.5721 N   0  0  0  0  0  0  0  0  0  0  0  0
    0.5139    3.4733   -1.9398 H   0  0  0  0  0  0  0  0  0  0  0  0
    4.2291   -0.5302   -0.8222 C   0  0  0  0  0  0  0  0  0  0  0  0
    4.5406    0.2366   -0.0977 H   0  0  0  0  0  0  0  0  0  0  0  0
   -2.8240    2.9211    1.1861 C   0  0  0  0  0  0  0  0  0  0  0  0
   -3.6298    2.9951    1.9279 H   0  0  0  0  0  0  0  0  0  0  0  0
    2.5727    2.2569    3.0489 C   0  0  0  0  0  0  0  0  0  0  0  0
    2.3286    2.1364    4.1147 H   0  0  0  0  0  0  0  0  0  0  0  0
   -2.2488    1.6927    0.9046 C   0  0  0  0  0  3  0  0  0  0  0  0
   -2.5874    0.7811    1.4147 H   0  0  0  0  0  0  0  0  0  0  0  0
    5.1871   -1.3717   -1.4090 C   0  0  0  0  0  0  0  0  0  0  0  0
    6.2480   -1.2566   -1.1414 H   0  0  0  0  0  0  0  0  0  0  0  0
    4.7951   -2.3564   -2.3290 C   0  0  0  0  0  0  0  0  0  0  0  0
    5.5501   -3.0139   -2.7851 H   0  0  0  0  0  0  0  0  0  0  0  0
   -1.3351    3.9164   -0.4270 C   0  0  0  0  0  0  0  0  0  0  0  0
    3.1972    2.5670    0.3218 C   0  0  0  0  0  0  0  0  0  0  0  0
    3.4533    2.6930   -0.7415 H   0  0  0  0  0  0  0  0  0  0  0  0
    3.4362    3.2830    2.6342 C   0  0  0  0  0  0  0  0  0  0  0  0
    3.8707    3.9691    3.3766 H   0  0  0  0  0  0  0  0  0  0  0  0
    2.4726   -1.6867   -2.0692 C   0  0  0  0  0  0  0  0  0  0  0  0
    1.4045   -1.8401   -2.2916 H   0  0  0  0  0  0  0  0  0  0  0  0
   -2.3587    4.0623    0.4979 C   0  0  0  0  0  0  0  0  0  0  0  0
   -2.7923    5.0563    0.6906 H   0  0  0  0  0  0  0  0  0  0  0  0
   -0.7744    2.6128   -0.6656 C   0  0  0  0  0  0  0  0  0  0  0  0
    3.4380   -2.5124   -2.6590 C   0  0  0  0  0  0  0  0  0  0  0  0
    3.1278   -3.2932   -3.3692 H   0  0  0  0  0  0  0  0  0  0  0  0
    1.0735    1.4347   -1.9232 C   0  0  0  0  0  0  0  0  0  0  0  0
    1.9870    1.8067   -2.4267 H   0  0  0  0  0  0  0  0  0  0  0  0
    0.5787    0.7289   -2.6302 H   0  0  0  0  0  0  0  0  0  0  0  0
    2.0148    1.3843    2.1029 C   0  0  0  0  0  0  0  0  0  0  0  0
    1.3273    0.5827    2.4171 H   0  0  0  0  0  0  0  0  0  0  0  0
    2.3299    1.5327    0.7362 C   0  0  0  0  0  0  0  0  0  0  0  0
    2.8684   -0.6822   -1.1586 C   0  0  0  0  0  0  0  0  0  0  0  0
    3.7464    3.4387    1.2724 C   0  0  0  0  0  0  0  0  0  0  0  0
    4.4226    4.2442    0.9492 H   0  0  0  0  0  0  0  0  0  0  0  0
   -0.7733    4.9175   -1.1553 O   0  0  0  0  0  0  0  0  0  0  0  0
   -1.1924    5.7714   -0.9377 H   0  0  0  0  0  0  0  0  0  0  0  0
  1 34  1  0  0  0  0
  2 11  1  0  0  0  0
  3 26  1  0  0  0  0
  4  3  1  0  0  0  0
  5  6  1  0  0  0  0
  7  8  1  0  0  0  0
  9 10  1  0  0  0  0
 11  7  1  0  0  0  0
 11 12  1  0  0  0  0
 13 14  1  0  0  0  0
 13  5  2  0  0  0  0
 15 13  1  0  0  0  0
 16 15  1  0  0  0  0
 17 24  1  0  0  0  0
 18 34  2  0  0  0  0
 18 36  1  0  0  0  0
 19 18  1  0  0  0  0
 20  9  1  0  0  0  0
 20 21  1  0  0  0  0
 22 35  2  0  0  0  0
 23 22  1  0  0  0  0
 24 25  1  0  0  0  0
 24  7  2  0  0  0  0
 26 17  2  0  0  0  0
 26  2  1  0  0  0  0
 27 15  2  0  0  0  0
 27 22  1  0  0  0  0
 28 27  1  0  0  0  0
 29  3  1  0  0  0  0
 29  1  1  0  0  0  0
 30 29  1  0  0  0  0
 31 29  1  0  0  0  0
 32 33  1  0  0  0  0
 32  9  2  0  0  0  0
 34 32  1  0  0  0  0
 35  5  1  0  0  0  0
 35  1  1  0  0  0  0
 36 20  2  0  0  0  0
 37 36  1  0  0  0  0
 38 39  1  0  0  0  0
 38 17  1  0  0  0  0
M  END
