1,5
q = 0.0, confidence = 0.994

 50 53  0  0  0  0  0  0  0  0999 V2000
   -1.8784    0.0700   -0.1234 P   0  0  0  0  0  0  0  0  0  0  0  0
    6.8383    1.4669   -0.6884 F   0  0  0  0  0  0  0  0  0  0  0  0
    7.2149   -0.3158    0.5086 F   0  0  0  0  0  0  0  0  0  0  0  0
    6.6565   -0.5051   -1.5976 F   0  0  0  0  0  0  0  0  0  0  0  0
    0.8616    0.2427    0.9598 N   0  0  0  0  0  2  0  0  0  0  0  0
   -2.0787    1.0163    1.4555 C   0  0  0  0  0  0  0  0  0  0  0  0
   -3.3510    1.3425    1.9546 C   0  0  0  0  0  0  0  0  0  0  0  0
   -4.2449    1.0121    1.4056 H   0  0  0  0  0  0  0  0  0  0  0  0
   -3.4987    2.0862    3.1385 C   0  0  0  0  0  0  0  0  0  0  0  0
   -4.5070    2.3199    3.5123 H   0  0  0  0  0  0  0  0  0  0  0  0
   -2.3658    2.5413    3.8276 C   0  0  0  0  0  0  0  0  0  0  0  0
   -2.4729    3.1341    4.7479 H   0  0  0  0  0  0  0  0  0  0  0  0
   -1.0915    2.2396    3.3324 C   0  0  0  0  0  0  0  0  0  0  0  0
   -0.1966    2.5993    3.8641 H   0  0  0  0  0  0  0  0  0  0  0  0
   -0.9228    1.4554    2.1679 C   0  0  0  0  0  0  0  0  0  0  0  0
    0.4532    1.1975    1.7458 C   0  0  0  0  0  3  0  0  0  0  0  0
    1.2113    1.9081    2.1333 H   0  0  0  0  0  0  0  0  0  0  0  0
    2.2498    0.2046    0.6327 C   0  0  0  0  0  0  0  0  0  0  0  0
    3.2368    0.2333    1.6346 C   0  0  0  0  0  0  0  0  0  0  0  0
    2.9378    0.2225    2.6924 H   0  0  0  0  0  0  0  0  0  0  0  0
    4.5899    0.2066    1.2791 C   0  0  0  0  0  0  0  0  0  0  0  0
    5.3650    0.1997    2.0583 H   0  0  0  0  0  0  0  0  0  0  0  0
    4.9615    0.1579   -0.0743 C   0  0  0  0  0  0  0  0  0  0  0  0
    3.9719    0.1160   -1.0737 C   0  0  0  0  0  0  0  0  0  0  0  0
    4.2660    0.0567   -2.1311 H   0  0  0  0  0  0  0  0  0  0  0  0
    2.6202    0.1267   -0.7232 C   0  0  0  0  0  0  0  0  0  0  0  0
    1.8306    0.0741   -1.4857 H   0  0  0  0  0  0  0  0  0  0  0  0
    6.4196    0.1931   -0.4619 C   0  0  0  0  0  0  0  0  0  0  0  0
   -1.5366    1.3965   -1.3596 C   0  0  0  0  0  0  0  0  0  0  0  0
   -0.9035    1.0147   -2.5610 C   0  0  0  0  0  0  0  0  0  0  0  0
   -0.6318   -0.0433   -2.7092 H   0  0  0  0  0  0  0  0  0  0  0  0
   -0.6152    1.9751   -3.5409 C   0  0  0  0  0  0  0  0  0  0  0  0
   -0.1236    1.6707   -4.4774 H   0  0  0  0  0  0  0  0  0  0  0  0
   -0.9418    3.3241   -3.3216 C   0  0  0  0  0  0  0  0  0  0  0  0
   -0.7046    4.0794   -4.0862 H   0  0  0  0  0  0  0  0  0  0  0  0
   -1.5639    3.7093   -2.1236 C   0  0  0  0  0  0  0  0  0  0  0  0
   -1.8158    4.7664   -1.9480 H   0  0  0  0  0  0  0  0  0  0  0  0
   -1.8648    2.7494   -1.1440 C   0  0  0  0  0  0  0  0  0  0  0  0
   -2.3532    3.0549   -0.2059 H   0  0  0  0  0  0  0  0  0  0  0  0
   -3.5875   -0.4834   -0.5069 C   0  0  0  0  0  0  0  0  0  0  0  0
   -4.3977    0.1698   -1.4561 C   0  0  0  0  0  0  0  0  0  0  0  0
   -4.0085    1.0399   -2.0054 H   0  0  0  0  0  0  0  0  0  0  0  0
   -5.6995   -0.2944   -1.7038 C   0  0  0  0  0  0  0  0  0  0  0  0
   -6.3256    0.2146   -2.4524 H   0  0  0  0  0  0  0  0  0  0  0  0
   -6.1995   -1.4028   -1.0034 C   0  0  0  0  0  0  0  0  0  0  0  0
   -7.2194   -1.7655   -1.2018 H   0  0  0  0  0  0  0  0  0  0  0  0
   -5.3937   -2.0547   -0.0545 C   0  0  0  0  0  0  0  0  0  0  0  0
   -5.7790   -2.9289    0.4915 H   0  0  0  0  0  0  0  0  0  0  0  0
   -4.0902   -1.6029    0.1898 C   0  0  0  0  0  0  0  0  0  0  0  0
   -3.4486   -2.1202    0.9208 H   0  0  0  0  0  0  0  0  0  0  0  0
  1  6  1  0  0  0  0
  2 28  1  0  0  0  0
  4 28  1  0  0  0  0
  5 16  1  0  0  0  0
  6  7  2  0  0  0  0
  6 15  1  0  0  0  0
  7  9  1  0  0  0  0
  8  7  1  0  0  0  0
  9 10  1  0  0  0  0
  9 11  2  0  0  0  0
 11 12  1  0  0  0  0
 13 11  1  0  0  0  0
 13 14  1  0  0  0  0
 15 13  2  0  0  0  0
 16 17  1  0  0  0  0
 16 15  1  0  0  0  0
 18  5  1  0  0  0  0
 18 19  1  0  0  0  0
 19 20  1  0  0  0  0
 21 19  2  0  0  0  0
 21 22  1  0  0  0  0
 23 21  1  0  0  0  0
 24 26  1  0  0  0  0
 24 23  2  0  0  0  0
 25 24  1  0  0  0  0
 26 18  2  0  0  0  0
 27 26  1  0  0  0  0
 28 23  1  0  0  0  0
 28  3  1  0  0  0  0
 29 38  1  0  0  0  0
 29  1  1  0  0  0  0
 30 29  2  0  0  0  0
 31 30  1  0  0  0  0
 32 34  2  0  0  0  0
 32 30  1  0  0  0  0
 33 32  1  0  0  0  0
 34 36  1  0  0  0  0
 35 34  1  0  0  0  0
 36 37  1  0  0  0  0
 36 38  2  0  0  0  0
 38 39  1  0  0  0  0
 40  1  1  0  0  0  0
 40 49  1  0  0  0  0
 41 40  2  0  0  0  0
 42 41  1  0  0  0  0
 43 41  1  0  0  0  0
 43 45  2  0  0  0  0
 44 43  1  0  0  0  0
 45 47  1  0  0  0  0
 46 45  1  0  0  0  0
 47 49  2  0  0  0  0
 47 48  1  0  0  0  0
 49 50  1  0  0  0  0
M  END
