1,3
q = 0.0, confidence = 0.996

 48 52  0  0  1  0  0  0  0  0999 V2000
   -0.3912   -0.9764    0.4825 P   0  0  1  0  0  0  0  0  0  0  0  0
    2.4218   -1.3057   -0.2665 N   0  0  0  0  0  0  0  0  0  0  0  0
   -2.8462    0.3782   -0.2505 N   0  0  0  0  0  2  0  0  0  0  0  0
   -1.6170   -0.3696    1.7535 C   0  0  1  0  0  0  0  0  0  0  0  0
   -1.8312   -1.2053    2.4549 H   0  0  0  0  0  0  0  0  0  0  0  0
   -0.8359    0.7173    2.5053 C   0  0  0  0  0  0  0  0  0  0  0  0
   -1.4028    1.6635    3.3017 C   0  0  0  0  0  0  0  0  0  0  0  0
   -2.4978    1.6821    3.4280 H   0  0  0  0  0  0  0  0  0  0  0  0
   -0.5938    2.6880    4.0388 C   0  0  0  0  0  0  0  0  0  0  0  0
   -0.5257    2.3785    5.1095 H   0  0  0  0  0  0  0  0  0  0  0  0
   -1.1392    3.6548    4.0581 H   0  0  0  0  0  0  0  0  0  0  0  0
    0.7998    2.8648    3.4319 C   0  0  0  0  0  0  0  0  0  0  0  0
    0.7034    3.4111    2.4714 H   0  0  0  0  0  0  0  0  0  0  0  0
    1.4383    3.4835    4.0927 H   0  0  0  0  0  0  0  0  0  0  0  0
    1.4925    1.5225    3.1510 C   0  0  0  0  0  0  0  0  0  0  0  0
    1.7324    1.0132    4.1136 H   0  0  0  0  0  0  0  0  0  0  0  0
    2.4546    1.6925    2.6295 H   0  0  0  0  0  0  0  0  0  0  0  0
    0.6176    0.6093    2.3333 C   0  0  0  0  0  0  0  0  0  0  0  0
    1.0340   -0.3190    1.3984 C   0  0  0  0  0  0  0  0  0  0  0  0
    2.3669   -0.7450    0.9732 C   0  0  0  0  0  0  0  0  0  0  0  0
    3.5197   -0.6696    1.7891 C   0  0  0  0  0  0  0  0  0  0  0  0
    3.4565   -0.2582    2.8041 H   0  0  0  0  0  0  0  0  0  0  0  0
    4.7364   -1.1574    1.2993 C   0  0  0  0  0  0  0  0  0  0  0  0
    5.6425   -1.1065    1.9216 H   0  0  0  0  0  0  0  0  0  0  0  0
    4.7816   -1.7276    0.0184 C   0  0  0  0  0  0  0  0  0  0  0  0
    5.7138   -2.1350   -0.3977 H   0  0  0  0  0  0  0  0  0  0  0  0
    3.5903   -1.7811   -0.7203 C   0  0  0  0  0  0  0  0  0  0  0  0
    3.5773   -2.2310   -1.7282 H   0  0  0  0  0  0  0  0  0  0  0  0
   -2.8902    0.0662    1.0813 C   0  0  2  0  0  3  0  0  0  0  0  0
   -4.0959    0.1519    1.7954 C   0  0  0  0  0  0  0  0  0  0  0  0
   -4.1120   -0.1406    2.8550 H   0  0  0  0  0  0  0  0  0  0  0  0
   -5.2599    0.5965    1.1556 C   0  0  0  0  0  0  0  0  0  0  0  0
   -6.2084    0.6660    1.7087 H   0  0  0  0  0  0  0  0  0  0  0  0
   -5.1894    0.9415   -0.1992 C   0  0  0  0  0  0  0  0  0  0  0  0
   -6.0704    1.2974   -0.7513 H   0  0  0  0  0  0  0  0  0  0  0  0
   -3.9704    0.8120   -0.8705 C   0  0  0  0  0  0  0  0  0  0  0  0
   -3.8488    1.0558   -1.9387 H   0  0  0  0  0  0  0  0  0  0  0  0
   -0.3672   -2.7928    0.4744 C   0  0  0  0  0  0  0  0  0  0  0  0
   -0.9881   -3.4788   -0.5887 C   0  0  0  0  0  0  0  0  0  0  0  0
   -1.4525   -2.9078   -1.4095 H   0  0  0  0  0  0  0  0  0  0  0  0
   -1.0081   -4.8814   -0.5939 C   0  0  0  0  0  0  0  0  0  0  0  0
   -1.4941   -5.4186   -1.4218 H   0  0  0  0  0  0  0  0  0  0  0  0
   -0.4060   -5.5959    0.4540 C   0  0  0  0  0  0  0  0  0  0  0  0
   -0.4190   -6.6961    0.4462 H   0  0  0  0  0  0  0  0  0  0  0  0
    0.2167   -4.9112    1.5119 C   0  0  0  0  0  0  0  0  0  0  0  0
    0.6906   -5.4742    2.3299 H   0  0  0  0  0  0  0  0  0  0  0  0
    0.2391   -3.5102    1.5270 C   0  0  0  0  0  0  0  0  0  0  0  0
    0.7326   -2.9731    2.3521 H   0  0  0  0  0  0  0  0  0  0  0  0
  1 38  1  1  0  0  0
  1 19  1  0  0  0  0
  1  4  1  0  0  0  0
  2 20  1  0  0  0  0
  4  5  1  1  0  0  0
  4  6  1  0  0  0  0
  6  7  2  0  0  0  0
  7  8  1  0  0  0  0
  7  9  1  0  0  0  0
  9 11  1  0  0  0  0
  9 10  1  0  0  0  0
 12  9  1  0  0  0  0
 12 14  1  0  0  0  0
 13 12  1  0  0  0  0
 15 12  1  0  0  0  0
 15 16  1  0  0  0  0
 17 15  1  0  0  0  0
 18  6  1  0  0  0  0
 18 15  1  0  0  0  0
 19 18  2  0  0  0  0
 20 19  1  0  0  0  0
 20 21  2  0  0  0  0
 21 22  1  0  0  0  0
 23 21  1  0  0  0  0
 23 24  1  0  0  0  0
 25 23  2  0  0  0  0
 26 25  1  0  0  0  0
 27  2  2  0  0  0  0
 27 25  1  0  0  0  0
 28 27  1  0  0  0  0
 29  3  1  6  0  0  0
 29  4  1  0  0  0  0
 29 30  1  0  0  0  0
 30 31  1  0  0  0  0
 32 33  1  0  0  0  0
 32 30  2  0  0  0  0
 34 32  1  0  0  0  0
 35 34  1  0  0  0  0
 36  3  1  0  0  0  0
 36 34  2  0  0  0  0
 37 36  1  0  0  0  0
 38 47  1  0  0  0  0
 39 38  2  0  0  0  0
 40 39  1  0  0  0  0
 41 39  1  0  0  0  0
 41 43  2  0  0  0  0
 42 41  1  0  0  0  0
 43 45  1  0  0  0  0
 44 43  1  0  0  0  0
 45 47  2  0  0  0  0
 45 46  1  0  0  0  0
 47 48  1  0  0  0  0
M  END
