1,3
q = 0.0, confidence = 0.996

 51 54  0  0  1  0  0  0  0  0999 V2000
    1.0898    0.1978    0.0689 P   0  0  0  0  0  0  0  0  0  0  0  0
   -2.6280    2.4257   -1.2185 O   0  0  0  0  0  0  0  0  0  0  0  0
   -1.7958    0.3803   -0.8103 N   0  0  0  0  0  2  0  0  0  0  0  0
   -1.5422    1.6285   -1.1097 C   0  0  1  0  0  3  0  0  0  0  0  0
   -3.7958    1.5675   -1.1079 C   0  0  0  0  0  0  0  0  0  0  0  0
   -4.2241    1.4472   -2.1246 H   0  0  0  0  0  0  0  0  0  0  0  0
   -4.5321    2.0795   -0.4596 H   0  0  0  0  0  0  0  0  0  0  0  0
   -3.2510    0.2546   -0.5277 C   0  0  2  0  0  0  0  0  0  0  0  0
   -3.6114   -0.6410   -1.0713 H   0  0  0  0  0  0  0  0  0  0  0  0
   -0.2501    2.2843   -1.3508 C   0  0  0  0  0  0  0  0  0  0  0  0
   -0.2708    3.5178   -2.0434 C   0  0  0  0  0  0  0  0  0  0  0  0
   -1.2389    3.9164   -2.3747 H   0  0  0  0  0  0  0  0  0  0  0  0
    0.9130    4.2117   -2.3133 C   0  0  0  0  0  0  0  0  0  0  0  0
    0.8750    5.1635   -2.8636 H   0  0  0  0  0  0  0  0  0  0  0  0
    2.1418    3.6865   -1.8871 C   0  0  0  0  0  0  0  0  0  0  0  0
    3.0800    4.2208   -2.0990 H   0  0  0  0  0  0  0  0  0  0  0  0
    2.1759    2.4726   -1.1853 C   0  0  0  0  0  0  0  0  0  0  0  0
    3.1400    2.0643   -0.8484 H   0  0  0  0  0  0  0  0  0  0  0  0
    0.9949    1.7601   -0.9034 C   0  0  0  0  0  0  0  0  0  0  0  0
    2.8092   -0.3692   -0.1950 C   0  0  0  0  0  0  0  0  0  0  0  0
    3.1017   -1.0721   -1.3817 C   0  0  0  0  0  0  0  0  0  0  0  0
    2.2887   -1.3197   -2.0809 H   0  0  0  0  0  0  0  0  0  0  0  0
    4.4180   -1.4690   -1.6471 C   0  0  0  0  0  0  0  0  0  0  0  0
    4.6441   -2.0226   -2.5707 H   0  0  0  0  0  0  0  0  0  0  0  0
    5.4422   -1.1802   -0.7286 C   0  0  0  0  0  0  0  0  0  0  0  0
    6.4737   -1.5031   -0.9361 H   0  0  0  0  0  0  0  0  0  0  0  0
    5.1487   -0.4913    0.4579 C   0  0  0  0  0  0  0  0  0  0  0  0
    5.9471   -0.2727    1.1831 H   0  0  0  0  0  0  0  0  0  0  0  0
    3.8324   -0.0827    0.7279 C   0  0  0  0  0  0  0  0  0  0  0  0
    3.5992    0.4527    1.6605 H   0  0  0  0  0  0  0  0  0  0  0  0
    1.0031    0.7303    1.8232 C   0  0  0  0  0  0  0  0  0  0  0  0
    0.8846   -0.2922    2.7908 C   0  0  0  0  0  0  0  0  0  0  0  0
    0.8794   -1.3462    2.4651 H   0  0  0  0  0  0  0  0  0  0  0  0
    0.7626    0.0468    4.1445 C   0  0  0  0  0  0  0  0  0  0  0  0
    0.6712   -0.7502    4.8979 H   0  0  0  0  0  0  0  0  0  0  0  0
    0.7418    1.3964    4.5384 C   0  0  0  0  0  0  0  0  0  0  0  0
    0.6335    1.6577    5.6021 H   0  0  0  0  0  0  0  0  0  0  0  0
    0.8537    2.4110    3.5756 C   0  0  0  0  0  0  0  0  0  0  0  0
    0.8348    3.4681    3.8814 H   0  0  0  0  0  0  0  0  0  0  0  0
    0.9879    2.0819    2.2167 C   0  0  0  0  0  0  0  0  0  0  0  0
    1.0737    2.8790    1.4630 H   0  0  0  0  0  0  0  0  0  0  0  0
   -3.4997    0.0204    0.9815 C   0  0  0  0  0  0  0  0  0  0  0  0
   -2.9446   -0.9155    1.2084 H   0  0  0  0  0  0  0  0  0  0  0  0
   -2.9480    1.1390    1.8696 C   0  0  0  0  0  0  0  0  0  0  0  0
   -1.8549    1.2651    1.7373 H   0  0  0  0  0  0  0  0  0  0  0  0
   -3.1172    0.9013    2.9388 H   0  0  0  0  0  0  0  0  0  0  0  0
   -3.4377    2.1163    1.6702 H   0  0  0  0  0  0  0  0  0  0  0  0
   -4.9876   -0.2504    1.2246 C   0  0  0  0  0  0  0  0  0  0  0  0
   -5.6191    0.6317    0.9816 H   0  0  0  0  0  0  0  0  0  0  0  0
   -5.1692   -0.4959    2.2899 H   0  0  0  0  0  0  0  0  0  0  0  0
   -5.3401   -1.1068    0.6151 H   0  0  0  0  0  0  0  0  0  0  0  0
  1 31  1  0  0  0  0
  2  4  1  0  0  0  0
  2  5  1  0  0  0  0
  3  8  1  0  0  0  0
  4 10  1  6  0  0  0
  4  3  1  0  0  0  0
  5  8  1  0  0  0  0
  5  7  1  0  0  0  0
  6  5  1  0  0  0  0
  8  9  1  6  0  0  0
  8 42  1  0  0  0  0
 10 19  1  0  0  0  0
 11 10  2  0  0  0  0
 12 11  1  0  0  0  0
 13 11  1  0  0  0  0
 13 15  2  0  0  0  0
 14 13  1  0  0  0  0
 15 17  1  0  0  0  0
 16 15  1  0  0  0  0
 17 19  2  0  0  0  0
 17 18  1  0  0  0  0
 19  1  1  0  0  0  0
 20  1  1  0  0  0  0
 20 29  1  0  0  0  0
 21 20  2  0  0  0  0
 22 21  1  0  0  0  0
 23 21  1  0  0  0  0
 23 25  2  0  0  0  0
 24 23  1  0  0  0  0
 25 27  1  0  0  0  0
 26 25  1  0  0  0  0
 27 29  2  0  0  0  0
 27 28  1  0  0  0  0
 29 30  1  0  0  0  0
 31 40  2  0  0  0  0
 31 32  1  0  0  0  0
 32 34  2  0  0  0  0
 33 32  1  0  0  0  0
 34 36  1  0  0  0  0
 34 35  1  0  0  0  0
 36 37  1  0  0  0  0
 38 39  1  0  0  0  0
 38 36  2  0  0  0  0
 40 38  1  0  0  0  0
 41 40  1  0  0  0  0
 42 43  1  0  0  0  0
 42 48  1  0  0  0  0
 42 44  1  0  0  0  0
 44 46  1  0  0  0  0
 45 44  1  0  0  0  0
 47 44  1  0  0  0  0
 48 50  1  0  0  0  0
 49 48  1  0  0  0  0
 51 48  1  0  0  0  0
M  END
