1,4
q = -1.0

 51 55  0  0  1  0  0  0  0  0999 V2000
   -1.5190    0.0522    0.2593 P   0  0  0  0  0  0  0  0  0  0  0  0
    2.3934    3.0058    0.6573 O   0  0  0  0  0  1  0  0  0  0  0  0
    3.2246    2.7026   -1.8757 O   0  0  0  0  0  0  0  0  0  0  0  0
    1.1591   -0.0927   -0.7713 N   0  0  0  0  0  2  0  0  0  0  0  0
    1.0822    1.2004   -0.9788 C   0  0  2  0  0  3  0  0  0  0  0  0
    2.6651    2.1390   -0.5728 P   0  0  2  0  0  0  0  0  0  0  0  0
    3.3856    0.5178   -0.0785 C   0  0  0  0  0  0  0  0  0  0  0  0
    4.6354    0.2137    0.4627 C   0  0  0  0  0  0  0  0  0  0  0  0
    5.3792    1.0168    0.5966 H   0  0  0  0  0  0  0  0  0  0  0  0
    4.9527   -1.1081    0.8506 C   0  0  0  0  0  0  0  0  0  0  0  0
    3.9736   -2.1094    0.6850 C   0  0  0  0  0  0  0  0  0  0  0  0
    4.2051   -3.1435    0.9867 H   0  0  0  0  0  0  0  0  0  0  0  0
    2.7114   -1.8269    0.1400 C   0  0  0  0  0  0  0  0  0  0  0  0
    1.9618   -2.6156   -0.0147 H   0  0  0  0  0  0  0  0  0  0  0  0
    2.4246   -0.5098   -0.2424 C   0  0  0  0  0  0  0  0  0  0  0  0
    6.3157   -1.4339    1.4101 C   0  0  0  0  0  0  0  0  0  0  0  0
    7.0916   -1.4205    0.6138 H   0  0  0  0  0  0  0  0  0  0  0  0
    6.3373   -2.4386    1.8770 H   0  0  0  0  0  0  0  0  0  0  0  0
    6.6302   -0.6924    2.1737 H   0  0  0  0  0  0  0  0  0  0  0  0
   -1.3963    1.5966   -0.7296 C   0  0  0  0  0  0  0  0  0  0  0  0
   -0.1359    1.9344   -1.3041 C   0  0  0  0  0  0  0  0  0  0  0  0
   -0.0211    3.1027   -2.0925 C   0  0  0  0  0  0  0  0  0  0  0  0
    0.9796    3.3594   -2.4777 H   0  0  0  0  0  0  0  0  0  0  0  0
   -1.1463    3.8928   -2.3532 C   0  0  0  0  0  0  0  0  0  0  0  0
   -1.0488    4.7904   -2.9830 H   0  0  0  0  0  0  0  0  0  0  0  0
   -2.3920    3.5480   -1.8033 C   0  0  0  0  0  0  0  0  0  0  0  0
   -3.2777    4.1722   -1.9991 H   0  0  0  0  0  0  0  0  0  0  0  0
   -2.5130    2.4132   -0.9859 C   0  0  0  0  0  0  0  0  0  0  0  0
   -3.4859    2.1590   -0.5406 H   0  0  0  0  0  0  0  0  0  0  0  0
   -3.2968   -0.0548    0.6916 C   0  0  0  0  0  0  0  0  0  0  0  0
   -3.7800    0.4944    1.8966 C   0  0  0  0  0  0  0  0  0  0  0  0
   -3.0747    0.9404    2.6140 H   0  0  0  0  0  0  0  0  0  0  0  0
   -5.1551    0.4740    2.1764 C   0  0  0  0  0  0  0  0  0  0  0  0
   -5.5264    0.9046    3.1194 H   0  0  0  0  0  0  0  0  0  0  0  0
   -6.0519   -0.0914    1.2555 C   0  0  0  0  0  0  0  0  0  0  0  0
   -7.1306   -0.1090    1.4770 H   0  0  0  0  0  0  0  0  0  0  0  0
   -5.5706   -0.6396    0.0554 C   0  0  0  0  0  0  0  0  0  0  0  0
   -6.2695   -1.0937   -0.6639 H   0  0  0  0  0  0  0  0  0  0  0  0
   -4.1972   -0.6286   -0.2305 C   0  0  0  0  0  0  0  0  0  0  0  0
   -3.8043   -1.0968   -1.1450 H   0  0  0  0  0  0  0  0  0  0  0  0
   -0.6482    0.3353    1.8484 C   0  0  0  0  0  0  0  0  0  0  0  0
   -0.6681   -0.7249    2.7838 C   0  0  0  0  0  0  0  0  0  0  0  0
   -1.2681   -1.6255    2.5764 H   0  0  0  0  0  0  0  0  0  0  0  0
    0.0957   -0.6375    3.9539 C   0  0  0  0  0  0  0  0  0  0  0  0
    0.0746   -1.4643    4.6809 H   0  0  0  0  0  0  0  0  0  0  0  0
    0.9187    0.4821    4.1780 C   0  0  0  0  0  0  0  0  0  0  0  0
    1.5486    0.5288    5.0802 H   0  0  0  0  0  0  0  0  0  0  0  0
    0.9587    1.5200    3.2373 C   0  0  0  0  0  0  0  0  0  0  0  0
    1.6380    2.3771    3.3518 H   0  0  0  0  0  0  0  0  0  0  0  0
    0.1601    1.4616    2.0835 C   0  0  0  0  0  0  0  0  0  0  0  0
    0.2449    2.2817    1.3573 H   0  0  0  0  0  0  0  0  0  0  0  0
  1 30  1  0  0  0  0
  1 41  1  0  0  0  0
  4 15  1  0  0  0  0
  5 21  1  1  0  0  0
  5  4  1  0  0  0  0
  5  6  1  0  0  0  0
  6  3  2  6  0  0  0
  6  7  1  0  0  0  0
  6  2  1  0  0  0  0
  7  8  1  0  0  0  0
  8  9  1  0  0  0  0
  8 10  2  0  0  0  0
 10 16  1  0  0  0  0
 11 10  1  0  0  0  0
 11 12  1  0  0  0  0
 13 11  2  0  0  0  0
 14 13  1  0  0  0  0
 15  7  2  0  0  0  0
 15 13  1  0  0  0  0
 16 18  1  0  0  0  0
 16 19  1  0  0  0  0
 17 16  1  0  0  0  0
 20  1  1  0  0  0  0
 21 20  2  0  0  0  0
 22 21  1  0  0  0  0
 23 22  1  0  0  0  0
 24 22  2  0  0  0  0
 24 26  1  0  0  0  0
 25 24  1  0  0  0  0
 26 28  2  0  0  0  0
 27 26  1  0  0  0  0
 28 20  1  0  0  0  0
 28 29  1  0  0  0  0
 30 31  1  0  0  0  0
 31 33  2  0  0  0  0
 31 32  1  0  0  0  0
 33 34  1  0  0  0  0
 35 36  1  0  0  0  0
 35 33  1  0  0  0  0
 37 35  2  0  0  0  0
 38 37  1  0  0  0  0
 39 37  1  0  0  0  0
 39 30  2  0  0  0  0
 40 39  1  0  0  0  0
 41 50  2  0  0  0  0
 41 42  1  0  0  0  0
 42 44  2  0  0  0  0
 43 42  1  0  0  0  0
 44 46  1  0  0  0  0
 44 45  1  0  0  0  0
 46 47  1  0  0  0  0
 48 49  1  0  0  0  0
 48 46  2  0  0  0  0
 50 48  1  0  0  0  0
 51 50  1  0  0  0  0
M  END
