1,3
q = 0.0, confidence = 0.994

 60 63  0  0  1  0  0  0  0  0999 V2000
    1.2810    0.1356    0.0867 P   0  0  0  0  0  0  0  0  0  0  0  0
   -2.6546    2.3827    0.4078 O   0  0  0  0  0  0  0  0  0  0  0  0
   -1.6233    0.5698   -0.4040 N   0  0  0  0  0  2  0  0  0  0  0  0
   -1.5014    1.7779    0.0726 C   0  0  2  0  0  3  0  0  0  0  0  0
   -3.0320    0.1419   -0.1982 C   0  0  2  0  0  0  0  0  0  0  0  0
   -3.3420   -0.4241   -1.0995 H   0  0  0  0  0  0  0  0  0  0  0  0
   -3.7485    1.5180   -0.1314 C   0  0  0  0  0  0  0  0  0  0  0  0
   -3.1359   -0.7237    1.0667 C   0  0  0  0  0  0  0  0  0  0  0  0
   -2.7476   -0.1343    1.9271 H   0  0  0  0  0  0  0  0  0  0  0  0
   -4.2149   -0.9018    1.2695 H   0  0  0  0  0  0  0  0  0  0  0  0
   -2.4252   -2.0897    1.0248 C   0  0  0  0  0  0  0  0  0  0  0  0
   -1.3767   -1.9161    0.6868 H   0  0  0  0  0  0  0  0  0  0  0  0
   -3.0804   -3.0574    0.0343 C   0  0  0  0  0  0  0  0  0  0  0  0
   -4.1479   -3.2285    0.2941 H   0  0  0  0  0  0  0  0  0  0  0  0
   -2.5677   -4.0404    0.0564 H   0  0  0  0  0  0  0  0  0  0  0  0
   -3.0166   -2.6860   -1.0086 H   0  0  0  0  0  0  0  0  0  0  0  0
   -2.3665   -2.6818    2.4374 C   0  0  0  0  0  0  0  0  0  0  0  0
   -1.8323   -2.0106    3.1410 H   0  0  0  0  0  0  0  0  0  0  0  0
   -1.8372   -3.6559    2.4383 H   0  0  0  0  0  0  0  0  0  0  0  0
   -3.3883   -2.8560    2.8395 H   0  0  0  0  0  0  0  0  0  0  0  0
   -4.0738    2.0273   -1.5344 C   0  0  0  0  0  0  0  0  0  0  0  0
   -4.3479    3.1001   -1.5078 H   0  0  0  0  0  0  0  0  0  0  0  0
   -4.9273    1.4538   -1.9468 H   0  0  0  0  0  0  0  0  0  0  0  0
   -3.2161    1.8783   -2.2194 H   0  0  0  0  0  0  0  0  0  0  0  0
   -4.9220    1.6474    0.8229 C   0  0  0  0  0  0  0  0  0  0  0  0
   -4.6351    1.3956    1.8603 H   0  0  0  0  0  0  0  0  0  0  0  0
   -5.7418    0.9726    0.5086 H   0  0  0  0  0  0  0  0  0  0  0  0
   -5.3082    2.6855    0.8086 H   0  0  0  0  0  0  0  0  0  0  0  0
    1.0209    1.9430    0.3823 C   0  0  0  0  0  0  0  0  0  0  0  0
   -0.2683    2.5437    0.3142 C   0  0  0  0  0  0  0  0  0  0  0  0
   -0.4006    3.9316    0.5426 C   0  0  0  0  0  0  0  0  0  0  0  0
   -1.4040    4.3753    0.4913 H   0  0  0  0  0  0  0  0  0  0  0  0
    0.7174    4.7247    0.8236 C   0  0  0  0  0  0  0  0  0  0  0  0
    0.5947    5.8054    0.9887 H   0  0  0  0  0  0  0  0  0  0  0  0
    1.9879    4.1359    0.8884 C   0  0  0  0  0  0  0  0  0  0  0  0
    2.8756    4.7483    1.1065 H   0  0  0  0  0  0  0  0  0  0  0  0
    2.1328    2.7573    0.6696 C   0  0  0  0  0  0  0  0  0  0  0  0
    3.1329    2.3026    0.7150 H   0  0  0  0  0  0  0  0  0  0  0  0
    1.1900   -0.6567    1.7343 C   0  0  0  0  0  0  0  0  0  0  0  0
    1.3130   -2.0642    1.7627 C   0  0  0  0  0  0  0  0  0  0  0  0
    1.4607   -2.6134    0.8174 H   0  0  0  0  0  0  0  0  0  0  0  0
    1.2321   -2.7414    2.9857 C   0  0  0  0  0  0  0  0  0  0  0  0
    1.3307   -3.8371    3.0081 H   0  0  0  0  0  0  0  0  0  0  0  0
    1.0086   -2.0280    4.1768 C   0  0  0  0  0  0  0  0  0  0  0  0
    0.9349   -2.5657    5.1341 H   0  0  0  0  0  0  0  0  0  0  0  0
    0.8682   -0.6322    4.1443 C   0  0  0  0  0  0  0  0  0  0  0  0
    0.6871   -0.0732    5.0749 H   0  0  0  0  0  0  0  0  0  0  0  0
    0.9617    0.0586    2.9245 C   0  0  0  0  0  0  0  0  0  0  0  0
    0.8608    1.1542    2.9001 H   0  0  0  0  0  0  0  0  0  0  0  0
    3.0411    0.0436   -0.4052 C   0  0  0  0  0  0  0  0  0  0  0  0
    4.0538   -0.2680    0.5216 C   0  0  0  0  0  0  0  0  0  0  0  0
    3.7933   -0.5147    1.5617 H   0  0  0  0  0  0  0  0  0  0  0  0
    5.3973   -0.2696    0.1118 C   0  0  0  0  0  0  0  0  0  0  0  0
    6.1874   -0.5195    0.8359 H   0  0  0  0  0  0  0  0  0  0  0  0
    5.7286    0.0417   -1.2154 C   0  0  0  0  0  0  0  0  0  0  0  0
    6.7818    0.0360   -1.5351 H   0  0  0  0  0  0  0  0  0  0  0  0
    4.7157    0.3495   -2.1401 C   0  0  0  0  0  0  0  0  0  0  0  0
    4.9723    0.5787   -3.1852 H   0  0  0  0  0  0  0  0  0  0  0  0
    3.3731    0.3440   -1.7424 C   0  0  0  0  0  0  0  0  0  0  0  0
    2.5738    0.5522   -2.4690 H   0  0  0  0  0  0  0  0  0  0  0  0
  1 29  1  0  0  0  0
  1 39  1  0  0  0  0
  3  5  1  0  0  0  0
  3  4  1  0  0  0  0
  4 30  1  1  0  0  0
  4  2  1  0  0  0  0
  5  6  1  6  0  0  0
  5  7  1  0  0  0  0
  5  8  1  0  0  0  0
  7  2  1  0  0  0  0
  7 25  1  0  0  0  0
  8 10  1  0  0  0  0
  8  9  1  0  0  0  0
 11  8  1  0  0  0  0
 11 17  1  0  0  0  0
 12 11  1  0  0  0  0
 13 15  1  0  0  0  0
 13 14  1  0  0  0  0
 13 11  1  0  0  0  0
 16 13  1  0  0  0  0
 17 19  1  0  0  0  0
 17 20  1  0  0  0  0
 17 18  1  0  0  0  0
 21 22  1  0  0  0  0
 21  7  1  0  0  0  0
 23 21  1  0  0  0  0
 24 21  1  0  0  0  0
 25 26  1  0  0  0  0
 27 25  1  0  0  0  0
 28 25  1  0  0  0  0
 29 37  1  0  0  0  0
 30 29  2  0  0  0  0
 30 31  1  0  0  0  0
 31 33  2  0  0  0  0
 32 31  1  0  0  0  0
 33 35  1  0  0  0  0
 33 34  1  0  0  0  0
 35 36  1  0  0  0  0
 37 38  1  0  0  0  0
 37 35  2  0  0  0  0
 39 40  2  0  0  0  0
 39 48  1  0  0  0  0
 40 42  1  0  0  0  0
 41 40  1  0  0  0  0
 42 43  1  0  0  0  0
 42 44  2  0  0  0  0
 44 45  1  0  0  0  0
 46 44  1  0  0  0  0
 46 47  1  0  0  0  0
 48 46  2  0  0  0  0
 49 48  1  0  0  0  0
 50  1  1  0  0  0  0
 50 51  1  0  0  0  0
 51 52  1  0  0  0  0
 53 51  2  0  0  0  0
 53 54  1  0  0  0  0
 55 53  1  0  0  0  0
 56 55  1  0  0  0  0
 57 59  1  0  0  0  0
 57 55  2  0  0  0  0
 58 57  1  0  0  0  0
 59 50  2  0  0  0  0
 60 59  1  0  0  0  0
M  END
