1,2
q = 0.0, confidence = 0.992

 46 48  0  0  0  0  0  0  0  0999 V2000
    0.9079    0.0094   -0.0794 P   0  0  0  0  0  0  0  0  0  0  0  0
   -1.7801    0.1182    0.9434 N   0  0  0  0  0  2  0  0  0  0  0  0
   -2.8982    0.7683    0.9453 C   0  0  0  0  0  3  0  0  0  0  0  0
   -3.1045    1.4773    1.7820 H   0  0  0  0  0  0  0  0  0  0  0  0
   -3.9507    0.6671   -0.1091 C   0  0  0  0  0  0  0  0  0  0  0  0
   -3.5460    0.0390   -0.9307 H   0  0  0  0  0  0  0  0  0  0  0  0
   -5.1750   -0.0715    0.4647 C   0  0  0  0  0  0  0  0  0  0  0  0
   -4.9069   -1.1187    0.7033 H   0  0  0  0  0  0  0  0  0  0  0  0
   -5.9829   -0.0926   -0.2944 H   0  0  0  0  0  0  0  0  0  0  0  0
   -5.5758    0.4248    1.3745 H   0  0  0  0  0  0  0  0  0  0  0  0
   -4.3044    2.0724   -0.6214 C   0  0  0  0  0  0  0  0  0  0  0  0
   -4.7014    2.7190    0.1907 H   0  0  0  0  0  0  0  0  0  0  0  0
   -5.0840    2.0036   -1.4063 H   0  0  0  0  0  0  0  0  0  0  0  0
   -3.4217    2.5779   -1.0626 H   0  0  0  0  0  0  0  0  0  0  0  0
   -0.8630    0.2853    2.0160 C   0  0  0  0  0  0  0  0  0  0  0  0
   -1.2642    0.4031    3.3610 C   0  0  0  0  0  0  0  0  0  0  0  0
   -2.3320    0.3400    3.6173 H   0  0  0  0  0  0  0  0  0  0  0  0
   -0.3009    0.5480    4.3704 C   0  0  0  0  0  0  0  0  0  0  0  0
   -0.6241    0.6227    5.4197 H   0  0  0  0  0  0  0  0  0  0  0  0
    1.0667    0.5714    4.0533 C   0  0  0  0  0  0  0  0  0  0  0  0
    1.8181    0.6710    4.8505 H   0  0  0  0  0  0  0  0  0  0  0  0
    1.4750    0.4358    2.7164 C   0  0  0  0  0  0  0  0  0  0  0  0
    2.5457    0.4189    2.4603 H   0  0  0  0  0  0  0  0  0  0  0  0
    0.5199    0.2899    1.6975 C   0  0  0  0  0  0  0  0  0  0  0  0
    2.5612   -0.7844   -0.0454 C   0  0  0  0  0  0  0  0  0  0  0  0
    2.6090   -2.1690    0.2216 C   0  0  0  0  0  0  0  0  0  0  0  0
    1.6666   -2.7247    0.3546 H   0  0  0  0  0  0  0  0  0  0  0  0
    3.8447   -2.8249    0.3005 C   0  0  0  0  0  0  0  0  0  0  0  0
    3.8772   -3.9050    0.5085 H   0  0  0  0  0  0  0  0  0  0  0  0
    5.0370   -2.1082    0.1003 C   0  0  0  0  0  0  0  0  0  0  0  0
    6.0063   -2.6267    0.1540 H   0  0  0  0  0  0  0  0  0  0  0  0
    4.9912   -0.7335   -0.1794 C   0  0  0  0  0  0  0  0  0  0  0  0
    5.9235   -0.1722   -0.3448 H   0  0  0  0  0  0  0  0  0  0  0  0
    3.7565   -0.0688   -0.2532 C   0  0  0  0  0  0  0  0  0  0  0  0
    3.7209    1.0082   -0.4770 H   0  0  0  0  0  0  0  0  0  0  0  0
    1.2062    1.6754   -0.7949 C   0  0  0  0  0  0  0  0  0  0  0  0
    1.5044    2.8042   -0.0063 C   0  0  0  0  0  0  0  0  0  0  0  0
    1.5586    2.7107    1.0890 H   0  0  0  0  0  0  0  0  0  0  0  0
    1.7228    4.0492   -0.6176 C   0  0  0  0  0  0  0  0  0  0  0  0
    1.9502    4.9294    0.0030 H   0  0  0  0  0  0  0  0  0  0  0  0
    1.6489    4.1722   -2.0140 C   0  0  0  0  0  0  0  0  0  0  0  0
    1.8191    5.1497   -2.4903 H   0  0  0  0  0  0  0  0  0  0  0  0
    1.3471    3.0490   -2.8026 C   0  0  0  0  0  0  0  0  0  0  0  0
    1.2781    3.1444   -3.8968 H   0  0  0  0  0  0  0  0  0  0  0  0
    1.1182    1.8056   -2.1973 C   0  0  0  0  0  0  0  0  0  0  0  0
    0.8552    0.9268   -2.8068 H   0  0  0  0  0  0  0  0  0  0  0  0
  1 25  1  0  0  0  0
  1 24  1  0  0  0  0
  2  3  1  0  0  0  0
  2 15  1  0  0  0  0
  3  4  1  0  0  0  0
  5  7  1  0  0  0  0
  5  3  1  0  0  0  0
  6  5  1  0  0  0  0
  7  8  1  0  0  0  0
  7 10  1  0  0  0  0
  9  7  1  0  0  0  0
 11  5  1  0  0  0  0
 11 12  1  0  0  0  0
 13 11  1  0  0  0  0
 14 11  1  0  0  0  0
 15 16  1  0  0  0  0
 16 17  1  0  0  0  0
 16 18  2  0  0  0  0
 18 19  1  0  0  0  0
 20 18  1  0  0  0  0
 20 21  1  0  0  0  0
 22 20  2  0  0  0  0
 23 22  1  0  0  0  0
 24 15  2  0  0  0  0
 24 22  1  0  0  0  0
 25 26  1  0  0  0  0
 26 28  2  0  0  0  0
 26 27  1  0  0  0  0
 28 29  1  0  0  0  0
 30 31  1  0  0  0  0
 30 28  1  0  0  0  0
 32 30  2  0  0  0  0
 33 32  1  0  0  0  0
 34 32  1  0  0  0  0
 34 25  2  0  0  0  0
 35 34  1  0  0  0  0
 36  1  1  0  0  0  0
 36 37  1  0  0  0  0
 37 38  1  0  0  0  0
 39 37  2  0  0  0  0
 39 40  1  0  0  0  0
 41 39  1  0  0  0  0
 42 41  1  0  0  0  0
 43 45  1  0  0  0  0
 43 41  2  0  0  0  0
 44 43  1  0  0  0  0
 45 36  2  0  0  0  0
 46 45  1  0  0  0  0
M  END
