1,16
q = 0.0, confidence = 0.996

 38 39  0  0  0  0  0  0  0  0999 V2000
    2.1764    0.1644    1.5454 N   0  0  0  0  0  0  0  0  0  0  0  0
    3.3268    1.0807    1.4590 C   0  0  0  0  0  0  0  0  0  0  0  0
    3.0278    1.9910    0.9063 H   0  0  0  0  0  0  0  0  0  0  0  0
    4.1477    0.5932    0.9044 H   0  0  0  0  0  0  0  0  0  0  0  0
    3.6903    1.3673    2.4747 H   0  0  0  0  0  0  0  0  0  0  0  0
    2.5825   -1.0866    2.2099 C   0  0  0  0  0  0  0  0  0  0  0  0
    1.7328   -1.7923    2.2473 H   0  0  0  0  0  0  0  0  0  0  0  0
    2.9485   -0.8921    3.2473 H   0  0  0  0  0  0  0  0  0  0  0  0
    3.3880   -1.5634    1.6224 H   0  0  0  0  0  0  0  0  0  0  0  0
    1.0835    0.8385    2.2975 C   0  0  0  0  0  0  0  0  0  0  0  0
    1.3797    0.9420    3.3698 H   0  0  0  0  0  0  0  0  0  0  0  0
    0.9917    1.8641    1.8845 H   0  0  0  0  0  0  0  0  0  0  0  0
   -0.2625    0.1308    2.1775 C   0  0  0  0  0  0  0  0  0  0  0  0
   -1.0439    0.6955    2.7253 H   0  0  0  0  0  0  0  0  0  0  0  0
   -0.2201   -0.8925    2.6032 H   0  0  0  0  0  0  0  0  0  0  0  0
   -0.6519   -0.0139    0.3564 P   0  0  0  0  0  0  0  0  0  0  0  0
   -2.0966   -1.1490    0.2771 C   0  0  0  0  0  0  0  0  0  0  0  0
   -2.7447   -1.6802    1.4110 C   0  0  0  0  0  0  0  0  0  0  0  0
   -2.4055   -1.4158    2.4234 H   0  0  0  0  0  0  0  0  0  0  0  0
   -3.8366   -2.5512    1.2624 C   0  0  0  0  0  0  0  0  0  0  0  0
   -4.3334   -2.9594    2.1560 H   0  0  0  0  0  0  0  0  0  0  0  0
   -4.2954   -2.8964   -0.0174 C   0  0  0  0  0  0  0  0  0  0  0  0
   -5.1514   -3.5786   -0.1318 H   0  0  0  0  0  0  0  0  0  0  0  0
   -3.6553   -2.3704   -1.1523 C   0  0  0  0  0  0  0  0  0  0  0  0
   -4.0069   -2.6407   -2.1596 H   0  0  0  0  0  0  0  0  0  0  0  0
   -2.5616   -1.5069   -1.0081 C   0  0  0  0  0  0  0  0  0  0  0  0
   -2.0530   -1.1089   -1.8991 H   0  0  0  0  0  0  0  0  0  0  0  0
   -1.4254    1.6270   -0.0027 C   0  0  0  0  0  0  0  0  0  0  0  0
   -2.7376    1.9540    0.3973 C   0  0  0  0  0  0  0  0  0  0  0  0
   -3.3591    1.2011    0.9078 H   0  0  0  0  0  0  0  0  0  0  0  0
   -3.2564    3.2297    0.1331 C   0  0  0  0  0  0  0  0  0  0  0  0
   -4.2827    3.4787    0.4443 H   0  0  0  0  0  0  0  0  0  0  0  0
   -2.4717    4.1868   -0.5332 C   0  0  0  0  0  0  0  0  0  0  0  0
   -2.8834    5.1861   -0.7426 H   0  0  0  0  0  0  0  0  0  0  0  0
   -1.1679    3.8638   -0.9406 C   0  0  0  0  0  0  0  0  0  0  0  0
   -0.5553    4.6073   -1.4731 H   0  0  0  0  0  0  0  0  0  0  0  0
   -0.6462    2.5863   -0.6811 C   0  0  0  0  0  0  0  0  0  0  0  0
    0.3677    2.3007   -1.0105 H   0  0  0  0  0  0  0  0  0  0  0  0
  1  6  1  0  0  0  0
  1 10  1  0  0  0  0
  2  1  1  0  0  0  0
  2  5  1  0  0  0  0
  3  2  1  0  0  0  0
  4  2  1  0  0  0  0
  6  7  1  0  0  0  0
  6  8  1  0  0  0  0
  9  6  1  0  0  0  0
 10 11  1  0  0  0  0
 12 10  1  0  0  0  0
 13 10  1  0  0  0  0
 13 15  1  0  0  0  0
 13 14  1  0  0  0  0
 16 13  1  0  0  0  0
 17 16  1  0  0  0  0
 17 18  1  0  0  0  0
 18 19  1  0  0  0  0
 20 18  2  0  0  0  0
 20 21  1  0  0  0  0
 22 20  1  0  0  0  0
 23 22  1  0  0  0  0
 24 26  1  0  0  0  0
 24 22  2  0  0  0  0
 25 24  1  0  0  0  0
 26 17  2  0  0  0  0
 27 26  1  0  0  0  0
 28 16  1  0  0  0  0
 28 29  1  0  0  0  0
 29 30  1  0  0  0  0
 31 29  2  0  0  0  0
 31 32  1  0  0  0  0
 33 31  1  0  0  0  0
 34 33  1  0  0  0  0
 35 37  1  0  0  0  0
 35 33  2  0  0  0  0
 36 35  1  0  0  0  0
 37 28  2  0  0  0  0
 38 37  1  0  0  0  0
M  END
