1,7
q = 0.0, confidence = 0.992

 39 41  0  0  0  0  0  0  0  0999 V2000
   -1.8619    2.3969   -1.3219 N   0  0  0  0  0  0  0  0  0  0  0  0
   -1.6085    3.3017   -0.8962 H   0  0  0  0  0  0  0  0  0  0  0  0
   -1.3100    2.2487   -2.1828 H   0  0  0  0  0  0  0  0  0  0  0  0
   -3.3160    2.4254   -1.6310 C   0  0  0  0  0  0  0  0  0  0  0  0
   -3.5696    3.3365   -2.2134 H   0  0  0  0  0  0  0  0  0  0  0  0
   -3.8394    2.4969   -0.6542 H   0  0  0  0  0  0  0  0  0  0  0  0
   -3.1062   -0.2680   -0.1114 P   0  0  0  0  0  0  0  0  0  0  0  0
   -3.7130   -0.0904   -1.8439 C   0  0  0  0  0  0  0  0  0  0  0  0
   -4.0980   -1.2023   -2.6133 C   0  0  0  0  0  0  0  0  0  0  0  0
   -4.0585   -2.2075   -2.1686 H   0  0  0  0  0  0  0  0  0  0  0  0
   -4.5298   -1.0384   -3.9389 C   0  0  0  0  0  0  0  0  0  0  0  0
   -4.8287   -1.9180   -4.5288 H   0  0  0  0  0  0  0  0  0  0  0  0
   -4.5786    0.2425   -4.5050 C   0  0  0  0  0  0  0  0  0  0  0  0
   -4.9152    0.3794   -5.5436 H   0  0  0  0  0  0  0  0  0  0  0  0
   -4.1879    1.3542   -3.7425 C   0  0  0  0  0  0  0  0  0  0  0  0
   -4.2201    2.3619   -4.1872 H   0  0  0  0  0  0  0  0  0  0  0  0
   -3.7517    1.2084   -2.4139 C   0  0  0  0  0  0  0  0  0  0  0  0
   -2.9841   -2.0897    0.1473 C   0  0  0  0  0  0  0  0  0  0  0  0
   -1.8309   -2.7530   -0.3254 C   0  0  0  0  0  0  0  0  0  0  0  0
   -1.0390   -2.1709   -0.8255 H   0  0  0  0  0  0  0  0  0  0  0  0
   -1.7091   -4.1403   -0.1617 C   0  0  0  0  0  0  0  0  0  0  0  0
   -0.8132   -4.6551   -0.5425 H   0  0  0  0  0  0  0  0  0  0  0  0
   -2.7197   -4.8715    0.4847 C   0  0  0  0  0  0  0  0  0  0  0  0
   -2.6154   -5.9592    0.6183 H   0  0  0  0  0  0  0  0  0  0  0  0
   -3.8618   -4.2110    0.9630 C   0  0  0  0  0  0  0  0  0  0  0  0
   -4.6547   -4.7775    1.4749 H   0  0  0  0  0  0  0  0  0  0  0  0
   -3.9986   -2.8241    0.7928 C   0  0  0  0  0  0  0  0  0  0  0  0
   -4.8952   -2.3095    1.1685 H   0  0  0  0  0  0  0  0  0  0  0  0
   -4.5866    0.1964    0.8902 C   0  0  0  0  0  0  0  0  0  0  0  0
   -5.8815    0.2834    0.3405 C   0  0  0  0  0  0  0  0  0  0  0  0
   -6.0388    0.0770   -0.7292 H   0  0  0  0  0  0  0  0  0  0  0  0
   -6.9710    0.6278    1.1562 C   0  0  0  0  0  0  0  0  0  0  0  0
   -7.9798    0.6951    0.7206 H   0  0  0  0  0  0  0  0  0  0  0  0
   -6.7746    0.8814    2.5230 C   0  0  0  0  0  0  0  0  0  0  0  0
   -7.6297    1.1518    3.1614 H   0  0  0  0  0  0  0  0  0  0  0  0
   -5.4849    0.7973    3.0731 C   0  0  0  0  0  0  0  0  0  0  0  0
   -5.3250    1.0065    4.1416 H   0  0  0  0  0  0  0  0  0  0  0  0
   -4.3914    0.4657    2.2611 C   0  0  0  0  0  0  0  0  0  0  0  0
   -3.3762    0.4310    2.6828 H   0  0  0  0  0  0  0  0  0  0  0  0
  1  2  1  0  0  0  0
  3  1  1  0  0  0  0
  4  1  1  0  0  0  0
  4  6  1  0  0  0  0
  5  4  1  0  0  0  0
  7 18  1  0  0  0  0
  7 29  1  0  0  0  0
  8  7  1  0  0  0  0
  9 10  1  0  0  0  0
  9  8  2  0  0  0  0
 11  9  1  0  0  0  0
 12 11  1  0  0  0  0
 13 11  2  0  0  0  0
 13 15  1  0  0  0  0
 14 13  1  0  0  0  0
 15 17  2  0  0  0  0
 16 15  1  0  0  0  0
 17  8  1  0  0  0  0
 17  4  1  0  0  0  0
 18 27  1  0  0  0  0
 19 21  1  0  0  0  0
 19 18  2  0  0  0  0
 20 19  1  0  0  0  0
 21 23  2  0  0  0  0
 22 21  1  0  0  0  0
 23 24  1  0  0  0  0
 23 25  1  0  0  0  0
 25 26  1  0  0  0  0
 27 25  2  0  0  0  0
 27 28  1  0  0  0  0
 29 38  1  0  0  0  0
 30 29  2  0  0  0  0
 30 32  1  0  0  0  0
 31 30  1  0  0  0  0
 32 34  2  0  0  0  0
 33 32  1  0  0  0  0
 34 36  1  0  0  0  0
 34 35  1  0  0  0  0
 36 37  1  0  0  0  0
 38 39  1  0  0  0  0
 38 36  2  0  0  0  0
M  END
