1,2
q = 0.0, confidence = 0.998

 38 39  0  0  0  0  0  0  0  0999 V2000
    0.7848    0.3021    0.0005 P   0  0  1  0  0  0  0  0  0  0  0  0
   -2.2055    0.8882   -0.0001 N   0  0  0  0  0  0  0  0  0  0  0  0
   -1.3415    2.0326    0.0005 N   0  0  0  0  0  0  0  0  0  0  0  0
   -3.0435    0.8838   -1.2280 C   0  0  0  0  0  0  0  0  0  0  0  0
   -3.7389    1.7503   -1.2356 H   0  0  0  0  0  0  0  0  0  0  0  0
   -3.6010   -0.0733   -1.2238 H   0  0  0  0  0  0  0  0  0  0  0  0
   -2.3772    0.9205   -2.1084 H   0  0  0  0  0  0  0  0  0  0  0  0
   -3.0448    0.8836    1.2270 C   0  0  0  0  0  0  0  0  0  0  0  0
   -2.3795    0.9204    2.1081 H   0  0  0  0  0  0  0  0  0  0  0  0
   -3.6021   -0.0737    1.2221 H   0  0  0  0  0  0  0  0  0  0  0  0
   -3.7405    1.7499    1.2338 H   0  0  0  0  0  0  0  0  0  0  0  0
    2.0138    0.1792   -1.3309 C   0  0  0  0  0  0  0  0  0  0  0  0
    3.2337   -0.0375   -0.7511 C   0  0  0  0  0  0  0  0  0  0  0  0
    3.2343   -0.0380    0.7499 C   0  0  0  0  0  0  0  0  0  0  0  0
    2.0148    0.1786    1.3307 C   0  0  0  0  0  0  0  0  0  0  0  0
    0.0445    1.9488    0.0008 C   0  0  0  0  0  0  0  0  0  0  0  0
    0.5304    3.2592    0.0011 C   0  0  0  0  0  0  0  0  0  0  0  0
    1.5912    3.5331    0.0014 H   0  0  0  0  0  0  0  0  0  0  0  0
   -0.5905    4.1349    0.0009 C   0  0  0  0  0  0  0  0  0  0  0  0
   -0.5718    5.2306    0.0011 H   0  0  0  0  0  0  0  0  0  0  0  0
   -1.7423    3.3493    0.0006 C   0  0  0  0  0  0  0  0  0  0  0  0
   -2.7995    3.6325    0.0004 H   0  0  0  0  0  0  0  0  0  0  0  0
    1.6076    0.1967   -2.7669 C   0  0  0  0  0  0  0  0  0  0  0  0
    2.4804    0.2062   -3.4479 H   0  0  0  0  0  0  0  0  0  0  0  0
    0.9838    1.0866   -2.9977 H   0  0  0  0  0  0  0  0  0  0  0  0
    0.9940   -0.6989   -3.0049 H   0  0  0  0  0  0  0  0  0  0  0  0
    4.5066   -0.2961   -1.5006 C   0  0  0  0  0  0  0  0  0  0  0  0
    4.3646   -0.2344   -2.5950 H   0  0  0  0  0  0  0  0  0  0  0  0
    4.9014   -1.3079   -1.2682 H   0  0  0  0  0  0  0  0  0  0  0  0
    5.3005    0.4255   -1.2153 H   0  0  0  0  0  0  0  0  0  0  0  0
    4.5077   -0.2969    1.4984 C   0  0  0  0  0  0  0  0  0  0  0  0
    4.3660   -0.2384    2.5930 H   0  0  0  0  0  0  0  0  0  0  0  0
    5.3004    0.4267    1.2148 H   0  0  0  0  0  0  0  0  0  0  0  0
    4.9039   -1.3074    1.2630 H   0  0  0  0  0  0  0  0  0  0  0  0
    1.6097    0.1948    2.7671 C   0  0  0  0  0  0  0  0  0  0  0  0
    2.4829    0.2027    3.4475 H   0  0  0  0  0  0  0  0  0  0  0  0
    0.9955   -0.7006    3.0044 H   0  0  0  0  0  0  0  0  0  0  0  0
    0.9868    1.0849    2.9995 H   0  0  0  0  0  0  0  0  0  0  0  0
  1 16  1  1  0  0  0
  1 15  1  0  0  0  0
  2  3  1  0  0  0  0
  2  8  1  0  0  0  0
  3 21  1  0  0  0  0
  3 16  1  0  0  0  0
  4  6  1  0  0  0  0
  4  2  1  0  0  0  0
  5  4  1  0  0  0  0
  7  4  1  0  0  0  0
  8 11  1  0  0  0  0
  8  9  1  0  0  0  0
 10  8  1  0  0  0  0
 12 13  2  0  0  0  0
 12  1  1  0  0  0  0
 13 14  1  0  0  0  0
 14 15  2  0  0  0  0
 14 31  1  0  0  0  0
 15 35  1  0  0  0  0
 16 17  2  0  0  0  0
 17 18  1  0  0  0  0
 19 20  1  0  0  0  0
 19 17  1  0  0  0  0
 21 19  2  0  0  0  0
 22 21  1  0  0  0  0
 23 12  1  0  0  0  0
 24 23  1  0  0  0  0
 25 23  1  0  0  0  0
 26 23  1  0  0  0  0
 27 29  1  0  0  0  0
 27 30  1  0  0  0  0
 27 13  1  0  0  0  0
 28 27  1  0  0  0  0
 31 32  1  0  0  0  0
 33 31  1  0  0  0  0
 34 31  1  0  0  0  0
 35 38  1  0  0  0  0
 35 37  1  0  0  0  0
 35 36  1  0  0  0  0
M  END
