1,2
q = 0.0, confidence = 1.0

 61 64  0  0  1  0  0  0  0  0999 V2000
    1.7524    0.0242    0.2635 P   0  0  0  0  0  0  0  0  0  0  0  0
   -0.8847    0.0891    1.4259 N   0  0  0  0  0  2  0  0  0  0  0  0
    0.0313    0.3966    2.3829 C   0  0  2  0  0  3  0  0  0  0  0  0
   -0.3229    1.0820    3.5546 C   0  0  0  0  0  0  0  0  0  0  0  0
    0.4455    1.3115    4.3069 H   0  0  0  0  0  0  0  0  0  0  0  0
   -1.6578    1.4659    3.7384 C   0  0  0  0  0  0  0  0  0  0  0  0
   -1.9652    2.0039    4.6479 H   0  0  0  0  0  0  0  0  0  0  0  0
   -2.5826    1.1837    2.7305 C   0  0  0  0  0  0  0  0  0  0  0  0
   -3.6297    1.5091    2.8061 H   0  0  0  0  0  0  0  0  0  0  0  0
   -2.1706    0.5009    1.5656 C   0  0  0  0  0  0  0  0  0  0  0  0
    1.4590   -0.0059    2.1094 C   0  0  0  0  0  0  0  0  0  0  0  0
    1.6163   -1.0674    2.3922 H   0  0  0  0  0  0  0  0  0  0  0  0
    2.1854    0.6000    2.6866 H   0  0  0  0  0  0  0  0  0  0  0  0
   -3.1375    0.3202    0.4469 C   0  0  0  0  0  0  0  0  0  0  0  0
   -2.9743    1.0951   -0.7289 C   0  0  0  0  0  0  0  0  0  0  0  0
   -3.9285    0.9717   -1.7535 C   0  0  0  0  0  0  0  0  0  0  0  0
   -3.8047    1.5769   -2.6664 H   0  0  0  0  0  0  0  0  0  0  0  0
   -5.0309    0.1072   -1.6444 C   0  0  0  0  0  0  0  0  0  0  0  0
   -5.1695   -0.6420   -0.4629 C   0  0  0  0  0  0  0  0  0  0  0  0
   -6.0176   -1.3387   -0.3627 H   0  0  0  0  0  0  0  0  0  0  0  0
   -4.2430   -0.5568    0.5880 C   0  0  0  0  0  0  0  0  0  0  0  0
   -6.0161   -0.0457   -2.7754 C   0  0  0  0  0  0  0  0  0  0  0  0
   -6.0061    0.8323   -3.4508 H   0  0  0  0  0  0  0  0  0  0  0  0
   -7.0504   -0.1850   -2.4016 H   0  0  0  0  0  0  0  0  0  0  0  0
   -5.7713   -0.9383   -3.3905 H   0  0  0  0  0  0  0  0  0  0  0  0
   -4.3633   -1.4763    1.7751 C   0  0  0  0  0  0  0  0  0  0  0  0
   -4.2047   -0.9626    2.7437 H   0  0  0  0  0  0  0  0  0  0  0  0
   -3.5837   -2.2635    1.6823 H   0  0  0  0  0  0  0  0  0  0  0  0
   -5.3534   -1.9704    1.8025 H   0  0  0  0  0  0  0  0  0  0  0  0
   -1.8009    2.0266   -0.8995 C   0  0  0  0  0  0  0  0  0  0  0  0
   -1.9292    2.6782   -1.7847 H   0  0  0  0  0  0  0  0  0  0  0  0
   -0.8626    1.4488   -1.0352 H   0  0  0  0  0  0  0  0  0  0  0  0
   -1.6383    2.6743   -0.0137 H   0  0  0  0  0  0  0  0  0  0  0  0
    3.4703   -0.5992    0.0508 C   0  0  0  0  0  0  0  0  0  0  0  0
    4.4667    0.2811   -0.4264 C   0  0  0  0  0  0  0  0  0  0  0  0
    4.2116    1.3350   -0.6126 H   0  0  0  0  0  0  0  0  0  0  0  0
    5.7722   -0.1654   -0.6647 C   0  0  0  0  0  0  0  0  0  0  0  0
    6.5328    0.5375   -1.0364 H   0  0  0  0  0  0  0  0  0  0  0  0
    6.0953   -1.5096   -0.4294 C   0  0  0  0  0  0  0  0  0  0  0  0
    7.1145   -1.8785   -0.6201 H   0  0  0  0  0  0  0  0  0  0  0  0
    5.1138   -2.3859    0.0500 C   0  0  0  0  0  0  0  0  0  0  0  0
    5.3704   -3.4409    0.2356 H   0  0  0  0  0  0  0  0  0  0  0  0
    3.7922   -1.9639    0.3070 C   0  0  0  0  0  0  0  0  0  0  0  0
    2.8066   -2.9547    0.8701 C   0  0  0  0  0  0  0  0  0  0  0  0
    1.7642   -2.7467    0.5441 H   0  0  0  0  0  0  0  0  0  0  0  0
    2.8167   -2.9354    1.9817 H   0  0  0  0  0  0  0  0  0  0  0  0
    3.0644   -3.9872    0.5657 H   0  0  0  0  0  0  0  0  0  0  0  0
    1.8122    1.8084   -0.1818 C   0  0  0  0  0  0  0  0  0  0  0  0
    1.7756    2.8051    0.8152 C   0  0  0  0  0  0  0  0  0  0  0  0
    1.7887    2.5260    1.8776 H   0  0  0  0  0  0  0  0  0  0  0  0
    1.7161    4.1643    0.4773 C   0  0  0  0  0  0  0  0  0  0  0  0
    1.6851    4.9255    1.2712 H   0  0  0  0  0  0  0  0  0  0  0  0
    1.6995    4.5406   -0.8725 C   0  0  0  0  0  0  0  0  0  0  0  0
    1.6530    5.6038   -1.1527 H   0  0  0  0  0  0  0  0  0  0  0  0
    1.7393    3.5555   -1.8695 C   0  0  0  0  0  0  0  0  0  0  0  0
    1.7228    3.8522   -2.9300 H   0  0  0  0  0  0  0  0  0  0  0  0
    1.7866    2.1830   -1.5569 C   0  0  0  0  0  0  0  0  0  0  0  0
    1.7761    1.1592   -2.6591 C   0  0  0  0  0  0  0  0  0  0  0  0
    2.6209    0.4452   -2.5770 H   0  0  0  0  0  0  0  0  0  0  0  0
    1.8285    1.6414   -3.6534 H   0  0  0  0  0  0  0  0  0  0  0  0
    0.8518    0.5449   -2.6122 H   0  0  0  0  0  0  0  0  0  0  0  0
  1 11  1  0  0  0  0
  2 10  1  0  0  0  0
  2  3  1  0  0  0  0
  3 11  1  6  0  0  0
  3  4  1  0  0  0  0
  4  6  2  0  0  0  0
  4  5  1  0  0  0  0
  6  7  1  0  0  0  0
  8  9  1  0  0  0  0
  8  6  1  0  0  0  0
 10  8  2  0  0  0  0
 11 12  1  0  0  0  0
 11 13  1  0  0  0  0
 14 21  1  0  0  0  0
 14 10  1  0  0  0  0
 15 14  2  0  0  0  0
 16 18  2  0  0  0  0
 16 15  1  0  0  0  0
 17 16  1  0  0  0  0
 18 19  1  0  0  0  0
 19 20  1  0  0  0  0
 19 21  2  0  0  0  0
 21 26  1  0  0  0  0
 22 24  1  0  0  0  0
 22 18  1  0  0  0  0
 23 22  1  0  0  0  0
 25 22  1  0  0  0  0
 26 29  1  0  0  0  0
 26 27  1  0  0  0  0
 28 26  1  0  0  0  0
 30 15  1  0  0  0  0
 30 33  1  0  0  0  0
 31 30  1  0  0  0  0
 32 30  1  0  0  0  0
 34  1  1  0  0  0  0
 34 43  1  0  0  0  0
 35 34  2  0  0  0  0
 36 35  1  0  0  0  0
 37 39  2  0  0  0  0
 37 35  1  0  0  0  0
 38 37  1  0  0  0  0
 39 41  1  0  0  0  0
 40 39  1  0  0  0  0
 41 42  1  0  0  0  0
 41 43  2  0  0  0  0
 43 44  1  0  0  0  0
 44 46  1  0  0  0  0
 45 44  1  0  0  0  0
 47 44  1  0  0  0  0
 48  1  1  0  0  0  0
 48 49  1  0  0  0  0
 49 50  1  0  0  0  0
 51 49  2  0  0  0  0
 51 52  1  0  0  0  0
 53 51  1  0  0  0  0
 54 53  1  0  0  0  0
 55 57  1  0  0  0  0
 55 53  2  0  0  0  0
 56 55  1  0  0  0  0
 57 48  2  0  0  0  0
 58 61  1  0  0  0  0
 58 59  1  0  0  0  0
 58 57  1  0  0  0  0
 60 58  1  0  0  0  0
M  END
