1,9
q = -1.0

 46 48  0  0  0  0  0  0  0  0999 V2000
   -1.2842    0.3416    0.1040 P   0  0  0  0  0  0  0  0  0  0  0  0
   -1.0486   -3.9482    0.5131 O   0  0  0  0  0  0  0  0  0  0  0  0
   -1.5218   -2.6449    2.9428 C   0  0  0  0  0  0  0  0  0  0  0  0
   -1.2358   -3.7064    2.9784 H   0  0  0  0  0  0  0  0  0  0  0  0
   -1.2466   -1.9457    1.7526 C   0  0  0  0  0  0  0  0  0  0  0  0
   -3.0433    2.5902    0.0143 C   0  0  0  0  0  0  0  0  0  0  0  0
   -3.6871    1.9925   -0.6476 H   0  0  0  0  0  0  0  0  0  0  0  0
   -1.8345    2.0508    0.4956 C   0  0  0  0  0  0  0  0  0  0  0  0
    0.0934   -2.1130   -0.3056 N   0  0  0  0  0  2  0  0  0  0  0  0
   -3.3051   -1.3230   -1.0083 C   0  0  0  0  0  0  0  0  0  0  0  0
   -3.3489   -1.8308   -0.0340 H   0  0  0  0  0  0  0  0  0  0  0  0
   -3.4285    3.8896    0.3831 C   0  0  0  0  0  0  0  0  0  0  0  0
   -4.3730    4.3061    0.0012 H   0  0  0  0  0  0  0  0  0  0  0  0
   -2.4288   -0.2392   -1.2036 C   0  0  0  0  0  0  0  0  0  0  0  0
   -1.0198    2.8219    1.3526 C   0  0  0  0  0  0  0  0  0  0  0  0
   -0.0673    2.4029    1.7125 H   0  0  0  0  0  0  0  0  0  0  0  0
   -2.3576    0.0158    2.7100 C   0  0  0  0  0  0  0  0  0  0  0  0
   -2.7115    1.0520    2.6136 H   0  0  0  0  0  0  0  0  0  0  0  0
   -4.1078   -1.7713   -2.0693 C   0  0  0  0  0  0  0  0  0  0  0  0
   -4.7819   -2.6269   -1.9133 H   0  0  0  0  0  0  0  0  0  0  0  0
   -1.4138    4.1131    1.7257 C   0  0  0  0  0  0  0  0  0  0  0  0
   -0.7714    4.7079    2.3924 H   0  0  0  0  0  0  0  0  0  0  0  0
   -2.1626   -2.0203    4.0196 C   0  0  0  0  0  0  0  0  0  0  0  0
   -2.3474   -2.5786    4.9502 H   0  0  0  0  0  0  0  0  0  0  0  0
   -0.6890   -2.7536    0.5929 C   0  0  0  0  0  0  0  0  0  0  0  0
    0.3129   -2.8648   -1.5591 C   0  0  0  0  0  0  0  0  0  0  0  0
   -0.6399   -3.4037   -1.7660 H   0  0  0  0  0  0  0  0  0  0  0  0
   -2.6172    4.6511    1.2382 C   0  0  0  0  0  0  0  0  0  0  0  0
   -2.9218    5.6692    1.5248 H   0  0  0  0  0  0  0  0  0  0  0  0
   -4.0473   -1.1396   -3.3208 C   0  0  0  0  0  0  0  0  0  0  0  0
   -4.6781   -1.4957   -4.1493 H   0  0  0  0  0  0  0  0  0  0  0  0
   -2.5897   -0.6880    3.8999 C   0  0  0  0  0  0  0  0  0  0  0  0
   -3.1157   -0.1939    4.7309 H   0  0  0  0  0  0  0  0  0  0  0  0
   -3.1728   -0.0573   -3.5180 C   0  0  0  0  0  0  0  0  0  0  0  0
   -3.1150    0.4362   -4.5000 H   0  0  0  0  0  0  0  0  0  0  0  0
   -1.6726   -0.5975    1.6398 C   0  0  0  0  0  0  0  0  0  0  0  0
    0.6097   -1.9276   -2.7320 C   0  0  0  0  0  0  0  0  0  0  0  0
   -0.2033   -1.1901   -2.8772 H   0  0  0  0  0  0  0  0  0  0  0  0
    0.7109   -2.5125   -3.6693 H   0  0  0  0  0  0  0  0  0  0  0  0
    1.5602   -1.3722   -2.5796 H   0  0  0  0  0  0  0  0  0  0  0  0
    1.3952   -3.9469   -1.4220 C   0  0  0  0  0  0  0  0  0  0  0  0
    1.1769   -4.5880   -0.5465 H   0  0  0  0  0  0  0  0  0  0  0  0
    2.4058   -3.5012   -1.3170 H   0  0  0  0  0  0  0  0  0  0  0  0
    1.4101   -4.5931   -2.3243 H   0  0  0  0  0  0  0  0  0  0  0  0
   -2.3584    0.3861   -2.4674 C   0  0  0  0  0  0  0  0  0  0  0  0
   -1.6546    1.2183   -2.6291 H   0  0  0  0  0  0  0  0  0  0  0  0
  1  8  1  0  0  0  0
  1 36  1  0  0  0  0
  2 25  2  0  0  0  0
  3  4  1  0  0  0  0
  3 23  1  0  0  0  0
  5  3  2  0  0  0  0
  6 12  2  0  0  0  0
  6  8  1  0  0  0  0
  7  6  1  0  0  0  0
  8 15  2  0  0  0  0
  9 25  1  0  0  0  0
 10 11  1  0  0  0  0
 12 28  1  0  0  0  0
 13 12  1  0  0  0  0
 14 10  1  0  0  0  0
 14  1  1  0  0  0  0
 15 16  1  0  0  0  0
 15 21  1  0  0  0  0
 17 32  1  0  0  0  0
 18 17  1  0  0  0  0
 19 20  1  0  0  0  0
 19 10  2  0  0  0  0
 21 22  1  0  0  0  0
 23 24  1  0  0  0  0
 25  5  1  0  0  0  0
 26 41  1  0  0  0  0
 26  9  1  0  0  0  0
 27 26  1  0  0  0  0
 28 29  1  0  0  0  0
 28 21  2  0  0  0  0
 30 19  1  0  0  0  0
 31 30  1  0  0  0  0
 32 23  2  0  0  0  0
 32 33  1  0  0  0  0
 34 30  2  0  0  0  0
 34 45  1  0  0  0  0
 35 34  1  0  0  0  0
 36  5  1  0  0  0  0
 36 17  2  0  0  0  0
 37 40  1  0  0  0  0
 37 26  1  0  0  0  0
 38 37  1  0  0  0  0
 39 37  1  0  0  0  0
 41 43  1  0  0  0  0
 41 42  1  0  0  0  0
 44 41  1  0  0  0  0
 45 14  2  0  0  0  0
 46 45  1  0  0  0  0
M  END
