1,2
q = -1.0

 45 47  0  0  0  0  0  0  0  0999 V2000
   -1.4886    0.5292    0.1327 P   0  0  0  0  0  0  0  0  0  0  0  0
    0.8974   -0.1675    1.5904 N   0  0  0  0  0  2  0  0  0  0  0  0
    2.2021   -0.3981    2.0245 C   0  0  0  0  0  0  0  0  0  0  0  0
    2.6389   -1.3543    1.6691 H   0  0  0  0  0  0  0  0  0  0  0  0
    3.0385    0.4046    2.7485 C   0  0  0  0  0  0  0  0  0  0  0  0
    4.4221   -0.0812    3.0927 C   0  0  0  0  0  0  0  0  0  0  0  0
    4.5614   -0.1867    4.1925 H   0  0  0  0  0  0  0  0  0  0  0  0
    5.1995    0.6411    2.7555 H   0  0  0  0  0  0  0  0  0  0  0  0
    4.6415   -1.0648    2.6303 H   0  0  0  0  0  0  0  0  0  0  0  0
    2.6760    1.7723    3.2525 C   0  0  0  0  0  0  0  0  0  0  0  0
    1.6978    2.1181    2.8752 H   0  0  0  0  0  0  0  0  0  0  0  0
    3.4499    2.5155    2.9597 H   0  0  0  0  0  0  0  0  0  0  0  0
    2.6213    1.7947    4.3646 H   0  0  0  0  0  0  0  0  0  0  0  0
   -0.1079    0.1881    2.4608 C   0  0  0  0  0  0  0  0  0  0  0  0
    0.0150    0.1385    3.8872 C   0  0  0  0  0  0  0  0  0  0  0  0
    0.9675   -0.1937    4.3221 H   0  0  0  0  0  0  0  0  0  0  0  0
   -1.0524    0.4727    4.7170 C   0  0  0  0  0  0  0  0  0  0  0  0
   -0.9164    0.4080    5.8085 H   0  0  0  0  0  0  0  0  0  0  0  0
   -2.3022    0.8732    4.1925 C   0  0  0  0  0  0  0  0  0  0  0  0
   -3.1381    1.1287    4.8594 H   0  0  0  0  0  0  0  0  0  0  0  0
   -2.4570    0.9137    2.8033 C   0  0  0  0  0  0  0  0  0  0  0  0
   -3.4332    1.1804    2.3672 H   0  0  0  0  0  0  0  0  0  0  0  0
   -1.3904    0.5846    1.9410 C   0  0  0  0  0  0  0  0  0  0  0  0
   -1.8210    2.2332   -0.5045 C   0  0  0  0  0  0  0  0  0  0  0  0
   -1.5315    2.4999   -1.8606 C   0  0  0  0  0  0  0  0  0  0  0  0
   -1.1414    1.6890   -2.5003 H   0  0  0  0  0  0  0  0  0  0  0  0
   -1.6910    3.7967   -2.3704 C   0  0  0  0  0  0  0  0  0  0  0  0
   -1.4550    3.9968   -3.4270 H   0  0  0  0  0  0  0  0  0  0  0  0
   -2.1277    4.8380   -1.5355 C   0  0  0  0  0  0  0  0  0  0  0  0
   -2.2422    5.8572   -1.9359 H   0  0  0  0  0  0  0  0  0  0  0  0
   -2.4072    4.5773   -0.1846 C   0  0  0  0  0  0  0  0  0  0  0  0
   -2.7408    5.3911    0.4777 H   0  0  0  0  0  0  0  0  0  0  0  0
   -2.2536    3.2811    0.3316 C   0  0  0  0  0  0  0  0  0  0  0  0
   -2.4469    3.0892    1.3971 H   0  0  0  0  0  0  0  0  0  0  0  0
   -3.0254   -0.4062   -0.2730 C   0  0  0  0  0  0  0  0  0  0  0  0
   -3.5398   -1.3529    0.6370 C   0  0  0  0  0  0  0  0  0  0  0  0
   -3.0808   -1.4561    1.6314 H   0  0  0  0  0  0  0  0  0  0  0  0
   -4.6220   -2.1686    0.2740 C   0  0  0  0  0  0  0  0  0  0  0  0
   -5.0151   -2.9023    0.9944 H   0  0  0  0  0  0  0  0  0  0  0  0
   -5.1954   -2.0553   -1.0021 C   0  0  0  0  0  0  0  0  0  0  0  0
   -6.0437   -2.6966   -1.2870 H   0  0  0  0  0  0  0  0  0  0  0  0
   -4.6820   -1.1187   -1.9148 C   0  0  0  0  0  0  0  0  0  0  0  0
   -5.1244   -1.0259   -2.9185 H   0  0  0  0  0  0  0  0  0  0  0  0
   -3.6038   -0.2973   -1.5552 C   0  0  0  0  0  0  0  0  0  0  0  0
   -3.2008    0.4230   -2.2810 H   0  0  0  0  0  0  0  0  0  0  0  0
  1 23  1  0  0  0  0
  2  3  1  0  0  0  0
  2 14  1  0  0  0  0
  3  5  2  0  0  0  0
  4  3  1  0  0  0  0
  5  6  1  0  0  0  0
  5 10  1  0  0  0  0
  6  7  1  0  0  0  0
  8  6  1  0  0  0  0
  9  6  1  0  0  0  0
 10 13  1  0  0  0  0
 11 10  1  0  0  0  0
 12 10  1  0  0  0  0
 14 15  1  0  0  0  0
 15 16  1  0  0  0  0
 15 17  2  0  0  0  0
 17 18  1  0  0  0  0
 19 17  1  0  0  0  0
 19 20  1  0  0  0  0
 21 19  2  0  0  0  0
 22 21  1  0  0  0  0
 23 14  2  0  0  0  0
 23 21  1  0  0  0  0
 24  1  1  0  0  0  0
 24 33  1  0  0  0  0
 25 24  2  0  0  0  0
 26 25  1  0  0  0  0
 27 25  1  0  0  0  0
 27 29  2  0  0  0  0
 28 27  1  0  0  0  0
 29 31  1  0  0  0  0
 30 29  1  0  0  0  0
 31 33  2  0  0  0  0
 31 32  1  0  0  0  0
 33 34  1  0  0  0  0
 35  1  1  0  0  0  0
 35 36  1  0  0  0  0
 36 37  1  0  0  0  0
 38 36  2  0  0  0  0
 38 39  1  0  0  0  0
 40 38  1  0  0  0  0
 41 40  1  0  0  0  0
 42 44  1  0  0  0  0
 42 40  2  0  0  0  0
 43 42  1  0  0  0  0
 44 35  2  0  0  0  0
 45 44  1  0  0  0  0
M  END
