1,2
q = -1

 29 32  0  0  1  0  0  0  0  0999 V2000
   -0.8176   -0.0002    0.2510 P   0  0  2  0  0  4  0  0  0  0  0  0
    0.5893    0.0015    1.4747 N   0  0  2  0  0  0  0  0  0  0  0  0
    0.6595   -1.2409    2.2320 C   0  0  0  0  0  0  0  0  0  0  0  0
   -0.1589   -2.2894    1.4642 C   0  0  0  0  0  0  0  0  0  0  0  0
   -1.2582   -1.5737    0.8457 N   0  0  2  0  0  0  0  0  0  0  0  0
   -2.0531   -2.2942   -0.1353 C   0  0  0  0  0  0  0  0  0  0  0  0
   -2.9633   -1.2410   -0.7856 C   0  0  0  0  0  0  0  0  0  0  0  0
   -2.2124   -0.0018   -0.8148 N   0  0  1  0  0  0  0  0  0  0  0  0
   -2.9649    1.2365   -0.7872 C   0  0  0  0  0  0  0  0  0  0  0  0
   -2.0559    2.2915   -0.1383 C   0  0  0  0  0  0  0  0  0  0  0  0
   -1.2608    1.5732    0.8442 N   0  0  2  0  0  0  0  0  0  0  0  0
   -0.1633    2.2913    1.4631 C   0  0  0  0  0  0  0  0  0  0  0  0
    0.6576    1.2446    2.2309 C   0  0  0  0  0  0  0  0  0  0  0  0
    1.7034   -1.5847    2.3930 H   0  0  0  0  0  0  0  0  0  0  0  0
    0.1962   -1.0657    3.2313 H   0  0  0  0  0  0  0  0  0  0  0  0
   -0.5362   -3.0706    2.1582 H   0  0  0  0  0  0  0  0  0  0  0  0
    0.4741   -2.7986    0.6974 H   0  0  0  0  0  0  0  0  0  0  0  0
   -2.6554   -3.0915    0.3498 H   0  0  0  0  0  0  0  0  0  0  0  0
   -1.4004   -2.7851   -0.8981 H   0  0  0  0  0  0  0  0  0  0  0  0
   -3.8885   -1.1068   -0.1696 H   0  0  0  0  0  0  0  0  0  0  0  0
   -3.2862   -1.5735   -1.7969 H   0  0  0  0  0  0  0  0  0  0  0  0
   -3.8898    1.1019   -0.1708 H   0  0  0  0  0  0  0  0  0  0  0  0
   -3.2884    1.5672   -1.7988 H   0  0  0  0  0  0  0  0  0  0  0  0
   -2.6591    3.0892    0.3452 H   0  0  0  0  0  0  0  0  0  0  0  0
   -1.4033    2.7817   -0.9016 H   0  0  0  0  0  0  0  0  0  0  0  0
    0.4684    2.8024    0.6966 H   0  0  0  0  0  0  0  0  0  0  0  0
   -0.5426    3.0714    2.1572 H   0  0  0  0  0  0  0  0  0  0  0  0
    0.1953    1.0692    3.2306 H   0  0  0  0  0  0  0  0  0  0  0  0
    1.7009    1.5905    2.3910 H   0  0  0  0  0  0  0  0  0  0  0  0
  1 11  1  0  0  0  0
  1  5  1  0  0  0  0
  1  2  1  0  0  0  0
  2 13  1  0  0  0  0
  2  3  1  0  0  0  0
  3 14  1  0  0  0  0
  3 15  1  0  0  0  0
  4 16  1  0  0  0  0
  4  3  1  0  0  0  0
  5  6  1  6  0  0  0
  5  4  1  0  0  0  0
  6 18  1  0  0  0  0
  7 20  1  0  0  0  0
  7  6  1  0  0  0  0
  8  9  1  1  0  0  0
  8  7  1  0  0  0  0
  8  1  1  0  0  0  0
  9 22  1  0  0  0  0
  9 10  1  0  0  0  0
 10 24  1  0  0  0  0
 10 11  1  0  0  0  0
 11 12  1  0  0  0  0
 12 27  1  0  0  0  0
 12 13  1  0  0  0  0
 13 29  1  0  0  0  0
 13 28  1  0  0  0  0
 17  4  1  0  0  0  0
 19  6  1  0  0  0  0
 21  7  1  0  0  0  0
 23  9  1  0  0  0  0
 25 10  1  0  0  0  0
 26 12  1  0  0  0  0
M  END
