1,2
q = -1.0

 48 51  0  0  1  0  0  0  0  0999 V2000
    1.1847   -0.5766    0.0239 P   0  0  0  0  0  0  0  0  0  0  0  0
    0.1451    2.0766    0.1652 N   0  0  0  0  0  2  0  0  0  0  0  0
    2.2065    3.2397    0.2362 N   0  0  1  0  0  0  0  0  0  0  0  0
    1.5095    2.0455    0.0355 C   0  0  1  0  0  3  0  0  0  0  0  0
    2.2089    0.8462   -0.2434 C   0  0  1  0  0  3  0  0  0  0  0  0
    3.6496    0.6985   -0.6933 C   0  0  0  0  0  0  0  0  0  0  0  0
    3.7083   -0.1814   -1.3711 H   0  0  0  0  0  0  0  0  0  0  0  0
    4.3403    0.4438    0.1508 H   0  0  0  0  0  0  0  0  0  0  0  0
    4.2150    1.9160   -1.4452 C   0  0  0  0  0  0  0  0  0  0  0  0
    5.1002    1.6154   -2.0446 H   0  0  0  0  0  0  0  0  0  0  0  0
    3.4477    2.2595   -2.1721 H   0  0  0  0  0  0  0  0  0  0  0  0
    4.6005    3.0741   -0.5105 C   0  0  0  0  0  0  0  0  0  0  0  0
    5.6094    2.9041   -0.0746 H   0  0  0  0  0  0  0  0  0  0  0  0
    4.6674    4.0245   -1.0830 H   0  0  0  0  0  0  0  0  0  0  0  0
    3.6006    3.2069    0.6446 C   0  0  0  0  0  0  0  0  0  0  0  0
    3.7219    2.3523    1.3409 H   0  0  0  0  0  0  0  0  0  0  0  0
    3.8062    4.1288    1.2329 H   0  0  0  0  0  0  0  0  0  0  0  0
    1.6566    4.5436   -0.1108 C   0  0  0  0  0  0  0  0  0  0  0  0
    2.1405    4.9546   -1.0312 H   0  0  0  0  0  0  0  0  0  0  0  0
    1.9130    5.2486    0.7139 H   0  0  0  0  0  0  0  0  0  0  0  0
    0.1386    4.4734   -0.2812 C   0  0  0  0  0  0  0  0  0  0  0  0
   -0.3176    5.4564   -0.0396 H   0  0  0  0  0  0  0  0  0  0  0  0
   -0.1339    4.2245   -1.3279 H   0  0  0  0  0  0  0  0  0  0  0  0
   -0.3779    3.3514    0.6232 C   0  0  0  0  0  0  0  0  0  0  0  0
   -0.0849    3.5733    1.6828 H   0  0  0  0  0  0  0  0  0  0  0  0
   -1.4805    3.3191    0.6077 H   0  0  0  0  0  0  0  0  0  0  0  0
    1.5231   -1.7554   -1.3520 C   0  0  0  0  0  0  0  0  0  0  0  0
    1.5070   -1.2283   -2.6617 C   0  0  0  0  0  0  0  0  0  0  0  0
    1.3880   -0.1395   -2.7879 H   0  0  0  0  0  0  0  0  0  0  0  0
    1.6275   -2.0738   -3.7719 C   0  0  0  0  0  0  0  0  0  0  0  0
    1.6093   -1.6492   -4.7877 H   0  0  0  0  0  0  0  0  0  0  0  0
    1.7663   -3.4621   -3.5919 C   0  0  0  0  0  0  0  0  0  0  0  0
    1.8586   -4.1268   -4.4643 H   0  0  0  0  0  0  0  0  0  0  0  0
    1.7923   -3.9941   -2.2937 C   0  0  0  0  0  0  0  0  0  0  0  0
    1.9057   -5.0790   -2.1442 H   0  0  0  0  0  0  0  0  0  0  0  0
    1.6737   -3.1468   -1.1788 C   0  0  0  0  0  0  0  0  0  0  0  0
    1.6916   -3.5747   -0.1652 H   0  0  0  0  0  0  0  0  0  0  0  0
    1.8532   -1.4221    1.5242 C   0  0  0  0  0  0  0  0  0  0  0  0
    3.1094   -2.0697    1.5408 C   0  0  0  0  0  0  0  0  0  0  0  0
    3.6787   -2.1883    0.6060 H   0  0  0  0  0  0  0  0  0  0  0  0
    3.6355   -2.5640    2.7440 C   0  0  0  0  0  0  0  0  0  0  0  0
    4.6134   -3.0705    2.7446 H   0  0  0  0  0  0  0  0  0  0  0  0
    2.9222   -2.4133    3.9453 C   0  0  0  0  0  0  0  0  0  0  0  0
    3.3374   -2.8051    4.8866 H   0  0  0  0  0  0  0  0  0  0  0  0
    1.6801   -1.7564    3.9397 C   0  0  0  0  0  0  0  0  0  0  0  0
    1.1181   -1.6297    4.8782 H   0  0  0  0  0  0  0  0  0  0  0  0
    1.1511   -1.2643    2.7379 C   0  0  0  0  0  0  0  0  0  0  0  0
    0.1848   -0.7329    2.7083 H   0  0  0  0  0  0  0  0  0  0  0  0
  1 38  1  0  0  0  0
  2 24  1  0  0  0  0
  3 18  1  6  0  0  0
  3 15  1  0  0  0  0
  4  2  1  1  0  0  0
  4  3  1  0  0  0  0
  5  1  1  1  0  0  0
  5  4  1  0  0  0  0
  6  5  1  0  0  0  0
  6  8  1  0  0  0  0
  7  6  1  0  0  0  0
  9  6  1  0  0  0  0
  9 12  1  0  0  0  0
 10  9  1  0  0  0  0
 11  9  1  0  0  0  0
 12 13  1  0  0  0  0
 12 15  1  0  0  0  0
 14 12  1  0  0  0  0
 15 17  1  0  0  0  0
 15 16  1  0  0  0  0
 18 20  1  0  0  0  0
 19 18  1  0  0  0  0
 21 18  1  0  0  0  0
 21 22  1  0  0  0  0
 21 24  1  0  0  0  0
 23 21  1  0  0  0  0
 24 25  1  0  0  0  0
 26 24  1  0  0  0  0
 27 36  1  0  0  0  0
 27  1  1  0  0  0  0
 28 27  2  0  0  0  0
 29 28  1  0  0  0  0
 30 32  2  0  0  0  0
 30 28  1  0  0  0  0
 31 30  1  0  0  0  0
 32 34  1  0  0  0  0
 33 32  1  0  0  0  0
 34 35  1  0  0  0  0
 34 36  2  0  0  0  0
 36 37  1  0  0  0  0
 38 39  2  0  0  0  0
 38 47  1  0  0  0  0
 39 41  1  0  0  0  0
 40 39  1  0  0  0  0
 41 42  1  0  0  0  0
 41 43  2  0  0  0  0
 43 44  1  0  0  0  0
 45 43  1  0  0  0  0
 45 46  1  0  0  0  0
 47 45  2  0  0  0  0
 48 47  1  0  0  0  0
M  END
