1,2
q = -1.0

 34 36  0  0  1  0  0  0  0  0999 V2000
   -0.3113   -1.6486   -0.6785 P   0  0  0  0  0  0  0  0  0  0  0  0
    2.4852   -1.6083   -0.3438 N   0  0  0  0  0  2  0  0  0  0  0  0
    0.6761   -2.8183   -1.3502 N   0  0  0  0  0  2  0  0  0  0  0  0
    1.9680   -2.7280   -1.0120 C   0  0  2  0  0  3  0  0  0  0  0  0
    2.8790   -3.7948   -1.3189 C   0  0  0  0  0  0  0  0  0  0  0  0
    4.1875   -3.7659   -0.8682 C   0  0  0  0  0  0  0  0  0  0  0  0
    4.6418   -2.6730   -0.0907 C   0  0  0  0  0  0  0  0  0  0  0  0
    3.7530   -1.6301    0.1383 C   0  0  0  0  0  0  0  0  0  0  0  0
   -1.3449   -2.4254    0.6190 C   0  0  0  0  0  0  0  0  0  0  0  0
   -1.0254   -2.2004    1.9724 C   0  0  0  0  0  0  0  0  0  0  0  0
   -1.7576   -2.8378    2.9838 C   0  0  0  0  0  0  0  0  0  0  0  0
   -2.8102   -3.7040    2.6490 C   0  0  0  0  0  0  0  0  0  0  0  0
   -3.1235   -3.9419    1.2997 C   0  0  0  0  0  0  0  0  0  0  0  0
   -2.3914   -3.3098    0.2845 C   0  0  0  0  0  0  0  0  0  0  0  0
   -1.4688   -1.1714   -2.0125 C   0  0  0  0  0  0  0  0  0  0  0  0
   -0.9863   -1.1879   -3.3362 C   0  0  0  0  0  0  0  0  0  0  0  0
   -1.8006   -0.7365   -4.3849 C   0  0  0  0  0  0  0  0  0  0  0  0
   -3.1003   -0.2731   -4.1207 C   0  0  0  0  0  0  0  0  0  0  0  0
   -3.5892   -0.2710   -2.8048 C   0  0  0  0  0  0  0  0  0  0  0  0
   -2.7769   -0.7189   -1.7533 C   0  0  0  0  0  0  0  0  0  0  0  0
    2.4745   -4.6421   -1.8882 H   0  0  0  0  0  0  0  0  0  0  0  0
    4.8645   -4.6041   -1.0962 H   0  0  0  0  0  0  0  0  0  0  0  0
    5.6582   -2.6323    0.3226 H   0  0  0  0  0  0  0  0  0  0  0  0
    4.0510   -0.7566    0.7363 H   0  0  0  0  0  0  0  0  0  0  0  0
   -0.2064   -1.5086    2.2234 H   0  0  0  0  0  0  0  0  0  0  0  0
   -1.5106   -2.6453    4.0383 H   0  0  0  0  0  0  0  0  0  0  0  0
   -3.3899   -4.1995    3.4429 H   0  0  0  0  0  0  0  0  0  0  0  0
   -3.9427   -4.6285    1.0364 H   0  0  0  0  0  0  0  0  0  0  0  0
   -2.6310   -3.5017   -0.7725 H   0  0  0  0  0  0  0  0  0  0  0  0
    0.0275   -1.5726   -3.5260 H   0  0  0  0  0  0  0  0  0  0  0  0
   -1.4201   -0.7525   -5.4178 H   0  0  0  0  0  0  0  0  0  0  0  0
   -3.7371    0.0830   -4.9448 H   0  0  0  0  0  0  0  0  0  0  0  0
   -4.6083    0.0864   -2.5940 H   0  0  0  0  0  0  0  0  0  0  0  0
   -3.1639   -0.7279   -0.7245 H   0  0  0  0  0  0  0  0  0  0  0  0
  1  9  1  0  0  0  0
  2  8  1  0  0  0  0
  3  1  1  0  0  0  0
  4  3  1  1  0  0  0
  4  2  1  0  0  0  0
  5  4  1  0  0  0  0
  5  6  2  0  0  0  0
  6  7  1  0  0  0  0
  7  8  2  0  0  0  0
  7 23  1  0  0  0  0
  8 24  1  0  0  0  0
  9 10  1  0  0  0  0
 10 25  1  0  0  0  0
 10 11  2  0  0  0  0
 11 26  1  0  0  0  0
 12 11  1  0  0  0  0
 12 27  1  0  0  0  0
 13 12  2  0  0  0  0
 14  9  2  0  0  0  0
 14 13  1  0  0  0  0
 15 20  1  0  0  0  0
 15  1  1  0  0  0  0
 16 15  2  0  0  0  0
 17 18  2  0  0  0  0
 17 16  1  0  0  0  0
 18 19  1  0  0  0  0
 19 33  1  0  0  0  0
 19 20  2  0  0  0  0
 20 34  1  0  0  0  0
 21  5  1  0  0  0  0
 22  6  1  0  0  0  0
 28 13  1  0  0  0  0
 29 14  1  0  0  0  0
 30 16  1  0  0  0  0
 31 17  1  0  0  0  0
 32 18  1  0  0  0  0
M  END
