1,2
q = -1.0

 34 36  0  0  0  0  0  0  0  0999 V2000
    0.2204    1.5995   -0.7164 P   0  0  0  0  0  0  0  0  0  0  0  0
   -2.5877    1.6199   -0.3620 N   0  0  0  0  0  2  0  0  0  0  0  0
   -0.7571    2.7772   -1.3837 N   0  0  0  0  0  0  0  0  0  0  0  0
   -2.0508    2.7207   -1.0373 C   0  0  0  0  0  0  0  0  0  0  0  0
   -2.9346    3.8085   -1.3482 C   0  0  0  0  0  0  0  0  0  0  0  0
   -4.2472    3.8055   -0.9055 C   0  0  0  0  0  0  0  0  0  0  0  0
   -4.7295    2.7212   -0.1349 C   0  0  0  0  0  0  0  0  0  0  0  0
   -3.8584    1.6629    0.1027 C   0  0  0  0  0  0  0  0  0  0  0  0
    1.3530    1.0984   -2.0627 C   0  0  0  0  0  0  0  0  0  0  0  0
    0.8577    1.1475   -3.3815 C   0  0  0  0  0  0  0  0  0  0  0  0
    1.6430    0.6789   -4.4448 C   0  0  0  0  0  0  0  0  0  0  0  0
    2.9273    0.1643   -4.2017 C   0  0  0  0  0  0  0  0  0  0  0  0
    3.4290    0.1259   -2.8911 C   0  0  0  0  0  0  0  0  0  0  0  0
    2.6451    0.5893   -1.8257 C   0  0  0  0  0  0  0  0  0  0  0  0
    1.2673    2.3607    0.5818 C   0  0  0  0  0  0  0  0  0  0  0  0
    0.8547    2.2373    1.9239 C   0  0  0  0  0  0  0  0  0  0  0  0
    1.5798    2.8641    2.9457 C   0  0  0  0  0  0  0  0  0  0  0  0
    2.7236    3.6164    2.6340 C   0  0  0  0  0  0  0  0  0  0  0  0
    3.1328    3.7520    1.2969 C   0  0  0  0  0  0  0  0  0  0  0  0
    2.4051    3.1325    0.2699 C   0  0  0  0  0  0  0  0  0  0  0  0
   -2.5116    4.6479   -1.9158 H   0  0  0  0  0  0  0  0  0  0  0  0
   -4.9055    4.6573   -1.1381 H   0  0  0  0  0  0  0  0  0  0  0  0
   -5.7520    2.6969    0.2647 H   0  0  0  0  0  0  0  0  0  0  0  0
   -4.1800    0.7921    0.6936 H   0  0  0  0  0  0  0  0  0  0  0  0
   -0.1425    1.5730   -3.5552 H   0  0  0  0  0  0  0  0  0  0  0  0
    1.2514    0.7221   -5.4727 H   0  0  0  0  0  0  0  0  0  0  0  0
    3.5411   -0.2052   -5.0372 H   0  0  0  0  0  0  0  0  0  0  0  0
    4.4345   -0.2753   -2.6945 H   0  0  0  0  0  0  0  0  0  0  0  0
    3.0439    0.5634   -0.8023 H   0  0  0  0  0  0  0  0  0  0  0  0
   -0.0327    1.6286    2.1596 H   0  0  0  0  0  0  0  0  0  0  0  0
    1.2582    2.7502    3.9915 H   0  0  0  0  0  0  0  0  0  0  0  0
    3.2998    4.1014    3.4369 H   0  0  0  0  0  0  0  0  0  0  0  0
    4.0237    4.3500    1.0507 H   0  0  0  0  0  0  0  0  0  0  0  0
    2.7205    3.2490   -0.7780 H   0  0  0  0  0  0  0  0  0  0  0  0
  1 15  1  0  0  0  0
  2  8  1  0  0  0  0
  3  4  2  0  0  0  0
  3  1  1  0  0  0  0
  4  2  1  0  0  0  0
  5  4  1  0  0  0  0
  5  6  2  0  0  0  0
  6  7  1  0  0  0  0
  7  8  2  0  0  0  0
  7 23  1  0  0  0  0
  8 24  1  0  0  0  0
  9 14  1  0  0  0  0
  9  1  1  0  0  0  0
 10  9  2  0  0  0  0
 11 12  2  0  0  0  0
 11 10  1  0  0  0  0
 12 13  1  0  0  0  0
 13 28  1  0  0  0  0
 13 14  2  0  0  0  0
 14 29  1  0  0  0  0
 15 16  1  0  0  0  0
 16 30  1  0  0  0  0
 16 17  2  0  0  0  0
 17 31  1  0  0  0  0
 18 17  1  0  0  0  0
 18 32  1  0  0  0  0
 19 18  2  0  0  0  0
 20 15  2  0  0  0  0
 20 19  1  0  0  0  0
 21  5  1  0  0  0  0
 22  6  1  0  0  0  0
 25 10  1  0  0  0  0
 26 11  1  0  0  0  0
 27 12  1  0  0  0  0
 33 19  1  0  0  0  0
 34 20  1  0  0  0  0
M  END
