1,2
q = 0.0, confidence = 0.998

 50 51  0  0  1  0  0  0  0  0999 V2000
    1.7082    0.1773    0.0147 P   0  0  0  0  0  0  0  0  0  0  0  0
   -0.9578    1.2285   -0.4823 N   0  0  0  0  0  2  0  0  0  0  0  0
   -0.0711    2.2508   -0.6090 C   0  0  2  0  0  3  0  0  0  0  0  0
   -0.5249    3.5785   -0.6374 C   0  0  0  0  0  0  0  0  0  0  0  0
    0.1969    4.4004   -0.7426 H   0  0  0  0  0  0  0  0  0  0  0  0
   -1.9005    3.8351   -0.5402 C   0  0  0  0  0  0  0  0  0  0  0  0
   -2.2722    4.8698   -0.5727 H   0  0  0  0  0  0  0  0  0  0  0  0
   -2.7984    2.7697   -0.4004 C   0  0  0  0  0  0  0  0  0  0  0  0
   -3.8794    2.9480   -0.3240 H   0  0  0  0  0  0  0  0  0  0  0  0
   -2.2988    1.4573   -0.3660 C   0  0  0  0  0  0  0  0  0  0  0  0
   -3.1123    0.2433   -0.1539 C   0  0  0  0  0  0  0  0  0  0  0  0
   -4.3077    0.2619    0.5879 C   0  0  0  0  0  0  0  0  0  0  0  0
   -4.6946    1.2115    0.9861 H   0  0  0  0  0  0  0  0  0  0  0  0
   -4.9859   -0.9346    0.8698 C   0  0  0  0  0  0  0  0  0  0  0  0
   -5.9170   -0.9026    1.4547 H   0  0  0  0  0  0  0  0  0  0  0  0
   -4.4798   -2.1687    0.4281 C   0  0  0  0  0  0  0  0  0  0  0  0
   -5.0164   -3.1002    0.6599 H   0  0  0  0  0  0  0  0  0  0  0  0
   -3.2966   -2.2066   -0.3237 C   0  0  0  0  0  0  0  0  0  0  0  0
   -2.9094   -3.1619   -0.7078 H   0  0  0  0  0  0  0  0  0  0  0  0
   -2.6118   -1.0117   -0.6152 C   0  0  0  0  0  0  0  0  0  0  0  0
   -1.8552   -1.0429   -1.4678 H   0  0  0  0  0  0  0  0  0  0  0  0
    1.3764    1.8681   -0.7327 C   0  0  0  0  0  0  0  0  0  0  0  0
    2.0469    2.6473   -0.3189 H   0  0  0  0  0  0  0  0  0  0  0  0
    1.6285    1.7692   -1.8104 H   0  0  0  0  0  0  0  0  0  0  0  0
    2.1172    0.4894    1.8456 C   0  0  0  0  0  0  0  0  0  0  0  0
    0.9819    1.3781    2.3916 C   0  0  0  0  0  0  0  0  0  0  0  0
    1.1209    1.4972    3.4858 H   0  0  0  0  0  0  0  0  0  0  0  0
   -0.0138    0.9176    2.2270 H   0  0  0  0  0  0  0  0  0  0  0  0
    0.9799    2.3943    1.9500 H   0  0  0  0  0  0  0  0  0  0  0  0
    3.4699    1.1904    2.0432 C   0  0  0  0  0  0  0  0  0  0  0  0
    3.5869    1.4420    3.1178 H   0  0  0  0  0  0  0  0  0  0  0  0
    3.5467    2.1407    1.4773 H   0  0  0  0  0  0  0  0  0  0  0  0
    4.3245    0.5447    1.7656 H   0  0  0  0  0  0  0  0  0  0  0  0
    2.0874   -0.8593    2.5899 C   0  0  0  0  0  0  0  0  0  0  0  0
    2.8657   -1.5619    2.2401 H   0  0  0  0  0  0  0  0  0  0  0  0
    1.1005   -1.3529    2.4885 H   0  0  0  0  0  0  0  0  0  0  0  0
    2.2659   -0.6754    3.6694 H   0  0  0  0  0  0  0  0  0  0  0  0
    3.1610   -0.4919   -1.0159 C   0  0  0  0  0  0  0  0  0  0  0  0
    4.2366    0.5881   -1.2447 C   0  0  0  0  0  0  0  0  0  0  0  0
    4.6957    0.9477   -0.3067 H   0  0  0  0  0  0  0  0  0  0  0  0
    3.8529    1.4619   -1.8064 H   0  0  0  0  0  0  0  0  0  0  0  0
    5.0476    0.1454   -1.8592 H   0  0  0  0  0  0  0  0  0  0  0  0
    3.7805   -1.7161   -0.3199 C   0  0  0  0  0  0  0  0  0  0  0  0
    3.0332   -2.5000   -0.0911 H   0  0  0  0  0  0  0  0  0  0  0  0
    4.3092   -1.4462    0.6142 H   0  0  0  0  0  0  0  0  0  0  0  0
    4.5306   -2.1677   -1.0012 H   0  0  0  0  0  0  0  0  0  0  0  0
    2.5674   -0.9162   -2.3737 C   0  0  0  0  0  0  0  0  0  0  0  0
    3.3903   -1.2779   -3.0244 H   0  0  0  0  0  0  0  0  0  0  0  0
    2.0738   -0.0776   -2.9057 H   0  0  0  0  0  0  0  0  0  0  0  0
    1.8269   -1.7314   -2.2671 H   0  0  0  0  0  0  0  0  0  0  0  0
  1 25  1  0  0  0  0
  2 10  1  0  0  0  0
  3 22  1  6  0  0  0
  3  2  1  0  0  0  0
  4  3  1  0  0  0  0
  4  6  2  0  0  0  0
  5  4  1  0  0  0  0
  6  8  1  0  0  0  0
  7  6  1  0  0  0  0
  8 10  2  0  0  0  0
  8  9  1  0  0  0  0
 10 11  1  0  0  0  0
 11 12  1  0  0  0  0
 12 14  2  0  0  0  0
 12 13  1  0  0  0  0
 14 15  1  0  0  0  0
 16 17  1  0  0  0  0
 16 14  1  0  0  0  0
 18 16  2  0  0  0  0
 19 18  1  0  0  0  0
 20 18  1  0  0  0  0
 20 11  2  0  0  0  0
 21 20  1  0  0  0  0
 22 23  1  0  0  0  0
 22  1  1  0  0  0  0
 24 22  1  0  0  0  0
 25 30  1  0  0  0  0
 25 26  1  0  0  0  0
 25 34  1  0  0  0  0
 26 27  1  0  0  0  0
 28 26  1  0  0  0  0
 29 26  1  0  0  0  0
 30 31  1  0  0  0  0
 32 30  1  0  0  0  0
 33 30  1  0  0  0  0
 34 37  1  0  0  0  0
 35 34  1  0  0  0  0
 36 34  1  0  0  0  0
 38 43  1  0  0  0  0
 38  1  1  0  0  0  0
 39 38  1  0  0  0  0
 39 40  1  0  0  0  0
 41 39  1  0  0  0  0
 42 39  1  0  0  0  0
 43 44  1  0  0  0  0
 43 45  1  0  0  0  0
 46 43  1  0  0  0  0
 47 50  1  0  0  0  0
 47 38  1  0  0  0  0
 48 47  1  0  0  0  0
 49 47  1  0  0  0  0
M  END
