1,14
q = 0.0, confidence = 0.996

 37 40  0  0  0  0  0  0  0  0999 V2000
    0.7897    0.2327    0.0438 P   0  0  0  0  0  0  0  0  0  0  0  0
    0.0500    1.8151    0.3497 N   0  0  0  0  0  0  0  0  0  0  0  0
    0.4953    3.1028    0.6616 C   0  0  0  0  0  0  0  0  0  0  0  0
    1.5670    3.3028    0.7691 H   0  0  0  0  0  0  0  0  0  0  0  0
   -0.5871    3.9548    0.7968 C   0  0  0  0  0  0  0  0  0  0  0  0
   -0.5335    5.0216    1.0407 H   0  0  0  0  0  0  0  0  0  0  0  0
   -1.7804    3.1741    0.5702 C   0  0  0  0  0  0  0  0  0  0  0  0
   -3.1777    3.3653    0.5580 C   0  0  0  0  0  0  0  0  0  0  0  0
   -3.6239    4.3520    0.7515 H   0  0  0  0  0  0  0  0  0  0  0  0
   -3.9849    2.2486    0.2947 C   0  0  0  0  0  0  0  0  0  0  0  0
   -5.0795    2.3455    0.2757 H   0  0  0  0  0  0  0  0  0  0  0  0
   -3.4301    0.9751    0.0562 C   0  0  0  0  0  3  0  0  0  0  0  0
   -4.0291    0.0707   -0.1369 H   0  0  0  0  0  0  0  0  0  0  0  0
   -2.0929    0.7717    0.0624 N   0  0  0  0  0  2  0  0  0  0  0  0
   -1.3245    1.8553    0.3044 C   0  0  0  0  0  0  0  0  0  0  0  0
    1.8954   -0.0533    1.4619 C   0  0  0  0  0  0  0  0  0  0  0  0
    1.4570   -0.9120    2.4901 C   0  0  0  0  0  0  0  0  0  0  0  0
    0.4893   -1.4268    2.3862 H   0  0  0  0  0  0  0  0  0  0  0  0
    2.2706   -1.1158    3.6134 C   0  0  0  0  0  0  0  0  0  0  0  0
    1.9346   -1.7921    4.4135 H   0  0  0  0  0  0  0  0  0  0  0  0
    3.5131   -0.4687    3.7116 C   0  0  0  0  0  0  0  0  0  0  0  0
    4.1498   -0.6342    4.5940 H   0  0  0  0  0  0  0  0  0  0  0  0
    3.9537    0.3792    2.6814 C   0  0  0  0  0  0  0  0  0  0  0  0
    4.9331    0.8756    2.7547 H   0  0  0  0  0  0  0  0  0  0  0  0
    3.1509    0.5837    1.5506 C   0  0  0  0  0  0  0  0  0  0  0  0
    3.5053    1.2250    0.7284 H   0  0  0  0  0  0  0  0  0  0  0  0
    1.8876    0.5145   -1.3812 C   0  0  0  0  0  0  0  0  0  0  0  0
    2.7467   -0.5461   -1.7443 C   0  0  0  0  0  0  0  0  0  0  0  0
    2.7379   -1.4800   -1.1609 H   0  0  0  0  0  0  0  0  0  0  0  0
    3.5700   -0.4138   -2.8698 C   0  0  0  0  0  0  0  0  0  0  0  0
    4.2357   -1.2419   -3.1555 H   0  0  0  0  0  0  0  0  0  0  0  0
    3.5391    0.7639   -3.6356 C   0  0  0  0  0  0  0  0  0  0  0  0
    4.1884    0.8629   -4.5187 H   0  0  0  0  0  0  0  0  0  0  0  0
    2.6718    1.8093   -3.2827 C   0  0  0  0  0  0  0  0  0  0  0  0
    2.6371    2.7276   -3.8881 H   0  0  0  0  0  0  0  0  0  0  0  0
    1.8386    1.6870   -2.1602 C   0  0  0  0  0  0  0  0  0  0  0  0
    1.1494    2.5025   -1.8961 H   0  0  0  0  0  0  0  0  0  0  0  0
  1  2  1  0  0  0  0
  1 16  1  0  0  0  0
  2  3  1  0  0  0  0
  3  4  1  0  0  0  0
  3  5  2  0  0  0  0
  5  6  1  0  0  0  0
  7  5  1  0  0  0  0
  8  7  1  0  0  0  0
  8  9  1  0  0  0  0
 10  8  2  0  0  0  0
 11 10  1  0  0  0  0
 12 14  1  0  0  0  0
 12 10  1  0  0  0  0
 13 12  1  0  0  0  0
 14 15  1  0  0  0  0
 15  2  1  0  0  0  0
 15  7  2  0  0  0  0
 16 25  2  0  0  0  0
 16 17  1  0  0  0  0
 17 19  2  0  0  0  0
 18 17  1  0  0  0  0
 19 21  1  0  0  0  0
 19 20  1  0  0  0  0
 21 22  1  0  0  0  0
 23 24  1  0  0  0  0
 23 21  2  0  0  0  0
 25 23  1  0  0  0  0
 26 25  1  0  0  0  0
 27  1  1  0  0  0  0
 28 27  1  0  0  0  0
 28 29  1  0  0  0  0
 30 28  2  0  0  0  0
 31 30  1  0  0  0  0
 32 34  2  0  0  0  0
 32 30  1  0  0  0  0
 33 32  1  0  0  0  0
 34 36  1  0  0  0  0
 35 34  1  0  0  0  0
 36 37  1  0  0  0  0
 36 27  2  0  0  0  0
M  END
