1,3
q = 0.0, confidence = 1.0

 47 49  0  0  1  0  0  0  0  0999 V2000
    1.0209    0.0353    0.4282 P   0  0  0  0  0  0  0  0  0  0  0  0
    0.6751   -0.0763    2.0690 O   0  0  0  0  0  0  0  0  0  0  0  0
   -2.2392    0.1344    0.0220 N   0  0  0  0  0  2  0  0  0  0  0  0
   -2.8541   -0.5781    1.0028 N   0  0  0  0  0  0  0  0  0  0  0  0
   -2.7488    2.0349   -1.4871 C   0  0  0  0  0  0  0  0  0  0  0  0
   -2.8098    1.4793   -2.4466 H   0  0  0  0  0  0  0  0  0  0  0  0
   -1.7071    2.4036   -1.3935 H   0  0  0  0  0  0  0  0  0  0  0  0
   -3.4414    2.8967   -1.5083 H   0  0  0  0  0  0  0  0  0  0  0  0
   -3.0857    1.1111   -0.3665 C   0  0  1  0  0  3  0  0  0  0  0  0
   -4.2649    1.0244    0.4110 C   0  0  0  0  0  0  0  0  0  0  0  0
   -5.1518    1.6608    0.3311 H   0  0  0  0  0  0  0  0  0  0  0  0
   -4.0900   -0.0556    1.2786 C   0  0  0  0  0  0  0  0  0  0  0  0
   -4.9927   -0.6273    2.3210 C   0  0  0  0  0  0  0  0  0  0  0  0
   -5.2012   -1.7016    2.1364 H   0  0  0  0  0  0  0  0  0  0  0  0
   -5.9585   -0.0903    2.3129 H   0  0  0  0  0  0  0  0  0  0  0  0
   -4.5691   -0.5425    3.3439 H   0  0  0  0  0  0  0  0  0  0  0  0
   -2.0806   -1.4976    1.8212 C   0  0  0  0  0  0  0  0  0  0  0  0
   -1.3084   -1.9399    1.1583 H   0  0  0  0  0  0  0  0  0  0  0  0
   -2.7470   -2.3187    2.1491 H   0  0  0  0  0  0  0  0  0  0  0  0
   -1.4468   -0.7863    3.0255 C   0  0  0  0  0  0  0  0  0  0  0  0
   -2.2468   -0.4121    3.6999 H   0  0  0  0  0  0  0  0  0  0  0  0
   -0.8543   -1.5230    3.6073 H   0  0  0  0  0  0  0  0  0  0  0  0
   -0.5420    0.3879    2.6579 C   0  0  0  0  0  0  0  0  0  0  0  0
   -1.0662    1.1098    1.9943 H   0  0  0  0  0  0  0  0  0  0  0  0
   -0.2583    0.9369    3.5809 H   0  0  0  0  0  0  0  0  0  0  0  0
    1.6308    1.7545    0.2494 C   0  0  0  0  0  0  0  0  0  0  0  0
    1.7572    2.3131   -1.0405 C   0  0  0  0  0  0  0  0  0  0  0  0
    1.5140    1.6959   -1.9209 H   0  0  0  0  0  0  0  0  0  0  0  0
    2.2084    3.6330   -1.1817 C   0  0  0  0  0  0  0  0  0  0  0  0
    2.3114    4.0663   -2.1881 H   0  0  0  0  0  0  0  0  0  0  0  0
    2.5240    4.4008   -0.0478 C   0  0  0  0  0  0  0  0  0  0  0  0
    2.8709    5.4388   -0.1649 H   0  0  0  0  0  0  0  0  0  0  0  0
    2.3969    3.8447    1.2350 C   0  0  0  0  0  0  0  0  0  0  0  0
    2.6464    4.4436    2.1242 H   0  0  0  0  0  0  0  0  0  0  0  0
    1.9534    2.5220    1.3873 C   0  0  0  0  0  0  0  0  0  0  0  0
    1.8601    2.0747    2.3883 H   0  0  0  0  0  0  0  0  0  0  0  0
    2.4903   -1.0482    0.4884 C   0  0  0  0  0  0  0  0  0  0  0  0
    3.7595   -0.5382    0.8161 C   0  0  0  0  0  0  0  0  0  0  0  0
    3.8991    0.5431    0.9639 H   0  0  0  0  0  0  0  0  0  0  0  0
    4.8504   -1.4126    0.9420 C   0  0  0  0  0  0  0  0  0  0  0  0
    5.8447   -1.0112    1.1901 H   0  0  0  0  0  0  0  0  0  0  0  0
    4.6748   -2.7907    0.7467 C   0  0  0  0  0  0  0  0  0  0  0  0
    5.5328   -3.4735    0.8416 H   0  0  0  0  0  0  0  0  0  0  0  0
    3.4061   -3.2989    0.4185 C   0  0  0  0  0  0  0  0  0  0  0  0
    3.2691   -4.3777    0.2509 H   0  0  0  0  0  0  0  0  0  0  0  0
    2.3156   -2.4314    0.2828 C   0  0  0  0  0  0  0  0  0  0  0  0
    1.3279   -2.8182   -0.0113 H   0  0  0  0  0  0  0  0  0  0  0  0
  1 37  1  0  0  0  0
  1  2  1  0  0  0  0
  2 23  1  0  0  0  0
  3  4  1  0  0  0  0
  4 12  1  0  0  0  0
  4 17  1  0  0  0  0
  5  7  1  0  0  0  0
  6  5  1  0  0  0  0
  8  5  1  0  0  0  0
  9  5  1  6  0  0  0
  9  3  1  0  0  0  0
  9 10  1  0  0  0  0
 10 12  2  0  0  0  0
 11 10  1  0  0  0  0
 12 13  1  0  0  0  0
 13 16  1  0  0  0  0
 14 13  1  0  0  0  0
 15 13  1  0  0  0  0
 17 19  1  0  0  0  0
 17 20  1  0  0  0  0
 18 17  1  0  0  0  0
 20 22  1  0  0  0  0
 20 21  1  0  0  0  0
 23 20  1  0  0  0  0
 23 25  1  0  0  0  0
 24 23  1  0  0  0  0
 26  1  1  0  0  0  0
 26 35  1  0  0  0  0
 27 26  2  0  0  0  0
 28 27  1  0  0  0  0
 29 27  1  0  0  0  0
 29 31  2  0  0  0  0
 30 29  1  0  0  0  0
 31 33  1  0  0  0  0
 32 31  1  0  0  0  0
 33 35  2  0  0  0  0
 33 34  1  0  0  0  0
 35 36  1  0  0  0  0
 37 38  1  0  0  0  0
 38 40  2  0  0  0  0
 38 39  1  0  0  0  0
 40 41  1  0  0  0  0
 42 43  1  0  0  0  0
 42 40  1  0  0  0  0
 44 42  2  0  0  0  0
 45 44  1  0  0  0  0
 46 44  1  0  0  0  0
 46 37  2  0  0  0  0
 47 46  1  0  0  0  0
M  END
