1,3
q = -1.0, confidence = 0.0

 32 34  0  0  1  0  0  0  0  0999 V2000
    2.0270    0.8169   -0.1634 P   0  0  2  0  0  4  0  0  0  0  0  0
    2.5653    1.3614    1.1668 O   0  0  0  0  0  0  0  0  0  0  0  0
    1.4474   -2.3573   -0.8101 N   0  0  0  0  0  2  0  0  0  0  0  0
    3.3310   -0.1434   -1.1078 C   0  0  0  0  0  0  0  0  0  0  0  0
    3.7024   -1.4551   -0.5000 C   0  0  0  0  0  0  0  0  0  0  0  0
    2.7689   -2.5465   -0.4588 C   0  0  2  0  0  3  0  0  0  0  0  0
    0.6433   -3.4196   -0.9417 C   0  0  0  0  0  0  0  0  0  0  0  0
    1.0623   -4.7440   -0.6767 C   0  0  0  0  0  0  0  0  0  0  0  0
    2.3419   -4.9537   -0.1934 C   0  0  0  0  0  0  0  0  0  0  0  0
    3.2351   -3.8550   -0.0648 C   0  0  0  0  0  0  0  0  0  0  0  0
    4.5652   -4.0191    0.4151 C   0  0  0  0  0  0  0  0  0  0  0  0
    5.4184   -2.9299    0.4739 C   0  0  0  0  0  0  0  0  0  0  0  0
    4.9893   -1.6676   -0.0034 C   0  0  0  0  0  0  0  0  0  0  0  0
    1.7331    2.1955   -1.3510 C   0  0  0  0  0  0  0  0  0  0  0  0
    2.1051    3.4933   -0.9583 C   0  0  0  0  0  0  0  0  0  0  0  0
    1.9210    4.5692   -1.8400 C   0  0  0  0  0  0  0  0  0  0  0  0
    1.3719    4.3518   -3.1137 C   0  0  0  0  0  0  0  0  0  0  0  0
    0.9898    3.0566   -3.5036 C   0  0  0  0  0  0  0  0  0  0  0  0
    1.1619    1.9808   -2.6209 C   0  0  0  0  0  0  0  0  0  0  0  0
    2.9111   -0.2810   -2.1259 H   0  0  0  0  0  0  0  0  0  0  0  0
    4.2135    0.5225   -1.1805 H   0  0  0  0  0  0  0  0  0  0  0  0
   -0.4025   -3.1937   -1.2080 H   0  0  0  0  0  0  0  0  0  0  0  0
    0.3501   -5.5702   -0.8107 H   0  0  0  0  0  0  0  0  0  0  0  0
    2.6879   -5.9601    0.0900 H   0  0  0  0  0  0  0  0  0  0  0  0
    4.8972   -5.0216    0.7253 H   0  0  0  0  0  0  0  0  0  0  0  0
    6.4437   -3.0456    0.8556 H   0  0  0  0  0  0  0  0  0  0  0  0
    5.6976   -0.8253   -0.0133 H   0  0  0  0  0  0  0  0  0  0  0  0
    2.5283    3.6329    0.0485 H   0  0  0  0  0  0  0  0  0  0  0  0
    2.2029    5.5866   -1.5281 H   0  0  0  0  0  0  0  0  0  0  0  0
    1.2299    5.1977   -3.8039 H   0  0  0  0  0  0  0  0  0  0  0  0
    0.5473    2.8869   -4.4973 H   0  0  0  0  0  0  0  0  0  0  0  0
    0.8347    0.9682   -2.9116 H   0  0  0  0  0  0  0  0  0  0  0  0
  1  2  2  1  0  0  0
  4  5  1  0  0  0  0
  4  1  1  0  0  0  0
  5  6  1  0  0  0  0
  5 13  2  0  0  0  0
  6  3  1  6  0  0  0
  6 10  1  0  0  0  0
  7  3  1  0  0  0  0
  7  8  2  0  0  0  0
  8  9  1  0  0  0  0
  9 10  2  0  0  0  0
  9 24  1  0  0  0  0
 10 11  1  0  0  0  0
 11 12  2  0  0  0  0
 11 25  1  0  0  0  0
 12 26  1  0  0  0  0
 13 12  1  0  0  0  0
 14 15  1  0  0  0  0
 14  1  1  0  0  0  0
 15 28  1  0  0  0  0
 16 29  1  0  0  0  0
 16 15  2  0  0  0  0
 17 16  1  0  0  0  0
 18 17  2  0  0  0  0
 18 19  1  0  0  0  0
 19 14  2  0  0  0  0
 20  4  1  0  0  0  0
 21  4  1  0  0  0  0
 22  7  1  0  0  0  0
 23  8  1  0  0  0  0
 27 13  1  0  0  0  0
 30 17  1  0  0  0  0
 31 18  1  0  0  0  0
 32 19  1  0  0  0  0
M  END
