1,3
q = 0.0, confidence = 0.998

 50 50  0  0  1  0  0  0  0  0999 V2000
    0.3381    0.7693   -1.7733 P   0  0  2  0  0  0  0  0  0  0  0  0
   -3.7063   -0.3171    0.1346 O   0  0  0  0  0  0  0  0  0  0  0  0
   -1.5601   -0.9709   -0.0453 N   0  0  0  0  0  2  0  0  0  0  0  0
   -1.2756    1.4485   -1.7403 N   0  0  0  0  0  0  0  0  0  0  0  0
   -1.8391    1.1603   -2.5467 H   0  0  0  0  0  0  0  0  0  0  0  0
   -2.2968   -2.2282    0.1998 C   0  0  1  0  0  0  0  0  0  0  0  0
   -1.8014   -2.7486    1.0445 H   0  0  0  0  0  0  0  0  0  0  0  0
   -3.7050   -1.7110    0.5646 C   0  0  0  0  0  0  0  0  0  0  0  0
   -4.5335   -2.2281    0.0429 H   0  0  0  0  0  0  0  0  0  0  0  0
   -3.8992   -1.7190    1.6566 H   0  0  0  0  0  0  0  0  0  0  0  0
   -2.4168   -0.0051   -0.1179 C   0  0  1  0  0  3  0  0  0  0  0  0
   -2.0462    1.4146   -0.4961 C   0  0  2  0  0  0  0  0  0  0  0  0
   -1.3690    1.7480    0.3184 H   0  0  0  0  0  0  0  0  0  0  0  0
   -2.2108   -3.1590   -1.0302 C   0  0  0  0  0  0  0  0  0  0  0  0
   -1.1207   -3.3106   -1.1794 H   0  0  0  0  0  0  0  0  0  0  0  0
   -2.8449   -4.5177   -0.7189 C   0  0  0  0  0  0  0  0  0  0  0  0
   -2.7224   -5.2155   -1.5715 H   0  0  0  0  0  0  0  0  0  0  0  0
   -3.9358   -4.4323   -0.5219 H   0  0  0  0  0  0  0  0  0  0  0  0
   -2.3713   -4.9829    0.1692 H   0  0  0  0  0  0  0  0  0  0  0  0
   -2.7863   -2.5233   -2.2989 C   0  0  0  0  0  0  0  0  0  0  0  0
   -2.6236   -3.1804   -3.1768 H   0  0  0  0  0  0  0  0  0  0  0  0
   -2.2984   -1.5510   -2.5140 H   0  0  0  0  0  0  0  0  0  0  0  0
   -3.8809   -2.3471   -2.2218 H   0  0  0  0  0  0  0  0  0  0  0  0
   -3.2447    2.3914   -0.5223 C   0  0  0  0  0  0  0  0  0  0  0  0
   -3.8202    2.1780    0.4036 H   0  0  0  0  0  0  0  0  0  0  0  0
   -2.7530    3.8412   -0.4615 C   0  0  0  0  0  0  0  0  0  0  0  0
   -3.6058    4.5494   -0.4602 H   0  0  0  0  0  0  0  0  0  0  0  0
   -2.1144    4.0768   -1.3369 H   0  0  0  0  0  0  0  0  0  0  0  0
   -2.1566    4.0245    0.4553 H   0  0  0  0  0  0  0  0  0  0  0  0
    1.4074    2.3442   -1.8932 C   0  0  0  0  0  0  0  0  0  0  0  0
   -4.1723    2.1599   -1.7225 C   0  0  0  0  0  0  0  0  0  0  0  0
   -5.0690    2.8075   -1.6520 H   0  0  0  0  0  0  0  0  0  0  0  0
   -4.5195    1.1093   -1.7747 H   0  0  0  0  0  0  0  0  0  0  0  0
   -3.6655    2.4174   -2.6767 H   0  0  0  0  0  0  0  0  0  0  0  0
    2.8695    1.9686   -2.1756 C   0  0  0  0  0  0  0  0  0  0  0  0
    3.4725    2.8981   -2.2573 H   0  0  0  0  0  0  0  0  0  0  0  0
    2.9841    1.4179   -3.1310 H   0  0  0  0  0  0  0  0  0  0  0  0
    3.3045    1.3488   -1.3707 H   0  0  0  0  0  0  0  0  0  0  0  0
    1.3027    3.0635   -0.5401 C   0  0  0  0  0  0  0  0  0  0  0  0
    1.9255    3.9830   -0.5566 H   0  0  0  0  0  0  0  0  0  0  0  0
    1.6618    2.4162    0.2812 H   0  0  0  0  0  0  0  0  0  0  0  0
    0.2603    3.3700   -0.3218 H   0  0  0  0  0  0  0  0  0  0  0  0
    0.8712    3.2582   -3.0066 C   0  0  0  0  0  0  0  0  0  0  0  0
    1.4079    4.2299   -2.9720 H   0  0  0  0  0  0  0  0  0  0  0  0
   -0.2114    3.4546   -2.8782 H   0  0  0  0  0  0  0  0  0  0  0  0
    1.0374    2.8319   -4.0162 H   0  0  0  0  0  0  0  0  0  0  0  0
    0.3689    0.1135   -3.4963 C   0  0  0  0  0  0  0  0  0  0  0  0
    0.0687    0.8700   -4.2473 H   0  0  0  0  0  0  0  0  0  0  0  0
   -0.3041   -0.7633   -3.5392 H   0  0  0  0  0  0  0  0  0  0  0  0
    1.3948   -0.2384   -3.7156 H   0  0  0  0  0  0  0  0  0  0  0  0
  1 47  1  6  0  0  0
  1  4  1  0  0  0  0
  2  8  1  0  0  0  0
  3  6  1  0  0  0  0
  4 12  1  0  0  0  0
  5  4  1  0  0  0  0
  6  8  1  0  0  0  0
  6  7  1  1  0  0  0
  8 10  1  0  0  0  0
  9  8  1  0  0  0  0
 11 12  1  6  0  0  0
 11  3  1  0  0  0  0
 11  2  1  0  0  0  0
 12 13  1  1  0  0  0
 14 16  1  0  0  0  0
 14  6  1  0  0  0  0
 15 14  1  0  0  0  0
 16 18  1  0  0  0  0
 16 19  1  0  0  0  0
 17 16  1  0  0  0  0
 20 23  1  0  0  0  0
 20 14  1  0  0  0  0
 21 20  1  0  0  0  0
 22 20  1  0  0  0  0
 24 12  1  0  0  0  0
 24 26  1  0  0  0  0
 24 25  1  0  0  0  0
 26 27  1  0  0  0  0
 26 29  1  0  0  0  0
 28 26  1  0  0  0  0
 30  1  1  0  0  0  0
 30 39  1  0  0  0  0
 31 32  1  0  0  0  0
 31 24  1  0  0  0  0
 33 31  1  0  0  0  0
 34 31  1  0  0  0  0
 35 30  1  0  0  0  0
 35 38  1  0  0  0  0
 36 35  1  0  0  0  0
 37 35  1  0  0  0  0
 39 42  1  0  0  0  0
 39 41  1  0  0  0  0
 40 39  1  0  0  0  0
 43 44  1  0  0  0  0
 43 45  1  0  0  0  0
 43 30  1  0  0  0  0
 46 43  1  0  0  0  0
 48 47  1  0  0  0  0
 49 47  1  0  0  0  0
 50 47  1  0  0  0  0
M  END
