1,4
q = 0.0, confidence = 0.99

 44 44  0  0  1  0  0  0  0  0999 V2000
   -0.5172    0.8168    0.1406 P   0  0  0  0  0  0  0  0  0  0  0  0
   -3.1361    0.0310    1.6493 Si  0  0  0  0  0  0  0  0  0  0  0  0
   -3.0082    0.4479   -1.6372 Si  0  0  0  0  0  0  0  0  0  0  0  0
    2.3186    1.1146    0.0979 N   0  0  0  0  0  2  0  0  0  0  0  0
    0.2112    2.3678    0.1936 C   0  0  0  0  0  0  0  0  0  0  0  0
    1.6663    2.3340    0.1833 C   0  0  2  0  0  3  0  0  0  0  0  0
    2.4239    3.5337    0.2579 C   0  0  0  0  0  0  0  0  0  0  0  0
    1.8971    4.4942    0.3202 H   0  0  0  0  0  0  0  0  0  0  0  0
    3.8163    3.5018    0.2554 C   0  0  0  0  0  0  0  0  0  0  0  0
    4.3943    4.4362    0.3141 H   0  0  0  0  0  0  0  0  0  0  0  0
    4.4610    2.2563    0.1779 C   0  0  0  0  0  0  0  0  0  0  0  0
    5.5559    2.1658    0.1730 H   0  0  0  0  0  0  0  0  0  0  0  0
    3.6737    1.1069    0.1006 C   0  0  0  0  0  0  0  0  0  0  0  0
    4.1452    0.1171    0.0320 H   0  0  0  0  0  0  0  0  0  0  0  0
   -0.5053    3.6870    0.2481 C   0  0  0  0  0  0  0  0  0  0  0  0
   -0.2557    4.3242   -0.6279 H   0  0  0  0  0  0  0  0  0  0  0  0
   -0.2389    4.2654    1.1591 H   0  0  0  0  0  0  0  0  0  0  0  0
   -1.6043    3.5631    0.2533 H   0  0  0  0  0  0  0  0  0  0  0  0
   -2.3296    0.8983    0.1177 C   0  0  0  0  0  0  0  0  0  0  0  0
   -2.6112    1.9689    0.2383 H   0  0  0  0  0  0  0  0  0  0  0  0
   -2.6160   -1.3148   -2.1694 C   0  0  0  0  0  0  0  0  0  0  0  0
   -1.5313   -1.4571   -2.3322 H   0  0  0  0  0  0  0  0  0  0  0  0
   -3.1299   -1.5169   -3.1324 H   0  0  0  0  0  0  0  0  0  0  0  0
   -2.9480   -2.0733   -1.4362 H   0  0  0  0  0  0  0  0  0  0  0  0
   -4.8834    0.7099   -1.6163 C   0  0  0  0  0  0  0  0  0  0  0  0
   -5.3948   -0.0317   -0.9701 H   0  0  0  0  0  0  0  0  0  0  0  0
   -5.2837    0.5895   -2.6444 H   0  0  0  0  0  0  0  0  0  0  0  0
   -5.1576    1.7246   -1.2626 H   0  0  0  0  0  0  0  0  0  0  0  0
   -2.2079    1.6587   -2.8515 C   0  0  0  0  0  0  0  0  0  0  0  0
   -2.3897    2.7142   -2.5619 H   0  0  0  0  0  0  0  0  0  0  0  0
   -2.6128    1.5102   -3.8738 H   0  0  0  0  0  0  0  0  0  0  0  0
   -1.1109    1.4988   -2.8988 H   0  0  0  0  0  0  0  0  0  0  0  0
   -4.7153    1.0040    2.0359 C   0  0  0  0  0  0  0  0  0  0  0  0
   -4.4854    2.0665    2.2587 H   0  0  0  0  0  0  0  0  0  0  0  0
   -5.2103    0.5742    2.9315 H   0  0  0  0  0  0  0  0  0  0  0  0
   -5.4426    0.9775    1.2011 H   0  0  0  0  0  0  0  0  0  0  0  0
   -3.5524   -1.7789    1.3279 C   0  0  0  0  0  0  0  0  0  0  0  0
   -4.3209   -1.8901    0.5365 H   0  0  0  0  0  0  0  0  0  0  0  0
   -3.9612   -2.2283    2.2566 H   0  0  0  0  0  0  0  0  0  0  0  0
   -2.6620   -2.3669    1.0295 H   0  0  0  0  0  0  0  0  0  0  0  0
   -1.9703    0.1811    3.1289 C   0  0  0  0  0  0  0  0  0  0  0  0
   -1.0646   -0.4453    3.0108 H   0  0  0  0  0  0  0  0  0  0  0  0
   -2.4889   -0.1473    4.0536 H   0  0  0  0  0  0  0  0  0  0  0  0
   -1.6409    1.2300    3.2784 H   0  0  0  0  0  0  0  0  0  0  0  0
  1  5  2  0  0  0  0
  2 33  1  0  0  0  0
  2 41  1  0  0  0  0
  3 25  1  0  0  0  0
  3 19  1  0  0  0  0
  4 13  1  0  0  0  0
  4  6  1  0  0  0  0
  5 15  1  0  0  0  0
  6  5  1  6  0  0  0
  6  7  1  0  0  0  0
  7  8  1  0  0  0  0
  9  7  2  0  0  0  0
  9 10  1  0  0  0  0
 11  9  1  0  0  0  0
 12 11  1  0  0  0  0
 13 11  2  0  0  0  0
 14 13  1  0  0  0  0
 15 18  1  0  0  0  0
 15 17  1  0  0  0  0
 16 15  1  0  0  0  0
 19  1  1  0  0  0  0
 19 20  1  0  0  0  0
 19  2  1  0  0  0  0
 21  3  1  0  0  0  0
 21 24  1  0  0  0  0
 22 21  1  0  0  0  0
 23 21  1  0  0  0  0
 25 28  1  0  0  0  0
 25 26  1  0  0  0  0
 27 25  1  0  0  0  0
 29 30  1  0  0  0  0
 29  3  1  0  0  0  0
 31 29  1  0  0  0  0
 32 29  1  0  0  0  0
 33 34  1  0  0  0  0
 33 35  1  0  0  0  0
 36 33  1  0  0  0  0
 37  2  1  0  0  0  0
 37 39  1  0  0  0  0
 38 37  1  0  0  0  0
 40 37  1  0  0  0  0
 41 44  1  0  0  0  0
 41 43  1  0  0  0  0
 42 41  1  0  0  0  0
M  END
