1,4
q = 0.0, confidence = 0.99

 41 41  0  0  1  0  0  0  0  0999 V2000
   -0.5412    0.8895   -0.1038 P   0  0  0  0  0  0  0  0  0  0  0  0
   -3.1536    0.2600   -1.6651 Si  0  0  0  0  0  0  0  0  0  0  0  0
   -3.0561    0.5336    1.6374 Si  0  0  0  0  0  0  0  0  0  0  0  0
    2.3221    1.2073   -0.0760 N   0  0  0  0  0  2  0  0  0  0  0  0
    0.2133    2.4119   -0.1614 C   0  0  0  0  0  0  0  0  0  0  0  0
   -0.3249    3.3705   -0.2062 H   0  0  0  0  0  0  0  0  0  0  0  0
    1.6538    2.4180   -0.1533 C   0  0  1  0  0  3  0  0  0  0  0  0
    2.3821    3.6351   -0.2224 C   0  0  0  0  0  0  0  0  0  0  0  0
    1.8205    4.5785   -0.2810 H   0  0  0  0  0  0  0  0  0  0  0  0
    3.7737    3.6286   -0.2176 C   0  0  0  0  0  0  0  0  0  0  0  0
    4.3377    4.5719   -0.2713 H   0  0  0  0  0  0  0  0  0  0  0  0
    4.4400    2.3918   -0.1432 C   0  0  0  0  0  0  0  0  0  0  0  0
    5.5365    2.3234   -0.1359 H   0  0  0  0  0  0  0  0  0  0  0  0
    3.6775    1.2252   -0.0745 C   0  0  0  0  0  0  0  0  0  0  0  0
    4.1691    0.2446   -0.0115 H   0  0  0  0  0  0  0  0  0  0  0  0
   -2.3487    1.0478   -0.0895 C   0  0  0  0  0  0  0  0  0  0  0  0
   -2.5634    2.1382   -0.1702 H   0  0  0  0  0  0  0  0  0  0  0  0
   -1.9906    0.5121   -3.1339 C   0  0  0  0  0  0  0  0  0  0  0  0
   -2.5049    0.2289   -4.0758 H   0  0  0  0  0  0  0  0  0  0  0  0
   -1.0748   -0.1061   -3.0534 H   0  0  0  0  0  0  0  0  0  0  0  0
   -1.6772    1.5726   -3.2229 H   0  0  0  0  0  0  0  0  0  0  0  0
   -4.7505    1.2205   -2.0012 C   0  0  0  0  0  0  0  0  0  0  0  0
   -5.4851    1.1240   -1.1786 H   0  0  0  0  0  0  0  0  0  0  0  0
   -5.2258    0.8381   -2.9284 H   0  0  0  0  0  0  0  0  0  0  0  0
   -4.5423    2.2997   -2.1527 H   0  0  0  0  0  0  0  0  0  0  0  0
   -3.5227   -1.5740   -1.4348 C   0  0  0  0  0  0  0  0  0  0  0  0
   -2.6196   -2.1499   -1.1507 H   0  0  0  0  0  0  0  0  0  0  0  0
   -3.9064   -1.9928   -2.3882 H   0  0  0  0  0  0  0  0  0  0  0  0
   -4.2968   -1.7434   -0.6594 H   0  0  0  0  0  0  0  0  0  0  0  0
   -2.6600   -1.2492    2.0979 C   0  0  0  0  0  0  0  0  0  0  0  0
   -2.9827   -1.9800    1.3329 H   0  0  0  0  0  0  0  0  0  0  0  0
   -3.1790   -1.4932    3.0483 H   0  0  0  0  0  0  0  0  0  0  0  0
   -1.5754   -1.3931    2.2629 H   0  0  0  0  0  0  0  0  0  0  0  0
   -4.9312    0.7916    1.6119 C   0  0  0  0  0  0  0  0  0  0  0  0
   -5.3353    0.6417    2.6346 H   0  0  0  0  0  0  0  0  0  0  0  0
   -5.4379    0.0668    0.9433 H   0  0  0  0  0  0  0  0  0  0  0  0
   -5.2058    1.8152    1.2857 H   0  0  0  0  0  0  0  0  0  0  0  0
   -2.2681    1.6910    2.9090 C   0  0  0  0  0  0  0  0  0  0  0  0
   -1.1709    1.5327    2.9579 H   0  0  0  0  0  0  0  0  0  0  0  0
   -2.6811    1.4971    3.9204 H   0  0  0  0  0  0  0  0  0  0  0  0
   -2.4493    2.7579    2.6645 H   0  0  0  0  0  0  0  0  0  0  0  0
  1 16  1  0  0  0  0
  2 26  1  0  0  0  0
  2 16  1  0  0  0  0
  3 30  1  0  0  0  0
  3 38  1  0  0  0  0
  4 14  1  0  0  0  0
  5  1  2  0  0  0  0
  6  5  1  0  0  0  0
  7  5  1  1  0  0  0
  7  4  1  0  0  0  0
  8 10  2  0  0  0  0
  8  7  1  0  0  0  0
  9  8  1  0  0  0  0
 10 12  1  0  0  0  0
 11 10  1  0  0  0  0
 12 13  1  0  0  0  0
 12 14  2  0  0  0  0
 14 15  1  0  0  0  0
 16  3  1  0  0  0  0
 17 16  1  0  0  0  0
 18 20  1  0  0  0  0
 18  2  1  0  0  0  0
 19 18  1  0  0  0  0
 21 18  1  0  0  0  0
 22  2  1  0  0  0  0
 22 23  1  0  0  0  0
 24 22  1  0  0  0  0
 25 22  1  0  0  0  0
 26 27  1  0  0  0  0
 26 29  1  0  0  0  0
 28 26  1  0  0  0  0
 30 33  1  0  0  0  0
 30 32  1  0  0  0  0
 31 30  1  0  0  0  0
 34  3  1  0  0  0  0
 34 35  1  0  0  0  0
 36 34  1  0  0  0  0
 37 34  1  0  0  0  0
 38 39  1  0  0  0  0
 38 40  1  0  0  0  0
 41 38  1  0  0  0  0
M  END
