1,5
q = 0.0, confidence = 0.994

 54 57  0  0  1  0  0  0  0  0999 V2000
   -0.2062    0.8066    0.0369 P   0  0  0  0  0  0  0  0  0  0  0  0
    3.5505   -1.2560   -2.3133 O   0  0  0  0  0  0  0  0  0  0  0  0
    4.3899   -1.2336   -1.7847 H   0  0  0  0  0  0  0  0  0  0  0  0
    0.1944   -2.8887   -0.0905 N   0  0  0  0  0  0  0  0  0  0  0  0
   -0.9812   -2.4532    0.4334 N   0  0  0  0  0  2  0  0  0  0  0  0
    4.1919   -1.1762    0.7961 N   0  0  0  0  0  0  0  0  0  0  0  0
    5.1724   -0.8818   -0.0861 N   0  0  0  0  0  0  0  0  0  0  0  0
    1.3414   -0.1003    0.5625 C   0  0  0  0  0  0  0  0  0  0  0  0
    2.1076    0.6379    0.8791 H   0  0  0  0  0  0  0  0  0  0  0  0
    1.0157   -0.6432    1.4761 H   0  0  0  0  0  0  0  0  0  0  0  0
    0.9528   -2.0880   -1.0369 C   0  0  0  0  0  0  0  0  0  0  0  0
    1.4932   -2.7709   -1.7211 H   0  0  0  0  0  0  0  0  0  0  0  0
    0.2145   -1.5222   -1.6364 H   0  0  0  0  0  0  0  0  0  0  0  0
    3.0369   -1.9416    0.3554 C   0  0  0  0  0  0  0  0  0  0  0  0
    2.5832   -2.4102    1.2499 H   0  0  0  0  0  0  0  0  0  0  0  0
    3.4155   -2.7440   -0.3069 H   0  0  0  0  0  0  0  0  0  0  0  0
    1.9754   -1.1078   -0.4166 C   0  0  2  0  0  0  0  0  0  0  0  0
    2.6781   -0.3988   -1.6197 C   0  0  0  0  0  0  0  0  0  0  0  0
    1.9042   -0.0390   -2.3288 H   0  0  0  0  0  0  0  0  0  0  0  0
    3.1979    0.5090   -1.2363 H   0  0  0  0  0  0  0  0  0  0  0  0
    1.4238    2.8264   -1.1081 C   0  0  0  0  0  0  0  0  0  0  0  0
    1.8915    2.9026   -0.1138 H   0  0  0  0  0  0  0  0  0  0  0  0
    1.8739    3.6424   -2.1539 C   0  0  0  0  0  0  0  0  0  0  0  0
    2.7026    4.3460   -1.9817 H   0  0  0  0  0  0  0  0  0  0  0  0
    1.2649    3.5664   -3.4190 C   0  0  0  0  0  0  0  0  0  0  0  0
    1.6200    4.2084   -4.2395 H   0  0  0  0  0  0  0  0  0  0  0  0
    0.1980    2.6811   -3.6305 C   0  0  0  0  0  0  0  0  0  0  0  0
   -0.2917    2.6275   -4.6144 H   0  0  0  0  0  0  0  0  0  0  0  0
   -0.2536    1.8601   -2.5840 C   0  0  0  0  0  0  0  0  0  0  0  0
   -1.0943    1.1699   -2.7417 H   0  0  0  0  0  0  0  0  0  0  0  0
    0.3652    1.9179   -1.3225 C   0  0  0  0  0  0  0  0  0  0  0  0
    0.1747    1.8634    2.6854 C   0  0  0  0  0  0  0  0  0  0  0  0
    0.8310    1.0084    2.9014 H   0  0  0  0  0  0  0  0  0  0  0  0
   -0.0937    2.7880    3.7083 C   0  0  0  0  0  0  0  0  0  0  0  0
    0.3599    2.6465    4.7011 H   0  0  0  0  0  0  0  0  0  0  0  0
   -0.9369    3.8820    3.4690 C   0  0  0  0  0  0  0  0  0  0  0  0
   -1.1483    4.6033    4.2727 H   0  0  0  0  0  0  0  0  0  0  0  0
   -1.5161    4.0485    2.1998 C   0  0  0  0  0  0  0  0  0  0  0  0
   -2.1847    4.9005    2.0041 H   0  0  0  0  0  0  0  0  0  0  0  0
   -1.2529    3.1283    1.1776 C   0  0  0  0  0  0  0  0  0  0  0  0
   -1.7221    3.2602    0.1908 H   0  0  0  0  0  0  0  0  0  0  0  0
   -0.3997    2.0274    1.4102 C   0  0  0  0  0  0  0  0  0  0  0  0
   -1.3612   -3.3969    1.3182 C   0  0  0  0  0  3  0  0  0  0  0  0
   -2.3039   -3.2750    1.8624 H   0  0  0  0  0  0  0  0  0  0  0  0
   -0.4269   -4.4531    1.3620 C   0  0  0  0  0  0  0  0  0  0  0  0
   -0.4711   -5.3638    1.9666 H   0  0  0  0  0  0  0  0  0  0  0  0
    0.5551   -4.0930    0.4424 C   0  0  0  0  0  0  0  0  0  0  0  0
    1.4700   -4.5981    0.1155 H   0  0  0  0  0  0  0  0  0  0  0  0
    6.0488   -0.1258    0.5927 C   0  0  0  0  0  0  0  0  0  0  0  0
    6.9526    0.2423    0.0916 H   0  0  0  0  0  0  0  0  0  0  0  0
    5.6290    0.0715    1.9311 C   0  0  0  0  0  0  0  0  0  0  0  0
    6.1360    0.6282    2.7254 H   0  0  0  0  0  0  0  0  0  0  0  0
    4.4230   -0.6214    2.0226 C   0  0  0  0  0  0  0  0  0  0  0  0
    3.7281   -0.7728    2.8559 H   0  0  0  0  0  0  0  0  0  0  0  0
  1  8  1  0  0  0  0
  1 42  1  0  0  0  0
  2  3  1  0  0  0  0
  2 18  1  0  0  0  0
  4  5  1  0  0  0  0
  4 47  1  0  0  0  0
  5 43  1  0  0  0  0
  6 53  1  0  0  0  0
  7 49  2  0  0  0  0
  7  6  1  0  0  0  0
  8  9  1  0  0  0  0
  8 10  1  0  0  0  0
 11 17  1  0  0  0  0
 11  4  1  0  0  0  0
 12 11  1  0  0  0  0
 13 11  1  0  0  0  0
 14  6  1  0  0  0  0
 14 15  1  0  0  0  0
 16 14  1  0  0  0  0
 17 18  1  6  0  0  0
 17 14  1  0  0  0  0
 17  8  1  0  0  0  0
 18 20  1  0  0  0  0
 19 18  1  0  0  0  0
 21 22  1  0  0  0  0
 23 24  1  0  0  0  0
 23 21  2  0  0  0  0
 25 23  1  0  0  0  0
 26 25  1  0  0  0  0
 27 25  2  0  0  0  0
 27 29  1  0  0  0  0
 28 27  1  0  0  0  0
 29 31  2  0  0  0  0
 30 29  1  0  0  0  0
 31 21  1  0  0  0  0
 31  1  1  0  0  0  0
 32 33  1  0  0  0  0
 32 34  1  0  0  0  0
 34 35  1  0  0  0  0
 36 34  2  0  0  0  0
 36 37  1  0  0  0  0
 38 36  1  0  0  0  0
 39 38  1  0  0  0  0
 40 42  1  0  0  0  0
 40 38  2  0  0  0  0
 41 40  1  0  0  0  0
 42 32  2  0  0  0  0
 43 45  1  0  0  0  0
 43 44  1  0  0  0  0
 45 46  1  0  0  0  0
 47 45  2  0  0  0  0
 48 47  1  0  0  0  0
 49 51  1  0  0  0  0
 50 49  1  0  0  0  0
 51 53  2  0  0  0  0
 51 52  1  0  0  0  0
 53 54  1  0  0  0  0
M  END
