1,2
q = -1.0, confidence = 0.0

 38 40  0  0  0  0  0  0  0  0999 V2000
   -1.7119    0.3354   -0.5309 P   0  0  0  0  0  0  0  0  0  0  0  0
   -0.2598    1.6849    1.4127 N   0  0  0  0  0  2  0  0  0  0  0  0
   -2.5428    1.3816    0.6934 C   0  0  0  0  0  0  0  0  0  0  0  0
    0.6777    2.3705    2.2846 C   0  0  0  0  0  0  0  0  0  0  0  0
    0.6569    3.4763    2.1472 H   0  0  0  0  0  0  0  0  0  0  0  0
    1.7187    2.0502    2.0654 H   0  0  0  0  0  0  0  0  0  0  0  0
    0.4970    2.1538    3.3646 H   0  0  0  0  0  0  0  0  0  0  0  0
   -3.8299   -0.7787   -2.0667 C   0  0  0  0  0  0  0  0  0  0  0  0
   -3.8401    0.1608   -2.6399 H   0  0  0  0  0  0  0  0  0  0  0  0
   -1.4415    1.4144   -1.9976 C   0  0  0  0  0  0  0  0  0  0  0  0
   -1.1247    0.8473   -3.2524 C   0  0  0  0  0  0  0  0  0  0  0  0
   -1.1692   -0.2432   -3.3929 H   0  0  0  0  0  0  0  0  0  0  0  0
   -3.9203    1.5979    0.8117 C   0  0  0  0  0  0  0  0  0  0  0  0
   -4.6098    1.0894    0.1196 H   0  0  0  0  0  0  0  0  0  0  0  0
   -2.8786   -2.1690   -0.3000 C   0  0  0  0  0  0  0  0  0  0  0  0
   -2.1534   -2.3147    0.5141 H   0  0  0  0  0  0  0  0  0  0  0  0
   -2.8898   -0.9638   -1.0320 C   0  0  0  0  0  0  0  0  0  0  0  0
   -4.7473   -1.7975   -2.3667 C   0  0  0  0  0  0  0  0  0  0  0  0
   -5.4786   -1.6516   -3.1762 H   0  0  0  0  0  0  0  0  0  0  0  0
   -4.7343   -2.9971   -1.6363 C   0  0  0  0  0  0  0  0  0  0  0  0
   -5.4544   -3.7942   -1.8764 H   0  0  0  0  0  0  0  0  0  0  0  0
   -4.4125    2.4534    1.8118 C   0  0  0  0  0  0  0  0  0  0  0  0
   -5.4936    2.6252    1.9155 H   0  0  0  0  0  0  0  0  0  0  0  0
   -1.6015    1.9959    1.5761 C   0  0  0  0  0  0  0  0  0  0  0  0
   -3.8022   -3.1792   -0.6018 C   0  0  0  0  0  0  0  0  0  0  0  0
   -3.7865   -4.1150   -0.0230 H   0  0  0  0  0  0  0  0  0  0  0  0
   -1.3870    2.8158   -1.8412 C   0  0  0  0  0  0  0  0  0  0  0  0
   -1.6356    3.2646   -0.8678 H   0  0  0  0  0  0  0  0  0  0  0  0
   -2.1185    2.8747    2.5652 C   0  0  0  0  0  0  0  0  0  0  0  0
   -1.4398    3.3845    3.2617 H   0  0  0  0  0  0  0  0  0  0  0  0
   -3.5013    3.0873    2.6729 C   0  0  0  0  0  0  0  0  0  0  0  0
   -3.8748    3.7643    3.4571 H   0  0  0  0  0  0  0  0  0  0  0  0
   -0.7647    1.6701   -4.3295 C   0  0  0  0  0  0  0  0  0  0  0  0
   -0.5274    1.2170   -5.3040 H   0  0  0  0  0  0  0  0  0  0  0  0
   -0.7046    3.0633   -4.1650 C   0  0  0  0  0  0  0  0  0  0  0  0
   -0.4151    3.7067   -5.0095 H   0  0  0  0  0  0  0  0  0  0  0  0
   -1.0188    3.6321   -2.9204 C   0  0  0  0  0  0  0  0  0  0  0  0
   -0.9798    4.7238   -2.7867 H   0  0  0  0  0  0  0  0  0  0  0  0
  1  3  1  0  0  0  0
  2 24  1  0  0  0  0
  2  4  1  0  0  0  0
  3 13  2  0  0  0  0
  3 24  1  0  0  0  0
  4  7  1  0  0  0  0
  5  4  1  0  0  0  0
  6  4  1  0  0  0  0
  8 17  1  0  0  0  0
  9  8  1  0  0  0  0
 10 27  1  0  0  0  0
 10  1  1  0  0  0  0
 11 10  2  0  0  0  0
 12 11  1  0  0  0  0
 13 22  1  0  0  0  0
 14 13  1  0  0  0  0
 15 16  1  0  0  0  0
 17  1  1  0  0  0  0
 17 15  2  0  0  0  0
 18  8  2  0  0  0  0
 18 20  1  0  0  0  0
 19 18  1  0  0  0  0
 20 25  2  0  0  0  0
 21 20  1  0  0  0  0
 22 23  1  0  0  0  0
 22 31  2  0  0  0  0
 24 29  2  0  0  0  0
 25 15  1  0  0  0  0
 25 26  1  0  0  0  0
 27 28  1  0  0  0  0
 29 31  1  0  0  0  0
 29 30  1  0  0  0  0
 31 32  1  0  0  0  0
 33 35  2  0  0  0  0
 33 11  1  0  0  0  0
 34 33  1  0  0  0  0
 35 37  1  0  0  0  0
 36 35  1  0  0  0  0
 37 38  1  0  0  0  0
 37 27  2  0  0  0  0
M  END
