1,21
q = 0.0, confidence = 0.998

 57 60  0  0  1  0  0  0  0  0999 V2000
    1.5804   -0.0642   -0.0668 P   0  0  0  0  0  0  0  0  0  0  0  0
    2.9170   -1.0126   -0.8517 C   0  0  0  0  0  0  0  0  0  0  0  0
    3.9963   -1.5030   -0.0910 C   0  0  0  0  0  0  0  0  0  0  0  0
    5.0485   -2.1719   -0.7364 C   0  0  0  0  0  0  0  0  0  0  0  0
    5.0224   -2.3508   -2.1276 C   0  0  0  0  0  0  0  0  0  0  0  0
    3.9408   -1.8644   -2.8830 C   0  0  0  0  0  0  0  0  0  0  0  0
    2.8849   -1.1991   -2.2497 C   0  0  0  0  0  0  0  0  0  0  0  0
    1.7536   -0.2392    1.7419 C   0  0  0  0  0  0  0  0  0  0  0  0
    2.1995    0.8219    2.5555 C   0  0  0  0  0  0  0  0  0  0  0  0
    2.3054    0.6337    3.9421 C   0  0  0  0  0  0  0  0  0  0  0  0
    1.9705   -0.6034    4.5145 C   0  0  0  0  0  0  0  0  0  0  0  0
    1.5243   -1.6597    3.7016 C   0  0  0  0  0  0  0  0  0  0  0  0
    1.4056   -1.4826    2.3169 C   0  0  0  0  0  0  0  0  0  0  0  0
    1.9471    1.6822   -0.4596 C   0  0  0  0  0  0  0  0  0  0  0  0
    0.9209    2.6695   -0.4308 C   0  0  0  0  0  0  0  0  0  0  0  0
    1.2716    4.0258   -0.6415 C   0  0  0  0  0  0  0  0  0  0  0  0
    2.5940    4.3979   -0.9039 C   0  0  0  0  0  0  0  0  0  0  0  0
    3.5960    3.4164   -0.9530 C   0  0  0  0  0  0  0  0  0  0  0  0
    3.2722    2.0678   -0.7284 C   0  0  0  0  0  0  0  0  0  0  0  0
   -0.4866    2.3841   -0.2074 C   0  0  0  0  0  3  0  0  0  0  0  0
   -1.0679    1.2150   -0.1758 N   0  0  0  0  0  2  0  0  0  0  0  0
   -2.5198    1.1911    0.1587 C   0  0  1  0  0  0  0  0  0  0  0  0
   -3.1755    0.1634   -0.7884 C   0  0  1  0  0  0  0  0  0  0  0  0
   -2.3649   -1.0162   -0.5725 O   0  0  0  0  0  0  0  0  0  0  0  0
   -4.6415   -0.0968   -0.5460 C   0  0  0  0  0  0  0  0  0  0  0  0
   -5.6001    0.6948   -1.2078 C   0  0  0  0  0  0  0  0  0  0  0  0
   -6.9667    0.5012   -0.9625 C   0  0  0  0  0  0  0  0  0  0  0  0
   -7.3854   -0.4941   -0.0648 C   0  0  0  0  0  0  0  0  0  0  0  0
   -6.4340   -1.2942    0.5873 C   0  0  0  0  0  0  0  0  0  0  0  0
   -5.0653   -1.0948    0.3538 C   0  0  0  0  0  0  0  0  0  0  0  0
   -2.6993    0.8842    1.6464 C   0  0  0  0  0  0  0  0  0  0  0  0
    4.0155   -1.3657    1.0002 H   0  0  0  0  0  0  0  0  0  0  0  0
    5.8914   -2.5579   -0.1442 H   0  0  0  0  0  0  0  0  0  0  0  0
    5.8470   -2.8795   -2.6285 H   0  0  0  0  0  0  0  0  0  0  0  0
    3.9158   -2.0153   -3.9723 H   0  0  0  0  0  0  0  0  0  0  0  0
    2.0258   -0.8403   -2.8363 H   0  0  0  0  0  0  0  0  0  0  0  0
    2.4722    1.7898    2.1094 H   0  0  0  0  0  0  0  0  0  0  0  0
    2.6573    1.4597    4.5780 H   0  0  0  0  0  0  0  0  0  0  0  0
    2.0570   -0.7461    5.6020 H   0  0  0  0  0  0  0  0  0  0  0  0
    1.2613   -2.6294    4.1500 H   0  0  0  0  0  0  0  0  0  0  0  0
    1.0450   -2.3026    1.6753 H   0  0  0  0  0  0  0  0  0  0  0  0
    0.4821    4.7926   -0.6099 H   0  0  0  0  0  0  0  0  0  0  0  0
    2.8435    5.4552   -1.0751 H   0  0  0  0  0  0  0  0  0  0  0  0
    4.6386    3.6977   -1.1626 H   0  0  0  0  0  0  0  0  0  0  0  0
    4.0630    1.3038   -0.7582 H   0  0  0  0  0  0  0  0  0  0  0  0
   -1.1309    3.2732   -0.0608 H   0  0  0  0  0  0  0  0  0  0  0  0
   -2.9571    2.1859   -0.0719 H   0  0  0  0  0  0  0  0  0  0  0  0
   -3.0274    0.5246   -1.8308 H   0  0  0  0  0  0  0  0  0  0  0  0
   -2.5648   -1.7515   -1.1908 H   0  0  0  0  0  0  0  0  0  0  0  0
   -5.2755    1.4638   -1.9274 H   0  0  0  0  0  0  0  0  0  0  0  0
   -7.7097    1.1227   -1.4841 H   0  0  0  0  0  0  0  0  0  0  0  0
   -8.4582   -0.6520    0.1207 H   0  0  0  0  0  0  0  0  0  0  0  0
   -6.7594   -2.0811    1.2839 H   0  0  0  0  0  0  0  0  0  0  0  0
   -4.3195   -1.7233    0.8626 H   0  0  0  0  0  0  0  0  0  0  0  0
   -2.1859    1.6523    2.2559 H   0  0  0  0  0  0  0  0  0  0  0  0
   -2.2738   -0.1046    1.9061 H   0  0  0  0  0  0  0  0  0  0  0  0
   -3.7742    0.8854    1.9089 H   0  0  0  0  0  0  0  0  0  0  0  0
  1  8  1  0  0  0  0
  2  3  1  0  0  0  0
  2  1  1  0  0  0  0
  3 32  1  0  0  0  0
  4 33  1  0  0  0  0
  4  3  2  0  0  0  0
  5  4  1  0  0  0  0
  6  7  1  0  0  0  0
  6  5  2  0  0  0  0
  7  2  2  0  0  0  0
  8 13  2  0  0  0  0
  8  9  1  0  0  0  0
  9 10  2  0  0  0  0
 10 11  1  0  0  0  0
 10 38  1  0  0  0  0
 11 39  1  0  0  0  0
 12 40  1  0  0  0  0
 12 11  2  0  0  0  0
 13 12  1  0  0  0  0
 14 15  1  0  0  0  0
 14  1  1  0  0  0  0
 15 20  1  0  0  0  0
 16 42  1  0  0  0  0
 16 15  2  0  0  0  0
 17 16  1  0  0  0  0
 18 17  2  0  0  0  0
 18 19  1  0  0  0  0
 19 14  2  0  0  0  0
 20 21  1  0  0  0  0
 20 46  1  0  0  0  0
 21 22  1  0  0  0  0
 22 47  1  6  0  0  0
 22 31  1  0  0  0  0
 23 48  1  6  0  0  0
 23 24  1  0  0  0  0
 23 25  1  0  0  0  0
 23 22  1  0  0  0  0
 25 30  1  0  0  0  0
 26 27  1  0  0  0  0
 26 25  2  0  0  0  0
 27 28  2  0  0  0  0
 28 52  1  0  0  0  0
 28 29  1  0  0  0  0
 29 53  1  0  0  0  0
 30 29  2  0  0  0  0
 30 54  1  0  0  0  0
 31 56  1  0  0  0  0
 31 57  1  0  0  0  0
 31 55  1  0  0  0  0
 34  5  1  0  0  0  0
 35  6  1  0  0  0  0
 36  7  1  0  0  0  0
 37  9  1  0  0  0  0
 41 13  1  0  0  0  0
 43 17  1  0  0  0  0
 44 18  1  0  0  0  0
 45 19  1  0  0  0  0
 49 24  1  0  0  0  0
 50 26  1  0  0  0  0
 51 27  1  0  0  0  0
M  END
