1,3
q = 0.0, confidence = 0.996

 38 40  0  0  1  0  0  0  0  0999 V2000
    0.6654   -0.5489    0.0410 P   0  0  0  0  0  0  0  0  0  0  0  0
   -1.0164   -1.0936    0.0439 N   0  0  0  0  0  0  0  0  0  0  0  0
   -1.7246    1.1068   -0.0670 N   0  0  0  0  0  2  0  0  0  0  0  0
   -6.0902   -1.6183   -0.2054 N   0  0  0  0  0  0  0  0  0  0  0  0
   -2.0279   -0.1668   -0.0308 C   0  0  1  0  0  3  0  0  0  0  0  0
   -3.4213   -0.6753   -0.0862 C   0  0  0  0  0  0  0  0  0  0  0  0
   -3.7407   -1.8900   -0.7287 C   0  0  0  0  0  0  0  0  0  0  0  0
   -5.0803   -2.3063   -0.7605 C   0  0  0  0  0  0  0  0  0  0  0  0
   -5.7824   -0.4629    0.4070 C   0  0  0  0  0  0  0  0  0  0  0  0
   -4.4809    0.0511    0.4961 C   0  0  0  0  0  0  0  0  0  0  0  0
    1.4329   -1.5634   -1.2869 C   0  0  0  0  0  0  0  0  0  0  0  0
    2.2959   -0.9348   -2.2046 C   0  0  0  0  0  0  0  0  0  0  0  0
    2.8980   -1.6822   -3.2295 C   0  0  0  0  0  0  0  0  0  0  0  0
    2.6345   -3.0549   -3.3470 C   0  0  0  0  0  0  0  0  0  0  0  0
    1.7770   -3.6882   -2.4302 C   0  0  0  0  0  0  0  0  0  0  0  0
    1.1846   -2.9480   -1.3987 C   0  0  0  0  0  0  0  0  0  0  0  0
    1.2876   -1.3722    1.5648 C   0  0  0  0  0  0  0  0  0  0  0  0
    2.5703   -1.9553    1.5992 C   0  0  0  0  0  0  0  0  0  0  0  0
    3.0704   -2.4813    2.8000 C   0  0  0  0  0  0  0  0  0  0  0  0
    2.2961   -2.4326    3.9697 C   0  0  0  0  0  0  0  0  0  0  0  0
    1.0188   -1.8493    3.9397 C   0  0  0  0  0  0  0  0  0  0  0  0
    0.5178   -1.3140    2.7451 C   0  0  0  0  0  0  0  0  0  0  0  0
   -1.2757   -2.0592    0.2581 H   0  0  0  0  0  0  0  0  0  0  0  0
   -2.5434    1.7076   -0.2044 H   0  0  0  0  0  0  0  0  0  0  0  0
   -2.9632   -2.4862   -1.2300 H   0  0  0  0  0  0  0  0  0  0  0  0
   -5.3494   -3.2486   -1.2705 H   0  0  0  0  0  0  0  0  0  0  0  0
   -6.6221    0.0886    0.8660 H   0  0  0  0  0  0  0  0  0  0  0  0
   -4.2904    0.9906    1.0370 H   0  0  0  0  0  0  0  0  0  0  0  0
    2.4946    0.1431   -2.1088 H   0  0  0  0  0  0  0  0  0  0  0  0
    3.5726   -1.1844   -3.9419 H   0  0  0  0  0  0  0  0  0  0  0  0
    3.1015   -3.6385   -4.1548 H   0  0  0  0  0  0  0  0  0  0  0  0
    1.5751   -4.7667   -2.5172 H   0  0  0  0  0  0  0  0  0  0  0  0
    0.5356   -3.4588   -0.6695 H   0  0  0  0  0  0  0  0  0  0  0  0
    3.1796   -2.0001    0.6839 H   0  0  0  0  0  0  0  0  0  0  0  0
    4.0731   -2.9344    2.8197 H   0  0  0  0  0  0  0  0  0  0  0  0
    2.6904   -2.8473    4.9097 H   0  0  0  0  0  0  0  0  0  0  0  0
    0.4105   -1.8027    4.8555 H   0  0  0  0  0  0  0  0  0  0  0  0
   -0.4768   -0.8422    2.7295 H   0  0  0  0  0  0  0  0  0  0  0  0
  1  2  1  0  0  0  0
  1 17  1  0  0  0  0
  2 23  1  0  0  0  0
  4  9  1  0  0  0  0
  5  3  1  6  0  0  0
  5  2  1  0  0  0  0
  6  5  1  0  0  0  0
  6 10  1  0  0  0  0
  7  6  2  0  0  0  0
  8  7  1  0  0  0  0
  8  4  2  0  0  0  0
  9 10  2  0  0  0  0
  9 27  1  0  0  0  0
 10 28  1  0  0  0  0
 11  1  1  0  0  0  0
 12 29  1  0  0  0  0
 12 11  2  0  0  0  0
 13 12  1  0  0  0  0
 14 13  2  0  0  0  0
 14 15  1  0  0  0  0
 15 16  2  0  0  0  0
 16 11  1  0  0  0  0
 16 33  1  0  0  0  0
 17 18  2  0  0  0  0
 17 22  1  0  0  0  0
 18 19  1  0  0  0  0
 19 35  1  0  0  0  0
 19 20  2  0  0  0  0
 20 36  1  0  0  0  0
 21 20  1  0  0  0  0
 21 37  1  0  0  0  0
 22 21  2  0  0  0  0
 24  3  1  0  0  0  0
 25  7  1  0  0  0  0
 26  8  1  0  0  0  0
 30 13  1  0  0  0  0
 31 14  1  0  0  0  0
 32 15  1  0  0  0  0
 34 18  1  0  0  0  0
 38 22  1  0  0  0  0
M  END
