1,3
q = 0.0, confidence = 0.992

 33 35  0  0  1  0  0  0  0  0999 V2000
    1.6955    0.0778   -0.1081 P   0  0  0  0  0  0  0  0  0  0  0  0
    2.5950   -1.4748   -0.5646 C   0  0  1  0  0  3  0  0  0  0  0  0
    1.5485   -2.3365   -0.7369 N   0  0  0  0  0  2  0  0  0  0  0  0
    1.7713   -3.6048   -1.1274 C   0  0  0  0  0  0  0  0  0  0  0  0
    3.0808   -4.0590   -1.3510 C   0  0  0  0  0  0  0  0  0  0  0  0
    4.1637   -3.1809   -1.1894 C   0  0  0  0  0  0  0  0  0  0  0  0
    3.9169   -1.8498   -0.7938 C   0  0  0  0  0  0  0  0  0  0  0  0
    1.9923    0.2931    1.6938 C   0  0  0  0  0  0  0  0  0  0  0  0
    2.8178   -0.5755    2.4352 C   0  0  0  0  0  0  0  0  0  0  0  0
    2.8872   -0.4647    3.8333 C   0  0  0  0  0  0  0  0  0  0  0  0
    2.1314    0.5087    4.5042 C   0  0  0  0  0  0  0  0  0  0  0  0
    1.3083    1.3788    3.7698 C   0  0  0  0  0  0  0  0  0  0  0  0
    1.2358    1.2726    2.3745 C   0  0  0  0  0  0  0  0  0  0  0  0
    2.5605    1.4866   -0.9089 C   0  0  0  0  0  0  0  0  0  0  0  0
    2.5087    1.5816   -2.3182 C   0  0  0  0  0  0  0  0  0  0  0  0
    3.0995    2.6783   -2.9616 C   0  0  0  0  0  0  0  0  0  0  0  0
    3.7356    3.6849   -2.2149 C   0  0  0  0  0  0  0  0  0  0  0  0
    3.7850    3.5905   -0.8152 C   0  0  0  0  0  0  0  0  0  0  0  0
    3.2011    2.4953   -0.1603 C   0  0  0  0  0  0  0  0  0  0  0  0
    4.7283   -1.1172   -0.6738 H   0  0  0  0  0  0  0  0  0  0  0  0
    4.1944    4.5455   -2.7257 H   0  0  0  0  0  0  0  0  0  0  0  0
    2.1827    0.5895    5.6006 H   0  0  0  0  0  0  0  0  0  0  0  0
    4.2833    4.3748   -0.2249 H   0  0  0  0  0  0  0  0  0  0  0  0
    0.8634   -4.2139   -1.2724 H   0  0  0  0  0  0  0  0  0  0  0  0
    3.2399    2.4290    0.9368 H   0  0  0  0  0  0  0  0  0  0  0  0
    0.7097    2.1442    4.2870 H   0  0  0  0  0  0  0  0  0  0  0  0
    5.1921   -3.5225   -1.3805 H   0  0  0  0  0  0  0  0  0  0  0  0
    0.5780    1.9491    1.8091 H   0  0  0  0  0  0  0  0  0  0  0  0
    3.4045   -1.3497    1.9184 H   0  0  0  0  0  0  0  0  0  0  0  0
    3.2423   -5.0984   -1.6718 H   0  0  0  0  0  0  0  0  0  0  0  0
    1.9691    0.8059   -2.8896 H   0  0  0  0  0  0  0  0  0  0  0  0
    3.5359   -1.1487    4.4017 H   0  0  0  0  0  0  0  0  0  0  0  0
    3.0550    2.7492   -4.0593 H   0  0  0  0  0  0  0  0  0  0  0  0
  1  8  1  0  0  0  0
  2  1  1  6  0  0  0
  3  2  1  0  0  0  0
  4  3  1  0  0  0  0
  5  6  1  0  0  0  0
  5  4  2  0  0  0  0
  6  7  2  0  0  0  0
  7 20  1  0  0  0  0
  7  2  1  0  0  0  0
  8 13  2  0  0  0  0
  8  9  1  0  0  0  0
  9 10  2  0  0  0  0
 10 32  1  0  0  0  0
 10 11  1  0  0  0  0
 11 22  1  0  0  0  0
 12 26  1  0  0  0  0
 12 11  2  0  0  0  0
 13 12  1  0  0  0  0
 14 19  1  0  0  0  0
 14  1  1  0  0  0  0
 15 14  2  0  0  0  0
 16 15  1  0  0  0  0
 16 17  2  0  0  0  0
 17 18  1  0  0  0  0
 18 23  1  0  0  0  0
 18 19  2  0  0  0  0
 19 25  1  0  0  0  0
 21 17  1  0  0  0  0
 24  4  1  0  0  0  0
 27  6  1  0  0  0  0
 28 13  1  0  0  0  0
 29  9  1  0  0  0  0
 30  5  1  0  0  0  0
 31 15  1  0  0  0  0
 33 16  1  0  0  0  0
M  END
