4,7
q = 0.0, confidence = 1.0

 53 55  0  0  1  0  0  0  0  0999 V2000
    0.0729    0.7905   -1.9104 C   0  0  0  0  0  0  0  0  0  0  0  0
    0.3714   -0.0595   -2.5653 H   0  0  0  0  0  0  0  0  0  0  0  0
   -0.6503    1.4048   -2.4806 H   0  0  0  0  0  0  0  0  0  0  0  0
   -0.7592    0.0580   -0.4154 P   0  0  0  0  0  0  0  0  0  0  0  0
    1.2191    1.6260   -1.5658 N   0  0  0  0  0  0  0  0  0  0  0  0
    2.4180    0.9985   -1.2505 C   0  0  1  0  0  3  0  0  0  0  0  0
    2.3933   -0.1031   -0.4392 N   0  0  0  0  0  2  0  0  0  0  0  0
    3.5310   -0.8294   -0.2776 C   0  0  0  0  0  0  0  0  0  0  0  0
    3.4404   -1.6993    0.3866 H   0  0  0  0  0  0  0  0  0  0  0  0
    4.7555   -0.4555   -0.8292 C   0  0  0  0  0  0  0  0  0  0  0  0
    5.6423   -1.0786   -0.6522 H   0  0  0  0  0  0  0  0  0  0  0  0
    4.8175    0.7376   -1.5636 C   0  0  0  0  0  0  0  0  0  0  0  0
    5.7685    1.0894   -1.9917 H   0  0  0  0  0  0  0  0  0  0  0  0
    3.6477    1.4634   -1.7839 C   0  0  0  0  0  0  0  0  0  0  0  0
    3.6678    2.3649   -2.4075 H   0  0  0  0  0  0  0  0  0  0  0  0
    1.2504    2.9529   -2.1546 C   0  0  0  0  0  0  0  0  0  0  0  0
    1.9548    3.5999   -1.5976 H   0  0  0  0  0  0  0  0  0  0  0  0
    0.2449    3.4083   -2.0670 H   0  0  0  0  0  0  0  0  0  0  0  0
    1.5395    2.9575   -3.2332 H   0  0  0  0  0  0  0  0  0  0  0  0
   -1.7739   -1.3253   -1.1469 C   0  0  0  0  0  0  0  0  0  0  0  0
   -2.1700   -0.9393   -2.1167 H   0  0  0  0  0  0  0  0  0  0  0  0
   -0.8525   -2.5315   -1.4253 C   0  0  0  0  0  0  0  0  0  0  0  0
   -0.0061   -2.2411   -2.0835 H   0  0  0  0  0  0  0  0  0  0  0  0
   -0.3974   -2.8422   -0.4589 H   0  0  0  0  0  0  0  0  0  0  0  0
   -1.6288   -3.7044   -2.0378 C   0  0  0  0  0  0  0  0  0  0  0  0
   -0.9430   -4.5622   -2.1983 H   0  0  0  0  0  0  0  0  0  0  0  0
   -2.0077   -3.4126   -3.0438 H   0  0  0  0  0  0  0  0  0  0  0  0
   -2.8086   -4.1135   -1.1483 C   0  0  0  0  0  0  0  0  0  0  0  0
   -3.3800   -4.9417   -1.6171 H   0  0  0  0  0  0  0  0  0  0  0  0
   -2.4169   -4.5055   -0.1836 H   0  0  0  0  0  0  0  0  0  0  0  0
   -3.7271   -2.9186   -0.8678 C   0  0  0  0  0  0  0  0  0  0  0  0
   -4.5545   -3.2142   -0.1897 H   0  0  0  0  0  0  0  0  0  0  0  0
   -4.2044   -2.5922   -1.8201 H   0  0  0  0  0  0  0  0  0  0  0  0
   -2.9582   -1.7403   -0.2540 C   0  0  0  0  0  0  0  0  0  0  0  0
   -2.5605   -2.0117    0.7475 H   0  0  0  0  0  0  0  0  0  0  0  0
   -3.6461   -0.8845   -0.0953 H   0  0  0  0  0  0  0  0  0  0  0  0
   -1.9209    1.3541    0.2272 C   0  0  0  0  0  0  0  0  0  0  0  0
   -2.4725    0.7930    1.0142 H   0  0  0  0  0  0  0  0  0  0  0  0
   -2.9144    1.9045   -0.8084 C   0  0  0  0  0  0  0  0  0  0  0  0
   -2.3586    2.4215   -1.6240 H   0  0  0  0  0  0  0  0  0  0  0  0
   -3.4865    1.0830   -1.2886 H   0  0  0  0  0  0  0  0  0  0  0  0
   -3.8760    2.9115   -0.1574 C   0  0  0  0  0  0  0  0  0  0  0  0
   -4.5679    3.3220   -0.9226 H   0  0  0  0  0  0  0  0  0  0  0  0
   -4.5089    2.3747    0.5837 H   0  0  0  0  0  0  0  0  0  0  0  0
   -3.1152    4.0404    0.5492 C   0  0  0  0  0  0  0  0  0  0  0  0
   -3.8277    4.7384    1.0363 H   0  0  0  0  0  0  0  0  0  0  0  0
   -2.5640    4.6391   -0.2121 H   0  0  0  0  0  0  0  0  0  0  0  0
   -2.1175    3.4854    1.5736 C   0  0  0  0  0  0  0  0  0  0  0  0
   -2.6732    2.9749    2.3911 H   0  0  0  0  0  0  0  0  0  0  0  0
   -1.5481    4.3095    2.0513 H   0  0  0  0  0  0  0  0  0  0  0  0
   -1.1478    2.4814    0.9378 C   0  0  0  0  0  0  0  0  0  0  0  0
   -0.4805    2.0372    1.7040 H   0  0  0  0  0  0  0  0  0  0  0  0
   -0.4919    3.0057    0.2080 H   0  0  0  0  0  0  0  0  0  0  0  0
  1  5  1  0  0  0  0
  1  4  1  0  0  0  0
  2  1  1  0  0  0  0
  3  1  1  0  0  0  0
  4 37  1  0  0  0  0
  6  5  1  6  0  0  0
  6  7  1  0  0  0  0
  7  8  1  0  0  0  0
  8  9  1  0  0  0  0
 10 11  1  0  0  0  0
 10  8  2  0  0  0  0
 12 10  1  0  0  0  0
 13 12  1  0  0  0  0
 14 12  2  0  0  0  0
 14  6  1  0  0  0  0
 15 14  1  0  0  0  0
 16 18  1  0  0  0  0
 16 17  1  0  0  0  0
 16  5  1  0  0  0  0
 19 16  1  0  0  0  0
 20  4  1  0  0  0  0
 20 34  1  0  0  0  0
 21 20  1  0  0  0  0
 22 20  1  0  0  0  0
 22 24  1  0  0  0  0
 23 22  1  0  0  0  0
 25 22  1  0  0  0  0
 25 28  1  0  0  0  0
 26 25  1  0  0  0  0
 27 25  1  0  0  0  0
 28 31  1  0  0  0  0
 28 30  1  0  0  0  0
 29 28  1  0  0  0  0
 31 34  1  0  0  0  0
 31 32  1  0  0  0  0
 33 31  1  0  0  0  0
 34 36  1  0  0  0  0
 34 35  1  0  0  0  0
 37 51  1  0  0  0  0
 37 38  1  0  0  0  0
 39 42  1  0  0  0  0
 39 37  1  0  0  0  0
 40 39  1  0  0  0  0
 41 39  1  0  0  0  0
 42 45  1  0  0  0  0
 42 44  1  0  0  0  0
 43 42  1  0  0  0  0
 45 46  1  0  0  0  0
 45 48  1  0  0  0  0
 47 45  1  0  0  0  0
 48 50  1  0  0  0  0
 48 49  1  0  0  0  0
 51 48  1  0  0  0  0
 51 52  1  0  0  0  0
 53 51  1  0  0  0  0
M  END
