1,2
q = 0.0, confidence = 0.994

 45 49  0  0  1  0  0  0  0  0999 V2000
    0.3600    0.9312    0.1156 P   0  0  0  0  0  0  0  0  0  0  0  0
   -1.9952   -0.5800   -0.3946 N   0  0  0  0  0  2  0  0  0  0  0  0
   -2.9448   -1.4262   -0.7521 C   0  0  0  0  0  0  0  0  0  0  0  0
   -2.6000   -2.2661   -1.3880 H   0  0  0  0  0  0  0  0  0  0  0  0
   -4.3152   -1.2958   -0.3604 C   0  0  0  0  0  0  0  0  0  0  0  0
   -5.2796   -2.2480   -0.7863 C   0  0  0  0  0  0  0  0  0  0  0  0
   -4.9509   -3.0871   -1.4182 H   0  0  0  0  0  0  0  0  0  0  0  0
   -6.6105   -2.1145   -0.4078 C   0  0  0  0  0  0  0  0  0  0  0  0
   -7.3575   -2.8517   -0.7374 H   0  0  0  0  0  0  0  0  0  0  0  0
   -7.0042   -1.0247    0.4049 C   0  0  0  0  0  0  0  0  0  0  0  0
   -8.0582   -0.9204    0.7034 H   0  0  0  0  0  0  0  0  0  0  0  0
   -6.0721   -0.0804    0.8326 C   0  0  0  0  0  0  0  0  0  0  0  0
   -6.4054    0.7557    1.4632 H   0  0  0  0  0  0  0  0  0  0  0  0
   -4.7093   -0.1922    0.4625 C   0  0  0  0  0  0  0  0  0  0  0  0
   -3.6702    0.7434    0.8642 C   0  0  0  0  0  0  0  0  0  0  0  0
   -2.3314    0.5063    0.4194 C   0  0  2  0  0  3  0  0  0  0  0  0
   -1.2856    1.3902    0.8009 C   0  0  0  0  0  0  0  0  0  0  0  0
   -1.5571    2.5064    1.5917 C   0  0  0  0  0  0  0  0  0  0  0  0
   -0.7426    3.1927    1.8698 H   0  0  0  0  0  0  0  0  0  0  0  0
   -2.8759    2.7492    2.0320 C   0  0  0  0  0  0  0  0  0  0  0  0
   -3.0912    3.6278    2.6582 H   0  0  0  0  0  0  0  0  0  0  0  0
   -3.9077    1.8826    1.6760 C   0  0  0  0  0  0  0  0  0  0  0  0
   -4.9272    2.0897    2.0305 H   0  0  0  0  0  0  0  0  0  0  0  0
    1.4895    0.8327    1.5481 C   0  0  0  0  0  0  0  0  0  0  0  0
    1.0008    0.5646    2.8427 C   0  0  0  0  0  0  0  0  0  0  0  0
   -0.0835    0.5417    3.0282 H   0  0  0  0  0  0  0  0  0  0  0  0
    1.8947    0.3101    3.8929 C   0  0  0  0  0  0  0  0  0  0  0  0
    1.5051    0.1003    4.9007 H   0  0  0  0  0  0  0  0  0  0  0  0
    3.2783    0.3090    3.6572 C   0  0  0  0  0  0  0  0  0  0  0  0
    3.9775    0.0940    4.4794 H   0  0  0  0  0  0  0  0  0  0  0  0
    3.7688    0.5719    2.3683 C   0  0  0  0  0  0  0  0  0  0  0  0
    4.8509    0.5533    2.1715 H   0  0  0  0  0  0  0  0  0  0  0  0
    2.8826    0.8325    1.3151 C   0  0  0  0  0  0  0  0  0  0  0  0
    3.2743    1.0096    0.3020 H   0  0  0  0  0  0  0  0  0  0  0  0
    0.8524    2.4306   -0.8223 C   0  0  0  0  0  0  0  0  0  0  0  0
    0.3940    2.5268   -2.1520 C   0  0  0  0  0  0  0  0  0  0  0  0
   -0.1838    1.6916   -2.5809 H   0  0  0  0  0  0  0  0  0  0  0  0
    0.6764    3.6694   -2.9125 C   0  0  0  0  0  0  0  0  0  0  0  0
    0.3175    3.7385   -3.9506 H   0  0  0  0  0  0  0  0  0  0  0  0
    1.4261    4.7176   -2.3529 C   0  0  0  0  0  0  0  0  0  0  0  0
    1.6554    5.6115   -2.9527 H   0  0  0  0  0  0  0  0  0  0  0  0
    1.8881    4.6224   -1.0306 C   0  0  0  0  0  0  0  0  0  0  0  0
    2.4788    5.4412   -0.5924 H   0  0  0  0  0  0  0  0  0  0  0  0
    1.6024    3.4826   -0.2625 C   0  0  0  0  0  0  0  0  0  0  0  0
    1.9719    3.4059    0.7714 H   0  0  0  0  0  0  0  0  0  0  0  0
  1 17  1  0  0  0  0
  1 24  1  0  0  0  0
  3  2  1  0  0  0  0
  3  5  2  0  0  0  0
  4  3  1  0  0  0  0
  5 14  1  0  0  0  0
  6  8  2  0  0  0  0
  6  5  1  0  0  0  0
  7  6  1  0  0  0  0
  8 10  1  0  0  0  0
  9  8  1  0  0  0  0
 10 11  1  0  0  0  0
 10 12  2  0  0  0  0
 12 13  1  0  0  0  0
 14 12  1  0  0  0  0
 14 15  2  0  0  0  0
 15 22  1  0  0  0  0
 16  2  1  6  0  0  0
 16 17  1  0  0  0  0
 16 15  1  0  0  0  0
 17 18  2  0  0  0  0
 18 19  1  0  0  0  0
 18 20  1  0  0  0  0
 20 21  1  0  0  0  0
 22 23  1  0  0  0  0
 22 20  2  0  0  0  0
 24 25  1  0  0  0  0
 25 26  1  0  0  0  0
 25 27  2  0  0  0  0
 27 28  1  0  0  0  0
 29 27  1  0  0  0  0
 29 30  1  0  0  0  0
 31 29  2  0  0  0  0
 32 31  1  0  0  0  0
 33 24  2  0  0  0  0
 33 31  1  0  0  0  0
 34 33  1  0  0  0  0
 35 44  1  0  0  0  0
 35  1  1  0  0  0  0
 36 35  2  0  0  0  0
 37 36  1  0  0  0  0
 38 40  2  0  0  0  0
 38 36  1  0  0  0  0
 39 38  1  0  0  0  0
 40 42  1  0  0  0  0
 41 40  1  0  0  0  0
 42 43  1  0  0  0  0
 42 44  2  0  0  0  0
 44 45  1  0  0  0  0
M  END
