1,44
q = -1.0, confidence = 0.0

 52 53  0  0  1  0  0  0  0  0999 V2000
    0.6043    1.9164    0.0540 P   0  0  0  0  0  0  0  0  0  0  0  0
    1.4866    2.3811    1.6814 C   0  0  0  0  0  0  0  0  0  0  0  0
    0.6840    1.6371    2.7672 C   0  0  0  0  0  0  0  0  0  0  0  0
    1.0894    1.8985    3.7678 H   0  0  0  0  0  0  0  0  0  0  0  0
    0.7464    0.5384    2.6377 H   0  0  0  0  0  0  0  0  0  0  0  0
   -0.3873    1.9207    2.7381 H   0  0  0  0  0  0  0  0  0  0  0  0
    1.3966    3.8933    1.9472 C   0  0  0  0  0  0  0  0  0  0  0  0
    1.8171    4.1085    2.9527 H   0  0  0  0  0  0  0  0  0  0  0  0
    0.3470    4.2472    1.9404 H   0  0  0  0  0  0  0  0  0  0  0  0
    1.9745    4.4877    1.2143 H   0  0  0  0  0  0  0  0  0  0  0  0
    2.9505    1.9185    1.7009 C   0  0  0  0  0  0  0  0  0  0  0  0
    3.5964    2.5622    1.0744 H   0  0  0  0  0  0  0  0  0  0  0  0
    3.0623    0.8723    1.3565 H   0  0  0  0  0  0  0  0  0  0  0  0
    3.3374    1.9794    2.7405 H   0  0  0  0  0  0  0  0  0  0  0  0
    1.5044    2.5309   -1.5149 C   0  0  0  0  0  0  0  0  0  0  0  0
    0.6395    1.9958   -2.6733 C   0  0  0  0  0  0  0  0  0  0  0  0
    1.0632    2.3460   -3.6384 H   0  0  0  0  0  0  0  0  0  0  0  0
   -0.4058    2.3557   -2.5961 H   0  0  0  0  0  0  0  0  0  0  0  0
    0.6173    0.8871   -2.6809 H   0  0  0  0  0  0  0  0  0  0  0  0
    1.5277    4.0671   -1.5689 C   0  0  0  0  0  0  0  0  0  0  0  0
    2.1914    4.5044   -0.7983 H   0  0  0  0  0  0  0  0  0  0  0  0
    0.5139    4.4984   -1.4508 H   0  0  0  0  0  0  0  0  0  0  0  0
    1.9162    4.3895   -2.5585 H   0  0  0  0  0  0  0  0  0  0  0  0
    2.9277    1.9663   -1.6324 C   0  0  0  0  0  0  0  0  0  0  0  0
    3.3076    2.1547   -2.6592 H   0  0  0  0  0  0  0  0  0  0  0  0
    2.9570    0.8745   -1.4529 H   0  0  0  0  0  0  0  0  0  0  0  0
    3.6302    2.4513   -0.9299 H   0  0  0  0  0  0  0  0  0  0  0  0
   -0.9965    2.7130    0.0910 C   0  0  0  0  0  3  0  0  0  0  0  0
   -1.1044    3.8032    0.1707 H   0  0  0  0  0  0  0  0  0  0  0  0
   -2.1259    1.8894    0.0252 C   0  0  0  0  0  0  0  0  0  0  0  0
   -3.4952    2.3705    0.0533 C   0  0  0  0  0  0  0  0  0  0  0  0
   -3.6648    3.4551    0.1178 H   0  0  0  0  0  0  0  0  0  0  0  0
   -4.5524    1.4969    0.0077 C   0  0  0  0  0  0  0  0  0  0  0  0
   -5.5865    1.8754    0.0362 H   0  0  0  0  0  0  0  0  0  0  0  0
   -4.3428    0.0744   -0.0749 C   0  0  0  0  0  0  0  0  0  0  0  0
   -5.3808   -0.8891   -0.1044 C   0  0  0  0  0  0  0  0  0  0  0  0
   -6.4263   -0.5466   -0.0654 H   0  0  0  0  0  0  0  0  0  0  0  0
   -5.0820   -2.2481   -0.1728 C   0  0  0  0  0  0  0  0  0  0  0  0
   -5.8880   -2.9959   -0.1872 H   0  0  0  0  0  0  0  0  0  0  0  0
   -3.7350   -2.6867   -0.2250 C   0  0  0  0  0  0  0  0  0  0  0  0
   -3.5196   -3.7622   -0.2817 H   0  0  0  0  0  0  0  0  0  0  0  0
   -2.6996   -1.7556   -0.2078 C   0  0  0  0  0  0  0  0  0  0  0  0
   -2.9777   -0.3545   -0.1174 C   0  0  2  0  0  3  0  0  0  0  0  0
   -1.9419    0.5257   -0.0667 N   0  0  0  0  0  2  0  0  0  0  0  0
   -1.3461   -2.0735   -0.3066 O   0  0  0  0  0  0  0  0  0  0  0  0
   -0.8921   -3.4267   -0.0956 C   0  0  0  0  0  0  0  0  0  0  0  0
    0.1350   -3.4307   -0.5086 H   0  0  0  0  0  0  0  0  0  0  0  0
   -1.5100   -4.1120   -0.7133 H   0  0  0  0  0  0  0  0  0  0  0  0
   -0.8933   -3.8063    1.3744 C   0  0  0  0  0  0  0  0  0  0  0  0
   -0.2267   -3.1281    1.9428 H   0  0  0  0  0  0  0  0  0  0  0  0
   -0.5164   -4.8416    1.4960 H   0  0  0  0  0  0  0  0  0  0  0  0
   -1.9101   -3.7535    1.8111 H   0  0  0  0  0  0  0  0  0  0  0  0
  1 28  1  0  0  0  0
  1  2  1  0  0  0  0
  2 11  1  0  0  0  0
  2  7  1  0  0  0  0
  2  3  1  0  0  0  0
  3  4  1  0  0  0  0
  5  3  1  0  0  0  0
  6  3  1  0  0  0  0
  7  8  1  0  0  0  0
  9  7  1  0  0  0  0
 10  7  1  0  0  0  0
 11 14  1  0  0  0  0
 12 11  1  0  0  0  0
 13 11  1  0  0  0  0
 15  1  1  0  0  0  0
 16 18  1  0  0  0  0
 16 15  1  0  0  0  0
 17 16  1  0  0  0  0
 19 16  1  0  0  0  0
 20 15  1  0  0  0  0
 20 22  1  0  0  0  0
 20 21  1  0  0  0  0
 23 20  1  0  0  0  0
 24 15  1  0  0  0  0
 24 26  1  0  0  0  0
 24 27  1  0  0  0  0
 25 24  1  0  0  0  0
 28 29  1  0  0  0  0
 30 31  2  0  0  0  0
 30 28  1  0  0  0  0
 31 32  1  0  0  0  0
 33 34  1  0  0  0  0
 33 31  1  0  0  0  0
 35 33  2  0  0  0  0
 36 35  1  0  0  0  0
 36 37  1  0  0  0  0
 38 36  2  0  0  0  0
 39 38  1  0  0  0  0
 40 42  2  0  0  0  0
 40 38  1  0  0  0  0
 41 40  1  0  0  0  0
 43 42  1  1  0  0  0
 43 35  1  0  0  0  0
 43 44  1  0  0  0  0
 44 30  1  0  0  0  0
 45 42  1  0  0  0  0
 45 46  1  0  0  0  0
 46 49  1  0  0  0  0
 47 46  1  0  0  0  0
 48 46  1  0  0  0  0
 49 51  1  0  0  0  0
 49 52  1  0  0  0  0
 49 50  1  0  0  0  0
M  END
