1,46
q = 0.0, confidence = 0.998

 46 47  0  0  0  0  0  0  0  0999 V2000
    0.5993    1.9346   -0.0462 P   0  0  0  0  0  0  0  0  0  0  0  0
    0.3543    2.7260    1.6750 C   0  0  0  0  0  0  0  0  0  0  0  0
   -1.1079    2.4850    2.0967 C   0  0  0  0  0  0  0  0  0  0  0  0
   -1.3674    1.4090    2.0949 H   0  0  0  0  0  0  0  0  0  0  0  0
   -1.8345    3.0257    1.4583 H   0  0  0  0  0  0  0  0  0  0  0  0
   -1.2377    2.8645    3.1313 H   0  0  0  0  0  0  0  0  0  0  0  0
    1.2707    1.9955    2.6732 C   0  0  0  0  0  0  0  0  0  0  0  0
    1.1396    2.4460    3.6787 H   0  0  0  0  0  0  0  0  0  0  0  0
    2.3422    2.0687    2.4100 H   0  0  0  0  0  0  0  0  0  0  0  0
    0.9979    0.9241    2.7454 H   0  0  0  0  0  0  0  0  0  0  0  0
    0.6407    4.2355    1.6843 C   0  0  0  0  0  0  0  0  0  0  0  0
    0.0321    4.7902    0.9425 H   0  0  0  0  0  0  0  0  0  0  0  0
    1.7084    4.4662    1.5103 H   0  0  0  0  0  0  0  0  0  0  0  0
    0.3786    4.6374    2.6852 H   0  0  0  0  0  0  0  0  0  0  0  0
    2.1073    2.6153   -0.9927 C   0  0  0  0  0  0  0  0  0  0  0  0
    3.3717    2.4680   -0.1287 C   0  0  0  0  0  0  0  0  0  0  0  0
    4.2545    2.7458   -0.7406 H   0  0  0  0  0  0  0  0  0  0  0  0
    3.5178    1.4258    0.2153 H   0  0  0  0  0  0  0  0  0  0  0  0
    3.3611    3.1395    0.7515 H   0  0  0  0  0  0  0  0  0  0  0  0
    2.2539    1.7572   -2.2637 C   0  0  0  0  0  0  0  0  0  0  0  0
    3.0931    2.1627   -2.8658 H   0  0  0  0  0  0  0  0  0  0  0  0
    1.3511    1.7839   -2.9076 H   0  0  0  0  0  0  0  0  0  0  0  0
    2.4811    0.7040   -2.0234 H   0  0  0  0  0  0  0  0  0  0  0  0
    1.9100    4.0860   -1.4110 C   0  0  0  0  0  0  0  0  0  0  0  0
    1.8104    4.7766   -0.5563 H   0  0  0  0  0  0  0  0  0  0  0  0
    1.0397    4.2264   -2.0814 H   0  0  0  0  0  0  0  0  0  0  0  0
    2.8064    4.4010   -1.9844 H   0  0  0  0  0  0  0  0  0  0  0  0
   -0.8363    2.5226   -1.0906 C   0  0  0  0  0  0  0  0  0  0  0  0
   -1.0777    3.5892   -0.8977 H   0  0  0  0  0  0  0  0  0  0  0  0
   -0.4886    2.4726   -2.1446 H   0  0  0  0  0  0  0  0  0  0  0  0
   -2.0687    1.6694   -0.9319 C   0  0  0  0  0  0  0  0  0  0  0  0
   -3.3070    2.1045   -1.4814 C   0  0  0  0  0  0  0  0  0  0  0  0
   -3.3505    3.0630   -2.0177 H   0  0  0  0  0  0  0  0  0  0  0  0
   -4.4261    1.3010   -1.3660 C   0  0  0  0  0  0  0  0  0  0  0  0
   -5.3819    1.5971   -1.8244 H   0  0  0  0  0  0  0  0  0  0  0  0
   -4.3600    0.0957   -0.6122 C   0  0  0  0  0  0  0  0  0  0  0  0
   -5.4941   -0.7325   -0.3813 C   0  0  0  0  0  3  0  0  0  0  0  0
   -6.4521   -0.4650   -0.8504 H   0  0  0  0  0  0  0  0  0  0  0  0
   -5.3928   -1.8410    0.4462 C   0  0  0  0  0  0  0  0  0  0  0  0
   -6.2694   -2.4778    0.6329 H   0  0  0  0  0  0  0  0  0  0  0  0
   -4.1688   -2.1398    1.0957 C   0  0  0  0  0  0  0  0  0  0  0  0
   -4.0880   -2.9739    1.8074 H   0  0  0  0  0  0  0  0  0  0  0  0
   -3.0547   -1.3510    0.8652 C   0  0  0  0  0  0  0  0  0  0  0  0
   -1.9234   -1.6007    1.5548 F   0  0  0  0  0  0  0  0  0  0  0  0
   -3.0859   -0.2425   -0.0311 C   0  0  0  0  0  0  0  0  0  0  0  0
   -1.9588    0.5019   -0.2808 N   0  0  0  0  0  2  0  0  0  0  0  0
  1  2  1  0  0  0  0
  2 11  1  0  0  0  0
  2  3  1  0  0  0  0
  2  7  1  0  0  0  0
  3  6  1  0  0  0  0
  4  3  1  0  0  0  0
  5  3  1  0  0  0  0
  7 10  1  0  0  0  0
  7  8  1  0  0  0  0
  9  7  1  0  0  0  0
 11 14  1  0  0  0  0
 12 11  1  0  0  0  0
 13 11  1  0  0  0  0
 15 16  1  0  0  0  0
 15  1  1  0  0  0  0
 16 18  1  0  0  0  0
 16 19  1  0  0  0  0
 17 16  1  0  0  0  0
 20 23  1  0  0  0  0
 20 15  1  0  0  0  0
 21 20  1  0  0  0  0
 22 20  1  0  0  0  0
 24 15  1  0  0  0  0
 24 25  1  0  0  0  0
 26 24  1  0  0  0  0
 27 24  1  0  0  0  0
 28 31  1  0  0  0  0
 28 29  1  0  0  0  0
 28  1  1  0  0  0  0
 30 28  1  0  0  0  0
 31 46  1  0  0  0  0
 32 34  1  0  0  0  0
 32 31  2  0  0  0  0
 33 32  1  0  0  0  0
 34 36  2  0  0  0  0
 35 34  1  0  0  0  0
 36 37  1  0  0  0  0
 36 45  1  0  0  0  0
 37 39  1  0  0  0  0
 38 37  1  0  0  0  0
 39 40  1  0  0  0  0
 39 41  2  0  0  0  0
 41 42  1  0  0  0  0
 43 41  1  0  0  0  0
 43 44  1  0  0  0  0
 45 43  2  0  0  0  0
 46 45  1  0  0  0  0
M  END
