1,2
q = 0.0, confidence = 0.992

 65 71  0  0  1  0  0  0  0  0999 V2000
    1.9567   -0.0995    0.4656 P   0  0  0  0  0  0  0  0  0  0  0  0
   -0.9289   -0.4293   -0.4463 N   0  0  0  0  0  2  0  0  0  0  0  0
   -3.3067    0.9134    0.1564 N   0  0  0  0  0  2  0  0  0  0  0  0
   -2.1799    1.5796   -0.0436 N   0  0  0  0  0  0  0  0  0  0  0  0
   -0.4411    0.8342    1.5939 C   0  0  0  0  0  0  0  0  0  0  0  0
    0.8460    0.3062    1.8803 C   0  0  0  0  0  0  0  0  0  0  0  0
    1.2442    0.1312    3.2173 C   0  0  0  0  0  0  0  0  0  0  0  0
    0.3842    0.4935    4.2668 C   0  0  0  0  0  0  0  0  0  0  0  0
   -0.8761    1.0369    3.9835 C   0  0  0  0  0  0  0  0  0  0  0  0
   -1.2875    1.2032    2.6511 C   0  0  0  0  0  0  0  0  0  0  0  0
   -0.8826    0.9203    0.1338 C   0  0  1  0  0  0  0  0  0  0  0  0
   -2.0469   -1.1244   -0.2349 C   0  0  0  0  0  0  0  0  0  0  0  0
   -3.2492   -0.4125    0.1986 C   0  0  0  0  0  0  0  0  0  0  0  0
   -4.4673   -1.1549    0.5165 C   0  0  0  0  0  0  0  0  0  0  0  0
   -5.6252   -0.5145    1.0082 C   0  0  0  0  0  0  0  0  0  0  0  0
   -6.7778   -1.2525    1.2915 C   0  0  0  0  0  0  0  0  0  0  0  0
   -6.7940   -2.6492    1.0981 C   0  0  0  0  0  0  0  0  0  0  0  0
   -5.6545   -3.2971    0.6170 C   0  0  0  0  0  0  0  0  0  0  0  0
   -4.4782   -2.5692    0.3166 C   0  0  0  0  0  0  0  0  0  0  0  0
   -3.2903   -3.2203   -0.1901 C   0  0  0  0  0  0  0  0  0  0  0  0
   -2.1347   -2.5415   -0.4754 C   0  0  0  0  0  0  0  0  0  0  0  0
   -2.2498    2.9623   -0.3388 C   0  0  0  0  0  0  0  0  0  0  0  0
   -1.1105    3.7863   -0.1995 C   0  0  0  0  0  0  0  0  0  0  0  0
   -1.2026    5.1514   -0.5022 C   0  0  0  0  0  0  0  0  0  0  0  0
   -2.4168    5.7116   -0.9255 C   0  0  0  0  0  0  0  0  0  0  0  0
   -3.5497    4.8880   -1.0501 C   0  0  0  0  0  0  0  0  0  0  0  0
   -3.4738    3.5208   -0.7680 C   0  0  0  0  0  0  0  0  0  0  0  0
    3.3560   -1.0079    1.2085 C   0  0  0  0  0  0  0  0  0  0  0  0
    3.2823   -2.4138    1.2708 C   0  0  0  0  0  0  0  0  0  0  0  0
    4.3118   -3.1363    1.8882 C   0  0  0  0  0  0  0  0  0  0  0  0
    5.4189   -2.4634    2.4322 C   0  0  0  0  0  0  0  0  0  0  0  0
    5.4981   -1.0638    2.3583 C   0  0  0  0  0  0  0  0  0  0  0  0
    4.4682   -0.3322    1.7466 C   0  0  0  0  0  0  0  0  0  0  0  0
    2.6071    1.5569   -0.0154 C   0  0  0  0  0  0  0  0  0  0  0  0
    3.2174    1.6916   -1.2814 C   0  0  0  0  0  0  0  0  0  0  0  0
    3.6871    2.9458   -1.6957 C   0  0  0  0  0  0  0  0  0  0  0  0
    3.5453    4.0692   -0.8638 C   0  0  0  0  0  0  0  0  0  0  0  0
    2.9414    3.9363    0.3963 C   0  0  0  0  0  0  0  0  0  0  0  0
    2.4750    2.6826    0.8251 C   0  0  0  0  0  0  0  0  0  0  0  0
    2.2379   -0.2865    3.4369 H   0  0  0  0  0  0  0  0  0  0  0  0
    0.7064    0.3534    5.3095 H   0  0  0  0  0  0  0  0  0  0  0  0
   -1.5510    1.3285    4.8020 H   0  0  0  0  0  0  0  0  0  0  0  0
   -2.2801    1.6215    2.4302 H   0  0  0  0  0  0  0  0  0  0  0  0
   -0.1476    1.4964   -0.4587 H   0  0  0  0  0  0  0  0  0  0  0  0
   -5.5982    0.5732    1.1654 H   0  0  0  0  0  0  0  0  0  0  0  0
   -7.6747   -0.7400    1.6709 H   0  0  0  0  0  0  0  0  0  0  0  0
   -7.7017   -3.2274    1.3268 H   0  0  0  0  0  0  0  0  0  0  0  0
   -5.6576   -4.3871    0.4610 H   0  0  0  0  0  0  0  0  0  0  0  0
   -3.3246   -4.3107   -0.3398 H   0  0  0  0  0  0  0  0  0  0  0  0
   -1.2437   -3.0459   -0.8712 H   0  0  0  0  0  0  0  0  0  0  0  0
   -0.1522    3.3854    0.1576 H   0  0  0  0  0  0  0  0  0  0  0  0
   -0.3062    5.7807   -0.3961 H   0  0  0  0  0  0  0  0  0  0  0  0
   -2.4815    6.7840   -1.1613 H   0  0  0  0  0  0  0  0  0  0  0  0
   -4.5062    5.3142   -1.3886 H   0  0  0  0  0  0  0  0  0  0  0  0
   -4.3445    2.8621   -0.8807 H   0  0  0  0  0  0  0  0  0  0  0  0
    2.4252   -2.9312    0.8139 H   0  0  0  0  0  0  0  0  0  0  0  0
    4.2567   -4.2344    1.9315 H   0  0  0  0  0  0  0  0  0  0  0  0
    6.2303   -3.0351    2.9077 H   0  0  0  0  0  0  0  0  0  0  0  0
    6.3701   -0.5363    2.7736 H   0  0  0  0  0  0  0  0  0  0  0  0
    4.5323    0.7645    1.6791 H   0  0  0  0  0  0  0  0  0  0  0  0
    3.3123    0.8049   -1.9305 H   0  0  0  0  0  0  0  0  0  0  0  0
    4.1595    3.0467   -2.6845 H   0  0  0  0  0  0  0  0  0  0  0  0
    3.9063    5.0532   -1.1999 H   0  0  0  0  0  0  0  0  0  0  0  0
    2.8324    4.8123    1.0541 H   0  0  0  0  0  0  0  0  0  0  0  0
    2.0031    2.5821    1.8141 H   0  0  0  0  0  0  0  0  0  0  0  0
  1 28  1  0  0  0  0
  1  6  1  0  0  0  0
  2 12  1  0  0  0  0
  2 11  1  0  0  0  0
  3 13  1  0  0  0  0
  4 11  1  0  0  0  0
  4  3  1  0  0  0  0
  5  6  2  0  0  0  0
  5 10  1  0  0  0  0
  6  7  1  0  0  0  0
  7 40  1  0  0  0  0
  7  8  2  0  0  0  0
  8 41  1  0  0  0  0
  9  8  1  0  0  0  0
  9 42  1  0  0  0  0
 10  9  2  0  0  0  0
 11 44  1  6  0  0  0
 11  5  1  0  0  0  0
 12 13  1  0  0  0  0
 13 14  2  0  0  0  0
 14 15  1  0  0  0  0
 15 45  1  0  0  0  0
 15 16  2  0  0  0  0
 16 46  1  0  0  0  0
 17 16  1  0  0  0  0
 17 47  1  0  0  0  0
 18 17  2  0  0  0  0
 19 14  1  0  0  0  0
 19 18  1  0  0  0  0
 20 19  2  0  0  0  0
 21 12  2  0  0  0  0
 21 20  1  0  0  0  0
 22 23  1  0  0  0  0
 22  4  1  0  0  0  0
 23 51  1  0  0  0  0
 24 52  1  0  0  0  0
 24 23  2  0  0  0  0
 25 24  1  0  0  0  0
 26 25  2  0  0  0  0
 26 27  1  0  0  0  0
 27 22  2  0  0  0  0
 28 29  2  0  0  0  0
 28 33  1  0  0  0  0
 29 30  1  0  0  0  0
 30 57  1  0  0  0  0
 30 31  2  0  0  0  0
 31 58  1  0  0  0  0
 32 31  1  0  0  0  0
 32 59  1  0  0  0  0
 33 32  2  0  0  0  0
 34  1  1  0  0  0  0
 34 39  1  0  0  0  0
 35 34  2  0  0  0  0
 36 35  1  0  0  0  0
 36 37  2  0  0  0  0
 37 38  1  0  0  0  0
 38 39  2  0  0  0  0
 38 64  1  0  0  0  0
 39 65  1  0  0  0  0
 43 10  1  0  0  0  0
 48 18  1  0  0  0  0
 49 20  1  0  0  0  0
 50 21  1  0  0  0  0
 53 25  1  0  0  0  0
 54 26  1  0  0  0  0
 55 27  1  0  0  0  0
 56 29  1  0  0  0  0
 60 33  1  0  0  0  0
 61 35  1  0  0  0  0
 62 36  1  0  0  0  0
 63 37  1  0  0  0  0
M  END
