2,5
q = 0.0, confidence = 0.998

 48 50  0  0  1  0  0  0  0  0999 V2000
    0.0592    2.8163   -2.4458 S   0  0  0  0  0  0  0  0  0  0  0  0
    0.5168   -1.1378    0.2474 P   0  0  1  0  0  0  0  0  0  0  0  0
    0.7817   -1.8063    1.7253 O   0  0  0  0  0  0  0  0  0  0  0  0
   -0.1440   -2.0777    2.0292 H   0  0  0  0  0  0  0  0  0  0  0  0
   -1.1228    0.7576   -1.5077 N   0  0  0  0  0  2  0  0  0  0  0  0
    1.3964    0.3381    0.1662 N   0  0  0  0  0  0  0  0  0  0  0  0
   -1.1806    2.0665   -3.4015 C   0  0  0  0  0  0  0  0  0  0  0  0
   -1.4620    2.4659   -4.3823 H   0  0  0  0  0  0  0  0  0  0  0  0
   -1.7076    0.9852   -2.7365 C   0  0  0  0  0  0  0  0  0  0  0  0
   -2.5449    0.3435   -3.0412 H   0  0  0  0  0  0  0  0  0  0  0  0
   -0.1799    1.6390   -1.1986 C   0  0  1  0  0  3  0  0  0  0  0  0
    0.6007    1.5880    0.0920 C   0  0  1  0  0  0  0  0  0  0  0  0
    1.3443    2.4110    0.0636 H   0  0  0  0  0  0  0  0  0  0  0  0
   -0.2808    1.7870    1.3325 C   0  0  0  0  0  0  0  0  0  0  0  0
   -1.6089    2.2463    1.2532 C   0  0  0  0  0  0  0  0  0  0  0  0
   -2.0735    2.4548    0.2796 H   0  0  0  0  0  0  0  0  0  0  0  0
   -2.3736    2.4058    2.4185 C   0  0  0  0  0  0  0  0  0  0  0  0
   -3.4194    2.7360    2.3358 H   0  0  0  0  0  0  0  0  0  0  0  0
   -1.8189    2.1160    3.6726 C   0  0  0  0  0  0  0  0  0  0  0  0
   -2.4253    2.2258    4.5841 H   0  0  0  0  0  0  0  0  0  0  0  0
   -0.4890    1.6732    3.7587 C   0  0  0  0  0  0  0  0  0  0  0  0
   -0.0453    1.4420    4.7388 H   0  0  0  0  0  0  0  0  0  0  0  0
    0.2764    1.5111    2.5970 C   0  0  0  0  0  0  0  0  0  0  0  0
    1.3102    1.1437    2.6680 H   0  0  0  0  0  0  0  0  0  0  0  0
    2.8154    0.4420    0.2408 C   0  0  0  0  0  0  0  0  0  0  0  0
    3.5289    1.1762   -0.7312 C   0  0  0  0  0  0  0  0  0  0  0  0
    2.9845    1.6428   -1.5663 H   0  0  0  0  0  0  0  0  0  0  0  0
    4.9236    1.2917   -0.6442 C   0  0  0  0  0  0  0  0  0  0  0  0
    5.4689    1.8666   -1.4080 H   0  0  0  0  0  0  0  0  0  0  0  0
    5.6236    0.6623    0.3977 C   0  0  0  0  0  0  0  0  0  0  0  0
    6.7186    0.7475    0.4588 H   0  0  0  0  0  0  0  0  0  0  0  0
    4.9160   -0.0739    1.3616 C   0  0  0  0  0  0  0  0  0  0  0  0
    5.4552   -0.5655    2.1856 H   0  0  0  0  0  0  0  0  0  0  0  0
    3.5194   -0.1757    1.2969 C   0  0  0  0  0  0  0  0  0  0  0  0
    2.9559   -0.7437    2.0508 H   0  0  0  0  0  0  0  0  0  0  0  0
    1.3065   -2.3434   -0.9583 C   0  0  0  0  0  0  0  0  0  0  0  0
    2.6813   -2.8436   -0.4854 C   0  0  0  0  0  0  0  0  0  0  0  0
    2.9962   -3.6848   -1.1385 H   0  0  0  0  0  0  0  0  0  0  0  0
    2.6341   -3.2176    0.5556 H   0  0  0  0  0  0  0  0  0  0  0  0
    3.4597   -2.0610   -0.5440 H   0  0  0  0  0  0  0  0  0  0  0  0
    0.3174   -3.5276   -1.0147 C   0  0  0  0  0  0  0  0  0  0  0  0
    0.7372   -4.3181   -1.6707 H   0  0  0  0  0  0  0  0  0  0  0  0
   -0.6695   -3.2218   -1.4160 H   0  0  0  0  0  0  0  0  0  0  0  0
    0.1428   -3.9623   -0.0109 H   0  0  0  0  0  0  0  0  0  0  0  0
    1.4004   -1.6564   -2.3289 C   0  0  0  0  0  0  0  0  0  0  0  0
    1.7558   -2.3896   -3.0826 H   0  0  0  0  0  0  0  0  0  0  0  0
    2.1144   -0.8091   -2.3171 H   0  0  0  0  0  0  0  0  0  0  0  0
    0.4123   -1.2822   -2.6656 H   0  0  0  0  0  0  0  0  0  0  0  0
  1 11  1  0  0  0  0
  2  3  1  1  0  0  0
  3  4  1  0  0  0  0
  5 11  1  0  0  0  0
  6 25  1  0  0  0  0
  6  2  1  0  0  0  0
  7  9  2  0  0  0  0
  7  1  1  0  0  0  0
  8  7  1  0  0  0  0
  9  5  1  0  0  0  0
 10  9  1  0  0  0  0
 11 12  1  6  0  0  0
 12 13  1  6  0  0  0
 12  6  1  0  0  0  0
 12 14  1  0  0  0  0
 14 23  1  0  0  0  0
 15 14  2  0  0  0  0
 15 17  1  0  0  0  0
 16 15  1  0  0  0  0
 17 19  2  0  0  0  0
 18 17  1  0  0  0  0
 19 21  1  0  0  0  0
 19 20  1  0  0  0  0
 21 22  1  0  0  0  0
 23 24  1  0  0  0  0
 23 21  2  0  0  0  0
 25 34  1  0  0  0  0
 26 28  1  0  0  0  0
 26 25  2  0  0  0  0
 27 26  1  0  0  0  0
 28 30  2  0  0  0  0
 29 28  1  0  0  0  0
 30 31  1  0  0  0  0
 30 32  1  0  0  0  0
 32 33  1  0  0  0  0
 34 32  2  0  0  0  0
 34 35  1  0  0  0  0
 36 37  1  0  0  0  0
 36  2  1  0  0  0  0
 37 39  1  0  0  0  0
 38 37  1  0  0  0  0
 40 37  1  0  0  0  0
 41 36  1  0  0  0  0
 41 44  1  0  0  0  0
 42 41  1  0  0  0  0
 43 41  1  0  0  0  0
 45 47  1  0  0  0  0
 45 36  1  0  0  0  0
 46 45  1  0  0  0  0
 48 45  1  0  0  0  0
M  END
