3,4
q = 0.0, confidence = 0.998

 38 41  0  0  1  0  0  0  0  0999 V2000
   -7.1924   -0.7148   -0.2341 Cl  0  0  0  0  0  0  0  0  0  0  0  0
   -1.9668   -2.5109   -0.8643 S   0  0  0  0  0  0  0  0  0  0  0  0
    1.6467   -0.1908   -0.0786 P   0  0  0  0  0  0  0  0  0  0  0  0
   -1.2953   -0.0838   -0.1260 N   0  0  0  0  0  2  0  0  0  0  0  0
    0.5576   -1.4719   -0.5957 N   0  0  0  0  0  0  0  0  0  0  0  0
    0.8809   -2.4261   -0.7728 H   0  0  0  0  0  0  0  0  0  0  0  0
   -5.4601   -0.4987   -0.1932 C   0  0  0  0  0  0  0  0  0  0  0  0
   -4.9260    0.7512    0.1853 C   0  0  0  0  0  0  0  0  0  0  0  0
   -5.6120    1.5682    0.4486 H   0  0  0  0  0  0  0  0  0  0  0  0
   -3.5431    0.9525    0.2265 C   0  0  0  0  0  0  0  0  0  0  0  0
   -3.0926    1.9158    0.5198 H   0  0  0  0  0  0  0  0  0  0  0  0
   -2.6880   -0.1110   -0.1161 C   0  0  0  0  0  0  0  0  0  0  0  0
   -3.2518   -1.3634   -0.4934 C   0  0  0  0  0  0  0  0  0  0  0  0
   -4.6342   -1.5796   -0.5390 C   0  0  0  0  0  0  0  0  0  0  0  0
   -5.0692   -2.5448   -0.8297 H   0  0  0  0  0  0  0  0  0  0  0  0
   -0.7900   -1.2459   -0.4918 C   0  0  2  0  0  3  0  0  0  0  0  0
    2.5842   -0.9633    1.2948 C   0  0  0  0  0  0  0  0  0  0  0  0
    3.5983   -1.9193    1.0731 C   0  0  0  0  0  0  0  0  0  0  0  0
    3.9015   -2.1758    0.0458 H   0  0  0  0  0  0  0  0  0  0  0  0
    4.2306   -2.5319    2.1643 C   0  0  0  0  0  0  0  0  0  0  0  0
    5.0220   -3.2768    1.9907 H   0  0  0  0  0  0  0  0  0  0  0  0
    3.8595   -2.1907    3.4761 C   0  0  0  0  0  0  0  0  0  0  0  0
    4.3621   -2.6698    4.3301 H   0  0  0  0  0  0  0  0  0  0  0  0
    2.8549   -1.2356    3.6993 C   0  0  0  0  0  0  0  0  0  0  0  0
    2.5689   -0.9627    4.7261 H   0  0  0  0  0  0  0  0  0  0  0  0
    2.2168   -0.6201    2.6123 C   0  0  0  0  0  0  0  0  0  0  0  0
    1.4296    0.1359    2.7687 H   0  0  0  0  0  0  0  0  0  0  0  0
    2.8422   -0.1077   -1.4575 C   0  0  0  0  0  0  0  0  0  0  0  0
    2.4632   -0.4637   -2.7675 C   0  0  0  0  0  0  0  0  0  0  0  0
    1.4594   -0.8752   -2.9518 H   0  0  0  0  0  0  0  0  0  0  0  0
    3.3608   -0.2859   -3.8302 C   0  0  0  0  0  0  0  0  0  0  0  0
    3.0610   -0.5711   -4.8499 H   0  0  0  0  0  0  0  0  0  0  0  0
    4.6331    0.2600   -3.5962 C   0  0  0  0  0  0  0  0  0  0  0  0
    5.3342    0.4017   -4.4324 H   0  0  0  0  0  0  0  0  0  0  0  0
    5.0082    0.6298   -2.2943 C   0  0  0  0  0  0  0  0  0  0  0  0
    6.0023    1.0632   -2.1078 H   0  0  0  0  0  0  0  0  0  0  0  0
    4.1189    0.4495   -1.2256 C   0  0  0  0  0  0  0  0  0  0  0  0
    4.4181    0.7401   -0.2071 H   0  0  0  0  0  0  0  0  0  0  0  0
  1  7  1  0  0  0  0
  2 13  1  0  0  0  0
  2 16  1  0  0  0  0
  3 17  1  0  0  0  0
  4 12  1  0  0  0  0
  5  3  1  0  0  0  0
  6  5  1  0  0  0  0
  7  8  1  0  0  0  0
  8 10  2  0  0  0  0
  8  9  1  0  0  0  0
 10 11  1  0  0  0  0
 12 10  1  0  0  0  0
 13 12  2  0  0  0  0
 14 13  1  0  0  0  0
 14  7  2  0  0  0  0
 15 14  1  0  0  0  0
 16  5  1  6  0  0  0
 16  4  1  0  0  0  0
 17 26  1  0  0  0  0
 18 17  2  0  0  0  0
 18 20  1  0  0  0  0
 19 18  1  0  0  0  0
 20 22  2  0  0  0  0
 21 20  1  0  0  0  0
 22 24  1  0  0  0  0
 22 23  1  0  0  0  0
 24 25  1  0  0  0  0
 26 27  1  0  0  0  0
 26 24  2  0  0  0  0
 28 37  1  0  0  0  0
 28  3  1  0  0  0  0
 29 28  2  0  0  0  0
 30 29  1  0  0  0  0
 31 33  2  0  0  0  0
 31 29  1  0  0  0  0
 32 31  1  0  0  0  0
 33 35  1  0  0  0  0
 34 33  1  0  0  0  0
 35 36  1  0  0  0  0
 35 37  2  0  0  0  0
 37 38  1  0  0  0  0
M  END
