1,3
q = -1.0, confidence = 0.0

 30 32  0  0  0  0  0  0  0  0999 V2000
    0.2280    1.7437   -0.0610 P   0  0  0  0  0  0  0  0  0  0  0  0
   -0.7240    3.1376   -0.0206 N   0  0  0  0  0  0  0  0  0  0  0  0
   -2.5916    1.6127   -0.0551 N   0  0  0  0  0  2  0  0  0  0  0  0
   -3.9338    1.5883   -0.0976 N   0  0  0  0  0  0  0  0  0  0  0  0
   -3.2814    4.0966   -0.1114 S   0  0  0  0  0  0  0  0  0  0  0  0
   -2.0142    2.8649   -0.0580 C   0  0  0  0  0  0  0  0  0  0  0  0
   -4.4581    2.7772   -0.1269 C   0  0  0  0  0  0  0  0  0  0  0  0
   -5.5401    2.9620   -0.1584 H   0  0  0  0  0  0  0  0  0  0  0  0
    1.2506    1.8214   -1.5757 C   0  0  0  0  0  0  0  0  0  0  0  0
    0.8287    1.0900   -2.7047 C   0  0  0  0  0  0  0  0  0  0  0  0
   -0.0588    0.4423   -2.6269 H   0  0  0  0  0  0  0  0  0  0  0  0
    1.5446    1.1743   -3.9059 C   0  0  0  0  0  0  0  0  0  0  0  0
    1.2157    0.5905   -4.7782 H   0  0  0  0  0  0  0  0  0  0  0  0
    2.6875    1.9858   -3.9860 C   0  0  0  0  0  0  0  0  0  0  0  0
    3.2561    2.0448   -4.9267 H   0  0  0  0  0  0  0  0  0  0  0  0
    3.1053    2.7250   -2.8669 C   0  0  0  0  0  0  0  0  0  0  0  0
    3.9947    3.3703   -2.9324 H   0  0  0  0  0  0  0  0  0  0  0  0
    2.3873    2.6509   -1.6642 C   0  0  0  0  0  0  0  0  0  0  0  0
    2.7085    3.2399   -0.7920 H   0  0  0  0  0  0  0  0  0  0  0  0
    1.3768    1.9219    1.3526 C   0  0  0  0  0  0  0  0  0  0  0  0
    0.8966    2.5684    2.5094 C   0  0  0  0  0  0  0  0  0  0  0  0
   -0.1033    3.0279    2.4893 H   0  0  0  0  0  0  0  0  0  0  0  0
    1.6964    2.6355    3.6592 C   0  0  0  0  0  0  0  0  0  0  0  0
    1.3165    3.1441    4.5584 H   0  0  0  0  0  0  0  0  0  0  0  0
    2.9796    2.0640    3.6622 C   0  0  0  0  0  0  0  0  0  0  0  0
    3.6047    2.1163    4.5665 H   0  0  0  0  0  0  0  0  0  0  0  0
    3.4655    1.4294    2.5083 C   0  0  0  0  0  0  0  0  0  0  0  0
    4.4702    0.9811    2.5039 H   0  0  0  0  0  0  0  0  0  0  0  0
    2.6672    1.3564    1.3585 C   0  0  0  0  0  0  0  0  0  0  0  0
    3.0541    0.8650    0.4552 H   0  0  0  0  0  0  0  0  0  0  0  0
  1  2  1  0  0  0  0
  1 20  1  0  0  0  0
  4  3  1  0  0  0  0
  5  6  1  0  0  0  0
  6  3  1  0  0  0  0
  6  2  2  0  0  0  0
  7  5  1  0  0  0  0
  7  4  2  0  0  0  0
  8  7  1  0  0  0  0
  9  1  1  0  0  0  0
 10 11  1  0  0  0  0
 10  9  2  0  0  0  0
 12 10  1  0  0  0  0
 13 12  1  0  0  0  0
 14 12  2  0  0  0  0
 14 16  1  0  0  0  0
 15 14  1  0  0  0  0
 16 18  2  0  0  0  0
 17 16  1  0  0  0  0
 18  9  1  0  0  0  0
 18 19  1  0  0  0  0
 20 29  2  0  0  0  0
 20 21  1  0  0  0  0
 21 23  2  0  0  0  0
 22 21  1  0  0  0  0
 23 25  1  0  0  0  0
 23 24  1  0  0  0  0
 25 26  1  0  0  0  0
 27 25  2  0  0  0  0
 28 27  1  0  0  0  0
 29 27  1  0  0  0  0
 30 29  1  0  0  0  0
M  END
