1,56
q = 0.0, confidence = 0.998

 56 60  0  0  1  0  0  0  0  0999 V2000
   -1.3871   -0.1502   -0.7481 P   0  0  2  0  0  0  0  0  0  0  0  0
   -0.6368    0.3636   -2.1583 O   0  0  0  0  0  0  0  0  0  0  0  0
   -2.7859   -0.8589   -1.3914 N   0  0  2  0  0  0  0  0  0  0  0  0
   -2.2523    1.2785   -0.2388 N   0  0  0  0  0  0  0  0  0  0  0  0
   -3.4778    1.4216   -1.0201 C   0  0  0  0  0  0  0  0  0  0  0  0
   -3.2900    1.9371   -1.9912 H   0  0  0  0  0  0  0  0  0  0  0  0
   -4.2247    2.0174   -0.4551 H   0  0  0  0  0  0  0  0  0  0  0  0
   -3.9810   -0.0056   -1.2614 C   0  0  2  0  0  0  0  0  0  0  0  0
   -4.5758   -0.0383   -2.2024 H   0  0  0  0  0  0  0  0  0  0  0  0
   -4.7579   -0.6719   -0.1112 C   0  0  0  0  0  0  0  0  0  0  0  0
   -4.3263   -0.3254    0.8503 H   0  0  0  0  0  0  0  0  0  0  0  0
   -5.8360   -0.4163   -0.1162 H   0  0  0  0  0  0  0  0  0  0  0  0
   -4.4918   -2.1777   -0.3132 C   0  0  0  0  0  0  0  0  0  0  0  0
   -5.3125   -2.6516   -0.8881 H   0  0  0  0  0  0  0  0  0  0  0  0
   -4.4165   -2.7097    0.6543 H   0  0  0  0  0  0  0  0  0  0  0  0
   -3.1582   -2.2525   -1.1170 C   0  0  0  0  0  0  0  0  0  0  0  0
   -2.3372   -2.7534   -0.5630 H   0  0  0  0  0  0  0  0  0  0  0  0
   -3.2987   -2.8050   -2.0707 H   0  0  0  0  0  0  0  0  0  0  0  0
   -1.5929    2.4159    0.2727 C   0  0  0  0  0  0  0  0  0  0  0  0
   -1.9950    3.7233   -0.0867 C   0  0  0  0  0  0  0  0  0  0  0  0
   -2.8314    3.8761   -0.7820 H   0  0  0  0  0  0  0  0  0  0  0  0
   -1.3214    4.8418    0.4304 C   0  0  0  0  0  0  0  0  0  0  0  0
   -1.6539    5.8491    0.1350 H   0  0  0  0  0  0  0  0  0  0  0  0
   -0.2337    4.6889    1.3008 C   0  0  0  0  0  0  0  0  0  0  0  0
    0.2930    5.5694    1.6974 H   0  0  0  0  0  0  0  0  0  0  0  0
    0.1628    3.3911    1.6705 C   0  0  0  0  0  0  0  0  0  0  0  0
    1.0001    3.2453    2.3707 H   0  0  0  0  0  0  0  0  0  0  0  0
   -0.5109    2.2690    1.1781 C   0  0  0  0  0  0  0  0  0  0  0  0
   -0.2152    1.2519    1.4938 H   0  0  0  0  0  0  0  0  0  0  0  0
    1.7162   -0.3032   -1.8662 C   0  0  2  0  0  0  0  0  0  0  0  0
    1.3485   -1.1559   -2.4730 H   0  0  0  0  0  0  0  0  0  0  0  0
    3.1281    0.1169   -2.3493 C   0  0  0  0  0  0  0  0  0  0  0  0
    3.2386    1.2218   -2.3118 H   0  0  0  0  0  0  0  0  0  0  0  0
    3.2564   -0.1755   -3.4110 H   0  0  0  0  0  0  0  0  0  0  0  0
    4.1857   -0.5531   -1.4611 C   0  0  1  0  0  0  0  0  0  0  0  0
    5.1985   -0.4264   -1.8925 H   0  0  0  0  0  0  0  0  0  0  0  0
    4.1295    0.0793   -0.0460 C   0  0  2  0  0  0  0  0  0  0  0  0
    4.6927   -0.5862    0.6427 H   0  0  0  0  0  0  0  0  0  0  0  0
    2.6325    0.0915    0.3802 C   0  0  0  0  0  0  0  0  0  0  0  0
    2.5153   -0.2289    1.4322 H   0  0  0  0  0  0  0  0  0  0  0  0
    2.1949    1.1058    0.2910 H   0  0  0  0  0  0  0  0  0  0  0  0
    2.4930   -2.1637   -0.5490 C   0  0  0  0  0  0  0  0  0  0  0  0
    1.7874   -2.8659   -1.0340 H   0  0  0  0  0  0  0  0  0  0  0  0
    2.6297   -2.5107    0.4921 H   0  0  0  0  0  0  0  0  0  0  0  0
    3.8281   -2.0425   -1.3260 C   0  0  0  0  0  0  0  0  0  0  0  0
    4.6313   -2.5841   -0.7867 H   0  0  0  0  0  0  0  0  0  0  0  0
    3.7505   -2.5011   -2.3339 H   0  0  0  0  0  0  0  0  0  0  0  0
    0.7087    0.8239   -2.0717 C   0  0  0  0  0  0  0  0  0  0  0  0
    0.8248    1.6164   -1.2976 H   0  0  0  0  0  0  0  0  0  0  0  0
    0.9257    1.2949   -3.0523 H   0  0  0  0  0  0  0  0  0  0  0  0
    4.7370    1.4504    0.0397 C   0  0  0  0  0  0  0  0  0  0  0  0
    4.2848    2.2273   -0.6058 H   0  0  0  0  0  0  0  0  0  0  0  0
    5.7572    1.7928    0.8451 C   0  0  0  0  0  0  0  0  0  0  0  0
    6.2289    1.0553    1.5162 H   0  0  0  0  0  0  0  0  0  0  0  0
    6.1557    2.8188    0.8680 H   0  0  0  0  0  0  0  0  0  0  0  0
    1.8017   -0.8323   -0.4593 N   0  0  2  0  0  0  0  0  0  0  0  0
  1  2  1  6  0  0  0
  1  4  1  0  0  0  0
  2 48  1  0  0  0  0
  3  8  1  0  0  0  0
  3 16  1  1  0  0  0
  3  1  1  0  0  0  0
  4 19  1  0  0  0  0
  5  7  1  0  0  0  0
  5  4  1  0  0  0  0
  6  5  1  0  0  0  0
  8  9  1  6  0  0  0
  8  5  1  0  0  0  0
  8 10  1  0  0  0  0
 10 11  1  0  0  0  0
 12 10  1  0  0  0  0
 13 10  1  0  0  0  0
 13 15  1  0  0  0  0
 14 13  1  0  0  0  0
 16 17  1  0  0  0  0
 16 13  1  0  0  0  0
 18 16  1  0  0  0  0
 19 28  1  0  0  0  0
 20 19  2  0  0  0  0
 20 22  1  0  0  0  0
 21 20  1  0  0  0  0
 22 24  2  0  0  0  0
 23 22  1  0  0  0  0
 24 26  1  0  0  0  0
 24 25  1  0  0  0  0
 26 27  1  0  0  0  0
 28 29  1  0  0  0  0
 28 26  2  0  0  0  0
 30 31  1  6  0  0  0
 30 56  1  0  0  0  0
 32 33  1  0  0  0  0
 32 30  1  0  0  0  0
 32 35  1  0  0  0  0
 34 32  1  0  0  0  0
 35 36  1  6  0  0  0
 35 45  1  0  0  0  0
 35 37  1  0  0  0  0
 37 51  1  0  0  0  0
 37 39  1  0  0  0  0
 37 38  1  1  0  0  0
 39 40  1  0  0  0  0
 41 39  1  0  0  0  0
 42 44  1  0  0  0  0
 43 42  1  0  0  0  0
 45 46  1  0  0  0  0
 45 42  1  0  0  0  0
 47 45  1  0  0  0  0
 48 30  1  0  0  0  0
 48 49  1  0  0  0  0
 50 48  1  0  0  0  0
 51 53  2  0  0  0  0
 52 51  1  0  0  0  0
 53 55  1  0  0  0  0
 53 54  1  0  0  0  0
 56 42  1  6  0  0  0
 56 39  1  0  0  0  0
M  END
