2,3
q = -1.0, confidence = 0.0

 28 28  0  0  0  0  0  0  0  0999 V2000
   -1.8304    2.6925   -0.2300 S   0  0  0  0  0  0  0  0  0  0  0  0
    0.0600    1.6583   -0.0355 P   0  0  0  0  0  2  0  0  0  0  0  0
   -1.5159    0.8609   -2.7506 N   0  0  0  0  0  0  0  0  0  0  0  0
    1.2218    3.1662   -0.0869 C   0  0  0  0  0  0  0  0  0  0  0  0
   -2.7451    0.7144   -2.0327 C   0  0  0  0  0  0  0  0  0  0  0  0
    2.6487    2.6744    0.2116 C   0  0  0  0  0  0  0  0  0  0  0  0
    2.9294    1.8146   -0.4273 H   0  0  0  0  0  0  0  0  0  0  0  0
    2.7890    2.3885    1.2680 H   0  0  0  0  0  0  0  0  0  0  0  0
    3.3553    3.5011   -0.0089 H   0  0  0  0  0  0  0  0  0  0  0  0
   -3.7259   -0.1886   -2.4797 C   0  0  0  0  0  0  0  0  0  0  0  0
   -3.5519   -0.7593   -3.4059 H   0  0  0  0  0  0  0  0  0  0  0  0
    0.7924    4.3096    0.8406 C   0  0  0  0  0  0  0  0  0  0  0  0
    1.5058    5.1522    0.7272 H   0  0  0  0  0  0  0  0  0  0  0  0
    0.7908    4.0104    1.9042 H   0  0  0  0  0  0  0  0  0  0  0  0
   -0.2149    4.6946    0.5846 H   0  0  0  0  0  0  0  0  0  0  0  0
   -2.9610    1.4449   -0.8380 C   0  0  0  0  0  0  0  0  0  0  0  0
    1.1531    3.6143   -1.5628 C   0  0  0  0  0  0  0  0  0  0  0  0
    0.1487    3.9909   -1.8390 H   0  0  0  0  0  0  0  0  0  0  0  0
    1.4335    2.7883   -2.2497 H   0  0  0  0  0  0  0  0  0  0  0  0
    1.8772    4.4404   -1.7168 H   0  0  0  0  0  0  0  0  0  0  0  0
   -5.1512    0.3895   -0.5984 C   0  0  0  0  0  0  0  0  0  0  0  0
   -6.0908    0.2735   -0.0399 H   0  0  0  0  0  0  0  0  0  0  0  0
   -4.9240   -0.3476   -1.7713 C   0  0  0  0  0  0  0  0  0  0  0  0
   -5.6848   -1.0494   -2.1429 H   0  0  0  0  0  0  0  0  0  0  0  0
   -4.1704    1.2751   -0.1346 C   0  0  0  0  0  0  0  0  0  0  0  0
   -4.3280    1.8483    0.7908 H   0  0  0  0  0  0  0  0  0  0  0  0
   -1.2421    1.8570   -2.7740 H   0  0  0  0  0  0  0  0  0  0  0  0
   -1.6166    0.5322   -3.7195 H   0  0  0  0  0  0  0  0  0  0  0  0
  1  2  1  0  0  0  0
  3  5  1  0  0  0  0
  4  2  1  0  0  0  0
  4  6  1  0  0  0  0
  4 12  1  0  0  0  0
  5 16  1  0  0  0  0
  6  8  1  0  0  0  0
  7  6  1  0  0  0  0
  9  6  1  0  0  0  0
 10  5  2  0  0  0  0
 10 23  1  0  0  0  0
 11 10  1  0  0  0  0
 12 14  1  0  0  0  0
 13 12  1  0  0  0  0
 15 12  1  0  0  0  0
 16  1  1  0  0  0  0
 16 25  2  0  0  0  0
 17  4  1  0  0  0  0
 18 17  1  0  0  0  0
 19 17  1  0  0  0  0
 20 17  1  0  0  0  0
 21 25  1  0  0  0  0
 21 22  1  0  0  0  0
 23 21  2  0  0  0  0
 24 23  1  0  0  0  0
 25 26  1  0  0  0  0
 27  3  1  0  0  0  0
 28  3  1  0  0  0  0
M  END
