1,2
q = 0.0, confidence = 1.0

 38 38  0  0  1  0  0  0  0  0999 V2000
    2.4359   -0.4017   -0.1289 P   0  0  0  0  0  0  0  0  0  0  0  0
    0.6443    1.3355    0.5675 N   0  0  0  0  0  2  0  0  0  0  0  0
    2.5336    2.4683    0.8669 N   0  0  0  0  0  0  0  0  0  0  0  0
    1.9882    1.2697    0.4797 C   0  0  2  0  0  3  0  0  0  0  0  0
    0.3117    2.5840    1.0243 C   0  0  0  0  0  0  0  0  0  0  0  0
    1.4843    3.3016    1.2111 C   0  0  0  0  0  0  0  0  0  0  0  0
    3.9345    2.8660    0.8545 C   0  0  0  0  0  0  0  0  0  0  0  0
    3.3338   -1.3074    1.2801 C   0  0  0  0  0  0  0  0  0  0  0  0
    3.7532   -2.6930    0.7563 C   0  0  0  0  0  0  0  0  0  0  0  0
    4.5406   -0.5440    1.8451 C   0  0  0  0  0  0  0  0  0  0  0  0
    2.2718   -1.4700    2.3848 C   0  0  0  0  0  0  0  0  0  0  0  0
    3.4170   -0.2314   -1.7497 C   0  0  0  0  0  0  0  0  0  0  0  0
    3.1560   -1.5239   -2.5505 C   0  0  0  0  0  0  0  0  0  0  0  0
    2.7825    0.9556   -2.4974 C   0  0  0  0  0  0  0  0  0  0  0  0
    4.9255   -0.0090   -1.5753 C   0  0  0  0  0  0  0  0  0  0  0  0
   -0.7244    2.8954    1.1979 H   0  0  0  0  0  0  0  0  0  0  0  0
    1.6583    4.3252    1.5599 H   0  0  0  0  0  0  0  0  0  0  0  0
    4.1228    3.5979    0.0442 H   0  0  0  0  0  0  0  0  0  0  0  0
    4.2084    3.3217    1.8248 H   0  0  0  0  0  0  0  0  0  0  0  0
    4.5650    1.9768    0.6914 H   0  0  0  0  0  0  0  0  0  0  0  0
    2.8984   -3.2467    0.3191 H   0  0  0  0  0  0  0  0  0  0  0  0
    4.5607   -2.6344    0.0011 H   0  0  0  0  0  0  0  0  0  0  0  0
    4.1388   -3.2954    1.6047 H   0  0  0  0  0  0  0  0  0  0  0  0
    5.3250   -0.3511    1.0903 H   0  0  0  0  0  0  0  0  0  0  0  0
    5.0036   -1.1519    2.6505 H   0  0  0  0  0  0  0  0  0  0  0  0
    4.2344    0.4158    2.3051 H   0  0  0  0  0  0  0  0  0  0  0  0
    1.9171   -0.4917    2.7676 H   0  0  0  0  0  0  0  0  0  0  0  0
    1.3901   -2.0361    2.0239 H   0  0  0  0  0  0  0  0  0  0  0  0
    2.7180   -2.0238    3.2367 H   0  0  0  0  0  0  0  0  0  0  0  0
    3.6534   -1.4414   -3.5390 H   0  0  0  0  0  0  0  0  0  0  0  0
    2.0733   -1.6808   -2.7222 H   0  0  0  0  0  0  0  0  0  0  0  0
    3.5609   -2.4241   -2.0502 H   0  0  0  0  0  0  0  0  0  0  0  0
    1.6836    0.8380   -2.5863 H   0  0  0  0  0  0  0  0  0  0  0  0
    3.2023    1.0036   -3.5232 H   0  0  0  0  0  0  0  0  0  0  0  0
    2.9888    1.9252   -2.0021 H   0  0  0  0  0  0  0  0  0  0  0  0
    5.3895    0.0993   -2.5781 H   0  0  0  0  0  0  0  0  0  0  0  0
    5.1575    0.9144   -1.0103 H   0  0  0  0  0  0  0  0  0  0  0  0
    5.4246   -0.8620   -1.0772 H   0  0  0  0  0  0  0  0  0  0  0  0
  1  8  1  0  0  0  0
  2  5  1  0  0  0  0
  3  6  1  0  0  0  0
  4  1  1  6  0  0  0
  4  2  1  0  0  0  0
  4  3  1  0  0  0  0
  5 16  1  0  0  0  0
  5  6  2  0  0  0  0
  6 17  1  0  0  0  0
  7  3  1  0  0  0  0
  7 19  1  0  0  0  0
  8 10  1  0  0  0  0
  8 11  1  0  0  0  0
  9  8  1  0  0  0  0
  9 23  1  0  0  0  0
 10 26  1  0  0  0  0
 10 25  1  0  0  0  0
 11 27  1  0  0  0  0
 11 29  1  0  0  0  0
 12 15  1  0  0  0  0
 12  1  1  0  0  0  0
 13 32  1  0  0  0  0
 13 12  1  0  0  0  0
 14 35  1  0  0  0  0
 14 12  1  0  0  0  0
 15 38  1  0  0  0  0
 15 37  1  0  0  0  0
 18  7  1  0  0  0  0
 20  7  1  0  0  0  0
 21  9  1  0  0  0  0
 22  9  1  0  0  0  0
 24 10  1  0  0  0  0
 28 11  1  0  0  0  0
 30 13  1  0  0  0  0
 31 13  1  0  0  0  0
 33 14  1  0  0  0  0
 34 14  1  0  0  0  0
 36 15  1  0  0  0  0
M  END
