35,37
q = -1.0

 37 39  0  0  0  0  0  0  0  0999 V2000
    3.5347   -1.6072    0.3253 C   0  0  0  0  0  3  0  0  0  0  0  0
    3.8410   -0.6695    0.8111 H   0  0  0  0  0  0  0  0  0  0  0  0
    4.4171   -2.6718    0.2231 C   0  0  0  0  0  0  0  0  0  0  0  0
    5.4356   -2.5789    0.6257 H   0  0  0  0  0  0  0  0  0  0  0  0
    3.9757   -3.8683   -0.4099 C   0  0  0  0  0  0  0  0  0  0  0  0
    4.9150   -5.0326   -0.5762 C   0  0  0  0  0  0  0  0  0  0  0  0
    5.3213   -5.3578    0.4044 H   0  0  0  0  0  0  0  0  0  0  0  0
    5.7872   -4.7497   -1.2026 H   0  0  0  0  0  0  0  0  0  0  0  0
    4.4164   -5.8995   -1.0498 H   0  0  0  0  0  0  0  0  0  0  0  0
    2.6572   -3.9279   -0.8415 C   0  0  0  0  0  0  0  0  0  0  0  0
    2.2442   -4.8384   -1.2976 H   0  0  0  0  0  0  0  0  0  0  0  0
    1.7488   -2.8312   -0.6695 C   0  0  0  0  0  0  0  0  0  0  0  0
   -1.5693   -2.3288    0.9058 C   0  0  0  0  0  0  0  0  0  0  0  0
   -2.6208   -3.2408    0.6788 C   0  0  0  0  0  0  0  0  0  0  0  0
   -2.8619   -3.5557   -0.3480 H   0  0  0  0  0  0  0  0  0  0  0  0
   -3.3563   -3.7436    1.7617 C   0  0  0  0  0  0  0  0  0  0  0  0
   -4.1794   -4.4521    1.5815 H   0  0  0  0  0  0  0  0  0  0  0  0
   -3.0414   -3.3487    3.0732 C   0  0  0  0  0  0  0  0  0  0  0  0
   -3.6237   -3.7429    3.9203 H   0  0  0  0  0  0  0  0  0  0  0  0
   -1.9841   -2.4544    3.3028 C   0  0  0  0  0  0  0  0  0  0  0  0
   -1.7362   -2.1385    4.3270 H   0  0  0  0  0  0  0  0  0  0  0  0
   -1.2486   -1.9460    2.2230 C   0  0  0  0  0  0  0  0  0  0  0  0
   -0.4262   -1.2331    2.3905 H   0  0  0  0  0  0  0  0  0  0  0  0
   -1.6839   -1.4070   -1.8598 C   0  0  0  0  0  0  0  0  0  0  0  0
   -1.1996   -1.5931   -3.1698 C   0  0  0  0  0  0  0  0  0  0  0  0
   -0.1874   -2.0034   -3.3068 H   0  0  0  0  0  0  0  0  0  0  0  0
   -2.0103   -1.2747   -4.2690 C   0  0  0  0  0  0  0  0  0  0  0  0
   -1.6282   -1.4231   -5.2908 H   0  0  0  0  0  0  0  0  0  0  0  0
   -3.3085   -0.7763   -4.0685 C   0  0  0  0  0  0  0  0  0  0  0  0
   -3.9425   -0.5250   -4.9324 H   0  0  0  0  0  0  0  0  0  0  0  0
   -3.7990   -0.6048   -2.7644 C   0  0  0  0  0  0  0  0  0  0  0  0
   -4.8165   -0.2185   -2.6027 H   0  0  0  0  0  0  0  0  0  0  0  0
   -2.9901   -0.9189   -1.6631 C   0  0  0  0  0  0  0  0  0  0  0  0
   -3.3785   -0.7943   -0.6424 H   0  0  0  0  0  0  0  0  0  0  0  0
    2.2635   -1.6371   -0.1479 N   0  0  0  0  0  2  0  0  0  0  0  0
    0.4558   -2.9646   -0.9938 N   0  0  0  0  0  2  0  0  0  0  0  0
   -0.5297   -1.7189   -0.4744 P   0  0  0  0  0  0  0  0  0  0  0  0
  1  2  1  0  0  0  0
  3  1  1  0  0  0  0
  3  4  1  0  0  0  0
  5  3  2  0  0  0  0
  6  5  1  0  0  0  0
  6  7  1  0  0  0  0
  8  6  1  0  0  0  0
  9  6  1  0  0  0  0
 10 12  2  0  0  0  0
 10  5  1  0  0  0  0
 11 10  1  0  0  0  0
 12 35  1  0  0  0  0
 13 22  1  0  0  0  0
 14 13  2  0  0  0  0
 14 16  1  0  0  0  0
 15 14  1  0  0  0  0
 16 18  2  0  0  0  0
 17 16  1  0  0  0  0
 18 20  1  0  0  0  0
 18 19  1  0  0  0  0
 20 21  1  0  0  0  0
 22 23  1  0  0  0  0
 22 20  2  0  0  0  0
 24 33  1  0  0  0  0
 24 37  1  0  0  0  0
 25 24  2  0  0  0  0
 26 25  1  0  0  0  0
 27 29  2  0  0  0  0
 27 25  1  0  0  0  0
 28 27  1  0  0  0  0
 29 31  1  0  0  0  0
 30 29  1  0  0  0  0
 31 32  1  0  0  0  0
 31 33  2  0  0  0  0
 33 34  1  0  0  0  0
 35  1  1  0  0  0  0
 36 12  1  0  0  0  0
 36 37  1  0  0  0  0
 37 13  1  0  0  0  0
M  END
