1,3
q = 0.0, confidence = 1.0

 56 59  0  0  1  0  0  0  0  0999 V2000
   -1.2538    0.4214   -0.0048 P   0  0  0  0  0  0  0  0  0  0  0  0
    2.7071   -1.6340    0.1667 O   0  0  0  0  0  0  0  0  0  0  0  0
    1.8653    1.0396   -0.1986 N   0  0  0  0  0  0  0  0  0  0  0  0
   -0.9996    2.1037   -0.7397 C   0  0  0  0  0  0  0  0  0  0  0  0
    0.1814    2.8245   -0.4195 C   0  0  0  0  0  0  0  0  0  0  0  0
    0.3580    4.1135   -0.9560 C   0  0  0  0  0  0  0  0  0  0  0  0
   -0.6085    4.6967   -1.7888 C   0  0  0  0  0  0  0  0  0  0  0  0
   -1.7727    3.9826   -2.1012 C   0  0  0  0  0  0  0  0  0  0  0  0
   -1.9639    2.6948   -1.5775 C   0  0  0  0  0  0  0  0  0  0  0  0
   -2.6918   -0.2407   -0.9540 C   0  0  0  0  0  0  0  0  0  0  0  0
   -2.5195   -0.5055   -2.3309 C   0  0  0  0  0  0  0  0  0  0  0  0
   -3.5784   -1.0379   -3.0807 C   0  0  0  0  0  0  0  0  0  0  0  0
   -4.8094   -1.3222   -2.4656 C   0  0  0  0  0  0  0  0  0  0  0  0
   -4.9779   -1.0682   -1.0961 C   0  0  0  0  0  0  0  0  0  0  0  0
   -3.9259   -0.5270   -0.3409 C   0  0  0  0  0  0  0  0  0  0  0  0
   -1.9666    0.8422    1.6501 C   0  0  0  0  0  0  0  0  0  0  0  0
   -2.1542   -0.1969    2.5876 C   0  0  0  0  0  0  0  0  0  0  0  0
   -2.6858    0.0931    3.8519 C   0  0  0  0  0  0  0  0  0  0  0  0
   -3.0188    1.4123    4.2005 C   0  0  0  0  0  0  0  0  0  0  0  0
   -2.8271    2.4471    3.2728 C   0  0  0  0  0  0  0  0  0  0  0  0
   -2.3061    2.1650    1.9998 C   0  0  0  0  0  0  0  0  0  0  0  0
    1.2698    2.2371    0.4507 C   0  0  0  0  0  0  0  0  0  0  0  0
    3.2679    0.7535    0.2059 C   0  0  1  0  0  0  0  0  0  0  0  0
    3.6571   -0.6510   -0.2864 C   0  0  1  0  0  0  0  0  0  0  0  0
    5.0761   -1.0206    0.1420 C   0  0  0  0  0  0  0  0  0  0  0  0
    6.0928    0.0148   -0.3548 C   0  0  0  0  0  0  0  0  0  0  0  0
    5.7123    1.4265    0.1068 C   0  0  0  0  0  0  0  0  0  0  0  0
    4.2815    1.7848   -0.3161 C   0  0  0  0  0  0  0  0  0  0  0  0
    2.6177   -1.5471    1.1633 H   0  0  0  0  0  0  0  0  0  0  0  0
    1.8418    1.1602   -1.2302 H   0  0  0  0  0  0  0  0  0  0  0  0
    1.2773    4.6699   -0.7120 H   0  0  0  0  0  0  0  0  0  0  0  0
   -0.4475    5.7067   -2.1949 H   0  0  0  0  0  0  0  0  0  0  0  0
   -2.5402    4.4269   -2.7530 H   0  0  0  0  0  0  0  0  0  0  0  0
   -2.8820    2.1398   -1.8178 H   0  0  0  0  0  0  0  0  0  0  0  0
   -1.5415   -0.3156   -2.8021 H   0  0  0  0  0  0  0  0  0  0  0  0
   -3.4366   -1.2386   -4.1539 H   0  0  0  0  0  0  0  0  0  0  0  0
   -5.6372   -1.7459   -3.0548 H   0  0  0  0  0  0  0  0  0  0  0  0
   -5.9367   -1.2956   -0.6057 H   0  0  0  0  0  0  0  0  0  0  0  0
   -4.0633   -0.3342    0.7323 H   0  0  0  0  0  0  0  0  0  0  0  0
   -1.8950   -1.2297    2.3058 H   0  0  0  0  0  0  0  0  0  0  0  0
   -2.8326   -0.7232    4.5756 H   0  0  0  0  0  0  0  0  0  0  0  0
   -3.4277    1.6348    5.1983 H   0  0  0  0  0  0  0  0  0  0  0  0
   -3.0864    3.4838    3.5372 H   0  0  0  0  0  0  0  0  0  0  0  0
   -2.1670    2.9823    1.2773 H   0  0  0  0  0  0  0  0  0  0  0  0
    2.0427    3.0170    0.6155 H   0  0  0  0  0  0  0  0  0  0  0  0
    0.8972    1.9176    1.4467 H   0  0  0  0  0  0  0  0  0  0  0  0
    3.2734    0.7429    1.3187 H   0  0  0  0  0  0  0  0  0  0  0  0
    3.5681   -0.6731   -1.3945 H   0  0  0  0  0  0  0  0  0  0  0  0
    5.3120   -2.0354   -0.2373 H   0  0  0  0  0  0  0  0  0  0  0  0
    5.1077   -1.0749    1.2537 H   0  0  0  0  0  0  0  0  0  0  0  0
    7.1109   -0.2504   -0.0034 H   0  0  0  0  0  0  0  0  0  0  0  0
    6.1280   -0.0110   -1.4665 H   0  0  0  0  0  0  0  0  0  0  0  0
    6.4249    2.1747   -0.2971 H   0  0  0  0  0  0  0  0  0  0  0  0
    5.7898    1.4856    1.2152 H   0  0  0  0  0  0  0  0  0  0  0  0
    4.0184    2.8006    0.0433 H   0  0  0  0  0  0  0  0  0  0  0  0
    4.2148    1.8131   -1.4273 H   0  0  0  0  0  0  0  0  0  0  0  0
  1 16  1  0  0  0  0
  2 29  1  0  0  0  0
  3 23  1  0  0  0  0
  3 22  1  0  0  0  0
  4  5  1  0  0  0  0
  4  1  1  0  0  0  0
  5 22  1  0  0  0  0
  6 31  1  0  0  0  0
  6  5  2  0  0  0  0
  7  6  1  0  0  0  0
  8  7  2  0  0  0  0
  8  9  1  0  0  0  0
  9  4  2  0  0  0  0
 10 15  1  0  0  0  0
 10  1  1  0  0  0  0
 11 10  2  0  0  0  0
 12 13  2  0  0  0  0
 12 11  1  0  0  0  0
 13 14  1  0  0  0  0
 14 38  1  0  0  0  0
 14 15  2  0  0  0  0
 15 39  1  0  0  0  0
 16 21  2  0  0  0  0
 16 17  1  0  0  0  0
 17 18  2  0  0  0  0
 18 19  1  0  0  0  0
 18 41  1  0  0  0  0
 19 42  1  0  0  0  0
 20 43  1  0  0  0  0
 20 19  2  0  0  0  0
 21 20  1  0  0  0  0
 22 45  1  0  0  0  0
 22 46  1  0  0  0  0
 23 47  1  1  0  0  0
 24 48  1  6  0  0  0
 24 25  1  0  0  0  0
 24  2  1  0  0  0  0
 24 23  1  0  0  0  0
 25 50  1  0  0  0  0
 26 51  1  0  0  0  0
 26 27  1  0  0  0  0
 26 25  1  0  0  0  0
 27 54  1  0  0  0  0
 28 55  1  0  0  0  0
 28 27  1  0  0  0  0
 28 23  1  0  0  0  0
 30  3  1  0  0  0  0
 32  7  1  0  0  0  0
 33  8  1  0  0  0  0
 34  9  1  0  0  0  0
 35 11  1  0  0  0  0
 36 12  1  0  0  0  0
 37 13  1  0  0  0  0
 40 17  1  0  0  0  0
 44 21  1  0  0  0  0
 49 25  1  0  0  0  0
 52 26  1  0  0  0  0
 53 27  1  0  0  0  0
 56 28  1  0  0  0  0
M  END
