1,2
q = 0.0, confidence = 0.998

 47 49  0  0  0  0  0  0  0  0999 V2000
   -1.0771    0.1316   -0.4200 P   0  0  0  0  0  0  0  0  0  0  0  0
    1.9500    0.2431   -0.3924 N   0  0  0  0  0  0  0  0  0  0  0  0
    4.8150    0.2926   -1.0153 N   0  0  0  0  0  0  0  0  0  0  0  0
    2.6783   -0.9215   -0.9896 C   0  0  0  0  0  0  0  0  0  0  0  0
    1.9683   -1.5105   -1.6017 H   0  0  0  0  0  0  0  0  0  0  0  0
    2.9894   -1.5445   -0.1270 H   0  0  0  0  0  0  0  0  0  0  0  0
    3.9007   -0.5083   -1.8098 C   0  0  0  0  0  0  0  0  0  0  0  0
    4.4173   -1.4360   -2.1347 H   0  0  0  0  0  0  0  0  0  0  0  0
    3.5931    0.0203   -2.7579 H   0  0  0  0  0  0  0  0  0  0  0  0
    4.1548    1.4628   -0.4599 C   0  0  0  0  0  0  0  0  0  0  0  0
    3.8667    2.2029   -1.2600 H   0  0  0  0  0  0  0  0  0  0  0  0
    4.8642    1.9947    0.2083 H   0  0  0  0  0  0  0  0  0  0  0  0
    2.9444    1.0546    0.3785 C   0  0  0  0  0  0  0  0  0  0  0  0
    3.2613    0.4152    1.2267 H   0  0  0  0  0  0  0  0  0  0  0  0
    2.4194    1.9394    0.7879 H   0  0  0  0  0  0  0  0  0  0  0  0
    1.2676    1.0879   -1.4247 C   0  0  0  0  0  0  0  0  0  0  0  0
    1.9528    1.2845   -2.2760 H   0  0  0  0  0  0  0  0  0  0  0  0
    1.0557    2.0664   -0.9474 H   0  0  0  0  0  0  0  0  0  0  0  0
   -0.0351    0.4722   -1.9194 C   0  0  0  0  0  0  0  0  0  0  0  0
    0.1284   -0.5089   -2.4100 H   0  0  0  0  0  0  0  0  0  0  0  0
   -0.5347    1.1244   -2.6639 H   0  0  0  0  0  0  0  0  0  0  0  0
    6.0418    0.6107   -1.7137 C   0  0  0  0  0  0  0  0  0  0  0  0
    6.5441   -0.3214   -2.0435 H   0  0  0  0  0  0  0  0  0  0  0  0
    6.7348    1.1506   -1.0370 H   0  0  0  0  0  0  0  0  0  0  0  0
    5.8828    1.2529   -2.6229 H   0  0  0  0  0  0  0  0  0  0  0  0
   -2.4064   -0.9876   -0.9855 C   0  0  0  0  0  0  0  0  0  0  0  0
   -3.5652   -0.4858   -1.6109 C   0  0  0  0  0  0  0  0  0  0  0  0
   -3.7136    0.6007   -1.7099 H   0  0  0  0  0  0  0  0  0  0  0  0
   -4.5371   -1.3750   -2.0931 C   0  0  0  0  0  0  0  0  0  0  0  0
   -5.4437   -0.9824   -2.5783 H   0  0  0  0  0  0  0  0  0  0  0  0
   -4.3579   -2.7602   -1.9477 C   0  0  0  0  0  0  0  0  0  0  0  0
   -5.1255   -3.4552   -2.3208 H   0  0  0  0  0  0  0  0  0  0  0  0
   -3.2082   -3.2588   -1.3138 C   0  0  0  0  0  0  0  0  0  0  0  0
   -3.0757   -4.3433   -1.1822 H   0  0  0  0  0  0  0  0  0  0  0  0
   -2.2328   -2.3773   -0.8264 C   0  0  0  0  0  0  0  0  0  0  0  0
   -1.3470   -2.7545   -0.2929 H   0  0  0  0  0  0  0  0  0  0  0  0
   -1.8902    1.7103    0.0312 C   0  0  0  0  0  0  0  0  0  0  0  0
   -2.0490    2.7819   -0.8717 C   0  0  0  0  0  0  0  0  0  0  0  0
   -1.6820    2.7055   -1.9064 H   0  0  0  0  0  0  0  0  0  0  0  0
   -2.6840    3.9631   -0.4561 C   0  0  0  0  0  0  0  0  0  0  0  0
   -2.8026    4.7971   -1.1644 H   0  0  0  0  0  0  0  0  0  0  0  0
   -3.1655    4.0782    0.8570 C   0  0  0  0  0  0  0  0  0  0  0  0
   -3.6623    5.0055    1.1807 H   0  0  0  0  0  0  0  0  0  0  0  0
   -3.0073    3.0120    1.7582 C   0  0  0  0  0  0  0  0  0  0  0  0
   -3.3781    3.1015    2.7905 H   0  0  0  0  0  0  0  0  0  0  0  0
   -2.3679    1.8320    1.3551 C   0  0  0  0  0  0  0  0  0  0  0  0
   -2.2215    0.9924    2.0563 H   0  0  0  0  0  0  0  0  0  0  0  0
  1 37  1  0  0  0  0
  2 13  1  0  0  0  0
  3 10  1  0  0  0  0
  4  2  1  0  0  0  0
  4  6  1  0  0  0  0
  5  4  1  0  0  0  0
  7  3  1  0  0  0  0
  7  4  1  0  0  0  0
  8  7  1  0  0  0  0
  9  7  1  0  0  0  0
 10 12  1  0  0  0  0
 10 13  1  0  0  0  0
 11 10  1  0  0  0  0
 13 15  1  0  0  0  0
 13 14  1  0  0  0  0
 16 18  1  0  0  0  0
 16  2  1  0  0  0  0
 17 16  1  0  0  0  0
 19 16  1  0  0  0  0
 19  1  1  0  0  0  0
 20 19  1  0  0  0  0
 21 19  1  0  0  0  0
 22 24  1  0  0  0  0
 22  3  1  0  0  0  0
 23 22  1  0  0  0  0
 25 22  1  0  0  0  0
 26 35  1  0  0  0  0
 26  1  1  0  0  0  0
 27 26  2  0  0  0  0
 28 27  1  0  0  0  0
 29 31  2  0  0  0  0
 29 27  1  0  0  0  0
 30 29  1  0  0  0  0
 31 33  1  0  0  0  0
 32 31  1  0  0  0  0
 33 34  1  0  0  0  0
 33 35  2  0  0  0  0
 35 36  1  0  0  0  0
 37 46  1  0  0  0  0
 38 40  1  0  0  0  0
 38 37  2  0  0  0  0
 39 38  1  0  0  0  0
 40 42  2  0  0  0  0
 41 40  1  0  0  0  0
 42 43  1  0  0  0  0
 42 44  1  0  0  0  0
 44 45  1  0  0  0  0
 46 44  2  0  0  0  0
 46 47  1  0  0  0  0
M  END
