1,3
q = 0.0, confidence = 0.998

 41 43  0  0  1  0  0  0  0  0999 V2000
    0.8899    0.0310    0.2568 P   0  0  0  0  0  0  0  0  0  0  0  0
   -1.9568    1.1503    2.8236 O   0  0  0  0  0  0  0  0  0  0  0  0
   -1.9492    0.1612    0.7923 N   0  0  0  0  0  2  0  0  0  0  0  0
   -4.1289   -0.8881    1.1884 C   0  0  0  0  0  0  0  0  0  0  0  0
   -4.0139   -1.4794    0.2578 H   0  0  0  0  0  0  0  0  0  0  0  0
   -5.2066   -0.7072    1.3780 H   0  0  0  0  0  0  0  0  0  0  0  0
   -3.7133   -1.4687    2.0369 H   0  0  0  0  0  0  0  0  0  0  0  0
   -3.9548    1.2580   -0.1419 C   0  0  0  0  0  0  0  0  0  0  0  0
   -3.3782    2.1936   -0.2864 H   0  0  0  0  0  0  0  0  0  0  0  0
   -5.0153    1.5198    0.0501 H   0  0  0  0  0  0  0  0  0  0  0  0
   -3.8902    0.6519   -1.0677 H   0  0  0  0  0  0  0  0  0  0  0  0
   -3.3886    0.4467    1.0265 C   0  0  0  0  0  0  0  0  0  0  0  0
   -3.3336    1.2632    2.3577 C   0  0  0  0  0  0  0  0  0  0  0  0
   -3.5495    2.3419    2.2110 H   0  0  0  0  0  0  0  0  0  0  0  0
   -3.9955    0.8613    3.1493 H   0  0  0  0  0  0  0  0  0  0  0  0
   -1.2787    0.5520    1.8264 C   0  0  2  0  0  3  0  0  0  0  0  0
    0.1965    0.3559    1.9777 C   0  0  0  0  0  0  0  0  0  0  0  0
    0.3916   -0.5439    2.5983 H   0  0  0  0  0  0  0  0  0  0  0  0
    0.6663    1.2199    2.4875 H   0  0  0  0  0  0  0  0  0  0  0  0
    1.5181    1.6754   -0.2674 C   0  0  0  0  0  0  0  0  0  0  0  0
    1.1107    2.1706   -1.5223 C   0  0  0  0  0  0  0  0  0  0  0  0
    0.4364    1.5583   -2.1428 H   0  0  0  0  0  0  0  0  0  0  0  0
    1.5484    3.4316   -1.9568 C   0  0  0  0  0  0  0  0  0  0  0  0
    1.2247    3.8129   -2.9369 H   0  0  0  0  0  0  0  0  0  0  0  0
    2.3895    4.2045   -1.1417 C   0  0  0  0  0  0  0  0  0  0  0  0
    2.7292    5.1945   -1.4820 H   0  0  0  0  0  0  0  0  0  0  0  0
    2.7955    3.7174    0.1125 C   0  0  0  0  0  0  0  0  0  0  0  0
    3.4527    4.3237    0.7543 H   0  0  0  0  0  0  0  0  0  0  0  0
    2.3629    2.4575    0.5499 C   0  0  0  0  0  0  0  0  0  0  0  0
    2.6907    2.0811    1.5319 H   0  0  0  0  0  0  0  0  0  0  0  0
    2.3737   -1.0039    0.5674 C   0  0  0  0  0  0  0  0  0  0  0  0
    3.6861   -0.5985    0.2577 C   0  0  0  0  0  0  0  0  0  0  0  0
    3.8722    0.4049   -0.1519 H   0  0  0  0  0  0  0  0  0  0  0  0
    4.7601   -1.4798    0.4639 C   0  0  0  0  0  0  0  0  0  0  0  0
    5.7828   -1.1566    0.2169 H   0  0  0  0  0  0  0  0  0  0  0  0
    4.5330   -2.7652    0.9771 C   0  0  0  0  0  0  0  0  0  0  0  0
    5.3773   -3.4527    1.1367 H   0  0  0  0  0  0  0  0  0  0  0  0
    3.2226   -3.1800    1.2706 C   0  0  0  0  0  0  0  0  0  0  0  0
    3.0361   -4.1945    1.6538 H   0  0  0  0  0  0  0  0  0  0  0  0
    2.1466   -2.3099    1.0548 C   0  0  0  0  0  0  0  0  0  0  0  0
    1.1144   -2.6514    1.2386 H   0  0  0  0  0  0  0  0  0  0  0  0
  1 31  1  0  0  0  0
  1 17  1  0  0  0  0
  3 12  1  0  0  0  0
  3 16  1  0  0  0  0
  4  6  1  0  0  0  0
  4  7  1  0  0  0  0
  5  4  1  0  0  0  0
  8 10  1  0  0  0  0
  8 12  1  0  0  0  0
  9  8  1  0  0  0  0
 11  8  1  0  0  0  0
 12  4  1  0  0  0  0
 12 13  1  0  0  0  0
 13  2  1  0  0  0  0
 13 15  1  0  0  0  0
 14 13  1  0  0  0  0
 16 17  1  1  0  0  0
 16  2  1  0  0  0  0
 17 19  1  0  0  0  0
 17 18  1  0  0  0  0
 20  1  1  0  0  0  0
 20 29  1  0  0  0  0
 21 20  2  0  0  0  0
 22 21  1  0  0  0  0
 23 21  1  0  0  0  0
 23 25  2  0  0  0  0
 24 23  1  0  0  0  0
 25 27  1  0  0  0  0
 26 25  1  0  0  0  0
 27 29  2  0  0  0  0
 27 28  1  0  0  0  0
 29 30  1  0  0  0  0
 31 40  1  0  0  0  0
 32 34  1  0  0  0  0
 32 31  2  0  0  0  0
 33 32  1  0  0  0  0
 34 36  2  0  0  0  0
 35 34  1  0  0  0  0
 36 37  1  0  0  0  0
 36 38  1  0  0  0  0
 38 39  1  0  0  0  0
 40 41  1  0  0  0  0
 40 38  2  0  0  0  0
M  END
