1,8
q = 0.0, confidence = 0.998

 37 39  0  0  0  0  0  0  0  0999 V2000
    0.4066    1.5755   -0.6727 P   0  0  0  0  0  0  0  0  0  0  0  0
   -1.7446    2.5327   -2.3108 C   0  0  0  0  0  0  0  0  0  0  0  0
   -2.1004    3.3198   -3.0037 H   0  0  0  0  0  0  0  0  0  0  0  0
   -1.6178    1.5847   -2.8748 H   0  0  0  0  0  0  0  0  0  0  0  0
   -0.4473    2.9624   -1.6261 C   0  0  0  0  0  0  0  0  0  0  0  0
   -0.6495    3.7775   -0.9018 H   0  0  0  0  0  0  0  0  0  0  0  0
    0.2598    3.3535   -2.3839 H   0  0  0  0  0  0  0  0  0  0  0  0
   -2.7281    1.4062   -0.3605 N   0  0  0  0  0  2  0  0  0  0  0  0
   -3.9699    3.0498   -1.2388 C   0  0  0  0  0  3  0  0  0  0  0  0
   -4.2009    3.8442   -1.9564 H   0  0  0  0  0  0  0  0  0  0  0  0
   -2.8228    2.3240   -1.3530 N   0  0  0  0  0  0  0  0  0  0  0  0
   -4.6585    2.5710   -0.1256 C   0  0  0  0  0  0  0  0  0  0  0  0
   -5.6202    2.9197    0.2621 H   0  0  0  0  0  0  0  0  0  0  0  0
   -3.8393    1.5489    0.3941 C   0  0  0  0  0  0  0  0  0  0  0  0
   -3.9571    0.9269    1.2863 H   0  0  0  0  0  0  0  0  0  0  0  0
    1.6938    1.0414   -1.9067 C   0  0  0  0  0  0  0  0  0  0  0  0
    1.3497    0.7979   -3.2537 C   0  0  0  0  0  0  0  0  0  0  0  0
    0.3145    0.9322   -3.5926 H   0  0  0  0  0  0  0  0  0  0  0  0
    2.3114    0.3302   -4.1620 C   0  0  0  0  0  0  0  0  0  0  0  0
    2.0221    0.1425   -5.2075 H   0  0  0  0  0  0  0  0  0  0  0  0
    3.6286    0.0900   -3.7411 C   0  0  0  0  0  0  0  0  0  0  0  0
    4.3788   -0.2862   -4.4533 H   0  0  0  0  0  0  0  0  0  0  0  0
    3.9825    0.3377   -2.4064 C   0  0  0  0  0  0  0  0  0  0  0  0
    5.0144    0.1618   -2.0655 H   0  0  0  0  0  0  0  0  0  0  0  0
    3.0251    0.8167   -1.4999 C   0  0  0  0  0  0  0  0  0  0  0  0
    3.3184    1.0324   -0.4634 H   0  0  0  0  0  0  0  0  0  0  0  0
    1.4626    2.6041    0.4535 C   0  0  0  0  0  0  0  0  0  0  0  0
    1.4422    2.4036    1.8448 C   0  0  0  0  0  0  0  0  0  0  0  0
    0.7647    1.6507    2.2704 H   0  0  0  0  0  0  0  0  0  0  0  0
    2.2584    3.1835    2.6812 C   0  0  0  0  0  0  0  0  0  0  0  0
    2.2378    3.0075    3.7673 H   0  0  0  0  0  0  0  0  0  0  0  0
    3.0919    4.1718    2.1399 C   0  0  0  0  0  0  0  0  0  0  0  0
    3.7318    4.7801    2.7979 H   0  0  0  0  0  0  0  0  0  0  0  0
    3.1087    4.3850    0.7502 C   0  0  0  0  0  0  0  0  0  0  0  0
    3.7608    5.1590    0.3166 H   0  0  0  0  0  0  0  0  0  0  0  0
    2.3016    3.6049   -0.0882 C   0  0  0  0  0  0  0  0  0  0  0  0
    2.3450    3.7610   -1.1773 H   0  0  0  0  0  0  0  0  0  0  0  0
  1 27  1  0  0  0  0
  2  5  1  0  0  0  0
  2 11  1  0  0  0  0
  3  2  1  0  0  0  0
  4  2  1  0  0  0  0
  5  6  1  0  0  0  0
  5  1  1  0  0  0  0
  7  5  1  0  0  0  0
  8 14  1  0  0  0  0
  9 12  1  0  0  0  0
 10  9  1  0  0  0  0
 11  9  1  0  0  0  0
 11  8  1  0  0  0  0
 12 13  1  0  0  0  0
 12 14  2  0  0  0  0
 14 15  1  0  0  0  0
 16 25  1  0  0  0  0
 16  1  1  0  0  0  0
 17 16  2  0  0  0  0
 18 17  1  0  0  0  0
 19 21  2  0  0  0  0
 19 17  1  0  0  0  0
 20 19  1  0  0  0  0
 21 23  1  0  0  0  0
 22 21  1  0  0  0  0
 23 24  1  0  0  0  0
 23 25  2  0  0  0  0
 25 26  1  0  0  0  0
 27 28  1  0  0  0  0
 28 29  1  0  0  0  0
 28 30  2  0  0  0  0
 30 31  1  0  0  0  0
 32 30  1  0  0  0  0
 32 33  1  0  0  0  0
 34 32  2  0  0  0  0
 35 34  1  0  0  0  0
 36 27  2  0  0  0  0
 36 34  1  0  0  0  0
 37 36  1  0  0  0  0
M  END
