1,6
q = 0.0, confidence = 1.0

 48 50  0  0  0  0  0  0  0  0999 V2000
   -0.1092   -0.5613    0.1637 P   0  0  0  0  0  0  0  0  0  0  0  0
    0.3504    3.3204    0.6779 O   0  0  0  0  0  0  0  0  0  0  0  0
    2.9267    3.7397    0.4660 O   0  0  0  0  0  0  0  0  0  0  0  0
   -1.0181    3.3289    0.7961 N   0  0  0  0  0  2  0  0  0  0  0  0
   -1.3893    2.0808    0.6380 N   0  0  0  0  0  0  0  0  0  0  0  0
    2.0451    1.6122    0.2911 N   0  0  0  0  0  2  0  0  0  0  0  0
   -0.3611    1.2166    0.4203 C   0  0  0  0  0  0  0  0  0  0  0  0
    0.7993    2.0320    0.4345 C   0  0  0  0  0  0  0  0  0  0  0  0
    3.1199    2.5370    0.5408 C   0  0  0  0  0  0  0  0  0  0  0  0
    4.4177    1.9039    0.9374 C   0  0  0  0  0  0  0  0  0  0  0  0
    5.1397    2.6955    1.2021 H   0  0  0  0  0  0  0  0  0  0  0  0
    4.7886    1.2730    0.0986 H   0  0  0  0  0  0  0  0  0  0  0  0
    4.2637    1.2090    1.7878 H   0  0  0  0  0  0  0  0  0  0  0  0
   -2.8272    1.7803    0.6101 C   0  0  0  0  0  0  0  0  0  0  0  0
   -3.3019    2.4797    1.3236 H   0  0  0  0  0  0  0  0  0  0  0  0
   -2.9399    0.7476    0.9938 H   0  0  0  0  0  0  0  0  0  0  0  0
   -3.4043    1.9177   -0.8027 C   0  0  0  0  0  0  0  0  0  0  0  0
   -2.8331    1.2560   -1.4851 H   0  0  0  0  0  0  0  0  0  0  0  0
   -3.2435    2.9620   -1.1459 H   0  0  0  0  0  0  0  0  0  0  0  0
   -4.8941    1.5579   -0.8652 C   0  0  0  0  0  0  0  0  0  0  0  0
   -5.1944    1.5707   -1.9338 H   0  0  0  0  0  0  0  0  0  0  0  0
   -5.0257    0.5037   -0.5365 H   0  0  0  0  0  0  0  0  0  0  0  0
   -5.8135    2.4819   -0.0634 C   0  0  0  0  0  0  0  0  0  0  0  0
   -6.8777    2.2111   -0.2107 H   0  0  0  0  0  0  0  0  0  0  0  0
   -5.6927    3.5405   -0.3742 H   0  0  0  0  0  0  0  0  0  0  0  0
   -5.6187    2.4318    1.0282 H   0  0  0  0  0  0  0  0  0  0  0  0
   -0.6325   -1.4061    1.6966 C   0  0  0  0  0  0  0  0  0  0  0  0
   -1.0934   -0.7111    2.8326 C   0  0  0  0  0  0  0  0  0  0  0  0
   -1.1642    0.3872    2.8246 H   0  0  0  0  0  0  0  0  0  0  0  0
   -1.4423   -1.4200    3.9925 C   0  0  0  0  0  0  0  0  0  0  0  0
   -1.8006   -0.8738    4.8780 H   0  0  0  0  0  0  0  0  0  0  0  0
   -1.3264   -2.8183    4.0242 C   0  0  0  0  0  0  0  0  0  0  0  0
   -1.5992   -3.3717    4.9353 H   0  0  0  0  0  0  0  0  0  0  0  0
   -0.8474   -3.5093    2.8981 C   0  0  0  0  0  0  0  0  0  0  0  0
   -0.7363   -4.6037    2.9277 H   0  0  0  0  0  0  0  0  0  0  0  0
   -0.4937   -2.8117    1.7357 C   0  0  0  0  0  0  0  0  0  0  0  0
   -0.0798   -3.3370    0.8598 H   0  0  0  0  0  0  0  0  0  0  0  0
   -1.3317   -1.0282   -1.1170 C   0  0  0  0  0  0  0  0  0  0  0  0
   -1.0170   -0.7380   -2.4606 C   0  0  0  0  0  0  0  0  0  0  0  0
   -0.0236   -0.3333   -2.7105 H   0  0  0  0  0  0  0  0  0  0  0  0
   -1.9646   -0.9843   -3.4630 C   0  0  0  0  0  0  0  0  0  0  0  0
   -1.7184   -0.7592   -4.5114 H   0  0  0  0  0  0  0  0  0  0  0  0
   -3.2155   -1.5351   -3.1337 C   0  0  0  0  0  0  0  0  0  0  0  0
   -3.9535   -1.7354   -3.9252 H   0  0  0  0  0  0  0  0  0  0  0  0
   -3.5170   -1.8479   -1.7989 C   0  0  0  0  0  0  0  0  0  0  0  0
   -4.4884   -2.2968   -1.5419 H   0  0  0  0  0  0  0  0  0  0  0  0
   -2.5773   -1.5956   -0.7865 C   0  0  0  0  0  0  0  0  0  0  0  0
   -2.8094   -1.8490    0.2592 H   0  0  0  0  0  0  0  0  0  0  0  0
  1  7  1  0  0  0  0
  1 27  1  0  0  0  0
  2  4  1  0  0  0  0
  3  9  2  0  0  0  0
  5  4  1  0  0  0  0
  6  8  1  0  0  0  0
  6  9  1  0  0  0  0
  7  8  2  0  0  0  0
  7  5  1  0  0  0  0
  8  2  1  0  0  0  0
  9 10  1  0  0  0  0
 10 11  1  0  0  0  0
 10 13  1  0  0  0  0
 12 10  1  0  0  0  0
 14  5  1  0  0  0  0
 14 16  1  0  0  0  0
 14 15  1  0  0  0  0
 17 14  1  0  0  0  0
 18 17  1  0  0  0  0
 19 17  1  0  0  0  0
 20 17  1  0  0  0  0
 20 22  1  0  0  0  0
 20 23  1  0  0  0  0
 21 20  1  0  0  0  0
 23 26  1  0  0  0  0
 24 23  1  0  0  0  0
 25 23  1  0  0  0  0
 27 36  2  0  0  0  0
 27 28  1  0  0  0  0
 28 30  2  0  0  0  0
 29 28  1  0  0  0  0
 30 32  1  0  0  0  0
 30 31  1  0  0  0  0
 32 33  1  0  0  0  0
 34 35  1  0  0  0  0
 34 32  2  0  0  0  0
 36 34  1  0  0  0  0
 37 36  1  0  0  0  0
 38 47  1  0  0  0  0
 38  1  1  0  0  0  0
 39 38  2  0  0  0  0
 40 39  1  0  0  0  0
 41 43  2  0  0  0  0
 41 39  1  0  0  0  0
 42 41  1  0  0  0  0
 43 45  1  0  0  0  0
 44 43  1  0  0  0  0
 45 46  1  0  0  0  0
 45 47  2  0  0  0  0
 47 48  1  0  0  0  0
M  END
