1,2
q = 0.0, confidence = 0.99

 52 56  0  0  0  0  0  0  0  0999 V2000
   -0.7210    0.7707    0.0102 P   0  0  1  0  0  0  0  0  0  0  0  0
   -0.2712   -2.1205   -0.9612 N   0  0  0  0  0  2  0  0  0  0  0  0
    1.1075    0.9143    1.8877 N   0  0  0  0  0  0  0  0  0  0  0  0
    0.3406   -3.2038   -0.4356 C   0  0  0  0  0  3  0  0  0  0  0  0
    1.4438   -3.1772   -0.4531 H   0  0  0  0  0  0  0  0  0  0  0  0
   -0.3647   -4.2902    0.0962 C   0  0  0  0  0  0  0  0  0  0  0  0
    0.1818   -5.1437    0.5226 H   0  0  0  0  0  0  0  0  0  0  0  0
   -1.7655   -4.2580    0.0637 C   0  0  0  0  0  0  0  0  0  0  0  0
   -2.3587   -5.0876    0.4767 H   0  0  0  0  0  0  0  0  0  0  0  0
   -2.4023   -3.1466   -0.5059 C   0  0  0  0  0  0  0  0  0  0  0  0
   -3.4988   -3.0808   -0.5443 H   0  0  0  0  0  0  0  0  0  0  0  0
   -1.6309   -2.0842   -1.0144 C   0  0  0  0  0  0  0  0  0  0  0  0
   -2.2956   -0.9065   -1.6529 C   0  0  0  0  0  0  0  0  0  0  0  0
   -3.2516   -1.1587   -2.6567 C   0  0  0  0  0  0  0  0  0  0  0  0
   -3.4515   -2.2007   -2.9505 H   0  0  0  0  0  0  0  0  0  0  0  0
   -3.9189   -0.1102   -3.3084 C   0  0  0  0  0  0  0  0  0  0  0  0
   -4.6479   -0.3331   -4.1018 H   0  0  0  0  0  0  0  0  0  0  0  0
   -3.6413    1.2146   -2.9485 C   0  0  0  0  0  0  0  0  0  0  0  0
   -4.1544    2.0473   -3.4533 H   0  0  0  0  0  0  0  0  0  0  0  0
   -2.7082    1.4833   -1.9340 C   0  0  0  0  0  0  0  0  0  0  0  0
   -2.5062    2.5245   -1.6419 H   0  0  0  0  0  0  0  0  0  0  0  0
   -2.0283    0.4433   -1.2720 C   0  0  0  0  0  0  0  0  0  0  0  0
   -0.6835    2.5939    0.1348 C   0  0  0  0  0  0  0  0  0  0  0  0
   -1.5887    3.3357    0.9169 C   0  0  0  0  0  0  0  0  0  0  0  0
   -2.3637    2.8160    1.5010 H   0  0  0  0  0  0  0  0  0  0  0  0
   -1.4920    4.7352    0.9569 C   0  0  0  0  0  0  0  0  0  0  0  0
   -2.1967    5.3144    1.5733 H   0  0  0  0  0  0  0  0  0  0  0  0
   -0.4983    5.3961    0.2158 C   0  0  0  0  0  0  0  0  0  0  0  0
   -0.4254    6.4939    0.2504 H   0  0  0  0  0  0  0  0  0  0  0  0
    0.4069    4.6558   -0.5625 C   0  0  0  0  0  0  0  0  0  0  0  0
    1.1921    5.1700   -1.1375 H   0  0  0  0  0  0  0  0  0  0  0  0
    0.3200    3.2563   -0.6008 C   0  0  0  0  0  0  0  0  0  0  0  0
    1.0380    2.6568   -1.1859 H   0  0  0  0  0  0  0  0  0  0  0  0
    2.4137    1.1857    1.7801 C   0  0  0  0  0  0  0  0  0  0  0  0
    2.6843    2.0403    1.1377 H   0  0  0  0  0  0  0  0  0  0  0  0
    3.3990    0.4249    2.4256 C   0  0  0  0  0  0  0  0  0  0  0  0
    4.4615    0.6783    2.3045 H   0  0  0  0  0  0  0  0  0  0  0  0
    2.9911   -0.6777    3.1913 C   0  0  0  0  0  0  0  0  0  0  0  0
    3.7345   -1.3148    3.6936 H   0  0  0  0  0  0  0  0  0  0  0  0
    1.6259   -0.9777    3.2867 C   0  0  0  0  0  0  0  0  0  0  0  0
    1.2838   -1.8607    3.8453 H   0  0  0  0  0  0  0  0  0  0  0  0
    0.7015   -0.1464    2.6190 C   0  0  0  0  0  0  0  0  0  0  0  0
   -0.7597   -0.3766    2.6161 C   0  0  0  0  0  0  0  0  0  0  0  0
   -1.3993   -1.0443    3.6813 C   0  0  0  0  0  0  0  0  0  0  0  0
   -0.7980   -1.3875    4.5363 H   0  0  0  0  0  0  0  0  0  0  0  0
   -2.7853   -1.2409    3.6876 C   0  0  0  0  0  0  0  0  0  0  0  0
   -3.2634   -1.7519    4.5369 H   0  0  0  0  0  0  0  0  0  0  0  0
   -3.5597   -0.7685    2.6165 C   0  0  0  0  0  0  0  0  0  0  0  0
   -4.6518   -0.9054    2.6163 H   0  0  0  0  0  0  0  0  0  0  0  0
   -2.9386   -0.1184    1.5409 C   0  0  0  0  0  0  0  0  0  0  0  0
   -3.5482    0.2291    0.6936 H   0  0  0  0  0  0  0  0  0  0  0  0
   -1.5434    0.0872    1.5178 C   0  0  0  0  0  0  0  0  0  0  0  0
  1 22  1  6  0  0  0
  1 23  1  0  0  0  0
  1 52  1  0  0  0  0
  2  4  1  0  0  0  0
  3 42  1  0  0  0  0
  4  6  1  0  0  0  0
  5  4  1  0  0  0  0
  6  7  1  0  0  0  0
  8  6  2  0  0  0  0
  8  9  1  0  0  0  0
 10  8  1  0  0  0  0
 11 10  1  0  0  0  0
 12  2  1  0  0  0  0
 12 10  2  0  0  0  0
 13 22  1  0  0  0  0
 13 12  1  0  0  0  0
 14 13  2  0  0  0  0
 15 14  1  0  0  0  0
 16 18  2  0  0  0  0
 16 14  1  0  0  0  0
 17 16  1  0  0  0  0
 18 20  1  0  0  0  0
 19 18  1  0  0  0  0
 20 21  1  0  0  0  0
 20 22  2  0  0  0  0
 23 24  1  0  0  0  0
 24 26  2  0  0  0  0
 24 25  1  0  0  0  0
 26 27  1  0  0  0  0
 28 29  1  0  0  0  0
 28 26  1  0  0  0  0
 30 28  2  0  0  0  0
 31 30  1  0  0  0  0
 32 30  1  0  0  0  0
 32 23  2  0  0  0  0
 33 32  1  0  0  0  0
 34  3  2  0  0  0  0
 34 36  1  0  0  0  0
 35 34  1  0  0  0  0
 36 38  2  0  0  0  0
 37 36  1  0  0  0  0
 38 40  1  0  0  0  0
 38 39  1  0  0  0  0
 40 41  1  0  0  0  0
 42 40  2  0  0  0  0
 43 42  1  0  0  0  0
 43 44  1  0  0  0  0
 44 46  2  0  0  0  0
 44 45  1  0  0  0  0
 46 47  1  0  0  0  0
 48 46  1  0  0  0  0
 49 48  1  0  0  0  0
 50 48  2  0  0  0  0
 51 50  1  0  0  0  0
 52 50  1  0  0  0  0
 52 43  2  0  0  0  0
M  END
