1,2
q = 0.0, confidence = 0.998

 39 38  0  0  0  0  0  0  0  0999 V2000
    0.5140    0.7777    1.5177 P   0  0  0  0  0  0  0  0  0  0  0  0
   -0.5035    2.7937   -1.0166 N   0  0  0  0  0  0  0  0  0  0  0  0
    0.5260    2.5328    2.1470 C   0  0  0  0  0  0  0  0  0  0  0  0
   -0.4263    2.6916    2.6949 H   0  0  0  0  0  0  0  0  0  0  0  0
    1.3341    2.6049    2.9036 H   0  0  0  0  0  0  0  0  0  0  0  0
    3.2443    0.9126    0.9269 C   0  0  0  0  0  0  0  0  0  0  0  0
    3.3696    1.9763    1.2207 H   0  0  0  0  0  0  0  0  0  0  0  0
    2.9077    0.8719   -0.1277 H   0  0  0  0  0  0  0  0  0  0  0  0
    4.2418    0.4311    0.9821 H   0  0  0  0  0  0  0  0  0  0  0  0
   -0.5609   -0.0509    2.8135 C   0  0  0  0  0  0  0  0  0  0  0  0
   -0.2393    0.4181    3.7717 H   0  0  0  0  0  0  0  0  0  0  0  0
   -0.3413   -1.5643    2.9058 C   0  0  0  0  0  0  0  0  0  0  0  0
   -0.9935   -1.9879    3.6972 H   0  0  0  0  0  0  0  0  0  0  0  0
    0.7040   -1.8303    3.1557 H   0  0  0  0  0  0  0  0  0  0  0  0
   -0.5983   -2.0606    1.9523 H   0  0  0  0  0  0  0  0  0  0  0  0
   -0.5049    3.7318    0.1308 C   0  0  0  0  0  0  0  0  0  0  0  0
   -1.4411    3.5511    0.6986 H   0  0  0  0  0  0  0  0  0  0  0  0
   -0.5733    4.7687   -0.2760 H   0  0  0  0  0  0  0  0  0  0  0  0
    2.2590    0.1853    1.8504 C   0  0  0  0  0  0  0  0  0  0  0  0
    2.2229   -0.8774    1.5302 H   0  0  0  0  0  0  0  0  0  0  0  0
    2.6928    0.2539    3.3175 C   0  0  0  0  0  0  0  0  0  0  0  0
    3.7062   -0.1857    3.4249 H   0  0  0  0  0  0  0  0  0  0  0  0
    2.0185   -0.3029    3.9967 H   0  0  0  0  0  0  0  0  0  0  0  0
    2.7589    1.2997    3.6845 H   0  0  0  0  0  0  0  0  0  0  0  0
    0.5039    3.1949   -2.0256 C   0  0  0  0  0  0  0  0  0  0  0  0
    0.4687    2.4561   -2.8471 H   0  0  0  0  0  0  0  0  0  0  0  0
    1.5145    3.1806   -1.5779 H   0  0  0  0  0  0  0  0  0  0  0  0
    0.2847    4.2179   -2.4110 H   0  0  0  0  0  0  0  0  0  0  0  0
   -1.8473    2.8047   -1.6430 C   0  0  0  0  0  0  0  0  0  0  0  0
   -2.1124    3.8331   -1.9803 H   0  0  0  0  0  0  0  0  0  0  0  0
   -2.5930    2.4526   -0.9051 H   0  0  0  0  0  0  0  0  0  0  0  0
   -1.8268    2.1051   -2.4982 H   0  0  0  0  0  0  0  0  0  0  0  0
   -2.0331    0.2960    2.5554 C   0  0  0  0  0  0  0  0  0  0  0  0
   -2.3763   -0.1329    1.5940 H   0  0  0  0  0  0  0  0  0  0  0  0
   -2.2102    1.3904    2.5184 H   0  0  0  0  0  0  0  0  0  0  0  0
   -2.6704   -0.1172    3.3639 H   0  0  0  0  0  0  0  0  0  0  0  0
    0.6871    3.6202    1.0816 C   0  0  0  0  0  0  0  0  0  0  0  0
    0.7991    4.5981    1.5954 H   0  0  0  0  0  0  0  0  0  0  0  0
    1.6254    3.4746    0.5078 H   0  0  0  0  0  0  0  0  0  0  0  0
  1 19  1  0  0  0  0
  1  3  1  0  0  0  0
  1 10  1  0  0  0  0
  2 16  1  0  0  0  0
  3  4  1  0  0  0  0
  3  5  1  0  0  0  0
  6  9  1  0  0  0  0
  6  7  1  0  0  0  0
  6 19  1  0  0  0  0
  8  6  1  0  0  0  0
 10 12  1  0  0  0  0
 10 11  1  0  0  0  0
 12 14  1  0  0  0  0
 12 13  1  0  0  0  0
 15 12  1  0  0  0  0
 16 17  1  0  0  0  0
 16 37  1  0  0  0  0
 18 16  1  0  0  0  0
 19 21  1  0  0  0  0
 20 19  1  0  0  0  0
 21 22  1  0  0  0  0
 21 24  1  0  0  0  0
 21 23  1  0  0  0  0
 25 27  1  0  0  0  0
 25  2  1  0  0  0  0
 26 25  1  0  0  0  0
 28 25  1  0  0  0  0
 29  2  1  0  0  0  0
 29 31  1  0  0  0  0
 30 29  1  0  0  0  0
 32 29  1  0  0  0  0
 33 10  1  0  0  0  0
 33 36  1  0  0  0  0
 34 33  1  0  0  0  0
 35 33  1  0  0  0  0
 37 38  1  0  0  0  0
 37  3  1  0  0  0  0
 39 37  1  0  0  0  0
M  END
