1,3
q = 0.0, confidence = 0.994

 71 72  0  0  0  0  0  0  0  0999 V2000
   -1.3319    0.0734   -0.1141 P   0  0  0  0  0  0  0  0  0  0  0  0
   -1.2052    0.9655   -1.6652 N   0  0  0  0  0  0  0  0  0  0  0  0
    1.6916    0.3152   -0.8090 N   0  0  0  0  0  2  0  0  0  0  0  0
   -2.8876   -0.6088   -0.3720 N   0  0  0  0  0  0  0  0  0  0  0  0
   -1.4568    1.2888    1.0560 N   0  0  0  0  0  0  0  0  0  0  0  0
   -2.2502    1.4724   -2.4057 C   0  0  0  0  0  0  0  0  0  0  0  0
   -3.2787    1.2090   -2.1389 H   0  0  0  0  0  0  0  0  0  0  0  0
   -1.7414    2.2658   -3.4351 C   0  0  0  0  0  0  0  0  0  0  0  0
   -2.3342    2.7875   -4.1944 H   0  0  0  0  0  0  0  0  0  0  0  0
   -0.3320    2.2534   -3.3085 C   0  0  0  0  0  0  0  0  0  0  0  0
    0.3997    2.7636   -3.9464 H   0  0  0  0  0  0  0  0  0  0  0  0
   -0.0070    1.4314   -2.2111 C   0  0  0  0  0  0  0  0  0  0  0  0
    1.3129    1.1741   -1.7225 C   0  0  0  0  0  3  0  0  0  0  0  0
    2.0929    1.8227   -2.1646 H   0  0  0  0  0  0  0  0  0  0  0  0
    3.0697    0.3415   -0.4211 C   0  0  0  0  0  0  0  0  0  0  0  0
    4.0902    0.3096   -1.3860 C   0  0  0  0  0  0  0  0  0  0  0  0
    3.8292    0.1874   -2.4481 H   0  0  0  0  0  0  0  0  0  0  0  0
    5.4394    0.3704   -0.9926 C   0  0  0  0  0  0  0  0  0  0  0  0
    5.7357    0.4760    0.3796 C   0  0  0  0  0  0  0  0  0  0  0  0
    6.7900    0.5245    0.6971 H   0  0  0  0  0  0  0  0  0  0  0  0
    4.7242    0.4995    1.3602 C   0  0  0  0  0  0  0  0  0  0  0  0
    3.3855    0.4258    0.9444 C   0  0  0  0  0  0  0  0  0  0  0  0
    2.5701    0.4199    1.6817 H   0  0  0  0  0  0  0  0  0  0  0  0
    6.5405    0.2690   -2.0185 C   0  0  0  0  0  0  0  0  0  0  0  0
    7.4776    0.7379   -1.6596 H   0  0  0  0  0  0  0  0  0  0  0  0
    6.2564    0.7496   -2.9758 H   0  0  0  0  0  0  0  0  0  0  0  0
    6.7696   -0.7948   -2.2441 H   0  0  0  0  0  0  0  0  0  0  0  0
    5.0600    0.5506    2.8292 C   0  0  0  0  0  0  0  0  0  0  0  0
    4.3557    1.1996    3.3875 H   0  0  0  0  0  0  0  0  0  0  0  0
    6.0881    0.9230    3.0039 H   0  0  0  0  0  0  0  0  0  0  0  0
    4.9900   -0.4635    3.2777 H   0  0  0  0  0  0  0  0  0  0  0  0
   -2.3088    2.4813    0.8174 C   0  0  0  0  0  0  0  0  0  0  0  0
   -3.0215    2.1651    0.0290 H   0  0  0  0  0  0  0  0  0  0  0  0
   -1.5378    3.6827    0.2425 C   0  0  0  0  0  0  0  0  0  0  0  0
   -0.9022    4.1734    1.0029 H   0  0  0  0  0  0  0  0  0  0  0  0
   -2.2566    4.4391   -0.1324 H   0  0  0  0  0  0  0  0  0  0  0  0
   -0.8947    3.3797   -0.6052 H   0  0  0  0  0  0  0  0  0  0  0  0
   -3.1613    2.8907    2.0240 C   0  0  0  0  0  0  0  0  0  0  0  0
   -3.7768    2.0520    2.4012 H   0  0  0  0  0  0  0  0  0  0  0  0
   -3.8471    3.7078    1.7234 H   0  0  0  0  0  0  0  0  0  0  0  0
   -2.5426    3.2710    2.8597 H   0  0  0  0  0  0  0  0  0  0  0  0
   -0.5881    1.1152    2.2555 C   0  0  0  0  0  0  0  0  0  0  0  0
    0.1178    0.3081    1.9472 H   0  0  0  0  0  0  0  0  0  0  0  0
    0.2761    2.3371    2.5735 C   0  0  0  0  0  0  0  0  0  0  0  0
    0.8547    2.6580    1.6855 H   0  0  0  0  0  0  0  0  0  0  0  0
    0.9991    2.0690    3.3700 H   0  0  0  0  0  0  0  0  0  0  0  0
   -0.3121    3.1999    2.9448 H   0  0  0  0  0  0  0  0  0  0  0  0
   -1.3302    0.5562    3.4755 C   0  0  0  0  0  0  0  0  0  0  0  0
   -2.0941    1.2483    3.8781 H   0  0  0  0  0  0  0  0  0  0  0  0
   -0.6018    0.3491    4.2855 H   0  0  0  0  0  0  0  0  0  0  0  0
   -1.8084   -0.4090    3.2172 H   0  0  0  0  0  0  0  0  0  0  0  0
   -3.8694   -0.5175    0.7505 C   0  0  0  0  0  0  0  0  0  0  0  0
   -3.3540    0.0846    1.5228 H   0  0  0  0  0  0  0  0  0  0  0  0
   -4.2050   -1.8552    1.4184 C   0  0  0  0  0  0  0  0  0  0  0  0
   -4.8240   -2.5141    0.7778 H   0  0  0  0  0  0  0  0  0  0  0  0
   -4.7843   -1.6598    2.3429 H   0  0  0  0  0  0  0  0  0  0  0  0
   -3.2760   -2.3926    1.6909 H   0  0  0  0  0  0  0  0  0  0  0  0
   -5.1328    0.2680    0.3582 C   0  0  0  0  0  0  0  0  0  0  0  0
   -4.8796    1.2352   -0.1195 H   0  0  0  0  0  0  0  0  0  0  0  0
   -5.7316    0.4885    1.2656 H   0  0  0  0  0  0  0  0  0  0  0  0
   -5.7835   -0.2921   -0.3392 H   0  0  0  0  0  0  0  0  0  0  0  0
   -2.9730   -1.8203   -1.2560 C   0  0  0  0  0  0  0  0  0  0  0  0
   -2.8452   -2.7042   -0.5933 H   0  0  0  0  0  0  0  0  0  0  0  0
   -1.8682   -1.9218   -2.3158 C   0  0  0  0  0  0  0  0  0  0  0  0
   -1.9515   -1.1412   -3.0969 H   0  0  0  0  0  0  0  0  0  0  0  0
   -1.9629   -2.9100   -2.8061 H   0  0  0  0  0  0  0  0  0  0  0  0
   -0.8468   -1.8898   -1.8802 H   0  0  0  0  0  0  0  0  0  0  0  0
   -4.3325   -1.9023   -1.9608 C   0  0  0  0  0  0  0  0  0  0  0  0
   -5.1808   -2.0098   -1.2612 H   0  0  0  0  0  0  0  0  0  0  0  0
   -4.3420   -2.7891   -2.6251 H   0  0  0  0  0  0  0  0  0  0  0  0
   -4.5091   -1.0057   -2.5901 H   0  0  0  0  0  0  0  0  0  0  0  0
  1  5  1  0  0  0  0
  2  1  1  0  0  0  0
  3 15  1  0  0  0  0
  4  1  1  0  0  0  0
  4 52  1  0  0  0  0
  5 42  1  0  0  0  0
  6  7  1  0  0  0  0
  6  2  1  0  0  0  0
  8 10  1  0  0  0  0
  8  6  2  0  0  0  0
  9  8  1  0  0  0  0
 10 12  2  0  0  0  0
 11 10  1  0  0  0  0
 12 13  1  0  0  0  0
 12  2  1  0  0  0  0
 13  3  1  0  0  0  0
 14 13  1  0  0  0  0
 15 22  1  0  0  0  0
 16 18  1  0  0  0  0
 16 15  2  0  0  0  0
 17 16  1  0  0  0  0
 18 19  2  0  0  0  0
 19 20  1  0  0  0  0
 19 21  1  0  0  0  0
 21 28  1  0  0  0  0
 22 21  2  0  0  0  0
 22 23  1  0  0  0  0
 24 25  1  0  0  0  0
 24 18  1  0  0  0  0
 26 24  1  0  0  0  0
 27 24  1  0  0  0  0
 28 30  1  0  0  0  0
 28 31  1  0  0  0  0
 28 29  1  0  0  0  0
 32  5  1  0  0  0  0
 32 38  1  0  0  0  0
 33 32  1  0  0  0  0
 34 32  1  0  0  0  0
 34 35  1  0  0  0  0
 36 34  1  0  0  0  0
 37 34  1  0  0  0  0
 38 39  1  0  0  0  0
 38 41  1  0  0  0  0
 40 38  1  0  0  0  0
 42 44  1  0  0  0  0
 42 48  1  0  0  0  0
 43 42  1  0  0  0  0
 44 47  1  0  0  0  0
 44 46  1  0  0  0  0
 45 44  1  0  0  0  0
 48 49  1  0  0  0  0
 48 50  1  0  0  0  0
 51 48  1  0  0  0  0
 52 54  1  0  0  0  0
 52 53  1  0  0  0  0
 54 57  1  0  0  0  0
 54 56  1  0  0  0  0
 55 54  1  0  0  0  0
 58 52  1  0  0  0  0
 58 60  1  0  0  0  0
 59 58  1  0  0  0  0
 61 58  1  0  0  0  0
 62 63  1  0  0  0  0
 62  4  1  0  0  0  0
 64 67  1  0  0  0  0
 64 62  1  0  0  0  0
 65 64  1  0  0  0  0
 66 64  1  0  0  0  0
 68 69  1  0  0  0  0
 68 62  1  0  0  0  0
 70 68  1  0  0  0  0
 71 68  1  0  0  0  0
M  END
