1,3
q = -1.0, confidence = 0.0

 37 39  0  0  0  0  0  0  0  0999 V2000
    1.9887    0.0321    0.1756 P   0  0  0  0  0  0  0  0  0  0  0  0
   -0.3903   -1.9642    2.5573 O   0  5  0  0  0  0  0  0  0  0  0  0
    0.1626   -1.8235    1.4237 N   0  3  0  0  0  2  0  0  0  0  0  0
    2.0610   -1.4326   -0.9256 C   0  0  0  0  0  0  0  0  0  0  0  0
    1.4813   -2.6615   -0.4719 C   0  0  0  0  0  0  0  0  0  0  0  0
    1.6507   -3.8082   -1.2897 C   0  0  0  0  0  0  0  0  0  0  0  0
    1.2204   -4.7624   -0.9488 H   0  0  0  0  0  0  0  0  0  0  0  0
    2.3137   -3.7433   -2.5192 C   0  0  0  0  0  0  0  0  0  0  0  0
    2.4135   -4.6521   -3.1323 H   0  0  0  0  0  0  0  0  0  0  0  0
    2.8404   -2.5228   -2.9746 C   0  0  0  0  0  0  0  0  0  0  0  0
    3.3572   -2.4615   -3.9438 H   0  0  0  0  0  0  0  0  0  0  0  0
    2.7190   -1.3802   -2.1686 C   0  0  0  0  0  0  0  0  0  0  0  0
    3.1521   -0.4256   -2.5040 H   0  0  0  0  0  0  0  0  0  0  0  0
    0.7451   -2.8166    0.7698 C   0  0  0  0  0  3  0  0  0  0  0  0
    0.6199   -3.8198    1.2100 H   0  0  0  0  0  0  0  0  0  0  0  0
    3.4354   -0.1477    1.2888 C   0  0  0  0  0  0  0  0  0  0  0  0
    3.3853    0.5504    2.5143 C   0  0  0  0  0  0  0  0  0  0  0  0
    2.4902    1.1490    2.7568 H   0  0  0  0  0  0  0  0  0  0  0  0
    4.4663    0.4656    3.4041 C   0  0  0  0  0  0  0  0  0  0  0  0
    4.4285    1.0107    4.3596 H   0  0  0  0  0  0  0  0  0  0  0  0
    5.5844   -0.3231    3.0858 C   0  0  0  0  0  0  0  0  0  0  0  0
    6.4266   -0.3946    3.7911 H   0  0  0  0  0  0  0  0  0  0  0  0
    5.6250   -1.0299    1.8725 C   0  0  0  0  0  0  0  0  0  0  0  0
    6.4970   -1.6553    1.6268 H   0  0  0  0  0  0  0  0  0  0  0  0
    4.5530   -0.9445    0.9713 C   0  0  0  0  0  0  0  0  0  0  0  0
    4.5790   -1.5011    0.0220 H   0  0  0  0  0  0  0  0  0  0  0  0
    2.3913    1.4560   -0.9040 C   0  0  0  0  0  0  0  0  0  0  0  0
    1.4333    1.8479   -1.8637 C   0  0  0  0  0  0  0  0  0  0  0  0
    0.4889    1.2901   -1.9555 H   0  0  0  0  0  0  0  0  0  0  0  0
    1.6723    2.9530   -2.6900 C   0  0  0  0  0  0  0  0  0  0  0  0
    0.9127    3.2501   -3.4286 H   0  0  0  0  0  0  0  0  0  0  0  0
    2.8637    3.6865   -2.5570 C   0  0  0  0  0  0  0  0  0  0  0  0
    3.0482    4.5607   -3.1999 H   0  0  0  0  0  0  0  0  0  0  0  0
    3.8153    3.3060   -1.5980 C   0  0  0  0  0  0  0  0  0  0  0  0
    4.7486    3.8792   -1.4884 H   0  0  0  0  0  0  0  0  0  0  0  0
    3.5842    2.1937   -0.7727 C   0  0  0  0  0  0  0  0  0  0  0  0
    4.3312    1.8972   -0.0215 H   0  0  0  0  0  0  0  0  0  0  0  0
  1 16  1  0  0  0  0
  3  2  1  0  0  0  0
  4  5  1  0  0  0  0
  4  1  1  0  0  0  0
  5 14  1  0  0  0  0
  6  7  1  0  0  0  0
  6  5  2  0  0  0  0
  8  6  1  0  0  0  0
  9  8  1  0  0  0  0
 10  8  2  0  0  0  0
 10 12  1  0  0  0  0
 11 10  1  0  0  0  0
 12  4  2  0  0  0  0
 13 12  1  0  0  0  0
 14 15  1  0  0  0  0
 14  3  1  0  0  0  0
 16 17  1  0  0  0  0
 17 18  1  0  0  0  0
 17 19  2  0  0  0  0
 19 20  1  0  0  0  0
 21 19  1  0  0  0  0
 21 22  1  0  0  0  0
 23 21  2  0  0  0  0
 24 23  1  0  0  0  0
 25 16  2  0  0  0  0
 25 23  1  0  0  0  0
 26 25  1  0  0  0  0
 27 36  1  0  0  0  0
 27  1  1  0  0  0  0
 28 27  2  0  0  0  0
 29 28  1  0  0  0  0
 30 32  2  0  0  0  0
 30 28  1  0  0  0  0
 31 30  1  0  0  0  0
 32 34  1  0  0  0  0
 33 32  1  0  0  0  0
 34 35  1  0  0  0  0
 34 36  2  0  0  0  0
 36 37  1  0  0  0  0
M  CHG  2   2  -1   3   1
M  END
