2
q = 0.0, confidence = 0.99

 44 48  0  0  1  0  0  0  0  0999 V2000
   -0.5193    0.0664    0.6851 P   0  0  2  0  0  0  0  0  0  0  0  0
    2.2887    0.2611   -0.0727 N   0  0  0  0  0  2  0  0  0  0  0  0
   -1.3107    0.8165    1.9791 N   0  0  1  0  0  0  0  0  0  0  0  0
   -1.8522   -0.9819    0.3336 N   0  0  0  0  0  0  0  0  0  0  0  0
    3.5178    0.5397   -0.5159 C   0  0  0  0  0  0  0  0  0  0  0  0
    4.6650   -0.1518   -0.0565 C   0  0  0  0  0  0  0  0  0  0  0  0
    4.5284   -1.1638    0.8785 C   0  0  0  0  0  0  0  0  0  0  0  0
    3.2321   -1.4870    1.3712 C   0  0  0  0  0  0  0  0  0  0  0  0
    2.9920   -2.5205    2.3222 C   0  0  0  0  0  0  0  0  0  0  0  0
    1.7043   -2.8015    2.7597 C   0  0  0  0  0  0  0  0  0  0  0  0
    0.6052   -2.0505    2.2724 C   0  0  0  0  0  0  0  0  0  0  0  0
    0.8028   -1.0266    1.3521 C   0  0  0  0  0  0  0  0  0  0  0  0
    2.1137   -0.7340    0.8752 C   0  0  2  0  0  3  0  0  0  0  0  0
   -1.3068    2.2781    2.1710 C   0  0  0  0  0  0  0  0  0  0  0  0
   -2.7832    2.6614    2.0192 C   0  0  0  0  0  0  0  0  0  0  0  0
   -3.5166    1.4595    2.6370 C   0  0  0  0  0  0  0  0  0  0  0  0
   -2.6560    0.2451    2.2326 C   0  0  1  0  0  0  0  0  0  0  0  0
   -3.0832   -0.4606    0.9348 C   0  0  0  0  0  0  0  0  0  0  0  0
   -1.8870   -1.8221   -0.7960 C   0  0  0  0  0  0  0  0  0  0  0  0
   -3.1092   -2.3545   -1.2686 C   0  0  0  0  0  0  0  0  0  0  0  0
   -3.1296   -3.2094   -2.3800 C   0  0  0  0  0  0  0  0  0  0  0  0
   -1.9468   -3.5467   -3.0522 C   0  0  0  0  0  0  0  0  0  0  0  0
   -0.7324   -3.0090   -2.5963 C   0  0  0  0  0  0  0  0  0  0  0  0
   -0.6967   -2.1608   -1.4847 C   0  0  0  0  0  0  0  0  0  0  0  0
    3.5562    1.3447   -1.2753 H   0  0  0  0  0  0  0  0  0  0  0  0
    5.6478    0.1280   -0.4616 H   0  0  0  0  0  0  0  0  0  0  0  0
    5.4015   -1.7247    1.2463 H   0  0  0  0  0  0  0  0  0  0  0  0
    3.8501   -3.0979    2.6989 H   0  0  0  0  0  0  0  0  0  0  0  0
    1.5327   -3.6094    3.4862 H   0  0  0  0  0  0  0  0  0  0  0  0
   -0.4166   -2.2792    2.6122 H   0  0  0  0  0  0  0  0  0  0  0  0
   -0.6597    2.7624    1.4120 H   0  0  0  0  0  0  0  0  0  0  0  0
   -0.9152    2.5277    3.1825 H   0  0  0  0  0  0  0  0  0  0  0  0
   -3.0047    2.7496    0.9358 H   0  0  0  0  0  0  0  0  0  0  0  0
   -3.0365    3.6214    2.5096 H   0  0  0  0  0  0  0  0  0  0  0  0
   -4.5639    1.3552    2.2894 H   0  0  0  0  0  0  0  0  0  0  0  0
   -3.5414    1.5450    3.7426 H   0  0  0  0  0  0  0  0  0  0  0  0
   -2.6029   -0.5047    3.0536 H   0  0  0  0  0  0  0  0  0  0  0  0
   -3.7761   -1.2958    1.1611 H   0  0  0  0  0  0  0  0  0  0  0  0
   -3.5895    0.2465    0.2379 H   0  0  0  0  0  0  0  0  0  0  0  0
   -4.0559   -2.0963   -0.7769 H   0  0  0  0  0  0  0  0  0  0  0  0
   -4.0952   -3.6074   -2.7278 H   0  0  0  0  0  0  0  0  0  0  0  0
   -1.9703   -4.2113   -3.9280 H   0  0  0  0  0  0  0  0  0  0  0  0
    0.2080   -3.2438   -3.1174 H   0  0  0  0  0  0  0  0  0  0  0  0
    0.2677   -1.7425   -1.1647 H   0  0  0  0  0  0  0  0  0  0  0  0
  1 12  1  1  0  0  0
  1  3  1  0  0  0  0
  3 14  1  6  0  0  0
  3 17  1  0  0  0  0
  4  1  1  0  0  0  0
  4 18  1  0  0  0  0
  5  2  1  0  0  0  0
  5  6  2  0  0  0  0
  6  7  1  0  0  0  0
  7 27  1  0  0  0  0
  7  8  2  0  0  0  0
  8  9  1  0  0  0  0
  9 28  1  0  0  0  0
  9 10  2  0  0  0  0
 10 29  1  0  0  0  0
 11 30  1  0  0  0  0
 11 10  1  0  0  0  0
 12 11  2  0  0  0  0
 13  2  1  6  0  0  0
 13 12  1  0  0  0  0
 13  8  1  0  0  0  0
 14 32  1  0  0  0  0
 15 14  1  0  0  0  0
 15 34  1  0  0  0  0
 15 16  1  0  0  0  0
 16 36  1  0  0  0  0
 17 16  1  0  0  0  0
 17 37  1  1  0  0  0
 18 38  1  0  0  0  0
 18 17  1  0  0  0  0
 19  4  1  0  0  0  0
 20 19  1  0  0  0  0
 20 40  1  0  0  0  0
 21 20  2  0  0  0  0
 22 23  2  0  0  0  0
 22 21  1  0  0  0  0
 23 24  1  0  0  0  0
 24 44  1  0  0  0  0
 24 19  2  0  0  0  0
 25  5  1  0  0  0  0
 26  6  1  0  0  0  0
 31 14  1  0  0  0  0
 33 15  1  0  0  0  0
 35 16  1  0  0  0  0
 39 18  1  0  0  0  0
 41 21  1  0  0  0  0
 42 22  1  0  0  0  0
 43 23  1  0  0  0  0
M  END
