1,3
q = 0.0, confidence = 0.996

 51 54  0  0  1  0  0  0  0  0999 V2000
   -0.4151    0.8143    0.3535 P   0  0  0  0  0  0  0  0  0  0  0  0
   -0.4387   -1.8662    1.2032 N   0  0  0  0  0  0  0  0  0  0  0  0
    1.8585   -1.3988    0.9717 N   0  0  0  0  0  2  0  0  0  0  0  0
   -0.4135    2.3640    1.3390 C   0  0  0  0  0  0  0  0  0  0  0  0
    0.1947    3.4957    0.7573 C   0  0  0  0  0  0  0  0  0  0  0  0
    0.6918    3.4059   -0.2193 H   0  0  0  0  0  0  0  0  0  0  0  0
    0.1828    4.7242    1.4304 C   0  0  0  0  0  0  0  0  0  0  0  0
    0.6630    5.6003    0.9695 H   0  0  0  0  0  0  0  0  0  0  0  0
   -0.4206    4.8329    2.6937 C   0  0  0  0  0  0  0  0  0  0  0  0
   -0.4209    5.7972    3.2241 H   0  0  0  0  0  0  0  0  0  0  0  0
   -1.0171    3.7079    3.2826 C   0  0  0  0  0  0  0  0  0  0  0  0
   -1.4875    3.7860    4.2746 H   0  0  0  0  0  0  0  0  0  0  0  0
   -1.0165    2.4766    2.6081 C   0  0  0  0  0  0  0  0  0  0  0  0
   -1.4926    1.6085    3.0880 H   0  0  0  0  0  0  0  0  0  0  0  0
   -1.9753    0.9904   -0.6154 C   0  0  0  0  0  0  0  0  0  0  0  0
   -1.9561    0.9038   -2.0202 C   0  0  0  0  0  0  0  0  0  0  0  0
   -1.0158    0.6800   -2.5412 H   0  0  0  0  0  0  0  0  0  0  0  0
   -3.1330    1.1112   -2.7568 C   0  0  0  0  0  0  0  0  0  0  0  0
   -3.1035    1.0479   -3.8550 H   0  0  0  0  0  0  0  0  0  0  0  0
   -4.3356    1.4019   -2.0973 C   0  0  0  0  0  0  0  0  0  0  0  0
   -5.2575    1.5663   -2.6759 H   0  0  0  0  0  0  0  0  0  0  0  0
   -4.3617    1.4842   -0.6949 C   0  0  0  0  0  0  0  0  0  0  0  0
   -5.3029    1.7085   -0.1710 H   0  0  0  0  0  0  0  0  0  0  0  0
   -3.1881    1.2860    0.0421 C   0  0  0  0  0  0  0  0  0  0  0  0
   -3.2176    1.3802    1.1384 H   0  0  0  0  0  0  0  0  0  0  0  0
   -0.7646   -0.5091    1.6346 C   0  0  0  0  0  0  0  0  0  0  0  0
   -0.1559   -0.2225    2.5200 H   0  0  0  0  0  0  0  0  0  0  0  0
   -1.8348   -0.4805    1.9147 H   0  0  0  0  0  0  0  0  0  0  0  0
    0.8818   -2.2708    1.3583 C   0  0  1  0  0  3  0  0  0  0  0  0
    1.2261   -3.5155    1.9466 C   0  0  0  0  0  0  0  0  0  0  0  0
    0.4449   -4.2290    2.2337 H   0  0  0  0  0  0  0  0  0  0  0  0
    2.5641   -3.7976    2.2217 C   0  0  0  0  0  0  0  0  0  0  0  0
    2.8351   -4.7577    2.6867 H   0  0  0  0  0  0  0  0  0  0  0  0
    3.5442   -2.8277    1.9527 C   0  0  0  0  0  0  0  0  0  0  0  0
    4.6024   -2.9851    2.2008 H   0  0  0  0  0  0  0  0  0  0  0  0
    3.1425   -1.6462    1.3328 C   0  0  0  0  0  0  0  0  0  0  0  0
    3.8491   -0.8375    1.0886 H   0  0  0  0  0  0  0  0  0  0  0  0
   -1.4959   -2.8751    1.3440 C   0  0  0  0  0  0  0  0  0  0  0  0
   -1.6583   -3.1420    2.4168 H   0  0  0  0  0  0  0  0  0  0  0  0
   -1.1371   -3.7894    0.8307 H   0  0  0  0  0  0  0  0  0  0  0  0
   -2.8147   -2.4627    0.7293 C   0  0  0  0  0  0  0  0  0  0  0  0
   -2.9282   -2.2962   -0.6663 C   0  0  0  0  0  0  0  0  0  0  0  0
   -2.0415   -2.4254   -1.3049 H   0  0  0  0  0  0  0  0  0  0  0  0
   -4.1636   -1.9682   -1.2382 C   0  0  0  0  0  0  0  0  0  0  0  0
   -4.2405   -1.8409   -2.3278 H   0  0  0  0  0  0  0  0  0  0  0  0
   -5.2963   -1.7899   -0.4266 C   0  0  0  0  0  0  0  0  0  0  0  0
   -6.2639   -1.5282   -0.8809 H   0  0  0  0  0  0  0  0  0  0  0  0
   -5.1891   -1.9381    0.9634 C   0  0  0  0  0  0  0  0  0  0  0  0
   -6.0714   -1.7967    1.6061 H   0  0  0  0  0  0  0  0  0  0  0  0
   -3.9518   -2.2737    1.5370 C   0  0  0  0  0  0  0  0  0  0  0  0
   -3.8683   -2.4038    2.6283 H   0  0  0  0  0  0  0  0  0  0  0  0
  1  4  1  0  0  0  0
  1 26  1  0  0  0  0
  2 38  1  0  0  0  0
  2 26  1  0  0  0  0
  3 36  1  0  0  0  0
  3 29  1  0  0  0  0
  4 13  1  0  0  0  0
  5  4  2  0  0  0  0
  5  7  1  0  0  0  0
  6  5  1  0  0  0  0
  7  9  2  0  0  0  0
  8  7  1  0  0  0  0
  9 10  1  0  0  0  0
  9 11  1  0  0  0  0
 11 12  1  0  0  0  0
 13 14  1  0  0  0  0
 13 11  2  0  0  0  0
 15 24  1  0  0  0  0
 15  1  1  0  0  0  0
 16 15  2  0  0  0  0
 17 16  1  0  0  0  0
 18 20  2  0  0  0  0
 18 16  1  0  0  0  0
 19 18  1  0  0  0  0
 20 22  1  0  0  0  0
 21 20  1  0  0  0  0
 22 23  1  0  0  0  0
 22 24  2  0  0  0  0
 24 25  1  0  0  0  0
 26 28  1  0  0  0  0
 26 27  1  0  0  0  0
 29  2  1  1  0  0  0
 29 30  1  0  0  0  0
 30 32  2  0  0  0  0
 30 31  1  0  0  0  0
 32 33  1  0  0  0  0
 34 35  1  0  0  0  0
 34 32  1  0  0  0  0
 36 34  2  0  0  0  0
 37 36  1  0  0  0  0
 38 39  1  0  0  0  0
 40 38  1  0  0  0  0
 41 38  1  0  0  0  0
 41 50  1  0  0  0  0
 42 41  2  0  0  0  0
 43 42  1  0  0  0  0
 44 42  1  0  0  0  0
 44 46  2  0  0  0  0
 45 44  1  0  0  0  0
 46 48  1  0  0  0  0
 47 46  1  0  0  0  0
 48 50  2  0  0  0  0
 48 49  1  0  0  0  0
 50 51  1  0  0  0  0
M  END
