1,2
q = 0.0, confidence = 0.996

 50 53  0  0  0  0  0  0  0  0999 V2000
    1.2325    0.0740    0.0373 P   0  0  0  0  0  0  0  0  0  0  0  0
   -1.7497    0.6116   -0.3408 N   0  0  0  0  0  2  0  0  0  0  0  0
   -1.3990    1.8416   -0.5853 C   0  0  0  0  0  3  0  0  0  0  0  0
   -2.1904    2.6095   -0.4754 H   0  0  0  0  0  0  0  0  0  0  0  0
   -0.0975    2.3610   -1.0017 C   0  0  0  0  0  0  0  0  0  0  0  0
    1.1519    1.7025   -0.8162 C   0  0  0  0  0  0  0  0  0  0  0  0
    2.3298    2.3275   -1.2655 C   0  0  0  0  0  0  0  0  0  0  0  0
    3.2941    1.8173   -1.1261 H   0  0  0  0  0  0  0  0  0  0  0  0
    2.2924    3.5861   -1.8864 C   0  0  0  0  0  0  0  0  0  0  0  0
    3.2274    4.0498   -2.2349 H   0  0  0  0  0  0  0  0  0  0  0  0
    1.0675    4.2502   -2.0498 C   0  0  0  0  0  0  0  0  0  0  0  0
    1.0292    5.2402   -2.5278 H   0  0  0  0  0  0  0  0  0  0  0  0
   -0.1097    3.6455   -1.5982 C   0  0  0  0  0  0  0  0  0  0  0  0
   -1.0742    4.1630   -1.7196 H   0  0  0  0  0  0  0  0  0  0  0  0
    2.8471   -0.6009   -0.4953 C   0  0  0  0  0  0  0  0  0  0  0  0
    2.9248   -1.2392   -1.7503 C   0  0  0  0  0  0  0  0  0  0  0  0
    2.0100   -1.3915   -2.3423 H   0  0  0  0  0  0  0  0  0  0  0  0
    4.1609   -1.7008   -2.2188 C   0  0  0  0  0  0  0  0  0  0  0  0
    4.2190   -2.2041   -3.1956 H   0  0  0  0  0  0  0  0  0  0  0  0
    5.3180   -1.5426   -1.4362 C   0  0  0  0  0  0  0  0  0  0  0  0
    6.2856   -1.9168   -1.8037 H   0  0  0  0  0  0  0  0  0  0  0  0
    5.2378   -0.9197   -0.1819 C   0  0  0  0  0  0  0  0  0  0  0  0
    6.1400   -0.8040    0.4377 H   0  0  0  0  0  0  0  0  0  0  0  0
    4.0034   -0.4458    0.2920 C   0  0  0  0  0  0  0  0  0  0  0  0
    3.9383    0.0388    1.2778 H   0  0  0  0  0  0  0  0  0  0  0  0
    1.4177    0.4718    1.8171 C   0  0  0  0  0  0  0  0  0  0  0  0
    1.6332    1.7792    2.2940 C   0  0  0  0  0  0  0  0  0  0  0  0
    1.7170    2.6192    1.5880 H   0  0  0  0  0  0  0  0  0  0  0  0
    1.7395    2.0076    3.6755 C   0  0  0  0  0  0  0  0  0  0  0  0
    1.9042    3.0300    4.0481 H   0  0  0  0  0  0  0  0  0  0  0  0
    1.6362    0.9370    4.5770 C   0  0  0  0  0  0  0  0  0  0  0  0
    1.7189    1.1201    5.6592 H   0  0  0  0  0  0  0  0  0  0  0  0
    1.4217   -0.3677    4.0993 C   0  0  0  0  0  0  0  0  0  0  0  0
    1.3355   -1.2078    4.8050 H   0  0  0  0  0  0  0  0  0  0  0  0
    1.3043   -0.6059    2.7236 C   0  0  0  0  0  0  0  0  0  0  0  0
    1.1201   -1.6217    2.3345 H   0  0  0  0  0  0  0  0  0  0  0  0
   -3.1088    0.4451    0.1195 C   0  0  0  0  0  0  0  0  0  0  0  0
   -3.3171    0.2606    1.4947 C   0  0  0  0  0  0  0  0  0  0  0  0
   -2.4450    0.2061    2.1630 H   0  0  0  0  0  0  0  0  0  0  0  0
   -4.6216    0.1335    1.9877 C   0  0  0  0  0  0  0  0  0  0  0  0
   -4.7870   -0.0111    3.0656 H   0  0  0  0  0  0  0  0  0  0  0  0
   -5.7059    0.1825    1.0991 C   0  0  0  0  0  0  0  0  0  0  0  0
   -6.7347    0.0765    1.4747 H   0  0  0  0  0  0  0  0  0  0  0  0
   -5.4788    0.3513   -0.2741 C   0  0  0  0  0  0  0  0  0  0  0  0
   -6.3309    0.3652   -0.9716 H   0  0  0  0  0  0  0  0  0  0  0  0
   -4.1802    0.4832   -0.8024 C   0  0  0  0  0  0  0  0  0  0  0  0
   -3.9323    0.5690   -2.2838 C   0  0  0  0  0  0  0  0  0  0  0  0
   -4.8853    0.5727   -2.8452 H   0  0  0  0  0  0  0  0  0  0  0  0
   -3.3392   -0.3183   -2.5935 H   0  0  0  0  0  0  0  0  0  0  0  0
   -3.3604    1.4736   -2.5764 H   0  0  0  0  0  0  0  0  0  0  0  0
  1 26  1  0  0  0  0
  2 37  1  0  0  0  0
  3  4  1  0  0  0  0
  3  2  1  0  0  0  0
  5  6  1  0  0  0  0
  5  3  1  0  0  0  0
  6  1  1  0  0  0  0
  7  8  1  0  0  0  0
  7  6  2  0  0  0  0
  9  7  1  0  0  0  0
 10  9  1  0  0  0  0
 11  9  2  0  0  0  0
 11 13  1  0  0  0  0
 12 11  1  0  0  0  0
 13  5  2  0  0  0  0
 14 13  1  0  0  0  0
 15  1  1  0  0  0  0
 15 24  1  0  0  0  0
 16 15  2  0  0  0  0
 17 16  1  0  0  0  0
 18 16  1  0  0  0  0
 18 20  2  0  0  0  0
 19 18  1  0  0  0  0
 20 22  1  0  0  0  0
 21 20  1  0  0  0  0
 22 24  2  0  0  0  0
 22 23  1  0  0  0  0
 24 25  1  0  0  0  0
 26 27  2  0  0  0  0
 26 35  1  0  0  0  0
 27 29  1  0  0  0  0
 28 27  1  0  0  0  0
 29 30  1  0  0  0  0
 29 31  2  0  0  0  0
 31 32  1  0  0  0  0
 33 31  1  0  0  0  0
 33 34  1  0  0  0  0
 35 33  2  0  0  0  0
 36 35  1  0  0  0  0
 37 38  1  0  0  0  0
 38 40  2  0  0  0  0
 38 39  1  0  0  0  0
 40 41  1  0  0  0  0
 42 43  1  0  0  0  0
 42 40  1  0  0  0  0
 44 42  2  0  0  0  0
 45 44  1  0  0  0  0
 46 44  1  0  0  0  0
 46 37  2  0  0  0  0
 47 46  1  0  0  0  0
 48 47  1  0  0  0  0
 49 47  1  0  0  0  0
 50 47  1  0  0  0  0
M  END
