1,2
q = 0.0, confidence = 0.994

 47 50  0  0  0  0  0  0  0  0999 V2000
   -1.3570   -0.9039    0.0605 P   0  0  0  0  0  0  0  0  0  0  0  0
    1.0434   -2.1034   -0.8930 N   0  0  0  0  0  2  0  0  0  0  0  0
   -0.0610   -2.7728   -1.4948 C   0  0  0  0  0  0  0  0  0  0  0  0
    0.0526   -3.8269   -2.4202 C   0  0  0  0  0  0  0  0  0  0  0  0
    1.0411   -4.1646   -2.7636 H   0  0  0  0  0  0  0  0  0  0  0  0
   -1.1061   -4.4186   -2.9442 C   0  0  0  0  0  0  0  0  0  0  0  0
   -1.0103   -5.2295   -3.6813 H   0  0  0  0  0  0  0  0  0  0  0  0
   -2.3802   -3.9726   -2.5551 C   0  0  0  0  0  0  0  0  0  0  0  0
   -3.2816   -4.4398   -2.9778 H   0  0  0  0  0  0  0  0  0  0  0  0
   -2.5020   -2.9130   -1.6421 C   0  0  0  0  0  0  0  0  0  0  0  0
   -3.4947   -2.5419   -1.3459 H   0  0  0  0  0  0  0  0  0  0  0  0
   -1.3479   -2.3100   -1.1183 C   0  0  0  0  0  0  0  0  0  0  0  0
    2.1815   -2.7112   -0.6953 C   0  0  0  0  0  3  0  0  0  0  0  0
    2.3036   -3.7414   -1.0866 H   0  0  0  0  0  0  0  0  0  0  0  0
    3.3159   -2.1698    0.0331 C   0  0  0  0  0  0  0  0  0  0  0  0
    3.1856   -1.1419    1.0007 C   0  0  0  0  0  0  0  0  0  0  0  0
    2.1851   -0.7455    1.2470 H   0  0  0  0  0  0  0  0  0  0  0  0
    4.3113   -0.6630    1.6740 C   0  0  0  0  0  0  0  0  0  0  0  0
    4.2002    0.1255    2.4330 H   0  0  0  0  0  0  0  0  0  0  0  0
    5.5816   -1.2004    1.3958 C   0  0  0  0  0  0  0  0  0  0  0  0
    6.4665   -0.8202    1.9281 H   0  0  0  0  0  0  0  0  0  0  0  0
    5.7210   -2.2388    0.4590 C   0  0  0  0  0  0  0  0  0  0  0  0
    6.7124   -2.6685    0.2541 H   0  0  0  0  0  0  0  0  0  0  0  0
    4.5944   -2.7337   -0.2052 C   0  0  0  0  0  0  0  0  0  0  0  0
    4.6996   -3.5520   -0.9344 H   0  0  0  0  0  0  0  0  0  0  0  0
   -1.3981   -1.6147    1.7395 C   0  0  0  0  0  0  0  0  0  0  0  0
   -1.1753   -0.7627    2.8447 C   0  0  0  0  0  0  0  0  0  0  0  0
   -1.0097    0.3141    2.6821 H   0  0  0  0  0  0  0  0  0  0  0  0
   -1.1873   -1.3004    4.1393 C   0  0  0  0  0  0  0  0  0  0  0  0
   -1.0197   -0.6387    5.0022 H   0  0  0  0  0  0  0  0  0  0  0  0
   -1.4078   -2.6739    4.3366 C   0  0  0  0  0  0  0  0  0  0  0  0
   -1.4112   -3.0898    5.3553 H   0  0  0  0  0  0  0  0  0  0  0  0
   -1.6224   -3.5180    3.2356 C   0  0  0  0  0  0  0  0  0  0  0  0
   -1.7952   -4.5937    3.3885 H   0  0  0  0  0  0  0  0  0  0  0  0
   -1.6182   -2.9942    1.9342 C   0  0  0  0  0  0  0  0  0  0  0  0
   -1.7863   -3.6585    1.0736 H   0  0  0  0  0  0  0  0  0  0  0  0
   -2.9216   -0.0282   -0.2432 C   0  0  0  0  0  0  0  0  0  0  0  0
   -3.1118    0.5764   -1.5048 C   0  0  0  0  0  0  0  0  0  0  0  0
   -2.3041    0.5587   -2.2534 H   0  0  0  0  0  0  0  0  0  0  0  0
   -4.3327    1.1967   -1.7995 C   0  0  0  0  0  0  0  0  0  0  0  0
   -4.4848    1.6618   -2.7847 H   0  0  0  0  0  0  0  0  0  0  0  0
   -5.3570    1.2278   -0.8369 C   0  0  0  0  0  0  0  0  0  0  0  0
   -6.3150    1.7160   -1.0710 H   0  0  0  0  0  0  0  0  0  0  0  0
   -5.1591    0.6425    0.4241 C   0  0  0  0  0  0  0  0  0  0  0  0
   -5.9588    0.6718    1.1789 H   0  0  0  0  0  0  0  0  0  0  0  0
   -3.9422    0.0123    0.7270 C   0  0  0  0  0  0  0  0  0  0  0  0
   -3.7865   -0.4493    1.7130 H   0  0  0  0  0  0  0  0  0  0  0  0
  1 26  1  0  0  0  0
  2 13  1  0  0  0  0
  3 12  1  0  0  0  0
  3  2  1  0  0  0  0
  4  3  2  0  0  0  0
  5  4  1  0  0  0  0
  6  8  2  0  0  0  0
  6  4  1  0  0  0  0
  7  6  1  0  0  0  0
  8 10  1  0  0  0  0
  9  8  1  0  0  0  0
 10 11  1  0  0  0  0
 10 12  2  0  0  0  0
 12  1  1  0  0  0  0
 13 15  1  0  0  0  0
 14 13  1  0  0  0  0
 15 16  1  0  0  0  0
 16 17  1  0  0  0  0
 16 18  2  0  0  0  0
 18 19  1  0  0  0  0
 20 18  1  0  0  0  0
 20 21  1  0  0  0  0
 22 20  2  0  0  0  0
 23 22  1  0  0  0  0
 24 15  2  0  0  0  0
 24 22  1  0  0  0  0
 25 24  1  0  0  0  0
 26 35  2  0  0  0  0
 26 27  1  0  0  0  0
 27 29  2  0  0  0  0
 28 27  1  0  0  0  0
 29 31  1  0  0  0  0
 29 30  1  0  0  0  0
 31 32  1  0  0  0  0
 33 34  1  0  0  0  0
 33 31  2  0  0  0  0
 35 33  1  0  0  0  0
 36 35  1  0  0  0  0
 37  1  1  0  0  0  0
 37 46  1  0  0  0  0
 38 37  2  0  0  0  0
 39 38  1  0  0  0  0
 40 38  1  0  0  0  0
 40 42  2  0  0  0  0
 41 40  1  0  0  0  0
 42 44  1  0  0  0  0
 43 42  1  0  0  0  0
 44 46  2  0  0  0  0
 44 45  1  0  0  0  0
 46 47  1  0  0  0  0
M  END
