6,9
q = 0.0, confidence = 1.0

 64 68  0  0  1  0  0  0  0  0999 V2000
   -2.3958    2.7474   -0.0713 F   0  0  0  0  0  0  0  0  0  0  0  0
   -5.1013    2.5362    0.0967 F   0  0  0  0  0  0  0  0  0  0  0  0
   -6.2444    0.2055    0.9727 F   0  0  0  0  0  0  0  0  0  0  0  0
   -4.6633   -1.9016    1.7208 F   0  0  0  0  0  0  0  0  0  0  0  0
   -1.9540   -1.6837    1.5842 F   0  0  0  0  0  0  0  0  0  0  0  0
    1.1312   -0.6637    1.8267 N   0  0  0  0  0  2  0  0  0  0  0  0
    0.8819    3.4129    0.2925 O   0  0  0  0  0  0  0  0  0  0  0  0
    3.8024    0.1511   -1.3877 O   0  0  0  0  0  0  0  0  0  0  0  0
    0.0336   -0.4175   -0.8997 P   0  0  2  0  0  0  0  0  0  0  0  0
    1.8278   -0.9389    2.9512 C   0  0  0  0  0  3  0  0  0  0  0  0
    2.5986   -1.7214    2.8266 H   0  0  0  0  0  0  0  0  0  0  0  0
    1.5724   -0.2991    4.1674 C   0  0  0  0  0  0  0  0  0  0  0  0
    2.1626   -0.5642    5.0561 H   0  0  0  0  0  0  0  0  0  0  0  0
    0.5537    0.6624    4.2221 C   0  0  0  0  0  0  0  0  0  0  0  0
    0.3150    1.1815    5.1628 H   0  0  0  0  0  0  0  0  0  0  0  0
   -0.1572    0.9524    3.0532 C   0  0  0  0  0  0  0  0  0  0  0  0
   -0.9671    1.6965    3.0516 H   0  0  0  0  0  0  0  0  0  0  0  0
    0.1602    0.2789    1.8593 C   0  0  0  0  0  0  0  0  0  0  0  0
   -0.6009    0.6268    0.5882 C   0  0  2  0  0  0  0  0  0  0  0  0
   -0.3609    1.6755    0.3179 H   0  0  0  0  0  0  0  0  0  0  0  0
   -2.0914    0.5433    0.7747 C   0  0  0  0  0  0  0  0  0  0  0  0
   -2.9305    1.6076    0.4029 C   0  0  0  0  0  0  0  0  0  0  0  0
   -4.3292    1.5104    0.4675 C   0  0  0  0  0  0  0  0  0  0  0  0
   -4.9165    0.3149    0.9137 C   0  0  0  0  0  0  0  0  0  0  0  0
   -4.1040   -0.7652    1.3024 C   0  0  0  0  0  0  0  0  0  0  0  0
   -2.7099   -0.6357    1.2332 C   0  0  0  0  0  0  0  0  0  0  0  0
    0.6047    0.8161   -2.1448 C   0  0  0  0  0  0  0  0  0  0  0  0
    0.1187    0.7745   -3.4691 C   0  0  0  0  0  0  0  0  0  0  0  0
   -0.6293    0.0219   -3.7542 H   0  0  0  0  0  0  0  0  0  0  0  0
    0.5833    1.6779   -4.4348 C   0  0  0  0  0  0  0  0  0  0  0  0
    0.1900    1.6275   -5.4613 H   0  0  0  0  0  0  0  0  0  0  0  0
    1.5440    2.6373   -4.0875 C   0  0  0  0  0  0  0  0  0  0  0  0
    1.9073    3.3577   -4.8360 H   0  0  0  0  0  0  0  0  0  0  0  0
    2.0639    2.6567   -2.7864 C   0  0  0  0  0  0  0  0  0  0  0  0
    2.8485    3.3777   -2.5127 H   0  0  0  0  0  0  0  0  0  0  0  0
    1.6284    1.7439   -1.8070 C   0  0  0  0  0  0  0  0  0  0  0  0
    2.3278    1.7363   -0.4869 C   0  0  0  0  0  0  0  0  0  0  0  0
    1.9699    2.6200    0.5545 C   0  0  0  0  0  0  0  0  0  0  0  0
    2.6704    2.6274    1.7767 C   0  0  0  0  0  0  0  0  0  0  0  0
    2.3804    3.2991    2.5936 H   0  0  0  0  0  0  0  0  0  0  0  0
    3.7430    1.7394    1.9422 C   0  0  0  0  0  0  0  0  0  0  0  0
    4.2810    1.7240    2.9022 H   0  0  0  0  0  0  0  0  0  0  0  0
    4.1476    0.8734    0.9204 C   0  0  0  0  0  0  0  0  0  0  0  0
    4.9801    0.1789    1.0823 H   0  0  0  0  0  0  0  0  0  0  0  0
    3.4552    0.8890   -0.3093 C   0  0  0  0  0  0  0  0  0  0  0  0
    0.4752    4.3581    1.2654 C   0  0  0  0  0  0  0  0  0  0  0  0
    0.2027    3.8735    2.2292 H   0  0  0  0  0  0  0  0  0  0  0  0
   -0.4184    4.8604    0.8514 H   0  0  0  0  0  0  0  0  0  0  0  0
    1.2686    5.1133    1.4587 H   0  0  0  0  0  0  0  0  0  0  0  0
    4.8826   -0.7707   -1.2654 C   0  0  0  0  0  0  0  0  0  0  0  0
    5.8312   -0.2444   -1.0191 H   0  0  0  0  0  0  0  0  0  0  0  0
    4.9816   -1.2498   -2.2562 H   0  0  0  0  0  0  0  0  0  0  0  0
    4.6574   -1.5482   -0.5018 H   0  0  0  0  0  0  0  0  0  0  0  0
   -1.5160   -1.1268   -1.5867 C   0  0  0  0  0  0  0  0  0  0  0  0
   -2.5472   -0.3205   -2.1199 C   0  0  0  0  0  0  0  0  0  0  0  0
   -2.3926    0.7617   -2.2461 H   0  0  0  0  0  0  0  0  0  0  0  0
   -3.7765   -0.8922   -2.4736 C   0  0  0  0  0  0  0  0  0  0  0  0
   -4.5778   -0.2564   -2.8801 H   0  0  0  0  0  0  0  0  0  0  0  0
   -3.9870   -2.2718   -2.3023 C   0  0  0  0  0  0  0  0  0  0  0  0
   -4.9554   -2.7177   -2.5754 H   0  0  0  0  0  0  0  0  0  0  0  0
   -2.9629   -3.0785   -1.7839 C   0  0  0  0  0  0  0  0  0  0  0  0
   -3.1233   -4.1588   -1.6503 H   0  0  0  0  0  0  0  0  0  0  0  0
   -1.7308   -2.5092   -1.4251 C   0  0  0  0  0  0  0  0  0  0  0  0
   -0.9255   -3.1249   -0.9954 H   0  0  0  0  0  0  0  0  0  0  0  0
  1 22  1  0  0  0  0
  2 23  1  0  0  0  0
  6 18  1  0  0  0  0
  6 10  1  0  0  0  0
  7 38  1  0  0  0  0
  7 46  1  0  0  0  0
  8 50  1  0  0  0  0
  8 45  1  0  0  0  0
  9 19  1  1  0  0  0
 10 12  1  0  0  0  0
 11 10  1  0  0  0  0
 12 14  2  0  0  0  0
 12 13  1  0  0  0  0
 14 15  1  0  0  0  0
 16 14  1  0  0  0  0
 17 16  1  0  0  0  0
 18 16  2  0  0  0  0
 19 20  1  6  0  0  0
 19 21  1  0  0  0  0
 19 18  1  0  0  0  0
 21 26  1  0  0  0  0
 22 23  1  0  0  0  0
 22 21  2  0  0  0  0
 23 24  2  0  0  0  0
 24  3  1  0  0  0  0
 24 25  1  0  0  0  0
 25  4  1  0  0  0  0
 26 25  2  0  0  0  0
 26  5  1  0  0  0  0
 27 36  1  0  0  0  0
 27  9  1  0  0  0  0
 28 27  2  0  0  0  0
 29 28  1  0  0  0  0
 30 32  2  0  0  0  0
 30 28  1  0  0  0  0
 31 30  1  0  0  0  0
 32 34  1  0  0  0  0
 33 32  1  0  0  0  0
 34 35  1  0  0  0  0
 34 36  2  0  0  0  0
 36 37  1  0  0  0  0
 37 45  2  0  0  0  0
 37 38  1  0  0  0  0
 38 39  2  0  0  0  0
 39 41  1  0  0  0  0
 39 40  1  0  0  0  0
 41 42  1  0  0  0  0
 43 44  1  0  0  0  0
 43 41  2  0  0  0  0
 45 43  1  0  0  0  0
 46 49  1  0  0  0  0
 46 47  1  0  0  0  0
 48 46  1  0  0  0  0
 50 51  1  0  0  0  0
 50 53  1  0  0  0  0
 52 50  1  0  0  0  0
 54 63  1  0  0  0  0
 54  9  1  0  0  0  0
 55 54  2  0  0  0  0
 56 55  1  0  0  0  0
 57 59  2  0  0  0  0
 57 55  1  0  0  0  0
 58 57  1  0  0  0  0
 59 61  1  0  0  0  0
 60 59  1  0  0  0  0
 61 62  1  0  0  0  0
 61 63  2  0  0  0  0
 63 64  1  0  0  0  0
M  END
