1,2
q = 0.0, confidence = 1.0

 30 29  0  0  0  0  0  0  0  0999 V2000
   -1.7990    0.2496   -0.0282 P   0  0  0  0  0  0  0  0  0  0  0  0
   -1.1771   -2.6030   -0.6529 N   0  0  0  0  0  0  0  0  0  0  0  0
   -1.1156   -2.6649   -1.6855 H   0  0  0  0  0  0  0  0  0  0  0  0
   -0.8123   -3.4777   -0.2516 H   0  0  0  0  0  0  0  0  0  0  0  0
   -3.0405   -1.0222   -0.6445 C   0  0  0  0  0  0  0  0  0  0  0  0
   -4.0737   -0.8225   -0.3033 H   0  0  0  0  0  0  0  0  0  0  0  0
   -3.0313   -0.9469   -1.7535 H   0  0  0  0  0  0  0  0  0  0  0  0
   -2.5751   -2.4052   -0.2151 C   0  0  0  0  0  0  0  0  0  0  0  0
   -2.5769   -2.4922    0.8910 H   0  0  0  0  0  0  0  0  0  0  0  0
   -3.2429   -3.1979   -0.6227 H   0  0  0  0  0  0  0  0  0  0  0  0
   -2.3434    1.7690   -1.0203 C   0  0  0  0  0  0  0  0  0  0  0  0
   -1.8720    2.6120   -0.4723 H   0  0  0  0  0  0  0  0  0  0  0  0
   -3.8616    1.9931   -1.0195 C   0  0  0  0  0  0  0  0  0  0  0  0
   -4.0992    2.9685   -1.4948 H   0  0  0  0  0  0  0  0  0  0  0  0
   -4.2996    2.0037   -0.0032 H   0  0  0  0  0  0  0  0  0  0  0  0
   -4.3853    1.2128   -1.6078 H   0  0  0  0  0  0  0  0  0  0  0  0
   -1.7907    1.7602   -2.4466 C   0  0  0  0  0  0  0  0  0  0  0  0
   -2.0336    2.7186   -2.9529 H   0  0  0  0  0  0  0  0  0  0  0  0
   -2.2326    0.9411   -3.0494 H   0  0  0  0  0  0  0  0  0  0  0  0
   -0.6978    1.6035   -2.4710 H   0  0  0  0  0  0  0  0  0  0  0  0
   -2.3725    0.6523    1.7468 C   0  0  0  0  0  0  0  0  0  0  0  0
   -1.6036    0.0950    2.3243 H   0  0  0  0  0  0  0  0  0  0  0  0
   -2.2605    2.1411    2.0938 C   0  0  0  0  0  0  0  0  0  0  0  0
   -2.3172    2.2754    3.1945 H   0  0  0  0  0  0  0  0  0  0  0  0
   -3.0804    2.7402    1.6482 H   0  0  0  0  0  0  0  0  0  0  0  0
   -1.3006    2.5804    1.7647 H   0  0  0  0  0  0  0  0  0  0  0  0
   -3.7391    0.0936    2.1577 C   0  0  0  0  0  0  0  0  0  0  0  0
   -3.9229    0.3211    3.2295 H   0  0  0  0  0  0  0  0  0  0  0  0
   -3.7963   -1.0069    2.0509 H   0  0  0  0  0  0  0  0  0  0  0  0
   -4.5779    0.5386    1.5832 H   0  0  0  0  0  0  0  0  0  0  0  0
  1 21  1  0  0  0  0
  2  4  1  0  0  0  0
  2  8  1  0  0  0  0
  3  2  1  0  0  0  0
  5  6  1  0  0  0  0
  5  8  1  0  0  0  0
  5  1  1  0  0  0  0
  7  5  1  0  0  0  0
  8  9  1  0  0  0  0
 10  8  1  0  0  0  0
 11 13  1  0  0  0  0
 11 12  1  0  0  0  0
 11  1  1  0  0  0  0
 13 15  1  0  0  0  0
 14 13  1  0  0  0  0
 16 13  1  0  0  0  0
 17 11  1  0  0  0  0
 18 17  1  0  0  0  0
 19 17  1  0  0  0  0
 20 17  1  0  0  0  0
 21 23  1  0  0  0  0
 21 27  1  0  0  0  0
 21 22  1  0  0  0  0
 23 24  1  0  0  0  0
 25 23  1  0  0  0  0
 26 23  1  0  0  0  0
 27 28  1  0  0  0  0
 29 27  1  0  0  0  0
 30 27  1  0  0  0  0
M  END
