1,3
q = 0.0, confidence = 0.998

 46 49  0  0  1  0  0  0  0  0999 V2000
   -0.1967   -0.1187   -0.9854 P   0  0  1  0  0  0  0  0  0  0  0  0
    0.3088    0.3095   -2.4986 O   0  0  0  0  0  0  0  0  0  0  0  0
   -1.6564    1.6634    0.7713 N   0  0  0  0  0  2  0  0  0  0  0  0
    0.8389   -1.6260   -0.7187 C   0  0  1  0  0  0  0  0  0  0  0  0
    0.5922   -2.2845   -1.5764 H   0  0  0  0  0  0  0  0  0  0  0  0
    2.2926   -1.2408   -0.7643 C   0  0  0  0  0  0  0  0  0  0  0  0
    2.9803   -1.9689   -1.2232 H   0  0  0  0  0  0  0  0  0  0  0  0
    2.8154   -0.0858   -0.2428 C   0  0  0  0  0  0  0  0  0  0  0  0
    1.9570    0.9197    0.3944 C   0  0  0  0  0  0  0  0  0  0  0  0
    2.4593    1.5888    1.1157 H   0  0  0  0  0  0  0  0  0  0  0  0
    0.6090    1.0312    0.1931 C   0  0  0  0  0  0  0  0  0  0  0  0
   -0.3104    1.9235    0.9010 C   0  0  2  0  0  3  0  0  0  0  0  0
    0.1242    2.9990    1.7038 C   0  0  0  0  0  0  0  0  0  0  0  0
    1.2004    3.2046    1.7867 H   0  0  0  0  0  0  0  0  0  0  0  0
   -0.8048    3.7944    2.3774 C   0  0  0  0  0  0  0  0  0  0  0  0
   -0.4666    4.6349    3.0018 H   0  0  0  0  0  0  0  0  0  0  0  0
   -2.1699    3.5023    2.2387 C   0  0  0  0  0  0  0  0  0  0  0  0
   -2.9425    4.0958    2.7474 H   0  0  0  0  0  0  0  0  0  0  0  0
   -2.5541    2.4312    1.4267 C   0  0  0  0  0  0  0  0  0  0  0  0
   -3.6074    2.1349    1.2644 H   0  0  0  0  0  0  0  0  0  0  0  0
    0.3896   -2.3077    0.5797 C   0  0  0  0  0  0  0  0  0  0  0  0
    1.1395   -2.2219    1.7677 C   0  0  0  0  0  0  0  0  0  0  0  0
    2.0998   -1.6866    1.7727 H   0  0  0  0  0  0  0  0  0  0  0  0
    0.6713   -2.8217    2.9477 C   0  0  0  0  0  0  0  0  0  0  0  0
    1.2707   -2.7497    3.8681 H   0  0  0  0  0  0  0  0  0  0  0  0
   -0.5529   -3.5061    2.9550 C   0  0  0  0  0  0  0  0  0  0  0  0
   -0.9216   -3.9710    3.8818 H   0  0  0  0  0  0  0  0  0  0  0  0
   -1.3066   -3.5912    1.7733 C   0  0  0  0  0  0  0  0  0  0  0  0
   -2.2737   -4.1161    1.7676 H   0  0  0  0  0  0  0  0  0  0  0  0
   -0.8409   -2.9993    0.5915 C   0  0  0  0  0  0  0  0  0  0  0  0
   -1.4521   -3.0413   -0.3241 H   0  0  0  0  0  0  0  0  0  0  0  0
    4.2803    0.1652   -0.2438 C   0  0  0  0  0  0  0  0  0  0  0  0
    4.7792    1.4755   -0.4235 C   0  0  0  0  0  0  0  0  0  0  0  0
    4.0743    2.3069   -0.5796 H   0  0  0  0  0  0  0  0  0  0  0  0
    6.1587    1.7235   -0.4428 C   0  0  0  0  0  0  0  0  0  0  0  0
    6.5267    2.7494   -0.5960 H   0  0  0  0  0  0  0  0  0  0  0  0
    7.0676    0.6670   -0.2758 C   0  0  0  0  0  0  0  0  0  0  0  0
    8.1506    0.8614   -0.2869 H   0  0  0  0  0  0  0  0  0  0  0  0
    6.5861   -0.6388   -0.0879 C   0  0  0  0  0  0  0  0  0  0  0  0
    7.2914   -1.4710    0.0581 H   0  0  0  0  0  0  0  0  0  0  0  0
    5.2075   -0.8870   -0.0687 C   0  0  0  0  0  0  0  0  0  0  0  0
    4.8386   -1.9081    0.1117 H   0  0  0  0  0  0  0  0  0  0  0  0
   -0.5281    1.1610   -3.2967 C   0  0  0  0  0  0  0  0  0  0  0  0
   -1.5360    0.7122   -3.4182 H   0  0  0  0  0  0  0  0  0  0  0  0
   -0.0322    1.2466   -4.2819 H   0  0  0  0  0  0  0  0  0  0  0  0
   -0.6238    2.1732   -2.8485 H   0  0  0  0  0  0  0  0  0  0  0  0
  1  2  1  6  0  0  0
  1  4  1  0  0  0  0
  1 11  1  0  0  0  0
  3 12  1  0  0  0  0
  3 19  1  0  0  0  0
  4  5  1  6  0  0  0
  4 21  1  0  0  0  0
  6  4  1  0  0  0  0
  6  8  2  0  0  0  0
  7  6  1  0  0  0  0
  8  9  1  0  0  0  0
  9 10  1  0  0  0  0
 11  9  2  0  0  0  0
 12 11  1  1  0  0  0
 12 13  1  0  0  0  0
 13 14  1  0  0  0  0
 13 15  2  0  0  0  0
 15 16  1  0  0  0  0
 17 15  1  0  0  0  0
 17 18  1  0  0  0  0
 19 17  2  0  0  0  0
 20 19  1  0  0  0  0
 21 30  2  0  0  0  0
 21 22  1  0  0  0  0
 22 23  1  0  0  0  0
 22 24  2  0  0  0  0
 24 26  1  0  0  0  0
 24 25  1  0  0  0  0
 26 27  1  0  0  0  0
 28 26  2  0  0  0  0
 29 28  1  0  0  0  0
 30 28  1  0  0  0  0
 31 30  1  0  0  0  0
 32  8  1  0  0  0  0
 32 41  1  0  0  0  0
 33 32  2  0  0  0  0
 34 33  1  0  0  0  0
 35 33  1  0  0  0  0
 35 37  2  0  0  0  0
 36 35  1  0  0  0  0
 37 39  1  0  0  0  0
 38 37  1  0  0  0  0
 39 41  2  0  0  0  0
 39 40  1  0  0  0  0
 41 42  1  0  0  0  0
 43 46  1  0  0  0  0
 43  2  1  0  0  0  0
 44 43  1  0  0  0  0
 45 43  1  0  0  0  0
M  END
