1,5
q = 0.0, confidence = 0.996

 37 37  0  0  0  0  0  0  0  0999 V2000
    0.5981    0.3747   -0.0476 P   0  0  0  0  0  0  0  0  0  0  0  0
    0.2176    1.9696   -0.3552 O   0  0  0  0  0  0  0  0  0  0  0  0
    1.6390    0.4904    1.2279 O   0  0  0  0  0  0  0  0  0  0  0  0
    1.7221    0.0971   -1.1917 O   0  0  0  0  0  0  0  0  0  0  0  0
   -2.4458    0.7565    0.6089 N   0  0  0  0  0  0  0  0  0  0  0  0
   -3.3514    0.3009    0.3698 H   0  0  0  0  0  0  0  0  0  0  0  0
   -2.4317    0.8400    1.6370 H   0  0  0  0  0  0  0  0  0  0  0  0
   -0.8598    2.6192    0.3151 C   0  0  0  0  0  0  0  0  0  0  0  0
   -0.8008    3.6812    0.0040 H   0  0  0  0  0  0  0  0  0  0  0  0
   -0.7079    2.5892    1.4196 H   0  0  0  0  0  0  0  0  0  0  0  0
   -2.2731    2.0912   -0.0259 C   0  0  0  0  0  0  0  0  0  0  0  0
   -2.4658    1.9428   -1.5375 C   0  0  0  0  0  0  0  0  0  0  0  0
   -1.7202    1.2460   -1.9660 H   0  0  0  0  0  0  0  0  0  0  0  0
   -2.3572    2.9249   -2.0372 H   0  0  0  0  0  0  0  0  0  0  0  0
   -3.4755    1.5454   -1.7630 H   0  0  0  0  0  0  0  0  0  0  0  0
   -3.2997    3.0649    0.5745 C   0  0  0  0  0  0  0  0  0  0  0  0
   -4.3296    2.6906    0.4095 H   0  0  0  0  0  0  0  0  0  0  0  0
   -3.2213    4.0641    0.1023 H   0  0  0  0  0  0  0  0  0  0  0  0
   -3.1503    3.1907    1.6674 H   0  0  0  0  0  0  0  0  0  0  0  0
    2.9893    0.0317    0.8580 C   0  0  0  0  0  0  0  0  0  0  0  0
    3.0675   -1.4601    1.1823 C   0  0  0  0  0  0  0  0  0  0  0  0
    2.8139   -1.6028    2.2505 H   0  0  0  0  0  0  0  0  0  0  0  0
    4.0879   -1.8546    1.0130 H   0  0  0  0  0  0  0  0  0  0  0  0
    2.3395   -2.0437    0.5822 H   0  0  0  0  0  0  0  0  0  0  0  0
    3.9726    0.8331    1.7037 C   0  0  0  0  0  0  0  0  0  0  0  0
    3.8070    1.9213    1.6063 H   0  0  0  0  0  0  0  0  0  0  0  0
    5.0135    0.6009    1.4022 H   0  0  0  0  0  0  0  0  0  0  0  0
    3.8565    0.5575    2.7694 H   0  0  0  0  0  0  0  0  0  0  0  0
    3.0847    0.3440   -0.6905 C   0  0  0  0  0  0  0  0  0  0  0  0
    3.9936   -0.6117   -1.4529 C   0  0  0  0  0  0  0  0  0  0  0  0
    3.6053   -1.6447   -1.4028 H   0  0  0  0  0  0  0  0  0  0  0  0
    5.0202   -0.5854   -1.0365 H   0  0  0  0  0  0  0  0  0  0  0  0
    4.0445   -0.3120   -2.5173 H   0  0  0  0  0  0  0  0  0  0  0  0
    3.4254    1.8049   -0.9946 C   0  0  0  0  0  0  0  0  0  0  0  0
    3.2555    1.9923   -2.0722 H   0  0  0  0  0  0  0  0  0  0  0  0
    4.4864    2.0245   -0.7665 H   0  0  0  0  0  0  0  0  0  0  0  0
    2.7818    2.4988   -0.4216 H   0  0  0  0  0  0  0  0  0  0  0  0
  1  3  1  0  0  0  0
  2  1  1  0  0  0  0
  2  8  1  0  0  0  0
  4 29  1  0  0  0  0
  4  1  1  0  0  0  0
  5  7  1  0  0  0  0
  6  5  1  0  0  0  0
  8 10  1  0  0  0  0
  9  8  1  0  0  0  0
 11  8  1  0  0  0  0
 11 16  1  0  0  0  0
 11  5  1  0  0  0  0
 12 11  1  0  0  0  0
 13 12  1  0  0  0  0
 14 12  1  0  0  0  0
 15 12  1  0  0  0  0
 16 19  1  0  0  0  0
 17 16  1  0  0  0  0
 18 16  1  0  0  0  0
 20 21  1  0  0  0  0
 20  3  1  0  0  0  0
 20 25  1  0  0  0  0
 21 22  1  0  0  0  0
 23 21  1  0  0  0  0
 24 21  1  0  0  0  0
 25 28  1  0  0  0  0
 26 25  1  0  0  0  0
 27 25  1  0  0  0  0
 29 20  1  0  0  0  0
 30 31  1  0  0  0  0
 30 32  1  0  0  0  0
 30 29  1  0  0  0  0
 33 30  1  0  0  0  0
 34 36  1  0  0  0  0
 34 29  1  0  0  0  0
 34 37  1  0  0  0  0
 35 34  1  0  0  0  0
M  END
