1,2
q = 0.0, confidence = 0.996

 42 45  0  0  1  0  0  0  0  0999 V2000
   -0.4078   -0.7568    0.0305 P   0  0  1  0  0  0  0  0  0  0  0  0
    1.1225    1.4856    1.0687 N   0  0  0  0  0  2  0  0  0  0  0  0
    0.6050   -2.2035   -0.4533 C   0  0  0  0  0  0  0  0  0  0  0  0
   -0.2650   -3.2461   -0.6757 C   0  0  0  0  0  0  0  0  0  0  0  0
    0.0704   -4.2337   -1.0296 H   0  0  0  0  0  0  0  0  0  0  0  0
   -1.6745   -2.9633   -0.4501 C   0  0  0  0  0  0  0  0  0  0  0  0
   -2.4470   -3.7293   -0.6202 H   0  0  0  0  0  0  0  0  0  0  0  0
   -1.9795   -1.6832   -0.0483 C   0  0  0  0  0  0  0  0  0  0  0  0
   -0.0968   -0.4893    1.8521 C   0  0  0  0  0  0  0  0  0  0  0  0
   -1.0534   -0.0623    2.2298 H   0  0  0  0  0  0  0  0  0  0  0  0
    0.0977   -1.4349    2.3928 H   0  0  0  0  0  0  0  0  0  0  0  0
    1.0053    0.5177    2.0260 C   0  0  2  0  0  3  0  0  0  0  0  0
    1.8702    0.4950    3.1306 C   0  0  0  0  0  0  0  0  0  0  0  0
    1.7649   -0.3040    3.8780 H   0  0  0  0  0  0  0  0  0  0  0  0
    2.8486    1.4881    3.2678 C   0  0  0  0  0  0  0  0  0  0  0  0
    3.5348    1.4770    4.1277 H   0  0  0  0  0  0  0  0  0  0  0  0
    2.9327    2.4906    2.2926 C   0  0  0  0  0  0  0  0  0  0  0  0
    3.6771    3.2966    2.3579 H   0  0  0  0  0  0  0  0  0  0  0  0
    2.0554    2.4555    1.2049 C   0  0  0  0  0  0  0  0  0  0  0  0
    2.0504    3.2069    0.3947 H   0  0  0  0  0  0  0  0  0  0  0  0
    2.8091   -3.3712   -0.2754 C   0  0  0  0  0  0  0  0  0  0  0  0
    2.2776   -4.2950   -0.0011 H   0  0  0  0  0  0  0  0  0  0  0  0
    4.2069   -3.3632   -0.3353 C   0  0  0  0  0  0  0  0  0  0  0  0
    4.7657   -4.2886   -0.1283 H   0  0  0  0  0  0  0  0  0  0  0  0
    4.8974   -2.1781   -0.6435 C   0  0  0  0  0  0  0  0  0  0  0  0
    5.9970   -2.1739   -0.6859 H   0  0  0  0  0  0  0  0  0  0  0  0
    4.1746   -1.0015   -0.8984 C   0  0  0  0  0  0  0  0  0  0  0  0
    4.7025   -0.0701   -1.1534 H   0  0  0  0  0  0  0  0  0  0  0  0
    2.7757   -1.0061   -0.8471 C   0  0  0  0  0  0  0  0  0  0  0  0
    2.2125   -0.0879   -1.0847 H   0  0  0  0  0  0  0  0  0  0  0  0
    2.0650   -2.1915   -0.5323 C   0  0  0  0  0  0  0  0  0  0  0  0
   -3.2718   -1.1162    0.3295 C   0  0  0  0  0  0  0  0  0  0  0  0
   -3.5394    0.2663    0.1620 C   0  0  0  0  0  0  0  0  0  0  0  0
   -2.7874    0.9065   -0.3253 H   0  0  0  0  0  0  0  0  0  0  0  0
   -4.7764    0.8009    0.5437 C   0  0  0  0  0  0  0  0  0  0  0  0
   -4.9685    1.8741    0.3947 H   0  0  0  0  0  0  0  0  0  0  0  0
   -5.7696   -0.0256    1.0927 C   0  0  0  0  0  0  0  0  0  0  0  0
   -6.7409    0.3978    1.3899 H   0  0  0  0  0  0  0  0  0  0  0  0
   -5.5181   -1.3990    1.2604 C   0  0  0  0  0  0  0  0  0  0  0  0
   -6.2895   -2.0519    1.6964 H   0  0  0  0  0  0  0  0  0  0  0  0
   -4.2826   -1.9392    0.8885 C   0  0  0  0  0  0  0  0  0  0  0  0
   -4.0794   -3.0084    1.0525 H   0  0  0  0  0  0  0  0  0  0  0  0
  1  9  1  1  0  0  0
  2 19  1  0  0  0  0
  2 12  1  0  0  0  0
  3  1  1  0  0  0  0
  4  3  2  0  0  0  0
  4  6  1  0  0  0  0
  5  4  1  0  0  0  0
  6  8  2  0  0  0  0
  7  6  1  0  0  0  0
  8  1  1  0  0  0  0
  8 32  1  0  0  0  0
  9 10  1  0  0  0  0
  9 11  1  0  0  0  0
 12  9  1  1  0  0  0
 12 13  1  0  0  0  0
 13 15  2  0  0  0  0
 13 14  1  0  0  0  0
 15 16  1  0  0  0  0
 17 18  1  0  0  0  0
 17 15  1  0  0  0  0
 19 17  2  0  0  0  0
 20 19  1  0  0  0  0
 21 22  1  0  0  0  0
 23 21  1  0  0  0  0
 23 24  1  0  0  0  0
 25 23  2  0  0  0  0
 26 25  1  0  0  0  0
 27 29  2  0  0  0  0
 27 25  1  0  0  0  0
 28 27  1  0  0  0  0
 29 31  1  0  0  0  0
 30 29  1  0  0  0  0
 31  3  1  0  0  0  0
 31 21  2  0  0  0  0
 32 41  1  0  0  0  0
 33 32  2  0  0  0  0
 33 35  1  0  0  0  0
 34 33  1  0  0  0  0
 35 37  2  0  0  0  0
 36 35  1  0  0  0  0
 37 39  1  0  0  0  0
 37 38  1  0  0  0  0
 39 40  1  0  0  0  0
 41 42  1  0  0  0  0
 41 39  2  0  0  0  0
M  END
