1,2
q = 0.0, confidence = 0.992

 36 38  0  0  1  0  0  0  0  0999 V2000
    1.0018    0.9708   -0.9702 P   0  0  0  0  0  0  0  0  0  0  0  0
    2.1850   -1.6751   -1.1772 N   0  0  0  0  0  2  0  0  0  0  0  0
    2.0630    0.4432   -2.3956 C   0  0  0  0  0  0  0  0  0  0  0  0
    1.3251    0.2371   -3.2017 H   0  0  0  0  0  0  0  0  0  0  0  0
    2.7396    1.2481   -2.7415 H   0  0  0  0  0  0  0  0  0  0  0  0
    2.7787   -0.8366   -2.0706 C   0  0  2  0  0  3  0  0  0  0  0  0
    3.9917   -1.1881   -2.6858 C   0  0  0  0  0  0  0  0  0  0  0  0
    4.4540   -0.4943   -3.4025 H   0  0  0  0  0  0  0  0  0  0  0  0
    4.5839   -2.4232   -2.3934 C   0  0  0  0  0  0  0  0  0  0  0  0
    5.5306   -2.7125   -2.8735 H   0  0  0  0  0  0  0  0  0  0  0  0
    3.9454   -3.2830   -1.4896 C   0  0  0  0  0  0  0  0  0  0  0  0
    4.3636   -4.2674   -1.2370 H   0  0  0  0  0  0  0  0  0  0  0  0
    2.7452   -2.8729   -0.9015 C   0  0  0  0  0  0  0  0  0  0  0  0
    2.1741   -3.5069   -0.2022 H   0  0  0  0  0  0  0  0  0  0  0  0
   -0.0331    2.3140   -1.6586 C   0  0  0  0  0  0  0  0  0  0  0  0
    0.1056    3.6471   -1.2192 C   0  0  0  0  0  0  0  0  0  0  0  0
    0.8110    3.9017   -0.4165 H   0  0  0  0  0  0  0  0  0  0  0  0
   -0.6527    4.6626   -1.8205 C   0  0  0  0  0  0  0  0  0  0  0  0
   -0.5380    5.7004   -1.4738 H   0  0  0  0  0  0  0  0  0  0  0  0
   -1.5396    4.3611   -2.8652 C   0  0  0  0  0  0  0  0  0  0  0  0
   -2.1229    5.1635   -3.3414 H   0  0  0  0  0  0  0  0  0  0  0  0
   -1.6778    3.0340   -3.3038 C   0  0  0  0  0  0  0  0  0  0  0  0
   -2.3723    2.7905   -4.1219 H   0  0  0  0  0  0  0  0  0  0  0  0
   -0.9367    2.0085   -2.7019 C   0  0  0  0  0  0  0  0  0  0  0  0
   -1.0631    0.9632   -3.0257 H   0  0  0  0  0  0  0  0  0  0  0  0
    2.1301    1.7626    0.2343 C   0  0  0  0  0  0  0  0  0  0  0  0
    1.5820    2.2731    1.4317 C   0  0  0  0  0  0  0  0  0  0  0  0
    0.4937    2.2500    1.5861 H   0  0  0  0  0  0  0  0  0  0  0  0
    2.4164    2.8098    2.4198 C   0  0  0  0  0  0  0  0  0  0  0  0
    1.9770    3.2111    3.3454 H   0  0  0  0  0  0  0  0  0  0  0  0
    3.8088    2.8322    2.2314 C   0  0  0  0  0  0  0  0  0  0  0  0
    4.4649    3.2512    3.0088 H   0  0  0  0  0  0  0  0  0  0  0  0
    4.3604    2.3242    1.0455 C   0  0  0  0  0  0  0  0  0  0  0  0
    5.4493    2.3454    0.8894 H   0  0  0  0  0  0  0  0  0  0  0  0
    3.5274    1.7923    0.0478 C   0  0  0  0  0  0  0  0  0  0  0  0
    3.9821    1.3960   -0.8711 H   0  0  0  0  0  0  0  0  0  0  0  0
  1 26  1  0  0  0  0
  2 13  1  0  0  0  0
  3  1  1  0  0  0  0
  4  3  1  0  0  0  0
  5  3  1  0  0  0  0
  6  3  1  6  0  0  0
  6  2  1  0  0  0  0
  7  9  2  0  0  0  0
  7  6  1  0  0  0  0
  8  7  1  0  0  0  0
  9 11  1  0  0  0  0
 10  9  1  0  0  0  0
 11 12  1  0  0  0  0
 11 13  2  0  0  0  0
 13 14  1  0  0  0  0
 15 16  1  0  0  0  0
 15  1  1  0  0  0  0
 16 17  1  0  0  0  0
 18 19  1  0  0  0  0
 18 16  2  0  0  0  0
 20 18  1  0  0  0  0
 21 20  1  0  0  0  0
 22 20  2  0  0  0  0
 22 24  1  0  0  0  0
 23 22  1  0  0  0  0
 24 15  2  0  0  0  0
 25 24  1  0  0  0  0
 26 27  1  0  0  0  0
 27 28  1  0  0  0  0
 27 29  2  0  0  0  0
 29 30  1  0  0  0  0
 31 29  1  0  0  0  0
 31 32  1  0  0  0  0
 33 31  2  0  0  0  0
 34 33  1  0  0  0  0
 35 26  2  0  0  0  0
 35 33  1  0  0  0  0
 36 35  1  0  0  0  0
M  END
