1,2
q = 0.0, confidence = 0.988

 70 73  0  0  1  0  0  0  0  0999 V2000
    1.7372   -1.4312   -0.2375 N   0  0  0  0  0  2  0  0  0  0  0  0
    0.5934    1.2213    0.1513 P   0  0  0  0  0  0  0  0  0  0  0  0
   -0.8883    0.1396    0.3425 C   0  0  0  0  0  0  0  0  0  0  0  0
   -2.1810    0.6786    0.3360 C   0  0  0  0  0  0  0  0  0  0  0  0
   -2.3009    1.7663    0.4132 H   0  0  0  0  0  0  0  0  0  0  0  0
   -3.3035   -0.1603    0.2089 C   0  0  0  0  0  0  0  0  0  0  0  0
   -3.0588   -1.5235   -0.0216 C   0  0  0  0  0  0  0  0  0  0  0  0
   -3.9204   -2.1743   -0.2289 H   0  0  0  0  0  0  0  0  0  0  0  0
   -1.7732   -2.1109   -0.0461 C   0  0  0  0  0  0  0  0  0  0  0  0
   -0.6712   -1.2660    0.2509 C   0  0  0  0  0  0  0  0  0  0  0  0
   -1.6924   -3.5648   -0.5837 C   0  0  0  0  0  0  0  0  0  0  0  0
   -0.2751   -4.1580   -0.6929 C   0  0  0  0  0  0  0  0  0  0  0  0
    0.3966   -3.5233   -1.3031 H   0  0  0  0  0  0  0  0  0  0  0  0
   -0.3452   -5.1414   -1.1999 H   0  0  0  0  0  0  0  0  0  0  0  0
    0.2001   -4.3334    0.2892 H   0  0  0  0  0  0  0  0  0  0  0  0
   -2.2510   -3.5163   -2.0320 C   0  0  0  0  0  0  0  0  0  0  0  0
   -1.6448   -2.8328   -2.6597 H   0  0  0  0  0  0  0  0  0  0  0  0
   -3.3022   -3.1702   -2.0676 H   0  0  0  0  0  0  0  0  0  0  0  0
   -2.2107   -4.5281   -2.4847 H   0  0  0  0  0  0  0  0  0  0  0  0
   -2.5621   -4.5166    0.2666 C   0  0  0  0  0  0  0  0  0  0  0  0
   -2.5493   -5.5350   -0.1718 H   0  0  0  0  0  0  0  0  0  0  0  0
   -3.6194   -4.1901    0.3186 H   0  0  0  0  0  0  0  0  0  0  0  0
   -2.1836   -4.5951    1.3061 H   0  0  0  0  0  0  0  0  0  0  0  0
   -4.7441    0.3757    0.2435 C   0  0  0  0  0  0  0  0  0  0  0  0
   -5.5220   -0.3459    1.3668 C   0  0  0  0  0  0  0  0  0  0  0  0
   -5.0566   -0.1583    2.3556 H   0  0  0  0  0  0  0  0  0  0  0  0
   -5.5506   -1.4426    1.2091 H   0  0  0  0  0  0  0  0  0  0  0  0
   -6.5700    0.0162    1.4053 H   0  0  0  0  0  0  0  0  0  0  0  0
   -5.4211    0.0988   -1.1185 C   0  0  0  0  0  0  0  0  0  0  0  0
   -4.8714    0.5969   -1.9423 H   0  0  0  0  0  0  0  0  0  0  0  0
   -6.4623    0.4818   -1.1162 H   0  0  0  0  0  0  0  0  0  0  0  0
   -5.4628   -0.9848   -1.3471 H   0  0  0  0  0  0  0  0  0  0  0  0
   -4.7862    1.8905    0.5110 C   0  0  0  0  0  0  0  0  0  0  0  0
   -4.3164    2.1510    1.4809 H   0  0  0  0  0  0  0  0  0  0  0  0
   -5.8388    2.2359    0.5453 H   0  0  0  0  0  0  0  0  0  0  0  0
   -4.2724    2.4675   -0.2841 H   0  0  0  0  0  0  0  0  0  0  0  0
    0.7029   -1.7604    0.5776 C   0  0  2  0  0  3  0  0  0  0  0  0
    0.9315   -2.4574    1.7937 C   0  0  0  0  0  0  0  0  0  0  0  0
    2.2391   -2.8977    2.0588 C   0  0  0  0  0  0  0  0  0  0  0  0
    2.4475   -3.4308    2.9994 H   0  0  0  0  0  0  0  0  0  0  0  0
    3.2645   -2.6650    1.1342 C   0  0  0  0  0  0  0  0  0  0  0  0
    4.2863   -3.0318    1.3042 H   0  0  0  0  0  0  0  0  0  0  0  0
    2.9807   -1.9088   -0.0031 C   0  0  0  0  0  0  0  0  0  0  0  0
    3.7279   -1.6570   -0.7707 H   0  0  0  0  0  0  0  0  0  0  0  0
   -0.1793   -2.6963    2.7794 C   0  0  0  0  0  0  0  0  0  0  0  0
   -0.8072   -1.7925    2.9035 H   0  0  0  0  0  0  0  0  0  0  0  0
    0.2286   -2.9851    3.7667 H   0  0  0  0  0  0  0  0  0  0  0  0
   -0.8582   -3.5062    2.4425 H   0  0  0  0  0  0  0  0  0  0  0  0
   -0.0629    2.9228    0.0751 C   0  0  0  0  0  0  0  0  0  0  0  0
    0.0489    3.8116    1.1625 C   0  0  0  0  0  0  0  0  0  0  0  0
    0.5723    3.5014    2.0786 H   0  0  0  0  0  0  0  0  0  0  0  0
   -0.5097    5.0964    1.0755 C   0  0  0  0  0  0  0  0  0  0  0  0
   -0.4183    5.7883    1.9264 H   0  0  0  0  0  0  0  0  0  0  0  0
   -1.1795    5.4958   -0.0912 C   0  0  0  0  0  0  0  0  0  0  0  0
   -1.6165    6.5039   -0.1568 H   0  0  0  0  0  0  0  0  0  0  0  0
   -1.2813    4.6136   -1.1798 C   0  0  0  0  0  0  0  0  0  0  0  0
   -1.7894    4.9308   -2.1029 H   0  0  0  0  0  0  0  0  0  0  0  0
   -0.7171    3.3327   -1.1081 C   0  0  0  0  0  0  0  0  0  0  0  0
   -0.7537    2.6546   -1.9727 H   0  0  0  0  0  0  0  0  0  0  0  0
    1.4912    1.0859    1.7483 C   0  0  0  0  0  0  0  0  0  0  0  0
    2.8995    1.1183    1.7448 C   0  0  0  0  0  0  0  0  0  0  0  0
    3.4343    1.2442    0.7897 H   0  0  0  0  0  0  0  0  0  0  0  0
    3.6059    0.9705    2.9482 C   0  0  0  0  0  0  0  0  0  0  0  0
    4.7061    0.9926    2.9413 H   0  0  0  0  0  0  0  0  0  0  0  0
    2.9119    0.7855    4.1547 C   0  0  0  0  0  0  0  0  0  0  0  0
    3.4685    0.6626    5.0962 H   0  0  0  0  0  0  0  0  0  0  0  0
    1.5070    0.7553    4.1614 C   0  0  0  0  0  0  0  0  0  0  0  0
    0.9619    0.6100    5.1066 H   0  0  0  0  0  0  0  0  0  0  0  0
    0.7962    0.9051    2.9620 C   0  0  0  0  0  0  0  0  0  0  0  0
   -0.3047    0.8718    2.9600 H   0  0  0  0  0  0  0  0  0  0  0  0
  1 43  1  0  0  0  0
  1 37  1  0  0  0  0
  2  3  1  0  0  0  0
  2 60  1  0  0  0  0
  4  3  1  0  0  0  0
  4  5  1  0  0  0  0
  6 24  1  0  0  0  0
  6  4  2  0  0  0  0
  7  6  1  0  0  0  0
  8  7  1  0  0  0  0
  9  7  2  0  0  0  0
  9 10  1  0  0  0  0
 10  3  2  0  0  0  0
 11  9  1  0  0  0  0
 11 20  1  0  0  0  0
 12 11  1  0  0  0  0
 12 15  1  0  0  0  0
 13 12  1  0  0  0  0
 14 12  1  0  0  0  0
 16 11  1  0  0  0  0
 17 16  1  0  0  0  0
 18 16  1  0  0  0  0
 19 16  1  0  0  0  0
 20 22  1  0  0  0  0
 20 23  1  0  0  0  0
 21 20  1  0  0  0  0
 24 33  1  0  0  0  0
 24 25  1  0  0  0  0
 25 28  1  0  0  0  0
 25 26  1  0  0  0  0
 27 25  1  0  0  0  0
 29 31  1  0  0  0  0
 29 24  1  0  0  0  0
 30 29  1  0  0  0  0
 32 29  1  0  0  0  0
 33 35  1  0  0  0  0
 33 34  1  0  0  0  0
 36 33  1  0  0  0  0
 37 10  1  1  0  0  0
 37 38  1  0  0  0  0
 38 39  2  0  0  0  0
 38 45  1  0  0  0  0
 39 40  1  0  0  0  0
 41 42  1  0  0  0  0
 41 39  1  0  0  0  0
 43 41  2  0  0  0  0
 44 43  1  0  0  0  0
 45 46  1  0  0  0  0
 45 47  1  0  0  0  0
 48 45  1  0  0  0  0
 49  2  1  0  0  0  0
 49 50  1  0  0  0  0
 50 51  1  0  0  0  0
 52 50  2  0  0  0  0
 52 53  1  0  0  0  0
 54 52  1  0  0  0  0
 55 54  1  0  0  0  0
 56 58  1  0  0  0  0
 56 54  2  0  0  0  0
 57 56  1  0  0  0  0
 58 49  2  0  0  0  0
 59 58  1  0  0  0  0
 60 69  1  0  0  0  0
 61 60  2  0  0  0  0
 61 63  1  0  0  0  0
 62 61  1  0  0  0  0
 63 65  2  0  0  0  0
 64 63  1  0  0  0  0
 65 67  1  0  0  0  0
 65 66  1  0  0  0  0
 67 68  1  0  0  0  0
 69 67  2  0  0  0  0
 70 69  1  0  0  0  0
M  END
