2,5
q = 0.0, confidence = 0.998

 69 74  0  0  0  0  0  0  0  0999 V2000
    2.9607    0.0484   -0.5794 P   0  0  0  0  0  0  0  0  0  0  0  0
   -2.5569    0.0211   -0.1347 P   0  0  0  0  0  0  0  0  0  0  0  0
    0.1589    0.9986    1.1696 C   0  0  0  0  0  3  0  0  0  0  0  0
    0.8775    1.3307    1.9430 H   0  0  0  0  0  0  0  0  0  0  0  0
    0.2477   -0.2347    0.7488 N   0  0  0  0  0  2  0  0  0  0  0  0
    2.6089   -0.9434    0.9516 C   0  0  0  0  0  0  0  0  0  0  0  0
    1.2684   -1.0024    1.4124 C   0  0  0  0  0  0  0  0  0  0  0  0
    0.9215   -1.7769    2.5319 C   0  0  0  0  0  0  0  0  0  0  0  0
   -0.1256   -1.7894    2.8671 H   0  0  0  0  0  0  0  0  0  0  0  0
    1.9034   -2.5278    3.1925 C   0  0  0  0  0  0  0  0  0  0  0  0
    1.6248   -3.1401    4.0632 H   0  0  0  0  0  0  0  0  0  0  0  0
    3.2316   -2.4975    2.7404 C   0  0  0  0  0  0  0  0  0  0  0  0
    4.0055   -3.0881    3.2531 H   0  0  0  0  0  0  0  0  0  0  0  0
    3.5770   -1.7096    1.6323 C   0  0  0  0  0  0  0  0  0  0  0  0
    4.6190   -1.6864    1.2804 H   0  0  0  0  0  0  0  0  0  0  0  0
    3.1239    1.7604    0.1102 C   0  0  0  0  0  0  0  0  0  0  0  0
    2.8125    2.8276   -0.7585 C   0  0  0  0  0  0  0  0  0  0  0  0
    2.4723    2.6047   -1.7823 H   0  0  0  0  0  0  0  0  0  0  0  0
    2.9111    4.1573   -0.3191 C   0  0  0  0  0  0  0  0  0  0  0  0
    2.6654    4.9804   -1.0074 H   0  0  0  0  0  0  0  0  0  0  0  0
    3.3042    4.4346    1.0004 C   0  0  0  0  0  0  0  0  0  0  0  0
    3.3753    5.4765    1.3486 H   0  0  0  0  0  0  0  0  0  0  0  0
    3.6014    3.3771    1.8783 C   0  0  0  0  0  0  0  0  0  0  0  0
    3.9079    3.5904    2.9141 H   0  0  0  0  0  0  0  0  0  0  0  0
    3.5166    2.0477    1.4353 C   0  0  0  0  0  0  0  0  0  0  0  0
    3.7552    1.2199    2.1216 H   0  0  0  0  0  0  0  0  0  0  0  0
    4.7199   -0.4109   -0.9044 C   0  0  0  0  0  0  0  0  0  0  0  0
    5.8239    0.4255   -0.6437 C   0  0  0  0  0  0  0  0  0  0  0  0
    5.6689    1.4089   -0.1754 H   0  0  0  0  0  0  0  0  0  0  0  0
    7.1231    0.0085   -0.9775 C   0  0  0  0  0  0  0  0  0  0  0  0
    7.9772    0.6719   -0.7708 H   0  0  0  0  0  0  0  0  0  0  0  0
    7.3345   -1.2474   -1.5660 C   0  0  0  0  0  0  0  0  0  0  0  0
    8.3540   -1.5728   -1.8236 H   0  0  0  0  0  0  0  0  0  0  0  0
    6.2377   -2.0855   -1.8315 C   0  0  0  0  0  0  0  0  0  0  0  0
    6.3946   -3.0699   -2.2986 H   0  0  0  0  0  0  0  0  0  0  0  0
    4.9378   -1.6676   -1.5162 C   0  0  0  0  0  0  0  0  0  0  0  0
    4.0772   -2.3194   -1.7368 H   0  0  0  0  0  0  0  0  0  0  0  0
   -2.0076    1.7743    0.0645 C   0  0  0  0  0  0  0  0  0  0  0  0
   -0.7557    2.0321    0.6924 C   0  0  0  0  0  0  0  0  0  0  0  0
   -0.3580    3.3723    0.9125 C   0  0  0  0  0  0  0  0  0  0  0  0
    0.6041    3.5650    1.4115 H   0  0  0  0  0  0  0  0  0  0  0  0
   -1.1476    4.4397    0.4718 C   0  0  0  0  0  0  0  0  0  0  0  0
   -0.8078    5.4744    0.6283 H   0  0  0  0  0  0  0  0  0  0  0  0
   -2.3694    4.1812   -0.1678 C   0  0  0  0  0  0  0  0  0  0  0  0
   -3.0001    5.0125   -0.5176 H   0  0  0  0  0  0  0  0  0  0  0  0
   -2.8003    2.8566   -0.3524 C   0  0  0  0  0  0  0  0  0  0  0  0
   -3.7711    2.6611   -0.8305 H   0  0  0  0  0  0  0  0  0  0  0  0
   -4.0322    0.1923   -1.2261 C   0  0  0  0  0  0  0  0  0  0  0  0
   -3.8259    0.2884   -2.6183 C   0  0  0  0  0  0  0  0  0  0  0  0
   -2.8075    0.2287   -3.0281 H   0  0  0  0  0  0  0  0  0  0  0  0
   -4.9153    0.4638   -3.4826 C   0  0  0  0  0  0  0  0  0  0  0  0
   -4.7421    0.5355   -4.5669 H   0  0  0  0  0  0  0  0  0  0  0  0
   -6.2204    0.5340   -2.9691 C   0  0  0  0  0  0  0  0  0  0  0  0
   -7.0754    0.6614   -3.6504 H   0  0  0  0  0  0  0  0  0  0  0  0
   -6.4318    0.4370   -1.5851 C   0  0  0  0  0  0  0  0  0  0  0  0
   -7.4523    0.4915   -1.1763 H   0  0  0  0  0  0  0  0  0  0  0  0
   -3.2864   -0.3624    1.5167 C   0  0  0  0  0  0  0  0  0  0  0  0
   -3.8948   -1.6257    1.6875 C   0  0  0  0  0  0  0  0  0  0  0  0
   -3.9637   -2.3208    0.8371 H   0  0  0  0  0  0  0  0  0  0  0  0
   -4.4116   -2.0001    2.9342 C   0  0  0  0  0  0  0  0  0  0  0  0
   -4.8849   -2.9865    3.0527 H   0  0  0  0  0  0  0  0  0  0  0  0
   -4.3137   -1.1261    4.0305 C   0  0  0  0  0  0  0  0  0  0  0  0
   -4.7106   -1.4257    5.0123 H   0  0  0  0  0  0  0  0  0  0  0  0
   -3.7083    0.1286    3.8683 C   0  0  0  0  0  0  0  0  0  0  0  0
   -3.6318    0.8197    4.7216 H   0  0  0  0  0  0  0  0  0  0  0  0
   -3.2012    0.5142    2.6161 C   0  0  0  0  0  0  0  0  0  0  0  0
   -2.7411    1.5058    2.4959 H   0  0  0  0  0  0  0  0  0  0  0  0
   -5.3434    0.2710   -0.7143 C   0  0  0  0  0  0  0  0  0  0  0  0
   -5.5142    0.2022    0.3700 H   0  0  0  0  0  0  0  0  0  0  0  0
  1 16  1  0  0  0  0
  1  6  1  0  0  0  0
  2 38  1  0  0  0  0
  2 57  1  0  0  0  0
  3  4  1  0  0  0  0
  5  3  1  0  0  0  0
  5  7  1  0  0  0  0
  6  7  2  0  0  0  0
  6 14  1  0  0  0  0
  7  8  1  0  0  0  0
  8  9  1  0  0  0  0
  8 10  2  0  0  0  0
 10 11  1  0  0  0  0
 12 10  1  0  0  0  0
 12 13  1  0  0  0  0
 14 12  2  0  0  0  0
 15 14  1  0  0  0  0
 16 25  1  0  0  0  0
 17 19  1  0  0  0  0
 17 16  2  0  0  0  0
 18 17  1  0  0  0  0
 19 21  2  0  0  0  0
 20 19  1  0  0  0  0
 21 22  1  0  0  0  0
 21 23  1  0  0  0  0
 23 24  1  0  0  0  0
 25 23  2  0  0  0  0
 25 26  1  0  0  0  0
 27 28  1  0  0  0  0
 27  1  1  0  0  0  0
 28 29  1  0  0  0  0
 30 31  1  0  0  0  0
 30 28  2  0  0  0  0
 32 30  1  0  0  0  0
 33 32  1  0  0  0  0
 34 32  2  0  0  0  0
 34 36  1  0  0  0  0
 35 34  1  0  0  0  0
 36 27  2  0  0  0  0
 37 36  1  0  0  0  0
 38 39  1  0  0  0  0
 39 40  2  0  0  0  0
 39  3  1  0  0  0  0
 40 41  1  0  0  0  0
 42 43  1  0  0  0  0
 42 40  1  0  0  0  0
 44 42  2  0  0  0  0
 45 44  1  0  0  0  0
 46 44  1  0  0  0  0
 46 38  2  0  0  0  0
 47 46  1  0  0  0  0
 48 68  1  0  0  0  0
 48  2  1  0  0  0  0
 49 48  2  0  0  0  0
 50 49  1  0  0  0  0
 51 53  2  0  0  0  0
 51 49  1  0  0  0  0
 52 51  1  0  0  0  0
 53 55  1  0  0  0  0
 54 53  1  0  0  0  0
 55 56  1  0  0  0  0
 55 68  2  0  0  0  0
 57 58  2  0  0  0  0
 57 66  1  0  0  0  0
 58 60  1  0  0  0  0
 59 58  1  0  0  0  0
 60 61  1  0  0  0  0
 60 62  2  0  0  0  0
 62 63  1  0  0  0  0
 64 62  1  0  0  0  0
 64 65  1  0  0  0  0
 66 64  2  0  0  0  0
 67 66  1  0  0  0  0
 68 69  1  0  0  0  0
M  END
