1,3
q = -1.0

 34 36  0  0  0  0  0  0  0  0999 V2000
    0.1290   -1.6545   -0.5207 P   0  0  0  0  0  0  0  0  0  0  0  0
   -3.2254   -3.5856   -1.2048 O   0  0  0  0  0  0  0  0  0  0  0  0
   -2.7632   -1.5233   -0.3811 N   0  0  0  0  0  2  0  0  0  0  0  0
   -0.9123   -3.0198   -0.8953 C   0  0  0  0  0  0  0  0  0  0  0  0
   -2.2638   -2.6993   -0.8218 C   0  0  0  0  0  0  0  0  0  0  0  0
   -4.1950   -1.5188   -0.6412 C   0  0  0  0  0  0  0  0  0  0  0  0
   -4.4918   -3.0177   -0.8211 C   0  0  0  0  0  0  0  0  0  0  0  0
    1.2929   -2.1742    0.8097 C   0  0  0  0  0  0  0  0  0  0  0  0
    0.8039   -3.0808    1.7726 C   0  0  0  0  0  0  0  0  0  0  0  0
    1.6003   -3.4527    2.8650 C   0  0  0  0  0  0  0  0  0  0  0  0
    2.8943   -2.9255    3.0073 C   0  0  0  0  0  0  0  0  0  0  0  0
    3.3886   -2.0247    2.0513 C   0  0  0  0  0  0  0  0  0  0  0  0
    2.5918   -1.6486    0.9608 C   0  0  0  0  0  0  0  0  0  0  0  0
    1.1769   -1.2662   -1.9821 C   0  0  0  0  0  0  0  0  0  0  0  0
    0.7068   -0.3035   -2.8997 C   0  0  0  0  0  0  0  0  0  0  0  0
    1.4160   -0.0432   -4.0787 C   0  0  0  0  0  0  0  0  0  0  0  0
    2.6052   -0.7383   -4.3535 C   0  0  0  0  0  0  0  0  0  0  0  0
    3.0742   -1.7046   -3.4496 C   0  0  0  0  0  0  0  0  0  0  0  0
    2.3624   -1.9734   -2.2699 C   0  0  0  0  0  0  0  0  0  0  0  0
   -0.5581   -4.0065   -1.2150 H   0  0  0  0  0  0  0  0  0  0  0  0
   -4.7751   -1.0953    0.2021 H   0  0  0  0  0  0  0  0  0  0  0  0
   -4.4556   -0.9333   -1.5573 H   0  0  0  0  0  0  0  0  0  0  0  0
   -5.2338   -3.2456   -1.6109 H   0  0  0  0  0  0  0  0  0  0  0  0
   -4.8220   -3.4905    0.1314 H   0  0  0  0  0  0  0  0  0  0  0  0
   -0.2098   -3.4928    1.6424 H   0  0  0  0  0  0  0  0  0  0  0  0
    1.2084   -4.1625    3.6098 H   0  0  0  0  0  0  0  0  0  0  0  0
    3.5187   -3.2162    3.8658 H   0  0  0  0  0  0  0  0  0  0  0  0
    4.3991   -1.6027    2.1586 H   0  0  0  0  0  0  0  0  0  0  0  0
    2.9876   -0.9453    0.2160 H   0  0  0  0  0  0  0  0  0  0  0  0
   -0.2174    0.2500   -2.6693 H   0  0  0  0  0  0  0  0  0  0  0  0
    1.0463    0.7205   -4.7789 H   0  0  0  0  0  0  0  0  0  0  0  0
    3.1683   -0.5263   -5.2752 H   0  0  0  0  0  0  0  0  0  0  0  0
    4.0006   -2.2589   -3.6651 H   0  0  0  0  0  0  0  0  0  0  0  0
    2.7312   -2.7400   -1.5717 H   0  0  0  0  0  0  0  0  0  0  0  0
  1  8  1  0  0  0  0
  2  5  1  0  0  0  0
  2  7  1  0  0  0  0
  4  5  2  0  0  0  0
  4  1  1  0  0  0  0
  5  3  1  0  0  0  0
  6  3  1  0  0  0  0
  6 21  1  0  0  0  0
  7  6  1  0  0  0  0
  7 24  1  0  0  0  0
  8 13  2  0  0  0  0
  8  9  1  0  0  0  0
  9 10  2  0  0  0  0
 10 11  1  0  0  0  0
 10 26  1  0  0  0  0
 11 27  1  0  0  0  0
 12 28  1  0  0  0  0
 12 11  2  0  0  0  0
 13 12  1  0  0  0  0
 14  1  1  0  0  0  0
 15 30  1  0  0  0  0
 15 14  2  0  0  0  0
 16 15  1  0  0  0  0
 17 16  2  0  0  0  0
 17 18  1  0  0  0  0
 18 19  2  0  0  0  0
 19 14  1  0  0  0  0
 19 34  1  0  0  0  0
 20  4  1  0  0  0  0
 22  6  1  0  0  0  0
 23  7  1  0  0  0  0
 25  9  1  0  0  0  0
 29 13  1  0  0  0  0
 31 16  1  0  0  0  0
 32 17  1  0  0  0  0
 33 18  1  0  0  0  0
M  END
