1,2
q = 0.0, confidence = 0.994

 65 68  0  0  0  0  0  0  0  0999 V2000
    1.6629   -0.2163   -0.1984 P   0  0  0  0  0  0  0  0  0  0  0  0
   -1.1974   -0.9125   -0.3624 N   0  0  0  0  0  2  0  0  0  0  0  0
   -0.8121   -2.0941   -0.8079 C   0  0  0  0  0  3  0  0  0  0  0  0
   -1.5660   -2.9021   -0.7757 H   0  0  0  0  0  0  0  0  0  0  0  0
    0.4664   -2.4584   -1.3948 C   0  0  0  0  0  0  0  0  0  0  0  0
    1.6677   -1.6950   -1.2822 C   0  0  0  0  0  0  0  0  0  0  0  0
    2.8333   -2.1310   -1.9386 C   0  0  0  0  0  0  0  0  0  0  0  0
    3.7528   -1.5329   -1.8494 H   0  0  0  0  0  0  0  0  0  0  0  0
    2.8402   -3.3134   -2.6941 C   0  0  0  0  0  0  0  0  0  0  0  0
    3.7600   -3.6319   -3.2073 H   0  0  0  0  0  0  0  0  0  0  0  0
    1.6727   -4.0921   -2.7786 C   0  0  0  0  0  0  0  0  0  0  0  0
    1.6705   -5.0280   -3.3573 H   0  0  0  0  0  0  0  0  0  0  0  0
    0.5085   -3.6716   -2.1306 C   0  0  0  0  0  0  0  0  0  0  0  0
   -0.4098   -4.2755   -2.2040 H   0  0  0  0  0  0  0  0  0  0  0  0
    2.1514   -0.9040    1.4498 C   0  0  0  0  0  0  0  0  0  0  0  0
    2.0249   -0.0471    2.5653 C   0  0  0  0  0  0  0  0  0  0  0  0
    1.6676    0.9839    2.4120 H   0  0  0  0  0  0  0  0  0  0  0  0
    2.3291   -0.5123    3.8514 C   0  0  0  0  0  0  0  0  0  0  0  0
    2.2279    0.1627    4.7151 H   0  0  0  0  0  0  0  0  0  0  0  0
    2.7484   -1.8415    4.0401 C   0  0  0  0  0  0  0  0  0  0  0  0
    2.9752   -2.2100    5.0522 H   0  0  0  0  0  0  0  0  0  0  0  0
    2.8692   -2.6984    2.9360 C   0  0  0  0  0  0  0  0  0  0  0  0
    3.1916   -3.7412    3.0794 H   0  0  0  0  0  0  0  0  0  0  0  0
    2.5744   -2.2327    1.6433 C   0  0  0  0  0  0  0  0  0  0  0  0
    2.6669   -2.9100    0.7810 H   0  0  0  0  0  0  0  0  0  0  0  0
    3.1464    0.7403   -0.7200 C   0  0  0  0  0  0  0  0  0  0  0  0
    2.9945    1.6432   -1.7925 C   0  0  0  0  0  0  0  0  0  0  0  0
    2.0014    1.7624   -2.2531 H   0  0  0  0  0  0  0  0  0  0  0  0
    4.0924    2.3873   -2.2456 C   0  0  0  0  0  0  0  0  0  0  0  0
    3.9682    3.0906   -3.0833 H   0  0  0  0  0  0  0  0  0  0  0  0
    5.3454    2.2450   -1.6251 C   0  0  0  0  0  0  0  0  0  0  0  0
    6.2051    2.8356   -1.9772 H   0  0  0  0  0  0  0  0  0  0  0  0
    5.4980    1.3547   -0.5508 C   0  0  0  0  0  0  0  0  0  0  0  0
    6.4767    1.2447   -0.0591 H   0  0  0  0  0  0  0  0  0  0  0  0
    4.4019    0.6029   -0.0970 C   0  0  0  0  0  0  0  0  0  0  0  0
    4.5211   -0.0911    0.7489 H   0  0  0  0  0  0  0  0  0  0  0  0
   -2.5590   -0.8860    0.1317 C   0  0  0  0  0  0  0  0  0  0  0  0
   -3.6252   -0.8113   -0.7941 C   0  0  0  0  0  0  0  0  0  0  0  0
   -4.9370   -0.8021   -0.2814 C   0  0  0  0  0  0  0  0  0  0  0  0
   -5.7863   -0.7477   -0.9799 H   0  0  0  0  0  0  0  0  0  0  0  0
   -5.1761   -0.8449    1.0967 C   0  0  0  0  0  0  0  0  0  0  0  0
   -6.2089   -0.8383    1.4775 H   0  0  0  0  0  0  0  0  0  0  0  0
   -4.0986   -0.8817    1.9937 C   0  0  0  0  0  0  0  0  0  0  0  0
   -4.2936   -0.8961    3.0760 H   0  0  0  0  0  0  0  0  0  0  0  0
   -2.7699   -0.8952    1.5347 C   0  0  0  0  0  0  0  0  0  0  0  0
   -3.3809   -0.7071   -2.2952 C   0  0  0  0  0  0  0  0  0  0  0  0
   -2.2917   -0.5640   -2.4435 H   0  0  0  0  0  0  0  0  0  0  0  0
   -4.0728    0.5271   -2.8954 C   0  0  0  0  0  0  0  0  0  0  0  0
   -5.1784    0.4578   -2.8267 H   0  0  0  0  0  0  0  0  0  0  0  0
   -3.8129    0.6347   -3.9685 H   0  0  0  0  0  0  0  0  0  0  0  0
   -3.7478    1.4410   -2.3625 H   0  0  0  0  0  0  0  0  0  0  0  0
   -3.7936   -1.9967   -3.0250 C   0  0  0  0  0  0  0  0  0  0  0  0
   -3.2449   -2.8784   -2.6358 H   0  0  0  0  0  0  0  0  0  0  0  0
   -3.5876   -1.9189   -4.1125 H   0  0  0  0  0  0  0  0  0  0  0  0
   -4.8779   -2.1994   -2.8999 H   0  0  0  0  0  0  0  0  0  0  0  0
   -1.5863   -0.9298    2.4921 C   0  0  0  0  0  0  0  0  0  0  0  0
   -0.7606   -0.3930    1.9674 H   0  0  0  0  0  0  0  0  0  0  0  0
   -1.8365   -0.1835    3.8064 C   0  0  0  0  0  0  0  0  0  0  0  0
   -2.1899    0.8510    3.6218 H   0  0  0  0  0  0  0  0  0  0  0  0
   -0.8946   -0.1262    4.3894 H   0  0  0  0  0  0  0  0  0  0  0  0
   -2.5856   -0.6939    4.4479 H   0  0  0  0  0  0  0  0  0  0  0  0
   -1.1105   -2.3695    2.7532 C   0  0  0  0  0  0  0  0  0  0  0  0
   -1.8954   -2.9572    3.2747 H   0  0  0  0  0  0  0  0  0  0  0  0
   -0.1972   -2.3699    3.3828 H   0  0  0  0  0  0  0  0  0  0  0  0
   -0.8645   -2.8969    1.8104 H   0  0  0  0  0  0  0  0  0  0  0  0
  1 15  1  0  0  0  0
  2 37  1  0  0  0  0
  3  4  1  0  0  0  0
  3  2  1  0  0  0  0
  5  6  1  0  0  0  0
  5  3  1  0  0  0  0
  6  1  1  0  0  0  0
  7  8  1  0  0  0  0
  7  6  2  0  0  0  0
  9  7  1  0  0  0  0
 10  9  1  0  0  0  0
 11  9  2  0  0  0  0
 11 13  1  0  0  0  0
 12 11  1  0  0  0  0
 13  5  2  0  0  0  0
 14 13  1  0  0  0  0
 15 24  2  0  0  0  0
 15 16  1  0  0  0  0
 16 18  2  0  0  0  0
 17 16  1  0  0  0  0
 18 20  1  0  0  0  0
 18 19  1  0  0  0  0
 20 21  1  0  0  0  0
 22 23  1  0  0  0  0
 22 20  2  0  0  0  0
 24 22  1  0  0  0  0
 25 24  1  0  0  0  0
 26  1  1  0  0  0  0
 26 35  1  0  0  0  0
 27 26  2  0  0  0  0
 28 27  1  0  0  0  0
 29 27  1  0  0  0  0
 29 31  2  0  0  0  0
 30 29  1  0  0  0  0
 31 33  1  0  0  0  0
 32 31  1  0  0  0  0
 33 35  2  0  0  0  0
 33 34  1  0  0  0  0
 35 36  1  0  0  0  0
 37 45  1  0  0  0  0
 38 39  1  0  0  0  0
 38 37  2  0  0  0  0
 39 41  2  0  0  0  0
 40 39  1  0  0  0  0
 41 42  1  0  0  0  0
 41 43  1  0  0  0  0
 43 44  1  0  0  0  0
 45 43  2  0  0  0  0
 45 56  1  0  0  0  0
 46 38  1  0  0  0  0
 47 46  1  0  0  0  0
 48 49  1  0  0  0  0
 48 51  1  0  0  0  0
 48 46  1  0  0  0  0
 50 48  1  0  0  0  0
 52 55  1  0  0  0  0
 52 53  1  0  0  0  0
 52 46  1  0  0  0  0
 54 52  1  0  0  0  0
 56 62  1  0  0  0  0
 56 58  1  0  0  0  0
 57 56  1  0  0  0  0
 58 60  1  0  0  0  0
 58 61  1  0  0  0  0
 59 58  1  0  0  0  0
 62 63  1  0  0  0  0
 62 64  1  0  0  0  0
 65 62  1  0  0  0  0
M  END
