1,2
q = 0.0, confidence = 0.998

 57 61  0  0  1  0  0  0  0  0999 V2000
   -1.3141    0.1101    0.0682 P   0  0  0  0  0  0  0  0  0  0  0  0
    1.2978   -1.5570    0.0450 N   0  0  0  0  0  2  0  0  0  0  0  0
    1.5010   -3.0093    0.1804 C   0  0  0  0  0  0  0  0  0  0  0  0
    2.3702   -3.1181    1.4468 C   0  0  0  0  0  0  0  0  0  0  0  0
    2.7605   -1.7418    1.7293 O   0  0  0  0  0  0  0  0  0  0  0  0
    2.0621   -0.9538    0.8982 C   0  0  1  0  0  3  0  0  0  0  0  0
    2.3005    0.5271    1.0988 C   0  0  1  0  0  0  0  0  0  0  0  0
    3.6873    0.8033    1.0372 O   0  0  0  0  0  0  0  0  0  0  0  0
    3.9243    1.5665   -0.1691 C   0  0  0  0  0  0  0  0  0  0  0  0
    2.7281    2.3250   -0.3308 O   0  0  0  0  0  0  0  0  0  0  0  0
    1.6488    1.4860    0.0378 C   0  0  2  0  0  0  0  0  0  0  0  0
    4.1734    0.6417   -1.3613 C   0  0  0  0  0  0  0  0  0  0  0  0
    5.0693    2.5258    0.1034 C   0  0  0  0  0  0  0  0  0  0  0  0
    0.4917    2.3024    0.5694 C   0  0  0  0  0  0  0  0  0  0  0  0
    0.7561    3.6014    1.0471 C   0  0  0  0  0  0  0  0  0  0  0  0
   -0.2601    4.4018    1.5813 C   0  0  0  0  0  0  0  0  0  0  0  0
   -1.5731    3.9126    1.6473 C   0  0  0  0  0  0  0  0  0  0  0  0
   -1.8562    2.6280    1.1686 C   0  0  0  0  0  0  0  0  0  0  0  0
   -0.8400    1.8100    0.6244 C   0  0  0  0  0  0  0  0  0  0  0  0
   -3.1115    0.2605   -0.2751 C   0  0  0  0  0  0  0  0  0  0  0  0
   -3.5217    1.0795   -1.3511 C   0  0  0  0  0  0  0  0  0  0  0  0
   -4.8865    1.2363   -1.6263 C   0  0  0  0  0  0  0  0  0  0  0  0
   -5.8505    0.5798   -0.8440 C   0  0  0  0  0  0  0  0  0  0  0  0
   -5.4454   -0.2320    0.2259 C   0  0  0  0  0  0  0  0  0  0  0  0
   -4.0808   -0.3911    0.5142 C   0  0  0  0  0  0  0  0  0  0  0  0
   -1.2241   -0.8953    1.6122 C   0  0  0  0  0  0  0  0  0  0  0  0
   -0.8069   -0.3605    2.8456 C   0  0  0  0  0  0  0  0  0  0  0  0
   -0.6632   -1.1977    3.9649 C   0  0  0  0  0  0  0  0  0  0  0  0
   -0.9547   -2.5665    3.8669 C   0  0  0  0  0  0  0  0  0  0  0  0
   -1.3938   -3.1015    2.6426 C   0  0  0  0  0  0  0  0  0  0  0  0
   -1.5172   -2.2743    1.5180 C   0  0  0  0  0  0  0  0  0  0  0  0
    0.5252   -3.5222    0.2757 H   0  0  0  0  0  0  0  0  0  0  0  0
    1.9880   -3.3558   -0.7550 H   0  0  0  0  0  0  0  0  0  0  0  0
    3.2941   -3.7122    1.3153 H   0  0  0  0  0  0  0  0  0  0  0  0
    1.8110   -3.4903    2.3301 H   0  0  0  0  0  0  0  0  0  0  0  0
    1.9457    0.7673    2.1271 H   0  0  0  0  0  0  0  0  0  0  0  0
    1.2951    0.8870   -0.8430 H   0  0  0  0  0  0  0  0  0  0  0  0
    3.3209   -0.0358   -1.5750 H   0  0  0  0  0  0  0  0  0  0  0  0
    4.3503    1.2436   -2.2737 H   0  0  0  0  0  0  0  0  0  0  0  0
    5.0683    0.0184   -1.1703 H   0  0  0  0  0  0  0  0  0  0  0  0
    4.8330    3.1413    0.9915 H   0  0  0  0  0  0  0  0  0  0  0  0
    6.0014    1.9608    0.2917 H   0  0  0  0  0  0  0  0  0  0  0  0
    5.2234    3.1860   -0.7708 H   0  0  0  0  0  0  0  0  0  0  0  0
    1.7872    3.9727    0.9709 H   0  0  0  0  0  0  0  0  0  0  0  0
   -0.0257    5.4145    1.9430 H   0  0  0  0  0  0  0  0  0  0  0  0
   -2.3821    4.5314    2.0635 H   0  0  0  0  0  0  0  0  0  0  0  0
   -2.8876    2.2492    1.2100 H   0  0  0  0  0  0  0  0  0  0  0  0
   -2.7678    1.5732   -1.9791 H   0  0  0  0  0  0  0  0  0  0  0  0
   -5.1974    1.8730   -2.4681 H   0  0  0  0  0  0  0  0  0  0  0  0
   -6.9209    0.7028   -1.0686 H   0  0  0  0  0  0  0  0  0  0  0  0
   -6.1945   -0.7447    0.8480 H   0  0  0  0  0  0  0  0  0  0  0  0
   -3.7766   -1.0173    1.3645 H   0  0  0  0  0  0  0  0  0  0  0  0
   -0.5921    0.7152    2.9317 H   0  0  0  0  0  0  0  0  0  0  0  0
   -0.3248   -0.7724    4.9219 H   0  0  0  0  0  0  0  0  0  0  0  0
   -0.8459   -3.2185    4.7468 H   0  0  0  0  0  0  0  0  0  0  0  0
   -1.6340   -4.1727    2.5617 H   0  0  0  0  0  0  0  0  0  0  0  0
   -1.8363   -2.6961    0.5512 H   0  0  0  0  0  0  0  0  0  0  0  0
  1 19  1  0  0  0  0
  1 26  1  0  0  0  0
  2  3  1  0  0  0  0
  3 32  1  0  0  0  0
  3  4  1  0  0  0  0
  4  5  1  0  0  0  0
  4 35  1  0  0  0  0
  6  2  1  6  0  0  0
  6  7  1  0  0  0  0
  6  5  1  0  0  0  0
  7 36  1  1  0  0  0
  8  7  1  0  0  0  0
  9 13  1  0  0  0  0
  9  8  1  0  0  0  0
 10  9  1  0  0  0  0
 10 11  1  0  0  0  0
 11 37  1  6  0  0  0
 11 14  1  0  0  0  0
 11  7  1  0  0  0  0
 12 40  1  0  0  0  0
 12  9  1  0  0  0  0
 13 42  1  0  0  0  0
 13 41  1  0  0  0  0
 14 19  2  0  0  0  0
 14 15  1  0  0  0  0
 15 16  2  0  0  0  0
 16 17  1  0  0  0  0
 16 45  1  0  0  0  0
 17 46  1  0  0  0  0
 18 47  1  0  0  0  0
 18 17  2  0  0  0  0
 19 18  1  0  0  0  0
 20  1  1  0  0  0  0
 20 25  1  0  0  0  0
 21 20  2  0  0  0  0
 22 21  1  0  0  0  0
 22 23  2  0  0  0  0
 23 24  1  0  0  0  0
 24 25  2  0  0  0  0
 24 51  1  0  0  0  0
 25 52  1  0  0  0  0
 26 27  1  0  0  0  0
 27 53  1  0  0  0  0
 27 28  2  0  0  0  0
 28 54  1  0  0  0  0
 29 28  1  0  0  0  0
 29 55  1  0  0  0  0
 30 29  2  0  0  0  0
 31 26  2  0  0  0  0
 31 30  1  0  0  0  0
 33  3  1  0  0  0  0
 34  4  1  0  0  0  0
 38 12  1  0  0  0  0
 39 12  1  0  0  0  0
 43 13  1  0  0  0  0
 44 15  1  0  0  0  0
 48 21  1  0  0  0  0
 49 22  1  0  0  0  0
 50 23  1  0  0  0  0
 56 30  1  0  0  0  0
 57 31  1  0  0  0  0
M  END
