1,58
q = 0.0, confidence = 0.998

 58 62  0  0  1  0  0  0  0  0999 V2000
   -0.1409   -1.0986    0.1705 P   0  0  0  0  0  0  0  0  0  0  0  0
    2.1597    0.7386   -0.6409 P   0  0  0  0  0  0  0  0  0  0  0  0
   -0.5923   -2.0730    1.6547 C   0  0  0  0  0  0  0  0  0  0  0  0
   -0.5191   -1.5486    2.9586 C   0  0  0  0  0  0  0  0  0  0  0  0
   -0.1489   -0.5278    3.1315 H   0  0  0  0  0  0  0  0  0  0  0  0
   -0.9483   -2.3179    4.0510 C   0  0  0  0  0  0  0  0  0  0  0  0
   -0.8906   -1.8992    5.0671 H   0  0  0  0  0  0  0  0  0  0  0  0
   -1.4617   -3.6072    3.8484 C   0  0  0  0  0  0  0  0  0  0  0  0
   -1.8028   -4.2062    4.7062 H   0  0  0  0  0  0  0  0  0  0  0  0
   -1.5512   -4.1271    2.5467 C   0  0  0  0  0  0  0  0  0  0  0  0
   -1.9656   -5.1328    2.3800 H   0  0  0  0  0  0  0  0  0  0  0  0
   -1.1226   -3.3641    1.4534 C   0  0  0  0  0  0  0  0  0  0  0  0
   -1.2054   -3.7710    0.4336 H   0  0  0  0  0  0  0  0  0  0  0  0
    1.0223   -2.2073   -0.7200 C   0  0  0  0  0  0  0  0  0  0  0  0
    1.0584   -2.1950   -2.1280 C   0  0  0  0  0  0  0  0  0  0  0  0
    0.3612   -1.5528   -2.6843 H   0  0  0  0  0  0  0  0  0  0  0  0
    1.9876   -2.9945   -2.8118 C   0  0  0  0  0  0  0  0  0  0  0  0
    2.0099   -2.9813   -3.9117 H   0  0  0  0  0  0  0  0  0  0  0  0
    2.8794   -3.8074   -2.0958 C   0  0  0  0  0  0  0  0  0  0  0  0
    3.6083   -4.4322   -2.6344 H   0  0  0  0  0  0  0  0  0  0  0  0
    2.8425   -3.8263   -0.6914 C   0  0  0  0  0  0  0  0  0  0  0  0
    3.5451   -4.4577   -0.1274 H   0  0  0  0  0  0  0  0  0  0  0  0
    1.9171   -3.0314   -0.0038 C   0  0  0  0  0  0  0  0  0  0  0  0
    1.8884   -3.0470    1.0960 H   0  0  0  0  0  0  0  0  0  0  0  0
    3.6666   -0.2103   -0.1376 C   0  0  0  0  0  0  0  0  0  0  0  0
    4.0609   -0.5206    1.1811 C   0  0  0  0  0  0  0  0  0  0  0  0
    3.4690   -0.1682    2.0405 H   0  0  0  0  0  0  0  0  0  0  0  0
    5.2098   -1.2880    1.4231 C   0  0  0  0  0  0  0  0  0  0  0  0
    5.5009   -1.5249    2.4580 H   0  0  0  0  0  0  0  0  0  0  0  0
    5.9854   -1.7537    0.3488 C   0  0  0  0  0  0  0  0  0  0  0  0
    6.8837   -2.3603    0.5395 H   0  0  0  0  0  0  0  0  0  0  0  0
    5.6078   -1.4461   -0.9670 C   0  0  0  0  0  0  0  0  0  0  0  0
    6.2062   -1.8136   -1.8144 H   0  0  0  0  0  0  0  0  0  0  0  0
    4.4544   -0.6849   -1.2077 C   0  0  0  0  0  0  0  0  0  0  0  0
    4.1406   -0.4701   -2.2412 H   0  0  0  0  0  0  0  0  0  0  0  0
    2.5614    2.4776   -0.1531 C   0  0  0  0  0  0  0  0  0  0  0  0
    3.6044    2.8652    0.7118 C   0  0  0  0  0  0  0  0  0  0  0  0
    4.2868    2.1065    1.1239 H   0  0  0  0  0  0  0  0  0  0  0  0
    3.7781    4.2172    1.0479 C   0  0  0  0  0  0  0  0  0  0  0  0
    4.5978    4.5107    1.7218 H   0  0  0  0  0  0  0  0  0  0  0  0
    2.9121    5.1931    0.5283 C   0  0  0  0  0  0  0  0  0  0  0  0
    3.0487    6.2516    0.7978 H   0  0  0  0  0  0  0  0  0  0  0  0
    1.8831    4.8168   -0.3504 C   0  0  0  0  0  0  0  0  0  0  0  0
    1.2114    5.5781   -0.7753 H   0  0  0  0  0  0  0  0  0  0  0  0
    1.7173    3.4696   -0.7016 C   0  0  0  0  0  0  0  0  0  0  0  0
    0.9242    3.1750   -1.4073 H   0  0  0  0  0  0  0  0  0  0  0  0
    0.9504    0.2886    0.8045 C   0  0  0  0  0  0  0  0  0  0  0  0
    1.5576   -0.0480    1.6661 H   0  0  0  0  0  0  0  0  0  0  0  0
    0.1089    1.4595    1.2124 C   0  0  1  0  0  3  0  0  0  0  0  0
    0.5378    2.3068    2.2528 C   0  0  0  0  0  0  0  0  0  0  0  0
    1.4761    2.0749    2.7748 H   0  0  0  0  0  0  0  0  0  0  0  0
   -0.2068    3.4398    2.5859 C   0  0  0  0  0  0  0  0  0  0  0  0
    0.1308    4.1142    3.3866 H   0  0  0  0  0  0  0  0  0  0  0  0
   -1.3875    3.6956    1.8746 C   0  0  0  0  0  0  0  0  0  0  0  0
   -2.0181    4.5679    2.0951 H   0  0  0  0  0  0  0  0  0  0  0  0
   -1.7736    2.8051    0.8721 C   0  0  0  0  0  0  0  0  0  0  0  0
   -2.7074    2.9560    0.3150 H   0  0  0  0  0  0  0  0  0  0  0  0
   -1.0467    1.7121    0.5313 N   0  0  0  0  0  2  0  0  0  0  0  0
  1 47  1  0  0  0  0
  1  3  1  0  0  0  0
  2 36  1  0  0  0  0
  2 25  1  0  0  0  0
  2 47  1  0  0  0  0
  3  4  1  0  0  0  0
  4  5  1  0  0  0  0
  4  6  2  0  0  0  0
  6  7  1  0  0  0  0
  8  6  1  0  0  0  0
  8  9  1  0  0  0  0
 10  8  2  0  0  0  0
 11 10  1  0  0  0  0
 12  3  2  0  0  0  0
 12 10  1  0  0  0  0
 13 12  1  0  0  0  0
 14 23  1  0  0  0  0
 14  1  1  0  0  0  0
 15 14  2  0  0  0  0
 16 15  1  0  0  0  0
 17 15  1  0  0  0  0
 17 19  2  0  0  0  0
 18 17  1  0  0  0  0
 19 21  1  0  0  0  0
 20 19  1  0  0  0  0
 21 22  1  0  0  0  0
 21 23  2  0  0  0  0
 23 24  1  0  0  0  0
 25 26  1  0  0  0  0
 26 28  2  0  0  0  0
 26 27  1  0  0  0  0
 28 29  1  0  0  0  0
 30 31  1  0  0  0  0
 30 28  1  0  0  0  0
 32 30  2  0  0  0  0
 33 32  1  0  0  0  0
 34 32  1  0  0  0  0
 34 25  2  0  0  0  0
 35 34  1  0  0  0  0
 36 37  1  0  0  0  0
 37 39  2  0  0  0  0
 37 38  1  0  0  0  0
 39 40  1  0  0  0  0
 41 42  1  0  0  0  0
 41 39  1  0  0  0  0
 43 41  2  0  0  0  0
 44 43  1  0  0  0  0
 45 43  1  0  0  0  0
 45 36  2  0  0  0  0
 46 45  1  0  0  0  0
 47 48  1  0  0  0  0
 49 47  1  6  0  0  0
 49 50  1  0  0  0  0
 50 52  2  0  0  0  0
 50 51  1  0  0  0  0
 52 53  1  0  0  0  0
 54 55  1  0  0  0  0
 54 52  1  0  0  0  0
 56 54  2  0  0  0  0
 57 56  1  0  0  0  0
 58 56  1  0  0  0  0
 58 49  1  0  0  0  0
M  END
