1,5
q = 0.0, confidence = 0.994

 46 46  0  0  1  0  0  0  0  0999 V2000
    1.1123   -0.3447   -0.0817 P   0  0  0  0  0  0  0  0  0  0  0  0
    0.8532   -1.9965   -0.0266 O   0  0  0  0  0  0  0  0  0  0  0  0
    2.1503   -0.2385    1.1624 O   0  0  0  0  0  0  0  0  0  0  0  0
    2.0740   -0.1527   -1.3729 O   0  0  0  0  0  0  0  0  0  0  0  0
   -2.0316   -0.7281   -0.8782 N   0  0  0  0  0  0  0  0  0  0  0  0
   -0.2000   -2.5219   -0.8345 C   0  0  0  0  0  0  0  0  0  0  0  0
   -0.1437   -3.6219   -0.7134 H   0  0  0  0  0  0  0  0  0  0  0  0
   -0.0180   -2.3040   -1.9089 H   0  0  0  0  0  0  0  0  0  0  0  0
   -1.6056   -2.0872   -0.3944 C   0  0  1  0  0  0  0  0  0  0  0  0
   -2.3061   -2.8105   -0.8804 H   0  0  0  0  0  0  0  0  0  0  0  0
   -1.7576   -2.2053    1.1295 C   0  0  0  0  0  0  0  0  0  0  0  0
   -1.0522   -1.4903    1.6011 H   0  0  0  0  0  0  0  0  0  0  0  0
   -1.4267   -3.2203    1.4320 H   0  0  0  0  0  0  0  0  0  0  0  0
   -3.1758   -1.9098    1.6140 C   0  0  0  0  0  0  0  0  0  0  0  0
   -3.8675   -2.7066    1.2599 H   0  0  0  0  0  0  0  0  0  0  0  0
   -3.2126   -1.9281    2.7224 H   0  0  0  0  0  0  0  0  0  0  0  0
   -3.6253   -0.5568    1.0656 C   0  0  0  0  0  0  0  0  0  0  0  0
   -3.0371    0.2718    1.5156 H   0  0  0  0  0  0  0  0  0  0  0  0
   -4.6897   -0.3548    1.3026 H   0  0  0  0  0  0  0  0  0  0  0  0
   -3.4510   -0.4996   -0.4425 C   0  0  0  0  0  0  0  0  0  0  0  0
   -4.0723   -1.2839   -0.9381 H   0  0  0  0  0  0  0  0  0  0  0  0
   -3.7392    0.4967   -0.8250 H   0  0  0  0  0  0  0  0  0  0  0  0
   -2.0007   -0.6247   -2.3584 C   0  0  0  0  0  0  0  0  0  0  0  0
   -2.6201   -1.4277   -2.8201 H   0  0  0  0  0  0  0  0  0  0  0  0
   -0.9653   -0.6873   -2.7377 H   0  0  0  0  0  0  0  0  0  0  0  0
   -2.4046    0.3675   -2.6316 H   0  0  0  0  0  0  0  0  0  0  0  0
    1.6580   -0.0095    2.5230 C   0  0  0  0  0  0  0  0  0  0  0  0
    0.6130    0.3691    2.4414 H   0  0  0  0  0  0  0  0  0  0  0  0
    1.6836   -1.3360    3.2703 C   0  0  0  0  0  0  0  0  0  0  0  0
    1.0699   -2.0955    2.7480 H   0  0  0  0  0  0  0  0  0  0  0  0
    1.2897   -1.2065    4.2982 H   0  0  0  0  0  0  0  0  0  0  0  0
    2.7213   -1.7204    3.3407 H   0  0  0  0  0  0  0  0  0  0  0  0
    2.5274    1.0758    3.1329 C   0  0  0  0  0  0  0  0  0  0  0  0
    2.4353    2.0008    2.5331 H   0  0  0  0  0  0  0  0  0  0  0  0
    3.5888    0.7548    3.1575 H   0  0  0  0  0  0  0  0  0  0  0  0
    2.2012    1.2889    4.1704 H   0  0  0  0  0  0  0  0  0  0  0  0
    3.4435   -0.6790   -1.4140 C   0  0  0  0  0  0  0  0  0  0  0  0
    3.5427   -1.4428   -0.6131 H   0  0  0  0  0  0  0  0  0  0  0  0
    3.6198   -1.3342   -2.7746 C   0  0  0  0  0  0  0  0  0  0  0  0
    2.8973   -2.1631   -2.9100 H   0  0  0  0  0  0  0  0  0  0  0  0
    4.6441   -1.7458   -2.8730 H   0  0  0  0  0  0  0  0  0  0  0  0
    3.4614   -0.5934   -3.5840 H   0  0  0  0  0  0  0  0  0  0  0  0
    4.3976    0.4757   -1.1486 C   0  0  0  0  0  0  0  0  0  0  0  0
    4.1809    0.9306   -0.1639 H   0  0  0  0  0  0  0  0  0  0  0  0
    4.2842    1.2565   -1.9271 H   0  0  0  0  0  0  0  0  0  0  0  0
    5.4472    0.1186   -1.1544 H   0  0  0  0  0  0  0  0  0  0  0  0
  1  2  1  0  0  0  0
  1  3  1  0  0  0  0
  3 27  1  0  0  0  0
  4  1  1  0  0  0  0
  5 20  1  0  0  0  0
  5  9  1  0  0  0  0
  6  7  1  0  0  0  0
  6  9  1  0  0  0  0
  6  2  1  0  0  0  0
  8  6  1  0  0  0  0
  9 10  1  6  0  0  0
  9 11  1  0  0  0  0
 11 13  1  0  0  0  0
 11 12  1  0  0  0  0
 11 14  1  0  0  0  0
 14 16  1  0  0  0  0
 15 14  1  0  0  0  0
 17 19  1  0  0  0  0
 17 18  1  0  0  0  0
 17 14  1  0  0  0  0
 20 17  1  0  0  0  0
 21 20  1  0  0  0  0
 22 20  1  0  0  0  0
 23  5  1  0  0  0  0
 24 23  1  0  0  0  0
 25 23  1  0  0  0  0
 26 23  1  0  0  0  0
 27 33  1  0  0  0  0
 27 29  1  0  0  0  0
 28 27  1  0  0  0  0
 29 32  1  0  0  0  0
 29 31  1  0  0  0  0
 30 29  1  0  0  0  0
 33 35  1  0  0  0  0
 33 36  1  0  0  0  0
 34 33  1  0  0  0  0
 37  4  1  0  0  0  0
 37 43  1  0  0  0  0
 37 38  1  0  0  0  0
 39 37  1  0  0  0  0
 40 39  1  0  0  0  0
 41 39  1  0  0  0  0
 42 39  1  0  0  0  0
 43 44  1  0  0  0  0
 45 43  1  0  0  0  0
 46 43  1  0  0  0  0
M  END
