10,19
q = 0.0, confidence = 1.0

 41 42  0  0  0  0  0  0  0  0999 V2000
    0.4202    0.3867    2.2765 C   0  0  0  0  0  0  0  0  0  0  0  0
    1.4061    0.6029    2.7368 H   0  0  0  0  0  0  0  0  0  0  0  0
    0.1365   -0.6242    2.6356 H   0  0  0  0  0  0  0  0  0  0  0  0
   -0.6359    1.4354    2.6705 C   0  0  0  0  0  0  0  0  0  0  0  0
   -1.1806    1.0844    3.5708 H   0  0  0  0  0  0  0  0  0  0  0  0
   -0.1252    2.3688    2.9846 H   0  0  0  0  0  0  0  0  0  0  0  0
   -1.6300    1.8809    1.5971 C   0  0  0  0  0  0  0  0  0  0  0  0
   -2.3220    2.6186    2.0674 H   0  0  0  0  0  0  0  0  0  0  0  0
   -1.0962    2.4170    0.7863 H   0  0  0  0  0  0  0  0  0  0  0  0
   -2.4637    0.8407    0.9344 N   0  0  0  0  0  0  0  0  0  0  0  0
   -3.2056    0.0143    1.9113 C   0  0  0  0  0  0  0  0  0  0  0  0
   -2.4984   -0.5576    2.5397 H   0  0  0  0  0  0  0  0  0  0  0  0
   -3.8265   -0.7020    1.3404 H   0  0  0  0  0  0  0  0  0  0  0  0
   -3.8451    0.6558    2.5609 H   0  0  0  0  0  0  0  0  0  0  0  0
   -3.4259    1.5564    0.0536 C   0  0  0  0  0  0  0  0  0  0  0  0
   -4.0319    0.8089   -0.4899 H   0  0  0  0  0  0  0  0  0  0  0  0
   -2.8625    2.1615   -0.6814 H   0  0  0  0  0  0  0  0  0  0  0  0
   -4.0689    2.2273    0.6681 H   0  0  0  0  0  0  0  0  0  0  0  0
    0.6400    0.0896    0.4598 P   0  0  0  0  0  0  0  0  0  0  0  0
    1.9458   -1.1972    0.4882 C   0  0  0  0  0  0  0  0  0  0  0  0
    3.3091   -0.8517    0.4288 C   0  0  0  0  0  0  0  0  0  0  0  0
    3.6073    0.1975    0.2816 H   0  0  0  0  0  0  0  0  0  0  0  0
    4.2886   -1.8511    0.5435 C   0  0  0  0  0  0  0  0  0  0  0  0
    5.3535   -1.5791    0.4875 H   0  0  0  0  0  0  0  0  0  0  0  0
    3.9109   -3.1905    0.7225 C   0  0  0  0  0  0  0  0  0  0  0  0
    4.6805   -3.9726    0.8081 H   0  0  0  0  0  0  0  0  0  0  0  0
    2.5498   -3.5348    0.7799 C   0  0  0  0  0  0  0  0  0  0  0  0
    2.2501   -4.5863    0.9037 H   0  0  0  0  0  0  0  0  0  0  0  0
    1.5664   -2.5447    0.6559 C   0  0  0  0  0  0  0  0  0  0  0  0
    0.4990   -2.8135    0.6579 H   0  0  0  0  0  0  0  0  0  0  0  0
    1.4267    1.5771   -0.2596 C   0  0  0  0  0  0  0  0  0  0  0  0
    1.9782    2.6109    0.5245 C   0  0  0  0  0  0  0  0  0  0  0  0
    1.9694    2.5455    1.6231 H   0  0  0  0  0  0  0  0  0  0  0  0
    2.5521    3.7325   -0.0957 C   0  0  0  0  0  0  0  0  0  0  0  0
    2.9783    4.5390    0.5202 H   0  0  0  0  0  0  0  0  0  0  0  0
    2.5849    3.8219   -1.4959 C   0  0  0  0  0  0  0  0  0  0  0  0
    3.0354    4.7019   -1.9796 H   0  0  0  0  0  0  0  0  0  0  0  0
    2.0411    2.7892   -2.2792 C   0  0  0  0  0  0  0  0  0  0  0  0
    2.0659    2.8575   -3.3772 H   0  0  0  0  0  0  0  0  0  0  0  0
    1.4572    1.6710   -1.6691 C   0  0  0  0  0  0  0  0  0  0  0  0
    1.0186    0.8553   -2.2689 H   0  0  0  0  0  0  0  0  0  0  0  0
  1  3  1  0  0  0  0
  1  4  1  0  0  0  0
  1  2  1  0  0  0  0
  4  6  1  0  0  0  0
  4  5  1  0  0  0  0
  7  8  1  0  0  0  0
  7  4  1  0  0  0  0
  9  7  1  0  0  0  0
 10  7  1  0  0  0  0
 10 11  1  0  0  0  0
 11 12  1  0  0  0  0
 11 14  1  0  0  0  0
 13 11  1  0  0  0  0
 15 18  1  0  0  0  0
 15 10  1  0  0  0  0
 16 15  1  0  0  0  0
 17 15  1  0  0  0  0
 19 20  1  0  0  0  0
 19  1  1  0  0  0  0
 20 29  1  0  0  0  0
 21 20  2  0  0  0  0
 21 23  1  0  0  0  0
 22 21  1  0  0  0  0
 23 25  2  0  0  0  0
 24 23  1  0  0  0  0
 25 27  1  0  0  0  0
 25 26  1  0  0  0  0
 27 28  1  0  0  0  0
 29 30  1  0  0  0  0
 29 27  2  0  0  0  0
 31 19  1  0  0  0  0
 31 32  1  0  0  0  0
 32 33  1  0  0  0  0
 34 35  1  0  0  0  0
 34 32  2  0  0  0  0
 36 34  1  0  0  0  0
 37 36  1  0  0  0  0
 38 40  1  0  0  0  0
 38 36  2  0  0  0  0
 39 38  1  0  0  0  0
 40 31  2  0  0  0  0
 41 40  1  0  0  0  0
M  END
