1,2
q = 0.0, confidence = 0.992

 41 44  0  0  0  0  0  0  0  0999 V2000
    0.6304   -0.0446   -0.0705 P   0  0  0  0  0  0  0  0  0  0  0  0
   -2.2811    0.0584    0.2870 N   0  0  0  0  0  2  0  0  0  0  0  0
   -3.2061   -1.9841    0.4193 C   0  0  0  0  0  3  0  0  0  0  0  0
   -3.2430   -3.0434    0.6910 H   0  0  0  0  0  0  0  0  0  0  0  0
   -2.1196   -1.2156    0.7504 N   0  0  0  0  0  0  0  0  0  0  0  0
   -4.0937   -1.1769   -0.2800 C   0  0  0  0  0  0  0  0  0  0  0  0
   -5.0596   -1.4672   -0.7038 H   0  0  0  0  0  0  0  0  0  0  0  0
   -3.4714    0.0907   -0.3349 C   0  0  0  0  0  0  0  0  0  0  0  0
   -3.8025    1.0498   -0.7533 H   0  0  0  0  0  0  0  0  0  0  0  0
   -1.0364   -1.6208    1.5833 C   0  0  0  0  0  0  0  0  0  0  0  0
    0.2955   -1.2091    1.3238 C   0  0  0  0  0  0  0  0  0  0  0  0
    1.3146   -1.6769    2.1760 C   0  0  0  0  0  0  0  0  0  0  0  0
    2.3514   -1.3637    1.9852 H   0  0  0  0  0  0  0  0  0  0  0  0
    1.0317   -2.5360    3.2479 C   0  0  0  0  0  0  0  0  0  0  0  0
    1.8482   -2.8907    3.8941 H   0  0  0  0  0  0  0  0  0  0  0  0
   -0.2901   -2.9327    3.4941 C   0  0  0  0  0  0  0  0  0  0  0  0
   -0.5276   -3.5911    4.3425 H   0  0  0  0  0  0  0  0  0  0  0  0
   -1.3228   -2.4675    2.6691 C   0  0  0  0  0  0  0  0  0  0  0  0
   -2.3665   -2.7389    2.8816 H   0  0  0  0  0  0  0  0  0  0  0  0
    2.4388    0.2539    0.0434 C   0  0  0  0  0  0  0  0  0  0  0  0
    2.8899    1.1886    0.9997 C   0  0  0  0  0  0  0  0  0  0  0  0
    2.1568    1.7145    1.6316 H   0  0  0  0  0  0  0  0  0  0  0  0
    4.2599    1.4493    1.1358 C   0  0  0  0  0  0  0  0  0  0  0  0
    4.6042    2.1795    1.8835 H   0  0  0  0  0  0  0  0  0  0  0  0
    5.1875    0.7933    0.3091 C   0  0  0  0  0  0  0  0  0  0  0  0
    6.2624    1.0078    0.4091 H   0  0  0  0  0  0  0  0  0  0  0  0
    4.7412   -0.1275   -0.6512 C   0  0  0  0  0  0  0  0  0  0  0  0
    5.4642   -0.6362   -1.3067 H   0  0  0  0  0  0  0  0  0  0  0  0
    3.3708   -0.4019   -0.7845 C   0  0  0  0  0  0  0  0  0  0  0  0
    3.0247   -1.1231   -1.5394 H   0  0  0  0  0  0  0  0  0  0  0  0
    0.4100   -1.1386   -1.5400 C   0  0  0  0  0  0  0  0  0  0  0  0
    0.6862   -2.5209   -1.4981 C   0  0  0  0  0  0  0  0  0  0  0  0
    1.0509   -2.9808   -0.5664 H   0  0  0  0  0  0  0  0  0  0  0  0
    0.4891   -3.3104   -2.6411 C   0  0  0  0  0  0  0  0  0  0  0  0
    0.7031   -4.3896   -2.6043 H   0  0  0  0  0  0  0  0  0  0  0  0
    0.0160   -2.7262   -3.8278 C   0  0  0  0  0  0  0  0  0  0  0  0
   -0.1413   -3.3486   -4.7219 H   0  0  0  0  0  0  0  0  0  0  0  0
   -0.2644   -1.3508   -3.8708 C   0  0  0  0  0  0  0  0  0  0  0  0
   -0.6434   -0.8928   -4.7969 H   0  0  0  0  0  0  0  0  0  0  0  0
   -0.0734   -0.5577   -2.7295 C   0  0  0  0  0  0  0  0  0  0  0  0
   -0.3130    0.5182   -2.7363 H   0  0  0  0  0  0  0  0  0  0  0  0
  1 20  1  0  0  0  0
  1 11  1  0  0  0  0
  2  5  1  0  0  0  0
  3  4  1  0  0  0  0
  3  5  1  0  0  0  0
  5 10  1  0  0  0  0
  6  3  1  0  0  0  0
  7  6  1  0  0  0  0
  8  6  2  0  0  0  0
  8  2  1  0  0  0  0
  9  8  1  0  0  0  0
 10 18  1  0  0  0  0
 11 10  2  0  0  0  0
 11 12  1  0  0  0  0
 12 14  2  0  0  0  0
 13 12  1  0  0  0  0
 14 16  1  0  0  0  0
 14 15  1  0  0  0  0
 16 17  1  0  0  0  0
 18 19  1  0  0  0  0
 18 16  2  0  0  0  0
 20 21  1  0  0  0  0
 21 23  2  0  0  0  0
 21 22  1  0  0  0  0
 23 24  1  0  0  0  0
 25 26  1  0  0  0  0
 25 23  1  0  0  0  0
 27 25  2  0  0  0  0
 28 27  1  0  0  0  0
 29 27  1  0  0  0  0
 29 20  2  0  0  0  0
 30 29  1  0  0  0  0
 31 32  1  0  0  0  0
 31  1  1  0  0  0  0
 32 33  1  0  0  0  0
 34 35  1  0  0  0  0
 34 32  2  0  0  0  0
 36 34  1  0  0  0  0
 37 36  1  0  0  0  0
 38 36  2  0  0  0  0
 38 40  1  0  0  0  0
 39 38  1  0  0  0  0
 40 31  2  0  0  0  0
 41 40  1  0  0  0  0
M  END
