1,2
q = -1.0

 60 62  0  0  0  0  0  0  0  0999 V2000
   -1.5835    0.5239    0.9197 P   0  0  0  0  0  0  0  0  0  0  0  0
    1.2273    0.6145    1.1021 N   0  0  0  0  0  2  0  0  0  0  0  0
    2.5674    0.8314    0.7286 C   0  0  0  0  0  0  0  0  0  0  0  0
    2.9341    2.0277    0.0334 C   0  0  0  0  0  0  0  0  0  0  0  0
    1.8690    3.0673   -0.3195 C   0  0  0  0  0  0  0  0  0  0  0  0
    1.1666    3.1341    0.5363 H   0  0  0  0  0  0  0  0  0  0  0  0
    1.0224    2.6034   -1.5189 C   0  0  0  0  0  0  0  0  0  0  0  0
    0.2012    3.3186   -1.7286 H   0  0  0  0  0  0  0  0  0  0  0  0
    0.5491    1.6188   -1.3036 H   0  0  0  0  0  0  0  0  0  0  0  0
    1.6413    2.5080   -2.4360 H   0  0  0  0  0  0  0  0  0  0  0  0
    2.4271    4.4750   -0.5577 C   0  0  0  0  0  0  0  0  0  0  0  0
    1.5967    5.1982   -0.6868 H   0  0  0  0  0  0  0  0  0  0  0  0
    3.0464    4.5275   -1.4775 H   0  0  0  0  0  0  0  0  0  0  0  0
    3.0529    4.8190    0.2909 H   0  0  0  0  0  0  0  0  0  0  0  0
    4.2700    2.1832   -0.3798 C   0  0  0  0  0  0  0  0  0  0  0  0
    4.5726    3.0995   -0.9075 H   0  0  0  0  0  0  0  0  0  0  0  0
    5.2256    1.1843   -0.1414 C   0  0  0  0  0  0  0  0  0  0  0  0
    6.2657    1.3271   -0.4724 H   0  0  0  0  0  0  0  0  0  0  0  0
    4.8515    0.0030    0.5116 C   0  0  0  0  0  0  0  0  0  0  0  0
    5.6041   -0.7810    0.6812 H   0  0  0  0  0  0  0  0  0  0  0  0
    3.5301   -0.1962    0.9517 C   0  0  0  0  0  0  0  0  0  0  0  0
    3.1035   -1.4808    1.6507 C   0  0  0  0  0  0  0  0  0  0  0  0
    2.0493   -1.6477    1.3398 H   0  0  0  0  0  0  0  0  0  0  0  0
    3.0904   -1.3215    3.1813 C   0  0  0  0  0  0  0  0  0  0  0  0
    2.7740   -2.2660    3.6713 H   0  0  0  0  0  0  0  0  0  0  0  0
    2.3860   -0.5288    3.4955 H   0  0  0  0  0  0  0  0  0  0  0  0
    4.0999   -1.0609    3.5623 H   0  0  0  0  0  0  0  0  0  0  0  0
    3.9305   -2.7052    1.2417 C   0  0  0  0  0  0  0  0  0  0  0  0
    3.4735   -3.6306    1.6476 H   0  0  0  0  0  0  0  0  0  0  0  0
    4.9664   -2.6567    1.6384 H   0  0  0  0  0  0  0  0  0  0  0  0
    3.9944   -2.8106    0.1407 H   0  0  0  0  0  0  0  0  0  0  0  0
    1.5186    2.1598    3.0330 C   0  0  0  0  0  0  0  0  0  0  0  0
    0.9222    2.5453    3.8801 H   0  0  0  0  0  0  0  0  0  0  0  0
    1.9978    3.0231    2.5277 H   0  0  0  0  0  0  0  0  0  0  0  0
    2.3455    1.5351    3.4247 H   0  0  0  0  0  0  0  0  0  0  0  0
    0.6494    1.3785    2.0710 C   0  0  0  0  0  0  0  0  0  0  0  0
   -0.7381    1.4378    2.1819 C   0  0  0  0  0  0  0  0  0  0  0  0
   -1.2505    1.9203    3.0247 H   0  0  0  0  0  0  0  0  0  0  0  0
   -2.6768    1.6551   -0.0291 C   0  0  0  0  0  0  0  0  0  0  0  0
   -2.4737    3.0451    0.0832 C   0  0  0  0  0  0  0  0  0  0  0  0
   -1.7151    3.4127    0.7929 H   0  0  0  0  0  0  0  0  0  0  0  0
   -3.2221    3.9365   -0.7006 C   0  0  0  0  0  0  0  0  0  0  0  0
   -3.0560    5.0207   -0.6048 H   0  0  0  0  0  0  0  0  0  0  0  0
   -4.1805    3.4469   -1.6023 C   0  0  0  0  0  0  0  0  0  0  0  0
   -4.7678    4.1457   -2.2176 H   0  0  0  0  0  0  0  0  0  0  0  0
   -4.3851    2.0622   -1.7196 C   0  0  0  0  0  0  0  0  0  0  0  0
   -5.1278    1.6705   -2.4312 H   0  0  0  0  0  0  0  0  0  0  0  0
   -3.6356    1.1664   -0.9438 C   0  0  0  0  0  0  0  0  0  0  0  0
   -3.7884    0.0836   -1.0611 H   0  0  0  0  0  0  0  0  0  0  0  0
   -2.6932   -0.6711    1.7707 C   0  0  0  0  0  0  0  0  0  0  0  0
   -4.0903   -0.5315    1.8599 C   0  0  0  0  0  0  0  0  0  0  0  0
   -4.5900    0.3193    1.3738 H   0  0  0  0  0  0  0  0  0  0  0  0
   -4.8494   -1.4763    2.5710 C   0  0  0  0  0  0  0  0  0  0  0  0
   -5.9421   -1.3585    2.6349 H   0  0  0  0  0  0  0  0  0  0  0  0
   -4.2221   -2.5633    3.1968 C   0  0  0  0  0  0  0  0  0  0  0  0
   -4.8205   -3.3036    3.7494 H   0  0  0  0  0  0  0  0  0  0  0  0
   -2.8246   -2.7022    3.1187 C   0  0  0  0  0  0  0  0  0  0  0  0
   -2.3255   -3.5504    3.6121 H   0  0  0  0  0  0  0  0  0  0  0  0
   -2.0653   -1.7623    2.4113 C   0  0  0  0  0  0  0  0  0  0  0  0
   -0.9692   -1.8635    2.3474 H   0  0  0  0  0  0  0  0  0  0  0  0
  1 50  1  0  0  0  0
  1 37  1  0  0  0  0
  2 36  1  0  0  0  0
  3 21  1  0  0  0  0
  3  2  1  0  0  0  0
  4  3  2  0  0  0  0
  5  4  1  0  0  0  0
  5  6  1  0  0  0  0
  7  9  1  0  0  0  0
  7  5  1  0  0  0  0
  8  7  1  0  0  0  0
 10  7  1  0  0  0  0
 11  5  1  0  0  0  0
 11 14  1  0  0  0  0
 12 11  1  0  0  0  0
 13 11  1  0  0  0  0
 15 17  2  0  0  0  0
 15  4  1  0  0  0  0
 16 15  1  0  0  0  0
 17 19  1  0  0  0  0
 18 17  1  0  0  0  0
 19 20  1  0  0  0  0
 19 21  2  0  0  0  0
 21 22  1  0  0  0  0
 22 24  1  0  0  0  0
 23 22  1  0  0  0  0
 24 26  1  0  0  0  0
 24 27  1  0  0  0  0
 24 25  1  0  0  0  0
 28 30  1  0  0  0  0
 28 29  1  0  0  0  0
 28 22  1  0  0  0  0
 31 28  1  0  0  0  0
 32 35  1  0  0  0  0
 32 33  1  0  0  0  0
 34 32  1  0  0  0  0
 36 37  2  0  0  0  0
 36 32  1  0  0  0  0
 37 38  1  0  0  0  0
 39 40  1  0  0  0  0
 39  1  1  0  0  0  0
 40 41  1  0  0  0  0
 42 43  1  0  0  0  0
 42 40  2  0  0  0  0
 44 42  1  0  0  0  0
 45 44  1  0  0  0  0
 46 44  2  0  0  0  0
 46 48  1  0  0  0  0
 47 46  1  0  0  0  0
 48 39  2  0  0  0  0
 49 48  1  0  0  0  0
 50 51  2  0  0  0  0
 50 59  1  0  0  0  0
 51 53  1  0  0  0  0
 52 51  1  0  0  0  0
 53 54  1  0  0  0  0
 53 55  2  0  0  0  0
 55 56  1  0  0  0  0
 57 55  1  0  0  0  0
 57 58  1  0  0  0  0
 59 57  2  0  0  0  0
 60 59  1  0  0  0  0
M  END
