1,2
q = -1.0

 48 50  0  0  0  0  0  0  0  0999 V2000
    1.4129   -1.0332    0.1744 P   0  0  0  0  0  0  0  0  0  0  0  0
   -1.3712   -1.3540    0.2147 N   0  0  0  0  0  2  0  0  0  0  0  0
   -2.7707   -1.2844    0.0615 C   0  0  0  0  0  0  0  0  0  0  0  0
   -3.5738   -0.8278    1.1431 C   0  0  0  0  0  0  0  0  0  0  0  0
   -2.9295   -0.5619    2.4771 C   0  0  0  0  0  0  0  0  0  0  0  0
   -3.6184   -0.0387    3.1679 H   0  0  0  0  0  0  0  0  0  0  0  0
   -2.0077    0.0422    2.3527 H   0  0  0  0  0  0  0  0  0  0  0  0
   -2.6041   -1.5066    2.9631 H   0  0  0  0  0  0  0  0  0  0  0  0
   -4.9525   -0.6411    0.9403 C   0  0  0  0  0  0  0  0  0  0  0  0
   -5.5729   -0.2805    1.7765 H   0  0  0  0  0  0  0  0  0  0  0  0
   -5.5426   -0.9130   -0.3032 C   0  0  0  0  0  0  0  0  0  0  0  0
   -6.6238   -0.7635   -0.4460 H   0  0  0  0  0  0  0  0  0  0  0  0
   -4.7499   -1.3737   -1.3635 C   0  0  0  0  0  0  0  0  0  0  0  0
   -5.2083   -1.5810   -2.3440 H   0  0  0  0  0  0  0  0  0  0  0  0
   -3.3632   -1.5584   -1.2036 C   0  0  0  0  0  0  0  0  0  0  0  0
   -2.4917   -1.9914   -2.3541 C   0  0  0  0  0  0  0  0  0  0  0  0
   -3.0336   -1.9375   -3.3179 H   0  0  0  0  0  0  0  0  0  0  0  0
   -2.1246   -3.0326   -2.2314 H   0  0  0  0  0  0  0  0  0  0  0  0
   -1.5741   -1.3675   -2.4115 H   0  0  0  0  0  0  0  0  0  0  0  0
   -0.7431   -2.5494    0.3908 C   0  0  0  0  0  0  0  0  0  0  0  0
   -1.5705   -3.7887    0.6439 C   0  0  0  0  0  0  0  0  0  0  0  0
   -0.9290   -4.6750    0.7990 H   0  0  0  0  0  0  0  0  0  0  0  0
   -2.2606   -3.9939   -0.1991 H   0  0  0  0  0  0  0  0  0  0  0  0
   -2.2115   -3.6499    1.5391 H   0  0  0  0  0  0  0  0  0  0  0  0
    0.6487   -2.6197    0.3750 C   0  0  0  0  0  0  0  0  0  0  0  0
    1.2002   -3.5369    0.6198 H   0  0  0  0  0  0  0  0  0  0  0  0
    2.6226   -1.0849   -1.2029 C   0  0  0  0  0  0  0  0  0  0  0  0
    2.5985   -2.1772   -2.0929 C   0  0  0  0  0  0  0  0  0  0  0  0
    1.8875   -2.9976   -1.9049 H   0  0  0  0  0  0  0  0  0  0  0  0
    3.4612   -2.2080   -3.1991 C   0  0  0  0  0  0  0  0  0  0  0  0
    3.4362   -3.0666   -3.8879 H   0  0  0  0  0  0  0  0  0  0  0  0
    4.3530   -1.1479   -3.4264 C   0  0  0  0  0  0  0  0  0  0  0  0
    5.0299   -1.1721   -4.2943 H   0  0  0  0  0  0  0  0  0  0  0  0
    4.3756   -0.0533   -2.5461 C   0  0  0  0  0  0  0  0  0  0  0  0
    5.0638    0.7870   -2.7245 H   0  0  0  0  0  0  0  0  0  0  0  0
    3.5131   -0.0145   -1.4416 C   0  0  0  0  0  0  0  0  0  0  0  0
    3.5249    0.8563   -0.7699 H   0  0  0  0  0  0  0  0  0  0  0  0
    2.3937   -0.6979    1.6968 C   0  0  0  0  0  0  0  0  0  0  0  0
    3.7980   -0.7536    1.7639 C   0  0  0  0  0  0  0  0  0  0  0  0
    4.3830   -0.9782    0.8600 H   0  0  0  0  0  0  0  0  0  0  0  0
    4.4560   -0.5236    2.9841 C   0  0  0  0  0  0  0  0  0  0  0  0
    5.5552   -0.5690    3.0256 H   0  0  0  0  0  0  0  0  0  0  0  0
    3.7204   -0.2380    4.1434 C   0  0  0  0  0  0  0  0  0  0  0  0
    4.2395   -0.0540    5.0964 H   0  0  0  0  0  0  0  0  0  0  0  0
    2.3159   -0.1903    4.0839 C   0  0  0  0  0  0  0  0  0  0  0  0
    1.7319    0.0290    4.9910 H   0  0  0  0  0  0  0  0  0  0  0  0
    1.6574   -0.4188    2.8697 C   0  0  0  0  0  0  0  0  0  0  0  0
    0.5568   -0.3859    2.8166 H   0  0  0  0  0  0  0  0  0  0  0  0
  1 25  1  0  0  0  0
  1 38  1  0  0  0  0
  2 20  1  0  0  0  0
  3  2  1  0  0  0  0
  3  4  1  0  0  0  0
  4  5  1  0  0  0  0
  5  8  1  0  0  0  0
  5  6  1  0  0  0  0
  7  5  1  0  0  0  0
  9  4  2  0  0  0  0
  9 10  1  0  0  0  0
 11  9  1  0  0  0  0
 12 11  1  0  0  0  0
 13 15  1  0  0  0  0
 13 11  2  0  0  0  0
 14 13  1  0  0  0  0
 15  3  2  0  0  0  0
 16 18  1  0  0  0  0
 16 15  1  0  0  0  0
 17 16  1  0  0  0  0
 19 16  1  0  0  0  0
 20 21  1  0  0  0  0
 21 22  1  0  0  0  0
 21 24  1  0  0  0  0
 23 21  1  0  0  0  0
 25 20  2  0  0  0  0
 25 26  1  0  0  0  0
 27  1  1  0  0  0  0
 28 29  1  0  0  0  0
 28 27  2  0  0  0  0
 30 28  1  0  0  0  0
 31 30  1  0  0  0  0
 32 30  2  0  0  0  0
 32 34  1  0  0  0  0
 33 32  1  0  0  0  0
 34 36  2  0  0  0  0
 35 34  1  0  0  0  0
 36 27  1  0  0  0  0
 36 37  1  0  0  0  0
 38 39  2  0  0  0  0
 38 47  1  0  0  0  0
 39 41  1  0  0  0  0
 40 39  1  0  0  0  0
 41 42  1  0  0  0  0
 41 43  2  0  0  0  0
 43 44  1  0  0  0  0
 45 43  1  0  0  0  0
 45 46  1  0  0  0  0
 47 45  2  0  0  0  0
 48 47  1  0  0  0  0
M  END
