1,2
q = -1.0

 42 44  0  0  0  0  0  0  0  0999 V2000
   -1.2980   -1.0319   -0.1759 P   0  0  0  0  0  0  0  0  0  0  0  0
    1.4670   -1.3850   -0.6046 N   0  0  0  0  0  2  0  0  0  0  0  0
   -2.0584   -1.2406    1.4890 C   0  0  0  0  0  0  0  0  0  0  0  0
   -1.2097   -1.1389    2.6117 C   0  0  0  0  0  0  0  0  0  0  0  0
   -0.1499   -0.8780    2.4563 H   0  0  0  0  0  0  0  0  0  0  0  0
   -1.7057   -1.3681    3.9015 C   0  0  0  0  0  0  0  0  0  0  0  0
   -1.0346   -1.2830    4.7700 H   0  0  0  0  0  0  0  0  0  0  0  0
   -3.0597   -1.6973    4.0862 C   0  0  0  0  0  0  0  0  0  0  0  0
   -3.4527   -1.8708    5.0995 H   0  0  0  0  0  0  0  0  0  0  0  0
   -3.9086   -1.8022    2.9737 C   0  0  0  0  0  0  0  0  0  0  0  0
   -4.9694   -2.0623    3.1124 H   0  0  0  0  0  0  0  0  0  0  0  0
   -3.4129   -1.5764    1.6794 C   0  0  0  0  0  0  0  0  0  0  0  0
   -4.0848   -1.6599    0.8121 H   0  0  0  0  0  0  0  0  0  0  0  0
   -2.6974   -0.6162   -1.2845 C   0  0  0  0  0  0  0  0  0  0  0  0
   -3.6100    0.4085   -0.9512 C   0  0  0  0  0  0  0  0  0  0  0  0
   -3.5165    0.9401    0.0076 H   0  0  0  0  0  0  0  0  0  0  0  0
   -4.6282    0.7602   -1.8478 C   0  0  0  0  0  0  0  0  0  0  0  0
   -5.3325    1.5625   -1.5802 H   0  0  0  0  0  0  0  0  0  0  0  0
   -4.7412    0.1037   -3.0849 C   0  0  0  0  0  0  0  0  0  0  0  0
   -5.5409    0.3847   -3.7874 H   0  0  0  0  0  0  0  0  0  0  0  0
   -3.8291   -0.9079   -3.4248 C   0  0  0  0  0  0  0  0  0  0  0  0
   -3.9108   -1.4230   -4.3943 H   0  0  0  0  0  0  0  0  0  0  0  0
   -2.8094   -1.2660   -2.5294 C   0  0  0  0  0  0  0  0  0  0  0  0
   -2.0824   -2.0528   -2.7861 H   0  0  0  0  0  0  0  0  0  0  0  0
   -0.6000   -2.5842   -0.6677 C   0  0  0  0  0  0  0  0  0  0  0  0
   -1.1857   -3.5039   -0.7969 H   0  0  0  0  0  0  0  0  0  0  0  0
    0.7866   -2.5544   -0.7957 C   0  0  0  0  0  0  0  0  0  0  0  0
    1.5188   -3.8115   -1.2121 C   0  0  0  0  0  0  0  0  0  0  0  0
    0.8077   -4.5642   -1.5987 H   0  0  0  0  0  0  0  0  0  0  0  0
    2.0706   -4.2673   -0.3652 H   0  0  0  0  0  0  0  0  0  0  0  0
    2.2713   -3.5893   -1.9952 H   0  0  0  0  0  0  0  0  0  0  0  0
    2.8701   -1.3398   -0.6735 C   0  0  0  0  0  0  0  0  0  0  0  0
    3.5033   -0.4655   -1.5909 C   0  0  0  0  0  0  0  0  0  0  0  0
    2.8672    0.1022   -2.2865 H   0  0  0  0  0  0  0  0  0  0  0  0
    4.8949   -0.3147   -1.6049 C   0  0  0  0  0  0  0  0  0  0  0  0
    5.3590    0.3774   -2.3249 H   0  0  0  0  0  0  0  0  0  0  0  0
    5.7001   -1.0449   -0.7130 C   0  0  0  0  0  0  0  0  0  0  0  0
    6.7940   -0.9273   -0.7259 H   0  0  0  0  0  0  0  0  0  0  0  0
    5.0903   -1.9261    0.1944 C   0  0  0  0  0  0  0  0  0  0  0  0
    5.7073   -2.5001    0.9038 H   0  0  0  0  0  0  0  0  0  0  0  0
    3.6953   -2.0662    0.2212 C   0  0  0  0  0  0  0  0  0  0  0  0
    3.2196   -2.7232    0.9652 H   0  0  0  0  0  0  0  0  0  0  0  0
  1  3  1  0  0  0  0
  3 12  2  0  0  0  0
  3  4  1  0  0  0  0
  4  6  2  0  0  0  0
  5  4  1  0  0  0  0
  6  8  1  0  0  0  0
  6  7  1  0  0  0  0
  8  9  1  0  0  0  0
 10 11  1  0  0  0  0
 10  8  2  0  0  0  0
 12 10  1  0  0  0  0
 13 12  1  0  0  0  0
 14 15  1  0  0  0  0
 14  1  1  0  0  0  0
 15 16  1  0  0  0  0
 17 18  1  0  0  0  0
 17 15  2  0  0  0  0
 19 17  1  0  0  0  0
 20 19  1  0  0  0  0
 21 19  2  0  0  0  0
 21 23  1  0  0  0  0
 22 21  1  0  0  0  0
 23 14  2  0  0  0  0
 24 23  1  0  0  0  0
 25  1  1  0  0  0  0
 26 25  1  0  0  0  0
 27 25  2  0  0  0  0
 27  2  1  0  0  0  0
 28 27  1  0  0  0  0
 28 30  1  0  0  0  0
 29 28  1  0  0  0  0
 31 28  1  0  0  0  0
 32  2  1  0  0  0  0
 32 41  1  0  0  0  0
 33 32  2  0  0  0  0
 34 33  1  0  0  0  0
 35 33  1  0  0  0  0
 35 37  2  0  0  0  0
 36 35  1  0  0  0  0
 37 39  1  0  0  0  0
 38 37  1  0  0  0  0
 39 41  2  0  0  0  0
 39 40  1  0  0  0  0
 41 42  1  0  0  0  0
M  END
