1,3
q = 0.0, confidence = 1.0

 53 56  0  0  1  0  0  0  0  0999 V2000
   -1.3335   -0.0394    0.4797 P   0  0  2  0  0  0  0  0  0  0  0  0
   -3.8798    1.5029    0.7511 O   0  0  0  0  0  0  0  0  0  0  0  0
    1.1580    0.8559    1.9036 N   0  0  0  0  0  0  0  0  0  0  0  0
   -0.0526    1.7036    2.0289 C   0  0  0  0  0  0  0  0  0  0  0  0
   -0.1758    2.3573    1.1460 H   0  0  0  0  0  0  0  0  0  0  0  0
    0.0361    2.3505    2.9344 H   0  0  0  0  0  0  0  0  0  0  0  0
   -1.1451    0.6510    2.2089 C   0  0  2  0  0  0  0  0  0  0  0  0
   -2.1013    1.0578    2.5872 H   0  0  0  0  0  0  0  0  0  0  0  0
   -0.4535   -0.3916    3.1453 C   0  0  0  0  0  0  0  0  0  0  0  0
   -0.8503   -0.3138    4.1768 H   0  0  0  0  0  0  0  0  0  0  0  0
   -0.6167   -1.4329    2.8048 H   0  0  0  0  0  0  0  0  0  0  0  0
    1.0501   -0.0229    3.0983 C   0  0  0  0  0  0  0  0  0  0  0  0
    1.3445    0.5621    4.0018 H   0  0  0  0  0  0  0  0  0  0  0  0
    1.7353   -0.8852    2.9918 H   0  0  0  0  0  0  0  0  0  0  0  0
    2.4146    1.6438    1.8204 C   0  0  0  0  0  0  0  0  0  0  0  0
    3.2420    0.9121    1.7171 H   0  0  0  0  0  0  0  0  0  0  0  0
    2.5420    2.1955    2.7817 H   0  0  0  0  0  0  0  0  0  0  0  0
    2.6401    2.1756   -0.6534 C   0  0  0  0  0  0  0  0  0  0  0  0
    2.9193    1.1239   -0.8254 H   0  0  0  0  0  0  0  0  0  0  0  0
    2.5359    3.0658   -1.7326 C   0  0  0  0  0  0  0  0  0  0  0  0
    2.7342    2.7042   -2.7531 H   0  0  0  0  0  0  0  0  0  0  0  0
    2.1866    4.4082   -1.5136 C   0  0  0  0  0  0  0  0  0  0  0  0
    2.1036    5.1046   -2.3621 H   0  0  0  0  0  0  0  0  0  0  0  0
    1.9566    4.8623   -0.2055 C   0  0  0  0  0  0  0  0  0  0  0  0
    1.6949    5.9157   -0.0233 H   0  0  0  0  0  0  0  0  0  0  0  0
    2.0605    3.9707    0.8732 C   0  0  0  0  0  0  0  0  0  0  0  0
    1.8771    4.3297    1.8992 H   0  0  0  0  0  0  0  0  0  0  0  0
    2.3909    2.6169    0.6628 C   0  0  0  0  0  0  0  0  0  0  0  0
   -5.2072    1.9570    0.9521 C   0  0  0  0  0  0  0  0  0  0  0  0
   -5.6139    1.3585    1.7879 H   0  0  0  0  0  0  0  0  0  0  0  0
   -5.8342    1.7926    0.0490 H   0  0  0  0  0  0  0  0  0  0  0  0
   -5.2394    3.0353    1.2246 H   0  0  0  0  0  0  0  0  0  0  0  0
   -3.1659    1.9854   -0.3014 C   0  0  0  0  0  0  0  0  0  0  0  0
   -3.5824    3.0553   -1.1163 C   0  0  0  0  0  0  0  0  0  0  0  0
   -4.5471    3.5499   -0.9405 H   0  0  0  0  0  0  0  0  0  0  0  0
   -2.7486    3.5053   -2.1540 C   0  0  0  0  0  0  0  0  0  0  0  0
   -3.0830    4.3481   -2.7782 H   0  0  0  0  0  0  0  0  0  0  0  0
   -1.5076    2.9009   -2.3962 C   0  0  0  0  0  0  0  0  0  0  0  0
   -0.8552    3.2609   -3.2043 H   0  0  0  0  0  0  0  0  0  0  0  0
   -1.1009    1.8220   -1.5967 C   0  0  0  0  0  0  0  0  0  0  0  0
   -0.1375    1.3183   -1.7748 H   0  0  0  0  0  0  0  0  0  0  0  0
   -1.9172    1.3537   -0.5515 C   0  0  0  0  0  0  0  0  0  0  0  0
   -3.3130   -1.6732    1.6996 C   0  0  0  0  0  0  0  0  0  0  0  0
   -2.9562   -1.3057    2.6718 H   0  0  0  0  0  0  0  0  0  0  0  0
   -4.3825   -2.5803    1.6627 C   0  0  0  0  0  0  0  0  0  0  0  0
   -4.8394   -2.9207    2.6044 H   0  0  0  0  0  0  0  0  0  0  0  0
   -4.8685   -3.0495    0.4322 C   0  0  0  0  0  0  0  0  0  0  0  0
   -5.7063   -3.7627    0.4061 H   0  0  0  0  0  0  0  0  0  0  0  0
   -4.2816   -2.6074   -0.7641 C   0  0  0  0  0  0  0  0  0  0  0  0
   -4.6562   -2.9731   -1.7321 H   0  0  0  0  0  0  0  0  0  0  0  0
   -3.2099   -1.7046   -0.7354 C   0  0  0  0  0  0  0  0  0  0  0  0
   -2.7411   -1.3709   -1.6726 H   0  0  0  0  0  0  0  0  0  0  0  0
   -2.7194   -1.2304    0.5000 C   0  0  0  0  0  0  0  0  0  0  0  0
  1 42  1  6  0  0  0
  1 53  1  0  0  0  0
  1  7  1  0  0  0  0
  2 29  1  0  0  0  0
  3  4  1  0  0  0  0
  3 12  1  0  0  0  0
  4  7  1  0  0  0  0
  4  6  1  0  0  0  0
  5  4  1  0  0  0  0
  7  8  1  1  0  0  0
  7  9  1  0  0  0  0
  9 10  1  0  0  0  0
 11  9  1  0  0  0  0
 12  9  1  0  0  0  0
 12 13  1  0  0  0  0
 14 12  1  0  0  0  0
 15  3  1  0  0  0  0
 15 17  1  0  0  0  0
 16 15  1  0  0  0  0
 18 28  1  0  0  0  0
 19 18  1  0  0  0  0
 20 22  1  0  0  0  0
 20 18  2  0  0  0  0
 21 20  1  0  0  0  0
 22 24  2  0  0  0  0
 23 22  1  0  0  0  0
 24 25  1  0  0  0  0
 24 26  1  0  0  0  0
 26 27  1  0  0  0  0
 28 26  2  0  0  0  0
 28 15  1  0  0  0  0
 29 32  1  0  0  0  0
 29 30  1  0  0  0  0
 31 29  1  0  0  0  0
 33  2  1  0  0  0  0
 34 35  1  0  0  0  0
 34 33  2  0  0  0  0
 36 34  1  0  0  0  0
 37 36  1  0  0  0  0
 38 36  2  0  0  0  0
 38 40  1  0  0  0  0
 39 38  1  0  0  0  0
 40 42  2  0  0  0  0
 41 40  1  0  0  0  0
 42 33  1  0  0  0  0
 43 44  1  0  0  0  0
 45 43  1  0  0  0  0
 45 46  1  0  0  0  0
 47 45  2  0  0  0  0
 48 47  1  0  0  0  0
 49 51  2  0  0  0  0
 49 47  1  0  0  0  0
 50 49  1  0  0  0  0
 51 53  1  0  0  0  0
 52 51  1  0  0  0  0
 53 43  2  0  0  0  0
M  END
