1,4
q = -1.0, confidence = 0.0

 28 28  0  0  1  0  0  0  0  0999 V2000
    0.0384    1.7317    0.3556 P   0  0  2  0  0  4  0  0  0  0  0  0
    0.4365    2.4968    1.5942 O   0  0  0  0  0  0  0  0  0  0  0  0
    0.3154    2.7301   -0.9543 O   0  0  0  0  0  0  0  0  0  0  0  0
   -1.5293   -0.6784   -0.1741 N   0  0  0  0  0  2  0  0  0  0  0  0
   -1.7398    1.5738    0.2405 N   0  0  0  0  0  0  0  0  0  0  0  0
   -2.0990   -1.9629   -0.2187 N   0  0  0  0  0  0  0  0  0  0  0  0
   -2.3240    0.3634    0.0173 C   0  0  2  0  0  3  0  0  0  0  0  0
   -3.8098    0.3007    0.0290 C   0  0  0  0  0  0  0  0  0  0  0  0
   -4.5159   -0.4395   -0.9448 C   0  0  0  0  0  0  0  0  0  0  0  0
   -5.9157   -0.4323   -0.9476 C   0  0  0  0  0  0  0  0  0  0  0  0
   -6.6269    0.2944    0.0232 C   0  0  0  0  0  0  0  0  0  0  0  0
   -5.9310    1.0248    0.9977 C   0  0  0  0  0  0  0  0  0  0  0  0
   -4.5284    1.0333    0.9986 C   0  0  0  0  0  0  0  0  0  0  0  0
   -2.3288   -2.5083    1.1216 C   0  0  0  0  0  0  0  0  0  0  0  0
   -0.0280    2.2729   -2.2574 C   0  0  0  0  0  0  0  0  0  0  0  0
   -1.3693   -2.5418   -0.6701 H   0  0  0  0  0  0  0  0  0  0  0  0
   -3.9532   -1.0253   -1.6826 H   0  0  0  0  0  0  0  0  0  0  0  0
   -6.4595   -1.0028   -1.7156 H   0  0  0  0  0  0  0  0  0  0  0  0
   -7.7275    0.2884    0.0198 H   0  0  0  0  0  0  0  0  0  0  0  0
   -3.9814    1.5936    1.7726 H   0  0  0  0  0  0  0  0  0  0  0  0
   -1.4234   -2.4565    1.7706 H   0  0  0  0  0  0  0  0  0  0  0  0
   -2.6266   -3.5693    1.0103 H   0  0  0  0  0  0  0  0  0  0  0  0
   -6.4807    1.5899    1.7653 H   0  0  0  0  0  0  0  0  0  0  0  0
   -3.1617   -1.9695    1.6176 H   0  0  0  0  0  0  0  0  0  0  0  0
    0.3653    1.2486   -2.4494 H   0  0  0  0  0  0  0  0  0  0  0  0
   -1.1312    2.2505   -2.4054 H   0  0  0  0  0  0  0  0  0  0  0  0
    0.4169    2.9780   -2.9864 H   0  0  0  0  0  0  0  0  0  0  0  0
   -2.3438    2.3979    0.2815 H   0  0  0  0  0  0  0  0  0  0  0  0
  1  2  2  1  0  0  0
  3  1  1  0  0  0  0
  5 28  1  0  0  0  0
  5  1  1  0  0  0  0
  6  4  1  0  0  0  0
  6 14  1  0  0  0  0
  7  4  1  1  0  0  0
  7  8  1  0  0  0  0
  7  5  1  0  0  0  0
  8 13  1  0  0  0  0
  9  8  2  0  0  0  0
 10  9  1  0  0  0  0
 10 11  2  0  0  0  0
 11 12  1  0  0  0  0
 12 13  2  0  0  0  0
 12 23  1  0  0  0  0
 13 20  1  0  0  0  0
 14 24  1  0  0  0  0
 14 21  1  0  0  0  0
 15  3  1  0  0  0  0
 16  6  1  0  0  0  0
 17  9  1  0  0  0  0
 18 10  1  0  0  0  0
 19 11  1  0  0  0  0
 22 14  1  0  0  0  0
 25 15  1  0  0  0  0
 26 15  1  0  0  0  0
 27 15  1  0  0  0  0
M  END
