1,8
q = -1.0

 21 20  0  0  1  0  0  0  0  0999 V2000
   -0.9780    1.2504    0.5920 P   0  0  2  0  0  4  0  0  0  0  0  0
   -1.9211    3.3743   -0.7055 C   0  0  0  0  0  0  0  0  0  0  0  0
   -2.9789   -1.2647   -0.0892 C   0  0  2  0  0  3  0  0  0  0  0  0
   -4.0115   -2.1368   -0.7615 C   0  0  0  0  0  0  0  0  0  0  0  0
   -4.5290    0.6830   -0.1189 C   0  0  0  0  0  0  0  0  0  0  0  0
   -0.3895    2.2373    1.5888 O   0  0  0  0  0  0  0  0  0  0  0  0
   -1.5213    2.0038   -0.8031 O   0  0  0  0  0  0  0  0  0  0  0  0
   -1.7427   -1.6768    0.0453 N   0  0  0  0  0  2  0  0  0  0  0  0
   -2.5559    0.7254    1.2255 N   0  0  0  0  0  0  0  0  0  0  0  0
   -3.3778   -0.0455    0.3957 N   0  0  0  0  0  0  0  0  0  0  0  0
   -3.0236    3.4580   -0.5837 H   0  0  0  0  0  0  0  0  0  0  0  0
   -1.4299    3.8655    0.1600 H   0  0  0  0  0  0  0  0  0  0  0  0
   -1.6242    3.8845   -1.6438 H   0  0  0  0  0  0  0  0  0  0  0  0
   -4.2140   -1.7797   -1.7922 H   0  0  0  0  0  0  0  0  0  0  0  0
   -3.6266   -3.1701   -0.8391 H   0  0  0  0  0  0  0  0  0  0  0  0
   -4.9700   -2.1552   -0.2074 H   0  0  0  0  0  0  0  0  0  0  0  0
   -4.2018    1.4348   -0.8686 H   0  0  0  0  0  0  0  0  0  0  0  0
   -5.2519   -0.0013   -0.5960 H   0  0  0  0  0  0  0  0  0  0  0  0
   -5.0234    1.2092    0.7192 H   0  0  0  0  0  0  0  0  0  0  0  0
   -1.5673   -2.6460   -0.2519 H   0  0  0  0  0  0  0  0  0  0  0  0
   -2.4109    0.2348    2.1212 H   0  0  0  0  0  0  0  0  0  0  0  0
  1  9  1  0  0  0  0
  1  6  2  1  0  0  0
  2 11  1  0  0  0  0
  2 12  1  0  0  0  0
  3  8  1  1  0  0  0
  3 10  1  0  0  0  0
  4 16  1  0  0  0  0
  4  3  1  0  0  0  0
  5 10  1  0  0  0  0
  5 19  1  0  0  0  0
  7  2  1  0  0  0  0
  7  1  1  0  0  0  0
  9 21  1  0  0  0  0
 10  9  1  0  0  0  0
 13  2  1  0  0  0  0
 14  4  1  0  0  0  0
 15  4  1  0  0  0  0
 17  5  1  0  0  0  0
 18  5  1  0  0  0  0
 20  8  1  0  0  0  0
M  END
