1,3
q = 0.0, confidence = 0.994

 68 73  0  0  1  0  0  0  0  0999 V2000
    1.8968    0.3845    0.1334 P   0  0  0  0  0  0  0  0  0  0  0  0
   -1.5714    0.3852    3.5625 O   0  0  0  0  0  0  0  0  0  0  0  0
   -0.9575    0.1470   -0.3927 N   0  0  0  0  0  2  0  0  0  0  0  0
   -2.3261    0.2820    1.3922 N   0  0  0  0  0  0  0  0  0  0  0  0
    1.3103   -2.3493    3.1946 C   0  0  0  0  0  0  0  0  0  0  0  0
   -1.1348    0.6982    0.7797 C   0  0  2  0  0  3  0  0  0  0  0  0
    4.5914    0.3027    0.9692 C   0  0  0  0  0  0  0  0  0  0  0  0
   -2.4808    0.1326    2.7824 C   0  0  0  0  0  0  0  0  0  0  0  0
    3.6652    0.8331    0.0492 C   0  0  0  0  0  0  0  0  0  0  0  0
    1.8205   -1.1327    1.1537 C   0  0  0  0  0  0  0  0  0  0  0  0
    1.9238    2.7543    1.6928 C   0  0  0  0  0  0  0  0  0  0  0  0
    2.2919   -2.3238    0.5600 C   0  0  0  0  0  0  0  0  0  0  0  0
   -1.5328   -2.2441   -0.5476 C   0  0  0  0  0  0  0  0  0  0  0  0
   -3.8373    1.5609   -1.1425 C   0  0  0  0  0  0  0  0  0  0  0  0
   -3.8400   -0.3565    3.2372 C   0  0  0  0  0  0  0  0  0  0  0  0
    5.4201    2.1956   -0.9369 C   0  0  0  0  0  0  0  0  0  0  0  0
    1.1394    1.7179    1.1537 C   0  0  0  0  0  0  0  0  0  0  0  0
    5.9304    0.7214    0.9302 C   0  0  0  0  0  0  0  0  0  0  0  0
   -4.1968    0.5392   -0.2365 C   0  0  0  0  0  0  0  0  0  0  0  0
   -3.1507   -0.3953    0.3431 C   0  0  1  0  0  0  0  0  0  0  0  0
    1.8121   -3.5257    2.6188 C   0  0  0  0  0  0  0  0  0  0  0  0
   -0.2678    1.7410    1.3512 C   0  0  0  0  0  0  0  0  0  0  0  0
    4.0824    1.7777   -0.9120 C   0  0  0  0  0  0  0  0  0  0  0  0
   -0.0644    3.8453    2.5692 C   0  0  0  0  0  0  0  0  0  0  0  0
   -0.8540    2.8101    2.0592 C   0  0  0  0  0  0  0  0  0  0  0  0
   -2.0534   -0.8213   -0.6649 C   0  0  1  0  0  0  0  0  0  0  0  0
    1.3155   -1.1468    2.4685 C   0  0  0  0  0  0  0  0  0  0  0  0
   -5.5490    0.3984    0.1318 C   0  0  0  0  0  0  0  0  0  0  0  0
    6.3444    1.6681   -0.0200 C   0  0  0  0  0  0  0  0  0  0  0  0
   -6.5243    1.2757   -0.3671 C   0  0  0  0  0  0  0  0  0  0  0  0
   -0.9714   -4.2278    0.7564 C   0  0  0  0  0  0  0  0  0  0  0  0
    1.3275    3.8117    2.3955 C   0  0  0  0  0  0  0  0  0  0  0  0
    2.2970   -3.5126    1.2993 C   0  0  0  0  0  0  0  0  0  0  0  0
   -1.4654   -2.9175    0.6883 C   0  0  0  0  0  0  0  0  0  0  0  0
   -4.8125    2.4380   -1.6374 C   0  0  0  0  0  0  0  0  0  0  0  0
   -6.1550    2.3040   -1.2469 C   0  0  0  0  0  0  0  0  0  0  0  0
   -0.5615   -4.1982   -1.6363 C   0  0  0  0  0  0  0  0  0  0  0  0
   -0.5213   -4.8726   -0.4061 C   0  0  0  0  0  0  0  0  0  0  0  0
   -1.0658   -2.8914   -1.7093 C   0  0  0  0  0  0  0  0  0  0  0  0
    3.3621    2.1588   -1.6497 H   0  0  0  0  0  0  0  0  0  0  0  0
    5.7453    2.9285   -1.6904 H   0  0  0  0  0  0  0  0  0  0  0  0
    7.3958    1.9923   -0.0506 H   0  0  0  0  0  0  0  0  0  0  0  0
    6.6529    0.3035    1.6474 H   0  0  0  0  0  0  0  0  0  0  0  0
    4.2655   -0.4370    1.7154 H   0  0  0  0  0  0  0  0  0  0  0  0
    3.0140    2.7349    1.5534 H   0  0  0  0  0  0  0  0  0  0  0  0
    1.9572    4.6156    2.8051 H   0  0  0  0  0  0  0  0  0  0  0  0
   -0.5379    4.6796    3.1072 H   0  0  0  0  0  0  0  0  0  0  0  0
   -1.9451    2.8315    2.1889 H   0  0  0  0  0  0  0  0  0  0  0  0
   -2.7997    1.6530   -1.5000 H   0  0  0  0  0  0  0  0  0  0  0  0
   -4.5197    3.2239   -2.3497 H   0  0  0  0  0  0  0  0  0  0  0  0
   -6.9171    2.9922   -1.6429 H   0  0  0  0  0  0  0  0  0  0  0  0
   -7.5773    1.1484   -0.0737 H   0  0  0  0  0  0  0  0  0  0  0  0
   -5.8472   -0.4207    0.8057 H   0  0  0  0  0  0  0  0  0  0  0  0
   -1.0892   -2.3470   -2.6670 H   0  0  0  0  0  0  0  0  0  0  0  0
   -0.1318   -5.9007   -0.3507 H   0  0  0  0  0  0  0  0  0  0  0  0
   -0.9277   -4.7427    1.7276 H   0  0  0  0  0  0  0  0  0  0  0  0
   -1.7889   -2.4213    1.6157 H   0  0  0  0  0  0  0  0  0  0  0  0
    2.6478   -2.3103   -0.4827 H   0  0  0  0  0  0  0  0  0  0  0  0
    1.8128   -4.4638    3.1947 H   0  0  0  0  0  0  0  0  0  0  0  0
    2.6668   -4.4393    0.8362 H   0  0  0  0  0  0  0  0  0  0  0  0
    0.9101   -2.3574    4.2198 H   0  0  0  0  0  0  0  0  0  0  0  0
    0.9112   -0.2330    2.9285 H   0  0  0  0  0  0  0  0  0  0  0  0
   -2.3692   -0.6391   -1.7117 H   0  0  0  0  0  0  0  0  0  0  0  0
   -3.6444   -1.2799    0.7821 H   0  0  0  0  0  0  0  0  0  0  0  0
   -0.2007   -4.6920   -2.5512 H   0  0  0  0  0  0  0  0  0  0  0  0
   -3.9791   -1.4288    2.9864 H   0  0  0  0  0  0  0  0  0  0  0  0
   -3.8884   -0.2465    4.3343 H   0  0  0  0  0  0  0  0  0  0  0  0
   -4.6618    0.2084    2.7569 H   0  0  0  0  0  0  0  0  0  0  0  0
  1 17  1  0  0  0  0
  1 10  1  0  0  0  0
  3  6  1  0  0  0  0
  4  8  1  0  0  0  0
  5 61  1  0  0  0  0
  6 22  1  6  0  0  0
  6  4  1  0  0  0  0
  7 44  1  0  0  0  0
  8 15  1  0  0  0  0
  8  2  2  0  0  0  0
  9  1  1  0  0  0  0
  9  7  2  0  0  0  0
 10 27  1  0  0  0  0
 11 32  1  0  0  0  0
 12 10  2  0  0  0  0
 12 33  1  0  0  0  0
 13 34  1  0  0  0  0
 14 19  1  0  0  0  0
 15 67  1  0  0  0  0
 16 23  2  0  0  0  0
 16 29  1  0  0  0  0
 17 22  1  0  0  0  0
 17 11  2  0  0  0  0
 18  7  1  0  0  0  0
 18 43  1  0  0  0  0
 19 28  2  0  0  0  0
 19 20  1  0  0  0  0
 20 64  1  1  0  0  0
 20  4  1  0  0  0  0
 21  5  1  0  0  0  0
 21 59  1  0  0  0  0
 22 25  2  0  0  0  0
 23  9  1  0  0  0  0
 24 47  1  0  0  0  0
 25 48  1  0  0  0  0
 25 24  1  0  0  0  0
 26 63  1  6  0  0  0
 26 13  1  0  0  0  0
 26  3  1  0  0  0  0
 26 20  1  0  0  0  0
 27 62  1  0  0  0  0
 27  5  2  0  0  0  0
 28 53  1  0  0  0  0
 29 18  2  0  0  0  0
 30 52  1  0  0  0  0
 30 28  1  0  0  0  0
 31 56  1  0  0  0  0
 32 24  2  0  0  0  0
 32 46  1  0  0  0  0
 33 21  2  0  0  0  0
 34 31  2  0  0  0  0
 34 57  1  0  0  0  0
 35 36  1  0  0  0  0
 35 14  2  0  0  0  0
 36 30  2  0  0  0  0
 37 38  2  0  0  0  0
 38 55  1  0  0  0  0
 38 31  1  0  0  0  0
 39 37  1  0  0  0  0
 39 13  2  0  0  0  0
 40 23  1  0  0  0  0
 41 16  1  0  0  0  0
 42 29  1  0  0  0  0
 45 11  1  0  0  0  0
 49 14  1  0  0  0  0
 50 35  1  0  0  0  0
 51 36  1  0  0  0  0
 54 39  1  0  0  0  0
 58 12  1  0  0  0  0
 60 33  1  0  0  0  0
 65 37  1  0  0  0  0
 66 15  1  0  0  0  0
 68 15  1  0  0  0  0
M  END
