1,5
q = 0.0, confidence = 1.0

 47 50  0  0  1  0  0  0  0  0999 V2000
   -0.6166   -0.1971   -0.2063 P   0  0  2  0  0  0  0  0  0  0  0  0
    2.4316    2.4715    1.7470 O   0  0  0  0  0  0  0  0  0  0  0  0
   -0.6072    1.2017    0.7027 O   0  0  0  0  0  0  0  0  0  0  0  0
   -1.7273    0.1790   -1.4157 O   0  0  0  0  0  0  0  0  0  0  0  0
    2.3055    0.6588    0.4090 N   0  0  0  0  0  2  0  0  0  0  0  0
    3.9813   -0.7897    1.5604 C   0  0  0  0  0  0  0  0  0  0  0  0
    3.2059   -1.0850    2.2957 H   0  0  0  0  0  0  0  0  0  0  0  0
    4.9675   -0.7894    2.0681 H   0  0  0  0  0  0  0  0  0  0  0  0
    4.0002   -1.5312    0.7376 H   0  0  0  0  0  0  0  0  0  0  0  0
    4.6871    0.9880   -0.1077 C   0  0  0  0  0  0  0  0  0  0  0  0
    4.6177    0.2642   -0.9434 H   0  0  0  0  0  0  0  0  0  0  0  0
    5.7178    0.9770    0.3022 H   0  0  0  0  0  0  0  0  0  0  0  0
    4.4713    2.0068   -0.4894 H   0  0  0  0  0  0  0  0  0  0  0  0
    3.6864    0.5967    0.9893 C   0  0  0  0  0  0  0  0  0  0  0  0
    3.6028    1.6857    2.0933 C   0  0  0  0  0  0  0  0  0  0  0  0
    3.4313    1.2602    3.1053 H   0  0  0  0  0  0  0  0  0  0  0  0
    4.4787    2.3610    2.1192 H   0  0  0  0  0  0  0  0  0  0  0  0
    1.7415    1.7316    0.8545 C   0  0  2  0  0  3  0  0  0  0  0  0
    0.3621    2.2590    0.4598 C   0  0  0  0  0  0  0  0  0  0  0  0
   -3.0087    0.5667   -1.0932 C   0  0  0  0  0  0  0  0  0  0  0  0
   -3.6226    1.4801   -1.9658 C   0  0  0  0  0  0  0  0  0  0  0  0
   -3.0504    1.8249   -2.8389 H   0  0  0  0  0  0  0  0  0  0  0  0
   -4.9233    1.9271   -1.7106 C   0  0  0  0  0  0  0  0  0  0  0  0
   -5.3975    2.6475   -2.3938 H   0  0  0  0  0  0  0  0  0  0  0  0
   -5.6102    1.4654   -0.5740 C   0  0  0  0  0  0  0  0  0  0  0  0
   -6.6251    1.8272   -0.3534 H   0  0  0  0  0  0  0  0  0  0  0  0
   -4.9988    0.5443    0.2813 C   0  0  0  0  0  0  0  0  0  0  0  0
   -5.5417    0.2002    1.1733 H   0  0  0  0  0  0  0  0  0  0  0  0
   -3.6917    0.0559    0.0442 C   0  0  0  0  0  0  0  0  0  0  0  0
   -3.0699   -0.9761    0.8988 C   0  0  0  0  0  0  0  0  0  0  0  0
   -3.8368   -1.8030    1.7532 C   0  0  0  0  0  0  0  0  0  0  0  0
   -4.9290   -1.6842    1.7873 H   0  0  0  0  0  0  0  0  0  0  0  0
   -3.2364   -2.7974    2.5337 C   0  0  0  0  0  0  0  0  0  0  0  0
   -3.8643   -3.4251    3.1842 H   0  0  0  0  0  0  0  0  0  0  0  0
   -1.8491   -3.0167    2.4745 C   0  0  0  0  0  0  0  0  0  0  0  0
   -1.3834   -3.8105    3.0768 H   0  0  0  0  0  0  0  0  0  0  0  0
   -1.0681   -2.2241    1.6256 C   0  0  0  0  0  0  0  0  0  0  0  0
    0.0185   -2.3875    1.5363 H   0  0  0  0  0  0  0  0  0  0  0  0
   -1.6677   -1.2097    0.8580 C   0  0  0  0  0  0  0  0  0  0  0  0
    0.3736    2.6887   -1.0139 C   0  0  0  0  0  0  0  0  0  0  0  0
    0.6943    1.8547   -1.6700 H   0  0  0  0  0  0  0  0  0  0  0  0
    1.0803    3.5298   -1.1566 H   0  0  0  0  0  0  0  0  0  0  0  0
   -0.6409    3.0179   -1.3114 H   0  0  0  0  0  0  0  0  0  0  0  0
   -0.0818    3.4005    1.3727 C   0  0  0  0  0  0  0  0  0  0  0  0
   -1.0971    3.7198    1.0714 H   0  0  0  0  0  0  0  0  0  0  0  0
    0.6115    4.2580    1.2919 H   0  0  0  0  0  0  0  0  0  0  0  0
   -0.1097    3.0674    2.4266 H   0  0  0  0  0  0  0  0  0  0  0  0
  1  3  1  1  0  0  0
  1 39  1  0  0  0  0
  2 15  1  0  0  0  0
  4 20  1  0  0  0  0
  4  1  1  0  0  0  0
  5 18  1  0  0  0  0
  5 14  1  0  0  0  0
  6  8  1  0  0  0  0
  6  7  1  0  0  0  0
  9  6  1  0  0  0  0
 10 12  1  0  0  0  0
 10 14  1  0  0  0  0
 11 10  1  0  0  0  0
 13 10  1  0  0  0  0
 14  6  1  0  0  0  0
 14 15  1  0  0  0  0
 15 17  1  0  0  0  0
 15 16  1  0  0  0  0
 18 19  1  6  0  0  0
 18  2  1  0  0  0  0
 19  3  1  0  0  0  0
 19 44  1  0  0  0  0
 20 29  1  0  0  0  0
 21 23  1  0  0  0  0
 21 20  2  0  0  0  0
 22 21  1  0  0  0  0
 23 25  2  0  0  0  0
 24 23  1  0  0  0  0
 25 26  1  0  0  0  0
 25 27  1  0  0  0  0
 27 28  1  0  0  0  0
 29 27  2  0  0  0  0
 29 30  1  0  0  0  0
 30 31  1  0  0  0  0
 31 32  1  0  0  0  0
 31 33  2  0  0  0  0
 33 34  1  0  0  0  0
 35 33  1  0  0  0  0
 35 36  1  0  0  0  0
 37 35  2  0  0  0  0
 38 37  1  0  0  0  0
 39 30  2  0  0  0  0
 39 37  1  0  0  0  0
 40 19  1  0  0  0  0
 41 40  1  0  0  0  0
 42 40  1  0  0  0  0
 43 40  1  0  0  0  0
 44 47  1  0  0  0  0
 45 44  1  0  0  0  0
 46 44  1  0  0  0  0
M  END
