1,5
q = 0.0, confidence = 1.0

 41 44  0  0  1  0  0  0  0  0999 V2000
   -0.7871    0.1888    0.0382 P   0  0  2  0  0  0  0  0  0  0  0  0
    2.1205    3.5801    0.9356 O   0  0  0  0  0  0  0  0  0  0  0  0
   -0.8527    1.6859    0.7579 O   0  0  0  0  0  0  0  0  0  0  0  0
   -1.6992    0.3415   -1.3341 O   0  0  0  0  0  0  0  0  0  0  0  0
    2.0910    1.4101    0.3397 N   0  0  0  0  0  2  0  0  0  0  0  0
    4.0619    0.6840    1.6730 C   0  0  0  0  0  0  0  0  0  0  0  0
    3.4420    0.7074    2.5909 H   0  0  0  0  0  0  0  0  0  0  0  0
    5.1050    0.9368    1.9495 H   0  0  0  0  0  0  0  0  0  0  0  0
    4.0572   -0.3447    1.2650 H   0  0  0  0  0  0  0  0  0  0  0  0
    4.3343    1.5989   -0.6788 C   0  0  0  0  0  0  0  0  0  0  0  0
    4.2924    0.5786   -1.1027 H   0  0  0  0  0  0  0  0  0  0  0  0
    5.3965    1.8520   -0.4875 H   0  0  0  0  0  0  0  0  0  0  0  0
    3.9370    2.3143   -1.4261 H   0  0  0  0  0  0  0  0  0  0  0  0
    3.5379    1.6747    0.6310 C   0  0  0  0  0  0  0  0  0  0  0  0
    3.4845    3.1333    1.1814 C   0  0  0  0  0  0  0  0  0  0  0  0
    3.6581    3.1941    2.2749 H   0  0  0  0  0  0  0  0  0  0  0  0
    4.1707    3.8285    0.6619 H   0  0  0  0  0  0  0  0  0  0  0  0
    1.4375    2.5136    0.5146 C   0  0  2  0  0  3  0  0  0  0  0  0
   -0.0343    2.7439    0.2673 C   0  0  0  0  0  0  0  0  0  0  0  0
   -0.3379    3.6616    0.8048 H   0  0  0  0  0  0  0  0  0  0  0  0
   -0.1989    2.9148   -0.8206 H   0  0  0  0  0  0  0  0  0  0  0  0
   -3.0710    0.5880   -1.2591 C   0  0  0  0  0  0  0  0  0  0  0  0
   -3.6261    1.2886   -2.3371 C   0  0  0  0  0  0  0  0  0  0  0  0
   -2.9643    1.6049   -3.1558 H   0  0  0  0  0  0  0  0  0  0  0  0
   -4.9966    1.5705   -2.3460 C   0  0  0  0  0  0  0  0  0  0  0  0
   -5.4346    2.1252   -3.1886 H   0  0  0  0  0  0  0  0  0  0  0  0
   -5.8012    1.1559   -1.2704 C   0  0  0  0  0  0  0  0  0  0  0  0
   -6.8751    1.3909   -1.2596 H   0  0  0  0  0  0  0  0  0  0  0  0
   -5.2363    0.4457   -0.2084 C   0  0  0  0  0  0  0  0  0  0  0  0
   -5.8784    0.1422    0.6300 H   0  0  0  0  0  0  0  0  0  0  0  0
   -3.8568    0.1249   -0.1725 C   0  0  0  0  0  0  0  0  0  0  0  0
   -3.2700   -0.6847    0.9153 C   0  0  0  0  0  0  0  0  0  0  0  0
   -4.0714   -1.4576    1.7892 C   0  0  0  0  0  0  0  0  0  0  0  0
   -5.1616   -1.4717    1.6553 H   0  0  0  0  0  0  0  0  0  0  0  0
   -3.5056   -2.2307    2.8083 C   0  0  0  0  0  0  0  0  0  0  0  0
   -4.1635   -2.8179    3.4662 H   0  0  0  0  0  0  0  0  0  0  0  0
   -2.1114   -2.2799    2.9884 C   0  0  0  0  0  0  0  0  0  0  0  0
   -1.6734   -2.8952    3.7875 H   0  0  0  0  0  0  0  0  0  0  0  0
   -1.2895   -1.5438    2.1303 C   0  0  0  0  0  0  0  0  0  0  0  0
   -0.1927   -1.5759    2.2357 H   0  0  0  0  0  0  0  0  0  0  0  0
   -1.8614   -0.7527    1.1150 C   0  0  0  0  0  0  0  0  0  0  0  0
  1  3  1  1  0  0  0
  1 41  1  0  0  0  0
  2 15  1  0  0  0  0
  4 22  1  0  0  0  0
  4  1  1  0  0  0  0
  5 18  1  0  0  0  0
  5 14  1  0  0  0  0
  6  8  1  0  0  0  0
  6  7  1  0  0  0  0
  9  6  1  0  0  0  0
 10 12  1  0  0  0  0
 10 14  1  0  0  0  0
 11 10  1  0  0  0  0
 13 10  1  0  0  0  0
 14 15  1  0  0  0  0
 14  6  1  0  0  0  0
 15 16  1  0  0  0  0
 17 15  1  0  0  0  0
 18 19  1  6  0  0  0
 18  2  1  0  0  0  0
 19  3  1  0  0  0  0
 19 20  1  0  0  0  0
 21 19  1  0  0  0  0
 22 31  1  0  0  0  0
 23 22  2  0  0  0  0
 24 23  1  0  0  0  0
 25 23  1  0  0  0  0
 25 27  2  0  0  0  0
 26 25  1  0  0  0  0
 27 28  1  0  0  0  0
 27 29  1  0  0  0  0
 29 31  2  0  0  0  0
 29 30  1  0  0  0  0
 31 32  1  0  0  0  0
 32 41  2  0  0  0  0
 32 33  1  0  0  0  0
 33 35  2  0  0  0  0
 34 33  1  0  0  0  0
 35 37  1  0  0  0  0
 35 36  1  0  0  0  0
 37 38  1  0  0  0  0
 39 40  1  0  0  0  0
 39 37  2  0  0  0  0
 41 39  1  0  0  0  0
M  END
