1,3
q = 0.0, confidence = 0.998

 39 40  0  0  1  0  0  0  0  0999 V2000
    0.9043    0.4387    0.3775 P   0  0  1  0  0  0  0  0  0  0  0  0
   -1.1099    2.2437    0.7719 O   0  0  0  0  0  0  0  0  0  0  0  0
   -2.1508    0.5859   -0.5397 N   0  0  0  0  0  2  0  0  0  0  0  0
   -2.1865    1.7860    0.0838 C   0  0  2  0  0  3  0  0  0  0  0  0
   -3.3158    2.6245    0.0473 C   0  0  0  0  0  0  0  0  0  0  0  0
   -3.2789    3.5672    0.6092 H   0  0  0  0  0  0  0  0  0  0  0  0
   -4.4116    2.2458   -0.7289 C   0  0  0  0  0  0  0  0  0  0  0  0
   -5.3024    2.8893   -0.7828 H   0  0  0  0  0  0  0  0  0  0  0  0
   -4.3366    1.0514   -1.4630 C   0  0  0  0  0  0  0  0  0  0  0  0
   -5.1561    0.7225   -2.1164 H   0  0  0  0  0  0  0  0  0  0  0  0
   -3.2040    0.2480   -1.3368 C   0  0  0  0  0  0  0  0  0  0  0  0
   -3.1287   -0.7356   -1.8200 H   0  0  0  0  0  0  0  0  0  0  0  0
    0.1618    2.1293    0.1261 C   0  0  0  0  0  0  0  0  0  0  0  0
    0.7848    2.9376    0.5512 H   0  0  0  0  0  0  0  0  0  0  0  0
    0.0670    2.2861   -0.9702 H   0  0  0  0  0  0  0  0  0  0  0  0
    2.3267    0.4644   -0.7782 C   0  0  0  0  0  0  0  0  0  0  0  0
    3.0548    1.6501   -1.0267 C   0  0  0  0  0  0  0  0  0  0  0  0
    2.7855    2.5942   -0.5304 H   0  0  0  0  0  0  0  0  0  0  0  0
    4.1389    1.6380   -1.9171 C   0  0  0  0  0  0  0  0  0  0  0  0
    4.6985    2.5665   -2.1068 H   0  0  0  0  0  0  0  0  0  0  0  0
    4.5069    0.4469   -2.5621 C   0  0  0  0  0  0  0  0  0  0  0  0
    5.3581    0.4398   -3.2599 H   0  0  0  0  0  0  0  0  0  0  0  0
    3.7859   -0.7327   -2.3175 C   0  0  0  0  0  0  0  0  0  0  0  0
    4.0694   -1.6686   -2.8223 H   0  0  0  0  0  0  0  0  0  0  0  0
    2.6974   -0.7294   -1.4335 C   0  0  0  0  0  0  0  0  0  0  0  0
    2.1301   -1.6516   -1.2267 H   0  0  0  0  0  0  0  0  0  0  0  0
    1.6065    0.4304    2.1520 C   0  0  0  0  0  0  0  0  0  0  0  0
    0.4593   -0.0111    3.0783 C   0  0  0  0  0  0  0  0  0  0  0  0
   -0.4178    0.6618    2.9938 H   0  0  0  0  0  0  0  0  0  0  0  0
    0.8112    0.0113    4.1315 H   0  0  0  0  0  0  0  0  0  0  0  0
    0.1318   -1.0412    2.8373 H   0  0  0  0  0  0  0  0  0  0  0  0
    2.7716   -0.5719    2.2075 C   0  0  0  0  0  0  0  0  0  0  0  0
    2.4509   -1.5735    1.8624 H   0  0  0  0  0  0  0  0  0  0  0  0
    3.1192   -0.6535    3.2590 H   0  0  0  0  0  0  0  0  0  0  0  0
    3.6283   -0.2387    1.5885 H   0  0  0  0  0  0  0  0  0  0  0  0
    2.1068    1.8298    2.5429 C   0  0  0  0  0  0  0  0  0  0  0  0
    2.8675    2.2191    1.8355 H   0  0  0  0  0  0  0  0  0  0  0  0
    2.5949    1.7632    3.5379 H   0  0  0  0  0  0  0  0  0  0  0  0
    1.2839    2.5664    2.6347 H   0  0  0  0  0  0  0  0  0  0  0  0
  1 13  1  1  0  0  0
  1 27  1  0  0  0  0
  3  4  1  0  0  0  0
  4  2  1  6  0  0  0
  5  4  1  0  0  0  0
  5  6  1  0  0  0  0
  7  5  2  0  0  0  0
  8  7  1  0  0  0  0
  9 11  2  0  0  0  0
  9  7  1  0  0  0  0
 10  9  1  0  0  0  0
 11  3  1  0  0  0  0
 12 11  1  0  0  0  0
 13 14  1  0  0  0  0
 13  2  1  0  0  0  0
 15 13  1  0  0  0  0
 16  1  1  0  0  0  0
 17 16  1  0  0  0  0
 17 18  1  0  0  0  0
 19 17  2  0  0  0  0
 20 19  1  0  0  0  0
 21 23  2  0  0  0  0
 21 19  1  0  0  0  0
 22 21  1  0  0  0  0
 23 25  1  0  0  0  0
 24 23  1  0  0  0  0
 25 26  1  0  0  0  0
 25 16  2  0  0  0  0
 27 32  1  0  0  0  0
 27 36  1  0  0  0  0
 27 28  1  0  0  0  0
 28 30  1  0  0  0  0
 29 28  1  0  0  0  0
 31 28  1  0  0  0  0
 32 34  1  0  0  0  0
 33 32  1  0  0  0  0
 35 32  1  0  0  0  0
 36 39  1  0  0  0  0
 36 38  1  0  0  0  0
 37 36  1  0  0  0  0
M  END
