1,3
q = 0.0, confidence = 0.998

 34 36  0  0  1  0  0  0  0  0999 V2000
    1.9767   -0.0699   -0.1520 P   0  0  0  0  0  0  0  0  0  0  0  0
    0.8505    4.5817    0.0994 O   0  0  0  0  0  0  0  0  0  0  0  0
    1.7148    2.4395   -0.0824 N   0  0  0  0  0  2  0  0  0  0  0  0
    1.8554    3.7794   -0.1747 C   0  0  2  0  0  3  0  0  0  0  0  0
    3.1138    4.3157   -0.5692 C   0  0  0  0  0  0  0  0  0  0  0  0
    4.1636    3.4565   -0.8774 C   0  0  0  0  0  0  0  0  0  0  0  0
    3.9900    2.0545   -0.7989 C   0  0  0  0  0  0  0  0  0  0  0  0
    2.7426    1.6002   -0.3935 C   0  0  0  0  0  0  0  0  0  0  0  0
    2.4472   -1.1345   -1.5667 C   0  0  0  0  0  0  0  0  0  0  0  0
    1.4823   -1.5267   -2.5131 C   0  0  0  0  0  0  0  0  0  0  0  0
    1.8553   -2.3476   -3.5872 C   0  0  0  0  0  0  0  0  0  0  0  0
    3.1857   -2.7702   -3.7283 C   0  0  0  0  0  0  0  0  0  0  0  0
    4.1527   -2.3717   -2.7900 C   0  0  0  0  0  0  0  0  0  0  0  0
    3.7870   -1.5595   -1.7077 C   0  0  0  0  0  0  0  0  0  0  0  0
    2.8900   -0.7891    1.2741 C   0  0  0  0  0  0  0  0  0  0  0  0
    3.3340    0.0561    2.3121 C   0  0  0  0  0  0  0  0  0  0  0  0
    3.9525   -0.4865    3.4468 C   0  0  0  0  0  0  0  0  0  0  0  0
    4.1290   -1.8748    3.5602 C   0  0  0  0  0  0  0  0  0  0  0  0
    3.6890   -2.7203    2.5299 C   0  0  0  0  0  0  0  0  0  0  0  0
    3.0725   -2.1830    1.3899 C   0  0  0  0  0  0  0  0  0  0  0  0
    3.2114    5.4077   -0.6358 H   0  0  0  0  0  0  0  0  0  0  0  0
    5.1319    3.8735   -1.1934 H   0  0  0  0  0  0  0  0  0  0  0  0
    4.7943    1.3513   -1.0518 H   0  0  0  0  0  0  0  0  0  0  0  0
    0.4522   -1.1597   -2.4183 H   0  0  0  0  0  0  0  0  0  0  0  0
    1.0944   -2.6539   -4.3205 H   0  0  0  0  0  0  0  0  0  0  0  0
    3.4742   -3.4122   -4.5746 H   0  0  0  0  0  0  0  0  0  0  0  0
    5.1980   -2.6987   -2.8983 H   0  0  0  0  0  0  0  0  0  0  0  0
    4.5431   -1.2711   -0.9613 H   0  0  0  0  0  0  0  0  0  0  0  0
    3.1909    1.1444    2.2374 H   0  0  0  0  0  0  0  0  0  0  0  0
    4.2952    0.1826    4.2501 H   0  0  0  0  0  0  0  0  0  0  0  0
    4.6125   -2.2982    4.4533 H   0  0  0  0  0  0  0  0  0  0  0  0
    3.8296   -3.8090    2.6100 H   0  0  0  0  0  0  0  0  0  0  0  0
    2.7445   -2.8484    0.5783 H   0  0  0  0  0  0  0  0  0  0  0  0
   -0.0104    4.0536    0.2477 H   0  0  0  0  0  0  0  0  0  0  0  0
  1 15  1  0  0  0  0
  2 34  1  0  0  0  0
  4  3  1  0  0  0  0
  4  2  1  1  0  0  0
  5  4  1  0  0  0  0
  6  7  1  0  0  0  0
  6  5  2  0  0  0  0
  7  8  2  0  0  0  0
  8  1  1  0  0  0  0
  8  3  1  0  0  0  0
  9  1  1  0  0  0  0
 10 24  1  0  0  0  0
 10  9  2  0  0  0  0
 11 10  1  0  0  0  0
 12 11  2  0  0  0  0
 12 13  1  0  0  0  0
 13 14  2  0  0  0  0
 14  9  1  0  0  0  0
 14 28  1  0  0  0  0
 15 20  2  0  0  0  0
 15 16  1  0  0  0  0
 16 17  2  0  0  0  0
 17 18  1  0  0  0  0
 17 30  1  0  0  0  0
 18 31  1  0  0  0  0
 19 32  1  0  0  0  0
 19 18  2  0  0  0  0
 20 19  1  0  0  0  0
 21  5  1  0  0  0  0
 22  6  1  0  0  0  0
 23  7  1  0  0  0  0
 25 11  1  0  0  0  0
 26 12  1  0  0  0  0
 27 13  1  0  0  0  0
 29 16  1  0  0  0  0
 33 20  1  0  0  0  0
M  END
