1,5
q = 0.0, confidence = 0.998

 53 56  0  0  1  0  0  0  0  0999 V2000
    1.6289   -0.0057    1.7406 N   0  0  0  0  0  0  0  0  0  0  0  0
    2.1019   -0.8695    2.1032 H   0  0  0  0  0  0  0  0  0  0  0  0
    1.0629    0.6862    3.9650 O   0  0  0  0  0  0  0  0  0  0  0  0
    1.3842   -0.1577    4.3315 H   0  0  0  0  0  0  0  0  0  0  0  0
   -1.0668    0.1296   -0.0388 P   0  0  0  0  0  0  0  0  0  0  0  0
   -0.8859    1.6784    0.9497 C   0  0  0  0  0  0  0  0  0  0  0  0
   -1.4904    2.8750    0.5185 C   0  0  0  0  0  0  0  0  0  0  0  0
   -2.0459    2.8854   -0.4305 H   0  0  0  0  0  0  0  0  0  0  0  0
   -1.3930    4.0489    1.2805 C   0  0  0  0  0  0  0  0  0  0  0  0
   -1.8695    4.9742    0.9229 H   0  0  0  0  0  0  0  0  0  0  0  0
   -0.7029    4.0281    2.4993 C   0  0  0  0  0  0  0  0  0  0  0  0
   -0.6308    4.9382    3.1138 H   0  0  0  0  0  0  0  0  0  0  0  0
   -0.0983    2.8404    2.9392 C   0  0  0  0  0  0  0  0  0  0  0  0
    0.4428    2.8077    3.8939 H   0  0  0  0  0  0  0  0  0  0  0  0
   -0.1614    1.6645    2.1714 C   0  0  0  0  0  0  0  0  0  0  0  0
    0.5626    0.4158    2.6690 C   0  0  1  0  0  0  0  0  0  0  0  0
   -0.1534   -0.4398    2.6967 H   0  0  0  0  0  0  0  0  0  0  0  0
    2.6915    1.0044    1.4796 C   0  0  0  0  0  0  0  0  0  0  0  0
    2.7267    1.7265    2.3216 H   0  0  0  0  0  0  0  0  0  0  0  0
    3.6496    0.4469    1.4905 H   0  0  0  0  0  0  0  0  0  0  0  0
    2.5688    1.7309    0.1554 C   0  0  0  0  0  0  0  0  0  0  0  0
    2.9607    1.0847   -1.0370 C   0  0  0  0  0  0  0  0  0  0  0  0
    3.3553    0.0584   -0.9872 H   0  0  0  0  0  0  0  0  0  0  0  0
    2.8639    1.7395   -2.2737 C   0  0  0  0  0  0  0  0  0  0  0  0
    3.1749    1.2202   -3.1930 H   0  0  0  0  0  0  0  0  0  0  0  0
    2.3741    3.0553   -2.3374 C   0  0  0  0  0  0  0  0  0  0  0  0
    2.2997    3.5716   -3.3069 H   0  0  0  0  0  0  0  0  0  0  0  0
    1.9847    3.7087   -1.1577 C   0  0  0  0  0  0  0  0  0  0  0  0
    1.5984    4.7384   -1.1968 H   0  0  0  0  0  0  0  0  0  0  0  0
    2.0847    3.0497    0.0784 C   0  0  0  0  0  0  0  0  0  0  0  0
    1.7725    3.5660    0.9986 H   0  0  0  0  0  0  0  0  0  0  0  0
   -2.4667   -0.7226    0.8008 C   0  0  0  0  0  0  0  0  0  0  0  0
   -3.4020   -0.0180    1.5873 C   0  0  0  0  0  0  0  0  0  0  0  0
   -3.2994    1.0691    1.7238 H   0  0  0  0  0  0  0  0  0  0  0  0
   -4.4603   -0.7043    2.2016 C   0  0  0  0  0  0  0  0  0  0  0  0
   -5.1849   -0.1504    2.8180 H   0  0  0  0  0  0  0  0  0  0  0  0
   -4.5929   -2.0919    2.0315 C   0  0  0  0  0  0  0  0  0  0  0  0
   -5.4234   -2.6285    2.5155 H   0  0  0  0  0  0  0  0  0  0  0  0
   -3.6628   -2.7936    1.2476 C   0  0  0  0  0  0  0  0  0  0  0  0
   -3.7614   -3.8816    1.1137 H   0  0  0  0  0  0  0  0  0  0  0  0
   -2.5951   -2.1194    0.6348 C   0  0  0  0  0  0  0  0  0  0  0  0
   -1.8644   -2.6750    0.0214 H   0  0  0  0  0  0  0  0  0  0  0  0
   -1.7500    0.6954   -1.6431 C   0  0  0  0  0  0  0  0  0  0  0  0
   -0.8788    1.3972   -2.5052 C   0  0  0  0  0  0  0  0  0  0  0  0
    0.1498    1.6205   -2.1831 H   0  0  0  0  0  0  0  0  0  0  0  0
   -1.3235    1.8104   -3.7677 C   0  0  0  0  0  0  0  0  0  0  0  0
   -0.6397    2.3637   -4.4296 H   0  0  0  0  0  0  0  0  0  0  0  0
   -2.6302    1.5087   -4.1897 C   0  0  0  0  0  0  0  0  0  0  0  0
   -2.9752    1.8240   -5.1862 H   0  0  0  0  0  0  0  0  0  0  0  0
   -3.4920    0.7985   -3.3398 C   0  0  0  0  0  0  0  0  0  0  0  0
   -4.5141    0.5557   -3.6682 H   0  0  0  0  0  0  0  0  0  0  0  0
   -3.0584    0.3944   -2.0664 C   0  0  0  0  0  0  0  0  0  0  0  0
   -3.7364   -0.1602   -1.4008 H   0  0  0  0  0  0  0  0  0  0  0  0
  1  2  1  0  0  0  0
  1 16  1  0  0  0  0
  3  4  1  0  0  0  0
  5 32  1  0  0  0  0
  5  6  1  0  0  0  0
  6 15  1  0  0  0  0
  7  6  2  0  0  0  0
  7  9  1  0  0  0  0
  8  7  1  0  0  0  0
  9 11  2  0  0  0  0
 10  9  1  0  0  0  0
 11 13  1  0  0  0  0
 11 12  1  0  0  0  0
 13 14  1  0  0  0  0
 15 16  1  0  0  0  0
 15 13  2  0  0  0  0
 16 17  1  1  0  0  0
 16  3  1  0  0  0  0
 18 20  1  0  0  0  0
 18  1  1  0  0  0  0
 18 19  1  0  0  0  0
 21 18  1  0  0  0  0
 22 23  1  0  0  0  0
 22 21  2  0  0  0  0
 24 22  1  0  0  0  0
 25 24  1  0  0  0  0
 26 24  2  0  0  0  0
 26 28  1  0  0  0  0
 27 26  1  0  0  0  0
 28 30  2  0  0  0  0
 29 28  1  0  0  0  0
 30 21  1  0  0  0  0
 30 31  1  0  0  0  0
 32 33  1  0  0  0  0
 33 34  1  0  0  0  0
 33 35  2  0  0  0  0
 35 36  1  0  0  0  0
 37 35  1  0  0  0  0
 37 38  1  0  0  0  0
 39 37  2  0  0  0  0
 40 39  1  0  0  0  0
 41 32  2  0  0  0  0
 41 39  1  0  0  0  0
 42 41  1  0  0  0  0
 43  5  1  0  0  0  0
 44 45  1  0  0  0  0
 44 43  2  0  0  0  0
 46 44  1  0  0  0  0
 47 46  1  0  0  0  0
 48 46  2  0  0  0  0
 48 50  1  0  0  0  0
 49 48  1  0  0  0  0
 50 52  2  0  0  0  0
 51 50  1  0  0  0  0
 52 43  1  0  0  0  0
 52 53  1  0  0  0  0
M  END
