5
q = 0.0, confidence = 0.998

 58 60  0  0  1  0  0  0  0  0999 V2000
    0.2382   -0.1417    0.0369 P   0  0  2  0  0  0  0  0  0  0  0  0
   -1.6893   -1.3851    1.2612 P   0  0  1  0  0  0  0  0  0  0  0  0
   -1.1185   -1.0738   -0.3831 N   0  0  0  0  0  0  0  0  0  0  0  0
   -0.4173   -0.1889    1.6018 N   0  0  0  0  0  0  0  0  0  0  0  0
    2.9465    1.3700   -0.5290 N   0  0  0  0  0  2  0  0  0  0  0  0
   -4.6932    2.0894   -0.5724 N   0  0  0  0  0  0  0  0  0  0  0  0
   -0.0634    1.4281   -0.4936 O   0  0  0  0  0  0  0  0  0  0  0  0
   -3.1034   -0.5008    1.4060 O   0  0  0  0  0  0  0  0  0  0  0  0
   -1.5296   -1.7508   -1.6357 C   0  0  0  0  0  0  0  0  0  0  0  0
   -0.4736   -1.4868   -2.7188 C   0  0  0  0  0  0  0  0  0  0  0  0
   -0.3793   -0.4005   -2.9259 H   0  0  0  0  0  0  0  0  0  0  0  0
   -0.7796   -1.9760   -3.6641 H   0  0  0  0  0  0  0  0  0  0  0  0
    0.5142   -1.8892   -2.4193 H   0  0  0  0  0  0  0  0  0  0  0  0
   -2.8895   -1.1732   -2.0707 C   0  0  0  0  0  0  0  0  0  0  0  0
   -3.6603   -1.3480   -1.2945 H   0  0  0  0  0  0  0  0  0  0  0  0
   -3.2338   -1.6513   -3.0097 H   0  0  0  0  0  0  0  0  0  0  0  0
   -2.8192   -0.0794   -2.2361 H   0  0  0  0  0  0  0  0  0  0  0  0
   -1.6425   -3.2639   -1.3809 C   0  0  0  0  0  0  0  0  0  0  0  0
   -0.6672   -3.6633   -1.0423 H   0  0  0  0  0  0  0  0  0  0  0  0
   -1.9525   -3.7879   -2.3069 H   0  0  0  0  0  0  0  0  0  0  0  0
   -2.4020   -3.4793   -0.6009 H   0  0  0  0  0  0  0  0  0  0  0  0
    0.2433    0.0413    2.9075 C   0  0  0  0  0  0  0  0  0  0  0  0
    1.0170   -1.2111    3.3550 C   0  0  0  0  0  0  0  0  0  0  0  0
    0.3256   -2.0685    3.4840 H   0  0  0  0  0  0  0  0  0  0  0  0
    1.5305   -1.0326    4.3213 H   0  0  0  0  0  0  0  0  0  0  0  0
    1.7684   -1.5036    2.5949 H   0  0  0  0  0  0  0  0  0  0  0  0
    1.1961    1.2378    2.7557 C   0  0  0  0  0  0  0  0  0  0  0  0
    2.0339    0.9899    2.0725 H   0  0  0  0  0  0  0  0  0  0  0  0
    1.6321    1.5022    3.7390 H   0  0  0  0  0  0  0  0  0  0  0  0
    0.6613    2.1201    2.3520 H   0  0  0  0  0  0  0  0  0  0  0  0
   -0.8653    0.3827    3.9184 C   0  0  0  0  0  0  0  0  0  0  0  0
   -1.4077    1.2997    3.6136 H   0  0  0  0  0  0  0  0  0  0  0  0
   -0.4302    0.5468    4.9241 H   0  0  0  0  0  0  0  0  0  0  0  0
   -1.6017   -0.4429    3.9998 H   0  0  0  0  0  0  0  0  0  0  0  0
    0.7811    1.9630   -1.5183 C   0  0  0  0  0  0  0  0  0  0  0  0
    0.2581    2.8522   -1.9178 H   0  0  0  0  0  0  0  0  0  0  0  0
    0.9142    1.2334   -2.3497 H   0  0  0  0  0  0  0  0  0  0  0  0
    2.1361    2.3581   -0.9883 C   0  0  1  0  0  3  0  0  0  0  0  0
    2.5411    3.7009   -0.9601 C   0  0  0  0  0  0  0  0  0  0  0  0
    1.8562    4.4723   -1.3408 H   0  0  0  0  0  0  0  0  0  0  0  0
    3.8006    4.0381   -0.4485 C   0  0  0  0  0  0  0  0  0  0  0  0
    4.1299    5.0874   -0.4172 H   0  0  0  0  0  0  0  0  0  0  0  0
    4.6247    3.0090    0.0219 C   0  0  0  0  0  0  0  0  0  0  0  0
    5.6242    3.2118    0.4317 H   0  0  0  0  0  0  0  0  0  0  0  0
    4.1678    1.6882   -0.0353 C   0  0  0  0  0  0  0  0  0  0  0  0
    4.7862    0.8293    0.2691 H   0  0  0  0  0  0  0  0  0  0  0  0
   -3.2574    0.8270    0.8996 C   0  0  0  0  0  0  0  0  0  0  0  0
   -2.4452    1.1040    0.1953 H   0  0  0  0  0  0  0  0  0  0  0  0
   -3.2001    1.5423    1.7511 H   0  0  0  0  0  0  0  0  0  0  0  0
   -4.5864    0.9910    0.1982 C   0  0  0  0  0  0  0  0  0  0  0  0
   -5.6308    0.0609    0.3567 C   0  0  0  0  0  0  0  0  0  0  0  0
   -5.4775   -0.8186    0.9972 H   0  0  0  0  0  0  0  0  0  0  0  0
   -6.8353    0.2876   -0.3227 C   0  0  0  0  0  0  0  0  0  0  0  0
   -7.6723   -0.4211   -0.2254 H   0  0  0  0  0  0  0  0  0  0  0  0
   -6.9548    1.4299   -1.1274 C   0  0  0  0  0  0  0  0  0  0  0  0
   -7.8801    1.6467   -1.6816 H   0  0  0  0  0  0  0  0  0  0  0  0
   -5.8533    2.2974   -1.2123 C   0  0  0  0  0  0  0  0  0  0  0  0
   -5.9107    3.2069   -1.8376 H   0  0  0  0  0  0  0  0  0  0  0  0
  1  7  1  6  0  0  0
  1  4  1  0  0  0  0
  2  8  1  6  0  0  0
  2  4  1  0  0  0  0
  3  1  1  0  0  0  0
  3  2  1  0  0  0  0
  4 22  1  0  0  0  0
  5 45  1  0  0  0  0
  6 50  1  0  0  0  0
  9 18  1  0  0  0  0
  9  3  1  0  0  0  0
 10 13  1  0  0  0  0
 10  9  1  0  0  0  0
 11 10  1  0  0  0  0
 12 10  1  0  0  0  0
 14  9  1  0  0  0  0
 14 15  1  0  0  0  0
 16 14  1  0  0  0  0
 17 14  1  0  0  0  0
 18 19  1  0  0  0  0
 18 21  1  0  0  0  0
 20 18  1  0  0  0  0
 22 23  1  0  0  0  0
 22 31  1  0  0  0  0
 23 24  1  0  0  0  0
 23 25  1  0  0  0  0
 26 23  1  0  0  0  0
 27 22  1  0  0  0  0
 27 29  1  0  0  0  0
 28 27  1  0  0  0  0
 30 27  1  0  0  0  0
 31 34  1  0  0  0  0
 31 33  1  0  0  0  0
 32 31  1  0  0  0  0
 35  7  1  0  0  0  0
 36 35  1  0  0  0  0
 37 35  1  0  0  0  0
 38 35  1  1  0  0  0
 38 39  1  0  0  0  0
 38  5  1  0  0  0  0
 39 41  2  0  0  0  0
 40 39  1  0  0  0  0
 41 42  1  0  0  0  0
 41 43  1  0  0  0  0
 43 44  1  0  0  0  0
 45 43  2  0  0  0  0
 45 46  1  0  0  0  0
 47  8  1  0  0  0  0
 47 49  1  0  0  0  0
 48 47  1  0  0  0  0
 50 51  2  0  0  0  0
 50 47  1  0  0  0  0
 51 52  1  0  0  0  0
 53 54  1  0  0  0  0
 53 51  1  0  0  0  0
 55 53  2  0  0  0  0
 56 55  1  0  0  0  0
 57 55  1  0  0  0  0
 57  6  2  0  0  0  0
 58 57  1  0  0  0  0
M  END
