1,13
q = 0.0, confidence = 1.0

 53 56  0  0  1  0  0  0  0  0999 V2000
   -1.1987    1.0446    0.5122 P   0  0  0  0  0  0  0  0  0  0  0  0
    1.1304    1.3837    1.7783 C   0  0  0  0  0  0  0  0  0  0  0  0
    1.4120    1.8824    0.8334 H   0  0  0  0  0  0  0  0  0  0  0  0
    1.7686    1.7991    2.5910 H   0  0  0  0  0  0  0  0  0  0  0  0
   -0.3519    1.4642    2.1314 C   0  0  2  0  0  0  0  0  0  0  0  0
   -0.6603    2.4553    2.5173 H   0  0  0  0  0  0  0  0  0  0  0  0
   -0.5134    0.2904    3.1521 C   0  0  0  0  0  0  0  0  0  0  0  0
   -0.6020    0.6811    4.1851 H   0  0  0  0  0  0  0  0  0  0  0  0
   -1.4163   -0.3184    2.9490 H   0  0  0  0  0  0  0  0  0  0  0  0
    0.7760   -0.5525    2.9848 C   0  0  0  0  0  0  0  0  0  0  0  0
    1.5087   -0.3241    3.7944 H   0  0  0  0  0  0  0  0  0  0  0  0
    0.6110   -1.6461    2.9487 H   0  0  0  0  0  0  0  0  0  0  0  0
    1.3330   -0.0837    1.6887 N   0  0  0  0  0  0  0  0  0  0  0  0
    2.7494   -0.4653    1.4382 C   0  0  0  0  0  0  0  0  0  0  0  0
    2.7715   -1.5716    1.3763 H   0  0  0  0  0  0  0  0  0  0  0  0
    3.3588   -0.1336    2.3077 H   0  0  0  0  0  0  0  0  0  0  0  0
    3.0429   -0.4609   -1.0820 C   0  0  0  0  0  0  0  0  0  0  0  0
    2.5094   -1.4247   -1.0999 H   0  0  0  0  0  0  0  0  0  0  0  0
    3.4670    0.1345   -2.2812 C   0  0  0  0  0  0  0  0  0  0  0  0
    3.2671   -0.3638   -3.2408 H   0  0  0  0  0  0  0  0  0  0  0  0
    4.1459    1.3590   -2.2385 C   0  0  0  0  0  0  0  0  0  0  0  0
    4.4867    1.8390   -3.1690 H   0  0  0  0  0  0  0  0  0  0  0  0
    4.4112    1.9850   -1.0093 C   0  0  0  0  0  0  0  0  0  0  0  0
    4.9504    2.9412   -0.9943 H   0  0  0  0  0  0  0  0  0  0  0  0
    3.9809    1.3836    0.1898 C   0  0  0  0  0  0  0  0  0  0  0  0
    3.2775    0.1490    0.1624 C   0  0  0  0  0  0  0  0  0  0  0  0
    4.1864    1.9326    1.4261 O   0  0  0  0  0  0  0  0  0  0  0  0
    4.8974    3.1525    1.5181 C   0  0  0  0  0  0  0  0  0  0  0  0
    4.9592    3.3983    2.5945 H   0  0  0  0  0  0  0  0  0  0  0  0
    4.3737    3.9790    0.9871 H   0  0  0  0  0  0  0  0  0  0  0  0
    5.9279    3.0627    1.1083 H   0  0  0  0  0  0  0  0  0  0  0  0
   -1.3715    3.6785   -0.5336 C   0  0  0  0  0  0  0  0  0  0  0  0
   -2.1941    3.8401    0.1805 H   0  0  0  0  0  0  0  0  0  0  0  0
   -0.9427    4.7244   -1.3634 C   0  0  0  0  0  0  0  0  0  0  0  0
   -1.4277    5.7102   -1.2948 H   0  0  0  0  0  0  0  0  0  0  0  0
    0.1003    4.5146   -2.2822 C   0  0  0  0  0  0  0  0  0  0  0  0
    0.4324    5.3389   -2.9318 H   0  0  0  0  0  0  0  0  0  0  0  0
    0.7108    3.2543   -2.3788 C   0  0  0  0  0  0  0  0  0  0  0  0
    1.5246    3.0797   -3.0982 H   0  0  0  0  0  0  0  0  0  0  0  0
    0.2808    2.2009   -1.5582 C   0  0  0  0  0  0  0  0  0  0  0  0
    0.7451    1.2043   -1.6374 H   0  0  0  0  0  0  0  0  0  0  0  0
   -0.7536    2.4139   -0.6239 C   0  0  0  0  0  0  0  0  0  0  0  0
   -3.8613    1.1489   -0.3210 C   0  0  0  0  0  0  0  0  0  0  0  0
   -3.4476    0.9311   -1.3168 H   0  0  0  0  0  0  0  0  0  0  0  0
   -5.2423    1.3089   -0.1488 C   0  0  0  0  0  0  0  0  0  0  0  0
   -5.9096    1.2276   -1.0200 H   0  0  0  0  0  0  0  0  0  0  0  0
   -5.7737    1.5640    1.1260 C   0  0  0  0  0  0  0  0  0  0  0  0
   -6.8595    1.6853    1.2577 H   0  0  0  0  0  0  0  0  0  0  0  0
   -4.9164    1.6645    2.2321 C   0  0  0  0  0  0  0  0  0  0  0  0
   -5.3253    1.8678    3.2333 H   0  0  0  0  0  0  0  0  0  0  0  0
   -3.5314    1.5075    2.0680 C   0  0  0  0  0  0  0  0  0  0  0  0
   -2.8771    1.5952    2.9466 H   0  0  0  0  0  0  0  0  0  0  0  0
   -2.9935    1.2468    0.7899 C   0  0  0  0  0  0  0  0  0  0  0  0
  1 53  1  0  0  0  0
  1  5  1  0  0  0  0
  2  5  1  0  0  0  0
  2  4  1  0  0  0  0
  3  2  1  0  0  0  0
  5  6  1  1  0  0  0
  5  7  1  0  0  0  0
  7  8  1  0  0  0  0
  9  7  1  0  0  0  0
 10  7  1  0  0  0  0
 10 11  1  0  0  0  0
 12 10  1  0  0  0  0
 13  2  1  0  0  0  0
 13 10  1  0  0  0  0
 14 13  1  0  0  0  0
 14 16  1  0  0  0  0
 15 14  1  0  0  0  0
 17 26  1  0  0  0  0
 18 17  1  0  0  0  0
 19 21  1  0  0  0  0
 19 17  2  0  0  0  0
 20 19  1  0  0  0  0
 21 23  2  0  0  0  0
 22 21  1  0  0  0  0
 23 24  1  0  0  0  0
 23 25  1  0  0  0  0
 25 27  1  0  0  0  0
 26 25  2  0  0  0  0
 26 14  1  0  0  0  0
 27 28  1  0  0  0  0
 28 29  1  0  0  0  0
 30 28  1  0  0  0  0
 31 28  1  0  0  0  0
 32 33  1  0  0  0  0
 34 35  1  0  0  0  0
 34 32  2  0  0  0  0
 36 34  1  0  0  0  0
 37 36  1  0  0  0  0
 38 36  2  0  0  0  0
 38 40  1  0  0  0  0
 39 38  1  0  0  0  0
 40 42  2  0  0  0  0
 41 40  1  0  0  0  0
 42 32  1  0  0  0  0
 42  1  1  0  0  0  0
 43 45  2  0  0  0  0
 43 53  1  0  0  0  0
 44 43  1  0  0  0  0
 45 47  1  0  0  0  0
 46 45  1  0  0  0  0
 47 48  1  0  0  0  0
 47 49  2  0  0  0  0
 49 50  1  0  0  0  0
 51 49  1  0  0  0  0
 51 52  1  0  0  0  0
 53 51  2  0  0  0  0
M  END
