1,13
q = 0.0, confidence = 1.0

 49 52  0  0  1  0  0  0  0  0999 V2000
    1.1633    1.1242    0.2678 P   0  0  0  0  0  0  0  0  0  0  0  0
   -1.9210    0.4519    1.7921 C   0  0  0  0  0  0  0  0  0  0  0  0
   -1.9034   -0.6124    2.0936 H   0  0  0  0  0  0  0  0  0  0  0  0
   -2.8888    0.8985    2.1093 H   0  0  0  0  0  0  0  0  0  0  0  0
   -0.7400    1.2984    2.3247 C   0  0  0  0  0  0  0  0  0  0  0  0
   -1.0827    2.0025    3.1075 H   0  0  0  0  0  0  0  0  0  0  0  0
    0.0532    0.6735    2.7797 H   0  0  0  0  0  0  0  0  0  0  0  0
   -0.2228    2.0820    1.0845 C   0  0  2  0  0  0  0  0  0  0  0  0
    0.0625    3.1249    1.3192 H   0  0  0  0  0  0  0  0  0  0  0  0
   -1.3870    1.9562    0.1011 C   0  0  0  0  0  0  0  0  0  0  0  0
   -2.2175    2.6450    0.3793 H   0  0  0  0  0  0  0  0  0  0  0  0
   -1.1220    2.1331   -0.9601 H   0  0  0  0  0  0  0  0  0  0  0  0
   -1.8014    0.5461    0.3086 N   0  0  0  0  0  0  0  0  0  0  0  0
   -3.0145    0.1549   -0.4683 C   0  0  0  0  0  0  0  0  0  0  0  0
   -2.7448    0.2641   -1.5373 H   0  0  0  0  0  0  0  0  0  0  0  0
   -3.1637   -0.9285   -0.2872 H   0  0  0  0  0  0  0  0  0  0  0  0
   -4.5720    2.1371   -0.8304 C   0  0  0  0  0  0  0  0  0  0  0  0
   -3.9057    2.4850   -1.6362 H   0  0  0  0  0  0  0  0  0  0  0  0
   -5.7243    2.8723   -0.5142 C   0  0  0  0  0  0  0  0  0  0  0  0
   -5.9523    3.7980   -1.0644 H   0  0  0  0  0  0  0  0  0  0  0  0
   -6.5904    2.4217    0.4945 C   0  0  0  0  0  0  0  0  0  0  0  0
   -7.4963    2.9956    0.7419 H   0  0  0  0  0  0  0  0  0  0  0  0
   -6.3044    1.2275    1.1753 C   0  0  0  0  0  0  0  0  0  0  0  0
   -6.9887    0.8593    1.9547 H   0  0  0  0  0  0  0  0  0  0  0  0
   -5.1522    0.4943    0.8551 C   0  0  0  0  0  0  0  0  0  0  0  0
   -4.9411   -0.4538    1.3748 H   0  0  0  0  0  0  0  0  0  0  0  0
   -4.2634    0.9435   -0.1446 C   0  0  0  0  0  0  0  0  0  0  0  0
    1.5617    3.5837   -1.1235 C   0  0  0  0  0  0  0  0  0  0  0  0
    1.0791    4.0924   -0.2758 H   0  0  0  0  0  0  0  0  0  0  0  0
    2.0125    4.3474   -2.2113 C   0  0  0  0  0  0  0  0  0  0  0  0
    1.8769    5.4396   -2.2038 H   0  0  0  0  0  0  0  0  0  0  0  0
    2.6337    3.7205   -3.3027 C   0  0  0  0  0  0  0  0  0  0  0  0
    2.9860    4.3214   -4.1548 H   0  0  0  0  0  0  0  0  0  0  0  0
    2.7985    2.3259   -3.3071 C   0  0  0  0  0  0  0  0  0  0  0  0
    3.2792    1.8283   -4.1628 H   0  0  0  0  0  0  0  0  0  0  0  0
    2.3444    1.5555   -2.2275 C   0  0  0  0  0  0  0  0  0  0  0  0
    2.4617    0.4592   -2.2299 H   0  0  0  0  0  0  0  0  0  0  0  0
    1.7277    2.1814   -1.1230 C   0  0  0  0  0  0  0  0  0  0  0  0
    2.6710    0.0080    2.3480 C   0  0  0  0  0  0  0  0  0  0  0  0
    2.0160   -0.8675    2.2178 H   0  0  0  0  0  0  0  0  0  0  0  0
    3.6628    0.0152    3.3397 C   0  0  0  0  0  0  0  0  0  0  0  0
    3.7683   -0.8518    4.0089 H   0  0  0  0  0  0  0  0  0  0  0  0
    4.5290    1.1131    3.4629 C   0  0  0  0  0  0  0  0  0  0  0  0
    5.3132    1.1118    4.2351 H   0  0  0  0  0  0  0  0  0  0  0  0
    4.4047    2.2073    2.5913 C   0  0  0  0  0  0  0  0  0  0  0  0
    5.0911    3.0633    2.6772 H   0  0  0  0  0  0  0  0  0  0  0  0
    3.4111    2.2102    1.6013 C   0  0  0  0  0  0  0  0  0  0  0  0
    3.3266    3.0634    0.9111 H   0  0  0  0  0  0  0  0  0  0  0  0
    2.5340    1.1129    1.4821 C   0  0  0  0  0  0  0  0  0  0  0  0
  1  8  1  0  0  0  0
  1 49  1  0  0  0  0
  2  3  1  0  0  0  0
  2  4  1  0  0  0  0
  2  5  1  0  0  0  0
  5  7  1  0  0  0  0
  5  6  1  0  0  0  0
  8  9  1  1  0  0  0
  8  5  1  0  0  0  0
 10 13  1  0  0  0  0
 10 11  1  0  0  0  0
 10  8  1  0  0  0  0
 12 10  1  0  0  0  0
 13  2  1  0  0  0  0
 14 16  1  0  0  0  0
 14 27  1  0  0  0  0
 14 13  1  0  0  0  0
 15 14  1  0  0  0  0
 17 19  2  0  0  0  0
 17 27  1  0  0  0  0
 18 17  1  0  0  0  0
 19 21  1  0  0  0  0
 20 19  1  0  0  0  0
 21 22  1  0  0  0  0
 21 23  2  0  0  0  0
 23 24  1  0  0  0  0
 25 23  1  0  0  0  0
 25 26  1  0  0  0  0
 27 25  2  0  0  0  0
 28 38  1  0  0  0  0
 28 29  1  0  0  0  0
 30 31  1  0  0  0  0
 30 28  2  0  0  0  0
 32 30  1  0  0  0  0
 33 32  1  0  0  0  0
 34 32  2  0  0  0  0
 34 36  1  0  0  0  0
 35 34  1  0  0  0  0
 36 38  2  0  0  0  0
 37 36  1  0  0  0  0
 38  1  1  0  0  0  0
 39 41  1  0  0  0  0
 40 39  1  0  0  0  0
 41 43  2  0  0  0  0
 41 42  1  0  0  0  0
 43 44  1  0  0  0  0
 45 46  1  0  0  0  0
 45 43  1  0  0  0  0
 47 45  2  0  0  0  0
 48 47  1  0  0  0  0
 49 47  1  0  0  0  0
 49 39  2  0  0  0  0
M  END
