1,2
q = 0.0, confidence = 0.994

 57 60  0  0  0  0  0  0  0  0999 V2000
   -1.2515   -0.0039    0.0535 P   0  0  0  0  0  0  0  0  0  0  0  0
    1.7115    0.6638   -0.2735 N   0  0  0  0  0  2  0  0  0  0  0  0
    1.3066    1.8998   -0.1861 C   0  0  0  0  0  3  0  0  0  0  0  0
    2.0873    2.6423    0.0793 H   0  0  0  0  0  0  0  0  0  0  0  0
   -0.0229    2.4771   -0.3828 C   0  0  0  0  0  0  0  0  0  0  0  0
   -1.2121    1.8092   -0.2491 C   0  0  0  0  0  0  0  0  0  0  0  0
   -2.5478    2.5127   -0.3352 C   0  0  0  0  0  0  0  0  0  0  0  0
   -3.2328    2.0923    0.4318 H   0  0  0  0  0  0  0  0  0  0  0  0
   -3.0229    2.2334   -1.3032 H   0  0  0  0  0  0  0  0  0  0  0  0
   -2.4476    4.0342   -0.2070 C   0  0  0  0  0  0  0  0  0  0  0  0
   -3.4181    4.4981   -0.4753 H   0  0  0  0  0  0  0  0  0  0  0  0
   -2.2493    4.3062    0.8537 H   0  0  0  0  0  0  0  0  0  0  0  0
   -1.3161    4.5648   -1.0874 C   0  0  0  0  0  0  0  0  0  0  0  0
   -1.2693    5.6721   -1.0609 H   0  0  0  0  0  0  0  0  0  0  0  0
   -1.5114    4.2810   -2.1446 H   0  0  0  0  0  0  0  0  0  0  0  0
    0.0218    3.9765   -0.6400 C   0  0  0  0  0  0  0  0  0  0  0  0
    0.3702    4.4792    0.2920 H   0  0  0  0  0  0  0  0  0  0  0  0
    0.8119    4.1844   -1.3937 H   0  0  0  0  0  0  0  0  0  0  0  0
    3.0991    0.4501    0.0681 C   0  0  0  0  0  0  0  0  0  0  0  0
    4.0965    0.7515   -0.8874 C   0  0  0  0  0  0  0  0  0  0  0  0
    5.4368    0.5686   -0.5023 C   0  0  0  0  0  0  0  0  0  0  0  0
    6.2308    0.7846   -1.2338 H   0  0  0  0  0  0  0  0  0  0  0  0
    5.7667    0.0982    0.7753 C   0  0  0  0  0  0  0  0  0  0  0  0
    6.8218   -0.0418    1.0544 H   0  0  0  0  0  0  0  0  0  0  0  0
    4.7534   -0.2088    1.6924 C   0  0  0  0  0  0  0  0  0  0  0  0
    5.0092   -0.5919    2.6925 H   0  0  0  0  0  0  0  0  0  0  0  0
    3.3967   -0.0452    1.3583 C   0  0  0  0  0  0  0  0  0  0  0  0
    3.7280    1.1617   -2.2880 C   0  0  0  0  0  0  0  0  0  0  0  0
    3.1307    0.3465   -2.7503 H   0  0  0  0  0  0  0  0  0  0  0  0
    4.6330    1.3294   -2.9014 H   0  0  0  0  0  0  0  0  0  0  0  0
    3.1168    2.0872   -2.3235 H   0  0  0  0  0  0  0  0  0  0  0  0
    2.3008   -0.4144    2.3223 C   0  0  0  0  0  0  0  0  0  0  0  0
    1.5836    0.4152    2.4931 H   0  0  0  0  0  0  0  0  0  0  0  0
    2.7175   -0.7154    3.3017 H   0  0  0  0  0  0  0  0  0  0  0  0
    1.7018   -1.2642    1.9251 H   0  0  0  0  0  0  0  0  0  0  0  0
   -1.5197   -0.1750    1.8589 C   0  0  0  0  0  0  0  0  0  0  0  0
   -1.6379   -1.4838    2.3764 C   0  0  0  0  0  0  0  0  0  0  0  0
   -1.5975   -2.3425    1.6850 H   0  0  0  0  0  0  0  0  0  0  0  0
   -1.7716   -1.6725    3.7583 C   0  0  0  0  0  0  0  0  0  0  0  0
   -1.8613   -2.6931    4.1600 H   0  0  0  0  0  0  0  0  0  0  0  0
   -1.7753   -0.5687    4.6289 C   0  0  0  0  0  0  0  0  0  0  0  0
   -1.8736   -0.7234    5.7141 H   0  0  0  0  0  0  0  0  0  0  0  0
   -1.6436    0.7304    4.1150 C   0  0  0  0  0  0  0  0  0  0  0  0
   -1.6383    1.5961    4.7947 H   0  0  0  0  0  0  0  0  0  0  0  0
   -1.5146    0.9309    2.7313 C   0  0  0  0  0  0  0  0  0  0  0  0
   -1.3978    1.9499    2.3316 H   0  0  0  0  0  0  0  0  0  0  0  0
   -2.8219   -0.5055   -0.7466 C   0  0  0  0  0  0  0  0  0  0  0  0
   -4.0255   -0.6074   -0.0247 C   0  0  0  0  0  0  0  0  0  0  0  0
   -4.0307   -0.4494    1.0643 H   0  0  0  0  0  0  0  0  0  0  0  0
   -5.2171   -0.9253   -0.6959 C   0  0  0  0  0  0  0  0  0  0  0  0
   -6.1556   -1.0129   -0.1278 H   0  0  0  0  0  0  0  0  0  0  0  0
   -5.2099   -1.1349   -2.0831 C   0  0  0  0  0  0  0  0  0  0  0  0
   -6.1447   -1.3870   -2.6065 H   0  0  0  0  0  0  0  0  0  0  0  0
   -4.0063   -1.0374   -2.8025 C   0  0  0  0  0  0  0  0  0  0  0  0
   -3.9945   -1.2199   -3.8875 H   0  0  0  0  0  0  0  0  0  0  0  0
   -2.8118   -0.7318   -2.1382 C   0  0  0  0  0  0  0  0  0  0  0  0
   -1.8600   -0.6926   -2.6898 H   0  0  0  0  0  0  0  0  0  0  0  0
  1 36  1  0  0  0  0
  2  3  1  0  0  0  0
  2 19  1  0  0  0  0
  3  4  1  0  0  0  0
  5  6  2  0  0  0  0
  5  3  1  0  0  0  0
  6  1  1  0  0  0  0
  7  6  1  0  0  0  0
  7 10  1  0  0  0  0
  7  8  1  0  0  0  0
  9  7  1  0  0  0  0
 10 12  1  0  0  0  0
 11 10  1  0  0  0  0
 13 14  1  0  0  0  0
 13 16  1  0  0  0  0
 13 10  1  0  0  0  0
 15 13  1  0  0  0  0
 16  5  1  0  0  0  0
 16 17  1  0  0  0  0
 18 16  1  0  0  0  0
 19 27  1  0  0  0  0
 20 21  1  0  0  0  0
 20 19  2  0  0  0  0
 21 23  2  0  0  0  0
 22 21  1  0  0  0  0
 23 24  1  0  0  0  0
 23 25  1  0  0  0  0
 25 26  1  0  0  0  0
 27 25  2  0  0  0  0
 27 32  1  0  0  0  0
 28 20  1  0  0  0  0
 29 28  1  0  0  0  0
 30 28  1  0  0  0  0
 31 28  1  0  0  0  0
 32 33  1  0  0  0  0
 32 34  1  0  0  0  0
 35 32  1  0  0  0  0
 36 37  2  0  0  0  0
 36 45  1  0  0  0  0
 37 39  1  0  0  0  0
 38 37  1  0  0  0  0
 39 40  1  0  0  0  0
 39 41  2  0  0  0  0
 41 42  1  0  0  0  0
 43 41  1  0  0  0  0
 43 44  1  0  0  0  0
 45 43  2  0  0  0  0
 46 45  1  0  0  0  0
 47 48  1  0  0  0  0
 47  1  1  0  0  0  0
 48 49  1  0  0  0  0
 50 51  1  0  0  0  0
 50 48  2  0  0  0  0
 52 50  1  0  0  0  0
 53 52  1  0  0  0  0
 54 56  1  0  0  0  0
 54 52  2  0  0  0  0
 55 54  1  0  0  0  0
 56 47  2  0  0  0  0
 57 56  1  0  0  0  0
M  END
