1,3
q = -1.0

 70 71  0  0  0  0  0  0  0  0999 V2000
    1.5370    1.4333    0.2097 P   0  0  0  0  0  0  0  0  0  0  0  0
    0.0197    2.1736    0.3006 N   0  0  0  0  0  0  0  0  0  0  0  0
   -0.6698   -0.0658    0.2493 N   0  0  0  0  0  2  0  0  0  0  0  0
   -0.9571    1.2641    0.3063 C   0  0  0  0  0  0  0  0  0  0  0  0
    2.4091    1.8390    1.8423 C   0  0  0  0  0  0  0  0  0  0  0  0
    1.4536    1.2945    2.9231 C   0  0  0  0  0  0  0  0  0  0  0  0
    0.4514    1.7606    2.8514 H   0  0  0  0  0  0  0  0  0  0  0  0
    1.3391    0.1963    2.8381 H   0  0  0  0  0  0  0  0  0  0  0  0
    1.8753    1.5215    3.9248 H   0  0  0  0  0  0  0  0  0  0  0  0
    3.7591    1.1090    1.9385 C   0  0  0  0  0  0  0  0  0  0  0  0
    4.5283    1.5726    1.2931 H   0  0  0  0  0  0  0  0  0  0  0  0
    4.1249    1.1670    2.9857 H   0  0  0  0  0  0  0  0  0  0  0  0
    3.6685    0.0430    1.6460 H   0  0  0  0  0  0  0  0  0  0  0  0
    2.5628    3.3580    2.0132 C   0  0  0  0  0  0  0  0  0  0  0  0
    1.6017    3.8814    1.8394 H   0  0  0  0  0  0  0  0  0  0  0  0
    2.8940    3.5753    3.0513 H   0  0  0  0  0  0  0  0  0  0  0  0
    3.3267    3.7772    1.3300 H   0  0  0  0  0  0  0  0  0  0  0  0
    2.3646    2.1346   -1.3395 C   0  0  0  0  0  0  0  0  0  0  0  0
    1.5842    1.4977   -2.5062 C   0  0  0  0  0  0  0  0  0  0  0  0
    0.5029    1.7341   -2.4474 H   0  0  0  0  0  0  0  0  0  0  0  0
    1.9734    1.8930   -3.4682 H   0  0  0  0  0  0  0  0  0  0  0  0
    1.7018    0.3961   -2.5040 H   0  0  0  0  0  0  0  0  0  0  0  0
    3.8340    1.6940   -1.4003 C   0  0  0  0  0  0  0  0  0  0  0  0
    3.9230    0.6110   -1.1751 H   0  0  0  0  0  0  0  0  0  0  0  0
    4.2329    1.8839   -2.4194 H   0  0  0  0  0  0  0  0  0  0  0  0
    4.4635    2.2612   -0.6875 H   0  0  0  0  0  0  0  0  0  0  0  0
    2.2076    3.6625   -1.3986 C   0  0  0  0  0  0  0  0  0  0  0  0
    1.1498    3.9593   -1.2586 H   0  0  0  0  0  0  0  0  0  0  0  0
    2.8164    4.1772   -0.6323 H   0  0  0  0  0  0  0  0  0  0  0  0
    2.5474    4.0221   -2.3933 H   0  0  0  0  0  0  0  0  0  0  0  0
   -2.3615    1.7606    0.3692 C   0  0  0  0  0  0  0  0  0  0  0  0
   -3.4054    1.0391    0.9880 C   0  0  0  0  0  0  0  0  0  0  0  0
   -3.1991    0.0750    1.4696 H   0  0  0  0  0  0  0  0  0  0  0  0
   -4.7111    1.5501    1.0013 C   0  0  0  0  0  0  0  0  0  0  0  0
   -5.5126    0.9768    1.4914 H   0  0  0  0  0  0  0  0  0  0  0  0
   -4.9967    2.7835    0.3950 C   0  0  0  0  0  0  0  0  0  0  0  0
   -6.0247    3.1769    0.3985 H   0  0  0  0  0  0  0  0  0  0  0  0
   -3.9604    3.5172   -0.2072 C   0  0  0  0  0  0  0  0  0  0  0  0
   -4.1739    4.4899   -0.6763 H   0  0  0  0  0  0  0  0  0  0  0  0
   -2.6536    3.0155   -0.2104 C   0  0  0  0  0  0  0  0  0  0  0  0
   -1.8269    3.5791   -0.6655 H   0  0  0  0  0  0  0  0  0  0  0  0
   -1.5699   -1.1330    0.0260 C   0  0  0  0  0  0  0  0  0  0  0  0
   -1.7485   -2.0878    1.0737 C   0  0  0  0  0  0  0  0  0  0  0  0
   -2.4984   -3.2460    0.8107 C   0  0  0  0  0  0  0  0  0  0  0  0
   -2.6407   -3.9924    1.6066 H   0  0  0  0  0  0  0  0  0  0  0  0
   -3.0828   -3.4577   -0.4462 C   0  0  0  0  0  0  0  0  0  0  0  0
   -3.6679   -4.3704   -0.6356 H   0  0  0  0  0  0  0  0  0  0  0  0
   -2.9312   -2.4989   -1.4551 C   0  0  0  0  0  0  0  0  0  0  0  0
   -3.4061   -2.6648   -2.4349 H   0  0  0  0  0  0  0  0  0  0  0  0
   -2.1774   -1.3289   -1.2489 C   0  0  0  0  0  0  0  0  0  0  0  0
   -1.1457   -1.8308    2.4507 C   0  0  0  0  0  0  0  0  0  0  0  0
   -0.9942   -0.7329    2.5227 H   0  0  0  0  0  0  0  0  0  0  0  0
    0.2419   -2.4789    2.5933 C   0  0  0  0  0  0  0  0  0  0  0  0
    0.6715   -2.2880    3.5982 H   0  0  0  0  0  0  0  0  0  0  0  0
    0.1933   -3.5770    2.4386 H   0  0  0  0  0  0  0  0  0  0  0  0
    0.9561   -2.0588    1.8490 H   0  0  0  0  0  0  0  0  0  0  0  0
   -2.0727   -2.2549    3.5984 C   0  0  0  0  0  0  0  0  0  0  0  0
   -1.6555   -1.9235    4.5708 H   0  0  0  0  0  0  0  0  0  0  0  0
   -3.0839   -1.8126    3.4910 H   0  0  0  0  0  0  0  0  0  0  0  0
   -2.1908   -3.3568    3.6545 H   0  0  0  0  0  0  0  0  0  0  0  0
   -2.0367   -0.3119   -2.3743 C   0  0  0  0  0  0  0  0  0  0  0  0
   -1.3819    0.5010   -2.0051 H   0  0  0  0  0  0  0  0  0  0  0  0
   -1.3515   -0.9138   -3.6125 C   0  0  0  0  0  0  0  0  0  0  0  0
   -1.2153   -0.1413   -4.3968 H   0  0  0  0  0  0  0  0  0  0  0  0
   -0.3523   -1.3222   -3.3622 H   0  0  0  0  0  0  0  0  0  0  0  0
   -1.9504   -1.7374   -4.0534 H   0  0  0  0  0  0  0  0  0  0  0  0
   -3.3954    0.3129   -2.7379 C   0  0  0  0  0  0  0  0  0  0  0  0
   -3.2673    1.1036   -3.5055 H   0  0  0  0  0  0  0  0  0  0  0  0
   -4.0890   -0.4479   -3.1531 H   0  0  0  0  0  0  0  0  0  0  0  0
   -3.8801    0.7698   -1.8535 H   0  0  0  0  0  0  0  0  0  0  0  0
  1  2  1  0  0  0  0
  1  5  1  0  0  0  0
  2  4  2  0  0  0  0
  3  4  1  0  0  0  0
  4 31  1  0  0  0  0
  5 10  1  0  0  0  0
  5 14  1  0  0  0  0
  5  6  1  0  0  0  0
  6  9  1  0  0  0  0
  7  6  1  0  0  0  0
  8  6  1  0  0  0  0
 10 12  1  0  0  0  0
 11 10  1  0  0  0  0
 13 10  1  0  0  0  0
 14 16  1  0  0  0  0
 15 14  1  0  0  0  0
 17 14  1  0  0  0  0
 18  1  1  0  0  0  0
 19 22  1  0  0  0  0
 19 20  1  0  0  0  0
 19 18  1  0  0  0  0
 21 19  1  0  0  0  0
 23 18  1  0  0  0  0
 23 24  1  0  0  0  0
 23 26  1  0  0  0  0
 25 23  1  0  0  0  0
 27 18  1  0  0  0  0
 27 28  1  0  0  0  0
 27 29  1  0  0  0  0
 30 27  1  0  0  0  0
 31 32  1  0  0  0  0
 32 34  2  0  0  0  0
 32 33  1  0  0  0  0
 34 35  1  0  0  0  0
 36 37  1  0  0  0  0
 36 34  1  0  0  0  0
 38 36  2  0  0  0  0
 39 38  1  0  0  0  0
 40 38  1  0  0  0  0
 40 31  2  0  0  0  0
 41 40  1  0  0  0  0
 42  3  1  0  0  0  0
 42 43  1  0  0  0  0
 43 51  1  0  0  0  0
 44 43  2  0  0  0  0
 44 45  1  0  0  0  0
 46 44  1  0  0  0  0
 47 46  1  0  0  0  0
 48 50  1  0  0  0  0
 48 46  2  0  0  0  0
 49 48  1  0  0  0  0
 50 42  2  0  0  0  0
 51 52  1  0  0  0  0
 51 53  1  0  0  0  0
 51 57  1  0  0  0  0
 53 54  1  0  0  0  0
 55 53  1  0  0  0  0
 56 53  1  0  0  0  0
 57 60  1  0  0  0  0
 57 58  1  0  0  0  0
 59 57  1  0  0  0  0
 61 62  1  0  0  0  0
 61 50  1  0  0  0  0
 63 65  1  0  0  0  0
 63 61  1  0  0  0  0
 64 63  1  0  0  0  0
 66 63  1  0  0  0  0
 67 61  1  0  0  0  0
 67 70  1  0  0  0  0
 68 67  1  0  0  0  0
 69 67  1  0  0  0  0
M  END
