1,2
q = 0.0, confidence = 0.998

 34 36  0  0  0  0  0  0  0  0999 V2000
    0.7333    1.4950    0.6997 P   0  0  0  0  0  0  0  0  0  0  0  0
   -0.7735   -0.5707    2.1981 N   0  0  0  0  0  2  0  0  0  0  0  0
   -0.4508    0.4946    4.3285 N   0  0  0  0  0  0  0  0  0  0  0  0
    0.4883    1.4088    2.4171 N   0  0  0  0  0  0  0  0  0  0  0  0
    0.8703    2.0824    3.0887 H   0  0  0  0  0  0  0  0  0  0  0  0
   -1.5370   -1.5149    2.7946 C   0  0  0  0  0  3  0  0  0  0  0  0
   -1.9361   -2.2941    2.1263 H   0  0  0  0  0  0  0  0  0  0  0  0
   -1.7837   -1.5008    4.1676 C   0  0  0  0  0  0  0  0  0  0  0  0
   -2.4015   -2.2737    4.6433 H   0  0  0  0  0  0  0  0  0  0  0  0
   -1.1958   -0.4563    4.9022 C   0  0  0  0  0  0  0  0  0  0  0  0
   -1.3312   -0.3808    5.9951 H   0  0  0  0  0  0  0  0  0  0  0  0
   -0.2714    0.4178    3.0010 C   0  0  0  0  0  0  0  0  0  0  0  0
    2.5568    1.5220    0.5141 C   0  0  0  0  0  0  0  0  0  0  0  0
    3.3996    1.0145    1.5228 C   0  0  0  0  0  0  0  0  0  0  0  0
    2.9766    0.6879    2.4842 H   0  0  0  0  0  0  0  0  0  0  0  0
    4.7817    0.9205    1.3011 C   0  0  0  0  0  0  0  0  0  0  0  0
    5.4345    0.5334    2.0980 H   0  0  0  0  0  0  0  0  0  0  0  0
    5.3288    1.3195    0.0719 C   0  0  0  0  0  0  0  0  0  0  0  0
    6.4133    1.2460   -0.0990 H   0  0  0  0  0  0  0  0  0  0  0  0
    4.4904    1.8228   -0.9363 C   0  0  0  0  0  0  0  0  0  0  0  0
    4.9137    2.1414   -1.9005 H   0  0  0  0  0  0  0  0  0  0  0  0
    3.1095    1.9251   -0.7205 C   0  0  0  0  0  0  0  0  0  0  0  0
    2.4648    2.3178   -1.5201 H   0  0  0  0  0  0  0  0  0  0  0  0
    0.2166    3.1795    0.2033 C   0  0  0  0  0  0  0  0  0  0  0  0
    0.0564    4.2396    1.1172 C   0  0  0  0  0  0  0  0  0  0  0  0
    0.2216    4.0861    2.1941 H   0  0  0  0  0  0  0  0  0  0  0  0
   -0.3305    5.5068    0.6561 C   0  0  0  0  0  0  0  0  0  0  0  0
   -0.4569    6.3318    1.3729 H   0  0  0  0  0  0  0  0  0  0  0  0
   -0.5521    5.7231   -0.7138 C   0  0  0  0  0  0  0  0  0  0  0  0
   -0.8519    6.7198   -1.0706 H   0  0  0  0  0  0  0  0  0  0  0  0
   -0.3996    4.6665   -1.6259 C   0  0  0  0  0  0  0  0  0  0  0  0
   -0.5844    4.8294   -2.6982 H   0  0  0  0  0  0  0  0  0  0  0  0
   -0.0249    3.3935   -1.1725 C   0  0  0  0  0  0  0  0  0  0  0  0
    0.0529    2.5550   -1.8835 H   0  0  0  0  0  0  0  0  0  0  0  0
  1  4  1  0  0  0  0
  2  6  1  0  0  0  0
  2 12  1  0  0  0  0
  3 10  1  0  0  0  0
  4 12  1  0  0  0  0
  4  5  1  0  0  0  0
  6  8  1  0  0  0  0
  7  6  1  0  0  0  0
  8  9  1  0  0  0  0
  8 10  2  0  0  0  0
 10 11  1  0  0  0  0
 12  3  2  0  0  0  0
 13  1  1  0  0  0  0
 13 14  1  0  0  0  0
 14 15  1  0  0  0  0
 16 14  2  0  0  0  0
 16 17  1  0  0  0  0
 18 16  1  0  0  0  0
 19 18  1  0  0  0  0
 20 22  1  0  0  0  0
 20 18  2  0  0  0  0
 21 20  1  0  0  0  0
 22 13  2  0  0  0  0
 23 22  1  0  0  0  0
 24  1  1  0  0  0  0
 24 25  1  0  0  0  0
 25 26  1  0  0  0  0
 27 25  2  0  0  0  0
 27 28  1  0  0  0  0
 29 27  1  0  0  0  0
 30 29  1  0  0  0  0
 31 33  1  0  0  0  0
 31 29  2  0  0  0  0
 32 31  1  0  0  0  0
 33 24  2  0  0  0  0
 34 33  1  0  0  0  0
M  END
