1,3
q = 0.0, confidence = 1.0

 57 57  0  0  1  0  0  0  0  0999 V2000
    2.3660    0.4065    0.0246 P   0  0  0  0  0  0  0  0  0  0  0  0
   -3.5715    1.6277   -0.6487 N   0  0  0  0  0  0  0  0  0  0  0  0
   -0.3758    0.7193    0.9707 N   0  0  0  0  0  2  0  0  0  0  0  0
    1.9292    0.8758    1.7931 C   0  0  0  0  0  0  0  0  0  0  0  0
    2.0304   -0.0744    2.3572 H   0  0  0  0  0  0  0  0  0  0  0  0
    2.5991    1.6230    2.2613 H   0  0  0  0  0  0  0  0  0  0  0  0
    0.5001    1.3345    1.8323 C   0  0  1  0  0  3  0  0  0  0  0  0
    0.0876    2.3826    2.6652 C   0  0  0  0  0  0  0  0  0  0  0  0
    0.8198    2.8432    3.3433 H   0  0  0  0  0  0  0  0  0  0  0  0
   -1.2402    2.8263    2.6144 C   0  0  0  0  0  0  0  0  0  0  0  0
   -1.5883    3.6336    3.2759 H   0  0  0  0  0  0  0  0  0  0  0  0
   -2.0981    2.2483    1.6770 C   0  0  0  0  0  0  0  0  0  0  0  0
   -3.1321    2.5861    1.5190 H   0  0  0  0  0  0  0  0  0  0  0  0
   -1.6432    1.2138    0.8432 C   0  0  0  0  0  0  0  0  0  0  0  0
   -2.5445    0.6815   -0.2491 C   0  0  0  0  0  0  0  0  0  0  0  0
   -1.8954    0.3382   -1.0958 H   0  0  0  0  0  0  0  0  0  0  0  0
   -3.0228   -0.2427    0.1269 H   0  0  0  0  0  0  0  0  0  0  0  0
    2.5591    2.0942   -0.8737 C   0  0  0  0  0  0  0  0  0  0  0  0
    3.2340    3.1774   -0.0182 C   0  0  0  0  0  0  0  0  0  0  0  0
    3.3104    4.1152   -0.6097 H   0  0  0  0  0  0  0  0  0  0  0  0
    4.2573    2.9008    0.2974 H   0  0  0  0  0  0  0  0  0  0  0  0
    2.6419    3.4163    0.8877 H   0  0  0  0  0  0  0  0  0  0  0  0
    3.3371    1.8794   -2.1830 C   0  0  0  0  0  0  0  0  0  0  0  0
    2.9167    1.0437   -2.7778 H   0  0  0  0  0  0  0  0  0  0  0  0
    4.4109    1.6789   -2.0062 H   0  0  0  0  0  0  0  0  0  0  0  0
    3.2691    2.8006   -2.7999 H   0  0  0  0  0  0  0  0  0  0  0  0
    1.1311    2.5556   -1.2357 C   0  0  0  0  0  0  0  0  0  0  0  0
    1.1967    3.4584   -1.8797 H   0  0  0  0  0  0  0  0  0  0  0  0
    0.5397    2.8310   -0.3413 H   0  0  0  0  0  0  0  0  0  0  0  0
    0.5768    1.7691   -1.7857 H   0  0  0  0  0  0  0  0  0  0  0  0
    4.0252   -0.5187    0.2007 C   0  0  0  0  0  0  0  0  0  0  0  0
    3.7591   -1.6962    1.1621 C   0  0  0  0  0  0  0  0  0  0  0  0
    4.6637   -2.3397    1.1853 H   0  0  0  0  0  0  0  0  0  0  0  0
    2.9082   -2.3150    0.8132 H   0  0  0  0  0  0  0  0  0  0  0  0
    3.5694   -1.3682    2.2035 H   0  0  0  0  0  0  0  0  0  0  0  0
    5.1577    0.3613    0.7493 C   0  0  0  0  0  0  0  0  0  0  0  0
    6.0574   -0.2683    0.9185 H   0  0  0  0  0  0  0  0  0  0  0  0
    4.8985    0.8315    1.7199 H   0  0  0  0  0  0  0  0  0  0  0  0
    5.4491    1.1610    0.0406 H   0  0  0  0  0  0  0  0  0  0  0  0
    4.4078   -1.1152   -1.1694 C   0  0  0  0  0  0  0  0  0  0  0  0
    4.7096   -0.3463   -1.9024 H   0  0  0  0  0  0  0  0  0  0  0  0
    3.5698   -1.7090   -1.5878 H   0  0  0  0  0  0  0  0  0  0  0  0
    5.2746   -1.7951   -1.0275 H   0  0  0  0  0  0  0  0  0  0  0  0
   -3.0330    2.6775   -1.5177 C   0  0  0  0  0  0  0  0  0  0  0  0
   -2.8736    2.2920   -2.5602 H   0  0  0  0  0  0  0  0  0  0  0  0
   -2.0220    2.9356   -1.1379 H   0  0  0  0  0  0  0  0  0  0  0  0
   -3.8793    3.9474   -1.5490 C   0  0  0  0  0  0  0  0  0  0  0  0
   -4.8961    3.7670   -1.9522 H   0  0  0  0  0  0  0  0  0  0  0  0
   -3.4036    4.7132   -2.1941 H   0  0  0  0  0  0  0  0  0  0  0  0
   -3.9914    4.3694   -0.5298 H   0  0  0  0  0  0  0  0  0  0  0  0
   -4.7491    0.9593   -1.2111 C   0  0  0  0  0  0  0  0  0  0  0  0
   -4.4592    0.2802   -2.0565 H   0  0  0  0  0  0  0  0  0  0  0  0
   -5.3935    1.7435   -1.6568 H   0  0  0  0  0  0  0  0  0  0  0  0
   -5.5625    0.1825   -0.1786 C   0  0  0  0  0  0  0  0  0  0  0  0
   -5.0000   -0.6729    0.2480 H   0  0  0  0  0  0  0  0  0  0  0  0
   -6.4756   -0.2352   -0.6481 H   0  0  0  0  0  0  0  0  0  0  0  0
   -5.8693    0.8457    0.6553 H   0  0  0  0  0  0  0  0  0  0  0  0
  1 31  1  0  0  0  0
  1  4  1  0  0  0  0
  2 15  1  0  0  0  0
  3  7  1  0  0  0  0
  4  6  1  0  0  0  0
  4  5  1  0  0  0  0
  7  4  1  6  0  0  0
  7  8  1  0  0  0  0
  8  9  1  0  0  0  0
 10  8  2  0  0  0  0
 10 11  1  0  0  0  0
 12 10  1  0  0  0  0
 13 12  1  0  0  0  0
 14  3  1  0  0  0  0
 14 12  2  0  0  0  0
 15 17  1  0  0  0  0
 15 14  1  0  0  0  0
 16 15  1  0  0  0  0
 18 19  1  0  0  0  0
 18  1  1  0  0  0  0
 19 21  1  0  0  0  0
 19 22  1  0  0  0  0
 20 19  1  0  0  0  0
 23 25  1  0  0  0  0
 23 18  1  0  0  0  0
 24 23  1  0  0  0  0
 26 23  1  0  0  0  0
 27 18  1  0  0  0  0
 27 29  1  0  0  0  0
 28 27  1  0  0  0  0
 30 27  1  0  0  0  0
 31 36  1  0  0  0  0
 31 32  1  0  0  0  0
 32 33  1  0  0  0  0
 32 35  1  0  0  0  0
 34 32  1  0  0  0  0
 36 37  1  0  0  0  0
 36 38  1  0  0  0  0
 39 36  1  0  0  0  0
 40 43  1  0  0  0  0
 40 31  1  0  0  0  0
 41 40  1  0  0  0  0
 42 40  1  0  0  0  0
 44 46  1  0  0  0  0
 44  2  1  0  0  0  0
 45 44  1  0  0  0  0
 47 44  1  0  0  0  0
 47 50  1  0  0  0  0
 48 47  1  0  0  0  0
 49 47  1  0  0  0  0
 51  2  1  0  0  0  0
 51 54  1  0  0  0  0
 52 51  1  0  0  0  0
 53 51  1  0  0  0  0
 54 55  1  0  0  0  0
 54 57  1  0  0  0  0
 56 54  1  0  0  0  0
M  END
