1,2
q = 0.0, confidence = 0.996

 49 53  0  0  1  0  0  0  0  0999 V2000
    2.3153    0.5794    0.8192 N   0  0  0  0  0  2  0  0  0  0  0  0
   -0.5701   -0.1593    0.4944 P   0  0  2  0  0  0  0  0  0  0  0  0
    0.1037    1.4573    1.0234 C   0  0  0  0  0  0  0  0  0  0  0  0
   -0.6808    2.4762    0.5233 C   0  0  0  0  0  0  0  0  0  0  0  0
   -0.2221    3.9101    0.3902 C   0  0  0  0  0  0  0  0  0  0  0  0
    0.5521    3.9145   -0.4109 H   0  0  0  0  0  0  0  0  0  0  0  0
    0.2958    4.2446    1.3105 H   0  0  0  0  0  0  0  0  0  0  0  0
   -1.3422    4.8825    0.0006 C   0  0  0  0  0  0  0  0  0  0  0  0
   -0.8995    5.8606   -0.2767 H   0  0  0  0  0  0  0  0  0  0  0  0
   -2.0038    5.0724    0.8752 H   0  0  0  0  0  0  0  0  0  0  0  0
   -2.1744    4.3112   -1.1490 C   0  0  0  0  0  0  0  0  0  0  0  0
   -2.9248    5.0486   -1.4991 H   0  0  0  0  0  0  0  0  0  0  0  0
   -1.5111    4.0865   -2.0124 H   0  0  0  0  0  0  0  0  0  0  0  0
   -2.8847    3.0245   -0.7057 C   0  0  0  0  0  0  0  0  0  0  0  0
   -3.6455    3.2902    0.0648 H   0  0  0  0  0  0  0  0  0  0  0  0
   -3.4462    2.5639   -1.5432 H   0  0  0  0  0  0  0  0  0  0  0  0
   -1.9243    2.0172   -0.1214 C   0  0  0  0  0  0  0  0  0  0  0  0
   -2.0592    0.6408   -0.1982 C   0  0  0  0  0  0  0  0  0  0  0  0
   -3.1786   -0.1641   -0.6898 C   0  0  0  0  0  0  0  0  0  0  0  0
   -4.5250    0.2604   -0.5574 C   0  0  0  0  0  0  0  0  0  0  0  0
   -4.7490    1.2141   -0.0605 H   0  0  0  0  0  0  0  0  0  0  0  0
   -5.5782   -0.5441   -1.0100 C   0  0  0  0  0  0  0  0  0  0  0  0
   -6.6162   -0.1982   -0.8902 H   0  0  0  0  0  0  0  0  0  0  0  0
   -5.3162   -1.7907   -1.6014 C   0  0  0  0  0  0  0  0  0  0  0  0
   -6.1459   -2.4193   -1.9583 H   0  0  0  0  0  0  0  0  0  0  0  0
   -3.9891   -2.2335   -1.7256 C   0  0  0  0  0  0  0  0  0  0  0  0
   -3.7696   -3.2091   -2.1843 H   0  0  0  0  0  0  0  0  0  0  0  0
   -2.9348   -1.4344   -1.2709 C   0  0  0  0  0  0  0  0  0  0  0  0
   -1.8993   -1.7852   -1.3883 H   0  0  0  0  0  0  0  0  0  0  0  0
    1.4987    1.4773    1.4569 C   0  0  1  0  0  3  0  0  0  0  0  0
    1.9959    2.2896    2.4961 C   0  0  0  0  0  0  0  0  0  0  0  0
    1.3140    2.9845    3.0050 H   0  0  0  0  0  0  0  0  0  0  0  0
    3.3317    2.1649    2.8897 C   0  0  0  0  0  0  0  0  0  0  0  0
    3.7319    2.7910    3.7014 H   0  0  0  0  0  0  0  0  0  0  0  0
    4.1428    1.2101    2.2562 C   0  0  0  0  0  0  0  0  0  0  0  0
    5.1907    1.0591    2.5499 H   0  0  0  0  0  0  0  0  0  0  0  0
    3.5923    0.4325    1.2337 C   0  0  0  0  0  0  0  0  0  0  0  0
    4.1721   -0.3499    0.7230 H   0  0  0  0  0  0  0  0  0  0  0  0
   -1.1850   -1.0913    1.9441 C   0  0  0  0  0  0  0  0  0  0  0  0
   -2.1214   -0.4895    2.8118 C   0  0  0  0  0  0  0  0  0  0  0  0
   -2.4614    0.5408    2.6222 H   0  0  0  0  0  0  0  0  0  0  0  0
   -2.6158   -1.2093    3.9060 C   0  0  0  0  0  0  0  0  0  0  0  0
   -3.3469   -0.7426    4.5837 H   0  0  0  0  0  0  0  0  0  0  0  0
   -2.1828   -2.5281    4.1337 C   0  0  0  0  0  0  0  0  0  0  0  0
   -2.5762   -3.0931    4.9927 H   0  0  0  0  0  0  0  0  0  0  0  0
   -1.2517   -3.1225    3.2697 C   0  0  0  0  0  0  0  0  0  0  0  0
   -0.9081   -4.1523    3.4504 H   0  0  0  0  0  0  0  0  0  0  0  0
   -0.7459   -2.4095    2.1699 C   0  0  0  0  0  0  0  0  0  0  0  0
    0.0127   -2.8523    1.5042 H   0  0  0  0  0  0  0  0  0  0  0  0
  1 37  1  0  0  0  0
  1 30  1  0  0  0  0
  2  3  1  0  0  0  0
  2 39  1  1  0  0  0
  4  3  2  0  0  0  0
  5  4  1  0  0  0  0
  5  7  1  0  0  0  0
  6  5  1  0  0  0  0
  8  5  1  0  0  0  0
  8 10  1  0  0  0  0
  9  8  1  0  0  0  0
 11 14  1  0  0  0  0
 11  8  1  0  0  0  0
 12 11  1  0  0  0  0
 13 11  1  0  0  0  0
 14 17  1  0  0  0  0
 14 15  1  0  0  0  0
 16 14  1  0  0  0  0
 17  4  1  0  0  0  0
 18 17  2  0  0  0  0
 18  2  1  0  0  0  0
 19 20  1  0  0  0  0
 19 18  1  0  0  0  0
 20 21  1  0  0  0  0
 22 23  1  0  0  0  0
 22 20  2  0  0  0  0
 24 22  1  0  0  0  0
 25 24  1  0  0  0  0
 26 24  2  0  0  0  0
 26 28  1  0  0  0  0
 27 26  1  0  0  0  0
 28 19  2  0  0  0  0
 29 28  1  0  0  0  0
 30  3  1  1  0  0  0
 30 31  1  0  0  0  0
 31 33  2  0  0  0  0
 31 32  1  0  0  0  0
 33 34  1  0  0  0  0
 35 36  1  0  0  0  0
 35 33  1  0  0  0  0
 37 35  2  0  0  0  0
 38 37  1  0  0  0  0
 39 48  2  0  0  0  0
 39 40  1  0  0  0  0
 40 42  2  0  0  0  0
 41 40  1  0  0  0  0
 42 44  1  0  0  0  0
 42 43  1  0  0  0  0
 44 45  1  0  0  0  0
 46 47  1  0  0  0  0
 46 44  2  0  0  0  0
 48 46  1  0  0  0  0
 49 48  1  0  0  0  0
M  END
