1,2
q = -1.0

 44 45  0  0  1  0  0  0  0  0999 V2000
   -0.1708    1.0974    0.0237 P   0  0  0  0  0  0  0  0  0  0  0  0
    0.4072   -1.9940   -0.0038 N   0  0  0  0  0  0  0  0  0  0  0  0
   -2.1146   -2.3857    0.0109 C   0  0  0  0  0  0  0  0  0  0  0  0
   -2.1277   -3.4832    0.0059 H   0  0  0  0  0  0  0  0  0  0  0  0
   -0.9944   -1.5466    0.0273 C   0  0  2  0  0  3  0  0  0  0  0  0
   -1.3891   -0.1674    0.0190 C   0  0  0  0  0  0  0  0  0  0  0  0
   -2.8326   -0.1534   -0.0308 C   0  0  0  0  0  0  0  0  0  0  0  0
   -3.7963    0.8798   -0.1080 C   0  0  0  0  0  0  0  0  0  0  0  0
   -3.4882    1.9366   -0.1317 H   0  0  0  0  0  0  0  0  0  0  0  0
   -5.1556    0.5568   -0.1615 C   0  0  0  0  0  0  0  0  0  0  0  0
   -5.9034    1.3626   -0.2243 H   0  0  0  0  0  0  0  0  0  0  0  0
   -5.5839   -0.7947   -0.1379 C   0  0  0  0  0  0  0  0  0  0  0  0
   -6.6605   -1.0227   -0.1768 H   0  0  0  0  0  0  0  0  0  0  0  0
   -4.6553   -1.8357   -0.0724 C   0  0  0  0  0  0  0  0  0  0  0  0
   -4.9933   -2.8846   -0.0628 H   0  0  0  0  0  0  0  0  0  0  0  0
   -3.2727   -1.5391   -0.0256 C   0  0  0  0  0  0  0  0  0  0  0  0
   -0.2176    2.1398    1.5834 C   0  0  0  0  0  0  0  0  0  0  0  0
    0.6431    2.8386    1.4783 H   0  0  0  0  0  0  0  0  0  0  0  0
    0.0333    1.2181    2.7821 C   0  0  0  0  0  0  0  0  0  0  0  0
    1.0083    0.6942    2.7013 H   0  0  0  0  0  0  0  0  0  0  0  0
   -0.7626    0.4477    2.8513 H   0  0  0  0  0  0  0  0  0  0  0  0
    0.0347    1.8002    3.7265 H   0  0  0  0  0  0  0  0  0  0  0  0
   -1.5095    2.9462    1.7441 C   0  0  0  0  0  0  0  0  0  0  0  0
   -1.7021    3.6181    0.8840 H   0  0  0  0  0  0  0  0  0  0  0  0
   -1.4522    3.5799    2.6540 H   0  0  0  0  0  0  0  0  0  0  0  0
   -2.3821    2.2726    1.8547 H   0  0  0  0  0  0  0  0  0  0  0  0
   -0.4807    2.2551   -1.4142 C   0  0  0  0  0  0  0  0  0  0  0  0
   -1.5332    2.5883   -1.2780 H   0  0  0  0  0  0  0  0  0  0  0  0
    0.4417    3.4771   -1.4204 C   0  0  0  0  0  0  0  0  0  0  0  0
    0.3507    4.0849   -0.4984 H   0  0  0  0  0  0  0  0  0  0  0  0
    0.1920    4.1375   -2.2767 H   0  0  0  0  0  0  0  0  0  0  0  0
    1.5040    3.1805   -1.5305 H   0  0  0  0  0  0  0  0  0  0  0  0
   -0.3964    1.4440   -2.7114 C   0  0  0  0  0  0  0  0  0  0  0  0
   -1.0846    0.5762   -2.6845 H   0  0  0  0  0  0  0  0  0  0  0  0
    0.6347    1.0635   -2.8743 H   0  0  0  0  0  0  0  0  0  0  0  0
   -0.6664    2.0765   -3.5819 H   0  0  0  0  0  0  0  0  0  0  0  0
    0.6438   -2.7835   -1.2416 C   0  0  0  0  0  0  0  0  0  0  0  0
    1.7017   -3.1035   -1.2936 H   0  0  0  0  0  0  0  0  0  0  0  0
    0.4043   -2.1517   -2.1162 H   0  0  0  0  0  0  0  0  0  0  0  0
   -0.0119   -3.6783   -1.2591 H   0  0  0  0  0  0  0  0  0  0  0  0
    0.7068   -2.8143    1.1992 C   0  0  0  0  0  0  0  0  0  0  0  0
    1.7658   -3.1347    1.1865 H   0  0  0  0  0  0  0  0  0  0  0  0
    0.0510   -3.7092    1.2284 H   0  0  0  0  0  0  0  0  0  0  0  0
    0.5149   -2.2050    2.1010 H   0  0  0  0  0  0  0  0  0  0  0  0
  1 17  1  0  0  0  0
  2 41  1  0  0  0  0
  3  5  1  0  0  0  0
  4  3  1  0  0  0  0
  5  2  1  6  0  0  0
  6  1  1  0  0  0  0
  6  5  1  0  0  0  0
  7 16  1  0  0  0  0
  7  6  2  0  0  0  0
  8  7  1  0  0  0  0
  9  8  1  0  0  0  0
 10 12  1  0  0  0  0
 10  8  2  0  0  0  0
 11 10  1  0  0  0  0
 12 14  2  0  0  0  0
 13 12  1  0  0  0  0
 14 15  1  0  0  0  0
 14 16  1  0  0  0  0
 16  3  2  0  0  0  0
 17 23  1  0  0  0  0
 17 19  1  0  0  0  0
 18 17  1  0  0  0  0
 19 21  1  0  0  0  0
 19 22  1  0  0  0  0
 20 19  1  0  0  0  0
 23 26  1  0  0  0  0
 23 25  1  0  0  0  0
 24 23  1  0  0  0  0
 27 28  1  0  0  0  0
 27  1  1  0  0  0  0
 29 27  1  0  0  0  0
 29 30  1  0  0  0  0
 31 29  1  0  0  0  0
 32 29  1  0  0  0  0
 33 34  1  0  0  0  0
 33 27  1  0  0  0  0
 35 33  1  0  0  0  0
 36 33  1  0  0  0  0
 37  2  1  0  0  0  0
 38 37  1  0  0  0  0
 39 37  1  0  0  0  0
 40 37  1  0  0  0  0
 41 43  1  0  0  0  0
 41 44  1  0  0  0  0
 42 41  1  0  0  0  0
M  END
