1,2
q = 0.0, confidence = 1.0

 54 57  0  0  1  0  0  0  0  0999 V2000
    0.7260   -0.7179   -0.2404 P   0  0  0  0  0  0  0  0  0  0  0  0
    0.0771    2.3433   -0.5585 N   0  0  0  0  0  2  0  0  0  0  0  0
   -1.6360    0.7123   -0.6085 N   0  0  0  0  0  0  0  0  0  0  0  0
    0.1262   -1.9804    0.9475 C   0  0  0  0  0  0  0  0  0  0  0  0
   -0.0912   -1.6168    2.2908 C   0  0  0  0  0  0  0  0  0  0  0  0
    0.2088   -0.6152    2.6333 H   0  0  0  0  0  0  0  0  0  0  0  0
   -0.6663   -2.5390    3.1780 C   0  0  0  0  0  0  0  0  0  0  0  0
   -0.8312   -2.2522    4.2275 H   0  0  0  0  0  0  0  0  0  0  0  0
   -1.0207   -3.8227    2.7335 C   0  0  0  0  0  0  0  0  0  0  0  0
   -1.4685   -4.5445    3.4335 H   0  0  0  0  0  0  0  0  0  0  0  0
   -0.7876   -4.1924    1.3983 C   0  0  0  0  0  0  0  0  0  0  0  0
   -1.0473   -5.2039    1.0507 H   0  0  0  0  0  0  0  0  0  0  0  0
   -0.2121   -3.2757    0.5061 C   0  0  0  0  0  0  0  0  0  0  0  0
   -0.0158   -3.5756   -0.5352 H   0  0  0  0  0  0  0  0  0  0  0  0
    1.8005   -1.6066   -1.4311 C   0  0  0  0  0  0  0  0  0  0  0  0
    3.1898   -1.6387   -1.1839 C   0  0  0  0  0  0  0  0  0  0  0  0
    3.5842   -1.1314   -0.2876 H   0  0  0  0  0  0  0  0  0  0  0  0
    4.0404   -2.3127   -2.0713 C   0  0  0  0  0  0  0  0  0  0  0  0
    5.1225   -2.3340   -1.8721 H   0  0  0  0  0  0  0  0  0  0  0  0
    3.5205   -2.9504   -3.2095 C   0  0  0  0  0  0  0  0  0  0  0  0
    4.1935   -3.4743   -3.9053 H   0  0  0  0  0  0  0  0  0  0  0  0
    2.1406   -2.9155   -3.4621 C   0  0  0  0  0  0  0  0  0  0  0  0
    1.7279   -3.4105   -4.3543 H   0  0  0  0  0  0  0  0  0  0  0  0
    1.2800   -2.2472   -2.5772 C   0  0  0  0  0  0  0  0  0  0  0  0
    0.2014   -2.2329   -2.7938 H   0  0  0  0  0  0  0  0  0  0  0  0
   -0.7900   -0.2798   -1.2488 C   0  0  0  0  0  0  0  0  0  0  0  0
   -0.4038    0.0953   -2.2226 H   0  0  0  0  0  0  0  0  0  0  0  0
   -1.3875   -1.1901   -1.4433 H   0  0  0  0  0  0  0  0  0  0  0  0
   -1.2504    2.0419   -0.6969 C   0  0  2  0  0  3  0  0  0  0  0  0
   -2.1832    3.0761   -0.9747 C   0  0  0  0  0  0  0  0  0  0  0  0
   -3.2513    2.8422   -1.0564 H   0  0  0  0  0  0  0  0  0  0  0  0
   -1.7306    4.3710   -1.2175 C   0  0  0  0  0  0  0  0  0  0  0  0
   -2.4537    5.1661   -1.4543 H   0  0  0  0  0  0  0  0  0  0  0  0
   -0.3515    4.6338   -1.2037 C   0  0  0  0  0  0  0  0  0  0  0  0
    0.0551    5.6295   -1.4248 H   0  0  0  0  0  0  0  0  0  0  0  0
    0.5115    3.5977   -0.8553 C   0  0  0  0  0  0  0  0  0  0  0  0
    1.5902    3.7627   -0.7394 H   0  0  0  0  0  0  0  0  0  0  0  0
   -3.0333    0.3554   -0.3109 C   0  0  0  0  0  0  0  0  0  0  0  0
   -3.4640    1.2423    0.1982 H   0  0  0  0  0  0  0  0  0  0  0  0
   -3.8757    0.0688   -1.5694 C   0  0  0  0  0  0  0  0  0  0  0  0
   -3.4379   -0.8026   -2.1058 H   0  0  0  0  0  0  0  0  0  0  0  0
   -3.8164    0.9276   -2.2705 H   0  0  0  0  0  0  0  0  0  0  0  0
   -5.3337   -0.2451   -1.2077 C   0  0  0  0  0  0  0  0  0  0  0  0
   -5.8024    0.6624   -0.7641 H   0  0  0  0  0  0  0  0  0  0  0  0
   -5.9125   -0.4740   -2.1264 H   0  0  0  0  0  0  0  0  0  0  0  0
   -5.4260   -1.4009   -0.2037 C   0  0  0  0  0  0  0  0  0  0  0  0
   -6.4843   -1.5915    0.0705 H   0  0  0  0  0  0  0  0  0  0  0  0
   -5.0545   -2.3334   -0.6855 H   0  0  0  0  0  0  0  0  0  0  0  0
   -4.5891   -1.1128    1.0488 C   0  0  0  0  0  0  0  0  0  0  0  0
   -4.6267   -1.9696    1.7527 H   0  0  0  0  0  0  0  0  0  0  0  0
   -5.0282   -0.2451    1.5907 H   0  0  0  0  0  0  0  0  0  0  0  0
   -3.1289   -0.8029    0.6956 C   0  0  0  0  0  0  0  0  0  0  0  0
   -2.5440   -0.5476    1.6008 H   0  0  0  0  0  0  0  0  0  0  0  0
   -2.6565   -1.7155    0.2712 H   0  0  0  0  0  0  0  0  0  0  0  0
  1  4  1  0  0  0  0
  3 38  1  0  0  0  0
  4  5  1  0  0  0  0
  5  6  1  0  0  0  0
  5  7  2  0  0  0  0
  7  8  1  0  0  0  0
  9  7  1  0  0  0  0
  9 10  1  0  0  0  0
 11  9  2  0  0  0  0
 12 11  1  0  0  0  0
 13  4  2  0  0  0  0
 13 11  1  0  0  0  0
 14 13  1  0  0  0  0
 15 16  1  0  0  0  0
 15  1  1  0  0  0  0
 16 17  1  0  0  0  0
 18 19  1  0  0  0  0
 18 16  2  0  0  0  0
 20 18  1  0  0  0  0
 21 20  1  0  0  0  0
 22 20  2  0  0  0  0
 22 24  1  0  0  0  0
 23 22  1  0  0  0  0
 24 15  2  0  0  0  0
 25 24  1  0  0  0  0
 26  3  1  0  0  0  0
 26  1  1  0  0  0  0
 27 26  1  0  0  0  0
 28 26  1  0  0  0  0
 29  3  1  6  0  0  0
 29  2  1  0  0  0  0
 30 29  1  0  0  0  0
 31 30  1  0  0  0  0
 32 34  1  0  0  0  0
 32 30  2  0  0  0  0
 33 32  1  0  0  0  0
 34 36  2  0  0  0  0
 35 34  1  0  0  0  0
 36 37  1  0  0  0  0
 36  2  1  0  0  0  0
 38 39  1  0  0  0  0
 38 52  1  0  0  0  0
 40 43  1  0  0  0  0
 40 38  1  0  0  0  0
 41 40  1  0  0  0  0
 42 40  1  0  0  0  0
 43 44  1  0  0  0  0
 43 46  1  0  0  0  0
 45 43  1  0  0  0  0
 46 47  1  0  0  0  0
 46 49  1  0  0  0  0
 48 46  1  0  0  0  0
 49 51  1  0  0  0  0
 49 50  1  0  0  0  0
 52 49  1  0  0  0  0
 52 53  1  0  0  0  0
 54 52  1  0  0  0  0
M  END
