1,2
q = 0.0, confidence = 1.0

 53 56  0  0  1  0  0  0  0  0999 V2000
    0.8434    0.2427   -0.1067 P   0  0  0  0  0  0  0  0  0  0  0  0
   -1.9562   -0.3646   -0.0023 N   0  0  0  0  0  2  0  0  0  0  0  0
   -1.9325    0.4111    1.1206 N   0  0  0  0  0  0  0  0  0  0  0  0
   -2.9357    0.0947   -0.8063 C   0  0  1  0  0  3  0  0  0  0  0  0
   -3.5533    1.1950   -0.1696 C   0  0  0  0  0  0  0  0  0  0  0  0
   -4.3900    1.7894   -0.5503 H   0  0  0  0  0  0  0  0  0  0  0  0
   -2.8921    1.3887    1.0461 C   0  0  0  0  0  0  0  0  0  0  0  0
   -3.2080   -0.5167   -2.1383 C   0  0  0  0  0  0  0  0  0  0  0  0
   -3.1355   -1.6212   -2.0624 H   0  0  0  0  0  0  0  0  0  0  0  0
   -2.4515   -0.1841   -2.8793 H   0  0  0  0  0  0  0  0  0  0  0  0
   -4.2079   -0.2203   -2.5057 H   0  0  0  0  0  0  0  0  0  0  0  0
   -3.1495    2.4416    2.0746 C   0  0  0  0  0  0  0  0  0  0  0  0
   -2.2410    3.0326    2.3100 H   0  0  0  0  0  0  0  0  0  0  0  0
   -3.5348    2.0267    3.0273 H   0  0  0  0  0  0  0  0  0  0  0  0
   -3.9104    3.1410    1.6820 H   0  0  0  0  0  0  0  0  0  0  0  0
   -0.8833    0.0987    2.0980 C   0  0  2  0  0  0  0  0  0  0  0  0
   -0.7848   -1.0080    2.0170 H   0  0  0  0  0  0  0  0  0  0  0  0
   -1.2336    0.4193    3.5534 C   0  0  0  0  0  0  0  0  0  0  0  0
   -2.2311   -0.0017    3.7938 H   0  0  0  0  0  0  0  0  0  0  0  0
   -1.2862    1.5157    3.7126 H   0  0  0  0  0  0  0  0  0  0  0  0
   -0.1548   -0.1655    4.4747 C   0  0  0  0  0  0  0  0  0  0  0  0
   -0.3952    0.0701    5.5314 H   0  0  0  0  0  0  0  0  0  0  0  0
   -0.1626   -1.2740    4.3881 H   0  0  0  0  0  0  0  0  0  0  0  0
    1.2336    0.3675    4.1046 C   0  0  0  0  0  0  0  0  0  0  0  0
    2.0097   -0.0913    4.7512 H   0  0  0  0  0  0  0  0  0  0  0  0
    1.2703    1.4627    4.3012 H   0  0  0  0  0  0  0  0  0  0  0  0
    1.5738    0.1099    2.6311 C   0  0  0  0  0  0  0  0  0  0  0  0
    1.6594   -0.9848    2.4488 H   0  0  0  0  0  0  0  0  0  0  0  0
    2.5603    0.5454    2.3791 H   0  0  0  0  0  0  0  0  0  0  0  0
    0.4943    0.6825    1.6945 C   0  0  1  0  0  0  0  0  0  0  0  0
    0.4774    1.7896    1.7970 H   0  0  0  0  0  0  0  0  0  0  0  0
    2.6549    0.4428   -0.2848 C   0  0  0  0  0  0  0  0  0  0  0  0
    3.5015   -0.6633   -0.0606 C   0  0  0  0  0  0  0  0  0  0  0  0
    3.0581   -1.6553    0.1159 H   0  0  0  0  0  0  0  0  0  0  0  0
    4.8929   -0.4945   -0.1237 C   0  0  0  0  0  0  0  0  0  0  0  0
    5.5506   -1.3611    0.0429 H   0  0  0  0  0  0  0  0  0  0  0  0
    5.4441    0.7637   -0.4121 C   0  0  0  0  0  0  0  0  0  0  0  0
    6.5365    0.8883   -0.4654 H   0  0  0  0  0  0  0  0  0  0  0  0
    4.6008    1.8626   -0.6450 C   0  0  0  0  0  0  0  0  0  0  0  0
    5.0287    2.8489   -0.8809 H   0  0  0  0  0  0  0  0  0  0  0  0
    3.2086    1.7059   -0.5847 C   0  0  0  0  0  0  0  0  0  0  0  0
    2.5502    2.5665   -0.7770 H   0  0  0  0  0  0  0  0  0  0  0  0
    0.1440    1.6054   -1.1263 C   0  0  0  0  0  0  0  0  0  0  0  0
   -0.3036    2.8407   -0.6217 C   0  0  0  0  0  0  0  0  0  0  0  0
   -0.2265    3.0692    0.4512 H   0  0  0  0  0  0  0  0  0  0  0  0
   -0.8586    3.7995   -1.4854 C   0  0  0  0  0  0  0  0  0  0  0  0
   -1.2118    4.7591   -1.0784 H   0  0  0  0  0  0  0  0  0  0  0  0
   -0.9636    3.5352   -2.8583 C   0  0  0  0  0  0  0  0  0  0  0  0
   -1.4014    4.2866   -3.5327 H   0  0  0  0  0  0  0  0  0  0  0  0
   -0.5108    2.3071   -3.3702 C   0  0  0  0  0  0  0  0  0  0  0  0
   -0.5915    2.0926   -4.4465 H   0  0  0  0  0  0  0  0  0  0  0  0
    0.0339    1.3447   -2.5104 C   0  0  0  0  0  0  0  0  0  0  0  0
    0.3667    0.3709   -2.9047 H   0  0  0  0  0  0  0  0  0  0  0  0
  1 30  1  0  0  0  0
  2  3  1  0  0  0  0
  3 16  1  0  0  0  0
  4  8  1  6  0  0  0
  4  5  1  0  0  0  0
  4  2  1  0  0  0  0
  5  7  2  0  0  0  0
  6  5  1  0  0  0  0
  7  3  1  0  0  0  0
  7 12  1  0  0  0  0
  8  9  1  0  0  0  0
 10  8  1  0  0  0  0
 11  8  1  0  0  0  0
 12 13  1  0  0  0  0
 12 14  1  0  0  0  0
 15 12  1  0  0  0  0
 16 17  1  6  0  0  0
 16 18  1  0  0  0  0
 18 20  1  0  0  0  0
 18 19  1  0  0  0  0
 18 21  1  0  0  0  0
 21 22  1  0  0  0  0
 23 21  1  0  0  0  0
 24 26  1  0  0  0  0
 24 21  1  0  0  0  0
 24 25  1  0  0  0  0
 27 24  1  0  0  0  0
 28 27  1  0  0  0  0
 29 27  1  0  0  0  0
 30 31  1  1  0  0  0
 30 16  1  0  0  0  0
 30 27  1  0  0  0  0
 32  1  1  0  0  0  0
 32 33  1  0  0  0  0
 33 34  1  0  0  0  0
 35 33  2  0  0  0  0
 35 36  1  0  0  0  0
 37 35  1  0  0  0  0
 38 37  1  0  0  0  0
 39 41  1  0  0  0  0
 39 37  2  0  0  0  0
 40 39  1  0  0  0  0
 41 32  2  0  0  0  0
 42 41  1  0  0  0  0
 43 44  1  0  0  0  0
 43  1  1  0  0  0  0
 44 45  1  0  0  0  0
 46 47  1  0  0  0  0
 46 44  2  0  0  0  0
 48 46  1  0  0  0  0
 49 48  1  0  0  0  0
 50 48  2  0  0  0  0
 50 52  1  0  0  0  0
 51 50  1  0  0  0  0
 52 43  2  0  0  0  0
 53 52  1  0  0  0  0
M  END
