1,2
q = 0.0, confidence = 0.998

 55 59  0  0  1  0  0  0  0  0999 V2000
    1.5373    0.1650   -0.0038 P   0  0  0  0  0  0  0  0  0  0  0  0
   -1.3804   -0.2308   -0.0135 N   0  0  0  0  0  2  0  0  0  0  0  0
   -1.0894    1.0530    0.0422 C   0  0  0  0  0  0  0  0  0  0  0  0
   -1.9432    2.2571    0.1166 C   0  0  1  0  0  3  0  0  0  0  0  0
   -3.3269    2.4613    0.0693 C   0  0  0  0  0  0  0  0  0  0  0  0
   -3.8153    3.7806    0.1894 C   0  0  0  0  0  0  0  0  0  0  0  0
   -2.9413    4.8660    0.3552 C   0  0  0  0  0  0  0  0  0  0  0  0
   -1.5453    4.6678    0.4032 C   0  0  0  0  0  0  0  0  0  0  0  0
   -1.0494    3.3663    0.2814 C   0  0  0  0  0  0  0  0  0  0  0  0
    0.3315    2.8641    0.2803 C   0  0  0  0  0  0  0  0  0  0  0  0
    0.3112    1.5017    0.1126 C   0  0  0  0  0  0  0  0  0  0  0  0
   -2.7556   -0.6203   -0.0837 C   0  0  0  0  0  0  0  0  0  0  0  0
   -3.4718   -0.8213    1.1182 C   0  0  0  0  0  0  0  0  0  0  0  0
   -4.8379   -1.1359    1.0102 C   0  0  0  0  0  0  0  0  0  0  0  0
   -5.4545   -1.2639   -0.2425 C   0  0  0  0  0  0  0  0  0  0  0  0
   -4.7040   -1.1033   -1.4155 C   0  0  0  0  0  0  0  0  0  0  0  0
   -3.3345   -0.7874   -1.3619 C   0  0  0  0  0  0  0  0  0  0  0  0
   -2.7698   -0.7464    2.4450 C   0  0  0  0  0  0  0  0  0  0  0  0
   -2.4906   -0.6651   -2.6007 C   0  0  0  0  0  0  0  0  0  0  0  0
    2.4481    0.4133   -1.5709 C   0  0  0  0  0  0  0  0  0  0  0  0
    2.2146    1.5129   -2.4199 C   0  0  0  0  0  0  0  0  0  0  0  0
    2.9409    1.6379   -3.6148 C   0  0  0  0  0  0  0  0  0  0  0  0
    3.8932    0.6690   -3.9657 C   0  0  0  0  0  0  0  0  0  0  0  0
    4.1158   -0.4344   -3.1239 C   0  0  0  0  0  0  0  0  0  0  0  0
    3.3958   -0.5709   -1.9302 C   0  0  0  0  0  0  0  0  0  0  0  0
    2.7600    0.4424    1.3251 C   0  0  0  0  0  0  0  0  0  0  0  0
    3.7978    1.3827    1.1647 C   0  0  0  0  0  0  0  0  0  0  0  0
    4.6864    1.6232    2.2229 C   0  0  0  0  0  0  0  0  0  0  0  0
    4.5465    0.9224    3.4322 C   0  0  0  0  0  0  0  0  0  0  0  0
    3.5205   -0.0244    3.5842 C   0  0  0  0  0  0  0  0  0  0  0  0
    2.6262   -0.2706    2.5326 C   0  0  0  0  0  0  0  0  0  0  0  0
   -4.0213    1.6205   -0.0596 H   0  0  0  0  0  0  0  0  0  0  0  0
   -4.9006    3.9559    0.1523 H   0  0  0  0  0  0  0  0  0  0  0  0
   -3.3486    5.8840    0.4485 H   0  0  0  0  0  0  0  0  0  0  0  0
   -0.8618    5.5204    0.5337 H   0  0  0  0  0  0  0  0  0  0  0  0
    1.2264    3.4913    0.3964 H   0  0  0  0  0  0  0  0  0  0  0  0
   -5.4186   -1.2962    1.9317 H   0  0  0  0  0  0  0  0  0  0  0  0
   -6.5248   -1.5115   -0.3050 H   0  0  0  0  0  0  0  0  0  0  0  0
   -5.1792   -1.2363   -2.3997 H   0  0  0  0  0  0  0  0  0  0  0  0
   -2.0019   -1.5491    2.4924 H   0  0  0  0  0  0  0  0  0  0  0  0
   -3.4793   -0.8873    3.2815 H   0  0  0  0  0  0  0  0  0  0  0  0
   -2.2472    0.2212    2.5933 H   0  0  0  0  0  0  0  0  0  0  0  0
   -3.0942   -0.8273   -3.5131 H   0  0  0  0  0  0  0  0  0  0  0  0
   -1.6776   -1.4227   -2.5767 H   0  0  0  0  0  0  0  0  0  0  0  0
   -2.0029    0.3287   -2.6821 H   0  0  0  0  0  0  0  0  0  0  0  0
    1.4625    2.2692   -2.1505 H   0  0  0  0  0  0  0  0  0  0  0  0
    2.7572    2.4983   -4.2761 H   0  0  0  0  0  0  0  0  0  0  0  0
    4.4596    0.7690   -4.9040 H   0  0  0  0  0  0  0  0  0  0  0  0
    4.8518   -1.2031   -3.4036 H   0  0  0  0  0  0  0  0  0  0  0  0
    3.5355   -1.4495   -1.2796 H   0  0  0  0  0  0  0  0  0  0  0  0
    3.9178    1.9145    0.2079 H   0  0  0  0  0  0  0  0  0  0  0  0
    5.4985    2.3557    2.0991 H   0  0  0  0  0  0  0  0  0  0  0  0
    5.2500    1.1078    4.2581 H   0  0  0  0  0  0  0  0  0  0  0  0
    3.4219   -0.5864    4.5250 H   0  0  0  0  0  0  0  0  0  0  0  0
    1.8372   -1.0318    2.6282 H   0  0  0  0  0  0  0  0  0  0  0  0
  1 11  1  0  0  0  0
  1 26  1  0  0  0  0
  2  3  1  0  0  0  0
  3 11  2  0  0  0  0
  4  3  1  1  0  0  0
  4  9  1  0  0  0  0
  5  4  1  0  0  0  0
  5  6  2  0  0  0  0
  6  7  1  0  0  0  0
  7  8  2  0  0  0  0
  7 34  1  0  0  0  0
  8 35  1  0  0  0  0
  9  8  1  0  0  0  0
 10  9  2  0  0  0  0
 10 36  1  0  0  0  0
 11 10  1  0  0  0  0
 12  2  1  0  0  0  0
 12 13  1  0  0  0  0
 13 18  1  0  0  0  0
 14 13  2  0  0  0  0
 14 37  1  0  0  0  0
 15 14  1  0  0  0  0
 16 17  1  0  0  0  0
 16 15  2  0  0  0  0
 17 12  2  0  0  0  0
 18 40  1  0  0  0  0
 18 42  1  0  0  0  0
 18 41  1  0  0  0  0
 19 44  1  0  0  0  0
 19 17  1  0  0  0  0
 20  1  1  0  0  0  0
 21 46  1  0  0  0  0
 21 20  2  0  0  0  0
 22 21  1  0  0  0  0
 23 22  2  0  0  0  0
 23 24  1  0  0  0  0
 24 25  2  0  0  0  0
 25 20  1  0  0  0  0
 25 50  1  0  0  0  0
 26 31  1  0  0  0  0
 27 26  2  0  0  0  0
 27 28  1  0  0  0  0
 28 29  2  0  0  0  0
 29 30  1  0  0  0  0
 29 53  1  0  0  0  0
 30 54  1  0  0  0  0
 31 55  1  0  0  0  0
 31 30  2  0  0  0  0
 32  5  1  0  0  0  0
 33  6  1  0  0  0  0
 38 15  1  0  0  0  0
 39 16  1  0  0  0  0
 43 19  1  0  0  0  0
 45 19  1  0  0  0  0
 47 22  1  0  0  0  0
 48 23  1  0  0  0  0
 49 24  1  0  0  0  0
 51 27  1  0  0  0  0
 52 28  1  0  0  0  0
M  END
