1,2
q = 0.0, confidence = 1.0

 51 55  0  0  1  0  0  0  0  0999 V2000
   -1.6520    0.2668   -0.3126 P   0  0  1  0  0  0  0  0  0  0  0  0
    1.0873   -0.2738    0.3792 N   0  0  0  0  0  2  0  0  0  0  0  0
    0.7995    0.9913    0.5475 C   0  0  1  0  0  3  0  0  0  0  0  0
    1.6296    2.1873    0.3595 C   0  0  0  0  0  0  0  0  0  0  0  0
    3.0303    2.3610    0.3389 C   0  0  0  0  0  0  0  0  0  0  0  0
    3.5414    3.6246    0.0146 C   0  0  0  0  0  0  0  0  0  0  0  0
    2.6800    4.6952   -0.2943 C   0  0  0  0  0  0  0  0  0  0  0  0
    1.2852    4.5246   -0.2714 C   0  0  0  0  0  0  0  0  0  0  0  0
    0.7593    3.2728    0.0679 C   0  0  0  0  0  0  0  0  0  0  0  0
   -0.7039    2.8754    0.1554 C   0  0  1  0  0  0  0  0  0  0  0  0
   -1.4728    2.8266   -1.2069 C   0  0  0  0  0  0  0  0  0  0  0  0
   -1.4398    1.3997   -1.7827 C   0  0  0  0  0  0  0  0  0  0  0  0
   -0.6400    1.4326    0.7281 C   0  0  1  0  0  0  0  0  0  0  0  0
    2.4550   -0.6707    0.2316 C   0  0  0  0  0  0  0  0  0  0  0  0
    3.0278   -0.6935   -1.0606 C   0  0  0  0  0  0  0  0  0  0  0  0
    4.3865   -1.0416   -1.1648 C   0  0  0  0  0  0  0  0  0  0  0  0
    5.1373   -1.3672   -0.0272 C   0  0  0  0  0  0  0  0  0  0  0  0
    4.5310   -1.3723    1.2371 C   0  0  0  0  0  0  0  0  0  0  0  0
    3.1747   -1.0350    1.3927 C   0  0  0  0  0  0  0  0  0  0  0  0
    2.2011   -0.3579   -2.2712 C   0  0  0  0  0  0  0  0  0  0  0  0
    2.4795   -1.1083    2.7239 C   0  0  0  0  0  0  0  0  0  0  0  0
   -3.3952    0.4601    0.1999 C   0  0  0  0  0  0  0  0  0  0  0  0
   -4.3370   -0.4755   -0.2813 C   0  0  0  0  0  0  0  0  0  0  0  0
   -5.6895   -0.3418    0.0643 C   0  0  0  0  0  0  0  0  0  0  0  0
   -6.1118    0.7112    0.8910 C   0  0  0  0  0  0  0  0  0  0  0  0
   -5.1750    1.6336    1.3835 C   0  0  0  0  0  0  0  0  0  0  0  0
   -3.8200    1.5109    1.0421 C   0  0  0  0  0  0  0  0  0  0  0  0
    3.7040    1.5283    0.5792 H   0  0  0  0  0  0  0  0  0  0  0  0
    4.6303    3.7803    0.0021 H   0  0  0  0  0  0  0  0  0  0  0  0
    3.1043    5.6784   -0.5489 H   0  0  0  0  0  0  0  0  0  0  0  0
    0.6162    5.3663   -0.5087 H   0  0  0  0  0  0  0  0  0  0  0  0
   -1.2324    3.5688    0.8410 H   0  0  0  0  0  0  0  0  0  0  0  0
   -1.0516    3.5596   -1.9252 H   0  0  0  0  0  0  0  0  0  0  0  0
   -2.5276    3.1190   -1.0301 H   0  0  0  0  0  0  0  0  0  0  0  0
   -0.4542    1.1439   -2.2239 H   0  0  0  0  0  0  0  0  0  0  0  0
   -2.2143    1.2134   -2.5510 H   0  0  0  0  0  0  0  0  0  0  0  0
   -0.9205    1.3497    1.7987 H   0  0  0  0  0  0  0  0  0  0  0  0
    4.8541   -1.0630   -2.1613 H   0  0  0  0  0  0  0  0  0  0  0  0
    6.1989   -1.6385   -0.1286 H   0  0  0  0  0  0  0  0  0  0  0  0
    5.1110   -1.6611    2.1273 H   0  0  0  0  0  0  0  0  0  0  0  0
    2.7793   -0.5052   -3.2024 H   0  0  0  0  0  0  0  0  0  0  0  0
    1.8555    0.6985   -2.2519 H   0  0  0  0  0  0  0  0  0  0  0  0
    1.2948   -1.0014   -2.3147 H   0  0  0  0  0  0  0  0  0  0  0  0
    3.1823   -1.3979    3.5274 H   0  0  0  0  0  0  0  0  0  0  0  0
    1.6729   -1.8707    2.6621 H   0  0  0  0  0  0  0  0  0  0  0  0
    2.0074   -0.1452    3.0087 H   0  0  0  0  0  0  0  0  0  0  0  0
   -3.9865   -1.3286   -0.8852 H   0  0  0  0  0  0  0  0  0  0  0  0
   -6.4175   -1.0784   -0.3077 H   0  0  0  0  0  0  0  0  0  0  0  0
   -7.1739    0.8087    1.1626 H   0  0  0  0  0  0  0  0  0  0  0  0
   -5.4986    2.4535    2.0424 H   0  0  0  0  0  0  0  0  0  0  0  0
   -3.0988    2.2374    1.4445 H   0  0  0  0  0  0  0  0  0  0  0  0
  1 22  1  1  0  0  0
  1 13  1  0  0  0  0
  3  2  1  6  0  0  0
  3 13  1  0  0  0  0
  4  3  1  0  0  0  0
  5  4  1  0  0  0  0
  5 28  1  0  0  0  0
  6  5  2  0  0  0  0
  7  8  2  0  0  0  0
  7  6  1  0  0  0  0
  8  9  1  0  0  0  0
  9 10  1  0  0  0  0
  9  4  2  0  0  0  0
 10 13  1  0  0  0  0
 10 32  1  1  0  0  0
 11 34  1  0  0  0  0
 11 10  1  0  0  0  0
 12 11  1  0  0  0  0
 12  1  1  0  0  0  0
 13 37  1  1  0  0  0
 14  2  1  0  0  0  0
 14 19  1  0  0  0  0
 15 14  2  0  0  0  0
 16 15  1  0  0  0  0
 16 17  2  0  0  0  0
 17 18  1  0  0  0  0
 18 19  2  0  0  0  0
 18 40  1  0  0  0  0
 19 21  1  0  0  0  0
 20 42  1  0  0  0  0
 20 15  1  0  0  0  0
 21 46  1  0  0  0  0
 21 44  1  0  0  0  0
 22 27  1  0  0  0  0
 23 24  1  0  0  0  0
 23 22  2  0  0  0  0
 24 25  2  0  0  0  0
 25 49  1  0  0  0  0
 25 26  1  0  0  0  0
 26 50  1  0  0  0  0
 27 26  2  0  0  0  0
 27 51  1  0  0  0  0
 29  6  1  0  0  0  0
 30  7  1  0  0  0  0
 31  8  1  0  0  0  0
 33 11  1  0  0  0  0
 35 12  1  0  0  0  0
 36 12  1  0  0  0  0
 38 16  1  0  0  0  0
 39 17  1  0  0  0  0
 41 20  1  0  0  0  0
 43 20  1  0  0  0  0
 45 21  1  0  0  0  0
 47 23  1  0  0  0  0
 48 24  1  0  0  0  0
M  END
