1,3
q = 0.0, confidence = 0.99

 74 77  0  0  1  0  0  0  0  0999 V2000
    2.1308    0.0774    0.1210 P   0  0  0  0  0  0  0  0  0  0  0  0
   -2.2992   -0.2248    0.4739 O   0  0  0  0  0  0  0  0  0  0  0  0
   -0.2771   -1.0173    0.9420 N   0  0  0  0  0  2  0  0  0  0  0  0
    2.1088   -1.3576    1.3445 C   0  0  1  0  0  0  0  0  0  0  0  0
    0.6767   -1.4310    1.8229 C   0  0  1  0  0  3  0  0  0  0  0  0
    0.3356   -1.8302    3.1231 C   0  0  0  0  0  0  0  0  0  0  0  0
   -1.0116   -1.7803    3.5187 C   0  0  0  0  0  0  0  0  0  0  0  0
   -1.9763   -1.2804    2.6439 C   0  0  0  0  0  0  0  0  0  0  0  0
   -1.5639   -0.8586    1.3589 C   0  0  0  0  0  0  0  0  0  0  0  0
    2.6799   -2.6804    0.7401 C   0  0  0  0  0  0  0  0  0  0  0  0
    2.9055   -3.7148    1.8512 C   0  0  0  0  0  0  0  0  0  0  0  0
    1.8355   -3.2706   -0.3927 C   0  0  0  0  0  0  0  0  0  0  0  0
   -3.7103    0.0497    0.5911 C   0  0  2  0  0  0  0  0  0  0  0  0
   -4.4691   -1.2323    0.2336 C   0  0  0  0  0  0  0  0  0  0  0  0
   -5.9787   -1.0201    0.0647 C   0  0  1  0  0  0  0  0  0  0  0  0
   -6.2154    0.0897   -0.9692 C   0  0  0  0  0  0  0  0  0  0  0  0
   -5.4863    1.3765   -0.5803 C   0  0  0  0  0  0  0  0  0  0  0  0
   -3.9667    1.1927   -0.4035 C   0  0  1  0  0  0  0  0  0  0  0  0
   -6.6839   -2.3261   -0.3070 C   0  0  0  0  0  0  0  0  0  0  0  0
   -3.2946    2.5593   -0.0643 C   0  0  0  0  0  0  0  0  0  0  0  0
   -1.9433    2.5136    0.6675 C   0  0  0  0  0  0  0  0  0  0  0  0
   -3.1296    3.3783   -1.3546 C   0  0  0  0  0  0  0  0  0  0  0  0
    3.7943    0.0529   -0.6273 C   0  0  0  0  0  0  0  0  0  0  0  0
    3.9838   -0.5190   -1.9015 C   0  0  0  0  0  0  0  0  0  0  0  0
    5.2793   -0.6125   -2.4312 C   0  0  0  0  0  0  0  0  0  0  0  0
    6.3796   -0.1352   -1.7013 C   0  0  0  0  0  0  0  0  0  0  0  0
    6.1884    0.4458   -0.4365 C   0  0  0  0  0  0  0  0  0  0  0  0
    4.8976    0.5439    0.1021 C   0  0  0  0  0  0  0  0  0  0  0  0
    2.0418    1.6201    1.0958 C   0  0  0  0  0  0  0  0  0  0  0  0
    2.0221    1.6745    2.5030 C   0  0  0  0  0  0  0  0  0  0  0  0
    1.8672    2.9099    3.1534 C   0  0  0  0  0  0  0  0  0  0  0  0
    1.7353    4.0895    2.4057 C   0  0  0  0  0  0  0  0  0  0  0  0
    1.7485    4.0356    1.0008 C   0  0  0  0  0  0  0  0  0  0  0  0
    1.8915    2.8078    0.3437 C   0  0  0  0  0  0  0  0  0  0  0  0
    2.7610   -1.0961    2.2051 H   0  0  0  0  0  0  0  0  0  0  0  0
    1.1216   -2.1595    3.8152 H   0  0  0  0  0  0  0  0  0  0  0  0
   -1.3040   -2.1035    4.5292 H   0  0  0  0  0  0  0  0  0  0  0  0
   -3.0271   -1.1813    2.9437 H   0  0  0  0  0  0  0  0  0  0  0  0
    3.6769   -2.4092    0.3287 H   0  0  0  0  0  0  0  0  0  0  0  0
    1.9442   -4.0496    2.2930 H   0  0  0  0  0  0  0  0  0  0  0  0
    3.5401   -3.3145    2.6689 H   0  0  0  0  0  0  0  0  0  0  0  0
    3.4096   -4.6128    1.4416 H   0  0  0  0  0  0  0  0  0  0  0  0
    1.6958   -2.5628   -1.2352 H   0  0  0  0  0  0  0  0  0  0  0  0
    0.8214   -3.5511   -0.0415 H   0  0  0  0  0  0  0  0  0  0  0  0
    2.3213   -4.1839   -0.7906 H   0  0  0  0  0  0  0  0  0  0  0  0
   -3.9368    0.3823    1.6329 H   0  0  0  0  0  0  0  0  0  0  0  0
   -4.2706   -2.0120    1.0002 H   0  0  0  0  0  0  0  0  0  0  0  0
   -4.0253   -1.6016   -0.7173 H   0  0  0  0  0  0  0  0  0  0  0  0
   -6.3925   -0.6640    1.0385 H   0  0  0  0  0  0  0  0  0  0  0  0
   -5.8525   -0.2613   -1.9609 H   0  0  0  0  0  0  0  0  0  0  0  0
   -7.3040    0.2822   -1.0785 H   0  0  0  0  0  0  0  0  0  0  0  0
   -5.9118    1.7633    0.3749 H   0  0  0  0  0  0  0  0  0  0  0  0
   -5.6715    2.1663   -1.3360 H   0  0  0  0  0  0  0  0  0  0  0  0
   -3.5314    0.8211   -1.3591 H   0  0  0  0  0  0  0  0  0  0  0  0
   -6.5251   -3.1092    0.4625 H   0  0  0  0  0  0  0  0  0  0  0  0
   -6.2959   -2.7199   -1.2697 H   0  0  0  0  0  0  0  0  0  0  0  0
   -7.7771   -2.1762   -0.4195 H   0  0  0  0  0  0  0  0  0  0  0  0
   -4.0054    3.1016    0.6034 H   0  0  0  0  0  0  0  0  0  0  0  0
   -1.1670    1.9974    0.0663 H   0  0  0  0  0  0  0  0  0  0  0  0
   -1.9989    2.0122    1.6546 H   0  0  0  0  0  0  0  0  0  0  0  0
   -1.5880    3.5485    0.8522 H   0  0  0  0  0  0  0  0  0  0  0  0
   -4.0753    3.4656   -1.9261 H   0  0  0  0  0  0  0  0  0  0  0  0
   -2.3778    2.8966   -2.0146 H   0  0  0  0  0  0  0  0  0  0  0  0
   -2.7778    4.4065   -1.1331 H   0  0  0  0  0  0  0  0  0  0  0  0
    3.1091   -0.8492   -2.4813 H   0  0  0  0  0  0  0  0  0  0  0  0
    5.4265   -1.0521   -3.4292 H   0  0  0  0  0  0  0  0  0  0  0  0
    7.3933   -0.2064   -2.1246 H   0  0  0  0  0  0  0  0  0  0  0  0
    7.0488    0.8310    0.1315 H   0  0  0  0  0  0  0  0  0  0  0  0
    4.7439    1.0114    1.0873 H   0  0  0  0  0  0  0  0  0  0  0  0
    2.1143    0.7571    3.1027 H   0  0  0  0  0  0  0  0  0  0  0  0
    1.8479    2.9474    4.2532 H   0  0  0  0  0  0  0  0  0  0  0  0
    1.6126    5.0551    2.9192 H   0  0  0  0  0  0  0  0  0  0  0  0
    1.6305    4.9571    0.4109 H   0  0  0  0  0  0  0  0  0  0  0  0
    1.8570    2.7496   -0.7571 H   0  0  0  0  0  0  0  0  0  0  0  0
  1 29  1  0  0  0  0
  1  4  1  0  0  0  0
  2 13  1  0  0  0  0
  2  9  1  0  0  0  0
  3  9  1  0  0  0  0
  3  5  1  0  0  0  0
  4 35  1  1  0  0  0
  5  4  1  1  0  0  0
  5  6  1  0  0  0  0
  6  7  2  0  0  0  0
  6 36  1  0  0  0  0
  7 37  1  0  0  0  0
  8 38  1  0  0  0  0
  8  7  1  0  0  0  0
  9  8  2  0  0  0  0
 10  4  1  0  0  0  0
 10 11  1  0  0  0  0
 11 40  1  0  0  0  0
 11 41  1  0  0  0  0
 12 44  1  0  0  0  0
 12 10  1  0  0  0  0
 13 46  1  1  0  0  0
 14 13  1  0  0  0  0
 14 47  1  0  0  0  0
 15 14  1  0  0  0  0
 15 49  1  1  0  0  0
 16 17  1  0  0  0  0
 16 15  1  0  0  0  0
 17 18  1  0  0  0  0
 17 52  1  0  0  0  0
 18 54  1  6  0  0  0
 18 20  1  0  0  0  0
 18 13  1  0  0  0  0
 19 15  1  0  0  0  0
 19 55  1  0  0  0  0
 20 58  1  0  0  0  0
 20 21  1  0  0  0  0
 21 61  1  0  0  0  0
 21 60  1  0  0  0  0
 22 64  1  0  0  0  0
 22 20  1  0  0  0  0
 23 28  1  0  0  0  0
 23  1  1  0  0  0  0
 24 23  2  0  0  0  0
 25 24  1  0  0  0  0
 25 26  2  0  0  0  0
 26 27  1  0  0  0  0
 27 28  2  0  0  0  0
 27 68  1  0  0  0  0
 28 69  1  0  0  0  0
 29 30  1  0  0  0  0
 30 70  1  0  0  0  0
 30 31  2  0  0  0  0
 31 71  1  0  0  0  0
 32 72  1  0  0  0  0
 32 31  1  0  0  0  0
 33 32  2  0  0  0  0
 34 33  1  0  0  0  0
 34 29  2  0  0  0  0
 39 10  1  0  0  0  0
 42 11  1  0  0  0  0
 43 12  1  0  0  0  0
 45 12  1  0  0  0  0
 48 14  1  0  0  0  0
 50 16  1  0  0  0  0
 51 16  1  0  0  0  0
 53 17  1  0  0  0  0
 56 19  1  0  0  0  0
 57 19  1  0  0  0  0
 59 21  1  0  0  0  0
 62 22  1  0  0  0  0
 63 22  1  0  0  0  0
 65 24  1  0  0  0  0
 66 25  1  0  0  0  0
 67 26  1  0  0  0  0
 73 33  1  0  0  0  0
 74 34  1  0  0  0  0
M  END
