1,2
q = 0.0, confidence = 1.0

 52 55  0  0  1  0  0  0  0  0999 V2000
    1.6649    0.0855   -0.3381 P   0  0  0  0  0  0  0  0  0  0  0  0
   -1.0423    0.2130   -1.2613 N   0  0  0  0  0  2  0  0  0  0  0  0
    1.2414    0.3064   -2.1412 C   0  0  0  0  0  0  0  0  0  0  0  0
    1.9029    1.0121   -2.6825 H   0  0  0  0  0  0  0  0  0  0  0  0
    1.4101   -0.7066   -2.5669 H   0  0  0  0  0  0  0  0  0  0  0  0
   -0.2104    0.6900   -2.2392 C   0  0  2  0  0  3  0  0  0  0  0  0
   -0.6761    1.5364   -3.2523 C   0  0  0  0  0  0  0  0  0  0  0  0
    0.0226    1.8904   -4.0235 H   0  0  0  0  0  0  0  0  0  0  0  0
   -2.0230    1.9224   -3.2572 C   0  0  0  0  0  0  0  0  0  0  0  0
   -2.4142    2.5858   -4.0428 H   0  0  0  0  0  0  0  0  0  0  0  0
   -2.8443    1.4845   -2.2182 C   0  0  0  0  0  0  0  0  0  0  0  0
   -3.8894    1.8136   -2.1377 H   0  0  0  0  0  0  0  0  0  0  0  0
   -2.3365    0.6397   -1.2078 C   0  0  0  0  0  0  0  0  0  0  0  0
   -3.2091    0.3361   -0.0396 C   0  0  0  0  0  0  0  0  0  0  0  0
   -4.3812   -0.4474   -0.2206 C   0  0  0  0  0  0  0  0  0  0  0  0
   -5.2410   -0.6251    0.8753 C   0  0  0  0  0  0  0  0  0  0  0  0
   -6.1379   -1.2513    0.7511 H   0  0  0  0  0  0  0  0  0  0  0  0
   -4.9579   -0.0444    2.1181 C   0  0  0  0  0  0  0  0  0  0  0  0
   -5.6416   -0.1982    2.9668 H   0  0  0  0  0  0  0  0  0  0  0  0
   -3.8041    0.7288    2.2805 C   0  0  0  0  0  0  0  0  0  0  0  0
   -3.5811    1.1899    3.2552 H   0  0  0  0  0  0  0  0  0  0  0  0
   -2.9121    0.9377    1.2116 C   0  0  0  0  0  0  0  0  0  0  0  0
   -4.6392   -1.1832   -1.5091 C   0  0  0  0  0  0  0  0  0  0  0  0
   -3.8702   -1.9796   -1.6122 H   0  0  0  0  0  0  0  0  0  0  0  0
   -4.5703   -0.5369   -2.4065 H   0  0  0  0  0  0  0  0  0  0  0  0
   -5.6378   -1.6598   -1.5042 H   0  0  0  0  0  0  0  0  0  0  0  0
   -1.6736    1.7696    1.4355 C   0  0  0  0  0  0  0  0  0  0  0  0
   -1.8089    2.4605    2.2897 H   0  0  0  0  0  0  0  0  0  0  0  0
   -1.3863    2.3701    0.5496 H   0  0  0  0  0  0  0  0  0  0  0  0
   -0.8041    1.1172    1.6713 H   0  0  0  0  0  0  0  0  0  0  0  0
    3.3213   -0.6766   -0.3381 C   0  0  0  0  0  0  0  0  0  0  0  0
    4.4831    0.1220   -0.3281 C   0  0  0  0  0  0  0  0  0  0  0  0
    4.3997    1.2172   -0.2548 H   0  0  0  0  0  0  0  0  0  0  0  0
    5.7452   -0.4857   -0.4023 C   0  0  0  0  0  0  0  0  0  0  0  0
    6.6526    0.1371   -0.3906 H   0  0  0  0  0  0  0  0  0  0  0  0
    5.8489   -1.8835   -0.4858 C   0  0  0  0  0  0  0  0  0  0  0  0
    6.8407   -2.3580   -0.5385 H   0  0  0  0  0  0  0  0  0  0  0  0
    4.6903   -2.6777   -0.4895 C   0  0  0  0  0  0  0  0  0  0  0  0
    4.7715   -3.7739   -0.5381 H   0  0  0  0  0  0  0  0  0  0  0  0
    3.4242   -2.0813   -0.4097 C   0  0  0  0  0  0  0  0  0  0  0  0
    2.5121   -2.6955   -0.3655 H   0  0  0  0  0  0  0  0  0  0  0  0
    1.8568    1.7379    0.4047 C   0  0  0  0  0  0  0  0  0  0  0  0
    1.6936    2.9399   -0.3114 C   0  0  0  0  0  0  0  0  0  0  0  0
    1.5039    2.9255   -1.3948 H   0  0  0  0  0  0  0  0  0  0  0  0
    1.7624    4.1702    0.3624 C   0  0  0  0  0  0  0  0  0  0  0  0
    1.6322    5.1074   -0.1996 H   0  0  0  0  0  0  0  0  0  0  0  0
    1.9949    4.2048    1.7457 C   0  0  0  0  0  0  0  0  0  0  0  0
    2.0467    5.1707    2.2703 H   0  0  0  0  0  0  0  0  0  0  0  0
    2.1537    3.0056    2.4624 C   0  0  0  0  0  0  0  0  0  0  0  0
    2.3262    3.0299    3.5489 H   0  0  0  0  0  0  0  0  0  0  0  0
    2.0775    1.7741    1.8005 C   0  0  0  0  0  0  0  0  0  0  0  0
    2.1650    0.8284    2.3602 H   0  0  0  0  0  0  0  0  0  0  0  0
  1 42  1  0  0  0  0
  2 13  1  0  0  0  0
  3  1  1  0  0  0  0
  4  3  1  0  0  0  0
  5  3  1  0  0  0  0
  6  3  1  1  0  0  0
  6  2  1  0  0  0  0
  7  6  1  0  0  0  0
  8  7  1  0  0  0  0
  9  7  2  0  0  0  0
  9 11  1  0  0  0  0
 10  9  1  0  0  0  0
 11 12  1  0  0  0  0
 11 13  2  0  0  0  0
 13 14  1  0  0  0  0
 14 22  1  0  0  0  0
 15 14  2  0  0  0  0
 15 16  1  0  0  0  0
 16 18  2  0  0  0  0
 17 16  1  0  0  0  0
 18 20  1  0  0  0  0
 18 19  1  0  0  0  0
 20 21  1  0  0  0  0
 22 27  1  0  0  0  0
 22 20  2  0  0  0  0
 23 26  1  0  0  0  0
 23 15  1  0  0  0  0
 24 23  1  0  0  0  0
 25 23  1  0  0  0  0
 27 30  1  0  0  0  0
 27 28  1  0  0  0  0
 29 27  1  0  0  0  0
 31  1  1  0  0  0  0
 31 32  1  0  0  0  0
 32 33  1  0  0  0  0
 34 35  1  0  0  0  0
 34 32  2  0  0  0  0
 36 34  1  0  0  0  0
 37 36  1  0  0  0  0
 38 36  2  0  0  0  0
 38 40  1  0  0  0  0
 39 38  1  0  0  0  0
 40 41  1  0  0  0  0
 40 31  2  0  0  0  0
 42 51  1  0  0  0  0
 43 45  1  0  0  0  0
 43 42  2  0  0  0  0
 44 43  1  0  0  0  0
 45 47  2  0  0  0  0
 46 45  1  0  0  0  0
 47 48  1  0  0  0  0
 47 49  1  0  0  0  0
 49 50  1  0  0  0  0
 51 52  1  0  0  0  0
 51 49  2  0  0  0  0
M  END
