1,6
q = 0.0, confidence = 0.998

 39 40  0  0  0  0  0  0  0  0999 V2000
    0.2775    0.9990   -0.1426 P   0  0  2  0  0  0  0  0  0  0  0  0
    1.1134    1.4513    1.2665 O   0  0  0  0  0  0  0  0  0  0  0  0
    2.6309    1.1203    2.8754 O   0  0  0  0  0  0  0  0  0  0  0  0
    1.6729    0.8111   -1.1839 N   0  0  0  0  0  0  0  0  0  0  0  0
   -0.2920    2.5136   -0.6641 N   0  0  0  0  0  0  0  0  0  0  0  0
   -2.9113    0.8201    0.4694 N   0  0  0  0  0  0  0  0  0  0  0  0
    2.3084    0.9179    1.7254 C   0  0  0  0  0  0  0  0  0  0  0  0
    3.1039    0.1685    0.7255 C   0  0  0  0  0  0  0  0  0  0  0  0
    4.2506   -0.4985    1.2037 C   0  0  0  0  0  0  0  0  0  0  0  0
    4.4424   -0.4425    2.2851 H   0  0  0  0  0  0  0  0  0  0  0  0
    5.1045   -1.1886    0.3430 C   0  0  0  0  0  0  0  0  0  0  0  0
    5.9912   -1.7089    0.7323 H   0  0  0  0  0  0  0  0  0  0  0  0
    4.8088   -1.2032   -1.0308 C   0  0  0  0  0  0  0  0  0  0  0  0
    5.4638   -1.7443   -1.7307 H   0  0  0  0  0  0  0  0  0  0  0  0
    3.6791   -0.5502   -1.5327 C   0  0  0  0  0  0  0  0  0  0  0  0
    3.4703   -0.6008   -2.6078 H   0  0  0  0  0  0  0  0  0  0  0  0
    2.7986    0.1503   -0.6717 C   0  0  0  0  0  0  0  0  0  0  0  0
    1.3783    0.7171   -2.6103 C   0  0  0  0  0  0  0  0  0  0  0  0
    0.4572    1.2916   -2.8180 H   0  0  0  0  0  0  0  0  0  0  0  0
    1.2220   -0.3312   -2.9459 H   0  0  0  0  0  0  0  0  0  0  0  0
    2.2040    1.1645   -3.2002 H   0  0  0  0  0  0  0  0  0  0  0  0
    0.6427    3.6355   -0.7408 C   0  0  0  0  0  0  0  0  0  0  0  0
    1.6574    3.2588   -0.9660 H   0  0  0  0  0  0  0  0  0  0  0  0
    0.6860    4.2073    0.2136 H   0  0  0  0  0  0  0  0  0  0  0  0
    0.3321    4.3267   -1.5530 H   0  0  0  0  0  0  0  0  0  0  0  0
   -1.6538    2.9440   -0.3406 C   0  0  0  0  0  0  0  0  0  0  0  0
   -1.8970    3.7686   -1.0462 H   0  0  0  0  0  0  0  0  0  0  0  0
   -1.6862    3.4118    0.6730 H   0  0  0  0  0  0  0  0  0  0  0  0
   -2.8043    1.9536   -0.4950 C   0  0  0  0  0  0  0  0  0  0  0  0
   -3.7307    2.5709   -0.3980 H   0  0  0  0  0  0  0  0  0  0  0  0
   -2.8019    1.5242   -1.5154 H   0  0  0  0  0  0  0  0  0  0  0  0
   -4.2499    0.2166    0.2800 C   0  0  0  0  0  0  0  0  0  0  0  0
   -4.3761   -0.6324    0.9750 H   0  0  0  0  0  0  0  0  0  0  0  0
   -4.3460   -0.1594   -0.7551 H   0  0  0  0  0  0  0  0  0  0  0  0
   -5.0542    0.9673    0.4701 H   0  0  0  0  0  0  0  0  0  0  0  0
   -2.8012    1.3024    1.8630 C   0  0  0  0  0  0  0  0  0  0  0  0
   -3.0049    0.4615    2.5500 H   0  0  0  0  0  0  0  0  0  0  0  0
   -3.5340    2.1189    2.0669 H   0  0  0  0  0  0  0  0  0  0  0  0
   -1.7776    1.6657    2.0695 H   0  0  0  0  0  0  0  0  0  0  0  0
  1  5  1  6  0  0  0
  1  2  1  0  0  0  0
  2  7  1  0  0  0  0
  4 17  1  0  0  0  0
  4  1  1  0  0  0  0
  5 26  1  0  0  0  0
  6 36  1  0  0  0  0
  7  3  2  0  0  0  0
  8  9  1  0  0  0  0
  8  7  1  0  0  0  0
  9 10  1  0  0  0  0
 11 12  1  0  0  0  0
 11  9  2  0  0  0  0
 13 11  1  0  0  0  0
 14 13  1  0  0  0  0
 15 13  2  0  0  0  0
 15 17  1  0  0  0  0
 16 15  1  0  0  0  0
 17  8  2  0  0  0  0
 18  4  1  0  0  0  0
 19 18  1  0  0  0  0
 20 18  1  0  0  0  0
 21 18  1  0  0  0  0
 22  5  1  0  0  0  0
 22 24  1  0  0  0  0
 23 22  1  0  0  0  0
 25 22  1  0  0  0  0
 26 28  1  0  0  0  0
 27 26  1  0  0  0  0
 29 30  1  0  0  0  0
 29 26  1  0  0  0  0
 29  6  1  0  0  0  0
 31 29  1  0  0  0  0
 32  6  1  0  0  0  0
 32 35  1  0  0  0  0
 32 33  1  0  0  0  0
 34 32  1  0  0  0  0
 36 38  1  0  0  0  0
 36 39  1  0  0  0  0
 36 37  1  0  0  0  0
M  END
