2,3
q = 0.0, confidence = 0.888

 59 58  0  0  0  0  0  0  0  0999 V2000
   -1.0018    0.7808   -2.2922 S   0  0  0  0  0  0  0  0  0  0  0  0
    0.9527    0.1622   -0.2530 P   0  0  0  0  0  0  0  0  0  0  0  0
   -2.0500    0.3174   -1.1185 N   0  0  0  0  0  2  0  0  0  0  0  0
    0.4964    0.7631   -1.8359 N   0  0  0  0  0  2  0  0  0  0  0  0
    1.9775    1.4521    0.2544 N   0  0  0  0  0  0  0  0  0  0  0  0
    2.0763   -1.0981   -0.5793 N   0  0  0  0  0  0  0  0  0  0  0  0
   -3.4968    0.4071   -1.5432 C   0  0  0  0  0  0  0  0  0  0  0  0
   -4.1244   -0.9903   -1.3971 C   0  0  0  0  0  0  0  0  0  0  0  0
   -5.1862   -0.9549   -1.7125 H   0  0  0  0  0  0  0  0  0  0  0  0
   -3.5934   -1.7239   -2.0353 H   0  0  0  0  0  0  0  0  0  0  0  0
   -4.0841   -1.3442   -0.3525 H   0  0  0  0  0  0  0  0  0  0  0  0
   -3.6910    0.8719   -3.0020 C   0  0  0  0  0  0  0  0  0  0  0  0
   -3.2886    1.8899   -3.1789 H   0  0  0  0  0  0  0  0  0  0  0  0
   -3.2249    0.1778   -3.7304 H   0  0  0  0  0  0  0  0  0  0  0  0
   -4.7763    0.9020   -3.2175 H   0  0  0  0  0  0  0  0  0  0  0  0
   -4.1807    1.4268   -0.6138 C   0  0  0  0  0  0  0  0  0  0  0  0
   -3.6983    2.4200   -0.7079 H   0  0  0  0  0  0  0  0  0  0  0  0
   -5.2495    1.5263   -0.8897 H   0  0  0  0  0  0  0  0  0  0  0  0
   -4.1191    1.1103    0.4421 H   0  0  0  0  0  0  0  0  0  0  0  0
    1.7904   -2.4485   -0.0570 C   0  0  0  0  0  0  0  0  0  0  0  0
    0.7963   -2.3294    0.4163 H   0  0  0  0  0  0  0  0  0  0  0  0
    1.6290   -3.5258   -1.1352 C   0  0  0  0  0  0  0  0  0  0  0  0
    0.9214   -3.1992   -1.9218 H   0  0  0  0  0  0  0  0  0  0  0  0
    2.5923   -3.7861   -1.6183 H   0  0  0  0  0  0  0  0  0  0  0  0
    1.2260   -4.4517   -0.6784 H   0  0  0  0  0  0  0  0  0  0  0  0
    2.7252   -2.9025    1.0775 C   0  0  0  0  0  0  0  0  0  0  0  0
    2.8406   -2.1053    1.8378 H   0  0  0  0  0  0  0  0  0  0  0  0
    2.2807   -3.7820    1.5861 H   0  0  0  0  0  0  0  0  0  0  0  0
    3.7309   -3.1972    0.7235 H   0  0  0  0  0  0  0  0  0  0  0  0
    3.1943   -0.8016   -1.5033 C   0  0  0  0  0  0  0  0  0  0  0  0
    3.3049    0.3007   -1.4369 H   0  0  0  0  0  0  0  0  0  0  0  0
    4.5380   -1.4021   -1.0736 C   0  0  0  0  0  0  0  0  0  0  0  0
    4.7774   -1.1700   -0.0187 H   0  0  0  0  0  0  0  0  0  0  0  0
    4.5636   -2.5026   -1.2009 H   0  0  0  0  0  0  0  0  0  0  0  0
    5.3431   -0.9815   -1.7095 H   0  0  0  0  0  0  0  0  0  0  0  0
    2.8909   -1.1298   -2.9763 C   0  0  0  0  0  0  0  0  0  0  0  0
    1.9166   -0.6991   -3.2723 H   0  0  0  0  0  0  0  0  0  0  0  0
    3.6742   -0.6860   -3.6250 H   0  0  0  0  0  0  0  0  0  0  0  0
    2.8752   -2.2193   -3.1712 H   0  0  0  0  0  0  0  0  0  0  0  0
    2.6203    1.2046    1.5654 C   0  0  0  0  0  0  0  0  0  0  0  0
    2.4689    0.1216    1.7672 H   0  0  0  0  0  0  0  0  0  0  0  0
    4.1368    1.4368    1.5053 C   0  0  0  0  0  0  0  0  0  0  0  0
    4.5985    0.8584    0.6830 H   0  0  0  0  0  0  0  0  0  0  0  0
    4.3792    2.5083    1.3488 H   0  0  0  0  0  0  0  0  0  0  0  0
    4.6120    1.1305    2.4589 H   0  0  0  0  0  0  0  0  0  0  0  0
    1.9770    1.9766    2.7246 C   0  0  0  0  0  0  0  0  0  0  0  0
    0.8983    1.7502    2.8042 H   0  0  0  0  0  0  0  0  0  0  0  0
    2.4550    1.6974    3.6849 H   0  0  0  0  0  0  0  0  0  0  0  0
    2.0939    3.0730    2.6005 H   0  0  0  0  0  0  0  0  0  0  0  0
    2.0155    2.8376   -0.2656 C   0  0  0  0  0  0  0  0  0  0  0  0
    2.6610    3.3761    0.4601 H   0  0  0  0  0  0  0  0  0  0  0  0
    2.7188    2.9435   -1.6267 C   0  0  0  0  0  0  0  0  0  0  0  0
    2.8122    4.0066   -1.9298 H   0  0  0  0  0  0  0  0  0  0  0  0
    3.7392    2.5141   -1.5743 H   0  0  0  0  0  0  0  0  0  0  0  0
    2.1516    2.4047   -2.4091 H   0  0  0  0  0  0  0  0  0  0  0  0
    0.6677    3.5737   -0.2456 C   0  0  0  0  0  0  0  0  0  0  0  0
    0.2222    3.5681    0.7656 H   0  0  0  0  0  0  0  0  0  0  0  0
    0.8100    4.6306   -0.5502 H   0  0  0  0  0  0  0  0  0  0  0  0
   -0.0607    3.1240   -0.9470 H   0  0  0  0  0  0  0  0  0  0  0  0
  1  4  1  0  0  0  0
  1  3  1  0  0  0  0
  2  5  1  0  0  0  0
  4  2  1  0  0  0  0
  5 40  1  0  0  0  0
  6  2  1  0  0  0  0
  6 20  1  0  0  0  0
  7  8  1  0  0  0  0
  7  3  1  0  0  0  0
  7 16  1  0  0  0  0
  8 11  1  0  0  0  0
  9  8  1  0  0  0  0
 10  8  1  0  0  0  0
 12  7  1  0  0  0  0
 13 12  1  0  0  0  0
 14 12  1  0  0  0  0
 15 12  1  0  0  0  0
 16 19  1  0  0  0  0
 17 16  1  0  0  0  0
 18 16  1  0  0  0  0
 20 21  1  0  0  0  0
 20 26  1  0  0  0  0
 22 25  1  0  0  0  0
 22 20  1  0  0  0  0
 23 22  1  0  0  0  0
 24 22  1  0  0  0  0
 26 28  1  0  0  0  0
 26 27  1  0  0  0  0
 29 26  1  0  0  0  0
 30 31  1  0  0  0  0
 30 32  1  0  0  0  0
 30  6  1  0  0  0  0
 32 33  1  0  0  0  0
 34 32  1  0  0  0  0
 35 32  1  0  0  0  0
 36 30  1  0  0  0  0
 37 36  1  0  0  0  0
 38 36  1  0  0  0  0
 39 36  1  0  0  0  0
 40 41  1  0  0  0  0
 40 46  1  0  0  0  0
 42 40  1  0  0  0  0
 42 45  1  0  0  0  0
 43 42  1  0  0  0  0
 44 42  1  0  0  0  0
 46 47  1  0  0  0  0
 46 48  1  0  0  0  0
 49 46  1  0  0  0  0
 50 56  1  0  0  0  0
 50  5  1  0  0  0  0
 50 51  1  0  0  0  0
 52 54  1  0  0  0  0
 52 50  1  0  0  0  0
 53 52  1  0  0  0  0
 55 52  1  0  0  0  0
 56 57  1  0  0  0  0
 58 56  1  0  0  0  0
 59 56  1  0  0  0  0
M  END
