1,3
q = 0.0, confidence = 1.0

 45 46  0  0  0  0  0  0  0  0999 V2000
   -2.0109   -0.8580    0.3392 P   0  0  0  0  0  0  0  0  0  0  0  0
    4.6770   -1.2860   -0.2313 S   0  0  0  0  0  0  0  0  0  0  0  0
    0.3923   -0.5020   -1.2024 N   0  0  0  0  0  2  0  0  0  0  0  0
    1.5831   -0.2471   -1.6723 N   0  0  0  0  0  2  0  0  0  0  0  0
    2.2784   -1.3900   -1.5745 N   0  0  0  0  0  0  0  0  0  0  0  0
    1.5264   -2.3973   -1.0279 C   0  0  0  0  0  0  0  0  0  0  0  0
    1.9278   -3.3960   -0.8349 H   0  0  0  0  0  0  0  0  0  0  0  0
    0.2840   -1.8262   -0.8023 C   0  0  0  0  0  0  0  0  0  0  0  0
   -1.0142   -2.3362   -0.2689 C   0  0  0  0  0  0  0  0  0  0  0  0
   -0.8702   -3.0919    0.5290 H   0  0  0  0  0  0  0  0  0  0  0  0
   -1.6024   -2.8171   -1.0800 H   0  0  0  0  0  0  0  0  0  0  0  0
    3.7098   -1.3154   -1.7934 C   0  0  0  0  0  0  0  0  0  0  0  0
    3.8776   -0.4106   -2.4073 H   0  0  0  0  0  0  0  0  0  0  0  0
    4.0683   -2.2040   -2.3478 H   0  0  0  0  0  0  0  0  0  0  0  0
    3.8183   -0.0260    0.7087 C   0  0  0  0  0  0  0  0  0  0  0  0
    3.6261   -0.2817    2.0831 C   0  0  0  0  0  0  0  0  0  0  0  0
    3.9901   -1.2251    2.5180 H   0  0  0  0  0  0  0  0  0  0  0  0
    2.9635    0.6625    2.8803 C   0  0  0  0  0  0  0  0  0  0  0  0
    2.8259    0.4632    3.9541 H   0  0  0  0  0  0  0  0  0  0  0  0
    2.4413    1.8330    2.3049 C   0  0  0  0  0  0  0  0  0  0  0  0
    1.8822    2.5517    2.9226 H   0  0  0  0  0  0  0  0  0  0  0  0
    2.6162    2.0767    0.9341 C   0  0  0  0  0  0  0  0  0  0  0  0
    2.1653    2.9567    0.4522 H   0  0  0  0  0  0  0  0  0  0  0  0
    3.3365    1.1702    0.1417 C   0  0  0  0  0  0  0  0  0  0  0  0
    3.4683    1.3939   -0.9245 H   0  0  0  0  0  0  0  0  0  0  0  0
   -1.7879   -0.9088    2.1923 C   0  0  0  0  0  0  0  0  0  0  0  0
   -2.0123   -1.9590    2.4889 H   0  0  0  0  0  0  0  0  0  0  0  0
   -2.7550    0.0482    2.8983 C   0  0  0  0  0  0  0  0  0  0  0  0
   -2.5354    0.0630    3.9857 H   0  0  0  0  0  0  0  0  0  0  0  0
   -3.8132   -0.2563    2.7738 H   0  0  0  0  0  0  0  0  0  0  0  0
   -2.6514    1.0761    2.4953 H   0  0  0  0  0  0  0  0  0  0  0  0
   -0.3235   -0.5871    2.5169 C   0  0  0  0  0  0  0  0  0  0  0  0
   -0.0665    0.4410    2.1922 H   0  0  0  0  0  0  0  0  0  0  0  0
    0.3939   -1.2730    2.0228 H   0  0  0  0  0  0  0  0  0  0  0  0
   -0.1517   -0.6567    3.6107 H   0  0  0  0  0  0  0  0  0  0  0  0
   -3.7912   -1.2296   -0.0328 C   0  0  0  0  0  0  0  0  0  0  0  0
   -4.2947   -0.3509    0.4268 H   0  0  0  0  0  0  0  0  0  0  0  0
   -4.2912   -2.5289    0.6049 C   0  0  0  0  0  0  0  0  0  0  0  0
   -5.3724   -2.6624    0.3936 H   0  0  0  0  0  0  0  0  0  0  0  0
   -4.1661   -2.5383    1.7059 H   0  0  0  0  0  0  0  0  0  0  0  0
   -3.7682   -3.4174    0.1923 H   0  0  0  0  0  0  0  0  0  0  0  0
   -4.0280   -1.1587   -1.5456 C   0  0  0  0  0  0  0  0  0  0  0  0
   -3.4872   -1.9607   -2.0916 H   0  0  0  0  0  0  0  0  0  0  0  0
   -3.7010   -0.1798   -1.9479 H   0  0  0  0  0  0  0  0  0  0  0  0
   -5.1083   -1.2831   -1.7644 H   0  0  0  0  0  0  0  0  0  0  0  0
  1 26  1  0  0  0  0
  2 15  1  0  0  0  0
  3  8  1  0  0  0  0
  4  5  1  0  0  0  0
  4  3  1  0  0  0  0
  5  6  1  0  0  0  0
  6  7  1  0  0  0  0
  6  8  2  0  0  0  0
  8  9  1  0  0  0  0
  9  1  1  0  0  0  0
  9 10  1  0  0  0  0
 11  9  1  0  0  0  0
 12  5  1  0  0  0  0
 12  2  1  0  0  0  0
 13 12  1  0  0  0  0
 14 12  1  0  0  0  0
 15 16  1  0  0  0  0
 16 17  1  0  0  0  0
 16 18  2  0  0  0  0
 18 19  1  0  0  0  0
 20 18  1  0  0  0  0
 20 21  1  0  0  0  0
 22 20  2  0  0  0  0
 23 22  1  0  0  0  0
 24 15  2  0  0  0  0
 24 22  1  0  0  0  0
 25 24  1  0  0  0  0
 26 27  1  0  0  0  0
 26 32  1  0  0  0  0
 26 28  1  0  0  0  0
 28 29  1  0  0  0  0
 30 28  1  0  0  0  0
 31 28  1  0  0  0  0
 32 35  1  0  0  0  0
 33 32  1  0  0  0  0
 34 32  1  0  0  0  0
 36  1  1  0  0  0  0
 36 37  1  0  0  0  0
 36 38  1  0  0  0  0
 38 40  1  0  0  0  0
 39 38  1  0  0  0  0
 41 38  1  0  0  0  0
 42 36  1  0  0  0  0
 43 42  1  0  0  0  0
 44 42  1  0  0  0  0
 45 42  1  0  0  0  0
M  END
