1,5
q = -1.0, confidence = 0.016

 64 67  0  0  0  0  0  0  0  0999 V2000
    1.6896    0.0644    0.3773 P   0  0  0  0  0  0  0  0  0  0  0  0
   -1.2701    0.7898    2.9926 C   0  0  0  0  0  0  0  0  0  0  0  0
   -2.1822    1.4023    2.8526 H   0  0  0  0  0  0  0  0  0  0  0  0
   -1.5986   -0.1354    3.5182 H   0  0  0  0  0  0  0  0  0  0  0  0
   -1.2481    0.0273    0.5435 N   0  0  0  0  0  2  0  0  0  0  0  0
    2.8500   -1.3234    0.6791 C   0  0  0  0  0  0  0  0  0  0  0  0
    2.5871   -2.2155    1.7371 C   0  0  0  0  0  0  0  0  0  0  0  0
    1.7196   -2.0331    2.3905 H   0  0  0  0  0  0  0  0  0  0  0  0
    0.7756    0.4468    1.8374 C   0  0  0  0  0  0  0  0  0  0  0  0
   -0.6062    0.3979    1.6835 C   0  0  0  0  0  0  0  0  0  0  0  0
   -2.6648    0.1830    0.4523 C   0  0  0  0  0  0  0  0  0  0  0  0
    3.9476   -1.5532   -0.1758 C   0  0  0  0  0  0  0  0  0  0  0  0
    4.1516   -0.8642   -1.0099 H   0  0  0  0  0  0  0  0  0  0  0  0
   -3.4958   -0.9702    0.4544 C   0  0  0  0  0  0  0  0  0  0  0  0
    2.2916    2.4226   -1.0188 C   0  0  0  0  0  0  0  0  0  0  0  0
    1.3469    2.2243   -1.5502 H   0  0  0  0  0  0  0  0  0  0  0  0
    1.1838    0.9083    3.2162 C   0  0  0  0  0  0  0  0  0  0  0  0
    2.0106    1.6509    3.2055 H   0  0  0  0  0  0  0  0  0  0  0  0
    1.5331    0.0647    3.8584 H   0  0  0  0  0  0  0  0  0  0  0  0
    4.7783   -2.6626    0.0364 C   0  0  0  0  0  0  0  0  0  0  0  0
    5.6338   -2.8390   -0.6331 H   0  0  0  0  0  0  0  0  0  0  0  0
    2.7503    1.4945   -0.0613 C   0  0  0  0  0  0  0  0  0  0  0  0
   -4.6131    1.6140    0.2025 C   0  0  0  0  0  0  0  0  0  0  0  0
   -5.0608    2.6131    0.0956 H   0  0  0  0  0  0  0  0  0  0  0  0
    4.5184   -3.5478    1.0961 C   0  0  0  0  0  0  0  0  0  0  0  0
    5.1732   -4.4171    1.2599 H   0  0  0  0  0  0  0  0  0  0  0  0
   -2.8884   -2.3601    0.6062 C   0  0  0  0  0  0  0  0  0  0  0  0
   -1.8484   -2.2956    0.2178 H   0  0  0  0  0  0  0  0  0  0  0  0
   -1.8566    2.9068   -1.2592 C   0  0  0  0  0  0  0  0  0  0  0  0
   -1.3220    2.0063   -1.6322 H   0  0  0  0  0  0  0  0  0  0  0  0
   -1.1681    3.7732   -1.3467 H   0  0  0  0  0  0  0  0  0  0  0  0
   -2.7290    3.0882   -1.9206 H   0  0  0  0  0  0  0  0  0  0  0  0
   -4.8868   -0.7920    0.3336 C   0  0  0  0  0  0  0  0  0  0  0  0
   -5.5465   -1.6723    0.3340 H   0  0  0  0  0  0  0  0  0  0  0  0
   -2.9198    3.9917    0.7734 C   0  0  0  0  0  0  0  0  0  0  0  0
   -3.7794    4.3491    0.1693 H   0  0  0  0  0  0  0  0  0  0  0  0
   -2.1685    4.8072    0.7789 H   0  0  0  0  0  0  0  0  0  0  0  0
   -3.2762    3.8463    1.8136 H   0  0  0  0  0  0  0  0  0  0  0  0
   -0.1393    1.5157    3.7542 C   0  0  0  0  0  0  0  0  0  0  0  0
   -0.2400    1.4410    4.8552 H   0  0  0  0  0  0  0  0  0  0  0  0
   -0.1696    2.5940    3.4920 H   0  0  0  0  0  0  0  0  0  0  0  0
   -5.4449    0.4865    0.2173 C   0  0  0  0  0  0  0  0  0  0  0  0
   -6.5356    0.6060    0.1298 H   0  0  0  0  0  0  0  0  0  0  0  0
   -3.2159    1.4882    0.3092 C   0  0  0  0  0  0  0  0  0  0  0  0
    3.4220   -3.3237    1.9440 C   0  0  0  0  0  0  0  0  0  0  0  0
    3.2147   -4.0166    2.7737 H   0  0  0  0  0  0  0  0  0  0  0  0
    3.9582    1.7370    0.6260 C   0  0  0  0  0  0  0  0  0  0  0  0
    4.3249    1.0105    1.3676 H   0  0  0  0  0  0  0  0  0  0  0  0
    4.2380    3.8203   -0.6001 C   0  0  0  0  0  0  0  0  0  0  0  0
    4.8225    4.7281   -0.8135 H   0  0  0  0  0  0  0  0  0  0  0  0
   -2.3048    2.7085    0.2007 C   0  0  0  0  0  0  0  0  0  0  0  0
   -1.3861    2.4967    0.7855 H   0  0  0  0  0  0  0  0  0  0  0  0
    4.6970    2.8985    0.3550 C   0  0  0  0  0  0  0  0  0  0  0  0
    5.6395    3.0838    0.8925 H   0  0  0  0  0  0  0  0  0  0  0  0
   -3.6223   -3.4382   -0.2018 C   0  0  0  0  0  0  0  0  0  0  0  0
   -4.6369   -3.6428    0.1991 H   0  0  0  0  0  0  0  0  0  0  0  0
   -3.0611   -4.3938   -0.1633 H   0  0  0  0  0  0  0  0  0  0  0  0
   -3.7303   -3.1457   -1.2653 H   0  0  0  0  0  0  0  0  0  0  0  0
    3.0358    3.5806   -1.2859 C   0  0  0  0  0  0  0  0  0  0  0  0
    2.6766    4.2980   -2.0394 H   0  0  0  0  0  0  0  0  0  0  0  0
   -2.7848   -2.7543    2.0905 C   0  0  0  0  0  0  0  0  0  0  0  0
   -2.1815   -2.0207    2.6600 H   0  0  0  0  0  0  0  0  0  0  0  0
   -2.3070   -3.7496    2.2030 H   0  0  0  0  0  0  0  0  0  0  0  0
   -3.7906   -2.8009    2.5582 H   0  0  0  0  0  0  0  0  0  0  0  0
  1  6  1  0  0  0  0
  1  9  1  0  0  0  0
  2  4  1  0  0  0  0
  2 39  1  0  0  0  0
  3  2  1  0  0  0  0
  5 10  1  0  0  0  0
  6  7  1  0  0  0  0
  7 45  2  0  0  0  0
  7  8  1  0  0  0  0
  9 17  1  0  0  0  0
 10  9  2  0  0  0  0
 10  2  1  0  0  0  0
 11 14  1  0  0  0  0
 11  5  1  0  0  0  0
 12 20  1  0  0  0  0
 12  6  2  0  0  0  0
 13 12  1  0  0  0  0
 14 27  1  0  0  0  0
 15 22  1  0  0  0  0
 16 15  1  0  0  0  0
 17 39  1  0  0  0  0
 17 19  1  0  0  0  0
 18 17  1  0  0  0  0
 20 25  2  0  0  0  0
 21 20  1  0  0  0  0
 22  1  1  0  0  0  0
 22 47  2  0  0  0  0
 23 42  2  0  0  0  0
 23 44  1  0  0  0  0
 24 23  1  0  0  0  0
 25 26  1  0  0  0  0
 25 45  1  0  0  0  0
 27 61  1  0  0  0  0
 28 27  1  0  0  0  0
 29 51  1  0  0  0  0
 30 29  1  0  0  0  0
 31 29  1  0  0  0  0
 32 29  1  0  0  0  0
 33 34  1  0  0  0  0
 33 14  2  0  0  0  0
 35 37  1  0  0  0  0
 35 38  1  0  0  0  0
 36 35  1  0  0  0  0
 39 40  1  0  0  0  0
 41 39  1  0  0  0  0
 42 33  1  0  0  0  0
 43 42  1  0  0  0  0
 44 11  2  0  0  0  0
 45 46  1  0  0  0  0
 47 48  1  0  0  0  0
 49 53  2  0  0  0  0
 50 49  1  0  0  0  0
 51 44  1  0  0  0  0
 51 35  1  0  0  0  0
 51 52  1  0  0  0  0
 53 47  1  0  0  0  0
 53 54  1  0  0  0  0
 55 57  1  0  0  0  0
 55 56  1  0  0  0  0
 55 27  1  0  0  0  0
 58 55  1  0  0  0  0
 59 15  2  0  0  0  0
 59 49  1  0  0  0  0
 60 59  1  0  0  0  0
 61 63  1  0  0  0  0
 61 64  1  0  0  0  0
 61 62  1  0  0  0  0
M  END
