1,11
q = 0.0, confidence = 0.996

 36 36  0  0  0  0  0  0  0  0999 V2000
    0.6180   -0.2574    0.4069 P   0  0  0  0  0  0  0  0  0  0  0  0
   -1.5327   -0.1220    3.1210 C   0  0  0  0  0  0  0  0  0  0  0  0
   -1.7468   -1.2086    3.0455 H   0  0  0  0  0  0  0  0  0  0  0  0
   -1.9713    0.2310    4.0817 H   0  0  0  0  0  0  0  0  0  0  0  0
   -0.0188    0.1097    3.1708 C   0  0  0  0  0  0  0  0  0  0  0  0
    0.1904    1.1957    3.0416 H   0  0  0  0  0  0  0  0  0  0  0  0
    0.3107   -0.1320    4.2033 H   0  0  0  0  0  0  0  0  0  0  0  0
    0.8299   -0.7181    2.1935 C   0  0  0  0  0  0  0  0  0  0  0  0
    0.5321   -1.7873    2.2492 H   0  0  0  0  0  0  0  0  0  0  0  0
    1.9018   -0.6759    2.4777 H   0  0  0  0  0  0  0  0  0  0  0  0
   -2.2043    0.5429    1.9828 N   0  0  0  0  0  0  0  0  0  0  0  0
   -3.2194    0.4069    2.0686 H   0  0  0  0  0  0  0  0  0  0  0  0
   -2.0609    1.5596    2.0528 H   0  0  0  0  0  0  0  0  0  0  0  0
    1.5533   -1.6017   -0.4762 C   0  0  0  0  0  0  0  0  0  0  0  0
    0.9555   -2.5267   -0.3254 H   0  0  0  0  0  0  0  0  0  0  0  0
    1.4532   -1.3564   -1.5555 H   0  0  0  0  0  0  0  0  0  0  0  0
    3.0185   -1.8022   -0.0927 C   0  0  0  0  0  0  0  0  0  0  0  0
    3.1009   -2.1107    0.9737 H   0  0  0  0  0  0  0  0  0  0  0  0
    3.5646   -0.8363   -0.1787 H   0  0  0  0  0  0  0  0  0  0  0  0
    3.7297   -2.8560   -0.9637 C   0  0  0  0  0  0  0  0  0  0  0  0
    3.1828   -3.8220   -0.8865 H   0  0  0  0  0  0  0  0  0  0  0  0
    3.6457   -2.5536   -2.0313 H   0  0  0  0  0  0  0  0  0  0  0  0
    5.1350   -3.0959   -0.6618 N   0  0  0  0  0  0  0  0  0  0  0  0
    5.6613   -2.2149   -0.7366 H   0  0  0  0  0  0  0  0  0  0  0  0
    5.2355   -3.3919    0.3185 H   0  0  0  0  0  0  0  0  0  0  0  0
    1.7146    1.2041    0.1546 C   0  0  0  0  0  0  0  0  0  0  0  0
    2.5386    1.7607    1.1531 C   0  0  0  0  0  0  0  0  0  0  0  0
    2.5678    1.3245    2.1625 H   0  0  0  0  0  0  0  0  0  0  0  0
    3.3385    2.8809    0.8720 C   0  0  0  0  0  0  0  0  0  0  0  0
    3.9722    3.3099    1.6634 H   0  0  0  0  0  0  0  0  0  0  0  0
    3.3340    3.4480   -0.4108 C   0  0  0  0  0  0  0  0  0  0  0  0
    3.9618    4.3249   -0.6294 H   0  0  0  0  0  0  0  0  0  0  0  0
    2.5203    2.8949   -1.4137 C   0  0  0  0  0  0  0  0  0  0  0  0
    2.5068    3.3367   -2.4215 H   0  0  0  0  0  0  0  0  0  0  0  0
    1.7097    1.7877   -1.1316 C   0  0  0  0  0  0  0  0  0  0  0  0
    1.0548    1.3732   -1.9146 H   0  0  0  0  0  0  0  0  0  0  0  0
  1  8  1  0  0  0  0
  2  5  1  0  0  0  0
  2  4  1  0  0  0  0
  3  2  1  0  0  0  0
  5  7  1  0  0  0  0
  6  5  1  0  0  0  0
  8  9  1  0  0  0  0
  8 10  1  0  0  0  0
  8  5  1  0  0  0  0
 11 13  1  0  0  0  0
 11 12  1  0  0  0  0
 11  2  1  0  0  0  0
 14 15  1  0  0  0  0
 14 17  1  0  0  0  0
 14  1  1  0  0  0  0
 16 14  1  0  0  0  0
 17 18  1  0  0  0  0
 19 17  1  0  0  0  0
 20 21  1  0  0  0  0
 20 23  1  0  0  0  0
 20 17  1  0  0  0  0
 22 20  1  0  0  0  0
 23 25  1  0  0  0  0
 24 23  1  0  0  0  0
 26  1  1  0  0  0  0
 26 27  1  0  0  0  0
 27 28  1  0  0  0  0
 29 27  2  0  0  0  0
 29 30  1  0  0  0  0
 31 29  1  0  0  0  0
 32 31  1  0  0  0  0
 33 35  1  0  0  0  0
 33 31  2  0  0  0  0
 34 33  1  0  0  0  0
 35 26  2  0  0  0  0
 36 35  1  0  0  0  0
M  END
