1,2
q = 0.0, confidence = 1.0

 37 38  0  0  0  0  0  0  0  0999 V2000
   -1.1880   -1.3443    0.0089 P   0  0  0  0  0  0  0  0  0  0  0  0
   -1.1280    1.6172    0.0943 N   0  0  0  0  0  2  0  0  0  0  0  0
   -2.6617   -0.2546   -0.2078 C   0  0  0  0  0  0  0  0  0  0  0  0
   -3.9563   -0.7049   -0.4633 C   0  0  0  0  0  0  0  0  0  0  0  0
   -4.1427   -1.7818   -0.5890 H   0  0  0  0  0  0  0  0  0  0  0  0
   -5.0461    0.1973   -0.5672 C   0  0  0  0  0  0  0  0  0  0  0  0
   -6.0558   -0.1899   -0.7697 H   0  0  0  0  0  0  0  0  0  0  0  0
   -4.8393    1.5575   -0.4004 C   0  0  0  0  0  3  0  0  0  0  0  0
   -5.6790    2.2668   -0.4611 H   0  0  0  0  0  0  0  0  0  0  0  0
   -3.5322    2.0678   -0.1549 C   0  0  0  0  0  0  0  0  0  0  0  0
   -3.2756    3.4577    0.0170 C   0  0  0  0  0  0  0  0  0  0  0  0
   -4.1130    4.1710   -0.0281 H   0  0  0  0  0  0  0  0  0  0  0  0
   -1.9770    3.8819    0.2364 C   0  0  0  0  0  0  0  0  0  0  0  0
   -1.7333    4.9441    0.3798 H   0  0  0  0  0  0  0  0  0  0  0  0
   -0.9305    2.9289    0.2584 C   0  0  0  0  0  0  0  0  0  0  0  0
    0.1180    3.2381    0.3912 H   0  0  0  0  0  0  0  0  0  0  0  0
   -2.4226    1.1533   -0.0833 C   0  0  0  0  0  0  0  0  0  0  0  0
   -1.4990   -2.2764    1.6064 C   0  0  0  0  0  0  0  0  0  0  0  0
   -0.5756   -2.8947    1.6784 H   0  0  0  0  0  0  0  0  0  0  0  0
   -2.7243   -3.1914    1.6245 C   0  0  0  0  0  0  0  0  0  0  0  0
   -2.7479   -3.7762    2.5681 H   0  0  0  0  0  0  0  0  0  0  0  0
   -2.7294   -3.9172    0.7869 H   0  0  0  0  0  0  0  0  0  0  0  0
   -3.6650   -2.6052    1.5828 H   0  0  0  0  0  0  0  0  0  0  0  0
   -1.4965   -1.2740    2.7667 C   0  0  0  0  0  0  0  0  0  0  0  0
   -2.3835   -0.6078    2.7207 H   0  0  0  0  0  0  0  0  0  0  0  0
   -0.5915   -0.6333    2.7392 H   0  0  0  0  0  0  0  0  0  0  0  0
   -1.5263   -1.8069    3.7395 H   0  0  0  0  0  0  0  0  0  0  0  0
   -1.3183   -2.5973   -1.3718 C   0  0  0  0  0  0  0  0  0  0  0  0
   -2.3482   -3.0189   -1.3452 H   0  0  0  0  0  0  0  0  0  0  0  0
   -1.1010   -1.8713   -2.7051 C   0  0  0  0  0  0  0  0  0  0  0  0
   -0.0905   -1.4155   -2.7355 H   0  0  0  0  0  0  0  0  0  0  0  0
   -1.8429   -1.0631   -2.8639 H   0  0  0  0  0  0  0  0  0  0  0  0
   -1.1867   -2.5864   -3.5494 H   0  0  0  0  0  0  0  0  0  0  0  0
   -0.3020   -3.7284   -1.1626 C   0  0  0  0  0  0  0  0  0  0  0  0
   -0.3601   -4.4425   -2.0101 H   0  0  0  0  0  0  0  0  0  0  0  0
   -0.4891   -4.3008   -0.2326 H   0  0  0  0  0  0  0  0  0  0  0  0
    0.7334   -3.3349   -1.1184 H   0  0  0  0  0  0  0  0  0  0  0  0
  1 18  1  0  0  0  0
  2 15  1  0  0  0  0
  3 17  2  0  0  0  0
  3  1  1  0  0  0  0
  4  3  1  0  0  0  0
  5  4  1  0  0  0  0
  6  4  2  0  0  0  0
  6  8  1  0  0  0  0
  7  6  1  0  0  0  0
  8 10  1  0  0  0  0
  9  8  1  0  0  0  0
 10 17  1  0  0  0  0
 10 11  2  0  0  0  0
 11 13  1  0  0  0  0
 12 11  1  0  0  0  0
 13 15  2  0  0  0  0
 13 14  1  0  0  0  0
 15 16  1  0  0  0  0
 17  2  1  0  0  0  0
 18 20  1  0  0  0  0
 18 19  1  0  0  0  0
 18 24  1  0  0  0  0
 20 21  1  0  0  0  0
 22 20  1  0  0  0  0
 23 20  1  0  0  0  0
 24 27  1  0  0  0  0
 25 24  1  0  0  0  0
 26 24  1  0  0  0  0
 28 29  1  0  0  0  0
 28 34  1  0  0  0  0
 28  1  1  0  0  0  0
 30 28  1  0  0  0  0
 31 30  1  0  0  0  0
 32 30  1  0  0  0  0
 33 30  1  0  0  0  0
 34 37  1  0  0  0  0
 34 36  1  0  0  0  0
 35 34  1  0  0  0  0
M  END
