1,2,3
q = -2.0, confidence = 0.916

 25 26  0  0  0  0  0  0  0  0999 V2000
    2.6673   -0.3344   -0.2394 N   0  0  0  0  0  2  0  0  0  0  0  0
    0.6139   -2.4416    0.1558 S   0  0  0  0  0  1  0  0  0  0  0  0
    0.7503    1.9108   -0.7076 O   0  5  0  0  0  0  0  0  0  0  0  0
    1.7870    2.6382   -0.4290 C   0  0  0  0  0  0  0  0  0  0  0  0
    1.6525    4.0612   -0.5045 C   0  0  0  0  0  0  0  0  0  0  0  0
    2.7008    4.9104   -0.1821 C   0  0  0  0  0  0  0  0  0  0  0  0
    3.9612    4.3978    0.2242 C   0  0  0  0  0  0  0  0  0  0  0  0
    4.1359    3.0261    0.2831 C   0  0  0  0  0  0  0  0  0  0  0  0
    3.0838    2.1095   -0.0401 C   0  0  0  0  0  0  0  0  0  0  0  0
    3.4263    0.7276   -0.0098 C   0  0  0  0  0  3  0  0  0  0  0  0
    3.2418   -1.6434   -0.2087 C   0  0  0  0  0  0  0  0  0  0  0  0
    4.6153   -1.8918   -0.4088 C   0  0  0  0  0  0  0  0  0  0  0  0
    5.1199   -3.1969   -0.3352 C   0  0  0  0  0  0  0  0  0  0  0  0
    4.2550   -4.2718   -0.0683 C   0  0  0  0  0  0  0  0  0  0  0  0
    2.8835   -4.0397    0.0979 C   0  0  0  0  0  0  0  0  0  0  0  0
    2.3613   -2.7358    0.0070 C   0  0  0  0  0  0  0  0  0  0  0  0
    0.6709    4.4526   -0.8078 H   0  0  0  0  0  0  0  0  0  0  0  0
    2.5491    5.9999   -0.2378 H   0  0  0  0  0  0  0  0  0  0  0  0
    4.7843    5.0796    0.4807 H   0  0  0  0  0  0  0  0  0  0  0  0
    5.1102    2.6066    0.5815 H   0  0  0  0  0  0  0  0  0  0  0  0
    4.4819    0.5264    0.2530 H   0  0  0  0  0  0  0  0  0  0  0  0
    5.2995   -1.0658   -0.6509 H   0  0  0  0  0  0  0  0  0  0  0  0
    6.1928   -3.3739   -0.5010 H   0  0  0  0  0  0  0  0  0  0  0  0
    4.6479   -5.2981   -0.0120 H   0  0  0  0  0  0  0  0  0  0  0  0
    2.1906   -4.8742    0.2844 H   0  0  0  0  0  0  0  0  0  0  0  0
  1 11  1  0  0  0  0
  1 10  1  0  0  0  0
  3  4  1  0  0  0  0
  4  9  1  0  0  0  0
  5  4  2  0  0  0  0
  5  6  1  0  0  0  0
  6  7  2  0  0  0  0
  7  8  1  0  0  0  0
  7 19  1  0  0  0  0
  8 20  1  0  0  0  0
  9 10  1  0  0  0  0
  9  8  2  0  0  0  0
 10 21  1  0  0  0  0
 11 16  1  0  0  0  0
 12 13  1  0  0  0  0
 12 11  2  0  0  0  0
 13 14  2  0  0  0  0
 14 24  1  0  0  0  0
 14 15  1  0  0  0  0
 15 25  1  0  0  0  0
 16 15  2  0  0  0  0
 16  2  1  0  0  0  0
 17  5  1  0  0  0  0
 18  6  1  0  0  0  0
 22 12  1  0  0  0  0
 23 13  1  0  0  0  0
M  CHG  1   3  -1
M  END
