1,3,4
q = -2.0, confidence = 0.902

 22 22  0  0  0  0  0  0  0  0999 V2000
    0.7180   -2.3959   -0.0461 S   0  0  0  0  0  1  0  0  0  0  0  0
    3.0240   -4.2660    0.0442 S   0  0  0  0  0  0  0  0  0  0  0  0
    1.0239    2.0151   -0.3089 O   0  5  0  0  0  0  0  0  0  0  0  0
    2.8019   -0.3537   -0.1171 N   0  0  0  0  0  2  0  0  0  0  0  0
    3.3557   -1.6254   -0.0567 N   0  0  0  0  0  0  0  0  0  0  0  0
    2.1504    2.6586   -0.1824 C   0  0  0  0  0  0  0  0  0  0  0  0
    2.1043    4.0863   -0.2011 C   0  0  0  0  0  0  0  0  0  0  0  0
    1.1164    4.5522   -0.3269 H   0  0  0  0  0  0  0  0  0  0  0  0
    3.2520    4.8565   -0.0629 C   0  0  0  0  0  0  0  0  0  0  0  0
    3.1695    5.9546   -0.0755 H   0  0  0  0  0  0  0  0  0  0  0  0
    4.5231    4.2495    0.0946 C   0  0  0  0  0  0  0  0  0  0  0  0
    5.4266    4.8656    0.2051 H   0  0  0  0  0  0  0  0  0  0  0  0
    4.6068    2.8663    0.1028 C   0  0  0  0  0  0  0  0  0  0  0  0
    5.5849    2.3731    0.2189 H   0  0  0  0  0  0  0  0  0  0  0  0
    3.4512    2.0342   -0.0319 C   0  0  0  0  0  0  0  0  0  0  0  0
    3.6870    0.6291   -0.0326 C   0  0  0  0  0  3  0  0  0  0  0  0
    4.7358    0.2888    0.0505 H   0  0  0  0  0  0  0  0  0  0  0  0
    2.4965   -2.5999   -0.0383 C   0  0  0  0  0  0  0  0  0  0  0  0
    4.8297   -4.0612    0.0945 C   0  0  0  0  0  0  0  0  0  0  0  0
    5.2510   -5.0825    0.1530 H   0  0  0  0  0  0  0  0  0  0  0  0
    5.1233   -3.4712    0.9826 H   0  0  0  0  0  0  0  0  0  0  0  0
    5.1847   -3.5498   -0.8196 H   0  0  0  0  0  0  0  0  0  0  0  0
  1 18  1  0  0  0  0
  2 19  1  0  0  0  0
  3  6  1  0  0  0  0
  4  5  1  0  0  0  0
  4 16  1  0  0  0  0
  5 18  2  0  0  0  0
  6 15  1  0  0  0  0
  7  6  2  0  0  0  0
  7  9  1  0  0  0  0
  8  7  1  0  0  0  0
  9 11  2  0  0  0  0
 10  9  1  0  0  0  0
 11 13  1  0  0  0  0
 11 12  1  0  0  0  0
 13 14  1  0  0  0  0
 15 13  2  0  0  0  0
 16 15  1  0  0  0  0
 16 17  1  0  0  0  0
 18  2  1  0  0  0  0
 19 20  1  0  0  0  0
 19 21  1  0  0  0  0
 22 19  1  0  0  0  0
M  CHG  1   3  -1
M  END
