1,2,4
q = -1.0

 36 37  0  0  1  0  0  0  0  0999 V2000
   -2.3658    2.2755    0.1087 S   0  0  0  0  0  1  0  0  0  0  0  0
    0.9314   -0.5321    0.0074 O   0  5  0  0  0  0  0  0  0  0  0  0
    8.5837   -0.7117   -0.0180 O   0  0  0  0  0  0  0  0  0  0  0  0
    0.5518    2.4138    0.2066 N   0  0  0  0  0  2  0  0  0  0  0  0
    0.0193    3.6466    0.2904 N   0  0  0  0  0  0  0  0  0  0  0  0
    3.0604   -1.2125   -0.0684 N   0  0  0  0  0  0  0  0  0  0  0  0
    2.6350   -2.1446   -0.1533 H   0  0  0  0  0  0  0  0  0  0  0  0
   -1.9207    4.8901    0.3822 N   0  0  0  0  0  0  0  0  0  0  0  0
   -2.9385    4.8925    0.2961 H   0  0  0  0  0  0  0  0  0  0  0  0
    1.8686    2.3446    0.2280 C   0  0  0  0  0  3  0  0  0  0  0  0
    2.3921    3.3132    0.3192 H   0  0  0  0  0  0  0  0  0  0  0  0
    2.6903    1.1623    0.1378 C   0  0  0  0  0  0  0  0  0  0  0  0
    2.1532   -0.1909    0.0262 C   0  0  0  0  0  0  0  0  0  0  0  0
    4.4349   -1.0909   -0.0575 C   0  0  1  0  0  3  0  0  0  0  0  0
    4.9887    0.2200    0.0620 C   0  0  0  0  0  0  0  0  0  0  0  0
    4.0815    1.3116    0.1554 C   0  0  0  0  0  0  0  0  0  0  0  0
    4.4971    2.3279    0.2433 H   0  0  0  0  0  0  0  0  0  0  0  0
    5.2820   -2.2161   -0.1601 C   0  0  0  0  0  0  0  0  0  0  0  0
    4.8515   -3.2244   -0.2534 H   0  0  0  0  0  0  0  0  0  0  0  0
    6.6576   -2.0397   -0.1423 C   0  0  0  0  0  0  0  0  0  0  0  0
    7.3405   -2.8977   -0.2202 H   0  0  0  0  0  0  0  0  0  0  0  0
    7.2355   -0.7399   -0.0225 C   0  0  0  0  0  0  0  0  0  0  0  0
    6.4028    0.3794    0.0784 C   0  0  0  0  0  0  0  0  0  0  0  0
    6.8126    1.3934    0.1708 H   0  0  0  0  0  0  0  0  0  0  0  0
    9.2385    0.5447    0.0977 C   0  0  0  0  0  0  0  0  0  0  0  0
    8.9836    1.2154   -0.7519 H   0  0  0  0  0  0  0  0  0  0  0  0
   10.3222    0.3326    0.0801 H   0  0  0  0  0  0  0  0  0  0  0  0
    8.9806    1.0507    1.0539 H   0  0  0  0  0  0  0  0  0  0  0  0
   -1.3077    3.6909    0.2732 C   0  0  0  0  0  0  0  0  0  0  0  0
   -1.2153    6.1701    0.4057 C   0  0  0  0  0  0  0  0  0  0  0  0
   -0.3021    6.0295    1.0164 H   0  0  0  0  0  0  0  0  0  0  0  0
   -1.8664    6.8913    0.9396 H   0  0  0  0  0  0  0  0  0  0  0  0
   -0.8496    6.6868   -0.9859 C   0  0  0  0  0  0  0  0  0  0  0  0
   -0.1705    5.9760   -1.4966 H   0  0  0  0  0  0  0  0  0  0  0  0
   -0.3311    7.6630   -0.9063 H   0  0  0  0  0  0  0  0  0  0  0  0
   -1.7497    6.8294   -1.6171 H   0  0  0  0  0  0  0  0  0  0  0  0
  1 29  1  0  0  0  0
  2 13  1  0  0  0  0
  3 25  1  0  0  0  0
  4 10  1  0  0  0  0
  4  5  1  0  0  0  0
  6 14  1  0  0  0  0
  6 13  1  0  0  0  0
  7  6  1  0  0  0  0
  8 30  1  0  0  0  0
  9  8  1  0  0  0  0
 10 11  1  0  0  0  0
 12 16  1  0  0  0  0
 12 10  1  0  0  0  0
 13 12  2  0  0  0  0
 14 18  1  1  0  0  0
 14 15  1  0  0  0  0
 15 23  1  0  0  0  0
 15 16  2  0  0  0  0
 16 17  1  0  0  0  0
 18 20  2  0  0  0  0
 19 18  1  0  0  0  0
 20 22  1  0  0  0  0
 21 20  1  0  0  0  0
 22  3  1  0  0  0  0
 22 23  2  0  0  0  0
 23 24  1  0  0  0  0
 25 28  1  0  0  0  0
 26 25  1  0  0  0  0
 27 25  1  0  0  0  0
 29  5  2  0  0  0  0
 29  8  1  0  0  0  0
 30 32  1  0  0  0  0
 30 31  1  0  0  0  0
 33 35  1  0  0  0  0
 33 30  1  0  0  0  0
 34 33  1  0  0  0  0
 36 33  1  0  0  0  0
M  CHG  1   2  -1
M  END
