1,2,3
q = -1.0

 45 47  0  0  0  0  0  0  0  0999 V2000
    2.1236   -1.2405    0.1233 S   0  0  0  0  0  1  0  0  0  0  0  0
   -2.3270   -1.7224   -0.1833 O   0  5  0  0  0  0  0  0  0  0  0  0
   -0.3320    0.2145   -0.0221 N   0  0  0  0  0  2  0  0  0  0  0  0
    0.6554    1.0933    0.0601 N   0  0  0  0  0  0  0  0  0  0  0  0
   -3.8331    0.0869   -0.2821 N   0  0  0  0  0  0  0  0  0  0  0  0
    2.9258    1.3278    0.2549 N   0  0  0  0  0  0  0  0  0  0  0  0
    2.7058    2.3270    0.2092 H   0  0  0  0  0  0  0  0  0  0  0  0
   -2.5849   -0.4909   -0.1932 C   0  0  0  0  0  0  0  0  0  0  0  0
   -1.6061    0.5974   -0.1155 C   0  0  0  0  0  0  0  0  0  0  0  0
   -2.3209    1.8507   -0.1610 C   0  0  0  0  0  0  0  0  0  0  0  0
   -3.7049    1.4944   -0.2605 C   0  0  0  0  0  0  0  0  0  0  0  0
   -1.9427    3.2019   -0.1331 C   0  0  0  0  0  0  0  0  0  0  0  0
   -0.8790    3.4644   -0.0570 H   0  0  0  0  0  0  0  0  0  0  0  0
   -2.9479    4.1821   -0.2056 C   0  0  0  0  0  0  0  0  0  0  0  0
   -2.6723    5.2467   -0.1849 H   0  0  0  0  0  0  0  0  0  0  0  0
   -4.3032    3.8179   -0.3028 C   0  0  0  0  0  0  0  0  0  0  0  0
   -5.0734    4.6020   -0.3551 H   0  0  0  0  0  0  0  0  0  0  0  0
   -4.7038    2.4656   -0.3307 C   0  0  0  0  0  0  0  0  0  0  0  0
   -5.7652    2.1902   -0.3909 H   0  0  0  0  0  0  0  0  0  0  0  0
   -5.0721   -0.6714   -0.3764 C   0  0  0  0  0  0  0  0  0  0  0  0
   -4.7567   -1.7260   -0.5275 H   0  0  0  0  0  0  0  0  0  0  0  0
   -5.6344   -0.3519   -1.2800 H   0  0  0  0  0  0  0  0  0  0  0  0
   -5.9304   -0.5553    0.8566 C   0  0  0  0  0  0  0  0  0  0  0  0
   -5.4264   -0.7977    1.8090 H   0  0  0  0  0  0  0  0  0  0  0  0
   -7.2272   -0.2076    0.8464 C   0  0  0  0  0  0  0  0  0  0  0  0
   -7.7489    0.0389   -0.0942 H   0  0  0  0  0  0  0  0  0  0  0  0
   -7.8200   -0.1680    1.7728 H   0  0  0  0  0  0  0  0  0  0  0  0
    1.8659    0.5014    0.1442 C   0  0  0  0  0  0  0  0  0  0  0  0
    4.3227    0.9169    0.2963 C   0  0  0  0  0  0  0  0  0  0  0  0
    4.3442   -0.0646    0.8235 H   0  0  0  0  0  0  0  0  0  0  0  0
    4.9107    0.7150   -1.1138 C   0  0  0  0  0  0  0  0  0  0  0  0
    4.8135    1.6717   -1.6746 H   0  0  0  0  0  0  0  0  0  0  0  0
    4.3076   -0.0438   -1.6528 H   0  0  0  0  0  0  0  0  0  0  0  0
    6.3846    0.2986   -1.0395 C   0  0  0  0  0  0  0  0  0  0  0  0
    6.4547   -0.7044   -0.5623 H   0  0  0  0  0  0  0  0  0  0  0  0
    6.7964    0.1836   -2.0632 H   0  0  0  0  0  0  0  0  0  0  0  0
    7.2127    1.3059   -0.2314 C   0  0  0  0  0  0  0  0  0  0  0  0
    7.2321    2.2800   -0.7703 H   0  0  0  0  0  0  0  0  0  0  0  0
    8.2675    0.9697   -0.1567 H   0  0  0  0  0  0  0  0  0  0  0  0
    6.6229    1.5161    1.1694 C   0  0  0  0  0  0  0  0  0  0  0  0
    7.2016    2.2798    1.7289 H   0  0  0  0  0  0  0  0  0  0  0  0
    6.7113    0.5713    1.7505 H   0  0  0  0  0  0  0  0  0  0  0  0
    5.1455    1.9254    1.1085 C   0  0  0  0  0  0  0  0  0  0  0  0
    4.7172    2.0219    2.1277 H   0  0  0  0  0  0  0  0  0  0  0  0
    5.0589    2.9259    0.6238 H   0  0  0  0  0  0  0  0  0  0  0  0
  1 28  1  0  0  0  0
  3  4  1  0  0  0  0
  4 28  2  0  0  0  0
  5 11  1  0  0  0  0
  5  8  1  0  0  0  0
  6 29  1  0  0  0  0
  7  6  1  0  0  0  0
  8  2  1  0  0  0  0
  8  9  2  0  0  0  0
  9  3  1  0  0  0  0
 10 12  1  0  0  0  0
 10  9  1  0  0  0  0
 11 10  2  0  0  0  0
 12 13  1  0  0  0  0
 14 15  1  0  0  0  0
 14 12  2  0  0  0  0
 16 14  1  0  0  0  0
 17 16  1  0  0  0  0
 18 16  2  0  0  0  0
 18 11  1  0  0  0  0
 19 18  1  0  0  0  0
 20  5  1  0  0  0  0
 20 23  1  0  0  0  0
 21 20  1  0  0  0  0
 22 20  1  0  0  0  0
 23 24  1  0  0  0  0
 25 23  2  0  0  0  0
 25 27  1  0  0  0  0
 26 25  1  0  0  0  0
 28  6  1  0  0  0  0
 29 30  1  0  0  0  0
 29 43  1  0  0  0  0
 31 34  1  0  0  0  0
 31 29  1  0  0  0  0
 32 31  1  0  0  0  0
 33 31  1  0  0  0  0
 34 35  1  0  0  0  0
 34 37  1  0  0  0  0
 36 34  1  0  0  0  0
 37 39  1  0  0  0  0
 37 40  1  0  0  0  0
 38 37  1  0  0  0  0
 40 41  1  0  0  0  0
 40 42  1  0  0  0  0
 43 40  1  0  0  0  0
 43 44  1  0  0  0  0
 45 43  1  0  0  0  0
M  CHG  1   2  -1
M  END
