1,2,6
q = -1.0, confidence = 0.03

 39 41  0  0  1  0  0  0  0  0999 V2000
   -0.2399    1.9803    0.7227 S   0  0  0  0  0  1  0  0  0  0  0  0
   -1.1767   -1.9155   -0.5234 O   0  5  0  0  0  0  0  0  0  0  0  0
   -2.8507    1.6744    0.1190 N   0  0  0  0  0  2  0  0  0  0  0  0
   -2.3248    3.7905    0.7730 N   0  0  0  0  0  0  0  0  0  0  0  0
   -3.3435    3.8516    0.6845 H   0  0  0  0  0  0  0  0  0  0  0  0
   -2.3669    0.4656   -0.1230 N   0  0  0  0  0  2  0  0  0  0  0  0
   -3.3447   -2.7937   -0.9467 N   0  0  0  0  0  0  0  0  0  0  0  0
   -2.4329   -1.8093   -0.6187 C   0  0  0  0  0  0  0  0  0  0  0  0
   -1.6833    4.9675    1.1711 C   0  0  0  0  0  0  0  0  0  0  0  0
   -3.1623   -0.5810   -0.3989 C   0  0  0  0  0  0  0  0  0  0  0  0
   -1.8825    2.5225    0.5066 C   0  0  1  0  0  3  0  0  0  0  0  0
   -0.5528    7.4280    1.9909 C   0  0  0  0  0  0  0  0  0  0  0  0
   -0.1101    8.3821    2.3122 H   0  0  0  0  0  0  0  0  0  0  0  0
   -4.5648   -0.8461   -0.5857 C   0  0  0  0  0  0  0  0  0  0  0  0
   -1.9470    7.2525    1.9979 C   0  0  0  0  0  0  0  0  0  0  0  0
   -2.6075    8.0697    2.3250 H   0  0  0  0  0  0  0  0  0  0  0  0
   -2.5085    6.0378    1.5948 C   0  0  0  0  0  0  0  0  0  0  0  0
   -3.6021    5.9032    1.6087 H   0  0  0  0  0  0  0  0  0  0  0  0
   -5.8645   -2.8589   -1.1907 C   0  0  0  0  0  0  0  0  0  0  0  0
   -5.9236   -3.9230   -1.4620 H   0  0  0  0  0  0  0  0  0  0  0  0
    0.2656    6.3714    1.5642 C   0  0  0  0  0  0  0  0  0  0  0  0
    1.3590    6.4957    1.5425 H   0  0  0  0  0  0  0  0  0  0  0  0
   -4.6397   -2.2398   -0.9335 C   0  0  0  0  0  0  0  0  0  0  0  0
   -7.0314   -2.0732   -1.1000 C   0  0  0  0  0  0  0  0  0  0  0  0
   -8.0065   -2.5407   -1.3031 H   0  0  0  0  0  0  0  0  0  0  0  0
   -2.8671   -4.3159   -2.8265 C   0  0  0  0  0  0  0  0  0  0  0  0
   -3.8056   -4.1947   -3.3965 H   0  0  0  0  0  0  0  0  0  0  0  0
   -6.9718   -0.7076   -0.7610 C   0  0  0  0  0  0  0  0  0  0  0  0
   -7.9020   -0.1234   -0.7012 H   0  0  0  0  0  0  0  0  0  0  0  0
   -0.2822    5.1491    1.1515 C   0  0  0  0  0  0  0  0  0  0  0  0
    0.3709    4.3397    0.8001 H   0  0  0  0  0  0  0  0  0  0  0  0
   -5.7408   -0.0824   -0.5019 C   0  0  0  0  0  0  0  0  0  0  0  0
   -5.6766    0.9821   -0.2379 H   0  0  0  0  0  0  0  0  0  0  0  0
   -1.7157   -4.5642   -3.4704 C   0  0  0  0  0  0  0  0  0  0  0  0
   -0.7642   -4.6649   -2.9221 H   0  0  0  0  0  0  0  0  0  0  0  0
   -1.6787   -4.6663   -4.5660 H   0  0  0  0  0  0  0  0  0  0  0  0
   -2.9698   -4.1473   -1.3303 C   0  0  0  0  0  0  0  0  0  0  0  0
   -3.7166   -4.8473   -0.8973 H   0  0  0  0  0  0  0  0  0  0  0  0
   -1.9916   -4.3550   -0.8529 H   0  0  0  0  0  0  0  0  0  0  0  0
  3 11  1  0  0  0  0
  4  9  1  0  0  0  0
  5  4  1  0  0  0  0
  6  3  1  0  0  0  0
  7 23  1  0  0  0  0
  7  8  1  0  0  0  0
  8  2  1  0  0  0  0
  8 10  2  0  0  0  0
  9 17  1  0  0  0  0
 10  6  1  0  0  0  0
 11  1  1  1  0  0  0
 11  4  1  0  0  0  0
 12 15  1  0  0  0  0
 12 13  1  0  0  0  0
 14 32  1  0  0  0  0
 14 10  1  0  0  0  0
 15 16  1  0  0  0  0
 17 18  1  0  0  0  0
 17 15  2  0  0  0  0
 19 24  2  0  0  0  0
 19 23  1  0  0  0  0
 20 19  1  0  0  0  0
 21 12  2  0  0  0  0
 22 21  1  0  0  0  0
 23 14  2  0  0  0  0
 24 28  1  0  0  0  0
 25 24  1  0  0  0  0
 26 37  1  0  0  0  0
 27 26  1  0  0  0  0
 28 29  1  0  0  0  0
 28 32  2  0  0  0  0
 30  9  2  0  0  0  0
 30 21  1  0  0  0  0
 31 30  1  0  0  0  0
 32 33  1  0  0  0  0
 34 35  1  0  0  0  0
 34 26  2  0  0  0  0
 36 34  1  0  0  0  0
 37  7  1  0  0  0  0
 37 38  1  0  0  0  0
 37 39  1  0  0  0  0
M  CHG  1   2  -1
M  END
