1,2,3
q = -2.0, confidence = 0.962

 28 29  0  0  0  0  0  0  0  0999 V2000
   -1.4810    0.2329    2.3696 S   0  0  0  0  0  1  0  0  0  0  0  0
   -0.9585    1.9407    0.0878 N   0  0  0  0  0  2  0  0  0  0  0  0
    1.3493    0.7856   -0.5646 O   0  5  0  0  0  0  0  0  0  0  0  0
    1.8063    1.9572   -0.9552 C   0  0  0  0  0  0  0  0  0  0  0  0
    3.1292    2.0547   -1.4780 C   0  0  0  0  0  0  0  0  0  0  0  0
    3.5810    3.3163   -1.8865 C   0  0  0  0  0  0  0  0  0  0  0  0
    4.6061    3.4034   -2.2809 H   0  0  0  0  0  0  0  0  0  0  0  0
    2.7706    4.4713   -1.8050 C   0  0  0  0  0  0  0  0  0  0  0  0
    3.1644    5.4424   -2.1380 H   0  0  0  0  0  0  0  0  0  0  0  0
    1.4771    4.3707   -1.3034 C   0  0  0  0  0  0  0  0  0  0  0  0
    0.8277    5.2579   -1.2366 H   0  0  0  0  0  0  0  0  0  0  0  0
    0.9727    3.1166   -0.8679 C   0  0  0  0  0  0  0  0  0  0  0  0
   -0.3768    3.0189   -0.3842 C   0  0  0  0  0  3  0  0  0  0  0  0
   -0.9702    3.9559   -0.4143 H   0  0  0  0  0  0  0  0  0  0  0  0
   -2.3304    1.9838    0.4356 C   0  0  0  0  0  0  0  0  0  0  0  0
   -2.7178    1.1781    1.5411 C   0  0  0  0  0  0  0  0  0  0  0  0
   -4.0704    1.1785    1.9387 C   0  0  0  0  0  0  0  0  0  0  0  0
   -4.3709    0.5638    2.8002 H   0  0  0  0  0  0  0  0  0  0  0  0
   -5.0176    1.9401    1.2382 C   0  0  0  0  0  0  0  0  0  0  0  0
   -6.0719    1.9183    1.5537 H   0  0  0  0  0  0  0  0  0  0  0  0
   -4.6327    2.7124    0.1278 C   0  0  0  0  0  0  0  0  0  0  0  0
   -5.3823    3.2837   -0.4392 H   0  0  0  0  0  0  0  0  0  0  0  0
   -3.2891    2.7331   -0.2728 C   0  0  0  0  0  0  0  0  0  0  0  0
   -2.9871    3.3018   -1.1653 H   0  0  0  0  0  0  0  0  0  0  0  0
    3.9767    0.8165   -1.5460 C   0  0  0  0  0  0  0  0  0  0  0  0
    4.9528    1.0211   -2.0248 H   0  0  0  0  0  0  0  0  0  0  0  0
    3.4626    0.0123   -2.1114 H   0  0  0  0  0  0  0  0  0  0  0  0
    4.1591    0.3995   -0.5335 H   0  0  0  0  0  0  0  0  0  0  0  0
  2 15  1  0  0  0  0
  4 12  1  0  0  0  0
  4  3  1  0  0  0  0
  5  4  2  0  0  0  0
  6  8  2  0  0  0  0
  6  5  1  0  0  0  0
  7  6  1  0  0  0  0
  8 10  1  0  0  0  0
  9  8  1  0  0  0  0
 10 11  1  0  0  0  0
 10 12  2  0  0  0  0
 12 13  1  0  0  0  0
 13  2  1  0  0  0  0
 14 13  1  0  0  0  0
 15 16  1  0  0  0  0
 16 17  2  0  0  0  0
 16  1  1  0  0  0  0
 17 18  1  0  0  0  0
 19 20  1  0  0  0  0
 19 17  1  0  0  0  0
 21 19  2  0  0  0  0
 22 21  1  0  0  0  0
 23 21  1  0  0  0  0
 23 15  2  0  0  0  0
 24 23  1  0  0  0  0
 25  5  1  0  0  0  0
 25 28  1  0  0  0  0
 26 25  1  0  0  0  0
 27 25  1  0  0  0  0
M  CHG  1   3  -1
M  END
