1,2,3
q = -1.0

 43 46  0  0  0  0  0  0  0  0999 V2000
    2.1150   -1.6037   -0.7117 S   0  0  0  0  0  1  0  0  0  0  0  0
   -2.1231   -1.7790    0.1953 O   0  5  0  0  0  0  0  0  0  0  0  0
   -0.2903    0.0106   -0.4026 N   0  0  0  0  0  2  0  0  0  0  0  0
    0.7338    0.7856   -0.7129 N   0  0  0  0  0  0  0  0  0  0  0  0
    2.9513    0.9100   -1.2197 N   0  0  0  0  0  0  0  0  0  0  0  0
   -3.8897   -0.2271    0.3870 C   0  0  0  0  0  0  0  0  0  0  0  0
   -4.7921   -1.2739    0.6922 C   0  0  0  0  0  0  0  0  0  0  0  0
   -6.1338   -0.9967    0.9404 C   0  0  0  0  0  0  0  0  0  0  0  0
   -6.5821    0.3386    0.8844 C   0  0  0  0  0  0  0  0  0  0  0  0
   -5.6968    1.3761    0.5841 C   0  0  0  0  0  0  0  0  0  0  0  0
   -4.3263    1.1278    0.3267 C   0  0  0  0  0  0  0  0  0  0  0  0
   -3.3677    2.1983    0.0082 C   0  0  0  0  0  0  0  0  0  0  0  0
   -3.7877    3.5466   -0.0506 C   0  0  0  0  0  0  0  0  0  0  0  0
   -2.9059    4.5867   -0.3492 C   0  0  0  0  0  0  0  0  0  0  0  0
   -1.5564    4.2935   -0.6010 C   0  0  0  0  0  0  0  0  0  0  0  0
   -1.1057    2.9735   -0.5518 C   0  0  0  0  0  0  0  0  0  0  0  0
   -1.9836    1.8985   -0.2498 C   0  0  0  0  0  0  0  0  0  0  0  0
   -1.5457    0.5045   -0.1879 C   0  0  0  0  0  0  0  0  0  0  0  0
   -2.4924   -0.5578    0.1329 C   0  0  0  0  0  0  0  0  0  0  0  0
    1.9038    0.1260   -0.8863 C   0  0  0  0  0  0  0  0  0  0  0  0
    4.3317    0.4732   -1.3711 C   0  0  0  0  0  0  0  0  0  0  0  0
    5.1943    0.8257   -0.1738 C   0  0  0  0  0  0  0  0  0  0  0  0
    6.2521    1.7449   -0.2966 C   0  0  0  0  0  0  0  0  0  0  0  0
    7.0386    2.0801    0.8174 C   0  0  0  0  0  0  0  0  0  0  0  0
    6.7675    1.5012    2.0659 C   0  0  0  0  0  0  0  0  0  0  0  0
    5.7107    0.5839    2.1966 C   0  0  0  0  0  0  0  0  0  0  0  0
    4.9285    0.2457    1.0845 C   0  0  0  0  0  0  0  0  0  0  0  0
    2.7581    1.9154   -1.2126 H   0  0  0  0  0  0  0  0  0  0  0  0
   -4.3973   -2.2991    0.7249 H   0  0  0  0  0  0  0  0  0  0  0  0
   -6.8356   -1.8098    1.1774 H   0  0  0  0  0  0  0  0  0  0  0  0
   -7.6401    0.5718    1.0783 H   0  0  0  0  0  0  0  0  0  0  0  0
   -6.0866    2.4019    0.5503 H   0  0  0  0  0  0  0  0  0  0  0  0
   -4.8396    3.7933    0.1440 H   0  0  0  0  0  0  0  0  0  0  0  0
   -3.2719    5.6235   -0.3851 H   0  0  0  0  0  0  0  0  0  0  0  0
   -0.8468    5.1006   -0.8379 H   0  0  0  0  0  0  0  0  0  0  0  0
   -0.0558    2.7379   -0.7473 H   0  0  0  0  0  0  0  0  0  0  0  0
    4.7478    0.9332   -2.2910 H   0  0  0  0  0  0  0  0  0  0  0  0
    4.3076   -0.6246   -1.5336 H   0  0  0  0  0  0  0  0  0  0  0  0
    6.4659    2.2004   -1.2771 H   0  0  0  0  0  0  0  0  0  0  0  0
    7.8657    2.7978    0.7081 H   0  0  0  0  0  0  0  0  0  0  0  0
    7.3823    1.7627    2.9405 H   0  0  0  0  0  0  0  0  0  0  0  0
    5.4980    0.1227    3.1730 H   0  0  0  0  0  0  0  0  0  0  0  0
    4.1060   -0.4808    1.1838 H   0  0  0  0  0  0  0  0  0  0  0  0
  3 18  1  0  0  0  0
  4  3  1  0  0  0  0
  5 28  1  0  0  0  0
  5 20  1  0  0  0  0
  6  7  2  0  0  0  0
  7 29  1  0  0  0  0
  7  8  1  0  0  0  0
  8 30  1  0  0  0  0
  9  8  2  0  0  0  0
  9 31  1  0  0  0  0
 10  9  1  0  0  0  0
 11  6  1  0  0  0  0
 11 10  2  0  0  0  0
 12 11  1  0  0  0  0
 13 12  1  0  0  0  0
 13 33  1  0  0  0  0
 14 13  2  0  0  0  0
 15 16  2  0  0  0  0
 15 14  1  0  0  0  0
 16 17  1  0  0  0  0
 17 18  1  0  0  0  0
 17 12  2  0  0  0  0
 18 19  2  0  0  0  0
 19  2  1  0  0  0  0
 19  6  1  0  0  0  0
 20  4  2  0  0  0  0
 20  1  1  0  0  0  0
 21  5  1  0  0  0  0
 21 22  1  0  0  0  0
 22 27  1  0  0  0  0
 23 22  2  0  0  0  0
 23 24  1  0  0  0  0
 24 25  2  0  0  0  0
 25 26  1  0  0  0  0
 25 41  1  0  0  0  0
 26 42  1  0  0  0  0
 27 43  1  0  0  0  0
 27 26  2  0  0  0  0
 32 10  1  0  0  0  0
 34 14  1  0  0  0  0
 35 15  1  0  0  0  0
 36 16  1  0  0  0  0
 37 21  1  0  0  0  0
 38 21  1  0  0  0  0
 39 23  1  0  0  0  0
 40 24  1  0  0  0  0
M  CHG  1   2  -1
M  END
