1,2,4
q = -2.0, confidence = 0.942

 34 34  0  0  0  0  0  0  0  0999 V2000
    3.7340    0.0365   -0.1621 S   0  0  0  0  0  1  0  0  0  0  0  0
   -0.2592   -1.3914   -0.0417 O   0  5  0  0  0  0  0  0  0  0  0  0
   -2.4733   -2.8021   -0.0420 O   0  0  0  0  0  0  0  0  0  0  0  0
    1.0004    1.0963    0.0299 N   0  0  0  0  0  2  0  0  0  0  0  0
    1.9245    2.0814    0.1642 N   0  0  0  0  0  0  0  0  0  0  0  0
    4.1494    2.6473    0.1117 N   0  0  0  0  0  0  0  0  0  0  0  0
    5.1144    2.3237    0.0736 H   0  0  0  0  0  0  0  0  0  0  0  0
   -1.4008   -0.7130   -0.0092 C   0  0  0  0  0  0  0  0  0  0  0  0
   -2.6215   -1.4531   -0.0042 C   0  0  0  0  0  0  0  0  0  0  0  0
   -3.8466   -0.7714    0.0385 C   0  0  0  0  0  0  0  0  0  0  0  0
   -4.7889   -1.3372    0.0303 H   0  0  0  0  0  0  0  0  0  0  0  0
   -3.8999    0.6425    0.0969 C   0  0  0  0  0  0  0  0  0  0  0  0
   -2.7037    1.3611    0.1096 C   0  0  0  0  0  0  0  0  0  0  0  0
   -2.7284    2.4606    0.1564 H   0  0  0  0  0  0  0  0  0  0  0  0
   -1.4436    0.7043    0.0580 C   0  0  0  0  0  0  0  0  0  0  0  0
   -0.2477    1.5084    0.1174 C   0  0  0  0  0  3  0  0  0  0  0  0
   -0.3797    2.5976    0.2556 H   0  0  0  0  0  0  0  0  0  0  0  0
    3.1792    1.6982    0.0476 C   0  0  0  0  0  0  0  0  0  0  0  0
   -3.6400   -3.6007   -0.0644 C   0  0  0  0  0  0  0  0  0  0  0  0
   -3.2984   -4.6514   -0.1028 H   0  0  0  0  0  0  0  0  0  0  0  0
   -4.2676   -3.3913   -0.9598 H   0  0  0  0  0  0  0  0  0  0  0  0
   -4.2617   -3.4539    0.8479 H   0  0  0  0  0  0  0  0  0  0  0  0
   -5.2417    1.3542    0.1806 C   0  0  0  0  0  0  0  0  0  0  0  0
   -6.0316    0.6558   -0.1736 H   0  0  0  0  0  0  0  0  0  0  0  0
   -5.4828    1.5774    1.2441 H   0  0  0  0  0  0  0  0  0  0  0  0
   -5.3033    2.6252   -0.6211 C   0  0  0  0  0  0  0  0  0  0  0  0
   -5.1241    2.5145   -1.7063 H   0  0  0  0  0  0  0  0  0  0  0  0
   -5.5341    3.8487   -0.1143 C   0  0  0  0  0  0  0  0  0  0  0  0
   -5.7055    3.9987    0.9653 H   0  0  0  0  0  0  0  0  0  0  0  0
   -5.5672    4.7427   -0.7561 H   0  0  0  0  0  0  0  0  0  0  0  0
    3.8641    4.0517    0.3185 C   0  0  0  0  0  0  0  0  0  0  0  0
    4.7983    4.6309    0.1988 H   0  0  0  0  0  0  0  0  0  0  0  0
    3.4456    4.2442    1.3302 H   0  0  0  0  0  0  0  0  0  0  0  0
    3.1167    4.4087   -0.4187 H   0  0  0  0  0  0  0  0  0  0  0  0
  1 18  1  0  0  0  0
  2  8  1  0  0  0  0
  3  9  1  0  0  0  0
  4 16  1  0  0  0  0
  4  5  1  0  0  0  0
  6 31  1  0  0  0  0
  7  6  1  0  0  0  0
  8  9  2  0  0  0  0
  8 15  1  0  0  0  0
  9 10  1  0  0  0  0
 10 12  2  0  0  0  0
 11 10  1  0  0  0  0
 12 13  1  0  0  0  0
 12 23  1  0  0  0  0
 13 14  1  0  0  0  0
 15 13  2  0  0  0  0
 15 16  1  0  0  0  0
 16 17  1  0  0  0  0
 18  6  1  0  0  0  0
 18  5  2  0  0  0  0
 19  3  1  0  0  0  0
 19 22  1  0  0  0  0
 20 19  1  0  0  0  0
 21 19  1  0  0  0  0
 23 25  1  0  0  0  0
 24 23  1  0  0  0  0
 26 28  2  0  0  0  0
 26 23  1  0  0  0  0
 27 26  1  0  0  0  0
 28 29  1  0  0  0  0
 30 28  1  0  0  0  0
 31 33  1  0  0  0  0
 32 31  1  0  0  0  0
 34 31  1  0  0  0  0
M  CHG  1   2  -1
M  END
