1,3,4
q = -2.0, confidence = 0.944

 53 56  0  0  0  0  0  0  0  0999 V2000
   -0.0869   -1.5702   -1.9451 S   0  0  0  0  0  1  0  0  0  0  0  0
   -5.5349    4.2160    2.0074 F   0  0  0  0  0  0  0  0  0  0  0  0
   -3.9545   -0.4361   -0.4422 O   0  5  0  0  0  0  0  0  0  0  0  0
   -1.3153    0.4897   -0.2301 N   0  0  0  0  0  2  0  0  0  0  0  0
    0.0360    0.4838   -0.1227 N   0  0  0  0  0  0  0  0  0  0  0  0
    2.0341   -0.3738   -0.9160 N   0  0  0  0  0  0  0  0  0  0  0  0
    2.4561   -1.1974   -1.3477 H   0  0  0  0  0  0  0  0  0  0  0  0
   -3.3302    1.6662    0.5666 C   0  0  0  0  0  0  0  0  0  0  0  0
   -4.3048    0.7118    0.1349 C   0  0  0  0  0  0  0  0  0  0  0  0
   -5.6762    0.9695    0.3577 C   0  0  0  0  0  0  0  0  0  0  0  0
   -6.4018    0.2158    0.0214 H   0  0  0  0  0  0  0  0  0  0  0  0
   -6.0934    2.1476    0.9822 C   0  0  0  0  0  0  0  0  0  0  0  0
   -7.1587    2.3590    1.1532 H   0  0  0  0  0  0  0  0  0  0  0  0
   -5.1307    3.0810    1.4022 C   0  0  0  0  0  0  0  0  0  0  0  0
   -3.7726    2.8519    1.2098 C   0  0  0  0  0  0  0  0  0  0  0  0
   -3.0441    3.5997    1.5558 H   0  0  0  0  0  0  0  0  0  0  0  0
   -1.9092    1.4571    0.4325 C   0  0  0  0  0  3  0  0  0  0  0  0
   -1.2392    2.1777    0.9381 H   0  0  0  0  0  0  0  0  0  0  0  0
    0.6660   -0.3809   -0.8846 C   0  0  0  0  0  0  0  0  0  0  0  0
    2.9228    0.3919   -0.0240 C   0  0  0  0  0  0  0  0  0  0  0  0
    2.6429    1.9071   -0.1156 C   0  0  0  0  0  0  0  0  0  0  0  0
    3.0894    2.7768    0.8969 C   0  0  0  0  0  0  0  0  0  0  0  0
    3.5768    2.3702    1.7946 H   0  0  0  0  0  0  0  0  0  0  0  0
    2.9174    4.1644    0.7774 C   0  0  0  0  0  0  0  0  0  0  0  0
    3.2671    4.8259    1.5846 H   0  0  0  0  0  0  0  0  0  0  0  0
    2.3068    4.7051   -0.3637 C   0  0  0  0  0  0  0  0  0  0  0  0
    2.1682    5.7928   -0.4573 H   0  0  0  0  0  0  0  0  0  0  0  0
    1.8821    3.8452   -1.3890 C   0  0  0  0  0  0  0  0  0  0  0  0
    1.4075    4.2546   -2.2936 H   0  0  0  0  0  0  0  0  0  0  0  0
    2.0537    2.4598   -1.2679 C   0  0  0  0  0  0  0  0  0  0  0  0
    1.7192    1.7968   -2.0780 H   0  0  0  0  0  0  0  0  0  0  0  0
    4.3611    0.2432   -0.5709 C   0  0  0  0  0  0  0  0  0  0  0  0
    5.4694    0.4448    0.2767 C   0  0  0  0  0  0  0  0  0  0  0  0
    5.3080    0.6389    1.3466 H   0  0  0  0  0  0  0  0  0  0  0  0
    6.7759    0.3942   -0.2265 C   0  0  0  0  0  0  0  0  0  0  0  0
    7.6258    0.5505    0.4551 H   0  0  0  0  0  0  0  0  0  0  0  0
    7.0021    0.1445   -1.5897 C   0  0  0  0  0  0  0  0  0  0  0  0
    8.0286    0.1021   -1.9839 H   0  0  0  0  0  0  0  0  0  0  0  0
    5.9069   -0.0421   -2.4443 C   0  0  0  0  0  0  0  0  0  0  0  0
    6.0663   -0.2256   -3.5176 H   0  0  0  0  0  0  0  0  0  0  0  0
    4.5975    0.0135   -1.9404 C   0  0  0  0  0  0  0  0  0  0  0  0
    3.7506   -0.1003   -2.6329 H   0  0  0  0  0  0  0  0  0  0  0  0
    2.7717   -0.2026    1.3959 C   0  0  0  0  0  0  0  0  0  0  0  0
    3.4578   -1.3890    1.7310 C   0  0  0  0  0  0  0  0  0  0  0  0
    4.1551   -1.8361    1.0067 H   0  0  0  0  0  0  0  0  0  0  0  0
    3.2798   -1.9985    2.9818 C   0  0  0  0  0  0  0  0  0  0  0  0
    3.8414   -2.9131    3.2270 H   0  0  0  0  0  0  0  0  0  0  0  0
    2.3971   -1.4381    3.9194 C   0  0  0  0  0  0  0  0  0  0  0  0
    2.2622   -1.9079    4.9058 H   0  0  0  0  0  0  0  0  0  0  0  0
    1.6836   -0.2776    3.5835 C   0  0  0  0  0  0  0  0  0  0  0  0
    0.9759    0.1629    4.3023 H   0  0  0  0  0  0  0  0  0  0  0  0
    1.8654    0.3326    2.3321 C   0  0  0  0  0  0  0  0  0  0  0  0
    1.2912    1.2295    2.0689 H   0  0  0  0  0  0  0  0  0  0  0  0
  1 19  1  0  0  0  0
  3  9  1  0  0  0  0
  4  5  1  0  0  0  0
  4 17  1  0  0  0  0
  6 19  1  0  0  0  0
  6 20  1  0  0  0  0
  7  6  1  0  0  0  0
  8 15  1  0  0  0  0
  9 10  1  0  0  0  0
  9  8  2  0  0  0  0
 10 12  2  0  0  0  0
 11 10  1  0  0  0  0
 12 13  1  0  0  0  0
 12 14  1  0  0  0  0
 14  2  1  0  0  0  0
 15 14  2  0  0  0  0
 15 16  1  0  0  0  0
 17  8  1  0  0  0  0
 17 18  1  0  0  0  0
 19  5  2  0  0  0  0
 20 43  1  0  0  0  0
 21 20  1  0  0  0  0
 21 22  1  0  0  0  0
 22 23  1  0  0  0  0
 24 22  2  0  0  0  0
 24 25  1  0  0  0  0
 26 24  1  0  0  0  0
 27 26  1  0  0  0  0
 28 30  1  0  0  0  0
 28 26  2  0  0  0  0
 29 28  1  0  0  0  0
 30 21  2  0  0  0  0
 31 30  1  0  0  0  0
 32 20  1  0  0  0  0
 32 33  1  0  0  0  0
 33 34  1  0  0  0  0
 35 33  2  0  0  0  0
 35 36  1  0  0  0  0
 37 35  1  0  0  0  0
 38 37  1  0  0  0  0
 39 41  1  0  0  0  0
 39 37  2  0  0  0  0
 40 39  1  0  0  0  0
 41 32  2  0  0  0  0
 42 41  1  0  0  0  0
 43 44  2  0  0  0  0
 43 52  1  0  0  0  0
 44 46  1  0  0  0  0
 45 44  1  0  0  0  0
 46 47  1  0  0  0  0
 46 48  2  0  0  0  0
 48 49  1  0  0  0  0
 50 48  1  0  0  0  0
 50 51  1  0  0  0  0
 52 50  2  0  0  0  0
 53 52  1  0  0  0  0
M  CHG  1   3  -1
M  END
