2,3,4
q = -2.0, confidence = 0.95

 53 56  0  0  0  0  0  0  0  0999 V2000
    6.0622    3.9575    0.2348 Cl  0  0  0  0  0  0  0  0  0  0  0  0
   -0.3704   -2.5486   -1.1158 S   0  0  0  0  0  1  0  0  0  0  0  0
    3.5664   -1.3840    0.0878 O   0  5  0  0  0  0  0  0  0  0  0  0
    1.1400   -0.1219   -0.4205 N   0  0  0  0  0  2  0  0  0  0  0  0
   -0.1924    0.1079   -0.4470 N   0  0  0  0  0  0  0  0  0  0  0  0
   -2.3028   -0.7696   -0.7451 N   0  0  0  0  0  0  0  0  0  0  0  0
   -2.8414   -1.6212   -0.9080 H   0  0  0  0  0  0  0  0  0  0  0  0
    3.3064    1.0059   -0.0759 C   0  0  0  0  0  0  0  0  0  0  0  0
    4.1084   -0.1657    0.0865 C   0  0  0  0  0  0  0  0  0  0  0  0
    5.4979   -0.0335    0.2958 C   0  0  0  0  0  0  0  0  0  0  0  0
    6.0916   -0.9500    0.4209 H   0  0  0  0  0  0  0  0  0  0  0  0
    6.0998    1.2266    0.3367 C   0  0  0  0  0  0  0  0  0  0  0  0
    7.1833    1.3253    0.4919 H   0  0  0  0  0  0  0  0  0  0  0  0
    5.3099    2.3833    0.1784 C   0  0  0  0  0  0  0  0  0  0  0  0
    3.9326    2.2773   -0.0181 C   0  0  0  0  0  0  0  0  0  0  0  0
    3.3249    3.1864   -0.1335 H   0  0  0  0  0  0  0  0  0  0  0  0
    1.8736    0.9555   -0.2298 C   0  0  0  0  0  3  0  0  0  0  0  0
    1.3159    1.9087   -0.1736 H   0  0  0  0  0  0  0  0  0  0  0  0
   -0.9461   -0.9281   -0.7422 C   0  0  0  0  0  0  0  0  0  0  0  0
   -3.0218    0.3154   -0.0346 C   0  0  0  0  0  0  0  0  0  0  0  0
   -3.0297    1.6250   -0.8493 C   0  0  0  0  0  0  0  0  0  0  0  0
   -3.8316    2.6993   -0.4104 C   0  0  0  0  0  0  0  0  0  0  0  0
   -4.4339    2.5894    0.5041 H   0  0  0  0  0  0  0  0  0  0  0  0
   -3.8818    3.8999   -1.1312 C   0  0  0  0  0  0  0  0  0  0  0  0
   -4.5126    4.7262   -0.7697 H   0  0  0  0  0  0  0  0  0  0  0  0
   -3.1416    4.0418   -2.3162 C   0  0  0  0  0  0  0  0  0  0  0  0
   -3.1832    4.9816   -2.8875 H   0  0  0  0  0  0  0  0  0  0  0  0
   -2.3590    2.9709   -2.7706 C   0  0  0  0  0  0  0  0  0  0  0  0
   -1.7820    3.0646   -3.7032 H   0  0  0  0  0  0  0  0  0  0  0  0
   -2.3030    1.7709   -2.0430 C   0  0  0  0  0  0  0  0  0  0  0  0
   -1.6872    0.9407   -2.4107 H   0  0  0  0  0  0  0  0  0  0  0  0
   -4.4948   -0.1487    0.0530 C   0  0  0  0  0  0  0  0  0  0  0  0
   -5.2404   -0.0864    1.2437 C   0  0  0  0  0  0  0  0  0  0  0  0
   -4.7627    0.2655    2.1686 H   0  0  0  0  0  0  0  0  0  0  0  0
   -6.5909   -0.4729    1.2595 C   0  0  0  0  0  0  0  0  0  0  0  0
   -7.1586   -0.4172    2.2008 H   0  0  0  0  0  0  0  0  0  0  0  0
   -7.2122   -0.9312    0.0895 C   0  0  0  0  0  0  0  0  0  0  0  0
   -8.2687   -1.2388    0.1060 H   0  0  0  0  0  0  0  0  0  0  0  0
   -6.4780   -0.9862   -1.1065 C   0  0  0  0  0  0  0  0  0  0  0  0
   -6.9578   -1.3299   -2.0354 H   0  0  0  0  0  0  0  0  0  0  0  0
   -5.1350   -0.5877   -1.1261 C   0  0  0  0  0  0  0  0  0  0  0  0
   -4.5788   -0.5947   -2.0765 H   0  0  0  0  0  0  0  0  0  0  0  0
   -2.3865    0.4734    1.3671 C   0  0  0  0  0  0  0  0  0  0  0  0
   -1.8704    1.6863    1.8523 C   0  0  0  0  0  0  0  0  0  0  0  0
   -1.9160    2.5862    1.2244 H   0  0  0  0  0  0  0  0  0  0  0  0
   -1.2695    1.7532    3.1200 C   0  0  0  0  0  0  0  0  0  0  0  0
   -0.8666    2.7130    3.4782 H   0  0  0  0  0  0  0  0  0  0  0  0
   -1.1718    0.6065    3.9213 C   0  0  0  0  0  0  0  0  0  0  0  0
   -0.7007    0.6606    4.9146 H   0  0  0  0  0  0  0  0  0  0  0  0
   -1.6768   -0.6133    3.4410 C   0  0  0  0  0  0  0  0  0  0  0  0
   -1.6025   -1.5245    4.0542 H   0  0  0  0  0  0  0  0  0  0  0  0
   -2.2744   -0.6768    2.1761 C   0  0  0  0  0  0  0  0  0  0  0  0
   -2.6489   -1.6417    1.8022 H   0  0  0  0  0  0  0  0  0  0  0  0
  2 19  1  0  0  0  0
  4 17  1  0  0  0  0
  5  4  1  0  0  0  0
  6 19  1  0  0  0  0
  6 20  1  0  0  0  0
  7  6  1  0  0  0  0
  8 15  2  0  0  0  0
  8  9  1  0  0  0  0
  9  3  1  0  0  0  0
  9 10  2  0  0  0  0
 10 12  1  0  0  0  0
 10 11  1  0  0  0  0
 12 13  1  0  0  0  0
 14  1  1  0  0  0  0
 14 12  2  0  0  0  0
 15 14  1  0  0  0  0
 16 15  1  0  0  0  0
 17 18  1  0  0  0  0
 17  8  1  0  0  0  0
 19  5  2  0  0  0  0
 20 32  1  0  0  0  0
 20 43  1  0  0  0  0
 21 22  1  0  0  0  0
 21 20  1  0  0  0  0
 22 23  1  0  0  0  0
 24 25  1  0  0  0  0
 24 22  2  0  0  0  0
 26 24  1  0  0  0  0
 27 26  1  0  0  0  0
 28 26  2  0  0  0  0
 28 30  1  0  0  0  0
 29 28  1  0  0  0  0
 30 21  2  0  0  0  0
 31 30  1  0  0  0  0
 32 33  1  0  0  0  0
 33 35  2  0  0  0  0
 33 34  1  0  0  0  0
 35 36  1  0  0  0  0
 37 38  1  0  0  0  0
 37 35  1  0  0  0  0
 39 37  2  0  0  0  0
 40 39  1  0  0  0  0
 41 39  1  0  0  0  0
 41 32  2  0  0  0  0
 42 41  1  0  0  0  0
 43 44  2  0  0  0  0
 43 52  1  0  0  0  0
 44 46  1  0  0  0  0
 45 44  1  0  0  0  0
 46 47  1  0  0  0  0
 46 48  2  0  0  0  0
 48 49  1  0  0  0  0
 50 48  1  0  0  0  0
 50 51  1  0  0  0  0
 52 50  2  0  0  0  0
 53 52  1  0  0  0  0
M  CHG  1   3  -1
M  END
