1,2,9
q = -1.0, confidence = 0.004

 25 25  0  0  1  0  0  0  0  0999 V2000
   -2.7333   -0.1799   -0.1028 S   0  0  0  0  0  1  0  0  0  0  0  0
    1.1950    0.7474   -0.0325 O   0  0  0  0  0  1  0  0  0  0  0  0
    5.9335    0.3262    0.0346 O   0  0  0  0  0  0  0  0  0  0  0  0
    5.8754    1.3011    0.0173 H   0  0  0  0  0  0  0  0  0  0  0  0
   -3.6769   -2.6984   -0.0245 N   0  0  0  0  0  0  0  0  0  0  0  0
   -3.5384   -3.7104   -0.0340 H   0  0  0  0  0  0  0  0  0  0  0  0
   -1.3546   -2.4132    0.0219 N   0  0  0  0  0  0  0  0  0  0  0  0
   -1.1724   -3.4221    0.0690 H   0  0  0  0  0  0  0  0  0  0  0  0
   -0.2646   -1.5615    0.0216 N   0  0  0  0  0  2  0  0  0  0  0  0
   -2.5986   -1.8915   -0.0275 C   0  0  1  0  0  3  0  0  0  0  0  0
   -5.0416   -2.1952   -0.0945 C   0  0  0  0  0  0  0  0  0  0  0  0
   -5.2268   -1.4605    0.7153 H   0  0  0  0  0  0  0  0  0  0  0  0
   -5.7387   -3.0426    0.0286 H   0  0  0  0  0  0  0  0  0  0  0  0
   -5.2422   -1.7016   -1.0685 H   0  0  0  0  0  0  0  0  0  0  0  0
    0.9308   -2.1438    0.0370 C   0  0  0  0  0  0  0  0  0  0  0  0
    0.9539   -3.2507    0.0549 H   0  0  0  0  0  0  0  0  0  0  0  0
    2.1712   -1.4722    0.0353 C   0  0  0  0  0  0  0  0  0  0  0  0
    2.2479   -0.0271   -0.0001 C   0  0  1  0  0  3  0  0  0  0  0  0
    3.5332    0.5745   -0.0004 C   0  0  0  0  0  0  0  0  0  0  0  0
    3.5860    1.6736   -0.0167 H   0  0  0  0  0  0  0  0  0  0  0  0
    4.6957   -0.2036    0.0301 C   0  0  0  0  0  0  0  0  0  0  0  0
    4.6202   -1.6295    0.0613 C   0  0  0  0  0  0  0  0  0  0  0  0
    5.5537   -2.2072    0.0845 H   0  0  0  0  0  0  0  0  0  0  0  0
    3.3827   -2.2344    0.0644 C   0  0  0  0  0  0  0  0  0  0  0  0
    3.3135   -3.3330    0.0900 H   0  0  0  0  0  0  0  0  0  0  0  0
  4  3  1  0  0  0  0
  6  5  1  0  0  0  0
  7  8  1  0  0  0  0
  9  7  1  0  0  0  0
  9 15  1  0  0  0  0
 10  1  1  6  0  0  0
 10  5  1  0  0  0  0
 10  7  1  0  0  0  0
 11  5  1  0  0  0  0
 11 13  1  0  0  0  0
 11 12  1  0  0  0  0
 14 11  1  0  0  0  0
 15 16  1  0  0  0  0
 17 15  2  0  0  0  0
 17 24  1  0  0  0  0
 18  2  1  6  0  0  0
 18 17  1  0  0  0  0
 19 18  1  0  0  0  0
 19 21  2  0  0  0  0
 20 19  1  0  0  0  0
 21  3  1  0  0  0  0
 21 22  1  0  0  0  0
 22 24  2  0  0  0  0
 22 23  1  0  0  0  0
 24 25  1  0  0  0  0
M  END
