1,2,8
q = -2.0, confidence = 0.964

 24 24  0  0  1  0  0  0  0  0999 V2000
   -1.6012    1.9247   -0.4556 S   0  0  0  0  0  1  0  0  0  0  0  0
    1.1090   -1.0762   -0.1982 O   0  0  0  0  0  1  0  0  0  0  0  0
    5.2518   -3.3960    0.2681 O   0  0  0  0  0  0  0  0  0  0  0  0
    4.6432   -4.1416    0.1103 H   0  0  0  0  0  0  0  0  0  0  0  0
   -0.9642    4.5117   -0.1030 N   0  0  0  0  0  0  0  0  0  0  0  0
   -1.9109    4.6300   -0.4605 H   0  0  0  0  0  0  0  0  0  0  0  0
    0.8092    3.0284    0.0668 N   0  0  0  0  0  0  0  0  0  0  0  0
    1.1529    1.6972    0.0517 N   0  0  0  0  0  2  0  0  0  0  0  0
   -0.4690    3.2369   -0.1387 C   0  0  0  0  0  0  0  0  0  0  0  0
   -0.0971    5.6671   -0.0275 C   0  0  0  0  0  0  0  0  0  0  0  0
    0.6413    5.5217    0.7850 H   0  0  0  0  0  0  0  0  0  0  0  0
   -0.7021    6.5676    0.1922 H   0  0  0  0  0  0  0  0  0  0  0  0
    0.4794    5.8396   -0.9660 H   0  0  0  0  0  0  0  0  0  0  0  0
    2.4450    1.4703    0.2388 C   0  0  0  0  0  0  0  0  0  0  0  0
    3.0496    2.3798    0.4032 H   0  0  0  0  0  0  0  0  0  0  0  0
    3.1075    0.2084    0.2428 C   0  0  0  0  0  0  0  0  0  0  0  0
    2.3971   -1.0258    0.0153 C   0  0  1  0  0  3  0  0  0  0  0  0
    3.1410   -2.2391    0.0265 C   0  0  0  0  0  0  0  0  0  0  0  0
    2.5883   -3.1779   -0.1392 H   0  0  0  0  0  0  0  0  0  0  0  0
    4.5212   -2.2460    0.2503 C   0  0  0  0  0  0  0  0  0  0  0  0
    5.2225   -1.0321    0.4734 C   0  0  0  0  0  0  0  0  0  0  0  0
    6.3066   -1.0655    0.6466 H   0  0  0  0  0  0  0  0  0  0  0  0
    4.5127    0.1595    0.4666 C   0  0  0  0  0  0  0  0  0  0  0  0
    5.0446    1.1089    0.6374 H   0  0  0  0  0  0  0  0  0  0  0  0
  1  9  1  0  0  0  0
  4  3  1  0  0  0  0
  5 10  1  0  0  0  0
  6  5  1  0  0  0  0
  8  7  1  0  0  0  0
  8 14  1  0  0  0  0
  9  5  1  0  0  0  0
  9  7  2  0  0  0  0
 10 12  1  0  0  0  0
 10 11  1  0  0  0  0
 13 10  1  0  0  0  0
 14 16  2  0  0  0  0
 14 15  1  0  0  0  0
 16 23  1  0  0  0  0
 17  2  1  1  0  0  0
 17 18  1  0  0  0  0
 17 16  1  0  0  0  0
 18 20  2  0  0  0  0
 19 18  1  0  0  0  0
 20  3  1  0  0  0  0
 20 21  1  0  0  0  0
 21 22  1  0  0  0  0
 23 21  2  0  0  0  0
 23 24  1  0  0  0  0
M  END
