1,2,3
q = -1.0

 29 30  0  0  0  0  0  0  0  0999 V2000
    2.3201   -0.9852    0.0121 S   0  0  0  0  0  0  0  0  0  0  0  0
   -2.0615   -0.9273   -0.3869 O   0  5  0  0  0  0  0  0  0  0  0  0
    0.1280    1.0635    0.0939 N   0  0  0  0  0  2  0  0  0  0  0  0
   -2.7986    0.1142   -0.1694 C   0  0  0  0  0  0  0  0  0  0  0  0
   -4.2177   -0.0539   -0.3061 C   0  0  0  0  0  0  0  0  0  0  0  0
   -4.5675   -1.0524   -0.6042 H   0  0  0  0  0  0  0  0  0  0  0  0
   -5.1007    0.9829   -0.0578 C   0  0  0  0  0  0  0  0  0  0  0  0
   -6.1827    0.8061   -0.1627 H   0  0  0  0  0  0  0  0  0  0  0  0
   -4.6334    2.2686    0.3313 C   0  0  0  0  0  0  0  0  0  0  0  0
   -5.3436    3.0845    0.5261 H   0  0  0  0  0  0  0  0  0  0  0  0
   -3.2717    2.4761    0.4446 C   0  0  0  0  0  0  0  0  0  0  0  0
   -2.8873    3.4709    0.7226 H   0  0  0  0  0  0  0  0  0  0  0  0
   -2.3159    1.4352    0.1986 C   0  0  0  0  0  0  0  0  0  0  0  0
   -0.9458    1.8170    0.2511 C   0  0  0  0  0  3  0  0  0  0  0  0
   -0.7877    2.8956    0.4363 H   0  0  0  0  0  0  0  0  0  0  0  0
    1.4124    1.6422   -0.0003 C   0  0  0  0  0  0  0  0  0  0  0  0
    1.6494    3.0349   -0.1165 C   0  0  0  0  0  0  0  0  0  0  0  0
    0.8062    3.7358   -0.1726 H   0  0  0  0  0  0  0  0  0  0  0  0
    2.9484    3.5449   -0.1939 C   0  0  0  0  0  0  0  0  0  0  0  0
    3.0920    4.6319   -0.2853 H   0  0  0  0  0  0  0  0  0  0  0  0
    4.0617    2.6877   -0.1852 C   0  0  0  0  0  0  0  0  0  0  0  0
    5.0816    3.0904   -0.2655 H   0  0  0  0  0  0  0  0  0  0  0  0
    3.8526    1.3056   -0.1133 C   0  0  0  0  0  0  0  0  0  0  0  0
    4.7038    0.6088   -0.1511 H   0  0  0  0  0  0  0  0  0  0  0  0
    2.5495    0.7957   -0.0166 C   0  0  0  0  0  0  0  0  0  0  0  0
    2.9160   -1.3516    1.7115 C   0  0  0  0  0  0  0  0  0  0  0  0
    4.0080   -1.1797    1.7505 H   0  0  0  0  0  0  0  0  0  0  0  0
    2.6993   -2.4218    1.8902 H   0  0  0  0  0  0  0  0  0  0  0  0
    2.3916   -0.7266    2.4562 H   0  0  0  0  0  0  0  0  0  0  0  0
  1 26  1  0  0  0  0
  2  4  1  0  0  0  0
  3 14  1  0  0  0  0
  4 13  1  0  0  0  0
  5  4  2  0  0  0  0
  5  7  1  0  0  0  0
  6  5  1  0  0  0  0
  7  9  2  0  0  0  0
  8  7  1  0  0  0  0
  9 11  1  0  0  0  0
  9 10  1  0  0  0  0
 11 12  1  0  0  0  0
 13 14  1  0  0  0  0
 13 11  2  0  0  0  0
 14 15  1  0  0  0  0
 16  3  1  0  0  0  0
 17 16  2  0  0  0  0
 18 17  1  0  0  0  0
 19 21  2  0  0  0  0
 19 17  1  0  0  0  0
 20 19  1  0  0  0  0
 21 23  1  0  0  0  0
 22 21  1  0  0  0  0
 23 25  2  0  0  0  0
 24 23  1  0  0  0  0
 25 16  1  0  0  0  0
 25  1  1  0  0  0  0
 26 27  1  0  0  0  0
 26 28  1  0  0  0  0
 26 29  1  0  0  0  0
M  CHG  1   2  -1
M  END
