1,2,3
q = -1.0

 21 21  0  0  1  0  0  0  0  0999 V2000
    1.1785    0.0990    2.4134 S   0  0  0  0  0  1  0  0  0  0  0  0
   -0.8486   -0.0749   -1.1389 O   0  0  0  0  0  1  0  0  0  0  0  0
   -1.5348   -0.1488    1.5325 N   0  0  0  0  0  2  0  0  0  0  0  0
   -3.1261   -0.2853   -0.3075 C   0  0  0  0  0  0  0  0  0  0  0  0
   -2.7689   -0.2592    1.0666 C   0  0  0  0  0  0  0  0  0  0  0  0
   -3.5909   -0.3374    1.8056 H   0  0  0  0  0  0  0  0  0  0  0  0
   -2.1285   -0.1898   -1.3515 C   0  0  2  0  0  3  0  0  0  0  0  0
   -1.3955   -0.1423    2.9064 N   0  0  0  0  0  0  0  0  0  0  0  0
   -2.2484   -0.2280    3.4724 H   0  0  0  0  0  0  0  0  0  0  0  0
   -2.5849   -0.2246   -2.7057 C   0  0  0  0  0  0  0  0  0  0  0  0
   -1.8223   -0.1515   -3.4938 H   0  0  0  0  0  0  0  0  0  0  0  0
   -0.1637   -0.0299    3.4532 C   0  0  1  0  0  3  0  0  0  0  0  0
   -0.0401   -0.0257    4.7996 N   0  0  0  0  0  0  0  0  0  0  0  0
   -0.8347   -0.0889    5.4348 H   0  0  0  0  0  0  0  0  0  0  0  0
    0.8908    0.0630    5.2048 H   0  0  0  0  0  0  0  0  0  0  0  0
   -3.9344   -0.3455   -3.0069 C   0  0  0  0  0  0  0  0  0  0  0  0
   -4.2494   -0.3689   -4.0615 H   0  0  0  0  0  0  0  0  0  0  0  0
   -4.5063   -0.4088   -0.6585 C   0  0  0  0  0  0  0  0  0  0  0  0
   -5.2498   -0.4802    0.1513 H   0  0  0  0  0  0  0  0  0  0  0  0
   -4.9126   -0.4393   -1.9817 C   0  0  0  0  0  0  0  0  0  0  0  0
   -5.9771   -0.5346   -2.2372 H   0  0  0  0  0  0  0  0  0  0  0  0
  3  8  1  0  0  0  0
  4  5  2  0  0  0  0
  5  3  1  0  0  0  0
  5  6  1  0  0  0  0
  7  2  1  6  0  0  0
  7  4  1  0  0  0  0
  8 12  1  0  0  0  0
  8  9  1  0  0  0  0
 10  7  1  0  0  0  0
 11 10  1  0  0  0  0
 12  1  1  6  0  0  0
 12 13  1  0  0  0  0
 13 15  1  0  0  0  0
 13 14  1  0  0  0  0
 16 10  2  0  0  0  0
 16 20  1  0  0  0  0
 17 16  1  0  0  0  0
 18  4  1  0  0  0  0
 18 19  1  0  0  0  0
 20 18  2  0  0  0  0
 21 20  1  0  0  0  0
M  END
