1,14,25
q = -1.0

 30 31  0  0  0  0  0  0  0  0999 V2000
    1.3199    0.3301   -1.3638 O   0  5  0  0  0  0  0  0  0  0  0  0
    2.3049   -0.4718   -1.5971 C   0  0  0  0  0  0  0  0  0  0  0  0
    3.4443    0.0468   -2.2973 C   0  0  0  0  0  0  0  0  0  0  0  0
    3.4034    1.1035   -2.5969 H   0  0  0  0  0  0  0  0  0  0  0  0
    4.5500   -0.7456   -2.5617 C   0  0  0  0  0  0  0  0  0  0  0  0
    5.4111   -0.3072   -3.0906 H   0  0  0  0  0  0  0  0  0  0  0  0
    4.5955   -2.1089   -2.1598 C   0  0  0  0  0  0  0  0  0  0  0  0
    5.4806   -2.7236   -2.3765 H   0  0  0  0  0  0  0  0  0  0  0  0
    3.5057   -2.6467   -1.4974 C   0  0  0  0  0  0  0  0  0  0  0  0
    3.5125   -3.7037   -1.1852 H   0  0  0  0  0  0  0  0  0  0  0  0
    2.3440   -1.8670   -1.2030 C   0  0  0  0  0  0  0  0  0  0  0  0
    1.2486   -2.5146   -0.5727 C   0  0  0  0  0  3  0  0  0  0  0  0
    1.3890   -3.5937   -0.3735 H   0  0  0  0  0  0  0  0  0  0  0  0
    0.1011   -1.9708   -0.2100 N   0  0  0  0  0  2  0  0  0  0  0  0
   -0.9338   -2.7659    0.3192 C   0  0  0  0  0  0  0  0  0  0  0  0
   -1.0161   -4.1730    0.1860 C   0  0  0  0  0  0  0  0  0  0  0  0
   -0.2680   -4.7149   -0.4087 H   0  0  0  0  0  0  0  0  0  0  0  0
   -2.0616   -4.8855    0.7834 C   0  0  0  0  0  0  0  0  0  0  0  0
   -2.1021   -5.9786    0.6626 H   0  0  0  0  0  0  0  0  0  0  0  0
   -3.0650   -4.2242    1.5130 C   0  0  0  0  0  0  0  0  0  0  0  0
   -3.8871   -4.7911    1.9731 H   0  0  0  0  0  0  0  0  0  0  0  0
   -3.0259   -2.8275    1.6202 C   0  0  0  0  0  0  0  0  0  0  0  0
   -3.8128   -2.2781    2.1582 H   0  0  0  0  0  0  0  0  0  0  0  0
   -1.9767   -2.1168    1.0234 C   0  0  0  0  0  0  0  0  0  0  0  0
   -1.9412   -0.3276    1.0709 S   0  0  0  0  0  0  0  0  0  0  0  0
   -1.3763   -0.0393    2.7464 C   0  0  0  0  0  0  0  0  0  0  0  0
   -0.5293   -0.6601    3.0761 H   0  0  0  0  0  0  0  0  0  0  0  0
   -1.9087    0.9633    3.4627 C   0  0  0  0  0  0  0  0  0  0  0  0
   -2.7325    1.5813    3.0701 H   0  0  0  0  0  0  0  0  0  0  0  0
   -1.5169    1.2030    4.4637 H   0  0  0  0  0  0  0  0  0  0  0  0
  2  1  1  0  0  0  0
  2 11  1  0  0  0  0
  3  2  2  0  0  0  0
  4  3  1  0  0  0  0
  5  3  1  0  0  0  0
  5  7  2  0  0  0  0
  6  5  1  0  0  0  0
  7  9  1  0  0  0  0
  8  7  1  0  0  0  0
  9 11  2  0  0  0  0
  9 10  1  0  0  0  0
 11 12  1  0  0  0  0
 12 13  1  0  0  0  0
 12 14  1  0  0  0  0
 14 15  1  0  0  0  0
 15 24  1  0  0  0  0
 16 15  2  0  0  0  0
 16 18  1  0  0  0  0
 17 16  1  0  0  0  0
 18 20  2  0  0  0  0
 19 18  1  0  0  0  0
 20 22  1  0  0  0  0
 20 21  1  0  0  0  0
 22 23  1  0  0  0  0
 24 25  1  0  0  0  0
 24 22  2  0  0  0  0
 25 26  1  0  0  0  0
 26 27  1  0  0  0  0
 26 28  2  0  0  0  0
 28 30  1  0  0  0  0
 29 28  1  0  0  0  0
M  CHG  1   1  -1
M  END
