1,2,6
q = 0.0, confidence = 0.928

 53 55  0  0  1  0  0  0  0  0999 V2000
    2.6445   -1.4782   -0.2144 S   0  0  0  0  0  1  0  0  0  0  0  0
   -1.1928    0.2504   -1.0926 O   0  0  0  0  0  1  0  0  0  0  0  0
   -1.5240   -0.3271    1.7928 O   0  0  0  0  0  0  0  0  0  0  0  0
   -2.3063   -2.3472    2.4548 O   0  0  0  0  0  0  0  0  0  0  0  0
   -1.4104   -2.3869    2.8580 H   0  0  0  0  0  0  0  0  0  0  0  0
    1.4059    1.1842   -0.2659 N   0  0  0  0  0  2  0  0  0  0  0  0
    2.7696    1.2020   -0.1052 N   0  0  0  0  0  0  0  0  0  0  0  0
    3.2130    2.1032    0.1054 H   0  0  0  0  0  0  0  0  0  0  0  0
    4.7857    0.0826    0.2104 N   0  0  0  0  0  0  0  0  0  0  0  0
   -3.4366   -0.8116   -0.4264 N   0  3  2  0  0  0  0  0  0  0  0  0
   -2.3743   -0.7716   -0.5988 H   0  0  0  0  0  0  0  0  0  0  0  0
   -1.5738    1.4222   -0.6368 C   0  0  1  0  0  3  0  0  0  0  0  0
   -2.9853    1.6429   -0.5591 C   0  0  0  0  0  0  0  0  0  0  0  0
   -3.4823    2.8734   -0.1303 C   0  0  0  0  0  0  0  0  0  0  0  0
   -4.5738    3.0213   -0.0748 H   0  0  0  0  0  0  0  0  0  0  0  0
   -2.6245    3.9468    0.2267 C   0  0  0  0  0  0  0  0  0  0  0  0
   -1.2485    3.7186    0.1751 C   0  0  0  0  0  0  0  0  0  0  0  0
   -0.5628    4.5282    0.4731 H   0  0  0  0  0  0  0  0  0  0  0  0
   -0.6872    2.4692   -0.2168 C   0  0  0  0  0  0  0  0  0  0  0  0
    0.7388    2.3121   -0.1319 C   0  0  0  0  0  0  0  0  0  0  0  0
    1.3226    3.2197    0.1190 H   0  0  0  0  0  0  0  0  0  0  0  0
    3.4643    0.0274   -0.0175 C   0  0  2  0  0  3  0  0  0  0  0  0
   -3.1988    5.2724    0.6554 C   0  0  0  0  0  0  0  0  0  0  0  0
   -3.8867    5.1556    1.5181 H   0  0  0  0  0  0  0  0  0  0  0  0
   -3.7848    5.7407   -0.1625 H   0  0  0  0  0  0  0  0  0  0  0  0
   -2.4055    5.9850    0.9503 H   0  0  0  0  0  0  0  0  0  0  0  0
   -3.8739    0.5130   -1.0081 C   0  0  0  0  0  0  0  0  0  0  0  0
   -3.8025    0.3770   -2.1078 H   0  0  0  0  0  0  0  0  0  0  0  0
   -4.9371    0.6808   -0.7472 H   0  0  0  0  0  0  0  0  0  0  0  0
   -3.9851   -2.0174   -1.1627 C   0  0  0  0  0  0  0  0  0  0  0  0
   -4.9267   -1.7090   -1.6596 H   0  0  0  0  0  0  0  0  0  0  0  0
   -3.2385   -2.3192   -1.9210 H   0  0  0  0  0  0  0  0  0  0  0  0
   -4.2317   -3.0535   -0.0728 C   0  0  0  0  0  0  0  0  0  0  0  0
   -4.9744   -3.8123   -0.3831 H   0  0  0  0  0  0  0  0  0  0  0  0
   -3.2848   -3.5731    0.1763 H   0  0  0  0  0  0  0  0  0  0  0  0
   -4.6955   -2.1892    1.1055 C   0  0  0  0  0  0  0  0  0  0  0  0
   -4.6594   -2.7065    2.0803 H   0  0  0  0  0  0  0  0  0  0  0  0
   -5.7335   -1.8313    0.9452 H   0  0  0  0  0  0  0  0  0  0  0  0
   -3.7289   -1.0029    1.0592 C   0  0  1  0  0  0  0  0  0  0  0  0
   -4.1571   -0.0554    1.4427 H   0  0  0  0  0  0  0  0  0  0  0  0
   -2.3885   -1.1800    1.8006 C   0  0  0  0  0  0  0  0  0  0  0  0
    5.6225   -1.1267    0.3334 C   0  0  0  0  0  0  0  0  0  0  0  0
    5.7245   -1.6094   -0.6639 H   0  0  0  0  0  0  0  0  0  0  0  0
    5.1372   -1.8581    1.0107 H   0  0  0  0  0  0  0  0  0  0  0  0
    6.9517   -0.5769    0.8607 C   0  0  0  0  0  0  0  0  0  0  0  0
    6.9248   -0.5138    1.9682 H   0  0  0  0  0  0  0  0  0  0  0  0
    7.8085   -1.2184    0.5824 H   0  0  0  0  0  0  0  0  0  0  0  0
    7.0234    0.8280    0.2452 C   0  0  0  0  0  0  0  0  0  0  0  0
    7.3375    0.7698   -0.8171 H   0  0  0  0  0  0  0  0  0  0  0  0
    7.7251    1.5051    0.7672 H   0  0  0  0  0  0  0  0  0  0  0  0
    5.5725    1.3219    0.3285 C   0  0  0  0  0  0  0  0  0  0  0  0
    5.3617    1.8192    1.3036 H   0  0  0  0  0  0  0  0  0  0  0  0
    5.3162    2.0290   -0.4898 H   0  0  0  0  0  0  0  0  0  0  0  0
  3 41  2  0  0  0  0
  4  5  1  0  0  0  0
  6 20  1  0  0  0  0
  6  7  1  0  0  0  0
  7 22  1  0  0  0  0
  7  8  1  0  0  0  0
  9 51  1  0  0  0  0
  9 42  1  0  0  0  0
 10 11  1  6  0  0  0
 10 39  1  0  0  0  0
 12  2  1  1  0  0  0
 12 13  1  0  0  0  0
 12 19  1  0  0  0  0
 13 14  2  0  0  0  0
 14 15  1  0  0  0  0
 14 16  1  0  0  0  0
 16 23  1  0  0  0  0
 17 16  2  0  0  0  0
 17 18  1  0  0  0  0
 19 20  2  0  0  0  0
 19 17  1  0  0  0  0
 20 21  1  0  0  0  0
 22  1  1  6  0  0  0
 22  9  1  0  0  0  0
 23 26  1  0  0  0  0
 23 24  1  0  0  0  0
 25 23  1  0  0  0  0
 27 29  1  0  0  0  0
 27 13  1  0  0  0  0
 27 10  1  0  0  0  0
 28 27  1  0  0  0  0
 30 10  1  0  0  0  0
 30 33  1  0  0  0  0
 31 30  1  0  0  0  0
 32 30  1  0  0  0  0
 33 35  1  0  0  0  0
 33 36  1  0  0  0  0
 34 33  1  0  0  0  0
 36 37  1  0  0  0  0
 38 36  1  0  0  0  0
 39 36  1  0  0  0  0
 39 40  1  1  0  0  0
 39 41  1  0  0  0  0
 41  4  1  0  0  0  0
 42 45  1  0  0  0  0
 42 44  1  0  0  0  0
 43 42  1  0  0  0  0
 45 46  1  0  0  0  0
 47 45  1  0  0  0  0
 48 51  1  0  0  0  0
 48 50  1  0  0  0  0
 48 45  1  0  0  0  0
 49 48  1  0  0  0  0
 51 52  1  0  0  0  0
 53 51  1  0  0  0  0
M  CHG  1  10   1
M  END
