1,2,5
q = -1.0, confidence = 0.022

 30 30  0  0  0  0  0  0  0  0999 V2000
   -0.4101    2.8744   -0.1305 S   0  0  0  0  0  1  0  0  0  0  0  0
    1.0722   -1.1667    0.0834 O   0  5  0  0  0  0  0  0  0  0  0  0
    6.1293    0.5799    0.8889 O   0  0  0  0  0  0  0  0  0  0  0  0
    6.8816    1.1840    0.7488 H   0  0  0  0  0  0  0  0  0  0  0  0
    2.1931    1.5834   -0.0212 N   0  0  0  0  0  2  0  0  0  0  0  0
    2.3370    2.9139   -0.0102 N   0  0  0  0  0  0  0  0  0  0  0  0
    1.2546    4.9539   -0.0264 N   0  0  0  0  0  0  0  0  0  0  0  0
    0.3620    5.4455   -0.0956 H   0  0  0  0  0  0  0  0  0  0  0  0
    3.8737   -3.3078   -0.1170 N   0  0  0  0  0  0  0  0  0  0  0  0
    4.0362   -4.3198   -0.1416 H   0  0  0  0  0  0  0  0  0  0  0  0
    1.1956    3.6036   -0.0474 C   0  0  0  0  0  0  0  0  0  0  0  0
    3.3145    0.8761   -0.0002 C   0  0  0  0  0  0  0  0  0  0  0  0
    4.2387    1.4696    0.0821 H   0  0  0  0  0  0  0  0  0  0  0  0
    3.4446   -0.5538   -0.0402 C   0  0  0  0  0  0  0  0  0  0  0  0
    2.3264   -1.4778    0.0061 C   0  0  0  0  0  0  0  0  0  0  0  0
    2.5921   -2.8834   -0.0399 C   0  0  0  0  0  0  0  0  0  0  0  0
    4.9521   -2.4755   -0.1650 C   0  0  0  0  0  0  0  0  0  0  0  0
    5.9392   -2.9503   -0.2292 H   0  0  0  0  0  0  0  0  0  0  0  0
    4.7701   -1.1026   -0.1395 C   0  0  0  0  0  0  0  0  0  0  0  0
    5.9988   -0.2279   -0.2676 C   0  0  0  0  0  0  0  0  0  0  0  0
    6.8864   -0.8859   -0.4202 H   0  0  0  0  0  0  0  0  0  0  0  0
    5.8925    0.3858   -1.1969 H   0  0  0  0  0  0  0  0  0  0  0  0
    1.4739   -3.8675   -0.0138 C   0  0  0  0  0  0  0  0  0  0  0  0
    0.8078   -3.7175   -0.8897 H   0  0  0  0  0  0  0  0  0  0  0  0
    0.8336   -3.6970    0.8755 H   0  0  0  0  0  0  0  0  0  0  0  0
    1.8359   -4.9136   -0.0080 H   0  0  0  0  0  0  0  0  0  0  0  0
    2.4787    5.7333   -0.0413 C   0  0  0  0  0  0  0  0  0  0  0  0
    3.2996    5.1169    0.3661 H   0  0  0  0  0  0  0  0  0  0  0  0
    2.3527    6.6383    0.5839 H   0  0  0  0  0  0  0  0  0  0  0  0
    2.7546    6.0482   -1.0714 H   0  0  0  0  0  0  0  0  0  0  0  0
  1 11  1  0  0  0  0
  4  3  1  0  0  0  0
  5  6  1  0  0  0  0
  5 12  1  0  0  0  0
  8  7  1  0  0  0  0
  9 16  1  0  0  0  0
 10  9  1  0  0  0  0
 11  7  1  0  0  0  0
 11  6  2  0  0  0  0
 12 13  1  0  0  0  0
 14 12  2  0  0  0  0
 14 15  1  0  0  0  0
 15  2  1  0  0  0  0
 16 23  1  0  0  0  0
 16 15  2  0  0  0  0
 17 19  2  0  0  0  0
 17  9  1  0  0  0  0
 18 17  1  0  0  0  0
 19 14  1  0  0  0  0
 20 19  1  0  0  0  0
 20  3  1  0  0  0  0
 21 20  1  0  0  0  0
 22 20  1  0  0  0  0
 23 26  1  0  0  0  0
 23 25  1  0  0  0  0
 24 23  1  0  0  0  0
 27  7  1  0  0  0  0
 27 28  1  0  0  0  0
 27 29  1  0  0  0  0
 30 27  1  0  0  0  0
M  CHG  1   2  -1
M  END
