1,3,4
q = -2.0, confidence = 0.926

 22 22  0  0  1  0  0  0  0  0999 V2000
   -3.3955    1.0443    0.3111 S   0  0  0  0  0  1  0  0  0  0  0  0
   -5.5836   -0.8959   -0.2496 S   0  0  0  0  0  0  0  0  0  0  0  0
   -0.2282    0.4107    1.5559 O   0  5  0  0  0  0  0  0  0  0  0  0
   -1.7281   -1.2785    0.1843 N   0  0  0  0  0  2  0  0  0  0  0  0
   -3.0300   -1.6429   -0.0707 N   0  0  0  0  0  2  0  0  0  0  0  0
    0.5493   -0.6050    1.8660 C   0  0  0  0  0  0  0  0  0  0  0  0
    1.6962   -0.3983    2.6761 C   0  0  0  0  0  0  0  0  0  0  0  0
    1.8893    0.6238    3.0314 H   0  0  0  0  0  0  0  0  0  0  0  0
    2.5630   -1.4522    2.9597 C   0  0  0  0  0  0  0  0  0  0  0  0
    3.4680   -1.2627    3.5571 H   0  0  0  0  0  0  0  0  0  0  0  0
    2.2996   -2.7592    2.4857 C   0  0  0  0  0  0  0  0  0  0  0  0
    2.9935   -3.5802    2.7167 H   0  0  0  0  0  0  0  0  0  0  0  0
    1.1531   -2.9979    1.7348 C   0  0  0  0  0  0  0  0  0  0  0  0
    0.9238   -4.0113    1.3707 H   0  0  0  0  0  0  0  0  0  0  0  0
    0.2684   -1.9400    1.3949 C   0  0  0  0  0  0  0  0  0  0  0  0
   -0.9806   -2.2121    0.7438 C   0  0  0  0  0  3  0  0  0  0  0  0
   -1.4245   -3.2231    0.8058 H   0  0  0  0  0  0  0  0  0  0  0  0
   -3.8692   -0.6403   -0.0131 C   0  0  2  0  0  3  0  0  0  0  0  0
   -5.6418   -2.6974   -0.4942 C   0  0  0  0  0  0  0  0  0  0  0  0
   -5.2483   -3.2213    0.3968 H   0  0  0  0  0  0  0  0  0  0  0  0
   -5.0476   -2.9841   -1.3817 H   0  0  0  0  0  0  0  0  0  0  0  0
   -6.7082   -2.9483   -0.6490 H   0  0  0  0  0  0  0  0  0  0  0  0
  2 18  1  0  0  0  0
  3  6  1  0  0  0  0
  4 16  1  0  0  0  0
  5 18  1  0  0  0  0
  5  4  1  0  0  0  0
  6  7  1  0  0  0  0
  7  9  2  0  0  0  0
  7  8  1  0  0  0  0
  9 10  1  0  0  0  0
 11 12  1  0  0  0  0
 11  9  1  0  0  0  0
 13 11  2  0  0  0  0
 14 13  1  0  0  0  0
 15 13  1  0  0  0  0
 15  6  2  0  0  0  0
 16 17  1  0  0  0  0
 16 15  1  0  0  0  0
 18  1  1  1  0  0  0
 19  2  1  0  0  0  0
 19 20  1  0  0  0  0
 21 19  1  0  0  0  0
 22 19  1  0  0  0  0
M  CHG  1   3  -1
M  END
