2,4,6
q = -1.0, confidence = 0.136

 64 68  0  0  0  0  0  0  0  0999 V2000
   -2.8379    0.1863    0.0101 P   0  0  0  0  0  4  0  0  0  0  0  0
   -1.9783    1.6248   -1.1711 S   0  0  0  0  0  1  0  0  0  0  0  0
    2.8501   -0.0546   -0.0769 P   0  0  0  0  0  4  0  0  0  0  0  0
    2.1405    0.0563   -1.4587 O   0  0  0  0  0  1  0  0  0  0  0  0
    0.5113   -2.4381    1.4613 O   0  0  0  0  0  0  0  0  0  0  0  0
   -0.2223   -0.9845   -0.1860 N   0  0  0  0  0  2  0  0  0  0  0  0
   -1.1981   -1.8953   -0.6307 C   0  0  0  0  0  0  0  0  0  0  0  0
   -2.5566   -1.4849   -0.6194 C   0  0  0  0  0  0  0  0  0  0  0  0
   -3.5831   -2.3300   -1.0801 C   0  0  0  0  0  0  0  0  0  0  0  0
   -4.6276   -1.9842   -1.0707 H   0  0  0  0  0  0  0  0  0  0  0  0
   -3.2590   -3.6135   -1.5388 C   0  0  0  0  0  0  0  0  0  0  0  0
   -4.0523   -4.2831   -1.9021 H   0  0  0  0  0  0  0  0  0  0  0  0
   -1.9179   -4.0404   -1.5297 C   0  0  0  0  0  0  0  0  0  0  0  0
   -1.6656   -5.0501   -1.8883 H   0  0  0  0  0  0  0  0  0  0  0  0
   -0.8949   -3.1978   -1.0783 C   0  0  0  0  0  0  0  0  0  0  0  0
    0.1521   -3.5290   -1.0724 H   0  0  0  0  0  0  0  0  0  0  0  0
   -4.6379    0.4721    0.0424 C   0  0  0  0  0  0  0  0  0  0  0  0
   -5.2877    0.8574   -1.1491 C   0  0  0  0  0  0  0  0  0  0  0  0
   -4.6961    1.0195   -2.0632 H   0  0  0  0  0  0  0  0  0  0  0  0
   -6.6771    1.0433   -1.1529 C   0  0  0  0  0  0  0  0  0  0  0  0
   -7.1832    1.3467   -2.0816 H   0  0  0  0  0  0  0  0  0  0  0  0
   -7.4183    0.8488    0.0244 C   0  0  0  0  0  0  0  0  0  0  0  0
   -8.5087    0.9985    0.0182 H   0  0  0  0  0  0  0  0  0  0  0  0
   -6.7698    0.4702    1.2106 C   0  0  0  0  0  0  0  0  0  0  0  0
   -7.3487    0.3241    2.1350 H   0  0  0  0  0  0  0  0  0  0  0  0
   -5.3798    0.2813    1.2250 C   0  0  0  0  0  0  0  0  0  0  0  0
   -4.8692   -0.0090    2.1554 H   0  0  0  0  0  0  0  0  0  0  0  0
   -2.2245    0.2359    1.7293 C   0  0  0  0  0  0  0  0  0  0  0  0
   -2.1997   -0.9306    2.5186 C   0  0  0  0  0  0  0  0  0  0  0  0
   -2.5237   -1.8934    2.0968 H   0  0  0  0  0  0  0  0  0  0  0  0
   -1.7011   -0.8669    3.8281 C   0  0  0  0  0  0  0  0  0  0  0  0
   -1.6554   -1.7829    4.4353 H   0  0  0  0  0  0  0  0  0  0  0  0
   -1.2394    0.3522    4.3489 C   0  0  0  0  0  0  0  0  0  0  0  0
   -0.8428    0.3956    5.3747 H   0  0  0  0  0  0  0  0  0  0  0  0
   -1.2673    1.5138    3.5580 C   0  0  0  0  0  0  0  0  0  0  0  0
   -0.8944    2.4673    3.9617 H   0  0  0  0  0  0  0  0  0  0  0  0
   -1.7558    1.4598    2.2453 C   0  0  0  0  0  0  0  0  0  0  0  0
   -1.7496    2.3503    1.5971 H   0  0  0  0  0  0  0  0  0  0  0  0
    0.5795   -1.3582    0.8539 C   0  0  0  0  0  0  0  0  0  0  0  0
    1.6160   -0.3009    1.2569 C   0  0  0  0  0  0  0  0  0  0  0  0
    2.1078   -0.5984    2.2024 H   0  0  0  0  0  0  0  0  0  0  0  0
    1.1279    0.6876    1.3876 H   0  0  0  0  0  0  0  0  0  0  0  0
    3.8075    1.4363    0.3240 C   0  0  0  0  0  0  0  0  0  0  0  0
    4.7698    1.4231    1.3557 C   0  0  0  0  0  0  0  0  0  0  0  0
    4.9879    0.4907    1.9004 H   0  0  0  0  0  0  0  0  0  0  0  0
    5.4591    2.6008    1.6750 C   0  0  0  0  0  0  0  0  0  0  0  0
    6.2136    2.5945    2.4762 H   0  0  0  0  0  0  0  0  0  0  0  0
    5.1899    3.7852    0.9668 C   0  0  0  0  0  0  0  0  0  0  0  0
    5.7349    4.7082    1.2178 H   0  0  0  0  0  0  0  0  0  0  0  0
    4.2327    3.7924   -0.0598 C   0  0  0  0  0  0  0  0  0  0  0  0
    4.0218    4.7189   -0.6150 H   0  0  0  0  0  0  0  0  0  0  0  0
    3.5346    2.6201   -0.3904 C   0  0  0  0  0  0  0  0  0  0  0  0
    2.7729    2.6231   -1.1909 H   0  0  0  0  0  0  0  0  0  0  0  0
    4.0130   -1.4502   -0.0492 C   0  0  0  0  0  0  0  0  0  0  0  0
    3.6979   -2.6644    0.5975 C   0  0  0  0  0  0  0  0  0  0  0  0
    2.7441   -2.7862    1.1371 H   0  0  0  0  0  0  0  0  0  0  0  0
    4.6044   -3.7343    0.5348 C   0  0  0  0  0  0  0  0  0  0  0  0
    4.3600   -4.6806    1.0407 H   0  0  0  0  0  0  0  0  0  0  0  0
    5.8117   -3.6025   -0.1689 C   0  0  0  0  0  0  0  0  0  0  0  0
    6.5174   -4.4460   -0.2134 H   0  0  0  0  0  0  0  0  0  0  0  0
    6.1211   -2.3954   -0.8180 C   0  0  0  0  0  0  0  0  0  0  0  0
    7.0659   -2.2915   -1.3724 H   0  0  0  0  0  0  0  0  0  0  0  0
    5.2260   -1.3193   -0.7594 C   0  0  0  0  0  0  0  0  0  0  0  0
    5.4683   -0.3711   -1.2639 H   0  0  0  0  0  0  0  0  0  0  0  0
  1 17  1  0  0  0  0
  1 28  1  0  0  0  0
  2  1  1  0  0  0  0
  3 54  1  0  0  0  0
  3 43  1  0  0  0  0
  3 40  1  0  0  0  0
  4  3  1  0  0  0  0
  6 39  1  0  0  0  0
  7  8  1  0  0  0  0
  7  6  1  0  0  0  0
  8  1  1  0  0  0  0
  9 10  1  0  0  0  0
  9  8  2  0  0  0  0
 11 13  2  0  0  0  0
 11  9  1  0  0  0  0
 12 11  1  0  0  0  0
 13 15  1  0  0  0  0
 14 13  1  0  0  0  0
 15 16  1  0  0  0  0
 15  7  2  0  0  0  0
 17 26  1  0  0  0  0
 18 17  2  0  0  0  0
 19 18  1  0  0  0  0
 20 18  1  0  0  0  0
 20 22  2  0  0  0  0
 21 20  1  0  0  0  0
 22 24  1  0  0  0  0
 23 22  1  0  0  0  0
 24 26  2  0  0  0  0
 24 25  1  0  0  0  0
 26 27  1  0  0  0  0
 28 37  2  0  0  0  0
 28 29  1  0  0  0  0
 29 31  2  0  0  0  0
 30 29  1  0  0  0  0
 31 33  1  0  0  0  0
 31 32  1  0  0  0  0
 33 34  1  0  0  0  0
 35 36  1  0  0  0  0
 35 33  2  0  0  0  0
 37 35  1  0  0  0  0
 38 37  1  0  0  0  0
 39 40  1  0  0  0  0
 39  5  2  0  0  0  0
 40 42  1  0  0  0  0
 40 41  1  0  0  0  0
 43 44  1  0  0  0  0
 44 46  2  0  0  0  0
 44 45  1  0  0  0  0
 46 47  1  0  0  0  0
 48 49  1  0  0  0  0
 48 46  1  0  0  0  0
 50 48  2  0  0  0  0
 51 50  1  0  0  0  0
 52 50  1  0  0  0  0
 52 43  2  0  0  0  0
 53 52  1  0  0  0  0
 54 55  1  0  0  0  0
 55 56  1  0  0  0  0
 57 55  2  0  0  0  0
 57 58  1  0  0  0  0
 59 57  1  0  0  0  0
 60 59  1  0  0  0  0
 61 63  1  0  0  0  0
 61 59  2  0  0  0  0
 62 61  1  0  0  0  0
 63 54  2  0  0  0  0
 64 63  1  0  0  0  0
M  END
