1,2,3
q = -1.0

 22 22  0  0  1  0  0  0  0  0999 V2000
    0.3287    2.0599   -0.5462 S   0  0  0  0  0  0  0  0  0  0  0  0
   -0.4431    0.3880    1.6470 O   0  0  0  0  0  1  0  0  0  0  0  0
    1.1895   -0.8311   -0.0694 N   0  0  0  0  0  2  0  0  0  0  0  0
    3.3894   -0.6081   -0.0895 N   0  0  0  0  0  0  0  0  0  0  0  0
    1.7308   -1.9791    0.4649 C   0  0  0  0  0  0  0  0  0  0  0  0
    1.0752   -2.7912    0.7996 H   0  0  0  0  0  0  0  0  0  0  0  0
    3.1046   -1.8545    0.4570 C   0  0  0  0  0  0  0  0  0  0  0  0
    3.9014   -2.5338    0.7754 H   0  0  0  0  0  0  0  0  0  0  0  0
    2.1993   -0.0064   -0.3911 C   0  0  2  0  0  3  0  0  0  0  0  0
    2.0058    1.3460   -0.9820 C   0  0  0  0  0  0  0  0  0  0  0  0
    1.9565    1.3020   -2.0910 H   0  0  0  0  0  0  0  0  0  0  0  0
    2.8029    2.0630   -0.7017 H   0  0  0  0  0  0  0  0  0  0  0  0
    0.5239    2.5233    1.2097 C   0  0  0  0  0  0  0  0  0  0  0  0
    1.4182    3.1674    1.3334 H   0  0  0  0  0  0  0  0  0  0  0  0
   -0.3834    3.1318    1.4016 H   0  0  0  0  0  0  0  0  0  0  0  0
    0.5268    1.2641    2.0923 C   0  0  0  0  0  0  0  0  0  0  0  0
    1.5449    0.7950    2.0744 H   0  0  0  0  0  0  0  0  0  0  0  0
    0.3325    1.5606    3.1499 H   0  0  0  0  0  0  0  0  0  0  0  0
    4.7126   -0.0424   -0.2935 C   0  0  0  0  0  0  0  0  0  0  0  0
    5.4714   -0.8124   -0.0663 H   0  0  0  0  0  0  0  0  0  0  0  0
    4.8835    0.8266    0.3742 H   0  0  0  0  0  0  0  0  0  0  0  0
    4.8432    0.2799   -1.3450 H   0  0  0  0  0  0  0  0  0  0  0  0
  1 13  1  0  0  0  0
  2 16  1  0  0  0  0
  3  5  1  0  0  0  0
  4  7  1  0  0  0  0
  5  6  1  0  0  0  0
  7  5  2  0  0  0  0
  7  8  1  0  0  0  0
  9 10  1  1  0  0  0
  9  4  1  0  0  0  0
  9  3  1  0  0  0  0
 10 12  1  0  0  0  0
 10  1  1  0  0  0  0
 11 10  1  0  0  0  0
 13 14  1  0  0  0  0
 13 15  1  0  0  0  0
 13 16  1  0  0  0  0
 16 18  1  0  0  0  0
 17 16  1  0  0  0  0
 19  4  1  0  0  0  0
 19 20  1  0  0  0  0
 19 21  1  0  0  0  0
 22 19  1  0  0  0  0
M  END
