2,3,4
q = -1.0, confidence = 0.022

 52 55  0  0  1  0  0  0  0  0999 V2000
    1.8264    0.7720   -0.3524 P   0  0  0  0  0  4  0  0  0  0  0  0
    0.8844   -0.2703   -1.8135 S   0  0  0  0  0  1  0  0  0  0  0  0
   -2.1529   -0.2509   -0.4780 O   0  0  0  0  0  1  0  0  0  0  0  0
   -0.0366   -0.6389    1.4237 N   0  0  0  0  0  2  0  0  0  0  0  0
    1.2918   -0.7970    1.8718 C   0  0  0  0  0  0  0  0  0  0  0  0
    2.3324   -0.2225    1.0927 C   0  0  0  0  0  0  0  0  0  0  0  0
    3.6787   -0.4019    1.4582 C   0  0  0  0  0  0  0  0  0  0  0  0
    4.4768    0.0440    0.8463 H   0  0  0  0  0  0  0  0  0  0  0  0
    3.9966   -1.1405    2.6078 C   0  0  0  0  0  0  0  0  0  0  0  0
    5.0493   -1.2870    2.8900 H   0  0  0  0  0  0  0  0  0  0  0  0
    2.9697   -1.6920    3.3917 C   0  0  0  0  0  0  0  0  0  0  0  0
    3.2194   -2.2763    4.2903 H   0  0  0  0  0  0  0  0  0  0  0  0
    1.6253   -1.5228    3.0305 C   0  0  0  0  0  0  0  0  0  0  0  0
    0.8165   -1.9797    3.6195 H   0  0  0  0  0  0  0  0  0  0  0  0
   -0.8868    0.0696    2.1704 C   0  0  0  0  0  0  0  0  0  0  0  0
   -0.5213    0.3891    3.1671 H   0  0  0  0  0  0  0  0  0  0  0  0
   -2.1518    0.5289    1.7814 C   0  0  0  0  0  0  0  0  0  0  0  0
   -2.7097    1.1029    2.5300 H   0  0  0  0  0  0  0  0  0  0  0  0
   -2.6587    0.4667    0.4566 C   0  0  1  0  0  3  0  0  0  0  0  0
   -3.8334    1.3024    0.0582 C   0  0  0  0  0  0  0  0  0  0  0  0
   -4.4580    1.0340   -1.1805 C   0  0  0  0  0  0  0  0  0  0  0  0
   -4.0642    0.2080   -1.7894 H   0  0  0  0  0  0  0  0  0  0  0  0
   -5.5459    1.8014   -1.6136 C   0  0  0  0  0  0  0  0  0  0  0  0
   -6.0249    1.5753   -2.5784 H   0  0  0  0  0  0  0  0  0  0  0  0
   -6.0267    2.8561   -0.8197 C   0  0  0  0  0  0  0  0  0  0  0  0
   -6.8812    3.4608   -1.1600 H   0  0  0  0  0  0  0  0  0  0  0  0
   -5.4093    3.1379    0.4103 C   0  0  0  0  0  0  0  0  0  0  0  0
   -5.7754    3.9681    1.0336 H   0  0  0  0  0  0  0  0  0  0  0  0
   -4.3218    2.3691    0.8458 C   0  0  0  0  0  0  0  0  0  0  0  0
   -3.8324    2.6201    1.7974 H   0  0  0  0  0  0  0  0  0  0  0  0
    0.8130    2.1414    0.3135 C   0  0  0  0  0  0  0  0  0  0  0  0
   -0.2881    2.5988   -0.4312 C   0  0  0  0  0  0  0  0  0  0  0  0
   -0.5340    2.1049   -1.3840 H   0  0  0  0  0  0  0  0  0  0  0  0
   -1.0816    3.6407    0.0719 C   0  0  0  0  0  0  0  0  0  0  0  0
   -1.9556    3.9835   -0.5012 H   0  0  0  0  0  0  0  0  0  0  0  0
   -0.7774    4.2215    1.3125 C   0  0  0  0  0  0  0  0  0  0  0  0
   -1.4077    5.0321    1.7088 H   0  0  0  0  0  0  0  0  0  0  0  0
    0.3204    3.7590    2.0585 C   0  0  0  0  0  0  0  0  0  0  0  0
    0.5524    4.2071    3.0366 H   0  0  0  0  0  0  0  0  0  0  0  0
    1.1185    2.7176    1.5639 C   0  0  0  0  0  0  0  0  0  0  0  0
    1.9640    2.3370    2.1580 H   0  0  0  0  0  0  0  0  0  0  0  0
    3.3581    1.4997   -1.0351 C   0  0  0  0  0  0  0  0  0  0  0  0
    3.7884    2.7912   -0.6725 C   0  0  0  0  0  0  0  0  0  0  0  0
    3.1807    3.4072    0.0063 H   0  0  0  0  0  0  0  0  0  0  0  0
    4.9909    3.2948   -1.1915 C   0  0  0  0  0  0  0  0  0  0  0  0
    5.3227    4.3061   -0.9124 H   0  0  0  0  0  0  0  0  0  0  0  0
    5.7630    2.5158   -2.0677 C   0  0  0  0  0  0  0  0  0  0  0  0
    6.7046    2.9154   -2.4738 H   0  0  0  0  0  0  0  0  0  0  0  0
    5.3300    1.2306   -2.4337 C   0  0  0  0  0  0  0  0  0  0  0  0
    5.9289    0.6216   -3.1275 H   0  0  0  0  0  0  0  0  0  0  0  0
    4.1282    0.7205   -1.9237 C   0  0  0  0  0  0  0  0  0  0  0  0
    3.7687   -0.2774   -2.2188 H   0  0  0  0  0  0  0  0  0  0  0  0
  1 31  1  0  0  0  0
  1  6  1  0  0  0  0
  2  1  1  0  0  0  0
  4  5  1  0  0  0  0
  4 15  1  0  0  0  0
  5 13  1  0  0  0  0
  6  7  1  0  0  0  0
  6  5  2  0  0  0  0
  7  9  2  0  0  0  0
  8  7  1  0  0  0  0
  9 10  1  0  0  0  0
  9 11  1  0  0  0  0
 11 12  1  0  0  0  0
 13 11  2  0  0  0  0
 13 14  1  0  0  0  0
 15 16  1  0  0  0  0
 17 15  2  0  0  0  0
 17 18  1  0  0  0  0
 19  3  1  6  0  0  0
 19 17  1  0  0  0  0
 20 19  1  0  0  0  0
 20 29  1  0  0  0  0
 21 20  2  0  0  0  0
 22 21  1  0  0  0  0
 23 21  1  0  0  0  0
 23 25  2  0  0  0  0
 24 23  1  0  0  0  0
 25 27  1  0  0  0  0
 26 25  1  0  0  0  0
 27 29  2  0  0  0  0
 27 28  1  0  0  0  0
 29 30  1  0  0  0  0
 31 40  1  0  0  0  0
 32 34  1  0  0  0  0
 32 31  2  0  0  0  0
 33 32  1  0  0  0  0
 34 36  2  0  0  0  0
 35 34  1  0  0  0  0
 36 37  1  0  0  0  0
 36 38  1  0  0  0  0
 38 39  1  0  0  0  0
 40 38  2  0  0  0  0
 40 41  1  0  0  0  0
 42 43  1  0  0  0  0
 42  1  1  0  0  0  0
 43 44  1  0  0  0  0
 45 46  1  0  0  0  0
 45 43  2  0  0  0  0
 47 45  1  0  0  0  0
 48 47  1  0  0  0  0
 49 47  2  0  0  0  0
 49 51  1  0  0  0  0
 50 49  1  0  0  0  0
 51 42  2  0  0  0  0
 52 51  1  0  0  0  0
M  END
