1,2,3
q = -2.0, confidence = 0.968

 54 57  0  0  1  0  0  0  0  0999 V2000
   -0.3340   -2.0394   -0.3832 S   0  0  0  0  0  1  0  0  0  0  0  0
    3.8171   -1.6461    0.5346 O   0  5  0  0  0  0  0  0  0  0  0  0
    1.7594    0.0541   -0.1219 N   0  0  0  0  0  2  0  0  0  0  0  0
   -2.8443   -0.5125   -0.0489 N   0  0  0  0  0  0  0  0  0  0  0  0
   -1.7261    0.2234   -0.0007 N   0  0  0  0  0  0  0  0  0  0  0  0
   -1.7697    1.2466    0.1256 H   0  0  0  0  0  0  0  0  0  0  0  0
    0.5103    0.5447    0.0381 N   0  0  0  0  0  0  0  0  0  0  0  0
   -3.9471   -2.8140   -0.4306 O   0  0  0  0  0  0  0  0  0  0  0  0
   -3.2190   -2.1267   -0.3150 H   0  0  0  0  0  0  0  0  0  0  0  0
   -0.4692   -0.3241   -0.1015 C   0  0  0  0  0  0  0  0  0  0  0  0
   -4.0245    0.0701    0.0257 C   0  0  0  0  0  0  0  0  0  0  0  0
    2.7304    0.9630   -0.2107 C   0  0  1  0  0  3  0  0  0  0  0  0
    2.3709    2.4129   -0.2305 C   0  0  0  0  0  0  0  0  0  0  0  0
    1.5647    2.9443   -1.2593 C   0  0  0  0  0  0  0  0  0  0  0  0
    1.1917    2.2775   -2.0499 H   0  0  0  0  0  0  0  0  0  0  0  0
    4.6410   -0.6743    0.1217 C   0  0  0  0  0  0  0  0  0  0  0  0
    5.0981    1.5716   -0.7110 C   0  0  0  0  0  0  0  0  0  0  0  0
    4.7343    2.5512   -1.0504 H   0  0  0  0  0  0  0  0  0  0  0  0
    2.8496    3.2715    0.7799 C   0  0  0  0  0  0  0  0  0  0  0  0
    3.4854    2.8619    1.5795 H   0  0  0  0  0  0  0  0  0  0  0  0
    4.1465    0.6061   -0.2804 C   0  0  0  0  0  0  0  0  0  0  0  0
   -5.2186   -0.7665   -0.0657 C   0  0  0  0  0  0  0  0  0  0  0  0
    6.9332    0.0433   -0.2960 C   0  0  0  0  0  0  0  0  0  0  0  0
    8.0111   -0.1792   -0.2994 H   0  0  0  0  0  0  0  0  0  0  0  0
   -4.1355    1.5549    0.1799 C   0  0  0  0  0  0  0  0  0  0  0  0
    6.0277   -0.9332    0.1268 C   0  0  0  0  0  0  0  0  0  0  0  0
    6.3598   -1.9272    0.4583 H   0  0  0  0  0  0  0  0  0  0  0  0
    6.4661    1.2994   -0.7277 C   0  0  0  0  0  0  0  0  0  0  0  0
    7.1725    2.0650   -1.0797 H   0  0  0  0  0  0  0  0  0  0  0  0
    1.7202    5.1567   -0.2593 C   0  0  0  0  0  0  0  0  0  0  0  0
    1.4666    6.2277   -0.2724 H   0  0  0  0  0  0  0  0  0  0  0  0
    2.5175    4.6346    0.7704 C   0  0  0  0  0  0  0  0  0  0  0  0
    2.8895    5.2928    1.5702 H   0  0  0  0  0  0  0  0  0  0  0  0
   -5.1176   -2.1831   -0.3003 C   0  0  0  0  0  0  0  0  0  0  0  0
   -6.5106   -0.1964    0.0787 C   0  0  0  0  0  0  0  0  0  0  0  0
   -6.5888    0.8829    0.2751 H   0  0  0  0  0  0  0  0  0  0  0  0
   -3.7746    2.1758    1.3955 C   0  0  0  0  0  0  0  0  0  0  0  0
   -3.4574    1.5546    2.2474 H   0  0  0  0  0  0  0  0  0  0  0  0
    1.2507    4.3088   -1.2772 C   0  0  0  0  0  0  0  0  0  0  0  0
    0.6310    4.7149   -2.0910 H   0  0  0  0  0  0  0  0  0  0  0  0
   -3.8330    3.5721    1.5228 C   0  0  0  0  0  0  0  0  0  0  0  0
   -3.5548    4.0455    2.4764 H   0  0  0  0  0  0  0  0  0  0  0  0
   -4.5513    2.3558   -0.9050 C   0  0  0  0  0  0  0  0  0  0  0  0
   -4.8328    1.8730   -1.8529 H   0  0  0  0  0  0  0  0  0  0  0  0
   -4.6083    3.7508   -0.7736 C   0  0  0  0  0  0  0  0  0  0  0  0
   -4.9354    4.3661   -1.6253 H   0  0  0  0  0  0  0  0  0  0  0  0
   -4.2490    4.3610    0.4390 C   0  0  0  0  0  0  0  0  0  0  0  0
   -4.2943    5.4559    0.5399 H   0  0  0  0  0  0  0  0  0  0  0  0
   -6.3013   -2.9496   -0.3996 C   0  0  0  0  0  0  0  0  0  0  0  0
   -6.1911   -4.0277   -0.5855 H   0  0  0  0  0  0  0  0  0  0  0  0
   -7.6675   -0.9693   -0.0166 C   0  0  0  0  0  0  0  0  0  0  0  0
   -8.6556   -0.5014    0.1004 H   0  0  0  0  0  0  0  0  0  0  0  0
   -7.5553   -2.3535   -0.2611 C   0  0  0  0  0  0  0  0  0  0  0  0
   -8.4612   -2.9740   -0.3406 H   0  0  0  0  0  0  0  0  0  0  0  0
  1 10  1  0  0  0  0
  3  7  1  0  0  0  0
  4  5  1  0  0  0  0
  4 11  2  0  0  0  0
  5  6  1  0  0  0  0
  8  9  1  0  0  0  0
  8 34  1  0  0  0  0
 10  5  1  0  0  0  0
 10  7  2  0  0  0  0
 11 25  1  0  0  0  0
 12  3  1  1  0  0  0
 13 12  1  0  0  0  0
 13 19  1  0  0  0  0
 14 13  2  0  0  0  0
 15 14  1  0  0  0  0
 16 26  1  0  0  0  0
 16  2  1  0  0  0  0
 17 21  1  0  0  0  0
 18 17  1  0  0  0  0
 19 20  1  0  0  0  0
 21 12  1  0  0  0  0
 21 16  2  0  0  0  0
 22 11  1  0  0  0  0
 22 35  1  0  0  0  0
 23 26  2  0  0  0  0
 24 23  1  0  0  0  0
 25 37  1  0  0  0  0
 26 27  1  0  0  0  0
 28 17  2  0  0  0  0
 28 23  1  0  0  0  0
 29 28  1  0  0  0  0
 30 32  1  0  0  0  0
 31 30  1  0  0  0  0
 32 19  2  0  0  0  0
 32 33  1  0  0  0  0
 34 22  2  0  0  0  0
 35 36  1  0  0  0  0
 37 41  2  0  0  0  0
 37 38  1  0  0  0  0
 39 14  1  0  0  0  0
 39 30  2  0  0  0  0
 40 39  1  0  0  0  0
 41 42  1  0  0  0  0
 43 45  1  0  0  0  0
 43 25  2  0  0  0  0
 44 43  1  0  0  0  0
 45 47  2  0  0  0  0
 46 45  1  0  0  0  0
 47 48  1  0  0  0  0
 47 41  1  0  0  0  0
 49 34  1  0  0  0  0
 49 53  2  0  0  0  0
 50 49  1  0  0  0  0
 51 35  2  0  0  0  0
 51 52  1  0  0  0  0
 53 51  1  0  0  0  0
 54 53  1  0  0  0  0
M  CHG  1   2  -1
M  END
