1,3,4
q = -1.0

 29 30  0  0  0  0  0  0  0  0999 V2000
    0.6749    2.5806   -0.4274 S   0  0  0  0  0  0  0  0  0  0  0  0
   -6.9142   -2.6367   -0.1409 Cl  0  0  0  0  0  0  0  0  0  0  0  0
   -1.1913   -1.3027    0.3713 O   0  5  0  0  0  0  0  0  0  0  0  0
   -2.0684    1.5650    0.0583 N   0  0  0  0  0  2  0  0  0  0  0  0
   -2.4684   -1.4996    0.2804 C   0  0  0  0  0  0  0  0  0  0  0  0
   -2.9285   -2.8535    0.4071 C   0  0  0  0  0  0  0  0  0  0  0  0
   -2.1627   -3.6186    0.5996 H   0  0  0  0  0  0  0  0  0  0  0  0
   -4.2632   -3.1956    0.2779 C   0  0  0  0  0  0  0  0  0  0  0  0
   -4.5862   -4.2430    0.3684 H   0  0  0  0  0  0  0  0  0  0  0  0
   -5.2319   -2.1890    0.0228 C   0  0  0  0  0  0  0  0  0  0  0  0
   -4.8405   -0.8664   -0.0878 C   0  0  0  0  0  0  0  0  0  0  0  0
   -5.5987   -0.0918   -0.2760 H   0  0  0  0  0  0  0  0  0  0  0  0
   -3.4698   -0.4769    0.0436 C   0  0  0  0  0  0  0  0  0  0  0  0
   -3.2159    0.9261   -0.0474 C   0  0  0  0  0  3  0  0  0  0  0  0
   -4.1199    1.5348   -0.2352 H   0  0  0  0  0  0  0  0  0  0  0  0
   -2.0274    2.9774    0.0092 C   0  0  0  0  0  0  0  0  0  0  0  0
   -3.1616    3.8079    0.1898 C   0  0  0  0  0  0  0  0  0  0  0  0
   -4.1374    3.3619    0.4250 H   0  0  0  0  0  0  0  0  0  0  0  0
   -3.0574    5.1993    0.1092 C   0  0  0  0  0  0  0  0  0  0  0  0
   -3.9562    5.8153    0.2618 H   0  0  0  0  0  0  0  0  0  0  0  0
   -1.8198    5.8122   -0.1529 C   0  0  0  0  0  0  0  0  0  0  0  0
   -1.7403    6.9067   -0.2237 H   0  0  0  0  0  0  0  0  0  0  0  0
   -0.6827    5.0119   -0.3148 C   0  0  0  0  0  0  0  0  0  0  0  0
    0.2940    5.4730   -0.5260 H   0  0  0  0  0  0  0  0  0  0  0  0
   -0.7806    3.6162   -0.2071 C   0  0  0  0  0  0  0  0  0  0  0  0
    1.7427    3.2315    0.9122 C   0  0  0  0  0  0  0  0  0  0  0  0
    2.0245    4.2760    0.6837 H   0  0  0  0  0  0  0  0  0  0  0  0
    2.6491    2.5964    0.8939 H   0  0  0  0  0  0  0  0  0  0  0  0
    1.2321    3.1602    1.8893 H   0  0  0  0  0  0  0  0  0  0  0  0
  1 25  1  0  0  0  0
  1 26  1  0  0  0  0
  2 10  1  0  0  0  0
  5  3  1  0  0  0  0
  5  6  1  0  0  0  0
  6  7  1  0  0  0  0
  8  9  1  0  0  0  0
  8  6  2  0  0  0  0
 10  8  1  0  0  0  0
 11 10  2  0  0  0  0
 11 13  1  0  0  0  0
 12 11  1  0  0  0  0
 13  5  2  0  0  0  0
 14 13  1  0  0  0  0
 14  4  1  0  0  0  0
 15 14  1  0  0  0  0
 16  4  1  0  0  0  0
 16 17  1  0  0  0  0
 17 18  1  0  0  0  0
 19 17  2  0  0  0  0
 19 20  1  0  0  0  0
 21 19  1  0  0  0  0
 22 21  1  0  0  0  0
 23 25  1  0  0  0  0
 23 21  2  0  0  0  0
 24 23  1  0  0  0  0
 25 16  2  0  0  0  0
 26 29  1  0  0  0  0
 27 26  1  0  0  0  0
 28 26  1  0  0  0  0
M  CHG  1   3  -1
M  END
