1,2,3
q = -1.0, confidence = 0.0

 53 54  0  0  0  0  0  0  0  0999 V2000
   -3.7152   -0.3303   -0.4504 S   0  0  0  0  0  0  0  0  0  0  0  0
    0.5307   -1.3237    0.0591 O   0  5  0  0  0  0  0  0  0  0  0  0
   -1.1632    1.1349    0.0948 N   0  0  0  0  0  2  0  0  0  0  0  0
    1.4989   -0.4640    0.0697 C   0  0  0  0  0  0  0  0  0  0  0  0
    2.8550   -0.9827    0.1132 C   0  0  0  0  0  0  0  0  0  0  0  0
    3.9047   -0.0725    0.0807 C   0  0  0  0  0  0  0  0  0  0  0  0
    4.9276   -0.4714    0.1046 H   0  0  0  0  0  0  0  0  0  0  0  0
    3.7545    1.3468    0.0112 C   0  0  0  0  0  0  0  0  0  0  0  0
    2.4618    1.8338   -0.0141 C   0  0  0  0  0  0  0  0  0  0  0  0
    2.2721    2.9160   -0.0606 H   0  0  0  0  0  0  0  0  0  0  0  0
    1.3157    0.9726    0.0266 C   0  0  0  0  0  0  0  0  0  0  0  0
    0.0588    1.6372    0.0264 C   0  0  0  0  0  3  0  0  0  0  0  0
    0.1413    2.7366   -0.0532 H   0  0  0  0  0  0  0  0  0  0  0  0
    3.1000   -2.5025    0.1720 C   0  0  0  0  0  0  0  0  0  0  0  0
    4.6021   -2.8346    0.2415 C   0  0  0  0  0  0  0  0  0  0  0  0
    4.7313   -3.9343    0.2907 H   0  0  0  0  0  0  0  0  0  0  0  0
    5.0850   -2.4026    1.1420 H   0  0  0  0  0  0  0  0  0  0  0  0
    5.1513   -2.4778   -0.6535 H   0  0  0  0  0  0  0  0  0  0  0  0
    2.4317   -3.0975    1.4352 C   0  0  0  0  0  0  0  0  0  0  0  0
    1.3392   -2.9327    1.4259 H   0  0  0  0  0  0  0  0  0  0  0  0
    2.8496   -2.6376    2.3542 H   0  0  0  0  0  0  0  0  0  0  0  0
    2.6211   -4.1898    1.4837 H   0  0  0  0  0  0  0  0  0  0  0  0
    2.5276   -3.1733   -1.1004 C   0  0  0  0  0  0  0  0  0  0  0  0
    1.4420   -2.9944   -1.2000 H   0  0  0  0  0  0  0  0  0  0  0  0
    2.7035   -4.2685   -1.0619 H   0  0  0  0  0  0  0  0  0  0  0  0
    3.0270   -2.7782   -2.0082 H   0  0  0  0  0  0  0  0  0  0  0  0
    5.0054    2.2376   -0.0299 C   0  0  0  0  0  0  0  0  0  0  0  0
    5.8456    1.8778   -1.2767 C   0  0  0  0  0  0  0  0  0  0  0  0
    6.1636    0.8162   -1.2672 H   0  0  0  0  0  0  0  0  0  0  0  0
    6.7624    2.5018   -1.3213 H   0  0  0  0  0  0  0  0  0  0  0  0
    5.2655    2.0469   -2.2062 H   0  0  0  0  0  0  0  0  0  0  0  0
    5.8459    1.9980    1.2451 C   0  0  0  0  0  0  0  0  0  0  0  0
    6.1629    0.9400    1.3374 H   0  0  0  0  0  0  0  0  0  0  0  0
    5.2669    2.2566    2.1547 H   0  0  0  0  0  0  0  0  0  0  0  0
    6.7634    2.6222    1.2295 H   0  0  0  0  0  0  0  0  0  0  0  0
    4.6446    3.7307   -0.1013 C   0  0  0  0  0  0  0  0  0  0  0  0
    5.5690    4.3418   -0.1306 H   0  0  0  0  0  0  0  0  0  0  0  0
    4.0588    4.0547    0.7828 H   0  0  0  0  0  0  0  0  0  0  0  0
    4.0584    3.9687   -1.0120 H   0  0  0  0  0  0  0  0  0  0  0  0
   -2.2882    1.9857    0.1029 C   0  0  0  0  0  0  0  0  0  0  0  0
   -2.2281    3.3770    0.3721 C   0  0  0  0  0  0  0  0  0  0  0  0
   -1.2709    3.8425    0.6423 H   0  0  0  0  0  0  0  0  0  0  0  0
   -3.3754    4.1736    0.3285 C   0  0  0  0  0  0  0  0  0  0  0  0
   -3.2898    5.2485    0.5471 H   0  0  0  0  0  0  0  0  0  0  0  0
   -4.6278    3.6172    0.0162 C   0  0  0  0  0  0  0  0  0  0  0  0
   -5.5273    4.2477   -0.0295 H   0  0  0  0  0  0  0  0  0  0  0  0
   -4.7174    2.2425   -0.2306 C   0  0  0  0  0  0  0  0  0  0  0  0
   -5.6864    1.7845   -0.4810 H   0  0  0  0  0  0  0  0  0  0  0  0
   -3.5698    1.4380   -0.1593 C   0  0  0  0  0  0  0  0  0  0  0  0
   -4.7678   -0.7969    0.9799 C   0  0  0  0  0  0  0  0  0  0  0  0
   -4.3364   -0.4219    1.9253 H   0  0  0  0  0  0  0  0  0  0  0  0
   -4.7990   -1.9030    0.9844 H   0  0  0  0  0  0  0  0  0  0  0  0
   -5.7873   -0.3979    0.8238 H   0  0  0  0  0  0  0  0  0  0  0  0
  1 49  1  0  0  0  0
  1 50  1  0  0  0  0
  2  4  1  0  0  0  0
  3 40  1  0  0  0  0
  4  5  1  0  0  0  0
  5 14  1  0  0  0  0
  6  7  1  0  0  0  0
  6  5  2  0  0  0  0
  8  6  1  0  0  0  0
  9  8  2  0  0  0  0
  9 11  1  0  0  0  0
 10  9  1  0  0  0  0
 11  4  2  0  0  0  0
 12 11  1  0  0  0  0
 12  3  1  0  0  0  0
 13 12  1  0  0  0  0
 14 15  1  0  0  0  0
 14 19  1  0  0  0  0
 15 16  1  0  0  0  0
 15 17  1  0  0  0  0
 18 15  1  0  0  0  0
 19 22  1  0  0  0  0
 19 21  1  0  0  0  0
 20 19  1  0  0  0  0
 23 25  1  0  0  0  0
 23 14  1  0  0  0  0
 24 23  1  0  0  0  0
 26 23  1  0  0  0  0
 27  8  1  0  0  0  0
 27 32  1  0  0  0  0
 28 29  1  0  0  0  0
 28 27  1  0  0  0  0
 30 28  1  0  0  0  0
 31 28  1  0  0  0  0
 32 33  1  0  0  0  0
 32 34  1  0  0  0  0
 35 32  1  0  0  0  0
 36 27  1  0  0  0  0
 36 38  1  0  0  0  0
 37 36  1  0  0  0  0
 39 36  1  0  0  0  0
 40 41  1  0  0  0  0
 41 42  1  0  0  0  0
 43 41  2  0  0  0  0
 43 44  1  0  0  0  0
 45 43  1  0  0  0  0
 46 45  1  0  0  0  0
 47 49  1  0  0  0  0
 47 45  2  0  0  0  0
 48 47  1  0  0  0  0
 49 40  2  0  0  0  0
 50 52  1  0  0  0  0
 50 51  1  0  0  0  0
 53 50  1  0  0  0  0
M  CHG  1   2  -1
M  END
