1,2,4
q = -1.0, confidence = 0.008

 19 18  0  0  1  0  0  0  0  0999 V2000
    1.0270    1.7354   -0.5885 S   0  0  0  0  0  0  0  0  0  0  0  0
    0.6206   -0.5847    1.2854 O   0  5  0  0  0  0  0  0  0  0  0  0
    2.5023   -1.5906    2.0520 O   0  0  0  0  0  0  0  0  0  0  0  0
    0.7792   -1.6532   -1.0585 N   0  0  0  0  0  0  0  0  0  0  0  0
    0.2834   -2.5357   -0.8394 H   0  0  0  0  0  0  0  0  0  0  0  0
    0.8855   -1.5948   -2.0807 H   0  0  0  0  0  0  0  0  0  0  0  0
    1.7417   -1.2782    1.1561 C   0  0  0  0  0  0  0  0  0  0  0  0
    2.0617   -1.5506   -0.3378 C   0  0  2  0  0  0  0  0  0  0  0  0
    2.6401   -2.4938   -0.4119 H   0  0  0  0  0  0  0  0  0  0  0  0
    2.9197   -0.3768   -0.8699 C   0  0  0  0  0  0  0  0  0  0  0  0
    2.8240   -0.3122   -1.9760 H   0  0  0  0  0  0  0  0  0  0  0  0
    3.9808   -0.6259   -0.6668 H   0  0  0  0  0  0  0  0  0  0  0  0
    2.6794    0.9935   -0.2267 C   0  0  0  0  0  0  0  0  0  0  0  0
    3.4239    1.7246   -0.6011 H   0  0  0  0  0  0  0  0  0  0  0  0
    2.7830    0.9327    0.8757 H   0  0  0  0  0  0  0  0  0  0  0  0
    0.9621    2.9527    0.7671 C   0  0  0  0  0  0  0  0  0  0  0  0
   -0.0539    3.3868    0.7419 H   0  0  0  0  0  0  0  0  0  0  0  0
    1.7337    3.7254    0.5907 H   0  0  0  0  0  0  0  0  0  0  0  0
    1.1119    2.4386    1.7354 H   0  0  0  0  0  0  0  0  0  0  0  0
  1 13  1  0  0  0  0
  1 16  1  0  0  0  0
  4  5  1  0  0  0  0
  4  8  1  0  0  0  0
  6  4  1  0  0  0  0
  7  2  1  0  0  0  0
  7  3  2  0  0  0  0
  8  9  1  6  0  0  0
  8  7  1  0  0  0  0
 10 12  1  0  0  0  0
 10  8  1  0  0  0  0
 10 13  1  0  0  0  0
 11 10  1  0  0  0  0
 13 15  1  0  0  0  0
 14 13  1  0  0  0  0
 16 19  1  0  0  0  0
 17 16  1  0  0  0  0
 18 16  1  0  0  0  0
M  CHG  1   2  -1
M  END
