1,2,3
q = -1.0

 37 37  0  0  1  0  0  0  0  0999 V2000
    2.3893   -1.2021   -0.4174 S   0  0  0  0  0  0  0  0  0  0  0  0
   -1.7502   -1.0347    0.7407 O   0  5  0  0  0  0  0  0  0  0  0  0
   -0.2112    0.8201   -0.8929 N   0  0  0  0  0  2  0  0  0  0  0  0
   -2.7628   -0.3879    0.2522 C   0  0  0  0  0  0  0  0  0  0  0  0
   -2.6724    0.7337   -0.6574 C   0  0  0  0  0  0  0  0  0  0  0  0
   -3.8684    1.3754   -1.1033 C   0  0  0  0  0  3  0  0  0  0  0  0
   -3.7726    2.2335   -1.7884 H   0  0  0  0  0  0  0  0  0  0  0  0
   -5.1215    0.9465   -0.6971 C   0  0  0  0  0  0  0  0  0  0  0  0
   -6.0306    1.4497   -1.0558 H   0  0  0  0  0  0  0  0  0  0  0  0
   -5.2113   -0.1526    0.1976 C   0  0  0  0  0  0  0  0  0  0  0  0
   -6.2012   -0.5020    0.5313 H   0  0  0  0  0  0  0  0  0  0  0  0
   -4.0747   -0.7968    0.6627 C   0  0  0  0  0  0  0  0  0  0  0  0
   -4.1340   -1.6467    1.3572 H   0  0  0  0  0  0  0  0  0  0  0  0
   -1.4269    1.2813   -1.0861 C   0  0  0  0  0  0  0  0  0  0  0  0
   -1.5029    2.2367   -1.6457 H   0  0  0  0  0  0  0  0  0  0  0  0
    0.8944    1.6835   -1.2863 C   0  0  2  0  0  0  0  0  0  0  0  0
    0.4758    2.5343   -1.8732 H   0  0  0  0  0  0  0  0  0  0  0  0
    1.9293    0.9916   -2.1995 C   0  0  0  0  0  0  0  0  0  0  0  0
    2.4612    1.7824   -2.7671 H   0  0  0  0  0  0  0  0  0  0  0  0
    1.3669    0.3848   -2.9384 H   0  0  0  0  0  0  0  0  0  0  0  0
    2.9940    0.1605   -1.4924 C   0  0  0  0  0  0  0  0  0  0  0  0
    3.5932    0.8075   -0.8238 H   0  0  0  0  0  0  0  0  0  0  0  0
    3.6887   -0.3022   -2.2216 H   0  0  0  0  0  0  0  0  0  0  0  0
    1.5660    2.3468   -0.0658 C   0  0  0  0  0  0  0  0  0  0  0  0
    1.3295    2.7513    2.2712 C   0  0  0  0  0  0  0  0  0  0  0  0
    2.0775    3.5485    2.0883 H   0  0  0  0  0  0  0  0  0  0  0  0
    0.4772    3.1666    2.8420 H   0  0  0  0  0  0  0  0  0  0  0  0
    1.9416    1.5450    2.9628 C   0  0  0  0  0  0  0  0  0  0  0  0
    1.1995    0.7289    3.0696 H   0  0  0  0  0  0  0  0  0  0  0  0
    2.3045    1.8284    3.9710 H   0  0  0  0  0  0  0  0  0  0  0  0
    2.8035    1.1547    2.3860 H   0  0  0  0  0  0  0  0  0  0  0  0
    2.2586   -2.5494   -1.6454 C   0  0  0  0  0  0  0  0  0  0  0  0
    1.6087   -2.2547   -2.4902 H   0  0  0  0  0  0  0  0  0  0  0  0
    1.8016   -3.3872   -1.0866 H   0  0  0  0  0  0  0  0  0  0  0  0
    3.2767   -2.8116   -1.9934 H   0  0  0  0  0  0  0  0  0  0  0  0
    0.7555    2.3495    1.0008 O   0  0  0  0  0  0  0  0  0  0  0  0
    2.6915    2.8140   -0.0985 O   0  0  0  0  0  0  0  0  0  0  0  0
  4 12  2  0  0  0  0
  4  2  1  0  0  0  0
  5  4  1  0  0  0  0
  6  8  1  0  0  0  0
  6  5  1  0  0  0  0
  7  6  1  0  0  0  0
  8 10  2  0  0  0  0
  9  8  1  0  0  0  0
 10 11  1  0  0  0  0
 10 12  1  0  0  0  0
 12 13  1  0  0  0  0
 14  3  1  0  0  0  0
 14  5  2  0  0  0  0
 15 14  1  0  0  0  0
 16 17  1  6  0  0  0
 16  3  1  0  0  0  0
 16 24  1  0  0  0  0
 18 21  1  0  0  0  0
 18 16  1  0  0  0  0
 19 18  1  0  0  0  0
 20 18  1  0  0  0  0
 21 22  1  0  0  0  0
 21  1  1  0  0  0  0
 23 21  1  0  0  0  0
 24 36  1  0  0  0  0
 25 27  1  0  0  0  0
 25 28  1  0  0  0  0
 26 25  1  0  0  0  0
 28 29  1  0  0  0  0
 28 30  1  0  0  0  0
 31 28  1  0  0  0  0
 32 34  1  0  0  0  0
 32  1  1  0  0  0  0
 33 32  1  0  0  0  0
 35 32  1  0  0  0  0
 36 25  1  0  0  0  0
 37 24  2  0  0  0  0
M  CHG  1   2  -1
M  END
