1,2,3
q = -2.0, confidence = 0.874

 30 31  0  0  1  0  0  0  0  0999 V2000
    0.4552   -1.6804   -0.0035 S   0  0  0  0  0  1  0  0  0  0  0  0
   -2.1238    1.3985   -0.0019 O   0  0  0  0  0  1  0  0  0  0  0  0
    0.6478    1.1097   -0.0008 N   0  0  0  0  0  2  0  0  0  0  0  0
    1.9165    0.5867    0.0003 N   0  0  0  0  0  0  0  0  0  0  0  0
    3.1082   -1.4449   -0.0002 N   0  0  0  0  0  0  0  0  0  0  0  0
    2.9644   -2.4556   -0.0010 H   0  0  0  0  0  0  0  0  0  0  0  0
   -1.9010    2.6911   -0.0011 C   0  0  2  0  0  3  0  0  0  0  0  0
   -0.5737    3.2511    0.0001 C   0  0  0  0  0  0  0  0  0  0  0  0
   -0.4214    4.6679    0.0010 C   0  0  0  0  0  0  0  0  0  0  0  0
    0.5999    5.0807    0.0019 H   0  0  0  0  0  0  0  0  0  0  0  0
   -1.5197    5.5195    0.0008 C   0  0  0  0  0  0  0  0  0  0  0  0
   -1.3790    6.6100    0.0016 H   0  0  0  0  0  0  0  0  0  0  0  0
   -2.8221    4.9653   -0.0003 C   0  0  0  0  0  0  0  0  0  0  0  0
   -3.7002    5.6299   -0.0005 H   0  0  0  0  0  0  0  0  0  0  0  0
   -3.0093    3.5857   -0.0013 C   0  0  0  0  0  0  0  0  0  0  0  0
   -4.0168    3.1440   -0.0021 H   0  0  0  0  0  0  0  0  0  0  0  0
    0.5983    2.4340    0.0004 C   0  0  0  0  0  0  0  0  0  0  0  0
    1.5821    2.9355    0.0018 H   0  0  0  0  0  0  0  0  0  0  0  0
    1.9369   -0.7248   -0.0008 C   0  0  0  0  0  0  0  0  0  0  0  0
    4.4481   -1.0367    0.0008 C   0  0  0  0  0  0  0  0  0  0  0  0
    4.8553    0.3167    0.0021 C   0  0  0  0  0  0  0  0  0  0  0  0
    4.0868    1.0983    0.0023 H   0  0  0  0  0  0  0  0  0  0  0  0
    6.2225    0.6264    0.0030 C   0  0  0  0  0  0  0  0  0  0  0  0
    6.5256    1.6849    0.0039 H   0  0  0  0  0  0  0  0  0  0  0  0
    7.2004   -0.3802    0.0027 C   0  0  0  0  0  0  0  0  0  0  0  0
    8.2694   -0.1216    0.0035 H   0  0  0  0  0  0  0  0  0  0  0  0
    6.7937   -1.7250    0.0015 C   0  0  0  0  0  0  0  0  0  0  0  0
    7.5428   -2.5314    0.0013 H   0  0  0  0  0  0  0  0  0  0  0  0
    5.4344   -2.0528    0.0006 C   0  0  0  0  0  0  0  0  0  0  0  0
    5.1226   -3.1101   -0.0004 H   0  0  0  0  0  0  0  0  0  0  0  0
  1 19  1  0  0  0  0
  3  4  1  0  0  0  0
  3 17  1  0  0  0  0
  5 20  1  0  0  0  0
  6  5  1  0  0  0  0
  7  2  1  1  0  0  0
  7  8  1  0  0  0  0
  8 17  2  0  0  0  0
  8  9  1  0  0  0  0
  9 10  1  0  0  0  0
 11  9  2  0  0  0  0
 11 12  1  0  0  0  0
 13 11  1  0  0  0  0
 14 13  1  0  0  0  0
 15  7  1  0  0  0  0
 15 13  2  0  0  0  0
 16 15  1  0  0  0  0
 17 18  1  0  0  0  0
 19  5  1  0  0  0  0
 19  4  2  0  0  0  0
 20 21  1  0  0  0  0
 21 22  1  0  0  0  0
 21 23  2  0  0  0  0
 23 24  1  0  0  0  0
 25 23  1  0  0  0  0
 25 26  1  0  0  0  0
 27 25  2  0  0  0  0
 28 27  1  0  0  0  0
 29 20  2  0  0  0  0
 29 27  1  0  0  0  0
 30 29  1  0  0  0  0
M  END
