1,2,3
q = -2.0, confidence = 0.904

 31 33  0  0  1  0  0  0  0  0999 V2000
   -1.1570    2.5545    0.0022 S   0  0  0  0  0  1  0  0  0  0  0  0
    1.5980    1.7148    0.0675 N   0  0  0  0  0  2  0  0  0  0  0  0
    0.8034   -0.9436    0.3996 O   0  5  0  0  0  0  0  0  0  0  0  0
    3.0947   -0.2620    0.0502 C   0  0  0  0  0  0  0  0  0  0  0  0
    2.0697   -1.2278    0.3338 C   0  0  0  0  0  0  0  0  0  0  0  0
    2.4360   -2.6014    0.5580 C   0  0  0  0  0  0  0  0  0  0  0  0
    1.6171   -3.2945    0.7998 H   0  0  0  0  0  0  0  0  0  0  0  0
    3.7419   -3.0136    0.4610 C   0  0  0  0  0  0  0  0  0  0  0  0
    4.0028   -4.0704    0.6310 H   0  0  0  0  0  0  0  0  0  0  0  0
    4.7955   -2.0983    0.1262 C   0  0  0  0  0  0  0  0  0  0  0  0
    6.1363   -2.5512    0.0048 C   0  0  0  0  0  0  0  0  0  0  0  0
    6.3447   -3.6183    0.1814 H   0  0  0  0  0  0  0  0  0  0  0  0
    7.1649   -1.6787   -0.3308 C   0  0  0  0  0  0  0  0  0  0  0  0
    8.1993   -2.0417   -0.4227 H   0  0  0  0  0  0  0  0  0  0  0  0
    6.8626   -0.3175   -0.5594 C   0  0  0  0  0  0  0  0  0  0  0  0
    7.6643    0.3840   -0.8366 H   0  0  0  0  0  0  0  0  0  0  0  0
    5.5554    0.1500   -0.4441 C   0  0  0  0  0  0  0  0  0  0  0  0
    5.3689    1.2139   -0.6475 H   0  0  0  0  0  0  0  0  0  0  0  0
    4.4793   -0.7113   -0.0923 C   0  0  1  0  0  3  0  0  0  0  0  0
    2.7832    1.1215   -0.0421 C   0  0  0  0  0  0  0  0  0  0  0  0
    3.6412    1.7934   -0.1992 H   0  0  0  0  0  0  0  0  0  0  0  0
    0.1994    3.6684    0.0189 C   0  0  0  0  0  0  0  0  0  0  0  0
    1.5124    3.1298    0.0889 C   0  0  0  0  0  0  0  0  0  0  0  0
    2.6115    4.0148    0.1863 C   0  0  0  0  0  0  0  0  0  0  0  0
    3.6350    3.6306    0.3007 H   0  0  0  0  0  0  0  0  0  0  0  0
    2.4123    5.3988    0.1661 C   0  0  0  0  0  0  0  0  0  0  0  0
    3.2787    6.0722    0.2456 H   0  0  0  0  0  0  0  0  0  0  0  0
    1.1104    5.9277    0.0596 C   0  0  0  0  0  0  0  0  0  0  0  0
    0.9555    7.0172    0.0450 H   0  0  0  0  0  0  0  0  0  0  0  0
    0.0112    5.0673   -0.0087 C   0  0  0  0  0  0  0  0  0  0  0  0
   -1.0130    5.4650   -0.0733 H   0  0  0  0  0  0  0  0  0  0  0  0
  1 22  1  0  0  0  0
  2 23  1  0  0  0  0
  4  5  1  0  0  0  0
  5  3  1  0  0  0  0
  5  6  2  0  0  0  0
  6  7  1  0  0  0  0
  8  6  1  0  0  0  0
  8  9  1  0  0  0  0
 10  8  2  0  0  0  0
 11 10  1  0  0  0  0
 11 12  1  0  0  0  0
 13 11  2  0  0  0  0
 14 13  1  0  0  0  0
 15 17  2  0  0  0  0
 15 13  1  0  0  0  0
 16 15  1  0  0  0  0
 18 17  1  0  0  0  0
 19 17  1  6  0  0  0
 19  4  1  0  0  0  0
 19 10  1  0  0  0  0
 20  4  2  0  0  0  0
 20  2  1  0  0  0  0
 21 20  1  0  0  0  0
 22 23  1  0  0  0  0
 23 24  2  0  0  0  0
 24 25  1  0  0  0  0
 26 24  1  0  0  0  0
 26 27  1  0  0  0  0
 28 26  2  0  0  0  0
 29 28  1  0  0  0  0
 30 22  2  0  0  0  0
 30 28  1  0  0  0  0
 31 30  1  0  0  0  0
M  CHG  1   3  -1
M  END
