1,3,5
q = -2.0, confidence = 0.984

 46 47  0  0  0  0  0  0  0  0999 V2000
    2.3076    1.8017    1.0465 S   0  0  0  0  0  1  0  0  0  0  0  0
    4.4597    0.3930   -0.3605 S   0  0  0  0  0  0  0  0  0  0  0  0
   -1.8925    0.9840    0.4715 O   0  5  0  0  0  0  0  0  0  0  0  0
    1.8941   -0.3386   -0.6101 N   0  0  0  0  0  0  0  0  0  0  0  0
    0.5764   -0.1723   -0.2842 N   0  0  0  0  0  2  0  0  0  0  0  0
   -5.9101   -1.3839   -0.5869 N   0  0  0  0  0  0  0  0  0  0  0  0
    2.7275    0.4898   -0.0469 C   0  0  0  0  0  0  0  0  0  0  0  0
   -0.2348   -1.0441   -0.8513 C   0  0  0  0  0  3  0  0  0  0  0  0
    0.2506   -1.8166   -1.4784 H   0  0  0  0  0  0  0  0  0  0  0  0
   -1.6592   -1.0899   -0.7420 C   0  0  0  0  0  0  0  0  0  0  0  0
   -2.3620   -2.1706   -1.3402 C   0  0  0  0  0  0  0  0  0  0  0  0
   -1.7770   -2.9490   -1.8553 H   0  0  0  0  0  0  0  0  0  0  0  0
   -3.7415   -2.2917   -1.2883 C   0  0  0  0  0  0  0  0  0  0  0  0
   -4.2131   -3.1627   -1.7576 H   0  0  0  0  0  0  0  0  0  0  0  0
   -4.5329   -1.2953   -0.6282 C   0  0  0  0  0  0  0  0  0  0  0  0
   -3.8467   -0.2024   -0.0365 C   0  0  0  0  0  0  0  0  0  0  0  0
   -4.3749    0.6016    0.4879 H   0  0  0  0  0  0  0  0  0  0  0  0
   -2.4486   -0.0869   -0.0844 C   0  0  0  0  0  0  0  0  0  0  0  0
    4.5804   -1.1378   -1.3915 C   0  0  0  0  0  0  0  0  0  0  0  0
    3.6180   -1.1991   -1.9358 H   0  0  0  0  0  0  0  0  0  0  0  0
    5.3966   -0.9248   -2.1089 H   0  0  0  0  0  0  0  0  0  0  0  0
    4.8628   -2.3805   -0.5896 C   0  0  0  0  0  0  0  0  0  0  0  0
    6.1564   -2.9382   -0.5662 C   0  0  0  0  0  0  0  0  0  0  0  0
    6.9616   -2.4614   -1.1482 H   0  0  0  0  0  0  0  0  0  0  0  0
    6.4283   -4.0905    0.1872 C   0  0  0  0  0  0  0  0  0  0  0  0
    7.4446   -4.5135    0.1928 H   0  0  0  0  0  0  0  0  0  0  0  0
    5.4071   -4.6996    0.9319 C   0  0  0  0  0  0  0  0  0  0  0  0
    5.6183   -5.6021    1.5257 H   0  0  0  0  0  0  0  0  0  0  0  0
    4.1140   -4.1501    0.9168 C   0  0  0  0  0  0  0  0  0  0  0  0
    3.3082   -4.6214    1.5001 H   0  0  0  0  0  0  0  0  0  0  0  0
    3.8421   -3.0009    0.1627 C   0  0  0  0  0  0  0  0  0  0  0  0
    2.8328   -2.5625    0.1532 H   0  0  0  0  0  0  0  0  0  0  0  0
   -6.7004   -0.4009    0.1497 C   0  0  0  0  0  0  0  0  0  0  0  0
   -6.3188    0.6146   -0.0878 H   0  0  0  0  0  0  0  0  0  0  0  0
   -7.7306   -0.4382   -0.2596 H   0  0  0  0  0  0  0  0  0  0  0  0
   -6.7345   -0.6070    1.6682 C   0  0  0  0  0  0  0  0  0  0  0  0
   -7.2050   -1.5738    1.9350 H   0  0  0  0  0  0  0  0  0  0  0  0
   -7.3173    0.2017    2.1538 H   0  0  0  0  0  0  0  0  0  0  0  0
   -5.7134   -0.5968    2.0978 H   0  0  0  0  0  0  0  0  0  0  0  0
   -6.6071   -2.5414   -1.1395 C   0  0  0  0  0  0  0  0  0  0  0  0
   -7.6489   -2.2243   -1.3506 H   0  0  0  0  0  0  0  0  0  0  0  0
   -6.1651   -2.7902   -2.1273 H   0  0  0  0  0  0  0  0  0  0  0  0
   -6.6143   -3.7818   -0.2388 C   0  0  0  0  0  0  0  0  0  0  0  0
   -5.5830   -4.1069    0.0034 H   0  0  0  0  0  0  0  0  0  0  0  0
   -7.1305   -4.6237   -0.7434 H   0  0  0  0  0  0  0  0  0  0  0  0
   -7.1383   -3.5842    0.7169 H   0  0  0  0  0  0  0  0  0  0  0  0
  2  7  1  0  0  0  0
  4  5  1  0  0  0  0
  4  7  2  0  0  0  0
  6 33  1  0  0  0  0
  7  1  1  0  0  0  0
  8 10  1  0  0  0  0
  8  5  1  0  0  0  0
  9  8  1  0  0  0  0
 10 18  1  0  0  0  0
 11 13  1  0  0  0  0
 11 10  2  0  0  0  0
 12 11  1  0  0  0  0
 13 15  2  0  0  0  0
 14 13  1  0  0  0  0
 15  6  1  0  0  0  0
 15 16  1  0  0  0  0
 16 17  1  0  0  0  0
 18 16  2  0  0  0  0
 18  3  1  0  0  0  0
 19 22  1  0  0  0  0
 19  2  1  0  0  0  0
 20 19  1  0  0  0  0
 21 19  1  0  0  0  0
 22 23  2  0  0  0  0
 22 31  1  0  0  0  0
 23 25  1  0  0  0  0
 24 23  1  0  0  0  0
 25 26  1  0  0  0  0
 25 27  2  0  0  0  0
 27 28  1  0  0  0  0
 29 27  1  0  0  0  0
 29 30  1  0  0  0  0
 31 29  2  0  0  0  0
 32 31  1  0  0  0  0
 33 36  1  0  0  0  0
 34 33  1  0  0  0  0
 35 33  1  0  0  0  0
 36 37  1  0  0  0  0
 36 39  1  0  0  0  0
 36 38  1  0  0  0  0
 40  6  1  0  0  0  0
 40 43  1  0  0  0  0
 41 40  1  0  0  0  0
 42 40  1  0  0  0  0
 43 44  1  0  0  0  0
 43 46  1  0  0  0  0
 45 43  1  0  0  0  0
M  CHG  1   3  -1
M  END
