1,2,4
q = -2.0, confidence = 0.946

 34 35  0  0  0  0  0  0  0  0999 V2000
   -1.4355    1.4930   -1.5355 S   0  0  0  0  0  1  0  0  0  0  0  0
    2.3577    0.0878   -0.1981 O   0  5  0  0  0  0  0  0  0  0  0  0
    4.9212   -0.4333    0.0105 O   0  0  0  0  0  0  0  0  0  0  0  0
   -0.2850   -0.8270   -0.1612 N   0  0  0  0  0  2  0  0  0  0  0  0
   -1.6403   -0.8257   -0.0718 N   0  0  0  0  0  0  0  0  0  0  0  0
   -3.6101    0.2685   -0.6947 N   0  0  0  0  0  0  0  0  0  0  0  0
   -3.9505    1.0881   -1.2010 H   0  0  0  0  0  0  0  0  0  0  0  0
    0.2985   -1.9081    0.3111 C   0  0  0  0  0  3  0  0  0  0  0  0
   -0.3774   -2.7045    0.6755 H   0  0  0  0  0  0  0  0  0  0  0  0
   -2.2408    0.1707   -0.6831 C   0  0  0  0  0  0  0  0  0  0  0  0
   -4.6160   -0.5565   -0.1682 C   0  0  0  0  0  0  0  0  0  0  0  0
   -4.3680   -1.7301    0.5783 C   0  0  0  0  0  0  0  0  0  0  0  0
   -3.3302   -2.0284    0.7628 H   0  0  0  0  0  0  0  0  0  0  0  0
   -5.4484   -2.4820    1.0608 C   0  0  0  0  0  0  0  0  0  0  0  0
   -5.2417   -3.3952    1.6399 H   0  0  0  0  0  0  0  0  0  0  0  0
   -6.7749   -2.0926    0.8203 C   0  0  0  0  0  0  0  0  0  0  0  0
   -7.6121   -2.6928    1.2057 H   0  0  0  0  0  0  0  0  0  0  0  0
   -7.0196   -0.9245    0.0793 C   0  0  0  0  0  0  0  0  0  0  0  0
   -8.0518   -0.6005   -0.1224 H   0  0  0  0  0  0  0  0  0  0  0  0
   -5.9542   -0.1633   -0.4109 C   0  0  0  0  0  0  0  0  0  0  0  0
   -6.1530    0.7506   -0.9942 H   0  0  0  0  0  0  0  0  0  0  0  0
    2.6897   -1.1547    0.1382 C   0  0  0  0  0  0  0  0  0  0  0  0
    4.0795   -1.4604    0.2823 C   0  0  0  0  0  0  0  0  0  0  0  0
    4.4695   -2.7492    0.6780 C   0  0  0  0  0  0  0  0  0  0  0  0
    5.5350   -2.9931    0.7844 H   0  0  0  0  0  0  0  0  0  0  0  0
    3.5005   -3.7416    0.9409 C   0  0  0  0  0  0  0  0  0  0  0  0
    3.8269   -4.7453    1.2495 H   0  0  0  0  0  0  0  0  0  0  0  0
    2.1468   -3.4545    0.8105 C   0  0  0  0  0  0  0  0  0  0  0  0
    1.3877   -4.2245    1.0142 H   0  0  0  0  0  0  0  0  0  0  0  0
    1.7167   -2.1609    0.3986 C   0  0  0  0  0  0  0  0  0  0  0  0
    6.3122   -0.6672    0.1069 C   0  0  0  0  0  0  0  0  0  0  0  0
    6.8077    0.2833   -0.1633 H   0  0  0  0  0  0  0  0  0  0  0  0
    6.6476   -1.4631   -0.5958 H   0  0  0  0  0  0  0  0  0  0  0  0
    6.6147   -0.9533    1.1399 H   0  0  0  0  0  0  0  0  0  0  0  0
  1 10  1  0  0  0  0
  2 22  1  0  0  0  0
  3 31  1  0  0  0  0
  3 23  1  0  0  0  0
  4  5  1  0  0  0  0
  4  8  1  0  0  0  0
  6 10  1  0  0  0  0
  6 11  1  0  0  0  0
  7  6  1  0  0  0  0
  8 30  1  0  0  0  0
  8  9  1  0  0  0  0
 10  5  2  0  0  0  0
 11 12  1  0  0  0  0
 12 13  1  0  0  0  0
 12 14  2  0  0  0  0
 14 15  1  0  0  0  0
 16 14  1  0  0  0  0
 16 17  1  0  0  0  0
 18 16  2  0  0  0  0
 19 18  1  0  0  0  0
 20 11  2  0  0  0  0
 20 18  1  0  0  0  0
 21 20  1  0  0  0  0
 22 23  2  0  0  0  0
 22 30  1  0  0  0  0
 23 24  1  0  0  0  0
 24 25  1  0  0  0  0
 24 26  2  0  0  0  0
 26 27  1  0  0  0  0
 28 26  1  0  0  0  0
 28 29  1  0  0  0  0
 30 28  2  0  0  0  0
 31 34  1  0  0  0  0
 32 31  1  0  0  0  0
 33 31  1  0  0  0  0
M  CHG  1   2  -1
M  END
