1,2,4
q = -2.0, confidence = 0.802

 12 11  0  0  1  0  0  0  0  0999 V2000
    2.6386   -0.9816   -0.8121 S   0  0  0  0  0  1  0  0  0  0  0  0
    0.7770    1.4115   -0.6593 O   0  5  0  0  0  0  0  0  0  0  0  0
    2.1367    3.1043   -1.3050 O   0  0  0  0  0  0  0  0  0  0  0  0
    2.1254    0.9503    1.4878 N   0  0  0  0  0  0  0  0  0  0  0  0
    1.6693    1.6747    2.0573 H   0  0  0  0  0  0  0  0  0  0  0  0
    2.6955    0.3698    2.1186 H   0  0  0  0  0  0  0  0  0  0  0  0
    3.7371    0.4247   -0.2639 C   0  0  0  0  0  0  0  0  0  0  0  0
    4.4990    0.0350    0.4457 H   0  0  0  0  0  0  0  0  0  0  0  0
    4.2676    0.8177   -1.1530 H   0  0  0  0  0  0  0  0  0  0  0  0
    2.9154    1.5401    0.3872 C   0  0  1  0  0  0  0  0  0  0  0  0
    3.5823    2.3632    0.7219 H   0  0  0  0  0  0  0  0  0  0  0  0
    1.8935    2.1213   -0.6292 C   0  0  0  0  0  0  0  0  0  0  0  0
  1  7  1  0  0  0  0
  2 12  1  0  0  0  0
  3 12  2  0  0  0  0
  4  5  1  0  0  0  0
  4  6  1  0  0  0  0
  7 10  1  0  0  0  0
  7  8  1  0  0  0  0
  9  7  1  0  0  0  0
 10 11  1  1  0  0  0
 10  4  1  0  0  0  0
 12 10  1  0  0  0  0
M  CHG  1   2  -1
M  END
