19,21,34
q = -2.0, confidence = 0.954

 34 35  0  0  0  0  0  0  0  0999 V2000
   -5.4452   -0.9543   -0.1416 C   0  0  0  0  0  0  0  0  0  0  0  0
   -4.3899   -1.7710   -0.2104 O   0  0  0  0  0  0  0  0  0  0  0  0
   -3.5587   -1.2090   -0.1688 H   0  0  0  0  0  0  0  0  0  0  0  0
   -6.7411   -1.5150   -0.1857 C   0  0  0  0  0  0  0  0  0  0  0  0
   -6.8259   -2.6073   -0.2763 H   0  0  0  0  0  0  0  0  0  0  0  0
   -7.8788   -0.7093   -0.1179 C   0  0  0  0  0  0  0  0  0  0  0  0
   -8.8800   -1.1614   -0.1540 H   0  0  0  0  0  0  0  0  0  0  0  0
   -7.7435    0.6899   -0.0033 C   0  0  0  0  0  0  0  0  0  0  0  0
   -9.2996    1.7840    0.0891 Br  0  0  0  0  0  0  0  0  0  0  0  0
   -6.4786    1.2739    0.0425 C   0  0  0  0  0  0  0  0  0  0  0  0
   -6.3761    2.3656    0.1316 H   0  0  0  0  0  0  0  0  0  0  0  0
   -5.3128    0.4708   -0.0246 C   0  0  0  0  0  0  0  0  0  0  0  0
   -4.0104    1.0991    0.0267 C   0  0  0  0  0  0  0  0  0  0  0  0
   -3.9654    2.2072    0.1140 H   0  0  0  0  0  0  0  0  0  0  0  0
   -2.9175    0.3861   -0.0275 N   0  0  0  0  0  0  0  0  0  0  0  0
   -1.7247    0.9877    0.0243 N   0  0  0  0  0  0  0  0  0  0  0  0
   -1.6420    2.0115    0.1202 H   0  0  0  0  0  0  0  0  0  0  0  0
   -0.5389    0.2916   -0.0313 C   0  0  0  0  0  0  0  0  0  0  0  0
   -0.6156   -1.4434   -0.2032 S   0  0  0  0  0  1  0  0  0  0  0  0
    0.5411    1.0381    0.0739 N   0  0  0  0  0  0  0  0  0  0  0  0
    1.7144    0.3709   -0.0193 N   0  0  0  0  0  2  0  0  0  0  0  0
    2.7853    1.1386    0.0325 C   0  0  0  0  0  3  0  0  0  0  0  0
    2.5928    2.2249    0.1091 H   0  0  0  0  0  0  0  0  0  0  0  0
    4.1592    0.7073   -0.0075 C   0  0  0  0  0  0  0  0  0  0  0  0
    5.1719    1.7026   -0.0434 C   0  0  0  0  0  0  0  0  0  0  0  0
    4.8811    2.7629   -0.0640 H   0  0  0  0  0  0  0  0  0  0  0  0
    6.5195    1.3452   -0.0582 C   0  0  0  0  0  0  0  0  0  0  0  0
    7.8571    2.6961   -0.1137 Br  0  0  0  0  0  0  0  0  0  0  0  0
    6.9005   -0.0121   -0.0300 C   0  0  0  0  0  0  0  0  0  0  0  0
    7.9652   -0.2845   -0.0421 H   0  0  0  0  0  0  0  0  0  0  0  0
    5.9187   -1.0048    0.0146 C   0  0  0  0  0  0  0  0  0  0  0  0
    6.1899   -2.0696    0.0406 H   0  0  0  0  0  0  0  0  0  0  0  0
    4.5478   -0.6684    0.0255 C   0  0  0  0  0  0  0  0  0  0  0  0
    3.6464   -1.6451    0.1048 O   0  5  0  0  0  0  0  0  0  0  0  0
  1 12  1  0  0  0  0
  2  3  1  0  0  0  0
  2  1  1  0  0  0  0
  4  1  2  0  0  0  0
  4  6  1  0  0  0  0
  5  4  1  0  0  0  0
  6  8  2  0  0  0  0
  7  6  1  0  0  0  0
  8 10  1  0  0  0  0
  8  9  1  0  0  0  0
 10 11  1  0  0  0  0
 12 13  1  0  0  0  0
 12 10  2  0  0  0  0
 13 14  1  0  0  0  0
 15 16  1  0  0  0  0
 15 13  2  0  0  0  0
 16 17  1  0  0  0  0
 18 16  1  0  0  0  0
 18 20  2  0  0  0  0
 19 18  1  0  0  0  0
 21 22  1  0  0  0  0
 21 20  1  0  0  0  0
 22 23  1  0  0  0  0
 24 33  1  0  0  0  0
 24 22  1  0  0  0  0
 25 24  2  0  0  0  0
 26 25  1  0  0  0  0
 27 25  1  0  0  0  0
 27 29  2  0  0  0  0
 28 27  1  0  0  0  0
 29 31  1  0  0  0  0
 30 29  1  0  0  0  0
 31 33  2  0  0  0  0
 31 32  1  0  0  0  0
 33 34  1  0  0  0  0
M  CHG  1  34  -1
M  END
