13,14,16
q = -1.0, confidence = 0.004

 16 15  0  0  1  0  0  0  0  0999 V2000
   -1.8232   -1.9802    1.4824 C   0  0  0  0  0  0  0  0  0  0  0  0
   -2.9450   -0.6952   -0.8504 C   0  0  0  0  0  0  0  0  0  0  0  0
   -2.5455    0.7801   -0.8199 C   0  0  1  0  0  0  0  0  0  0  0  0
   -2.2534    1.2075    0.6454 C   0  0  0  0  0  0  0  0  0  0  0  0
   -2.5312   -2.8248    1.5761 H   0  0  0  0  0  0  0  0  0  0  0  0
   -0.8370   -2.2367    1.9143 H   0  0  0  0  0  0  0  0  0  0  0  0
   -3.8147   -0.8918   -0.1943 H   0  0  0  0  0  0  0  0  0  0  0  0
   -3.1934   -1.0472   -1.8730 H   0  0  0  0  0  0  0  0  0  0  0  0
   -3.3539    1.4116   -1.2430 H   0  0  0  0  0  0  0  0  0  0  0  0
   -1.0173    1.9267   -1.6463 H   0  0  0  0  0  0  0  0  0  0  0  0
   -1.3276    0.5577   -2.5179 H   0  0  0  0  0  0  0  0  0  0  0  0
   -2.2042   -1.0610    1.9629 H   0  0  0  0  0  0  0  0  0  0  0  0
   -1.2560    0.9261   -1.5558 N   0  0  0  0  0  0  0  0  0  0  0  0
   -1.0118    0.9237    0.9965 O   0  5  0  0  0  0  0  0  0  0  0  0
   -3.1055    1.6776    1.3726 O   0  0  0  0  0  0  0  0  0  0  0  0
   -1.5008   -1.7040   -0.2845 S   0  0  0  0  0  0  0  0  0  0  0  0
  1  5  1  0  0  0  0
  1  6  1  0  0  0  0
  1 12  1  0  0  0  0
  2  3  1  0  0  0  0
  2 16  1  0  0  0  0
  2  7  1  0  0  0  0
  3  9  1  6  0  0  0
  3  4  1  0  0  0  0
  4 14  1  0  0  0  0
  4 15  2  0  0  0  0
  8  2  1  0  0  0  0
 10 13  1  0  0  0  0
 11 13  1  0  0  0  0
 13  3  1  0  0  0  0
 16  1  1  0  0  0  0
M  CHG  1  14  -1
M  END
