1,2,4
q = -1.0

 25 25  0  0  1  0  0  0  0  0999 V2000
    1.4998    2.6487   -0.0496 S   0  0  0  0  0  1  0  0  0  0  0  0
   -1.2886   -0.2589   -0.1103 O   0  0  0  0  0  1  0  0  0  0  0  0
   -6.8197   -0.0343    0.0859 O   0  0  0  0  0  0  0  0  0  0  0  0
   -1.3402    2.4951    0.0654 N   0  0  0  0  0  2  0  0  0  0  0  0
   -0.8777    3.7929    0.0845 N   0  0  0  0  0  0  0  0  0  0  0  0
   -1.5678    4.5526    0.1310 H   0  0  0  0  0  0  0  0  0  0  0  0
    0.9307    5.2734    0.0556 N   0  0  0  0  0  0  0  0  0  0  0  0
    0.3321    6.0983    0.0887 H   0  0  0  0  0  0  0  0  0  0  0  0
    1.9392    5.4163    0.0123 H   0  0  0  0  0  0  0  0  0  0  0  0
   -3.3251    1.0806    0.0419 C   0  0  0  0  0  0  0  0  0  0  0  0
   -2.5969   -0.1640   -0.0557 C   0  0  1  0  0  3  0  0  0  0  0  0
   -3.3574   -1.3655   -0.1051 C   0  0  0  0  0  0  0  0  0  0  0  0
   -2.8012   -2.3103   -0.1846 H   0  0  0  0  0  0  0  0  0  0  0  0
   -4.7463   -1.3529   -0.0620 C   0  0  0  0  0  0  0  0  0  0  0  0
   -5.2851   -2.3093   -0.1056 H   0  0  0  0  0  0  0  0  0  0  0  0
   -5.4666   -0.1254    0.0364 C   0  0  0  0  0  0  0  0  0  0  0  0
   -4.7500    1.0683    0.0860 C   0  0  0  0  0  0  0  0  0  0  0  0
   -5.3101    2.0121    0.1606 H   0  0  0  0  0  0  0  0  0  0  0  0
   -2.6566    2.3325    0.0843 C   0  0  0  0  0  0  0  0  0  0  0  0
   -3.2874    3.2422    0.1335 H   0  0  0  0  0  0  0  0  0  0  0  0
    0.4525    4.0123    0.0375 C   0  0  2  0  0  3  0  0  0  0  0  0
   -7.5898   -1.2247    0.0376 C   0  0  0  0  0  0  0  0  0  0  0  0
   -7.4289   -1.7851   -0.9101 H   0  0  0  0  0  0  0  0  0  0  0  0
   -8.6480   -0.9108    0.0910 H   0  0  0  0  0  0  0  0  0  0  0  0
   -7.3708   -1.8961    0.8976 H   0  0  0  0  0  0  0  0  0  0  0  0
  4 19  1  0  0  0  0
  4  5  1  0  0  0  0
  5  6  1  0  0  0  0
  7  8  1  0  0  0  0
  9  7  1  0  0  0  0
 10 19  2  0  0  0  0
 10 17  1  0  0  0  0
 11  2  1  6  0  0  0
 11 10  1  0  0  0  0
 12 14  2  0  0  0  0
 12 11  1  0  0  0  0
 13 12  1  0  0  0  0
 14 16  1  0  0  0  0
 15 14  1  0  0  0  0
 16  3  1  0  0  0  0
 16 17  2  0  0  0  0
 17 18  1  0  0  0  0
 19 20  1  0  0  0  0
 21  1  1  6  0  0  0
 21  7  1  0  0  0  0
 21  5  1  0  0  0  0
 22  3  1  0  0  0  0
 22 24  1  0  0  0  0
 22 25  1  0  0  0  0
 23 22  1  0  0  0  0
M  END
