1,2,3
q = -1.0

 42 42  0  0  0  0  0  0  0  0999 V2000
   -0.1112   -2.5736   -0.0558 S   0  0  0  0  0  0  0  0  0  0  0  0
    2.3013    0.6910    1.2717 O   0  5  0  0  0  0  0  0  0  0  0  0
    1.4920   -0.4914   -1.2904 N   0  0  0  0  0  2  0  0  0  0  0  0
    0.8954   -1.2742   -2.2511 N   0  0  0  0  0  0  0  0  0  0  0  0
   -0.6966   -2.9287   -2.6944 N   0  0  0  0  0  0  0  0  0  0  0  0
   -0.5076   -2.7889   -3.6902 H   0  0  0  0  0  0  0  0  0  0  0  0
   -0.9024   -3.8916   -2.4222 H   0  0  0  0  0  0  0  0  0  0  0  0
    2.2798    0.4672   -1.7435 C   0  0  0  0  0  0  0  0  0  0  0  0
    2.3630    0.5249   -2.8439 H   0  0  0  0  0  0  0  0  0  0  0  0
    3.0022    1.4180   -0.9660 C   0  0  0  0  0  0  0  0  0  0  0  0
    2.9657    1.4853    0.4862 C   0  0  0  0  0  0  0  0  0  0  0  0
    3.7335    2.5225    1.1114 C   0  0  0  0  0  0  0  0  0  0  0  0
    3.6961    2.5662    2.2091 H   0  0  0  0  0  0  0  0  0  0  0  0
    4.4892    3.4189    0.3715 C   0  0  0  0  0  0  0  0  0  0  0  0
    5.0672    4.1960    0.8960 H   0  0  0  0  0  0  0  0  0  0  0  0
    4.5286    3.3505   -1.0460 C   0  0  0  0  0  0  0  0  0  0  0  0
    5.1302    4.0668   -1.6234 H   0  0  0  0  0  0  0  0  0  0  0  0
    3.7943    2.3672   -1.6869 C   0  0  0  0  0  3  0  0  0  0  0  0
    3.8073    2.2970   -2.7863 H   0  0  0  0  0  0  0  0  0  0  0  0
    0.0832   -2.1921   -1.8417 C   0  0  0  0  0  0  0  0  0  0  0  0
   -1.8794   -2.1278    0.2412 C   0  0  0  0  0  0  0  0  0  0  0  0
   -2.4921   -2.9152   -0.2446 H   0  0  0  0  0  0  0  0  0  0  0  0
   -1.9373   -2.2505    1.3433 H   0  0  0  0  0  0  0  0  0  0  0  0
   -2.2636   -0.7213   -0.1895 C   0  0  0  0  0  0  0  0  0  0  0  0
   -2.1001   -0.6035   -1.2828 H   0  0  0  0  0  0  0  0  0  0  0  0
   -1.5816   -0.0041    0.3167 H   0  0  0  0  0  0  0  0  0  0  0  0
   -3.7201   -0.3914    0.1558 C   0  0  0  0  0  0  0  0  0  0  0  0
   -4.3999   -1.1240   -0.3354 H   0  0  0  0  0  0  0  0  0  0  0  0
   -3.8749   -0.5180    1.2503 H   0  0  0  0  0  0  0  0  0  0  0  0
   -4.1208    1.0289   -0.2532 C   0  0  0  0  0  0  0  0  0  0  0  0
   -3.9611    1.1552   -1.3480 H   0  0  0  0  0  0  0  0  0  0  0  0
   -3.4334    1.7555    0.2348 H   0  0  0  0  0  0  0  0  0  0  0  0
   -5.5683    1.3844    0.0942 C   0  0  0  0  0  0  0  0  0  0  0  0
   -5.7253    1.2571    1.1894 H   0  0  0  0  0  0  0  0  0  0  0  0
   -6.2552    0.6542   -0.3919 H   0  0  0  0  0  0  0  0  0  0  0  0
   -5.9706    2.8053   -0.3126 C   0  0  0  0  0  0  0  0  0  0  0  0
   -5.8103    2.9296   -1.4070 H   0  0  0  0  0  0  0  0  0  0  0  0
   -5.2809    3.5307    0.1734 H   0  0  0  0  0  0  0  0  0  0  0  0
   -7.4170    3.1536    0.0397 C   0  0  0  0  0  0  0  0  0  0  0  0
   -8.1312    2.4664   -0.4609 H   0  0  0  0  0  0  0  0  0  0  0  0
   -7.6778    4.1868   -0.2661 H   0  0  0  0  0  0  0  0  0  0  0  0
   -7.5959    3.0735    1.1324 H   0  0  0  0  0  0  0  0  0  0  0  0
  1 21  1  0  0  0  0
  4 20  2  0  0  0  0
  4  3  1  0  0  0  0
  5  7  1  0  0  0  0
  5 20  1  0  0  0  0
  6  5  1  0  0  0  0
  8  3  1  0  0  0  0
  8 10  2  0  0  0  0
  9  8  1  0  0  0  0
 10 11  1  0  0  0  0
 11 12  2  0  0  0  0
 11  2  1  0  0  0  0
 12 13  1  0  0  0  0
 14 15  1  0  0  0  0
 14 12  1  0  0  0  0
 16 14  2  0  0  0  0
 17 16  1  0  0  0  0
 18 16  1  0  0  0  0
 18 10  1  0  0  0  0
 19 18  1  0  0  0  0
 20  1  1  0  0  0  0
 21 23  1  0  0  0  0
 22 21  1  0  0  0  0
 24 27  1  0  0  0  0
 24 21  1  0  0  0  0
 24 26  1  0  0  0  0
 25 24  1  0  0  0  0
 27 29  1  0  0  0  0
 28 27  1  0  0  0  0
 30 33  1  0  0  0  0
 30 27  1  0  0  0  0
 30 32  1  0  0  0  0
 31 30  1  0  0  0  0
 33 34  1  0  0  0  0
 35 33  1  0  0  0  0
 36 39  1  0  0  0  0
 36 33  1  0  0  0  0
 36 38  1  0  0  0  0
 37 36  1  0  0  0  0
 39 42  1  0  0  0  0
 40 39  1  0  0  0  0
 41 39  1  0  0  0  0
M  CHG  1   2  -1
M  END
