1,2,3
q = -1.0

 30 30  0  0  1  0  0  0  0  0999 V2000
   -2.3075    0.3436   -0.6374 S   0  0  0  0  0  0  0  0  0  0  0  0
    1.6209   -1.2822   -0.1427 O   0  0  0  0  0  1  0  0  0  0  0  0
    0.3737    1.3692   -0.1924 N   0  0  0  0  0  2  0  0  0  0  0  0
   -0.5282    2.4023   -0.2874 N   0  0  0  0  0  0  0  0  0  0  0  0
   -2.7842    3.0092   -0.3708 N   0  0  0  0  0  0  0  0  0  0  0  0
   -2.4761    3.9844   -0.3382 H   0  0  0  0  0  0  0  0  0  0  0  0
   -3.5962    2.8337   -0.9663 H   0  0  0  0  0  0  0  0  0  0  0  0
    1.6325    1.7322   -0.0186 C   0  0  0  0  0  0  0  0  0  0  0  0
    1.7993    2.8227    0.0437 H   0  0  0  0  0  0  0  0  0  0  0  0
    2.7629    0.8745    0.1031 C   0  0  0  0  0  0  0  0  0  0  0  0
    2.6956   -0.5760    0.0445 C   0  0  2  0  0  3  0  0  0  0  0  0
    3.9260   -1.2948    0.2033 C   0  0  0  0  0  0  0  0  0  0  0  0
    3.8630   -2.3914    0.1604 H   0  0  0  0  0  0  0  0  0  0  0  0
    5.1332   -0.6404    0.3942 C   0  0  0  0  0  0  0  0  0  0  0  0
    6.0542   -1.2339    0.5071 H   0  0  0  0  0  0  0  0  0  0  0  0
    5.2001    0.7768    0.4462 C   0  0  0  0  0  0  0  0  0  0  0  0
    6.1627    1.2853    0.5984 H   0  0  0  0  0  0  0  0  0  0  0  0
    4.0317    1.5056    0.3030 C   0  0  0  0  0  0  0  0  0  0  0  0
    4.0589    2.6063    0.3419 H   0  0  0  0  0  0  0  0  0  0  0  0
   -1.7736    2.0825   -0.4158 C   0  0  0  0  0  0  0  0  0  0  0  0
   -3.3346    0.1065    0.9292 C   0  0  0  0  0  0  0  0  0  0  0  0
   -3.9903    1.0033    0.9138 H   0  0  0  0  0  0  0  0  0  0  0  0
   -4.1418   -1.1728    0.7348 C   0  0  0  0  0  0  0  0  0  0  0  0
   -3.4605   -2.0391    0.6055 H   0  0  0  0  0  0  0  0  0  0  0  0
   -4.8067   -1.1112   -0.1489 H   0  0  0  0  0  0  0  0  0  0  0  0
   -4.7705   -1.3413    1.6330 H   0  0  0  0  0  0  0  0  0  0  0  0
   -2.4571    0.1010    2.1714 C   0  0  0  0  0  0  0  0  0  0  0  0
   -3.1030    0.0320    3.0718 H   0  0  0  0  0  0  0  0  0  0  0  0
   -1.8467    1.0214    2.2566 H   0  0  0  0  0  0  0  0  0  0  0  0
   -1.7778   -0.7749    2.1559 H   0  0  0  0  0  0  0  0  0  0  0  0
  1 20  1  0  0  0  0
  1 21  1  0  0  0  0
  3  8  1  0  0  0  0
  4  3  1  0  0  0  0
  5  6  1  0  0  0  0
  7  5  1  0  0  0  0
  8  9  1  0  0  0  0
  8 10  2  0  0  0  0
 10 18  1  0  0  0  0
 11  2  1  6  0  0  0
 11 10  1  0  0  0  0
 11 12  1  0  0  0  0
 12 14  2  0  0  0  0
 13 12  1  0  0  0  0
 14 16  1  0  0  0  0
 14 15  1  0  0  0  0
 16 17  1  0  0  0  0
 18 19  1  0  0  0  0
 18 16  2  0  0  0  0
 20  5  1  0  0  0  0
 20  4  2  0  0  0  0
 21 27  1  0  0  0  0
 22 21  1  0  0  0  0
 23 21  1  0  0  0  0
 23 26  1  0  0  0  0
 24 23  1  0  0  0  0
 25 23  1  0  0  0  0
 27 29  1  0  0  0  0
 27 28  1  0  0  0  0
 30 27  1  0  0  0  0
M  END
