2,3,4
q = -1.0, confidence = 0.014

 56 60  0  0  1  0  0  0  0  0999 V2000
    2.4093    0.2097    0.2548 P   0  0  0  0  0  4  0  0  0  0  0  0
    2.4303   -1.7854    0.6731 S   0  0  0  0  0  1  0  0  0  0  0  0
   -0.0767   -0.5325   -1.2169 N   0  0  0  0  0  2  0  0  0  0  0  0
   -1.7229   -2.7070   -0.3256 O   0  5  0  0  0  0  0  0  0  0  0  0
   -3.2050    1.8213   -0.5449 O   0  0  0  0  0  0  0  0  0  0  0  0
   -3.6758    4.0099   -0.3744 O   0  0  0  0  0  0  0  0  0  0  0  0
    0.9166    0.0146   -2.0660 C   0  0  0  0  0  0  0  0  0  0  0  0
    2.1535    0.4560   -1.5266 C   0  0  0  0  0  0  0  0  0  0  0  0
    3.1284    1.0243   -2.3652 C   0  0  0  0  0  0  0  0  0  0  0  0
    4.0797    1.3702   -1.9342 H   0  0  0  0  0  0  0  0  0  0  0  0
    2.8847    1.1566   -3.7404 C   0  0  0  0  0  0  0  0  0  0  0  0
    3.6522    1.5984   -4.3924 H   0  0  0  0  0  0  0  0  0  0  0  0
    1.6620    0.7231   -4.2767 C   0  0  0  0  0  0  0  0  0  0  0  0
    1.4675    0.8200   -5.3553 H   0  0  0  0  0  0  0  0  0  0  0  0
    0.6832    0.1573   -3.4476 C   0  0  0  0  0  0  0  0  0  0  0  0
   -0.2690   -0.2043   -3.8623 H   0  0  0  0  0  0  0  0  0  0  0  0
   -4.1123    2.8807   -0.2626 C   0  0  0  0  0  0  0  0  0  0  0  0
   -5.4357    2.4557    0.1320 C   0  0  0  0  0  0  0  0  0  0  0  0
   -6.1569    3.2636    0.3176 H   0  0  0  0  0  0  0  0  0  0  0  0
   -5.7802    1.1306    0.3056 C   0  0  0  0  0  0  0  0  0  0  0  0
   -4.7847    0.1089    0.0762 C   0  0  0  0  0  0  0  0  0  0  0  0
   -3.5025    0.5152   -0.3496 C   0  0  2  0  0  3  0  0  0  0  0  0
   -2.4383   -0.4085   -0.5684 C   0  0  0  0  0  0  0  0  0  0  0  0
   -2.6451   -1.8142   -0.2664 C   0  0  0  0  0  0  0  0  0  0  0  0
   -3.9821   -2.2192    0.0896 C   0  0  0  0  0  0  0  0  0  0  0  0
   -4.1437   -3.2914    0.2670 H   0  0  0  0  0  0  0  0  0  0  0  0
   -4.9917   -1.2950    0.2629 C   0  0  0  0  0  0  0  0  0  0  0  0
   -5.9848   -1.6457    0.5805 H   0  0  0  0  0  0  0  0  0  0  0  0
   -1.2512    0.0671   -1.1972 C   0  0  0  0  0  0  0  0  0  0  0  0
   -1.3299    1.0408   -1.7152 H   0  0  0  0  0  0  0  0  0  0  0  0
   -7.1664    0.7464    0.7405 C   0  0  0  0  0  0  0  0  0  0  0  0
   -7.8102    1.6364    0.8664 H   0  0  0  0  0  0  0  0  0  0  0  0
   -7.1445    0.1938    1.7029 H   0  0  0  0  0  0  0  0  0  0  0  0
   -7.6444    0.0730   -0.0011 H   0  0  0  0  0  0  0  0  0  0  0  0
    4.0088    0.9586    0.6930 C   0  0  0  0  0  0  0  0  0  0  0  0
    4.0727    2.2490    1.2554 C   0  0  0  0  0  0  0  0  0  0  0  0
    3.1479    2.8094    1.4587 H   0  0  0  0  0  0  0  0  0  0  0  0
    5.3216    2.8091    1.5633 C   0  0  0  0  0  0  0  0  0  0  0  0
    5.3725    3.8151    2.0060 H   0  0  0  0  0  0  0  0  0  0  0  0
    6.4996    2.0870    1.3145 C   0  0  0  0  0  0  0  0  0  0  0  0
    7.4768    2.5293    1.5607 H   0  0  0  0  0  0  0  0  0  0  0  0
    6.4336    0.7979    0.7599 C   0  0  0  0  0  0  0  0  0  0  0  0
    7.3560    0.2279    0.5735 H   0  0  0  0  0  0  0  0  0  0  0  0
    5.1913    0.2284    0.4492 C   0  0  0  0  0  0  0  0  0  0  0  0
    5.1282   -0.7869    0.0281 H   0  0  0  0  0  0  0  0  0  0  0  0
    1.0584    1.1182    1.0814 C   0  0  0  0  0  0  0  0  0  0  0  0
    0.5449    2.2981    0.5024 C   0  0  0  0  0  0  0  0  0  0  0  0
    1.0002    2.7117   -0.4112 H   0  0  0  0  0  0  0  0  0  0  0  0
   -0.5888    2.9084    1.0580 C   0  0  0  0  0  0  0  0  0  0  0  0
   -1.0388    3.7893    0.5764 H   0  0  0  0  0  0  0  0  0  0  0  0
   -1.1942    2.3499    2.1962 C   0  0  0  0  0  0  0  0  0  0  0  0
   -2.0986    2.8183    2.6131 H   0  0  0  0  0  0  0  0  0  0  0  0
   -0.6700    1.1861    2.7812 C   0  0  0  0  0  0  0  0  0  0  0  0
   -1.1544    0.7423    3.6637 H   0  0  0  0  0  0  0  0  0  0  0  0
    0.4537    0.5594    2.2222 C   0  0  0  0  0  0  0  0  0  0  0  0
    0.8387   -0.3860    2.6354 H   0  0  0  0  0  0  0  0  0  0  0  0
  1  2  1  0  0  0  0
  1 35  1  0  0  0  0
  1 46  1  0  0  0  0
  3 29  1  0  0  0  0
  4 24  1  0  0  0  0
  5 22  1  0  0  0  0
  5 17  1  0  0  0  0
  6 17  2  0  0  0  0
  7  8  1  0  0  0  0
  7  3  1  0  0  0  0
  8  1  1  0  0  0  0
  9 10  1  0  0  0  0
  9  8  2  0  0  0  0
 11  9  1  0  0  0  0
 12 11  1  0  0  0  0
 13 11  2  0  0  0  0
 13 15  1  0  0  0  0
 14 13  1  0  0  0  0
 15  7  2  0  0  0  0
 16 15  1  0  0  0  0
 17 18  1  0  0  0  0
 18 20  2  0  0  0  0
 18 19  1  0  0  0  0
 20 31  1  0  0  0  0
 21 27  2  0  0  0  0
 21 20  1  0  0  0  0
 22 23  1  1  0  0  0
 22 21  1  0  0  0  0
 23 24  1  0  0  0  0
 24 25  2  0  0  0  0
 25 27  1  0  0  0  0
 25 26  1  0  0  0  0
 27 28  1  0  0  0  0
 29 23  2  0  0  0  0
 30 29  1  0  0  0  0
 31 32  1  0  0  0  0
 31 33  1  0  0  0  0
 34 31  1  0  0  0  0
 35 36  1  0  0  0  0
 36 37  1  0  0  0  0
 36 38  2  0  0  0  0
 38 39  1  0  0  0  0
 40 41  1  0  0  0  0
 40 38  1  0  0  0  0
 42 40  2  0  0  0  0
 43 42  1  0  0  0  0
 44 35  2  0  0  0  0
 44 42  1  0  0  0  0
 45 44  1  0  0  0  0
 46 55  1  0  0  0  0
 47 49  1  0  0  0  0
 47 46  2  0  0  0  0
 48 47  1  0  0  0  0
 49 51  2  0  0  0  0
 50 49  1  0  0  0  0
 51 52  1  0  0  0  0
 51 53  1  0  0  0  0
 53 54  1  0  0  0  0
 55 56  1  0  0  0  0
 55 53  2  0  0  0  0
M  CHG  1   4  -1
M  END
