1,2,7
q = -2.0, confidence = 0.918

 20 20  0  0  0  0  0  0  0  0999 V2000
    1.6015   -2.3849   -0.0666 S   0  0  0  0  0  1  0  0  0  0  0  0
   -1.2954    0.5997   -1.0606 O   0  5  0  0  0  0  0  0  0  0  0  0
    1.8889   -3.0124    2.5013 N   0  0  0  0  0  0  0  0  0  0  0  0
    1.5403   -3.1115    3.4553 H   0  0  0  0  0  0  0  0  0  0  0  0
    2.5476   -3.7000    2.1424 H   0  0  0  0  0  0  0  0  0  0  0  0
    0.1246   -1.6004    2.1186 N   0  0  0  0  0  0  0  0  0  0  0  0
   -0.6070   -0.9145    1.2064 N   0  0  0  0  0  2  0  0  0  0  0  0
    1.1244   -2.3019    1.6252 C   0  0  0  0  0  0  0  0  0  0  0  0
   -1.6838   -0.3297    1.6851 C   0  0  0  0  0  3  0  0  0  0  0  0
   -1.8856   -0.4977    2.7601 H   0  0  0  0  0  0  0  0  0  0  0  0
   -2.6173    0.4964    0.9568 C   0  0  0  0  0  0  0  0  0  0  0  0
   -3.7906    0.9362    1.6253 C   0  0  0  0  0  0  0  0  0  0  0  0
   -3.9559    0.6023    2.6619 H   0  0  0  0  0  0  0  0  0  0  0  0
   -4.7231    1.7623    0.9986 C   0  0  0  0  0  0  0  0  0  0  0  0
   -5.6282    2.0821    1.5348 H   0  0  0  0  0  0  0  0  0  0  0  0
   -4.4931    2.1830   -0.3268 C   0  0  0  0  0  0  0  0  0  0  0  0
   -5.2212    2.8361   -0.8317 H   0  0  0  0  0  0  0  0  0  0  0  0
   -3.3429    1.7785   -1.0110 C   0  0  0  0  0  0  0  0  0  0  0  0
   -3.1416    2.0990   -2.0429 H   0  0  0  0  0  0  0  0  0  0  0  0
   -2.3976    0.9340   -0.3886 C   0  0  0  0  0  0  0  0  0  0  0  0
  1  8  1  0  0  0  0
  2 20  1  0  0  0  0
  3  4  1  0  0  0  0
  5  3  1  0  0  0  0
  7  9  1  0  0  0  0
  7  6  1  0  0  0  0
  8  6  2  0  0  0  0
  8  3  1  0  0  0  0
  9 10  1  0  0  0  0
 11 12  1  0  0  0  0
 11  9  1  0  0  0  0
 12 13  1  0  0  0  0
 14 15  1  0  0  0  0
 14 12  2  0  0  0  0
 16 14  1  0  0  0  0
 17 16  1  0  0  0  0
 18 20  1  0  0  0  0
 18 16  2  0  0  0  0
 19 18  1  0  0  0  0
 20 11  2  0  0  0  0
M  CHG  1   2  -1
M  END
