1,6,9
q = -2.0, confidence = 0.932

 39 40  0  0  1  0  0  0  0  0999 V2000
    2.4367   -0.8987   -0.1052 O   0  5  0  0  0  0  0  0  0  0  0  0
    2.6098    0.1417   -0.8878 C   0  0  0  0  0  0  0  0  0  0  0  0
    1.5949    0.6750   -1.6724 C   0  0  0  0  0  0  0  0  0  0  0  0
    1.8558    1.5195   -2.3203 H   0  0  0  0  0  0  0  0  0  0  0  0
    0.2373    0.2336   -1.7651 C   0  0  1  0  0  3  0  0  0  0  0  0
   -0.2492   -0.7877   -1.0563 N   0  0  0  0  0  2  0  0  0  0  0  0
   -1.5867   -1.0152   -1.2421 N   0  0  0  0  0  0  0  0  0  0  0  0
   -2.1327   -1.8780   -0.4325 C   0  0  0  0  0  0  0  0  0  0  0  0
   -1.3540   -2.7085    0.9008 S   0  0  0  0  0  1  0  0  0  0  0  0
   -3.8551   -2.2542   -0.5803 S   0  0  0  0  0  0  0  0  0  0  0  0
   -4.4172   -0.8491   -1.6072 C   0  0  0  0  0  0  0  0  0  0  0  0
   -3.8309   -0.8468   -2.5461 H   0  0  0  0  0  0  0  0  0  0  0  0
   -5.4655   -1.1203   -1.8576 H   0  0  0  0  0  0  0  0  0  0  0  0
   -4.3587    0.5078   -0.9358 C   0  0  0  0  0  0  0  0  0  0  0  0
   -4.1264    1.6570   -1.7181 C   0  0  0  0  0  0  0  0  0  0  0  0
   -3.9487    1.5452   -2.7993 H   0  0  0  0  0  0  0  0  0  0  0  0
   -4.1161    2.9344   -1.1378 C   0  0  0  0  0  0  0  0  0  0  0  0
   -3.9257    3.8184   -1.7652 H   0  0  0  0  0  0  0  0  0  0  0  0
   -4.3479    3.0841    0.2386 C   0  0  0  0  0  0  0  0  0  0  0  0
   -4.3506    4.0866    0.6936 H   0  0  0  0  0  0  0  0  0  0  0  0
   -4.5802    1.9451    1.0276 C   0  0  0  0  0  0  0  0  0  0  0  0
   -4.7741    2.0492    2.1068 H   0  0  0  0  0  0  0  0  0  0  0  0
   -4.5784    0.6676    0.4462 C   0  0  0  0  0  0  0  0  0  0  0  0
   -4.7398   -0.2273    1.0671 H   0  0  0  0  0  0  0  0  0  0  0  0
    3.9861    0.7000   -0.8678 C   0  0  0  0  0  0  0  0  0  0  0  0
    5.0102   -0.0398   -0.2322 C   0  0  0  0  0  0  0  0  0  0  0  0
    4.7540   -1.0091    0.2176 H   0  0  0  0  0  0  0  0  0  0  0  0
    6.3211    0.4499   -0.1850 C   0  0  0  0  0  0  0  0  0  0  0  0
    7.1066   -0.1430    0.3076 H   0  0  0  0  0  0  0  0  0  0  0  0
    6.6338    1.6904   -0.7633 C   0  0  0  0  0  0  0  0  0  0  0  0
    7.6636    2.0768   -0.7245 H   0  0  0  0  0  0  0  0  0  0  0  0
    5.6224    2.4395   -1.3890 C   0  0  0  0  0  0  0  0  0  0  0  0
    5.8570    3.4172   -1.8364 H   0  0  0  0  0  0  0  0  0  0  0  0
    4.3122    1.9509   -1.4418 C   0  0  0  0  0  0  0  0  0  0  0  0
    3.5323    2.5613   -1.9189 H   0  0  0  0  0  0  0  0  0  0  0  0
   -0.6806    1.0020   -2.6791 C   0  0  0  0  0  0  0  0  0  0  0  0
   -0.1200    1.7469   -3.2721 H   0  0  0  0  0  0  0  0  0  0  0  0
   -1.4584    1.5218   -2.0825 H   0  0  0  0  0  0  0  0  0  0  0  0
   -1.2245    0.3132   -3.3543 H   0  0  0  0  0  0  0  0  0  0  0  0
  2 25  1  0  0  0  0
  2  1  1  0  0  0  0
  3  2  2  0  0  0  0
  4  3  1  0  0  0  0
  5  3  1  1  0  0  0
  5  6  1  0  0  0  0
  7  6  1  0  0  0  0
  7  8  2  0  0  0  0
  8  9  1  0  0  0  0
 10  8  1  0  0  0  0
 11 14  1  0  0  0  0
 11 10  1  0  0  0  0
 12 11  1  0  0  0  0
 13 11  1  0  0  0  0
 14 23  1  0  0  0  0
 15 17  1  0  0  0  0
 15 14  2  0  0  0  0
 16 15  1  0  0  0  0
 17 19  2  0  0  0  0
 18 17  1  0  0  0  0
 19 20  1  0  0  0  0
 19 21  1  0  0  0  0
 21 22  1  0  0  0  0
 23 21  2  0  0  0  0
 23 24  1  0  0  0  0
 25 26  1  0  0  0  0
 26 28  2  0  0  0  0
 26 27  1  0  0  0  0
 28 29  1  0  0  0  0
 30 31  1  0  0  0  0
 30 28  1  0  0  0  0
 32 30  2  0  0  0  0
 33 32  1  0  0  0  0
 34 32  1  0  0  0  0
 34 25  2  0  0  0  0
 35 34  1  0  0  0  0
 36 38  1  0  0  0  0
 36  5  1  0  0  0  0
 37 36  1  0  0  0  0
 39 36  1  0  0  0  0
M  CHG  1   1  -1
M  END
