1,2,7
q = -2.0, confidence = 0.94

 28 29  0  0  1  0  0  0  0  0999 V2000
    2.9079   -1.4646    0.2970 S   0  0  0  0  0  1  0  0  0  0  0  0
   -0.0693   -0.1095    1.4481 O   0  5  0  0  0  0  0  0  0  0  0  0
   -0.5741    3.5338    1.6687 C   0  0  0  0  0  0  0  0  0  0  0  0
   -0.0746    4.4679    1.3680 H   0  0  0  0  0  0  0  0  0  0  0  0
    0.0453    2.2952    1.3470 C   0  0  0  0  0  0  0  0  0  0  0  0
   -0.5917    1.0608    1.7464 C   0  0  0  0  0  0  0  0  0  0  0  0
    1.8877    1.1817    0.2261 N   0  0  0  0  0  2  0  0  0  0  0  0
    6.0586    1.1930   -0.0613 C   0  0  0  0  0  0  0  0  0  0  0  0
    5.5177    2.1493   -0.0447 H   0  0  0  0  0  0  0  0  0  0  0  0
    1.3609    2.2609    0.7831 C   0  0  0  0  0  3  0  0  0  0  0  0
    2.0394    3.1251    0.9091 H   0  0  0  0  0  0  0  0  0  0  0  0
    3.8367    0.0485    0.1090 C   0  0  2  0  0  3  0  0  0  0  0  0
   -2.4195    2.3592    2.7144 C   0  0  0  0  0  0  0  0  0  0  0  0
   -3.3955    2.3864    3.2223 H   0  0  0  0  0  0  0  0  0  0  0  0
    5.3107   -0.0063    0.0137 C   0  0  0  0  0  0  0  0  0  0  0  0
   -1.8035    3.5699    2.3172 C   0  0  0  0  0  0  0  0  0  0  0  0
   -2.2944    4.5320    2.5217 H   0  0  0  0  0  0  0  0  0  0  0  0
   -1.8165    1.1292    2.4601 C   0  0  0  0  0  0  0  0  0  0  0  0
   -2.2886    0.1819    2.7559 H   0  0  0  0  0  0  0  0  0  0  0  0
    7.4534    1.1527   -0.1509 C   0  0  0  0  0  0  0  0  0  0  0  0
    8.0237    2.0923   -0.2090 H   0  0  0  0  0  0  0  0  0  0  0  0
    5.9964   -1.2413   -0.0040 C   0  0  0  0  0  0  0  0  0  0  0  0
    5.4199   -2.1770    0.0422 H   0  0  0  0  0  0  0  0  0  0  0  0
    8.1271   -0.0814   -0.1641 C   0  0  0  0  0  0  0  0  0  0  0  0
    9.2252   -0.1105   -0.2337 H   0  0  0  0  0  0  0  0  0  0  0  0
    7.3940   -1.2762   -0.0898 C   0  0  0  0  0  0  0  0  0  0  0  0
    7.9144   -2.2456   -0.1033 H   0  0  0  0  0  0  0  0  0  0  0  0
    3.2473    1.2180    0.0733 N   0  0  0  0  0  2  0  0  0  0  0  0
  2  6  1  0  0  0  0
  3 16  1  0  0  0  0
  4  3  1  0  0  0  0
  5  3  2  0  0  0  0
  5  6  1  0  0  0  0
  6 18  2  0  0  0  0
  7 10  1  0  0  0  0
  8  9  1  0  0  0  0
  8 15  1  0  0  0  0
 10 11  1  0  0  0  0
 10  5  1  0  0  0  0
 12  1  1  1  0  0  0
 13 14  1  0  0  0  0
 15 12  1  0  0  0  0
 16 17  1  0  0  0  0
 16 13  2  0  0  0  0
 18 13  1  0  0  0  0
 18 19  1  0  0  0  0
 20  8  2  0  0  0  0
 21 20  1  0  0  0  0
 22 15  2  0  0  0  0
 22 23  1  0  0  0  0
 24 20  1  0  0  0  0
 24 26  2  0  0  0  0
 25 24  1  0  0  0  0
 26 22  1  0  0  0  0
 27 26  1  0  0  0  0
 28 12  1  0  0  0  0
 28  7  1  0  0  0  0
M  CHG  1   2  -1
M  END
