1,3,4
q = -2.0, confidence = 0.926

 25 26  0  0  1  0  0  0  0  0999 V2000
   -1.1320    2.4902   -0.0727 S   0  0  0  0  0  1  0  0  0  0  0  0
    6.8903   -1.8987    0.1466 Cl  0  0  0  0  0  0  0  0  0  0  0  0
    1.6899    1.8985    0.0272 N   0  0  0  0  0  2  0  0  0  0  0  0
    1.0951   -0.8722   -0.1867 O   0  0  0  0  0  1  0  0  0  0  0  0
    2.9183    1.4084    0.1036 C   0  0  0  0  0  0  0  0  0  0  0  0
    3.7498    2.1272    0.2155 H   0  0  0  0  0  0  0  0  0  0  0  0
    1.4768    3.3021    0.0278 C   0  0  0  0  0  0  0  0  0  0  0  0
    0.1186    3.7172   -0.0031 C   0  0  0  0  0  0  0  0  0  0  0  0
    2.3846   -1.0427   -0.1238 C   0  0  1  0  0  3  0  0  0  0  0  0
    4.7179   -0.2505    0.1263 C   0  0  0  0  0  0  0  0  0  0  0  0
    5.4346    0.5743    0.2549 H   0  0  0  0  0  0  0  0  0  0  0  0
    3.3228    0.0411    0.0422 C   0  0  0  0  0  0  0  0  0  0  0  0
    5.1778   -1.5556    0.0415 C   0  0  0  0  0  0  0  0  0  0  0  0
    2.4937    4.2852    0.0475 C   0  0  0  0  0  0  0  0  0  0  0  0
    3.5551    4.0006    0.0498 H   0  0  0  0  0  0  0  0  0  0  0  0
   -0.1990    5.0935    0.0074 C   0  0  0  0  0  0  0  0  0  0  0  0
   -1.2572    5.3949   -0.0131 H   0  0  0  0  0  0  0  0  0  0  0  0
    0.8176    6.0509    0.0383 C   0  0  0  0  0  0  0  0  0  0  0  0
    0.5626    7.1215    0.0439 H   0  0  0  0  0  0  0  0  0  0  0  0
    2.1673    5.6442    0.0556 C   0  0  0  0  0  0  0  0  0  0  0  0
    2.9716    6.3946    0.0715 H   0  0  0  0  0  0  0  0  0  0  0  0
    4.2646   -2.6277   -0.1351 C   0  0  0  0  0  0  0  0  0  0  0  0
    4.6489   -3.6556   -0.2045 H   0  0  0  0  0  0  0  0  0  0  0  0
    2.9036   -2.3711   -0.2163 C   0  0  0  0  0  0  0  0  0  0  0  0
    2.1759   -3.1844   -0.3521 H   0  0  0  0  0  0  0  0  0  0  0  0
  1  8  1  0  0  0  0
  3  7  1  0  0  0  0
  3  5  1  0  0  0  0
  5  6  1  0  0  0  0
  7 14  1  0  0  0  0
  8 16  1  0  0  0  0
  8  7  2  0  0  0  0
  9  4  1  1  0  0  0
  9 12  1  0  0  0  0
 10 11  1  0  0  0  0
 12  5  2  0  0  0  0
 12 10  1  0  0  0  0
 13 10  2  0  0  0  0
 13  2  1  0  0  0  0
 14 15  1  0  0  0  0
 14 20  2  0  0  0  0
 16 18  2  0  0  0  0
 17 16  1  0  0  0  0
 18 19  1  0  0  0  0
 18 20  1  0  0  0  0
 20 21  1  0  0  0  0
 22 13  1  0  0  0  0
 23 22  1  0  0  0  0
 24 22  2  0  0  0  0
 24  9  1  0  0  0  0
 25 24  1  0  0  0  0
M  END
