1,2,3
q = -1.0

 37 38  0  0  1  0  0  0  0  0999 V2000
   -1.8647    0.4340    1.4639 S   0  0  0  0  0  0  0  0  0  0  0  0
    1.8819    1.1780   -0.5587 O   0  5  0  0  0  0  0  0  0  0  0  0
    0.7006   -1.1365    0.8415 N   0  0  0  0  0  0  0  0  0  0  0  0
    1.3593   -1.0176    1.6293 H   0  0  0  0  0  0  0  0  0  0  0  0
    2.9232    0.3672   -0.4677 C   0  0  0  0  0  0  0  0  0  0  0  0
    4.2233    0.9461   -0.5613 C   0  0  0  0  0  0  0  0  0  0  0  0
    4.2741    2.0385   -0.6775 H   0  0  0  0  0  0  0  0  0  0  0  0
    5.3771    0.1624   -0.5176 C   0  0  0  0  0  0  0  0  0  0  0  0
    6.3619    0.6493   -0.5981 H   0  0  0  0  0  0  0  0  0  0  0  0
    5.2947   -1.2337   -0.3557 C   0  0  0  0  0  0  0  0  0  0  0  0
    6.2034   -1.8508   -0.3066 H   0  0  0  0  0  0  0  0  0  0  0  0
    4.0286   -1.8233   -0.2553 C   0  0  0  0  0  0  0  0  0  0  0  0
    3.9421   -2.9166   -0.1354 H   0  0  0  0  0  0  0  0  0  0  0  0
    2.8477   -1.0592   -0.3168 C   0  0  0  0  0  0  0  0  0  0  0  0
    1.5031   -1.7481   -0.2748 C   0  0  2  0  0  0  0  0  0  0  0  0
    1.6734   -2.8154   -0.0022 H   0  0  0  0  0  0  0  0  0  0  0  0
    0.7525   -1.6855   -1.6096 C   0  0  0  0  0  0  0  0  0  0  0  0
   -0.2691   -2.1134   -1.5503 H   0  0  0  0  0  0  0  0  0  0  0  0
    1.3201   -2.2647   -2.3627 H   0  0  0  0  0  0  0  0  0  0  0  0
    0.6762   -0.6370   -1.9572 H   0  0  0  0  0  0  0  0  0  0  0  0
   -0.4497   -1.9504    1.3021 C   0  0  0  0  0  0  0  0  0  0  0  0
   -0.0924   -2.8847    1.7925 H   0  0  0  0  0  0  0  0  0  0  0  0
   -1.0416   -2.2458    0.4135 H   0  0  0  0  0  0  0  0  0  0  0  0
   -1.3230   -1.1485    2.2515 C   0  0  0  0  0  0  0  0  0  0  0  0
   -0.7652   -0.8127    3.1501 H   0  0  0  0  0  0  0  0  0  0  0  0
   -2.2018   -1.7222    2.6031 H   0  0  0  0  0  0  0  0  0  0  0  0
   -2.9595   -0.1667    0.1480 C   0  0  0  0  0  0  0  0  0  0  0  0
   -3.8013   -1.2779    0.3338 C   0  0  0  0  0  0  0  0  0  0  0  0
   -3.8031   -1.8422    1.2775 H   0  0  0  0  0  0  0  0  0  0  0  0
   -4.6632   -1.6703   -0.7029 C   0  0  0  0  0  0  0  0  0  0  0  0
   -5.3143   -2.5462   -0.5612 H   0  0  0  0  0  0  0  0  0  0  0  0
   -4.6999   -0.9484   -1.9052 C   0  0  0  0  0  0  0  0  0  0  0  0
   -5.3769   -1.2603   -2.7145 H   0  0  0  0  0  0  0  0  0  0  0  0
   -3.8729    0.1748   -2.0689 C   0  0  0  0  0  0  0  0  0  0  0  0
   -3.8995    0.7508   -3.0061 H   0  0  0  0  0  0  0  0  0  0  0  0
   -2.9968    0.5728   -1.0492 C   0  0  0  0  0  0  0  0  0  0  0  0
   -2.3386    1.4514   -1.1649 H   0  0  0  0  0  0  0  0  0  0  0  0
  1 24  1  0  0  0  0
  2  5  1  0  0  0  0
  3 21  1  0  0  0  0
  3  4  1  0  0  0  0
  5 14  1  0  0  0  0
  6  8  1  0  0  0  0
  6  5  2  0  0  0  0
  7  6  1  0  0  0  0
  8 10  2  0  0  0  0
  9  8  1  0  0  0  0
 10 11  1  0  0  0  0
 10 12  1  0  0  0  0
 12 13  1  0  0  0  0
 14 15  1  0  0  0  0
 14 12  2  0  0  0  0
 15 16  1  1  0  0  0
 15  3  1  0  0  0  0
 17 18  1  0  0  0  0
 17 15  1  0  0  0  0
 19 17  1  0  0  0  0
 20 17  1  0  0  0  0
 21 22  1  0  0  0  0
 21 24  1  0  0  0  0
 23 21  1  0  0  0  0
 24 26  1  0  0  0  0
 24 25  1  0  0  0  0
 27 28  1  0  0  0  0
 27  1  1  0  0  0  0
 28 29  1  0  0  0  0
 30 31  1  0  0  0  0
 30 28  2  0  0  0  0
 32 30  1  0  0  0  0
 33 32  1  0  0  0  0
 34 32  2  0  0  0  0
 34 36  1  0  0  0  0
 35 34  1  0  0  0  0
 36 27  2  0  0  0  0
 37 36  1  0  0  0  0
M  CHG  1   2  -1
M  END
