1,12,16
q = -1.0, confidence = 0.0

 33 33  0  0  1  0  0  0  0  0999 V2000
   -0.4587    1.6496   -2.1914 S   0  0  0  0  0  0  0  0  0  0  0  0
   -2.1408    1.7491   -1.6118 C   0  0  0  0  0  0  0  0  0  0  0  0
   -2.6526    0.8230   -0.6597 C   0  0  0  0  0  0  0  0  0  0  0  0
   -4.0179    0.9194   -0.2943 C   0  0  0  0  0  0  0  0  0  0  0  0
   -4.4065    0.1906    0.4296 H   0  0  0  0  0  0  0  0  0  0  0  0
   -4.8318    1.9236   -0.8233 C   0  0  0  0  0  0  0  0  0  0  0  0
   -5.8866    1.9825   -0.5136 H   0  0  0  0  0  0  0  0  0  0  0  0
   -4.3100    2.8655   -1.7292 C   0  0  0  0  0  0  0  0  0  0  0  0
   -4.9467    3.6654   -2.1349 H   0  0  0  0  0  0  0  0  0  0  0  0
   -2.9689    2.7665   -2.1206 C   0  0  0  0  0  0  0  0  0  0  0  0
   -2.5399    3.4698   -2.8500 H   0  0  0  0  0  0  0  0  0  0  0  0
   -1.8081   -0.1373   -0.0590 N   0  0  0  0  0  2  0  0  0  0  0  0
   -2.4148   -1.2004    0.3671 N   0  0  0  0  0  0  0  0  0  0  0  0
   -1.9040   -2.1980    1.0975 C   0  0  0  0  0  0  0  0  0  0  0  0
   -0.5896   -2.1599    1.7654 C   0  0  2  0  0  3  0  0  0  0  0  0
   -0.0095   -1.0622    1.9299 O   0  0  0  0  0  1  0  0  0  0  0  0
    0.0789   -3.4265    2.2404 C   0  0  0  0  0  0  0  0  0  0  0  0
    1.0981   -3.1719    2.5871 H   0  0  0  0  0  0  0  0  0  0  0  0
    0.1125   -4.1918    1.4394 H   0  0  0  0  0  0  0  0  0  0  0  0
   -0.5089   -3.8969    3.0528 H   0  0  0  0  0  0  0  0  0  0  0  0
   -2.8216   -3.3644    1.2355 C   0  0  0  0  0  0  0  0  0  0  0  0
   -2.5006   -4.3957    1.8304 O   0  0  0  0  0  0  0  0  0  0  0  0
   -4.2004   -3.2446    0.5979 C   0  0  0  0  0  0  0  0  0  0  0  0
   -4.7577   -4.1761    0.8045 H   0  0  0  0  0  0  0  0  0  0  0  0
   -4.1218   -3.0782   -0.4943 H   0  0  0  0  0  0  0  0  0  0  0  0
   -4.7531   -2.3732    1.0024 H   0  0  0  0  0  0  0  0  0  0  0  0
   -0.5339    0.1942   -3.3232 C   0  0  0  0  0  0  0  0  0  0  0  0
   -0.9027   -0.6735   -2.7425 H   0  0  0  0  0  0  0  0  0  0  0  0
   -1.2638    0.4377   -4.1209 H   0  0  0  0  0  0  0  0  0  0  0  0
    0.8561   -0.0673   -3.8875 C   0  0  0  0  0  0  0  0  0  0  0  0
    0.8353   -0.9548   -4.5518 H   0  0  0  0  0  0  0  0  0  0  0  0
    1.5867   -0.2673   -3.0784 H   0  0  0  0  0  0  0  0  0  0  0  0
    1.2273    0.7938   -4.4791 H   0  0  0  0  0  0  0  0  0  0  0  0
  1  2  1  0  0  0  0
  2  3  1  0  0  0  0
  3  4  2  0  0  0  0
  3 12  1  0  0  0  0
  4  5  1  0  0  0  0
  6  7  1  0  0  0  0
  6  4  1  0  0  0  0
  8  6  2  0  0  0  0
  9  8  1  0  0  0  0
 10  8  1  0  0  0  0
 10  2  2  0  0  0  0
 11 10  1  0  0  0  0
 12 13  1  0  0  0  0
 13 14  2  0  0  0  0
 14 21  1  0  0  0  0
 14 15  1  0  0  0  0
 15 16  1  6  0  0  0
 15 17  1  0  0  0  0
 17 18  1  0  0  0  0
 17 20  1  0  0  0  0
 19 17  1  0  0  0  0
 21 22  2  0  0  0  0
 23 24  1  0  0  0  0
 23 26  1  0  0  0  0
 23 21  1  0  0  0  0
 25 23  1  0  0  0  0
 27 28  1  0  0  0  0
 27  1  1  0  0  0  0
 29 27  1  0  0  0  0
 30 27  1  0  0  0  0
 30 32  1  0  0  0  0
 31 30  1  0  0  0  0
 33 30  1  0  0  0  0
M  END
