1,3,4
q = -2.0, confidence = 0.924

 26 26  0  0  1  0  0  0  0  0999 V2000
    0.3508    2.5785   -0.1483 S   0  0  0  0  0  1  0  0  0  0  0  0
   -2.3159    3.0183    0.0462 N   0  0  0  0  0  0  0  0  0  0  0  0
   -2.3479    1.6511    0.0300 N   0  0  0  0  0  2  0  0  0  0  0  0
   -1.4466   -1.0067   -0.1229 O   0  0  0  0  0  1  0  0  0  0  0  0
   -3.0474   -2.6973   -0.1648 C   0  0  0  0  0  0  0  0  0  0  0  0
   -2.7226   -1.3102   -0.0873 C   0  0  1  0  0  3  0  0  0  0  0  0
   -1.1141    3.5454   -0.0115 C   0  0  0  0  0  0  0  0  0  0  0  0
   -3.5633    1.0913    0.0935 C   0  0  0  0  0  0  0  0  0  0  0  0
   -1.0001    4.9074    0.0394 N   0  0  0  0  0  0  0  0  0  0  0  0
   -3.7862   -0.3452    0.0272 C   0  0  0  0  0  0  0  0  0  0  0  0
   -4.3638   -3.1404   -0.1295 C   0  0  0  0  0  0  0  0  0  0  0  0
   -5.1224   -0.8487    0.0604 C   0  0  0  0  0  0  0  0  0  0  0  0
   -4.7696    1.9906    0.2273 C   0  0  0  0  0  0  0  0  0  0  0  0
   -5.4173   -2.2062   -0.0146 C   0  0  0  0  0  0  0  0  0  0  0  0
    0.2226    5.6309   -0.2126 C   0  0  0  0  0  0  0  0  0  0  0  0
   -5.9565   -0.1401    0.1434 H   0  0  0  0  0  0  0  0  0  0  0  0
   -6.4638   -2.5437    0.0136 H   0  0  0  0  0  0  0  0  0  0  0  0
   -4.5811   -4.2183   -0.1919 H   0  0  0  0  0  0  0  0  0  0  0  0
   -2.2012   -3.3941   -0.2555 H   0  0  0  0  0  0  0  0  0  0  0  0
   -5.3757    1.7010    1.1086 H   0  0  0  0  0  0  0  0  0  0  0  0
   -4.4428    3.0368    0.3291 H   0  0  0  0  0  0  0  0  0  0  0  0
   -5.4237    1.9036   -0.6645 H   0  0  0  0  0  0  0  0  0  0  0  0
   -1.8907    5.4049   -0.0069 H   0  0  0  0  0  0  0  0  0  0  0  0
    1.0580    5.1720    0.3553 H   0  0  0  0  0  0  0  0  0  0  0  0
    0.5182    5.6406   -1.2881 H   0  0  0  0  0  0  0  0  0  0  0  0
    0.1063    6.6773    0.1292 H   0  0  0  0  0  0  0  0  0  0  0  0
  1  7  1  0  0  0  0
  3  2  1  0  0  0  0
  3  8  1  0  0  0  0
  5 11  2  0  0  0  0
  5  6  1  0  0  0  0
  6  4  1  1  0  0  0
  6 10  1  0  0  0  0
  7  9  1  0  0  0  0
  7  2  2  0  0  0  0
  8 13  1  0  0  0  0
 10 12  1  0  0  0  0
 10  8  2  0  0  0  0
 11 14  1  0  0  0  0
 12 16  1  0  0  0  0
 13 21  1  0  0  0  0
 13 20  1  0  0  0  0
 14 17  1  0  0  0  0
 14 12  2  0  0  0  0
 15  9  1  0  0  0  0
 15 26  1  0  0  0  0
 15 24  1  0  0  0  0
 18 11  1  0  0  0  0
 19  5  1  0  0  0  0
 22 13  1  0  0  0  0
 23  9  1  0  0  0  0
 25 15  1  0  0  0  0
M  END
