2,3,4
q = -1.0, confidence = 0.008

 31 32  0  0  0  0  0  0  0  0999 V2000
    5.9740   -1.5077   -0.2881 Cl  0  0  0  0  0  0  0  0  0  0  0  0
   -2.3619    0.1359    1.1888 S   0  0  0  0  0  0  0  0  0  0  0  0
    0.8430    1.0192    1.1771 O   0  5  0  0  0  0  0  0  0  0  0  0
   -0.2462   -0.7848   -0.5488 N   0  0  0  0  0  2  0  0  0  0  0  0
    0.9095   -1.3389   -0.5937 N   0  0  0  0  0  2  0  0  0  0  0  0
    1.9384    0.4318    0.8130 C   0  0  0  0  0  0  0  0  0  0  0  0
    3.1677    0.8053    1.4454 C   0  0  0  0  0  0  0  0  0  0  0  0
    3.1189    1.6173    2.1849 H   0  0  0  0  0  0  0  0  0  0  0  0
    4.3782    0.2326    1.0932 C   0  0  0  0  0  0  0  0  0  0  0  0
    5.3150    0.5777    1.5543 H   0  0  0  0  0  0  0  0  0  0  0  0
    4.4292   -0.8088    0.1233 C   0  0  0  0  0  0  0  0  0  0  0  0
    3.2652   -1.2755   -0.4578 C   0  0  0  0  0  0  0  0  0  0  0  0
    3.2732   -2.1119   -1.1690 H   0  0  0  0  0  0  0  0  0  0  0  0
    2.0089   -0.6723   -0.1449 C   0  0  0  0  0  0  0  0  0  0  0  0
   -1.3557   -1.6558   -0.6583 C   0  0  0  0  0  0  0  0  0  0  0  0
   -1.3734   -2.8208   -1.4459 C   0  0  0  0  0  0  0  0  0  0  0  0
   -0.4729   -3.0800   -2.0194 H   0  0  0  0  0  0  0  0  0  0  0  0
   -2.5378   -3.5974   -1.4947 C   0  0  0  0  0  0  0  0  0  0  0  0
   -2.5640   -4.4923   -2.1344 H   0  0  0  0  0  0  0  0  0  0  0  0
   -3.6754   -3.2404   -0.7473 C   0  0  0  0  0  0  0  0  0  0  0  0
   -4.5858   -3.8553   -0.7993 H   0  0  0  0  0  0  0  0  0  0  0  0
   -3.6530   -2.0969    0.0677 C   0  0  0  0  0  0  0  0  0  0  0  0
   -4.5288   -1.8121    0.6692 H   0  0  0  0  0  0  0  0  0  0  0  0
   -2.4942   -1.3098    0.1110 C   0  0  0  0  0  0  0  0  0  0  0  0
   -1.4446   -0.5992    2.6232 C   0  0  0  0  0  0  0  0  0  0  0  0
   -0.5149   -1.0416    2.2176 H   0  0  0  0  0  0  0  0  0  0  0  0
   -1.1521    0.2915    3.2148 H   0  0  0  0  0  0  0  0  0  0  0  0
   -2.2905   -1.5843    3.4116 C   0  0  0  0  0  0  0  0  0  0  0  0
   -1.7064   -1.9679    4.2729 H   0  0  0  0  0  0  0  0  0  0  0  0
   -2.5829   -2.4561    2.7924 H   0  0  0  0  0  0  0  0  0  0  0  0
   -3.2116   -1.1115    3.8070 H   0  0  0  0  0  0  0  0  0  0  0  0
  1 11  1  0  0  0  0
  2 25  1  0  0  0  0
  5  4  1  0  0  0  0
  5 14  1  0  0  0  0
  6  3  1  0  0  0  0
  6  7  1  0  0  0  0
  7  8  1  0  0  0  0
  9  7  2  0  0  0  0
  9 10  1  0  0  0  0
 11  9  1  0  0  0  0
 12 14  1  0  0  0  0
 12 11  2  0  0  0  0
 13 12  1  0  0  0  0
 14  6  2  0  0  0  0
 15  4  1  0  0  0  0
 15 24  1  0  0  0  0
 16 15  2  0  0  0  0
 17 16  1  0  0  0  0
 18 16  1  0  0  0  0
 18 20  2  0  0  0  0
 19 18  1  0  0  0  0
 20 22  1  0  0  0  0
 21 20  1  0  0  0  0
 22 24  2  0  0  0  0
 22 23  1  0  0  0  0
 24  2  1  0  0  0  0
 25 27  1  0  0  0  0
 25 28  1  0  0  0  0
 26 25  1  0  0  0  0
 28 31  1  0  0  0  0
 28 29  1  0  0  0  0
 30 28  1  0  0  0  0
M  CHG  1   3  -1
M  END
