2,24,25
q = -1.0

 39 41  0  0  1  0  0  0  0  0999 V2000
   -4.1060   -1.9196   -0.2447 Br  0  0  0  0  0  0  0  0  0  0  0  0
    3.0407   -1.3570   -0.3830 S   0  0  0  0  0  0  0  0  0  0  0  0
   -4.6735    3.6093    0.0332 Cl  0  0  0  0  0  0  0  0  0  0  0  0
    3.3920    0.3301   -0.8843 C   0  0  0  0  0  0  0  0  0  0  0  0
   -1.9247   -0.0751   -0.4412 C   0  0  1  0  0  3  0  0  0  0  0  0
   -0.0101    1.5777   -0.6944 C   0  0  0  0  0  0  0  0  0  0  0  0
    0.2309    2.6562   -0.6993 H   0  0  0  0  0  0  0  0  0  0  0  0
    2.3044    1.2098   -1.1115 C   0  0  0  0  0  0  0  0  0  0  0  0
    3.9235    2.9203   -1.7644 C   0  0  0  0  0  0  0  0  0  0  0  0
    4.1239    3.9363   -2.1360 H   0  0  0  0  0  0  0  0  0  0  0  0
   -3.3592   -0.1818   -0.2831 C   0  0  0  0  0  0  0  0  0  0  0  0
   -1.3878    1.2757   -0.4802 C   0  0  0  0  0  0  0  0  0  0  0  0
   -4.1801    0.9267   -0.1403 C   0  0  0  0  0  0  0  0  0  0  0  0
   -5.2630    0.7975   -0.0089 H   0  0  0  0  0  0  0  0  0  0  0  0
   -2.2577    2.4008   -0.3264 C   0  0  0  0  0  0  0  0  0  0  0  0
   -1.8338    3.4150   -0.3501 H   0  0  0  0  0  0  0  0  0  0  0  0
   -3.6194    2.2302   -0.1565 C   0  0  0  0  0  0  0  0  0  0  0  0
    2.5980    2.5103   -1.5831 C   0  0  0  0  0  0  0  0  0  0  0  0
    1.7834    3.2032   -1.8343 H   0  0  0  0  0  0  0  0  0  0  0  0
    4.9926    2.0460   -1.5029 C   0  0  0  0  0  0  0  0  0  0  0  0
    6.0312    2.3706   -1.6601 H   0  0  0  0  0  0  0  0  0  0  0  0
    4.7194    0.7399   -1.0749 C   0  0  0  0  0  0  0  0  0  0  0  0
    5.5362    0.0237   -0.8971 H   0  0  0  0  0  0  0  0  0  0  0  0
    0.9926    0.7359   -0.8672 N   0  0  0  0  0  2  0  0  0  0  0  0
   -1.2392   -1.1624   -0.5168 O   0  0  0  0  0  1  0  0  0  0  0  0
    3.2961   -1.2287    1.4873 C   0  0  0  0  0  0  0  0  0  0  0  0
    3.0561   -2.2616    1.8067 H   0  0  0  0  0  0  0  0  0  0  0  0
    4.3769   -1.0275    1.6211 H   0  0  0  0  0  0  0  0  0  0  0  0
    2.4041   -0.1944    2.0972 C   0  0  0  0  0  0  0  0  0  0  0  0
    1.0906   -0.5421    2.4881 C   0  0  0  0  0  0  0  0  0  0  0  0
    0.7709   -1.5944    2.4297 H   0  0  0  0  0  0  0  0  0  0  0  0
    2.8041    1.1555    2.1575 C   0  0  0  0  0  0  0  0  0  0  0  0
    3.8260    1.4351    1.8578 H   0  0  0  0  0  0  0  0  0  0  0  0
    0.5909    1.7952    2.9373 C   0  0  0  0  0  0  0  0  0  0  0  0
   -0.1219    2.5724    3.2524 H   0  0  0  0  0  0  0  0  0  0  0  0
    0.1921    0.4474    2.9062 C   0  0  0  0  0  0  0  0  0  0  0  0
   -0.8318    0.1658    3.1937 H   0  0  0  0  0  0  0  0  0  0  0  0
    1.9005    2.1462    2.5741 C   0  0  0  0  0  0  0  0  0  0  0  0
    2.2224    3.1980    2.6117 H   0  0  0  0  0  0  0  0  0  0  0  0
  2 26  1  0  0  0  0
  4  2  1  0  0  0  0
  5 25  1  1  0  0  0
  5 11  1  0  0  0  0
  6 12  2  0  0  0  0
  7  6  1  0  0  0  0
  8  4  2  0  0  0  0
  8 24  1  0  0  0  0
  9 18  2  0  0  0  0
  9 20  1  0  0  0  0
 10  9  1  0  0  0  0
 11  1  1  0  0  0  0
 11 13  2  0  0  0  0
 12  5  1  0  0  0  0
 12 15  1  0  0  0  0
 13 14  1  0  0  0  0
 15 17  2  0  0  0  0
 16 15  1  0  0  0  0
 17 13  1  0  0  0  0
 17  3  1  0  0  0  0
 18  8  1  0  0  0  0
 19 18  1  0  0  0  0
 20 22  2  0  0  0  0
 21 20  1  0  0  0  0
 22 23  1  0  0  0  0
 22  4  1  0  0  0  0
 24  6  1  0  0  0  0
 26 28  1  0  0  0  0
 26 27  1  0  0  0  0
 26 29  1  0  0  0  0
 29 32  2  0  0  0  0
 29 30  1  0  0  0  0
 30 36  2  0  0  0  0
 31 30  1  0  0  0  0
 32 38  1  0  0  0  0
 33 32  1  0  0  0  0
 34 35  1  0  0  0  0
 36 34  1  0  0  0  0
 36 37  1  0  0  0  0
 38 39  1  0  0  0  0
 38 34  2  0  0  0  0
M  END
