1,2,21
q = -2.0, confidence = 0.958

 32 33  0  0  0  0  0  0  0  0999 V2000
   -1.0459    2.5464    0.1143 S   0  0  0  0  0  1  0  0  0  0  0  0
    0.8864   -0.9910   -0.0472 O   0  5  0  0  0  0  0  0  0  0  0  0
    2.1704   -1.2429   -0.0462 C   0  0  0  0  0  0  0  0  0  0  0  0
    2.5476   -2.6244   -0.1689 C   0  0  0  0  0  0  0  0  0  0  0  0
    1.7283   -3.3521   -0.2623 H   0  0  0  0  0  0  0  0  0  0  0  0
    3.8682   -3.0062   -0.1717 C   0  0  0  0  0  0  0  0  0  0  0  0
    4.1372   -4.0703   -0.2675 H   0  0  0  0  0  0  0  0  0  0  0  0
    4.9227   -2.0439   -0.0524 C   0  0  0  0  0  0  0  0  0  0  0  0
    6.2843   -2.4519   -0.0537 C   0  0  0  0  0  3  0  0  0  0  0  0
    6.5064   -3.5267   -0.1486 H   0  0  0  0  0  0  0  0  0  0  0  0
    7.3146   -1.5273    0.0612 C   0  0  0  0  0  0  0  0  0  0  0  0
    8.3645   -1.8561    0.0589 H   0  0  0  0  0  0  0  0  0  0  0  0
    6.9961   -0.1543    0.1816 C   0  0  0  0  0  0  0  0  0  0  0  0
    7.8022    0.5897    0.2740 H   0  0  0  0  0  0  0  0  0  0  0  0
    5.6709    0.2708    0.1851 C   0  0  0  0  0  0  0  0  0  0  0  0
    5.4709    1.3467    0.2815 H   0  0  0  0  0  0  0  0  0  0  0  0
    4.5885   -0.6476    0.0692 C   0  0  0  0  0  0  0  0  0  0  0  0
    3.1874   -0.2434    0.0693 C   0  0  0  0  0  0  0  0  0  0  0  0
    2.8423    1.1364    0.1785 C   0  0  0  0  0  0  0  0  0  0  0  0
    3.6453    1.8861    0.2624 H   0  0  0  0  0  0  0  0  0  0  0  0
    1.6283    1.6711    0.1871 N   0  0  0  0  0  2  0  0  0  0  0  0
    1.6137    3.0386    0.2798 N   0  0  0  0  0  0  0  0  0  0  0  0
    0.4029    3.5466    0.2760 C   0  0  0  0  0  0  0  0  0  0  0  0
    0.2251    4.8955    0.4105 N   0  0  0  0  0  0  0  0  0  0  0  0
   -0.7154    5.2397    0.2182 H   0  0  0  0  0  0  0  0  0  0  0  0
    1.3348    5.8354    0.3603 C   0  0  0  0  0  0  0  0  0  0  0  0
    2.1418    5.4210    0.9979 H   0  0  0  0  0  0  0  0  0  0  0  0
    0.9941    6.7813    0.8309 H   0  0  0  0  0  0  0  0  0  0  0  0
    1.8728    6.0908   -1.0502 C   0  0  0  0  0  0  0  0  0  0  0  0
    2.7140    6.8133   -1.0237 H   0  0  0  0  0  0  0  0  0  0  0  0
    1.0866    6.5040   -1.7151 H   0  0  0  0  0  0  0  0  0  0  0  0
    2.2432    5.1442   -1.4905 H   0  0  0  0  0  0  0  0  0  0  0  0
  1 23  1  0  0  0  0
  2  3  1  0  0  0  0
  3 18  1  0  0  0  0
  4  3  2  0  0  0  0
  5  4  1  0  0  0  0
  6  4  1  0  0  0  0
  6  8  2  0  0  0  0
  7  6  1  0  0  0  0
  8 17  1  0  0  0  0
  9  8  1  0  0  0  0
  9 11  1  0  0  0  0
 10  9  1  0  0  0  0
 11 13  2  0  0  0  0
 12 11  1  0  0  0  0
 13 15  1  0  0  0  0
 13 14  1  0  0  0  0
 15 16  1  0  0  0  0
 17 18  1  0  0  0  0
 17 15  2  0  0  0  0
 18 19  2  0  0  0  0
 19 21  1  0  0  0  0
 19 20  1  0  0  0  0
 21 22  1  0  0  0  0
 23 22  2  0  0  0  0
 23 24  1  0  0  0  0
 25 24  1  0  0  0  0
 26 24  1  0  0  0  0
 26 28  1  0  0  0  0
 26 27  1  0  0  0  0
 29 30  1  0  0  0  0
 29 26  1  0  0  0  0
 31 29  1  0  0  0  0
 32 29  1  0  0  0  0
M  CHG  1   2  -1
M  END
