1,2,4
q = -2.0, confidence = 0.96

 30 30  0  0  1  0  0  0  0  0999 V2000
   -0.3338    2.7025    0.2838 S   0  0  0  0  0  1  0  0  0  0  0  0
    1.0055   -1.2481   -0.7866 O   0  0  0  0  0  1  0  0  0  0  0  0
    5.5732   -0.7130    0.6136 O   0  0  0  0  0  0  0  0  0  0  0  0
    2.2240    1.3306   -0.2084 N   0  0  0  0  0  2  0  0  0  0  0  0
    2.3645    2.6880   -0.2400 N   0  0  0  0  0  0  0  0  0  0  0  0
    1.3846    4.7432    0.1196 N   0  0  0  0  0  0  0  0  0  0  0  0
    0.5073    5.2610    0.1320 H   0  0  0  0  0  0  0  0  0  0  0  0
    1.2832    3.3840    0.0200 C   0  0  0  0  0  0  0  0  0  0  0  0
    3.3372    0.6165   -0.3668 C   0  0  0  0  0  0  0  0  0  0  0  0
    3.3631   -0.8414   -0.2670 C   0  0  0  0  0  0  0  0  0  0  0  0
    4.5822   -1.5116    0.1144 C   0  0  0  0  0  0  0  0  0  0  0  0
    4.7249   -2.9016    0.0315 C   0  0  0  0  0  0  0  0  0  0  0  0
    5.6600   -3.3901    0.3295 H   0  0  0  0  0  0  0  0  0  0  0  0
    3.6334   -3.6799   -0.4052 C   0  0  0  0  0  0  0  0  0  0  0  0
    3.7492   -4.7720   -0.4877 H   0  0  0  0  0  0  0  0  0  0  0  0
    2.4111   -3.0924   -0.6890 C   0  0  0  0  0  0  0  0  0  0  0  0
    1.5370   -3.6833   -0.9956 H   0  0  0  0  0  0  0  0  0  0  0  0
    2.2223   -1.6799   -0.5682 C   0  0  2  0  0  3  0  0  0  0  0  0
    6.8034   -1.2966    0.9855 C   0  0  0  0  0  0  0  0  0  0  0  0
    7.4492   -0.4672    1.3307 H   0  0  0  0  0  0  0  0  0  0  0  0
    7.2986   -1.8107    0.1311 H   0  0  0  0  0  0  0  0  0  0  0  0
    6.6813   -2.0289    1.8152 H   0  0  0  0  0  0  0  0  0  0  0  0
    4.5854    1.3904   -0.7232 C   0  0  0  0  0  0  0  0  0  0  0  0
    4.3048    2.1917   -1.4328 H   0  0  0  0  0  0  0  0  0  0  0  0
    5.3559    0.7350   -1.1574 H   0  0  0  0  0  0  0  0  0  0  0  0
    5.0156    1.8953    0.1651 H   0  0  0  0  0  0  0  0  0  0  0  0
    2.6166    5.4461   -0.1596 C   0  0  0  0  0  0  0  0  0  0  0  0
    3.4447    5.0060    0.4315 H   0  0  0  0  0  0  0  0  0  0  0  0
    2.5009    6.5111    0.1179 H   0  0  0  0  0  0  0  0  0  0  0  0
    2.9125    5.3814   -1.2319 H   0  0  0  0  0  0  0  0  0  0  0  0
  3 19  1  0  0  0  0
  5  4  1  0  0  0  0
  5  8  2  0  0  0  0
  6  7  1  0  0  0  0
  8  6  1  0  0  0  0
  8  1  1  0  0  0  0
  9 10  2  0  0  0  0
  9  4  1  0  0  0  0
 10 11  1  0  0  0  0
 11  3  1  0  0  0  0
 12 11  2  0  0  0  0
 12 13  1  0  0  0  0
 14 12  1  0  0  0  0
 15 14  1  0  0  0  0
 16 18  1  0  0  0  0
 16 14  2  0  0  0  0
 17 16  1  0  0  0  0
 18  2  1  6  0  0  0
 18 10  1  0  0  0  0
 19 20  1  0  0  0  0
 19 22  1  0  0  0  0
 21 19  1  0  0  0  0
 23  9  1  0  0  0  0
 23 26  1  0  0  0  0
 24 23  1  0  0  0  0
 25 23  1  0  0  0  0
 27 29  1  0  0  0  0
 27  6  1  0  0  0  0
 27 28  1  0  0  0  0
 30 27  1  0  0  0  0
M  END
