1,2,7
q = -1.0

 29 30  0  0  0  0  0  0  0  0999 V2000
    0.1410   -2.2481    0.0087 S   0  0  0  0  0  0  0  0  0  0  0  0
    0.1635    2.0557    0.1548 O   0  5  0  0  0  0  0  0  0  0  0  0
    4.1611   -1.6000    0.4131 C   0  0  0  0  0  0  0  0  0  0  0  0
    4.8529   -0.7567    0.5414 H   0  0  0  0  0  0  0  0  0  0  0  0
    2.7806   -1.3739    0.1933 C   0  0  0  0  0  0  0  0  0  0  0  0
    2.5664    2.3550   -0.1262 C   0  0  0  0  0  0  0  0  0  0  0  0
    2.1916   -0.0872    0.0687 N   0  0  0  0  0  2  0  0  0  0  0  0
    3.6140    3.3185   -0.2967 C   0  0  0  0  0  3  0  0  0  0  0  0
    4.6450    2.9462   -0.4102 H   0  0  0  0  0  0  0  0  0  0  0  0
    2.0247    5.1323   -0.1531 C   0  0  0  0  0  0  0  0  0  0  0  0
    1.8134    6.2132   -0.1612 H   0  0  0  0  0  0  0  0  0  0  0  0
    3.8127   -4.0140    0.3923 C   0  0  0  0  0  0  0  0  0  0  0  0
    4.2126   -5.0351    0.4736 H   0  0  0  0  0  0  0  0  0  0  0  0
   -0.0861   -2.7278   -1.7480 C   0  0  0  0  0  0  0  0  0  0  0  0
   -1.1648   -2.5901   -1.9359 H   0  0  0  0  0  0  0  0  0  0  0  0
    0.2042   -3.7904   -1.8521 H   0  0  0  0  0  0  0  0  0  0  0  0
    0.5315   -2.0866   -2.4013 H   0  0  0  0  0  0  0  0  0  0  0  0
    2.4387   -3.8053    0.2184 C   0  0  0  0  0  0  0  0  0  0  0  0
    1.7436   -4.6585    0.1769 H   0  0  0  0  0  0  0  0  0  0  0  0
    0.9792    4.2392    0.0113 C   0  0  0  0  0  0  0  0  0  0  0  0
   -0.0593    4.5788    0.1314 H   0  0  0  0  0  0  0  0  0  0  0  0
    3.3629    4.6780   -0.3134 C   0  0  0  0  0  0  0  0  0  0  0  0
    4.1832    5.3979   -0.4436 H   0  0  0  0  0  0  0  0  0  0  0  0
    1.1978    2.8207    0.0207 C   0  0  0  0  0  0  0  0  0  0  0  0
    1.9316   -2.5015    0.1162 C   0  0  0  0  0  0  0  0  0  0  0  0
    2.9519    0.9875   -0.0803 C   0  0  0  0  0  0  0  0  0  0  0  0
    4.6653   -2.9019    0.4990 C   0  0  0  0  0  0  0  0  0  0  0  0
    5.7420   -3.0487    0.6717 H   0  0  0  0  0  0  0  0  0  0  0  0
    4.0381    0.8174   -0.1864 H   0  0  0  0  0  0  0  0  0  0  0  0
  1 25  1  0  0  0  0
  3 27  1  0  0  0  0
  3  4  1  0  0  0  0
  5  3  2  0  0  0  0
  6 26  2  0  0  0  0
  6 24  1  0  0  0  0
  7  5  1  0  0  0  0
  8  6  1  0  0  0  0
  9  8  1  0  0  0  0
 10 20  1  0  0  0  0
 11 10  1  0  0  0  0
 12 13  1  0  0  0  0
 12 27  2  0  0  0  0
 14  1  1  0  0  0  0
 15 14  1  0  0  0  0
 16 14  1  0  0  0  0
 17 14  1  0  0  0  0
 18 12  1  0  0  0  0
 19 18  1  0  0  0  0
 20 24  2  0  0  0  0
 20 21  1  0  0  0  0
 22  8  1  0  0  0  0
 22 10  2  0  0  0  0
 23 22  1  0  0  0  0
 24  2  1  0  0  0  0
 25  5  1  0  0  0  0
 25 18  2  0  0  0  0
 26  7  1  0  0  0  0
 27 28  1  0  0  0  0
 29 26  1  0  0  0  0
M  CHG  1   2  -1
M  END
