1,2,3
q = -1.0

 39 39  0  0  1  0  0  0  0  0999 V2000
    0.2136    1.7136   -0.0458 N   0  0  0  0  0  2  0  0  0  0  0  0
   -0.0066   -1.2275    1.5339 S   0  0  0  0  0  0  0  0  0  0  0  0
    0.1920   -0.6082   -1.7143 O   0  5  0  0  0  0  0  0  0  0  0  0
   -0.0613    2.2876   -1.2457 C   0  0  0  0  0  3  0  0  0  0  0  0
   -0.9870    3.3201   -1.3991 C   0  0  0  0  0  0  0  0  0  0  0  0
   -1.6710    3.7837   -0.2676 C   0  0  0  0  0  0  0  0  0  0  0  0
   -2.4178    4.5875   -0.3468 H   0  0  0  0  0  0  0  0  0  0  0  0
   -1.3891    3.1949    0.9681 C   0  0  0  0  0  0  0  0  0  0  0  0
   -0.4376    2.1632    1.0628 C   0  0  0  0  0  0  0  0  0  0  0  0
   -0.1904    1.4862    2.3855 C   0  0  0  0  0  0  0  0  0  0  0  0
   -0.6242    2.1202    3.1844 H   0  0  0  0  0  0  0  0  0  0  0  0
    0.8958    1.4151    2.5915 H   0  0  0  0  0  0  0  0  0  0  0  0
   -0.8611    0.1082    2.4884 C   0  0  0  0  0  0  0  0  0  0  0  0
   -1.4186   -1.9491    0.5216 C   0  0  0  0  0  0  0  0  0  0  0  0
   -1.8896   -0.8293   -0.4684 C   0  0  1  0  0  0  0  0  0  0  0  0
   -1.0818   -0.8429   -1.7962 C   0  0  0  0  0  0  0  0  0  0  0  0
   -4.2000   -0.1193   -0.1331 C   0  0  0  0  0  0  0  0  0  0  0  0
   -5.6027   -0.1002   -0.7124 C   0  0  0  0  0  0  0  0  0  0  0  0
   -5.6790   -0.5883   -1.7025 H   0  0  0  0  0  0  0  0  0  0  0  0
   -5.9433    0.9503   -0.7873 H   0  0  0  0  0  0  0  0  0  0  0  0
   -6.2883   -0.6115   -0.0070 H   0  0  0  0  0  0  0  0  0  0  0  0
   -2.5253   -2.3919    1.4859 C   0  0  0  0  0  0  0  0  0  0  0  0
   -3.0309   -1.5405    1.9767 H   0  0  0  0  0  0  0  0  0  0  0  0
   -2.1122   -3.0727    2.2561 H   0  0  0  0  0  0  0  0  0  0  0  0
   -3.2959   -2.9428    0.9117 H   0  0  0  0  0  0  0  0  0  0  0  0
   -0.8333   -3.1771   -0.1870 C   0  0  0  0  0  0  0  0  0  0  0  0
    0.0581   -2.9291   -0.7924 H   0  0  0  0  0  0  0  0  0  0  0  0
   -1.6012   -3.5834   -0.8763 H   0  0  0  0  0  0  0  0  0  0  0  0
   -0.5649   -3.9665    0.5416 H   0  0  0  0  0  0  0  0  0  0  0  0
   -1.6878   -1.0850   -2.8437 O   0  0  0  0  0  0  0  0  0  0  0  0
   -3.9092    0.5091    0.8953 O   0  0  0  0  0  0  0  0  0  0  0  0
   -3.2949   -0.9006   -0.7971 N   0  0  0  0  0  0  0  0  0  0  0  0
   -3.4478   -1.1892   -1.7754 H   0  0  0  0  0  0  0  0  0  0  0  0
    0.4706    1.8691   -2.1110 H   0  0  0  0  0  0  0  0  0  0  0  0
   -1.1662    3.7406   -2.3982 H   0  0  0  0  0  0  0  0  0  0  0  0
   -1.9160    3.5152    1.8776 H   0  0  0  0  0  0  0  0  0  0  0  0
   -1.9103    0.1715    2.1295 H   0  0  0  0  0  0  0  0  0  0  0  0
   -0.8658   -0.2349    3.5407 H   0  0  0  0  0  0  0  0  0  0  0  0
   -1.7382    0.1471    0.0305 H   0  0  0  0  0  0  0  0  0  0  0  0
  1  9  1  0  0  0  0
  2 13  1  0  0  0  0
  4  1  1  0  0  0  0
  5  4  1  0  0  0  0
  5  6  2  0  0  0  0
  6  8  1  0  0  0  0
  7  6  1  0  0  0  0
  8  9  2  0  0  0  0
  8 36  1  0  0  0  0
  9 10  1  0  0  0  0
 10 13  1  0  0  0  0
 10 12  1  0  0  0  0
 10 11  1  0  0  0  0
 13 38  1  0  0  0  0
 14 22  1  0  0  0  0
 14  2  1  0  0  0  0
 15 39  1  1  0  0  0
 15 14  1  0  0  0  0
 16  3  1  0  0  0  0
 16 15  1  0  0  0  0
 17 31  2  0  0  0  0
 18 17  1  0  0  0  0
 18 21  1  0  0  0  0
 19 18  1  0  0  0  0
 20 18  1  0  0  0  0
 22 23  1  0  0  0  0
 22 24  1  0  0  0  0
 25 22  1  0  0  0  0
 26 14  1  0  0  0  0
 26 29  1  0  0  0  0
 27 26  1  0  0  0  0
 28 26  1  0  0  0  0
 30 16  2  0  0  0  0
 32 15  1  0  0  0  0
 32 17  1  0  0  0  0
 33 32  1  0  0  0  0
 34  4  1  0  0  0  0
 35  5  1  0  0  0  0
 37 13  1  0  0  0  0
M  CHG  1   3  -1
M  END
