1,2,5
q = -1.0

 13 12  0  0  0  0  0  0  0  0999 V2000
    0.3448   -2.1280   -0.5824 S   0  0  0  0  0  1  0  0  0  0  0  0
    0.2046    1.8834   -0.3657 O   0  5  0  0  0  0  0  0  0  0  0  0
   -1.3173    3.5461   -0.4451 O   0  0  0  0  0  0  0  0  0  0  0  0
   -3.4679   -1.0700   -0.2872 O   0  0  0  0  0  0  0  0  0  0  0  0
   -1.4538   -0.0014    0.0696 N   0  0  0  0  0  2  0  0  0  0  0  0
   -1.0401    2.3691   -0.2833 C   0  0  0  0  0  0  0  0  0  0  0  0
   -2.0953    1.3021    0.0330 C   0  0  0  0  0  0  0  0  0  0  0  0
   -2.5725    1.5591    1.0063 H   0  0  0  0  0  0  0  0  0  0  0  0
   -2.9081    1.3348   -0.7233 H   0  0  0  0  0  0  0  0  0  0  0  0
   -2.2411   -1.1147   -0.1645 C   0  0  0  0  0  0  0  0  0  0  0  0
   -1.4535   -2.4188   -0.2518 C   0  0  0  0  0  0  0  0  0  0  0  0
   -1.9090   -3.0484   -1.0423 H   0  0  0  0  0  0  0  0  0  0  0  0
   -1.5611   -2.9631    0.7110 H   0  0  0  0  0  0  0  0  0  0  0  0
  1 11  1  0  0  0  0
  2  6  1  0  0  0  0
  3  6  2  0  0  0  0
  4 10  2  0  0  0  0
  6  7  1  0  0  0  0
  7  5  1  0  0  0  0
  7  8  1  0  0  0  0
  9  7  1  0  0  0  0
 10  5  1  0  0  0  0
 11 10  1  0  0  0  0
 11 13  1  0  0  0  0
 12 11  1  0  0  0  0
M  CHG  1   2  -1
M  END
