1,2,4
q = -2.0, confidence = 0.822

 42 44  0  0  1  0  0  0  0  0999 V2000
    1.3983   -1.5733   -0.2221 S   0  0  0  0  0  1  0  0  0  0  0  0
    1.2543    1.4780   -0.0219 N   0  0  0  0  0  2  0  0  0  0  0  0
    0.6422    2.6969   -0.1300 N   0  0  0  0  0  0  0  0  0  0  0  0
   -1.2585    1.4008   -0.1472 O   0  5  0  0  0  0  0  0  0  0  0  0
    3.0272   -1.0111   -0.0879 C   0  0  1  0  0  3  0  0  0  0  0  0
    3.4017    0.3195    0.0682 C   0  0  0  0  0  0  0  0  0  0  0  0
    4.4718    0.5069    0.2352 H   0  0  0  0  0  0  0  0  0  0  0  0
    2.5958    1.4914    0.0903 C   0  0  0  0  0  0  0  0  0  0  0  0
   -0.6679    2.5756   -0.1806 C   0  0  0  0  0  0  0  0  0  0  0  0
    3.7972   -3.3852    0.3206 C   0  0  0  0  0  0  0  0  0  0  0  0
    4.7765   -4.3842    0.2610 C   0  0  0  0  0  0  0  0  0  0  0  0
    6.0454   -4.1043   -0.2715 C   0  0  0  0  0  0  0  0  0  0  0  0
    6.3217   -2.8134   -0.7502 C   0  0  0  0  0  0  0  0  0  0  0  0
    5.3426   -1.8133   -0.6941 C   0  0  0  0  0  0  0  0  0  0  0  0
    4.0624   -2.0764   -0.1499 C   0  0  0  0  0  0  0  0  0  0  0  0
    2.8063   -3.6061    0.7448 H   0  0  0  0  0  0  0  0  0  0  0  0
    4.5475   -5.3921    0.6401 H   0  0  0  0  0  0  0  0  0  0  0  0
    6.8147   -4.8900   -0.3180 H   0  0  0  0  0  0  0  0  0  0  0  0
    7.3073   -2.5848   -1.1839 H   0  0  0  0  0  0  0  0  0  0  0  0
    5.5610   -0.8162   -1.1039 H   0  0  0  0  0  0  0  0  0  0  0  0
    4.4402    3.0710   -0.5577 C   0  0  0  0  0  0  0  0  0  0  0  0
    5.1657    4.2608   -0.3920 C   0  0  0  0  0  0  0  0  0  0  0  0
    4.7893    5.1819    0.5959 C   0  0  0  0  0  0  0  0  0  0  0  0
    3.6798    4.9069    1.4143 C   0  0  0  0  0  0  0  0  0  0  0  0
    2.9464    3.7274    1.2402 C   0  0  0  0  0  0  0  0  0  0  0  0
    3.3193    2.7900    0.2514 C   0  0  0  0  0  0  0  0  0  0  0  0
    4.7306    2.3552   -1.3416 H   0  0  0  0  0  0  0  0  0  0  0  0
    6.0288    4.4686   -1.0429 H   0  0  0  0  0  0  0  0  0  0  0  0
    5.3585    6.1144    0.7301 H   0  0  0  0  0  0  0  0  0  0  0  0
    3.3819    5.6216    2.1968 H   0  0  0  0  0  0  0  0  0  0  0  0
    2.0756    3.5198    1.8766 H   0  0  0  0  0  0  0  0  0  0  0  0
   -2.9197    3.6347   -0.3908 C   0  0  0  0  0  0  0  0  0  0  0  0
   -3.7390    4.7679   -0.4809 C   0  0  0  0  0  0  0  0  0  0  0  0
   -3.1722    6.0530   -0.4631 C   0  0  0  0  0  0  0  0  0  0  0  0
   -1.7776    6.2005   -0.3565 C   0  0  0  0  0  0  0  0  0  0  0  0
   -0.9529    5.0732   -0.2662 C   0  0  0  0  0  0  0  0  0  0  0  0
   -1.5196    3.7788   -0.2795 C   0  0  0  0  0  0  0  0  0  0  0  0
   -3.3434    2.6202   -0.4088 H   0  0  0  0  0  0  0  0  0  0  0  0
   -4.8299    4.6482   -0.5683 H   0  0  0  0  0  0  0  0  0  0  0  0
   -3.8172    6.9422   -0.5345 H   0  0  0  0  0  0  0  0  0  0  0  0
   -1.3302    7.2063   -0.3449 H   0  0  0  0  0  0  0  0  0  0  0  0
    0.1397    5.1679   -0.1855 H   0  0  0  0  0  0  0  0  0  0  0  0
  2  8  1  0  0  0  0
  3  2  1  0  0  0  0
  5  1  1  1  0  0  0
  5  6  1  0  0  0  0
  6  8  2  0  0  0  0
  6  7  1  0  0  0  0
  8 26  1  0  0  0  0
  9  4  1  0  0  0  0
  9  3  2  0  0  0  0
 10 16  1  0  0  0  0
 11 10  1  0  0  0  0
 11 17  1  0  0  0  0
 12 11  2  0  0  0  0
 13 14  2  0  0  0  0
 13 12  1  0  0  0  0
 14 15  1  0  0  0  0
 15  5  1  0  0  0  0
 15 10  2  0  0  0  0
 18 12  1  0  0  0  0
 19 13  1  0  0  0  0
 20 14  1  0  0  0  0
 21 22  2  0  0  0  0
 21 26  1  0  0  0  0
 22 23  1  0  0  0  0
 23 29  1  0  0  0  0
 23 24  2  0  0  0  0
 24 30  1  0  0  0  0
 25 24  1  0  0  0  0
 25 31  1  0  0  0  0
 26 25  2  0  0  0  0
 27 21  1  0  0  0  0
 28 22  1  0  0  0  0
 32 37  1  0  0  0  0
 33 34  1  0  0  0  0
 33 32  2  0  0  0  0
 34 35  2  0  0  0  0
 35 41  1  0  0  0  0
 35 36  1  0  0  0  0
 36 42  1  0  0  0  0
 37 36  2  0  0  0  0
 37  9  1  0  0  0  0
 38 32  1  0  0  0  0
 39 33  1  0  0  0  0
 40 34  1  0  0  0  0
M  CHG  1   4  -1
M  END
