1,2,5
q = -2.0, confidence = 0.926

 21 21  0  0  1  0  0  0  0  0999 V2000
   -1.6512    1.4683   -1.9946 S   0  0  0  0  0  1  0  0  0  0  0  0
    1.5190   -0.8171   -0.6799 O   0  5  0  0  0  0  0  0  0  0  0  0
    5.9316   -1.9232    0.7377 O   0  0  0  0  0  0  0  0  0  0  0  0
    5.6239   -2.7688    0.3613 H   0  0  0  0  0  0  0  0  0  0  0  0
    0.7398    1.9475   -0.2720 N   0  0  0  0  0  2  0  0  0  0  0  0
    0.0185    3.0886   -0.4605 N   0  0  0  0  0  2  0  0  0  0  0  0
   -1.8561    4.0534   -1.3627 N   0  0  0  0  0  0  0  0  0  0  0  0
   -1.3887    4.9412   -1.1632 H   0  0  0  0  0  0  0  0  0  0  0  0
   -2.5002    4.0393   -2.1529 H   0  0  0  0  0  0  0  0  0  0  0  0
    2.6330   -0.4107   -0.1364 C   0  0  0  0  0  0  0  0  0  0  0  0
    3.6986   -1.3487    0.0073 C   0  0  0  0  0  0  0  0  0  0  0  0
    3.5073   -2.3722   -0.3554 H   0  0  0  0  0  0  0  0  0  0  0  0
    4.9242   -1.0152    0.5908 C   0  0  0  0  0  0  0  0  0  0  0  0
    5.1629    0.3013    1.0562 C   0  0  0  0  0  0  0  0  0  0  0  0
    6.1339    0.5480    1.5063 H   0  0  0  0  0  0  0  0  0  0  0  0
    4.1522    1.2426    0.9108 C   0  0  0  0  0  0  0  0  0  0  0  0
    4.3300    2.2758    1.2518 H   0  0  0  0  0  0  0  0  0  0  0  0
    2.8859    0.9476    0.3329 C   0  0  0  0  0  0  0  0  0  0  0  0
    1.9678    2.0474    0.1778 C   0  0  0  0  0  3  0  0  0  0  0  0
    2.3358    3.0669    0.4191 H   0  0  0  0  0  0  0  0  0  0  0  0
   -1.0718    2.9328   -1.1988 C   0  0  2  0  0  3  0  0  0  0  0  0
  2 10  1  0  0  0  0
  4  3  1  0  0  0  0
  5 19  1  0  0  0  0
  6  5  1  0  0  0  0
  7 21  1  0  0  0  0
  7  8  1  0  0  0  0
  9  7  1  0  0  0  0
 10 11  2  0  0  0  0
 10 18  1  0  0  0  0
 11 13  1  0  0  0  0
 12 11  1  0  0  0  0
 13  3  1  0  0  0  0
 13 14  2  0  0  0  0
 14 15  1  0  0  0  0
 16 14  1  0  0  0  0
 16 17  1  0  0  0  0
 18 16  2  0  0  0  0
 19 18  1  0  0  0  0
 19 20  1  0  0  0  0
 21  1  1  1  0  0  0
 21  6  1  0  0  0  0
M  CHG  1   2  -1
M  END
