1,31,37
q = -2.0, confidence = 0.806

 37 37  0  0  1  0  0  0  0  0999 V2000
    0.6768    1.7023   -0.4981 S   0  0  0  0  0  1  0  0  0  0  0  0
    2.3762    1.9281   -0.0453 C   0  0  2  0  0  3  0  0  0  0  0  0
    2.8204    3.1902    0.1880 N   0  0  0  0  0  0  0  0  0  0  0  0
    1.9343    4.3547    0.1343 C   0  0  0  0  0  0  0  0  0  0  0  0
    2.3285    5.0982    0.8576 H   0  0  0  0  0  0  0  0  0  0  0  0
    0.9348    4.0384    0.4962 H   0  0  0  0  0  0  0  0  0  0  0  0
    1.8174    4.9592   -1.2648 C   0  0  0  0  0  0  0  0  0  0  0  0
    1.1719    5.8599   -1.2395 H   0  0  0  0  0  0  0  0  0  0  0  0
    1.3613    4.2294   -1.9628 H   0  0  0  0  0  0  0  0  0  0  0  0
    2.8079    5.2578   -1.6644 H   0  0  0  0  0  0  0  0  0  0  0  0
    4.2362    3.4158    0.4958 C   0  0  0  0  0  0  0  0  0  0  0  0
    4.4921    4.4357    0.1428 H   0  0  0  0  0  0  0  0  0  0  0  0
    4.8229    2.6900   -0.1024 H   0  0  0  0  0  0  0  0  0  0  0  0
    4.5560    3.2549    1.9813 C   0  0  0  0  0  0  0  0  0  0  0  0
    5.6302    3.4539    2.1692 H   0  0  0  0  0  0  0  0  0  0  0  0
    4.3319    2.2229    2.3164 H   0  0  0  0  0  0  0  0  0  0  0  0
    3.9648    3.9566    2.6040 H   0  0  0  0  0  0  0  0  0  0  0  0
    3.2654    0.9443   -0.0384 N   0  0  0  0  0  2  0  0  0  0  0  0
    3.1358   -0.3501    0.2008 C   0  0  2  0  0  3  0  0  0  0  0  0
    4.2310   -1.2061   -0.3439 C   0  0  0  0  0  0  0  0  0  0  0  0
    5.5817   -0.8416   -0.1779 C   0  0  0  0  0  0  0  0  0  0  0  0
    5.8239    0.0587    0.4058 H   0  0  0  0  0  0  0  0  0  0  0  0
    6.5961   -1.6256   -0.7437 C   0  0  0  0  0  0  0  0  0  0  0  0
    7.6506   -1.3460   -0.5983 H   0  0  0  0  0  0  0  0  0  0  0  0
    6.2671   -2.7637   -1.4984 C   0  0  0  0  0  0  0  0  0  0  0  0
    7.0642   -3.3763   -1.9464 H   0  0  0  0  0  0  0  0  0  0  0  0
    4.9202   -3.1159   -1.6872 C   0  0  0  0  0  0  0  0  0  0  0  0
    4.6588   -3.9953   -2.2947 H   0  0  0  0  0  0  0  0  0  0  0  0
    3.9019   -2.3472   -1.1082 C   0  0  0  0  0  0  0  0  0  0  0  0
    2.8418   -2.5974   -1.2746 H   0  0  0  0  0  0  0  0  0  0  0  0
    2.1007   -0.9030    0.8839 N   0  0  0  0  0  2  0  0  0  0  0  0
    2.2499   -2.1776    1.5866 C   0  0  0  0  0  0  0  0  0  0  0  0
    2.4963   -1.9759    2.6543 H   0  0  0  0  0  0  0  0  0  0  0  0
    3.0612   -2.8131    1.1848 H   0  0  0  0  0  0  0  0  0  0  0  0
    0.9421   -2.9798    1.5848 C   0  0  0  0  0  0  0  0  0  0  0  0
    0.8859   -4.1344    1.9620 O   0  5  0  0  0  0  0  0  0  0  0  0
   -0.1186   -2.2862    1.1676 O   0  0  0  0  0  0  0  0  0  0  0  0
  2  1  1  6  0  0  0
  2 18  1  0  0  0  0
  2  3  1  0  0  0  0
  3 11  1  0  0  0  0
  4  3  1  0  0  0  0
  4  6  1  0  0  0  0
  4  5  1  0  0  0  0
  7  8  1  0  0  0  0
  7  4  1  0  0  0  0
  9  7  1  0  0  0  0
 10  7  1  0  0  0  0
 11 14  1  0  0  0  0
 12 11  1  0  0  0  0
 13 11  1  0  0  0  0
 14 15  1  0  0  0  0
 14 16  1  0  0  0  0
 14 17  1  0  0  0  0
 19 18  1  6  0  0  0
 19 31  1  0  0  0  0
 20 21  1  0  0  0  0
 20 19  1  0  0  0  0
 21 22  1  0  0  0  0
 23 24  1  0  0  0  0
 23 21  2  0  0  0  0
 25 23  1  0  0  0  0
 26 25  1  0  0  0  0
 27 25  2  0  0  0  0
 27 29  1  0  0  0  0
 28 27  1  0  0  0  0
 29 20  2  0  0  0  0
 30 29  1  0  0  0  0
 31 32  1  0  0  0  0
 32 33  1  0  0  0  0
 34 32  1  0  0  0  0
 35 32  1  0  0  0  0
 35 36  1  0  0  0  0
 37 35  2  0  0  0  0
M  CHG  1  36  -1
M  END
