1,3,6
q = -2.0, confidence = 0.946

 36 36  0  0  0  0  0  0  0  0999 V2000
   -1.6073   -2.3252   -0.1004 S   0  0  0  0  0  1  0  0  0  0  0  0
   -2.4271   -0.8300    0.3584 C   0  0  0  0  0  0  0  0  0  0  0  0
   -0.5021    0.3659    0.3190 N   0  0  0  0  0  2  0  0  0  0  0  0
   -3.7691   -0.9300    0.5690 N   0  0  0  0  0  0  0  0  0  0  0  0
   -1.8420    0.3331    0.5530 N   0  0  0  0  0  0  0  0  0  0  0  0
    2.1493   -0.3122   -0.2322 O   0  5  0  0  0  0  0  0  0  0  0  0
    1.8306    3.2347    0.7038 C   0  0  0  0  0  0  0  0  0  0  0  0
    4.6658    0.3919   -0.4578 O   0  0  0  0  0  0  0  0  0  0  0  0
    3.8029    1.3655   -0.0780 C   0  0  0  0  0  0  0  0  0  0  0  0
   -4.6184    0.2218    0.8331 C   0  0  0  0  0  0  0  0  0  0  0  0
    0.0575    1.5348    0.5589 C   0  0  0  0  0  3  0  0  0  0  0  0
   -5.8497    2.2498   -0.1081 C   0  0  0  0  0  0  0  0  0  0  0  0
    4.1489    2.6956    0.2064 C   0  0  0  0  0  0  0  0  0  0  0  0
    1.4453    1.8935    0.4201 C   0  0  0  0  0  0  0  0  0  0  0  0
    3.1604    3.6253    0.5962 C   0  0  0  0  0  0  0  0  0  0  0  0
    2.4372    0.9542    0.0276 C   0  0  0  0  0  0  0  0  0  0  0  0
    6.0321    0.7281   -0.5960 C   0  0  0  0  0  0  0  0  0  0  0  0
   -6.1989    3.0735   -1.3481 C   0  0  0  0  0  0  0  0  0  0  0  0
   -4.9683    1.0373   -0.4180 C   0  0  0  0  0  0  0  0  0  0  0  0
    1.0562    3.9552    1.0068 H   0  0  0  0  0  0  0  0  0  0  0  0
    3.4525    4.6630    0.8133 H   0  0  0  0  0  0  0  0  0  0  0  0
    5.1949    3.0207    0.1273 H   0  0  0  0  0  0  0  0  0  0  0  0
    6.1888    1.5157   -1.3674 H   0  0  0  0  0  0  0  0  0  0  0  0
    6.4727    1.0780    0.3651 H   0  0  0  0  0  0  0  0  0  0  0  0
    6.5496   -0.1954   -0.9143 H   0  0  0  0  0  0  0  0  0  0  0  0
   -0.6335    2.3269    0.9035 H   0  0  0  0  0  0  0  0  0  0  0  0
   -4.2018   -1.8084    0.2831 H   0  0  0  0  0  0  0  0  0  0  0  0
   -5.5412   -0.1467    1.3287 H   0  0  0  0  0  0  0  0  0  0  0  0
   -4.0866    0.8684    1.5601 H   0  0  0  0  0  0  0  0  0  0  0  0
   -4.0194    1.3699   -0.8905 H   0  0  0  0  0  0  0  0  0  0  0  0
   -5.4761    0.3785   -1.1571 H   0  0  0  0  0  0  0  0  0  0  0  0
   -5.3310    2.8948    0.6358 H   0  0  0  0  0  0  0  0  0  0  0  0
   -6.7850    1.9097    0.3913 H   0  0  0  0  0  0  0  0  0  0  0  0
   -6.7511    2.4646   -2.0940 H   0  0  0  0  0  0  0  0  0  0  0  0
   -6.8318    3.9477   -1.0951 H   0  0  0  0  0  0  0  0  0  0  0  0
   -5.2839    3.4542   -1.8476 H   0  0  0  0  0  0  0  0  0  0  0  0
  1  2  1  0  0  0  0
  2  5  2  0  0  0  0
  2  4  1  0  0  0  0
  3  5  1  0  0  0  0
  3 11  1  0  0  0  0
  4 10  1  0  0  0  0
  6 16  1  0  0  0  0
  7 20  1  0  0  0  0
  8  9  1  0  0  0  0
  9 16  2  0  0  0  0
  9 13  1  0  0  0  0
 10 28  1  0  0  0  0
 10 29  1  0  0  0  0
 11 26  1  0  0  0  0
 12 33  1  0  0  0  0
 12 32  1  0  0  0  0
 13 15  2  0  0  0  0
 14 11  1  0  0  0  0
 14  7  2  0  0  0  0
 15  7  1  0  0  0  0
 15 21  1  0  0  0  0
 16 14  1  0  0  0  0
 17  8  1  0  0  0  0
 17 24  1  0  0  0  0
 18 35  1  0  0  0  0
 18 12  1  0  0  0  0
 19 12  1  0  0  0  0
 19 10  1  0  0  0  0
 22 13  1  0  0  0  0
 23 17  1  0  0  0  0
 25 17  1  0  0  0  0
 27  4  1  0  0  0  0
 30 19  1  0  0  0  0
 31 19  1  0  0  0  0
 34 18  1  0  0  0  0
 36 18  1  0  0  0  0
M  CHG  1   6  -1
M  END
