1,4,7
q = -1.0

 23 23  0  0  1  0  0  0  0  0999 V2000
    3.2685   -1.3751    0.3449 S   0  0  0  0  0  1  0  0  0  0  0  0
    2.6009   -2.3948   -0.8566 C   0  0  1  0  0  3  0  0  0  0  0  0
   -3.7650    0.9580    0.9036 C   0  0  0  0  0  0  0  0  0  0  0  0
    0.5491   -1.2338   -0.9453 N   0  0  0  0  0  2  0  0  0  0  0  0
    1.3547   -2.2208   -1.3953 N   0  0  0  0  0  0  0  0  0  0  0  0
   -3.0573   -0.7232   -0.7234 C   0  0  0  0  0  0  0  0  0  0  0  0
   -0.1581    1.0579    0.7086 O   0  5  0  0  0  0  0  0  0  0  0  0
   -4.0613   -0.0238   -0.0618 C   0  0  0  0  0  0  0  0  0  0  0  0
   -1.6947   -0.4452   -0.4725 C   0  0  0  0  0  0  0  0  0  0  0  0
   -1.3592    0.6026    0.4872 C   0  0  0  0  0  0  0  0  0  0  0  0
    3.3205   -3.4360   -1.3180 N   0  0  0  0  0  0  0  0  0  0  0  0
   -0.7381   -1.3271   -1.1074 C   0  0  0  0  0  3  0  0  0  0  0  0
   -2.4354    1.2386    1.1858 C   0  0  0  0  0  0  0  0  0  0  0  0
   -6.3340    0.2685    0.2652 O   0  0  0  0  0  0  0  0  0  0  0  0
   -5.4769   -0.3446   -0.3660 N   0  0  0  0  0  0  0  0  0  0  0  0
   -5.6851   -1.1973   -1.2281 O   0  0  0  0  0  0  0  0  0  0  0  0
   -4.5938    1.4648    1.4172 H   0  0  0  0  0  0  0  0  0  0  0  0
   -3.3574   -1.5049   -1.4368 H   0  0  0  0  0  0  0  0  0  0  0  0
   -1.1674   -2.1679   -1.6967 H   0  0  0  0  0  0  0  0  0  0  0  0
   -2.1577    1.9976    1.9308 H   0  0  0  0  0  0  0  0  0  0  0  0
    0.9432   -2.9891   -1.9496 H   0  0  0  0  0  0  0  0  0  0  0  0
    3.0058   -4.0291   -2.0879 H   0  0  0  0  0  0  0  0  0  0  0  0
    4.2435   -3.6164   -0.9219 H   0  0  0  0  0  0  0  0  0  0  0  0
  2  1  1  6  0  0  0
  3 13  1  0  0  0  0
  3 17  1  0  0  0  0
  5  4  1  0  0  0  0
  5  2  1  0  0  0  0
  6  9  2  0  0  0  0
  6  8  1  0  0  0  0
  8  3  2  0  0  0  0
  9 10  1  0  0  0  0
 10  7  1  0  0  0  0
 10 13  2  0  0  0  0
 11 23  1  0  0  0  0
 11  2  1  0  0  0  0
 12  4  1  0  0  0  0
 12  9  1  0  0  0  0
 13 20  1  0  0  0  0
 15  8  1  0  0  0  0
 15 14  2  0  0  0  0
 16 15  2  0  0  0  0
 18  6  1  0  0  0  0
 19 12  1  0  0  0  0
 21  5  1  0  0  0  0
 22 11  1  0  0  0  0
M  CHG  1   7  -1
M  END
