3,4,5
q = -2.0, confidence = 0.966

 33 34  0  0  0  0  0  0  0  0999 V2000
    3.8361    1.7072    0.2959 Br  0  0  0  0  0  0  0  0  0  0  0  0
    1.5352    6.7379   -0.3822 Cl  0  0  0  0  0  0  0  0  0  0  0  0
   -2.1183   -1.6069    0.0901 S   0  0  0  0  0  1  0  0  0  0  0  0
    0.9831    0.9127    0.2778 O   0  5  0  0  0  0  0  0  0  0  0  0
   -1.7675    1.2146    0.0766 N   0  0  0  0  0  2  0  0  0  0  0  0
   -3.1031    0.9175    0.0850 N   0  0  0  0  0  0  0  0  0  0  0  0
   -4.6635   -0.8384    0.0693 N   0  0  0  0  0  0  0  0  0  0  0  0
   -4.7234   -1.8579    0.0811 H   0  0  0  0  0  0  0  0  0  0  0  0
    1.0218    2.2079    0.1493 C   0  0  0  0  0  0  0  0  0  0  0  0
    2.3141    2.8332    0.1230 C   0  0  0  0  0  0  0  0  0  0  0  0
    2.4870    4.2037   -0.0278 C   0  0  0  0  0  0  0  0  0  0  0  0
    3.4916    4.6456   -0.0504 H   0  0  0  0  0  0  0  0  0  0  0  0
    1.3394    5.0126   -0.1618 C   0  0  0  0  0  0  0  0  0  0  0  0
    0.0653    4.4591   -0.1239 C   0  0  0  0  0  3  0  0  0  0  0  0
   -0.7859    5.1376   -0.2464 H   0  0  0  0  0  0  0  0  0  0  0  0
   -0.1410    3.0578    0.0414 C   0  0  0  0  0  0  0  0  0  0  0  0
   -1.4964    2.5269    0.0978 C   0  0  0  0  0  0  0  0  0  0  0  0
   -2.6790    3.4591    0.1731 C   0  0  0  0  0  0  0  0  0  0  0  0
   -2.3913    4.5059    0.3535 H   0  0  0  0  0  0  0  0  0  0  0  0
   -3.3533    3.1278    0.9863 H   0  0  0  0  0  0  0  0  0  0  0  0
   -3.2794    3.4018   -0.7583 H   0  0  0  0  0  0  0  0  0  0  0  0
   -3.3725   -0.3661    0.0792 C   0  0  0  0  0  0  0  0  0  0  0  0
   -5.8947   -0.1720    0.0483 C   0  0  0  0  0  0  0  0  0  0  0  0
   -6.0244    1.2349    0.0060 C   0  0  0  0  0  0  0  0  0  0  0  0
   -5.1155    1.8461   -0.0114 H   0  0  0  0  0  0  0  0  0  0  0  0
   -7.3023    1.8112   -0.0145 C   0  0  0  0  0  0  0  0  0  0  0  0
   -7.3881    2.9083   -0.0479 H   0  0  0  0  0  0  0  0  0  0  0  0
   -8.4609    1.0198    0.0060 C   0  0  0  0  0  0  0  0  0  0  0  0
   -9.4570    1.4859   -0.0100 H   0  0  0  0  0  0  0  0  0  0  0  0
   -8.3303   -0.3787    0.0472 C   0  0  0  0  0  0  0  0  0  0  0  0
   -9.2253   -1.0192    0.0637 H   0  0  0  0  0  0  0  0  0  0  0  0
   -7.0640   -0.9708    0.0683 C   0  0  0  0  0  0  0  0  0  0  0  0
   -6.9693   -2.0685    0.1014 H   0  0  0  0  0  0  0  0  0  0  0  0
  2 13  1  0  0  0  0
  5  6  1  0  0  0  0
  5 17  1  0  0  0  0
  7 22  1  0  0  0  0
  7  8  1  0  0  0  0
  9  4  1  0  0  0  0
 10  9  2  0  0  0  0
 10  1  1  0  0  0  0
 11 10  1  0  0  0  0
 12 11  1  0  0  0  0
 13 14  1  0  0  0  0
 13 11  2  0  0  0  0
 14 16  1  0  0  0  0
 15 14  1  0  0  0  0
 16 17  2  0  0  0  0
 16  9  1  0  0  0  0
 17 18  1  0  0  0  0
 18 19  1  0  0  0  0
 18 20  1  0  0  0  0
 21 18  1  0  0  0  0
 22  6  2  0  0  0  0
 22  3  1  0  0  0  0
 23 32  1  0  0  0  0
 23  7  1  0  0  0  0
 24 23  2  0  0  0  0
 25 24  1  0  0  0  0
 26 24  1  0  0  0  0
 26 28  2  0  0  0  0
 27 26  1  0  0  0  0
 28 30  1  0  0  0  0
 29 28  1  0  0  0  0
 30 31  1  0  0  0  0
 30 32  2  0  0  0  0
 32 33  1  0  0  0  0
M  CHG  1   4  -1
M  END
