1,26,27
q = -1.0

 27 28  0  0  1  0  0  0  0  0999 V2000
    0.9323   -1.6153   -0.1822 O   0  0  0  0  0  1  0  0  0  0  0  0
    1.6228    2.6721   -0.0407 O   0  0  0  0  0  0  0  0  0  0  0  0
    2.1006   -1.0553   -0.0296 C   0  0  2  0  0  3  0  0  0  0  0  0
    3.2250   -1.9396    0.0808 C   0  0  0  0  0  0  0  0  0  0  0  0
    3.0078   -3.0155    0.0203 H   0  0  0  0  0  0  0  0  0  0  0  0
    4.5160   -1.4669    0.2626 C   0  0  0  0  0  0  0  0  0  0  0  0
    5.3439   -2.1888    0.3452 H   0  0  0  0  0  0  0  0  0  0  0  0
    4.7864   -0.0771    0.3488 C   0  0  0  0  0  0  0  0  0  0  0  0
    5.8138    0.2846    0.4967 H   0  0  0  0  0  0  0  0  0  0  0  0
    3.7327    0.8171    0.2418 C   0  0  0  0  0  0  0  0  0  0  0  0
    3.9077    1.9013    0.2994 H   0  0  0  0  0  0  0  0  0  0  0  0
    2.3950    0.3662    0.0455 C   0  0  0  0  0  0  0  0  0  0  0  0
    1.3514    1.3377   -0.0911 C   0  0  0  0  0  0  0  0  0  0  0  0
    0.3517    3.3630    0.0300 C   0  0  0  0  0  0  0  0  0  0  0  0
    0.4201    4.2786   -0.5854 H   0  0  0  0  0  0  0  0  0  0  0  0
    0.1604    3.6424    1.0903 H   0  0  0  0  0  0  0  0  0  0  0  0
   -0.6701    2.3257   -0.4841 C   0  0  2  0  0  0  0  0  0  0  0  0
   -0.8623    2.4625   -1.5748 H   0  0  0  0  0  0  0  0  0  0  0  0
   -2.0062    2.2193    0.2474 C   0  0  0  0  0  0  0  0  0  0  0  0
   -2.7067    3.0375   -0.0123 H   0  0  0  0  0  0  0  0  0  0  0  0
   -1.8481    2.1895    1.3446 H   0  0  0  0  0  0  0  0  0  0  0  0
   -3.7135    0.1452    1.2477 C   0  0  0  0  0  0  0  0  0  0  0  0
   -4.6603    0.7168    1.2846 H   0  0  0  0  0  0  0  0  0  0  0  0
   -3.0976    0.3101    2.1513 H   0  0  0  0  0  0  0  0  0  0  0  0
   -3.8931   -0.9418    1.1245 H   0  0  0  0  0  0  0  0  0  0  0  0
   -2.7768    0.5935   -0.2482 S   0  0  0  0  0  0  0  0  0  0  0  0
    0.0780    1.0819   -0.2816 N   0  0  0  0  0  2  0  0  0  0  0  0
  2 14  1  0  0  0  0
  3  1  1  1  0  0  0
  3 12  1  0  0  0  0
  3  4  1  0  0  0  0
  4  6  2  0  0  0  0
  5  4  1  0  0  0  0
  6  7  1  0  0  0  0
  6  8  1  0  0  0  0
  8  9  1  0  0  0  0
 10 11  1  0  0  0  0
 10  8  2  0  0  0  0
 12 10  1  0  0  0  0
 13  2  1  0  0  0  0
 13 12  2  0  0  0  0
 14 16  1  0  0  0  0
 15 14  1  0  0  0  0
 17 18  1  6  0  0  0
 17 27  1  0  0  0  0
 17 14  1  0  0  0  0
 17 19  1  0  0  0  0
 19 21  1  0  0  0  0
 20 19  1  0  0  0  0
 22 23  1  0  0  0  0
 22 24  1  0  0  0  0
 25 22  1  0  0  0  0
 26 19  1  0  0  0  0
 26 22  1  0  0  0  0
 27 13  1  0  0  0  0
M  END
