1,2,22
q = -1.0

 34 36  0  0  1  0  0  0  0  0999 V2000
    3.2112   -0.3547   -0.3069 S   0  0  0  0  0  0  0  0  0  0  0  0
   -0.3792   -2.1050   -0.0748 O   0  5  0  0  0  0  0  0  0  0  0  0
    2.7422    1.3685   -0.1474 C   0  0  0  0  0  0  0  0  0  0  0  0
   -1.5437   -1.5589   -0.0366 C   0  0  0  0  0  0  0  0  0  0  0  0
   -1.7647   -0.1235   -0.0200 C   0  0  0  0  0  0  0  0  0  0  0  0
    1.3534    1.6107   -0.0853 C   0  0  0  0  0  0  0  0  0  0  0  0
   -0.7725    0.7822   -0.0350 N   0  0  0  0  0  0  0  0  0  0  0  0
   -3.4036    1.7885    0.0397 C   0  0  0  0  0  0  0  0  0  0  0  0
   -2.5574    2.4880    0.0125 H   0  0  0  0  0  0  0  0  0  0  0  0
   -2.6920   -2.4302   -0.0004 C   0  0  0  0  0  0  0  0  0  0  0  0
   -2.4865   -3.5100   -0.0117 H   0  0  0  0  0  0  0  0  0  0  0  0
    0.9002    2.9464   -0.0237 C   0  0  0  0  0  0  0  0  0  0  0  0
   -0.1797    3.1325    0.0244 H   0  0  0  0  0  0  0  0  0  0  0  0
   -3.9689   -1.9286    0.0434 C   0  0  0  0  0  0  0  0  0  0  0  0
   -4.8271   -2.6190    0.0682 H   0  0  0  0  0  0  0  0  0  0  0  0
    3.2098    3.7423   -0.0848 C   0  0  0  0  0  0  0  0  0  0  0  0
    3.9280    4.5752   -0.0864 H   0  0  0  0  0  0  0  0  0  0  0  0
   -3.1301    0.3989    0.0265 C   0  0  1  0  0  3  0  0  0  0  0  0
    1.8263    3.9943   -0.0194 C   0  0  0  0  0  0  0  0  0  0  0  0
    1.4625    5.0315    0.0328 H   0  0  0  0  0  0  0  0  0  0  0  0
   -4.2330   -0.5150    0.0581 C   0  0  0  0  0  0  0  0  0  0  0  0
    0.4838    0.4768   -0.0842 N   0  0  0  0  0  2  0  0  0  0  0  0
    3.9774   -0.6670    1.3287 C   0  0  0  0  0  0  0  0  0  0  0  0
    4.9723   -0.1842    1.3591 H   0  0  0  0  0  0  0  0  0  0  0  0
    4.0561   -1.7697    1.3747 H   0  0  0  0  0  0  0  0  0  0  0  0
    3.3215   -0.2857    2.1317 H   0  0  0  0  0  0  0  0  0  0  0  0
   -5.5588   -0.0108    0.1029 C   0  0  0  0  0  0  0  0  0  0  0  0
   -6.3946   -0.7274    0.1265 H   0  0  0  0  0  0  0  0  0  0  0  0
    3.6690    2.4200   -0.1612 C   0  0  0  0  0  0  0  0  0  0  0  0
    4.7449    2.2008   -0.2341 H   0  0  0  0  0  0  0  0  0  0  0  0
   -4.7145    2.2606    0.0844 C   0  0  0  0  0  0  0  0  0  0  0  0
   -4.9017    3.3453    0.0939 H   0  0  0  0  0  0  0  0  0  0  0  0
   -5.8028    1.3596    0.1165 C   0  0  0  0  0  0  0  0  0  0  0  0
   -6.8347    1.7393    0.1512 H   0  0  0  0  0  0  0  0  0  0  0  0
  1  3  1  0  0  0  0
  1 23  1  0  0  0  0
  2  4  1  0  0  0  0
  3  6  1  0  0  0  0
  4  5  1  0  0  0  0
  4 10  2  0  0  0  0
  6 22  1  0  0  0  0
  6 12  2  0  0  0  0
  7  5  2  0  0  0  0
  8 31  2  0  0  0  0
  9  8  1  0  0  0  0
 10 14  1  0  0  0  0
 11 10  1  0  0  0  0
 12 19  1  0  0  0  0
 12 13  1  0  0  0  0
 14 21  2  0  0  0  0
 14 15  1  0  0  0  0
 16 19  2  0  0  0  0
 17 16  1  0  0  0  0
 18  5  1  6  0  0  0
 18  8  1  0  0  0  0
 18 21  1  0  0  0  0
 19 20  1  0  0  0  0
 21 27  1  0  0  0  0
 22  7  1  0  0  0  0
 23 24  1  0  0  0  0
 23 25  1  0  0  0  0
 23 26  1  0  0  0  0
 27 33  2  0  0  0  0
 27 28  1  0  0  0  0
 29  3  2  0  0  0  0
 29 16  1  0  0  0  0
 30 29  1  0  0  0  0
 31 32  1  0  0  0  0
 31 33  1  0  0  0  0
 33 34  1  0  0  0  0
M  CHG  1   2  -1
M  END
