1,2,3
q = -1.0

 41 43  0  0  0  0  0  0  0  0999 V2000
   -2.6428   -0.1364   -1.3739 S   0  0  0  0  0  0  0  0  0  0  0  0
    1.3488   -0.7812    0.0376 O   0  5  0  0  0  0  0  0  0  0  0  0
   -0.3214    1.5524   -0.3538 N   0  0  0  0  0  2  0  0  0  0  0  0
    2.2715    0.1170    0.1567 C   0  0  0  0  0  0  0  0  0  0  0  0
    3.6304   -0.4120    0.3021 C   0  0  0  0  0  0  0  0  0  0  0  0
    3.8446   -1.8142    0.2765 C   0  0  0  0  0  3  0  0  0  0  0  0
    2.9710   -2.4680    0.1432 H   0  0  0  0  0  0  0  0  0  0  0  0
    5.1279   -2.3358    0.4130 C   0  0  0  0  0  0  0  0  0  0  0  0
    5.2836   -3.4249    0.3901 H   0  0  0  0  0  0  0  0  0  0  0  0
    6.2337   -1.4673    0.5781 C   0  0  0  0  0  0  0  0  0  0  0  0
    7.2470   -1.8842    0.6858 H   0  0  0  0  0  0  0  0  0  0  0  0
    6.0445   -0.0890    0.6014 C   0  0  0  0  0  0  0  0  0  0  0  0
    6.9019    0.5906    0.7268 H   0  0  0  0  0  0  0  0  0  0  0  0
    4.7453    0.4702    0.4636 C   0  0  0  0  0  0  0  0  0  0  0  0
    4.5116    1.8837    0.4711 C   0  0  0  0  0  0  0  0  0  0  0  0
    5.3675    2.5689    0.5630 H   0  0  0  0  0  0  0  0  0  0  0  0
    3.2358    2.3789    0.3530 C   0  0  0  0  0  0  0  0  0  0  0  0
    3.1110    3.4696    0.3353 H   0  0  0  0  0  0  0  0  0  0  0  0
    2.0685    1.5427    0.2007 C   0  0  0  0  0  0  0  0  0  0  0  0
    0.7643    2.1720    0.0960 C   0  0  0  0  0  0  0  0  0  0  0  0
    0.6336    3.6232    0.5266 C   0  0  0  0  0  0  0  0  0  0  0  0
   -0.3142    3.7895    1.0720 H   0  0  0  0  0  0  0  0  0  0  0  0
    0.6478    4.3176   -0.3407 H   0  0  0  0  0  0  0  0  0  0  0  0
    1.4520    3.9156    1.2038 H   0  0  0  0  0  0  0  0  0  0  0  0
   -1.5917    2.2778   -0.4859 C   0  0  0  0  0  0  0  0  0  0  0  0
   -1.4258    3.3479   -0.7271 H   0  0  0  0  0  0  0  0  0  0  0  0
   -2.1586    2.2398    0.4736 H   0  0  0  0  0  0  0  0  0  0  0  0
   -2.4405    1.6799   -1.5951 C   0  0  0  0  0  0  0  0  0  0  0  0
   -1.9323    1.7588   -2.5771 H   0  0  0  0  0  0  0  0  0  0  0  0
   -3.4302    2.1692   -1.6770 H   0  0  0  0  0  0  0  0  0  0  0  0
   -3.6887   -0.2294    0.1053 C   0  0  0  0  0  0  0  0  0  0  0  0
   -4.7546    0.6664    0.3030 C   0  0  0  0  0  0  0  0  0  0  0  0
   -4.9571    1.4777   -0.4110 H   0  0  0  0  0  0  0  0  0  0  0  0
   -5.5804    0.5169    1.4285 C   0  0  0  0  0  0  0  0  0  0  0  0
   -6.4080    1.2244    1.5887 H   0  0  0  0  0  0  0  0  0  0  0  0
   -5.3576   -0.5292    2.3365 C   0  0  0  0  0  0  0  0  0  0  0  0
   -6.0081   -0.6424    3.2167 H   0  0  0  0  0  0  0  0  0  0  0  0
   -4.3055   -1.4321    2.1145 C   0  0  0  0  0  0  0  0  0  0  0  0
   -4.1273   -2.2591    2.8182 H   0  0  0  0  0  0  0  0  0  0  0  0
   -3.4634   -1.2900    1.0022 C   0  0  0  0  0  0  0  0  0  0  0  0
   -2.6342   -1.9932    0.8138 H   0  0  0  0  0  0  0  0  0  0  0  0
  1 31  1  0  0  0  0
  2  4  1  0  0  0  0
  3 20  1  0  0  0  0
  4 19  1  0  0  0  0
  4  5  2  0  0  0  0
  5 14  1  0  0  0  0
  6  5  1  0  0  0  0
  6  8  1  0  0  0  0
  7  6  1  0  0  0  0
  8 10  2  0  0  0  0
  9  8  1  0  0  0  0
 10 12  1  0  0  0  0
 10 11  1  0  0  0  0
 12 13  1  0  0  0  0
 14 15  1  0  0  0  0
 14 12  2  0  0  0  0
 15 16  1  0  0  0  0
 17 15  2  0  0  0  0
 18 17  1  0  0  0  0
 19 17  1  0  0  0  0
 20 19  2  0  0  0  0
 20 21  1  0  0  0  0
 21 22  1  0  0  0  0
 21 24  1  0  0  0  0
 23 21  1  0  0  0  0
 25  3  1  0  0  0  0
 25 27  1  0  0  0  0
 26 25  1  0  0  0  0
 28  1  1  0  0  0  0
 28 25  1  0  0  0  0
 29 28  1  0  0  0  0
 30 28  1  0  0  0  0
 31 32  2  0  0  0  0
 31 40  1  0  0  0  0
 32 34  1  0  0  0  0
 33 32  1  0  0  0  0
 34 35  1  0  0  0  0
 34 36  2  0  0  0  0
 36 37  1  0  0  0  0
 38 36  1  0  0  0  0
 38 39  1  0  0  0  0
 40 38  2  0  0  0  0
 41 40  1  0  0  0  0
M  CHG  1   2  -1
M  END
