1,7,11
q = -1.0

 24 24  0  0  1  0  0  0  0  0999 V2000
    0.0657    1.1513   -1.1652 N   0  0  0  0  0  2  0  0  0  0  0  0
   -0.2337    3.1618   -2.0068 N   0  0  0  0  0  0  0  0  0  0  0  0
   -0.0327    4.0433   -2.4806 H   0  0  0  0  0  0  0  0  0  0  0  0
   -1.2137    1.5757   -0.8300 C   0  0  0  0  0  0  0  0  0  0  0  0
   -1.4077    2.8430   -1.3521 C   0  0  0  0  0  0  0  0  0  0  0  0
    0.6365    2.1270   -1.8684 C   0  0  0  0  0  3  0  0  0  0  0  0
   -1.1265   -0.2211    1.2659 S   0  0  0  0  0  0  0  0  0  0  0  0
   -4.4235   -2.1235   -0.5207 O   0  0  0  0  0  0  0  0  0  0  0  0
   -4.6010   -0.3505    0.8747 O   0  0  0  0  0  0  0  0  0  0  0  0
    0.8438    3.0590    2.3009 O   0  5  0  0  0  0  0  0  0  0  0  0
    1.5154    1.2463    1.1353 O   0  0  0  0  0  0  0  0  0  0  0  0
    0.6877    1.9168    1.8868 C   0  0  0  0  0  0  0  0  0  0  0  0
   -0.5819    1.1511    2.3524 C   0  0  0  0  0  0  0  0  0  0  0  0
   -2.1163    0.7042   -0.0214 C   0  0  2  0  0  0  0  0  0  0  0  0
   -2.8804   -0.3464   -0.8376 C   0  0  0  0  0  0  0  0  0  0  0  0
   -4.0469   -0.9174   -0.0480 C   0  0  0  0  0  0  0  0  0  0  0  0
   -5.1959   -2.3990    0.0209 H   0  0  0  0  0  0  0  0  0  0  0  0
   -2.2612    3.5253   -1.3071 H   0  0  0  0  0  0  0  0  0  0  0  0
    1.6632    2.1240   -2.2488 H   0  0  0  0  0  0  0  0  0  0  0  0
   -1.4290    1.8457    2.5074 H   0  0  0  0  0  0  0  0  0  0  0  0
   -0.3603    0.6656    3.3254 H   0  0  0  0  0  0  0  0  0  0  0  0
   -2.8582    1.3057    0.5416 H   0  0  0  0  0  0  0  0  0  0  0  0
   -3.3053    0.1410   -1.7419 H   0  0  0  0  0  0  0  0  0  0  0  0
   -2.2255   -1.1592   -1.2103 H   0  0  0  0  0  0  0  0  0  0  0  0
  1  4  1  0  0  0  0
  2  6  1  0  0  0  0
  2  5  1  0  0  0  0
  3  2  1  0  0  0  0
  4 14  1  0  0  0  0
  5 18  1  0  0  0  0
  5  4  2  0  0  0  0
  6  1  1  0  0  0  0
  7 13  1  0  0  0  0
  8 16  1  0  0  0  0
  8 17  1  0  0  0  0
 11 12  2  0  0  0  0
 12 10  1  0  0  0  0
 12 13  1  0  0  0  0
 13 20  1  0  0  0  0
 13 21  1  0  0  0  0
 14 22  1  1  0  0  0
 14  7  1  0  0  0  0
 15 16  1  0  0  0  0
 15 14  1  0  0  0  0
 16  9  2  0  0  0  0
 19  6  1  0  0  0  0
 23 15  1  0  0  0  0
 24 15  1  0  0  0  0
M  CHG  1  10  -1
M  END
