1,2,3
q = -1.0

 24 24  0  0  1  0  0  0  0  0999 V2000
    2.6402    0.1226   -0.3321 S   0  0  0  0  0  0  0  0  0  0  0  0
   -1.3842   -1.2622   -0.0538 O   0  0  0  0  0  1  0  0  0  0  0  0
    0.0079    1.3205   -0.0868 N   0  0  0  0  0  2  0  0  0  0  0  0
    0.9789    2.2941   -0.1140 N   0  0  0  0  0  0  0  0  0  0  0  0
    3.2703    2.7566   -0.0062 N   0  0  0  0  0  0  0  0  0  0  0  0
    3.0321    3.7516    0.0021 H   0  0  0  0  0  0  0  0  0  0  0  0
    4.1272    2.5187   -0.5091 H   0  0  0  0  0  0  0  0  0  0  0  0
   -2.4186    0.9629    0.0290 C   0  0  0  0  0  0  0  0  0  0  0  0
   -1.2371    1.7574   -0.0201 C   0  0  0  0  0  0  0  0  0  0  0  0
   -1.3478    2.8565    0.0102 H   0  0  0  0  0  0  0  0  0  0  0  0
    2.2092    1.9008   -0.1380 C   0  0  0  0  0  0  0  0  0  0  0  0
   -2.4278   -0.4912    0.0225 C   0  0  1  0  0  3  0  0  0  0  0  0
   -3.7054   -1.1369    0.1047 C   0  0  0  0  0  0  0  0  0  0  0  0
   -3.7004   -2.2361    0.1032 H   0  0  0  0  0  0  0  0  0  0  0  0
   -4.8858   -0.4133    0.1746 C   0  0  0  0  0  0  0  0  0  0  0  0
   -5.8444   -0.9528    0.2310 H   0  0  0  0  0  0  0  0  0  0  0  0
   -4.8776    1.0065    0.1751 C   0  0  0  0  0  0  0  0  0  0  0  0
   -5.8194    1.5704    0.2319 H   0  0  0  0  0  0  0  0  0  0  0  0
   -3.6627    1.6665    0.1054 C   0  0  0  0  0  0  0  0  0  0  0  0
   -3.6317    2.7678    0.1080 H   0  0  0  0  0  0  0  0  0  0  0  0
    3.4590   -0.2457    1.2660 C   0  0  0  0  0  0  0  0  0  0  0  0
    4.4951    0.1401    1.2539 H   0  0  0  0  0  0  0  0  0  0  0  0
    3.4372   -1.3527    1.3063 H   0  0  0  0  0  0  0  0  0  0  0  0
    2.8732    0.1765    2.1013 H   0  0  0  0  0  0  0  0  0  0  0  0
  1 11  1  0  0  0  0
  1 21  1  0  0  0  0
  3  9  1  0  0  0  0
  4  3  1  0  0  0  0
  5  6  1  0  0  0  0
  7  5  1  0  0  0  0
  8 19  1  0  0  0  0
  9 10  1  0  0  0  0
  9  8  2  0  0  0  0
 11  4  2  0  0  0  0
 11  5  1  0  0  0  0
 12  2  1  6  0  0  0
 12  8  1  0  0  0  0
 12 13  1  0  0  0  0
 13 15  2  0  0  0  0
 14 13  1  0  0  0  0
 15 17  1  0  0  0  0
 15 16  1  0  0  0  0
 17 18  1  0  0  0  0
 19 20  1  0  0  0  0
 19 17  2  0  0  0  0
 21 23  1  0  0  0  0
 21 24  1  0  0  0  0
 22 21  1  0  0  0  0
M  END
