1,2,3
q = -1.0, confidence = 0.006

 24 24  0  0  1  0  0  0  0  0999 V2000
   -1.2271   -1.2427   -0.4488 S   0  0  0  0  0  0  0  0  0  0  0  0
    0.4906   -0.4462    1.8723 O   0  5  0  0  0  0  0  0  0  0  0  0
    0.1848    1.7565    0.1914 N   0  0  0  0  0  2  0  0  0  0  0  0
   -1.0027   -1.1067    3.4312 O   0  0  0  0  0  0  0  0  0  0  0  0
   -4.4883    0.1211   -1.5719 O   0  0  0  0  0  0  0  0  0  0  0  0
   -4.2430   -1.4290    0.0600 O   0  0  0  0  0  0  0  0  0  0  0  0
   -0.0967    3.7596    1.0627 N   0  0  0  0  0  0  0  0  0  0  0  0
   -0.5557   -1.1069    2.2908 C   0  0  0  0  0  0  0  0  0  0  0  0
   -1.2586   -1.9901    1.2251 C   0  0  0  0  0  0  0  0  0  0  0  0
   -2.4685    0.1313   -0.2140 C   0  0  2  0  0  0  0  0  0  0  0  0
   -3.8349   -0.3681   -0.6730 C   0  0  0  0  0  0  0  0  0  0  0  0
   -2.0312    1.3925   -0.9740 C   0  0  0  0  0  0  0  0  0  0  0  0
   -1.0685    2.2188   -0.1862 C   0  0  0  0  0  0  0  0  0  0  0  0
   -1.2517    3.4785    0.3593 C   0  0  0  0  0  0  0  0  0  0  0  0
    0.7457    2.7017    0.9469 C   0  0  0  0  0  3  0  0  0  0  0  0
   -5.1116   -1.7030   -0.3078 H   0  0  0  0  0  0  0  0  0  0  0  0
    0.0956    4.6128    1.5882 H   0  0  0  0  0  0  0  0  0  0  0  0
   -2.3063   -2.2086    1.5003 H   0  0  0  0  0  0  0  0  0  0  0  0
   -0.7086   -2.9479    1.1111 H   0  0  0  0  0  0  0  0  0  0  0  0
   -2.5104    0.3208    0.8795 H   0  0  0  0  0  0  0  0  0  0  0  0
   -1.5994    1.1083   -1.9580 H   0  0  0  0  0  0  0  0  0  0  0  0
   -2.9361    1.9879   -1.2015 H   0  0  0  0  0  0  0  0  0  0  0  0
   -2.0932    4.1748    0.3025 H   0  0  0  0  0  0  0  0  0  0  0  0
    1.7333    2.6435    1.4154 H   0  0  0  0  0  0  0  0  0  0  0  0
  1 10  1  0  0  0  0
  1  9  1  0  0  0  0
  2  8  1  0  0  0  0
  3 15  1  0  0  0  0
  5 11  2  0  0  0  0
  7 17  1  0  0  0  0
  8  4  2  0  0  0  0
  9 18  1  0  0  0  0
  9  8  1  0  0  0  0
 10 20  1  1  0  0  0
 11 10  1  0  0  0  0
 11  6  1  0  0  0  0
 12 10  1  0  0  0  0
 12 13  1  0  0  0  0
 13  3  1  0  0  0  0
 13 14  2  0  0  0  0
 14  7  1  0  0  0  0
 15  7  1  0  0  0  0
 15 24  1  0  0  0  0
 16  6  1  0  0  0  0
 19  9  1  0  0  0  0
 21 12  1  0  0  0  0
 22 12  1  0  0  0  0
 23 14  1  0  0  0  0
M  CHG  1   2  -1
M  END
