1,5,6
q = -1.0, confidence = 0.07

 44 47  0  0  0  0  0  0  0  0999 V2000
    2.0976   -0.6691   -0.8746 S   0  0  0  0  0  0  0  0  0  0  0  0
   -4.1013    2.0349    0.4365 S   0  0  0  0  0  0  0  0  0  0  0  0
    6.3520   -0.1677    0.3437 O   0  0  0  0  0  0  0  0  0  0  0  0
    4.8108    0.1690   -1.2764 O   0  0  0  0  0  0  0  0  0  0  0  0
   -2.1434   -1.2524   -0.4853 O   0  5  0  0  0  0  0  0  0  0  0  0
   -0.3131    1.1133   -0.7479 N   0  0  0  0  0  2  0  0  0  0  0  0
    7.3655   -0.1237   -0.6699 C   0  0  0  0  0  0  0  0  0  0  0  0
    5.0856    0.0010   -0.0962 C   0  0  0  0  0  0  0  0  0  0  0  0
    4.0934   -0.0292    1.0200 C   0  0  0  0  0  0  0  0  0  0  0  0
    4.5287    0.1813    2.3456 C   0  0  0  0  0  0  0  0  0  0  0  0
    3.6235    0.1804    3.4129 C   0  0  0  0  0  0  0  0  0  0  0  0
    2.2618   -0.0479    3.1690 C   0  0  0  0  0  0  0  0  0  0  0  0
    1.8095   -0.2702    1.8607 C   0  0  0  0  0  0  0  0  0  0  0  0
    2.7097   -0.2501    0.7824 C   0  0  0  0  0  0  0  0  0  0  0  0
    1.9530    0.9949   -1.6579 C   0  0  0  0  0  0  0  0  0  0  0  0
    0.8206    1.7968   -1.0918 C   0  0  0  0  0  0  0  0  0  0  0  0
    0.9201    3.1836   -0.9840 C   0  0  0  0  0  0  0  0  0  0  0  0
   -0.2089    3.9050   -0.5436 C   0  0  0  0  0  0  0  0  0  0  0  0
   -1.3752    3.2221   -0.2448 C   0  0  0  0  0  0  0  0  0  0  0  0
   -1.4429    1.7958   -0.3481 C   0  0  0  0  0  0  0  0  0  0  0  0
   -2.6598    1.1024   -0.0578 C   0  0  0  0  0  0  0  0  0  0  0  0
   -5.0859    0.5874    0.4650 C   0  0  0  0  0  0  0  0  0  0  0  0
   -6.4510    0.5038    0.7919 C   0  0  0  0  0  0  0  0  0  0  0  0
   -7.0634   -0.7552    0.7616 C   0  0  0  0  0  0  0  0  0  0  0  0
   -6.3349   -1.9174    0.4164 C   0  0  0  0  0  0  0  0  0  0  0  0
   -4.9778   -1.8319    0.0955 C   0  0  0  0  0  3  0  0  0  0  0  0
   -4.3468   -0.5718    0.1171 C   0  0  0  0  0  0  0  0  0  0  0  0
   -2.9441   -0.2861   -0.1757 C   0  0  0  0  0  0  0  0  0  0  0  0
    7.2009   -0.9215   -1.4211 H   0  0  0  0  0  0  0  0  0  0  0  0
    7.3566    0.8538   -1.1928 H   0  0  0  0  0  0  0  0  0  0  0  0
    8.3255   -0.2759   -0.1466 H   0  0  0  0  0  0  0  0  0  0  0  0
    5.6003    0.3476    2.5200 H   0  0  0  0  0  0  0  0  0  0  0  0
    3.9843    0.3520    4.4379 H   0  0  0  0  0  0  0  0  0  0  0  0
    1.5395   -0.0606    3.9987 H   0  0  0  0  0  0  0  0  0  0  0  0
    0.7460   -0.4737    1.6577 H   0  0  0  0  0  0  0  0  0  0  0  0
    2.9342    1.4984   -1.6022 H   0  0  0  0  0  0  0  0  0  0  0  0
    1.7544    0.7378   -2.7210 H   0  0  0  0  0  0  0  0  0  0  0  0
    1.8581    3.6863   -1.2547 H   0  0  0  0  0  0  0  0  0  0  0  0
   -0.1683    5.0001   -0.4473 H   0  0  0  0  0  0  0  0  0  0  0  0
   -2.2720    3.7684    0.0788 H   0  0  0  0  0  0  0  0  0  0  0  0
   -7.0226    1.4036    1.0630 H   0  0  0  0  0  0  0  0  0  0  0  0
   -8.1320   -0.8381    1.0124 H   0  0  0  0  0  0  0  0  0  0  0  0
   -6.8427   -2.8932    0.4030 H   0  0  0  0  0  0  0  0  0  0  0  0
   -4.3832   -2.7177   -0.1727 H   0  0  0  0  0  0  0  0  0  0  0  0
  1 14  1  0  0  0  0
  2 22  1  0  0  0  0
  4  8  2  0  0  0  0
  5 28  1  0  0  0  0
  6 20  1  0  0  0  0
  7 31  1  0  0  0  0
  7  3  1  0  0  0  0
  8  3  1  0  0  0  0
  8  9  1  0  0  0  0
  9 10  1  0  0  0  0
 10 32  1  0  0  0  0
 10 11  2  0  0  0  0
 11 33  1  0  0  0  0
 12 11  1  0  0  0  0
 12 34  1  0  0  0  0
 13 12  2  0  0  0  0
 14  9  2  0  0  0  0
 14 13  1  0  0  0  0
 15 36  1  0  0  0  0
 15 16  1  0  0  0  0
 15  1  1  0  0  0  0
 16 17  2  0  0  0  0
 16  6  1  0  0  0  0
 17 18  1  0  0  0  0
 18 39  1  0  0  0  0
 18 19  2  0  0  0  0
 19 40  1  0  0  0  0
 20 19  1  0  0  0  0
 20 21  2  0  0  0  0
 21  2  1  0  0  0  0
 22 23  2  0  0  0  0
 23 41  1  0  0  0  0
 24 23  1  0  0  0  0
 24 42  1  0  0  0  0
 25 24  2  0  0  0  0
 26 27  1  0  0  0  0
 26 25  1  0  0  0  0
 27 22  1  0  0  0  0
 28 21  1  0  0  0  0
 28 27  2  0  0  0  0
 29  7  1  0  0  0  0
 30  7  1  0  0  0  0
 35 13  1  0  0  0  0
 37 15  1  0  0  0  0
 38 17  1  0  0  0  0
 43 25  1  0  0  0  0
 44 26  1  0  0  0  0
M  CHG  1   5  -1
M  END
