1,4,7
q = -2.0, confidence = 0.924

 35 36  0  0  0  0  0  0  0  0999 V2000
   -1.1549   -1.3477   -0.0477 S   0  0  0  0  0  1  0  0  0  0  0  0
   -4.1038   -1.1303    0.0243 S   0  0  0  0  0  0  0  0  0  0  0  0
   -1.2309    2.9324    0.1292 C   0  0  0  0  0  0  0  0  0  0  0  0
    1.6845    1.9101    0.0792 O   0  5  0  0  0  0  0  0  0  0  0  0
   -2.5158    1.0136    0.0964 N   0  0  0  0  0  0  0  0  0  0  0  0
   -6.6796   -0.2406    0.0209 C   0  0  0  0  0  0  0  0  0  0  0  0
   -1.2744    1.5940    0.0861 N   0  0  0  0  0  2  0  0  0  0  0  0
    0.0005    3.7094    0.0544 C   0  0  0  0  0  0  0  0  0  0  0  0
   -2.5508   -0.2907    0.0363 C   0  0  0  0  0  0  0  0  0  0  0  0
   -9.2983   -1.2943   -0.0871 C   0  0  0  0  0  0  0  0  0  0  0  0
  -10.3202   -1.7009   -0.1293 H   0  0  0  0  0  0  0  0  0  0  0  0
   -7.3774   -0.5518    1.2054 C   0  0  0  0  0  0  0  0  0  0  0  0
   -6.8897   -0.3811    2.1782 H   0  0  0  0  0  0  0  0  0  0  0  0
    2.4493    4.0862   -0.0406 C   0  0  0  0  0  0  0  0  0  0  0  0
    3.4502    3.6309   -0.0578 H   0  0  0  0  0  0  0  0  0  0  0  0
   -5.2743    0.2941    0.0770 C   0  0  0  0  0  0  0  0  0  0  0  0
   -5.0772    0.8593    1.0086 H   0  0  0  0  0  0  0  0  0  0  0  0
   -5.0374    0.9518   -0.7815 H   0  0  0  0  0  0  0  0  0  0  0  0
   -0.1225    5.1364   -0.0083 C   0  0  0  0  0  3  0  0  0  0  0  0
   -1.1255    5.5798   -0.0081 H   0  0  0  0  0  0  0  0  0  0  0  0
   -2.5425    3.6744    0.2442 C   0  0  0  0  0  0  0  0  0  0  0  0
   -3.3579    2.9635    0.4475 H   0  0  0  0  0  0  0  0  0  0  0  0
   -2.7754    4.2095   -0.6996 H   0  0  0  0  0  0  0  0  0  0  0  0
   -2.4945    4.4294    1.0515 H   0  0  0  0  0  0  0  0  0  0  0  0
    2.2718    5.4593   -0.0965 C   0  0  0  0  0  0  0  0  0  0  0  0
    3.1475    6.1244   -0.1554 H   0  0  0  0  0  0  0  0  0  0  0  0
   -8.6789   -1.0716    1.1529 C   0  0  0  0  0  0  0  0  0  0  0  0
   -9.2134   -1.3043    2.0866 H   0  0  0  0  0  0  0  0  0  0  0  0
   -8.6090   -0.9957   -1.2736 C   0  0  0  0  0  0  0  0  0  0  0  0
   -9.0889   -1.1687   -2.2489 H   0  0  0  0  0  0  0  0  0  0  0  0
   -7.3078   -0.4761   -1.2189 C   0  0  0  0  0  0  0  0  0  0  0  0
   -6.7648   -0.2470   -2.1494 H   0  0  0  0  0  0  0  0  0  0  0  0
    0.9639    5.9963   -0.0837 C   0  0  0  0  0  0  0  0  0  0  0  0
    0.8023    7.0827   -0.1359 H   0  0  0  0  0  0  0  0  0  0  0  0
    1.3476    3.1769    0.0312 C   0  0  0  0  0  0  0  0  0  0  0  0
  1  9  1  0  0  0  0
  2  9  1  0  0  0  0
  2 16  1  0  0  0  0
  3 21  1  0  0  0  0
  6 16  1  0  0  0  0
  6 12  1  0  0  0  0
  7  5  1  0  0  0  0
  7  3  1  0  0  0  0
  8  3  2  0  0  0  0
  9  5  2  0  0  0  0
 10 27  1  0  0  0  0
 11 10  1  0  0  0  0
 12 13  1  0  0  0  0
 14 35  2  0  0  0  0
 15 14  1  0  0  0  0
 16 17  1  0  0  0  0
 18 16  1  0  0  0  0
 19 20  1  0  0  0  0
 19  8  1  0  0  0  0
 21 22  1  0  0  0  0
 21 24  1  0  0  0  0
 23 21  1  0  0  0  0
 25 33  2  0  0  0  0
 25 14  1  0  0  0  0
 26 25  1  0  0  0  0
 27 12  2  0  0  0  0
 27 28  1  0  0  0  0
 29 31  1  0  0  0  0
 29 10  2  0  0  0  0
 30 29  1  0  0  0  0
 31  6  2  0  0  0  0
 32 31  1  0  0  0  0
 33 19  1  0  0  0  0
 34 33  1  0  0  0  0
 35  8  1  0  0  0  0
 35  4  1  0  0  0  0
M  CHG  1   4  -1
M  END
