1,15,19
q = -1.0

 19 18  0  0  1  0  0  0  0  0999 V2000
    0.9381    1.8377    0.4903 S   0  0  0  0  0  0  0  0  0  0  0  0
    2.1781   -1.2749    0.7429 C   0  0  2  0  0  0  0  0  0  0  0  0
    2.7502   -2.1552    1.0988 H   0  0  0  0  0  0  0  0  0  0  0  0
    2.9910   -0.0047    1.0578 C   0  0  0  0  0  0  0  0  0  0  0  0
    4.0521   -0.2468    0.8470 H   0  0  0  0  0  0  0  0  0  0  0  0
    2.9321    0.2317    2.1439 H   0  0  0  0  0  0  0  0  0  0  0  0
    2.0351   -1.3713   -0.8057 C   0  0  0  0  0  0  0  0  0  0  0  0
    2.6528    1.2265    0.2147 C   0  0  0  0  0  0  0  0  0  0  0  0
    2.7619    0.9976   -0.8645 H   0  0  0  0  0  0  0  0  0  0  0  0
    3.3302    2.0670    0.4667 H   0  0  0  0  0  0  0  0  0  0  0  0
    0.7971    2.9462   -0.9486 C   0  0  0  0  0  0  0  0  0  0  0  0
    1.5419    3.7600   -0.8580 H   0  0  0  0  0  0  0  0  0  0  0  0
   -0.2239    3.3691   -0.9297 H   0  0  0  0  0  0  0  0  0  0  0  0
    0.9463    2.3702   -1.8815 H   0  0  0  0  0  0  0  0  0  0  0  0
    0.8342   -1.2409    1.3852 N   0  0  0  0  0  0  0  0  0  0  0  0
    0.8874   -0.8559    2.3392 H   0  0  0  0  0  0  0  0  0  0  0  0
    0.4801   -2.2004    1.4936 H   0  0  0  0  0  0  0  0  0  0  0  0
    2.9785   -1.7953   -1.4606 O   0  5  0  0  0  0  0  0  0  0  0  0
    0.9257   -0.8607   -1.2715 O   0  0  0  0  0  0  0  0  0  0  0  0
  2  4  1  0  0  0  0
  2  3  1  1  0  0  0
  2 15  1  0  0  0  0
  4  6  1  0  0  0  0
  5  4  1  0  0  0  0
  7  2  1  0  0  0  0
  8 10  1  0  0  0  0
  8  1  1  0  0  0  0
  8  4  1  0  0  0  0
  9  8  1  0  0  0  0
 11 13  1  0  0  0  0
 11 12  1  0  0  0  0
 11  1  1  0  0  0  0
 14 11  1  0  0  0  0
 15 17  1  0  0  0  0
 15 16  1  0  0  0  0
 18  7  1  0  0  0  0
 19  7  2  0  0  0  0
M  CHG  1  18  -1
M  END
