1,12,19
q = -1.0

 19 18  0  0  1  0  0  0  0  0999 V2000
   -0.5116    0.9900   -1.6775 S   0  0  0  0  0  0  0  0  0  0  0  0
   -2.2850   -0.3399    0.1114 C   0  0  1  0  0  0  0  0  0  0  0  0
   -2.3880    0.5522    0.7624 H   0  0  0  0  0  0  0  0  0  0  0  0
   -2.0947    0.1042   -1.3492 C   0  0  0  0  0  0  0  0  0  0  0  0
   -2.9290    0.7513   -1.6854 H   0  0  0  0  0  0  0  0  0  0  0  0
   -2.0633   -0.7816   -2.0170 H   0  0  0  0  0  0  0  0  0  0  0  0
   -3.5673   -1.1925    0.1981 C   0  0  0  0  0  0  0  0  0  0  0  0
   -0.7755    2.5314   -0.7196 C   0  0  0  0  0  0  0  0  0  0  0  0
    0.1121    3.1549   -0.9552 H   0  0  0  0  0  0  0  0  0  0  0  0
   -1.6831    3.0479   -1.0855 H   0  0  0  0  0  0  0  0  0  0  0  0
   -0.8556    2.2701    0.8079 C   0  0  0  0  0  0  0  0  0  0  0  0
   -1.1250   -1.1246    0.5742 N   0  0  0  0  0  0  0  0  0  0  0  0
   -1.2451   -2.0942    0.2331 H   0  0  0  0  0  0  0  0  0  0  0  0
   -1.1568   -1.1861    1.6020 H   0  0  0  0  0  0  0  0  0  0  0  0
   -3.5384   -2.4021    0.1483 O   0  0  0  0  0  0  0  0  0  0  0  0
   -4.7269   -0.5081    0.2702 O   0  0  0  0  0  0  0  0  0  0  0  0
   -4.5512    0.4471    0.3953 H   0  0  0  0  0  0  0  0  0  0  0  0
   -1.6949    2.8786    1.4669 O   0  5  0  0  0  0  0  0  0  0  0  0
   -0.0239    1.3747    1.2617 O   0  0  0  0  0  0  0  0  0  0  0  0
  1  4  1  0  0  0  0
  1  8  1  0  0  0  0
  2  7  1  0  0  0  0
  2 12  1  0  0  0  0
  2  3  1  1  0  0  0
  4  2  1  0  0  0  0
  5  4  1  0  0  0  0
  6  4  1  0  0  0  0
  7 16  1  0  0  0  0
  8 11  1  0  0  0  0
  9  8  1  0  0  0  0
 10  8  1  0  0  0  0
 11 19  2  0  0  0  0
 11 18  1  0  0  0  0
 12 14  1  0  0  0  0
 13 12  1  0  0  0  0
 15  7  2  0  0  0  0
 16 17  1  0  0  0  0
M  CHG  1  18  -1
M  END
