1,2,4
q = -1.0

 41 42  0  0  1  0  0  0  0  0999 V2000
    1.8097   -0.1582   -1.4656 S   0  0  0  0  0  0  0  0  0  0  0  0
   -1.9669   -1.7111   -0.1557 O   0  0  0  0  0  1  0  0  0  0  0  0
    4.9230   -0.1140    1.8817 O   0  0  0  0  0  0  0  0  0  0  0  0
   -0.7251    0.9060   -0.3513 N   0  0  0  0  0  2  0  0  0  0  0  0
   -1.8638    1.3100    0.0741 N   0  0  0  0  0  0  0  0  0  0  0  0
   -2.9479   -0.9626    0.2149 C   0  0  1  0  0  3  0  0  0  0  0  0
   -4.1842   -1.6052    0.5639 C   0  0  0  0  0  0  0  0  0  0  0  0
   -4.2039   -2.7014    0.4827 H   0  0  0  0  0  0  0  0  0  0  0  0
   -5.2910   -0.8877    0.9730 C   0  0  0  0  0  0  0  0  0  0  0  0
   -6.2165   -1.4317    1.2236 H   0  0  0  0  0  0  0  0  0  0  0  0
   -5.2784    0.5407    1.0842 C   0  0  0  0  0  0  0  0  0  0  0  0
   -6.5118    1.2775    1.5362 C   0  0  0  0  0  0  0  0  0  0  0  0
   -7.3675    1.0898    0.8535 H   0  0  0  0  0  0  0  0  0  0  0  0
   -6.3424    2.3707    1.5744 H   0  0  0  0  0  0  0  0  0  0  0  0
   -6.8326    0.9472    2.5468 H   0  0  0  0  0  0  0  0  0  0  0  0
   -4.1004    1.1905    0.7639 C   0  0  0  0  0  0  0  0  0  0  0  0
   -4.0211    2.2858    0.8310 H   0  0  0  0  0  0  0  0  0  0  0  0
   -2.9203    0.4985    0.3258 C   0  0  0  0  0  0  0  0  0  0  0  0
    0.2617    1.9240   -0.5219 C   0  0  0  0  0  0  0  0  0  0  0  0
    0.0109    3.2818   -0.2245 C   0  0  0  0  0  0  0  0  0  0  0  0
   -0.9885    3.5556    0.1369 H   0  0  0  0  0  0  0  0  0  0  0  0
    1.0250    4.2303   -0.3809 C   0  0  0  0  0  0  0  0  0  0  0  0
    0.8193    5.2837   -0.1380 H   0  0  0  0  0  0  0  0  0  0  0  0
    2.3001    3.8540   -0.8432 C   0  0  0  0  0  0  0  0  0  0  0  0
    3.0936    4.6057   -0.9642 H   0  0  0  0  0  0  0  0  0  0  0  0
    2.5529    2.5135   -1.1620 C   0  0  0  0  0  0  0  0  0  0  0  0
    3.5376    2.2052   -1.5441 H   0  0  0  0  0  0  0  0  0  0  0  0
    1.5430    1.5537   -0.9926 C   0  0  0  0  0  0  0  0  0  0  0  0
    3.0744   -0.7244   -0.2535 C   0  0  0  0  0  0  0  0  0  0  0  0
    3.1866   -1.7914   -0.5370 H   0  0  0  0  0  0  0  0  0  0  0  0
    4.0116   -0.1799   -0.4844 H   0  0  0  0  0  0  0  0  0  0  0  0
    2.6772   -0.5677    1.2066 C   0  0  0  0  0  0  0  0  0  0  0  0
    1.7924   -1.2044    1.4150 H   0  0  0  0  0  0  0  0  0  0  0  0
    2.3949    0.4862    1.4138 H   0  0  0  0  0  0  0  0  0  0  0  0
    3.8201   -0.9622    2.1337 C   0  0  0  0  0  0  0  0  0  0  0  0
    3.4884   -0.8780    3.1989 H   0  0  0  0  0  0  0  0  0  0  0  0
    4.1016   -2.0339    1.9693 H   0  0  0  0  0  0  0  0  0  0  0  0
    6.0469   -0.4225    2.6696 C   0  0  0  0  0  0  0  0  0  0  0  0
    6.8533    0.2879    2.4026 H   0  0  0  0  0  0  0  0  0  0  0  0
    6.4148   -1.4628    2.4902 H   0  0  0  0  0  0  0  0  0  0  0  0
    5.8343   -0.3237    3.7626 H   0  0  0  0  0  0  0  0  0  0  0  0
  1 28  1  0  0  0  0
  1 29  1  0  0  0  0
  3 35  1  0  0  0  0
  3 38  1  0  0  0  0
  4  5  1  0  0  0  0
  5 18  2  0  0  0  0
  6  2  1  1  0  0  0
  6 18  1  0  0  0  0
  6  7  1  0  0  0  0
  7  9  2  0  0  0  0
  8  7  1  0  0  0  0
  9 11  1  0  0  0  0
  9 10  1  0  0  0  0
 11 12  1  0  0  0  0
 12 14  1  0  0  0  0
 12 15  1  0  0  0  0
 13 12  1  0  0  0  0
 16 17  1  0  0  0  0
 16 11  2  0  0  0  0
 18 16  1  0  0  0  0
 19  4  1  0  0  0  0
 19 20  1  0  0  0  0
 20 21  1  0  0  0  0
 22 20  2  0  0  0  0
 22 23  1  0  0  0  0
 24 22  1  0  0  0  0
 25 24  1  0  0  0  0
 26 28  1  0  0  0  0
 26 24  2  0  0  0  0
 27 26  1  0  0  0  0
 28 19  2  0  0  0  0
 29 32  1  0  0  0  0
 30 29  1  0  0  0  0
 31 29  1  0  0  0  0
 32 34  1  0  0  0  0
 32 33  1  0  0  0  0
 32 35  1  0  0  0  0
 35 36  1  0  0  0  0
 37 35  1  0  0  0  0
 38 41  1  0  0  0  0
 39 38  1  0  0  0  0
 40 38  1  0  0  0  0
M  END
