1,4,6
q = -1.0

 38 39  0  0  1  0  0  0  0  0999 V2000
    2.3434    0.3172   -1.0476 S   0  0  0  0  0  0  0  0  0  0  0  0
   -3.7728   -3.2105   -0.1605 Cl  0  0  0  0  0  0  0  0  0  0  0  0
   -6.4881    1.2786    1.2157 Cl  0  0  0  0  0  0  0  0  0  0  0  0
   -1.5090   -1.4509   -0.3874 O   0  0  0  0  0  1  0  0  0  0  0  0
   -1.5629    1.5280    0.1244 N   0  0  0  0  0  0  0  0  0  0  0  0
   -0.3721    1.2063   -0.2166 N   0  0  0  0  0  2  0  0  0  0  0  0
   -2.5471   -0.7846   -0.0394 C   0  0  1  0  0  3  0  0  0  0  0  0
   -3.7948   -1.5023    0.1294 C   0  0  0  0  0  0  0  0  0  0  0  0
   -4.9710   -0.8747    0.5048 C   0  0  0  0  0  0  0  0  0  0  0  0
   -5.8907   -1.4642    0.6176 H   0  0  0  0  0  0  0  0  0  0  0  0
   -4.9868    0.5274    0.7436 C   0  0  0  0  0  0  0  0  0  0  0  0
   -3.8358    1.2750    0.6044 C   0  0  0  0  0  0  0  0  0  0  0  0
   -3.8288    2.3573    0.7846 H   0  0  0  0  0  0  0  0  0  0  0  0
   -2.6019    0.6573    0.2143 C   0  0  0  0  0  0  0  0  0  0  0  0
    0.5663    2.2840   -0.2482 C   0  0  0  0  0  0  0  0  0  0  0  0
    0.2012    3.6135    0.0548 C   0  0  0  0  0  0  0  0  0  0  0  0
   -0.8416    3.8136    0.3325 H   0  0  0  0  0  0  0  0  0  0  0  0
    1.1556    4.6325   -0.0092 C   0  0  0  0  0  0  0  0  0  0  0  0
    0.8584    5.6647    0.2294 H   0  0  0  0  0  0  0  0  0  0  0  0
    2.4811    4.3547   -0.3900 C   0  0  0  0  0  0  0  0  0  0  0  0
    3.2230    5.1638   -0.4571 H   0  0  0  0  0  0  0  0  0  0  0  0
    2.8510    3.0396   -0.7038 C   0  0  0  0  0  0  0  0  0  0  0  0
    3.8733    2.8105   -1.0377 H   0  0  0  0  0  0  0  0  0  0  0  0
    1.9057    2.0051   -0.6096 C   0  0  0  0  0  0  0  0  0  0  0  0
    3.3061   -0.2597    0.4216 C   0  0  0  0  0  0  0  0  0  0  0  0
    2.7013   -0.0470    1.3250 H   0  0  0  0  0  0  0  0  0  0  0  0
    3.3191   -1.3571    0.2575 H   0  0  0  0  0  0  0  0  0  0  0  0
    4.7156    0.3124    0.5022 C   0  0  0  0  0  0  0  0  0  0  0  0
    4.6948    1.3952    0.7433 H   0  0  0  0  0  0  0  0  0  0  0  0
    5.2274    0.1932   -0.4762 H   0  0  0  0  0  0  0  0  0  0  0  0
    5.6135   -1.7717    1.2249 O   0  0  0  0  0  0  0  0  0  0  0  0
    5.5309   -0.4102    1.5718 C   0  0  0  0  0  0  0  0  0  0  0  0
    6.5484    0.0511    1.6465 H   0  0  0  0  0  0  0  0  0  0  0  0
    5.0488   -0.2834    2.5763 H   0  0  0  0  0  0  0  0  0  0  0  0
    6.2879   -2.5531    2.1820 C   0  0  0  0  0  0  0  0  0  0  0  0
    6.2897   -3.5990    1.8199 H   0  0  0  0  0  0  0  0  0  0  0  0
    5.7843   -2.5219    3.1791 H   0  0  0  0  0  0  0  0  0  0  0  0
    7.3461   -2.2224    2.3242 H   0  0  0  0  0  0  0  0  0  0  0  0
  1 24  1  0  0  0  0
  1 25  1  0  0  0  0
  2  8  1  0  0  0  0
  5 14  2  0  0  0  0
  6  5  1  0  0  0  0
  7  4  1  1  0  0  0
  7  8  1  0  0  0  0
  7 14  1  0  0  0  0
  8  9  2  0  0  0  0
  9 10  1  0  0  0  0
  9 11  1  0  0  0  0
 11  3  1  0  0  0  0
 12 11  2  0  0  0  0
 12 13  1  0  0  0  0
 14 12  1  0  0  0  0
 15  6  1  0  0  0  0
 15 16  1  0  0  0  0
 16 17  1  0  0  0  0
 18 16  2  0  0  0  0
 18 19  1  0  0  0  0
 20 18  1  0  0  0  0
 21 20  1  0  0  0  0
 22 24  1  0  0  0  0
 22 20  2  0  0  0  0
 23 22  1  0  0  0  0
 24 15  2  0  0  0  0
 25 28  1  0  0  0  0
 25 26  1  0  0  0  0
 27 25  1  0  0  0  0
 28 29  1  0  0  0  0
 28 32  1  0  0  0  0
 30 28  1  0  0  0  0
 31 32  1  0  0  0  0
 31 35  1  0  0  0  0
 32 33  1  0  0  0  0
 32 34  1  0  0  0  0
 35 38  1  0  0  0  0
 35 37  1  0  0  0  0
 36 35  1  0  0  0  0
M  END
