1,2,5
q = -1.0

 35 36  0  0  1  0  0  0  0  0999 V2000
    1.0886   -2.1097   -0.2197 S   0  0  0  0  0  1  0  0  0  0  0  0
   -0.1799    0.5201   -0.3590 N   0  0  0  0  0  2  0  0  0  0  0  0
    1.1781    0.5477   -0.6694 N   0  0  0  0  0  0  0  0  0  0  0  0
    3.2158   -0.6134   -0.7735 N   0  0  0  0  0  0  0  0  0  0  0  0
   -2.8756   -0.5491    0.1864 O   0  5  0  0  0  0  0  0  0  0  0  0
    4.2606    1.2416    0.3274 O   0  0  0  0  0  0  0  0  0  0  0  0
   -2.2430    1.8092    0.0021 C   0  0  0  0  0  0  0  0  0  0  0  0
   -3.1764    0.7099    0.1950 C   0  0  0  0  0  0  0  0  0  0  0  0
   -4.5534    1.0536    0.4182 C   0  0  0  0  0  0  0  0  0  0  0  0
   -5.2477    0.2131    0.5588 H   0  0  0  0  0  0  0  0  0  0  0  0
   -4.9820    2.3693    0.4621 C   0  0  0  0  0  0  0  0  0  0  0  0
   -6.0474    2.5845    0.6401 H   0  0  0  0  0  0  0  0  0  0  0  0
   -4.0679    3.4430    0.2833 C   0  0  0  0  0  0  0  0  0  0  0  0
   -4.4160    4.4850    0.3207 H   0  0  0  0  0  0  0  0  0  0  0  0
   -2.7338    3.1538    0.0588 C   0  0  0  0  0  3  0  0  0  0  0  0
   -2.0117    3.9742   -0.0865 H   0  0  0  0  0  0  0  0  0  0  0  0
   -0.8481    1.6581   -0.2581 C   0  0  0  0  0  0  0  0  0  0  0  0
   -0.2967    2.6043   -0.3770 H   0  0  0  0  0  0  0  0  0  0  0  0
    1.8639   -0.6252   -0.5683 C   0  0  2  0  0  3  0  0  0  0  0  0
    1.8245    1.8121   -1.0462 C   0  0  0  0  0  0  0  0  0  0  0  0
    1.9660    2.4344   -0.1371 H   0  0  0  0  0  0  0  0  0  0  0  0
    1.1449    2.3487   -1.7371 H   0  0  0  0  0  0  0  0  0  0  0  0
    3.1651    1.5735   -1.7331 C   0  0  0  0  0  0  0  0  0  0  0  0
    3.0214    1.1483   -2.7457 H   0  0  0  0  0  0  0  0  0  0  0  0
    3.6946    2.5396   -1.8294 H   0  0  0  0  0  0  0  0  0  0  0  0
    3.9942    0.6052   -0.9014 C   0  0  2  0  0  0  0  0  0  0  0  0
    4.9455    0.3252   -1.4131 H   0  0  0  0  0  0  0  0  0  0  0  0
    5.0665    0.4892    1.2343 C   0  0  0  0  0  0  0  0  0  0  0  0
    6.0276    0.2090    0.7360 H   0  0  0  0  0  0  0  0  0  0  0  0
    4.5484   -0.4592    1.5095 H   0  0  0  0  0  0  0  0  0  0  0  0
    5.3199    1.3333    2.4677 C   0  0  0  0  0  0  0  0  0  0  0  0
    5.9446    0.7769    3.1935 H   0  0  0  0  0  0  0  0  0  0  0  0
    4.3637    1.5954    2.9621 H   0  0  0  0  0  0  0  0  0  0  0  0
    5.8430    2.2729    2.2015 H   0  0  0  0  0  0  0  0  0  0  0  0
    3.6769   -1.5192   -0.6837 H   0  0  0  0  0  0  0  0  0  0  0  0
  2 17  1  0  0  0  0
  3 19  1  0  0  0  0
  3  2  1  0  0  0  0
  4 35  1  0  0  0  0
  4 19  1  0  0  0  0
  5  8  1  0  0  0  0
  6 28  1  0  0  0  0
  7 15  1  0  0  0  0
  7  8  1  0  0  0  0
  8  9  2  0  0  0  0
  9 11  1  0  0  0  0
  9 10  1  0  0  0  0
 11 12  1  0  0  0  0
 13 14  1  0  0  0  0
 13 11  2  0  0  0  0
 15 13  1  0  0  0  0
 16 15  1  0  0  0  0
 17  7  2  0  0  0  0
 18 17  1  0  0  0  0
 19  1  1  6  0  0  0
 20  3  1  0  0  0  0
 20 21  1  0  0  0  0
 22 20  1  0  0  0  0
 23 20  1  0  0  0  0
 23 26  1  0  0  0  0
 24 23  1  0  0  0  0
 25 23  1  0  0  0  0
 26 27  1  6  0  0  0
 26  4  1  0  0  0  0
 26  6  1  0  0  0  0
 28 30  1  0  0  0  0
 28 31  1  0  0  0  0
 29 28  1  0  0  0  0
 31 33  1  0  0  0  0
 31 32  1  0  0  0  0
 34 31  1  0  0  0  0
M  CHG  1   5  -1
M  END
