1,2,3
q = -2.0, confidence = 0.95

 23 23  0  0  1  0  0  0  0  0999 V2000
    1.4020   -2.2659    0.1021 S   0  0  0  0  0  1  0  0  0  0  0  0
   -0.4430    1.2966   -0.3333 O   0  0  0  0  0  1  0  0  0  0  0  0
    2.1658    0.4385    0.0718 N   0  0  0  0  0  2  0  0  0  0  0  0
    3.2868   -0.3377    0.2070 N   0  0  0  0  0  0  0  0  0  0  0  0
    4.0944   -2.4938    0.2942 N   0  0  0  0  0  0  0  0  0  0  0  0
    4.9871   -2.0374    0.4901 H   0  0  0  0  0  0  0  0  0  0  0  0
    2.3984    1.7434    0.0958 C   0  0  0  0  0  0  0  0  0  0  0  0
    3.4596    2.0178    0.2312 H   0  0  0  0  0  0  0  0  0  0  0  0
    1.4371    2.7900   -0.0408 C   0  0  0  0  0  0  0  0  0  0  0  0
    0.0398    2.5093   -0.2530 C   0  0  1  0  0  3  0  0  0  0  0  0
   -0.8538    3.6141   -0.3816 C   0  0  0  0  0  0  0  0  0  0  0  0
   -1.9168    3.3836   -0.5464 H   0  0  0  0  0  0  0  0  0  0  0  0
   -0.3947    4.9261   -0.3053 C   0  0  0  0  0  0  0  0  0  0  0  0
   -1.1109    5.7566   -0.4089 H   0  0  0  0  0  0  0  0  0  0  0  0
    0.9784    5.2034   -0.0985 C   0  0  0  0  0  0  0  0  0  0  0  0
    1.3340    6.2424   -0.0406 H   0  0  0  0  0  0  0  0  0  0  0  0
    1.8709    4.1448    0.0292 C   0  0  0  0  0  0  0  0  0  0  0  0
    2.9435    4.3398    0.1900 H   0  0  0  0  0  0  0  0  0  0  0  0
    3.0381   -1.6286    0.2072 C   0  0  0  0  0  0  0  0  0  0  0  0
    3.9655   -3.9098    0.5358 C   0  0  0  0  0  0  0  0  0  0  0  0
    3.6800   -4.1592    1.5851 H   0  0  0  0  0  0  0  0  0  0  0  0
    4.9252   -4.4115    0.3050 H   0  0  0  0  0  0  0  0  0  0  0  0
    3.1859   -4.3344   -0.1295 H   0  0  0  0  0  0  0  0  0  0  0  0
  1 19  1  0  0  0  0
  3  7  1  0  0  0  0
  3  4  1  0  0  0  0
  4 19  2  0  0  0  0
  5  6  1  0  0  0  0
  5 20  1  0  0  0  0
  7  8  1  0  0  0  0
  9 17  1  0  0  0  0
  9  7  2  0  0  0  0
 10  2  1  6  0  0  0
 10  9  1  0  0  0  0
 11 13  2  0  0  0  0
 11 10  1  0  0  0  0
 12 11  1  0  0  0  0
 13 15  1  0  0  0  0
 14 13  1  0  0  0  0
 15 16  1  0  0  0  0
 15 17  2  0  0  0  0
 17 18  1  0  0  0  0
 19  5  1  0  0  0  0
 20 21  1  0  0  0  0
 22 20  1  0  0  0  0
 23 20  1  0  0  0  0
M  END
