1,2,3
q = -1.0

 45 46  0  0  1  0  0  0  0  0999 V2000
    3.0609   -0.4232   -0.7614 S   0  0  0  0  0  0  0  0  0  0  0  0
   -1.1764   -1.2790    0.2938 O   0  5  0  0  0  0  0  0  0  0  0  0
    0.4407    0.9160    0.3041 N   0  0  0  0  0  2  0  0  0  0  0  0
    2.6868    1.3616   -0.5785 C   0  0  0  0  0  0  0  0  0  0  0  0
    3.6352    1.9102   -0.4179 H   0  0  0  0  0  0  0  0  0  0  0  0
    2.2723    1.6556   -1.5623 H   0  0  0  0  0  0  0  0  0  0  0  0
    4.2914   -0.7267    0.5991 C   0  0  0  0  0  0  0  0  0  0  0  0
    3.7987   -0.3976    1.5376 H   0  0  0  0  0  0  0  0  0  0  0  0
    5.5848    0.0429    0.3451 C   0  0  0  0  0  0  0  0  0  0  0  0
    6.3079   -0.1795    1.1571 H   0  0  0  0  0  0  0  0  0  0  0  0
    5.4392    1.1414    0.3327 H   0  0  0  0  0  0  0  0  0  0  0  0
    6.0484   -0.2576   -0.6165 H   0  0  0  0  0  0  0  0  0  0  0  0
    4.5067   -2.2388    0.6542 C   0  0  0  0  0  0  0  0  0  0  0  0
    4.9236   -2.6204   -0.3007 H   0  0  0  0  0  0  0  0  0  0  0  0
    3.5603   -2.7716    0.8643 H   0  0  0  0  0  0  0  0  0  0  0  0
    5.2284   -2.4756    1.4622 H   0  0  0  0  0  0  0  0  0  0  0  0
   -0.3506    3.6967   -1.0596 C   0  0  0  0  0  0  0  0  0  0  0  0
   -0.0099    3.0802   -1.9063 H   0  0  0  0  0  0  0  0  0  0  0  0
    1.6841    1.6363    0.5399 C   0  0  0  0  0  0  0  0  0  0  0  0
    2.0934    1.2747    1.5085 H   0  0  0  0  0  0  0  0  0  0  0  0
    1.5212    2.7306    0.6294 H   0  0  0  0  0  0  0  0  0  0  0  0
   -0.7059    1.5604    0.2019 C   0  0  2  0  0  3  0  0  0  0  0  0
   -1.9846    0.9153    0.0926 C   0  0  0  0  0  0  0  0  0  0  0  0
   -2.8504    1.5752   -0.0343 H   0  0  0  0  0  0  0  0  0  0  0  0
   -2.1952   -0.4541    0.1804 C   0  0  0  0  0  0  0  0  0  0  0  0
   -0.4103    5.0936   -1.1655 C   0  0  0  0  0  0  0  0  0  0  0  0
   -0.1043    5.5840   -2.1020 H   0  0  0  0  0  0  0  0  0  0  0  0
   -0.8643    5.8636   -0.0820 C   0  0  0  0  0  0  0  0  0  0  0  0
   -0.9079    6.9601   -0.1653 H   0  0  0  0  0  0  0  0  0  0  0  0
   -1.2682    5.2324    1.1051 C   0  0  0  0  0  0  0  0  0  0  0  0
   -1.6271    5.8330    1.9547 H   0  0  0  0  0  0  0  0  0  0  0  0
   -1.2187    3.8338    1.2127 C   0  0  0  0  0  0  0  0  0  0  0  0
   -1.5372    3.3339    2.1402 H   0  0  0  0  0  0  0  0  0  0  0  0
   -0.7486    3.0601    0.1347 C   0  0  0  0  0  0  0  0  0  0  0  0
   -3.5282   -1.0961    0.1500 C   0  0  0  0  0  0  0  0  0  0  0  0
   -4.7291   -0.3607    0.2752 C   0  0  0  0  0  0  0  0  0  0  0  0
   -4.6981    0.7279    0.4263 H   0  0  0  0  0  0  0  0  0  0  0  0
   -5.9663   -1.0124    0.2304 C   0  0  0  0  0  0  0  0  0  0  0  0
   -6.8937   -0.4291    0.3336 H   0  0  0  0  0  0  0  0  0  0  0  0
   -6.0259   -2.4067    0.0621 C   0  0  0  0  0  0  0  0  0  0  0  0
   -7.0009   -2.9161    0.0274 H   0  0  0  0  0  0  0  0  0  0  0  0
   -4.8386   -3.1466   -0.0580 C   0  0  0  0  0  0  0  0  0  0  0  0
   -4.8792   -4.2382   -0.1904 H   0  0  0  0  0  0  0  0  0  0  0  0
   -3.5984   -2.4992   -0.0126 C   0  0  0  0  0  0  0  0  0  0  0  0
   -2.6612   -3.0655   -0.1107 H   0  0  0  0  0  0  0  0  0  0  0  0
  1  4  1  0  0  0  0
  1  7  1  0  0  0  0
  3 19  1  0  0  0  0
  4  5  1  0  0  0  0
  4 19  1  0  0  0  0
  6  4  1  0  0  0  0
  7 13  1  0  0  0  0
  7  8  1  0  0  0  0
  9  7  1  0  0  0  0
  9 10  1  0  0  0  0
 11  9  1  0  0  0  0
 12  9  1  0  0  0  0
 13 15  1  0  0  0  0
 13 16  1  0  0  0  0
 14 13  1  0  0  0  0
 17 34  1  0  0  0  0
 18 17  1  0  0  0  0
 19 21  1  0  0  0  0
 19 20  1  0  0  0  0
 22 23  1  6  0  0  0
 22  3  1  0  0  0  0
 23 25  2  0  0  0  0
 24 23  1  0  0  0  0
 25  2  1  0  0  0  0
 26 17  2  0  0  0  0
 26 28  1  0  0  0  0
 27 26  1  0  0  0  0
 28 30  2  0  0  0  0
 29 28  1  0  0  0  0
 30 32  1  0  0  0  0
 30 31  1  0  0  0  0
 32 33  1  0  0  0  0
 34 22  1  0  0  0  0
 34 32  2  0  0  0  0
 35 25  1  0  0  0  0
 35 36  1  0  0  0  0
 36 37  1  0  0  0  0
 38 36  2  0  0  0  0
 38 39  1  0  0  0  0
 40 38  1  0  0  0  0
 41 40  1  0  0  0  0
 42 44  1  0  0  0  0
 42 40  2  0  0  0  0
 43 42  1  0  0  0  0
 44 35  2  0  0  0  0
 45 44  1  0  0  0  0
M  CHG  1   2  -1
M  END
