1,3,4
q = -1.0

 60 62  0  0  0  0  0  0  0  0999 V2000
   -2.9767   -1.0648    0.7191 S   0  0  0  0  0  0  0  0  0  0  0  0
   -4.7166    3.2019   -2.3450 Cl  0  0  0  0  0  0  0  0  0  0  0  0
   -0.4114    0.4444    1.2906 N   0  0  0  0  0  2  0  0  0  0  0  0
    1.3977   -1.4277    0.4142 O   0  5  0  0  0  0  0  0  0  0  0  0
    2.2740   -0.4541    0.2228 C   0  0  0  0  0  0  0  0  0  0  0  0
    3.5818   -0.7435   -0.2682 C   0  0  0  0  0  0  0  0  0  0  0  0
    4.4440    0.3466   -0.4485 C   0  0  0  0  0  0  0  0  0  0  0  0
    5.4495    0.1418   -0.8387 H   0  0  0  0  0  0  0  0  0  0  0  0
    4.1085    1.6970   -0.1664 C   0  0  0  0  0  0  0  0  0  0  0  0
    2.8291    1.9441    0.3259 C   0  0  0  0  0  0  0  0  0  0  0  0
    1.8935    0.8932    0.5217 C   0  0  0  0  0  0  0  0  0  0  0  0
    0.6188    1.2337    1.0980 C   0  0  0  0  0  3  0  0  0  0  0  0
    0.5273    2.2952    1.4053 H   0  0  0  0  0  0  0  0  0  0  0  0
   -1.5217    0.9211    2.0179 C   0  0  0  0  0  0  0  0  0  0  0  0
   -1.4175    1.9431    2.9905 C   0  0  0  0  0  0  0  0  0  0  0  0
   -0.4297    2.3580    3.2356 H   0  0  0  0  0  0  0  0  0  0  0  0
   -2.5453    2.4041    3.6784 C   0  0  0  0  0  0  0  0  0  0  0  0
   -2.4308    3.1985    4.4310 H   0  0  0  0  0  0  0  0  0  0  0  0
   -3.8080    1.8402    3.4361 C   0  0  0  0  0  0  0  0  0  0  0  0
   -4.6931    2.1928    3.9850 H   0  0  0  0  0  0  0  0  0  0  0  0
   -3.9251    0.7896    2.5163 C   0  0  0  0  0  0  0  0  0  0  0  0
   -4.8957    0.3046    2.3366 H   0  0  0  0  0  0  0  0  0  0  0  0
   -2.7976    0.3324    1.8162 C   0  0  0  0  0  0  0  0  0  0  0  0
    3.9962   -2.1864   -0.6075 C   0  0  0  0  0  0  0  0  0  0  0  0
    3.8825   -3.0744    0.6549 C   0  0  0  0  0  0  0  0  0  0  0  0
    4.5497   -2.7023    1.4590 H   0  0  0  0  0  0  0  0  0  0  0  0
    4.1879   -4.1125    0.4108 H   0  0  0  0  0  0  0  0  0  0  0  0
    2.8491   -3.1052    1.0458 H   0  0  0  0  0  0  0  0  0  0  0  0
    3.0853   -2.7359   -1.7329 C   0  0  0  0  0  0  0  0  0  0  0  0
    2.0246   -2.7926   -1.4286 H   0  0  0  0  0  0  0  0  0  0  0  0
    3.4129   -3.7588   -2.0107 H   0  0  0  0  0  0  0  0  0  0  0  0
    3.1497   -2.0978   -2.6374 H   0  0  0  0  0  0  0  0  0  0  0  0
    5.4524   -2.2529   -1.1033 C   0  0  0  0  0  0  0  0  0  0  0  0
    5.6040   -1.6727   -2.0363 H   0  0  0  0  0  0  0  0  0  0  0  0
    5.7142   -3.3065   -1.3249 H   0  0  0  0  0  0  0  0  0  0  0  0
    6.1709   -1.8859   -0.3421 H   0  0  0  0  0  0  0  0  0  0  0  0
    5.1476    2.8031   -0.4110 C   0  0  0  0  0  0  0  0  0  0  0  0
    5.5335    2.8120   -1.9080 C   0  0  0  0  0  0  0  0  0  0  0  0
    4.6482    3.0121   -2.5444 H   0  0  0  0  0  0  0  0  0  0  0  0
    5.9673    1.8438   -2.2282 H   0  0  0  0  0  0  0  0  0  0  0  0
    6.2887    3.6000   -2.1077 H   0  0  0  0  0  0  0  0  0  0  0  0
    6.4028    2.5217    0.4460 C   0  0  0  0  0  0  0  0  0  0  0  0
    7.1699    3.3053    0.2766 H   0  0  0  0  0  0  0  0  0  0  0  0
    6.8627    1.5446    0.1974 H   0  0  0  0  0  0  0  0  0  0  0  0
    6.1520    2.5118    1.5260 H   0  0  0  0  0  0  0  0  0  0  0  0
    4.6048    4.1932   -0.0391 C   0  0  0  0  0  0  0  0  0  0  0  0
    5.3797    4.9624   -0.2290 H   0  0  0  0  0  0  0  0  0  0  0  0
    4.3310    4.2555    1.0337 H   0  0  0  0  0  0  0  0  0  0  0  0
    3.7141    4.4630   -0.6419 H   0  0  0  0  0  0  0  0  0  0  0  0
   -3.6524   -0.3377   -0.7776 C   0  0  0  0  0  0  0  0  0  0  0  0
   -3.8903    1.0352   -0.9270 C   0  0  0  0  0  0  0  0  0  0  0  0
   -3.6706    1.7472   -0.1211 H   0  0  0  0  0  0  0  0  0  0  0  0
   -4.4141    1.4938   -2.1459 C   0  0  0  0  0  0  0  0  0  0  0  0
   -4.6897    0.6125   -3.2025 C   0  0  0  0  0  0  0  0  0  0  0  0
   -4.4299   -0.7557   -3.0292 C   0  0  0  0  0  0  0  0  0  0  0  0
   -4.6289   -1.4542   -3.8556 H   0  0  0  0  0  0  0  0  0  0  0  0
   -3.9126   -1.2429   -1.8230 C   0  0  0  0  0  0  0  0  0  0  0  0
    2.5082    2.9660    0.5727 H   0  0  0  0  0  0  0  0  0  0  0  0
   -5.0957    1.0015   -4.1462 H   0  0  0  0  0  0  0  0  0  0  0  0
   -3.6778   -2.3105   -1.6993 H   0  0  0  0  0  0  0  0  0  0  0  0
  1 23  1  0  0  0  0
  2 53  1  0  0  0  0
  3 14  1  0  0  0  0
  5  4  1  0  0  0  0
  5 11  1  0  0  0  0
  6  5  2  0  0  0  0
  7  6  1  0  0  0  0
  7  9  2  0  0  0  0
  8  7  1  0  0  0  0
  9 10  1  0  0  0  0
 10 11  2  0  0  0  0
 10 58  1  0  0  0  0
 11 12  1  0  0  0  0
 12  3  1  0  0  0  0
 12 13  1  0  0  0  0
 14 15  1  0  0  0  0
 15 16  1  0  0  0  0
 15 17  2  0  0  0  0
 17 18  1  0  0  0  0
 19 17  1  0  0  0  0
 19 20  1  0  0  0  0
 21 19  2  0  0  0  0
 22 21  1  0  0  0  0
 23 14  2  0  0  0  0
 23 21  1  0  0  0  0
 24  6  1  0  0  0  0
 24 25  1  0  0  0  0
 25 28  1  0  0  0  0
 25 26  1  0  0  0  0
 27 25  1  0  0  0  0
 29 30  1  0  0  0  0
 29 24  1  0  0  0  0
 31 29  1  0  0  0  0
 32 29  1  0  0  0  0
 33 24  1  0  0  0  0
 33 36  1  0  0  0  0
 34 33  1  0  0  0  0
 35 33  1  0  0  0  0
 37  9  1  0  0  0  0
 37 46  1  0  0  0  0
 37 42  1  0  0  0  0
 38 37  1  0  0  0  0
 39 38  1  0  0  0  0
 40 38  1  0  0  0  0
 41 38  1  0  0  0  0
 42 45  1  0  0  0  0
 43 42  1  0  0  0  0
 44 42  1  0  0  0  0
 46 48  1  0  0  0  0
 47 46  1  0  0  0  0
 49 46  1  0  0  0  0
 50  1  1  0  0  0  0
 51 50  1  0  0  0  0
 51 52  1  0  0  0  0
 53 51  2  0  0  0  0
 54 55  2  0  0  0  0
 54 53  1  0  0  0  0
 55 57  1  0  0  0  0
 56 55  1  0  0  0  0
 57 60  1  0  0  0  0
 57 50  2  0  0  0  0
 59 54  1  0  0  0  0
M  CHG  1   4  -1
M  END
