1,2,3
q = -2.0, confidence = 0.948

 29 29  0  0  0  0  0  0  0  0999 V2000
   -1.7845   -2.3517   -0.8821 S   0  0  0  0  0  1  0  0  0  0  0  0
   -0.8709    0.9920    1.1293 O   0  5  0  0  0  0  0  0  0  0  0  0
   -2.9033    0.2600   -0.6376 N   0  0  0  0  0  2  0  0  0  0  0  0
   -3.7065   -0.5210   -1.4242 N   0  0  0  0  0  0  0  0  0  0  0  0
   -3.9952   -2.6135   -2.3782 N   0  0  0  0  0  0  0  0  0  0  0  0
   -3.7016   -3.5892   -2.3487 H   0  0  0  0  0  0  0  0  0  0  0  0
   -1.5412    2.1114    1.2392 C   0  0  0  0  0  0  0  0  0  0  0  0
   -1.0641    3.0516    2.2004 C   0  0  0  0  0  0  0  0  0  0  0  0
   -0.1857    2.7537    2.7909 H   0  0  0  0  0  0  0  0  0  0  0  0
   -1.6642    4.2916    2.3704 C   0  0  0  0  0  0  0  0  0  0  0  0
   -1.2612    4.9968    3.1140 H   0  0  0  0  0  0  0  0  0  0  0  0
   -2.7855    4.6446    1.5871 C   0  0  0  0  0  0  0  0  0  0  0  0
   -3.2760    5.6202    1.7183 H   0  0  0  0  0  0  0  0  0  0  0  0
   -3.2789    3.7378    0.6547 C   0  0  0  0  0  3  0  0  0  0  0  0
   -4.1696    4.0198    0.0782 H   0  0  0  0  0  0  0  0  0  0  0  0
   -2.6950    2.4520    0.4433 C   0  0  0  0  0  0  0  0  0  0  0  0
   -3.2970    1.5331   -0.5088 C   0  0  0  0  0  0  0  0  0  0  0  0
   -4.4590    1.9975   -1.3526 C   0  0  0  0  0  0  0  0  0  0  0  0
   -4.5082    1.3981   -2.2776 H   0  0  0  0  0  0  0  0  0  0  0  0
   -4.3727    3.0696   -1.6023 H   0  0  0  0  0  0  0  0  0  0  0  0
   -5.4232    1.8439   -0.8224 H   0  0  0  0  0  0  0  0  0  0  0  0
   -3.2805   -1.7504   -1.5957 C   0  0  0  0  0  0  0  0  0  0  0  0
   -5.3113   -2.2915   -2.9072 C   0  0  0  0  0  0  0  0  0  0  0  0
   -5.5139   -2.9919   -3.7440 H   0  0  0  0  0  0  0  0  0  0  0  0
   -5.2541   -1.2717   -3.3403 H   0  0  0  0  0  0  0  0  0  0  0  0
   -6.4331   -2.3473   -1.8666 C   0  0  0  0  0  0  0  0  0  0  0  0
   -7.4083   -2.0904   -2.3284 H   0  0  0  0  0  0  0  0  0  0  0  0
   -6.2311   -1.6213   -1.0548 H   0  0  0  0  0  0  0  0  0  0  0  0
   -6.5200   -3.3590   -1.4203 H   0  0  0  0  0  0  0  0  0  0  0  0
  2  7  1  0  0  0  0
  3 17  1  0  0  0  0
  4  3  1  0  0  0  0
  5  6  1  0  0  0  0
  5 22  1  0  0  0  0
  7  8  2  0  0  0  0
  8 10  1  0  0  0  0
  8  9  1  0  0  0  0
 10 11  1  0  0  0  0
 12 13  1  0  0  0  0
 12 10  2  0  0  0  0
 14 12  1  0  0  0  0
 15 14  1  0  0  0  0
 16 14  1  0  0  0  0
 16  7  1  0  0  0  0
 17 16  2  0  0  0  0
 18 21  1  0  0  0  0
 18 17  1  0  0  0  0
 19 18  1  0  0  0  0
 20 18  1  0  0  0  0
 22  4  2  0  0  0  0
 22  1  1  0  0  0  0
 23  5  1  0  0  0  0
 23 26  1  0  0  0  0
 24 23  1  0  0  0  0
 25 23  1  0  0  0  0
 26 29  1  0  0  0  0
 26 28  1  0  0  0  0
 27 26  1  0  0  0  0
M  CHG  1   2  -1
M  END
