1,2,4
q = -2.0, confidence = 0.856

 12 11  0  0  0  0  0  0  0  0999 V2000
    1.3355   -1.8981   -0.0006 S   0  0  0  0  0  1  0  0  0  0  0  0
   -0.8574    1.8744   -0.0004 O   0  5  0  0  0  0  0  0  0  0  0  0
   -0.1333    4.0101   -0.0004 O   0  0  0  0  0  0  0  0  0  0  0  0
    1.6878    0.9918    0.0003 N   0  0  0  0  0  2  0  0  0  0  0  0
    2.8896    0.4011    0.0004 N   0  0  0  0  0  0  0  0  0  0  0  0
    3.9871   -1.6094    0.0001 N   0  0  0  0  0  0  0  0  0  0  0  0
    0.0962    2.8095   -0.0001 C   0  0  0  0  0  0  0  0  0  0  0  0
    1.5117    2.2901    0.0001 C   0  0  0  0  0  3  0  0  0  0  0  0
    2.8171   -0.9328    0.0002 C   0  0  0  0  0  0  0  0  0  0  0  0
    2.3747    2.9746    0.0001 H   0  0  0  0  0  0  0  0  0  0  0  0
    4.8618   -1.0859    0.0004 H   0  0  0  0  0  0  0  0  0  0  0  0
    3.9973   -2.6267   -0.0003 H   0  0  0  0  0  0  0  0  0  0  0  0
  1  9  1  0  0  0  0
  2  7  1  0  0  0  0
  3  7  2  0  0  0  0
  4  5  1  0  0  0  0
  6  9  1  0  0  0  0
  6 11  1  0  0  0  0
  7  8  1  0  0  0  0
  8  4  1  0  0  0  0
  9  5  2  0  0  0  0
 10  8  1  0  0  0  0
 12  6  1  0  0  0  0
M  CHG  1   2  -1
M  END
