1,2,3
q = -1.0

 43 45  0  0  0  0  0  0  0  0999 V2000
    2.5170   -0.5040   -1.1360 S   0  0  0  0  0  0  0  0  0  0  0  0
    0.3677    1.3074   -0.2132 N   0  0  0  0  0  2  0  0  0  0  0  0
   -1.6790   -0.7447   -0.3034 O   0  5  0  0  0  0  0  0  0  0  0  0
   -0.6196    2.0525    0.1419 N   0  0  0  0  0  0  0  0  0  0  0  0
   -1.8994    1.6202    0.2546 C   0  0  0  0  0  0  0  0  0  0  0  0
   -4.3393   -1.2855    0.0458 C   0  0  0  0  0  3  0  0  0  0  0  0
   -3.6406   -2.0804   -0.2517 H   0  0  0  0  0  0  0  0  0  0  0  0
    2.7738    1.2005   -0.6304 C   0  0  0  0  0  0  0  0  0  0  0  0
    2.9993   -1.1024    1.6121 C   0  0  0  0  0  0  0  0  0  0  0  0
    3.2106   -0.0269    1.7989 H   0  0  0  0  0  0  0  0  0  0  0  0
    1.9007   -1.2327    1.7215 H   0  0  0  0  0  0  0  0  0  0  0  0
   -3.8218    0.0205    0.2412 C   0  0  0  0  0  0  0  0  0  0  0  0
    4.0475    1.7861   -0.6834 C   0  0  0  0  0  0  0  0  0  0  0  0
    4.9108    1.1842   -1.0055 H   0  0  0  0  0  0  0  0  0  0  0  0
   -2.3967    0.2692    0.0422 C   0  0  0  0  0  0  0  0  0  0  0  0
    3.3863   -1.4626    0.1867 C   0  0  0  0  0  0  0  0  0  0  0  0
    3.0894   -2.4996   -0.0778 H   0  0  0  0  0  0  0  0  0  0  0  0
    4.4714   -1.3398   -0.0130 H   0  0  0  0  0  0  0  0  0  0  0  0
    4.2086    3.1317   -0.3283 C   0  0  0  0  0  0  0  0  0  0  0  0
    5.2067    3.5923   -0.3590 H   0  0  0  0  0  0  0  0  0  0  0  0
   -4.1676    2.4068    0.8262 C   0  0  0  0  0  0  0  0  0  0  0  0
   -4.8514    3.2156    1.1237 H   0  0  0  0  0  0  0  0  0  0  0  0
   -6.5682   -0.4961    0.6087 C   0  0  0  0  0  0  0  0  0  0  0  0
   -7.6403   -0.7013    0.7508 H   0  0  0  0  0  0  0  0  0  0  0  0
   -4.7002    1.0840    0.6281 C   0  0  0  0  0  0  0  0  0  0  0  0
   -5.6957   -1.5420    0.2275 C   0  0  0  0  0  0  0  0  0  0  0  0
   -6.0889   -2.5579    0.0736 H   0  0  0  0  0  0  0  0  0  0  0  0
    3.7376   -1.9635    2.6448 C   0  0  0  0  0  0  0  0  0  0  0  0
    3.5238   -3.0360    2.4440 H   0  0  0  0  0  0  0  0  0  0  0  0
    4.8359   -1.8418    2.5128 H   0  0  0  0  0  0  0  0  0  0  0  0
    1.6398    1.9549   -0.2491 C   0  0  0  0  0  0  0  0  0  0  0  0
   -6.0774    0.7932    0.8050 C   0  0  0  0  0  0  0  0  0  0  0  0
   -6.7560    1.6080    1.1015 H   0  0  0  0  0  0  0  0  0  0  0  0
    1.8106    3.3149    0.0886 C   0  0  0  0  0  0  0  0  0  0  0  0
    0.9221    3.8893    0.3803 H   0  0  0  0  0  0  0  0  0  0  0  0
   -2.8329    2.6515    0.6484 C   0  0  0  0  0  0  0  0  0  0  0  0
   -2.4069    3.6539    0.7971 H   0  0  0  0  0  0  0  0  0  0  0  0
    3.0844    3.8889    0.0526 C   0  0  0  0  0  0  0  0  0  0  0  0
    3.2046    4.9487    0.3230 H   0  0  0  0  0  0  0  0  0  0  0  0
    3.3477   -1.6187    4.0827 C   0  0  0  0  0  0  0  0  0  0  0  0
    3.5782   -0.5592    4.3201 H   0  0  0  0  0  0  0  0  0  0  0  0
    3.8884   -2.2521    4.8139 H   0  0  0  0  0  0  0  0  0  0  0  0
    2.2606   -1.7660    4.2489 H   0  0  0  0  0  0  0  0  0  0  0  0
  1  8  1  0  0  0  0
  1 16  1  0  0  0  0
  2  4  1  0  0  0  0
  3 15  1  0  0  0  0
  4  5  2  0  0  0  0
  5 36  1  0  0  0  0
  6 26  1  0  0  0  0
  6 12  1  0  0  0  0
  7  6  1  0  0  0  0
  8 31  1  0  0  0  0
  9 11  1  0  0  0  0
  9 10  1  0  0  0  0
  9 28  1  0  0  0  0
 12 25  1  0  0  0  0
 13  8  2  0  0  0  0
 13 19  1  0  0  0  0
 14 13  1  0  0  0  0
 15 12  2  0  0  0  0
 15  5  1  0  0  0  0
 16  9  1  0  0  0  0
 17 16  1  0  0  0  0
 18 16  1  0  0  0  0
 19 38  2  0  0  0  0
 20 19  1  0  0  0  0
 21 22  1  0  0  0  0
 23 24  1  0  0  0  0
 23 32  1  0  0  0  0
 25 32  2  0  0  0  0
 25 21  1  0  0  0  0
 26 23  2  0  0  0  0
 27 26  1  0  0  0  0
 28 40  1  0  0  0  0
 29 28  1  0  0  0  0
 30 28  1  0  0  0  0
 31  2  1  0  0  0  0
 31 34  2  0  0  0  0
 32 33  1  0  0  0  0
 34 35  1  0  0  0  0
 36 37  1  0  0  0  0
 36 21  2  0  0  0  0
 38 34  1  0  0  0  0
 38 39  1  0  0  0  0
 40 43  1  0  0  0  0
 40 41  1  0  0  0  0
 40 42  1  0  0  0  0
M  CHG  1   3  -1
M  END
