1,2,3
q = -1.0

 34 35  0  0  0  0  0  0  0  0999 V2000
   -2.0888    0.0370    1.2987 S   0  0  0  0  0  0  0  0  0  0  0  0
    1.2537   -0.6577    1.2067 O   0  5  0  0  0  0  0  0  0  0  0  0
   -0.0304    0.9572   -0.5635 N   0  0  0  0  0  2  0  0  0  0  0  0
    1.0684    1.6212   -0.6583 N   0  0  0  0  0  2  0  0  0  0  0  0
    2.2882    0.0075    0.7893 C   0  0  0  0  0  0  0  0  0  0  0  0
    3.5668   -0.2327    1.3849 C   0  0  0  0  0  0  0  0  0  0  0  0
    3.6103   -1.0011    2.1705 H   0  0  0  0  0  0  0  0  0  0  0  0
    4.7077    0.4227    0.9503 C   0  0  0  0  0  0  0  0  0  0  0  0
    5.6777    0.1657    1.4069 H   0  0  0  0  0  0  0  0  0  0  0  0
    4.6722    1.4241   -0.0701 C   0  0  0  0  0  0  0  0  0  0  0  0
    5.9409    2.1045   -0.5135 C   0  0  0  0  0  0  0  0  0  0  0  0
    6.6370    1.3849   -0.9948 H   0  0  0  0  0  0  0  0  0  0  0  0
    6.4855    2.5486    0.3460 H   0  0  0  0  0  0  0  0  0  0  0  0
    5.7364    2.9123   -1.2421 H   0  0  0  0  0  0  0  0  0  0  0  0
    3.4329    1.7436   -0.6035 C   0  0  0  0  0  0  0  0  0  0  0  0
    3.3254    2.5450   -1.3505 H   0  0  0  0  0  0  0  0  0  0  0  0
    2.2357    1.0617   -0.2208 C   0  0  0  0  0  0  0  0  0  0  0  0
   -1.2113    1.7313   -0.7133 C   0  0  0  0  0  0  0  0  0  0  0  0
   -1.3241    2.8172   -1.5988 C   0  0  0  0  0  0  0  0  0  0  0  0
   -0.4495    3.0904   -2.2052 H   0  0  0  0  0  0  0  0  0  0  0  0
   -2.5417    3.5024   -1.6979 C   0  0  0  0  0  0  0  0  0  0  0  0
   -2.6389    4.3334   -2.4127 H   0  0  0  0  0  0  0  0  0  0  0  0
   -3.6413    3.1314   -0.9035 C   0  0  0  0  0  0  0  0  0  0  0  0
   -4.5955    3.6712   -0.9932 H   0  0  0  0  0  0  0  0  0  0  0  0
   -3.5243    2.0698    0.0081 C   0  0  0  0  0  0  0  0  0  0  0  0
   -4.3692    1.7762    0.6481 H   0  0  0  0  0  0  0  0  0  0  0  0
   -2.3115    1.3732    0.1040 C   0  0  0  0  0  0  0  0  0  0  0  0
   -1.1675    0.9280    2.6373 C   0  0  0  0  0  0  0  0  0  0  0  0
   -0.8611    0.1064    3.3159 H   0  0  0  0  0  0  0  0  0  0  0  0
   -0.2443    1.3343    2.1817 H   0  0  0  0  0  0  0  0  0  0  0  0
   -2.0101    1.9829    3.3333 C   0  0  0  0  0  0  0  0  0  0  0  0
   -1.4184    2.4596    4.1415 H   0  0  0  0  0  0  0  0  0  0  0  0
   -2.3207    2.7823    2.6308 H   0  0  0  0  0  0  0  0  0  0  0  0
   -2.9216    1.5458    3.7876 H   0  0  0  0  0  0  0  0  0  0  0  0
  1 28  1  0  0  0  0
  4  3  1  0  0  0  0
  4 17  1  0  0  0  0
  5  2  1  0  0  0  0
  5  6  1  0  0  0  0
  6  7  1  0  0  0  0
  8  6  2  0  0  0  0
  8  9  1  0  0  0  0
 10  8  1  0  0  0  0
 11 10  1  0  0  0  0
 11 13  1  0  0  0  0
 12 11  1  0  0  0  0
 14 11  1  0  0  0  0
 15 17  1  0  0  0  0
 15 10  2  0  0  0  0
 16 15  1  0  0  0  0
 17  5  2  0  0  0  0
 18  3  1  0  0  0  0
 18 27  1  0  0  0  0
 19 18  2  0  0  0  0
 20 19  1  0  0  0  0
 21 19  1  0  0  0  0
 21 23  2  0  0  0  0
 22 21  1  0  0  0  0
 23 25  1  0  0  0  0
 24 23  1  0  0  0  0
 25 27  2  0  0  0  0
 25 26  1  0  0  0  0
 27  1  1  0  0  0  0
 28 29  1  0  0  0  0
 28 31  1  0  0  0  0
 30 28  1  0  0  0  0
 31 34  1  0  0  0  0
 31 32  1  0  0  0  0
 33 31  1  0  0  0  0
M  CHG  1   2  -1
M  END
