1,2,3
q = -2.0, confidence = 0.97

 35 35  0  0  0  0  0  0  0  0999 V2000
   -3.0906   -1.2212   -0.0262 S   0  0  0  0  0  1  0  0  0  0  0  0
    1.0796   -0.3853   -0.1090 O   0  5  0  0  0  0  0  0  0  0  0  0
   -1.2699    1.0764   -0.1677 N   0  0  0  0  0  2  0  0  0  0  0  0
   -2.5724    1.4754   -0.1613 N   0  0  0  0  0  0  0  0  0  0  0  0
   -4.7793    0.8321   -0.1392 N   0  0  0  0  0  0  0  0  0  0  0  0
    1.7545    0.7608   -0.0892 C   0  0  0  0  0  0  0  0  0  0  0  0
    3.1806    0.7359   -0.0225 C   0  0  0  0  0  0  0  0  0  0  0  0
    3.8371    1.9791   -0.0069 C   0  0  0  0  0  0  0  0  0  0  0  0
    4.9338    1.9999    0.0405 H   0  0  0  0  0  0  0  0  0  0  0  0
    3.1485    3.2074   -0.0475 C   0  0  0  0  0  0  0  0  0  0  0  0
    3.7116    4.1518   -0.0353 H   0  0  0  0  0  0  0  0  0  0  0  0
    1.7593    3.2159   -0.0987 C   0  0  0  0  0  0  0  0  0  0  0  0
    1.2009    4.1645   -0.1245 H   0  0  0  0  0  0  0  0  0  0  0  0
    1.0357    1.9957   -0.1184 C   0  0  0  0  0  0  0  0  0  0  0  0
   -0.4024    2.0680   -0.1420 C   0  0  0  0  0  3  0  0  0  0  0  0
   -0.8499    3.0797   -0.1335 H   0  0  0  0  0  0  0  0  0  0  0  0
   -3.4597    0.5044   -0.1324 C   0  0  0  0  0  0  0  0  0  0  0  0
   -5.2463    2.1966   -0.2757 C   0  0  0  0  0  0  0  0  0  0  0  0
   -4.9818    2.6287   -1.2655 H   0  0  0  0  0  0  0  0  0  0  0  0
   -4.7845    2.8421    0.4979 H   0  0  0  0  0  0  0  0  0  0  0  0
   -6.3451    2.2154   -0.1546 H   0  0  0  0  0  0  0  0  0  0  0  0
    3.9480   -0.5980    0.0326 C   0  0  0  0  0  0  0  0  0  0  0  0
    5.4689   -0.3736    0.1201 C   0  0  0  0  0  0  0  0  0  0  0  0
    5.7562    0.1923    1.0295 H   0  0  0  0  0  0  0  0  0  0  0  0
    5.8633    0.1649   -0.7655 H   0  0  0  0  0  0  0  0  0  0  0  0
    5.9807   -1.3555    0.1649 H   0  0  0  0  0  0  0  0  0  0  0  0
    3.6660   -1.4192   -1.2484 C   0  0  0  0  0  0  0  0  0  0  0  0
    3.9849   -0.8596   -2.1511 H   0  0  0  0  0  0  0  0  0  0  0  0
    2.5941   -1.6651   -1.3549 H   0  0  0  0  0  0  0  0  0  0  0  0
    4.2343   -2.3715   -1.2180 H   0  0  0  0  0  0  0  0  0  0  0  0
    3.5157   -1.3958    1.2865 C   0  0  0  0  0  0  0  0  0  0  0  0
    3.7509   -0.8288    2.2104 H   0  0  0  0  0  0  0  0  0  0  0  0
    4.0644   -2.3592    1.3275 H   0  0  0  0  0  0  0  0  0  0  0  0
    2.4324   -1.6155    1.2816 H   0  0  0  0  0  0  0  0  0  0  0  0
   -5.4408    0.0611   -0.2162 H   0  0  0  0  0  0  0  0  0  0  0  0
  2  6  1  0  0  0  0
  3  4  1  0  0  0  0
  3 15  1  0  0  0  0
  4 17  2  0  0  0  0
  5 17  1  0  0  0  0
  6  7  1  0  0  0  0
  7  8  2  0  0  0  0
  7 22  1  0  0  0  0
  8  9  1  0  0  0  0
 10 11  1  0  0  0  0
 10  8  1  0  0  0  0
 12 10  2  0  0  0  0
 13 12  1  0  0  0  0
 14 12  1  0  0  0  0
 14  6  2  0  0  0  0
 15 16  1  0  0  0  0
 15 14  1  0  0  0  0
 17  1  1  0  0  0  0
 18 21  1  0  0  0  0
 18  5  1  0  0  0  0
 18 20  1  0  0  0  0
 19 18  1  0  0  0  0
 22 23  1  0  0  0  0
 22 31  1  0  0  0  0
 23 26  1  0  0  0  0
 23 24  1  0  0  0  0
 25 23  1  0  0  0  0
 27 30  1  0  0  0  0
 27 22  1  0  0  0  0
 28 27  1  0  0  0  0
 29 27  1  0  0  0  0
 31 33  1  0  0  0  0
 31 32  1  0  0  0  0
 34 31  1  0  0  0  0
 35  5  1  0  0  0  0
M  CHG  1   2  -1
M  END
