1,2,3
q = -1.0, confidence = 0.004

 42 44  0  0  1  0  0  0  0  0999 V2000
   -2.3444    0.2588   -1.4140 S   0  0  0  0  0  0  0  0  0  0  0  0
    0.5060   -2.4784    0.2536 O   0  0  0  0  0  1  0  0  0  0  0  0
    0.5277    0.3546   -0.4253 N   0  0  0  0  0  2  0  0  0  0  0  0
    1.7692   -2.2533    0.4582 C   0  0  2  0  0  3  0  0  0  0  0  0
    2.5456   -3.3908    0.8624 C   0  0  0  0  0  0  0  0  0  0  0  0
    2.0021   -4.3424    0.9464 H   0  0  0  0  0  0  0  0  0  0  0  0
    3.8998   -3.2957    1.1339 C   0  0  0  0  0  0  0  0  0  0  0  0
    4.4550   -4.1956    1.4422 H   0  0  0  0  0  0  0  0  0  0  0  0
    4.5717   -2.0530    1.0181 C   0  0  0  0  0  0  0  0  0  0  0  0
    5.6468   -1.9749    1.2339 H   0  0  0  0  0  0  0  0  0  0  0  0
    3.8546   -0.9331    0.6301 C   0  0  0  0  0  0  0  0  0  0  0  0
    4.3755    0.0300    0.5442 H   0  0  0  0  0  0  0  0  0  0  0  0
    2.4533   -0.9779    0.3327 C   0  0  0  0  0  0  0  0  0  0  0  0
    1.7956    0.2531   -0.0571 C   0  0  0  0  0  0  0  0  0  0  0  0
    2.6194    1.5119   -0.0283 C   0  0  0  0  0  0  0  0  0  0  0  0
    3.3362    1.9216   -1.1707 C   0  0  0  0  0  0  0  0  0  0  0  0
    3.3066    1.2999   -2.0786 H   0  0  0  0  0  0  0  0  0  0  0  0
    4.0874    3.1064   -1.1444 C   0  0  0  0  0  0  0  0  0  0  0  0
    4.6472    3.4178   -2.0393 H   0  0  0  0  0  0  0  0  0  0  0  0
    4.1305    3.8886    0.0210 C   0  0  0  0  0  0  0  0  0  0  0  0
    4.7221    4.8162    0.0409 H   0  0  0  0  0  0  0  0  0  0  0  0
    3.4221    3.4808    1.1626 C   0  0  0  0  0  0  0  0  0  0  0  0
    3.4585    4.0869    2.0805 H   0  0  0  0  0  0  0  0  0  0  0  0
    2.6692    2.2972    1.1401 C   0  0  0  0  0  0  0  0  0  0  0  0
    2.1192    1.9692    2.0353 H   0  0  0  0  0  0  0  0  0  0  0  0
   -0.0654    1.6728   -0.7055 C   0  0  0  0  0  0  0  0  0  0  0  0
    0.7091    2.4086   -1.0027 H   0  0  0  0  0  0  0  0  0  0  0  0
   -0.5423    2.0595    0.2233 H   0  0  0  0  0  0  0  0  0  0  0  0
   -1.1097    1.5707   -1.8017 C   0  0  0  0  0  0  0  0  0  0  0  0
   -0.6645    1.2250   -2.7564 H   0  0  0  0  0  0  0  0  0  0  0  0
   -1.6205    2.5348   -1.9881 H   0  0  0  0  0  0  0  0  0  0  0  0
   -3.2295    0.9661    0.0019 C   0  0  0  0  0  0  0  0  0  0  0  0
   -3.5300    2.3381    0.0712 C   0  0  0  0  0  0  0  0  0  0  0  0
   -3.1970    3.0351   -0.7111 H   0  0  0  0  0  0  0  0  0  0  0  0
   -4.2754    2.8261    1.1563 C   0  0  0  0  0  0  0  0  0  0  0  0
   -4.5014    3.9015    1.2157 H   0  0  0  0  0  0  0  0  0  0  0  0
   -4.7338    1.9506    2.1521 C   0  0  0  0  0  0  0  0  0  0  0  0
   -5.3180    2.3381    3.0000 H   0  0  0  0  0  0  0  0  0  0  0  0
   -4.4471    0.5790    2.0593 C   0  0  0  0  0  0  0  0  0  0  0  0
   -4.8070   -0.1159    2.8329 H   0  0  0  0  0  0  0  0  0  0  0  0
   -3.6936    0.0765    0.9889 C   0  0  0  0  0  0  0  0  0  0  0  0
   -3.4605   -0.9986    0.9023 H   0  0  0  0  0  0  0  0  0  0  0  0
  1 32  1  0  0  0  0
  3 14  1  0  0  0  0
  4  2  1  1  0  0  0
  4  5  1  0  0  0  0
  5  6  1  0  0  0  0
  5  7  2  0  0  0  0
  7  8  1  0  0  0  0
  9  7  1  0  0  0  0
  9 10  1  0  0  0  0
 11  9  2  0  0  0  0
 12 11  1  0  0  0  0
 13  4  1  0  0  0  0
 13 11  1  0  0  0  0
 14 15  1  0  0  0  0
 14 13  2  0  0  0  0
 15 24  1  0  0  0  0
 16 18  1  0  0  0  0
 16 15  2  0  0  0  0
 17 16  1  0  0  0  0
 18 20  2  0  0  0  0
 19 18  1  0  0  0  0
 20 21  1  0  0  0  0
 20 22  1  0  0  0  0
 22 23  1  0  0  0  0
 24 22  2  0  0  0  0
 24 25  1  0  0  0  0
 26  3  1  0  0  0  0
 26 28  1  0  0  0  0
 27 26  1  0  0  0  0
 29  1  1  0  0  0  0
 29 26  1  0  0  0  0
 30 29  1  0  0  0  0
 31 29  1  0  0  0  0
 32 33  2  0  0  0  0
 32 41  1  0  0  0  0
 33 35  1  0  0  0  0
 34 33  1  0  0  0  0
 35 36  1  0  0  0  0
 35 37  2  0  0  0  0
 37 38  1  0  0  0  0
 39 37  1  0  0  0  0
 39 40  1  0  0  0  0
 41 39  2  0  0  0  0
 42 41  1  0  0  0  0
M  END
