1,2,5
q = -1.0, confidence = 0.008

 25 26  0  0  1  0  0  0  0  0999 V2000
   -0.2479    2.2389   -1.6583 S   0  0  0  0  0  1  0  0  0  0  0  0
    0.6045   -0.8647    1.0373 O   0  5  0  0  0  0  0  0  0  0  0  0
    1.8154    3.3657   -2.9656 N   0  0  0  0  0  0  0  0  0  0  0  0
    2.3895    1.6403   -1.5399 N   0  0  0  0  0  2  0  0  0  0  0  0
    1.8669    0.7888   -0.6628 N   0  0  0  0  0  2  0  0  0  0  0  0
    2.7048   -1.9326    1.3736 N   0  0  0  0  0  0  0  0  0  0  0  0
    1.4390    2.4216   -2.0670 C   0  0  2  0  0  3  0  0  0  0  0  0
    2.5974   -0.1868   -0.1010 C   0  0  0  0  0  0  0  0  0  0  0  0
    3.9594   -0.6532   -0.1109 C   0  0  0  0  0  0  0  0  0  0  0  0
    5.1344   -0.2817   -0.7844 C   0  0  0  0  0  0  0  0  0  0  0  0
    6.3143   -1.0007   -0.5291 C   0  0  0  0  0  0  0  0  0  0  0  0
    6.3253   -2.0740    0.3830 C   0  0  0  0  0  0  0  0  0  0  0  0
    5.1580   -2.4641    1.0708 C   0  0  0  0  0  0  0  0  0  0  0  0
    3.9861   -1.7480    0.8208 C   0  0  0  0  0  0  0  0  0  0  0  0
    1.8406   -1.0116    0.8122 C   0  0  0  0  0  0  0  0  0  0  0  0
    2.3231   -2.9380    2.3362 C   0  0  0  0  0  0  0  0  0  0  0  0
    2.7909    3.4083   -3.2566 H   0  0  0  0  0  0  0  0  0  0  0  0
    1.1192    3.9436   -3.4289 H   0  0  0  0  0  0  0  0  0  0  0  0
    5.1750   -3.3024    1.7822 H   0  0  0  0  0  0  0  0  0  0  0  0
    1.2441   -2.8115    2.5445 H   0  0  0  0  0  0  0  0  0  0  0  0
    2.4989   -3.9605    1.9408 H   0  0  0  0  0  0  0  0  0  0  0  0
    2.8903   -2.8210    3.2833 H   0  0  0  0  0  0  0  0  0  0  0  0
    5.1083    0.5577   -1.4928 H   0  0  0  0  0  0  0  0  0  0  0  0
    7.2436   -0.7224   -1.0480 H   0  0  0  0  0  0  0  0  0  0  0  0
    7.2621   -2.6209    0.5672 H   0  0  0  0  0  0  0  0  0  0  0  0
  3  7  1  0  0  0  0
  4  5  1  0  0  0  0
  5  8  1  0  0  0  0
  6 16  1  0  0  0  0
  7  1  1  6  0  0  0
  7  4  1  0  0  0  0
  8 15  2  0  0  0  0
  9  8  1  0  0  0  0
  9 14  1  0  0  0  0
 10 11  1  0  0  0  0
 10  9  2  0  0  0  0
 11 12  2  0  0  0  0
 12 25  1  0  0  0  0
 12 13  1  0  0  0  0
 13 19  1  0  0  0  0
 14 13  2  0  0  0  0
 14  6  1  0  0  0  0
 15  2  1  0  0  0  0
 15  6  1  0  0  0  0
 16 20  1  0  0  0  0
 16 22  1  0  0  0  0
 17  3  1  0  0  0  0
 18  3  1  0  0  0  0
 21 16  1  0  0  0  0
 23 10  1  0  0  0  0
 24 11  1  0  0  0  0
M  CHG  1   2  -1
M  END
