1,7,8
q = -1.0, confidence = 0.01

 25 26  0  0  0  0  0  0  0  0999 V2000
    0.4201    2.3134   -1.5318 S   0  0  0  0  0  1  0  0  0  0  0  0
   -1.2117    2.3256   -2.1546 C   0  0  0  0  0  0  0  0  0  0  0  0
   -1.5325    3.1594   -3.1584 N   0  0  0  0  0  0  0  0  0  0  0  0
   -2.4856    3.1537   -3.5251 H   0  0  0  0  0  0  0  0  0  0  0  0
   -0.8434    3.7966   -3.5550 H   0  0  0  0  0  0  0  0  0  0  0  0
   -2.1912    1.5289   -1.6803 N   0  0  0  0  0  0  0  0  0  0  0  0
   -1.7659    0.7521   -0.7020 N   0  0  0  0  0  2  0  0  0  0  0  0
   -0.6234   -0.7165    1.2462 O   0  5  0  0  0  0  0  0  0  0  0  0
   -1.8348   -0.9113    0.9307 C   0  0  0  0  0  0  0  0  0  0  0  0
   -2.7072   -1.8183    1.4511 N   0  0  0  0  0  0  0  0  0  0  0  0
   -3.9585   -1.6883    0.7876 C   0  0  0  0  0  0  0  0  0  0  0  0
   -3.8818   -0.6567   -0.2009 C   0  0  0  0  0  0  0  0  0  0  0  0
   -2.5315   -0.1559   -0.1118 C   0  0  0  0  0  0  0  0  0  0  0  0
   -5.0017   -0.3473   -0.9869 C   0  0  0  0  0  0  0  0  0  0  0  0
   -6.1863   -1.0736   -0.7744 C   0  0  0  0  0  0  0  0  0  0  0  0
   -6.2468   -2.0847    0.2014 C   0  0  0  0  0  0  0  0  0  0  0  0
   -5.1298   -2.4099    1.0013 C   0  0  0  0  0  0  0  0  0  0  0  0
   -5.1915   -3.2025    1.7601 H   0  0  0  0  0  0  0  0  0  0  0  0
   -7.1852   -2.6393    0.3488 H   0  0  0  0  0  0  0  0  0  0  0  0
   -7.0775   -0.8496   -1.3779 H   0  0  0  0  0  0  0  0  0  0  0  0
   -4.9374    0.4455   -1.7446 H   0  0  0  0  0  0  0  0  0  0  0  0
   -2.4057   -2.7604    2.5098 C   0  0  0  0  0  0  0  0  0  0  0  0
   -3.0691   -2.5920    3.3821 H   0  0  0  0  0  0  0  0  0  0  0  0
   -1.3551   -2.6089    2.8174 H   0  0  0  0  0  0  0  0  0  0  0  0
   -2.5364   -3.8027    2.1548 H   0  0  0  0  0  0  0  0  0  0  0  0
  2  6  2  0  0  0  0
  2  1  1  0  0  0  0
  3  2  1  0  0  0  0
  4  3  1  0  0  0  0
  5  3  1  0  0  0  0
  6  7  1  0  0  0  0
  7 13  1  0  0  0  0
  9  8  1  0  0  0  0
  9 10  1  0  0  0  0
 10 22  1  0  0  0  0
 11 17  1  0  0  0  0
 11 10  1  0  0  0  0
 12 13  1  0  0  0  0
 12 11  2  0  0  0  0
 13  9  2  0  0  0  0
 14 15  2  0  0  0  0
 14 12  1  0  0  0  0
 15 16  1  0  0  0  0
 16 19  1  0  0  0  0
 16 17  2  0  0  0  0
 17 18  1  0  0  0  0
 20 15  1  0  0  0  0
 21 14  1  0  0  0  0
 22 24  1  0  0  0  0
 22 23  1  0  0  0  0
 25 22  1  0  0  0  0
M  CHG  1   8  -1
M  END
