1,2,6
q = -1.0, confidence = 0.044

 33 34  0  0  1  0  0  0  0  0999 V2000
   -0.4320   -0.5466   -2.0061 S   0  0  0  0  0  0  0  0  0  0  0  0
   -2.7482   -1.0514    1.6253 O   0  5  0  0  0  0  0  0  0  0  0  0
   -3.7137    0.3986    3.0624 O   0  0  0  0  0  0  0  0  0  0  0  0
    5.5487   -0.4350    1.1017 O   0  0  0  0  0  0  0  0  0  0  0  0
    5.5393    1.7383    0.4482 O   0  0  0  0  0  0  0  0  0  0  0  0
   -2.1370    0.8697   -0.0747 N   0  0  0  0  0  2  0  0  0  0  0  0
   -3.1130    0.1461    2.0254 C   0  0  0  0  0  0  0  0  0  0  0  0
   -2.7399    1.2740    1.0645 C   0  0  2  0  0  3  0  0  0  0  0  0
   -2.9854    2.6308    1.2929 C   0  0  0  0  0  0  0  0  0  0  0  0
   -2.5803    3.5587    0.3221 C   0  0  0  0  0  0  0  0  0  0  0  0
   -1.9684    3.1099   -0.8633 C   0  0  0  0  0  0  0  0  0  0  0  0
   -1.7657    1.7355   -1.0503 C   0  0  0  0  0  0  0  0  0  0  0  0
   -1.2305    1.0994   -2.3060 C   0  0  0  0  0  0  0  0  0  0  0  0
    1.1474   -0.1176   -1.2410 C   0  0  0  0  0  0  0  0  0  0  0  0
    1.7287    1.1593   -1.3319 C   0  0  0  0  0  0  0  0  0  0  0  0
    2.9850    1.3786   -0.7552 C   0  0  0  0  0  0  0  0  0  0  0  0
    3.6633    0.3361   -0.0979 C   0  0  0  0  0  0  0  0  0  0  0  0
    3.0668   -0.9392   -0.0156 C   0  0  0  0  0  0  0  0  0  0  0  0
    1.8102   -1.1724   -0.5820 C   0  0  0  0  0  0  0  0  0  0  0  0
    4.9997    0.6455    0.4969 C   0  0  0  0  0  0  0  0  0  0  0  0
    6.8304   -0.2157    1.7020 C   0  0  0  0  0  0  0  0  0  0  0  0
   -3.4809    2.9118    2.2337 H   0  0  0  0  0  0  0  0  0  0  0  0
   -2.7421    4.6355    0.4785 H   0  0  0  0  0  0  0  0  0  0  0  0
   -1.6601    3.8207   -1.6436 H   0  0  0  0  0  0  0  0  0  0  0  0
   -2.0732    0.8270   -2.9774 H   0  0  0  0  0  0  0  0  0  0  0  0
   -0.5523    1.7552   -2.8837 H   0  0  0  0  0  0  0  0  0  0  0  0
    1.2199    1.9905   -1.8382 H   0  0  0  0  0  0  0  0  0  0  0  0
    3.4663    2.3666   -0.8015 H   0  0  0  0  0  0  0  0  0  0  0  0
    3.5908   -1.7489    0.5102 H   0  0  0  0  0  0  0  0  0  0  0  0
    1.3142   -2.1530   -0.4817 H   0  0  0  0  0  0  0  0  0  0  0  0
    6.7688    0.5666    2.4852 H   0  0  0  0  0  0  0  0  0  0  0  0
    7.1313   -1.1820    2.1435 H   0  0  0  0  0  0  0  0  0  0  0  0
    7.5692    0.1122    0.9432 H   0  0  0  0  0  0  0  0  0  0  0  0
  1 14  1  0  0  0  0
  2  7  1  0  0  0  0
  4 21  1  0  0  0  0
  5 20  2  0  0  0  0
  6  8  1  0  0  0  0
  7  3  2  0  0  0  0
  8  9  1  0  0  0  0
  8  7  1  6  0  0  0
  9 22  1  0  0  0  0
 10 23  1  0  0  0  0
 10  9  2  0  0  0  0
 11 10  1  0  0  0  0
 12 11  2  0  0  0  0
 12  6  1  0  0  0  0
 13  1  1  0  0  0  0
 13 12  1  0  0  0  0
 14 19  1  0  0  0  0
 15 14  2  0  0  0  0
 15 16  1  0  0  0  0
 16 17  2  0  0  0  0
 17 18  1  0  0  0  0
 17 20  1  0  0  0  0
 18 29  1  0  0  0  0
 19 30  1  0  0  0  0
 19 18  2  0  0  0  0
 20  4  1  0  0  0  0
 21 32  1  0  0  0  0
 21 31  1  0  0  0  0
 24 11  1  0  0  0  0
 25 13  1  0  0  0  0
 26 13  1  0  0  0  0
 27 15  1  0  0  0  0
 28 16  1  0  0  0  0
 33 21  1  0  0  0  0
M  CHG  1   2  -1
M  END
