1,14,25,31,44,46
q = -2.0, confidence = 0.808

 59 62  0  0  0  0  0  0  0  0999 V2000
   -1.3862   -0.3823    1.2824 O   0  5  0  0  0  0  0  0  0  0  0  0
   -2.1292    0.5040    1.8783 C   0  0  0  0  0  0  0  0  0  0  0  0
   -3.1533    0.0302    2.7543 C   0  0  0  0  0  0  0  0  0  0  0  0
   -3.2427   -1.0575    2.8836 H   0  0  0  0  0  0  0  0  0  0  0  0
   -4.0119    0.9127    3.3942 C   0  0  0  0  0  0  0  0  0  0  0  0
   -4.7991    0.5121    4.0515 H   0  0  0  0  0  0  0  0  0  0  0  0
   -3.8992    2.3177    3.2133 C   0  0  0  0  0  0  0  0  0  0  0  0
   -4.5899    3.0006    3.7269 H   0  0  0  0  0  0  0  0  0  0  0  0
   -2.9064    2.8086    2.3861 C   0  0  0  0  0  0  0  0  0  0  0  0
   -2.7948    3.8942    2.2367 H   0  0  0  0  0  0  0  0  0  0  0  0
   -1.9949    1.9347    1.7088 C   0  0  0  0  0  0  0  0  0  0  0  0
   -0.9770    2.5292    0.9212 C   0  0  0  0  0  3  0  0  0  0  0  0
   -1.0058    3.6332    0.8801 H   0  0  0  0  0  0  0  0  0  0  0  0
   -0.0165    1.9251    0.2409 N   0  0  0  0  0  2  0  0  0  0  0  0
    0.9437    2.6778   -0.4729 C   0  0  0  0  0  0  0  0  0  0  0  0
    1.2028    4.0537   -0.2631 C   0  0  0  0  0  0  0  0  0  0  0  0
    0.6567    4.6112    0.5098 H   0  0  0  0  0  0  0  0  0  0  0  0
    2.1783    4.7182   -1.0147 C   0  0  0  0  0  0  0  0  0  0  0  0
    2.3607    5.7868   -0.8280 H   0  0  0  0  0  0  0  0  0  0  0  0
    2.9277    4.0402   -1.9922 C   0  0  0  0  0  0  0  0  0  0  0  0
    3.6877    4.5720   -2.5820 H   0  0  0  0  0  0  0  0  0  0  0  0
    2.6979    2.6755   -2.2083 C   0  0  0  0  0  0  0  0  0  0  0  0
    3.2670    2.1266   -2.9736 H   0  0  0  0  0  0  0  0  0  0  0  0
    1.7327    2.0083   -1.4402 C   0  0  0  0  0  0  0  0  0  0  0  0
    1.3994    0.2680   -1.6675 S   0  0  0  0  0  0  0  0  0  0  0  0
    2.9935   -0.5254   -1.2130 C   0  0  0  0  0  0  0  0  0  0  0  0
    2.6950   -1.5846   -1.0847 H   0  0  0  0  0  0  0  0  0  0  0  0
    3.6277   -0.4853   -2.1208 H   0  0  0  0  0  0  0  0  0  0  0  0
    3.7688    0.0019   -0.0008 C   0  0  0  0  0  0  0  0  0  0  0  0
    4.4368   -0.8246    0.3186 H   0  0  0  0  0  0  0  0  0  0  0  0
   -1.3875    0.3807   -1.2811 O   0  5  0  0  0  0  0  0  0  0  0  0
   -2.1288   -0.5064   -1.8778 C   0  0  0  0  0  0  0  0  0  0  0  0
   -3.1535   -0.0338   -2.7539 C   0  0  0  0  0  0  0  0  0  0  0  0
   -3.2446    1.0538   -2.8824 H   0  0  0  0  0  0  0  0  0  0  0  0
   -4.0104   -0.9174   -3.3945 C   0  0  0  0  0  0  0  0  0  0  0  0
   -4.7980   -0.5177   -4.0518 H   0  0  0  0  0  0  0  0  0  0  0  0
   -3.8954   -2.3223   -3.2144 C   0  0  0  0  0  0  0  0  0  0  0  0
   -4.5848   -3.0060   -3.7286 H   0  0  0  0  0  0  0  0  0  0  0  0
   -2.9020   -2.8121   -2.3872 C   0  0  0  0  0  0  0  0  0  0  0  0
   -2.7887   -3.8975   -2.2384 H   0  0  0  0  0  0  0  0  0  0  0  0
   -1.9922   -1.9370   -1.7091 C   0  0  0  0  0  0  0  0  0  0  0  0
   -0.9737   -2.5303   -0.9214 C   0  0  0  0  0  3  0  0  0  0  0  0
   -1.0009   -3.6343   -0.8807 H   0  0  0  0  0  0  0  0  0  0  0  0
   -0.0142   -1.9251   -0.2406 N   0  0  0  0  0  2  0  0  0  0  0  0
    2.9937    0.5285    1.2119 C   0  0  0  0  0  0  0  0  0  0  0  0
    1.4005   -0.2662    1.6672 S   0  0  0  0  0  0  0  0  0  0  0  0
    1.7354   -2.0061    1.4402 C   0  0  0  0  0  0  0  0  0  0  0  0
    0.9468   -2.6766    0.4733 C   0  0  0  0  0  0  0  0  0  0  0  0
    1.2071   -4.0524    0.2640 C   0  0  0  0  0  0  0  0  0  0  0  0
    0.6614   -4.6108   -0.5085 H   0  0  0  0  0  0  0  0  0  0  0  0
    2.1834   -4.7158    1.0156 C   0  0  0  0  0  0  0  0  0  0  0  0
    2.3667   -5.7842    0.8292 H   0  0  0  0  0  0  0  0  0  0  0  0
    2.9324   -4.0368    1.9926 C   0  0  0  0  0  0  0  0  0  0  0  0
    3.6931   -4.5677    2.5825 H   0  0  0  0  0  0  0  0  0  0  0  0
    2.7014   -2.6722    2.2084 C   0  0  0  0  0  0  0  0  0  0  0  0
    3.2701   -2.1225    2.9734 H   0  0  0  0  0  0  0  0  0  0  0  0
    2.6944    1.5876    1.0837 H   0  0  0  0  0  0  0  0  0  0  0  0
    3.6284    0.4890    2.1194 H   0  0  0  0  0  0  0  0  0  0  0  0
    4.4360    0.8288   -0.3205 H   0  0  0  0  0  0  0  0  0  0  0  0
  1  2  1  0  0  0  0
  2  3  1  0  0  0  0
  3  4  1  0  0  0  0
  3  5  2  0  0  0  0
  5  6  1  0  0  0  0
  7  5  1  0  0  0  0
  7  8  1  0  0  0  0
  9  7  2  0  0  0  0
 10  9  1  0  0  0  0
 11  2  2  0  0  0  0
 11  9  1  0  0  0  0
 12 11  1  0  0  0  0
 13 12  1  0  0  0  0
 14 12  1  0  0  0  0
 15 16  1  0  0  0  0
 15 14  1  0  0  0  0
 16 17  1  0  0  0  0
 18 19  1  0  0  0  0
 18 16  2  0  0  0  0
 20 18  1  0  0  0  0
 21 20  1  0  0  0  0
 22 20  2  0  0  0  0
 22 24  1  0  0  0  0
 23 22  1  0  0  0  0
 24 15  2  0  0  0  0
 25 24  1  0  0  0  0
 25 26  1  0  0  0  0
 26 27  1  0  0  0  0
 26 29  1  0  0  0  0
 28 26  1  0  0  0  0
 29 30  1  0  0  0  0
 29 45  1  0  0  0  0
 32 41  1  0  0  0  0
 32 31  1  0  0  0  0
 33 32  2  0  0  0  0
 34 33  1  0  0  0  0
 35 37  2  0  0  0  0
 35 33  1  0  0  0  0
 36 35  1  0  0  0  0
 37 39  1  0  0  0  0
 38 37  1  0  0  0  0
 39 40  1  0  0  0  0
 39 41  2  0  0  0  0
 41 42  1  0  0  0  0
 42 43  1  0  0  0  0
 42 44  1  0  0  0  0
 44 48  1  0  0  0  0
 45 46  1  0  0  0  0
 45 58  1  0  0  0  0
 47 46  1  0  0  0  0
 47 55  1  0  0  0  0
 48 47  2  0  0  0  0
 49 48  1  0  0  0  0
 49 51  2  0  0  0  0
 50 49  1  0  0  0  0
 51 53  1  0  0  0  0
 52 51  1  0  0  0  0
 53 55  2  0  0  0  0
 53 54  1  0  0  0  0
 55 56  1  0  0  0  0
 57 45  1  0  0  0  0
 59 29  1  0  0  0  0
M  CHG  2   1  -1  31  -1
M  END
