1,2,3,4,5,6
q = -2.0, confidence = 0.86

 48 49  0  0  0  0  0  0  0  0999 V2000
    1.8000   -1.2463   -1.1079 S   0  0  0  0  0  0  0  0  0  0  0  0
   -0.3952   -2.5666    0.8998 S   0  0  0  0  0  0  0  0  0  0  0  0
   -1.3726    0.1599    1.1486 O   0  5  0  0  0  0  0  0  0  0  0  0
    0.3556    1.2005   -0.6908 O   0  5  0  0  0  0  0  0  0  0  0  0
   -1.0786   -0.7997   -1.4834 N   0  0  0  0  0  2  0  0  0  0  0  0
    1.1360   -0.1887    1.6126 N   0  0  0  0  0  2  0  0  0  0  0  0
   -2.4691    0.7059    0.6895 C   0  0  0  0  0  0  0  0  0  0  0  0
   -3.2626    1.4717    1.5927 C   0  0  0  0  0  0  0  0  0  0  0  0
   -2.8920    1.5921    2.6204 H   0  0  0  0  0  0  0  0  0  0  0  0
   -4.4620    2.0448    1.1834 C   0  0  0  0  0  0  0  0  0  0  0  0
   -5.0480    2.6324    1.9069 H   0  0  0  0  0  0  0  0  0  0  0  0
   -4.9366    1.8943   -0.1431 C   0  0  0  0  0  0  0  0  0  0  0  0
   -5.8832    2.3589   -0.4518 H   0  0  0  0  0  0  0  0  0  0  0  0
   -4.1854    1.1538   -1.0430 C   0  0  0  0  0  0  0  0  0  0  0  0
   -4.5336    1.0216   -2.0797 H   0  0  0  0  0  0  0  0  0  0  0  0
   -2.9510    0.5501   -0.6600 C   0  0  0  0  0  0  0  0  0  0  0  0
   -2.2445   -0.2208   -1.6300 C   0  0  0  0  0  3  0  0  0  0  0  0
   -2.7462   -0.3410   -2.6119 H   0  0  0  0  0  0  0  0  0  0  0  0
   -0.5213   -1.5669   -2.5931 C   0  0  0  0  0  0  0  0  0  0  0  0
   -1.0469   -1.3242   -3.5421 H   0  0  0  0  0  0  0  0  0  0  0  0
   -0.6770   -2.6550   -2.4227 H   0  0  0  0  0  0  0  0  0  0  0  0
    0.9644   -1.2661   -2.7396 C   0  0  0  0  0  0  0  0  0  0  0  0
    1.1257   -0.2314   -3.1033 H   0  0  0  0  0  0  0  0  0  0  0  0
    1.4925   -1.9671   -3.4155 H   0  0  0  0  0  0  0  0  0  0  0  0
    1.9366   -3.0170   -0.6208 C   0  0  0  0  0  0  0  0  0  0  0  0
    2.3960   -3.5749   -1.4625 H   0  0  0  0  0  0  0  0  0  0  0  0
    2.6915   -2.9908    0.1912 H   0  0  0  0  0  0  0  0  0  0  0  0
    0.6394   -3.6650   -0.1554 C   0  0  0  0  0  0  0  0  0  0  0  0
    0.8355   -4.5972    0.4140 H   0  0  0  0  0  0  0  0  0  0  0  0
   -0.0215   -3.9383   -0.9999 H   0  0  0  0  0  0  0  0  0  0  0  0
    0.6530   -2.4454    2.4202 C   0  0  0  0  0  0  0  0  0  0  0  0
    0.1664   -3.0376    3.2187 H   0  0  0  0  0  0  0  0  0  0  0  0
    1.6432   -2.8885    2.1965 H   0  0  0  0  0  0  0  0  0  0  0  0
    0.7641   -0.9713    2.7857 C   0  0  0  0  0  0  0  0  0  0  0  0
   -0.2204   -0.5973    3.1402 H   0  0  0  0  0  0  0  0  0  0  0  0
    1.4977   -0.8339    3.6097 H   0  0  0  0  0  0  0  0  0  0  0  0
    1.9859    0.8007    1.7208 C   0  0  0  0  0  3  0  0  0  0  0  0
    2.5447    0.8876    2.6750 H   0  0  0  0  0  0  0  0  0  0  0  0
    2.2427    1.8023    0.7351 C   0  0  0  0  0  0  0  0  0  0  0  0
    3.3156    2.7177    0.9501 C   0  0  0  0  0  0  0  0  0  0  0  0
    3.9502    2.5810    1.8400 H   0  0  0  0  0  0  0  0  0  0  0  0
    3.5624    3.7595    0.0695 C   0  0  0  0  0  0  0  0  0  0  0  0
    4.3956    4.4544    0.2429 H   0  0  0  0  0  0  0  0  0  0  0  0
    2.7137    3.9231   -1.0537 C   0  0  0  0  0  0  0  0  0  0  0  0
    2.8921    4.7543   -1.7533 H   0  0  0  0  0  0  0  0  0  0  0  0
    1.6529    3.0559   -1.2915 C   0  0  0  0  0  0  0  0  0  0  0  0
    0.9849    3.1888   -2.1544 H   0  0  0  0  0  0  0  0  0  0  0  0
    1.3841    1.9648   -0.4131 C   0  0  0  0  0  0  0  0  0  0  0  0
  1 25  1  0  0  0  0
  2 31  1  0  0  0  0
  4 48  1  0  0  0  0
  6 37  1  0  0  0  0
  6 34  1  0  0  0  0
  7  3  1  0  0  0  0
  7  8  1  0  0  0  0
  8  9  1  0  0  0  0
 10  8  2  0  0  0  0
 10 11  1  0  0  0  0
 12 10  1  0  0  0  0
 13 12  1  0  0  0  0
 14 16  1  0  0  0  0
 14 12  2  0  0  0  0
 15 14  1  0  0  0  0
 16  7  2  0  0  0  0
 17  5  1  0  0  0  0
 17 16  1  0  0  0  0
 18 17  1  0  0  0  0
 19 21  1  0  0  0  0
 19  5  1  0  0  0  0
 20 19  1  0  0  0  0
 22 19  1  0  0  0  0
 22  1  1  0  0  0  0
 23 22  1  0  0  0  0
 24 22  1  0  0  0  0
 25 28  1  0  0  0  0
 25 27  1  0  0  0  0
 26 25  1  0  0  0  0
 28 29  1  0  0  0  0
 28  2  1  0  0  0  0
 30 28  1  0  0  0  0
 31 34  1  0  0  0  0
 31 32  1  0  0  0  0
 33 31  1  0  0  0  0
 34 35  1  0  0  0  0
 34 36  1  0  0  0  0
 37 38  1  0  0  0  0
 39 40  1  0  0  0  0
 39 37  1  0  0  0  0
 40 41  1  0  0  0  0
 42 43  1  0  0  0  0
 42 40  2  0  0  0  0
 44 42  1  0  0  0  0
 45 44  1  0  0  0  0
 46 44  2  0  0  0  0
 46 48  1  0  0  0  0
 47 46  1  0  0  0  0
 48 39  2  0  0  0  0
M  CHG  2   3  -1   4  -1
M  END
