1,2
q = 0.0, confidence = 0.706

 40 45  0  0  0  0  0  0  0  0999 V2000
    1.1876    1.6504    0.1362 Si  0  0  0  0  0  3  0  0  0  0  0  0
    1.2079   -1.3919   -0.8486 Si  0  0  0  0  0  3  0  0  0  0  0  0
    2.9563    0.8158    0.2162 C   0  0  0  0  0  0  0  0  0  0  0  0
    2.9699   -0.7473   -0.3112 C   0  0  0  0  0  0  0  0  0  0  0  0
    1.3668    2.9450   -1.2607 C   0  0  0  0  0  0  0  0  0  0  0  0
    0.9735    2.5734   -2.2276 H   0  0  0  0  0  0  0  0  0  0  0  0
    2.4365    3.1959   -1.4029 H   0  0  0  0  0  0  0  0  0  0  0  0
    0.8409    3.8855   -1.0058 H   0  0  0  0  0  0  0  0  0  0  0  0
    1.1052    2.5804    1.7975 C   0  0  0  0  0  0  0  0  0  0  0  0
    1.9384    3.3087    1.8712 H   0  0  0  0  0  0  0  0  0  0  0  0
    1.1939    1.8715    2.6440 H   0  0  0  0  0  0  0  0  0  0  0  0
    0.1529    3.1324    1.9178 H   0  0  0  0  0  0  0  0  0  0  0  0
    1.1131   -1.2882   -2.7499 C   0  0  0  0  0  0  0  0  0  0  0  0
    2.0144   -1.7353   -3.2182 H   0  0  0  0  0  0  0  0  0  0  0  0
    1.0181   -0.2424   -3.1001 H   0  0  0  0  0  0  0  0  0  0  0  0
    0.2237   -1.8477   -3.1083 H   0  0  0  0  0  0  0  0  0  0  0  0
    1.4165   -3.2556   -0.4801 C   0  0  0  0  0  0  0  0  0  0  0  0
    0.5698   -3.8777   -0.8292 H   0  0  0  0  0  0  0  0  0  0  0  0
    1.5883   -3.4602    0.5942 H   0  0  0  0  0  0  0  0  0  0  0  0
    2.3208   -3.5967   -1.0252 H   0  0  0  0  0  0  0  0  0  0  0  0
    3.1289   -0.4394    1.3610 B   0  0  1  0  0  0  0  0  0  0  0  0
    2.1933   -0.6938    2.0810 H   0  0  0  0  0  0  0  0  0  0  0  0
    4.1210   -1.6765    0.5605 B   0  0  1  0  0  0  0  0  0  0  0  0
    3.8877   -2.8365    0.7867 H   0  0  0  0  0  0  0  0  0  0  0  0
    4.4435   -1.1232   -1.0899 B   0  0  0  0  0  0  0  0  0  0  0  0
    4.4154   -1.9000   -2.0151 H   0  0  0  0  0  0  0  0  0  0  0  0
    3.6702    0.4610   -1.2979 B   0  0  2  0  0  0  0  0  0  0  0  0
    3.1000    0.7980   -2.3029 H   0  0  0  0  0  0  0  0  0  0  0  0
    4.0983    1.0448    1.4780 B   0  0  2  0  0  0  0  0  0  0  0  0
    3.8423    1.8320    2.3543 H   0  0  0  0  0  0  0  0  0  0  0  0
    4.8730   -0.5408    1.7020 B   0  0  2  0  0  0  0  0  0  0  0  0
    5.2545   -0.9069    2.7900 H   0  0  0  0  0  0  0  0  0  0  0  0
    5.6989   -0.9596    0.1670 B   0  0  0  0  0  0  0  0  0  0  0  0
    6.6994   -1.6396    0.1386 H   0  0  0  0  0  0  0  0  0  0  0  0
    5.4174    0.3708   -0.9969 B   0  0  0  0  0  2  0  0  0  0  0  0
    6.1974    0.6721   -1.8708 H   0  0  0  0  0  0  0  0  0  0  0  0
    4.4262    1.6024   -0.1686 B   0  0  2  0  0  0  0  0  0  0  0  0
    4.3962    2.7804   -0.4318 H   0  0  0  0  0  0  0  0  0  0  0  0
    5.6864    0.7300    0.7375 B   0  0  1  0  0  0  0  0  0  0  0  0
    6.6780    1.3031    1.1281 H   0  0  0  0  0  0  0  0  0  0  0  0
  1  9  1  0  0  0  0
  1  3  1  0  0  0  0
  2 17  1  0  0  0  0
  2  4  1  0  0  0  0
  3 21  1  0  0  0  0
  4  3  1  0  0  0  0
  4 21  1  0  0  0  0
  5  8  1  0  0  0  0
  5  1  1  0  0  0  0
  6  5  1  0  0  0  0
  7  5  1  0  0  0  0
  9 10  1  0  0  0  0
  9 12  1  0  0  0  0
  9 11  1  0  0  0  0
 13  2  1  0  0  0  0
 14 13  1  0  0  0  0
 15 13  1  0  0  0  0
 16 13  1  0  0  0  0
 17 19  1  0  0  0  0
 18 17  1  0  0  0  0
 20 17  1  0  0  0  0
 21 22  1  1  0  0  0
 23 24  1  1  0  0  0
 23 21  1  0  0  0  0
 23 31  1  0  0  0  0
 25  4  1  0  0  0  0
 25 23  1  0  0  0  0
 26 25  1  0  0  0  0
 27 28  1  6  0  0  0
 27  4  1  0  0  0  0
 27 37  1  0  0  0  0
 27  3  1  0  0  0  0
 29 31  1  0  0  0  0
 29 30  1  1  0  0  0
 31 32  1  1  0  0  0
 33 39  1  0  0  0  0
 34 33  1  0  0  0  0
 35 33  1  0  0  0  0
 36 35  1  0  0  0  0
 37 38  1  6  0  0  0
 37  3  1  0  0  0  0
 37 29  1  0  0  0  0
 39 40  1  1  0  0  0
 39 29  1  0  0  0  0
 39 31  1  0  0  0  0
M  ZBO  2   2   0   4   0
M  END
