1,2
q = 0.0, confidence = 0.876

 32 32  0  0  0  0  0  0  0  0999 V2000
   -1.1872    1.4460   -0.0125 Si  0  0  0  0  0  3  0  0  0  0  0  0
   -0.9726   -1.6878   -0.1291 Si  0  0  0  0  0  3  0  0  0  0  0  0
   -2.8317    0.4756   -0.0465 C   0  0  0  0  0  0  0  0  0  0  0  0
   -4.1138    1.0636    0.0470 C   0  0  0  0  0  0  0  0  0  0  0  0
   -4.2138    2.1566    0.1484 H   0  0  0  0  0  0  0  0  0  0  0  0
   -5.2700    0.2683    0.0267 C   0  0  0  0  0  0  0  0  0  0  0  0
   -6.2640    0.7382    0.0973 H   0  0  0  0  0  0  0  0  0  0  0  0
   -5.1614   -1.1302   -0.0768 C   0  0  0  0  0  0  0  0  0  0  0  0
   -6.0705   -1.7522   -0.0915 H   0  0  0  0  0  0  0  0  0  0  0  0
   -3.8950   -1.7298   -0.1473 C   0  0  0  0  0  0  0  0  0  0  0  0
   -3.8111   -2.8276   -0.2084 H   0  0  0  0  0  0  0  0  0  0  0  0
   -2.7246   -0.9397   -0.1300 C   0  0  0  0  0  0  0  0  0  0  0  0
   -1.2530    2.4669    1.3689 O   0  0  0  0  0  0  0  0  0  0  0  0
   -1.4797    1.9202    2.6490 C   0  0  0  0  0  0  0  0  0  0  0  0
   -2.4654    1.4022    2.7206 H   0  0  0  0  0  0  0  0  0  0  0  0
   -1.4686    2.7386    3.4005 H   0  0  0  0  0  0  0  0  0  0  0  0
   -0.6958    1.1779    2.9379 H   0  0  0  0  0  0  0  0  0  0  0  0
   -1.1140    2.5950   -1.2685 O   0  0  0  0  0  0  0  0  0  0  0  0
   -2.1292    3.5530   -1.4918 C   0  0  0  0  0  0  0  0  0  0  0  0
   -2.3997    4.0996   -0.5593 H   0  0  0  0  0  0  0  0  0  0  0  0
   -3.0556    3.0897   -1.9034 H   0  0  0  0  0  0  0  0  0  0  0  0
   -1.7656    4.2963   -2.2334 H   0  0  0  0  0  0  0  0  0  0  0  0
   -0.8932   -2.8478    1.1218 O   0  0  0  0  0  0  0  0  0  0  0  0
   -1.0579   -2.4200    2.4551 C   0  0  0  0  0  0  0  0  0  0  0  0
   -0.3381   -1.6114    2.7361 H   0  0  0  0  0  0  0  0  0  0  0  0
   -0.8885   -3.2821    3.1350 H   0  0  0  0  0  0  0  0  0  0  0  0
   -2.0840   -2.0272    2.6499 H   0  0  0  0  0  0  0  0  0  0  0  0
   -0.7963   -2.7280   -1.4683 O   0  0  0  0  0  0  0  0  0  0  0  0
   -0.9531   -2.2052   -2.7706 C   0  0  0  0  0  0  0  0  0  0  0  0
   -1.9793   -1.8043   -2.9448 H   0  0  0  0  0  0  0  0  0  0  0  0
   -0.7751   -3.0177   -3.5069 H   0  0  0  0  0  0  0  0  0  0  0  0
   -0.2342   -1.3780   -2.9870 H   0  0  0  0  0  0  0  0  0  0  0  0
  1 13  1  0  0  0  0
  2 23  1  0  0  0  0
  3  1  1  0  0  0  0
  3  4  1  0  0  0  0
  4  5  1  0  0  0  0
  6  4  2  0  0  0  0
  6  7  1  0  0  0  0
  8  6  1  0  0  0  0
  9  8  1  0  0  0  0
 10 12  1  0  0  0  0
 10  8  2  0  0  0  0
 11 10  1  0  0  0  0
 12  2  1  0  0  0  0
 12  3  2  0  0  0  0
 13 14  1  0  0  0  0
 14 15  1  0  0  0  0
 14 17  1  0  0  0  0
 14 16  1  0  0  0  0
 18  1  1  0  0  0  0
 19 18  1  0  0  0  0
 19 20  1  0  0  0  0
 21 19  1  0  0  0  0
 22 19  1  0  0  0  0
 23 24  1  0  0  0  0
 24 27  1  0  0  0  0
 24 25  1  0  0  0  0
 24 26  1  0  0  0  0
 28  2  1  0  0  0  0
 29 28  1  0  0  0  0
 30 29  1  0  0  0  0
 31 29  1  0  0  0  0
 32 29  1  0  0  0  0
M  END
