1,2
q = -1

 23 22  0  0  0  0  0  0  0  0999 V2000
    1.1367   -1.3287   -0.1302 Si  0  5  0  0  0  0  0  0  0  0  0  0
    1.1367    1.3285   -0.1316 Si  0  0  0  0  0  3  0  0  0  0  0  0
    2.2953   -0.0004   -0.7723 O   0  3  1  0  0  0  0  0  0  0  0  0
    3.7221   -0.0005   -0.8554 C   0  0  0  0  0  0  0  0  0  0  0  0
    4.1839    0.0009    0.1536 H   0  0  0  0  0  0  0  0  0  0  0  0
    4.0498    0.9007   -1.4109 H   0  0  0  0  0  0  0  0  0  0  0  0
    4.0498   -0.9032   -1.4084 H   0  0  0  0  0  0  0  0  0  0  0  0
    1.1978   -2.5998   -1.5421 C   0  0  0  0  0  0  0  0  0  0  0  0
    0.5972   -3.4890   -1.2580 H   0  0  0  0  0  0  0  0  0  0  0  0
    2.2352   -2.9457   -1.7346 H   0  0  0  0  0  0  0  0  0  0  0  0
    0.7802   -2.1921   -2.4835 H   0  0  0  0  0  0  0  0  0  0  0  0
    2.1763   -2.0459    1.2838 C   0  0  0  0  0  0  0  0  0  0  0  0
    1.6216   -2.8812    1.7576 H   0  0  0  0  0  0  0  0  0  0  0  0
    2.3550   -1.2899    2.0744 H   0  0  0  0  0  0  0  0  0  0  0  0
    3.1523   -2.4397    0.9323 H   0  0  0  0  0  0  0  0  0  0  0  0
    1.1974    2.5983   -1.5447 C   0  0  0  0  0  0  0  0  0  0  0  0
    0.5968    3.4877   -1.2613 H   0  0  0  0  0  0  0  0  0  0  0  0
    0.7794    2.1897   -2.4857 H   0  0  0  0  0  0  0  0  0  0  0  0
    2.2347    2.9439   -1.7380 H   0  0  0  0  0  0  0  0  0  0  0  0
    2.1763    2.0472    1.2815 C   0  0  0  0  0  0  0  0  0  0  0  0
    1.6217    2.8830    1.7545 H   0  0  0  0  0  0  0  0  0  0  0  0
    3.1523    2.4406    0.9296 H   0  0  0  0  0  0  0  0  0  0  0  0
    2.3551    1.2920    2.0730 H   0  0  0  0  0  0  0  0  0  0  0  0
  1 12  1  0  0  0  0
  1  3  1  0  0  0  0
  2 20  1  0  0  0  0
  3  4  1  1  0  0  0
  3  2  1  0  0  0  0
  4  5  1  0  0  0  0
  6  4  1  0  0  0  0
  7  4  1  0  0  0  0
  8  9  1  0  0  0  0
  8  1  1  0  0  0  0
 10  8  1  0  0  0  0
 11  8  1  0  0  0  0
 12 13  1  0  0  0  0
 12 14  1  0  0  0  0
 15 12  1  0  0  0  0
 16 17  1  0  0  0  0
 16  2  1  0  0  0  0
 18 16  1  0  0  0  0
 19 16  1  0  0  0  0
 20 21  1  0  0  0  0
 20 23  1  0  0  0  0
 22 20  1  0  0  0  0
M  CHG  2   1  -1   3   1
M  ZCH  2   1   0   3   0
M  ZBO  1   2   0
M  END
