1,2
q = nan, confidence = 0.0

 23 22  0  0  0  0  0  0  0  0999 V2000
   -2.7818   -1.4176   -0.7966 Si  0  5  0  0  0  0  0  0  0  0  0  0
   -2.7817    1.4176   -0.7965 Si  0  0  0  0  0  3  0  0  0  0  0  0
   -3.6930    0.0001   -1.6056 O   0  3  2  0  0  0  0  0  0  0  0  0
   -4.8865    0.0002   -2.3941 C   0  0  0  0  0  0  0  0  0  0  0  0
   -2.2691   -2.4215   -2.3188 C   0  0  0  0  0  0  0  0  0  0  0  0
   -4.2043   -2.3265    0.0608 C   0  0  0  0  0  0  0  0  0  0  0  0
   -2.2688    2.4216   -2.3186 C   0  0  0  0  0  0  0  0  0  0  0  0
   -4.2042    2.3266    0.0610 C   0  0  0  0  0  0  0  0  0  0  0  0
   -4.8947    0.9004   -3.0400 H   0  0  0  0  0  0  0  0  0  0  0  0
   -5.7864    0.0019   -1.7450 H   0  0  0  0  0  0  0  0  0  0  0  0
   -4.8964   -0.9016   -3.0376 H   0  0  0  0  0  0  0  0  0  0  0  0
   -3.1427   -2.8257   -2.8711 H   0  0  0  0  0  0  0  0  0  0  0  0
   -1.6398   -3.2811   -2.0115 H   0  0  0  0  0  0  0  0  0  0  0  0
   -1.6613   -1.8034   -3.0087 H   0  0  0  0  0  0  0  0  0  0  0  0
   -3.8299   -3.2698    0.5062 H   0  0  0  0  0  0  0  0  0  0  0  0
   -5.0081   -2.5929   -0.6570 H   0  0  0  0  0  0  0  0  0  0  0  0
   -4.6405   -1.7191    0.8785 H   0  0  0  0  0  0  0  0  0  0  0  0
   -3.1423    2.8266   -2.8706 H   0  0  0  0  0  0  0  0  0  0  0  0
   -1.6388    3.2807   -2.0113 H   0  0  0  0  0  0  0  0  0  0  0  0
   -1.6616    1.8032   -3.0088 H   0  0  0  0  0  0  0  0  0  0  0  0
   -4.6406    1.7191    0.8784 H   0  0  0  0  0  0  0  0  0  0  0  0
   -5.0078    2.5932   -0.6569 H   0  0  0  0  0  0  0  0  0  0  0  0
   -3.8297    3.2698    0.5066 H   0  0  0  0  0  0  0  0  0  0  0  0
  1  6  1  0  0  0  0
  1  3  1  0  0  0  0
  2  8  1  0  0  0  0
  3  4  1  1  0  0  0
  3  2  1  0  0  0  0
  4 10  1  0  0  0  0
  5 13  1  0  0  0  0
  5  1  1  0  0  0  0
  6 15  1  0  0  0  0
  6 17  1  0  0  0  0
  7 19  1  0  0  0  0
  7  2  1  0  0  0  0
  8 23  1  0  0  0  0
  8 21  1  0  0  0  0
  9  4  1  0  0  0  0
 11  4  1  0  0  0  0
 12  5  1  0  0  0  0
 14  5  1  0  0  0  0
 16  6  1  0  0  0  0
 18  7  1  0  0  0  0
 20  7  1  0  0  0  0
 22  8  1  0  0  0  0
M  CHG  2   1  -1   3   1
M  ZCH  2   1   0   3   0
M  ZBO  1   2   0
M  END
