1,2
q = 0.0, confidence = 0.636

 46 48  0  0  0  0  0  0  0  0999 V2000
    0.8774    1.9395    0.8129 Si  0  0  0  0  0  3  0  0  0  0  0  0
    0.8772   -1.9394    0.8132 Si  0  0  0  0  0  3  0  0  0  0  0  0
   -1.3710   -0.0000    0.9018 O   0  0  0  0  0  0  0  0  0  0  0  0
    0.7885    1.7691    2.7026 C   0  0  0  0  0  0  0  0  0  0  0  0
    1.8076    3.5694    0.4976 C   0  0  0  0  0  0  0  0  0  0  0  0
    0.7873   -1.7686    2.7028 C   0  0  0  0  0  0  0  0  0  0  0  0
    1.8076   -3.5692    0.4983 C   0  0  0  0  0  0  0  0  0  0  0  0
   -0.9100    2.2173    0.2130 C   0  0  0  0  0  0  0  0  0  0  0  0
   -1.3674    3.4044   -0.3957 C   0  0  0  0  0  0  0  0  0  0  0  0
   -2.6858    3.5094   -0.8686 C   0  0  0  0  0  0  0  0  0  0  0  0
   -3.5746    2.4291   -0.7451 C   0  0  0  0  0  0  0  0  0  0  0  0
   -3.1694    1.2301   -0.1316 C   0  0  0  0  0  0  0  0  0  0  0  0
   -1.8442    1.1731    0.3370 C   0  0  0  0  0  0  0  0  0  0  0  0
   -0.9101   -2.2173    0.2129 C   0  0  0  0  0  0  0  0  0  0  0  0
   -1.3674   -3.4043   -0.3960 C   0  0  0  0  0  0  0  0  0  0  0  0
   -2.6857   -3.5093   -0.8689 C   0  0  0  0  0  0  0  0  0  0  0  0
   -3.5746   -2.4290   -0.7454 C   0  0  0  0  0  0  0  0  0  0  0  0
   -3.1694   -1.2300   -0.1317 C   0  0  0  0  0  0  0  0  0  0  0  0
   -1.8442   -1.1731    0.3369 C   0  0  0  0  0  0  0  0  0  0  0  0
   -4.0581    0.0000    0.0962 C   0  0  0  0  0  0  0  0  0  0  0  0
   -4.5208   -0.0001    1.5794 C   0  0  0  0  0  0  0  0  0  0  0  0
   -5.2900    0.0001   -0.8167 C   0  0  0  0  0  0  0  0  0  0  0  0
    1.7663    1.5352    3.1667 H   0  0  0  0  0  0  0  0  0  0  0  0
    0.4376    2.7432    3.1030 H   0  0  0  0  0  0  0  0  0  0  0  0
    0.0601    0.9950    3.0040 H   0  0  0  0  0  0  0  0  0  0  0  0
    2.8586    3.4921    0.8427 H   0  0  0  0  0  0  0  0  0  0  0  0
    1.8233    3.8648   -0.5700 H   0  0  0  0  0  0  0  0  0  0  0  0
    1.3237    4.3857    1.0741 H   0  0  0  0  0  0  0  0  0  0  0  0
    1.7642   -1.5323    3.1676 H   0  0  0  0  0  0  0  0  0  0  0  0
    0.0567   -0.9961    3.0034 H   0  0  0  0  0  0  0  0  0  0  0  0
    0.4383   -2.7434    3.1033 H   0  0  0  0  0  0  0  0  0  0  0  0
    1.3237   -4.3855    1.0748 H   0  0  0  0  0  0  0  0  0  0  0  0
    1.8236   -3.8647   -0.5692 H   0  0  0  0  0  0  0  0  0  0  0  0
    2.8586   -3.4918    0.8438 H   0  0  0  0  0  0  0  0  0  0  0  0
   -0.6799    4.2551   -0.5206 H   0  0  0  0  0  0  0  0  0  0  0  0
   -3.0243    4.4401   -1.3483 H   0  0  0  0  0  0  0  0  0  0  0  0
   -4.5987    2.5259   -1.1329 H   0  0  0  0  0  0  0  0  0  0  0  0
   -0.6799   -4.2551   -0.5209 H   0  0  0  0  0  0  0  0  0  0  0  0
   -3.0243   -4.4400   -1.3487 H   0  0  0  0  0  0  0  0  0  0  0  0
   -4.5987   -2.5258   -1.1331 H   0  0  0  0  0  0  0  0  0  0  0  0
   -3.6534   -0.0001    2.2676 H   0  0  0  0  0  0  0  0  0  0  0  0
   -5.1304    0.9014    1.7917 H   0  0  0  0  0  0  0  0  0  0  0  0
   -5.1304   -0.9016    1.7916 H   0  0  0  0  0  0  0  0  0  0  0  0
   -5.9224    0.8880   -0.6221 H   0  0  0  0  0  0  0  0  0  0  0  0
   -5.0062    0.0001   -1.8876 H   0  0  0  0  0  0  0  0  0  0  0  0
   -5.9224   -0.8879   -0.6222 H   0  0  0  0  0  0  0  0  0  0  0  0
  1  4  1  0  0  0  0
  2  6  1  0  0  0  0
  4 25  1  0  0  0  0
  4 24  1  0  0  0  0
  4 23  1  0  0  0  0
  5  1  1  0  0  0  0
  5 26  1  0  0  0  0
  5 28  1  0  0  0  0
  6 30  1  0  0  0  0
  6 31  1  0  0  0  0
  6 29  1  0  0  0  0
  7  2  1  0  0  0  0
  7 34  1  0  0  0  0
  7 32  1  0  0  0  0
  8 13  1  0  0  0  0
  8  1  1  0  0  0  0
  9  8  2  0  0  0  0
 10 11  2  0  0  0  0
 10  9  1  0  0  0  0
 11 12  1  0  0  0  0
 12 20  1  0  0  0  0
 12 13  2  0  0  0  0
 13  3  1  0  0  0  0
 14 19  1  0  0  0  0
 14  2  1  0  0  0  0
 15 14  2  0  0  0  0
 16 17  2  0  0  0  0
 16 15  1  0  0  0  0
 17 18  1  0  0  0  0
 18 20  1  0  0  0  0
 18 19  2  0  0  0  0
 19  3  1  0  0  0  0
 20 21  1  0  0  0  0
 21 43  1  0  0  0  0
 21 42  1  0  0  0  0
 21 41  1  0  0  0  0
 22 46  1  0  0  0  0
 22 44  1  0  0  0  0
 22 20  1  0  0  0  0
 27  5  1  0  0  0  0
 33  7  1  0  0  0  0
 35  9  1  0  0  0  0
 36 10  1  0  0  0  0
 37 11  1  0  0  0  0
 38 15  1  0  0  0  0
 39 16  1  0  0  0  0
 40 17  1  0  0  0  0
 45 22  1  0  0  0  0
M  END
