1,2
q = 0.0, confidence = 0.984

 30 30  0  0  0  0  0  0  0  0999 V2000
    0.9551    1.3126   -0.1348 Si  0  0  0  0  0  3  0  0  0  0  0  0
    0.9087   -1.3257   -0.3342 Si  0  0  0  0  0  3  0  0  0  0  0  0
    2.1391   -0.0389   -0.0730 N   0  0  0  0  0  0  0  0  0  0  0  0
    3.5290   -0.0393   -0.1242 C   0  0  0  0  0  0  0  0  0  0  0  0
    4.2785    1.1581    0.0482 C   0  0  0  0  0  0  0  0  0  0  0  0
    3.7483    2.1036    0.2267 H   0  0  0  0  0  0  0  0  0  0  0  0
    5.6782    1.1554    0.0051 C   0  0  0  0  0  0  0  0  0  0  0  0
    6.2193    2.1051    0.1435 H   0  0  0  0  0  0  0  0  0  0  0  0
    6.3928   -0.0345   -0.2088 C   0  0  0  0  0  0  0  0  0  0  0  0
    7.4924   -0.0329   -0.2416 H   0  0  0  0  0  0  0  0  0  0  0  0
    5.6701   -1.2266   -0.3805 C   0  0  0  0  0  0  0  0  0  0  0  0
    6.2048   -2.1745   -0.5522 H   0  0  0  0  0  0  0  0  0  0  0  0
    4.2708   -1.2330   -0.3409 C   0  0  0  0  0  0  0  0  0  0  0  0
    3.7323   -2.1795   -0.4840 H   0  0  0  0  0  0  0  0  0  0  0  0
    1.3604    2.2757   -1.7400 C   0  0  0  0  0  0  0  0  0  0  0  0
    1.1662    1.6520   -2.6355 H   0  0  0  0  0  0  0  0  0  0  0  0
    2.4404    2.5324   -1.7385 H   0  0  0  0  0  0  0  0  0  0  0  0
    0.7998    3.2275   -1.8465 H   0  0  0  0  0  0  0  0  0  0  0  0
    1.3330    2.5839    1.2677 C   0  0  0  0  0  0  0  0  0  0  0  0
    0.4426    2.8788    1.8561 H   0  0  0  0  0  0  0  0  0  0  0  0
    1.7640    3.5105    0.8331 H   0  0  0  0  0  0  0  0  0  0  0  0
    2.0803    2.1638    1.9691 H   0  0  0  0  0  0  0  0  0  0  0  0
    1.2153   -2.0672   -2.0733 C   0  0  0  0  0  0  0  0  0  0  0  0
    0.4198   -2.7667   -2.4033 H   0  0  0  0  0  0  0  0  0  0  0  0
    2.1780   -2.6167   -2.1202 H   0  0  0  0  0  0  0  0  0  0  0  0
    1.2611   -1.2415   -2.8122 H   0  0  0  0  0  0  0  0  0  0  0  0
    1.2646   -2.7602    0.8905 C   0  0  0  0  0  0  0  0  0  0  0  0
    1.3424   -2.4081    1.9376 H   0  0  0  0  0  0  0  0  0  0  0  0
    2.2350   -3.2330    0.6345 H   0  0  0  0  0  0  0  0  0  0  0  0
    0.4936   -3.5546    0.8480 H   0  0  0  0  0  0  0  0  0  0  0  0
  1  3  1  0  0  0  0
  1 19  1  0  0  0  0
  2  3  1  0  0  0  0
  2 27  1  0  0  0  0
  4  3  1  0  0  0  0
  4  5  1  0  0  0  0
  5  6  1  0  0  0  0
  7  5  2  0  0  0  0
  7  8  1  0  0  0  0
  9  7  1  0  0  0  0
 10  9  1  0  0  0  0
 11 13  1  0  0  0  0
 11  9  2  0  0  0  0
 12 11  1  0  0  0  0
 13  4  2  0  0  0  0
 14 13  1  0  0  0  0
 15 17  1  0  0  0  0
 15  1  1  0  0  0  0
 16 15  1  0  0  0  0
 18 15  1  0  0  0  0
 19 20  1  0  0  0  0
 19 22  1  0  0  0  0
 21 19  1  0  0  0  0
 23  2  1  0  0  0  0
 24 23  1  0  0  0  0
 25 23  1  0  0  0  0
 26 23  1  0  0  0  0
 27 28  1  0  0  0  0
 29 27  1  0  0  0  0
 30 27  1  0  0  0  0
M  END
