1,2
q = 0.0, confidence = 0.758

 19 18  0  0  0  0  0  0  0  0999 V2000
    1.3226   -0.2041   -2.7097 Si  0  0  0  0  0  3  0  0  0  0  0  0
   -1.2581    0.0003   -2.7526 Si  0  0  0  0  0  3  0  0  0  0  0  0
    0.0500   -0.1291   -3.8786 O   0  0  0  0  0  0  0  0  0  0  0  0
    2.5476    1.2044   -3.0455 C   0  0  0  0  0  0  0  0  0  0  0  0
    2.2541   -1.8456   -2.8797 C   0  0  0  0  0  0  0  0  0  0  0  0
   -2.4667   -1.4283   -3.0622 C   0  0  0  0  0  0  0  0  0  0  0  0
   -2.1845    1.6289   -3.0380 C   0  0  0  0  0  0  0  0  0  0  0  0
    3.3682    1.1963   -2.2979 H   0  0  0  0  0  0  0  0  0  0  0  0
    2.0455    2.1912   -2.9970 H   0  0  0  0  0  0  0  0  0  0  0  0
    2.9949    1.0954   -4.0564 H   0  0  0  0  0  0  0  0  0  0  0  0
    3.0584   -1.9144   -2.1175 H   0  0  0  0  0  0  0  0  0  0  0  0
    2.7131   -1.9338   -3.8874 H   0  0  0  0  0  0  0  0  0  0  0  0
    1.5695   -2.7048   -2.7341 H   0  0  0  0  0  0  0  0  0  0  0  0
   -3.3128   -1.3932   -2.3447 H   0  0  0  0  0  0  0  0  0  0  0  0
   -1.9608   -2.4086   -2.9537 H   0  0  0  0  0  0  0  0  0  0  0  0
   -2.8789   -1.3676   -4.0920 H   0  0  0  0  0  0  0  0  0  0  0  0
   -3.0120    1.7385   -2.3060 H   0  0  0  0  0  0  0  0  0  0  0  0
   -2.6114    1.6633   -4.0629 H   0  0  0  0  0  0  0  0  0  0  0  0
   -1.5039    2.4951   -2.9171 H   0  0  0  0  0  0  0  0  0  0  0  0
  3  2  1  0  0  0  0
  3  1  1  0  0  0  0
  4  9  1  0  0  0  0
  4  1  1  0  0  0  0
  4  8  1  0  0  0  0
  5 13  1  0  0  0  0
  5  1  1  0  0  0  0
  5 11  1  0  0  0  0
  6 15  1  0  0  0  0
  6  2  1  0  0  0  0
  6 14  1  0  0  0  0
  7 19  1  0  0  0  0
  7  2  1  0  0  0  0
  7 17  1  0  0  0  0
 10  4  1  0  0  0  0
 12  5  1  0  0  0  0
 16  6  1  0  0  0  0
 18  7  1  0  0  0  0
M  END
