1,2
q = -2, confidence = 1.0

 24 23  0  0  0  0  0  0  0  0999 V2000
   -0.2059    2.2707   -0.8030 Si  0  0  0  0  0  3  0  0  0  0  0  0
    2.3204    0.4308   -0.3671 Si  0  0  0  0  0  3  0  0  0  0  0  0
   -0.8723    3.4893    0.5309 C   0  0  0  0  0  0  0  0  0  0  0  0
   -1.2305    2.6611   -2.3827 C   0  0  0  0  0  0  0  0  0  0  0  0
    1.5350    2.9641   -1.2384 C   0  0  0  0  0  0  0  0  0  0  0  0
    2.5840    2.3314   -0.3191 C   0  0  0  0  0  0  0  0  0  0  0  0
    3.5616   -0.3021    0.9328 C   0  0  0  0  0  0  0  0  0  0  0  0
    3.0895   -0.0810   -2.0518 C   0  0  0  0  0  0  0  0  0  0  0  0
   -1.8959    3.2528    0.8825 H   0  0  0  0  0  0  0  0  0  0  0  0
   -0.2091    3.5156    1.4202 H   0  0  0  0  0  0  0  0  0  0  0  0
   -0.8939    4.5170    0.1087 H   0  0  0  0  0  0  0  0  0  0  0  0
   -1.1566    3.7466   -2.6095 H   0  0  0  0  0  0  0  0  0  0  0  0
   -0.8025    2.1060   -3.2433 H   0  0  0  0  0  0  0  0  0  0  0  0
   -2.3093    2.4113   -2.3328 H   0  0  0  0  0  0  0  0  0  0  0  0
    1.7416    2.6948   -2.2985 H   0  0  0  0  0  0  0  0  0  0  0  0
    1.5243    4.0769   -1.1978 H   0  0  0  0  0  0  0  0  0  0  0  0
    2.4531    2.6856    0.7269 H   0  0  0  0  0  0  0  0  0  0  0  0
    3.6316    2.5821   -0.6043 H   0  0  0  0  0  0  0  0  0  0  0  0
    3.1011   -0.9494    1.7047 H   0  0  0  0  0  0  0  0  0  0  0  0
    4.3481   -0.9029    0.4302 H   0  0  0  0  0  0  0  0  0  0  0  0
    4.0814    0.5273    1.4577 H   0  0  0  0  0  0  0  0  0  0  0  0
    4.1208    0.3258   -2.1295 H   0  0  0  0  0  0  0  0  0  0  0  0
    3.1621   -1.1802   -2.1824 H   0  0  0  0  0  0  0  0  0  0  0  0
    2.4955    0.3182   -2.8986 H   0  0  0  0  0  0  0  0  0  0  0  0
  1  3  1  0  0  0  0
  2  6  1  0  0  0  0
  2  7  1  0  0  0  0
  3  9  1  0  0  0  0
  3 10  1  0  0  0  0
  4 14  1  0  0  0  0
  4  1  1  0  0  0  0
  5 16  1  0  0  0  0
  5  1  1  0  0  0  0
  5  6  1  0  0  0  0
  6 17  1  0  0  0  0
  7 21  1  0  0  0  0
  7 19  1  0  0  0  0
  8  2  1  0  0  0  0
 11  3  1  0  0  0  0
 12  4  1  0  0  0  0
 13  4  1  0  0  0  0
 15  5  1  0  0  0  0
 18  6  1  0  0  0  0
 20  7  1  0  0  0  0
 22  8  1  0  0  0  0
 23  8  1  0  0  0  0
 24  8  1  0  0  0  0
M  END
