1,2
q = -1.0

 29 29  0  0  1  0  0  0  0  0999 V2000
   -0.2214    1.8047    0.3179 Si  0  0  0  0  0  3  0  0  0  0  0  0
   -0.7650   -1.1194    0.8847 Si  0  0  0  0  0  3  0  0  0  0  0  0
   -2.5405   -0.6075    0.2189 N   0  0  0  0  0  0  0  0  0  0  0  0
   -2.0262    1.6055    0.6723 O   0  0  0  0  0  0  0  0  0  0  0  0
    0.1391    2.7738    1.9190 C   0  0  0  0  0  0  0  0  0  0  0  0
   -0.6888    3.4913    2.0951 H   0  0  0  0  0  0  0  0  0  0  0  0
    1.0770    3.3584    1.8295 H   0  0  0  0  0  0  0  0  0  0  0  0
    0.2286    2.1177    2.8062 H   0  0  0  0  0  0  0  0  0  0  0  0
   -0.4183    3.1303   -1.0392 C   0  0  0  0  0  0  0  0  0  0  0  0
   -0.8659    2.6795   -1.9484 H   0  0  0  0  0  0  0  0  0  0  0  0
    0.5727    3.5387   -1.3254 H   0  0  0  0  0  0  0  0  0  0  0  0
   -1.0572    3.9740   -0.7052 H   0  0  0  0  0  0  0  0  0  0  0  0
   -1.0841   -0.8183    2.7455 C   0  0  0  0  0  0  0  0  0  0  0  0
   -1.9224   -1.4377    3.1271 H   0  0  0  0  0  0  0  0  0  0  0  0
   -1.3092    0.2469    2.9478 H   0  0  0  0  0  0  0  0  0  0  0  0
   -0.1744   -1.0824    3.3244 H   0  0  0  0  0  0  0  0  0  0  0  0
   -0.9241   -3.0150    0.6751 C   0  0  0  0  0  0  0  0  0  0  0  0
   -0.0319   -3.4760    1.1415 H   0  0  0  0  0  0  0  0  0  0  0  0
   -0.9242   -3.3189   -0.3915 H   0  0  0  0  0  0  0  0  0  0  0  0
   -1.8101   -3.4510    1.1834 H   0  0  0  0  0  0  0  0  0  0  0  0
   -2.8680    0.7290    0.2145 C   0  0  2  0  0  3  0  0  0  0  0  0
   -4.1414    1.1383   -0.2680 C   0  0  0  0  0  0  0  0  0  0  0  0
   -4.3642    2.2131   -0.2422 H   0  0  0  0  0  0  0  0  0  0  0  0
   -5.0347    0.1985   -0.7631 C   0  0  0  0  0  0  0  0  0  0  0  0
   -6.0170    0.5162   -1.1446 H   0  0  0  0  0  0  0  0  0  0  0  0
   -4.6630   -1.1624   -0.7875 C   0  0  0  0  0  0  0  0  0  0  0  0
   -5.3305   -1.9382   -1.1852 H   0  0  0  0  0  0  0  0  0  0  0  0
   -3.4162   -1.5151   -0.2919 C   0  0  0  0  0  0  0  0  0  0  0  0
   -3.0796   -2.5591   -0.2833 H   0  0  0  0  0  0  0  0  0  0  0  0
  1  4  1  0  0  0  0
  1  5  1  0  0  0  0
  2 13  1  0  0  0  0
  3  2  1  0  0  0  0
  5  6  1  0  0  0  0
  5  8  1  0  0  0  0
  7  5  1  0  0  0  0
  9 12  1  0  0  0  0
  9  1  1  0  0  0  0
 10  9  1  0  0  0  0
 11  9  1  0  0  0  0
 13 15  1  0  0  0  0
 13 14  1  0  0  0  0
 13 16  1  0  0  0  0
 17  2  1  0  0  0  0
 17 18  1  0  0  0  0
 17 20  1  0  0  0  0
 19 17  1  0  0  0  0
 21  3  1  0  0  0  0
 21  4  1  1  0  0  0
 22 23  1  0  0  0  0
 22 21  1  0  0  0  0
 24 22  2  0  0  0  0
 25 24  1  0  0  0  0
 26 24  1  0  0  0  0
 26 28  2  0  0  0  0
 27 26  1  0  0  0  0
 28 29  1  0  0  0  0
 28  3  1  0  0  0  0
M  END
