1,15,27,41,52
q = -1.0

 63 67  0  0  0  0  0  0  0  0999 V2000
   -1.1027   -0.8518    0.0615 P   0  0  1  0  0  0  0  0  0  0  0  0
   -2.7033    0.0567   -0.0222 C   0  0  0  0  0  0  0  0  0  0  0  0
   -3.7817   -0.3263    0.8029 C   0  0  0  0  0  0  0  0  0  0  0  0
   -3.6734   -1.2007    1.4614 H   0  0  0  0  0  0  0  0  0  0  0  0
   -4.9951    0.3729    0.7847 C   0  0  0  0  0  0  0  0  0  0  0  0
   -5.8223    0.0593    1.4391 H   0  0  0  0  0  0  0  0  0  0  0  0
   -5.1419    1.4693   -0.0759 C   0  0  0  0  0  0  0  0  0  0  0  0
   -6.0819    2.0407   -0.0950 H   0  0  0  0  0  0  0  0  0  0  0  0
   -4.0912    1.8270   -0.9303 C   0  0  0  0  0  0  0  0  0  0  0  0
   -4.2226    2.6722   -1.6236 H   0  0  0  0  0  0  0  0  0  0  0  0
   -2.8649    1.1304   -0.9433 C   0  0  0  0  0  0  0  0  0  0  0  0
   -1.8672    1.5186   -2.0248 C   0  0  0  0  0  0  0  0  0  0  0  0
   -1.6634    0.6602   -2.6975 H   0  0  0  0  0  0  0  0  0  0  0  0
   -2.3431    2.3139   -2.6371 H   0  0  0  0  0  0  0  0  0  0  0  0
   -0.5340    1.9925   -1.5414 N   0  0  0  0  0  0  0  0  0  0  0  0
   -0.0424    2.4082   -2.3474 H   0  0  0  0  0  0  0  0  0  0  0  0
   -0.6289    2.9650   -0.4637 C   0  0  0  0  0  0  0  0  0  0  0  0
   -1.2640    4.2062   -0.5772 C   0  0  0  0  0  0  0  0  0  0  0  0
   -1.6867    4.5237   -1.5439 H   0  0  0  0  0  0  0  0  0  0  0  0
   -1.3613    5.0405    0.5486 C   0  0  0  0  0  0  0  0  0  0  0  0
   -1.8548    6.0198    0.4680 H   0  0  0  0  0  0  0  0  0  0  0  0
   -0.8265    4.6106    1.7779 C   0  0  0  0  0  0  0  0  0  0  0  0
   -0.9081    5.2612    2.6624 H   0  0  0  0  0  0  0  0  0  0  0  0
   -0.1835    3.3727    1.8959 C   0  0  0  0  0  0  0  0  0  0  0  0
    0.2499    3.0317    2.8470 H   0  0  0  0  0  0  0  0  0  0  0  0
   -0.0650    2.5316    0.7636 C   0  0  0  0  0  0  0  0  0  0  0  0
    0.5652    1.3682    0.7947 O   0  5  0  0  0  0  0  0  0  0  0  0
   -0.5887   -1.0652    1.8161 C   0  0  0  0  0  0  0  0  0  0  0  0
   -1.2998   -0.5409    2.9088 C   0  0  0  0  0  0  0  0  0  0  0  0
   -2.2503   -0.0147    2.7456 H   0  0  0  0  0  0  0  0  0  0  0  0
   -0.7882   -0.6508    4.2115 C   0  0  0  0  0  0  0  0  0  0  0  0
   -1.3555   -0.2339    5.0572 H   0  0  0  0  0  0  0  0  0  0  0  0
    0.4456   -1.2781    4.4239 C   0  0  0  0  0  0  0  0  0  0  0  0
    0.8573   -1.3649    5.4408 H   0  0  0  0  0  0  0  0  0  0  0  0
    1.1727   -1.7737    3.3303 C   0  0  0  0  0  0  0  0  0  0  0  0
    2.1590   -2.2355    3.4936 H   0  0  0  0  0  0  0  0  0  0  0  0
    0.6864   -1.6701    2.0161 C   0  0  0  0  0  0  0  0  0  0  0  0
    1.5623   -2.1294    0.8551 C   0  0  0  0  0  0  0  0  0  0  0  0
    2.4188   -2.6936    1.2705 H   0  0  0  0  0  0  0  0  0  0  0  0
    1.0043   -2.8398    0.2080 H   0  0  0  0  0  0  0  0  0  0  0  0
    2.0298   -1.0104    0.0267 N   0  0  0  0  0  2  0  0  0  0  0  0
    3.3922   -0.6447    0.0151 C   0  0  0  0  0  0  0  0  0  0  0  0
    4.4834   -1.3484    0.5528 C   0  0  0  0  0  0  0  0  0  0  0  0
    4.3371   -2.3159    1.0549 H   0  0  0  0  0  0  0  0  0  0  0  0
    5.7841   -0.8186    0.4420 C   0  0  0  0  0  0  0  0  0  0  0  0
    6.6322   -1.3772    0.8656 H   0  0  0  0  0  0  0  0  0  0  0  0
    5.9991    0.4088   -0.2018 C   0  0  0  0  0  0  0  0  0  0  0  0
    7.0176    0.8178   -0.2830 H   0  0  0  0  0  0  0  0  0  0  0  0
    4.9159    1.1261   -0.7432 C   0  0  0  0  0  0  0  0  0  0  0  0
    5.0557    2.0938   -1.2467 H   0  0  0  0  0  0  0  0  0  0  0  0
    3.6185    0.6047   -0.6413 C   0  0  0  0  0  0  0  0  0  0  0  0
    2.5332    1.2463   -1.1246 O   0  5  0  0  0  0  0  0  0  0  0  0
   -1.5482   -2.5496   -0.4949 C   0  0  0  0  0  0  0  0  0  0  0  0
   -1.4123   -2.8846   -1.8572 C   0  0  0  0  0  0  0  0  0  0  0  0
   -0.9788   -2.1535   -2.5572 H   0  0  0  0  0  0  0  0  0  0  0  0
   -1.7931   -4.1596   -2.3021 C   0  0  0  0  0  0  0  0  0  0  0  0
   -1.6809   -4.4196   -3.3656 H   0  0  0  0  0  0  0  0  0  0  0  0
   -2.2992   -5.1046   -1.3953 C   0  0  0  0  0  0  0  0  0  0  0  0
   -2.5905   -6.1058   -1.7477 H   0  0  0  0  0  0  0  0  0  0  0  0
   -2.4204   -4.7764   -0.0352 C   0  0  0  0  0  0  0  0  0  0  0  0
   -2.8036   -5.5193    0.6808 H   0  0  0  0  0  0  0  0  0  0  0  0
   -2.0461   -3.5028    0.4177 C   0  0  0  0  0  0  0  0  0  0  0  0
   -2.1221   -3.2532    1.4874 H   0  0  0  0  0  0  0  0  0  0  0  0
  1 53  1  1  0  0  0
  1 28  1  0  0  0  0
  2  1  1  0  0  0  0
  2  3  1  0  0  0  0
  3  4  1  0  0  0  0
  5  3  2  0  0  0  0
  5  6  1  0  0  0  0
  7  5  1  0  0  0  0
  8  7  1  0  0  0  0
  9  7  2  0  0  0  0
 10  9  1  0  0  0  0
 11  9  1  0  0  0  0
 11  2  2  0  0  0  0
 12 15  1  0  0  0  0
 12 11  1  0  0  0  0
 13 12  1  0  0  0  0
 14 12  1  0  0  0  0
 15 17  1  0  0  0  0
 16 15  1  0  0  0  0
 17 26  1  0  0  0  0
 18 17  2  0  0  0  0
 18 20  1  0  0  0  0
 19 18  1  0  0  0  0
 20 22  2  0  0  0  0
 21 20  1  0  0  0  0
 22 24  1  0  0  0  0
 22 23  1  0  0  0  0
 24 25  1  0  0  0  0
 26 27  1  0  0  0  0
 26 24  2  0  0  0  0
 28 37  2  0  0  0  0
 28 29  1  0  0  0  0
 29 31  2  0  0  0  0
 30 29  1  0  0  0  0
 31 33  1  0  0  0  0
 31 32  1  0  0  0  0
 33 34  1  0  0  0  0
 35 36  1  0  0  0  0
 35 33  2  0  0  0  0
 37 35  1  0  0  0  0
 38 39  1  0  0  0  0
 38 37  1  0  0  0  0
 40 38  1  0  0  0  0
 41 38  1  0  0  0  0
 42 41  1  0  0  0  0
 42 43  1  0  0  0  0
 43 44  1  0  0  0  0
 45 43  2  0  0  0  0
 45 46  1  0  0  0  0
 47 45  1  0  0  0  0
 48 47  1  0  0  0  0
 49 51  1  0  0  0  0
 49 47  2  0  0  0  0
 50 49  1  0  0  0  0
 51 42  2  0  0  0  0
 52 51  1  0  0  0  0
 53 62  1  0  0  0  0
 54 53  2  0  0  0  0
 55 54  1  0  0  0  0
 56 54  1  0  0  0  0
 56 58  2  0  0  0  0
 57 56  1  0  0  0  0
 58 60  1  0  0  0  0
 59 58  1  0  0  0  0
 60 62  2  0  0  0  0
 60 61  1  0  0  0  0
 62 63  1  0  0  0  0
M  CHG  2  27  -1  52  -1
M  END
