2,5
q = 0.0, confidence = 0.99

 68 73  0  0  0  0  0  0  0  0999 V2000
    2.1741   -1.4838   -1.6250 C   0  0  0  0  0  0  0  0  0  0  0  0
    1.4557   -0.9171   -0.4609 N   0  0  0  0  0  0  0  0  0  0  0  0
    0.7119    0.3181   -0.8382 C   0  0  0  0  0  0  0  0  0  0  0  0
   -0.5987   -0.0081   -1.5217 C   0  0  0  0  0  0  0  0  0  0  0  0
   -1.4295   -0.9270   -0.6903 N   0  0  0  0  0  0  0  0  0  0  0  0
   -2.4064   -1.6162   -1.5676 C   0  0  0  0  0  0  0  0  0  0  0  0
    2.3625   -0.6705    0.7290 C   0  0  0  0  0  0  0  0  0  0  0  0
    3.4192    0.3889    0.5169 C   0  0  0  0  0  0  0  0  0  0  0  0
    4.6854    0.0272   -0.0339 C   0  0  0  0  0  0  0  0  0  0  0  0
    5.0906   -1.3375   -0.2317 C   0  0  0  0  0  0  0  0  0  0  0  0
    6.3221   -1.6506   -0.7751 C   0  0  0  0  0  0  0  0  0  0  0  0
    7.2315   -0.6242   -1.1685 C   0  0  0  0  0  0  0  0  0  0  0  0
    6.8935    0.7002   -0.9808 C   0  0  0  0  0  0  0  0  0  0  0  0
    5.6347    1.0666   -0.4010 C   0  0  0  0  0  0  0  0  0  0  0  0
    5.3013    2.4142   -0.1824 C   0  0  0  0  0  0  0  0  0  0  0  0
    4.0995    2.7853    0.4450 C   0  0  0  0  0  0  0  0  0  0  0  0
    3.7979    4.1623    0.7078 C   0  0  0  0  0  0  0  0  0  0  0  0
    2.6395    4.5303    1.3614 C   0  0  0  0  0  0  0  0  0  0  0  0
    1.7334    3.5236    1.8096 C   0  0  0  0  0  0  0  0  0  0  0  0
    1.9825    2.1875    1.5552 C   0  0  0  0  0  0  0  0  0  0  0  0
    3.1497    1.7546    0.8358 C   0  0  0  0  0  0  0  0  0  0  0  0
   -2.0898   -0.2563    0.4998 C   0  0  0  0  0  0  0  0  0  0  0  0
   -3.2509    0.6647    0.1914 C   0  0  0  0  0  0  0  0  0  0  0  0
   -3.0374    2.0544   -0.0537 C   0  0  0  0  0  0  0  0  0  0  0  0
   -1.7652    2.7023    0.1075 C   0  0  0  0  0  0  0  0  0  0  0  0
   -1.5877    4.0475   -0.1557 C   0  0  0  0  0  0  0  0  0  0  0  0
   -2.6783    4.8501   -0.6036 C   0  0  0  0  0  0  0  0  0  0  0  0
   -3.9285    4.2829   -0.7434 C   0  0  0  0  0  0  0  0  0  0  0  0
   -4.1528    2.8948   -0.4627 C   0  0  0  0  0  0  0  0  0  0  0  0
   -5.4359    2.3329   -0.5684 C   0  0  0  0  0  0  0  0  0  0  0  0
   -5.6822    0.9865   -0.2498 C   0  0  0  0  0  0  0  0  0  0  0  0
   -7.0087    0.4471   -0.3117 C   0  0  0  0  0  0  0  0  0  0  0  0
   -7.2581   -0.8672    0.0253 C   0  0  0  0  0  0  0  0  0  0  0  0
   -6.1834   -1.7050    0.4465 C   0  0  0  0  0  0  0  0  0  0  0  0
   -4.8876   -1.2270    0.5050 C   0  0  0  0  0  0  0  0  0  0  0  0
   -4.5755    0.1310    0.1513 C   0  0  0  0  0  0  0  0  0  0  0  0
    2.5955   -2.4618   -1.3317 H   0  0  0  0  0  0  0  0  0  0  0  0
    1.4529   -1.6545   -2.4457 H   0  0  0  0  0  0  0  0  0  0  0  0
    2.9753   -0.7991   -1.9761 H   0  0  0  0  0  0  0  0  0  0  0  0
    0.5242    0.8864    0.0875 H   0  0  0  0  0  0  0  0  0  0  0  0
    1.3368    0.9765   -1.4808 H   0  0  0  0  0  0  0  0  0  0  0  0
   -0.4135   -0.5272   -2.4822 H   0  0  0  0  0  0  0  0  0  0  0  0
   -1.1564    0.9237   -1.7613 H   0  0  0  0  0  0  0  0  0  0  0  0
   -2.9491   -2.3741   -0.9786 H   0  0  0  0  0  0  0  0  0  0  0  0
   -3.1116   -0.8885   -2.0222 H   0  0  0  0  0  0  0  0  0  0  0  0
   -1.8460   -2.1406   -2.3635 H   0  0  0  0  0  0  0  0  0  0  0  0
    1.6877   -0.4160    1.5658 H   0  0  0  0  0  0  0  0  0  0  0  0
    2.7781   -1.6616    0.9855 H   0  0  0  0  0  0  0  0  0  0  0  0
    4.4223   -2.1549    0.0714 H   0  0  0  0  0  0  0  0  0  0  0  0
    6.6068   -2.7063   -0.8988 H   0  0  0  0  0  0  0  0  0  0  0  0
    8.2038   -0.8934   -1.6078 H   0  0  0  0  0  0  0  0  0  0  0  0
    7.5911    1.5043   -1.2624 H   0  0  0  0  0  0  0  0  0  0  0  0
    6.0101    3.1994   -0.4904 H   0  0  0  0  0  0  0  0  0  0  0  0
    4.5249    4.9235    0.3844 H   0  0  0  0  0  0  0  0  0  0  0  0
    2.4245    5.5905    1.5616 H   0  0  0  0  0  0  0  0  0  0  0  0
    0.8345    3.8103    2.3764 H   0  0  0  0  0  0  0  0  0  0  0  0
    1.2839    1.4400    1.9560 H   0  0  0  0  0  0  0  0  0  0  0  0
   -1.2880    0.2715    1.0470 H   0  0  0  0  0  0  0  0  0  0  0  0
   -2.3972   -1.0935    1.1514 H   0  0  0  0  0  0  0  0  0  0  0  0
   -0.9051    2.1312    0.4769 H   0  0  0  0  0  0  0  0  0  0  0  0
   -0.5946    4.4991   -0.0084 H   0  0  0  0  0  0  0  0  0  0  0  0
   -2.5226    5.9177   -0.8194 H   0  0  0  0  0  0  0  0  0  0  0  0
   -4.7876    4.8918   -1.0657 H   0  0  0  0  0  0  0  0  0  0  0  0
   -6.2754    2.9699   -0.8901 H   0  0  0  0  0  0  0  0  0  0  0  0
   -7.8271    1.1129   -0.6270 H   0  0  0  0  0  0  0  0  0  0  0  0
   -8.2812   -1.2696   -0.0209 H   0  0  0  0  0  0  0  0  0  0  0  0
   -6.3857   -2.7482    0.7322 H   0  0  0  0  0  0  0  0  0  0  0  0
   -4.0934   -1.9130    0.8343 H   0  0  0  0  0  0  0  0  0  0  0  0
  1 37  1  0  0  0  0
  1  2  1  0  0  0  0
  2  7  1  0  0  0  0
  3  2  1  0  0  0  0
  3 40  1  0  0  0  0
  4  3  1  0  0  0  0
  4  5  1  0  0  0  0
  5 22  1  0  0  0  0
  6 44  1  0  0  0  0
  6  5  1  0  0  0  0
  7 48  1  0  0  0  0
  7 47  1  0  0  0  0
  8  7  1  0  0  0  0
  8 21  1  0  0  0  0
  9  8  2  0  0  0  0
 10  9  1  0  0  0  0
 10 49  1  0  0  0  0
 11 10  2  0  0  0  0
 12 13  2  0  0  0  0
 12 11  1  0  0  0  0
 13 14  1  0  0  0  0
 14 15  2  0  0  0  0
 14  9  1  0  0  0  0
 15 16  1  0  0  0  0
 16 17  2  0  0  0  0
 16 21  1  0  0  0  0
 17 18  1  0  0  0  0
 18 55  1  0  0  0  0
 18 19  2  0  0  0  0
 19 56  1  0  0  0  0
 20 19  1  0  0  0  0
 20 57  1  0  0  0  0
 21 20  2  0  0  0  0
 22 58  1  0  0  0  0
 22 59  1  0  0  0  0
 23 22  1  0  0  0  0
 24 25  1  0  0  0  0
 24 23  2  0  0  0  0
 25 60  1  0  0  0  0
 26 61  1  0  0  0  0
 26 25  2  0  0  0  0
 27 26  1  0  0  0  0
 28 27  2  0  0  0  0
 28 29  1  0  0  0  0
 29 24  1  0  0  0  0
 30 29  2  0  0  0  0
 30 31  1  0  0  0  0
 31 36  1  0  0  0  0
 32 31  2  0  0  0  0
 32 33  1  0  0  0  0
 33 34  2  0  0  0  0
 34 35  1  0  0  0  0
 34 67  1  0  0  0  0
 35 68  1  0  0  0  0
 36 23  1  0  0  0  0
 36 35  2  0  0  0  0
 38  1  1  0  0  0  0
 39  1  1  0  0  0  0
 41  3  1  0  0  0  0
 42  4  1  0  0  0  0
 43  4  1  0  0  0  0
 45  6  1  0  0  0  0
 46  6  1  0  0  0  0
 50 11  1  0  0  0  0
 51 12  1  0  0  0  0
 52 13  1  0  0  0  0
 53 15  1  0  0  0  0
 54 17  1  0  0  0  0
 62 27  1  0  0  0  0
 63 28  1  0  0  0  0
 64 30  1  0  0  0  0
 65 32  1  0  0  0  0
 66 33  1  0  0  0  0
M  END
