1,3
q = 0.0, confidence = 0.934

 14 14  0  0  0  0  0  0  0  0999 V2000
    1.9537    0.9790   -0.7864 N   0  0  0  0  0  2  0  0  0  0  0  0
    1.9395    1.7712   -1.4361 H   0  0  0  0  0  0  0  0  0  0  0  0
    1.9540   -0.9785    0.7864 N   0  0  0  0  0  2  0  0  0  0  0  0
    1.9399   -1.7707    1.4361 H   0  0  0  0  0  0  0  0  0  0  0  0
    3.2179    0.5604   -0.4460 C   0  0  0  0  0  0  0  0  0  0  0  0
    3.2180   -0.5596    0.4461 C   0  0  0  0  0  0  0  0  0  0  0  0
    4.4455   -1.1090    0.8800 C   0  0  0  0  0  0  0  0  0  0  0  0
    4.4403   -1.9723    1.5652 H   0  0  0  0  0  0  0  0  0  0  0  0
    5.6523   -0.5524    0.4393 C   0  0  0  0  0  0  0  0  0  0  0  0
    6.6072   -0.9808    0.7802 H   0  0  0  0  0  0  0  0  0  0  0  0
    5.6522    0.5539   -0.4392 C   0  0  0  0  0  0  0  0  0  0  0  0
    6.6070    0.9825   -0.7801 H   0  0  0  0  0  0  0  0  0  0  0  0
    4.4453    1.1102   -0.8799 C   0  0  0  0  0  0  0  0  0  0  0  0
    4.4399    1.9735   -1.5651 H   0  0  0  0  0  0  0  0  0  0  0  0
  1  5  1  0  0  0  0
  2  1  1  0  0  0  0
  3  4  1  0  0  0  0
  5  6  1  0  0  0  0
  6  3  1  0  0  0  0
  6  7  2  0  0  0  0
  7  8  1  0  0  0  0
  9 10  1  0  0  0  0
  9  7  1  0  0  0  0
 11  9  2  0  0  0  0
 12 11  1  0  0  0  0
 13  5  2  0  0  0  0
 13 11  1  0  0  0  0
 14 13  1  0  0  0  0
M  END
