1,2
q = 0.0, confidence = 0.996

 20 21  0  0  0  0  0  0  0  0999 V2000
    0.9744    1.1697   -0.8063 N   0  0  0  0  0  2  0  0  0  0  0  0
    1.6791   -0.9231    0.4515 N   0  0  0  0  0  2  0  0  0  0  0  0
    2.7081   -0.3312   -0.2276 C   0  0  0  0  0  0  0  0  0  0  0  0
    3.9977   -0.8902   -0.2023 C   0  0  0  0  0  0  0  0  0  0  0  0
    4.8175   -0.4009   -0.7451 H   0  0  0  0  0  0  0  0  0  0  0  0
    4.2216   -2.0676    0.5172 C   0  0  0  0  0  0  0  0  0  0  0  0
    5.2251   -2.5161    0.5483 H   0  0  0  0  0  0  0  0  0  0  0  0
    3.1490   -2.6631    1.2028 C   0  0  0  0  0  0  0  0  0  0  0  0
    3.2824   -3.5844    1.7867 H   0  0  0  0  0  0  0  0  0  0  0  0
    1.8910   -2.0581    1.1552 C   0  0  0  0  0  0  0  0  0  0  0  0
    1.0263   -2.4386    1.7175 H   0  0  0  0  0  0  0  0  0  0  0  0
    2.3065    0.8753   -0.9461 C   0  0  0  0  0  0  0  0  0  0  0  0
    3.1601    1.6744   -1.7239 C   0  0  0  0  0  0  0  0  0  0  0  0
    4.2238    1.4150   -1.8122 H   0  0  0  0  0  0  0  0  0  0  0  0
    2.6451    2.7972   -2.3775 C   0  0  0  0  0  0  0  0  0  0  0  0
    3.2981    3.4382   -2.9867 H   0  0  0  0  0  0  0  0  0  0  0  0
    1.2765    3.0823   -2.2417 C   0  0  0  0  0  0  0  0  0  0  0  0
    0.8199    3.9478   -2.7421 H   0  0  0  0  0  0  0  0  0  0  0  0
    0.4807    2.2480   -1.4543 C   0  0  0  0  0  0  0  0  0  0  0  0
   -0.5923    2.4485   -1.3332 H   0  0  0  0  0  0  0  0  0  0  0  0
  2 10  1  0  0  0  0
  3  4  1  0  0  0  0
  3  2  1  0  0  0  0
  4  6  2  0  0  0  0
  5  4  1  0  0  0  0
  6  7  1  0  0  0  0
  6  8  1  0  0  0  0
  8  9  1  0  0  0  0
 10  8  2  0  0  0  0
 10 11  1  0  0  0  0
 12  1  1  0  0  0  0
 12  3  2  0  0  0  0
 13 12  1  0  0  0  0
 14 13  1  0  0  0  0
 15 17  1  0  0  0  0
 15 13  2  0  0  0  0
 16 15  1  0  0  0  0
 17 19  2  0  0  0  0
 18 17  1  0  0  0  0
 19 20  1  0  0  0  0
 19  1  1  0  0  0  0
M  END
