1,39
q = 0.0, confidence = 0.996

 46 49  0  0  1  0  0  0  0  0999 V2000
   -1.2479    0.7492    0.6043 N   0  0  1  0  0  0  0  0  0  0  0  0
   -2.6637    0.5150    1.0705 C   0  0  1  0  0  0  0  0  0  0  0  0
   -3.0562    1.5191    1.3769 H   0  0  0  0  0  0  0  0  0  0  0  0
   -3.5162    0.0067   -0.0981 C   0  0  0  0  0  0  0  0  0  0  0  0
   -4.5439   -0.1766    0.2763 H   0  0  0  0  0  0  0  0  0  0  0  0
   -3.1136   -0.9731   -0.4384 H   0  0  0  0  0  0  0  0  0  0  0  0
   -3.5299    0.9893   -1.2677 C   0  0  0  0  0  0  0  0  0  0  0  0
   -4.0521    1.9236   -0.9609 H   0  0  0  0  0  0  0  0  0  0  0  0
   -4.0998    0.5693   -2.1212 H   0  0  0  0  0  0  0  0  0  0  0  0
   -2.0972    1.3074   -1.6919 C   0  0  0  0  0  0  0  0  0  0  0  0
   -2.0761    2.1109   -2.4573 H   0  0  0  0  0  0  0  0  0  0  0  0
   -1.6494    0.3983   -2.1453 H   0  0  0  0  0  0  0  0  0  0  0  0
   -1.2463    1.7642   -0.5060 C   0  0  2  0  0  0  0  0  0  0  0  0
   -1.7232    2.6865   -0.0826 H   0  0  0  0  0  0  0  0  0  0  0  0
    0.1855    2.1820   -0.9089 C   0  0  1  0  0  0  0  0  0  0  0  0
    0.0626    2.9308   -1.7193 H   0  0  0  0  0  0  0  0  0  0  0  0
    0.8704    2.8199    0.3020 C   0  0  0  0  0  0  0  0  0  0  0  0
    0.2552    3.6528    0.7020 H   0  0  0  0  0  0  0  0  0  0  0  0
    1.8559    3.2468    0.0284 H   0  0  0  0  0  0  0  0  0  0  0  0
    1.0072    1.7031    1.3409 C   0  0  1  0  0  0  0  0  0  0  0  0
    1.4647    2.0943    2.2740 H   0  0  0  0  0  0  0  0  0  0  0  0
   -0.3923    1.2017    1.7421 C   0  0  0  0  0  0  0  0  0  0  0  0
   -0.2901    0.3473    2.4383 H   0  0  0  0  0  0  0  0  0  0  0  0
   -0.9204    2.0304    2.2733 H   0  0  0  0  0  0  0  0  0  0  0  0
    1.9516    0.5977    0.8215 C   0  0  2  0  0  0  0  0  0  0  0  0
    1.9096   -0.2581    1.5318 H   0  0  0  0  0  0  0  0  0  0  0  0
    3.4165    1.0617    0.7202 C   0  0  0  0  0  0  0  0  0  0  0  0
    3.7489    1.3854    1.7288 H   0  0  0  0  0  0  0  0  0  0  0  0
    3.5002    1.9545    0.0638 H   0  0  0  0  0  0  0  0  0  0  0  0
    4.3259   -0.0468    0.1783 C   0  0  0  0  0  0  0  0  0  0  0  0
    4.3553   -0.8870    0.9069 H   0  0  0  0  0  0  0  0  0  0  0  0
    5.3673    0.3219    0.0755 H   0  0  0  0  0  0  0  0  0  0  0  0
    3.7888   -0.5635   -1.1605 C   0  0  0  0  0  0  0  0  0  0  0  0
    4.3893   -1.4208   -1.5283 H   0  0  0  0  0  0  0  0  0  0  0  0
    3.8721    0.2290   -1.9367 H   0  0  0  0  0  0  0  0  0  0  0  0
    2.3369   -1.0142   -1.0026 C   0  0  0  0  0  0  0  0  0  0  0  0
    2.2870   -1.8571   -0.2789 H   0  0  0  0  0  0  0  0  0  0  0  0
    1.8900   -1.3790   -1.9489 H   0  0  0  0  0  0  0  0  0  0  0  0
    1.4322    0.0404   -0.4664 N   0  0  2  0  0  0  0  0  0  0  0  0
    1.0796    1.0644   -1.4778 C   0  0  0  0  0  0  0  0  0  0  0  0
    1.9933    1.5410   -1.9025 H   0  0  0  0  0  0  0  0  0  0  0  0
    0.5738    0.5280   -2.3070 H   0  0  0  0  0  0  0  0  0  0  0  0
   -2.7489   -0.4268    2.2711 C   0  0  0  0  0  0  0  0  0  0  0  0
   -2.2193   -1.3817    2.0779 H   0  0  0  0  0  0  0  0  0  0  0  0
   -3.8146   -0.6484    2.4736 H   0  0  0  0  0  0  0  0  0  0  0  0
   -2.3218    0.0109    3.1929 H   0  0  0  0  0  0  0  0  0  0  0  0
  1  2  1  0  0  0  0
  1 22  1  1  0  0  0
  2  3  1  1  0  0  0
  2 43  1  0  0  0  0
  4  5  1  0  0  0  0
  4  2  1  0  0  0  0
  6  4  1  0  0  0  0
  7  8  1  0  0  0  0
  7  4  1  0  0  0  0
  9  7  1  0  0  0  0
 10  7  1  0  0  0  0
 10 13  1  0  0  0  0
 11 10  1  0  0  0  0
 12 10  1  0  0  0  0
 13 14  1  1  0  0  0
 13  1  1  0  0  0  0
 15 16  1  6  0  0  0
 15 13  1  0  0  0  0
 15 17  1  0  0  0  0
 17 18  1  0  0  0  0
 17 20  1  0  0  0  0
 19 17  1  0  0  0  0
 20 22  1  0  0  0  0
 20 21  1  1  0  0  0
 22 24  1  0  0  0  0
 22 23  1  0  0  0  0
 25 20  1  0  0  0  0
 25 26  1  1  0  0  0
 27 25  1  0  0  0  0
 27 28  1  0  0  0  0
 29 27  1  0  0  0  0
 30 27  1  0  0  0  0
 30 31  1  0  0  0  0
 32 30  1  0  0  0  0
 33 36  1  0  0  0  0
 33 30  1  0  0  0  0
 34 33  1  0  0  0  0
 35 33  1  0  0  0  0
 36 39  1  0  0  0  0
 36 37  1  0  0  0  0
 38 36  1  0  0  0  0
 39 40  1  6  0  0  0
 39 25  1  0  0  0  0
 40 15  1  0  0  0  0
 41 40  1  0  0  0  0
 42 40  1  0  0  0  0
 43 45  1  0  0  0  0
 43 46  1  0  0  0  0
 44 43  1  0  0  0  0
M  END
