1,2
q = 0.0, confidence = 0.976

 64 65  0  0  0  0  0  0  0  0999 V2000
    1.2963   -0.0306   -0.7029 N   0  0  0  0  0  2  0  0  0  0  0  0
   -1.2976   -0.1191   -0.7216 N   0  0  0  0  0  2  0  0  0  0  0  0
    0.7275   -0.0519   -1.8883 C   0  0  0  0  0  0  0  0  0  0  0  0
    1.3300    0.0074   -2.8110 H   0  0  0  0  0  0  0  0  0  0  0  0
   -0.7103   -0.0965   -1.8981 C   0  0  0  0  0  0  0  0  0  0  0  0
   -1.3016   -0.0700   -2.8295 H   0  0  0  0  0  0  0  0  0  0  0  0
    2.7126    0.0911   -0.5864 C   0  0  0  0  0  0  0  0  0  0  0  0
    3.2283    1.3519   -0.1900 C   0  0  0  0  0  0  0  0  0  0  0  0
    4.6240    1.4788   -0.0995 C   0  0  0  0  0  0  0  0  0  0  0  0
    5.0583    2.4460    0.1923 H   0  0  0  0  0  0  0  0  0  0  0  0
    5.4666    0.3907   -0.3635 C   0  0  0  0  0  0  0  0  0  0  0  0
    6.5577    0.5099   -0.2834 H   0  0  0  0  0  0  0  0  0  0  0  0
    4.9250   -0.8539   -0.7067 C   0  0  0  0  0  0  0  0  0  0  0  0
    5.5950   -1.7102   -0.8739 H   0  0  0  0  0  0  0  0  0  0  0  0
    3.5348   -1.0392   -0.8229 C   0  0  0  0  0  0  0  0  0  0  0  0
    2.2930    2.5242    0.0741 C   0  0  0  0  0  0  0  0  0  0  0  0
    1.3034    2.0922    0.3384 H   0  0  0  0  0  0  0  0  0  0  0  0
    2.0987    3.3695   -1.1978 C   0  0  0  0  0  0  0  0  0  0  0  0
    3.0550    3.8318   -1.5197 H   0  0  0  0  0  0  0  0  0  0  0  0
    1.3671    4.1844   -1.0185 H   0  0  0  0  0  0  0  0  0  0  0  0
    1.7251    2.7575   -2.0447 H   0  0  0  0  0  0  0  0  0  0  0  0
    2.7263    3.3774    1.2712 C   0  0  0  0  0  0  0  0  0  0  0  0
    2.8447    2.7445    2.1722 H   0  0  0  0  0  0  0  0  0  0  0  0
    1.9561    4.1449    1.4886 H   0  0  0  0  0  0  0  0  0  0  0  0
    3.6798    3.9136    1.0844 H   0  0  0  0  0  0  0  0  0  0  0  0
    2.9466   -2.4274   -1.0442 C   0  0  0  0  0  0  0  0  0  0  0  0
    1.8929   -2.3079   -1.3688 H   0  0  0  0  0  0  0  0  0  0  0  0
    3.6691   -3.2263   -2.1375 C   0  0  0  0  0  0  0  0  0  0  0  0
    4.7144   -3.4642   -1.8524 H   0  0  0  0  0  0  0  0  0  0  0  0
    3.6995   -2.6745   -3.0990 H   0  0  0  0  0  0  0  0  0  0  0  0
    3.1541   -4.1929   -2.3104 H   0  0  0  0  0  0  0  0  0  0  0  0
    2.9186   -3.1855    0.2981 C   0  0  0  0  0  0  0  0  0  0  0  0
    2.4065   -4.1632    0.1860 H   0  0  0  0  0  0  0  0  0  0  0  0
    2.3969   -2.5960    1.0784 H   0  0  0  0  0  0  0  0  0  0  0  0
    3.9510   -3.3772    0.6572 H   0  0  0  0  0  0  0  0  0  0  0  0
   -2.7164   -0.0101   -0.6254 C   0  0  0  0  0  0  0  0  0  0  0  0
   -3.3108    1.2705   -0.7868 C   0  0  0  0  0  0  0  0  0  0  0  0
   -4.7101    1.3423   -0.6633 C   0  0  0  0  0  0  0  0  0  0  0  0
   -5.2086    2.3160   -0.7740 H   0  0  0  0  0  0  0  0  0  0  0  0
   -5.4770    0.2022   -0.3896 C   0  0  0  0  0  0  0  0  0  0  0  0
   -6.5706    0.2873   -0.3018 H   0  0  0  0  0  0  0  0  0  0  0  0
   -4.8568   -1.0408   -0.2140 C   0  0  0  0  0  0  0  0  0  0  0  0
   -5.4664   -1.9272    0.0142 H   0  0  0  0  0  0  0  0  0  0  0  0
   -3.4616   -1.1735   -0.3150 C   0  0  0  0  0  0  0  0  0  0  0  0
   -2.4664    2.5296   -0.9598 C   0  0  0  0  0  0  0  0  0  0  0  0
   -1.5246    2.2453   -1.4735 H   0  0  0  0  0  0  0  0  0  0  0  0
   -3.1366    3.6022   -1.8283 C   0  0  0  0  0  0  0  0  0  0  0  0
   -3.4549    3.1987   -2.8108 H   0  0  0  0  0  0  0  0  0  0  0  0
   -2.4328    4.4391   -2.0103 H   0  0  0  0  0  0  0  0  0  0  0  0
   -4.0298    4.0359   -1.3339 H   0  0  0  0  0  0  0  0  0  0  0  0
   -2.0728    3.0913    0.4213 C   0  0  0  0  0  0  0  0  0  0  0  0
   -2.9736    3.4372    0.9688 H   0  0  0  0  0  0  0  0  0  0  0  0
   -1.3826    3.9533    0.3107 H   0  0  0  0  0  0  0  0  0  0  0  0
   -1.5800    2.3244    1.0515 H   0  0  0  0  0  0  0  0  0  0  0  0
   -2.7682   -2.5197   -0.1629 C   0  0  0  0  0  0  0  0  0  0  0  0
   -1.7049   -2.3069    0.0784 H   0  0  0  0  0  0  0  0  0  0  0  0
   -2.8002   -3.2947   -1.4930 C   0  0  0  0  0  0  0  0  0  0  0  0
   -2.2515   -4.2546   -1.4024 H   0  0  0  0  0  0  0  0  0  0  0  0
   -2.3386   -2.7136   -2.3180 H   0  0  0  0  0  0  0  0  0  0  0  0
   -3.8437   -3.5243   -1.7938 H   0  0  0  0  0  0  0  0  0  0  0  0
   -3.3241   -3.3506    0.9992 C   0  0  0  0  0  0  0  0  0  0  0  0
   -3.2662   -2.7747    1.9430 H   0  0  0  0  0  0  0  0  0  0  0  0
   -2.7287   -4.2777    1.1228 H   0  0  0  0  0  0  0  0  0  0  0  0
   -4.3769   -3.6579    0.8304 H   0  0  0  0  0  0  0  0  0  0  0  0
  1  7  1  0  0  0  0
  2 36  1  0  0  0  0
  3  1  1  0  0  0  0
  4  3  1  0  0  0  0
  5  3  2  0  0  0  0
  5  2  1  0  0  0  0
  6  5  1  0  0  0  0
  7  8  1  0  0  0  0
  8  9  2  0  0  0  0
  8 16  1  0  0  0  0
  9 10  1  0  0  0  0
 11 12  1  0  0  0  0
 11  9  1  0  0  0  0
 13 11  2  0  0  0  0
 14 13  1  0  0  0  0
 15 13  1  0  0  0  0
 15  7  2  0  0  0  0
 16 17  1  0  0  0  0
 16 22  1  0  0  0  0
 18 20  1  0  0  0  0
 18 16  1  0  0  0  0
 19 18  1  0  0  0  0
 21 18  1  0  0  0  0
 22 24  1  0  0  0  0
 22 23  1  0  0  0  0
 25 22  1  0  0  0  0
 26 15  1  0  0  0  0
 26 32  1  0  0  0  0
 27 26  1  0  0  0  0
 28 29  1  0  0  0  0
 28 26  1  0  0  0  0
 30 28  1  0  0  0  0
 31 28  1  0  0  0  0
 32 35  1  0  0  0  0
 32 34  1  0  0  0  0
 33 32  1  0  0  0  0
 36 44  1  0  0  0  0
 37 38  1  0  0  0  0
 37 36  2  0  0  0  0
 38 40  2  0  0  0  0
 39 38  1  0  0  0  0
 40 41  1  0  0  0  0
 40 42  1  0  0  0  0
 42 43  1  0  0  0  0
 44 42  2  0  0  0  0
 44 55  1  0  0  0  0
 45 37  1  0  0  0  0
 45 51  1  0  0  0  0
 46 45  1  0  0  0  0
 47 50  1  0  0  0  0
 47 45  1  0  0  0  0
 48 47  1  0  0  0  0
 49 47  1  0  0  0  0
 51 52  1  0  0  0  0
 51 54  1  0  0  0  0
 53 51  1  0  0  0  0
 55 56  1  0  0  0  0
 55 61  1  0  0  0  0
 57 58  1  0  0  0  0
 57 55  1  0  0  0  0
 59 57  1  0  0  0  0
 60 57  1  0  0  0  0
 61 63  1  0  0  0  0
 61 62  1  0  0  0  0
 64 61  1  0  0  0  0
M  END
