1,31
q = 0.0, confidence = 0.998

 58 60  0  0  1  0  0  0  0  0999 V2000
   -0.2136    1.3106    1.0124 N   0  0  0  0  0  2  0  0  0  0  0  0
   -1.3717    1.4065    1.7100 C   0  0  1  0  0  3  0  0  0  0  0  0
   -2.3338    0.2240    1.6910 C   0  0  0  0  0  0  0  0  0  0  0  0
   -1.6130    2.5151    2.5341 C   0  0  0  0  0  0  0  0  0  0  0  0
   -0.6242    3.4974    2.6794 C   0  0  0  0  0  0  0  0  0  0  0  0
    0.6083    3.3136    2.0400 C   0  0  0  0  0  0  0  0  0  0  0  0
    0.7936    2.2001    1.2077 C   0  0  0  0  0  0  0  0  0  0  0  0
    2.1165    1.9232    0.5291 C   0  0  0  0  0  0  0  0  0  0  0  0
    2.4189    0.5005    0.4360 N   0  0  0  0  0  0  0  0  0  0  0  0
    3.5859    0.1317   -0.4344 C   0  0  0  0  0  0  0  0  0  0  0  0
    3.6681   -1.4028   -0.5314 C   0  0  0  0  0  0  0  0  0  0  0  0
    3.3691    0.6823   -1.8537 C   0  0  0  0  0  0  0  0  0  0  0  0
    4.9042    0.6884    0.1481 C   0  0  0  0  0  0  0  0  0  0  0  0
   -2.5735    2.5905    3.0653 H   0  0  0  0  0  0  0  0  0  0  0  0
   -0.8011    4.3810    3.3104 H   0  0  0  0  0  0  0  0  0  0  0  0
    1.4373    4.0223    2.1814 H   0  0  0  0  0  0  0  0  0  0  0  0
    2.8998    2.5202    1.0619 H   0  0  0  0  0  0  0  0  0  0  0  0
    2.0333    2.3261   -0.5028 H   0  0  0  0  0  0  0  0  0  0  0  0
   -3.3241    0.5739    2.0584 H   0  0  0  0  0  0  0  0  0  0  0  0
   -1.9688   -0.4647    2.4855 H   0  0  0  0  0  0  0  0  0  0  0  0
    3.9169   -1.8806    0.4371 H   0  0  0  0  0  0  0  0  0  0  0  0
    2.7127   -1.8200   -0.9097 H   0  0  0  0  0  0  0  0  0  0  0  0
    4.4710   -1.6788   -1.2426 H   0  0  0  0  0  0  0  0  0  0  0  0
    3.4076    1.7887   -1.8925 H   0  0  0  0  0  0  0  0  0  0  0  0
    4.1734    0.3065   -2.5161 H   0  0  0  0  0  0  0  0  0  0  0  0
    2.3915    0.3509   -2.2533 H   0  0  0  0  0  0  0  0  0  0  0  0
    5.0954    0.3127    1.1754 H   0  0  0  0  0  0  0  0  0  0  0  0
    5.7633    0.3778   -0.4793 H   0  0  0  0  0  0  0  0  0  0  0  0
    4.9035    1.7970    0.1803 H   0  0  0  0  0  0  0  0  0  0  0  0
   -2.4190   -0.5007    0.4358 N   0  0  0  0  0  0  0  0  0  0  0  0
    0.2136   -1.3111    1.0120 N   0  0  0  0  0  2  0  0  0  0  0  0
    1.3715   -1.4071    1.7097 C   0  0  1  0  0  3  0  0  0  0  0  0
    2.3337   -0.2246    1.6910 C   0  0  0  0  0  0  0  0  0  0  0  0
    3.3240   -0.5746    2.0582 H   0  0  0  0  0  0  0  0  0  0  0  0
    1.9689    0.4639    2.4857 H   0  0  0  0  0  0  0  0  0  0  0  0
    1.6127   -2.5157    2.5338 C   0  0  0  0  0  0  0  0  0  0  0  0
    0.6239   -3.4979    2.6790 C   0  0  0  0  0  0  0  0  0  0  0  0
   -0.6086   -3.3141    2.0394 C   0  0  0  0  0  0  0  0  0  0  0  0
   -0.7937   -2.2006    1.2072 C   0  0  0  0  0  0  0  0  0  0  0  0
   -2.1165   -1.9235    0.5284 C   0  0  0  0  0  0  0  0  0  0  0  0
   -3.5858   -0.1316   -0.4346 C   0  0  0  0  0  0  0  0  0  0  0  0
   -3.6679    1.4030   -0.5312 C   0  0  0  0  0  0  0  0  0  0  0  0
   -3.9167    1.8805    0.4375 H   0  0  0  0  0  0  0  0  0  0  0  0
   -2.7124    1.8201   -0.9092 H   0  0  0  0  0  0  0  0  0  0  0  0
   -4.4707    1.6792   -1.2423 H   0  0  0  0  0  0  0  0  0  0  0  0
   -3.3690   -0.6817   -1.8540 C   0  0  0  0  0  0  0  0  0  0  0  0
   -3.4076   -1.7882   -1.8931 H   0  0  0  0  0  0  0  0  0  0  0  0
   -4.1733   -0.3057   -2.5163 H   0  0  0  0  0  0  0  0  0  0  0  0
   -2.3914   -0.3504   -2.2534 H   0  0  0  0  0  0  0  0  0  0  0  0
   -4.9043   -0.6884    0.1477 C   0  0  0  0  0  0  0  0  0  0  0  0
   -5.0955   -0.3129    1.1750 H   0  0  0  0  0  0  0  0  0  0  0  0
   -5.7633   -0.3775   -0.4797 H   0  0  0  0  0  0  0  0  0  0  0  0
   -4.9036   -1.7970    0.1796 H   0  0  0  0  0  0  0  0  0  0  0  0
   -2.8998   -2.5208    1.0608 H   0  0  0  0  0  0  0  0  0  0  0  0
   -2.0329   -2.3259   -0.5036 H   0  0  0  0  0  0  0  0  0  0  0  0
   -1.4376   -4.0227    2.1807 H   0  0  0  0  0  0  0  0  0  0  0  0
    0.8006   -4.3816    3.3099 H   0  0  0  0  0  0  0  0  0  0  0  0
    2.5732   -2.5911    3.0652 H   0  0  0  0  0  0  0  0  0  0  0  0
  1  7  1  0  0  0  0
  2  1  1  1  0  0  0
  2  4  1  0  0  0  0
  3  2  1  0  0  0  0
  3 19  1  0  0  0  0
  3 20  1  0  0  0  0
  4  5  2  0  0  0  0
  4 14  1  0  0  0  0
  5 15  1  0  0  0  0
  6 16  1  0  0  0  0
  6  5  1  0  0  0  0
  7  6  2  0  0  0  0
  8 17  1  0  0  0  0
  8  7  1  0  0  0  0
  9  8  1  0  0  0  0
  9 33  1  0  0  0  0
 10 13  1  0  0  0  0
 10  9  1  0  0  0  0
 11 10  1  0  0  0  0
 11 21  1  0  0  0  0
 12 10  1  0  0  0  0
 13 29  1  0  0  0  0
 13 27  1  0  0  0  0
 18  8  1  0  0  0  0
 22 11  1  0  0  0  0
 23 11  1  0  0  0  0
 24 12  1  0  0  0  0
 25 12  1  0  0  0  0
 26 12  1  0  0  0  0
 28 13  1  0  0  0  0
 30 40  1  0  0  0  0
 30  3  1  0  0  0  0
 31 39  1  0  0  0  0
 32 31  1  1  0  0  0
 32 36  1  0  0  0  0
 33 32  1  0  0  0  0
 33 34  1  0  0  0  0
 33 35  1  0  0  0  0
 36 37  2  0  0  0  0
 36 58  1  0  0  0  0
 37 57  1  0  0  0  0
 38 56  1  0  0  0  0
 38 37  1  0  0  0  0
 39 38  2  0  0  0  0
 40 54  1  0  0  0  0
 40 39  1  0  0  0  0
 41 50  1  0  0  0  0
 41 30  1  0  0  0  0
 42 41  1  0  0  0  0
 42 43  1  0  0  0  0
 44 42  1  0  0  0  0
 45 42  1  0  0  0  0
 46 41  1  0  0  0  0
 47 46  1  0  0  0  0
 48 46  1  0  0  0  0
 49 46  1  0  0  0  0
 50 53  1  0  0  0  0
 50 51  1  0  0  0  0
 52 50  1  0  0  0  0
 55 40  1  0  0  0  0
M  END
