3,4
q = 0.0, confidence = 1.0

 24 25  0  0  0  0  0  0  0  0999 V2000
   -4.8834    1.2043   -0.0465 N   0  0  0  0  0  0  0  0  0  0  0  0
   -5.5051    1.9825    0.1621 H   0  0  0  0  0  0  0  0  0  0  0  0
   -1.3184    0.4168   -0.0067 N   0  0  0  0  0  2  0  0  0  0  0  0
    1.3183    0.4169   -0.0071 N   0  0  0  0  0  2  0  0  0  0  0  0
    4.8832    1.2045   -0.0462 N   0  0  0  0  0  0  0  0  0  0  0  0
    5.2569    0.2699    0.1107 H   0  0  0  0  0  0  0  0  0  0  0  0
    2.6505    0.2804   -0.0105 C   0  0  0  0  0  0  0  0  0  0  0  0
    3.0047   -0.7676   -0.0153 H   0  0  0  0  0  0  0  0  0  0  0  0
    2.9359    2.6815    0.0075 C   0  0  0  0  0  0  0  0  0  0  0  0
    3.5696    3.5814    0.0129 H   0  0  0  0  0  0  0  0  0  0  0  0
    1.5479    2.8012    0.0100 C   0  0  0  0  0  0  0  0  0  0  0  0
    1.0889    3.7993    0.0199 H   0  0  0  0  0  0  0  0  0  0  0  0
    3.5271    1.3927   -0.0061 C   0  0  0  0  0  0  0  0  0  0  0  0
   -2.6505    0.2803   -0.0101 C   0  0  0  0  0  0  0  0  0  0  0  0
   -3.0047   -0.7677   -0.0145 H   0  0  0  0  0  0  0  0  0  0  0  0
   -1.5481    2.8012    0.0093 C   0  0  0  0  0  0  0  0  0  0  0  0
   -1.0891    3.7993    0.0187 H   0  0  0  0  0  0  0  0  0  0  0  0
   -3.5272    1.3925   -0.0063 C   0  0  0  0  0  0  0  0  0  0  0  0
   -2.9361    2.6814    0.0068 C   0  0  0  0  0  0  0  0  0  0  0  0
   -3.5698    3.5813    0.0116 H   0  0  0  0  0  0  0  0  0  0  0  0
    0.7309    1.6548    0.0010 C   0  0  0  0  0  0  0  0  0  0  0  0
   -0.7310    1.6548    0.0010 C   0  0  0  0  0  0  0  0  0  0  0  0
   -5.2570    0.2698    0.1112 H   0  0  0  0  0  0  0  0  0  0  0  0
    5.5051    1.9826    0.1622 H   0  0  0  0  0  0  0  0  0  0  0  0
  1 18  1  0  0  0  0
  1 23  1  0  0  0  0
  1  2  1  0  0  0  0
  3 22  1  0  0  0  0
  4 21  1  0  0  0  0
  5 13  1  0  0  0  0
  5  6  1  0  0  0  0
  5 24  1  0  0  0  0
  7  4  1  0  0  0  0
  7 13  2  0  0  0  0
  8  7  1  0  0  0  0
  9 11  2  0  0  0  0
  9 10  1  0  0  0  0
 11 12  1  0  0  0  0
 13  9  1  0  0  0  0
 14  3  1  0  0  0  0
 14 18  2  0  0  0  0
 15 14  1  0  0  0  0
 16 17  1  0  0  0  0
 18 19  1  0  0  0  0
 19 16  2  0  0  0  0
 19 20  1  0  0  0  0
 21 11  1  0  0  0  0
 22 21  2  0  0  0  0
 22 16  1  0  0  0  0
M  END
