1,2
q = 0.0, confidence = 0.994

 38 42  0  0  0  0  0  0  0  0999 V2000
   -0.1007    0.9843   -1.1874 N   0  0  0  0  0  2  0  0  0  0  0  0
    1.7870    1.9073    0.5577 N   0  0  0  0  0  2  0  0  0  0  0  0
   -1.2905    0.3612   -1.3756 C   0  0  0  0  0  0  0  0  0  0  0  0
   -2.5188    0.8281   -0.8038 C   0  0  0  0  0  0  0  0  0  0  0  0
   -2.4930    1.7789   -0.2592 H   0  0  0  0  0  0  0  0  0  0  0  0
   -0.8038    3.3050   -1.6496 C   0  0  0  0  0  0  0  0  0  0  0  0
   -1.5678    2.9589   -2.3609 H   0  0  0  0  0  0  0  0  0  0  0  0
   -0.0140    2.3507   -0.9792 C   0  0  0  0  0  0  0  0  0  0  0  0
   -4.8721    0.3576   -0.1924 N   0  0  0  0  0  0  0  0  0  0  0  0
   -5.0257    1.5194    0.5350 C   0  0  0  0  0  0  0  0  0  0  0  0
   -4.1569    2.1848    0.5741 H   0  0  0  0  0  0  0  0  0  0  0  0
   -3.6536    0.0337   -0.8448 C   0  0  0  0  0  0  0  0  0  0  0  0
   -1.3076   -0.8963   -2.0855 C   0  0  0  0  0  0  0  0  0  0  0  0
   -0.3721   -1.2320   -2.5506 H   0  0  0  0  0  0  0  0  0  0  0  0
   -5.8461   -1.7203   -0.9797 N   0  0  0  0  0  0  0  0  0  0  0  0
   -4.7270   -2.0574   -1.5873 N   0  0  0  0  0  0  0  0  0  0  0  0
   -7.3054    0.9140    1.0857 C   0  0  0  0  0  0  0  0  0  0  0  0
   -8.2556    1.1446    1.5885 H   0  0  0  0  0  0  0  0  0  0  0  0
    0.3941    5.1669   -0.6141 C   0  0  0  0  0  3  0  0  0  0  0  0
    0.5543    6.2463   -0.4775 H   0  0  0  0  0  0  0  0  0  0  0  0
   -7.1551   -0.2528    0.3633 C   0  0  0  0  0  0  0  0  0  0  0  0
   -7.9512   -1.0012    0.2512 H   0  0  0  0  0  0  0  0  0  0  0  0
    1.0219    2.8352   -0.1014 C   0  0  0  0  0  0  0  0  0  0  0  0
    1.2266    4.2462    0.0813 C   0  0  0  0  0  0  0  0  0  0  0  0
    2.2692    4.6452    0.9662 C   0  0  0  0  0  0  0  0  0  0  0  0
    2.4575    5.7181    1.1257 H   0  0  0  0  0  0  0  0  0  0  0  0
    2.7582    2.3145    1.3791 C   0  0  0  0  0  0  0  0  0  0  0  0
    3.3411    1.5215    1.8733 H   0  0  0  0  0  0  0  0  0  0  0  0
   -5.9304   -0.5598   -0.2941 C   0  0  0  0  0  0  0  0  0  0  0  0
   -2.4495   -1.6525   -2.1757 C   0  0  0  0  0  3  0  0  0  0  0  0
   -2.4769   -2.6102   -2.7137 H   0  0  0  0  0  0  0  0  0  0  0  0
   -6.2099    1.8171    1.1702 C   0  0  0  0  0  0  0  0  0  0  0  0
   -6.2876    2.7570    1.7334 H   0  0  0  0  0  0  0  0  0  0  0  0
   -3.6573   -1.2350   -1.5328 C   0  0  0  0  0  0  0  0  0  0  0  0
    3.0316    3.6839    1.6111 C   0  0  0  0  0  0  0  0  0  0  0  0
    3.8432    3.9619    2.2981 H   0  0  0  0  0  0  0  0  0  0  0  0
   -0.5983    4.6902   -1.4639 C   0  0  0  0  0  0  0  0  0  0  0  0
   -1.2297    5.4002   -2.0191 H   0  0  0  0  0  0  0  0  0  0  0  0
  1  8  1  0  0  0  0
  2 27  1  0  0  0  0
  3  1  1  0  0  0  0
  3  4  1  0  0  0  0
  4  5  1  0  0  0  0
  6 37  2  0  0  0  0
  6  8  1  0  0  0  0
  7  6  1  0  0  0  0
  8 23  2  0  0  0  0
  9 10  1  0  0  0  0
 10 11  1  0  0  0  0
 10 32  2  0  0  0  0
 12  4  2  0  0  0  0
 12  9  1  0  0  0  0
 13  3  2  0  0  0  0
 14 13  1  0  0  0  0
 15 29  2  0  0  0  0
 16 34  2  0  0  0  0
 16 15  1  0  0  0  0
 17 32  1  0  0  0  0
 17 18  1  0  0  0  0
 19 20  1  0  0  0  0
 19 24  1  0  0  0  0
 21 17  2  0  0  0  0
 22 21  1  0  0  0  0
 23 24  1  0  0  0  0
 23  2  1  0  0  0  0
 24 25  2  0  0  0  0
 25 26  1  0  0  0  0
 25 35  1  0  0  0  0
 27 35  2  0  0  0  0
 27 28  1  0  0  0  0
 29  9  1  0  0  0  0
 29 21  1  0  0  0  0
 30 13  1  0  0  0  0
 30 34  1  0  0  0  0
 31 30  1  0  0  0  0
 32 33  1  0  0  0  0
 34 12  1  0  0  0  0
 35 36  1  0  0  0  0
 37 19  1  0  0  0  0
 38 37  1  0  0  0  0
M  END
