6,7
q = -1.0, confidence = 0.004

 31 30  0  0  0  0  0  0  0  0999 V2000
    2.8972    1.9604    1.8113 Cl  0  0  0  0  0  0  0  0  0  0  0  0
    3.2602    2.0372   -1.3550 Cl  0  0  0  0  0  0  0  0  0  0  0  0
    2.1120    1.1118    0.0944 P   0  0  0  0  0  4  0  0  0  0  0  0
   -0.4138    2.9458   -0.1194 Si  0  0  0  0  0  0  0  0  0  0  0  0
    3.5413   -1.6439    0.1872 Si  0  0  0  0  0  0  0  0  0  0  0  0
    0.5334    1.4114   -0.0719 N   0  0  0  0  0  2  0  0  0  0  0  0
    2.1676   -0.4842    0.0545 N   0  0  0  0  0  2  0  0  0  0  0  0
    0.7942    4.3935   -0.0756 C   0  0  0  0  0  0  0  0  0  0  0  0
   -1.3789    2.9381   -1.7290 C   0  0  0  0  0  0  0  0  0  0  0  0
   -1.5014    2.9723    1.4142 C   0  0  0  0  0  0  0  0  0  0  0  0
    5.1314   -0.6473    0.3998 C   0  0  0  0  0  0  0  0  0  0  0  0
    3.5895   -2.6245   -1.4138 C   0  0  0  0  0  0  0  0  0  0  0  0
    3.2221   -2.7046    1.7036 C   0  0  0  0  0  0  0  0  0  0  0  0
    1.4207    4.3813    0.8385 H   0  0  0  0  0  0  0  0  0  0  0  0
    1.4670    4.3940   -0.9557 H   0  0  0  0  0  0  0  0  0  0  0  0
    0.2204    5.3434   -0.0827 H   0  0  0  0  0  0  0  0  0  0  0  0
   -2.0724    2.0772   -1.7718 H   0  0  0  0  0  0  0  0  0  0  0  0
   -1.9700    3.8706   -1.8376 H   0  0  0  0  0  0  0  0  0  0  0  0
   -0.6839    2.8584   -2.5888 H   0  0  0  0  0  0  0  0  0  0  0  0
   -2.2132    2.1258    1.4331 H   0  0  0  0  0  0  0  0  0  0  0  0
   -0.8728    2.8995    2.3245 H   0  0  0  0  0  0  0  0  0  0  0  0
   -2.0838    3.9152    1.4645 H   0  0  0  0  0  0  0  0  0  0  0  0
    5.3193    0.0195   -0.4653 H   0  0  0  0  0  0  0  0  0  0  0  0
    5.1085   -0.0256    1.3169 H   0  0  0  0  0  0  0  0  0  0  0  0
    5.9900   -1.3454    0.4837 H   0  0  0  0  0  0  0  0  0  0  0  0
    2.6640   -3.2200   -1.5375 H   0  0  0  0  0  0  0  0  0  0  0  0
    3.6741   -1.9394   -2.2814 H   0  0  0  0  0  0  0  0  0  0  0  0
    4.4575   -3.3155   -1.4257 H   0  0  0  0  0  0  0  0  0  0  0  0
    2.2905   -3.2908    1.5819 H   0  0  0  0  0  0  0  0  0  0  0  0
    4.0625   -3.4085    1.8744 H   0  0  0  0  0  0  0  0  0  0  0  0
    3.1089   -2.0662    2.6028 H   0  0  0  0  0  0  0  0  0  0  0  0
  2  3  1  0  0  0  0
  3  1  1  0  0  0  0
  4  8  1  0  0  0  0
  4  6  1  0  0  0  0
  4 10  1  0  0  0  0
  5 11  1  0  0  0  0
  5 13  1  0  0  0  0
  6  3  1  0  0  0  0
  7  3  1  0  0  0  0
  7  5  1  0  0  0  0
  8 14  1  0  0  0  0
  9  4  1  0  0  0  0
 10 20  1  0  0  0  0
 10 22  1  0  0  0  0
 10 21  1  0  0  0  0
 11 25  1  0  0  0  0
 11 24  1  0  0  0  0
 12  5  1  0  0  0  0
 13 30  1  0  0  0  0
 13 31  1  0  0  0  0
 15  8  1  0  0  0  0
 16  8  1  0  0  0  0
 17  9  1  0  0  0  0
 18  9  1  0  0  0  0
 19  9  1  0  0  0  0
 23 11  1  0  0  0  0
 26 12  1  0  0  0  0
 27 12  1  0  0  0  0
 28 12  1  0  0  0  0
 29 13  1  0  0  0  0
M  END
