1,20
q = 0.0, confidence = 0.982

 35 36  0  0  0  0  0  0  0  0999 V2000
   -1.1900   -0.5738   -0.0826 N   0  0  0  0  0  0  0  0  0  0  0  0
   -0.0000   -1.3848   -0.4494 C   0  0  0  0  0  0  0  0  0  0  0  0
   -0.0001   -2.3778    0.0452 H   0  0  0  0  0  0  0  0  0  0  0  0
    0.0000   -1.5539   -1.5428 H   0  0  0  0  0  0  0  0  0  0  0  0
   -1.8284   -1.0100    1.2075 C   0  0  0  0  0  0  0  0  0  0  0  0
   -2.5234   -0.1969    1.5011 H   0  0  0  0  0  0  0  0  0  0  0  0
   -1.0438   -1.0602    1.9849 H   0  0  0  0  0  0  0  0  0  0  0  0
   -2.5773   -2.3396    1.1055 C   0  0  0  0  0  0  0  0  0  0  0  0
   -3.0333   -2.5511    2.0941 H   0  0  0  0  0  0  0  0  0  0  0  0
   -1.8585   -3.1691    0.9215 H   0  0  0  0  0  0  0  0  0  0  0  0
   -3.6320   -2.3066   -0.0032 C   0  0  0  0  0  0  0  0  0  0  0  0
   -4.1181   -3.2962   -0.1119 H   0  0  0  0  0  0  0  0  0  0  0  0
   -4.4359   -1.5884    0.2701 H   0  0  0  0  0  0  0  0  0  0  0  0
   -2.9846   -1.8694   -1.3195 C   0  0  0  0  0  0  0  0  0  0  0  0
   -3.7412   -1.7434   -2.1205 H   0  0  0  0  0  0  0  0  0  0  0  0
   -2.2836   -2.6541   -1.6823 H   0  0  0  0  0  0  0  0  0  0  0  0
   -2.2407   -0.5444   -1.1558 C   0  0  0  0  0  0  0  0  0  0  0  0
   -1.7568   -0.2388   -2.1026 H   0  0  0  0  0  0  0  0  0  0  0  0
   -2.9492    0.2629   -0.8765 H   0  0  0  0  0  0  0  0  0  0  0  0
    1.1900   -0.5738   -0.0825 N   0  0  0  0  0  0  0  0  0  0  0  0
    1.8283   -1.0101    1.2076 C   0  0  0  0  0  0  0  0  0  0  0  0
    2.5233   -0.1970    1.5012 H   0  0  0  0  0  0  0  0  0  0  0  0
    1.0437   -1.0603    1.9850 H   0  0  0  0  0  0  0  0  0  0  0  0
    2.5771   -2.3397    1.1056 C   0  0  0  0  0  0  0  0  0  0  0  0
    3.0331   -2.5513    2.0943 H   0  0  0  0  0  0  0  0  0  0  0  0
    1.8583   -3.1691    0.9216 H   0  0  0  0  0  0  0  0  0  0  0  0
    3.6319   -2.3068   -0.0031 C   0  0  0  0  0  0  0  0  0  0  0  0
    4.1180   -3.2964   -0.1118 H   0  0  0  0  0  0  0  0  0  0  0  0
    4.4358   -1.5887    0.2703 H   0  0  0  0  0  0  0  0  0  0  0  0
    2.9845   -1.8696   -1.3194 C   0  0  0  0  0  0  0  0  0  0  0  0
    3.7412   -1.7436   -2.1203 H   0  0  0  0  0  0  0  0  0  0  0  0
    2.2835   -2.6542   -1.6822 H   0  0  0  0  0  0  0  0  0  0  0  0
    2.2407   -0.5444   -1.1557 C   0  0  0  0  0  0  0  0  0  0  0  0
    1.7569   -0.2388   -2.1025 H   0  0  0  0  0  0  0  0  0  0  0  0
    2.9492    0.2628   -0.8764 H   0  0  0  0  0  0  0  0  0  0  0  0
  1  5  1  0  0  0  0
  2  1  1  0  0  0  0
  2 20  1  0  0  0  0
  2  3  1  0  0  0  0
  4  2  1  0  0  0  0
  5  6  1  0  0  0  0
  5  7  1  0  0  0  0
  8  5  1  0  0  0  0
  8  9  1  0  0  0  0
 10  8  1  0  0  0  0
 11 13  1  0  0  0  0
 11  8  1  0  0  0  0
 12 11  1  0  0  0  0
 14 17  1  0  0  0  0
 14 11  1  0  0  0  0
 15 14  1  0  0  0  0
 16 14  1  0  0  0  0
 17 19  1  0  0  0  0
 17  1  1  0  0  0  0
 18 17  1  0  0  0  0
 20 21  1  0  0  0  0
 21 22  1  0  0  0  0
 21 23  1  0  0  0  0
 24 21  1  0  0  0  0
 24 25  1  0  0  0  0
 26 24  1  0  0  0  0
 27 29  1  0  0  0  0
 27 24  1  0  0  0  0
 28 27  1  0  0  0  0
 30 33  1  0  0  0  0
 30 27  1  0  0  0  0
 31 30  1  0  0  0  0
 32 30  1  0  0  0  0
 33 35  1  0  0  0  0
 33 20  1  0  0  0  0
 34 33  1  0  0  0  0
M  END
