1,3
q = 0.0, confidence = 0.994

 18 19  0  0  0  0  0  0  0  0999 V2000
    0.4702   -1.3347   -0.0012 N   0  0  0  0  0  2  0  0  0  0  0  0
    2.8555   -1.3962    0.0004 N   0  0  0  0  0  0  0  0  0  0  0  0
    0.4703    1.3347    0.0012 N   0  0  0  0  0  2  0  0  0  0  0  0
    2.8556    1.3961   -0.0004 N   0  0  0  0  0  0  0  0  0  0  0  0
    1.6882   -0.7465   -0.0003 C   0  0  0  0  0  0  0  0  0  0  0  0
    0.4116   -2.6770   -0.0019 C   0  0  0  0  0  0  0  0  0  0  0  0
    1.5845   -3.4397   -0.0014 C   0  0  0  0  0  0  0  0  0  0  0  0
    2.7991   -2.7352   -0.0000 C   0  0  0  0  0  0  0  0  0  0  0  0
    1.6883    0.7464    0.0003 C   0  0  0  0  0  0  0  0  0  0  0  0
    0.4117    2.6770    0.0019 C   0  0  0  0  0  0  0  0  0  0  0  0
    1.5846    3.4396    0.0014 C   0  0  0  0  0  0  0  0  0  0  0  0
    2.7992    2.7351    0.0000 C   0  0  0  0  0  0  0  0  0  0  0  0
   -0.5985   -3.1170   -0.0027 H   0  0  0  0  0  0  0  0  0  0  0  0
    1.5494   -4.5379   -0.0019 H   0  0  0  0  0  0  0  0  0  0  0  0
    3.7654   -3.2695    0.0006 H   0  0  0  0  0  0  0  0  0  0  0  0
   -0.5984    3.1171    0.0027 H   0  0  0  0  0  0  0  0  0  0  0  0
    1.5496    4.5378    0.0019 H   0  0  0  0  0  0  0  0  0  0  0  0
    3.7655    3.2694   -0.0006 H   0  0  0  0  0  0  0  0  0  0  0  0
  1  5  1  0  0  0  0
  3 10  1  0  0  0  0
  4 12  2  0  0  0  0
  4  9  1  0  0  0  0
  5  9  2  0  0  0  0
  5  2  1  0  0  0  0
  6  7  2  0  0  0  0
  6  1  1  0  0  0  0
  7  8  1  0  0  0  0
  8  2  2  0  0  0  0
  8 15  1  0  0  0  0
  9  3  1  0  0  0  0
 10 16  1  0  0  0  0
 11 10  2  0  0  0  0
 11 17  1  0  0  0  0
 12 11  1  0  0  0  0
 13  6  1  0  0  0  0
 14  7  1  0  0  0  0
 18 12  1  0  0  0  0
M  END
