1,3
q = 0.0, confidence = 0.99

 21 21  0  0  1  0  0  0  0  0999 V2000
    0.6977    0.6464   -0.0427 N   0  0  0  0  0  2  0  0  0  0  0  0
    1.7412   -0.2593   -0.0368 N   0  0  0  0  0  0  0  0  0  0  0  0
    0.0826   -1.7944    0.0603 N   0  0  0  0  0  2  0  0  0  0  0  0
    1.3660   -1.6054    0.0215 C   0  0  2  0  0  3  0  0  0  0  0  0
    2.3931   -2.6887    0.0536 C   0  0  0  0  0  0  0  0  0  0  0  0
    1.8919   -3.6729    0.0831 H   0  0  0  0  0  0  0  0  0  0  0  0
    3.0419   -2.6030    0.9470 H   0  0  0  0  0  0  0  0  0  0  0  0
    3.0438   -2.6555   -0.8415 H   0  0  0  0  0  0  0  0  0  0  0  0
    1.2486    1.8715   -0.0033 C   0  0  2  0  0  3  0  0  0  0  0  0
    2.6665    1.7492    0.0102 C   0  0  0  0  0  0  0  0  0  0  0  0
    3.3904    2.5702    0.0378 H   0  0  0  0  0  0  0  0  0  0  0  0
    2.9700    0.3966   -0.0076 C   0  0  0  0  0  0  0  0  0  0  0  0
    0.4457    3.1270    0.0473 C   0  0  0  0  0  0  0  0  0  0  0  0
   -0.1638    3.2675   -0.8672 H   0  0  0  0  0  0  0  0  0  0  0  0
    1.1124    4.0018    0.1491 H   0  0  0  0  0  0  0  0  0  0  0  0
   -0.2523    3.1197    0.9078 H   0  0  0  0  0  0  0  0  0  0  0  0
    4.3123   -0.2512   -0.0011 C   0  0  0  0  0  0  0  0  0  0  0  0
    5.0843    0.5391   -0.0081 H   0  0  0  0  0  0  0  0  0  0  0  0
    4.4799   -0.8908   -0.8902 H   0  0  0  0  0  0  0  0  0  0  0  0
    4.4797   -0.8712    0.9021 H   0  0  0  0  0  0  0  0  0  0  0  0
   -0.1946   -2.7803    0.1254 H   0  0  0  0  0  0  0  0  0  0  0  0
  1  2  1  0  0  0  0
  1  9  1  0  0  0  0
  2 12  1  0  0  0  0
  2  4  1  0  0  0  0
  3 21  1  0  0  0  0
  4  5  1  0  0  0  0
  4  3  1  1  0  0  0
  5  6  1  0  0  0  0
  5  7  1  0  0  0  0
  8  5  1  0  0  0  0
  9 10  1  0  0  0  0
  9 13  1  1  0  0  0
 10 11  1  0  0  0  0
 12 17  1  0  0  0  0
 12 10  2  0  0  0  0
 13 15  1  0  0  0  0
 13 16  1  0  0  0  0
 14 13  1  0  0  0  0
 17 20  1  0  0  0  0
 18 17  1  0  0  0  0
 19 17  1  0  0  0  0
M  END
