2,3
q = 0.0, confidence = 0.996

 23 25  0  0  1  0  0  0  0  0999 V2000
    1.6974    3.0870    0.1933 O   0  0  0  0  0  0  0  0  0  0  0  0
    2.4462   -0.4525    0.1426 N   0  0  0  0  0  2  0  0  0  0  0  0
    0.4240    1.2179   -0.0137 N   0  0  0  0  0  2  0  0  0  0  0  0
    3.4063   -1.3884    0.2566 C   0  0  0  0  0  3  0  0  0  0  0  0
    3.0563   -2.4293    0.1753 H   0  0  0  0  0  0  0  0  0  0  0  0
    4.7502   -1.0558    0.4536 C   0  0  0  0  0  0  0  0  0  0  0  0
    5.4995   -1.8552    0.5318 H   0  0  0  0  0  0  0  0  0  0  0  0
    5.1151    0.3036    0.5420 C   0  0  0  0  0  0  0  0  0  0  0  0
    6.1661    0.5901    0.6958 H   0  0  0  0  0  0  0  0  0  0  0  0
    4.1306    1.2834    0.4352 C   0  0  0  0  0  0  0  0  0  0  0  0
    4.3606    2.3553    0.5029 H   0  0  0  0  0  0  0  0  0  0  0  0
    2.7940    0.8698    0.2384 C   0  0  0  0  0  0  0  0  0  0  0  0
    1.6609    1.7249    0.1362 C   0  0  2  0  0  3  0  0  0  0  0  0
   -0.4274    2.3304   -0.0678 C   0  0  0  0  0  0  0  0  0  0  0  0
   -1.8146    2.4656   -0.2268 C   0  0  0  0  0  0  0  0  0  0  0  0
   -2.4640    1.5911   -0.3436 H   0  0  0  0  0  0  0  0  0  0  0  0
   -2.3346    3.7681   -0.2339 C   0  0  0  0  0  0  0  0  0  0  0  0
   -3.4185    3.9079   -0.3566 H   0  0  0  0  0  0  0  0  0  0  0  0
   -1.5052    4.9027   -0.0905 C   0  0  0  0  0  0  0  0  0  0  0  0
   -1.9562    5.9058   -0.1017 H   0  0  0  0  0  0  0  0  0  0  0  0
   -0.1145    4.7805    0.0630 C   0  0  0  0  0  0  0  0  0  0  0  0
    0.5464    5.6509    0.1717 H   0  0  0  0  0  0  0  0  0  0  0  0
    0.3867    3.4800    0.0679 C   0  0  0  0  0  0  0  0  0  0  0  0
  2 12  1  0  0  0  0
  2  4  1  0  0  0  0
  3 13  1  0  0  0  0
  4  6  1  0  0  0  0
  5  4  1  0  0  0  0
  6  7  1  0  0  0  0
  6  8  2  0  0  0  0
  8  9  1  0  0  0  0
 10 11  1  0  0  0  0
 10  8  1  0  0  0  0
 12 10  2  0  0  0  0
 13  1  1  0  0  0  0
 13 12  1  1  0  0  0
 14  3  1  0  0  0  0
 14 23  1  0  0  0  0
 15 14  2  0  0  0  0
 16 15  1  0  0  0  0
 17 15  1  0  0  0  0
 17 19  2  0  0  0  0
 18 17  1  0  0  0  0
 19 21  1  0  0  0  0
 20 19  1  0  0  0  0
 21 23  2  0  0  0  0
 21 22  1  0  0  0  0
 23  1  1  0  0  0  0
M  END
