1,5
q = 0.0, confidence = 0.998

 28 30  0  0  1  0  0  0  0  0999 V2000
    1.8683    0.2119   -0.3807 N   0  0  0  0  0  2  0  0  0  0  0  0
    2.9488   -0.4357    0.0669 N   0  0  0  0  0  0  0  0  0  0  0  0
    4.0786   -0.0919   -0.6363 C   0  0  1  0  0  3  0  0  0  0  0  0
    1.3276    2.6860   -3.0556 C   0  0  0  0  0  0  0  0  0  0  0  0
   -0.0201    1.5054   -1.4162 N   0  0  0  0  0  2  0  0  0  0  0  0
    2.2776    1.0052   -1.4042 C   0  0  0  0  0  0  0  0  0  0  0  0
    1.1985    1.7675   -2.0011 C   0  0  2  0  0  3  0  0  0  0  0  0
    5.3903   -0.6760   -0.3488 C   0  0  0  0  0  0  0  0  0  0  0  0
    3.6702    0.8488   -1.5979 C   0  0  0  0  0  0  0  0  0  0  0  0
    0.1918    3.3515   -3.5285 C   0  0  0  0  0  0  0  0  0  0  0  0
   -1.0491    3.0772   -2.9282 C   0  0  0  0  0  0  0  0  0  0  0  0
    6.5537   -0.1328   -0.9419 C   0  0  0  0  0  0  0  0  0  0  0  0
    7.9352   -1.7881    0.1819 C   0  0  0  0  0  0  0  0  0  0  0  0
    6.7867   -2.3333    0.7774 C   0  0  0  0  0  0  0  0  0  0  0  0
    7.8122   -0.6858   -0.6803 C   0  0  0  0  0  0  0  0  0  0  0  0
    5.5232   -1.7886    0.5159 C   0  0  0  0  0  0  0  0  0  0  0  0
   -1.1102    2.1525   -1.8821 C   0  0  0  0  0  0  0  0  0  0  0  0
    4.2993    1.3282   -2.3527 H   0  0  0  0  0  0  0  0  0  0  0  0
    6.4710    0.7394   -1.6071 H   0  0  0  0  0  0  0  0  0  0  0  0
    2.8620   -1.1001    0.8619 H   0  0  0  0  0  0  0  0  0  0  0  0
    4.6366   -2.2432    0.9882 H   0  0  0  0  0  0  0  0  0  0  0  0
    8.9254   -2.2212    0.3885 H   0  0  0  0  0  0  0  0  0  0  0  0
    8.7067   -0.2494   -1.1500 H   0  0  0  0  0  0  0  0  0  0  0  0
    0.2702    4.0710   -4.3563 H   0  0  0  0  0  0  0  0  0  0  0  0
    2.3194    2.8631   -3.4949 H   0  0  0  0  0  0  0  0  0  0  0  0
   -1.9715    3.5680   -3.2687 H   0  0  0  0  0  0  0  0  0  0  0  0
    6.8703   -3.1984    1.4521 H   0  0  0  0  0  0  0  0  0  0  0  0
   -2.0641    1.9032   -1.3967 H   0  0  0  0  0  0  0  0  0  0  0  0
  1  2  1  0  0  0  0
  2 20  1  0  0  0  0
  3  8  1  6  0  0  0
  3  2  1  0  0  0  0
  4  7  1  0  0  0  0
  6  1  1  0  0  0  0
  7  5  1  0  0  0  0
  7  6  1  1  0  0  0
  8 16  1  0  0  0  0
  9  6  2  0  0  0  0
  9  3  1  0  0  0  0
 10  4  2  0  0  0  0
 10 11  1  0  0  0  0
 11 17  2  0  0  0  0
 12 15  1  0  0  0  0
 12  8  2  0  0  0  0
 13 22  1  0  0  0  0
 13 14  1  0  0  0  0
 14 27  1  0  0  0  0
 15 13  2  0  0  0  0
 16 14  2  0  0  0  0
 16 21  1  0  0  0  0
 17  5  1  0  0  0  0
 17 28  1  0  0  0  0
 18  9  1  0  0  0  0
 19 12  1  0  0  0  0
 23 15  1  0  0  0  0
 24 10  1  0  0  0  0
 25  4  1  0  0  0  0
 26 11  1  0  0  0  0
M  END
