1,13
q = 0.0, confidence = 1.0

 22 23  0  0  1  0  0  0  0  0999 V2000
    1.0965   -1.4583    0.2372 N   0  0  0  0  0  2  0  0  0  0  0  0
    2.5854    0.0155   -0.8989 N   0  0  0  0  0  0  0  0  0  0  0  0
    3.4376    0.0207   -1.4631 H   0  0  0  0  0  0  0  0  0  0  0  0
    2.2838   -1.2404   -0.3791 C   0  0  1  0  0  3  0  0  0  0  0  0
    2.9511   -3.5258    0.0662 C   0  0  0  0  0  0  0  0  0  0  0  0
    3.6825   -4.3430   -0.0193 H   0  0  0  0  0  0  0  0  0  0  0  0
    3.2281   -2.2839   -0.5009 C   0  0  0  0  0  0  0  0  0  0  0  0
    4.1793   -2.0953   -1.0198 H   0  0  0  0  0  0  0  0  0  0  0  0
    1.7448   -3.7120    0.7650 C   0  0  0  0  0  0  0  0  0  0  0  0
    1.4956   -4.6669    1.2470 H   0  0  0  0  0  0  0  0  0  0  0  0
    0.8383   -2.6591    0.8205 C   0  0  0  0  0  0  0  0  0  0  0  0
   -0.1461   -2.7596    1.2991 H   0  0  0  0  0  0  0  0  0  0  0  0
    1.0788    1.4712    0.2372 N   0  0  0  0  0  2  0  0  0  0  0  0
    2.2688    1.2677   -0.3790 C   0  0  2  0  0  3  0  0  0  0  0  0
    2.9084    3.5610    0.0665 C   0  0  0  0  0  0  0  0  0  0  0  0
    3.6299    4.3869   -0.0189 H   0  0  0  0  0  0  0  0  0  0  0  0
    3.2004    2.3224   -0.5007 C   0  0  0  0  0  0  0  0  0  0  0  0
    4.1538    2.1454   -1.0195 H   0  0  0  0  0  0  0  0  0  0  0  0
    1.6999    3.7325    0.7652 C   0  0  0  0  0  0  0  0  0  0  0  0
    1.4392    4.6843    1.2474 H   0  0  0  0  0  0  0  0  0  0  0  0
    0.8062    2.6688    0.8207 C   0  0  0  0  0  0  0  0  0  0  0  0
   -0.1794    2.7573    1.2993 H   0  0  0  0  0  0  0  0  0  0  0  0
  1 11  1  0  0  0  0
  3  2  1  0  0  0  0
  4  2  1  1  0  0  0
  4  1  1  0  0  0  0
  5  9  1  0  0  0  0
  6  5  1  0  0  0  0
  7  4  1  0  0  0  0
  7  5  2  0  0  0  0
  8  7  1  0  0  0  0
  9 11  2  0  0  0  0
  9 10  1  0  0  0  0
 11 12  1  0  0  0  0
 13 21  1  0  0  0  0
 14  2  1  6  0  0  0
 14 13  1  0  0  0  0
 15 19  1  0  0  0  0
 16 15  1  0  0  0  0
 17 14  1  0  0  0  0
 17 15  2  0  0  0  0
 18 17  1  0  0  0  0
 19 21  2  0  0  0  0
 19 20  1  0  0  0  0
 21 22  1  0  0  0  0
M  END
