1,3
q = 0.0, confidence = 0.94

 23 24  0  0  0  0  0  0  0  0999 V2000
    0.6767    0.7603    0.0463 N   0  0  0  0  0  2  0  0  0  0  0  0
    0.0880    1.9081    0.0003 N   0  0  0  0  0  0  0  0  0  0  0  0
   -1.8699    0.5962    0.1108 N   0  0  0  0  0  2  0  0  0  0  0  0
   -3.2107    0.4901    0.1808 C   0  0  0  0  0  0  0  0  0  0  0  0
   -3.5863   -0.5456    0.2460 H   0  0  0  0  0  0  0  0  0  0  0  0
   -4.0346    1.6219    0.1528 C   0  0  0  0  0  0  0  0  0  0  0  0
   -5.1245    1.4943    0.2138 H   0  0  0  0  0  0  0  0  0  0  0  0
   -3.4537    2.8985    0.0437 C   0  0  0  0  0  0  0  0  0  0  0  0
   -4.0841    3.7993    0.0144 H   0  0  0  0  0  0  0  0  0  0  0  0
   -2.0629    3.0099   -0.0240 C   0  0  0  0  0  0  0  0  0  0  0  0
   -1.5456    3.9751   -0.1037 H   0  0  0  0  0  0  0  0  0  0  0  0
   -1.2851    1.8349    0.0152 C   0  0  0  0  0  0  0  0  0  0  0  0
    2.0914    0.8089    0.0686 C   0  0  0  0  0  0  0  0  0  0  0  0
    2.8072   -0.1685    0.7941 C   0  0  0  0  0  0  0  0  0  0  0  0
    2.2596   -0.9529    1.3298 H   0  0  0  0  0  0  0  0  0  0  0  0
    4.2055   -0.0993    0.8330 C   0  0  0  0  0  0  0  0  0  0  0  0
    4.7657   -0.8515    1.4074 H   0  0  0  0  0  0  0  0  0  0  0  0
    4.8876    0.9136    0.1419 C   0  0  0  0  0  0  0  0  0  0  0  0
    5.9872    0.9505    0.1645 H   0  0  0  0  0  0  0  0  0  0  0  0
    4.1680    1.8828   -0.5838 C   0  0  0  0  0  0  0  0  0  0  0  0
    4.7033    2.6709   -1.1342 H   0  0  0  0  0  0  0  0  0  0  0  0
    2.7734    1.8428   -0.6148 C   0  0  0  0  0  0  0  0  0  0  0  0
    2.1872    2.5830   -1.1755 H   0  0  0  0  0  0  0  0  0  0  0  0
  1 13  1  0  0  0  0
  2 12  2  0  0  0  0
  2  1  1  0  0  0  0
  3  4  1  0  0  0  0
  4  5  1  0  0  0  0
  6  4  2  0  0  0  0
  6  7  1  0  0  0  0
  8  6  1  0  0  0  0
  9  8  1  0  0  0  0
 10 12  1  0  0  0  0
 10  8  2  0  0  0  0
 11 10  1  0  0  0  0
 12  3  1  0  0  0  0
 13 14  1  0  0  0  0
 14 16  2  0  0  0  0
 14 15  1  0  0  0  0
 16 17  1  0  0  0  0
 18 19  1  0  0  0  0
 18 16  1  0  0  0  0
 20 18  2  0  0  0  0
 21 20  1  0  0  0  0
 22 20  1  0  0  0  0
 22 13  2  0  0  0  0
 23 22  1  0  0  0  0
M  END
