1,2
q = 0.0, confidence = 0.998

 32 35  0  0  0  0  0  0  0  0999 V2000
    1.8743   -0.4264   -0.8664 N   0  0  0  0  0  2  0  0  0  0  0  0
   -0.3116    0.9159   -1.3472 N   0  0  0  0  0  2  0  0  0  0  0  0
    2.9112   -1.3374   -0.8735 C   0  0  0  0  0  0  0  0  0  0  0  0
    2.6915   -2.7071   -0.5629 C   0  0  0  0  0  0  0  0  0  0  0  0
    3.7626   -3.5904   -0.5527 C   0  0  0  0  0  0  0  0  0  0  0  0
    5.0834   -3.1542   -0.8347 C   0  0  0  0  0  0  0  0  0  0  0  0
    5.3203   -1.8285   -1.1646 C   0  0  0  0  0  3  0  0  0  0  0  0
    4.2476   -0.8955   -1.2091 C   0  0  0  0  0  0  0  0  0  0  0  0
    4.4390    0.4586   -1.5910 C   0  0  0  0  0  0  0  0  0  0  0  0
    3.3518    1.3050   -1.7016 C   0  0  0  0  0  0  0  0  0  0  0  0
    2.0642    0.8289   -1.3514 C   0  0  0  0  0  0  0  0  0  0  0  0
    0.8352    1.6019   -1.5809 C   0  0  0  0  0  0  0  0  0  0  0  0
    0.8064    2.9299   -2.0780 C   0  0  0  0  0  0  0  0  0  0  0  0
   -0.4118    3.5240   -2.3605 C   0  0  0  0  0  0  0  0  0  0  0  0
   -1.6115    2.7674   -2.2588 C   0  0  0  0  0  0  0  0  0  0  0  0
   -2.8856    3.2826   -2.6317 C   0  0  0  0  0  3  0  0  0  0  0  0
   -4.0102    2.4722   -2.5936 C   0  0  0  0  0  0  0  0  0  0  0  0
   -3.8935    1.1070   -2.2152 C   0  0  0  0  0  0  0  0  0  0  0  0
   -2.6743    0.5763   -1.8198 C   0  0  0  0  0  0  0  0  0  0  0  0
   -1.5213    1.4059   -1.7912 C   0  0  0  0  0  0  0  0  0  0  0  0
    1.6712   -3.0512   -0.3637 H   0  0  0  0  0  0  0  0  0  0  0  0
    3.5774   -4.6511   -0.3282 H   0  0  0  0  0  0  0  0  0  0  0  0
    5.9144   -3.8745   -0.8104 H   0  0  0  0  0  0  0  0  0  0  0  0
    6.3334   -1.4798   -1.4151 H   0  0  0  0  0  0  0  0  0  0  0  0
    5.4523    0.8135   -1.8318 H   0  0  0  0  0  0  0  0  0  0  0  0
    3.4766    2.3340   -2.0603 H   0  0  0  0  0  0  0  0  0  0  0  0
    1.7439    3.4824   -2.2183 H   0  0  0  0  0  0  0  0  0  0  0  0
   -0.4586    4.5685   -2.7033 H   0  0  0  0  0  0  0  0  0  0  0  0
   -2.9542    4.3263   -2.9735 H   0  0  0  0  0  0  0  0  0  0  0  0
   -4.9896    2.8745   -2.8913 H   0  0  0  0  0  0  0  0  0  0  0  0
   -4.7775    0.4534   -2.2544 H   0  0  0  0  0  0  0  0  0  0  0  0
   -2.5562   -0.4916   -1.5947 H   0  0  0  0  0  0  0  0  0  0  0  0
  3  1  1  0  0  0  0
  3  4  2  0  0  0  0
  4  5  1  0  0  0  0
  4 21  1  0  0  0  0
  5 22  1  0  0  0  0
  6 23  1  0  0  0  0
  6  5  2  0  0  0  0
  7  6  1  0  0  0  0
  8  7  1  0  0  0  0
  8  3  1  0  0  0  0
  9  8  2  0  0  0  0
 10  9  1  0  0  0  0
 10 11  2  0  0  0  0
 11  1  1  0  0  0  0
 12 11  1  0  0  0  0
 12  2  1  0  0  0  0
 13 12  2  0  0  0  0
 14 15  2  0  0  0  0
 14 13  1  0  0  0  0
 15 20  1  0  0  0  0
 16 17  1  0  0  0  0
 16 15  1  0  0  0  0
 17 18  2  0  0  0  0
 18 19  1  0  0  0  0
 19 20  2  0  0  0  0
 19 32  1  0  0  0  0
 20  2  1  0  0  0  0
 24  7  1  0  0  0  0
 25  9  1  0  0  0  0
 26 10  1  0  0  0  0
 27 13  1  0  0  0  0
 28 14  1  0  0  0  0
 29 16  1  0  0  0  0
 30 17  1  0  0  0  0
 31 18  1  0  0  0  0
M  END
