1,2
q = 0.0, confidence = 1.0

 36 37  0  0  0  0  0  0  0  0999 V2000
   -0.2359   -0.6084   -0.2943 N   0  0  0  0  0  2  0  0  0  0  0  0
    0.9386    1.6792    0.1580 N   0  0  0  0  0  2  0  0  0  0  0  0
   -0.7032   -1.9853   -0.3652 C   0  0  0  0  0  0  0  0  0  0  0  0
   -0.0906   -2.4876   -1.1407 H   0  0  0  0  0  0  0  0  0  0  0  0
   -1.7768   -2.0235   -0.6411 H   0  0  0  0  0  0  0  0  0  0  0  0
   -0.4759   -2.7357    0.9696 C   0  0  0  0  0  0  0  0  0  0  0  0
    0.6148   -2.6751    1.1713 H   0  0  0  0  0  0  0  0  0  0  0  0
   -1.2407   -2.1046    2.1347 C   0  0  0  0  0  0  0  0  0  0  0  0
   -0.9311   -1.0533    2.3079 H   0  0  0  0  0  0  0  0  0  0  0  0
   -1.0440   -2.6601    3.0737 H   0  0  0  0  0  0  0  0  0  0  0  0
   -2.3375   -2.1174    1.9582 H   0  0  0  0  0  0  0  0  0  0  0  0
   -0.8407   -4.2094    0.7675 C   0  0  0  0  0  0  0  0  0  0  0  0
   -0.6631   -4.7863    1.6971 H   0  0  0  0  0  0  0  0  0  0  0  0
   -0.2248   -4.6635   -0.0344 H   0  0  0  0  0  0  0  0  0  0  0  0
   -1.9114   -4.3318    0.4963 H   0  0  0  0  0  0  0  0  0  0  0  0
   -1.0579    0.4142   -0.1920 C   0  0  0  0  0  0  0  0  0  0  0  0
   -2.5406    0.3158   -0.3014 C   0  0  0  0  0  0  0  0  0  0  0  0
   -3.3601    0.5565    0.8214 C   0  0  0  0  0  0  0  0  0  0  0  0
   -2.8967    0.7936    1.7908 H   0  0  0  0  0  0  0  0  0  0  0  0
   -4.7554    0.4723    0.7079 C   0  0  0  0  0  0  0  0  0  0  0  0
   -5.3861    0.6509    1.5917 H   0  0  0  0  0  0  0  0  0  0  0  0
   -5.3446    0.1566   -0.5267 C   0  0  0  0  0  0  0  0  0  0  0  0
   -6.4395    0.0912   -0.6139 H   0  0  0  0  0  0  0  0  0  0  0  0
   -4.5348   -0.0744   -1.6502 C   0  0  0  0  0  0  0  0  0  0  0  0
   -4.9925   -0.3171   -2.6209 H   0  0  0  0  0  0  0  0  0  0  0  0
   -3.1393    0.0046   -1.5408 C   0  0  0  0  0  0  0  0  0  0  0  0
   -2.5017   -0.1717   -2.4204 H   0  0  0  0  0  0  0  0  0  0  0  0
   -0.4270    1.7185    0.0403 C   0  0  0  0  0  0  0  0  0  0  0  0
    1.6273    2.8106    0.4035 C   0  0  0  0  0  0  0  0  0  0  0  0
    2.7209    2.6725    0.4724 H   0  0  0  0  0  0  0  0  0  0  0  0
    0.9833    4.0467    0.5391 C   0  0  0  0  0  0  0  0  0  0  0  0
    1.5825    4.9457    0.7414 H   0  0  0  0  0  0  0  0  0  0  0  0
   -0.4122    4.1125    0.4039 C   0  0  0  0  0  0  0  0  0  0  0  0
   -0.9412    5.0727    0.4927 H   0  0  0  0  0  0  0  0  0  0  0  0
   -1.1253    2.9348    0.1492 C   0  0  0  0  0  0  0  0  0  0  0  0
   -2.2173    2.9387    0.0305 H   0  0  0  0  0  0  0  0  0  0  0  0
  1 16  1  0  0  0  0
  2 29  1  0  0  0  0
  3  1  1  0  0  0  0
  3  6  1  0  0  0  0
  4  3  1  0  0  0  0
  5  3  1  0  0  0  0
  6  7  1  0  0  0  0
  6  8  1  0  0  0  0
  8  9  1  0  0  0  0
  8 10  1  0  0  0  0
 11  8  1  0  0  0  0
 12  6  1  0  0  0  0
 12 13  1  0  0  0  0
 14 12  1  0  0  0  0
 15 12  1  0  0  0  0
 16 28  2  0  0  0  0
 17 16  1  0  0  0  0
 17 18  1  0  0  0  0
 18 19  1  0  0  0  0
 20 18  2  0  0  0  0
 20 21  1  0  0  0  0
 22 20  1  0  0  0  0
 23 22  1  0  0  0  0
 24 26  1  0  0  0  0
 24 22  2  0  0  0  0
 25 24  1  0  0  0  0
 26 17  2  0  0  0  0
 27 26  1  0  0  0  0
 28 35  1  0  0  0  0
 28  2  1  0  0  0  0
 29 30  1  0  0  0  0
 29 31  2  0  0  0  0
 31 32  1  0  0  0  0
 33 34  1  0  0  0  0
 33 31  1  0  0  0  0
 35 33  2  0  0  0  0
 36 35  1  0  0  0  0
M  END
