3,5
q = -1.0, confidence = 0.0

 31 34  0  0  0  0  0  0  0  0999 V2000
   -3.3998   -0.9588    0.0528 N   0  0  0  0  0  2  0  0  0  0  0  0
   -4.4271   -0.8763    0.1074 H   0  0  0  0  0  0  0  0  0  0  0  0
   -1.4535    0.3879   -0.0200 N   0  0  0  0  0  0  0  0  0  0  0  0
   -0.0003    2.3315    0.1744 N   0  0  0  0  0  2  0  0  0  0  0  0
    1.4533    0.3884   -0.0206 N   0  0  0  0  0  0  0  0  0  0  0  0
    3.4001   -0.9578    0.0515 N   0  0  0  0  0  2  0  0  0  0  0  0
    4.4274   -0.8749    0.1059 H   0  0  0  0  0  0  0  0  0  0  0  0
   -2.8601    0.2107    0.0608 C   0  0  0  0  0  0  0  0  0  0  0  0
   -3.4887    1.5520    0.2134 C   0  0  0  0  0  3  0  0  0  0  0  0
   -4.8184    1.9678    0.3162 C   0  0  0  0  0  0  0  0  0  0  0  0
   -5.6531    1.2507    0.2670 H   0  0  0  0  0  0  0  0  0  0  0  0
   -5.0645    3.3454    0.4778 C   0  0  0  0  0  0  0  0  0  0  0  0
   -6.1014    3.7063    0.5524 H   0  0  0  0  0  0  0  0  0  0  0  0
   -4.0032    4.2699    0.5441 C   0  0  0  0  0  0  0  0  0  0  0  0
   -4.2282    5.3396    0.6719 H   0  0  0  0  0  0  0  0  0  0  0  0
   -2.6647    3.8452    0.4491 C   0  0  0  0  0  0  0  0  0  0  0  0
   -1.8213    4.5487    0.5011 H   0  0  0  0  0  0  0  0  0  0  0  0
   -2.4325    2.4781    0.2791 C   0  0  0  0  0  0  0  0  0  0  0  0
   -1.1778    1.7074    0.1359 C   0  0  0  0  0  0  0  0  0  0  0  0
    1.1773    1.7077    0.1357 C   0  0  0  0  0  0  0  0  0  0  0  0
    2.4318    2.4787    0.2790 C   0  0  0  0  0  0  0  0  0  0  0  0
    2.6636    3.8460    0.4494 C   0  0  0  0  0  0  0  0  0  0  0  0
    1.8200    4.5492    0.5017 H   0  0  0  0  0  0  0  0  0  0  0  0
    4.0019    4.2710    0.5444 C   0  0  0  0  0  0  0  0  0  0  0  0
    4.2267    5.3407    0.6724 H   0  0  0  0  0  0  0  0  0  0  0  0
    5.0635    3.3469    0.4776 C   0  0  0  0  0  0  0  0  0  0  0  0
    6.1003    3.7080    0.5523 H   0  0  0  0  0  0  0  0  0  0  0  0
    4.8178    1.9692    0.3157 C   0  0  0  0  0  0  0  0  0  0  0  0
    5.6527    1.2524    0.2661 H   0  0  0  0  0  0  0  0  0  0  0  0
    3.4883    1.5530    0.2129 C   0  0  0  0  0  3  0  0  0  0  0  0
    2.8600    0.2115    0.0600 C   0  0  0  0  0  0  0  0  0  0  0  0
  1  8  1  0  0  0  0
  1  2  1  0  0  0  0
  3  8  2  0  0  0  0
  3 19  1  0  0  0  0
  5 31  2  0  0  0  0
  5 20  1  0  0  0  0
  6 31  1  0  0  0  0
  6  7  1  0  0  0  0
  8  9  1  0  0  0  0
  9 18  1  0  0  0  0
  9 10  1  0  0  0  0
 10 12  2  0  0  0  0
 11 10  1  0  0  0  0
 12 14  1  0  0  0  0
 12 13  1  0  0  0  0
 14 15  1  0  0  0  0
 16 17  1  0  0  0  0
 16 14  2  0  0  0  0
 18 16  1  0  0  0  0
 19  4  1  0  0  0  0
 19 18  2  0  0  0  0
 20  4  1  0  0  0  0
 20 21  2  0  0  0  0
 21 22  1  0  0  0  0
 22 23  1  0  0  0  0
 22 24  2  0  0  0  0
 24 25  1  0  0  0  0
 26 24  1  0  0  0  0
 26 27  1  0  0  0  0
 28 26  2  0  0  0  0
 29 28  1  0  0  0  0
 30 21  1  0  0  0  0
 30 28  1  0  0  0  0
 31 30  1  0  0  0  0
M  END
