3,4
q = 0.0, confidence = 0.992

 63 66  0  0  1  0  0  0  0  0999 V2000
    3.8229   -1.2198    1.1589 Si  0  0  0  0  0  0  0  0  0  0  0  0
   -1.3237    0.5457    0.6474 P   0  0  0  0  0  4  0  0  0  0  0  0
   -0.8373   -0.5528   -0.4490 N   0  0  0  0  0  2  0  0  0  0  0  0
    1.1653   -0.0057    1.2155 N   0  0  0  0  0  2  0  0  0  0  0  0
    0.0457    0.4343    1.8564 C   0  0  2  0  0  3  0  0  0  0  0  0
   -0.0002    0.6793    3.2295 C   0  0  0  0  0  0  0  0  0  0  0  0
   -0.9215    1.0574    3.6963 H   0  0  0  0  0  0  0  0  0  0  0  0
    1.1575    0.4139    3.9784 C   0  0  0  0  0  0  0  0  0  0  0  0
    1.1787    0.5997    5.0628 H   0  0  0  0  0  0  0  0  0  0  0  0
    2.2731   -0.1210    3.3217 C   0  0  0  0  0  0  0  0  0  0  0  0
    3.1693   -0.3879    3.9016 H   0  0  0  0  0  0  0  0  0  0  0  0
    2.2814   -0.3349    1.9246 C   0  0  0  0  0  0  0  0  0  0  0  0
    4.0418   -2.7230    2.3086 C   0  0  0  0  0  0  0  0  0  0  0  0
    4.9080   -3.3258    1.9641 H   0  0  0  0  0  0  0  0  0  0  0  0
    3.1462   -3.3777    2.2841 H   0  0  0  0  0  0  0  0  0  0  0  0
    4.2328   -2.4425    3.3643 H   0  0  0  0  0  0  0  0  0  0  0  0
    5.3227   -0.0910    1.3387 C   0  0  0  0  0  0  0  0  0  0  0  0
    6.2478   -0.6420    1.0701 H   0  0  0  0  0  0  0  0  0  0  0  0
    5.4323    0.2767    2.3792 H   0  0  0  0  0  0  0  0  0  0  0  0
    5.2114    0.7807    0.6651 H   0  0  0  0  0  0  0  0  0  0  0  0
    3.6171   -1.8991   -0.5839 C   0  0  0  0  0  0  0  0  0  0  0  0
    3.5423   -1.1064   -1.3510 H   0  0  0  0  0  0  0  0  0  0  0  0
    2.7319   -2.5588   -0.6761 H   0  0  0  0  0  0  0  0  0  0  0  0
    4.5137   -2.5204   -0.7975 H   0  0  0  0  0  0  0  0  0  0  0  0
   -2.8808    0.0880    1.4685 C   0  0  0  0  0  0  0  0  0  0  0  0
   -2.8881   -1.0842    2.2547 C   0  0  0  0  0  0  0  0  0  0  0  0
   -1.9514   -1.6361    2.4266 H   0  0  0  0  0  0  0  0  0  0  0  0
   -4.0885   -1.5481    2.8077 C   0  0  0  0  0  0  0  0  0  0  0  0
   -4.0910   -2.4627    3.4191 H   0  0  0  0  0  0  0  0  0  0  0  0
   -5.2857   -0.8522    2.5719 C   0  0  0  0  0  0  0  0  0  0  0  0
   -6.2287   -1.2208    3.0033 H   0  0  0  0  0  0  0  0  0  0  0  0
   -5.2837    0.3073    1.7806 C   0  0  0  0  0  0  0  0  0  0  0  0
   -6.2228    0.8475    1.5890 H   0  0  0  0  0  0  0  0  0  0  0  0
   -4.0854    0.7784    1.2250 C   0  0  0  0  0  0  0  0  0  0  0  0
   -4.0860    1.6819    0.5974 H   0  0  0  0  0  0  0  0  0  0  0  0
   -1.4322    2.2879    0.1284 C   0  0  0  0  0  0  0  0  0  0  0  0
   -0.9471    2.6633   -1.1391 C   0  0  0  0  0  0  0  0  0  0  0  0
   -0.5460    1.8986   -1.8241 H   0  0  0  0  0  0  0  0  0  0  0  0
   -0.9438    4.0180   -1.5003 C   0  0  0  0  0  0  0  0  0  0  0  0
   -0.5557    4.3095   -2.4873 H   0  0  0  0  0  0  0  0  0  0  0  0
   -1.4110    4.9917   -0.6040 C   0  0  0  0  0  0  0  0  0  0  0  0
   -1.3987    6.0543   -0.8907 H   0  0  0  0  0  0  0  0  0  0  0  0
   -1.8836    4.6163    0.6652 C   0  0  0  0  0  0  0  0  0  0  0  0
   -2.2425    5.3806    1.3709 H   0  0  0  0  0  0  0  0  0  0  0  0
   -1.8919    3.2650    1.0377 C   0  0  0  0  0  0  0  0  0  0  0  0
   -2.2549    2.9752    2.0364 H   0  0  0  0  0  0  0  0  0  0  0  0
   -1.5763   -1.6190   -1.0035 C   0  0  0  0  0  0  0  0  0  0  0  0
   -2.6308   -1.3935   -1.9288 C   0  0  0  0  0  0  0  0  0  0  0  0
   -3.3337   -2.5050   -2.4281 C   0  0  0  0  0  0  0  0  0  0  0  0
   -4.1546   -2.3363   -3.1428 H   0  0  0  0  0  0  0  0  0  0  0  0
   -2.9904   -3.8108   -2.0527 C   0  0  0  0  0  0  0  0  0  0  0  0
   -3.5458   -4.6670   -2.4647 H   0  0  0  0  0  0  0  0  0  0  0  0
   -1.9278   -4.0240   -1.1638 C   0  0  0  0  0  0  0  0  0  0  0  0
   -1.6446   -5.0488   -0.8762 H   0  0  0  0  0  0  0  0  0  0  0  0
   -1.2125   -2.9413   -0.6245 C   0  0  0  0  0  0  0  0  0  0  0  0
   -0.0741   -3.1519    0.3342 C   0  0  0  0  0  0  0  0  0  0  0  0
    0.7983   -2.5370    0.0334 H   0  0  0  0  0  0  0  0  0  0  0  0
    0.2251   -4.2159    0.3881 H   0  0  0  0  0  0  0  0  0  0  0  0
   -0.3317   -2.8147    1.3625 H   0  0  0  0  0  0  0  0  0  0  0  0
   -2.9524   -0.0012   -2.3953 C   0  0  0  0  0  0  0  0  0  0  0  0
   -3.7608   -0.0107   -3.1510 H   0  0  0  0  0  0  0  0  0  0  0  0
   -2.0468    0.4561   -2.8460 H   0  0  0  0  0  0  0  0  0  0  0  0
   -3.2777    0.6646   -1.5688 H   0  0  0  0  0  0  0  0  0  0  0  0
  1 17  1  0  0  0  0
  1 12  1  0  0  0  0
  1 13  1  0  0  0  0
  2 25  1  0  0  0  0
  3  2  1  0  0  0  0
  4  5  1  0  0  0  0
  4 12  1  0  0  0  0
  5  2  1  1  0  0  0
  5  6  1  0  0  0  0
  6  7  1  0  0  0  0
  6  8  2  0  0  0  0
  8  9  1  0  0  0  0
 10 11  1  0  0  0  0
 10  8  1  0  0  0  0
 12 10  2  0  0  0  0
 13 16  1  0  0  0  0
 14 13  1  0  0  0  0
 15 13  1  0  0  0  0
 17 19  1  0  0  0  0
 18 17  1  0  0  0  0
 20 17  1  0  0  0  0
 21  1  1  0  0  0  0
 22 21  1  0  0  0  0
 23 21  1  0  0  0  0
 24 21  1  0  0  0  0
 25 26  1  0  0  0  0
 26 27  1  0  0  0  0
 26 28  2  0  0  0  0
 28 29  1  0  0  0  0
 30 28  1  0  0  0  0
 30 31  1  0  0  0  0
 32 30  2  0  0  0  0
 33 32  1  0  0  0  0
 34 25  2  0  0  0  0
 34 32  1  0  0  0  0
 35 34  1  0  0  0  0
 36  2  1  0  0  0  0
 36 45  1  0  0  0  0
 37 36  2  0  0  0  0
 38 37  1  0  0  0  0
 39 37  1  0  0  0  0
 39 41  2  0  0  0  0
 40 39  1  0  0  0  0
 41 43  1  0  0  0  0
 42 41  1  0  0  0  0
 43 45  2  0  0  0  0
 43 44  1  0  0  0  0
 45 46  1  0  0  0  0
 47 55  1  0  0  0  0
 47  3  1  0  0  0  0
 48 47  2  0  0  0  0
 49 51  2  0  0  0  0
 49 48  1  0  0  0  0
 50 49  1  0  0  0  0
 51 53  1  0  0  0  0
 52 51  1  0  0  0  0
 53 54  1  0  0  0  0
 53 55  2  0  0  0  0
 55 56  1  0  0  0  0
 56 58  1  0  0  0  0
 56 59  1  0  0  0  0
 57 56  1  0  0  0  0
 60 48  1  0  0  0  0
 60 63  1  0  0  0  0
 61 60  1  0  0  0  0
 62 60  1  0  0  0  0
M  END
