25,28
q = 0.0, confidence = 0.99

 34 35  0  0  1  0  0  0  0  0999 V2000
   -1.6057   -1.4150    1.3569 C   0  0  2  0  0  3  0  0  0  0  0  0
   -0.0417   -2.9489    1.5233 C   0  0  0  0  0  0  0  0  0  0  0  0
    0.9696   -3.3620    1.4536 H   0  0  0  0  0  0  0  0  0  0  0  0
   -1.2405   -3.5541    1.8495 C   0  0  0  0  0  0  0  0  0  0  0  0
   -1.4785   -4.5807    2.1416 H   0  0  0  0  0  0  0  0  0  0  0  0
   -1.5237    1.0291    1.6297 C   0  0  1  0  0  3  0  0  0  0  0  0
    0.1299    2.3977    2.1052 C   0  0  0  0  0  0  0  0  0  0  0  0
    1.1628    2.7596    2.1046 H   0  0  0  0  0  0  0  0  0  0  0  0
   -1.0243    2.9691    2.6053 C   0  0  0  0  0  0  0  0  0  0  0  0
   -1.1966    3.9052    3.1439 H   0  0  0  0  0  0  0  0  0  0  0  0
   -2.3094   -0.1207    1.0717 C   0  0  1  0  0  0  0  0  0  0  0  0
   -3.2986   -0.1407    1.5683 H   0  0  0  0  0  0  0  0  0  0  0  0
   -2.5688    0.0297   -0.4607 C   0  0  0  0  0  0  0  0  0  0  0  0
   -1.6552   -0.2807   -1.0142 H   0  0  0  0  0  0  0  0  0  0  0  0
   -3.7336   -0.8639   -0.8673 C   0  0  0  0  0  0  0  0  0  0  0  0
   -5.1419   -1.4717   -2.6584 C   0  0  0  0  0  0  0  0  0  0  0  0
   -4.8939   -2.5492   -2.5877 H   0  0  0  0  0  0  0  0  0  0  0  0
   -5.2715   -1.1732   -3.7128 H   0  0  0  0  0  0  0  0  0  0  0  0
   -6.0678   -1.2806   -2.0809 H   0  0  0  0  0  0  0  0  0  0  0  0
   -2.8413    1.4965   -0.7881 C   0  0  0  0  0  0  0  0  0  0  0  0
   -1.9364    3.3574   -1.9700 C   0  0  0  0  0  0  0  0  0  0  0  0
   -2.4467    3.5261   -2.9390 H   0  0  0  0  0  0  0  0  0  0  0  0
   -0.8715    3.6451   -2.0449 H   0  0  0  0  0  0  0  0  0  0  0  0
   -2.4536    3.9248   -1.1731 H   0  0  0  0  0  0  0  0  0  0  0  0
   -0.2900   -1.6251    1.2105 N   0  0  0  0  0  2  0  0  0  0  0  0
   -2.2073   -2.5719    1.7445 N   0  0  0  0  0  0  0  0  0  0  0  0
   -3.2229   -2.6937    1.7414 H   0  0  0  0  0  0  0  0  0  0  0  0
   -0.2027    1.2003    1.4994 N   0  0  0  0  0  2  0  0  0  0  0  0
   -2.0481    2.0909    2.3039 N   0  0  0  0  0  0  0  0  0  0  0  0
   -3.0491    2.2684    2.4007 H   0  0  0  0  0  0  0  0  0  0  0  0
   -4.2998   -1.6533   -0.1259 O   0  0  0  0  0  0  0  0  0  0  0  0
   -4.0587   -0.6724   -2.1534 O   0  0  0  0  0  0  0  0  0  0  0  0
   -1.9469    1.9522   -1.6701 O   0  0  0  0  0  0  0  0  0  0  0  0
   -3.7112    2.1537   -0.2374 O   0  0  0  0  0  0  0  0  0  0  0  0
  1 11  1  6  0  0  0
  1 26  1  0  0  0  0
  2  4  2  0  0  0  0
  3  2  1  0  0  0  0
  4  5  1  0  0  0  0
  6 11  1  6  0  0  0
  6 29  1  0  0  0  0
  7  9  2  0  0  0  0
  8  7  1  0  0  0  0
  9 10  1  0  0  0  0
 11 12  1  1  0  0  0
 13 11  1  0  0  0  0
 14 13  1  0  0  0  0
 15 13  1  0  0  0  0
 15 31  2  0  0  0  0
 16 17  1  0  0  0  0
 16 32  1  0  0  0  0
 16 19  1  0  0  0  0
 18 16  1  0  0  0  0
 20 13  1  0  0  0  0
 20 34  2  0  0  0  0
 21 33  1  0  0  0  0
 21 24  1  0  0  0  0
 22 21  1  0  0  0  0
 23 21  1  0  0  0  0
 25  1  1  0  0  0  0
 25  2  1  0  0  0  0
 26  4  1  0  0  0  0
 27 26  1  0  0  0  0
 28  6  1  0  0  0  0
 28  7  1  0  0  0  0
 29 30  1  0  0  0  0
 29  9  1  0  0  0  0
 32 15  1  0  0  0  0
 33 20  1  0  0  0  0
M  END
