1,2
q = 0.0, confidence = 1.0

 31 31  0  0  0  0  0  0  0  0999 V2000
   -0.6403    1.6566    0.3455 N   0  0  0  0  0  2  0  0  0  0  0  0
    0.9885   -0.1030   -0.7711 N   0  0  0  0  0  2  0  0  0  0  0  0
    4.2588    0.1006   -0.1386 N   0  0  0  0  0  0  0  0  0  0  0  0
   -1.4956    2.5239    0.9251 C   0  0  0  0  0  3  0  0  0  0  0  0
   -2.3265    2.0791    1.4915 H   0  0  0  0  0  0  0  0  0  0  0  0
   -1.3493    3.9109    0.8125 C   0  0  0  0  0  0  0  0  0  0  0  0
   -2.0779    4.5714    1.3030 H   0  0  0  0  0  0  0  0  0  0  0  0
   -0.2757    4.4302    0.0699 C   0  0  0  0  0  0  0  0  0  0  0  0
   -0.1385    5.5162   -0.0356 H   0  0  0  0  0  0  0  0  0  0  0  0
    0.6128    3.5376   -0.5365 C   0  0  0  0  0  0  0  0  0  0  0  0
    1.4663    3.8917   -1.1324 H   0  0  0  0  0  0  0  0  0  0  0  0
    0.4049    2.1541   -0.3877 C   0  0  0  0  0  0  0  0  0  0  0  0
    1.2724    1.1504   -0.9761 C   0  0  0  0  0  3  0  0  0  0  0  0
    2.1683    1.4466   -1.5496 H   0  0  0  0  0  0  0  0  0  0  0  0
    1.8649   -1.1262   -1.3341 C   0  0  0  0  0  0  0  0  0  0  0  0
    2.5536   -0.6592   -2.0684 H   0  0  0  0  0  0  0  0  0  0  0  0
    1.2211   -1.8530   -1.8699 H   0  0  0  0  0  0  0  0  0  0  0  0
    2.6746   -1.8395   -0.2423 C   0  0  0  0  0  0  0  0  0  0  0  0
    3.3271   -2.5837   -0.7453 H   0  0  0  0  0  0  0  0  0  0  0  0
    1.9971   -2.4200    0.4159 H   0  0  0  0  0  0  0  0  0  0  0  0
    3.4871   -0.8749    0.6281 C   0  0  0  0  0  0  0  0  0  0  0  0
    2.7850   -0.3095    1.2750 H   0  0  0  0  0  0  0  0  0  0  0  0
    4.1358   -1.4665    1.3285 H   0  0  0  0  0  0  0  0  0  0  0  0
    4.7168    1.2009    0.6912 C   0  0  0  0  0  0  0  0  0  0  0  0
    5.4325    0.8849    1.4965 H   0  0  0  0  0  0  0  0  0  0  0  0
    3.8516    1.6894    1.1851 H   0  0  0  0  0  0  0  0  0  0  0  0
    5.2316    1.9602    0.0670 H   0  0  0  0  0  0  0  0  0  0  0  0
    5.3484   -0.4976   -0.8900 C   0  0  0  0  0  0  0  0  0  0  0  0
    5.8597    0.2763   -1.4979 H   0  0  0  0  0  0  0  0  0  0  0  0
    4.9690   -1.2713   -1.5870 H   0  0  0  0  0  0  0  0  0  0  0  0
    6.1209   -0.9830   -0.2349 H   0  0  0  0  0  0  0  0  0  0  0  0
  1  4  1  0  0  0  0
  3 21  1  0  0  0  0
  3 24  1  0  0  0  0
  4  5  1  0  0  0  0
  6  4  1  0  0  0  0
  6  7  1  0  0  0  0
  8  6  2  0  0  0  0
  9  8  1  0  0  0  0
 10 12  2  0  0  0  0
 10  8  1  0  0  0  0
 11 10  1  0  0  0  0
 12  1  1  0  0  0  0
 13  2  1  0  0  0  0
 13 12  1  0  0  0  0
 14 13  1  0  0  0  0
 15  2  1  0  0  0  0
 15 18  1  0  0  0  0
 16 15  1  0  0  0  0
 17 15  1  0  0  0  0
 18 20  1  0  0  0  0
 18 21  1  0  0  0  0
 19 18  1  0  0  0  0
 21 22  1  0  0  0  0
 21 23  1  0  0  0  0
 24 26  1  0  0  0  0
 24 25  1  0  0  0  0
 27 24  1  0  0  0  0
 28 31  1  0  0  0  0
 28  3  1  0  0  0  0
 29 28  1  0  0  0  0
 30 28  1  0  0  0  0
M  END
