1,2
q = 0.0, confidence = 0.998

 32 35  0  0  0  0  0  0  0  0999 V2000
    3.0229   -0.5442   -0.0211 N   0  0  0  0  0  2  0  0  0  0  0  0
    1.5035    1.7157   -0.0709 N   0  0  0  0  0  2  0  0  0  0  0  0
    3.6578    0.6276    0.0349 C   0  0  0  0  0  0  0  0  0  0  0  0
    5.0668    0.6980    0.2626 C   0  0  0  0  0  0  0  0  0  0  0  0
    5.5715    1.6698    0.3323 H   0  0  0  0  0  0  0  0  0  0  0  0
    5.7899   -0.4698    0.4217 C   0  0  0  0  0  0  0  0  0  0  0  0
    6.8753   -0.4358    0.6037 H   0  0  0  0  0  0  0  0  0  0  0  0
    5.1311   -1.7286    0.3620 C   0  0  0  0  0  0  0  0  0  0  0  0
    5.8003   -2.9748    0.5184 C   0  0  0  0  0  0  0  0  0  0  0  0
    6.8880   -2.9770    0.6893 H   0  0  0  0  0  0  0  0  0  0  0  0
    5.0882   -4.1638    0.4587 C   0  0  0  0  0  0  0  0  0  0  0  0
    5.6097   -5.1249    0.5812 H   0  0  0  0  0  0  0  0  0  0  0  0
    3.6828   -4.1494    0.2421 C   0  0  0  0  0  0  0  0  0  0  0  0
    3.1298   -5.0997    0.2011 H   0  0  0  0  0  0  0  0  0  0  0  0
    3.0012   -2.9525    0.0834 C   0  0  0  0  0  0  0  0  0  0  0  0
    1.9118   -2.9208   -0.0791 H   0  0  0  0  0  0  0  0  0  0  0  0
    3.7065   -1.7152    0.1381 C   0  0  0  0  0  0  0  0  0  0  0  0
    2.8304    1.8608   -0.1311 C   0  0  0  0  0  0  0  0  0  0  0  0
    3.4329    3.1378   -0.3385 C   0  0  0  0  0  0  0  0  0  0  0  0
    4.5233    3.2336   -0.4169 H   0  0  0  0  0  0  0  0  0  0  0  0
    2.6286    4.2561   -0.4700 C   0  0  0  0  0  0  0  0  0  0  0  0
    3.0739    5.2480   -0.6447 H   0  0  0  0  0  0  0  0  0  0  0  0
    1.2167    4.1307   -0.3800 C   0  0  0  0  0  0  0  0  0  0  0  0
    0.3208    5.2314   -0.4855 C   0  0  0  0  0  0  0  0  0  0  0  0
    0.7340    6.2388   -0.6489 H   0  0  0  0  0  0  0  0  0  0  0  0
   -1.0486    5.0307   -0.3784 C   0  0  0  0  0  0  0  0  0  0  0  0
   -1.7360    5.8867   -0.4566 H   0  0  0  0  0  0  0  0  0  0  0  0
   -1.5730    3.7268   -0.1598 C   0  0  0  0  0  0  0  0  0  0  0  0
   -2.6557    3.5555   -0.0539 H   0  0  0  0  0  0  0  0  0  0  0  0
   -0.7264    2.6324   -0.0609 C   0  0  0  0  0  0  0  0  0  0  0  0
   -1.1366    1.6255    0.1325 H   0  0  0  0  0  0  0  0  0  0  0  0
    0.6813    2.8049   -0.1726 C   0  0  0  0  0  0  0  0  0  0  0  0
  1  3  1  0  0  0  0
  1 17  1  0  0  0  0
  3  4  1  0  0  0  0
  4  5  1  0  0  0  0
  4  6  2  0  0  0  0
  6  7  1  0  0  0  0
  8  6  1  0  0  0  0
  8  9  1  0  0  0  0
  9 10  1  0  0  0  0
 11  9  2  0  0  0  0
 11 12  1  0  0  0  0
 13 11  1  0  0  0  0
 14 13  1  0  0  0  0
 15 17  1  0  0  0  0
 15 13  2  0  0  0  0
 16 15  1  0  0  0  0
 17  8  2  0  0  0  0
 18  2  1  0  0  0  0
 18  3  2  0  0  0  0
 19 18  1  0  0  0  0
 20 19  1  0  0  0  0
 21 23  1  0  0  0  0
 21 19  2  0  0  0  0
 22 21  1  0  0  0  0
 23 32  1  0  0  0  0
 24 23  2  0  0  0  0
 24 26  1  0  0  0  0
 25 24  1  0  0  0  0
 26 28  2  0  0  0  0
 27 26  1  0  0  0  0
 28 30  1  0  0  0  0
 28 29  1  0  0  0  0
 30 31  1  0  0  0  0
 32  2  1  0  0  0  0
 32 30  2  0  0  0  0
M  END
