2,3
q = 0.0, confidence = 0.99

 24 25  0  0  0  0  0  0  0  0999 V2000
    6.3591    0.3671   -0.0165 Cl  0  0  0  0  0  0  0  0  0  0  0  0
   -2.3254    0.8157   -0.0065 N   0  0  0  0  0  2  0  0  0  0  0  0
    0.4245    0.7753   -0.1185 N   0  0  0  0  0  2  0  0  0  0  0  0
   -3.6639    0.8190    0.0434 C   0  0  0  0  0  3  0  0  0  0  0  0
   -4.1328   -0.1713    0.1601 H   0  0  0  0  0  0  0  0  0  0  0  0
   -4.4097    2.0053   -0.0547 C   0  0  0  0  0  0  0  0  0  0  0  0
   -5.5073    1.9645   -0.0140 H   0  0  0  0  0  0  0  0  0  0  0  0
   -3.7295    3.2219   -0.2064 C   0  0  0  0  0  0  0  0  0  0  0  0
   -4.2837    4.1688   -0.2869 H   0  0  0  0  0  0  0  0  0  0  0  0
   -2.3300    3.2131   -0.2564 C   0  0  0  0  0  0  0  0  0  0  0  0
   -1.7566    4.1443   -0.3731 H   0  0  0  0  0  0  0  0  0  0  0  0
   -1.6513    1.9827   -0.1576 C   0  0  0  0  0  0  0  0  0  0  0  0
   -0.1917    1.9113   -0.1981 C   0  0  0  0  0  3  0  0  0  0  0  0
    0.3624    2.8653   -0.3071 H   0  0  0  0  0  0  0  0  0  0  0  0
    1.8279    0.7010   -0.0766 C   0  0  0  0  0  0  0  0  0  0  0  0
    2.6077    1.6729    0.5934 C   0  0  0  0  0  0  0  0  0  0  0  0
    2.1151    2.4905    1.1402 H   0  0  0  0  0  0  0  0  0  0  0  0
    4.0011    1.5710    0.6167 C   0  0  0  0  0  0  0  0  0  0  0  0
    4.6114    2.3095    1.1547 H   0  0  0  0  0  0  0  0  0  0  0  0
    4.6248    0.4956   -0.0413 C   0  0  0  0  0  0  0  0  0  0  0  0
    3.8620   -0.4857   -0.6994 C   0  0  0  0  0  0  0  0  0  0  0  0
    4.3659   -1.3261   -1.1962 H   0  0  0  0  0  0  0  0  0  0  0  0
    2.4685   -0.3921   -0.7033 C   0  0  0  0  0  0  0  0  0  0  0  0
    1.8572   -1.1607   -1.1941 H   0  0  0  0  0  0  0  0  0  0  0  0
  2  4  1  0  0  0  0
  3 15  1  0  0  0  0
  4  5  1  0  0  0  0
  6  7  1  0  0  0  0
  6  4  1  0  0  0  0
  8  6  2  0  0  0  0
  9  8  1  0  0  0  0
 10  8  1  0  0  0  0
 10 12  2  0  0  0  0
 11 10  1  0  0  0  0
 12  2  1  0  0  0  0
 13 12  1  0  0  0  0
 13  3  1  0  0  0  0
 14 13  1  0  0  0  0
 15 16  1  0  0  0  0
 16 18  2  0  0  0  0
 16 17  1  0  0  0  0
 18 19  1  0  0  0  0
 20  1  1  0  0  0  0
 20 18  1  0  0  0  0
 21 20  2  0  0  0  0
 22 21  1  0  0  0  0
 23 21  1  0  0  0  0
 23 15  2  0  0  0  0
 24 23  1  0  0  0  0
M  END
