3,4
q = 0.0, confidence = 1.0

 29 30  0  0  1  0  0  0  0  0999 V2000
   -3.9637    1.9443    0.0215 O   0  0  0  0  0  0  0  0  0  0  0  0
   -4.7642   -0.1703    0.0292 O   0  0  0  0  0  0  0  0  0  0  0  0
    2.6404    0.4616    0.0379 N   0  0  0  0  0  2  0  0  0  0  0  0
    0.0107    0.6067   -0.1473 N   0  0  0  0  0  2  0  0  0  0  0  0
   -1.3204    2.3175   -0.1747 N   0  0  0  0  0  0  0  0  0  0  0  0
   -0.0966    2.8681   -0.0738 N   0  0  0  0  0  2  0  0  0  0  0  0
    3.9730    0.2676    0.1177 C   0  0  0  0  0  0  0  0  0  0  0  0
    4.8681    1.3414    0.1857 C   0  0  0  0  0  0  0  0  0  0  0  0
    4.3739    2.6559    0.1732 C   0  0  0  0  0  0  0  0  0  0  0  0
    2.9914    2.8586    0.0914 C   0  0  0  0  0  0  0  0  0  0  0  0
    2.1505    1.7388    0.0240 C   0  0  0  0  0  0  0  0  0  0  0  0
    0.6984    1.7998   -0.0655 C   0  0  0  0  0  0  0  0  0  0  0  0
   -1.2804    0.9596   -0.2167 C   0  0  1  0  0  3  0  0  0  0  0  0
   -2.4572    0.0610   -0.3506 C   0  0  0  0  0  0  0  0  0  0  0  0
   -3.7860    0.7340   -0.0736 C   0  0  0  0  0  0  0  0  0  0  0  0
   -6.1037    0.3436    0.2518 C   0  0  0  0  0  0  0  0  0  0  0  0
   -7.0467   -0.8376    0.3194 C   0  0  0  0  0  0  0  0  0  0  0  0
   -2.2064    2.8454   -0.1512 H   0  0  0  0  0  0  0  0  0  0  0  0
    4.2782   -0.7937    0.1286 H   0  0  0  0  0  0  0  0  0  0  0  0
    5.9464    1.1372    0.2491 H   0  0  0  0  0  0  0  0  0  0  0  0
    5.0593    3.5145    0.2269 H   0  0  0  0  0  0  0  0  0  0  0  0
    2.5420    3.8613    0.0779 H   0  0  0  0  0  0  0  0  0  0  0  0
   -2.4861   -0.3660   -1.3781 H   0  0  0  0  0  0  0  0  0  0  0  0
   -2.2936   -0.8468    0.2726 H   0  0  0  0  0  0  0  0  0  0  0  0
   -6.3532    1.0425   -0.5740 H   0  0  0  0  0  0  0  0  0  0  0  0
   -6.0984    0.9382    1.1891 H   0  0  0  0  0  0  0  0  0  0  0  0
   -8.0813   -0.4809    0.4910 H   0  0  0  0  0  0  0  0  0  0  0  0
   -7.0312   -1.4154   -0.6255 H   0  0  0  0  0  0  0  0  0  0  0  0
   -6.7727   -1.5193    1.1484 H   0  0  0  0  0  0  0  0  0  0  0  0
  2 16  1  0  0  0  0
  3  7  1  0  0  0  0
  4 12  1  0  0  0  0
  5 18  1  0  0  0  0
  5  6  1  0  0  0  0
  6 12  1  0  0  0  0
  7 19  1  0  0  0  0
  7  8  2  0  0  0  0
  8 20  1  0  0  0  0
  9  8  1  0  0  0  0
  9 21  1  0  0  0  0
 10  9  2  0  0  0  0
 11  3  1  0  0  0  0
 11 10  1  0  0  0  0
 12 11  2  0  0  0  0
 13 14  1  6  0  0  0
 13  5  1  0  0  0  0
 13  4  1  0  0  0  0
 14 15  1  0  0  0  0
 14 24  1  0  0  0  0
 15  1  2  0  0  0  0
 15  2  1  0  0  0  0
 16 17  1  0  0  0  0
 16 26  1  0  0  0  0
 17 27  1  0  0  0  0
 17 29  1  0  0  0  0
 22 10  1  0  0  0  0
 23 14  1  0  0  0  0
 25 16  1  0  0  0  0
 28 17  1  0  0  0  0
M  END
