4,5
q = -1.0, confidence = 0.02

 29 30  0  0  1  0  0  0  0  0999 V2000
   -1.2489   -2.4146    0.9155 O   0  0  0  0  0  0  0  0  0  0  0  0
   -0.1703   -2.4770    0.9918 H   0  0  0  0  0  0  0  0  0  0  0  0
   -1.2425    2.3467   -0.9962 O   0  0  0  0  0  1  0  0  0  0  0  0
   -1.4354   -1.1544    0.4777 N   0  0  0  0  0  2  0  0  0  0  0  0
   -1.4434    1.1339   -0.5344 N   0  0  0  0  0  2  0  0  0  0  0  0
   -2.6611   -0.7129    0.2292 C   0  0  2  0  0  3  0  0  0  0  0  0
   -3.8692   -1.5570    0.3413 C   0  0  0  0  0  0  0  0  0  0  0  0
   -4.0656   -2.4268    1.4389 C   0  0  0  0  0  0  0  0  0  0  0  0
   -3.3009   -2.4810    2.2244 H   0  0  0  0  0  0  0  0  0  0  0  0
   -5.2225   -3.2121    1.5243 C   0  0  0  0  0  0  0  0  0  0  0  0
   -5.3638   -3.8780    2.3893 H   0  0  0  0  0  0  0  0  0  0  0  0
   -6.1966   -3.1560    0.5142 C   0  0  0  0  0  0  0  0  0  0  0  0
   -7.1028   -3.7769    0.5834 H   0  0  0  0  0  0  0  0  0  0  0  0
   -6.0054   -2.3052   -0.5864 C   0  0  0  0  0  0  0  0  0  0  0  0
   -6.7595   -2.2582   -1.3867 H   0  0  0  0  0  0  0  0  0  0  0  0
   -4.8560   -1.5101   -0.6716 C   0  0  0  0  0  0  0  0  0  0  0  0
   -4.7130   -0.8437   -1.5343 H   0  0  0  0  0  0  0  0  0  0  0  0
   -2.6736    0.6715   -0.2831 C   0  0  1  0  0  3  0  0  0  0  0  0
   -3.8893    1.4997   -0.3916 C   0  0  0  0  0  0  0  0  0  0  0  0
   -4.9077    1.4007    0.5881 C   0  0  0  0  0  0  0  0  0  0  0  0
   -4.7860    0.7005    1.4268 H   0  0  0  0  0  0  0  0  0  0  0  0
   -6.0616    2.1895    0.5068 C   0  0  0  0  0  0  0  0  0  0  0  0
   -6.8378    2.0976    1.2819 H   0  0  0  0  0  0  0  0  0  0  0  0
   -6.2276    3.0940   -0.5545 C   0  0  0  0  0  0  0  0  0  0  0  0
   -7.1361    3.7119   -0.6199 H   0  0  0  0  0  0  0  0  0  0  0  0
   -5.2219    3.2075   -1.5282 C   0  0  0  0  0  0  0  0  0  0  0  0
   -5.3406    3.9170   -2.3616 H   0  0  0  0  0  0  0  0  0  0  0  0
   -4.0618    2.4262   -1.4483 C   0  0  0  0  0  0  0  0  0  0  0  0
   -3.2713    2.5295   -2.2016 H   0  0  0  0  0  0  0  0  0  0  0  0
  1  2  1  0  0  0  0
  3  5  1  0  0  0  0
  4  1  1  0  0  0  0
  6  7  1  0  0  0  0
  6  4  1  6  0  0  0
  7  8  1  0  0  0  0
  8 10  2  0  0  0  0
  8  9  1  0  0  0  0
 10 11  1  0  0  0  0
 12 13  1  0  0  0  0
 12 10  1  0  0  0  0
 14 12  2  0  0  0  0
 15 14  1  0  0  0  0
 16 14  1  0  0  0  0
 16  7  2  0  0  0  0
 17 16  1  0  0  0  0
 18  5  1  1  0  0  0
 18  6  1  0  0  0  0
 19 18  1  0  0  0  0
 19 20  1  0  0  0  0
 20 21  1  0  0  0  0
 22 20  2  0  0  0  0
 22 23  1  0  0  0  0
 24 22  1  0  0  0  0
 25 24  1  0  0  0  0
 26 28  1  0  0  0  0
 26 24  2  0  0  0  0
 27 26  1  0  0  0  0
 28 19  2  0  0  0  0
 29 28  1  0  0  0  0
M  END
