3,4
q = 0.0, confidence = 0.996

 28 30  0  0  0  0  0  0  0  0999 V2000
    4.8604   -1.3878   -0.6373 O   0  0  0  0  0  0  0  0  0  0  0  0
    4.8600    1.3885   -0.6380 O   0  0  0  0  0  0  0  0  0  0  0  0
    0.1535    1.3206    0.3689 N   0  0  0  0  0  0  0  0  0  0  0  0
    0.1536   -1.3208    0.3687 N   0  0  0  0  0  0  0  0  0  0  0  0
    0.1271    2.6528    0.6809 C   0  0  0  0  0  0  0  0  0  0  0  0
    1.2941    3.4329    0.5073 C   0  0  0  0  0  0  0  0  0  0  0  0
    1.2338    4.5081    0.7275 H   0  0  0  0  0  0  0  0  0  0  0  0
    2.4924    2.8573    0.0907 C   0  0  0  0  0  0  0  0  0  0  0  0
    3.4100    3.4444   -0.0626 H   0  0  0  0  0  0  0  0  0  0  0  0
    2.5464    1.4628   -0.0810 C   0  0  0  0  0  0  0  0  0  0  0  0
    1.3556    0.7290    0.0867 C   0  0  0  0  0  0  0  0  0  0  0  0
    3.8280    0.7784   -0.4048 C   0  0  0  0  0  0  0  0  0  0  0  0
    3.8282   -0.7779   -0.4045 C   0  0  0  0  0  0  0  0  0  0  0  0
    2.5467   -1.4625   -0.0809 C   0  0  0  0  0  0  0  0  0  0  0  0
    1.3557   -0.7290    0.0867 C   0  0  0  0  0  0  0  0  0  0  0  0
    0.1275   -2.6530    0.6807 C   0  0  0  0  0  0  0  0  0  0  0  0
    1.2948   -3.4329    0.5073 C   0  0  0  0  0  0  0  0  0  0  0  0
    1.2346   -4.5081    0.7274 H   0  0  0  0  0  0  0  0  0  0  0  0
    2.4930   -2.8570    0.0908 C   0  0  0  0  0  0  0  0  0  0  0  0
    3.4107   -3.4439   -0.0623 H   0  0  0  0  0  0  0  0  0  0  0  0
   -1.1214    3.2475    1.2282 C   0  0  0  0  0  0  0  0  0  0  0  0
   -0.9418    4.2735    1.5958 H   0  0  0  0  0  0  0  0  0  0  0  0
   -1.5174    2.6128    2.0468 H   0  0  0  0  0  0  0  0  0  0  0  0
   -1.9183    3.2402    0.4512 H   0  0  0  0  0  0  0  0  0  0  0  0
   -1.1209   -3.2478    1.2280 C   0  0  0  0  0  0  0  0  0  0  0  0
   -1.5142   -2.6153    2.0496 H   0  0  0  0  0  0  0  0  0  0  0  0
   -0.9422   -4.2753    1.5919 H   0  0  0  0  0  0  0  0  0  0  0  0
   -1.9191   -3.2366    0.4524 H   0  0  0  0  0  0  0  0  0  0  0  0
  1 13  2  0  0  0  0
  2 12  2  0  0  0  0
  3  5  1  0  0  0  0
  4 16  1  0  0  0  0
  5 21  1  0  0  0  0
  6  5  2  0  0  0  0
  6  7  1  0  0  0  0
  8  6  1  0  0  0  0
  9  8  1  0  0  0  0
 10 11  1  0  0  0  0
 10  8  2  0  0  0  0
 11  3  2  0  0  0  0
 12 13  1  0  0  0  0
 12 10  1  0  0  0  0
 13 14  1  0  0  0  0
 14 15  1  0  0  0  0
 14 19  2  0  0  0  0
 15 11  1  0  0  0  0
 15  4  2  0  0  0  0
 16 25  1  0  0  0  0
 17 16  2  0  0  0  0
 17 18  1  0  0  0  0
 19 17  1  0  0  0  0
 20 19  1  0  0  0  0
 21 22  1  0  0  0  0
 21 23  1  0  0  0  0
 24 21  1  0  0  0  0
 25 27  1  0  0  0  0
 25 26  1  0  0  0  0
 28 25  1  0  0  0  0
M  END
