1,2
q = 0.0, confidence = 0.996

 24 25  0  0  0  0  0  0  0  0999 V2000
    1.8001    1.1548   -0.0059 N   0  0  0  0  0  2  0  0  0  0  0  0
   -0.7992    1.3306    0.0082 N   0  0  0  0  0  2  0  0  0  0  0  0
    3.1266    0.9991   -0.1634 C   0  0  0  0  0  0  0  0  0  0  0  0
    3.4844   -0.0284   -0.3165 H   0  0  0  0  0  0  0  0  0  0  0  0
    4.0084    2.0880   -0.1540 C   0  0  0  0  0  0  0  0  0  0  0  0
    5.0859    1.9102   -0.2768 H   0  0  0  0  0  0  0  0  0  0  0  0
    3.4956    3.3853    0.0020 C   0  0  0  0  0  0  0  0  0  0  0  0
    4.1668    4.2563    0.0112 H   0  0  0  0  0  0  0  0  0  0  0  0
    2.1117    3.5529    0.1225 C   0  0  0  0  0  0  0  0  0  0  0  0
    1.6605    4.5515    0.2114 H   0  0  0  0  0  0  0  0  0  0  0  0
    1.2830    2.4168    0.1074 C   0  0  0  0  0  0  0  0  0  0  0  0
   -0.1649    2.4639    0.1300 C   0  0  0  0  0  0  0  0  0  0  0  0
   -0.7064    3.4250    0.1795 H   0  0  0  0  0  0  0  0  0  0  0  0
   -2.2169    1.2896   -0.0406 C   0  0  0  0  0  0  0  0  0  0  0  0
   -2.9855    1.8248    1.0130 C   0  0  0  0  0  0  0  0  0  0  0  0
   -2.4838    2.2684    1.8863 H   0  0  0  0  0  0  0  0  0  0  0  0
   -4.3851    1.7558    0.9446 C   0  0  0  0  0  0  0  0  0  0  0  0
   -4.9899    2.1585    1.7705 H   0  0  0  0  0  0  0  0  0  0  0  0
   -5.0098    1.1779   -0.1721 C   0  0  0  0  0  0  0  0  0  0  0  0
   -6.1075    1.1328   -0.2245 H   0  0  0  0  0  0  0  0  0  0  0  0
   -4.2331    0.6582   -1.2232 C   0  0  0  0  0  0  0  0  0  0  0  0
   -4.7235    0.2187   -2.1046 H   0  0  0  0  0  0  0  0  0  0  0  0
   -2.8352    0.6941   -1.1590 C   0  0  0  0  0  0  0  0  0  0  0  0
   -2.1995    0.2983   -1.9660 H   0  0  0  0  0  0  0  0  0  0  0  0
  1 11  1  0  0  0  0
  2 12  1  0  0  0  0
  3  5  2  0  0  0  0
  3  1  1  0  0  0  0
  4  3  1  0  0  0  0
  5  7  1  0  0  0  0
  6  5  1  0  0  0  0
  7  8  1  0  0  0  0
  7  9  2  0  0  0  0
  9 10  1  0  0  0  0
 11  9  1  0  0  0  0
 11 12  2  0  0  0  0
 12 13  1  0  0  0  0
 14  2  1  0  0  0  0
 14 15  1  0  0  0  0
 15 16  1  0  0  0  0
 17 15  2  0  0  0  0
 17 18  1  0  0  0  0
 19 17  1  0  0  0  0
 20 19  1  0  0  0  0
 21 23  1  0  0  0  0
 21 19  2  0  0  0  0
 22 21  1  0  0  0  0
 23 14  2  0  0  0  0
 24 23  1  0  0  0  0
M  END
