2,4
q = 0.0, confidence = 1.0

 35 38  0  0  1  0  0  0  0  0999 V2000
    3.0402   -1.6832    3.4729 O   0  0  0  0  0  0  0  0  0  0  0  0
    1.7282    0.3426    0.3067 N   0  0  0  0  0  2  0  0  0  0  0  0
    3.5855   -0.8417    0.5768 N   0  0  0  0  0  0  0  0  0  0  0  0
    1.0293    2.4916   -1.0938 N   0  0  0  0  0  2  0  0  0  0  0  0
    2.7193    0.9761   -0.4128 C   0  0  0  0  0  0  0  0  0  0  0  0
    3.9223    0.2484   -0.2629 C   0  0  0  0  0  0  0  0  0  0  0  0
    5.2532    0.3390   -0.7421 C   0  0  0  0  0  0  0  0  0  0  0  0
    5.5377    1.1746   -1.3932 H   0  0  0  0  0  0  0  0  0  0  0  0
    6.1769   -0.6336   -0.3973 C   0  0  0  0  0  0  0  0  0  0  0  0
    7.2096   -0.5686   -0.7672 H   0  0  0  0  0  0  0  0  0  0  0  0
    5.7874   -1.7292    0.4298 C   0  0  0  0  0  0  0  0  0  0  0  0
    6.5076   -2.5146    0.6960 H   0  0  0  0  0  0  0  0  0  0  0  0
    4.4994   -1.8235    0.9014 C   0  0  0  0  0  0  0  0  0  0  0  0
    4.1324   -2.6337    1.5403 H   0  0  0  0  0  0  0  0  0  0  0  0
    2.2405   -0.7388    0.9063 C   0  0  2  0  0  3  0  0  0  0  0  0
    1.4610   -1.6991    1.6921 C   0  0  0  0  0  0  0  0  0  0  0  0
    0.2184   -2.1319    1.1792 C   0  0  0  0  0  0  0  0  0  0  0  0
   -0.0831   -1.7664    0.1897 H   0  0  0  0  0  0  0  0  0  0  0  0
   -0.6057   -3.0029    1.8983 C   0  0  0  0  0  0  0  0  0  0  0  0
   -1.5611   -3.3297    1.4632 H   0  0  0  0  0  0  0  0  0  0  0  0
   -0.1907   -3.4560    3.1619 C   0  0  0  0  0  0  0  0  0  0  0  0
   -0.8234   -4.1437    3.7429 H   0  0  0  0  0  0  0  0  0  0  0  0
    1.0334   -3.0333    3.6971 C   0  0  0  0  0  0  0  0  0  0  0  0
    1.3527   -3.3770    4.6946 H   0  0  0  0  0  0  0  0  0  0  0  0
    1.8598   -2.1500    2.9777 C   0  0  0  0  0  0  0  0  0  0  0  0
    2.3638    2.1884   -1.1367 C   0  0  2  0  0  3  0  0  0  0  0  0
    3.2710    3.0219   -1.8265 C   0  0  0  0  0  0  0  0  0  0  0  0
    4.3419    2.7832   -1.8428 H   0  0  0  0  0  0  0  0  0  0  0  0
    2.7967    4.1655   -2.4750 C   0  0  0  0  0  0  0  0  0  0  0  0
    3.4941    4.8231   -3.0145 H   0  0  0  0  0  0  0  0  0  0  0  0
    1.4247    4.4671   -2.4220 C   0  0  0  0  0  0  0  0  0  0  0  0
    1.0120    5.3571   -2.9173 H   0  0  0  0  0  0  0  0  0  0  0  0
    0.5848    3.6005   -1.7153 C   0  0  0  0  0  0  0  0  0  0  0  0
   -0.4978    3.7933   -1.6383 H   0  0  0  0  0  0  0  0  0  0  0  0
    3.1686   -2.0312    4.3757 H   0  0  0  0  0  0  0  0  0  0  0  0
  1 35  1  0  0  0  0
  2 15  1  0  0  0  0
  3 13  1  0  0  0  0
  3 15  1  0  0  0  0
  5  6  2  0  0  0  0
  5  2  1  0  0  0  0
  6  3  1  0  0  0  0
  7  9  2  0  0  0  0
  7  6  1  0  0  0  0
  8  7  1  0  0  0  0
  9 11  1  0  0  0  0
 10  9  1  0  0  0  0
 11 12  1  0  0  0  0
 11 13  2  0  0  0  0
 13 14  1  0  0  0  0
 15 16  1  6  0  0  0
 16 25  1  0  0  0  0
 17 16  2  0  0  0  0
 17 19  1  0  0  0  0
 18 17  1  0  0  0  0
 19 21  2  0  0  0  0
 20 19  1  0  0  0  0
 21 23  1  0  0  0  0
 21 22  1  0  0  0  0
 23 24  1  0  0  0  0
 25  1  1  0  0  0  0
 25 23  2  0  0  0  0
 26  4  1  0  0  0  0
 26  5  1  1  0  0  0
 27 26  1  0  0  0  0
 28 27  1  0  0  0  0
 29 31  1  0  0  0  0
 29 27  2  0  0  0  0
 30 29  1  0  0  0  0
 31 33  2  0  0  0  0
 32 31  1  0  0  0  0
 33 34  1  0  0  0  0
 33  4  1  0  0  0  0
M  END
