1,2
q = 0.0, confidence = 0.982

 49 52  0  0  1  0  0  0  0  0999 V2000
   -3.1266    1.5725    0.3997 N   0  0  0  0  0  2  0  0  0  0  0  0
   -1.6101   -0.5189   -0.1876 N   0  0  0  0  0  2  0  0  0  0  0  0
    3.2899   -1.0576   -1.3945 N   0  0  0  0  0  0  0  0  0  0  0  0
    3.5064   -2.3477   -1.7664 N   0  0  0  0  0  0  0  0  0  0  0  0
    4.3913   -2.8470   -0.9454 N   0  0  0  0  0  0  0  0  0  0  0  0
    7.0676   -1.5022    0.7620 N   0  0  0  0  0  0  0  0  0  0  0  0
    7.7309   -1.9894    0.1587 H   0  0  0  0  0  0  0  0  0  0  0  0
    6.2944    0.5469    1.3981 O   0  0  0  0  0  0  0  0  0  0  0  0
   -3.9407    2.5918    0.7523 C   0  0  0  0  0  3  0  0  0  0  0  0
   -4.8927    2.3068    1.2219 H   0  0  0  0  0  0  0  0  0  0  0  0
   -3.6148    3.9278    0.5295 C   0  0  0  0  0  0  0  0  0  0  0  0
   -4.3234    4.7115    0.8352 H   0  0  0  0  0  0  0  0  0  0  0  0
   -2.3900    4.2602   -0.0886 C   0  0  0  0  0  0  0  0  0  0  0  0
   -1.5520    3.1931   -0.4437 C   0  0  0  0  0  0  0  0  0  0  0  0
   -0.5875    3.4047   -0.9249 H   0  0  0  0  0  0  0  0  0  0  0  0
   -1.9350    1.8621   -0.1978 C   0  0  0  0  0  0  0  0  0  0  0  0
   -2.0135    5.6906   -0.3545 C   0  0  0  0  0  0  0  0  0  0  0  0
   -2.7400    6.1645   -1.0468 H   0  0  0  0  0  0  0  0  0  0  0  0
   -1.0060    5.7764   -0.8032 H   0  0  0  0  0  0  0  0  0  0  0  0
   -2.0290    6.2858    0.5815 H   0  0  0  0  0  0  0  0  0  0  0  0
   -1.0941    0.6975   -0.5293 C   0  0  1  0  0  3  0  0  0  0  0  0
    0.1739    0.7998   -1.1314 C   0  0  0  0  0  0  0  0  0  0  0  0
    0.5755    1.7869   -1.3985 H   0  0  0  0  0  0  0  0  0  0  0  0
    0.9236   -0.3509   -1.3964 C   0  0  0  0  0  0  0  0  0  0  0  0
    0.3769   -1.5959   -1.0271 C   0  0  0  0  0  0  0  0  0  0  0  0
    0.9328   -2.5275   -1.2098 H   0  0  0  0  0  0  0  0  0  0  0  0
   -0.8818   -1.6323   -0.4307 C   0  0  0  0  0  0  0  0  0  0  0  0
   -1.3474   -2.5848   -0.1414 H   0  0  0  0  0  0  0  0  0  0  0  0
    2.2750   -0.2740   -2.0770 C   0  0  0  0  0  0  0  0  0  0  0  0
    2.2058   -0.6914   -3.1024 H   0  0  0  0  0  0  0  0  0  0  0  0
    2.6201    0.7749   -2.1559 H   0  0  0  0  0  0  0  0  0  0  0  0
    4.0391   -0.7312   -0.3038 C   0  0  0  0  0  0  0  0  0  0  0  0
    4.0506    0.2539    0.1716 H   0  0  0  0  0  0  0  0  0  0  0  0
    4.7505   -1.8955   -0.0268 C   0  0  0  0  0  0  0  0  0  0  0  0
    5.7863   -2.1439    1.0322 C   0  0  0  0  0  0  0  0  0  0  0  0
    5.4252   -1.7612    2.0066 H   0  0  0  0  0  0  0  0  0  0  0  0
    5.9455   -3.2358    1.1150 H   0  0  0  0  0  0  0  0  0  0  0  0
    7.2125   -0.1499    0.9496 C   0  0  0  0  0  0  0  0  0  0  0  0
    8.6189    1.8299    0.4088 C   0  0  0  0  0  0  0  0  0  0  0  0
    7.6961    2.4105    0.5540 H   0  0  0  0  0  0  0  0  0  0  0  0
    9.8301    2.4437    0.0672 C   0  0  0  0  0  0  0  0  0  0  0  0
    9.8725    3.5344   -0.0742 H   0  0  0  0  0  0  0  0  0  0  0  0
   10.9917    1.6690   -0.0900 C   0  0  0  0  0  0  0  0  0  0  0  0
   11.9451    2.1508   -0.3552 H   0  0  0  0  0  0  0  0  0  0  0  0
   10.9378    0.2793    0.1030 C   0  0  0  0  0  0  0  0  0  0  0  0
   11.8495   -0.3283    0.0007 H   0  0  0  0  0  0  0  0  0  0  0  0
    9.7237   -0.3362    0.4401 C   0  0  0  0  0  0  0  0  0  0  0  0
    9.7046   -1.4215    0.6249 H   0  0  0  0  0  0  0  0  0  0  0  0
    8.5506    0.4334    0.5836 C   0  0  0  0  0  0  0  0  0  0  0  0
  1  9  1  0  0  0  0
  3 32  1  0  0  0  0
  4  3  1  0  0  0  0
  4  5  2  0  0  0  0
  5 34  1  0  0  0  0
  6 38  1  0  0  0  0
  6 35  1  0  0  0  0
  7  6  1  0  0  0  0
  9 10  1  0  0  0  0
 11  9  1  0  0  0  0
 11 12  1  0  0  0  0
 13 11  2  0  0  0  0
 14 16  2  0  0  0  0
 14 13  1  0  0  0  0
 15 14  1  0  0  0  0
 16  1  1  0  0  0  0
 17 13  1  0  0  0  0
 17 20  1  0  0  0  0
 18 17  1  0  0  0  0
 19 17  1  0  0  0  0
 21 16  1  1  0  0  0
 21  2  1  0  0  0  0
 22 21  1  0  0  0  0
 23 22  1  0  0  0  0
 24 22  2  0  0  0  0
 24 25  1  0  0  0  0
 25 27  2  0  0  0  0
 26 25  1  0  0  0  0
 27  2  1  0  0  0  0
 27 28  1  0  0  0  0
 29 24  1  0  0  0  0
 29  3  1  0  0  0  0
 30 29  1  0  0  0  0
 31 29  1  0  0  0  0
 32 34  2  0  0  0  0
 32 33  1  0  0  0  0
 34 35  1  0  0  0  0
 35 37  1  0  0  0  0
 35 36  1  0  0  0  0
 38  8  2  0  0  0  0
 39 40  1  0  0  0  0
 39 49  1  0  0  0  0
 41 39  2  0  0  0  0
 42 41  1  0  0  0  0
 43 41  1  0  0  0  0
 43 45  2  0  0  0  0
 44 43  1  0  0  0  0
 45 47  1  0  0  0  0
 46 45  1  0  0  0  0
 47 49  2  0  0  0  0
 47 48  1  0  0  0  0
 49 38  1  0  0  0  0
M  END
