2,3
q = 0.0, confidence = 0.99

 38 41  0  0  1  0  0  0  0  0999 V2000
    0.6924   -2.2809   -1.5393 N   0  0  0  0  0  0  0  0  0  0  0  0
   -0.4423    0.1061   -0.4933 N   0  0  0  0  0  2  0  0  0  0  0  0
    1.0897    2.3443    0.0301 N   0  0  0  0  0  2  0  0  0  0  0  0
   -7.5441    0.2879    0.1358 N   0  0  0  0  0  0  0  0  0  0  0  0
    1.4206   -3.3990   -1.6693 C   0  0  0  0  0  0  0  0  0  0  0  0
    2.3209   -3.3233   -2.3029 H   0  0  0  0  0  0  0  0  0  0  0  0
    1.0906   -4.6073   -1.0390 C   0  0  0  0  0  0  0  0  0  0  0  0
    1.7295   -5.4921   -1.1706 H   0  0  0  0  0  0  0  0  0  0  0  0
   -0.0511   -4.6428   -0.2292 C   0  0  0  0  0  0  0  0  0  0  0  0
   -0.3325   -5.5612    0.3069 H   0  0  0  0  0  0  0  0  0  0  0  0
   -0.8135   -3.4789   -0.0826 C   0  0  0  0  0  0  0  0  0  0  0  0
   -1.6755   -3.4549    0.5974 H   0  0  0  0  0  0  0  0  0  0  0  0
   -0.4041   -2.3094   -0.7511 C   0  0  0  0  0  0  0  0  0  0  0  0
   -1.1558   -1.0334   -0.5674 C   0  0  1  0  0  3  0  0  0  0  0  0
   -2.5592   -1.0342   -0.4588 C   0  0  0  0  0  0  0  0  0  0  0  0
   -3.1153   -1.9755   -0.5650 H   0  0  0  0  0  0  0  0  0  0  0  0
   -3.2440    0.1788   -0.2612 C   0  0  0  0  0  0  0  0  0  0  0  0
   -2.4735    1.3550   -0.1928 C   0  0  0  0  0  0  0  0  0  0  0  0
   -2.9665    2.3144    0.0113 H   0  0  0  0  0  0  0  0  0  0  0  0
   -1.0734    1.2830   -0.3157 C   0  0  0  0  0  0  0  0  0  0  0  0
   -0.2240    2.5113   -0.2328 C   0  0  2  0  0  3  0  0  0  0  0  0
   -0.7566    3.8017   -0.4287 C   0  0  0  0  0  0  0  0  0  0  0  0
   -1.8176    3.9373   -0.6769 H   0  0  0  0  0  0  0  0  0  0  0  0
    0.0891    4.9138   -0.3327 C   0  0  0  0  0  0  0  0  0  0  0  0
   -0.3123    5.9266   -0.4866 H   0  0  0  0  0  0  0  0  0  0  0  0
    1.4472    4.7180   -0.0494 C   0  0  0  0  0  0  0  0  0  0  0  0
    2.1457    5.5625    0.0348 H   0  0  0  0  0  0  0  0  0  0  0  0
    1.9086    3.4046    0.1188 C   0  0  0  0  0  0  0  0  0  0  0  0
    2.9660    3.1709    0.3312 H   0  0  0  0  0  0  0  0  0  0  0  0
   -4.7200    0.2172   -0.1257 C   0  0  0  0  0  0  0  0  0  0  0  0
   -5.4244   -0.8173    0.5245 C   0  0  0  0  0  0  0  0  0  0  0  0
   -4.8895   -1.6673    0.9740 H   0  0  0  0  0  0  0  0  0  0  0  0
   -6.8207   -0.7302    0.6281 C   0  0  0  0  0  0  0  0  0  0  0  0
   -7.3835   -1.5287    1.1438 H   0  0  0  0  0  0  0  0  0  0  0  0
   -6.8742    1.2716   -0.4846 C   0  0  0  0  0  0  0  0  0  0  0  0
   -7.4820    2.0999   -0.8907 H   0  0  0  0  0  0  0  0  0  0  0  0
   -5.4799    1.2886   -0.6393 C   0  0  0  0  0  0  0  0  0  0  0  0
   -4.9955    2.1150   -1.1808 H   0  0  0  0  0  0  0  0  0  0  0  0
  1 13  1  0  0  0  0
  2 20  1  0  0  0  0
  3 28  1  0  0  0  0
  4 33  1  0  0  0  0
  5  1  2  0  0  0  0
  5  7  1  0  0  0  0
  6  5  1  0  0  0  0
  7  9  2  0  0  0  0
  8  7  1  0  0  0  0
  9 11  1  0  0  0  0
  9 10  1  0  0  0  0
 11 12  1  0  0  0  0
 13 11  2  0  0  0  0
 14 13  1  1  0  0  0
 14  2  1  0  0  0  0
 14 15  1  0  0  0  0
 15 17  2  0  0  0  0
 16 15  1  0  0  0  0
 17 18  1  0  0  0  0
 17 30  1  0  0  0  0
 18 19  1  0  0  0  0
 20 18  2  0  0  0  0
 21 20  1  6  0  0  0
 21  3  1  0  0  0  0
 22 24  2  0  0  0  0
 22 21  1  0  0  0  0
 23 22  1  0  0  0  0
 24 26  1  0  0  0  0
 25 24  1  0  0  0  0
 26 27  1  0  0  0  0
 26 28  2  0  0  0  0
 28 29  1  0  0  0  0
 30 31  1  0  0  0  0
 31 33  2  0  0  0  0
 31 32  1  0  0  0  0
 33 34  1  0  0  0  0
 35  4  2  0  0  0  0
 36 35  1  0  0  0  0
 37 35  1  0  0  0  0
 37 30  2  0  0  0  0
 38 37  1  0  0  0  0
M  END
