2,5
q = 0.0, confidence = 0.998

 37 39  0  0  0  0  0  0  0  0999 V2000
   -5.3328    2.9563   -0.1099 O   0  0  0  0  0  0  0  0  0  0  0  0
   -1.6493    0.6935   -0.5954 N   0  0  0  0  0  2  0  0  0  0  0  0
   -3.8349    0.4542   -0.7247 N   0  0  0  0  0  0  0  0  0  0  0  0
   -2.1665    1.9120   -0.8866 N   0  0  0  0  0  0  0  0  0  0  0  0
   -0.9546   -1.7092   -0.0558 N   0  0  0  0  0  2  0  0  0  0  0  0
   -2.3076   -1.5769   -0.2494 C   0  0  0  0  0  0  0  0  0  0  0  0
   -3.4814    1.7704   -0.9610 C   0  0  0  0  0  0  0  0  0  0  0  0
   -5.1594   -0.0600   -0.5252 C   0  0  0  0  0  0  0  0  0  0  0  0
   -1.2695   -4.0896    0.1205 C   0  0  0  0  0  0  0  0  0  0  0  0
   -0.8065   -5.0750    0.2721 H   0  0  0  0  0  0  0  0  0  0  0  0
   -7.2895   -0.7926   -1.4040 C   0  0  0  0  0  0  0  0  0  0  0  0
   -7.9497   -0.9810   -2.2648 H   0  0  0  0  0  0  0  0  0  0  0  0
   -7.7539   -1.0639   -0.1016 C   0  0  0  0  0  0  0  0  0  0  0  0
   -4.4712    2.8550   -1.2209 C   0  0  0  0  0  0  0  0  0  0  0  0
   -3.9008    3.7950   -1.4120 H   0  0  0  0  0  0  0  0  0  0  0  0
   -5.0515    2.6252   -2.1513 H   0  0  0  0  0  0  0  0  0  0  0  0
   -2.6478   -0.1956   -0.5004 C   0  0  0  0  0  0  0  0  0  0  0  0
   -9.1438   -1.5951    0.1393 C   0  0  0  0  0  0  0  0  0  0  0  0
   -9.1184   -2.5361    0.7266 H   0  0  0  0  0  0  0  0  0  0  0  0
   -9.6773   -1.7975   -0.8090 H   0  0  0  0  0  0  0  0  0  0  0  0
   -9.7511   -0.8719    0.7231 H   0  0  0  0  0  0  0  0  0  0  0  0
   -3.1846   -2.6733   -0.2471 C   0  0  0  0  0  0  0  0  0  0  0  0
   -4.2605   -2.5149   -0.3951 H   0  0  0  0  0  0  0  0  0  0  0  0
   -2.6541   -3.9543   -0.0575 C   0  0  0  0  0  0  0  0  0  0  0  0
   -3.3152   -4.8331   -0.0488 H   0  0  0  0  0  0  0  0  0  0  0  0
   -5.5925   -0.3153    0.7874 C   0  0  0  0  0  0  0  0  0  0  0  0
   -4.9102   -0.1184    1.6349 H   0  0  0  0  0  0  0  0  0  0  0  0
   -5.9956   -0.2962   -1.6243 C   0  0  0  0  0  0  0  0  0  0  0  0
   -5.6301   -0.1042   -2.6439 H   0  0  0  0  0  0  0  0  0  0  0  0
   -6.8814   -0.8204    0.9833 C   0  0  0  0  0  0  0  0  0  0  0  0
   -7.2225   -1.0254    2.0103 H   0  0  0  0  0  0  0  0  0  0  0  0
   -0.4560   -2.9489    0.1170 C   0  0  0  0  0  0  0  0  0  0  0  0
    0.6298   -3.0069    0.2914 H   0  0  0  0  0  0  0  0  0  0  0  0
   -6.4516    3.7769   -0.3536 C   0  0  0  0  0  0  0  0  0  0  0  0
   -6.1605    4.8286   -0.5914 H   0  0  0  0  0  0  0  0  0  0  0  0
   -7.0653    3.7784    0.5672 H   0  0  0  0  0  0  0  0  0  0  0  0
   -7.0728    3.3911   -1.1989 H   0  0  0  0  0  0  0  0  0  0  0  0
  2 17  1  0  0  0  0
  3  8  1  0  0  0  0
  3 17  1  0  0  0  0
  4  2  1  0  0  0  0
  5 32  1  0  0  0  0
  6 22  1  0  0  0  0
  6  5  1  0  0  0  0
  7  4  2  0  0  0  0
  7  3  1  0  0  0  0
  8 26  1  0  0  0  0
  9 10  1  0  0  0  0
 11 13  2  0  0  0  0
 12 11  1  0  0  0  0
 13 18  1  0  0  0  0
 13 30  1  0  0  0  0
 14  7  1  0  0  0  0
 14  1  1  0  0  0  0
 15 14  1  0  0  0  0
 16 14  1  0  0  0  0
 17  6  2  0  0  0  0
 18 21  1  0  0  0  0
 18 19  1  0  0  0  0
 20 18  1  0  0  0  0
 22 24  2  0  0  0  0
 23 22  1  0  0  0  0
 24 25  1  0  0  0  0
 24  9  1  0  0  0  0
 26 30  2  0  0  0  0
 26 27  1  0  0  0  0
 28 11  1  0  0  0  0
 28  8  2  0  0  0  0
 29 28  1  0  0  0  0
 30 31  1  0  0  0  0
 32  9  2  0  0  0  0
 32 33  1  0  0  0  0
 34  1  1  0  0  0  0
 34 36  1  0  0  0  0
 35 34  1  0  0  0  0
 37 34  1  0  0  0  0
M  END
