3,5
q = -1.0, confidence = 0.014

 25 26  0  0  0  0  0  0  0  0999 V2000
   -3.1646    1.9378   -0.9999 F   0  0  0  0  0  0  0  0  0  0  0  0
    2.9950   -0.4894   -1.4969 F   0  0  0  0  0  0  0  0  0  0  0  0
   -1.6281   -0.2488   -1.4575 N   0  0  0  0  0  2  0  0  0  0  0  0
   -0.8971   -1.2640   -1.8233 N   0  0  0  0  0  2  0  0  0  0  0  0
    0.3528   -1.0448   -1.5323 N   0  0  0  0  0  2  0  0  0  0  0  0
   -3.0022   -0.3579   -1.6270 C   0  0  0  0  0  0  0  0  0  0  0  0
   -3.7905    0.7878   -1.3536 C   0  0  0  0  0  0  0  0  0  0  0  0
   -5.1821    0.7763   -1.4324 C   0  0  0  0  0  0  0  0  0  0  0  0
   -5.7305    1.7014   -1.2030 H   0  0  0  0  0  0  0  0  0  0  0  0
   -5.8419   -0.4079   -1.8023 C   0  0  0  0  0  0  0  0  0  0  0  0
   -6.9398   -0.4259   -1.8668 H   0  0  0  0  0  0  0  0  0  0  0  0
   -5.0878   -1.5606   -2.0855 C   0  0  0  0  0  0  0  0  0  0  0  0
   -5.5971   -2.4937   -2.3708 H   0  0  0  0  0  0  0  0  0  0  0  0
   -3.6915   -1.5397   -1.9979 C   0  0  0  0  0  0  0  0  0  0  0  0
   -3.0926   -2.4377   -2.1992 H   0  0  0  0  0  0  0  0  0  0  0  0
    1.2464   -2.1035   -1.6134 C   0  0  0  0  0  0  0  0  0  0  0  0
    2.6281   -1.7920   -1.5391 C   0  0  0  0  0  0  0  0  0  0  0  0
    3.6152   -2.7751   -1.4965 C   0  0  0  0  0  0  0  0  0  0  0  0
    4.6655   -2.4618   -1.4112 H   0  0  0  0  0  0  0  0  0  0  0  0
    3.2391   -4.1276   -1.5554 C   0  0  0  0  0  0  0  0  0  0  0  0
    4.0104   -4.9111   -1.5205 H   0  0  0  0  0  0  0  0  0  0  0  0
    1.8776   -4.4686   -1.6469 C   0  0  0  0  0  0  0  0  0  0  0  0
    1.5783   -5.5272   -1.6830 H   0  0  0  0  0  0  0  0  0  0  0  0
    0.8925   -3.4745   -1.6672 C   0  0  0  0  0  0  0  0  0  0  0  0
   -0.1761   -3.7274   -1.6972 H   0  0  0  0  0  0  0  0  0  0  0  0
  4  5  1  0  0  0  0
  4  3  1  0  0  0  0
  6  3  1  0  0  0  0
  6  7  1  0  0  0  0
  7  1  1  0  0  0  0
  8  7  2  0  0  0  0
  8  9  1  0  0  0  0
 10  8  1  0  0  0  0
 11 10  1  0  0  0  0
 12 14  1  0  0  0  0
 12 10  2  0  0  0  0
 13 12  1  0  0  0  0
 14  6  2  0  0  0  0
 15 14  1  0  0  0  0
 16 17  1  0  0  0  0
 16  5  1  0  0  0  0
 17  2  1  0  0  0  0
 17 18  2  0  0  0  0
 18 19  1  0  0  0  0
 20 21  1  0  0  0  0
 20 18  1  0  0  0  0
 22 20  2  0  0  0  0
 23 22  1  0  0  0  0
 24 22  1  0  0  0  0
 24 16  2  0  0  0  0
 25 24  1  0  0  0  0
M  END
