1,2
q = 0.0, confidence = 0.996

 44 47  0  0  1  0  0  0  0  0999 V2000
    1.3397   -1.2846   -1.0908 N   0  0  0  0  0  2  0  0  0  0  0  0
    1.1975    1.5511   -0.6782 N   0  0  0  0  0  2  0  0  0  0  0  0
   -2.6777    1.1912   -0.0154 C   0  0  0  0  0  0  0  0  0  0  0  0
    0.0643   -1.1214   -1.5079 C   0  0  2  0  0  3  0  0  0  0  0  0
   -0.5200   -2.0164   -2.4276 C   0  0  0  0  0  0  0  0  0  0  0  0
   -1.5555   -1.8533   -2.7561 H   0  0  0  0  0  0  0  0  0  0  0  0
    0.2325   -3.0990   -2.8935 C   0  0  0  0  0  0  0  0  0  0  0  0
   -0.2066   -3.8117   -3.6080 H   0  0  0  0  0  0  0  0  0  0  0  0
   -1.9160   -0.0382   -0.4072 C   0  0  0  0  0  0  0  0  0  0  0  0
    2.0700   -2.3237   -1.5390 C   0  0  0  0  0  0  0  0  0  0  0  0
    3.0962   -2.3721   -1.1407 H   0  0  0  0  0  0  0  0  0  0  0  0
    1.2928    3.8127   -1.4811 C   0  0  0  0  0  0  0  0  0  0  0  0
    1.8476    4.7591   -1.5507 H   0  0  0  0  0  0  0  0  0  0  0  0
   -2.4929   -1.3526   -0.0050 C   0  0  0  0  0  0  0  0  0  0  0  0
   -0.6413    2.4375   -1.9431 C   0  0  0  0  0  0  0  0  0  0  0  0
   -1.6337    2.2854   -2.3863 H   0  0  0  0  0  0  0  0  0  0  0  0
    0.0296    3.6591   -2.0713 C   0  0  0  0  0  0  0  0  0  0  0  0
   -0.4343    4.4872   -2.6284 H   0  0  0  0  0  0  0  0  0  0  0  0
   -2.2608    1.9442    1.1033 C   0  0  0  0  0  0  0  0  0  0  0  0
   -1.3626    1.6306    1.6644 H   0  0  0  0  0  0  0  0  0  0  0  0
   -3.8686   -1.6362   -0.1668 C   0  0  0  0  0  0  0  0  0  0  0  0
   -4.5349   -0.8790   -0.6022 H   0  0  0  0  0  0  0  0  0  0  0  0
   -0.0327    1.3941   -1.2191 C   0  0  1  0  0  3  0  0  0  0  0  0
    1.8449    2.7255   -0.7941 C   0  0  0  0  0  0  0  0  0  0  0  0
    2.8283    2.7619   -0.2961 H   0  0  0  0  0  0  0  0  0  0  0  0
    1.5519   -3.2595   -2.4417 C   0  0  0  0  0  0  0  0  0  0  0  0
    2.1768   -4.0968   -2.7839 H   0  0  0  0  0  0  0  0  0  0  0  0
   -4.5010    2.7758   -0.3831 C   0  0  0  0  0  0  0  0  0  0  0  0
   -5.3702    3.1024   -0.9745 H   0  0  0  0  0  0  0  0  0  0  0  0
   -3.8004    1.6189   -0.7566 C   0  0  0  0  0  0  0  0  0  0  0  0
   -4.1112    1.0580   -1.6519 H   0  0  0  0  0  0  0  0  0  0  0  0
   -0.6900    0.0675   -1.0106 C   0  0  0  0  0  0  0  0  0  0  0  0
   -4.3955   -2.8764    0.2185 C   0  0  0  0  0  0  0  0  0  0  0  0
   -5.4666   -3.0813    0.0693 H   0  0  0  0  0  0  0  0  0  0  0  0
   -2.9675    3.0996    1.4699 C   0  0  0  0  0  0  0  0  0  0  0  0
   -2.6304    3.6824    2.3408 H   0  0  0  0  0  0  0  0  0  0  0  0
   -1.6716   -2.3309    0.6083 C   0  0  0  0  0  0  0  0  0  0  0  0
   -0.6129   -2.1131    0.8170 H   0  0  0  0  0  0  0  0  0  0  0  0
   -4.0880    3.5175    0.7348 C   0  0  0  0  0  0  0  0  0  0  0  0
   -4.6371    4.4253    1.0280 H   0  0  0  0  0  0  0  0  0  0  0  0
   -3.5669   -3.8469    0.8036 C   0  0  0  0  0  0  0  0  0  0  0  0
   -3.9846   -4.8160    1.1164 H   0  0  0  0  0  0  0  0  0  0  0  0
   -2.2073   -3.5622    1.0075 C   0  0  0  0  0  0  0  0  0  0  0  0
   -1.5522   -4.2998    1.4953 H   0  0  0  0  0  0  0  0  0  0  0  0
  3 19  1  0  0  0  0
  4  1  1  0  0  0  0
  4 32  1  6  0  0  0
  5  4  1  0  0  0  0
  6  5  1  0  0  0  0
  7 26  1  0  0  0  0
  7  5  2  0  0  0  0
  8  7  1  0  0  0  0
  9  3  1  0  0  0  0
  9 14  1  0  0  0  0
 10 11  1  0  0  0  0
 10  1  1  0  0  0  0
 12 24  2  0  0  0  0
 13 12  1  0  0  0  0
 14 37  1  0  0  0  0
 15 23  1  0  0  0  0
 16 15  1  0  0  0  0
 17 15  2  0  0  0  0
 17 12  1  0  0  0  0
 18 17  1  0  0  0  0
 19 35  2  0  0  0  0
 19 20  1  0  0  0  0
 21 14  2  0  0  0  0
 21 33  1  0  0  0  0
 22 21  1  0  0  0  0
 23 32  1  6  0  0  0
 23  2  1  0  0  0  0
 24  2  1  0  0  0  0
 24 25  1  0  0  0  0
 26 10  2  0  0  0  0
 27 26  1  0  0  0  0
 28 39  2  0  0  0  0
 29 28  1  0  0  0  0
 30 28  1  0  0  0  0
 30  3  2  0  0  0  0
 31 30  1  0  0  0  0
 32  9  2  0  0  0  0
 33 41  2  0  0  0  0
 34 33  1  0  0  0  0
 35 36  1  0  0  0  0
 37 38  1  0  0  0  0
 37 43  2  0  0  0  0
 39 40  1  0  0  0  0
 39 35  1  0  0  0  0
 41 43  1  0  0  0  0
 41 42  1  0  0  0  0
 43 44  1  0  0  0  0
M  END
