1,2
q = 0.0, confidence = 0.996

 44 45  0  0  1  0  0  0  0  0999 V2000
    1.4831    1.4177    0.1641 N   0  0  0  0  0  2  0  0  0  0  0  0
    0.8260   -1.1727    1.0193 N   0  0  0  0  0  2  0  0  0  0  0  0
    2.3374    1.9889    1.0409 C   0  0  0  0  0  3  0  0  0  0  0  0
    3.2814    1.4497    1.2093 H   0  0  0  0  0  0  0  0  0  0  0  0
    2.0479    3.1933    1.6858 C   0  0  0  0  0  0  0  0  0  0  0  0
    2.7737    3.6246    2.3892 H   0  0  0  0  0  0  0  0  0  0  0  0
    0.8285    3.8256    1.4025 C   0  0  0  0  0  0  0  0  0  0  0  0
    0.5627    4.7770    1.8870 H   0  0  0  0  0  0  0  0  0  0  0  0
   -0.0377    3.2362    0.4757 C   0  0  0  0  0  0  0  0  0  0  0  0
   -0.9878    3.7202    0.2093 H   0  0  0  0  0  0  0  0  0  0  0  0
    0.3048    2.0191   -0.1464 C   0  0  0  0  0  0  0  0  0  0  0  0
    1.4799   -1.4490    2.1688 C   0  0  0  0  0  3  0  0  0  0  0  0
    2.5768   -1.3792    2.1231 H   0  0  0  0  0  0  0  0  0  0  0  0
    0.8107   -1.8118    3.3394 C   0  0  0  0  0  0  0  0  0  0  0  0
    1.3836   -2.0312    4.2510 H   0  0  0  0  0  0  0  0  0  0  0  0
   -0.5886   -1.8941    3.3075 C   0  0  0  0  0  0  0  0  0  0  0  0
   -1.1564   -2.1787    4.2060 H   0  0  0  0  0  0  0  0  0  0  0  0
   -1.2528   -1.6276    2.1057 C   0  0  0  0  0  0  0  0  0  0  0  0
   -2.3466   -1.7111    2.0423 H   0  0  0  0  0  0  0  0  0  0  0  0
   -0.5286   -1.2658    0.9521 C   0  0  0  0  0  0  0  0  0  0  0  0
   -0.5715    1.3838   -1.1939 C   0  0  0  0  0  0  0  0  0  0  0  0
    0.0953    0.8783   -1.9243 H   0  0  0  0  0  0  0  0  0  0  0  0
   -1.0840    2.2096   -1.7299 H   0  0  0  0  0  0  0  0  0  0  0  0
   -1.6837    0.3966   -0.7394 C   0  0  1  0  0  0  0  0  0  0  0  0
   -2.2784    0.2450   -1.6656 H   0  0  0  0  0  0  0  0  0  0  0  0
   -1.2020   -1.0379   -0.3774 C   0  0  0  0  0  0  0  0  0  0  0  0
   -2.0925   -1.6987   -0.4077 H   0  0  0  0  0  0  0  0  0  0  0  0
   -0.5059   -1.3951   -1.1659 H   0  0  0  0  0  0  0  0  0  0  0  0
   -2.6188    1.0180    0.3129 C   0  0  0  0  0  0  0  0  0  0  0  0
   -2.0809    1.0966    1.2834 H   0  0  0  0  0  0  0  0  0  0  0  0
   -2.8367    2.0657    0.0081 H   0  0  0  0  0  0  0  0  0  0  0  0
   -3.9615    0.3026    0.5258 C   0  0  0  0  0  0  0  0  0  0  0  0
   -4.4982    0.8087    1.3579 H   0  0  0  0  0  0  0  0  0  0  0  0
   -3.7981   -0.7398    0.8774 H   0  0  0  0  0  0  0  0  0  0  0  0
   -4.8750    0.2691   -0.7034 C   0  0  0  0  0  0  0  0  0  0  0  0
   -5.0183    1.3069   -1.0824 H   0  0  0  0  0  0  0  0  0  0  0  0
   -4.3813   -0.2852   -1.5326 H   0  0  0  0  0  0  0  0  0  0  0  0
   -6.2424   -0.3664   -0.4329 C   0  0  0  0  0  0  0  0  0  0  0  0
   -6.7460    0.1898    0.3892 H   0  0  0  0  0  0  0  0  0  0  0  0
   -6.0921   -1.3989   -0.0452 H   0  0  0  0  0  0  0  0  0  0  0  0
   -7.1500   -0.4053   -1.6625 C   0  0  0  0  0  0  0  0  0  0  0  0
   -8.1303   -0.8698   -1.4351 H   0  0  0  0  0  0  0  0  0  0  0  0
   -6.6875   -0.9873   -2.4869 H   0  0  0  0  0  0  0  0  0  0  0  0
   -7.3461    0.6159   -2.0512 H   0  0  0  0  0  0  0  0  0  0  0  0
  1  3  1  0  0  0  0
  2 12  1  0  0  0  0
  3  4  1  0  0  0  0
  3  5  1  0  0  0  0
  5  6  1  0  0  0  0
  7  5  2  0  0  0  0
  7  8  1  0  0  0  0
  9  7  1  0  0  0  0
 10  9  1  0  0  0  0
 11  1  1  0  0  0  0
 11  9  2  0  0  0  0
 12 14  1  0  0  0  0
 13 12  1  0  0  0  0
 14 15  1  0  0  0  0
 16 14  2  0  0  0  0
 16 17  1  0  0  0  0
 18 16  1  0  0  0  0
 19 18  1  0  0  0  0
 20  2  1  0  0  0  0
 20 18  2  0  0  0  0
 21 24  1  0  0  0  0
 21 11  1  0  0  0  0
 22 21  1  0  0  0  0
 23 21  1  0  0  0  0
 24 25  1  6  0  0  0
 24 26  1  0  0  0  0
 24 29  1  0  0  0  0
 26 20  1  0  0  0  0
 27 26  1  0  0  0  0
 28 26  1  0  0  0  0
 29 32  1  0  0  0  0
 29 30  1  0  0  0  0
 31 29  1  0  0  0  0
 32 34  1  0  0  0  0
 32 33  1  0  0  0  0
 35 38  1  0  0  0  0
 35 32  1  0  0  0  0
 36 35  1  0  0  0  0
 37 35  1  0  0  0  0
 38 40  1  0  0  0  0
 38 39  1  0  0  0  0
 41 42  1  0  0  0  0
 41 38  1  0  0  0  0
 43 41  1  0  0  0  0
 44 41  1  0  0  0  0
M  END
