1,12
q = -1.0, confidence = 0.0

 19 20  0  0  0  0  0  0  0  0999 V2000
    1.8284    1.3283    0.2288 N   0  0  0  0  0  2  0  0  0  0  0  0
    3.7391    2.3169    0.9323 C   0  0  0  0  0  0  0  0  0  0  0  0
    4.6269    2.5613    1.5233 H   0  0  0  0  0  0  0  0  0  0  0  0
    0.1132   -0.6789   -2.9286 C   0  0  0  0  0  3  0  0  0  0  0  0
   -0.2984   -1.6532   -2.6530 H   0  0  0  0  0  0  0  0  0  0  0  0
    0.4192   -0.1815   -4.2077 C   0  0  0  0  0  0  0  0  0  0  0  0
    0.2807   -0.6804   -5.1716 H   0  0  0  0  0  0  0  0  0  0  0  0
    0.9510    1.0879   -3.9658 C   0  0  0  0  0  0  0  0  0  0  0  0
    1.3288    1.8599   -4.6441 H   0  0  0  0  0  0  0  0  0  0  0  0
    2.7780    1.3236    1.1944 C   0  0  0  0  0  3  0  0  0  0  0  0
    2.7316    0.5963    2.0107 H   0  0  0  0  0  0  0  0  0  0  0  0
    0.4325    0.2333   -1.9802 N   0  0  0  0  0  2  0  0  0  0  0  0
    0.9443    1.3109   -2.6276 N   0  0  0  0  0  0  0  0  0  0  0  0
    2.1709    2.2961   -0.6636 N   0  0  0  0  0  0  0  0  0  0  0  0
    3.3163    2.9059   -0.2622 C   0  0  0  0  0  0  0  0  0  0  0  0
    3.7431    3.7137   -0.8657 H   0  0  0  0  0  0  0  0  0  0  0  0
    1.3283    2.6375   -1.9210 B   0  0  0  0  0  0  0  0  0  0  0  0
    0.3058    3.2552   -1.6213 H   0  0  0  0  0  0  0  0  0  0  0  0
    2.0298    3.2939   -2.6863 H   0  0  0  0  0  0  0  0  0  0  0  0
  1 10  1  0  0  0  0
  2 10  1  0  0  0  0
  2  3  1  0  0  0  0
  4  5  1  0  0  0  0
  4 12  1  0  0  0  0
  6  8  2  0  0  0  0
  6  4  1  0  0  0  0
  7  6  1  0  0  0  0
  8 13  1  0  0  0  0
  9  8  1  0  0  0  0
 10 11  1  0  0  0  0
 13 12  1  0  0  0  0
 13 17  1  0  0  0  0
 14 15  1  0  0  0  0
 14  1  1  0  0  0  0
 15  2  2  0  0  0  0
 16 15  1  0  0  0  0
 17 18  1  0  0  0  0
 17 14  1  0  0  0  0
 19 17  1  0  0  0  0
M  END
