1,18
q = 0.0, confidence = 1.0

 24 25  0  0  0  0  0  0  0  0999 V2000
   -1.0858   -1.2477   -0.2343 N   0  0  0  0  0  2  0  0  0  0  0  0
   -2.0969   -3.3899   -0.7252 C   0  0  0  0  0  0  0  0  0  0  0  0
   -1.9393   -4.4534   -0.9565 H   0  0  0  0  0  0  0  0  0  0  0  0
   -2.3425   -0.7076   -0.1570 C   0  0  0  0  0  0  0  0  0  0  0  0
   -2.3374    0.7354    0.1061 C   0  0  0  0  0  0  0  0  0  0  0  0
   -3.5013   -1.4760   -0.3301 C   0  0  0  0  0  0  0  0  0  0  0  0
   -4.4891   -0.9995   -0.2578 H   0  0  0  0  0  0  0  0  0  0  0  0
   -3.4064   -2.8555   -0.6141 C   0  0  0  0  0  0  0  0  0  0  0  0
   -3.4913    1.5121    0.2744 C   0  0  0  0  0  0  0  0  0  0  0  0
   -4.4821    1.0427    0.1969 H   0  0  0  0  0  0  0  0  0  0  0  0
   -0.9774    2.5873    0.4731 C   0  0  0  0  0  0  0  0  0  0  0  0
    0.0418    2.9804    0.5679 H   0  0  0  0  0  0  0  0  0  0  0  0
   -0.9945   -2.5677   -0.5276 C   0  0  0  0  0  0  0  0  0  0  0  0
    0.0224   -2.9685   -0.6158 H   0  0  0  0  0  0  0  0  0  0  0  0
   -2.0746    3.4186    0.6615 C   0  0  0  0  0  0  0  0  0  0  0  0
   -1.9100    4.4829    0.8841 H   0  0  0  0  0  0  0  0  0  0  0  0
   -3.3878    2.8925    0.5517 C   0  0  0  0  0  0  0  0  0  0  0  0
   -1.0769    1.2662    0.1876 N   0  0  0  0  0  2  0  0  0  0  0  0
   -4.5199   -3.6321   -0.8235 N   0  0  0  0  0  0  0  0  0  0  0  0
   -5.4254   -3.2793   -0.5185 H   0  0  0  0  0  0  0  0  0  0  0  0
   -4.4150   -4.6449   -0.7964 H   0  0  0  0  0  0  0  0  0  0  0  0
   -4.4957    3.6918    0.6806 N   0  0  0  0  0  0  0  0  0  0  0  0
   -4.3857    4.6219    1.0799 H   0  0  0  0  0  0  0  0  0  0  0  0
   -5.4071    3.2573    0.8118 H   0  0  0  0  0  0  0  0  0  0  0  0
  1  4  1  0  0  0  0
  2  8  1  0  0  0  0
  2 13  2  0  0  0  0
  3  2  1  0  0  0  0
  4  5  2  0  0  0  0
  5 18  1  0  0  0  0
  5  9  1  0  0  0  0
  6  7  1  0  0  0  0
  6  4  1  0  0  0  0
  8  6  2  0  0  0  0
  9 17  2  0  0  0  0
 10  9  1  0  0  0  0
 11 12  1  0  0  0  0
 11 15  2  0  0  0  0
 13  1  1  0  0  0  0
 14 13  1  0  0  0  0
 15 16  1  0  0  0  0
 17 15  1  0  0  0  0
 17 22  1  0  0  0  0
 18 11  1  0  0  0  0
 19 21  1  0  0  0  0
 19  8  1  0  0  0  0
 19 20  1  0  0  0  0
 22 24  1  0  0  0  0
 22 23  1  0  0  0  0
M  END
