48,49
q = 0.0, confidence = 0.998

 49 55  0  0  1  0  0  0  0  0999 V2000
    0.9814   -3.1171    0.1462 C   0  0  0  0  0  0  0  0  0  0  0  0
    1.1046   -4.3858    0.7337 C   0  0  0  0  0  0  0  0  0  0  0  0
    1.8825   -5.0776    0.3843 H   0  0  0  0  0  0  0  0  0  0  0  0
    0.2271   -4.7131    1.7786 C   0  0  0  0  0  0  0  0  0  0  0  0
    0.3000   -5.6929    2.2728 H   0  0  0  0  0  0  0  0  0  0  0  0
   -0.7295   -3.7803    2.2048 C   0  0  0  0  0  0  0  0  0  0  0  0
   -1.4168   -3.9841    3.0363 H   0  0  0  0  0  0  0  0  0  0  0  0
   -0.7797   -2.5428    1.5431 C   0  0  0  0  0  0  0  0  0  0  0  0
    1.8471   -2.5701   -0.9070 C   0  0  2  0  0  3  0  0  0  0  0  0
    2.8118   -1.0886   -2.2479 C   0  0  1  0  0  0  0  0  0  0  0  0
    2.4054   -0.5592   -3.1324 H   0  0  0  0  0  0  0  0  0  0  0  0
    3.9733   -0.3508   -1.6042 C   0  0  0  0  0  0  0  0  0  0  0  0
    3.9570    0.9118   -1.0014 C   0  0  0  0  0  0  0  0  0  0  0  0
    3.0192    1.4787   -0.9679 H   0  0  0  0  0  0  0  0  0  0  0  0
    5.1460    1.4027   -0.4420 C   0  0  0  0  0  0  0  0  0  0  0  0
    5.1480    2.3878    0.0476 H   0  0  0  0  0  0  0  0  0  0  0  0
    6.3257    0.6380   -0.4846 C   0  0  0  0  0  0  0  0  0  0  0  0
    7.2494    1.0336   -0.0352 H   0  0  0  0  0  0  0  0  0  0  0  0
    6.3348   -0.6307   -1.0875 C   0  0  0  0  0  0  0  0  0  0  0  0
    7.2591   -1.2286   -1.1139 H   0  0  0  0  0  0  0  0  0  0  0  0
    5.1479   -1.1251   -1.6466 C   0  0  0  0  0  0  0  0  0  0  0  0
    4.9186   -2.4374   -2.3618 C   0  0  0  0  0  0  0  0  0  0  0  0
    5.2940   -3.3197   -1.8044 H   0  0  0  0  0  0  0  0  0  0  0  0
    5.4144   -2.4522   -3.3565 H   0  0  0  0  0  0  0  0  0  0  0  0
    3.3967   -2.5108   -2.5347 C   0  0  1  0  0  0  0  0  0  0  0  0
    3.0734   -2.9630   -3.4930 H   0  0  0  0  0  0  0  0  0  0  0  0
   -1.6838   -1.4334    1.8827 C   0  0  1  0  0  3  0  0  0  0  0  0
   -2.6788    0.5659    1.8496 C   0  0  1  0  0  0  0  0  0  0  0  0
   -2.0938    1.4404    2.2024 H   0  0  0  0  0  0  0  0  0  0  0  0
   -3.8986    0.9813    1.0478 C   0  0  0  0  0  0  0  0  0  0  0  0
   -3.9865    1.9247    0.0145 C   0  0  0  0  0  0  0  0  0  0  0  0
   -3.0971    2.4591   -0.3354 H   0  0  0  0  0  0  0  0  0  0  0  0
   -5.2358    2.1676   -0.5760 C   0  0  0  0  0  0  0  0  0  0  0  0
   -5.3134    2.9013   -1.3921 H   0  0  0  0  0  0  0  0  0  0  0  0
   -6.3815    1.4813   -0.1372 C   0  0  0  0  0  0  0  0  0  0  0  0
   -7.3541    1.6803   -0.6124 H   0  0  0  0  0  0  0  0  0  0  0  0
   -6.2962    0.5515    0.9111 C   0  0  0  0  0  0  0  0  0  0  0  0
   -7.1967    0.0275    1.2672 H   0  0  0  0  0  0  0  0  0  0  0  0
   -5.0492    0.3083    1.5043 C   0  0  0  0  0  0  0  0  0  0  0  0
   -4.7424   -0.6140    2.6605 C   0  0  0  0  0  0  0  0  0  0  0  0
   -4.8482   -1.6823    2.3741 H   0  0  0  0  0  0  0  0  0  0  0  0
   -5.4140   -0.4465    3.5270 H   0  0  0  0  0  0  0  0  0  0  0  0
   -3.2668   -0.3216    3.0030 C   0  0  1  0  0  0  0  0  0  0  0  0
   -3.1273    0.1075    4.0122 H   0  0  0  0  0  0  0  0  0  0  0  0
    2.7891   -3.3324   -1.4718 O   0  0  0  0  0  0  0  0  0  0  0  0
   -2.4638   -1.5419    2.9602 O   0  0  0  0  0  0  0  0  0  0  0  0
    0.0488   -2.2367    0.5375 N   0  0  0  0  0  0  0  0  0  0  0  0
    1.7165   -1.3447   -1.2985 N   0  0  0  0  0  2  0  0  0  0  0  0
   -1.7279   -0.3488    1.1755 N   0  0  0  0  0  2  0  0  0  0  0  0
  1 47  2  0  0  0  0
  1  2  1  0  0  0  0
  2  4  2  0  0  0  0
  3  2  1  0  0  0  0
  4  6  1  0  0  0  0
  4  5  1  0  0  0  0
  6  7  1  0  0  0  0
  8  6  2  0  0  0  0
  9  1  1  1  0  0  0
 10 11  1  6  0  0  0
 10 12  1  0  0  0  0
 10 48  1  0  0  0  0
 12 13  1  0  0  0  0
 13 14  1  0  0  0  0
 13 15  2  0  0  0  0
 15 16  1  0  0  0  0
 17 15  1  0  0  0  0
 17 18  1  0  0  0  0
 19 17  2  0  0  0  0
 20 19  1  0  0  0  0
 21 12  2  0  0  0  0
 21 19  1  0  0  0  0
 22 23  1  0  0  0  0
 22 21  1  0  0  0  0
 24 22  1  0  0  0  0
 25 26  1  6  0  0  0
 25 22  1  0  0  0  0
 25 10  1  0  0  0  0
 25 45  1  0  0  0  0
 27  8  1  1  0  0  0
 27 46  1  0  0  0  0
 28 29  1  1  0  0  0
 28 43  1  0  0  0  0
 30 39  1  0  0  0  0
 30 28  1  0  0  0  0
 31 30  2  0  0  0  0
 32 31  1  0  0  0  0
 33 35  2  0  0  0  0
 33 31  1  0  0  0  0
 34 33  1  0  0  0  0
 35 37  1  0  0  0  0
 36 35  1  0  0  0  0
 37 38  1  0  0  0  0
 37 39  2  0  0  0  0
 39 40  1  0  0  0  0
 40 43  1  0  0  0  0
 40 42  1  0  0  0  0
 41 40  1  0  0  0  0
 43 44  1  1  0  0  0
 45  9  1  0  0  0  0
 46 43  1  0  0  0  0
 47  8  1  0  0  0  0
 48  9  1  0  0  0  0
 49 28  1  0  0  0  0
 49 27  1  0  0  0  0
M  END
