1,18
q = 0.0, confidence = 1.0

 24 25  0  0  0  0  0  0  0  0999 V2000
   -1.3171    0.5600    0.2350 N   0  0  0  0  0  2  0  0  0  0  0  0
   -2.6563    0.5050    0.4779 C   0  0  0  0  0  0  0  0  0  0  0  0
   -3.4886    1.6141    0.1596 C   0  0  0  0  0  0  0  0  0  0  0  0
   -4.5709    1.5454    0.3377 H   0  0  0  0  0  0  0  0  0  0  0  0
   -2.9124    2.7711   -0.3446 C   0  0  0  0  0  0  0  0  0  0  0  0
   -3.5448    3.6346   -0.5967 H   0  0  0  0  0  0  0  0  0  0  0  0
   -1.5139    2.8547   -0.4919 C   0  0  0  0  0  0  0  0  0  0  0  0
   -1.0455    3.7835   -0.8380 H   0  0  0  0  0  0  0  0  0  0  0  0
   -0.7385    1.7388   -0.1753 C   0  0  0  0  0  0  0  0  0  0  0  0
    0.7376    1.7391   -0.1754 C   0  0  0  0  0  0  0  0  0  0  0  0
    1.5125    2.8551   -0.4927 C   0  0  0  0  0  0  0  0  0  0  0  0
    1.0436    3.7836   -0.8392 H   0  0  0  0  0  0  0  0  0  0  0  0
    2.9110    2.7722   -0.3457 C   0  0  0  0  0  0  0  0  0  0  0  0
    3.5431    3.6358   -0.5983 H   0  0  0  0  0  0  0  0  0  0  0  0
    3.4878    1.6156    0.1589 C   0  0  0  0  0  0  0  0  0  0  0  0
    4.5702    1.5474    0.3368 H   0  0  0  0  0  0  0  0  0  0  0  0
    2.6560    0.5064    0.4779 C   0  0  0  0  0  0  0  0  0  0  0  0
    1.3168    0.5607    0.2353 N   0  0  0  0  0  2  0  0  0  0  0  0
   -3.1680   -0.6316    1.0129 N   0  0  0  0  0  0  0  0  0  0  0  0
   -2.5464   -1.2815    1.4955 H   0  0  0  0  0  0  0  0  0  0  0  0
   -4.1622   -0.6850    1.2291 H   0  0  0  0  0  0  0  0  0  0  0  0
    3.1683   -0.6300    1.0130 N   0  0  0  0  0  0  0  0  0  0  0  0
    2.5471   -1.2797    1.4964 H   0  0  0  0  0  0  0  0  0  0  0  0
    4.1626   -0.6828    1.2291 H   0  0  0  0  0  0  0  0  0  0  0  0
  1  2  1  0  0  0  0
  2 19  1  0  0  0  0
  3  4  1  0  0  0  0
  3  2  2  0  0  0  0
  5  3  1  0  0  0  0
  6  5  1  0  0  0  0
  7  5  2  0  0  0  0
  7  9  1  0  0  0  0
  8  7  1  0  0  0  0
  9  1  1  0  0  0  0
 10  9  2  0  0  0  0
 10 18  1  0  0  0  0
 11 13  2  0  0  0  0
 11 10  1  0  0  0  0
 12 11  1  0  0  0  0
 13 15  1  0  0  0  0
 14 13  1  0  0  0  0
 15 16  1  0  0  0  0
 15 17  2  0  0  0  0
 17 22  1  0  0  0  0
 18 17  1  0  0  0  0
 19 21  1  0  0  0  0
 19 20  1  0  0  0  0
 22 24  1  0  0  0  0
 22 23  1  0  0  0  0
M  END
