1,2
q = 0.0, confidence = 1.0

 27 28  0  0  0  0  0  0  0  0999 V2000
    1.9081   -0.1372   -0.1828 N   0  0  0  0  0  2  0  0  0  0  0  0
   -0.4102    1.2034    0.1404 N   0  0  0  0  0  2  0  0  0  0  0  0
    3.0377   -0.8423   -0.3107 C   0  0  0  0  0  3  0  0  0  0  0  0
    2.9207   -1.9296   -0.4467 H   0  0  0  0  0  0  0  0  0  0  0  0
    4.3050   -0.2377   -0.2719 C   0  0  0  0  0  0  0  0  0  0  0  0
    5.2100   -0.8515   -0.3834 H   0  0  0  0  0  0  0  0  0  0  0  0
    4.3826    1.1500   -0.0888 C   0  0  0  0  0  0  0  0  0  0  0  0
    5.3588    1.6561   -0.0530 H   0  0  0  0  0  0  0  0  0  0  0  0
    3.1975    1.8856    0.0525 C   0  0  0  0  0  0  0  0  0  0  0  0
    3.2154    2.9750    0.2038 H   0  0  0  0  0  0  0  0  0  0  0  0
    1.9692    1.2039    0.0023 C   0  0  0  0  0  0  0  0  0  0  0  0
    0.6738    1.8918    0.1595 C   0  0  0  0  0  3  0  0  0  0  0  0
    0.6732    2.9942    0.2977 H   0  0  0  0  0  0  0  0  0  0  0  0
   -1.7261    1.7994    0.2775 C   0  0  0  0  0  0  0  0  0  0  0  0
   -1.6193    2.8786    0.5294 H   0  0  0  0  0  0  0  0  0  0  0  0
   -2.5362    1.0324    1.3638 C   0  0  0  0  0  0  0  0  0  0  0  0
   -3.1474    1.7714    1.9226 H   0  0  0  0  0  0  0  0  0  0  0  0
   -1.8702    0.5143    2.0831 H   0  0  0  0  0  0  0  0  0  0  0  0
   -3.4387    0.0720    0.5775 C   0  0  0  0  0  0  0  0  0  0  0  0
   -2.8607   -0.8230    0.2603 H   0  0  0  0  0  0  0  0  0  0  0  0
   -4.2991   -0.2911    1.1740 H   0  0  0  0  0  0  0  0  0  0  0  0
   -3.8346    0.8930   -0.6554 C   0  0  0  0  0  0  0  0  0  0  0  0
   -4.6083    1.6439   -0.3831 H   0  0  0  0  0  0  0  0  0  0  0  0
   -4.2414    0.2745   -1.4795 H   0  0  0  0  0  0  0  0  0  0  0  0
   -2.5201    1.5873   -1.0560 C   0  0  0  0  0  0  0  0  0  0  0  0
   -2.6569    2.5423   -1.6006 H   0  0  0  0  0  0  0  0  0  0  0  0
   -1.9336    0.9027   -1.7035 H   0  0  0  0  0  0  0  0  0  0  0  0
  1 11  1  0  0  0  0
  2 12  1  0  0  0  0
  2 14  1  0  0  0  0
  3  5  1  0  0  0  0
  3  1  1  0  0  0  0
  4  3  1  0  0  0  0
  5  7  2  0  0  0  0
  6  5  1  0  0  0  0
  7  8  1  0  0  0  0
  7  9  1  0  0  0  0
  9 10  1  0  0  0  0
 11  9  2  0  0  0  0
 11 12  1  0  0  0  0
 12 13  1  0  0  0  0
 14 15  1  0  0  0  0
 14 16  1  0  0  0  0
 16 17  1  0  0  0  0
 16 18  1  0  0  0  0
 19 21  1  0  0  0  0
 19 16  1  0  0  0  0
 20 19  1  0  0  0  0
 22 23  1  0  0  0  0
 22 19  1  0  0  0  0
 24 22  1  0  0  0  0
 25 22  1  0  0  0  0
 25 14  1  0  0  0  0
 26 25  1  0  0  0  0
 27 25  1  0  0  0  0
M  END
