45,58
q = 0.0, confidence = 0.98

 70 75  0  0  1  0  0  0  0  0999 V2000
    0.3738    3.7404    1.0936 N   0  0  0  0  0  0  0  0  0  0  0  0
   -0.2344    4.4861    2.1959 C   0  0  0  0  0  0  0  0  0  0  0  0
    0.5855    4.9295    2.7845 H   0  0  0  0  0  0  0  0  0  0  0  0
   -0.8264    3.7858    2.8179 H   0  0  0  0  0  0  0  0  0  0  0  0
   -0.9059    5.2676    1.7964 H   0  0  0  0  0  0  0  0  0  0  0  0
    1.7619    3.5596    1.0992 C   0  0  0  0  0  0  0  0  0  0  0  0
    2.4973    4.0777    1.9268 O   0  0  0  0  0  0  0  0  0  0  0  0
    2.2943    2.7539    0.0669 N   0  0  0  0  0  0  0  0  0  0  0  0
    3.7498    2.6275    0.0725 C   0  0  0  0  0  0  0  0  0  0  0  0
    4.0326    2.0316   -0.8116 H   0  0  0  0  0  0  0  0  0  0  0  0
    4.0863    2.1328    1.0046 H   0  0  0  0  0  0  0  0  0  0  0  0
    4.2187    3.6287    0.0366 H   0  0  0  0  0  0  0  0  0  0  0  0
    1.5651    2.0554   -0.9118 C   0  0  0  0  0  0  0  0  0  0  0  0
    2.1163    1.3652   -1.7682 O   0  0  0  0  0  0  0  0  0  0  0  0
    0.1042    2.2183   -0.7797 C   0  0  0  0  0  0  0  0  0  0  0  0
   -0.7107    1.5003   -1.5566 N   0  0  0  0  0  0  0  0  0  0  0  0
   -2.0299    1.6215   -1.4226 C   0  0  0  0  0  0  0  0  0  0  0  0
   -2.5742    2.6087   -0.5369 C   0  0  0  0  0  0  0  0  0  0  0  0
   -4.0416    2.9024   -0.3830 C   0  0  0  0  0  0  0  0  0  0  0  0
   -4.5757    2.9735   -1.3500 H   0  0  0  0  0  0  0  0  0  0  0  0
   -4.5252    2.1037    0.2176 H   0  0  0  0  0  0  0  0  0  0  0  0
   -4.1514    3.8554    0.1657 H   0  0  0  0  0  0  0  0  0  0  0  0
   -1.7607    3.3317    0.2398 N   0  0  0  0  0  0  0  0  0  0  0  0
   -0.4414    3.0962    0.1883 C   0  0  0  0  0  0  0  0  0  0  0  0
   -2.8653    0.6879   -2.3301 C   0  0  1  0  0  0  0  0  0  0  0  0
   -3.2214    1.4442   -3.6256 C   0  0  0  0  0  0  0  0  0  0  0  0
   -2.2982    1.8140   -4.1093 H   0  0  0  0  0  0  0  0  0  0  0  0
   -3.7528    0.7756   -4.3328 H   0  0  0  0  0  0  0  0  0  0  0  0
   -3.8662    2.3215   -3.4150 H   0  0  0  0  0  0  0  0  0  0  0  0
    4.2542   -1.2469   -1.5293 N   0  0  0  0  0  0  0  0  0  0  0  0
    5.0003   -1.3062   -2.7856 C   0  0  0  0  0  0  0  0  0  0  0  0
    6.0680   -1.1808   -2.5406 H   0  0  0  0  0  0  0  0  0  0  0  0
    4.8215   -2.2769   -3.2847 H   0  0  0  0  0  0  0  0  0  0  0  0
    4.6590   -0.4983   -3.4614 H   0  0  0  0  0  0  0  0  0  0  0  0
    4.9582   -0.9800   -0.3434 C   0  0  0  0  0  0  0  0  0  0  0  0
    6.1682   -0.8140   -0.3183 O   0  0  0  0  0  0  0  0  0  0  0  0
    4.1956   -0.9184    0.8460 N   0  0  0  0  0  0  0  0  0  0  0  0
    4.9575   -0.6680    2.0705 C   0  0  0  0  0  0  0  0  0  0  0  0
    5.6958   -1.4767    2.2281 H   0  0  0  0  0  0  0  0  0  0  0  0
    5.5095    0.2872    1.9828 H   0  0  0  0  0  0  0  0  0  0  0  0
    4.2378   -0.6283    2.9053 H   0  0  0  0  0  0  0  0  0  0  0  0
    2.1966   -0.9357    2.0027 O   0  0  0  0  0  0  0  0  0  0  0  0
    2.1423   -1.2534   -0.3592 C   0  0  1  0  0  3  0  0  0  0  0  0
    2.8072   -1.0360    0.9351 C   0  0  0  0  0  0  0  0  0  0  0  0
    0.8117   -1.2389   -0.4018 N   0  0  0  0  0  2  0  0  0  0  0  0
    0.1625   -1.3623   -1.5685 C   0  0  0  0  0  0  0  0  0  0  0  0
    0.9335   -1.6855   -2.7413 C   0  0  0  0  0  0  0  0  0  0  0  0
    0.3243   -2.1270   -4.0437 C   0  0  0  0  0  0  0  0  0  0  0  0
   -0.6501   -2.6302   -3.9060 H   0  0  0  0  0  0  0  0  0  0  0  0
    0.1731   -1.2628   -4.7242 H   0  0  0  0  0  0  0  0  0  0  0  0
    1.0306   -2.8134   -4.5467 H   0  0  0  0  0  0  0  0  0  0  0  0
    2.2707   -1.6805   -2.7054 N   0  0  0  0  0  0  0  0  0  0  0  0
    2.8837   -1.3899   -1.5507 C   0  0  0  0  0  0  0  0  0  0  0  0
   -1.3170   -1.1786   -1.5265 C   0  0  2  0  0  3  0  0  0  0  0  0
   -2.0102   -0.5645   -2.7156 C   0  0  0  0  0  0  0  0  0  0  0  0
   -2.7040   -1.2846   -3.1956 H   0  0  0  0  0  0  0  0  0  0  0  0
   -1.2610   -0.2501   -3.4588 H   0  0  0  0  0  0  0  0  0  0  0  0
   -1.8980   -1.4876   -0.4048 N   0  0  0  0  0  2  0  0  0  0  0  0
   -4.1013    0.2556   -1.7198 N   0  0  0  0  0  0  0  0  0  0  0  0
   -4.9479    0.7281   -2.0325 H   0  0  0  0  0  0  0  0  0  0  0  0
   -3.2407   -1.4039   -0.0522 C   0  0  0  0  0  0  0  0  0  0  0  0
   -4.2762   -0.6106   -0.6643 C   0  0  0  0  0  0  0  0  0  0  0  0
   -5.5918   -0.7021   -0.1310 C   0  0  0  0  0  0  0  0  0  0  0  0
   -6.3820   -0.0913   -0.5979 H   0  0  0  0  0  0  0  0  0  0  0  0
   -5.8999   -1.5257    0.9477 C   0  0  0  0  0  0  0  0  0  0  0  0
   -6.9344   -1.5614    1.3215 H   0  0  0  0  0  0  0  0  0  0  0  0
   -4.8899   -2.2943    1.5599 C   0  0  0  0  0  0  0  0  0  0  0  0
   -5.1156   -2.9437    2.4174 H   0  0  0  0  0  0  0  0  0  0  0  0
   -3.5928   -2.2146    1.0676 C   0  0  0  0  0  0  0  0  0  0  0  0
   -2.7842   -2.8095    1.5255 H   0  0  0  0  0  0  0  0  0  0  0  0
  1  6  1  0  0  0  0
  1  2  1  0  0  0  0
  2  3  1  0  0  0  0
  2  4  1  0  0  0  0
  5  2  1  0  0  0  0
  6  7  2  0  0  0  0
  8  9  1  0  0  0  0
  8  6  1  0  0  0  0
  9 11  1  0  0  0  0
 10  9  1  0  0  0  0
 12  9  1  0  0  0  0
 13 15  1  0  0  0  0
 13  8  1  0  0  0  0
 14 13  2  0  0  0  0
 15 24  1  0  0  0  0
 16 17  1  0  0  0  0
 16 15  2  0  0  0  0
 17 18  2  0  0  0  0
 18 19  1  0  0  0  0
 18 23  1  0  0  0  0
 19 22  1  0  0  0  0
 19 21  1  0  0  0  0
 20 19  1  0  0  0  0
 24 23  2  0  0  0  0
 24  1  1  0  0  0  0
 25 26  1  6  0  0  0
 25 59  1  0  0  0  0
 25 17  1  0  0  0  0
 26 29  1  0  0  0  0
 27 26  1  0  0  0  0
 28 26  1  0  0  0  0
 30 35  1  0  0  0  0
 31 32  1  0  0  0  0
 31 30  1  0  0  0  0
 33 31  1  0  0  0  0
 34 31  1  0  0  0  0
 35 36  2  0  0  0  0
 35 37  1  0  0  0  0
 37 44  1  0  0  0  0
 37 38  1  0  0  0  0
 38 39  1  0  0  0  0
 38 41  1  0  0  0  0
 40 38  1  0  0  0  0
 43 53  1  6  0  0  0
 43 44  1  0  0  0  0
 44 42  2  0  0  0  0
 45 43  1  0  0  0  0
 46 45  1  0  0  0  0
 47 52  1  0  0  0  0
 47 46  2  0  0  0  0
 48 49  1  0  0  0  0
 48 47  1  0  0  0  0
 50 48  1  0  0  0  0
 51 48  1  0  0  0  0
 52 53  2  0  0  0  0
 53 30  1  0  0  0  0
 54 46  1  1  0  0  0
 54 58  1  0  0  0  0
 55 25  1  0  0  0  0
 55 54  1  0  0  0  0
 56 55  1  0  0  0  0
 57 55  1  0  0  0  0
 58 61  1  0  0  0  0
 59 62  1  0  0  0  0
 60 59  1  0  0  0  0
 61 69  1  0  0  0  0
 62 63  1  0  0  0  0
 62 61  2  0  0  0  0
 63 65  2  0  0  0  0
 64 63  1  0  0  0  0
 65 66  1  0  0  0  0
 65 67  1  0  0  0  0
 67 68  1  0  0  0  0
 69 70  1  0  0  0  0
 69 67  2  0  0  0  0
M  END
