1,2
q = 0.0, confidence = 0.994

 29 29  0  0  0  0  0  0  0  0999 V2000
    1.9434   -2.1713    0.1936 N   0  0  0  0  0  0  0  0  0  0  0  0
   -0.8524   -1.9135   -0.4137 N   0  0  0  0  0  2  0  0  0  0  0  0
    2.9420   -2.1511   -0.8925 C   0  0  0  0  0  0  0  0  0  0  0  0
    2.4335   -2.1581   -1.8745 H   0  0  0  0  0  0  0  0  0  0  0  0
    3.6218   -3.0333   -0.8233 H   0  0  0  0  0  0  0  0  0  0  0  0
    3.5314   -1.2180   -0.8271 H   0  0  0  0  0  0  0  0  0  0  0  0
    2.6257   -2.1623    1.4988 C   0  0  0  0  0  0  0  0  0  0  0  0
    1.8726   -2.1255    2.3083 H   0  0  0  0  0  0  0  0  0  0  0  0
    3.2552   -1.2556    1.5695 H   0  0  0  0  0  0  0  0  0  0  0  0
    3.2657   -3.0669    1.6284 H   0  0  0  0  0  0  0  0  0  0  0  0
    1.0452   -3.3434    0.0674 C   0  0  0  0  0  0  0  0  0  0  0  0
    1.6168   -4.2505   -0.2403 H   0  0  0  0  0  0  0  0  0  0  0  0
    0.6060   -3.5458    1.0646 H   0  0  0  0  0  0  0  0  0  0  0  0
   -0.0935   -3.0631   -0.9120 C   0  0  0  0  0  0  0  0  0  0  0  0
   -0.7327   -3.9688   -1.0149 H   0  0  0  0  0  0  0  0  0  0  0  0
    0.3138   -2.8186   -1.9163 H   0  0  0  0  0  0  0  0  0  0  0  0
   -2.1399   -2.0549   -0.2986 C   0  0  0  0  0  3  0  0  0  0  0  0
   -2.5927   -2.9928   -0.6912 H   0  0  0  0  0  0  0  0  0  0  0  0
   -3.0862   -1.1135    0.2923 C   0  0  0  0  0  0  0  0  0  0  0  0
   -2.7011   -0.1185    1.2202 C   0  0  0  0  0  0  0  0  0  0  0  0
   -1.6447   -0.0482    1.5165 H   0  0  0  0  0  0  0  0  0  0  0  0
   -3.6514    0.7712    1.7277 C   0  0  0  0  0  0  0  0  0  0  0  0
   -3.3365    1.5563    2.4304 H   0  0  0  0  0  0  0  0  0  0  0  0
   -4.9967    0.6754    1.3304 C   0  0  0  0  0  0  0  0  0  0  0  0
   -5.7384    1.3862    1.7254 H   0  0  0  0  0  0  0  0  0  0  0  0
   -5.3970   -0.3315    0.4367 C   0  0  0  0  0  0  0  0  0  0  0  0
   -6.4513   -0.4154    0.1333 H   0  0  0  0  0  0  0  0  0  0  0  0
   -4.4494   -1.2278   -0.0703 C   0  0  0  0  0  0  0  0  0  0  0  0
   -4.7571   -2.0159   -0.7761 H   0  0  0  0  0  0  0  0  0  0  0  0
  1  7  1  0  0  0  0
  2 17  1  0  0  0  0
  3  6  1  0  0  0  0
  3  5  1  0  0  0  0
  3  1  1  0  0  0  0
  4  3  1  0  0  0  0
  7  9  1  0  0  0  0
  7 10  1  0  0  0  0
  7  8  1  0  0  0  0
 11  1  1  0  0  0  0
 11 13  1  0  0  0  0
 12 11  1  0  0  0  0
 14  2  1  0  0  0  0
 14 11  1  0  0  0  0
 15 14  1  0  0  0  0
 16 14  1  0  0  0  0
 17 19  1  0  0  0  0
 18 17  1  0  0  0  0
 19 20  1  0  0  0  0
 20 21  1  0  0  0  0
 20 22  2  0  0  0  0
 22 23  1  0  0  0  0
 24 25  1  0  0  0  0
 24 22  1  0  0  0  0
 26 24  2  0  0  0  0
 27 26  1  0  0  0  0
 28 19  2  0  0  0  0
 28 26  1  0  0  0  0
 29 28  1  0  0  0  0
M  END
