1,3
q = 0.0, confidence = 0.994

 28 30  0  0  0  0  0  0  0  0999 V2000
    0.3241   -1.1420   -0.3251 N   0  0  0  0  0  2  0  0  0  0  0  0
    2.7479   -2.4922   -0.5021 N   0  0  0  0  0  0  0  0  0  0  0  0
    0.0355    1.4480   -0.2785 N   0  0  0  0  0  2  0  0  0  0  0  0
    4.0089    0.4501    0.9960 N   0  0  0  0  0  0  0  0  0  0  0  0
    1.5062   -0.4339   -0.3436 C   0  0  0  0  0  0  0  0  0  0  0  0
    2.7298   -1.1648   -0.2848 C   0  0  0  0  0  0  0  0  0  0  0  0
    1.5816   -3.1339   -0.6338 C   0  0  0  0  0  0  0  0  0  0  0  0
    1.6127   -4.2148   -0.8500 H   0  0  0  0  0  0  0  0  0  0  0  0
    0.3560   -2.4867   -0.4553 C   0  0  0  0  0  0  0  0  0  0  0  0
   -0.6218   -2.9962   -0.4119 H   0  0  0  0  0  0  0  0  0  0  0  0
    1.3256    1.0167   -0.4736 C   0  0  0  0  0  0  0  0  0  0  0  0
    2.3212    1.9263   -0.8777 C   0  0  0  0  0  0  0  0  0  0  0  0
    3.3294    1.5619   -1.1006 H   0  0  0  0  0  0  0  0  0  0  0  0
    2.0125    3.2812   -1.0102 C   0  0  0  0  0  0  0  0  0  0  0  0
    2.7851    3.9951   -1.3306 H   0  0  0  0  0  0  0  0  0  0  0  0
    0.7048    3.7105   -0.7305 C   0  0  0  0  0  0  0  0  0  0  0  0
    0.4175    4.7688   -0.8038 H   0  0  0  0  0  0  0  0  0  0  0  0
   -0.2598    2.7654   -0.3826 C   0  0  0  0  0  0  0  0  0  0  0  0
   -1.3153    3.0186   -0.1860 H   0  0  0  0  0  0  0  0  0  0  0  0
    4.0391   -0.5804    0.1277 C   0  0  0  0  0  0  0  0  0  0  0  0
    5.2406   -1.1727   -0.3161 C   0  0  0  0  0  0  0  0  0  0  0  0
    5.1973   -2.0288   -1.0029 H   0  0  0  0  0  0  0  0  0  0  0  0
    6.4528   -0.6523    0.1535 C   0  0  0  0  0  0  0  0  0  0  0  0
    7.4096   -1.0832   -0.1782 H   0  0  0  0  0  0  0  0  0  0  0  0
    6.4249    0.4211    1.0559 C   0  0  0  0  0  0  0  0  0  0  0  0
    7.3525    0.8572    1.4550 H   0  0  0  0  0  0  0  0  0  0  0  0
    5.1737    0.9305    1.4473 C   0  0  0  0  0  0  0  0  0  0  0  0
    5.1115    1.7683    2.1644 H   0  0  0  0  0  0  0  0  0  0  0  0
  2  6  2  0  0  0  0
  4 27  1  0  0  0  0
  5  1  1  0  0  0  0
  5  6  1  0  0  0  0
  6 20  1  0  0  0  0
  7  2  1  0  0  0  0
  7  9  2  0  0  0  0
  8  7  1  0  0  0  0
  9 10  1  0  0  0  0
  9  1  1  0  0  0  0
 11  5  2  0  0  0  0
 11  3  1  0  0  0  0
 12 11  1  0  0  0  0
 13 12  1  0  0  0  0
 14 12  2  0  0  0  0
 14 16  1  0  0  0  0
 15 14  1  0  0  0  0
 16 18  2  0  0  0  0
 17 16  1  0  0  0  0
 18  3  1  0  0  0  0
 18 19  1  0  0  0  0
 20  4  2  0  0  0  0
 21 20  1  0  0  0  0
 21 23  2  0  0  0  0
 22 21  1  0  0  0  0
 23 25  1  0  0  0  0
 24 23  1  0  0  0  0
 25 27  2  0  0  0  0
 25 26  1  0  0  0  0
 27 28  1  0  0  0  0
M  END
