1,9
q = 0.0, confidence = 0.99

 22 23  0  0  1  0  0  0  0  0999 V2000
    0.9581   -0.9009    1.2737 N   0  0  0  0  0  2  0  0  0  0  0  0
    2.2045   -1.3631    1.5467 C   0  0  2  0  0  3  0  0  0  0  0  0
    2.4552   -2.1829    2.6619 C   0  0  0  0  0  0  0  0  0  0  0  0
    1.4096   -2.5121    3.5280 C   0  0  0  0  0  0  0  0  0  0  0  0
    0.1324   -1.9970    3.2608 C   0  0  0  0  0  0  0  0  0  0  0  0
   -0.0486   -1.2059    2.1235 C   0  0  0  0  0  0  0  0  0  0  0  0
    3.4121   -0.9667    0.7251 C   0  0  0  0  0  0  0  0  0  0  0  0
    4.4557   -1.5924    0.8738 O   0  0  0  0  0  0  0  0  0  0  0  0
    2.3466    0.9958   -0.4671 N   0  0  0  0  0  2  0  0  0  0  0  0
    3.4573    0.3707    0.0180 C   0  0  1  0  0  3  0  0  0  0  0  0
    4.7306    0.9646   -0.0728 C   0  0  0  0  0  0  0  0  0  0  0  0
    4.8780    2.2262   -0.6502 C   0  0  0  0  0  0  0  0  0  0  0  0
    3.7282    2.8740   -1.1280 C   0  0  0  0  0  0  0  0  0  0  0  0
    2.4969    2.2276   -1.0250 C   0  0  0  0  0  0  0  0  0  0  0  0
    3.4851   -2.5357    2.8102 H   0  0  0  0  0  0  0  0  0  0  0  0
    1.5877   -3.1543    4.4032 H   0  0  0  0  0  0  0  0  0  0  0  0
   -0.7244   -2.2117    3.9148 H   0  0  0  0  0  0  0  0  0  0  0  0
   -1.0422   -0.8090    1.8719 H   0  0  0  0  0  0  0  0  0  0  0  0
    5.5804    0.3896    0.3202 H   0  0  0  0  0  0  0  0  0  0  0  0
    5.8686    2.6971   -0.7295 H   0  0  0  0  0  0  0  0  0  0  0  0
    3.7765    3.8673   -1.5960 H   0  0  0  0  0  0  0  0  0  0  0  0
    1.5843    2.6917   -1.4245 H   0  0  0  0  0  0  0  0  0  0  0  0
  1  2  1  0  0  0  0
  1  6  1  0  0  0  0
  2  7  1  1  0  0  0
  2  3  1  0  0  0  0
  3 15  1  0  0  0  0
  3  4  2  0  0  0  0
  4 16  1  0  0  0  0
  5  4  1  0  0  0  0
  5 17  1  0  0  0  0
  6  5  2  0  0  0  0
  7  8  2  0  0  0  0
  9 10  1  0  0  0  0
 10  7  1  1  0  0  0
 11 10  1  0  0  0  0
 11 19  1  0  0  0  0
 12 11  2  0  0  0  0
 13 14  2  0  0  0  0
 13 12  1  0  0  0  0
 14  9  1  0  0  0  0
 18  6  1  0  0  0  0
 20 12  1  0  0  0  0
 21 13  1  0  0  0  0
 22 14  1  0  0  0  0
M  END
