1,2
q = 0.0, confidence = 0.998

 54 58  0  0  0  0  0  0  0  0999 V2000
   -1.3324   -0.2277   -0.0205 N   0  0  0  0  0  2  0  0  0  0  0  0
    1.3322   -0.2280   -0.0204 N   0  0  0  0  0  2  0  0  0  0  0  0
   -2.7428   -0.3381    0.0610 C   0  0  0  0  0  0  0  0  0  0  0  0
   -3.4305    0.2536    1.1408 C   0  0  0  0  0  0  0  0  0  0  0  0
   -2.8594    0.7909    1.9128 H   0  0  0  0  0  0  0  0  0  0  0  0
   -4.8247    0.1316    1.2426 C   0  0  0  0  0  0  0  0  0  0  0  0
   -5.5099   -0.5884    0.2397 C   0  0  0  0  0  0  0  0  0  0  0  0
   -6.6051   -0.6911    0.3102 H   0  0  0  0  0  0  0  0  0  0  0  0
   -4.8368   -1.1997   -0.8336 C   0  0  0  0  0  0  0  0  0  0  0  0
   -3.4365   -1.0783   -0.9093 C   0  0  0  0  0  0  0  0  0  0  0  0
   -2.8708   -1.5599   -1.7177 H   0  0  0  0  0  0  0  0  0  0  0  0
   -5.5718    0.7206    2.4133 C   0  0  0  0  0  0  0  0  0  0  0  0
   -5.8375   -0.0675    3.1499 H   0  0  0  0  0  0  0  0  0  0  0  0
   -6.5211    1.1951    2.0927 H   0  0  0  0  0  0  0  0  0  0  0  0
   -4.9675    1.4803    2.9460 H   0  0  0  0  0  0  0  0  0  0  0  0
   -5.5734   -2.0112   -1.8681 C   0  0  0  0  0  0  0  0  0  0  0  0
   -5.2531   -3.0733   -1.8230 H   0  0  0  0  0  0  0  0  0  0  0  0
   -5.3549   -1.6542   -2.8955 H   0  0  0  0  0  0  0  0  0  0  0  0
   -6.6691   -1.9762   -1.7159 H   0  0  0  0  0  0  0  0  0  0  0  0
    2.7426   -0.3387    0.0611 C   0  0  0  0  0  0  0  0  0  0  0  0
    3.4302    0.2524    1.1413 C   0  0  0  0  0  0  0  0  0  0  0  0
    2.8590    0.7892    1.9136 H   0  0  0  0  0  0  0  0  0  0  0  0
    4.8244    0.1304    1.2431 C   0  0  0  0  0  0  0  0  0  0  0  0
    5.5096   -0.5890    0.2397 C   0  0  0  0  0  0  0  0  0  0  0  0
    6.6048   -0.6916    0.3102 H   0  0  0  0  0  0  0  0  0  0  0  0
    4.8366   -1.1996   -0.8339 C   0  0  0  0  0  0  0  0  0  0  0  0
    3.4364   -1.0782   -0.9097 C   0  0  0  0  0  0  0  0  0  0  0  0
    2.8706   -1.5592   -1.7184 H   0  0  0  0  0  0  0  0  0  0  0  0
    5.5714    0.7185    2.4143 C   0  0  0  0  0  0  0  0  0  0  0  0
    6.5211    1.1926    2.0942 H   0  0  0  0  0  0  0  0  0  0  0  0
    5.8362   -0.0698    3.1508 H   0  0  0  0  0  0  0  0  0  0  0  0
    4.9674    1.4785    2.9469 H   0  0  0  0  0  0  0  0  0  0  0  0
    5.5733   -2.0103   -1.8689 C   0  0  0  0  0  0  0  0  0  0  0  0
    5.3546   -1.6530   -2.8961 H   0  0  0  0  0  0  0  0  0  0  0  0
    5.2535   -3.0725   -1.8243 H   0  0  0  0  0  0  0  0  0  0  0  0
    6.6691   -1.9750   -1.7169 H   0  0  0  0  0  0  0  0  0  0  0  0
   -0.7381    0.9476   -0.0585 C   0  0  0  0  0  0  0  0  0  0  0  0
    0.7381    0.9474   -0.0585 C   0  0  0  0  0  0  0  0  0  0  0  0
    1.1958    2.3368   -0.2090 C   0  0  0  0  0  0  0  0  0  0  0  0
    0.0004    3.1198   -0.3031 C   0  0  0  0  0  0  0  0  0  0  0  0
   -1.1953    2.3371   -0.2092 C   0  0  0  0  0  0  0  0  0  0  0  0
   -2.4271    2.9798   -0.3296 C   0  0  0  0  0  0  0  0  0  0  0  0
   -3.3699    2.4200   -0.2686 H   0  0  0  0  0  0  0  0  0  0  0  0
   -2.4445    4.3886   -0.5328 C   0  0  0  0  0  0  0  0  0  0  0  0
   -3.4187    4.8918   -0.6256 H   0  0  0  0  0  0  0  0  0  0  0  0
   -1.2780    5.1484   -0.6186 C   0  0  0  0  0  0  0  0  0  0  0  0
   -1.3371    6.2363   -0.7765 H   0  0  0  0  0  0  0  0  0  0  0  0
    0.0006    4.5212   -0.5132 C   0  0  0  0  0  0  0  0  0  0  0  0
    1.2794    5.1480   -0.6184 C   0  0  0  0  0  0  0  0  0  0  0  0
    1.3389    6.2359   -0.7762 H   0  0  0  0  0  0  0  0  0  0  0  0
    2.4457    4.3879   -0.5324 C   0  0  0  0  0  0  0  0  0  0  0  0
    3.4201    4.8908   -0.6249 H   0  0  0  0  0  0  0  0  0  0  0  0
    2.4279    2.9790   -0.3292 C   0  0  0  0  0  0  0  0  0  0  0  0
    3.3705    2.4189   -0.2680 H   0  0  0  0  0  0  0  0  0  0  0  0
  1  3  1  0  0  0  0
  2 20  1  0  0  0  0
  3  4  1  0  0  0  0
  4  6  2  0  0  0  0
  4  5  1  0  0  0  0
  6 12  1  0  0  0  0
  7  8  1  0  0  0  0
  7  6  1  0  0  0  0
  9  7  2  0  0  0  0
 10  9  1  0  0  0  0
 10  3  2  0  0  0  0
 11 10  1  0  0  0  0
 12 15  1  0  0  0  0
 12 13  1  0  0  0  0
 14 12  1  0  0  0  0
 16 17  1  0  0  0  0
 16 19  1  0  0  0  0
 16  9  1  0  0  0  0
 18 16  1  0  0  0  0
 20 21  1  0  0  0  0
 21 23  2  0  0  0  0
 21 22  1  0  0  0  0
 23 29  1  0  0  0  0
 24 25  1  0  0  0  0
 24 23  1  0  0  0  0
 26 24  2  0  0  0  0
 27 26  1  0  0  0  0
 27 20  2  0  0  0  0
 28 27  1  0  0  0  0
 29 32  1  0  0  0  0
 29 31  1  0  0  0  0
 30 29  1  0  0  0  0
 33 35  1  0  0  0  0
 33 36  1  0  0  0  0
 33 26  1  0  0  0  0
 34 33  1  0  0  0  0
 37 38  2  0  0  0  0
 37  1  1  0  0  0  0
 38  2  1  0  0  0  0
 39 38  1  0  0  0  0
 40 41  1  0  0  0  0
 40 39  1  0  0  0  0
 41 37  1  0  0  0  0
 42 43  1  0  0  0  0
 42 41  2  0  0  0  0
 44 42  1  0  0  0  0
 45 44  1  0  0  0  0
 46 44  2  0  0  0  0
 46 48  1  0  0  0  0
 47 46  1  0  0  0  0
 48 40  2  0  0  0  0
 49 51  2  0  0  0  0
 49 48  1  0  0  0  0
 50 49  1  0  0  0  0
 51 53  1  0  0  0  0
 52 51  1  0  0  0  0
 53 54  1  0  0  0  0
 53 39  2  0  0  0  0
M  END
