1,2
q = 0.0, confidence = 0.99

 66 68  0  0  1  0  0  0  0  0999 V2000
    1.3554    0.0593   -0.4191 N   0  0  0  0  0  0  0  0  0  0  0  0
   -1.0972    1.3297   -0.4964 N   0  0  0  0  0  0  0  0  0  0  0  0
    3.4695   -0.4263    0.8705 C   0  0  0  0  0  0  0  0  0  0  0  0
    2.5771    2.1737   -1.1311 C   0  0  0  0  0  0  0  0  0  0  0  0
    3.5114    1.8111   -0.6584 H   0  0  0  0  0  0  0  0  0  0  0  0
    2.5893    1.8199   -2.1873 H   0  0  0  0  0  0  0  0  0  0  0  0
    4.2481   -1.3063    0.0662 C   0  0  0  0  0  0  0  0  0  0  0  0
    0.0545    2.0754   -1.0605 C   0  0  1  0  0  0  0  0  0  0  0  0
    0.0677    1.7955   -2.1374 H   0  0  0  0  0  0  0  0  0  0  0  0
    1.9629   -0.5480    0.8163 C   0  0  0  0  0  0  0  0  0  0  0  0
    1.6250   -1.6037    0.8381 H   0  0  0  0  0  0  0  0  0  0  0  0
    1.4735   -0.0557    1.6755 H   0  0  0  0  0  0  0  0  0  0  0  0
   -2.7873    0.9734    1.2975 C   0  0  0  0  0  0  0  0  0  0  0  0
   -2.7606   -0.2483    2.0217 C   0  0  0  0  0  0  0  0  0  0  0  0
   -0.0241    3.6067   -0.9776 C   0  0  0  0  0  0  0  0  0  0  0  0
   -0.0330    3.9299    0.0859 H   0  0  0  0  0  0  0  0  0  0  0  0
   -0.9762    3.9542   -1.4295 H   0  0  0  0  0  0  0  0  0  0  0  0
    2.5065    3.7075   -1.1025 C   0  0  0  0  0  0  0  0  0  0  0  0
    3.3713    4.1344   -1.6503 H   0  0  0  0  0  0  0  0  0  0  0  0
    2.6065    4.0532   -0.0490 H   0  0  0  0  0  0  0  0  0  0  0  0
    5.6446   -1.1602    0.0410 C   0  0  0  0  0  0  0  0  0  0  0  0
    6.2373   -1.8431   -0.5896 H   0  0  0  0  0  0  0  0  0  0  0  0
    1.3586    1.5612   -0.4315 C   0  0  1  0  0  0  0  0  0  0  0  0
    1.3636    1.8760    0.6326 H   0  0  0  0  0  0  0  0  0  0  0  0
    4.1201    0.5400    1.6804 C   0  0  0  0  0  0  0  0  0  0  0  0
   -4.0323    1.5509    0.9280 C   0  0  0  0  0  0  0  0  0  0  0  0
    3.6033   -2.4233   -0.7212 C   0  0  0  0  0  0  0  0  0  0  0  0
    4.3638   -3.0110   -1.2689 H   0  0  0  0  0  0  0  0  0  0  0  0
    2.8569   -2.0763   -1.4660 H   0  0  0  0  0  0  0  0  0  0  0  0
    3.0495   -3.1135   -0.0514 H   0  0  0  0  0  0  0  0  0  0  0  0
   -3.9790   -0.8789    2.3341 C   0  0  0  0  0  0  0  0  0  0  0  0
   -3.9513   -1.8300    2.8897 H   0  0  0  0  0  0  0  0  0  0  0  0
   -5.2229    0.8845    1.2684 C   0  0  0  0  0  0  0  0  0  0  0  0
   -6.1846    1.3384    0.9780 H   0  0  0  0  0  0  0  0  0  0  0  0
   -1.5022    1.6604    0.8958 C   0  0  0  0  0  0  0  0  0  0  0  0
   -1.6277    2.7604    0.9774 H   0  0  0  0  0  0  0  0  0  0  0  0
   -0.6782    1.3787    1.5798 H   0  0  0  0  0  0  0  0  0  0  0  0
    6.3069   -0.1843    0.8091 C   0  0  0  0  0  0  0  0  0  0  0  0
    3.3628    1.4714    2.6006 C   0  0  0  0  0  0  0  0  0  0  0  0
    4.0512    1.9553    3.3192 H   0  0  0  0  0  0  0  0  0  0  0  0
    2.5828    0.9467    3.1879 H   0  0  0  0  0  0  0  0  0  0  0  0
    2.8541    2.2881    2.0448 H   0  0  0  0  0  0  0  0  0  0  0  0
   -4.1192    2.8339    0.1366 C   0  0  0  0  0  0  0  0  0  0  0  0
   -5.1396    3.2596    0.1878 H   0  0  0  0  0  0  0  0  0  0  0  0
   -3.8944    2.6325   -0.9322 H   0  0  0  0  0  0  0  0  0  0  0  0
   -3.4137    3.6111    0.4950 H   0  0  0  0  0  0  0  0  0  0  0  0
    1.1872    4.2321   -1.6843 C   0  0  0  0  0  0  0  0  0  0  0  0
    1.1437    5.3379   -1.6089 H   0  0  0  0  0  0  0  0  0  0  0  0
    1.1418    3.9902   -2.7692 H   0  0  0  0  0  0  0  0  0  0  0  0
   -5.2204   -0.3397    1.9593 C   0  0  0  0  0  0  0  0  0  0  0  0
   -1.4747   -0.9106    2.4476 C   0  0  0  0  0  0  0  0  0  0  0  0
   -0.7636   -0.1975    2.9143 H   0  0  0  0  0  0  0  0  0  0  0  0
   -0.9504   -1.3927    1.5895 H   0  0  0  0  0  0  0  0  0  0  0  0
   -1.6705   -1.7118    3.1852 H   0  0  0  0  0  0  0  0  0  0  0  0
    5.5247    0.6420    1.6317 C   0  0  0  0  0  0  0  0  0  0  0  0
    6.0238    1.3940    2.2645 H   0  0  0  0  0  0  0  0  0  0  0  0
    7.8088   -0.0583    0.7652 C   0  0  0  0  0  0  0  0  0  0  0  0
    8.1695    0.1085   -0.2710 H   0  0  0  0  0  0  0  0  0  0  0  0
    8.3002   -0.9854    1.1281 H   0  0  0  0  0  0  0  0  0  0  0  0
    8.1684    0.7813    1.3908 H   0  0  0  0  0  0  0  0  0  0  0  0
   -6.5083   -1.0643    2.2595 C   0  0  0  0  0  0  0  0  0  0  0  0
   -6.8004   -1.7176    1.4085 H   0  0  0  0  0  0  0  0  0  0  0  0
   -7.3462   -0.3592    2.4294 H   0  0  0  0  0  0  0  0  0  0  0  0
   -6.4145   -1.7154    3.1507 H   0  0  0  0  0  0  0  0  0  0  0  0
    1.8981   -0.2737   -1.2311 H   0  0  0  0  0  0  0  0  0  0  0  0
   -1.9338    1.3604   -1.1606 H   0  0  0  0  0  0  0  0  0  0  0  0
  1 10  1  0  0  0  0
  2 35  1  0  0  0  0
  3 25  1  0  0  0  0
  4 18  1  0  0  0  0
  4  5  1  0  0  0  0
  4 23  1  0  0  0  0
  6  4  1  0  0  0  0
  7  3  2  0  0  0  0
  8  9  1  6  0  0  0
  8 15  1  0  0  0  0
  8  2  1  0  0  0  0
  8 23  1  0  0  0  0
 10 11  1  0  0  0  0
 10  3  1  0  0  0  0
 10 12  1  0  0  0  0
 13 14  1  0  0  0  0
 14 31  2  0  0  0  0
 14 51  1  0  0  0  0
 15 16  1  0  0  0  0
 17 15  1  0  0  0  0
 18 20  1  0  0  0  0
 19 18  1  0  0  0  0
 21  7  1  0  0  0  0
 21 38  2  0  0  0  0
 22 21  1  0  0  0  0
 23  1  1  0  0  0  0
 23 24  1  1  0  0  0
 25 39  1  0  0  0  0
 26 33  1  0  0  0  0
 26 13  2  0  0  0  0
 27 30  1  0  0  0  0
 27  7  1  0  0  0  0
 28 27  1  0  0  0  0
 29 27  1  0  0  0  0
 31 32  1  0  0  0  0
 33 50  2  0  0  0  0
 34 33  1  0  0  0  0
 35 36  1  0  0  0  0
 35 13  1  0  0  0  0
 35 37  1  0  0  0  0
 38 55  1  0  0  0  0
 39 41  1  0  0  0  0
 39 40  1  0  0  0  0
 42 39  1  0  0  0  0
 43 44  1  0  0  0  0
 43 46  1  0  0  0  0
 43 26  1  0  0  0  0
 45 43  1  0  0  0  0
 47 48  1  0  0  0  0
 47 18  1  0  0  0  0
 47 15  1  0  0  0  0
 49 47  1  0  0  0  0
 50 61  1  0  0  0  0
 50 31  1  0  0  0  0
 51 52  1  0  0  0  0
 51 54  1  0  0  0  0
 53 51  1  0  0  0  0
 55 25  2  0  0  0  0
 55 56  1  0  0  0  0
 57 38  1  0  0  0  0
 57 59  1  0  0  0  0
 57 60  1  0  0  0  0
 58 57  1  0  0  0  0
 61 63  1  0  0  0  0
 61 64  1  0  0  0  0
 62 61  1  0  0  0  0
 65  1  1  0  0  0  0
 66  2  1  0  0  0  0
M  END
