2,4
q = 0.0, confidence = 1.0

 23 24  0  0  1  0  0  0  0  0999 V2000
    3.2310    2.4979    0.0652 S   0  0  0  0  0  0  0  0  0  0  0  0
    0.8560    1.5267   -0.0459 N   0  0  0  0  0  2  0  0  0  0  0  0
    3.2289   -2.5005    0.0650 S   0  0  0  0  0  0  0  0  0  0  0  0
    0.8547   -1.5274   -0.0458 N   0  0  0  0  0  2  0  0  0  0  0  0
    2.4806   -0.0010    1.1125 C   0  0  0  0  0  0  0  0  0  0  0  0
    1.9602   -0.0008    2.1001 H   0  0  0  0  0  0  0  0  0  0  0  0
    3.5725   -0.0014    1.2859 H   0  0  0  0  0  0  0  0  0  0  0  0
    2.0772    1.2502    0.3922 C   0  0  2  0  0  3  0  0  0  0  0  0
    1.9958    3.4323   -0.6977 C   0  0  0  0  0  0  0  0  0  0  0  0
    2.2096    4.4163   -1.1288 H   0  0  0  0  0  0  0  0  0  0  0  0
    0.7860    2.7699   -0.6794 C   0  0  0  0  0  0  0  0  0  0  0  0
   -0.4761    3.2959   -1.2816 C   0  0  0  0  0  0  0  0  0  0  0  0
   -1.2237    3.5446   -0.5038 H   0  0  0  0  0  0  0  0  0  0  0  0
   -0.9164    2.5341   -1.9557 H   0  0  0  0  0  0  0  0  0  0  0  0
   -0.2643    4.2131   -1.8614 H   0  0  0  0  0  0  0  0  0  0  0  0
    2.0762   -1.2518    0.3921 C   0  0  1  0  0  3  0  0  0  0  0  0
    1.9930   -3.4339   -0.6978 C   0  0  0  0  0  0  0  0  0  0  0  0
    2.2060   -4.4180   -1.1289 H   0  0  0  0  0  0  0  0  0  0  0  0
    0.7837   -2.7706   -0.6793 C   0  0  0  0  0  0  0  0  0  0  0  0
   -0.4790   -3.2957   -1.2809 C   0  0  0  0  0  0  0  0  0  0  0  0
   -0.2681   -4.2127   -1.8614 H   0  0  0  0  0  0  0  0  0  0  0  0
   -0.9195   -2.5333   -1.9542 H   0  0  0  0  0  0  0  0  0  0  0  0
   -1.2262   -3.5445   -0.5027 H   0  0  0  0  0  0  0  0  0  0  0  0
  1  8  1  0  0  0  0
  2  8  1  0  0  0  0
  3 16  1  0  0  0  0
  4 16  1  0  0  0  0
  5  7  1  0  0  0  0
  5  6  1  0  0  0  0
  8  5  1  1  0  0  0
  9 11  2  0  0  0  0
  9  1  1  0  0  0  0
 10  9  1  0  0  0  0
 11  2  1  0  0  0  0
 12 11  1  0  0  0  0
 12 13  1  0  0  0  0
 14 12  1  0  0  0  0
 15 12  1  0  0  0  0
 16  5  1  1  0  0  0
 17 19  2  0  0  0  0
 17  3  1  0  0  0  0
 18 17  1  0  0  0  0
 19  4  1  0  0  0  0
 20 19  1  0  0  0  0
 20 23  1  0  0  0  0
 21 20  1  0  0  0  0
 22 20  1  0  0  0  0
M  END
