1,13
q = 0.0, confidence = 0.994

 28 29  0  0  0  0  0  0  0  0999 V2000
    1.6652   -1.9770   -0.5202 N   0  0  0  0  0  2  0  0  0  0  0  0
    1.0040   -2.7824    0.3825 C   0  0  0  0  0  0  0  0  0  0  0  0
    1.6870   -3.7393    1.1630 C   0  0  0  0  0  0  0  0  0  0  0  0
    1.1191   -4.3433    1.8843 H   0  0  0  0  0  0  0  0  0  0  0  0
    3.0622   -3.8960    1.0048 C   0  0  0  0  0  0  0  0  0  0  0  0
    3.6156   -4.6365    1.5996 H   0  0  0  0  0  0  0  0  0  0  0  0
    3.7282   -3.0843    0.0647 C   0  0  0  0  0  0  0  0  0  0  0  0
    4.8102   -3.1769   -0.1037 H   0  0  0  0  0  0  0  0  0  0  0  0
    3.0039   -2.1415   -0.6639 C   0  0  0  0  0  0  0  0  0  0  0  0
    3.4925   -1.4847   -1.3971 H   0  0  0  0  0  0  0  0  0  0  0  0
   -0.4103   -2.5556    0.4205 C   0  0  0  0  0  0  0  0  0  0  0  0
   -1.0739   -3.1549    1.0636 H   0  0  0  0  0  0  0  0  0  0  0  0
   -0.8878   -1.6276   -0.3920 N   0  0  0  0  0  2  0  0  0  0  0  0
   -2.2790   -1.3345   -0.3502 C   0  0  0  0  0  0  0  0  0  0  0  0
   -3.0023   -1.1284   -1.5466 C   0  0  0  0  0  0  0  0  0  0  0  0
   -2.4970   -1.2741   -2.5081 H   0  0  0  0  0  0  0  0  0  0  0  0
   -4.3493   -0.7845   -1.5123 C   0  0  0  0  0  0  0  0  0  0  0  0
   -4.9246   -0.6395   -2.4378 H   0  0  0  0  0  0  0  0  0  0  0  0
   -5.0189   -0.6181   -0.2744 C   0  0  0  0  0  0  0  0  0  0  0  0
   -4.3119   -0.8505    0.9251 C   0  0  0  0  0  0  0  0  0  0  0  0
   -4.7982   -0.7323    1.9017 H   0  0  0  0  0  0  0  0  0  0  0  0
   -2.9607   -1.2137    0.8770 C   0  0  0  0  0  0  0  0  0  0  0  0
   -2.4175   -1.3634    1.8203 H   0  0  0  0  0  0  0  0  0  0  0  0
   -6.3115   -0.2403   -0.3463 O   0  0  0  0  0  0  0  0  0  0  0  0
   -7.0451   -0.0659    0.8591 C   0  0  0  0  0  0  0  0  0  0  0  0
   -7.1038   -1.0108    1.4417 H   0  0  0  0  0  0  0  0  0  0  0  0
   -8.0639    0.2390    0.5602 H   0  0  0  0  0  0  0  0  0  0  0  0
   -6.5978    0.7286    1.4962 H   0  0  0  0  0  0  0  0  0  0  0  0
  1  2  1  0  0  0  0
  2 11  2  0  0  0  0
  2  3  1  0  0  0  0
  3  4  1  0  0  0  0
  5  3  2  0  0  0  0
  5  6  1  0  0  0  0
  7  5  1  0  0  0  0
  8  7  1  0  0  0  0
  9  1  1  0  0  0  0
  9  7  2  0  0  0  0
 10  9  1  0  0  0  0
 11 12  1  0  0  0  0
 13 14  1  0  0  0  0
 13 11  1  0  0  0  0
 14 22  1  0  0  0  0
 15 17  1  0  0  0  0
 15 14  2  0  0  0  0
 16 15  1  0  0  0  0
 17 19  2  0  0  0  0
 18 17  1  0  0  0  0
 19 20  1  0  0  0  0
 20 21  1  0  0  0  0
 22 20  2  0  0  0  0
 22 23  1  0  0  0  0
 24 19  1  0  0  0  0
 24 25  1  0  0  0  0
 25 26  1  0  0  0  0
 25 28  1  0  0  0  0
 27 25  1  0  0  0  0
M  END
