1,15
q = 0.0, confidence = 0.998

 40 43  0  0  1  0  0  0  0  0999 V2000
    0.2347    0.7260   -0.3244 N   0  0  0  0  0  2  0  0  0  0  0  0
   -0.2727    1.9880   -0.1391 C   0  0  2  0  0  3  0  0  0  0  0  0
    0.5648    3.1043    0.0249 C   0  0  0  0  0  0  0  0  0  0  0  0
    1.9505    2.9356    0.0176 C   0  0  0  0  0  0  0  0  0  0  0  0
    3.9450    1.3488   -0.2219 C   0  0  1  0  0  0  0  0  0  0  0  0
    4.2467    0.4931   -1.4836 C   0  0  0  0  0  0  0  0  0  0  0  0
    3.7214   -0.7123   -0.6592 C   0  0  2  0  0  0  0  0  0  0  0  0
    2.1829   -0.7801   -0.7567 C   0  0  1  0  0  0  0  0  0  0  0  0
    2.4757    1.6621   -0.2231 C   0  0  0  0  0  0  0  0  0  0  0  0
    1.5794    0.5792   -0.4361 C   0  0  0  0  0  0  0  0  0  0  0  0
    4.1952    0.0397    0.6353 C   0  0  0  0  0  0  0  0  0  0  0  0
    5.6870   -0.1733    0.9191 C   0  0  0  0  0  0  0  0  0  0  0  0
    3.4145   -0.1586    1.9341 C   0  0  0  0  0  0  0  0  0  0  0  0
    1.7407   -1.3033   -2.1333 C   0  0  0  0  0  0  0  0  0  0  0  0
   -2.4396    0.9557    0.0624 N   0  0  0  0  0  2  0  0  0  0  0  0
   -1.7402    2.1175   -0.0783 C   0  0  2  0  0  3  0  0  0  0  0  0
   -2.4047    3.3590   -0.1668 C   0  0  0  0  0  0  0  0  0  0  0  0
   -3.7981    3.4092   -0.0964 C   0  0  0  0  0  0  0  0  0  0  0  0
   -4.5067    2.2066    0.0633 C   0  0  0  0  0  0  0  0  0  0  0  0
   -3.7913    1.0111    0.1360 C   0  0  0  0  0  0  0  0  0  0  0  0
    0.1313    4.0961    0.2057 H   0  0  0  0  0  0  0  0  0  0  0  0
    2.6228    3.7875    0.2003 H   0  0  0  0  0  0  0  0  0  0  0  0
    4.5611    2.2452   -0.0060 H   0  0  0  0  0  0  0  0  0  0  0  0
    3.7062    0.7659   -2.4114 H   0  0  0  0  0  0  0  0  0  0  0  0
    5.3267    0.4281   -1.7062 H   0  0  0  0  0  0  0  0  0  0  0  0
    4.1572   -1.7139   -0.8533 H   0  0  0  0  0  0  0  0  0  0  0  0
    1.8097   -1.4879    0.0115 H   0  0  0  0  0  0  0  0  0  0  0  0
    6.3258   -0.0456    0.0244 H   0  0  0  0  0  0  0  0  0  0  0  0
    5.8575   -1.1985    1.3077 H   0  0  0  0  0  0  0  0  0  0  0  0
    6.0413    0.5400    1.6917 H   0  0  0  0  0  0  0  0  0  0  0  0
    3.5638   -1.1899    2.3147 H   0  0  0  0  0  0  0  0  0  0  0  0
    2.3243   -0.0015    1.8342 H   0  0  0  0  0  0  0  0  0  0  0  0
    3.7789    0.5397    2.7159 H   0  0  0  0  0  0  0  0  0  0  0  0
    0.6404   -1.2757   -2.2343 H   0  0  0  0  0  0  0  0  0  0  0  0
    2.0626   -2.3555   -2.2576 H   0  0  0  0  0  0  0  0  0  0  0  0
    2.1799   -0.7009   -2.9532 H   0  0  0  0  0  0  0  0  0  0  0  0
   -1.8280    4.2821   -0.3091 H   0  0  0  0  0  0  0  0  0  0  0  0
   -4.3254    4.3715   -0.1700 H   0  0  0  0  0  0  0  0  0  0  0  0
   -5.6037    2.1879    0.1267 H   0  0  0  0  0  0  0  0  0  0  0  0
   -4.3027    0.0459    0.2600 H   0  0  0  0  0  0  0  0  0  0  0  0
  2  1  1  1  0  0  0
  2 16  1  0  0  0  0
  2  3  1  0  0  0  0
  3 21  1  0  0  0  0
  4  3  2  0  0  0  0
  4 22  1  0  0  0  0
  5 23  1  1  0  0  0
  5 11  1  0  0  0  0
  6  7  1  0  0  0  0
  6  5  1  0  0  0  0
  7 26  1  6  0  0  0
  7 11  1  0  0  0  0
  8  7  1  0  0  0  0
  8 10  1  0  0  0  0
  8 27  1  1  0  0  0
  9  5  1  0  0  0  0
  9  4  1  0  0  0  0
 10  1  1  0  0  0  0
 10  9  2  0  0  0  0
 11 12  1  0  0  0  0
 11 13  1  0  0  0  0
 12 29  1  0  0  0  0
 12 30  1  0  0  0  0
 13 31  1  0  0  0  0
 13 33  1  0  0  0  0
 14  8  1  0  0  0  0
 15 20  1  0  0  0  0
 16 17  1  6  0  0  0
 16 15  1  0  0  0  0
 17 18  2  0  0  0  0
 18 19  1  0  0  0  0
 19 39  1  0  0  0  0
 19 20  2  0  0  0  0
 20 40  1  0  0  0  0
 24  6  1  0  0  0  0
 25  6  1  0  0  0  0
 28 12  1  0  0  0  0
 32 13  1  0  0  0  0
 34 14  1  0  0  0  0
 35 14  1  0  0  0  0
 36 14  1  0  0  0  0
 37 17  1  0  0  0  0
 38 18  1  0  0  0  0
M  END
