1,14
q = 0.0, confidence = 1.0

 37 40  0  0  1  0  0  0  0  0999 V2000
    0.2961    0.6487   -0.1903 N   0  0  0  0  0  2  0  0  0  0  0  0
   -0.1605    1.9422   -0.1208 C   0  0  0  0  0  0  0  0  0  0  0  0
    0.7211    3.0358   -0.1682 C   0  0  0  0  0  0  0  0  0  0  0  0
    2.0949    2.8190   -0.2917 C   0  0  0  0  0  0  0  0  0  0  0  0
    4.0163    1.1322   -0.5164 C   0  0  1  0  0  0  0  0  0  0  0  0
    4.1107    0.0460   -1.6292 C   0  0  0  0  0  0  0  0  0  0  0  0
    3.7058   -0.9669   -0.5267 C   0  0  2  0  0  0  0  0  0  0  0  0
    2.1784   -0.9656   -0.3812 C   0  0  0  0  0  0  0  0  0  0  0  0
    2.5666    1.5051   -0.3739 C   0  0  0  0  0  0  0  0  0  0  0  0
    1.6299    0.4395   -0.3181 C   0  0  0  0  0  0  0  0  0  0  0  0
    4.3775   -0.0065    0.5217 C   0  0  0  0  0  0  0  0  0  0  0  0
    3.7920    0.0727    1.9305 C   0  0  0  0  0  0  0  0  0  0  0  0
    5.8914   -0.2241    0.6229 C   0  0  0  0  0  0  0  0  0  0  0  0
   -2.3565    0.9806    0.1020 N   0  0  0  0  0  2  0  0  0  0  0  0
   -1.6169    2.1242    0.0155 C   0  0  0  0  0  0  0  0  0  0  0  0
   -2.2357    3.3915    0.0566 C   0  0  0  0  0  0  0  0  0  0  0  0
   -3.6217    3.4876    0.1926 C   0  0  0  0  0  0  0  0  0  0  0  0
   -4.3710    2.3032    0.2863 C   0  0  0  0  0  0  0  0  0  0  0  0
   -3.7011    1.0806    0.2360 C   0  0  0  0  0  0  0  0  0  0  0  0
    0.3338    4.0601   -0.1019 H   0  0  0  0  0  0  0  0  0  0  0  0
    2.7977    3.6652   -0.3242 H   0  0  0  0  0  0  0  0  0  0  0  0
    4.6726    2.0245   -0.5646 H   0  0  0  0  0  0  0  0  0  0  0  0
    3.4305    0.1584   -2.4976 H   0  0  0  0  0  0  0  0  0  0  0  0
    5.1430   -0.0982   -1.9949 H   0  0  0  0  0  0  0  0  0  0  0  0
    4.0937   -2.0037   -0.5886 H   0  0  0  0  0  0  0  0  0  0  0  0
    1.7068   -1.5009   -1.2313 H   0  0  0  0  0  0  0  0  0  0  0  0
    1.8578   -1.5193    0.5248 H   0  0  0  0  0  0  0  0  0  0  0  0
    3.9789   -0.8750    2.4765 H   0  0  0  0  0  0  0  0  0  0  0  0
    2.7012    0.2573    1.9495 H   0  0  0  0  0  0  0  0  0  0  0  0
    4.2761    0.8888    2.5062 H   0  0  0  0  0  0  0  0  0  0  0  0
    6.3673    0.6053    1.1859 H   0  0  0  0  0  0  0  0  0  0  0  0
    6.3902   -0.2912   -0.3628 H   0  0  0  0  0  0  0  0  0  0  0  0
    6.1052   -1.1655    1.1699 H   0  0  0  0  0  0  0  0  0  0  0  0
   -1.6310    4.3039   -0.0217 H   0  0  0  0  0  0  0  0  0  0  0  0
   -4.1111    4.4720    0.2242 H   0  0  0  0  0  0  0  0  0  0  0  0
   -5.4644    2.3193    0.3957 H   0  0  0  0  0  0  0  0  0  0  0  0
   -4.2466    0.1287    0.3033 H   0  0  0  0  0  0  0  0  0  0  0  0
  1  2  1  0  0  0  0
  2 15  2  0  0  0  0
  3  2  1  0  0  0  0
  3 20  1  0  0  0  0
  4  3  2  0  0  0  0
  5 22  1  6  0  0  0
  5  9  1  0  0  0  0
  5 11  1  0  0  0  0
  6  7  1  0  0  0  0
  6  5  1  0  0  0  0
  7 25  1  6  0  0  0
  7  8  1  0  0  0  0
  7 11  1  0  0  0  0
  8 10  1  0  0  0  0
  8 27  1  0  0  0  0
  9 10  2  0  0  0  0
  9  4  1  0  0  0  0
 10  1  1  0  0  0  0
 11 13  1  0  0  0  0
 11 12  1  0  0  0  0
 12 29  1  0  0  0  0
 12 28  1  0  0  0  0
 12 30  1  0  0  0  0
 13 33  1  0  0  0  0
 13 31  1  0  0  0  0
 14 19  1  0  0  0  0
 15 16  1  0  0  0  0
 15 14  1  0  0  0  0
 16 17  2  0  0  0  0
 17 35  1  0  0  0  0
 17 18  1  0  0  0  0
 18 36  1  0  0  0  0
 19 18  2  0  0  0  0
 19 37  1  0  0  0  0
 21  4  1  0  0  0  0
 23  6  1  0  0  0  0
 24  6  1  0  0  0  0
 26  8  1  0  0  0  0
 32 13  1  0  0  0  0
 34 16  1  0  0  0  0
M  END
