4,6
q = -1.0, confidence = 0.002

 50 49  0  0  0  0  0  0  0  0999 V2000
   -0.0543    0.8562    3.0730 C   0  0  0  0  0  0  0  0  0  0  0  0
    0.5101    2.8814    1.6741 C   0  0  0  0  0  0  0  0  0  0  0  0
    0.8099    1.3972    1.9264 C   0  0  0  0  0  0  0  0  0  0  0  0
    0.6054    0.6066    0.7186 N   0  0  0  0  0  2  0  0  0  0  0  0
    1.5884   -0.0485    0.0582 C   0  0  0  0  0  3  0  0  0  0  0  0
    1.0831   -0.7877   -0.9432 N   0  0  0  0  0  2  0  0  0  0  0  0
    1.9002   -1.5238   -1.9044 C   0  0  0  0  0  0  0  0  0  0  0  0
    1.6051   -3.0274   -1.8156 C   0  0  0  0  0  0  0  0  0  0  0  0
    1.7001   -1.0070   -3.3364 C   0  0  0  0  0  0  0  0  0  0  0  0
    2.9573    0.0685    0.3647 N   0  0  0  0  0  0  0  0  0  0  0  0
    3.7831   -1.2355    1.2917 Si  0  0  0  0  0  0  0  0  0  0  0  0
    3.8375    1.5252   -0.2421 Si  0  0  0  0  0  0  0  0  0  0  0  0
    4.7822   -2.4098    0.1972 C   0  0  0  0  0  0  0  0  0  0  0  0
    4.9542   -0.4378    2.5423 C   0  0  0  0  0  0  0  0  0  0  0  0
    2.4726   -2.2213    2.2142 C   0  0  0  0  0  0  0  0  0  0  0  0
    5.4742    0.9596   -1.0007 C   0  0  0  0  0  0  0  0  0  0  0  0
    2.7913    2.3424   -1.5747 C   0  0  0  0  0  0  0  0  0  0  0  0
    4.2110    2.7697    1.1314 C   0  0  0  0  0  0  0  0  0  0  0  0
    2.9639   -1.3553   -1.6262 H   0  0  0  0  0  0  0  0  0  0  0  0
    1.8809    1.2965    2.2125 H   0  0  0  0  0  0  0  0  0  0  0  0
    5.3503   -3.1130    0.8418 H   0  0  0  0  0  0  0  0  0  0  0  0
    4.1302   -3.0132   -0.4642 H   0  0  0  0  0  0  0  0  0  0  0  0
    5.5115   -1.8697   -0.4373 H   0  0  0  0  0  0  0  0  0  0  0  0
    5.9983    1.8393   -1.4286 H   0  0  0  0  0  0  0  0  0  0  0  0
    5.3025    0.2339   -1.8210 H   0  0  0  0  0  0  0  0  0  0  0  0
    6.1579    0.4948   -0.2628 H   0  0  0  0  0  0  0  0  0  0  0  0
    5.4131   -1.2360    3.1620 H   0  0  0  0  0  0  0  0  0  0  0  0
    5.7811    0.1247    2.0651 H   0  0  0  0  0  0  0  0  0  0  0  0
    4.4117    0.2511    3.2204 H   0  0  0  0  0  0  0  0  0  0  0  0
    2.9597   -3.0324    2.7931 H   0  0  0  0  0  0  0  0  0  0  0  0
    1.7487   -2.6882    1.5187 H   0  0  0  0  0  0  0  0  0  0  0  0
    1.9079   -1.5844    2.9235 H   0  0  0  0  0  0  0  0  0  0  0  0
    2.2641   -3.5978   -2.5015 H   0  0  0  0  0  0  0  0  0  0  0  0
    1.7626   -3.4086   -0.7870 H   0  0  0  0  0  0  0  0  0  0  0  0
    0.5527   -3.2279   -2.1003 H   0  0  0  0  0  0  0  0  0  0  0  0
    3.2589    3.3065   -1.8620 H   0  0  0  0  0  0  0  0  0  0  0  0
    2.7325    1.7109   -2.4825 H   0  0  0  0  0  0  0  0  0  0  0  0
    1.7537    2.5524   -1.2487 H   0  0  0  0  0  0  0  0  0  0  0  0
    4.7878    3.6164    0.7033 H   0  0  0  0  0  0  0  0  0  0  0  0
    4.8175    2.3263    1.9443 H   0  0  0  0  0  0  0  0  0  0  0  0
    3.2874    3.1861    1.5778 H   0  0  0  0  0  0  0  0  0  0  0  0
    2.3755   -1.5399   -4.0359 H   0  0  0  0  0  0  0  0  0  0  0  0
    0.6561   -1.1677   -3.6687 H   0  0  0  0  0  0  0  0  0  0  0  0
    1.9186    0.0766   -3.4057 H   0  0  0  0  0  0  0  0  0  0  0  0
    0.0974    1.4513    3.9960 H   0  0  0  0  0  0  0  0  0  0  0  0
    0.1920   -0.2005    3.2978 H   0  0  0  0  0  0  0  0  0  0  0  0
   -1.1266    0.9003    2.7956 H   0  0  0  0  0  0  0  0  0  0  0  0
    0.7278    3.4855    2.5783 H   0  0  0  0  0  0  0  0  0  0  0  0
    1.1124    3.2803    0.8358 H   0  0  0  0  0  0  0  0  0  0  0  0
   -0.5572    3.0270    1.4157 H   0  0  0  0  0  0  0  0  0  0  0  0
  1 46  1  0  0  0  0
  1 45  1  0  0  0  0
  2  3  1  0  0  0  0
  2 48  1  0  0  0  0
  3 20  1  0  0  0  0
  3  1  1  0  0  0  0
  4  3  1  0  0  0  0
  5 10  1  0  0  0  0
  5  4  1  0  0  0  0
  6  5  1  0  0  0  0
  7  8  1  0  0  0  0
  7 19  1  0  0  0  0
  7  6  1  0  0  0  0
  8 34  1  0  0  0  0
  9  7  1  0  0  0  0
 10 11  1  0  0  0  0
 11 15  1  0  0  0  0
 11 14  1  0  0  0  0
 12 10  1  0  0  0  0
 12 18  1  0  0  0  0
 13 21  1  0  0  0  0
 13 11  1  0  0  0  0
 14 27  1  0  0  0  0
 14 29  1  0  0  0  0
 15 30  1  0  0  0  0
 15 32  1  0  0  0  0
 16 26  1  0  0  0  0
 16 12  1  0  0  0  0
 17 38  1  0  0  0  0
 17 12  1  0  0  0  0
 18 41  1  0  0  0  0
 18 40  1  0  0  0  0
 22 13  1  0  0  0  0
 23 13  1  0  0  0  0
 24 16  1  0  0  0  0
 25 16  1  0  0  0  0
 28 14  1  0  0  0  0
 31 15  1  0  0  0  0
 33  8  1  0  0  0  0
 35  8  1  0  0  0  0
 36 17  1  0  0  0  0
 37 17  1  0  0  0  0
 39 18  1  0  0  0  0
 42  9  1  0  0  0  0
 43  9  1  0  0  0  0
 44  9  1  0  0  0  0
 47  1  1  0  0  0  0
 49  2  1  0  0  0  0
 50  2  1  0  0  0  0
M  END
