3,4
q = 0.0, confidence = 0.996

 43 48  0  0  1  0  0  0  0  0999 V2000
    2.0271    2.4416   -1.2488 O   0  0  0  0  0  0  0  0  0  0  0  0
   -2.0269    2.4417    1.2486 O   0  0  0  0  0  0  0  0  0  0  0  0
    1.2757    0.3992   -0.6649 N   0  0  0  0  0  2  0  0  0  0  0  0
   -1.2756    0.3993    0.6647 N   0  0  0  0  0  2  0  0  0  0  0  0
   -0.0001    2.4581   -0.0003 C   0  0  0  0  0  0  0  0  0  0  0  0
    0.4595    3.1393    0.7495 H   0  0  0  0  0  0  0  0  0  0  0  0
   -0.4597    3.1389   -0.7504 H   0  0  0  0  0  0  0  0  0  0  0  0
    1.0949    1.6822   -0.6501 C   0  0  1  0  0  3  0  0  0  0  0  0
    2.9826    1.5235   -1.8883 C   0  0  1  0  0  0  0  0  0  0  0  0
    2.7926    1.5834   -2.9786 H   0  0  0  0  0  0  0  0  0  0  0  0
    4.4125    1.8844   -1.4782 C   0  0  0  0  0  0  0  0  0  0  0  0
    5.1123    1.6515   -2.3099 H   0  0  0  0  0  0  0  0  0  0  0  0
    4.5065    2.9705   -1.2746 H   0  0  0  0  0  0  0  0  0  0  0  0
    4.6752    1.0043   -0.2772 C   0  0  0  0  0  0  0  0  0  0  0  0
    5.7432    1.0607    0.6293 C   0  0  0  0  0  0  0  0  0  0  0  0
    6.5150    1.8409    0.5389 H   0  0  0  0  0  0  0  0  0  0  0  0
    5.8139    0.1043    1.6558 C   0  0  0  0  0  0  0  0  0  0  0  0
    6.6450    0.1395    2.3768 H   0  0  0  0  0  0  0  0  0  0  0  0
    4.8352   -0.9002    1.7663 C   0  0  0  0  0  0  0  0  0  0  0  0
    4.9085   -1.6479    2.5705 H   0  0  0  0  0  0  0  0  0  0  0  0
    3.7644   -0.9633    0.8596 C   0  0  0  0  0  0  0  0  0  0  0  0
    3.0011   -1.7538    0.9168 H   0  0  0  0  0  0  0  0  0  0  0  0
    3.6914    0.0017   -0.1558 C   0  0  0  0  0  0  0  0  0  0  0  0
    2.6305    0.1610   -1.2336 C   0  0  1  0  0  0  0  0  0  0  0  0
    2.5773   -0.7132   -1.9121 H   0  0  0  0  0  0  0  0  0  0  0  0
   -2.6303    0.1611    1.2336 C   0  0  2  0  0  0  0  0  0  0  0  0
   -2.5771   -0.7131    1.9121 H   0  0  0  0  0  0  0  0  0  0  0  0
   -3.6915    0.0018    0.1559 C   0  0  0  0  0  0  0  0  0  0  0  0
   -3.7646   -0.9633   -0.8594 C   0  0  0  0  0  0  0  0  0  0  0  0
   -3.0012   -1.7538   -0.9166 H   0  0  0  0  0  0  0  0  0  0  0  0
   -4.8354   -0.9003   -1.7660 C   0  0  0  0  0  0  0  0  0  0  0  0
   -4.9088   -1.6481   -2.5702 H   0  0  0  0  0  0  0  0  0  0  0  0
   -5.8141    0.1043   -1.6554 C   0  0  0  0  0  0  0  0  0  0  0  0
   -6.6453    0.1393   -2.3763 H   0  0  0  0  0  0  0  0  0  0  0  0
   -5.7433    1.0607   -0.6289 C   0  0  0  0  0  0  0  0  0  0  0  0
   -6.5151    1.8409   -0.5386 H   0  0  0  0  0  0  0  0  0  0  0  0
   -4.6752    1.0044    0.2774 C   0  0  0  0  0  0  0  0  0  0  0  0
   -4.4124    1.8845    1.4783 C   0  0  0  0  0  0  0  0  0  0  0  0
   -5.1120    1.6516    2.3101 H   0  0  0  0  0  0  0  0  0  0  0  0
   -4.5064    2.9706    1.2746 H   0  0  0  0  0  0  0  0  0  0  0  0
   -2.9824    1.5237    1.8882 C   0  0  2  0  0  0  0  0  0  0  0  0
   -2.7923    1.5837    2.9785 H   0  0  0  0  0  0  0  0  0  0  0  0
   -1.0949    1.6823    0.6498 C   0  0  1  0  0  3  0  0  0  0  0  0
  1  8  1  0  0  0  0
  2 41  1  0  0  0  0
  3  8  1  0  0  0  0
  4 26  1  0  0  0  0
  5  6  1  0  0  0  0
  7  5  1  0  0  0  0
  8  5  1  1  0  0  0
  9 10  1  6  0  0  0
  9 11  1  0  0  0  0
  9  1  1  0  0  0  0
  9 24  1  0  0  0  0
 11 13  1  0  0  0  0
 11 14  1  0  0  0  0
 12 11  1  0  0  0  0
 14 23  2  0  0  0  0
 14 15  1  0  0  0  0
 15 17  2  0  0  0  0
 16 15  1  0  0  0  0
 17 19  1  0  0  0  0
 17 18  1  0  0  0  0
 19 20  1  0  0  0  0
 21 22  1  0  0  0  0
 21 19  2  0  0  0  0
 23 21  1  0  0  0  0
 24 25  1  6  0  0  0
 24  3  1  0  0  0  0
 24 23  1  0  0  0  0
 26 41  1  0  0  0  0
 26 27  1  1  0  0  0
 28 37  1  0  0  0  0
 28 26  1  0  0  0  0
 29 28  2  0  0  0  0
 30 29  1  0  0  0  0
 31 33  2  0  0  0  0
 31 29  1  0  0  0  0
 32 31  1  0  0  0  0
 33 35  1  0  0  0  0
 34 33  1  0  0  0  0
 35 36  1  0  0  0  0
 35 37  2  0  0  0  0
 37 38  1  0  0  0  0
 38 41  1  0  0  0  0
 38 39  1  0  0  0  0
 40 38  1  0  0  0  0
 41 42  1  1  0  0  0
 43  5  1  6  0  0  0
 43  4  1  0  0  0  0
 43  2  1  0  0  0  0
M  END
