2,3
q = 0.0, confidence = 0.996

 25 26  0  0  0  0  0  0  0  0999 V2000
   -6.1552    0.5398   -0.0851 O   0  0  0  0  0  0  0  0  0  0  0  0
   -0.5681    0.8928   -0.1643 N   0  0  0  0  0  2  0  0  0  0  0  0
    2.0850    0.9257   -0.0684 N   0  0  0  0  0  2  0  0  0  0  0  0
   -1.9836    0.8307   -0.1275 C   0  0  0  0  0  0  0  0  0  0  0  0
   -2.6637   -0.1308   -0.9080 C   0  0  0  0  0  0  0  0  0  0  0  0
   -2.0769   -0.8091   -1.5419 H   0  0  0  0  0  0  0  0  0  0  0  0
   -4.0551   -0.2023   -0.8955 C   0  0  0  0  0  0  0  0  0  0  0  0
   -4.5897   -0.9396   -1.5108 H   0  0  0  0  0  0  0  0  0  0  0  0
   -4.8045    0.6686   -0.0747 C   0  0  0  0  0  0  0  0  0  0  0  0
   -4.1316    1.6173    0.7224 C   0  0  0  0  0  0  0  0  0  0  0  0
   -4.7061    2.2813    1.3888 H   0  0  0  0  0  0  0  0  0  0  0  0
   -2.7355    1.7026    0.6885 C   0  0  0  0  0  0  0  0  0  0  0  0
   -2.2175    2.4210    1.3409 H   0  0  0  0  0  0  0  0  0  0  0  0
    0.0100    2.0738   -0.2170 C   0  0  0  0  0  0  0  0  0  0  0  0
    1.4490    2.1387   -0.1838 C   0  0  0  0  0  0  0  0  0  0  0  0
    2.1668    3.3514   -0.2697 C   0  0  0  0  0  0  0  0  0  0  0  0
    1.6130    4.2970   -0.3637 H   0  0  0  0  0  0  0  0  0  0  0  0
    3.5612    3.3262   -0.2345 C   0  0  0  0  0  0  0  0  0  0  0  0
    4.1420    4.2577   -0.2996 H   0  0  0  0  0  0  0  0  0  0  0  0
    4.2069    2.0804   -0.1144 C   0  0  0  0  0  0  0  0  0  0  0  0
    5.3029    2.0058   -0.0812 H   0  0  0  0  0  0  0  0  0  0  0  0
    3.4375    0.9165   -0.0358 C   0  0  0  0  0  0  0  0  0  0  0  0
    3.9082   -0.0732    0.0584 H   0  0  0  0  0  0  0  0  0  0  0  0
   -6.5381    1.1910    0.5319 H   0  0  0  0  0  0  0  0  0  0  0  0
   -0.5833    3.0011   -0.3116 H   0  0  0  0  0  0  0  0  0  0  0  0
  1  9  1  0  0  0  0
  1 24  1  0  0  0  0
  2  4  1  0  0  0  0
  3 22  1  0  0  0  0
  4 12  1  0  0  0  0
  5  7  1  0  0  0  0
  5  4  2  0  0  0  0
  6  5  1  0  0  0  0
  7  9  2  0  0  0  0
  8  7  1  0  0  0  0
  9 10  1  0  0  0  0
 10 11  1  0  0  0  0
 12 10  2  0  0  0  0
 12 13  1  0  0  0  0
 14 15  2  0  0  0  0
 14  2  1  0  0  0  0
 15  3  1  0  0  0  0
 16 18  2  0  0  0  0
 16 15  1  0  0  0  0
 17 16  1  0  0  0  0
 18 20  1  0  0  0  0
 19 18  1  0  0  0  0
 20 21  1  0  0  0  0
 20 22  2  0  0  0  0
 22 23  1  0  0  0  0
 25 14  1  0  0  0  0
M  END
