1,2
q = -1.0, confidence = 0.0

 14 14  0  0  0  0  0  0  0  0999 V2000
    1.6073   -0.1122   -1.6545 N   0  0  0  0  0  2  0  0  0  0  0  0
    1.4267   -1.5393    0.5067 N   0  0  0  0  0  2  0  0  0  0  0  0
    1.2262   -2.1684    1.5630 O   0  0  0  0  0  1  0  0  0  0  0  0
    2.5701   -1.0315   -1.5088 C   0  0  0  0  0  0  0  0  0  0  0  0
    2.5003   -1.8354   -0.3090 C   0  0  0  0  0  0  0  0  0  0  0  0
    3.6491   -1.2918   -2.4144 C   0  0  0  0  0  0  0  0  0  0  0  0
    3.7325   -0.7000   -3.3383 H   0  0  0  0  0  0  0  0  0  0  0  0
    4.5666   -2.2862   -2.1192 C   0  0  0  0  0  0  0  0  0  0  0  0
    5.3906   -2.4790   -2.8231 H   0  0  0  0  0  0  0  0  0  0  0  0
    3.4513   -2.8538   -0.0263 C   0  0  0  0  0  0  0  0  0  0  0  0
    3.3380   -3.4304    0.9020 H   0  0  0  0  0  0  0  0  0  0  0  0
    4.4775   -3.0733   -0.9262 C   0  0  0  0  0  0  0  0  0  0  0  0
    5.2305   -3.8503   -0.7323 H   0  0  0  0  0  0  0  0  0  0  0  0
    1.6234    0.4357   -2.5209 H   0  0  0  0  0  0  0  0  0  0  0  0
  1  4  1  0  0  0  0
  2  3  1  0  0  0  0
  4  5  1  0  0  0  0
  5 10  2  0  0  0  0
  5  2  1  0  0  0  0
  6  8  1  0  0  0  0
  6  4  2  0  0  0  0
  7  6  1  0  0  0  0
  8 12  2  0  0  0  0
  9  8  1  0  0  0  0
 10 11  1  0  0  0  0
 12 13  1  0  0  0  0
 12 10  1  0  0  0  0
 14  1  1  0  0  0  0
M  END
