1,30
q = 0.0, confidence = 0.95

 58 59  0  0  0  0  0  0  0  0999 V2000
   -1.2606   -0.0625   -0.3497 N   0  0  0  0  0  2  0  0  0  0  0  0
   -2.6556   -0.2211   -0.1221 C   0  0  0  0  0  0  0  0  0  0  0  0
   -3.1291   -1.4965    0.2777 C   0  0  0  0  0  0  0  0  0  0  0  0
   -4.5048   -1.6436    0.5348 C   0  0  0  0  0  0  0  0  0  0  0  0
   -4.8828   -2.6302    0.8465 H   0  0  0  0  0  0  0  0  0  0  0  0
   -5.3828   -0.5611    0.4097 C   0  0  0  0  0  0  0  0  0  0  0  0
   -6.4550   -0.6916    0.6200 H   0  0  0  0  0  0  0  0  0  0  0  0
   -4.8928    0.6964    0.0279 C   0  0  0  0  0  0  0  0  0  0  0  0
   -5.5884    1.5432   -0.0551 H   0  0  0  0  0  0  0  0  0  0  0  0
   -3.5274    0.8962   -0.2436 C   0  0  0  0  0  0  0  0  0  0  0  0
   -2.1907   -2.6751    0.4023 C   0  0  0  0  0  0  0  0  0  0  0  0
   -2.6056   -3.3792    1.1528 H   0  0  0  0  0  0  0  0  0  0  0  0
   -1.2180   -2.3196    0.7996 H   0  0  0  0  0  0  0  0  0  0  0  0
   -1.9605   -3.4229   -0.9195 C   0  0  0  0  0  0  0  0  0  0  0  0
   -2.9164   -3.7879   -1.3473 H   0  0  0  0  0  0  0  0  0  0  0  0
   -1.2955   -4.2977   -0.7710 H   0  0  0  0  0  0  0  0  0  0  0  0
   -1.4835   -2.7687   -1.6763 H   0  0  0  0  0  0  0  0  0  0  0  0
   -2.9677    2.2498   -0.6311 C   0  0  0  0  0  0  0  0  0  0  0  0
   -2.1221    2.4809    0.0500 H   0  0  0  0  0  0  0  0  0  0  0  0
   -2.4971    2.1714   -1.6362 H   0  0  0  0  0  0  0  0  0  0  0  0
   -3.9552    3.4142   -0.6325 C   0  0  0  0  0  0  0  0  0  0  0  0
   -4.7786    3.2639   -1.3605 H   0  0  0  0  0  0  0  0  0  0  0  0
   -3.4394    4.3561   -0.9040 H   0  0  0  0  0  0  0  0  0  0  0  0
   -4.4126    3.5631    0.3666 H   0  0  0  0  0  0  0  0  0  0  0  0
   -0.7250   -0.0607   -1.5698 C   0  0  0  0  0  0  0  0  0  0  0  0
   -1.5147   -0.1191   -2.8444 C   0  0  0  0  0  0  0  0  0  0  0  0
   -2.5955   -0.2237   -2.6374 H   0  0  0  0  0  0  0  0  0  0  0  0
   -1.1963   -0.9749   -3.4752 H   0  0  0  0  0  0  0  0  0  0  0  0
   -1.3591    0.7968   -3.4536 H   0  0  0  0  0  0  0  0  0  0  0  0
    1.2605   -0.0626   -0.3498 N   0  0  0  0  0  2  0  0  0  0  0  0
    2.6556   -0.2211   -0.1221 C   0  0  0  0  0  0  0  0  0  0  0  0
    3.1292   -1.4964    0.2776 C   0  0  0  0  0  0  0  0  0  0  0  0
    4.5048   -1.6435    0.5346 C   0  0  0  0  0  0  0  0  0  0  0  0
    4.8829   -2.6302    0.8463 H   0  0  0  0  0  0  0  0  0  0  0  0
    5.3828   -0.5610    0.4096 C   0  0  0  0  0  0  0  0  0  0  0  0
    6.4550   -0.6915    0.6198 H   0  0  0  0  0  0  0  0  0  0  0  0
    4.8927    0.6965    0.0278 C   0  0  0  0  0  0  0  0  0  0  0  0
    5.5883    1.5433   -0.0552 H   0  0  0  0  0  0  0  0  0  0  0  0
    3.5273    0.8962   -0.2436 C   0  0  0  0  0  0  0  0  0  0  0  0
    2.1907   -2.6752    0.4022 C   0  0  0  0  0  0  0  0  0  0  0  0
    2.6058   -3.3794    1.1526 H   0  0  0  0  0  0  0  0  0  0  0  0
    1.2181   -2.3197    0.7996 H   0  0  0  0  0  0  0  0  0  0  0  0
    1.9605   -3.4228   -0.9197 C   0  0  0  0  0  0  0  0  0  0  0  0
    2.9164   -3.7876   -1.3476 H   0  0  0  0  0  0  0  0  0  0  0  0
    1.2955   -4.2976   -0.7712 H   0  0  0  0  0  0  0  0  0  0  0  0
    1.4834   -2.7685   -1.6764 H   0  0  0  0  0  0  0  0  0  0  0  0
    2.9676    2.2498   -0.6312 C   0  0  0  0  0  0  0  0  0  0  0  0
    2.1219    2.4808    0.0499 H   0  0  0  0  0  0  0  0  0  0  0  0
    2.4970    2.1714   -1.6363 H   0  0  0  0  0  0  0  0  0  0  0  0
    3.9549    3.4142   -0.6325 C   0  0  0  0  0  0  0  0  0  0  0  0
    4.7784    3.2641   -1.3605 H   0  0  0  0  0  0  0  0  0  0  0  0
    3.4390    4.3561   -0.9040 H   0  0  0  0  0  0  0  0  0  0  0  0
    4.4123    3.5631    0.3667 H   0  0  0  0  0  0  0  0  0  0  0  0
    0.7249   -0.0607   -1.5698 C   0  0  0  0  0  0  0  0  0  0  0  0
    1.5146   -0.1192   -2.8444 C   0  0  0  0  0  0  0  0  0  0  0  0
    2.5955   -0.2238   -2.6374 H   0  0  0  0  0  0  0  0  0  0  0  0
    1.1962   -0.9750   -3.4751 H   0  0  0  0  0  0  0  0  0  0  0  0
    1.3590    0.7967   -3.4537 H   0  0  0  0  0  0  0  0  0  0  0  0
  1  2  1  0  0  0  0
  2  3  1  0  0  0  0
  3 11  1  0  0  0  0
  3  4  2  0  0  0  0
  4  5  1  0  0  0  0
  6  4  1  0  0  0  0
  6  7  1  0  0  0  0
  8  6  2  0  0  0  0
  9  8  1  0  0  0  0
 10  2  2  0  0  0  0
 10  8  1  0  0  0  0
 11 13  1  0  0  0  0
 11 12  1  0  0  0  0
 14 16  1  0  0  0  0
 14 11  1  0  0  0  0
 15 14  1  0  0  0  0
 17 14  1  0  0  0  0
 18 10  1  0  0  0  0
 18 19  1  0  0  0  0
 20 18  1  0  0  0  0
 21 18  1  0  0  0  0
 21 24  1  0  0  0  0
 22 21  1  0  0  0  0
 23 21  1  0  0  0  0
 25  1  1  0  0  0  0
 26 27  1  0  0  0  0
 26 25  1  0  0  0  0
 28 26  1  0  0  0  0
 29 26  1  0  0  0  0
 30 31  1  0  0  0  0
 31 32  1  0  0  0  0
 32 40  1  0  0  0  0
 32 33  2  0  0  0  0
 33 34  1  0  0  0  0
 35 33  1  0  0  0  0
 35 36  1  0  0  0  0
 37 35  2  0  0  0  0
 38 37  1  0  0  0  0
 39 31  2  0  0  0  0
 39 37  1  0  0  0  0
 40 42  1  0  0  0  0
 40 41  1  0  0  0  0
 43 45  1  0  0  0  0
 43 40  1  0  0  0  0
 44 43  1  0  0  0  0
 46 43  1  0  0  0  0
 47 39  1  0  0  0  0
 47 48  1  0  0  0  0
 49 47  1  0  0  0  0
 50 47  1  0  0  0  0
 50 53  1  0  0  0  0
 51 50  1  0  0  0  0
 52 50  1  0  0  0  0
 54 25  2  0  0  0  0
 54 30  1  0  0  0  0
 55 56  1  0  0  0  0
 55 54  1  0  0  0  0
 57 55  1  0  0  0  0
 58 55  1  0  0  0  0
M  END
