1,13
q = 0.0, confidence = 0.986

 31 32  0  0  0  0  0  0  0  0999 V2000
   -3.0966   -0.2969   -1.5215 N   0  0  0  0  0  2  0  0  0  0  0  0
   -2.9434   -1.5540   -2.0791 C   0  0  0  0  0  0  0  0  0  0  0  0
   -3.8906   -2.0205   -3.0387 C   0  0  0  0  0  0  0  0  0  0  0  0
   -3.7656   -3.0262   -3.4676 H   0  0  0  0  0  0  0  0  0  0  0  0
   -4.9554   -1.2099   -3.4065 C   0  0  0  0  0  0  0  0  0  0  0  0
   -5.6888   -1.5624   -4.1476 H   0  0  0  0  0  0  0  0  0  0  0  0
   -5.0969    0.0724   -2.8142 C   0  0  0  0  0  0  0  0  0  0  0  0
   -5.9226    0.7444   -3.0842 H   0  0  0  0  0  0  0  0  0  0  0  0
   -4.1446    0.4674   -1.8724 C   0  0  0  0  0  0  0  0  0  0  0  0
   -4.2116    1.4490   -1.3732 H   0  0  0  0  0  0  0  0  0  0  0  0
   -1.8186   -2.3174   -1.6455 C   0  0  0  0  0  0  0  0  0  0  0  0
   -1.6011   -3.2774   -2.1436 H   0  0  0  0  0  0  0  0  0  0  0  0
   -1.0550   -1.8437   -0.6464 N   0  0  0  0  0  2  0  0  0  0  0  0
    0.1541   -2.3703   -0.2655 C   0  0  0  0  0  0  0  0  0  0  0  0
    0.8280   -1.7244    0.8258 C   0  0  0  0  0  0  0  0  0  0  0  0
    0.1323   -0.7083    1.4263 O   0  0  0  0  0  0  0  0  0  0  0  0
    0.7249   -0.1699    1.9838 H   0  0  0  0  0  0  0  0  0  0  0  0
    2.0967   -2.1199    1.2325 C   0  0  0  0  0  0  0  0  0  0  0  0
    2.6173   -1.6133    2.0604 H   0  0  0  0  0  0  0  0  0  0  0  0
    2.7442   -3.2044    0.5960 C   0  0  0  0  0  0  0  0  0  0  0  0
    4.0895   -3.5801    1.0867 C   0  0  0  0  0  0  0  0  0  0  0  0
    4.6819   -3.0269    2.0037 O   0  0  0  0  0  0  0  0  0  0  0  0
    4.6184   -4.6317    0.3962 O   0  0  0  0  0  0  0  0  0  0  0  0
    5.9190   -5.0384    0.8216 C   0  0  0  0  0  0  0  0  0  0  0  0
    6.6504   -4.2109    0.7159 H   0  0  0  0  0  0  0  0  0  0  0  0
    6.2041   -5.8876    0.1746 H   0  0  0  0  0  0  0  0  0  0  0  0
    5.9114   -5.3506    1.8862 H   0  0  0  0  0  0  0  0  0  0  0  0
    2.0880   -3.8734   -0.4632 C   0  0  0  0  0  0  0  0  0  0  0  0
    2.5935   -4.7145   -0.9566 H   0  0  0  0  0  0  0  0  0  0  0  0
    0.8255   -3.4625   -0.8867 C   0  0  0  0  0  0  0  0  0  0  0  0
    0.3467   -3.9785   -1.7308 H   0  0  0  0  0  0  0  0  0  0  0  0
  2 11  2  0  0  0  0
  2  1  1  0  0  0  0
  3  2  1  0  0  0  0
  4  3  1  0  0  0  0
  5  3  2  0  0  0  0
  5  7  1  0  0  0  0
  6  5  1  0  0  0  0
  7  9  2  0  0  0  0
  8  7  1  0  0  0  0
  9  1  1  0  0  0  0
  9 10  1  0  0  0  0
 11 13  1  0  0  0  0
 12 11  1  0  0  0  0
 13 14  1  0  0  0  0
 14 15  1  0  0  0  0
 15 18  2  0  0  0  0
 15 16  1  0  0  0  0
 16 17  1  0  0  0  0
 18 19  1  0  0  0  0
 20 21  1  0  0  0  0
 20 18  1  0  0  0  0
 21 22  2  0  0  0  0
 23 24  1  0  0  0  0
 23 21  1  0  0  0  0
 24 27  1  0  0  0  0
 25 24  1  0  0  0  0
 26 24  1  0  0  0  0
 28 20  2  0  0  0  0
 29 28  1  0  0  0  0
 30 28  1  0  0  0  0
 30 14  2  0  0  0  0
 31 30  1  0  0  0  0
M  END
