1,24
q = -2.0, confidence = 0.96

 32 33  0  0  1  0  0  0  0  0999 V2000
   -1.0260   -0.8793    0.0278 N   0  0  0  0  0  2  0  0  0  0  0  0
   -1.6817   -1.7393    1.0678 C   0  0  0  0  0  0  0  0  0  0  0  0
   -0.6632   -2.6268    1.7845 C   0  0  0  0  0  0  0  0  0  0  0  0
   -0.0414   -2.0225    2.4708 H   0  0  0  0  0  0  0  0  0  0  0  0
    0.0143   -3.1395    1.0780 H   0  0  0  0  0  0  0  0  0  0  0  0
   -1.1836   -3.3946    2.3920 H   0  0  0  0  0  0  0  0  0  0  0  0
   -2.4282   -0.8772    2.0983 C   0  0  0  0  0  0  0  0  0  0  0  0
   -1.7071   -0.2410    2.6341 H   0  0  0  0  0  0  0  0  0  0  0  0
   -2.9343   -1.5191    2.8448 H   0  0  0  0  0  0  0  0  0  0  0  0
   -3.1748   -0.2168    1.6192 H   0  0  0  0  0  0  0  0  0  0  0  0
   -2.7139   -2.5626    0.1891 C   0  0  0  0  0  0  0  0  0  0  0  0
   -4.0225   -2.9722    0.8537 C   0  0  0  0  0  0  0  0  0  0  0  0
   -4.6712   -3.4581    0.1000 H   0  0  0  0  0  0  0  0  0  0  0  0
   -4.5726   -2.1069    1.2655 H   0  0  0  0  0  0  0  0  0  0  0  0
   -3.8291   -3.6949    1.6704 H   0  0  0  0  0  0  0  0  0  0  0  0
   -2.0778   -3.7688   -0.5198 C   0  0  0  0  0  0  0  0  0  0  0  0
   -2.7675   -4.1034   -1.3196 H   0  0  0  0  0  0  0  0  0  0  0  0
   -1.9158   -4.6057    0.1856 H   0  0  0  0  0  0  0  0  0  0  0  0
   -1.1083   -3.5039   -0.9832 H   0  0  0  0  0  0  0  0  0  0  0  0
   -2.9958   -1.5487   -0.8941 N   0  0  0  0  0  0  0  0  0  0  0  0
   -3.8943   -1.7174   -1.7662 O   0  0  0  0  0  1  0  0  0  0  0  0
   -1.9540   -0.6753   -0.9324 C   0  0  2  0  0  3  0  0  0  0  0  0
   -1.7612    0.3671   -1.8997 C   0  0  0  0  0  0  0  0  0  0  0  0
   -0.7853    1.2628   -1.5811 N   0  0  0  0  0  2  0  0  0  0  0  0
   -0.6915    2.1424   -2.6475 C   0  0  0  0  0  0  0  0  0  0  0  0
    0.1828    3.2658   -2.7998 C   0  0  0  0  0  0  0  0  0  0  0  0
    0.0420    3.7999   -3.7769 H   0  0  0  0  0  0  0  0  0  0  0  0
    1.0538    3.7004   -2.0146 O   0  0  0  0  0  0  0  0  0  0  0  0
   -1.6569    1.7695   -3.6397 C   0  0  0  0  0  0  0  0  0  0  0  0
   -1.8127    2.2956   -4.5899 H   0  0  0  0  0  0  0  0  0  0  0  0
   -2.3427    0.6498   -3.1645 C   0  0  0  0  0  0  0  0  0  0  0  0
   -3.1457    0.0710   -3.6309 H   0  0  0  0  0  0  0  0  0  0  0  0
  1  2  1  0  0  0  0
  2  3  1  0  0  0  0
  2  7  1  0  0  0  0
  3  6  1  0  0  0  0
  3  4  1  0  0  0  0
  5  3  1  0  0  0  0
  7  8  1  0  0  0  0
  7  9  1  0  0  0  0
 10  7  1  0  0  0  0
 11 12  1  0  0  0  0
 11  2  1  0  0  0  0
 12 14  1  0  0  0  0
 12 15  1  0  0  0  0
 13 12  1  0  0  0  0
 16 18  1  0  0  0  0
 16 11  1  0  0  0  0
 17 16  1  0  0  0  0
 19 16  1  0  0  0  0
 20 11  1  0  0  0  0
 21 20  1  0  0  0  0
 22 23  1  6  0  0  0
 22 20  1  0  0  0  0
 22  1  1  0  0  0  0
 23 24  1  0  0  0  0
 25 24  1  0  0  0  0
 26 25  1  0  0  0  0
 26 28  2  0  0  0  0
 27 26  1  0  0  0  0
 29 31  1  0  0  0  0
 29 25  2  0  0  0  0
 30 29  1  0  0  0  0
 31 23  2  0  0  0  0
 32 31  1  0  0  0  0
M  END
