1,2
q = -1.0, confidence = 0.0

 34 35  0  0  0  0  0  0  0  0999 V2000
   -1.6449   -1.8157   -1.2013 N   0  0  0  0  0  0  0  0  0  0  0  0
    0.5869   -0.4010   -1.2853 N   0  0  0  0  0  2  0  0  0  0  0  0
   -2.8899   -2.3710   -1.3080 C   0  0  0  0  0  3  0  0  0  0  0  0
   -3.1392   -3.2844   -0.7544 H   0  0  0  0  0  0  0  0  0  0  0  0
   -3.6821   -1.6007   -2.1762 C   0  0  0  0  0  0  0  0  0  0  0  0
   -4.7204   -1.8111   -2.4575 H   0  0  0  0  0  0  0  0  0  0  0  0
   -2.8846   -0.5142   -2.6101 C   0  0  0  0  0  0  0  0  0  0  0  0
   -3.1741    0.2971   -3.2881 H   0  0  0  0  0  0  0  0  0  0  0  0
   -1.6277   -0.6714   -1.9931 C   0  0  0  0  0  0  0  0  0  0  0  0
   -0.4158    0.0668   -1.9938 C   0  0  0  0  0  3  0  0  0  0  0  0
   -0.3183    0.9981   -2.5833 H   0  0  0  0  0  0  0  0  0  0  0  0
    1.7879    0.3204   -1.1433 C   0  0  0  0  0  0  0  0  0  0  0  0
    1.7979    1.7047   -0.8775 C   0  0  0  0  0  0  0  0  0  0  0  0
    0.8437    2.2487   -0.8093 H   0  0  0  0  0  0  0  0  0  0  0  0
    3.0076    2.3770   -0.6519 C   0  0  0  0  0  0  0  0  0  0  0  0
    2.9716    3.4514   -0.4259 H   0  0  0  0  0  0  0  0  0  0  0  0
    4.2424    1.6998   -0.6802 C   0  0  0  0  0  0  0  0  0  0  0  0
    4.2143    0.3183   -0.9808 C   0  0  0  0  0  0  0  0  0  0  0  0
    5.1554   -0.2504   -1.0240 H   0  0  0  0  0  0  0  0  0  0  0  0
    3.0194   -0.3653   -1.2068 C   0  0  0  0  0  0  0  0  0  0  0  0
    3.0145   -1.4409   -1.4309 H   0  0  0  0  0  0  0  0  0  0  0  0
    5.5814    2.3856   -0.3631 C   0  0  0  0  0  0  0  0  0  0  0  0
    5.4159    3.8930   -0.1055 C   0  0  0  0  0  0  0  0  0  0  0  0
    4.9917    4.4170   -0.9858 H   0  0  0  0  0  0  0  0  0  0  0  0
    6.4033    4.3481    0.1107 H   0  0  0  0  0  0  0  0  0  0  0  0
    4.7603    4.0941    0.7658 H   0  0  0  0  0  0  0  0  0  0  0  0
    6.5543    2.1988   -1.5489 C   0  0  0  0  0  0  0  0  0  0  0  0
    6.1456    2.6564   -2.4724 H   0  0  0  0  0  0  0  0  0  0  0  0
    6.7487    1.1287   -1.7601 H   0  0  0  0  0  0  0  0  0  0  0  0
    7.5298    2.6794   -1.3281 H   0  0  0  0  0  0  0  0  0  0  0  0
    6.1795    1.7344    0.9060 C   0  0  0  0  0  0  0  0  0  0  0  0
    6.3519    0.6487    0.7670 H   0  0  0  0  0  0  0  0  0  0  0  0
    5.4949    1.8545    1.7701 H   0  0  0  0  0  0  0  0  0  0  0  0
    7.1514    2.2041    1.1639 H   0  0  0  0  0  0  0  0  0  0  0  0
  2 12  1  0  0  0  0
  3  1  1  0  0  0  0
  3  4  1  0  0  0  0
  5  3  1  0  0  0  0
  6  5  1  0  0  0  0
  7  5  2  0  0  0  0
  7  9  1  0  0  0  0
  8  7  1  0  0  0  0
  9  1  2  0  0  0  0
 10  9  1  0  0  0  0
 10  2  1  0  0  0  0
 11 10  1  0  0  0  0
 12 13  1  0  0  0  0
 13 14  1  0  0  0  0
 13 15  2  0  0  0  0
 15 16  1  0  0  0  0
 17 15  1  0  0  0  0
 17 22  1  0  0  0  0
 18 17  2  0  0  0  0
 19 18  1  0  0  0  0
 20 12  2  0  0  0  0
 20 18  1  0  0  0  0
 21 20  1  0  0  0  0
 22 23  1  0  0  0  0
 22 31  1  0  0  0  0
 23 25  1  0  0  0  0
 23 26  1  0  0  0  0
 24 23  1  0  0  0  0
 27 30  1  0  0  0  0
 27 22  1  0  0  0  0
 28 27  1  0  0  0  0
 29 27  1  0  0  0  0
 31 34  1  0  0  0  0
 31 33  1  0  0  0  0
 32 31  1  0  0  0  0
M  END
