1,7
q = 0.0, confidence = 1.0

 27 30  0  0  1  0  0  0  0  0999 V2000
    1.3171    0.3061   -0.0486 N   0  0  0  0  0  2  0  0  0  0  0  0
    2.6174   -0.0155   -0.0162 N   0  0  0  0  0  0  0  0  0  0  0  0
    2.8186   -1.0667   -0.1168 H   0  0  0  0  0  0  0  0  0  0  0  0
    4.7145    1.1744    0.0606 N   0  0  0  0  0  0  0  0  0  0  0  0
   -0.7993    3.2844   -0.1354 N   0  0  0  0  0  0  0  0  0  0  0  0
   -0.3141    4.1781   -0.1876 H   0  0  0  0  0  0  0  0  0  0  0  0
   -1.1219    1.0679   -0.0839 N   0  0  0  0  0  2  0  0  0  0  0  0
    3.3819    1.1259    0.0234 C   0  0  2  0  0  3  0  0  0  0  0  0
    5.2293    2.4108    0.0996 C   0  0  0  0  0  0  0  0  0  0  0  0
    6.3307    2.4781    0.1281 H   0  0  0  0  0  0  0  0  0  0  0  0
    4.4581    3.6009    0.1069 C   0  0  0  0  0  0  0  0  0  0  0  0
    4.9700    4.5734    0.1413 H   0  0  0  0  0  0  0  0  0  0  0  0
    3.0610    3.5349    0.0696 C   0  0  0  0  0  0  0  0  0  0  0  0
    2.4527    4.4520    0.0741 H   0  0  0  0  0  0  0  0  0  0  0  0
    2.4802    2.2519    0.0232 C   0  0  0  0  0  0  0  0  0  0  0  0
    1.1798    1.6652   -0.0314 C   0  0  0  0  0  0  0  0  0  0  0  0
   -0.2000    2.0528   -0.0779 C   0  0  1  0  0  3  0  0  0  0  0  0
   -2.1757    3.0879   -0.2102 C   0  0  0  0  0  0  0  0  0  0  0  0
   -3.2556    3.9774   -0.2976 C   0  0  0  0  0  0  0  0  0  0  0  0
   -3.1098    5.0672   -0.3161 H   0  0  0  0  0  0  0  0  0  0  0  0
   -4.5354    3.4091   -0.3700 C   0  0  0  0  0  0  0  0  0  0  0  0
   -5.4103    4.0718   -0.4442 H   0  0  0  0  0  0  0  0  0  0  0  0
   -4.7273    2.0058   -0.3633 C   0  0  0  0  0  0  0  0  0  0  0  0
   -5.7496    1.6071   -0.4416 H   0  0  0  0  0  0  0  0  0  0  0  0
   -3.6519    1.1146   -0.2753 C   0  0  0  0  0  0  0  0  0  0  0  0
   -3.7641    0.0202   -0.3035 H   0  0  0  0  0  0  0  0  0  0  0  0
   -2.3636    1.6724   -0.1869 C   0  0  0  0  0  0  0  0  0  0  0  0
  1 16  1  0  0  0  0
  1  2  1  0  0  0  0
  2  8  1  0  0  0  0
  3  2  1  0  0  0  0
  4  9  2  0  0  0  0
  5 17  1  0  0  0  0
  6  5  1  0  0  0  0
  7 17  1  0  0  0  0
  8 15  1  1  0  0  0
  8  4  1  0  0  0  0
  9 11  1  0  0  0  0
  9 10  1  0  0  0  0
 11 12  1  0  0  0  0
 13 14  1  0  0  0  0
 13 11  2  0  0  0  0
 15 13  1  0  0  0  0
 16 15  2  0  0  0  0
 17 16  1  6  0  0  0
 18 27  1  0  0  0  0
 18  5  1  0  0  0  0
 19 18  2  0  0  0  0
 20 19  1  0  0  0  0
 21 23  2  0  0  0  0
 21 19  1  0  0  0  0
 22 21  1  0  0  0  0
 23 25  1  0  0  0  0
 24 23  1  0  0  0  0
 25 27  2  0  0  0  0
 26 25  1  0  0  0  0
 27  7  1  0  0  0  0
M  END
