1,6
q = 0.0, confidence = 0.994

 26 25  0  0  0  0  0  0  0  0999 V2000
    1.3276    1.3224    0.3171 N   0  0  0  0  0  2  0  0  0  0  0  0
    0.7204    2.4788    0.3749 C   0  0  0  0  0  0  0  0  0  0  0  0
    2.8010    1.3174    0.3790 C   0  0  0  0  0  0  0  0  0  0  0  0
    3.2861    0.3939    1.4995 C   0  0  0  0  0  0  0  0  0  0  0  0
    3.3935    0.9597   -0.9897 C   0  0  0  0  0  0  0  0  0  0  0  0
   -1.3276    1.3224    0.3171 N   0  0  0  0  0  2  0  0  0  0  0  0
   -0.7204    2.4788    0.3749 C   0  0  0  0  0  0  0  0  0  0  0  0
   -2.8010    1.3175    0.3788 C   0  0  0  0  0  0  0  0  0  0  0  0
   -3.2861    0.3942    1.4995 C   0  0  0  0  0  0  0  0  0  0  0  0
   -3.3934    0.9595   -0.9898 C   0  0  0  0  0  0  0  0  0  0  0  0
    1.2871    3.4231    0.4739 H   0  0  0  0  0  0  0  0  0  0  0  0
    3.1147    2.3578    0.6270 H   0  0  0  0  0  0  0  0  0  0  0  0
    3.1911   -0.0932   -1.2586 H   0  0  0  0  0  0  0  0  0  0  0  0
    2.9674    1.5965   -1.7877 H   0  0  0  0  0  0  0  0  0  0  0  0
    4.4917    1.1044   -0.9568 H   0  0  0  0  0  0  0  0  0  0  0  0
    3.0487   -0.6645    1.2811 H   0  0  0  0  0  0  0  0  0  0  0  0
    2.8208    0.6596    2.4690 H   0  0  0  0  0  0  0  0  0  0  0  0
    4.3856    0.4842    1.6009 H   0  0  0  0  0  0  0  0  0  0  0  0
   -1.2871    3.4232    0.4737 H   0  0  0  0  0  0  0  0  0  0  0  0
   -3.1912   -0.0935   -1.2584 H   0  0  0  0  0  0  0  0  0  0  0  0
   -4.4917    1.1044   -0.9571 H   0  0  0  0  0  0  0  0  0  0  0  0
   -2.9672    1.5960   -1.7879 H   0  0  0  0  0  0  0  0  0  0  0  0
   -2.8210    0.6601    2.4690 H   0  0  0  0  0  0  0  0  0  0  0  0
   -4.3857    0.4844    1.6007 H   0  0  0  0  0  0  0  0  0  0  0  0
   -3.0487   -0.6643    1.2814 H   0  0  0  0  0  0  0  0  0  0  0  0
   -3.1147    2.3579    0.6266 H   0  0  0  0  0  0  0  0  0  0  0  0
  1  2  1  0  0  0  0
  1  3  1  0  0  0  0
  2 11  1  0  0  0  0
  3 12  1  0  0  0  0
  3  4  1  0  0  0  0
  4 18  1  0  0  0  0
  4 17  1  0  0  0  0
  5 15  1  0  0  0  0
  5  3  1  0  0  0  0
  6  7  1  0  0  0  0
  6  8  1  0  0  0  0
  7  2  2  0  0  0  0
  7 19  1  0  0  0  0
  8 26  1  0  0  0  0
  8  9  1  0  0  0  0
  9 24  1  0  0  0  0
  9 23  1  0  0  0  0
 10 21  1  0  0  0  0
 10  8  1  0  0  0  0
 13  5  1  0  0  0  0
 14  5  1  0  0  0  0
 16  4  1  0  0  0  0
 20 10  1  0  0  0  0
 22 10  1  0  0  0  0
 25  9  1  0  0  0  0
M  END
