1,3
q = 0.0, confidence = 0.992

 19 20  0  0  0  0  0  0  0  0999 V2000
    0.7205   -1.4333   -0.1121 N   0  0  0  0  0  2  0  0  0  0  0  0
    1.9423   -1.1950    0.4339 N   0  0  0  0  0  0  0  0  0  0  0  0
    0.7206    1.4332   -0.1122 N   0  0  0  0  0  2  0  0  0  0  0  0
    1.9424    1.1949    0.4339 N   0  0  0  0  0  0  0  0  0  0  0  0
    0.8245   -2.5964   -0.7880 C   0  0  0  0  0  3  0  0  0  0  0  0
    2.1310   -3.1109   -0.6701 C   0  0  0  0  0  0  0  0  0  0  0  0
    2.8199   -2.1883    0.1128 C   0  0  0  0  0  0  0  0  0  0  0  0
    0.8246    2.5963   -0.7880 C   0  0  0  0  0  3  0  0  0  0  0  0
    2.1311    3.1109   -0.6700 C   0  0  0  0  0  0  0  0  0  0  0  0
    2.8200    2.1883    0.1130 C   0  0  0  0  0  0  0  0  0  0  0  0
    2.1356   -0.0001    1.2319 C   0  0  0  0  0  0  0  0  0  0  0  0
   -0.0409   -3.0008   -1.3256 H   0  0  0  0  0  0  0  0  0  0  0  0
    2.5227   -4.0386   -1.0989 H   0  0  0  0  0  0  0  0  0  0  0  0
    3.8548   -2.1714    0.4735 H   0  0  0  0  0  0  0  0  0  0  0  0
   -0.0407    3.0008   -1.3257 H   0  0  0  0  0  0  0  0  0  0  0  0
    2.5228    4.0386   -1.0986 H   0  0  0  0  0  0  0  0  0  0  0  0
    3.8548    2.1713    0.4738 H   0  0  0  0  0  0  0  0  0  0  0  0
    3.1621   -0.0001    1.6380 H   0  0  0  0  0  0  0  0  0  0  0  0
    1.4022   -0.0000    2.0662 H   0  0  0  0  0  0  0  0  0  0  0  0
  1  2  1  0  0  0  0
  2 11  1  0  0  0  0
  3  4  1  0  0  0  0
  4 11  1  0  0  0  0
  5  6  1  0  0  0  0
  5  1  1  0  0  0  0
  6  7  2  0  0  0  0
  7  2  1  0  0  0  0
  7 14  1  0  0  0  0
  8  9  1  0  0  0  0
  8  3  1  0  0  0  0
  9 10  2  0  0  0  0
 10  4  1  0  0  0  0
 10 17  1  0  0  0  0
 11 18  1  0  0  0  0
 11 19  1  0  0  0  0
 12  5  1  0  0  0  0
 13  6  1  0  0  0  0
 15  8  1  0  0  0  0
 16  9  1  0  0  0  0
M  END
