1,2
q = 0.0, confidence = 1.0

 44 45  0  0  1  0  0  0  0  0999 V2000
   -0.4426    1.3009   -0.0951 N   0  0  0  0  0  2  0  0  0  0  0  0
   -0.4380   -1.2724    0.1019 N   0  0  0  0  0  2  0  0  0  0  0  0
   -0.5317   -2.6225    0.0657 C   0  0  0  0  0  3  0  0  0  0  0  0
    0.5826   -3.4533   -0.0430 C   0  0  0  0  0  0  0  0  0  0  0  0
    1.8839   -2.9098   -0.1265 C   0  0  0  0  0  0  0  0  0  0  0  0
    1.9654   -1.5081   -0.1059 C   0  0  0  0  0  0  0  0  0  0  0  0
    0.8067   -0.7218    0.0021 C   0  0  0  0  0  0  0  0  0  0  0  0
    0.8061    0.7507    0.0024 C   0  0  2  0  0  3  0  0  0  0  0  0
    1.9579    1.5404    0.1065 C   0  0  0  0  0  0  0  0  0  0  0  0
    1.8741    2.9464    0.1253 C   0  0  0  0  0  0  0  0  0  0  0  0
    0.5759    3.4862    0.0448 C   0  0  0  0  0  0  0  0  0  0  0  0
   -0.5382    2.6474   -0.0597 C   0  0  0  0  0  0  0  0  0  0  0  0
    3.1107   -3.8219   -0.2411 C   0  0  0  0  0  0  0  0  0  0  0  0
    2.9777   -4.6812   -1.5197 C   0  0  0  0  0  0  0  0  0  0  0  0
    4.4209   -3.0203   -0.3192 C   0  0  0  0  0  0  0  0  0  0  0  0
    3.1648   -4.7416    1.0008 C   0  0  0  0  0  0  0  0  0  0  0  0
    3.1436    3.7996    0.2370 C   0  0  0  0  0  0  0  0  0  0  0  0
    2.8257    5.3044    0.2315 C   0  0  0  0  0  0  0  0  0  0  0  0
    4.0669    3.4832   -0.9623 C   0  0  0  0  0  0  0  0  0  0  0  0
    3.8683    3.4501    1.5574 C   0  0  0  0  0  0  0  0  0  0  0  0
   -1.5453   -3.0376    0.1305 H   0  0  0  0  0  0  0  0  0  0  0  0
    0.4191   -4.5402   -0.0613 H   0  0  0  0  0  0  0  0  0  0  0  0
    2.9373   -1.0074   -0.1901 H   0  0  0  0  0  0  0  0  0  0  0  0
    2.9350    1.0450    0.1891 H   0  0  0  0  0  0  0  0  0  0  0  0
    0.4056    4.5701    0.0611 H   0  0  0  0  0  0  0  0  0  0  0  0
   -1.5526    3.0612   -0.1227 H   0  0  0  0  0  0  0  0  0  0  0  0
    3.8518   -5.3568   -1.6177 H   0  0  0  0  0  0  0  0  0  0  0  0
    2.9312   -4.0436   -2.4253 H   0  0  0  0  0  0  0  0  0  0  0  0
    2.0665   -5.3111   -1.5012 H   0  0  0  0  0  0  0  0  0  0  0  0
    5.2804   -3.7152   -0.3963 H   0  0  0  0  0  0  0  0  0  0  0  0
    4.5786   -2.3973    0.5844 H   0  0  0  0  0  0  0  0  0  0  0  0
    4.4490   -2.3593   -1.2090 H   0  0  0  0  0  0  0  0  0  0  0  0
    3.2559   -4.1481    1.9326 H   0  0  0  0  0  0  0  0  0  0  0  0
    4.0407   -5.4188    0.9357 H   0  0  0  0  0  0  0  0  0  0  0  0
    2.2581   -5.3720    1.0879 H   0  0  0  0  0  0  0  0  0  0  0  0
    3.7661    5.8854    0.3089 H   0  0  0  0  0  0  0  0  0  0  0  0
    2.1846    5.5941    1.0882 H   0  0  0  0  0  0  0  0  0  0  0  0
    2.3180    5.6154   -0.7035 H   0  0  0  0  0  0  0  0  0  0  0  0
    4.3632    2.4155   -0.9866 H   0  0  0  0  0  0  0  0  0  0  0  0
    4.9948    4.0873   -0.8992 H   0  0  0  0  0  0  0  0  0  0  0  0
    3.5668    3.7188   -1.9231 H   0  0  0  0  0  0  0  0  0  0  0  0
    4.7928    4.0546    1.6567 H   0  0  0  0  0  0  0  0  0  0  0  0
    4.1602    2.3818    1.5998 H   0  0  0  0  0  0  0  0  0  0  0  0
    3.2230    3.6605    2.4338 H   0  0  0  0  0  0  0  0  0  0  0  0
  1 12  1  0  0  0  0
  1  8  1  0  0  0  0
  3  2  1  0  0  0  0
  3 21  1  0  0  0  0
  4  3  1  0  0  0  0
  5  6  1  0  0  0  0
  5  4  2  0  0  0  0
  6  7  2  0  0  0  0
  7  2  1  0  0  0  0
  8  7  1  1  0  0  0
  8  9  1  0  0  0  0
  9 10  2  0  0  0  0
  9 24  1  0  0  0  0
 10 17  1  0  0  0  0
 11 25  1  0  0  0  0
 11 10  1  0  0  0  0
 12 11  2  0  0  0  0
 13  5  1  0  0  0  0
 13 16  1  0  0  0  0
 14 29  1  0  0  0  0
 14 13  1  0  0  0  0
 15 13  1  0  0  0  0
 15 31  1  0  0  0  0
 16 35  1  0  0  0  0
 16 33  1  0  0  0  0
 17 20  1  0  0  0  0
 18 17  1  0  0  0  0
 18 36  1  0  0  0  0
 18 37  1  0  0  0  0
 19 40  1  0  0  0  0
 19 17  1  0  0  0  0
 20 43  1  0  0  0  0
 20 42  1  0  0  0  0
 20 44  1  0  0  0  0
 22  4  1  0  0  0  0
 23  6  1  0  0  0  0
 26 12  1  0  0  0  0
 27 14  1  0  0  0  0
 28 14  1  0  0  0  0
 30 15  1  0  0  0  0
 32 15  1  0  0  0  0
 34 16  1  0  0  0  0
 38 18  1  0  0  0  0
 39 19  1  0  0  0  0
 41 19  1  0  0  0  0
M  END
