3,9
q = 0.0, confidence = 0.978

 20 19  0  0  0  0  0  0  0  0999 V2000
    1.7268    1.8222    1.3108 N   0  0  0  0  0  0  0  0  0  0  0  0
    1.2730    2.6839    1.6488 H   0  0  0  0  0  0  0  0  0  0  0  0
    0.1752   -0.2682    2.4874 N   0  0  0  0  0  0  0  0  0  0  0  0
   -0.6644   -0.5466    3.0124 H   0  0  0  0  0  0  0  0  0  0  0  0
    0.6484   -1.1502    2.2322 H   0  0  0  0  0  0  0  0  0  0  0  0
    2.8062    2.2214    0.3865 C   0  0  0  0  0  0  0  0  0  0  0  0
    3.4035    1.3161    0.1568 H   0  0  0  0  0  0  0  0  0  0  0  0
    3.5079    2.9496    0.8530 H   0  0  0  0  0  0  0  0  0  0  0  0
    1.2896    1.8462   -1.5109 N   0  0  0  0  0  0  0  0  0  0  0  0
    1.8231    1.0170   -1.8667 H   0  0  0  0  0  0  0  0  0  0  0  0
    0.8869    2.2699   -2.3574 H   0  0  0  0  0  0  0  0  0  0  0  0
    2.2265    1.0770    2.4852 C   0  0  0  0  0  0  0  0  0  0  0  0
    2.9060    1.6954    3.1144 H   0  0  0  0  0  0  0  0  0  0  0  0
    2.8218    0.2253    2.0986 H   0  0  0  0  0  0  0  0  0  0  0  0
    2.2235    2.8088   -0.8906 C   0  0  0  0  0  0  0  0  0  0  0  0
    1.6665    3.7430   -0.6558 H   0  0  0  0  0  0  0  0  0  0  0  0
    3.0561    3.0986   -1.5686 H   0  0  0  0  0  0  0  0  0  0  0  0
    1.0663    0.5583    3.3235 C   0  0  0  0  0  0  0  0  0  0  0  0
    1.4681    0.0102    4.2036 H   0  0  0  0  0  0  0  0  0  0  0  0
    0.4750    1.4084    3.7295 H   0  0  0  0  0  0  0  0  0  0  0  0
  1  2  1  0  0  0  0
  1 12  1  0  0  0  0
  3  4  1  0  0  0  0
  3 18  1  0  0  0  0
  5  3  1  0  0  0  0
  6  8  1  0  0  0  0
  6  1  1  0  0  0  0
  7  6  1  0  0  0  0
  9 15  1  0  0  0  0
 10  9  1  0  0  0  0
 11  9  1  0  0  0  0
 12 13  1  0  0  0  0
 12 18  1  0  0  0  0
 14 12  1  0  0  0  0
 15 16  1  0  0  0  0
 15  6  1  0  0  0  0
 17 15  1  0  0  0  0
 18 20  1  0  0  0  0
 18 19  1  0  0  0  0
M  END
