2,3
q = -1.0, confidence = 0.012

 52 54  0  0  1  0  0  0  0  0999 V2000
   -0.5213    0.2233    0.0687 O   0  0  0  0  0  0  0  0  0  0  0  0
    1.5405   -1.1027   -2.0378 N   0  0  0  0  0  2  0  0  0  0  0  0
    1.8636   -1.4711    0.5628 N   0  0  0  0  0  2  0  0  0  0  0  0
    1.2257    1.2665   -1.2070 C   0  0  0  0  0  0  0  0  0  0  0  0
   -2.3777   -0.9979    1.7512 O   0  0  0  0  0  0  0  0  0  0  0  0
   -1.7060   -1.6039    1.3399 H   0  0  0  0  0  0  0  0  0  0  0  0
   -2.7578   -0.0170    0.8943 C   0  0  0  0  0  0  0  0  0  0  0  0
   -2.2636    1.7006   -0.7885 C   0  0  0  0  0  0  0  0  0  0  0  0
   -1.5226    2.1908   -1.4378 H   0  0  0  0  0  0  0  0  0  0  0  0
    0.4517    1.2081   -0.0312 C   0  0  0  0  0  0  0  0  0  0  0  0
   -1.8541    0.6489    0.0385 C   0  0  0  0  0  0  0  0  0  0  0  0
   -3.6016    2.1355   -0.7738 C   0  0  0  0  0  0  0  0  0  0  0  0
    2.9174   -1.0713   -1.5209 C   0  0  0  0  0  0  0  0  0  0  0  0
    3.5140   -0.2832   -2.0302 H   0  0  0  0  0  0  0  0  0  0  0  0
    3.4014   -2.0478   -1.7549 H   0  0  0  0  0  0  0  0  0  0  0  0
    2.9361   -0.8816   -0.0340 C   0  0  2  0  0  3  0  0  0  0  0  0
    1.0130    0.2374   -2.3018 C   0  0  0  0  0  0  0  0  0  0  0  0
    1.5229    0.5960   -3.2291 H   0  0  0  0  0  0  0  0  0  0  0  0
   -0.0605    0.1103   -2.5517 H   0  0  0  0  0  0  0  0  0  0  0  0
    2.5260    3.0986   -0.2064 C   0  0  0  0  0  0  0  0  0  0  0  0
    2.2522    2.2277   -1.2765 C   0  0  0  0  0  0  0  0  0  0  0  0
    2.8554    2.2937   -2.1975 H   0  0  0  0  0  0  0  0  0  0  0  0
    0.6932    2.0543    1.0730 C   0  0  0  0  0  0  0  0  0  0  0  0
    1.7422    2.9840    0.9598 C   0  0  0  0  0  0  0  0  0  0  0  0
    1.9530    3.6442    1.8173 H   0  0  0  0  0  0  0  0  0  0  0  0
    1.7014   -1.4258    1.8981 C   0  0  0  0  0  0  0  0  0  0  0  0
    0.8062   -1.9442    2.2789 H   0  0  0  0  0  0  0  0  0  0  0  0
   -4.4976    1.4847    0.0963 C   0  0  0  0  0  0  0  0  0  0  0  0
   -5.5489    1.8138    0.1290 H   0  0  0  0  0  0  0  0  0  0  0  0
   -4.1042    0.4195    0.9251 C   0  0  0  0  0  0  0  0  0  0  0  0
   -5.0617   -0.2704    1.8581 C   0  0  0  0  0  0  0  0  0  0  0  0
   -5.0627   -1.3657    1.6822 H   0  0  0  0  0  0  0  0  0  0  0  0
   -6.0920    0.1141    1.7348 H   0  0  0  0  0  0  0  0  0  0  0  0
   -4.7608   -0.1335    2.9181 H   0  0  0  0  0  0  0  0  0  0  0  0
    3.6145    4.1388   -0.3019 C   0  0  0  0  0  0  0  0  0  0  0  0
    4.3068    3.9326   -1.1413 H   0  0  0  0  0  0  0  0  0  0  0  0
    4.2108    4.1928    0.6317 H   0  0  0  0  0  0  0  0  0  0  0  0
    3.1878    5.1512   -0.4675 H   0  0  0  0  0  0  0  0  0  0  0  0
   -0.1509    1.9399    2.3124 C   0  0  0  0  0  0  0  0  0  0  0  0
   -1.1187    2.4684    2.1792 H   0  0  0  0  0  0  0  0  0  0  0  0
    0.3613    2.3788    3.1899 H   0  0  0  0  0  0  0  0  0  0  0  0
   -0.4112    0.8840    2.5265 H   0  0  0  0  0  0  0  0  0  0  0  0
    3.8952   -0.2061    0.7313 C   0  0  0  0  0  0  0  0  0  0  0  0
    4.7436    0.2811    0.2313 H   0  0  0  0  0  0  0  0  0  0  0  0
    2.6220   -0.7625    2.7148 C   0  0  0  0  0  0  0  0  0  0  0  0
    2.4589   -0.7319    3.8009 H   0  0  0  0  0  0  0  0  0  0  0  0
    3.7272   -0.1350    2.1204 C   0  0  0  0  0  0  0  0  0  0  0  0
    4.4542    0.4139    2.7378 H   0  0  0  0  0  0  0  0  0  0  0  0
   -4.0620    3.2405   -1.6923 C   0  0  0  0  0  0  0  0  0  0  0  0
   -3.2797    4.0147   -1.8267 H   0  0  0  0  0  0  0  0  0  0  0  0
   -4.9732    3.7378   -1.3053 H   0  0  0  0  0  0  0  0  0  0  0  0
   -4.3074    2.8492   -2.7036 H   0  0  0  0  0  0  0  0  0  0  0  0
  2 13  1  0  0  0  0
  3 26  1  0  0  0  0
  4 10  1  0  0  0  0
  6  5  1  0  0  0  0
  7 30  1  0  0  0  0
  7  5  1  0  0  0  0
  8 12  2  0  0  0  0
  8 11  1  0  0  0  0
  9  8  1  0  0  0  0
 10  1  1  0  0  0  0
 10 23  2  0  0  0  0
 11  1  1  0  0  0  0
 11  7  2  0  0  0  0
 12 28  1  0  0  0  0
 14 13  1  0  0  0  0
 15 13  1  0  0  0  0
 16 13  1  1  0  0  0
 16  3  1  0  0  0  0
 16 43  1  0  0  0  0
 17  2  1  0  0  0  0
 17  4  1  0  0  0  0
 18 17  1  0  0  0  0
 19 17  1  0  0  0  0
 20 24  2  0  0  0  0
 21  4  2  0  0  0  0
 21 20  1  0  0  0  0
 22 21  1  0  0  0  0
 23 39  1  0  0  0  0
 24 23  1  0  0  0  0
 24 25  1  0  0  0  0
 26 27  1  0  0  0  0
 26 45  2  0  0  0  0
 28 29  1  0  0  0  0
 28 30  2  0  0  0  0
 30 31  1  0  0  0  0
 31 34  1  0  0  0  0
 32 31  1  0  0  0  0
 33 31  1  0  0  0  0
 35 20  1  0  0  0  0
 35 37  1  0  0  0  0
 36 35  1  0  0  0  0
 38 35  1  0  0  0  0
 39 42  1  0  0  0  0
 39 41  1  0  0  0  0
 40 39  1  0  0  0  0
 43 47  2  0  0  0  0
 44 43  1  0  0  0  0
 45 46  1  0  0  0  0
 47 45  1  0  0  0  0
 47 48  1  0  0  0  0
 49 51  1  0  0  0  0
 49 12  1  0  0  0  0
 50 49  1  0  0  0  0
 52 49  1  0  0  0  0
M  END
