1,3
q = 0.0, confidence = 0.986

 20 21  0  0  1  0  0  0  0  0999 V2000
    2.1617   -0.4941    1.3371 N   0  0  0  0  0  2  0  0  0  0  0  0
    3.7490    1.8040    0.9952 N   0  0  0  0  0  0  0  0  0  0  0  0
    1.8471   -2.1650   -0.8732 N   0  0  0  0  0  2  0  0  0  0  0  0
    2.7346    3.5955    3.7968 N   0  0  0  0  0  0  0  0  0  0  0  0
    2.9941   -0.3692    0.2841 C   0  0  2  0  0  3  0  0  0  0  0  0
    3.7874    0.7922    0.1300 C   0  0  0  0  0  0  0  0  0  0  0  0
    4.4472    0.9153   -0.7453 H   0  0  0  0  0  0  0  0  0  0  0  0
    2.8952    1.6767    2.0316 C   0  0  0  0  0  0  0  0  0  0  0  0
    2.0989    0.5194    2.2039 C   0  0  0  0  0  0  0  0  0  0  0  0
    1.3972    0.4321    3.0477 H   0  0  0  0  0  0  0  0  0  0  0  0
    2.9973   -1.4625   -0.7207 C   0  0  2  0  0  3  0  0  0  0  0  0
    4.1368   -1.7464   -1.4999 C   0  0  0  0  0  0  0  0  0  0  0  0
    5.0686   -1.1879   -1.3355 H   0  0  0  0  0  0  0  0  0  0  0  0
    4.0751   -2.7584   -2.4647 C   0  0  0  0  0  0  0  0  0  0  0  0
    4.9554   -2.9927   -3.0814 H   0  0  0  0  0  0  0  0  0  0  0  0
    2.8773   -3.4684   -2.6239 C   0  0  0  0  0  0  0  0  0  0  0  0
    2.7774   -4.2684   -3.3712 H   0  0  0  0  0  0  0  0  0  0  0  0
    1.7933   -3.1390   -1.7986 C   0  0  0  0  0  0  0  0  0  0  0  0
    0.8337   -3.6730   -1.8853 H   0  0  0  0  0  0  0  0  0  0  0  0
    2.8171    2.7505    2.9876 C   0  0  0  0  0  0  0  0  0  0  0  0
  1  9  1  0  0  0  0
  2  8  1  0  0  0  0
  3 11  1  0  0  0  0
  5  6  1  6  0  0  0
  5  1  1  0  0  0  0
  6  2  2  0  0  0  0
  7  6  1  0  0  0  0
  8  9  2  0  0  0  0
  8 20  1  0  0  0  0
  9 10  1  0  0  0  0
 11 12  1  6  0  0  0
 11  5  1  0  0  0  0
 12 13  1  0  0  0  0
 14 12  2  0  0  0  0
 15 14  1  0  0  0  0
 16 14  1  0  0  0  0
 16 18  2  0  0  0  0
 17 16  1  0  0  0  0
 18  3  1  0  0  0  0
 19 18  1  0  0  0  0
 20  4  3  0  0  0  0
M  END
