2,4
q = 0.0, confidence = 0.998

 31 34  0  0  0  0  0  0  0  0999 V2000
   -1.1974    1.1452    0.5209 N   0  0  0  0  0  0  0  0  0  0  0  0
   -1.4728   -0.1111    0.0584 N   0  0  0  0  0  2  0  0  0  0  0  0
    1.1970    1.1455    0.5199 N   0  0  0  0  0  0  0  0  0  0  0  0
    1.4727   -0.1110    0.0581 N   0  0  0  0  0  2  0  0  0  0  0  0
   -2.6693   -0.1102   -0.5395 C   0  0  0  0  0  0  0  0  0  0  0  0
   -3.0564   -1.0367   -0.9804 H   0  0  0  0  0  0  0  0  0  0  0  0
   -3.2251    1.1962   -0.4599 C   0  0  0  0  0  0  0  0  0  0  0  0
   -4.4390    1.7858   -0.8925 C   0  0  0  0  0  3  0  0  0  0  0  0
   -5.1945    1.1896   -1.4234 H   0  0  0  0  0  0  0  0  0  0  0  0
   -4.6378    3.1352   -0.6214 C   0  0  0  0  0  0  0  0  0  0  0  0
   -5.5684    3.6245   -0.9426 H   0  0  0  0  0  0  0  0  0  0  0  0
   -3.6591    3.9030    0.0693 C   0  0  0  0  0  0  0  0  0  0  0  0
   -3.8580    4.9674    0.2631 H   0  0  0  0  0  0  0  0  0  0  0  0
   -2.4547    3.3522    0.5091 C   0  0  0  0  0  0  0  0  0  0  0  0
   -1.7132    3.9643    1.0416 H   0  0  0  0  0  0  0  0  0  0  0  0
   -2.2515    1.9876    0.2292 C   0  0  0  0  0  0  0  0  0  0  0  0
    2.6695   -0.1103   -0.5392 C   0  0  0  0  0  0  0  0  0  0  0  0
    3.0568   -1.0369   -0.9798 H   0  0  0  0  0  0  0  0  0  0  0  0
    3.2252    1.1962   -0.4597 C   0  0  0  0  0  0  0  0  0  0  0  0
    4.4394    1.7857   -0.8919 C   0  0  0  0  0  3  0  0  0  0  0  0
    5.1951    1.1893   -1.4223 H   0  0  0  0  0  0  0  0  0  0  0  0
    4.6381    3.1351   -0.6209 C   0  0  0  0  0  0  0  0  0  0  0  0
    5.5689    3.6243   -0.9418 H   0  0  0  0  0  0  0  0  0  0  0  0
    3.6590    3.9030    0.0691 C   0  0  0  0  0  0  0  0  0  0  0  0
    3.8579    4.9675    0.2628 H   0  0  0  0  0  0  0  0  0  0  0  0
    2.4544    3.3524    0.5085 C   0  0  0  0  0  0  0  0  0  0  0  0
    1.7126    3.9646    1.0404 H   0  0  0  0  0  0  0  0  0  0  0  0
    2.2513    1.9878    0.2288 C   0  0  0  0  0  0  0  0  0  0  0  0
    0.0001    1.3663    1.2994 C   0  0  0  0  0  0  0  0  0  0  0  0
    0.0001    2.4104    1.6570 H   0  0  0  0  0  0  0  0  0  0  0  0
    0.0005    0.6909    2.1833 H   0  0  0  0  0  0  0  0  0  0  0  0
  1 29  1  0  0  0  0
  2  1  1  0  0  0  0
  3 29  1  0  0  0  0
  4  3  1  0  0  0  0
  5  7  2  0  0  0  0
  5  2  1  0  0  0  0
  6  5  1  0  0  0  0
  7 16  1  0  0  0  0
  8 10  1  0  0  0  0
  8  7  1  0  0  0  0
  9  8  1  0  0  0  0
 10 12  2  0  0  0  0
 11 10  1  0  0  0  0
 12 13  1  0  0  0  0
 12 14  1  0  0  0  0
 14 15  1  0  0  0  0
 16 14  2  0  0  0  0
 16  1  1  0  0  0  0
 17 19  2  0  0  0  0
 17  4  1  0  0  0  0
 18 17  1  0  0  0  0
 19 28  1  0  0  0  0
 20 22  1  0  0  0  0
 20 19  1  0  0  0  0
 21 20  1  0  0  0  0
 22 24  2  0  0  0  0
 23 22  1  0  0  0  0
 24 25  1  0  0  0  0
 24 26  1  0  0  0  0
 26 27  1  0  0  0  0
 28 26  2  0  0  0  0
 28  3  1  0  0  0  0
 29 30  1  0  0  0  0
 29 31  1  0  0  0  0
M  END
