1,2
q = 0.0, confidence = 0.98

 14 13  0  0  0  0  0  0  0  0999 V2000
    1.4213    1.2361   -0.0533 N   0  0  0  0  0  2  0  0  0  0  0  0
    1.3803   -1.2522   -0.0081 N   0  0  0  0  0  2  0  0  0  0  0  0
    3.7781    1.4214   -0.0789 N   0  0  0  0  0  0  0  0  0  0  0  0
    3.7299   -1.5347   -0.1124 N   0  0  0  0  0  0  0  0  0  0  0  0
    1.3879    2.6089   -0.0145 O   0  0  0  0  0  0  0  0  0  0  0  0
    1.2514   -2.5827   -0.0044 O   0  0  0  0  0  0  0  0  0  0  0  0
    2.6298    0.7073   -0.0498 C   0  0  0  0  0  0  0  0  0  0  0  0
    2.6036   -0.7658   -0.0896 C   0  0  0  0  0  0  0  0  0  0  0  0
    0.1926   -2.7278    0.0542 H   0  0  0  0  0  0  0  0  0  0  0  0
    3.6972    2.4365    0.0132 H   0  0  0  0  0  0  0  0  0  0  0  0
    4.6435    0.9929    0.2494 H   0  0  0  0  0  0  0  0  0  0  0  0
    4.5207   -1.2116   -0.6738 H   0  0  0  0  0  0  0  0  0  0  0  0
    3.5518   -2.5424   -0.1688 H   0  0  0  0  0  0  0  0  0  0  0  0
    0.4309    2.8188   -0.1799 H   0  0  0  0  0  0  0  0  0  0  0  0
  1  7  1  0  0  0  0
  1  5  1  0  0  0  0
  2  6  1  0  0  0  0
  3  7  1  0  0  0  0
  3 10  1  0  0  0  0
  3 11  1  0  0  0  0
  4  8  1  0  0  0  0
  6  9  1  0  0  0  0
  8  7  2  0  0  0  0
  8  2  1  0  0  0  0
 12  4  1  0  0  0  0
 13  4  1  0  0  0  0
 14  5  1  0  0  0  0
M  END
