1,2
q = -1.0, confidence = 0.0

 40 41  0  0  0  0  0  0  0  0999 V2000
   -0.1286    1.8406    1.2592 N   0  0  0  0  0  2  0  0  0  0  0  0
   -2.3629    0.5046    0.5042 N   0  0  0  0  0  2  0  0  0  0  0  0
    0.7976    2.6941    1.7482 C   0  0  0  0  0  3  0  0  0  0  0  0
    1.8688    2.5440    1.5581 H   0  0  0  0  0  0  0  0  0  0  0  0
    0.1780    3.7389    2.4868 C   0  0  0  0  0  0  0  0  0  0  0  0
    0.6928    4.5661    2.9903 H   0  0  0  0  0  0  0  0  0  0  0  0
   -1.2051    3.5008    2.4361 C   0  0  0  0  0  0  0  0  0  0  0  0
   -2.0061    4.0999    2.8863 H   0  0  0  0  0  0  0  0  0  0  0  0
   -1.3701    2.3168    1.6664 C   0  0  0  0  0  0  0  0  0  0  0  0
   -2.5081    1.5884    1.2458 C   0  0  0  0  0  0  0  0  0  0  0  0
   -3.5236    1.9182    1.5381 H   0  0  0  0  0  0  0  0  0  0  0  0
   -3.4954   -0.2038    0.0318 C   0  0  0  0  0  0  0  0  0  0  0  0
   -3.7902   -1.4689    0.6070 C   0  0  0  0  0  0  0  0  0  0  0  0
   -4.8932   -2.1871    0.1113 C   0  0  0  0  0  0  0  0  0  0  0  0
   -5.1417   -3.1666    0.5457 H   0  0  0  0  0  0  0  0  0  0  0  0
   -5.6783   -1.6716   -0.9270 C   0  0  0  0  0  0  0  0  0  0  0  0
   -6.5415   -2.2431   -1.3011 H   0  0  0  0  0  0  0  0  0  0  0  0
   -5.3607   -0.4321   -1.4989 C   0  0  0  0  0  0  0  0  0  0  0  0
   -5.9775   -0.0478   -2.3238 H   0  0  0  0  0  0  0  0  0  0  0  0
   -4.2643    0.3238   -1.0439 C   0  0  0  0  0  0  0  0  0  0  0  0
   -2.9316   -1.9921    1.7494 C   0  0  0  0  0  0  0  0  0  0  0  0
   -1.9136   -1.5705    1.5900 H   0  0  0  0  0  0  0  0  0  0  0  0
   -2.8006   -3.5192    1.7697 C   0  0  0  0  0  0  0  0  0  0  0  0
   -2.0609   -3.8294    2.5355 H   0  0  0  0  0  0  0  0  0  0  0  0
   -2.4625   -3.9078    0.7882 H   0  0  0  0  0  0  0  0  0  0  0  0
   -3.7585   -4.0191    2.0244 H   0  0  0  0  0  0  0  0  0  0  0  0
   -3.4373   -1.4568    3.1016 C   0  0  0  0  0  0  0  0  0  0  0  0
   -3.4603   -0.3492    3.1173 H   0  0  0  0  0  0  0  0  0  0  0  0
   -2.7801   -1.7938    3.9300 H   0  0  0  0  0  0  0  0  0  0  0  0
   -4.4657   -1.8195    3.3093 H   0  0  0  0  0  0  0  0  0  0  0  0
   -3.8540    1.6276   -1.7252 C   0  0  0  0  0  0  0  0  0  0  0  0
   -3.5281    2.3331   -0.9322 H   0  0  0  0  0  0  0  0  0  0  0  0
   -2.6362    1.3911   -2.6396 C   0  0  0  0  0  0  0  0  0  0  0  0
   -1.7788    0.9755   -2.0701 H   0  0  0  0  0  0  0  0  0  0  0  0
   -2.3094    2.3409   -3.1113 H   0  0  0  0  0  0  0  0  0  0  0  0
   -2.8880    0.6720   -3.4463 H   0  0  0  0  0  0  0  0  0  0  0  0
   -4.9905    2.3122   -2.4929 C   0  0  0  0  0  0  0  0  0  0  0  0
   -5.3001    1.7264   -3.3832 H   0  0  0  0  0  0  0  0  0  0  0  0
   -4.6589    3.3047   -2.8590 H   0  0  0  0  0  0  0  0  0  0  0  0
   -5.8863    2.4634   -1.8572 H   0  0  0  0  0  0  0  0  0  0  0  0
  1  9  1  0  0  0  0
  1  3  1  0  0  0  0
  2 10  1  0  0  0  0
  3  5  1  0  0  0  0
  4  3  1  0  0  0  0
  5  6  1  0  0  0  0
  7  5  2  0  0  0  0
  7  8  1  0  0  0  0
  9  7  1  0  0  0  0
 10 11  1  0  0  0  0
 10  9  2  0  0  0  0
 12  2  1  0  0  0  0
 12 13  1  0  0  0  0
 13 21  1  0  0  0  0
 14 15  1  0  0  0  0
 14 13  2  0  0  0  0
 16 14  1  0  0  0  0
 17 16  1  0  0  0  0
 18 20  1  0  0  0  0
 18 16  2  0  0  0  0
 19 18  1  0  0  0  0
 20 12  2  0  0  0  0
 21 23  1  0  0  0  0
 21 27  1  0  0  0  0
 22 21  1  0  0  0  0
 23 26  1  0  0  0  0
 23 24  1  0  0  0  0
 25 23  1  0  0  0  0
 27 28  1  0  0  0  0
 27 30  1  0  0  0  0
 27 29  1  0  0  0  0
 31 20  1  0  0  0  0
 31 32  1  0  0  0  0
 33 34  1  0  0  0  0
 33 31  1  0  0  0  0
 35 33  1  0  0  0  0
 36 33  1  0  0  0  0
 37 40  1  0  0  0  0
 37 31  1  0  0  0  0
 38 37  1  0  0  0  0
 39 37  1  0  0  0  0
M  END
