3,4
q = -2.0, confidence = 0.722

 38 38  0  0  0  0  0  0  0  0999 V2000
    1.0335   -3.1624    1.0776 Si  0  0  0  0  0  0  0  0  0  0  0  0
    1.6785    2.1129    2.3052 Si  0  0  0  0  0  0  0  0  0  0  0  0
    1.2078   -1.6036    0.2234 N   0  0  0  0  0  2  0  0  0  0  0  0
    1.5038    0.9705    0.9442 N   0  0  0  0  0  2  0  0  0  0  0  0
    2.3658   -0.9702   -0.2200 C   0  0  0  0  0  0  0  0  0  0  0  0
    2.5278    0.4284    0.1738 C   0  0  0  0  0  0  0  0  0  0  0  0
    3.6920    1.1239   -0.2439 C   0  0  0  0  0  0  0  0  0  0  0  0
    4.6711    0.4865   -1.0058 C   0  0  0  0  0  0  0  0  0  0  0  0
    4.5049   -0.8592   -1.4027 C   0  0  0  0  0  0  0  0  0  0  0  0
    3.3650   -1.5711   -1.0282 C   0  0  0  0  0  0  0  0  0  0  0  0
    2.2986   -4.4356    0.4855 C   0  0  0  0  0  0  0  0  0  0  0  0
    1.2946   -2.8066    2.9155 C   0  0  0  0  0  0  0  0  0  0  0  0
   -0.7175   -3.7806    0.7637 C   0  0  0  0  0  0  0  0  0  0  0  0
    2.0519    3.8767    1.7265 C   0  0  0  0  0  0  0  0  0  0  0  0
    3.0855    1.4705    3.3876 C   0  0  0  0  0  0  0  0  0  0  0  0
    0.0389    2.1017    3.2322 C   0  0  0  0  0  0  0  0  0  0  0  0
    3.8089    2.1799    0.0382 H   0  0  0  0  0  0  0  0  0  0  0  0
    5.5700    1.0421   -1.3127 H   0  0  0  0  0  0  0  0  0  0  0  0
    5.2729   -1.3470   -2.0219 H   0  0  0  0  0  0  0  0  0  0  0  0
    3.2216   -2.6081   -1.3594 H   0  0  0  0  0  0  0  0  0  0  0  0
    2.1688   -4.6763   -0.5891 H   0  0  0  0  0  0  0  0  0  0  0  0
    2.1650   -5.3757    1.0607 H   0  0  0  0  0  0  0  0  0  0  0  0
    3.3387   -4.0871    0.6430 H   0  0  0  0  0  0  0  0  0  0  0  0
    2.2938   -2.3544    3.0843 H   0  0  0  0  0  0  0  0  0  0  0  0
    1.2210   -3.7257    3.5325 H   0  0  0  0  0  0  0  0  0  0  0  0
    0.5301   -2.0851    3.2700 H   0  0  0  0  0  0  0  0  0  0  0  0
   -1.4608   -3.0038    1.0353 H   0  0  0  0  0  0  0  0  0  0  0  0
   -0.9246   -4.6867    1.3692 H   0  0  0  0  0  0  0  0  0  0  0  0
   -0.8650   -4.0406   -0.3038 H   0  0  0  0  0  0  0  0  0  0  0  0
    3.0226    3.9530    1.1967 H   0  0  0  0  0  0  0  0  0  0  0  0
    2.0960    4.5550    2.6043 H   0  0  0  0  0  0  0  0  0  0  0  0
    1.2618    4.2538    1.0471 H   0  0  0  0  0  0  0  0  0  0  0  0
    2.8452    0.4554    3.7648 H   0  0  0  0  0  0  0  0  0  0  0  0
    3.2581    2.1341    4.2596 H   0  0  0  0  0  0  0  0  0  0  0  0
    4.0312    1.4040    2.8125 H   0  0  0  0  0  0  0  0  0  0  0  0
   -0.8007    2.4239    2.5833 H   0  0  0  0  0  0  0  0  0  0  0  0
    0.0869    2.7923    4.0992 H   0  0  0  0  0  0  0  0  0  0  0  0
   -0.2038    1.0869    3.6050 H   0  0  0  0  0  0  0  0  0  0  0  0
  1 12  1  0  0  0  0
  2 16  1  0  0  0  0
  2 15  1  0  0  0  0
  3  1  1  0  0  0  0
  4  2  1  0  0  0  0
  5  6  1  0  0  0  0
  5  3  1  0  0  0  0
  6  4  1  0  0  0  0
  7 17  1  0  0  0  0
  7  6  2  0  0  0  0
  8  7  1  0  0  0  0
  9 10  1  0  0  0  0
  9  8  2  0  0  0  0
 10  5  2  0  0  0  0
 11 23  1  0  0  0  0
 11 22  1  0  0  0  0
 11  1  1  0  0  0  0
 12 24  1  0  0  0  0
 12 26  1  0  0  0  0
 12 25  1  0  0  0  0
 13 27  1  0  0  0  0
 13  1  1  0  0  0  0
 13 28  1  0  0  0  0
 14  2  1  0  0  0  0
 14 31  1  0  0  0  0
 15 33  1  0  0  0  0
 15 34  1  0  0  0  0
 16 38  1  0  0  0  0
 16 37  1  0  0  0  0
 18  8  1  0  0  0  0
 19  9  1  0  0  0  0
 20 10  1  0  0  0  0
 21 11  1  0  0  0  0
 29 13  1  0  0  0  0
 30 14  1  0  0  0  0
 32 14  1  0  0  0  0
 35 15  1  0  0  0  0
 36 16  1  0  0  0  0
M  END
