12,17
q = 0.0, confidence = 1.0

 27 28  0  0  1  0  0  0  0  0999 V2000
   -3.2500   -2.0066    0.5161 C   0  0  0  0  0  0  0  0  0  0  0  0
   -3.7530   -2.9009    0.9107 H   0  0  0  0  0  0  0  0  0  0  0  0
   -1.8913    0.1776   -0.4722 C   0  0  2  0  0  3  0  0  0  0  0  0
   -1.5700    2.5895   -0.7670 O   0  0  0  0  0  0  0  0  0  0  0  0
   -3.2825    0.2461   -0.3559 C   0  0  0  0  0  0  0  0  0  0  0  0
   -3.7943    1.1699   -0.6614 H   0  0  0  0  0  0  0  0  0  0  0  0
   -1.0706    1.3140   -1.0795 C   0  0  1  0  0  0  0  0  0  0  0  0
   -1.0552    1.2013   -2.1848 H   0  0  0  0  0  0  0  0  0  0  0  0
   -1.0720    2.8549    0.5480 C   0  0  0  0  0  0  0  0  0  0  0  0
   -1.6932    2.3342    1.3133 H   0  0  0  0  0  0  0  0  0  0  0  0
   -1.1260    3.9462    0.7200 H   0  0  0  0  0  0  0  0  0  0  0  0
   -1.1969   -0.9280   -0.0932 N   0  0  0  0  0  2  0  0  0  0  0  0
   -3.9764   -0.8632    0.1503 C   0  0  0  0  0  0  0  0  0  0  0  0
   -5.0712   -0.8356    0.2545 H   0  0  0  0  0  0  0  0  0  0  0  0
   -1.8573   -2.0065    0.3854 C   0  0  0  0  0  0  0  0  0  0  0  0
   -1.2059   -2.8577    0.6508 H   0  0  0  0  0  0  0  0  0  0  0  0
    0.3185    1.2638   -0.5477 N   0  0  0  0  0  0  0  0  0  0  0  0
    1.4050    3.3711    0.1422 C   0  0  0  0  0  0  0  0  0  0  0  0
    1.5184    4.1402    0.9311 H   0  0  0  0  0  0  0  0  0  0  0  0
    2.3895    2.8868   -0.0198 H   0  0  0  0  0  0  0  0  0  0  0  0
    1.0875    3.8755   -0.7935 H   0  0  0  0  0  0  0  0  0  0  0  0
    0.7517    1.6902    1.9128 C   0  0  0  0  0  0  0  0  0  0  0  0
    0.7173    2.4682    2.7031 H   0  0  0  0  0  0  0  0  0  0  0  0
    0.0508    0.8775    2.1877 H   0  0  0  0  0  0  0  0  0  0  0  0
    1.7713    1.2606    1.8694 H   0  0  0  0  0  0  0  0  0  0  0  0
    0.3840    2.3103    0.5665 C   0  0  0  0  0  0  0  0  0  0  0  0
    0.9894    1.5418   -1.2785 H   0  0  0  0  0  0  0  0  0  0  0  0
  1  2  1  0  0  0  0
  3  5  1  6  0  0  0
  3 12  1  0  0  0  0
  4  9  1  0  0  0  0
  5 13  2  0  0  0  0
  6  5  1  0  0  0  0
  7  8  1  6  0  0  0
  7  4  1  0  0  0  0
  7 17  1  0  0  0  0
  7  3  1  0  0  0  0
  9 26  1  0  0  0  0
  9 11  1  0  0  0  0
  9 10  1  0  0  0  0
 12 15  1  0  0  0  0
 13 14  1  0  0  0  0
 13  1  1  0  0  0  0
 15  1  2  0  0  0  0
 15 16  1  0  0  0  0
 17 26  1  0  0  0  0
 18 26  1  0  0  0  0
 18 19  1  0  0  0  0
 20 18  1  0  0  0  0
 21 18  1  0  0  0  0
 22 24  1  0  0  0  0
 22 23  1  0  0  0  0
 25 22  1  0  0  0  0
 26 22  1  0  0  0  0
 27 17  1  0  0  0  0
M  END
