12,22
q = -1.0, confidence = 0.0

 31 32  0  0  1  0  0  0  0  0999 V2000
   -2.0694   -0.0507    1.2260 B   0  0  0  0  0  0  0  0  0  0  0  0
   -0.5413    0.0580    1.5722 O   0  0  0  0  0  0  0  0  0  0  0  0
   -0.0963   -0.8684    2.5683 C   0  0  0  0  0  0  0  0  0  0  0  0
   -0.7842   -0.8105    3.4339 H   0  0  0  0  0  0  0  0  0  0  0  0
    0.9287   -0.5926    2.8765 H   0  0  0  0  0  0  0  0  0  0  0  0
   -0.0890   -1.9099    2.1828 H   0  0  0  0  0  0  0  0  0  0  0  0
   -2.9092   -0.0507    2.3806 O   0  0  0  0  0  0  0  0  0  0  0  0
   -2.8785    1.0633    3.2408 C   0  0  0  0  0  0  0  0  0  0  0  0
   -2.8855    2.0347    2.6931 H   0  0  0  0  0  0  0  0  0  0  0  0
   -1.9708    1.0694    3.8905 H   0  0  0  0  0  0  0  0  0  0  0  0
   -3.7673    1.0343    3.9059 H   0  0  0  0  0  0  0  0  0  0  0  0
   -1.2298   -1.5848   -0.5727 N   0  0  0  0  0  2  0  0  0  0  0  0
   -2.2225   -1.4118    0.3436 C   0  0  2  0  0  3  0  0  0  0  0  0
   -3.3104   -2.3019    0.3599 C   0  0  0  0  0  0  0  0  0  0  0  0
   -4.0930   -2.1554    1.1189 H   0  0  0  0  0  0  0  0  0  0  0  0
   -3.3786   -3.3369   -0.5823 C   0  0  0  0  0  0  0  0  0  0  0  0
   -4.2216   -4.0456   -0.5766 H   0  0  0  0  0  0  0  0  0  0  0  0
   -2.3698   -3.4465   -1.5540 C   0  0  0  0  0  0  0  0  0  0  0  0
   -2.4056   -4.2189   -2.3354 H   0  0  0  0  0  0  0  0  0  0  0  0
   -1.3045   -2.5407   -1.5158 C   0  0  0  0  0  0  0  0  0  0  0  0
   -0.4971   -2.5358   -2.2652 H   0  0  0  0  0  0  0  0  0  0  0  0
   -1.2814    1.2919   -0.7625 N   0  0  0  0  0  2  0  0  0  0  0  0
   -2.2869    1.1607    0.1403 C   0  0  1  0  0  3  0  0  0  0  0  0
   -3.4356    1.9598   -0.0090 C   0  0  0  0  0  0  0  0  0  0  0  0
   -4.2660    1.8375    0.7022 H   0  0  0  0  0  0  0  0  0  0  0  0
   -3.5103    2.8876   -1.0568 C   0  0  0  0  0  0  0  0  0  0  0  0
   -4.4023    3.5222   -1.1766 H   0  0  0  0  0  0  0  0  0  0  0  0
   -2.4388    2.9995   -1.9587 C   0  0  0  0  0  0  0  0  0  0  0  0
   -2.4633    3.7133   -2.7942 H   0  0  0  0  0  0  0  0  0  0  0  0
   -1.3272    2.1704   -1.7799 C   0  0  0  0  0  0  0  0  0  0  0  0
   -0.4524    2.1762   -2.4493 H   0  0  0  0  0  0  0  0  0  0  0  0
  1  2  1  0  0  0  0
  1  7  1  0  0  0  0
  2  3  1  0  0  0  0
  3  5  1  0  0  0  0
  3  4  1  0  0  0  0
  6  3  1  0  0  0  0
  7  8  1  0  0  0  0
  8 10  1  0  0  0  0
  8 11  1  0  0  0  0
  9  8  1  0  0  0  0
 12 13  1  0  0  0  0
 13 14  1  0  0  0  0
 13  1  1  6  0  0  0
 14 15  1  0  0  0  0
 16 17  1  0  0  0  0
 16 14  2  0  0  0  0
 18 20  2  0  0  0  0
 18 16  1  0  0  0  0
 19 18  1  0  0  0  0
 20 12  1  0  0  0  0
 21 20  1  0  0  0  0
 22 23  1  0  0  0  0
 23  1  1  6  0  0  0
 24 23  1  0  0  0  0
 24 25  1  0  0  0  0
 26 24  2  0  0  0  0
 27 26  1  0  0  0  0
 28 30  2  0  0  0  0
 28 26  1  0  0  0  0
 29 28  1  0  0  0  0
 30 22  1  0  0  0  0
 31 30  1  0  0  0  0
M  END
