3,7
q = 0.0, confidence = 0.772

 27 28  0  0  0  0  0  0  0  0999 V2000
   -2.0064   -0.7157   -0.9963 N   0  0  0  0  0  0  0  0  0  0  0  0
   -1.4452    0.1238   -1.2101 H   0  0  0  0  0  0  0  0  0  0  0  0
    0.1537   -1.4716   -0.6460 N   0  0  0  0  0  2  0  0  0  0  0  0
    0.9174   -2.3514   -1.2395 N   0  0  0  0  0  0  0  0  0  0  0  0
   -3.3916   -0.5320   -0.8889 C   0  0  0  0  0  0  0  0  0  0  0  0
   -1.6739   -2.9286   -0.3446 O   0  0  0  0  0  0  0  0  0  0  0  0
    2.4747   -0.6541   -0.7707 N   0  0  0  0  0  2  0  0  0  0  0  0
    2.2157   -1.9184   -1.2756 C   0  0  0  0  0  0  0  0  0  0  0  0
   -4.2868   -1.5812   -0.5821 C   0  0  0  0  0  0  0  0  0  0  0  0
   -3.8904   -2.5928   -0.4327 H   0  0  0  0  0  0  0  0  0  0  0  0
    4.5353   -2.1778   -1.9174 C   0  0  0  0  0  0  0  0  0  0  0  0
    5.3505   -2.7692   -2.3593 H   0  0  0  0  0  0  0  0  0  0  0  0
   -5.2615    1.0343   -0.9604 C   0  0  0  0  0  0  0  0  0  0  0  0
   -5.6336    2.0599   -1.1058 H   0  0  0  0  0  0  0  0  0  0  0  0
   -3.8911    0.7776   -1.0755 C   0  0  0  0  0  0  0  0  0  0  0  0
   -3.1852    1.5946   -1.2911 H   0  0  0  0  0  0  0  0  0  0  0  0
    3.2425   -2.6970   -1.8517 C   0  0  0  0  0  0  0  0  0  0  0  0
    2.9821   -3.6946   -2.2300 H   0  0  0  0  0  0  0  0  0  0  0  0
    4.7827   -0.8862   -1.4067 C   0  0  0  0  0  0  0  0  0  0  0  0
    5.7884   -0.4441   -1.4372 H   0  0  0  0  0  0  0  0  0  0  0  0
    3.7316   -0.1603   -0.8420 C   0  0  0  0  0  0  0  0  0  0  0  0
    3.8713    0.8401   -0.4066 H   0  0  0  0  0  0  0  0  0  0  0  0
   -6.1552   -0.0057   -0.6541 C   0  0  0  0  0  0  0  0  0  0  0  0
   -7.2326    0.1963   -0.5619 H   0  0  0  0  0  0  0  0  0  0  0  0
   -5.6565   -1.3047   -0.4664 C   0  0  0  0  0  0  0  0  0  0  0  0
   -6.3466   -2.1278   -0.2256 H   0  0  0  0  0  0  0  0  0  0  0  0
   -1.2778   -1.8191   -0.6509 C   0  0  0  0  0  0  0  0  0  0  0  0
  1  5  1  0  0  0  0
  1 27  1  0  0  0  0
  2  1  1  0  0  0  0
  4  3  1  0  0  0  0
  5  9  1  0  0  0  0
  8  4  2  0  0  0  0
  8  7  1  0  0  0  0
  9 25  2  0  0  0  0
  9 10  1  0  0  0  0
 11 17  2  0  0  0  0
 11 19  1  0  0  0  0
 12 11  1  0  0  0  0
 13 23  2  0  0  0  0
 14 13  1  0  0  0  0
 15 13  1  0  0  0  0
 15  5  2  0  0  0  0
 16 15  1  0  0  0  0
 17  8  1  0  0  0  0
 18 17  1  0  0  0  0
 19 21  2  0  0  0  0
 20 19  1  0  0  0  0
 21  7  1  0  0  0  0
 21 22  1  0  0  0  0
 23 24  1  0  0  0  0
 23 25  1  0  0  0  0
 25 26  1  0  0  0  0
 27  3  1  0  0  0  0
 27  6  2  0  0  0  0
M  END
