51,52
q = 0.0, confidence = 0.992

 52 55  0  0  1  0  0  0  0  0999 V2000
   -9.6538   -0.0542    0.3535 C   0  0  0  0  0  0  0  0  0  0  0  0
   -9.9583    0.4706    1.2831 H   0  0  0  0  0  0  0  0  0  0  0  0
  -10.0175   -1.0981    0.4183 H   0  0  0  0  0  0  0  0  0  0  0  0
  -10.1886    0.4409   -0.4838 H   0  0  0  0  0  0  0  0  0  0  0  0
   -8.1635    0.0004    0.1582 C   0  0  0  0  0  0  0  0  0  0  0  0
   -7.4671    1.2218    0.0514 C   0  0  0  0  0  0  0  0  0  0  0  0
   -8.0167    2.1753    0.1110 H   0  0  0  0  0  0  0  0  0  0  0  0
   -6.0828    1.2205   -0.1304 C   0  0  0  0  0  0  0  0  0  0  0  0
   -5.4961    2.1450   -0.2202 H   0  0  0  0  0  0  0  0  0  0  0  0
   -5.4087   -0.0175   -0.2030 C   0  0  0  0  0  0  0  0  0  0  0  0
   -7.3847   -1.1740    0.0709 C   0  0  0  0  0  0  0  0  0  0  0  0
   -7.8830   -2.1587    0.1487 H   0  0  0  0  0  0  0  0  0  0  0  0
   -3.9335   -0.0669   -0.3956 C   0  0  0  0  0  0  0  0  0  0  0  0
   -3.2655   -1.3081   -0.4824 C   0  0  0  0  0  0  0  0  0  0  0  0
   -3.8627   -2.2280   -0.4169 H   0  0  0  0  0  0  0  0  0  0  0  0
   -1.8795   -1.3149   -0.6538 C   0  0  0  0  0  0  0  0  0  0  0  0
   -1.3323   -2.2680   -0.7409 H   0  0  0  0  0  0  0  0  0  0  0  0
   -1.1794   -0.0939   -0.7349 C   0  0  0  0  0  0  0  0  0  0  0  0
   -1.9524    1.0849   -0.6557 C   0  0  0  0  0  0  0  0  0  0  0  0
   -1.4513    2.0677   -0.7489 H   0  0  0  0  0  0  0  0  0  0  0  0
    0.3252   -0.0365   -0.8417 C   0  0  0  0  0  0  0  0  0  0  0  0
    0.7066   -0.9057   -1.4143 H   0  0  0  0  0  0  0  0  0  0  0  0
    0.6392    0.8690   -1.3988 H   0  0  0  0  0  0  0  0  0  0  0  0
    0.9210   -1.2547    1.2331 C   0  0  0  0  0  0  0  0  0  0  0  0
   -0.1263   -1.5476    1.4771 H   0  0  0  0  0  0  0  0  0  0  0  0
    1.4777   -1.0765    2.1824 H   0  0  0  0  0  0  0  0  0  0  0  0
    1.6391   -2.3771    0.5165 C   0  0  2  0  0  3  0  0  0  0  0  0
    1.2074   -3.7122    0.5321 C   0  0  0  0  0  0  0  0  0  0  0  0
    0.2806   -3.9831    1.0600 H   0  0  0  0  0  0  0  0  0  0  0  0
    1.9765   -4.6790   -0.1329 C   0  0  0  0  0  0  0  0  0  0  0  0
    1.6608   -5.7334   -0.1337 H   0  0  0  0  0  0  0  0  0  0  0  0
    3.1433   -4.2843   -0.8043 C   0  0  0  0  0  0  0  0  0  0  0  0
    3.7662   -5.0114   -1.3445 H   0  0  0  0  0  0  0  0  0  0  0  0
    3.5023   -2.9297   -0.7823 C   0  0  0  0  0  0  0  0  0  0  0  0
    4.3910   -2.5235   -1.2975 H   0  0  0  0  0  0  0  0  0  0  0  0
    0.8539    1.2084    1.2341 C   0  0  0  0  0  0  0  0  0  0  0  0
    1.4167    1.0590    2.1846 H   0  0  0  0  0  0  0  0  0  0  0  0
   -0.2082    1.4455    1.4749 H   0  0  0  0  0  0  0  0  0  0  0  0
    1.5122    2.3681    0.5190 C   0  0  1  0  0  3  0  0  0  0  0  0
    1.0068    3.6770    0.5310 C   0  0  0  0  0  0  0  0  0  0  0  0
    0.0634    3.8962    1.0532 H   0  0  0  0  0  0  0  0  0  0  0  0
    1.7234    4.6838   -0.1332 C   0  0  0  0  0  0  0  0  0  0  0  0
    1.3492    5.7189   -0.1374 H   0  0  0  0  0  0  0  0  0  0  0  0
    2.9123    4.3535   -0.8006 C   0  0  0  0  0  0  0  0  0  0  0  0
    3.4954    5.1132   -1.3405 H   0  0  0  0  0  0  0  0  0  0  0  0
    3.3454    3.0209   -0.7761 C   0  0  0  0  0  0  0  0  0  0  0  0
    4.2558    2.6637   -1.2896 H   0  0  0  0  0  0  0  0  0  0  0  0
   -6.0596   -1.1938   -0.1025 N   0  0  0  0  0  0  0  0  0  0  0  0
   -3.2780    1.1093   -0.4907 N   0  0  0  0  0  0  0  0  0  0  0  0
    1.0289   -0.0191    0.4609 N   0  0  0  0  0  0  0  0  0  0  0  0
    2.7643   -2.0155   -0.1319 N   0  0  0  0  0  2  0  0  0  0  0  0
    2.6574    2.0682   -0.1260 N   0  0  0  0  0  2  0  0  0  0  0  0
  1  3  1  0  0  0  0
  1  2  1  0  0  0  0
  4  1  1  0  0  0  0
  5  1  1  0  0  0  0
  6  7  1  0  0  0  0
  6  5  2  0  0  0  0
  8  6  1  0  0  0  0
  9  8  1  0  0  0  0
 10  8  2  0  0  0  0
 10 48  1  0  0  0  0
 11 12  1  0  0  0  0
 11  5  1  0  0  0  0
 13 10  1  0  0  0  0
 14 15  1  0  0  0  0
 14 13  1  0  0  0  0
 16 14  2  0  0  0  0
 17 16  1  0  0  0  0
 18 19  2  0  0  0  0
 18 16  1  0  0  0  0
 19 49  1  0  0  0  0
 20 19  1  0  0  0  0
 21 18  1  0  0  0  0
 21 50  1  0  0  0  0
 22 21  1  0  0  0  0
 23 21  1  0  0  0  0
 24 25  1  0  0  0  0
 24 26  1  0  0  0  0
 27 28  1  0  0  0  0
 27 24  1  1  0  0  0
 28 29  1  0  0  0  0
 30 28  2  0  0  0  0
 31 30  1  0  0  0  0
 32 34  2  0  0  0  0
 32 30  1  0  0  0  0
 33 32  1  0  0  0  0
 34 51  1  0  0  0  0
 35 34  1  0  0  0  0
 36 38  1  0  0  0  0
 36 37  1  0  0  0  0
 39 40  1  0  0  0  0
 39 36  1  1  0  0  0
 40 41  1  0  0  0  0
 42 40  2  0  0  0  0
 43 42  1  0  0  0  0
 44 46  2  0  0  0  0
 44 42  1  0  0  0  0
 45 44  1  0  0  0  0
 46 52  1  0  0  0  0
 47 46  1  0  0  0  0
 48 11  2  0  0  0  0
 49 13  2  0  0  0  0
 50 24  1  0  0  0  0
 50 36  1  0  0  0  0
 51 27  1  0  0  0  0
 52 39  1  0  0  0  0
M  END
