1,7
q = -2.0, confidence = 0.836

 14 13  0  0  1  0  0  0  0  0999 V2000
   -1.6013    1.2211    0.4085 N   0  3  0  0  0  2  0  0  0  0  0  0
   -3.7932    1.8889   -0.0417 N   0  0  0  0  0  0  0  0  0  0  0  0
   -1.4334    2.4630    0.8923 O   0  5  0  0  0  0  0  0  0  0  0  0
   -2.8062    0.9643   -0.0682 C   0  0  2  0  0  3  0  0  0  0  0  0
   -3.5328    2.8393    0.2211 H   0  0  0  0  0  0  0  0  0  0  0  0
   -4.6441    1.6604   -0.5552 H   0  0  0  0  0  0  0  0  0  0  0  0
   -1.1508   -1.4420    0.3110 N   0  3  0  0  0  2  0  0  0  0  0  0
   -3.1526   -0.3535   -0.6282 C   0  0  0  0  0  0  0  0  0  0  0  0
   -0.6010   -2.6399    0.5090 O   0  5  0  0  0  0  0  0  0  0  0  0
   -2.2638   -1.5013   -0.4181 C   0  0  2  0  0  3  0  0  0  0  0  0
   -4.2492   -0.5118   -1.1976 O   0  0  0  0  0  0  0  0  0  0  0  0
   -2.6826   -2.6874   -0.9466 N   0  0  0  0  0  0  0  0  0  0  0  0
   -3.6625   -2.6931   -1.2396 H   0  0  0  0  0  0  0  0  0  0  0  0
   -2.2697   -3.5184   -0.5176 H   0  0  0  0  0  0  0  0  0  0  0  0
  1  3  1  0  0  0  0
  2  5  1  0  0  0  0
  4  8  1  1  0  0  0
  4  2  1  0  0  0  0
  4  1  1  0  0  0  0
  6  2  1  0  0  0  0
  7  9  1  0  0  0  0
 10  8  1  1  0  0  0
 10  7  1  0  0  0  0
 11  8  2  0  0  0  0
 12 14  1  0  0  0  0
 12 10  1  0  0  0  0
 13 12  1  0  0  0  0
M  CHG  4   1   1   3  -1   7   1   9  -1
M  END
