4,14
q = 0.0, confidence = 0.974

 33 35  0  0  1  0  0  0  0  0999 V2000
   -0.8450   -0.1221    1.7254 C   0  0  1  0  0  0  0  0  0  0  0  0
   -1.3114   -0.1909    2.7293 H   0  0  0  0  0  0  0  0  0  0  0  0
   -1.5527    1.0112    0.9942 C   0  0  1  0  0  3  0  0  0  0  0  0
   -1.1477    1.2945   -0.2691 N   0  0  0  0  0  2  0  0  0  0  0  0
   -1.7575    2.2696   -0.9741 C   0  0  0  0  0  0  0  0  0  0  0  0
   -1.3861    2.4422   -1.9956 H   0  0  0  0  0  0  0  0  0  0  0  0
   -2.8066    3.0268   -0.4427 C   0  0  0  0  0  0  0  0  0  0  0  0
   -3.2756    3.8134   -1.0499 H   0  0  0  0  0  0  0  0  0  0  0  0
   -3.2312    2.7560    0.8649 C   0  0  0  0  0  0  0  0  0  0  0  0
   -4.0491    3.3340    1.3202 H   0  0  0  0  0  0  0  0  0  0  0  0
   -2.5991    1.7340    1.5870 C   0  0  0  0  0  0  0  0  0  0  0  0
   -2.9076    1.4953    2.6150 H   0  0  0  0  0  0  0  0  0  0  0  0
   -1.1365   -1.4408    1.0199 C   0  0  2  0  0  3  0  0  0  0  0  0
   -0.6653   -1.5963   -0.2425 N   0  0  0  0  0  2  0  0  0  0  0  0
   -0.9045   -2.7373   -0.9218 C   0  0  0  0  0  0  0  0  0  0  0  0
   -0.4924   -2.7963   -1.9406 H   0  0  0  0  0  0  0  0  0  0  0  0
   -1.6319   -3.7942   -0.3651 C   0  0  0  0  0  0  0  0  0  0  0  0
   -1.8047   -4.7078   -0.9507 H   0  0  0  0  0  0  0  0  0  0  0  0
   -2.1222   -3.6543    0.9402 C   0  0  0  0  0  0  0  0  0  0  0  0
   -2.6940   -4.4657    1.4144 H   0  0  0  0  0  0  0  0  0  0  0  0
   -1.8733   -2.4632    1.6368 C   0  0  0  0  0  0  0  0  0  0  0  0
   -2.2408   -2.3224    2.6634 H   0  0  0  0  0  0  0  0  0  0  0  0
    0.6580    0.1360    1.9138 C   0  0  0  0  0  0  0  0  0  0  0  0
    1.5612   -0.9398    2.0309 C   0  0  0  0  0  0  0  0  0  0  0  0
    1.1983   -1.9766    1.9639 H   0  0  0  0  0  0  0  0  0  0  0  0
    2.9295   -0.7027    2.2270 C   0  0  0  0  0  0  0  0  0  0  0  0
    3.6221   -1.5531    2.3132 H   0  0  0  0  0  0  0  0  0  0  0  0
    3.4130    0.6119    2.3145 C   0  0  0  0  0  0  0  0  0  0  0  0
    4.4868    0.7973    2.4646 H   0  0  0  0  0  0  0  0  0  0  0  0
    2.5175    1.6884    2.2192 C   0  0  0  0  0  0  0  0  0  0  0  0
    2.8854    2.7221    2.2999 H   0  0  0  0  0  0  0  0  0  0  0  0
    1.1490    1.4528    2.0230 C   0  0  0  0  0  0  0  0  0  0  0  0
    0.4604    2.3080    1.9486 H   0  0  0  0  0  0  0  0  0  0  0  0
  1 23  1  0  0  0  0
  1  2  1  1  0  0  0
  3 11  1  0  0  0  0
  3  1  1  6  0  0  0
  4  3  1  0  0  0  0
  5  7  2  0  0  0  0
  5  4  1  0  0  0  0
  6  5  1  0  0  0  0
  7  9  1  0  0  0  0
  8  7  1  0  0  0  0
  9 10  1  0  0  0  0
  9 11  2  0  0  0  0
 11 12  1  0  0  0  0
 13 21  1  0  0  0  0
 13  1  1  6  0  0  0
 14 13  1  0  0  0  0
 15 17  2  0  0  0  0
 15 14  1  0  0  0  0
 16 15  1  0  0  0  0
 17 19  1  0  0  0  0
 18 17  1  0  0  0  0
 19 20  1  0  0  0  0
 19 21  2  0  0  0  0
 21 22  1  0  0  0  0
 23 32  2  0  0  0  0
 23 24  1  0  0  0  0
 24 26  2  0  0  0  0
 25 24  1  0  0  0  0
 26 27  1  0  0  0  0
 26 28  1  0  0  0  0
 28 29  1  0  0  0  0
 30 31  1  0  0  0  0
 30 28  2  0  0  0  0
 32 30  1  0  0  0  0
 33 32  1  0  0  0  0
M  END
