2,3
q = 0.0, confidence = 0.998

 29 31  0  0  1  0  0  0  0  0999 V2000
    2.4144    4.8799   -0.3293 Cl  0  0  0  0  0  0  0  0  0  0  0  0
   -2.1918    0.5184    0.4498 N   0  0  0  0  0  2  0  0  0  0  0  0
    0.4717    0.8377    0.3400 N   0  0  0  0  0  2  0  0  0  0  0  0
    3.7390   -0.3420   -0.4032 N   0  0  0  0  0  0  0  0  0  0  0  0
   -3.5032    0.2697    0.6583 C   0  0  0  0  0  3  0  0  0  0  0  0
   -4.4292    1.2842    0.9064 C   0  0  0  0  0  0  0  0  0  0  0  0
   -3.9787    2.6135    0.9435 C   0  0  0  0  0  0  0  0  0  0  0  0
   -2.6216    2.8718    0.7374 C   0  0  0  0  0  0  0  0  0  0  0  0
   -1.7388    1.8037    0.4868 C   0  0  0  0  0  0  0  0  0  0  0  0
   -0.2831    1.9783    0.3063 C   0  0  1  0  0  3  0  0  0  0  0  0
    0.2930    3.2462    0.1348 C   0  0  0  0  0  0  0  0  0  0  0  0
    1.6777    3.3379   -0.0461 C   0  0  0  0  0  0  0  0  0  0  0  0
    2.4575    2.1793    0.0186 C   0  0  0  0  0  0  0  0  0  0  0  0
    1.8228    0.9485    0.2556 C   0  0  0  0  0  0  0  0  0  0  0  0
    2.6859   -0.2530    0.4309 C   0  0  0  0  0  0  0  0  0  0  0  0
    2.4411   -1.1829    1.4620 C   0  0  0  0  0  0  0  0  0  0  0  0
    3.2911   -2.2895    1.5737 C   0  0  0  0  0  0  0  0  0  0  0  0
    4.3504   -2.4217    0.6657 C   0  0  0  0  0  0  0  0  0  0  0  0
    4.5392   -1.4101   -0.2917 C   0  0  0  0  0  0  0  0  0  0  0  0
   -3.8054   -0.7860    0.6068 H   0  0  0  0  0  0  0  0  0  0  0  0
   -5.4864    1.0294    1.0632 H   0  0  0  0  0  0  0  0  0  0  0  0
   -4.6776    3.4402    1.1369 H   0  0  0  0  0  0  0  0  0  0  0  0
   -2.2439    3.9014    0.7813 H   0  0  0  0  0  0  0  0  0  0  0  0
   -0.3239    4.1513    0.0940 H   0  0  0  0  0  0  0  0  0  0  0  0
    3.5471    2.1962   -0.1075 H   0  0  0  0  0  0  0  0  0  0  0  0
    1.6060   -1.0390    2.1587 H   0  0  0  0  0  0  0  0  0  0  0  0
    3.1201   -3.0403    2.3595 H   0  0  0  0  0  0  0  0  0  0  0  0
    5.0318   -3.2841    0.7044 H   0  0  0  0  0  0  0  0  0  0  0  0
    5.3826   -1.4647   -1.0022 H   0  0  0  0  0  0  0  0  0  0  0  0
  1 12  1  0  0  0  0
  2  9  1  0  0  0  0
  2  5  1  0  0  0  0
  4 19  2  0  0  0  0
  4 15  1  0  0  0  0
  5  6  1  0  0  0  0
  6  7  2  0  0  0  0
  6 21  1  0  0  0  0
  7 22  1  0  0  0  0
  8 23  1  0  0  0  0
  8  7  1  0  0  0  0
  9  8  2  0  0  0  0
 10  3  1  0  0  0  0
 10  9  1  1  0  0  0
 11 10  1  0  0  0  0
 12 13  1  0  0  0  0
 12 11  2  0  0  0  0
 13 14  2  0  0  0  0
 14  3  1  0  0  0  0
 14 15  1  0  0  0  0
 15 16  2  0  0  0  0
 16 17  1  0  0  0  0
 16 26  1  0  0  0  0
 17 27  1  0  0  0  0
 18 28  1  0  0  0  0
 18 17  2  0  0  0  0
 19 18  1  0  0  0  0
 20  5  1  0  0  0  0
 24 11  1  0  0  0  0
 25 13  1  0  0  0  0
 29 19  1  0  0  0  0
M  END
