1,2
q = 0.0, confidence = 1.0

 29 30  0  0  1  0  0  0  0  0999 V2000
   -0.5875    1.3658   -0.2002 N   0  0  0  0  0  2  0  0  0  0  0  0
    0.8438   -0.8707   -0.0879 N   0  0  0  0  0  2  0  0  0  0  0  0
    0.7662    1.4671   -0.0920 N   0  0  0  0  0  0  0  0  0  0  0  0
    2.8526    0.4321   -0.0115 N   0  0  0  0  0  0  0  0  0  0  0  0
   -2.5267    2.9039   -0.4170 C   0  0  0  0  0  0  0  0  0  0  0  0
   -2.9652    2.3323   -1.2577 H   0  0  0  0  0  0  0  0  0  0  0  0
   -2.6863    3.9844   -0.5866 H   0  0  0  0  0  0  0  0  0  0  0  0
   -3.0780    2.5934    0.4922 H   0  0  0  0  0  0  0  0  0  0  0  0
   -1.0703    2.6125   -0.2820 C   0  0  1  0  0  3  0  0  0  0  0  0
    0.0097    3.5364   -0.2181 C   0  0  0  0  0  0  0  0  0  0  0  0
   -0.0570    4.6284   -0.2596 H   0  0  0  0  0  0  0  0  0  0  0  0
    1.1768    2.7947   -0.0942 C   0  0  0  0  0  0  0  0  0  0  0  0
    2.5820    3.2794    0.0097 C   0  0  0  0  0  0  0  0  0  0  0  0
    2.5760    4.3855    0.0142 H   0  0  0  0  0  0  0  0  0  0  0  0
    3.2037    2.9212   -0.8333 H   0  0  0  0  0  0  0  0  0  0  0  0
    3.0742    2.9126    0.9307 H   0  0  0  0  0  0  0  0  0  0  0  0
    1.5329    0.2882   -0.0540 C   0  0  2  0  0  3  0  0  0  0  0  0
    3.5950   -0.6929   -0.0279 C   0  0  0  0  0  0  0  0  0  0  0  0
    5.0835   -0.5252    0.0586 C   0  0  0  0  0  0  0  0  0  0  0  0
    5.3493   -0.0177    1.0086 H   0  0  0  0  0  0  0  0  0  0  0  0
    5.4398    0.1313   -0.7608 H   0  0  0  0  0  0  0  0  0  0  0  0
    5.6157   -1.4923    0.0071 H   0  0  0  0  0  0  0  0  0  0  0  0
    2.9763   -1.9472   -0.1340 C   0  0  0  0  0  0  0  0  0  0  0  0
    3.5696   -2.8699   -0.1877 H   0  0  0  0  0  0  0  0  0  0  0  0
    1.5705   -2.0137   -0.1677 C   0  0  0  0  0  0  0  0  0  0  0  0
    0.8559   -3.3157   -0.3163 C   0  0  0  0  0  0  0  0  0  0  0  0
    0.1980   -3.2712   -1.2089 H   0  0  0  0  0  0  0  0  0  0  0  0
    0.1776   -3.4944    0.5407 H   0  0  0  0  0  0  0  0  0  0  0  0
    1.5704   -4.1518   -0.4175 H   0  0  0  0  0  0  0  0  0  0  0  0
  1  3  1  0  0  0  0
  2 17  1  0  0  0  0
  5  8  1  0  0  0  0
  6  5  1  0  0  0  0
  7  5  1  0  0  0  0
  9  5  1  1  0  0  0
  9 10  1  0  0  0  0
  9  1  1  0  0  0  0
 10 12  2  0  0  0  0
 11 10  1  0  0  0  0
 12  3  1  0  0  0  0
 12 13  1  0  0  0  0
 13 14  1  0  0  0  0
 13 16  1  0  0  0  0
 15 13  1  0  0  0  0
 17  3  1  6  0  0  0
 17  4  1  0  0  0  0
 18  4  2  0  0  0  0
 18 19  1  0  0  0  0
 19 20  1  0  0  0  0
 21 19  1  0  0  0  0
 22 19  1  0  0  0  0
 23 18  1  0  0  0  0
 24 23  1  0  0  0  0
 25 23  2  0  0  0  0
 25  2  1  0  0  0  0
 26 25  1  0  0  0  0
 26 28  1  0  0  0  0
 27 26  1  0  0  0  0
 29 26  1  0  0  0  0
M  END
