4,15
q = 0.0, confidence = 1.0

 30 32  0  0  0  0  0  0  0  0999 V2000
    0.0297    1.1366    0.0002 C   0  0  0  0  0  0  0  0  0  0  0  0
    1.3478    1.4378    0.0001 N   0  0  0  0  0  0  0  0  0  0  0  0
    1.9575    0.2419    0.0002 C   0  0  0  0  0  0  0  0  0  0  0  0
   -0.2178   -0.1839    0.0003 N   0  0  0  0  0  2  0  0  0  0  0  0
    0.9989   -0.7432    0.0003 N   0  0  0  0  0  0  0  0  0  0  0  0
    1.0922   -1.7605    0.0004 H   0  0  0  0  0  0  0  0  0  0  0  0
   -1.1292    2.0162    0.0002 C   0  0  0  0  0  0  0  0  0  0  0  0
   -1.0637    3.4213    0.0001 C   0  0  0  0  0  0  0  0  0  0  0  0
   -0.0786    3.9166    0.0000 H   0  0  0  0  0  0  0  0  0  0  0  0
   -2.1636    4.1826    0.0000 N   0  0  0  0  0  0  0  0  0  0  0  0
   -3.3417    3.5394    0.0001 C   0  0  0  0  0  0  0  0  0  0  0  0
   -4.2581    4.1532    0.0001 H   0  0  0  0  0  0  0  0  0  0  0  0
   -3.4381    2.1384    0.0002 C   0  0  0  0  0  0  0  0  0  0  0  0
   -4.4089    1.6227    0.0002 H   0  0  0  0  0  0  0  0  0  0  0  0
   -2.3318    1.3773    0.0002 N   0  0  0  0  0  2  0  0  0  0  0  0
    3.3952    0.0057    0.0001 C   0  0  0  0  0  0  0  0  0  0  0  0
    3.9548   -1.2954    0.0001 C   0  0  0  0  0  0  0  0  0  0  0  0
    3.3117   -2.1891    0.0002 H   0  0  0  0  0  0  0  0  0  0  0  0
    5.3343   -1.4764    0.0001 C   0  0  0  0  0  0  0  0  0  0  0  0
    5.7800   -2.4809    0.0001 H   0  0  0  0  0  0  0  0  0  0  0  0
    6.2008   -0.3575    0.0000 C   0  0  0  0  0  0  0  0  0  0  0  0
    5.6534    0.9455   -0.0000 C   0  0  0  0  0  0  0  0  0  0  0  0
    6.3024    1.8308   -0.0001 H   0  0  0  0  0  0  0  0  0  0  0  0
    4.2663    1.1157    0.0000 C   0  0  0  0  0  0  0  0  0  0  0  0
    3.8289    2.1243    0.0000 H   0  0  0  0  0  0  0  0  0  0  0  0
    7.5242   -0.6351   -0.0000 O   0  0  0  0  0  0  0  0  0  0  0  0
    8.4490    0.4416   -0.0001 C   0  0  0  0  0  0  0  0  0  0  0  0
    8.3381    1.0780   -0.9055 H   0  0  0  0  0  0  0  0  0  0  0  0
    9.4556   -0.0144   -0.0002 H   0  0  0  0  0  0  0  0  0  0  0  0
    8.3383    1.0781    0.9052 H   0  0  0  0  0  0  0  0  0  0  0  0
  1  4  1  0  0  0  0
  2  3  2  0  0  0  0
  2  1  1  0  0  0  0
  3  5  1  0  0  0  0
  5  4  1  0  0  0  0
  5  6  1  0  0  0  0
  7 15  1  0  0  0  0
  7  1  2  0  0  0  0
  8  7  1  0  0  0  0
  9  8  1  0  0  0  0
 10  8  2  0  0  0  0
 10 11  1  0  0  0  0
 11 13  2  0  0  0  0
 12 11  1  0  0  0  0
 13 15  1  0  0  0  0
 13 14  1  0  0  0  0
 16 17  1  0  0  0  0
 16  3  1  0  0  0  0
 17 18  1  0  0  0  0
 19 20  1  0  0  0  0
 19 17  2  0  0  0  0
 21 19  1  0  0  0  0
 22 21  2  0  0  0  0
 22 24  1  0  0  0  0
 23 22  1  0  0  0  0
 24 16  2  0  0  0  0
 25 24  1  0  0  0  0
 26 21  1  0  0  0  0
 27 26  1  0  0  0  0
 27 30  1  0  0  0  0
 28 27  1  0  0  0  0
 29 27  1  0  0  0  0
M  END
