5,6
q = 0.0, confidence = 0.994

 38 39  0  0  1  0  0  0  0  0999 V2000
   -4.1605    1.6158    1.2809 O   0  0  0  0  0  0  0  0  0  0  0  0
   -4.3287    3.1778   -0.3659 O   0  0  0  0  0  0  0  0  0  0  0  0
   -4.9742    0.3355   -1.3583 O   0  0  0  0  0  0  0  0  0  0  0  0
   -6.4017   -0.7682    0.0213 O   0  0  0  0  0  0  0  0  0  0  0  0
   -0.7897    0.0284   -0.8609 N   0  0  0  0  0  2  0  0  0  0  0  0
   -1.7870   -1.7739    0.6727 N   0  0  0  0  0  2  0  0  0  0  0  0
   -0.0880    0.9638   -1.5522 C   0  0  0  0  0  3  0  0  0  0  0  0
    0.9091    0.6537   -1.8935 H   0  0  0  0  0  0  0  0  0  0  0  0
   -0.5863    2.2386   -1.7905 C   0  0  0  0  0  0  0  0  0  0  0  0
    0.0123    2.9614   -2.3623 H   0  0  0  0  0  0  0  0  0  0  0  0
   -1.8312    2.5853   -1.2455 C   0  0  0  0  0  0  0  0  0  0  0  0
   -2.2326    3.6024   -1.3378 H   0  0  0  0  0  0  0  0  0  0  0  0
   -2.5727    1.6263   -0.5366 C   0  0  0  0  0  0  0  0  0  0  0  0
   -2.0732    0.3006   -0.4289 C   0  0  0  0  0  0  0  0  0  0  0  0
   -2.7151   -0.8669    0.2067 C   0  0  1  0  0  3  0  0  0  0  0  0
   -4.1032   -1.1550    0.3409 C   0  0  0  0  0  0  0  0  0  0  0  0
   -4.4867   -2.2741    1.1036 C   0  0  0  0  0  0  0  0  0  0  0  0
   -5.5561   -2.4901    1.2169 H   0  0  0  0  0  0  0  0  0  0  0  0
   -3.5161   -3.1119    1.6612 C   0  0  0  0  0  0  0  0  0  0  0  0
   -3.7930   -3.9925    2.2573 H   0  0  0  0  0  0  0  0  0  0  0  0
   -2.1750   -2.8572    1.3853 C   0  0  0  0  0  0  0  0  0  0  0  0
   -1.3452   -3.5168    1.6929 H   0  0  0  0  0  0  0  0  0  0  0  0
   -3.7746    2.0949    0.2274 C   0  0  0  0  0  0  0  0  0  0  0  0
   -5.5191    3.7352    0.2279 C   0  0  0  0  0  0  0  0  0  0  0  0
   -5.2353    4.7056    0.6880 H   0  0  0  0  0  0  0  0  0  0  0  0
   -5.8549    3.0578    1.0390 H   0  0  0  0  0  0  0  0  0  0  0  0
   -6.5631    3.9137   -0.8584 C   0  0  0  0  0  0  0  0  0  0  0  0
   -7.4879    4.3503   -0.4309 H   0  0  0  0  0  0  0  0  0  0  0  0
   -6.8117    2.9376   -1.3188 H   0  0  0  0  0  0  0  0  0  0  0  0
   -6.1982    4.5873   -1.6588 H   0  0  0  0  0  0  0  0  0  0  0  0
   -5.1650   -0.4256   -0.4226 C   0  0  0  0  0  0  0  0  0  0  0  0
   -7.5449   -0.1815   -0.6328 C   0  0  0  0  0  0  0  0  0  0  0  0
   -8.1697   -1.0298   -0.9808 H   0  0  0  0  0  0  0  0  0  0  0  0
   -7.1929    0.3862   -1.5170 H   0  0  0  0  0  0  0  0  0  0  0  0
   -8.3013    0.6944    0.3506 C   0  0  0  0  0  0  0  0  0  0  0  0
   -9.2099    1.1086   -0.1309 H   0  0  0  0  0  0  0  0  0  0  0  0
   -7.6731    1.5405    0.6915 H   0  0  0  0  0  0  0  0  0  0  0  0
   -8.6136    0.1165    1.2427 H   0  0  0  0  0  0  0  0  0  0  0  0
  2 23  1  0  0  0  0
  2 24  1  0  0  0  0
  3 31  2  0  0  0  0
  5 14  1  0  0  0  0
  6 21  1  0  0  0  0
  7  5  1  0  0  0  0
  8  7  1  0  0  0  0
  9  7  1  0  0  0  0
  9 11  2  0  0  0  0
 10  9  1  0  0  0  0
 11 13  1  0  0  0  0
 12 11  1  0  0  0  0
 13 14  2  0  0  0  0
 13 23  1  0  0  0  0
 15 14  1  6  0  0  0
 15 16  1  0  0  0  0
 15  6  1  0  0  0  0
 16 17  2  0  0  0  0
 17 18  1  0  0  0  0
 17 19  1  0  0  0  0
 19 20  1  0  0  0  0
 21 19  2  0  0  0  0
 21 22  1  0  0  0  0
 23  1  2  0  0  0  0
 24 25  1  0  0  0  0
 24 26  1  0  0  0  0
 27 28  1  0  0  0  0
 27 24  1  0  0  0  0
 29 27  1  0  0  0  0
 30 27  1  0  0  0  0
 31  4  1  0  0  0  0
 31 16  1  0  0  0  0
 32  4  1  0  0  0  0
 32 35  1  0  0  0  0
 33 32  1  0  0  0  0
 34 32  1  0  0  0  0
 35 37  1  0  0  0  0
 35 38  1  0  0  0  0
 36 35  1  0  0  0  0
M  END
