2,20
q = -2.0, confidence = 0.786

 37 36  0  0  0  0  0  0  0  0999 V2000
    0.0000   -1.5729   -0.0000 Si  0  0  0  0  0  0  0  0  0  0  0  0
    1.2610   -0.3036    0.1463 N   0  0  0  0  0  2  0  0  0  0  0  0
    2.7306   -0.3572    0.1227 C   0  0  0  0  0  0  0  0  0  0  0  0
    3.2487    1.0068    0.6199 C   0  0  0  0  0  0  0  0  0  0  0  0
    3.2304   -1.4791    1.0501 C   0  0  0  0  0  0  0  0  0  0  0  0
    3.2112   -0.5971   -1.3223 C   0  0  0  0  0  0  0  0  0  0  0  0
    0.1818   -2.6260   -1.5486 C   0  0  0  0  0  0  0  0  0  0  0  0
    4.3567    1.0272    0.6398 H   0  0  0  0  0  0  0  0  0  0  0  0
    2.9057    1.8171   -0.0575 H   0  0  0  0  0  0  0  0  0  0  0  0
    2.8700    1.2200    1.6392 H   0  0  0  0  0  0  0  0  0  0  0  0
    4.3384   -1.4940    1.0829 H   0  0  0  0  0  0  0  0  0  0  0  0
    2.8514   -1.3328    2.0810 H   0  0  0  0  0  0  0  0  0  0  0  0
    2.8936   -2.4737    0.6908 H   0  0  0  0  0  0  0  0  0  0  0  0
    2.7991    0.1823   -1.9934 H   0  0  0  0  0  0  0  0  0  0  0  0
    4.3184   -0.5646   -1.3770 H   0  0  0  0  0  0  0  0  0  0  0  0
    2.8798   -1.5863   -1.6953 H   0  0  0  0  0  0  0  0  0  0  0  0
    1.0790   -3.2749   -1.4836 H   0  0  0  0  0  0  0  0  0  0  0  0
   -0.7009   -3.2828   -1.6848 H   0  0  0  0  0  0  0  0  0  0  0  0
    0.2786   -1.9756   -2.4397 H   0  0  0  0  0  0  0  0  0  0  0  0
   -1.2610   -0.3036   -0.1463 N   0  0  0  0  0  2  0  0  0  0  0  0
   -0.1818   -2.6260    1.5486 C   0  0  0  0  0  0  0  0  0  0  0  0
   -2.7306   -0.3572   -0.1228 C   0  0  0  0  0  0  0  0  0  0  0  0
   -1.0790   -3.2749    1.4836 H   0  0  0  0  0  0  0  0  0  0  0  0
    0.7009   -3.2828    1.6848 H   0  0  0  0  0  0  0  0  0  0  0  0
   -0.2786   -1.9756    2.4397 H   0  0  0  0  0  0  0  0  0  0  0  0
   -3.2487    1.0068   -0.6199 C   0  0  0  0  0  0  0  0  0  0  0  0
   -3.2304   -1.4790   -1.0501 C   0  0  0  0  0  0  0  0  0  0  0  0
   -3.2112   -0.5971    1.3223 C   0  0  0  0  0  0  0  0  0  0  0  0
   -4.3567    1.0272   -0.6398 H   0  0  0  0  0  0  0  0  0  0  0  0
   -2.9057    1.8171    0.0575 H   0  0  0  0  0  0  0  0  0  0  0  0
   -2.8700    1.2200   -1.6392 H   0  0  0  0  0  0  0  0  0  0  0  0
   -4.3384   -1.4940   -1.0830 H   0  0  0  0  0  0  0  0  0  0  0  0
   -2.8514   -1.3328   -2.0811 H   0  0  0  0  0  0  0  0  0  0  0  0
   -2.8936   -2.4737   -0.6909 H   0  0  0  0  0  0  0  0  0  0  0  0
   -2.7991    0.1823    1.9934 H   0  0  0  0  0  0  0  0  0  0  0  0
   -4.3184   -0.5646    1.3770 H   0  0  0  0  0  0  0  0  0  0  0  0
   -2.8798   -1.5863    1.6953 H   0  0  0  0  0  0  0  0  0  0  0  0
  1  2  1  0  0  0  0
  1 21  1  0  0  0  0
  3  2  1  0  0  0  0
  3  4  1  0  0  0  0
  3  5  1  0  0  0  0
  4  8  1  0  0  0  0
  4 10  1  0  0  0  0
  5 11  1  0  0  0  0
  5 12  1  0  0  0  0
  6  3  1  0  0  0  0
  7 17  1  0  0  0  0
  7  1  1  0  0  0  0
  9  4  1  0  0  0  0
 13  5  1  0  0  0  0
 14  6  1  0  0  0  0
 15  6  1  0  0  0  0
 16  6  1  0  0  0  0
 18  7  1  0  0  0  0
 19  7  1  0  0  0  0
 20 22  1  0  0  0  0
 20  1  1  0  0  0  0
 21 24  1  0  0  0  0
 21 25  1  0  0  0  0
 22 28  1  0  0  0  0
 23 21  1  0  0  0  0
 26 22  1  0  0  0  0
 26 30  1  0  0  0  0
 27 34  1  0  0  0  0
 27 22  1  0  0  0  0
 28 36  1  0  0  0  0
 28 37  1  0  0  0  0
 28 35  1  0  0  0  0
 29 26  1  0  0  0  0
 31 26  1  0  0  0  0
 32 27  1  0  0  0  0
 33 27  1  0  0  0  0
M  END
