1,2
q = 0.0, confidence = 1.0

 20 22  0  0  0  0  0  0  0  0999 V2000
    0.1108    1.3983   -0.0003 N   0  0  0  0  0  0  0  0  0  0  0  0
    0.1108   -1.3983   -0.0003 N   0  0  0  0  0  0  0  0  0  0  0  0
    2.5682    1.2193   -0.0001 C   0  0  0  0  0  0  0  0  0  0  0  0
    2.5682   -1.2193   -0.0002 C   0  0  0  0  0  0  0  0  0  0  0  0
    3.5029    0.0001   -0.0001 C   0  0  0  0  0  0  0  0  0  0  0  0
    4.7159    0.0001    0.0003 O   0  0  0  0  0  0  0  0  0  0  0  0
    1.2636   -0.7181   -0.0004 C   0  0  0  0  0  0  0  0  0  0  0  0
    1.2636    0.7181   -0.0004 C   0  0  0  0  0  0  0  0  0  0  0  0
    2.7037   -2.6115    0.0002 C   0  0  0  0  0  0  0  0  0  0  0  0
    1.5022    3.3654    0.0002 C   0  0  0  0  0  0  0  0  0  0  0  0
    0.2352   -2.7501   -0.0000 C   0  0  0  0  0  0  0  0  0  0  0  0
    0.2351    2.7501    0.0000 C   0  0  0  0  0  0  0  0  0  0  0  0
    2.7035    2.6116    0.0002 C   0  0  0  0  0  0  0  0  0  0  0  0
    1.5023   -3.3653    0.0002 C   0  0  0  0  0  0  0  0  0  0  0  0
   -0.7157   -3.3072    0.0001 H   0  0  0  0  0  0  0  0  0  0  0  0
    3.6876   -3.1036    0.0004 H   0  0  0  0  0  0  0  0  0  0  0  0
    3.6874    3.1037    0.0004 H   0  0  0  0  0  0  0  0  0  0  0  0
    1.5451   -4.4641    0.0005 H   0  0  0  0  0  0  0  0  0  0  0  0
    1.5449    4.4641    0.0005 H   0  0  0  0  0  0  0  0  0  0  0  0
   -0.7159    3.3071    0.0001 H   0  0  0  0  0  0  0  0  0  0  0  0
  1 12  1  0  0  0  0
  2 11  1  0  0  0  0
  3  5  1  0  0  0  0
  3 13  2  0  0  0  0
  4  5  1  0  0  0  0
  4  9  2  0  0  0  0
  5  6  2  0  0  0  0
  7  8  1  0  0  0  0
  7  2  2  0  0  0  0
  7  4  1  0  0  0  0
  8  1  2  0  0  0  0
  8  3  1  0  0  0  0
  9 14  1  0  0  0  0
  9 16  1  0  0  0  0
 10 19  1  0  0  0  0
 11 15  1  0  0  0  0
 11 14  2  0  0  0  0
 12 20  1  0  0  0  0
 12 10  2  0  0  0  0
 13 10  1  0  0  0  0
 13 17  1  0  0  0  0
 14 18  1  0  0  0  0
M  END
