1,3
q = 0.0, confidence = 0.998

 24 25  0  0  0  0  0  0  0  0999 V2000
    0.3695    1.2989    0.3956 N   0  0  0  0  0  2  0  0  0  0  0  0
   -0.9057    1.6237    0.0268 N   0  0  0  0  0  0  0  0  0  0  0  0
   -0.0741   -0.6763   -1.4198 N   0  0  0  0  0  0  0  0  0  0  0  0
    0.2703    0.0880   -2.0220 H   0  0  0  0  0  0  0  0  0  0  0  0
    0.0450   -1.5469   -1.9540 H   0  0  0  0  0  0  0  0  0  0  0  0
    0.9564    2.4502    0.7683 C   0  0  0  0  0  3  0  0  0  0  0  0
    1.9954    2.4463    1.1166 H   0  0  0  0  0  0  0  0  0  0  0  0
    0.0603    3.5327    0.6425 C   0  0  0  0  0  0  0  0  0  0  0  0
    0.2488    4.5877    0.8631 H   0  0  0  0  0  0  0  0  0  0  0  0
   -1.1169    2.9703    0.1648 C   0  0  0  0  0  0  0  0  0  0  0  0
   -2.0767    3.4188   -0.1108 H   0  0  0  0  0  0  0  0  0  0  0  0
   -1.8630    0.6390   -0.3453 C   0  0  0  0  0  0  0  0  0  0  0  0
   -3.2055    0.7916    0.0396 C   0  0  0  0  0  0  0  0  0  0  0  0
   -3.4927    1.6607    0.6488 H   0  0  0  0  0  0  0  0  0  0  0  0
   -4.1773   -0.1660   -0.3019 C   0  0  0  0  0  0  0  0  0  0  0  0
   -3.7580   -1.3010   -1.0282 C   0  0  0  0  0  0  0  0  0  0  0  0
   -4.4905   -2.0776   -1.2946 H   0  0  0  0  0  0  0  0  0  0  0  0
   -2.4222   -1.4627   -1.4103 C   0  0  0  0  0  0  0  0  0  0  0  0
   -2.1149   -2.3583   -1.9728 H   0  0  0  0  0  0  0  0  0  0  0  0
   -1.4638   -0.4922   -1.0877 C   0  0  0  0  0  0  0  0  0  0  0  0
   -5.6157    0.0010    0.1077 C   0  0  0  0  0  0  0  0  0  0  0  0
   -6.2651    0.1365   -0.7821 H   0  0  0  0  0  0  0  0  0  0  0  0
   -5.7593    0.8760    0.7687 H   0  0  0  0  0  0  0  0  0  0  0  0
   -5.9853   -0.8981    0.6406 H   0  0  0  0  0  0  0  0  0  0  0  0
  1  6  1  0  0  0  0
  2 10  1  0  0  0  0
  2  1  1  0  0  0  0
  3 20  1  0  0  0  0
  4  3  1  0  0  0  0
  5  3  1  0  0  0  0
  6  7  1  0  0  0  0
  8  6  1  0  0  0  0
  8  9  1  0  0  0  0
 10  8  2  0  0  0  0
 11 10  1  0  0  0  0
 12  2  1  0  0  0  0
 12 13  1  0  0  0  0
 13 14  1  0  0  0  0
 15 13  2  0  0  0  0
 15 21  1  0  0  0  0
 16 15  1  0  0  0  0
 17 16  1  0  0  0  0
 18 20  1  0  0  0  0
 18 16  2  0  0  0  0
 19 18  1  0  0  0  0
 20 12  2  0  0  0  0
 21 24  1  0  0  0  0
 21 23  1  0  0  0  0
 22 21  1  0  0  0  0
M  END
