3,4
q = 0.0, confidence = 0.956

 48 49  0  0  0  0  0  0  0  0999 V2000
   -7.9409   -1.6088    0.0005 Si  0  0  0  0  0  0  0  0  0  0  0  0
    7.9409   -1.6087    0.0003 Si  0  0  0  0  0  0  0  0  0  0  0  0
   -1.3196   -1.4951   -0.0001 N   0  0  0  0  0  2  0  0  0  0  0  0
    1.3195   -1.4951    0.0000 N   0  0  0  0  0  2  0  0  0  0  0  0
   -8.0499    0.2758   -0.0006 C   0  0  0  0  0  0  0  0  0  0  0  0
   -7.5539    0.7005    0.8954 H   0  0  0  0  0  0  0  0  0  0  0  0
   -9.1090    0.6065    0.0005 H   0  0  0  0  0  0  0  0  0  0  0  0
   -7.5561    0.6993   -0.8983 H   0  0  0  0  0  0  0  0  0  0  0  0
   -8.7279   -2.3348    1.5561 C   0  0  0  0  0  0  0  0  0  0  0  0
   -8.6329   -3.4391    1.5736 H   0  0  0  0  0  0  0  0  0  0  0  0
   -9.8074   -2.0808    1.5947 H   0  0  0  0  0  0  0  0  0  0  0  0
   -8.2464   -1.9325    2.4699 H   0  0  0  0  0  0  0  0  0  0  0  0
   -8.7288   -2.3365   -1.5538 C   0  0  0  0  0  0  0  0  0  0  0  0
   -8.2480   -1.9351   -2.4684 H   0  0  0  0  0  0  0  0  0  0  0  0
   -9.8085   -2.0827   -1.5920 H   0  0  0  0  0  0  0  0  0  0  0  0
   -8.6338   -3.4408   -1.5703 H   0  0  0  0  0  0  0  0  0  0  0  0
   -6.1393   -2.0557    0.0002 C   0  0  0  0  0  0  0  0  0  0  0  0
   -4.9262   -2.2921    0.0001 C   0  0  0  0  0  0  0  0  0  0  0  0
   -2.6585   -1.3797   -0.0000 C   0  0  0  0  0  0  0  0  0  0  0  0
   -3.0441   -0.3474   -0.0000 H   0  0  0  0  0  0  0  0  0  0  0  0
   -3.5200   -2.4987   -0.0000 C   0  0  0  0  0  0  0  0  0  0  0  0
   -2.9233   -3.7876   -0.0002 C   0  0  0  0  0  0  0  0  0  0  0  0
   -3.5586   -4.6841   -0.0002 H   0  0  0  0  0  0  0  0  0  0  0  0
   -1.5347   -3.8962   -0.0003 C   0  0  0  0  0  0  0  0  0  0  0  0
   -1.0634   -4.8881   -0.0005 H   0  0  0  0  0  0  0  0  0  0  0  0
   -0.7324   -2.7370   -0.0003 C   0  0  0  0  0  0  0  0  0  0  0  0
    0.7324   -2.7370   -0.0003 C   0  0  0  0  0  0  0  0  0  0  0  0
    1.5347   -3.8962   -0.0005 C   0  0  0  0  0  0  0  0  0  0  0  0
    1.0634   -4.8881   -0.0008 H   0  0  0  0  0  0  0  0  0  0  0  0
    2.9233   -3.7876   -0.0005 C   0  0  0  0  0  0  0  0  0  0  0  0
    3.5586   -4.6840   -0.0008 H   0  0  0  0  0  0  0  0  0  0  0  0
    3.5200   -2.4987   -0.0002 C   0  0  0  0  0  0  0  0  0  0  0  0
    2.6584   -1.3797    0.0001 C   0  0  0  0  0  0  0  0  0  0  0  0
    3.0440   -0.3474    0.0004 H   0  0  0  0  0  0  0  0  0  0  0  0
    4.9262   -2.2920   -0.0001 C   0  0  0  0  0  0  0  0  0  0  0  0
    6.1393   -2.0556    0.0000 C   0  0  0  0  0  0  0  0  0  0  0  0
    8.7275   -2.3334    1.5568 C   0  0  0  0  0  0  0  0  0  0  0  0
    8.2456   -1.9304    2.4701 H   0  0  0  0  0  0  0  0  0  0  0  0
    9.8070   -2.0793    1.5955 H   0  0  0  0  0  0  0  0  0  0  0  0
    8.6326   -3.4377    1.5752 H   0  0  0  0  0  0  0  0  0  0  0  0
    8.0499    0.2758   -0.0022 C   0  0  0  0  0  0  0  0  0  0  0  0
    7.5552    0.6987   -0.8998 H   0  0  0  0  0  0  0  0  0  0  0  0
    9.1091    0.6065   -0.0025 H   0  0  0  0  0  0  0  0  0  0  0  0
    7.5550    0.7012    0.8940 H   0  0  0  0  0  0  0  0  0  0  0  0
    8.7292   -2.3378   -1.5532 C   0  0  0  0  0  0  0  0  0  0  0  0
    8.6344   -3.4422   -1.5685 H   0  0  0  0  0  0  0  0  0  0  0  0
    9.8087   -2.0837   -1.5914 H   0  0  0  0  0  0  0  0  0  0  0  0
    8.2483   -1.9375   -2.4682 H   0  0  0  0  0  0  0  0  0  0  0  0
  1  9  1  0  0  0  0
  2 37  1  0  0  0  0
  3 19  1  0  0  0  0
  4 33  1  0  0  0  0
  5  1  1  0  0  0  0
  5  7  1  0  0  0  0
  5  6  1  0  0  0  0
  8  5  1  0  0  0  0
  9 10  1  0  0  0  0
  9 11  1  0  0  0  0
  9 12  1  0  0  0  0
 13  1  1  0  0  0  0
 14 13  1  0  0  0  0
 15 13  1  0  0  0  0
 16 13  1  0  0  0  0
 17  1  1  0  0  0  0
 18 17  3  0  0  0  0
 19 20  1  0  0  0  0
 21 19  2  0  0  0  0
 21 18  1  0  0  0  0
 22 21  1  0  0  0  0
 23 22  1  0  0  0  0
 24 26  1  0  0  0  0
 24 22  2  0  0  0  0
 25 24  1  0  0  0  0
 26  3  1  0  0  0  0
 27 26  2  0  0  0  0
 27  4  1  0  0  0  0
 28 30  2  0  0  0  0
 28 27  1  0  0  0  0
 29 28  1  0  0  0  0
 30 32  1  0  0  0  0
 31 30  1  0  0  0  0
 32 35  1  0  0  0  0
 32 33  2  0  0  0  0
 33 34  1  0  0  0  0
 35 36  3  0  0  0  0
 36  2  1  0  0  0  0
 37 40  1  0  0  0  0
 37 39  1  0  0  0  0
 37 38  1  0  0  0  0
 41  2  1  0  0  0  0
 41 44  1  0  0  0  0
 42 41  1  0  0  0  0
 43 41  1  0  0  0  0
 45  2  1  0  0  0  0
 46 45  1  0  0  0  0
 47 45  1  0  0  0  0
 48 45  1  0  0  0  0
M  END
