1,2
q = 0.0, confidence = 1.0

 24 25  0  0  1  0  0  0  0  0999 V2000
   -1.5515    1.1481    0.6904 N   0  0  0  0  0  2  0  0  0  0  0  0
   -1.4968   -1.0364   -0.7970 N   0  0  0  0  0  2  0  0  0  0  0  0
   -2.7057    0.7039    0.2703 C   0  0  2  0  0  3  0  0  0  0  0  0
   -1.4475    2.4262    1.3831 C   0  0  0  0  0  0  0  0  0  0  0  0
   -2.6796   -0.6132   -0.4408 C   0  0  2  0  0  3  0  0  0  0  0  0
   -1.2825   -2.2990   -1.4961 C   0  0  0  0  0  0  0  0  0  0  0  0
   -4.2826    1.4712    0.3867 S   0  0  0  0  0  0  0  0  0  0  0  0
   -2.6324    2.7006    2.3121 C   0  0  0  0  0  0  0  0  0  0  0  0
   -0.4972    2.4243    1.9519 H   0  0  0  0  0  0  0  0  0  0  0  0
   -1.3612    3.2395    0.6244 H   0  0  0  0  0  0  0  0  0  0  0  0
   -4.2432   -1.3954   -0.6536 S   0  0  0  0  0  0  0  0  0  0  0  0
   -2.3806   -3.3480   -1.3303 C   0  0  0  0  0  0  0  0  0  0  0  0
   -1.1380   -2.0581   -2.5741 H   0  0  0  0  0  0  0  0  0  0  0  0
   -0.3066   -2.7024   -1.1561 H   0  0  0  0  0  0  0  0  0  0  0  0
   -3.9360    2.8666    1.5457 C   0  0  0  0  0  0  0  0  0  0  0  0
   -2.4426    3.6279    2.8904 H   0  0  0  0  0  0  0  0  0  0  0  0
   -2.7169    1.8723    3.0462 H   0  0  0  0  0  0  0  0  0  0  0  0
   -3.7488   -2.8040   -1.7238 C   0  0  0  0  0  0  0  0  0  0  0  0
   -2.4109   -3.7098   -0.2810 H   0  0  0  0  0  0  0  0  0  0  0  0
   -2.1384   -4.2237   -1.9673 H   0  0  0  0  0  0  0  0  0  0  0  0
   -4.8121    2.8996    2.2227 H   0  0  0  0  0  0  0  0  0  0  0  0
   -3.9372    3.7936    0.9383 H   0  0  0  0  0  0  0  0  0  0  0  0
   -3.7733   -2.4673   -2.7800 H   0  0  0  0  0  0  0  0  0  0  0  0
   -4.5527   -3.5520   -1.5839 H   0  0  0  0  0  0  0  0  0  0  0  0
  1  4  1  0  0  0  0
  3  7  1  6  0  0  0
  3  1  1  0  0  0  0
  4  9  1  0  0  0  0
  4  8  1  0  0  0  0
  5  2  1  1  0  0  0
  5  3  1  0  0  0  0
  6 12  1  0  0  0  0
  6 14  1  0  0  0  0
  6  2  1  0  0  0  0
  7 15  1  0  0  0  0
  8 16  1  0  0  0  0
  8 17  1  0  0  0  0
 10  4  1  0  0  0  0
 11  5  1  0  0  0  0
 12 19  1  0  0  0  0
 13  6  1  0  0  0  0
 15 21  1  0  0  0  0
 15  8  1  0  0  0  0
 18 24  1  0  0  0  0
 18 12  1  0  0  0  0
 18 11  1  0  0  0  0
 20 12  1  0  0  0  0
 22 15  1  0  0  0  0
 23 18  1  0  0  0  0
M  END
