1,2
q = -1.0, confidence = 0.002

 24 24  0  0  0  0  0  0  0  0999 V2000
   -1.3426    1.1984   -0.5244 N   0  0  0  0  0  2  0  0  0  0  0  0
   -1.6423   -0.8428    1.2642 N   0  0  0  0  0  0  0  0  0  0  0  0
   -1.0164    2.3655   -1.3632 C   0  0  0  0  0  0  0  0  0  0  0  0
   -0.5006    3.4707   -0.4171 C   0  0  0  0  0  0  0  0  0  0  0  0
    0.1142    1.9377   -2.3169 C   0  0  0  0  0  0  0  0  0  0  0  0
   -2.2125    2.8839   -2.1753 C   0  0  0  0  0  0  0  0  0  0  0  0
   -2.5627    0.8225   -0.2226 C   0  0  0  0  0  3  0  0  0  0  0  0
   -2.7649   -0.2580    0.6910 C   0  0  0  0  0  0  0  0  0  0  0  0
   -3.9356   -0.8913    1.1774 C   0  0  0  0  0  0  0  0  0  0  0  0
   -3.4989   -1.8907    2.0688 C   0  0  0  0  0  0  0  0  0  0  0  0
   -2.0848   -1.8223    2.0890 C   0  0  0  0  0  3  0  0  0  0  0  0
   -3.4508    1.3253   -0.6500 H   0  0  0  0  0  0  0  0  0  0  0  0
   -4.9688   -0.6427    0.9052 H   0  0  0  0  0  0  0  0  0  0  0  0
   -4.1222   -2.5852    2.6447 H   0  0  0  0  0  0  0  0  0  0  0  0
   -1.3812   -2.4339    2.6703 H   0  0  0  0  0  0  0  0  0  0  0  0
   -0.1716    4.3585   -0.9941 H   0  0  0  0  0  0  0  0  0  0  0  0
    0.3586    3.1002    0.1759 H   0  0  0  0  0  0  0  0  0  0  0  0
   -1.2991    3.7841    0.2852 H   0  0  0  0  0  0  0  0  0  0  0  0
    0.4726    2.8015   -2.9112 H   0  0  0  0  0  0  0  0  0  0  0  0
   -0.2379    1.1531   -3.0156 H   0  0  0  0  0  0  0  0  0  0  0  0
    0.9725    1.5314   -1.7443 H   0  0  0  0  0  0  0  0  0  0  0  0
   -1.8869    3.7190   -2.8258 H   0  0  0  0  0  0  0  0  0  0  0  0
   -3.0219    3.2721   -1.5247 H   0  0  0  0  0  0  0  0  0  0  0  0
   -2.6344    2.0907   -2.8256 H   0  0  0  0  0  0  0  0  0  0  0  0
  1  7  1  0  0  0  0
  2 11  1  0  0  0  0
  3  1  1  0  0  0  0
  3  4  1  0  0  0  0
  4 17  1  0  0  0  0
  4 18  1  0  0  0  0
  5 21  1  0  0  0  0
  5  3  1  0  0  0  0
  6 23  1  0  0  0  0
  6  3  1  0  0  0  0
  7  8  1  0  0  0  0
  8  9  1  0  0  0  0
  8  2  2  0  0  0  0
  9 10  2  0  0  0  0
 10 11  1  0  0  0  0
 10 14  1  0  0  0  0
 11 15  1  0  0  0  0
 12  7  1  0  0  0  0
 13  9  1  0  0  0  0
 16  4  1  0  0  0  0
 19  5  1  0  0  0  0
 20  5  1  0  0  0  0
 22  6  1  0  0  0  0
 24  6  1  0  0  0  0
M  END
