1,14
q = 0.0, confidence = 0.964

 30 31  0  0  0  0  0  0  0  0999 V2000
    0.5919   -1.3668    0.9755 N   0  0  0  0  0  2  0  0  0  0  0  0
   -0.0576   -2.3688    1.8724 C   0  0  0  0  0  0  0  0  0  0  0  0
    1.1394   -2.7472    2.7837 C   0  0  0  0  0  0  0  0  0  0  0  0
    1.1838   -2.1086    3.6947 H   0  0  0  0  0  0  0  0  0  0  0  0
    1.1581   -3.8137    3.0760 H   0  0  0  0  0  0  0  0  0  0  0  0
    2.3186   -2.4725    1.9830 O   0  0  0  0  0  0  0  0  0  0  0  0
    1.8899   -1.5730    1.0721 C   0  0  0  0  0  0  0  0  0  0  0  0
    2.7103   -0.7485    0.2354 C   0  0  0  0  0  0  0  0  0  0  0  0
    4.0427   -0.8482    0.1042 O   0  0  0  0  0  0  0  0  0  0  0  0
    4.4164    0.2933   -0.7124 C   0  0  0  0  0  0  0  0  0  0  0  0
    5.1506   -0.0485   -1.4663 H   0  0  0  0  0  0  0  0  0  0  0  0
    4.8938    1.0439   -0.0452 H   0  0  0  0  0  0  0  0  0  0  0  0
    3.0915    0.8261   -1.3392 C   0  0  0  0  0  0  0  0  0  0  0  0
    2.0746    0.1845   -0.4407 N   0  0  0  0  0  2  0  0  0  0  0  0
   -0.4908   -3.5675    1.0179 C   0  0  0  0  0  0  0  0  0  0  0  0
   -1.0062   -4.3213    1.6473 H   0  0  0  0  0  0  0  0  0  0  0  0
    0.3862   -4.0385    0.5332 H   0  0  0  0  0  0  0  0  0  0  0  0
   -1.1674   -3.2330    0.2153 H   0  0  0  0  0  0  0  0  0  0  0  0
   -1.2246   -1.7565    2.6403 C   0  0  0  0  0  0  0  0  0  0  0  0
   -0.9036   -0.8618    3.2090 H   0  0  0  0  0  0  0  0  0  0  0  0
   -1.6524   -2.4927    3.3498 H   0  0  0  0  0  0  0  0  0  0  0  0
   -2.0177   -1.4489    1.9333 H   0  0  0  0  0  0  0  0  0  0  0  0
    2.8951    0.3139   -2.7737 C   0  0  0  0  0  0  0  0  0  0  0  0
    2.9387   -0.7907   -2.8128 H   0  0  0  0  0  0  0  0  0  0  0  0
    3.6861    0.7413   -3.4240 H   0  0  0  0  0  0  0  0  0  0  0  0
    1.8999    0.6237   -3.1442 H   0  0  0  0  0  0  0  0  0  0  0  0
    3.0320    2.3517   -1.2984 C   0  0  0  0  0  0  0  0  0  0  0  0
    3.8308    2.7732   -1.9421 H   0  0  0  0  0  0  0  0  0  0  0  0
    3.1827    2.7331   -0.2692 H   0  0  0  0  0  0  0  0  0  0  0  0
    2.0484    2.6879   -1.6799 H   0  0  0  0  0  0  0  0  0  0  0  0
  1  7  1  0  0  0  0
  1  2  1  0  0  0  0
  2 19  1  0  0  0  0
  2  3  1  0  0  0  0
  3  5  1  0  0  0  0
  3  4  1  0  0  0  0
  6  3  1  0  0  0  0
  7  6  1  0  0  0  0
  8  7  2  0  0  0  0
  9  8  1  0  0  0  0
 10 12  1  0  0  0  0
 10  9  1  0  0  0  0
 11 10  1  0  0  0  0
 13 27  1  0  0  0  0
 13 10  1  0  0  0  0
 13 14  1  0  0  0  0
 14  8  1  0  0  0  0
 15 16  1  0  0  0  0
 15  2  1  0  0  0  0
 17 15  1  0  0  0  0
 18 15  1  0  0  0  0
 19 20  1  0  0  0  0
 19 21  1  0  0  0  0
 22 19  1  0  0  0  0
 23 13  1  0  0  0  0
 24 23  1  0  0  0  0
 25 23  1  0  0  0  0
 26 23  1  0  0  0  0
 27 29  1  0  0  0  0
 28 27  1  0  0  0  0
 30 27  1  0  0  0  0
M  END
