1,4
q = 0.0, confidence = 0.994

 16 15  0  0  0  0  0  0  0  0999 V2000
   -2.0987    1.4503    0.0785 N   0  0  0  0  0  0  0  0  0  0  0  0
   -1.6190    2.3560    0.2197 H   0  0  0  0  0  0  0  0  0  0  0  0
   -2.7981    1.5806   -0.6703 H   0  0  0  0  0  0  0  0  0  0  0  0
   -1.9060   -1.5056   -0.4249 N   0  0  0  0  0  0  0  0  0  0  0  0
   -2.5959   -1.5153   -1.1932 H   0  0  0  0  0  0  0  0  0  0  0  0
   -1.2878   -2.3258   -0.5537 H   0  0  0  0  0  0  0  0  0  0  0  0
   -4.3435   -0.2511   -0.1012 O   0  0  0  0  0  0  0  0  0  0  0  0
   -5.1590    0.2328    0.1214 H   0  0  0  0  0  0  0  0  0  0  0  0
   -2.6231   -1.5670    0.8691 C   0  0  0  0  0  0  0  0  0  0  0  0
   -1.8712   -1.6303    1.6802 H   0  0  0  0  0  0  0  0  0  0  0  0
   -3.2653   -2.4731    0.9090 H   0  0  0  0  0  0  0  0  0  0  0  0
   -3.5224   -0.3391    1.0655 C   0  0  0  0  0  0  0  0  0  0  0  0
   -4.1287   -0.5435    1.9778 H   0  0  0  0  0  0  0  0  0  0  0  0
   -2.7960    0.9987    1.3041 C   0  0  0  0  0  0  0  0  0  0  0  0
   -3.5452    1.7589    1.6222 H   0  0  0  0  0  0  0  0  0  0  0  0
   -2.0516    0.8955    2.1188 H   0  0  0  0  0  0  0  0  0  0  0  0
  1  2  1  0  0  0  0
  1 14  1  0  0  0  0
  3  1  1  0  0  0  0
  4  9  1  0  0  0  0
  5  4  1  0  0  0  0
  6  4  1  0  0  0  0
  7  8  1  0  0  0  0
  7 12  1  0  0  0  0
  9 11  1  0  0  0  0
  9 12  1  0  0  0  0
  9 10  1  0  0  0  0
 12 14  1  0  0  0  0
 12 13  1  0  0  0  0
 14 15  1  0  0  0  0
 14 16  1  0  0  0  0
M  END
