1,2
q = -1.0, confidence = 0.0

 36 38  0  0  0  0  0  0  0  0999 V2000
    1.7530   -1.0903   -0.0424 N   0  0  0  0  0  2  0  0  0  0  0  0
    1.7530    1.0904    0.0426 N   0  0  0  0  0  2  0  0  0  0  0  0
    2.0959    2.4205   -0.2015 C   0  0  0  0  0  0  0  0  0  0  0  0
    4.0206    0.0001   -0.0002 C   0  0  0  0  0  0  0  0  0  0  0  0
    2.5370    0.0001   -0.0000 C   0  0  0  0  0  3  0  0  0  0  0  0
    6.1329   -0.8854   -0.8334 C   0  0  0  0  0  0  0  0  0  0  0  0
    6.6802   -1.5794   -1.4890 H   0  0  0  0  0  0  0  0  0  0  0  0
    2.9985    2.7929   -1.2284 C   0  0  0  0  0  0  0  0  0  0  0  0
    3.4455    2.0133   -1.8616 H   0  0  0  0  0  0  0  0  0  0  0  0
    3.3102   -4.1418    1.4371 C   0  0  0  0  0  0  0  0  0  0  0  0
    4.0161   -4.4152    2.2366 H   0  0  0  0  0  0  0  0  0  0  0  0
    2.0960   -2.4203    0.2016 C   0  0  0  0  0  0  0  0  0  0  0  0
    1.4949    3.4341    0.5807 C   0  0  0  0  0  0  0  0  0  0  0  0
    0.7790    3.1417    1.3620 H   0  0  0  0  0  0  0  0  0  0  0  0
    2.9989   -2.7926    1.2284 C   0  0  0  0  0  0  0  0  0  0  0  0
    3.4460   -2.0131    1.8614 H   0  0  0  0  0  0  0  0  0  0  0  0
    1.8063   -4.7806   -0.3566 C   0  0  0  0  0  0  0  0  0  0  0  0
    1.3237   -5.5545   -0.9728 H   0  0  0  0  0  0  0  0  0  0  0  0
    4.7321   -0.8912   -0.8320 C   0  0  0  0  0  0  0  0  0  0  0  0
    4.1786   -1.5851   -1.4808 H   0  0  0  0  0  0  0  0  0  0  0  0
    4.7322    0.8914    0.8315 C   0  0  0  0  0  0  0  0  0  0  0  0
    4.1788    1.5854    1.4804 H   0  0  0  0  0  0  0  0  0  0  0  0
    6.1331    0.8857    0.8327 C   0  0  0  0  0  0  0  0  0  0  0  0
    6.6805    1.5797    1.4881 H   0  0  0  0  0  0  0  0  0  0  0  0
    1.4950   -3.4340   -0.5804 C   0  0  0  0  0  0  0  0  0  0  0  0
    0.7789   -3.1418   -1.3615 H   0  0  0  0  0  0  0  0  0  0  0  0
    2.7184    5.1436   -0.6478 C   0  0  0  0  0  0  0  0  0  0  0  0
    2.9614    6.2025   -0.8221 H   0  0  0  0  0  0  0  0  0  0  0  0
    3.3098    4.1420   -1.4371 C   0  0  0  0  0  0  0  0  0  0  0  0
    4.0154    4.4155   -2.2367 H   0  0  0  0  0  0  0  0  0  0  0  0
    2.7187   -5.1434    0.6481 C   0  0  0  0  0  0  0  0  0  0  0  0
    2.9618   -6.2023    0.8224 H   0  0  0  0  0  0  0  0  0  0  0  0
    6.8364    0.0002   -0.0005 C   0  0  0  0  0  0  0  0  0  0  0  0
    7.9370    0.0002   -0.0006 H   0  0  0  0  0  0  0  0  0  0  0  0
    1.8062    4.7806    0.3570 C   0  0  0  0  0  0  0  0  0  0  0  0
    1.3237    5.5545    0.9734 H   0  0  0  0  0  0  0  0  0  0  0  0
  1  5  1  0  0  0  0
  1 12  1  0  0  0  0
  3  2  1  0  0  0  0
  3 13  1  0  0  0  0
  4  5  1  0  0  0  0
  4 21  1  0  0  0  0
  5  2  1  0  0  0  0
  6 19  1  0  0  0  0
  6 33  2  0  0  0  0
  7  6  1  0  0  0  0
  8  3  2  0  0  0  0
  9  8  1  0  0  0  0
 10 11  1  0  0  0  0
 12 15  2  0  0  0  0
 13 14  1  0  0  0  0
 15 10  1  0  0  0  0
 15 16  1  0  0  0  0
 17 31  1  0  0  0  0
 18 17  1  0  0  0  0
 19  4  2  0  0  0  0
 20 19  1  0  0  0  0
 21 23  2  0  0  0  0
 21 22  1  0  0  0  0
 23 24  1  0  0  0  0
 25 17  2  0  0  0  0
 25 12  1  0  0  0  0
 26 25  1  0  0  0  0
 27 35  1  0  0  0  0
 28 27  1  0  0  0  0
 29  8  1  0  0  0  0
 29 27  2  0  0  0  0
 30 29  1  0  0  0  0
 31 32  1  0  0  0  0
 31 10  2  0  0  0  0
 33 23  1  0  0  0  0
 34 33  1  0  0  0  0
 35 13  2  0  0  0  0
 35 36  1  0  0  0  0
M  END
