3,4
q = 0.0, confidence = 0.994

 45 47  0  0  1  0  0  0  0  0999 V2000
   -1.4812   -1.4489    0.8350 C   0  0  0  0  0  0  0  0  0  0  0  0
   -2.0791   -2.0597    1.5162 H   0  0  0  0  0  0  0  0  0  0  0  0
    0.0395   -0.3472   -0.3411 N   0  0  0  0  0  2  0  0  0  0  0  0
    2.2477   -1.4051    0.6862 N   0  0  0  0  0  2  0  0  0  0  0  0
   -1.1102    0.1802   -0.6671 N   0  0  0  0  0  2  0  0  0  0  0  0
   -0.1183   -1.3609    0.5783 C   0  0  0  0  0  0  0  0  0  0  0  0
   -2.0406   -0.4809    0.0502 N   0  0  0  0  0  0  0  0  0  0  0  0
    1.0824   -3.1200    1.9403 C   0  0  0  0  0  0  0  0  0  0  0  0
    0.1271   -3.5722    2.2420 H   0  0  0  0  0  0  0  0  0  0  0  0
    1.0844   -1.9970    1.0958 C   0  0  1  0  0  3  0  0  0  0  0  0
    2.3016   -3.6426    2.3817 C   0  0  0  0  0  0  0  0  0  0  0  0
    2.3244   -4.5182    3.0467 H   0  0  0  0  0  0  0  0  0  0  0  0
    3.4205   -1.9185    1.1146 C   0  0  0  0  0  0  0  0  0  0  0  0
    4.3265   -1.4021    0.7662 H   0  0  0  0  0  0  0  0  0  0  0  0
    3.4924   -3.0298    1.9595 C   0  0  0  0  0  0  0  0  0  0  0  0
    4.4746   -3.4026    2.2815 H   0  0  0  0  0  0  0  0  0  0  0  0
   -3.3907    0.0152    0.1045 C   0  0  0  0  0  0  0  0  0  0  0  0
   -3.6130    1.1723    0.8926 C   0  0  0  0  0  0  0  0  0  0  0  0
   -4.9383    1.6412    0.9570 C   0  0  0  0  0  0  0  0  0  0  0  0
   -5.1612    2.5365    1.5554 H   0  0  0  0  0  0  0  0  0  0  0  0
   -2.8362    2.3641    3.0094 C   0  0  0  0  0  0  0  0  0  0  0  0
   -1.9332    2.7702    3.5066 H   0  0  0  0  0  0  0  0  0  0  0  0
   -3.2244    1.5306    3.6293 H   0  0  0  0  0  0  0  0  0  0  0  0
   -3.5989    3.1702    3.0041 H   0  0  0  0  0  0  0  0  0  0  0  0
   -1.9718    3.0758    0.7291 C   0  0  0  0  0  0  0  0  0  0  0  0
   -2.7483    3.8642    0.6418 H   0  0  0  0  0  0  0  0  0  0  0  0
   -1.7004    2.7370   -0.2890 H   0  0  0  0  0  0  0  0  0  0  0  0
   -1.0615    3.5108    1.1867 H   0  0  0  0  0  0  0  0  0  0  0  0
   -2.4727    1.9006    1.5919 C   0  0  0  0  0  0  0  0  0  0  0  0
   -1.6129    1.2062    1.6933 H   0  0  0  0  0  0  0  0  0  0  0  0
   -4.6135   -3.1677   -0.7643 C   0  0  0  0  0  0  0  0  0  0  0  0
   -4.1681   -3.2907    0.2438 H   0  0  0  0  0  0  0  0  0  0  0  0
   -4.3625   -4.0674   -1.3622 H   0  0  0  0  0  0  0  0  0  0  0  0
   -5.7155   -3.1399   -0.6381 H   0  0  0  0  0  0  0  0  0  0  0  0
   -4.6676   -1.7622   -2.8826 C   0  0  0  0  0  0  0  0  0  0  0  0
   -5.7764   -1.7294   -2.8857 H   0  0  0  0  0  0  0  0  0  0  0  0
   -4.3619   -2.6326   -3.4974 H   0  0  0  0  0  0  0  0  0  0  0  0
   -4.2983   -0.8434   -3.3789 H   0  0  0  0  0  0  0  0  0  0  0  0
   -4.1051   -1.8911   -1.4582 C   0  0  0  0  0  0  0  0  0  0  0  0
   -3.0025   -1.9745   -1.5511 H   0  0  0  0  0  0  0  0  0  0  0  0
   -4.4021   -0.6598   -0.6127 C   0  0  0  0  0  0  0  0  0  0  0  0
   -5.7091   -0.1486   -0.5024 C   0  0  0  0  0  0  0  0  0  0  0  0
   -6.5308   -0.6441   -1.0406 H   0  0  0  0  0  0  0  0  0  0  0  0
   -5.9725    0.9873    0.2736 C   0  0  0  0  0  0  0  0  0  0  0  0
   -7.0008    1.3734    0.3427 H   0  0  0  0  0  0  0  0  0  0  0  0
  1  2  1  0  0  0  0
  3  6  1  0  0  0  0
  4 10  1  0  0  0  0
  4 13  1  0  0  0  0
  5  3  1  0  0  0  0
  5  7  1  0  0  0  0
  6  1  2  0  0  0  0
  7 17  1  0  0  0  0
  7  1  1  0  0  0  0
  8  9  1  0  0  0  0
  8 11  2  0  0  0  0
 10  6  1  6  0  0  0
 10  8  1  0  0  0  0
 11 12  1  0  0  0  0
 13 15  2  0  0  0  0
 14 13  1  0  0  0  0
 15 16  1  0  0  0  0
 15 11  1  0  0  0  0
 17 18  1  0  0  0  0
 18 19  2  0  0  0  0
 18 29  1  0  0  0  0
 19 20  1  0  0  0  0
 21 22  1  0  0  0  0
 21 23  1  0  0  0  0
 24 21  1  0  0  0  0
 25 28  1  0  0  0  0
 25 29  1  0  0  0  0
 26 25  1  0  0  0  0
 27 25  1  0  0  0  0
 29 30  1  0  0  0  0
 29 21  1  0  0  0  0
 31 34  1  0  0  0  0
 31 32  1  0  0  0  0
 33 31  1  0  0  0  0
 35 39  1  0  0  0  0
 36 35  1  0  0  0  0
 37 35  1  0  0  0  0
 38 35  1  0  0  0  0
 39 31  1  0  0  0  0
 39 41  1  0  0  0  0
 40 39  1  0  0  0  0
 41 42  1  0  0  0  0
 41 17  2  0  0  0  0
 42 44  2  0  0  0  0
 43 42  1  0  0  0  0
 44 45  1  0  0  0  0
 44 19  1  0  0  0  0
M  END
