1,2
q = 0.0, confidence = 0.996

 34 35  0  0  1  0  0  0  0  0999 V2000
    1.5304   -1.0708   -0.8022 N   0  0  0  0  0  2  0  0  0  0  0  0
    1.5304    1.0709    0.8021 N   0  0  0  0  0  2  0  0  0  0  0  0
    4.9116   -1.2315    0.4507 O   0  0  0  0  0  0  0  0  0  0  0  0
    4.9118    1.2313   -0.4506 O   0  0  0  0  0  0  0  0  0  0  0  0
    2.7302   -0.6774   -0.2974 C   0  0  2  0  0  3  0  0  0  0  0  0
    3.8334   -1.5780   -0.2762 C   0  0  0  0  0  0  0  0  0  0  0  0
    3.6986   -2.8003   -0.9677 C   0  0  0  0  0  0  0  0  0  0  0  0
    4.5356   -3.5087   -1.0215 H   0  0  0  0  0  0  0  0  0  0  0  0
    2.4766   -3.1233   -1.5661 C   0  0  0  0  0  0  0  0  0  0  0  0
    2.3656   -4.0694   -2.1157 H   0  0  0  0  0  0  0  0  0  0  0  0
    1.3775   -2.2563   -1.4356 C   0  0  0  0  0  0  0  0  0  0  0  0
    0.0094   -2.5931   -1.9591 C   0  0  0  0  0  0  0  0  0  0  0  0
   -0.6021   -3.1024   -1.1834 H   0  0  0  0  0  0  0  0  0  0  0  0
    0.0654   -3.2695   -2.8331 H   0  0  0  0  0  0  0  0  0  0  0  0
   -0.5305   -1.6685   -2.2432 H   0  0  0  0  0  0  0  0  0  0  0  0
    6.0574   -2.0724    0.4329 C   0  0  0  0  0  0  0  0  0  0  0  0
    5.8349   -3.0781    0.8514 H   0  0  0  0  0  0  0  0  0  0  0  0
    6.8119   -1.5773    1.0702 H   0  0  0  0  0  0  0  0  0  0  0  0
    6.4642   -2.1852   -0.5953 H   0  0  0  0  0  0  0  0  0  0  0  0
    2.7303    0.6774    0.2974 C   0  0  1  0  0  3  0  0  0  0  0  0
    3.8336    1.5779    0.2762 C   0  0  0  0  0  0  0  0  0  0  0  0
    3.6988    2.8002    0.9676 C   0  0  0  0  0  0  0  0  0  0  0  0
    4.5359    3.5086    1.0214 H   0  0  0  0  0  0  0  0  0  0  0  0
    2.4768    3.1234    1.5660 C   0  0  0  0  0  0  0  0  0  0  0  0
    2.3658    4.0695    2.1155 H   0  0  0  0  0  0  0  0  0  0  0  0
    1.3777    2.2564    1.4355 C   0  0  0  0  0  0  0  0  0  0  0  0
    0.0096    2.5933    1.9590 C   0  0  0  0  0  0  0  0  0  0  0  0
   -0.6014    3.1039    1.1837 H   0  0  0  0  0  0  0  0  0  0  0  0
    0.0657    3.2687    2.8338 H   0  0  0  0  0  0  0  0  0  0  0  0
   -0.5309    1.6687    2.2418 H   0  0  0  0  0  0  0  0  0  0  0  0
    6.0576    2.0721   -0.4328 C   0  0  0  0  0  0  0  0  0  0  0  0
    5.8352    3.0778   -0.8514 H   0  0  0  0  0  0  0  0  0  0  0  0
    6.8121    1.5769   -1.0700 H   0  0  0  0  0  0  0  0  0  0  0  0
    6.4644    2.1850    0.5954 H   0  0  0  0  0  0  0  0  0  0  0  0
  2 26  1  0  0  0  0
  4 31  1  0  0  0  0
  4 21  1  0  0  0  0
  5  1  1  1  0  0  0
  5  6  1  0  0  0  0
  5 20  1  0  0  0  0
  6  3  1  0  0  0  0
  7  6  2  0  0  0  0
  8  7  1  0  0  0  0
  9 11  2  0  0  0  0
  9  7  1  0  0  0  0
 10  9  1  0  0  0  0
 11  1  1  0  0  0  0
 12 11  1  0  0  0  0
 12 13  1  0  0  0  0
 14 12  1  0  0  0  0
 15 12  1  0  0  0  0
 16  3  1  0  0  0  0
 16 17  1  0  0  0  0
 16 18  1  0  0  0  0
 19 16  1  0  0  0  0
 20 21  1  6  0  0  0
 20  2  1  0  0  0  0
 21 22  2  0  0  0  0
 22 23  1  0  0  0  0
 22 24  1  0  0  0  0
 24 25  1  0  0  0  0
 26 24  2  0  0  0  0
 26 27  1  0  0  0  0
 27 30  1  0  0  0  0
 27 29  1  0  0  0  0
 28 27  1  0  0  0  0
 31 34  1  0  0  0  0
 32 31  1  0  0  0  0
 33 31  1  0  0  0  0
M  END
