1,3
q = 0.0, confidence = 0.998

 38 41  0  0  1  0  0  0  0  0999 V2000
   -0.1927    0.2872    0.0357 N   0  0  0  0  0  2  0  0  0  0  0  0
    0.2115    1.5818   -0.2676 N   0  0  2  0  0  0  0  0  0  0  0  0
    2.3635    0.8381    0.1654 N   0  0  0  0  0  2  0  0  0  0  0  0
    1.5601    1.9005   -0.1010 C   0  0  2  0  0  3  0  0  0  0  0  0
    2.0587    3.2112   -0.1915 C   0  0  0  0  0  0  0  0  0  0  0  0
    3.4290    3.4103    0.0046 C   0  0  0  0  0  0  0  0  0  0  0  0
    4.2559    2.3101    0.2873 C   0  0  0  0  0  0  0  0  0  0  0  0
    3.6865    1.0372    0.3579 C   0  0  0  0  0  0  0  0  0  0  0  0
   -0.8757    2.3930   -0.5709 C   0  0  0  0  0  3  0  0  0  0  0  0
   -1.9921    1.6017   -0.4281 C   0  0  0  0  0  0  0  0  0  0  0  0
   -3.4796    1.4743   -0.5846 C   0  0  1  0  0  0  0  0  0  0  0  0
   -3.6756    0.5283   -1.8166 C   0  0  0  0  0  0  0  0  0  0  0  0
   -3.1694   -0.8571   -1.3107 C   0  0  0  0  0  0  0  0  0  0  0  0
   -2.7169   -0.5949    0.1685 C   0  0  1  0  0  0  0  0  0  0  0  0
   -1.5231    0.3148   -0.0170 C   0  0  0  0  0  0  0  0  0  0  0  0
   -3.7862    0.5083    0.6172 C   0  0  0  0  0  0  0  0  0  0  0  0
   -2.5883   -1.8107    1.0643 C   0  0  0  0  0  0  0  0  0  0  0  0
   -5.2297   -0.0080    0.6362 C   0  0  0  0  0  0  0  0  0  0  0  0
   -3.4842    1.1250    1.9893 C   0  0  0  0  0  0  0  0  0  0  0  0
    1.3870    4.0529   -0.4028 H   0  0  0  0  0  0  0  0  0  0  0  0
    3.8470    4.4256   -0.0597 H   0  0  0  0  0  0  0  0  0  0  0  0
    5.3358    2.4309    0.4489 H   0  0  0  0  0  0  0  0  0  0  0  0
    4.2571    0.1100    0.5403 H   0  0  0  0  0  0  0  0  0  0  0  0
   -0.7347    3.4409   -0.8503 H   0  0  0  0  0  0  0  0  0  0  0  0
   -4.0641    2.4126   -0.6175 H   0  0  0  0  0  0  0  0  0  0  0  0
   -4.7443    0.4948   -2.1054 H   0  0  0  0  0  0  0  0  0  0  0  0
   -3.1119    0.8959   -2.6953 H   0  0  0  0  0  0  0  0  0  0  0  0
   -3.9751   -1.6175   -1.3152 H   0  0  0  0  0  0  0  0  0  0  0  0
   -2.3296   -1.2732   -1.8989 H   0  0  0  0  0  0  0  0  0  0  0  0
   -1.8193   -2.5041    0.6715 H   0  0  0  0  0  0  0  0  0  0  0  0
   -3.5583   -2.3432    1.1268 H   0  0  0  0  0  0  0  0  0  0  0  0
   -2.2828   -1.5199    2.0894 H   0  0  0  0  0  0  0  0  0  0  0  0
   -5.5451   -0.4952   -0.3045 H   0  0  0  0  0  0  0  0  0  0  0  0
   -5.9279    0.8318    0.8301 H   0  0  0  0  0  0  0  0  0  0  0  0
   -5.3654   -0.7430    1.4544 H   0  0  0  0  0  0  0  0  0  0  0  0
   -2.4463    1.5021    2.0735 H   0  0  0  0  0  0  0  0  0  0  0  0
   -3.6359    0.3770    2.7930 H   0  0  0  0  0  0  0  0  0  0  0  0
   -4.1703    1.9728    2.1921 H   0  0  0  0  0  0  0  0  0  0  0  0
  2  9  1  1  0  0  0
  2  4  1  0  0  0  0
  2  1  1  0  0  0  0
  3  8  1  0  0  0  0
  4  5  1  1  0  0  0
  4  3  1  0  0  0  0
  5  6  2  0  0  0  0
  6  7  1  0  0  0  0
  7  8  2  0  0  0  0
  7 22  1  0  0  0  0
  8 23  1  0  0  0  0
  9 10  1  0  0  0  0
 10 15  2  0  0  0  0
 11 25  1  6  0  0  0
 11 10  1  0  0  0  0
 11 16  1  0  0  0  0
 12 13  1  0  0  0  0
 12 11  1  0  0  0  0
 13 14  1  0  0  0  0
 14 16  1  0  0  0  0
 14 17  1  1  0  0  0
 15  1  1  0  0  0  0
 15 14  1  0  0  0  0
 16 18  1  0  0  0  0
 16 19  1  0  0  0  0
 17 31  1  0  0  0  0
 17 32  1  0  0  0  0
 18 34  1  0  0  0  0
 18 35  1  0  0  0  0
 19 36  1  0  0  0  0
 19 38  1  0  0  0  0
 19 37  1  0  0  0  0
 20  5  1  0  0  0  0
 21  6  1  0  0  0  0
 24  9  1  0  0  0  0
 26 12  1  0  0  0  0
 27 12  1  0  0  0  0
 28 13  1  0  0  0  0
 29 13  1  0  0  0  0
 30 17  1  0  0  0  0
 33 18  1  0  0  0  0
M  END
