1,2
q = -1.0, confidence = 0.0

 20 21  0  0  0  0  0  0  0  0999 V2000
    0.1392    2.1013   -0.4963 N   0  0  0  0  0  2  0  0  0  0  0  0
    2.0385    0.3205   -0.4354 N   0  0  0  0  0  0  0  0  0  0  0  0
    3.0614   -0.5235   -0.3248 N   0  0  0  0  0  0  0  0  0  0  0  0
   -0.9280    2.9320   -0.5496 C   0  0  0  0  0  3  0  0  0  0  0  0
   -1.9095    2.4319   -0.6450 H   0  0  0  0  0  0  0  0  0  0  0  0
   -0.7885    4.3202   -0.4654 C   0  0  0  0  0  0  0  0  0  0  0  0
   -1.6835    4.9555   -0.5150 H   0  0  0  0  0  0  0  0  0  0  0  0
    0.4974    4.8692   -0.3195 C   0  0  0  0  0  0  0  0  0  0  0  0
    0.6371    5.9585   -0.2528 H   0  0  0  0  0  0  0  0  0  0  0  0
    1.6009    4.0144   -0.2598 C   0  0  0  0  0  0  0  0  0  0  0  0
    2.6217    4.4049   -0.1458 H   0  0  0  0  0  0  0  0  0  0  0  0
    1.4072    2.6224   -0.3508 C   0  0  0  0  0  0  0  0  0  0  0  0
    2.4539    1.6235   -0.2962 C   0  0  0  0  0  3  0  0  0  0  0  0
    3.8486    1.6140   -0.0907 C   0  0  0  0  0  0  0  0  0  0  0  0
    4.5290    2.4568    0.0624 H   0  0  0  0  0  0  0  0  0  0  0  0
    4.1657    0.2437   -0.1177 C   0  0  0  0  0  0  0  0  0  0  0  0
    5.4974   -0.4011    0.1029 C   0  0  0  0  0  0  0  0  0  0  0  0
    5.5083   -1.1621    1.2315 F   0  0  0  0  0  0  0  0  0  0  0  0
    5.8557   -1.2164   -0.9164 F   0  0  0  0  0  0  0  0  0  0  0  0
    6.4678    0.5364    0.2411 F   0  0  0  0  0  0  0  0  0  0  0  0
  1 12  1  0  0  0  0
  2  3  2  0  0  0  0
  2 13  1  0  0  0  0
  3 16  1  0  0  0  0
  4  1  1  0  0  0  0
  4  6  1  0  0  0  0
  5  4  1  0  0  0  0
  6  8  2  0  0  0  0
  7  6  1  0  0  0  0
  8 10  1  0  0  0  0
  8  9  1  0  0  0  0
 10 11  1  0  0  0  0
 12 13  1  0  0  0  0
 12 10  2  0  0  0  0
 13 14  1  0  0  0  0
 14 15  1  0  0  0  0
 16 14  2  0  0  0  0
 16 17  1  0  0  0  0
 17 20  1  0  0  0  0
 17 18  1  0  0  0  0
 19 17  1  0  0  0  0
M  END
