9,10
q = -2.0, confidence = 0.97

 26 27  0  0  0  0  0  0  0  0999 V2000
    4.1849   -4.5206   -0.1664 F   0  0  0  0  0  0  0  0  0  0  0  0
    4.6056   -3.0561    1.3973 F   0  0  0  0  0  0  0  0  0  0  0  0
    5.1381   -2.6201   -0.6702 F   0  0  0  0  0  0  0  0  0  0  0  0
    3.3099    4.3141    1.3508 F   0  0  0  0  0  0  0  0  0  0  0  0
    4.0410    4.0105   -0.6801 F   0  0  0  0  0  0  0  0  0  0  0  0
    2.5052    5.5142   -0.2860 F   0  0  0  0  0  0  0  0  0  0  0  0
   -0.6225   -3.3812   -0.7276 O   0  0  0  0  0  0  0  0  0  0  0  0
   -1.6107    2.8108   -1.0416 O   0  0  0  0  0  0  0  0  0  0  0  0
    0.3711   -1.3059   -0.3712 N   0  0  0  0  0  2  0  0  0  0  0  0
   -0.0574    1.2292   -0.3773 N   0  0  0  0  0  2  0  0  0  0  0  0
    0.3966   -2.7189   -0.5137 C   0  0  0  0  0  0  0  0  0  0  0  0
    1.7206   -3.3106   -0.3530 C   0  0  0  0  0  0  0  0  0  0  0  0
    2.8430   -2.5525   -0.0941 C   0  0  0  0  0  0  0  0  0  0  0  0
    2.7516   -1.1416    0.0062 C   0  0  0  0  0  0  0  0  0  0  0  0
    1.4981   -0.5601   -0.1541 C   0  0  0  0  0  0  0  0  0  0  0  0
    1.2608    0.8861   -0.1612 C   0  0  0  0  0  0  0  0  0  0  0  0
    2.2444    1.8573   -0.0423 C   0  0  0  0  0  0  0  0  0  0  0  0
    1.8694    3.2217   -0.1667 C   0  0  0  0  0  0  0  0  0  0  0  0
    0.5702    3.5715   -0.4684 C   0  0  0  0  0  0  0  0  0  0  0  0
   -0.4566    2.5643   -0.6716 C   0  0  0  0  0  0  0  0  0  0  0  0
    4.1941   -3.2005    0.1112 C   0  0  0  0  0  0  0  0  0  0  0  0
    2.9314    4.2789    0.0485 C   0  0  0  0  0  0  0  0  0  0  0  0
    1.7712   -4.4027   -0.4502 H   0  0  0  0  0  0  0  0  0  0  0  0
    3.6413   -0.5249    0.1762 H   0  0  0  0  0  0  0  0  0  0  0  0
    3.2936    1.5743    0.1015 H   0  0  0  0  0  0  0  0  0  0  0  0
    0.2652    4.6173   -0.6016 H   0  0  0  0  0  0  0  0  0  0  0  0
  1 21  1  0  0  0  0
  3 21  1  0  0  0  0
  5 22  1  0  0  0  0
  6 22  1  0  0  0  0
  7 11  2  0  0  0  0
  8 20  2  0  0  0  0
  9 15  1  0  0  0  0
 10 16  1  0  0  0  0
 11  9  1  0  0  0  0
 11 12  1  0  0  0  0
 12 13  2  0  0  0  0
 13 14  1  0  0  0  0
 13 21  1  0  0  0  0
 14 24  1  0  0  0  0
 15 14  2  0  0  0  0
 16 15  1  0  0  0  0
 16 17  2  0  0  0  0
 17 25  1  0  0  0  0
 18 17  1  0  0  0  0
 18 22  1  0  0  0  0
 19 18  2  0  0  0  0
 20 19  1  0  0  0  0
 20 10  1  0  0  0  0
 21  2  1  0  0  0  0
 22  4  1  0  0  0  0
 23 12  1  0  0  0  0
 26 19  1  0  0  0  0
M  END
