1,29
q = 0.0, confidence = 0.97

 29 30  0  0  1  0  0  0  0  0999 V2000
   -0.2688   -1.4913   -0.5080 N   0  0  0  0  0  2  0  0  0  0  0  0
    0.1678   -2.5143   -1.2860 C   0  0  0  0  0  3  0  0  0  0  0  0
    1.2227   -2.4636   -1.5885 H   0  0  0  0  0  0  0  0  0  0  0  0
   -0.6687   -3.5765   -1.6404 C   0  0  0  0  0  0  0  0  0  0  0  0
   -0.2726   -4.3802   -2.2771 H   0  0  0  0  0  0  0  0  0  0  0  0
   -1.9888   -3.5950   -1.1721 C   0  0  0  0  0  0  0  0  0  0  0  0
   -2.6679   -4.4209   -1.4321 H   0  0  0  0  0  0  0  0  0  0  0  0
   -2.4239   -2.5389   -0.3586 C   0  0  0  0  0  0  0  0  0  0  0  0
   -3.4511   -2.5251    0.0345 H   0  0  0  0  0  0  0  0  0  0  0  0
   -1.5489   -1.4895   -0.0287 C   0  0  0  0  0  0  0  0  0  0  0  0
   -2.0532   -0.0020    1.0531 Si  0  0  0  0  0  0  0  0  0  0  0  0
   -3.9313   -0.0037    1.2502 C   0  0  0  0  0  0  0  0  0  0  0  0
   -4.2608   -0.8943    1.8238 H   0  0  0  0  0  0  0  0  0  0  0  0
   -4.4586   -0.0049    0.2750 H   0  0  0  0  0  0  0  0  0  0  0  0
   -4.2626    0.8870    1.8226 H   0  0  0  0  0  0  0  0  0  0  0  0
   -1.2023   -0.0015    2.7288 C   0  0  0  0  0  0  0  0  0  0  0  0
   -1.4931    0.9007    3.3046 H   0  0  0  0  0  0  0  0  0  0  0  0
   -0.1016   -0.0041    2.5989 H   0  0  0  0  0  0  0  0  0  0  0  0
   -1.4976   -0.9004    3.3074 H   0  0  0  0  0  0  0  0  0  0  0  0
   -1.5517    1.4865   -0.0286 C   0  0  2  0  0  3  0  0  0  0  0  0
   -2.4288    2.5342   -0.3585 C   0  0  0  0  0  0  0  0  0  0  0  0
   -3.4559    2.5185    0.0347 H   0  0  0  0  0  0  0  0  0  0  0  0
   -1.9957    3.5912   -1.1720 C   0  0  0  0  0  0  0  0  0  0  0  0
   -2.6765    4.4157   -1.4319 H   0  0  0  0  0  0  0  0  0  0  0  0
   -0.6756    3.5752   -1.6403 C   0  0  0  0  0  0  0  0  0  0  0  0
   -0.2811    4.3797   -2.2771 H   0  0  0  0  0  0  0  0  0  0  0  0
    0.1630    2.5146   -1.2861 C   0  0  0  0  0  0  0  0  0  0  0  0
    1.2179    2.4660   -1.5885 H   0  0  0  0  0  0  0  0  0  0  0  0
   -0.2716    1.4908   -0.5080 N   0  0  0  0  0  2  0  0  0  0  0  0
  1 10  1  0  0  0  0
  2  1  1  0  0  0  0
  3  2  1  0  0  0  0
  4  2  1  0  0  0  0
  4  6  2  0  0  0  0
  5  4  1  0  0  0  0
  6  8  1  0  0  0  0
  7  6  1  0  0  0  0
  8 10  2  0  0  0  0
  8  9  1  0  0  0  0
 10 11  1  0  0  0  0
 11 12  1  0  0  0  0
 11 16  1  0  0  0  0
 12 15  1  0  0  0  0
 12 13  1  0  0  0  0
 14 12  1  0  0  0  0
 16 17  1  0  0  0  0
 16 19  1  0  0  0  0
 18 16  1  0  0  0  0
 20 11  1  6  0  0  0
 21 20  1  0  0  0  0
 21 22  1  0  0  0  0
 23 21  2  0  0  0  0
 24 23  1  0  0  0  0
 25 27  2  0  0  0  0
 25 23  1  0  0  0  0
 26 25  1  0  0  0  0
 27 29  1  0  0  0  0
 28 27  1  0  0  0  0
 29 20  1  0  0  0  0
M  END
