1,2
q = 0.0, confidence = 0.998

 25 25  0  0  0  0  0  0  0  0999 V2000
   -1.3815   -0.6340   -0.1000 N   0  0  0  0  0  2  0  0  0  0  0  0
    0.1499    1.6095   -0.5493 N   0  0  0  0  0  0  0  0  0  0  0  0
    0.8281    1.9074   -1.2696 H   0  0  0  0  0  0  0  0  0  0  0  0
   -2.0288   -1.7151    0.3856 C   0  0  0  0  0  3  0  0  0  0  0  0
   -1.3872   -2.5443    0.7259 H   0  0  0  0  0  0  0  0  0  0  0  0
   -3.4253   -1.7485    0.4268 C   0  0  0  0  0  0  0  0  0  0  0  0
   -3.9314   -2.6407    0.8214 H   0  0  0  0  0  0  0  0  0  0  0  0
   -4.1462   -0.6373   -0.0334 C   0  0  0  0  0  0  0  0  0  0  0  0
   -5.2460   -0.6353   -0.0052 H   0  0  0  0  0  0  0  0  0  0  0  0
   -3.4540    0.4781   -0.5292 C   0  0  0  0  0  0  0  0  0  0  0  0
   -3.9937    1.3628   -0.8965 H   0  0  0  0  0  0  0  0  0  0  0  0
   -2.0553    0.4578   -0.5588 C   0  0  0  0  0  0  0  0  0  0  0  0
   -1.2169    1.5628   -1.1515 C   0  0  0  0  0  0  0  0  0  0  0  0
   -1.7206    2.5446   -1.0524 H   0  0  0  0  0  0  0  0  0  0  0  0
   -1.0960    1.3685   -2.2388 H   0  0  0  0  0  0  0  0  0  0  0  0
    0.3468    2.5397    0.6382 C   0  0  0  0  0  0  0  0  0  0  0  0
    1.4020    2.3488    0.9259 H   0  0  0  0  0  0  0  0  0  0  0  0
    0.2150    3.9966    0.1943 C   0  0  0  0  0  0  0  0  0  0  0  0
    0.5172    4.6542    1.0322 H   0  0  0  0  0  0  0  0  0  0  0  0
   -0.8258    4.2712   -0.0734 H   0  0  0  0  0  0  0  0  0  0  0  0
    0.8795    4.2324   -0.6616 H   0  0  0  0  0  0  0  0  0  0  0  0
   -0.5675    2.1700    1.7996 C   0  0  0  0  0  0  0  0  0  0  0  0
   -0.4093    1.1269    2.1399 H   0  0  0  0  0  0  0  0  0  0  0  0
   -1.6405    2.3084    1.5550 H   0  0  0  0  0  0  0  0  0  0  0  0
   -0.3422    2.8314    2.6578 H   0  0  0  0  0  0  0  0  0  0  0  0
  1  4  1  0  0  0  0
  2 16  1  0  0  0  0
  3  2  1  0  0  0  0
  4  6  1  0  0  0  0
  4  5  1  0  0  0  0
  6  7  1  0  0  0  0
  8  9  1  0  0  0  0
  8  6  2  0  0  0  0
 10  8  1  0  0  0  0
 11 10  1  0  0  0  0
 12 10  2  0  0  0  0
 12  1  1  0  0  0  0
 13 14  1  0  0  0  0
 13 12  1  0  0  0  0
 13  2  1  0  0  0  0
 15 13  1  0  0  0  0
 16 17  1  0  0  0  0
 16 22  1  0  0  0  0
 18 16  1  0  0  0  0
 18 19  1  0  0  0  0
 20 18  1  0  0  0  0
 21 18  1  0  0  0  0
 22 23  1  0  0  0  0
 22 25  1  0  0  0  0
 24 22  1  0  0  0  0
M  END
