2,5
q = -1.0, confidence = 0.002

 36 36  0  0  1  0  0  0  0  0999 V2000
    6.6027   -0.8226    0.0999 Br  0  0  0  0  0  0  0  0  0  0  0  0
   -1.1900    1.3903   -1.2396 N   0  0  0  0  0  2  0  0  0  0  0  0
    0.7313    2.8168   -1.2364 N   0  0  0  0  0  0  0  0  0  0  0  0
    0.1588    3.4574   -1.7924 H   0  0  0  0  0  0  0  0  0  0  0  0
    0.6600    0.6431   -0.2099 N   0  0  0  0  0  2  0  0  0  0  0  0
    0.1022    1.6496   -0.8995 C   0  0  1  0  0  3  0  0  0  0  0  0
   -2.1333    2.3999   -1.7154 C   0  0  0  0  0  0  0  0  0  0  0  0
   -1.5682    3.2852   -2.0948 H   0  0  0  0  0  0  0  0  0  0  0  0
   -3.0234    2.8891   -0.5660 C   0  0  0  0  0  0  0  0  0  0  0  0
   -3.6020    2.0441   -0.1464 H   0  0  0  0  0  0  0  0  0  0  0  0
   -3.7337    3.6679   -0.9107 H   0  0  0  0  0  0  0  0  0  0  0  0
   -2.4110    3.3055    0.2578 H   0  0  0  0  0  0  0  0  0  0  0  0
   -2.9299    1.8506   -2.9023 C   0  0  0  0  0  0  0  0  0  0  0  0
   -2.2566    1.6018   -3.7465 H   0  0  0  0  0  0  0  0  0  0  0  0
   -3.6813    2.5862   -3.2523 H   0  0  0  0  0  0  0  0  0  0  0  0
   -3.4521    0.9214   -2.6035 H   0  0  0  0  0  0  0  0  0  0  0  0
    1.7600    3.4870   -0.4269 C   0  0  0  0  0  0  0  0  0  0  0  0
    2.2426    2.7032    0.1879 H   0  0  0  0  0  0  0  0  0  0  0  0
    2.8190    4.1090   -1.3382 C   0  0  0  0  0  0  0  0  0  0  0  0
    3.3061    3.3352   -1.9623 H   0  0  0  0  0  0  0  0  0  0  0  0
    3.6016    4.6145   -0.7389 H   0  0  0  0  0  0  0  0  0  0  0  0
    2.3681    4.8694   -2.0109 H   0  0  0  0  0  0  0  0  0  0  0  0
    1.1093    4.5125    0.5094 C   0  0  0  0  0  0  0  0  0  0  0  0
    0.6085    5.3177   -0.0699 H   0  0  0  0  0  0  0  0  0  0  0  0
    1.8685    4.9912    1.1603 H   0  0  0  0  0  0  0  0  0  0  0  0
    0.3497    4.0287    1.1543 H   0  0  0  0  0  0  0  0  0  0  0  0
    2.0271    0.3779   -0.1521 C   0  0  0  0  0  0  0  0  0  0  0  0
    2.5949   -0.0947    1.0569 C   0  0  0  0  0  0  0  0  0  0  0  0
    1.9487   -0.1909    1.9410 H   0  0  0  0  0  0  0  0  0  0  0  0
    3.9463   -0.4516    1.1365 C   0  0  0  0  0  0  0  0  0  0  0  0
    4.3693   -0.8154    2.0838 H   0  0  0  0  0  0  0  0  0  0  0  0
    4.7617   -0.3416   -0.0017 C   0  0  0  0  0  0  0  0  0  0  0  0
    4.2262    0.1171   -1.2167 C   0  0  0  0  0  0  0  0  0  0  0  0
    4.8662    0.1869   -2.1080 H   0  0  0  0  0  0  0  0  0  0  0  0
    2.8725    0.4678   -1.2885 C   0  0  0  0  0  0  0  0  0  0  0  0
    2.4490    0.8094   -2.2445 H   0  0  0  0  0  0  0  0  0  0  0  0
  3  6  1  0  0  0  0
  3 17  1  0  0  0  0
  4  3  1  0  0  0  0
  5 27  1  0  0  0  0
  6  2  1  1  0  0  0
  6  5  1  0  0  0  0
  7  2  1  0  0  0  0
  7  9  1  0  0  0  0
  8  7  1  0  0  0  0
  9 10  1  0  0  0  0
  9 12  1  0  0  0  0
 11  9  1  0  0  0  0
 13 16  1  0  0  0  0
 13  7  1  0  0  0  0
 14 13  1  0  0  0  0
 15 13  1  0  0  0  0
 17 18  1  0  0  0  0
 17 23  1  0  0  0  0
 19 21  1  0  0  0  0
 19 17  1  0  0  0  0
 20 19  1  0  0  0  0
 22 19  1  0  0  0  0
 23 26  1  0  0  0  0
 23 25  1  0  0  0  0
 24 23  1  0  0  0  0
 27 28  1  0  0  0  0
 28 30  2  0  0  0  0
 28 29  1  0  0  0  0
 30 31  1  0  0  0  0
 32  1  1  0  0  0  0
 32 30  1  0  0  0  0
 33 32  2  0  0  0  0
 34 33  1  0  0  0  0
 35 33  1  0  0  0  0
 35 27  2  0  0  0  0
 36 35  1  0  0  0  0
M  END
