1,4
q = 0.0, confidence = 0.992

 52 53  0  0  0  0  0  0  0  0999 V2000
   -0.5750    1.2028    1.3228 N   0  0  0  0  0  0  0  0  0  0  0  0
   -0.6992    1.9643    0.6089 H   0  0  0  0  0  0  0  0  0  0  0  0
   -2.3430    3.0490    0.6300 O   0  0  0  0  0  0  0  0  0  0  0  0
    1.7365   -0.2520    0.5469 N   0  0  0  0  0  0  0  0  0  0  0  0
    1.9341   -0.9128    1.3263 H   0  0  0  0  0  0  0  0  0  0  0  0
   -2.7793    2.1880    1.4022 C   0  0  0  0  0  0  0  0  0  0  0  0
    0.7093    1.3982    2.0371 C   0  0  0  0  0  0  0  0  0  0  0  0
    0.7652    2.4330    2.4369 H   0  0  0  0  0  0  0  0  0  0  0  0
    0.7365    0.6843    2.8858 H   0  0  0  0  0  0  0  0  0  0  0  0
   -4.0889    2.0044    1.6968 N   0  0  0  0  0  0  0  0  0  0  0  0
   -4.3459    1.1162    2.1347 H   0  0  0  0  0  0  0  0  0  0  0  0
    1.8569    1.1317    1.0780 C   0  0  0  0  0  0  0  0  0  0  0  0
    1.8050    1.8205    0.2098 H   0  0  0  0  0  0  0  0  0  0  0  0
    2.8351    1.2501    1.5859 H   0  0  0  0  0  0  0  0  0  0  0  0
    2.6913   -0.5597   -0.5273 C   0  0  0  0  0  0  0  0  0  0  0  0
    2.6108    0.2178   -1.3132 H   0  0  0  0  0  0  0  0  0  0  0  0
    2.3700   -1.5199   -0.9919 H   0  0  0  0  0  0  0  0  0  0  0  0
   -1.7819    1.3073    2.1668 C   0  0  0  0  0  0  0  0  0  0  0  0
   -1.5272    1.8327    3.1130 H   0  0  0  0  0  0  0  0  0  0  0  0
   -2.1677    0.3003    2.4188 H   0  0  0  0  0  0  0  0  0  0  0  0
    4.2747   -0.8130    1.2717 O   0  0  0  0  0  0  0  0  0  0  0  0
    5.0995   -0.7570   -0.8672 N   0  0  0  0  0  0  0  0  0  0  0  0
    4.8794   -0.5488   -1.8430 H   0  0  0  0  0  0  0  0  0  0  0  0
    4.0989   -0.7055    0.0528 C   0  0  0  0  0  0  0  0  0  0  0  0
    7.2200    0.4492   -0.4128 C   0  0  0  0  0  0  0  0  0  0  0  0
    6.5033   -0.8852   -0.4842 C   0  0  0  0  0  0  0  0  0  0  0  0
    7.0085   -1.5597   -1.2047 H   0  0  0  0  0  0  0  0  0  0  0  0
    6.5044   -1.3764    0.5086 H   0  0  0  0  0  0  0  0  0  0  0  0
    6.9477    1.3358    0.6507 C   0  0  0  0  0  0  0  0  0  0  0  0
    6.2397    1.0252    1.4352 H   0  0  0  0  0  0  0  0  0  0  0  0
    8.1331    0.8388   -1.4096 C   0  0  0  0  0  0  0  0  0  0  0  0
    8.3574    0.1498   -2.2401 H   0  0  0  0  0  0  0  0  0  0  0  0
    8.4848    2.9693   -0.2929 C   0  0  0  0  0  0  0  0  0  0  0  0
    8.9794    3.9512   -0.2445 H   0  0  0  0  0  0  0  0  0  0  0  0
    8.7643    2.0920   -1.3512 C   0  0  0  0  0  0  0  0  0  0  0  0
    9.4789    2.3831   -2.1361 H   0  0  0  0  0  0  0  0  0  0  0  0
    7.5756    2.5875    0.7086 C   0  0  0  0  0  0  0  0  0  0  0  0
    7.3611    3.2696    1.5455 H   0  0  0  0  0  0  0  0  0  0  0  0
   -5.1417    2.7383    0.9947 C   0  0  0  0  0  0  0  0  0  0  0  0
   -4.6595    3.6567    0.6063 H   0  0  0  0  0  0  0  0  0  0  0  0
   -5.9191    3.0383    1.7269 H   0  0  0  0  0  0  0  0  0  0  0  0
   -4.9882    1.6037   -1.2667 C   0  0  0  0  0  0  0  0  0  0  0  0
   -3.9425    1.9395   -1.3332 H   0  0  0  0  0  0  0  0  0  0  0  0
   -5.7609    1.9403   -0.1351 C   0  0  0  0  0  0  0  0  0  0  0  0
   -7.0936    1.4957   -0.0584 C   0  0  0  0  0  0  0  0  0  0  0  0
   -7.7027    1.7548    0.8231 H   0  0  0  0  0  0  0  0  0  0  0  0
   -6.8751    0.3925   -2.2127 C   0  0  0  0  0  0  0  0  0  0  0  0
   -7.3074   -0.2157   -3.0218 H   0  0  0  0  0  0  0  0  0  0  0  0
   -7.6520    0.7288   -1.0937 C   0  0  0  0  0  0  0  0  0  0  0  0
   -8.6963    0.3883   -1.0224 H   0  0  0  0  0  0  0  0  0  0  0  0
   -5.5428    0.8306   -2.2957 C   0  0  0  0  0  0  0  0  0  0  0  0
   -4.9236    0.5620   -3.1646 H   0  0  0  0  0  0  0  0  0  0  0  0
  1  7  1  0  0  0  0
  1 18  1  0  0  0  0
  2  1  1  0  0  0  0
  3  6  2  0  0  0  0
  4 12  1  0  0  0  0
  4  5  1  0  0  0  0
  6 10  1  0  0  0  0
  6 18  1  0  0  0  0
  7  8  1  0  0  0  0
  7  9  1  0  0  0  0
 10 11  1  0  0  0  0
 12 14  1  0  0  0  0
 12  7  1  0  0  0  0
 13 12  1  0  0  0  0
 15 24  1  0  0  0  0
 15  4  1  0  0  0  0
 16 15  1  0  0  0  0
 17 15  1  0  0  0  0
 18 20  1  0  0  0  0
 18 19  1  0  0  0  0
 22 26  1  0  0  0  0
 22 24  1  0  0  0  0
 23 22  1  0  0  0  0
 24 21  2  0  0  0  0
 25 29  1  0  0  0  0
 26 25  1  0  0  0  0
 26 28  1  0  0  0  0
 27 26  1  0  0  0  0
 29 37  2  0  0  0  0
 29 30  1  0  0  0  0
 31 35  1  0  0  0  0
 31 25  2  0  0  0  0
 32 31  1  0  0  0  0
 33 34  1  0  0  0  0
 33 37  1  0  0  0  0
 35 33  2  0  0  0  0
 36 35  1  0  0  0  0
 37 38  1  0  0  0  0
 39 10  1  0  0  0  0
 39 41  1  0  0  0  0
 40 39  1  0  0  0  0
 42 44  1  0  0  0  0
 43 42  1  0  0  0  0
 44 45  2  0  0  0  0
 44 39  1  0  0  0  0
 45 46  1  0  0  0  0
 47 49  2  0  0  0  0
 48 47  1  0  0  0  0
 49 50  1  0  0  0  0
 49 45  1  0  0  0  0
 51 47  1  0  0  0  0
 51 42  2  0  0  0  0
 52 51  1  0  0  0  0
M  END
