1,2
q = 0.0, confidence = 0.994

 38 40  0  0  1  0  0  0  0  0999 V2000
   -1.2490    0.1552   -0.1443 N   0  0  0  0  0  2  0  0  0  0  0  0
    1.1348    1.1239    0.0152 N   0  0  0  0  0  2  0  0  0  0  0  0
   -3.3556    0.9378   -0.0251 C   0  0  2  0  0  3  0  0  0  0  0  0
   -2.5485   -0.1439   -0.3386 N   0  0  0  0  0  0  0  0  0  0  0  0
    2.4286    1.5944   -0.1065 C   0  0  1  0  0  3  0  0  0  0  0  0
    1.6758    3.8593    0.5350 C   0  0  0  0  0  0  0  0  0  0  0  0
    1.8970    4.9168    0.7439 H   0  0  0  0  0  0  0  0  0  0  0  0
    3.3847    0.7144   -0.4770 N   0  0  0  0  0  0  0  0  0  0  0  0
   -1.1871    1.4462    0.2521 C   0  0  0  0  0  0  0  0  0  0  0  0
    0.1465    1.9996    0.3260 C   0  0  0  0  0  0  0  0  0  0  0  0
   -2.4943    1.9693    0.3612 C   0  0  0  0  0  0  0  0  0  0  0  0
   -2.7856    2.9774    0.6635 H   0  0  0  0  0  0  0  0  0  0  0  0
    2.7267    2.9821    0.1477 C   0  0  0  0  0  0  0  0  0  0  0  0
    0.3898    3.3686    0.6177 C   0  0  0  0  0  0  0  0  0  0  0  0
   -0.4569    4.0160    0.8821 H   0  0  0  0  0  0  0  0  0  0  0  0
   -2.8923   -1.4255   -0.9309 C   0  0  0  0  0  0  0  0  0  0  0  0
   -2.1248   -1.6583   -1.6927 H   0  0  0  0  0  0  0  0  0  0  0  0
   -3.8739   -1.3458   -1.4217 H   0  0  0  0  0  0  0  0  0  0  0  0
   -2.9352   -2.2255   -0.1659 H   0  0  0  0  0  0  0  0  0  0  0  0
    4.0725    3.4099   -0.0145 C   0  0  0  0  0  0  0  0  0  0  0  0
    4.3266    4.4645    0.1724 H   0  0  0  0  0  0  0  0  0  0  0  0
    4.6293    1.1523   -0.6299 C   0  0  0  0  0  0  0  0  0  0  0  0
    5.3763    0.4013   -0.9428 H   0  0  0  0  0  0  0  0  0  0  0  0
    5.0332    2.4954   -0.4139 C   0  0  0  0  0  0  0  0  0  0  0  0
    6.0826    2.7882   -0.5598 H   0  0  0  0  0  0  0  0  0  0  0  0
   -5.4791   -0.2115    0.7186 C   0  0  0  0  0  0  0  0  0  0  0  0
   -5.1331   -0.1796    1.7711 H   0  0  0  0  0  0  0  0  0  0  0  0
   -5.2312   -1.2070    0.3042 H   0  0  0  0  0  0  0  0  0  0  0  0
   -6.5838   -0.1276    0.7226 H   0  0  0  0  0  0  0  0  0  0  0  0
   -4.8764    0.9554   -0.0982 C   0  0  0  0  0  0  0  0  0  0  0  0
   -5.3558    0.9100   -1.5698 C   0  0  0  0  0  0  0  0  0  0  0  0
   -6.4593    1.0062   -1.6016 H   0  0  0  0  0  0  0  0  0  0  0  0
   -5.0978   -0.0335   -2.0888 H   0  0  0  0  0  0  0  0  0  0  0  0
   -4.9207    1.7450   -2.1532 H   0  0  0  0  0  0  0  0  0  0  0  0
   -5.3729    2.2791    0.5202 C   0  0  0  0  0  0  0  0  0  0  0  0
   -5.0521    2.3836    1.5756 H   0  0  0  0  0  0  0  0  0  0  0  0
   -6.4796    2.3025    0.4995 H   0  0  0  0  0  0  0  0  0  0  0  0
   -5.0128    3.1588   -0.0487 H   0  0  0  0  0  0  0  0  0  0  0  0
  1  9  1  0  0  0  0
  2 10  1  0  0  0  0
  3 30  1  1  0  0  0
  3 11  1  0  0  0  0
  4  1  1  0  0  0  0
  4  3  1  0  0  0  0
  5  8  1  6  0  0  0
  5  2  1  0  0  0  0
  5 13  1  0  0  0  0
  6 14  1  0  0  0  0
  6  7  1  0  0  0  0
  9 10  1  0  0  0  0
  9 11  2  0  0  0  0
 10 14  2  0  0  0  0
 11 12  1  0  0  0  0
 13  6  2  0  0  0  0
 14 15  1  0  0  0  0
 16  4  1  0  0  0  0
 16 19  1  0  0  0  0
 17 16  1  0  0  0  0
 18 16  1  0  0  0  0
 20 13  1  0  0  0  0
 20 21  1  0  0  0  0
 22  8  2  0  0  0  0
 22 24  1  0  0  0  0
 23 22  1  0  0  0  0
 24 20  2  0  0  0  0
 25 24  1  0  0  0  0
 26 29  1  0  0  0  0
 26 27  1  0  0  0  0
 28 26  1  0  0  0  0
 30 35  1  0  0  0  0
 30 26  1  0  0  0  0
 31 30  1  0  0  0  0
 32 31  1  0  0  0  0
 33 31  1  0  0  0  0
 34 31  1  0  0  0  0
 35 36  1  0  0  0  0
 37 35  1  0  0  0  0
 38 35  1  0  0  0  0
M  END
