1,2
q = 0.0, confidence = 0.996

 26 29  0  0  1  0  0  0  0  0999 V2000
   -0.3068   -1.3072   -0.1317 N   0  0  0  0  0  2  0  0  0  0  0  0
   -0.3112    1.3152   -0.1394 N   0  0  0  0  0  2  0  0  0  0  0  0
   -5.1634   -1.4164    0.0366 N   0  0  0  0  0  0  0  0  0  0  0  0
   -5.1679    1.4086    0.0493 N   0  0  0  0  0  0  0  0  0  0  0  0
   -0.2544   -2.6421   -0.2947 C   0  0  0  0  0  3  0  0  0  0  0  0
    0.7424   -3.0772   -0.4344 H   0  0  0  0  0  0  0  0  0  0  0  0
   -1.4101   -3.4439   -0.3025 C   0  0  0  0  0  0  0  0  0  0  0  0
   -1.3018   -4.5305   -0.4259 H   0  0  0  0  0  0  0  0  0  0  0  0
   -2.6685   -2.8553   -0.1678 C   0  0  0  0  0  0  0  0  0  0  0  0
   -3.5993   -3.4401   -0.1670 H   0  0  0  0  0  0  0  0  0  0  0  0
   -2.7462   -1.4503   -0.0667 C   0  0  0  0  0  0  0  0  0  0  0  0
   -1.5373   -0.7147   -0.0632 C   0  0  0  0  0  0  0  0  0  0  0  0
   -1.5394    0.7199   -0.0638 C   0  0  2  0  0  3  0  0  0  0  0  0
   -2.7509    1.4512   -0.0576 C   0  0  0  0  0  0  0  0  0  0  0  0
   -2.6779    2.8575   -0.1450 C   0  0  0  0  0  0  0  0  0  0  0  0
   -3.6105    3.4393   -0.1372 H   0  0  0  0  0  0  0  0  0  0  0  0
   -1.4213    3.4517   -0.2695 C   0  0  0  0  0  0  0  0  0  0  0  0
   -1.3161    4.5407   -0.3738 H   0  0  0  0  0  0  0  0  0  0  0  0
   -0.2630    2.6529   -0.2745 C   0  0  0  0  0  0  0  0  0  0  0  0
    0.7329    3.0955   -0.4007 H   0  0  0  0  0  0  0  0  0  0  0  0
   -4.0081   -0.7159   -0.0004 C   0  0  0  0  0  0  0  0  0  0  0  0
   -4.0103    0.7123    0.0056 C   0  0  0  0  0  0  0  0  0  0  0  0
   -6.2932   -0.7157    0.0826 C   0  0  0  0  0  0  0  0  0  0  0  0
   -7.2418   -1.2791    0.1143 H   0  0  0  0  0  0  0  0  0  0  0  0
   -6.2955    0.7039    0.0893 C   0  0  0  0  0  0  0  0  0  0  0  0
   -7.2458    1.2639    0.1267 H   0  0  0  0  0  0  0  0  0  0  0  0
  1 12  1  0  0  0  0
  3 23  1  0  0  0  0
  4 25  1  0  0  0  0
  5  1  1  0  0  0  0
  6  5  1  0  0  0  0
  7  5  1  0  0  0  0
  7  9  2  0  0  0  0
  8  7  1  0  0  0  0
  9 10  1  0  0  0  0
  9 11  1  0  0  0  0
 11 12  2  0  0  0  0
 11 21  1  0  0  0  0
 13  2  1  6  0  0  0
 13 12  1  0  0  0  0
 13 14  1  0  0  0  0
 14 22  1  0  0  0  0
 15 16  1  0  0  0  0
 15 14  2  0  0  0  0
 17 15  1  0  0  0  0
 18 17  1  0  0  0  0
 19 17  2  0  0  0  0
 19  2  1  0  0  0  0
 20 19  1  0  0  0  0
 21 22  1  0  0  0  0
 21  3  2  0  0  0  0
 22  4  2  0  0  0  0
 23 25  2  0  0  0  0
 23 24  1  0  0  0  0
 25 26  1  0  0  0  0
M  END
