1,4
q = 0.0, confidence = 0.988

 49 48  0  0  0  0  0  0  0  0999 V2000
   -1.6101   -0.6500    0.8752 N   0  0  0  0  0  2  0  0  0  0  0  0
   -3.8582   -1.0962    0.2078 N   0  0  0  0  0  0  0  0  0  0  0  0
   -3.1904    1.0627    0.8534 N   0  0  0  0  0  0  0  0  0  0  0  0
    1.6101   -0.6499    0.8751 N   0  0  0  0  0  2  0  0  0  0  0  0
    3.1904    1.0627    0.8534 N   0  0  0  0  0  0  0  0  0  0  0  0
    3.8583   -1.0962    0.2078 N   0  0  0  0  0  0  0  0  0  0  0  0
   -3.6009   -2.1168   -0.7971 C   0  0  0  0  0  0  0  0  0  0  0  0
   -2.5990   -1.9739   -1.2478 H   0  0  0  0  0  0  0  0  0  0  0  0
   -4.3553   -2.0294   -1.6100 H   0  0  0  0  0  0  0  0  0  0  0  0
   -3.6663   -3.1475   -0.3824 H   0  0  0  0  0  0  0  0  0  0  0  0
   -5.2322   -0.9484    0.6488 C   0  0  0  0  0  0  0  0  0  0  0  0
   -5.2796   -0.2184    1.4772 H   0  0  0  0  0  0  0  0  0  0  0  0
   -5.6225   -1.9244    1.0132 H   0  0  0  0  0  0  0  0  0  0  0  0
   -5.9083   -0.6004   -0.1663 H   0  0  0  0  0  0  0  0  0  0  0  0
   -3.9696    1.8006   -0.1309 C   0  0  0  0  0  0  0  0  0  0  0  0
   -4.3834    1.1082   -0.8856 H   0  0  0  0  0  0  0  0  0  0  0  0
   -3.3169    2.5335   -0.6562 H   0  0  0  0  0  0  0  0  0  0  0  0
   -4.8090    2.3536    0.3444 H   0  0  0  0  0  0  0  0  0  0  0  0
   -2.4017    1.8876    1.7575 C   0  0  0  0  0  0  0  0  0  0  0  0
   -1.8939    1.2373    2.4918 H   0  0  0  0  0  0  0  0  0  0  0  0
   -3.0766    2.5951    2.2856 H   0  0  0  0  0  0  0  0  0  0  0  0
   -1.6291    2.4743    1.2118 H   0  0  0  0  0  0  0  0  0  0  0  0
   -2.8458   -0.2581    0.6428 C   0  0  0  0  0  3  0  0  0  0  0  0
   -1.2986   -2.0420    1.1712 C   0  0  0  0  0  0  0  0  0  0  0  0
   -1.1812   -2.6341    0.2347 H   0  0  0  0  0  0  0  0  0  0  0  0
   -2.1469   -2.4967    1.7340 H   0  0  0  0  0  0  0  0  0  0  0  0
    0.0000   -2.1956    1.9795 C   0  0  0  0  0  0  0  0  0  0  0  0
    0.0001   -1.4890    2.8370 H   0  0  0  0  0  0  0  0  0  0  0  0
    0.0001   -3.2220    2.4053 H   0  0  0  0  0  0  0  0  0  0  0  0
    1.2986   -2.0420    1.1710 C   0  0  0  0  0  0  0  0  0  0  0  0
    2.1469   -2.4968    1.7338 H   0  0  0  0  0  0  0  0  0  0  0  0
    1.1812   -2.6340    0.2346 H   0  0  0  0  0  0  0  0  0  0  0  0
    2.8458   -0.2580    0.6428 C   0  0  0  0  0  3  0  0  0  0  0  0
    3.9696    1.8007   -0.1309 C   0  0  0  0  0  0  0  0  0  0  0  0
    4.3836    1.1083   -0.8855 H   0  0  0  0  0  0  0  0  0  0  0  0
    4.8087    2.3539    0.3444 H   0  0  0  0  0  0  0  0  0  0  0  0
    3.3167    2.5333   -0.6565 H   0  0  0  0  0  0  0  0  0  0  0  0
    2.4015    1.8877    1.7573 C   0  0  0  0  0  0  0  0  0  0  0  0
    1.8938    1.2374    2.4917 H   0  0  0  0  0  0  0  0  0  0  0  0
    1.6289    2.4742    1.2115 H   0  0  0  0  0  0  0  0  0  0  0  0
    3.0764    2.5953    2.2854 H   0  0  0  0  0  0  0  0  0  0  0  0
    5.2322   -0.9484    0.6489 C   0  0  0  0  0  0  0  0  0  0  0  0
    5.2796   -0.2183    1.4772 H   0  0  0  0  0  0  0  0  0  0  0  0
    5.9084   -0.6005   -0.1662 H   0  0  0  0  0  0  0  0  0  0  0  0
    5.6225   -1.9244    1.0134 H   0  0  0  0  0  0  0  0  0  0  0  0
    3.6010   -2.1168   -0.7970 C   0  0  0  0  0  0  0  0  0  0  0  0
    2.5990   -1.9740   -1.2477 H   0  0  0  0  0  0  0  0  0  0  0  0
    3.6665   -3.1475   -0.3824 H   0  0  0  0  0  0  0  0  0  0  0  0
    4.3553   -2.0294   -1.6100 H   0  0  0  0  0  0  0  0  0  0  0  0
  1 24  1  0  0  0  0
  2 23  1  0  0  0  0
  2 11  1  0  0  0  0
  3 19  1  0  0  0  0
  4 30  1  0  0  0  0
  5 38  1  0  0  0  0
  6 33  1  0  0  0  0
  6 42  1  0  0  0  0
  7 10  1  0  0  0  0
  7  2  1  0  0  0  0
  8  7  1  0  0  0  0
  9  7  1  0  0  0  0
 11 13  1  0  0  0  0
 11 12  1  0  0  0  0
 14 11  1  0  0  0  0
 15 18  1  0  0  0  0
 15  3  1  0  0  0  0
 16 15  1  0  0  0  0
 17 15  1  0  0  0  0
 19 21  1  0  0  0  0
 19 20  1  0  0  0  0
 22 19  1  0  0  0  0
 23  3  1  0  0  0  0
 23  1  1  0  0  0  0
 24 26  1  0  0  0  0
 24 27  1  0  0  0  0
 25 24  1  0  0  0  0
 27 29  1  0  0  0  0
 27 28  1  0  0  0  0
 30 31  1  0  0  0  0
 30 27  1  0  0  0  0
 32 30  1  0  0  0  0
 33  5  1  0  0  0  0
 33  4  1  0  0  0  0
 34 36  1  0  0  0  0
 34  5  1  0  0  0  0
 35 34  1  0  0  0  0
 37 34  1  0  0  0  0
 38 41  1  0  0  0  0
 38 39  1  0  0  0  0
 40 38  1  0  0  0  0
 42 45  1  0  0  0  0
 42 43  1  0  0  0  0
 44 42  1  0  0  0  0
 46 48  1  0  0  0  0
 46  6  1  0  0  0  0
 47 46  1  0  0  0  0
 49 46  1  0  0  0  0
M  END
