2,4
q = 0.0, confidence = 0.988

 66 71  0  0  1  0  0  0  0  0999 V2000
    3.4886   -0.7202    0.1974 N   0  0  0  0  0  0  0  0  0  0  0  0
    1.7455    0.6264   -0.2488 N   0  0  0  0  0  2  0  0  0  0  0  0
   -3.4984   -0.7021   -0.1942 N   0  0  0  0  0  0  0  0  0  0  0  0
   -1.7499    0.6414    0.2394 N   0  0  0  0  0  2  0  0  0  0  0  0
    3.9548    0.2430   -0.6946 C   0  0  0  0  0  0  0  0  0  0  0  0
    2.1590   -0.4525    0.4313 C   0  0  1  0  0  3  0  0  0  0  0  0
    2.8429    1.0876   -0.9658 C   0  0  0  0  0  0  0  0  0  0  0  0
    2.9690    2.1728   -1.8510 C   0  0  0  0  0  0  0  0  0  0  0  0
    2.1068    2.8214   -2.0616 H   0  0  0  0  0  0  0  0  0  0  0  0
    4.2172    2.3784   -2.4480 C   0  0  0  0  0  0  0  0  0  0  0  0
    4.3514    3.2155   -3.1487 H   0  0  0  0  0  0  0  0  0  0  0  0
    5.3169    1.5271   -2.1762 C   0  0  0  0  0  0  0  0  0  0  0  0
    6.2804    1.7215   -2.6697 H   0  0  0  0  0  0  0  0  0  0  0  0
    5.2081    0.4436   -1.2954 C   0  0  0  0  0  0  0  0  0  0  0  0
    6.0660   -0.2119   -1.0897 H   0  0  0  0  0  0  0  0  0  0  0  0
    4.2756   -1.8217    0.7432 C   0  0  0  0  0  0  0  0  0  0  0  0
    4.8333   -2.2866   -0.0977 H   0  0  0  0  0  0  0  0  0  0  0  0
    3.5636   -2.5832    1.1200 H   0  0  0  0  0  0  0  0  0  0  0  0
    5.2443   -1.3966    1.8524 C   0  0  0  0  0  0  0  0  0  0  0  0
    5.9226   -0.6082    1.4632 H   0  0  0  0  0  0  0  0  0  0  0  0
    4.6648   -0.9222    2.6731 H   0  0  0  0  0  0  0  0  0  0  0  0
    6.0524   -2.5781    2.3865 C   0  0  0  0  0  0  0  0  0  0  0  0
    6.6604   -3.0496    1.5871 H   0  0  0  0  0  0  0  0  0  0  0  0
    5.3928   -3.3630    2.8109 H   0  0  0  0  0  0  0  0  0  0  0  0
    6.7470   -2.2572    3.1865 H   0  0  0  0  0  0  0  0  0  0  0  0
    0.1080   -1.8386    0.7435 C   0  0  0  0  0  0  0  0  0  0  0  0
    1.2712   -1.2458    1.3028 C   0  0  0  0  0  0  0  0  0  0  0  0
    1.5128   -1.3419    2.6891 C   0  0  0  0  0  0  0  0  0  0  0  0
    2.4058   -0.8617    3.1161 H   0  0  0  0  0  0  0  0  0  0  0  0
    0.6039   -2.0019    3.5262 C   0  0  0  0  0  0  0  0  0  0  0  0
    0.7988   -2.0648    4.6067 H   0  0  0  0  0  0  0  0  0  0  0  0
   -0.5607   -2.5651    2.9821 C   0  0  0  0  0  0  0  0  0  0  0  0
   -1.2812   -3.0809    3.6340 H   0  0  0  0  0  0  0  0  0  0  0  0
   -0.8018   -2.4842    1.6036 C   0  0  0  0  0  0  0  0  0  0  0  0
   -1.6989   -2.9548    1.1739 H   0  0  0  0  0  0  0  0  0  0  0  0
   -0.1249   -1.8444   -0.7287 C   0  0  0  0  0  0  0  0  0  0  0  0
   -1.2836   -1.2486   -1.2938 C   0  0  0  0  0  0  0  0  0  0  0  0
   -1.5249   -1.3547   -2.6795 C   0  0  0  0  0  0  0  0  0  0  0  0
   -2.4144   -0.8721   -3.1111 H   0  0  0  0  0  0  0  0  0  0  0  0
   -0.6201   -2.0280   -3.5103 C   0  0  0  0  0  0  0  0  0  0  0  0
   -0.8147   -2.0986   -4.5905 H   0  0  0  0  0  0  0  0  0  0  0  0
    0.5403   -2.5946   -2.9606 C   0  0  0  0  0  0  0  0  0  0  0  0
    1.2575   -3.1210   -3.6076 H   0  0  0  0  0  0  0  0  0  0  0  0
    0.7810   -2.5036   -1.5828 C   0  0  0  0  0  0  0  0  0  0  0  0
    1.6746   -2.9766   -1.1484 H   0  0  0  0  0  0  0  0  0  0  0  0
   -3.9610    0.2719    0.6878 C   0  0  0  0  0  0  0  0  0  0  0  0
   -2.1676   -0.4426   -0.4301 C   0  0  1  0  0  3  0  0  0  0  0  0
   -2.8458    1.1146    0.9511 C   0  0  0  0  0  0  0  0  0  0  0  0
   -2.9680    2.2097    1.8244 C   0  0  0  0  0  0  0  0  0  0  0  0
   -2.1036    2.8577    2.0276 H   0  0  0  0  0  0  0  0  0  0  0  0
   -4.2156    2.4267    2.4184 C   0  0  0  0  0  0  0  0  0  0  0  0
   -4.3470    3.2721    3.1096 H   0  0  0  0  0  0  0  0  0  0  0  0
   -5.3186    1.5769    2.1552 C   0  0  0  0  0  0  0  0  0  0  0  0
   -6.2816    1.7805    2.6459 H   0  0  0  0  0  0  0  0  0  0  0  0
   -5.2138    0.4839    1.2858 C   0  0  0  0  0  0  0  0  0  0  0  0
   -6.0744   -0.1701    1.0863 H   0  0  0  0  0  0  0  0  0  0  0  0
   -4.2899   -1.8056   -0.7295 C   0  0  0  0  0  0  0  0  0  0  0  0
   -4.8500   -2.2597    0.1156 H   0  0  0  0  0  0  0  0  0  0  0  0
   -3.5810   -2.5737   -1.0986 H   0  0  0  0  0  0  0  0  0  0  0  0
   -5.2562   -1.3871   -1.8433 C   0  0  0  0  0  0  0  0  0  0  0  0
   -5.9313   -0.5920   -1.4622 H   0  0  0  0  0  0  0  0  0  0  0  0
   -4.6744   -0.9234   -2.6683 H   0  0  0  0  0  0  0  0  0  0  0  0
   -6.0692   -2.5704   -2.3661 C   0  0  0  0  0  0  0  0  0  0  0  0
   -6.6796   -3.0313   -1.5624 H   0  0  0  0  0  0  0  0  0  0  0  0
   -5.4129   -3.3622   -2.7825 H   0  0  0  0  0  0  0  0  0  0  0  0
   -6.7621   -2.2543   -3.1695 H   0  0  0  0  0  0  0  0  0  0  0  0
  1  6  1  0  0  0  0
  1 16  1  0  0  0  0
  2  6  1  0  0  0  0
  3 46  1  0  0  0  0
  4 48  1  0  0  0  0
  5  1  1  0  0  0  0
  6 27  1  6  0  0  0
  7  5  1  0  0  0  0
  7  2  1  0  0  0  0
  8  7  2  0  0  0  0
  9  8  1  0  0  0  0
 10 12  2  0  0  0  0
 10  8  1  0  0  0  0
 11 10  1  0  0  0  0
 12 14  1  0  0  0  0
 13 12  1  0  0  0  0
 14 15  1  0  0  0  0
 14  5  2  0  0  0  0
 16 18  1  0  0  0  0
 16 19  1  0  0  0  0
 17 16  1  0  0  0  0
 19 22  1  0  0  0  0
 19 21  1  0  0  0  0
 20 19  1  0  0  0  0
 22 24  1  0  0  0  0
 22 25  1  0  0  0  0
 23 22  1  0  0  0  0
 26 27  2  0  0  0  0
 26 34  1  0  0  0  0
 27 28  1  0  0  0  0
 28 29  1  0  0  0  0
 28 30  2  0  0  0  0
 30 31  1  0  0  0  0
 32 30  1  0  0  0  0
 32 33  1  0  0  0  0
 34 32  2  0  0  0  0
 35 34  1  0  0  0  0
 36 26  1  0  0  0  0
 37 36  1  0  0  0  0
 38 37  2  0  0  0  0
 39 38  1  0  0  0  0
 40 42  2  0  0  0  0
 40 38  1  0  0  0  0
 41 40  1  0  0  0  0
 42 44  1  0  0  0  0
 43 42  1  0  0  0  0
 44 45  1  0  0  0  0
 44 36  2  0  0  0  0
 46 48  2  0  0  0  0
 46 55  1  0  0  0  0
 47 37  1  1  0  0  0
 47  3  1  0  0  0  0
 47  4  1  0  0  0  0
 48 49  1  0  0  0  0
 49 50  1  0  0  0  0
 49 51  2  0  0  0  0
 51 52  1  0  0  0  0
 53 51  1  0  0  0  0
 53 54  1  0  0  0  0
 55 53  2  0  0  0  0
 56 55  1  0  0  0  0
 57  3  1  0  0  0  0
 57 58  1  0  0  0  0
 59 57  1  0  0  0  0
 60 61  1  0  0  0  0
 60 57  1  0  0  0  0
 62 60  1  0  0  0  0
 63 60  1  0  0  0  0
 63 64  1  0  0  0  0
 65 63  1  0  0  0  0
 66 63  1  0  0  0  0
M  END
