1,7
q = 0.0, confidence = 0.994

 32 34  0  0  1  0  0  0  0  0999 V2000
   -1.3324    2.0131    0.0393 N   0  0  0  0  0  2  0  0  0  0  0  0
   -2.5006    2.6853    0.0191 C   0  0  0  0  0  3  0  0  0  0  0  0
   -3.4064    2.0675   -0.0607 H   0  0  0  0  0  0  0  0  0  0  0  0
   -0.1233    4.0779    0.1215 N   0  0  0  0  0  0  0  0  0  0  0  0
   -2.5271    4.0802    0.0777 C   0  0  0  0  0  0  0  0  0  0  0  0
   -3.4790    4.6279    0.0706 H   0  0  0  0  0  0  0  0  0  0  0  0
   -1.3325   -2.0130    0.0394 N   0  0  0  0  0  2  0  0  0  0  0  0
   -1.2861    4.7347    0.1432 C   0  0  0  0  0  0  0  0  0  0  0  0
   -1.2281    5.8359    0.2063 H   0  0  0  0  0  0  0  0  0  0  0  0
   -0.1234   -4.0779    0.1215 N   0  0  0  0  0  0  0  0  0  0  0  0
   -0.1638    2.7327    0.0645 C   0  0  0  0  0  0  0  0  0  0  0  0
    1.0636    2.0194   -0.0101 C   0  0  0  0  0  0  0  0  0  0  0  0
    2.1427    1.4354   -0.1095 C   0  0  0  0  0  0  0  0  0  0  0  0
    3.3611    0.7194   -0.1998 C   0  0  0  0  0  0  0  0  0  0  0  0
    4.5965    1.4069   -0.2815 C   0  0  0  0  0  0  0  0  0  0  0  0
    4.5866    2.5061   -0.2792 H   0  0  0  0  0  0  0  0  0  0  0  0
    5.8017    0.7037   -0.3626 C   0  0  0  0  0  0  0  0  0  0  0  0
    6.7515    1.2552   -0.4259 H   0  0  0  0  0  0  0  0  0  0  0  0
    5.8017   -0.7040   -0.3624 C   0  0  0  0  0  0  0  0  0  0  0  0
    6.7515   -1.2555   -0.4255 H   0  0  0  0  0  0  0  0  0  0  0  0
    4.5964   -1.4071   -0.2811 C   0  0  0  0  0  0  0  0  0  0  0  0
    4.5865   -2.5063   -0.2784 H   0  0  0  0  0  0  0  0  0  0  0  0
    3.3611   -0.7195   -0.1996 C   0  0  0  0  0  0  0  0  0  0  0  0
    2.1426   -1.4354   -0.1091 C   0  0  0  0  0  0  0  0  0  0  0  0
    1.0635   -2.0194   -0.0097 C   0  0  0  0  0  0  0  0  0  0  0  0
   -0.1639   -2.7327    0.0646 C   0  0  1  0  0  3  0  0  0  0  0  0
   -1.2862   -4.7347    0.1430 C   0  0  0  0  0  0  0  0  0  0  0  0
   -1.2283   -5.8359    0.2059 H   0  0  0  0  0  0  0  0  0  0  0  0
   -2.5272   -4.0801    0.0775 C   0  0  0  0  0  0  0  0  0  0  0  0
   -3.4792   -4.6279    0.0703 H   0  0  0  0  0  0  0  0  0  0  0  0
   -2.5007   -2.6853    0.0191 C   0  0  0  0  0  0  0  0  0  0  0  0
   -3.4066   -2.0674   -0.0607 H   0  0  0  0  0  0  0  0  0  0  0  0
  1 11  1  0  0  0  0
  2  1  1  0  0  0  0
  2  5  1  0  0  0  0
  3  2  1  0  0  0  0
  4  8  1  0  0  0  0
  5  8  2  0  0  0  0
  6  5  1  0  0  0  0
  7 26  1  0  0  0  0
  8  9  1  0  0  0  0
 10 27  2  0  0  0  0
 11  4  2  0  0  0  0
 12 11  1  0  0  0  0
 13 12  3  0  0  0  0
 14 23  1  0  0  0  0
 14 13  1  0  0  0  0
 15 16  1  0  0  0  0
 15 14  2  0  0  0  0
 17 19  2  0  0  0  0
 17 15  1  0  0  0  0
 18 17  1  0  0  0  0
 19 21  1  0  0  0  0
 20 19  1  0  0  0  0
 21 22  1  0  0  0  0
 21 23  2  0  0  0  0
 23 24  1  0  0  0  0
 24 25  3  0  0  0  0
 26 25  1  6  0  0  0
 26 10  1  0  0  0  0
 27 28  1  0  0  0  0
 29 27  1  0  0  0  0
 30 29  1  0  0  0  0
 31  7  1  0  0  0  0
 31 29  2  0  0  0  0
 32 31  1  0  0  0  0
M  END
