1,2
q = 0.0, confidence = 0.998

 30 30  0  0  0  0  0  0  0  0999 V2000
    1.7416   -1.5456   -0.0898 N   0  0  0  0  0  0  0  0  0  0  0  0
   -1.2513   -1.1731    0.2043 N   0  0  0  0  0  0  0  0  0  0  0  0
   -3.8557    0.0254   -0.2059 N   0  0  0  0  0  0  0  0  0  0  0  0
   -4.5046    0.7981   -0.3869 H   0  0  0  0  0  0  0  0  0  0  0  0
    2.4585   -1.8007    1.1770 C   0  0  0  0  0  0  0  0  0  0  0  0
   -2.2192   -0.9372    1.3163 C   0  0  0  0  0  0  0  0  0  0  0  0
   -1.6411   -0.7698    2.2452 H   0  0  0  0  0  0  0  0  0  0  0  0
   -2.8403   -1.8565    1.4430 H   0  0  0  0  0  0  0  0  0  0  0  0
    2.7321   -1.5186   -1.1859 C   0  0  0  0  0  0  0  0  0  0  0  0
    0.7325   -2.5966   -0.3508 C   0  0  0  0  0  0  0  0  0  0  0  0
    1.1639   -3.6125   -0.1797 H   0  0  0  0  0  0  0  0  0  0  0  0
    0.4612   -2.5405   -1.4239 H   0  0  0  0  0  0  0  0  0  0  0  0
   -2.0343   -1.3394   -1.0549 C   0  0  0  0  0  0  0  0  0  0  0  0
   -2.6736   -2.2500   -0.9591 H   0  0  0  0  0  0  0  0  0  0  0  0
   -1.3329   -1.4850   -1.8975 H   0  0  0  0  0  0  0  0  0  0  0  0
   -3.1418    0.2435    1.0466 C   0  0  0  0  0  0  0  0  0  0  0  0
   -3.8712    0.3032    1.8809 H   0  0  0  0  0  0  0  0  0  0  0  0
   -2.5379    1.1816    1.0635 H   0  0  0  0  0  0  0  0  0  0  0  0
   -2.9327   -0.1380   -1.3210 C   0  0  0  0  0  0  0  0  0  0  0  0
   -2.2847    0.7544   -1.5070 H   0  0  0  0  0  0  0  0  0  0  0  0
   -3.5055   -0.3342   -2.2508 H   0  0  0  0  0  0  0  0  0  0  0  0
   -0.5068   -2.4187    0.5091 C   0  0  0  0  0  0  0  0  0  0  0  0
   -0.2194   -2.3787    1.5793 H   0  0  0  0  0  0  0  0  0  0  0  0
   -1.1742   -3.3055    0.3904 H   0  0  0  0  0  0  0  0  0  0  0  0
    1.7493   -1.8617    2.0213 H   0  0  0  0  0  0  0  0  0  0  0  0
    3.0406   -2.7512    1.1211 H   0  0  0  0  0  0  0  0  0  0  0  0
    3.2740   -2.4912   -1.2571 H   0  0  0  0  0  0  0  0  0  0  0  0
    3.1489   -0.9612    1.3779 H   0  0  0  0  0  0  0  0  0  0  0  0
    2.2250   -1.3125   -2.1458 H   0  0  0  0  0  0  0  0  0  0  0  0
    3.4639   -0.7111   -1.0017 H   0  0  0  0  0  0  0  0  0  0  0  0
  1  5  1  0  0  0  0
  2 22  1  0  0  0  0
  2  6  1  0  0  0  0
  3 16  1  0  0  0  0
  4  3  1  0  0  0  0
  5 28  1  0  0  0  0
  5 25  1  0  0  0  0
  6  8  1  0  0  0  0
  6  7  1  0  0  0  0
  9 30  1  0  0  0  0
  9  1  1  0  0  0  0
 10 11  1  0  0  0  0
 10  1  1  0  0  0  0
 10 22  1  0  0  0  0
 12 10  1  0  0  0  0
 13 14  1  0  0  0  0
 13  2  1  0  0  0  0
 15 13  1  0  0  0  0
 16 18  1  0  0  0  0
 16  6  1  0  0  0  0
 16 17  1  0  0  0  0
 19 13  1  0  0  0  0
 19  3  1  0  0  0  0
 20 19  1  0  0  0  0
 21 19  1  0  0  0  0
 22 23  1  0  0  0  0
 24 22  1  0  0  0  0
 26  5  1  0  0  0  0
 27  9  1  0  0  0  0
 29  9  1  0  0  0  0
M  END
