1,2
q = -1.0, confidence = 0.0

 40 44  0  0  0  0  0  0  0  0999 V2000
   -1.8563   -0.1413    0.2392 N   0  0  0  0  0  2  0  0  0  0  0  0
   -0.3878    1.8614    0.7641 N   0  0  0  0  0  2  0  0  0  0  0  0
   -2.5167    1.0928    0.2169 C   0  0  0  0  0  0  0  0  0  0  0  0
   -3.8696    0.8898   -0.2087 C   0  0  0  0  0  0  0  0  0  0  0  0
   -3.9820   -0.5069   -0.4623 C   0  0  0  0  0  0  0  0  0  0  0  0
   -2.7146   -1.0909   -0.1787 C   0  0  0  0  0  0  0  0  0  0  0  0
   -2.4239   -2.1441   -0.2458 H   0  0  0  0  0  0  0  0  0  0  0  0
   -1.6687    2.1645    0.5445 C   0  0  0  0  0  0  0  0  0  0  0  0
   -2.0144    3.2035    0.6701 H   0  0  0  0  0  0  0  0  0  0  0  0
    0.5214    2.8596    1.1727 C   0  0  0  0  0  0  0  0  0  0  0  0
   -4.9941    1.7700   -0.4151 C   0  0  0  0  0  0  0  0  0  0  0  0
   -4.9226    3.1686   -0.1841 C   0  0  0  0  0  0  0  0  0  0  0  0
   -3.9779    3.6052    0.1670 H   0  0  0  0  0  0  0  0  0  0  0  0
   -6.0201    3.9985   -0.3920 C   0  0  0  0  0  0  0  0  0  0  0  0
   -5.9381    5.0798   -0.2055 H   0  0  0  0  0  0  0  0  0  0  0  0
   -7.2352    3.4432   -0.8437 C   0  0  0  0  0  0  0  0  0  0  0  0
   -8.1100    4.0887   -1.0136 H   0  0  0  0  0  0  0  0  0  0  0  0
   -7.3301    2.0726   -1.0762 C   0  0  0  0  0  0  0  0  0  0  0  0
   -8.2889    1.6680   -1.4276 H   0  0  0  0  0  0  0  0  0  0  0  0
   -6.2328    1.1961   -0.8736 C   0  0  0  0  0  0  0  0  0  0  0  0
   -6.3476   -0.2509   -1.1151 C   0  0  0  0  0  0  0  0  0  0  0  0
   -7.5561   -0.8527   -1.5526 C   0  0  0  0  0  3  0  0  0  0  0  0
   -8.4451   -0.2305   -1.7243 H   0  0  0  0  0  0  0  0  0  0  0  0
   -7.6554   -2.2255   -1.7725 C   0  0  0  0  0  0  0  0  0  0  0  0
   -8.6094   -2.6564   -2.1117 H   0  0  0  0  0  0  0  0  0  0  0  0
   -6.5374   -3.0593   -1.5580 C   0  0  0  0  0  0  0  0  0  0  0  0
   -6.6146   -4.1440   -1.7271 H   0  0  0  0  0  0  0  0  0  0  0  0
   -5.3357   -2.5026   -1.1292 C   0  0  0  0  0  0  0  0  0  0  0  0
   -4.4627   -3.1490   -0.9537 H   0  0  0  0  0  0  0  0  0  0  0  0
   -5.2154   -1.1073   -0.9051 C   0  0  0  0  0  0  0  0  0  0  0  0
    0.5979    4.1011    0.5029 C   0  0  0  0  0  0  0  0  0  0  0  0
   -0.0555    4.2887   -0.3623 H   0  0  0  0  0  0  0  0  0  0  0  0
    1.5302    5.0658    0.9126 C   0  0  0  0  0  0  0  0  0  0  0  0
    1.5876    6.0255    0.3766 H   0  0  0  0  0  0  0  0  0  0  0  0
    2.3981    4.8043    1.9849 C   0  0  0  0  0  0  0  0  0  0  0  0
    3.1356    5.5585    2.2969 H   0  0  0  0  0  0  0  0  0  0  0  0
    2.3238    3.5688    2.6515 C   0  0  0  0  0  0  0  0  0  0  0  0
    3.0022    3.3538    3.4908 H   0  0  0  0  0  0  0  0  0  0  0  0
    1.3963    2.6012    2.2505 C   0  0  0  0  0  0  0  0  0  0  0  0
    1.3435    1.6247    2.7522 H   0  0  0  0  0  0  0  0  0  0  0  0
  2 10  1  0  0  0  0
  3  1  1  0  0  0  0
  3  8  2  0  0  0  0
  4  3  1  0  0  0  0
  5  4  1  0  0  0  0
  5  6  2  0  0  0  0
  6  1  1  0  0  0  0
  7  6  1  0  0  0  0
  8  9  1  0  0  0  0
  8  2  1  0  0  0  0
 10 39  1  0  0  0  0
 11  4  2  0  0  0  0
 11 12  1  0  0  0  0
 12 13  1  0  0  0  0
 14 15  1  0  0  0  0
 14 12  2  0  0  0  0
 16 14  1  0  0  0  0
 17 16  1  0  0  0  0
 18 20  1  0  0  0  0
 18 16  2  0  0  0  0
 19 18  1  0  0  0  0
 20 11  1  0  0  0  0
 21 30  1  0  0  0  0
 21 20  2  0  0  0  0
 22 21  1  0  0  0  0
 23 22  1  0  0  0  0
 24 26  2  0  0  0  0
 24 22  1  0  0  0  0
 25 24  1  0  0  0  0
 26 28  1  0  0  0  0
 27 26  1  0  0  0  0
 28 29  1  0  0  0  0
 28 30  2  0  0  0  0
 30  5  1  0  0  0  0
 31 33  1  0  0  0  0
 31 10  2  0  0  0  0
 32 31  1  0  0  0  0
 33 35  2  0  0  0  0
 34 33  1  0  0  0  0
 35 36  1  0  0  0  0
 35 37  1  0  0  0  0
 37 38  1  0  0  0  0
 39 37  2  0  0  0  0
 39 40  1  0  0  0  0
M  END
