1,3
q = 0.0, confidence = 0.994

 44 46  0  0  1  0  0  0  0  0999 V2000
    0.4323   -0.1098    1.7533 N   0  0  0  0  0  2  0  0  0  0  0  0
    1.7094    0.2099    1.3911 N   0  0  0  0  0  0  0  0  0  0  0  0
    0.5201   -1.6623   -0.5788 N   0  0  0  0  0  2  0  0  0  0  0  0
    1.8112   -1.2015   -0.5302 N   0  0  0  0  0  0  0  0  0  0  0  0
    1.5820    1.1994   -0.7828 N   0  0  0  0  0  0  0  0  0  0  0  0
    1.4351    2.3864   -0.1336 N   0  0  0  0  0  0  0  0  0  0  0  0
    0.4094   -0.1107    3.1051 C   0  0  2  0  0  3  0  0  0  0  0  0
    1.6877    0.2657    3.5923 C   0  0  0  0  0  0  0  0  0  0  0  0
    2.5009    0.4689    2.4831 C   0  0  0  0  0  0  0  0  0  0  0  0
   -0.7780   -0.5306    3.9080 C   0  0  0  0  0  0  0  0  0  0  0  0
   -1.3145    0.3393    4.3391 H   0  0  0  0  0  0  0  0  0  0  0  0
   -0.4471   -1.1585    4.7581 H   0  0  0  0  0  0  0  0  0  0  0  0
   -1.4876   -1.1143    3.2932 H   0  0  0  0  0  0  0  0  0  0  0  0
    3.9171    0.9177    2.3657 C   0  0  0  0  0  0  0  0  0  0  0  0
    4.5757    0.1436    1.9174 H   0  0  0  0  0  0  0  0  0  0  0  0
    4.3194    1.1482    3.3684 H   0  0  0  0  0  0  0  0  0  0  0  0
    3.9867    1.8365    1.7475 H   0  0  0  0  0  0  0  0  0  0  0  0
    2.1273    0.1055    0.0123 C   0  0  1  0  0  0  0  0  0  0  0  0
    3.2345    0.1630    0.0284 H   0  0  0  0  0  0  0  0  0  0  0  0
    0.5865   -2.9197   -1.0691 C   0  0  1  0  0  3  0  0  0  0  0  0
    1.9391   -3.2520   -1.3333 C   0  0  0  0  0  0  0  0  0  0  0  0
    2.7046   -2.1466   -0.9778 C   0  0  0  0  0  0  0  0  0  0  0  0
   -0.6161   -3.7820   -1.2621 C   0  0  0  0  0  0  0  0  0  0  0  0
   -1.2768   -3.7504   -0.3745 H   0  0  0  0  0  0  0  0  0  0  0  0
   -0.3080   -4.8291   -1.4331 H   0  0  0  0  0  0  0  0  0  0  0  0
   -1.2094   -3.4586   -2.1413 H   0  0  0  0  0  0  0  0  0  0  0  0
    4.1790   -1.9273   -1.0326 C   0  0  0  0  0  0  0  0  0  0  0  0
    4.4530   -1.0508   -1.6559 H   0  0  0  0  0  0  0  0  0  0  0  0
    4.6673   -2.8147   -1.4740 H   0  0  0  0  0  0  0  0  0  0  0  0
    4.6157   -1.7777   -0.0229 H   0  0  0  0  0  0  0  0  0  0  0  0
    1.1964    3.2886   -1.0931 C   0  0  0  0  0  0  0  0  0  0  0  0
    1.2322    2.6722   -2.3793 C   0  0  0  0  0  0  0  0  0  0  0  0
    1.5082    1.3262   -2.1617 C   0  0  0  0  0  0  0  0  0  0  0  0
    0.9235    4.7183   -0.7510 C   0  0  0  0  0  0  0  0  0  0  0  0
    1.0826    4.8898    0.3297 H   0  0  0  0  0  0  0  0  0  0  0  0
   -0.1218    4.9981   -0.9975 H   0  0  0  0  0  0  0  0  0  0  0  0
    1.5847    5.4012   -1.3208 H   0  0  0  0  0  0  0  0  0  0  0  0
    1.6691    0.2204   -3.1533 C   0  0  0  0  0  0  0  0  0  0  0  0
    2.6869   -0.2209   -3.1437 H   0  0  0  0  0  0  0  0  0  0  0  0
    1.4986    0.6220   -4.1687 H   0  0  0  0  0  0  0  0  0  0  0  0
    0.9469   -0.6043   -2.9885 H   0  0  0  0  0  0  0  0  0  0  0  0
    1.9827    0.3681    4.6414 H   0  0  0  0  0  0  0  0  0  0  0  0
    2.3134   -4.2004   -1.7316 H   0  0  0  0  0  0  0  0  0  0  0  0
    1.0763    3.1459   -3.3550 H   0  0  0  0  0  0  0  0  0  0  0  0
  1  7  1  0  0  0  0
  2  1  1  0  0  0  0
  2  9  1  0  0  0  0
  3  4  1  0  0  0  0
  4 18  1  0  0  0  0
  5  6  1  0  0  0  0
  5 18  1  0  0  0  0
  7  8  1  0  0  0  0
  7 10  1  1  0  0  0
  8 42  1  0  0  0  0
  9  8  2  0  0  0  0
 10 11  1  0  0  0  0
 10 12  1  0  0  0  0
 13 10  1  0  0  0  0
 14  9  1  0  0  0  0
 14 16  1  0  0  0  0
 15 14  1  0  0  0  0
 17 14  1  0  0  0  0
 18 19  1  6  0  0  0
 18  2  1  0  0  0  0
 20 23  1  1  0  0  0
 20  3  1  0  0  0  0
 21 20  1  0  0  0  0
 21 22  2  0  0  0  0
 22  4  1  0  0  0  0
 23 24  1  0  0  0  0
 25 23  1  0  0  0  0
 26 23  1  0  0  0  0
 27 22  1  0  0  0  0
 27 30  1  0  0  0  0
 28 27  1  0  0  0  0
 29 27  1  0  0  0  0
 31 34  1  0  0  0  0
 31  6  2  0  0  0  0
 32 33  2  0  0  0  0
 32 31  1  0  0  0  0
 33  5  1  0  0  0  0
 34 35  1  0  0  0  0
 36 34  1  0  0  0  0
 37 34  1  0  0  0  0
 38 39  1  0  0  0  0
 38 41  1  0  0  0  0
 38 33  1  0  0  0  0
 40 38  1  0  0  0  0
 43 21  1  0  0  0  0
 44 32  1  0  0  0  0
M  END
