26,27
q = 0.0, confidence = 0.998

 29 30  0  0  0  0  0  0  0  0999 V2000
    1.4879    2.6384   -0.0858 C   0  0  0  0  0  0  0  0  0  0  0  0
    2.5852    2.6841    0.0322 H   0  0  0  0  0  0  0  0  0  0  0  0
    0.6778    3.7572   -0.2935 C   0  0  0  0  0  0  0  0  0  0  0  0
    1.1341    4.7566   -0.3276 H   0  0  0  0  0  0  0  0  0  0  0  0
   -0.6985    3.5683   -0.4804 C   0  0  0  0  0  0  0  0  0  0  0  0
   -1.3637    4.4208   -0.6810 H   0  0  0  0  0  0  0  0  0  0  0  0
   -1.2255    2.2752   -0.4095 C   0  0  0  0  0  0  0  0  0  0  0  0
   -2.2983    2.1210   -0.5513 H   0  0  0  0  0  0  0  0  0  0  0  0
   -0.3748    1.1842   -0.1510 C   0  0  0  0  0  0  0  0  0  0  0  0
   -0.7848   -0.2357   -0.0745 C   0  0  0  0  0  0  0  0  0  0  0  0
   -2.1083   -0.7513    0.0208 C   0  0  0  0  0  0  0  0  0  0  0  0
   -2.2999   -2.1408   -0.1133 C   0  0  0  0  0  0  0  0  0  0  0  0
   -3.3235   -2.5357   -0.0636 H   0  0  0  0  0  0  0  0  0  0  0  0
   -1.2032   -2.9934   -0.2658 C   0  0  0  0  0  0  0  0  0  0  0  0
   -1.3296   -4.0803   -0.3670 H   0  0  0  0  0  0  0  0  0  0  0  0
    0.0774   -2.4418   -0.2402 C   0  0  0  0  0  0  0  0  0  0  0  0
    1.0109   -3.0328   -0.2786 H   0  0  0  0  0  0  0  0  0  0  0  0
   -3.3062    0.0635    0.4240 C   0  0  0  0  0  0  0  0  0  0  0  0
   -5.6745    0.1833    0.3171 C   0  0  0  0  0  0  0  0  0  0  0  0
   -5.7372    0.1362    1.4247 H   0  0  0  0  0  0  0  0  0  0  0  0
   -5.6276    1.2590    0.0460 H   0  0  0  0  0  0  0  0  0  0  0  0
   -6.8207   -0.5344   -0.3620 C   0  0  0  0  0  0  0  0  0  0  0  0
   -7.7816   -0.0680   -0.0685 H   0  0  0  0  0  0  0  0  0  0  0  0
   -6.8538   -1.6028   -0.0702 H   0  0  0  0  0  0  0  0  0  0  0  0
   -6.7309   -0.4769   -1.4647 H   0  0  0  0  0  0  0  0  0  0  0  0
    0.2704   -1.1097   -0.1503 N   0  0  0  0  0  2  0  0  0  0  0  0
    0.9769    1.3908   -0.0347 N   0  0  0  0  0  2  0  0  0  0  0  0
   -4.4406   -0.4501   -0.1017 O   0  0  0  0  0  0  0  0  0  0  0  0
   -3.2858    1.0207    1.1775 O   0  0  0  0  0  0  0  0  0  0  0  0
  1 27  1  0  0  0  0
  1  2  1  0  0  0  0
  3  1  2  0  0  0  0
  4  3  1  0  0  0  0
  5  7  2  0  0  0  0
  5  3  1  0  0  0  0
  6  5  1  0  0  0  0
  7  9  1  0  0  0  0
  8  7  1  0  0  0  0
  9 10  2  0  0  0  0
  9 27  1  0  0  0  0
 10 11  1  0  0  0  0
 11 18  1  0  0  0  0
 12 13  1  0  0  0  0
 12 11  2  0  0  0  0
 14 16  2  0  0  0  0
 14 12  1  0  0  0  0
 15 14  1  0  0  0  0
 16 26  1  0  0  0  0
 17 16  1  0  0  0  0
 18 29  2  0  0  0  0
 19 20  1  0  0  0  0
 21 19  1  0  0  0  0
 22 24  1  0  0  0  0
 22 23  1  0  0  0  0
 22 19  1  0  0  0  0
 25 22  1  0  0  0  0
 26 10  1  0  0  0  0
 28 19  1  0  0  0  0
 28 18  1  0  0  0  0
M  END
