1,2
q = 0.0, confidence = 0.992

 24 25  0  0  1  0  0  0  0  0999 V2000
    0.4109    1.4573   -0.2025 N   0  0  0  0  0  2  0  0  0  0  0  0
    0.5260   -1.4070   -0.2230 N   0  0  0  0  0  2  0  0  0  0  0  0
    3.1773    0.0645    1.7643 O   0  0  0  0  0  0  0  0  0  0  0  0
    0.1187    2.5628   -0.9361 C   0  0  0  0  0  3  0  0  0  0  0  0
   -0.9300    2.6429   -1.2579 H   0  0  0  0  0  0  0  0  0  0  0  0
    1.0856    3.5305   -1.2176 C   0  0  0  0  0  0  0  0  0  0  0  0
    0.8053    4.4082   -1.8169 H   0  0  0  0  0  0  0  0  0  0  0  0
    2.3917    3.3587   -0.7358 C   0  0  0  0  0  0  0  0  0  0  0  0
    3.1752    4.0992   -0.9547 H   0  0  0  0  0  0  0  0  0  0  0  0
    2.6794    2.2257    0.0373 C   0  0  0  0  0  0  0  0  0  0  0  0
    3.6766    2.0327    0.4555 H   0  0  0  0  0  0  0  0  0  0  0  0
    1.6634    1.3004    0.2985 C   0  0  0  0  0  0  0  0  0  0  0  0
    1.7551   -1.1895    0.3134 C   0  0  2  0  0  3  0  0  0  0  0  0
    2.8191   -2.0725    0.1017 C   0  0  0  0  0  0  0  0  0  0  0  0
    3.7846   -1.8472    0.5724 H   0  0  0  0  0  0  0  0  0  0  0  0
    2.6096   -3.2161   -0.6805 C   0  0  0  0  0  0  0  0  0  0  0  0
    3.4306   -3.9258   -0.8605 H   0  0  0  0  0  0  0  0  0  0  0  0
    1.3343   -3.4418   -1.2183 C   0  0  0  0  0  0  0  0  0  0  0  0
    1.1171   -4.3291   -1.8295 H   0  0  0  0  0  0  0  0  0  0  0  0
    0.3139   -2.5215   -0.9697 C   0  0  0  0  0  0  0  0  0  0  0  0
   -0.7183   -2.6547   -1.3244 H   0  0  0  0  0  0  0  0  0  0  0  0
    1.9028    0.0622    1.1617 C   0  0  1  0  0  0  0  0  0  0  0  0
    3.1305    0.6387    2.5492 H   0  0  0  0  0  0  0  0  0  0  0  0
    1.0683    0.0290    1.9075 H   0  0  0  0  0  0  0  0  0  0  0  0
  1 12  1  0  0  0  0
  2 13  1  0  0  0  0
  3 23  1  0  0  0  0
  4  1  1  0  0  0  0
  5  4  1  0  0  0  0
  6  4  1  0  0  0  0
  6  8  2  0  0  0  0
  7  6  1  0  0  0  0
  8 10  1  0  0  0  0
  9  8  1  0  0  0  0
 10 12  2  0  0  0  0
 10 11  1  0  0  0  0
 12 22  1  0  0  0  0
 13 22  1  1  0  0  0
 14 13  1  0  0  0  0
 14 15  1  0  0  0  0
 16 14  2  0  0  0  0
 17 16  1  0  0  0  0
 18 20  2  0  0  0  0
 18 16  1  0  0  0  0
 19 18  1  0  0  0  0
 20  2  1  0  0  0  0
 21 20  1  0  0  0  0
 22  3  1  0  0  0  0
 22 24  1  1  0  0  0
M  END
