1,2
q = 0.0, confidence = 0.846

 19 18  0  0  1  0  0  0  0  0999 V2000
    1.4053   -0.5073    1.3539 N   0  0  0  0  0  2  0  0  0  0  0  0
    1.3746   -0.7360   -1.1462 N   0  0  0  0  0  2  0  0  0  0  0  0
    1.2011   -0.3143    2.6561 O   0  0  0  0  0  0  0  0  0  0  0  0
    1.3753   -0.7264   -2.3826 O   0  0  0  0  0  1  0  0  0  0  0  0
    2.6238   -0.7567    0.9570 C   0  0  1  0  0  3  0  0  0  0  0  0
    2.7761   -0.9054   -0.5313 C   0  0  0  0  0  0  0  0  0  0  0  0
    3.7569   -0.8594    1.9257 C   0  0  0  0  0  0  0  0  0  0  0  0
    3.6655    0.2042   -1.1143 C   0  0  0  0  0  0  0  0  0  0  0  0
    3.2711   -2.3033   -0.9313 C   0  0  0  0  0  0  0  0  0  0  0  0
    4.7034    0.1111   -0.7389 H   0  0  0  0  0  0  0  0  0  0  0  0
    4.3062   -2.4724   -0.5752 H   0  0  0  0  0  0  0  0  0  0  0  0
    3.6701    0.1253   -2.2187 H   0  0  0  0  0  0  0  0  0  0  0  0
    2.6133   -3.0835   -0.5002 H   0  0  0  0  0  0  0  0  0  0  0  0
    3.2766    1.2018   -0.8279 H   0  0  0  0  0  0  0  0  0  0  0  0
    3.9918    0.1342    2.3657 H   0  0  0  0  0  0  0  0  0  0  0  0
    4.6730   -1.2583    1.4519 H   0  0  0  0  0  0  0  0  0  0  0  0
    3.4667   -1.5071    2.7783 H   0  0  0  0  0  0  0  0  0  0  0  0
    3.2528   -2.3909   -2.0350 H   0  0  0  0  0  0  0  0  0  0  0  0
    0.0571   -0.2690    2.7366 H   0  0  0  0  0  0  0  0  0  0  0  0
  1  3  1  0  0  0  0
  2  6  1  0  0  0  0
  3 19  1  0  0  0  0
  4  2  1  0  0  0  0
  5  1  1  6  0  0  0
  5  7  1  0  0  0  0
  6  5  1  0  0  0  0
  7 15  1  0  0  0  0
  7 17  1  0  0  0  0
  8 14  1  0  0  0  0
  8 10  1  0  0  0  0
  8  6  1  0  0  0  0
  9 11  1  0  0  0  0
  9  6  1  0  0  0  0
  9 13  1  0  0  0  0
 12  8  1  0  0  0  0
 16  7  1  0  0  0  0
 18  9  1  0  0  0  0
M  END
