5,6
q = -1.0, confidence = 0.0

 27 28  0  0  1  0  0  0  0  0999 V2000
    2.4848   -1.0488   -2.9864 S   0  0  0  0  0  0  0  0  0  0  0  0
   -2.7942    1.3924    0.1500 O   0  0  0  0  0  0  0  0  0  0  0  0
   -4.3045    1.3495   -1.5423 O   0  0  0  0  0  0  0  0  0  0  0  0
   -0.0374   -0.1183   -2.5625 N   0  0  0  0  0  0  0  0  0  0  0  0
   -0.8877    0.3748   -1.6594 N   0  0  0  0  0  2  0  0  0  0  0  0
    1.5327    0.0113   -0.7854 N   0  0  0  0  0  2  0  0  0  0  0  0
    1.1860   -0.3079   -2.0326 C   0  0  0  0  0  0  0  0  0  0  0  0
    2.8324   -0.3300   -0.4932 C   0  0  0  0  0  0  0  0  0  0  0  0
    3.4856   -0.1517    0.7439 C   0  0  0  0  0  0  0  0  0  0  0  0
    4.8207   -0.5527    0.8693 C   0  0  0  0  0  0  0  0  0  0  0  0
    5.5147   -1.1272   -0.2167 C   0  0  0  0  0  0  0  0  0  0  0  0
    4.8808   -1.3192   -1.4546 C   0  0  0  0  0  0  0  0  0  0  0  0
    3.5430   -0.9230   -1.5841 C   0  0  0  0  0  0  0  0  0  0  0  0
   -2.1135    0.6942   -2.0614 C   0  0  1  0  0  3  0  0  0  0  0  0
   -2.4991    0.5236   -3.4971 C   0  0  0  0  0  0  0  0  0  0  0  0
   -3.0535    1.1708   -1.0278 C   0  0  0  0  0  0  0  0  0  0  0  0
   -5.2782    1.8086   -0.6039 C   0  0  0  0  0  0  0  0  0  0  0  0
    2.9308    0.2865    1.5863 H   0  0  0  0  0  0  0  0  0  0  0  0
    5.3365   -0.4202    1.8323 H   0  0  0  0  0  0  0  0  0  0  0  0
    6.5639   -1.4343   -0.0944 H   0  0  0  0  0  0  0  0  0  0  0  0
    5.4202   -1.7736   -2.2985 H   0  0  0  0  0  0  0  0  0  0  0  0
   -3.5034    0.9346   -3.6901 H   0  0  0  0  0  0  0  0  0  0  0  0
   -1.7466    1.0106   -4.1505 H   0  0  0  0  0  0  0  0  0  0  0  0
   -2.4826   -0.5520   -3.7784 H   0  0  0  0  0  0  0  0  0  0  0  0
   -4.9794    2.7823   -0.1643 H   0  0  0  0  0  0  0  0  0  0  0  0
   -6.2227    1.9129   -1.1673 H   0  0  0  0  0  0  0  0  0  0  0  0
   -5.4017    1.0841    0.2269 H   0  0  0  0  0  0  0  0  0  0  0  0
  1  7  1  0  0  0  0
  1 13  1  0  0  0  0
  3 16  1  0  0  0  0
  3 17  1  0  0  0  0
  4  7  2  0  0  0  0
  4  5  1  0  0  0  0
  6  8  1  0  0  0  0
  7  6  1  0  0  0  0
  8  9  1  0  0  0  0
  9 10  2  0  0  0  0
  9 18  1  0  0  0  0
 10 19  1  0  0  0  0
 11 20  1  0  0  0  0
 11 10  1  0  0  0  0
 12 11  2  0  0  0  0
 13 12  1  0  0  0  0
 13  8  2  0  0  0  0
 14  5  1  1  0  0  0
 14 16  1  0  0  0  0
 15 14  1  0  0  0  0
 16  2  2  0  0  0  0
 17 25  1  0  0  0  0
 17 27  1  0  0  0  0
 21 12  1  0  0  0  0
 22 15  1  0  0  0  0
 23 15  1  0  0  0  0
 24 15  1  0  0  0  0
 26 17  1  0  0  0  0
M  END
