3,4
q = 0.0, confidence = 0.994

 29 31  0  0  1  0  0  0  0  0999 V2000
    2.0735    0.4667   -1.3249 O   0  0  0  0  0  0  0  0  0  0  0  0
    4.0405    0.4251   -0.1769 O   0  0  0  0  0  0  0  0  0  0  0  0
    1.2300   -1.8987    0.1149 N   0  0  0  0  0  2  0  0  0  0  0  0
    0.6787    0.6788    1.2500 N   0  0  0  0  0  2  0  0  0  0  0  0
    1.0185   -3.2250    0.2521 C   0  0  0  0  0  3  0  0  0  0  0  0
    2.0770   -4.1330    0.3727 C   0  0  0  0  0  0  0  0  0  0  0  0
    3.3931   -3.6532    0.3298 C   0  0  0  0  0  0  0  0  0  0  0  0
    3.6079   -2.2778    0.1692 C   0  0  0  0  0  0  0  0  0  0  0  0
    2.4965   -1.4318    0.0655 C   0  0  0  0  0  0  0  0  0  0  0  0
    2.6624    0.0784   -0.0973 C   0  0  0  0  0  0  0  0  0  0  0  0
    2.0207    0.8053    1.1006 C   0  0  2  0  0  3  0  0  0  0  0  0
    2.7995    1.5303    2.0100 C   0  0  0  0  0  0  0  0  0  0  0  0
    2.1728    2.1447    3.1042 C   0  0  0  0  0  0  0  0  0  0  0  0
    0.7889    2.0060    3.2500 C   0  0  0  0  0  0  0  0  0  0  0  0
    0.0658    1.2727    2.3000 C   0  0  0  0  0  0  0  0  0  0  0  0
    2.7835    1.6400   -1.7132 C   0  0  0  0  0  0  0  0  0  0  0  0
    4.2184    1.2823   -1.3155 C   0  0  0  0  0  0  0  0  0  0  0  0
   -0.0360   -3.5396    0.2323 H   0  0  0  0  0  0  0  0  0  0  0  0
    1.8597   -5.2036    0.4944 H   0  0  0  0  0  0  0  0  0  0  0  0
    4.2462   -4.3428    0.4163 H   0  0  0  0  0  0  0  0  0  0  0  0
    4.6118   -1.8375    0.1169 H   0  0  0  0  0  0  0  0  0  0  0  0
    3.8818    1.5920    1.8397 H   0  0  0  0  0  0  0  0  0  0  0  0
    2.7633    2.7221    3.8315 H   0  0  0  0  0  0  0  0  0  0  0  0
    0.2475    2.4666    4.0881 H   0  0  0  0  0  0  0  0  0  0  0  0
   -1.0325    1.1546    2.3559 H   0  0  0  0  0  0  0  0  0  0  0  0
    2.4118    2.5320   -1.1592 H   0  0  0  0  0  0  0  0  0  0  0  0
    2.6300    1.7916   -2.7976 H   0  0  0  0  0  0  0  0  0  0  0  0
    4.8285    2.1609   -1.0222 H   0  0  0  0  0  0  0  0  0  0  0  0
    4.7451    0.7246   -2.1205 H   0  0  0  0  0  0  0  0  0  0  0  0
  1 10  1  0  0  0  0
  2 10  1  0  0  0  0
  3  5  1  0  0  0  0
  4 15  1  0  0  0  0
  5  6  1  0  0  0  0
  6 19  1  0  0  0  0
  7  6  2  0  0  0  0
  7 20  1  0  0  0  0
  8  7  1  0  0  0  0
  9  3  1  0  0  0  0
  9  8  2  0  0  0  0
 10  9  1  0  0  0  0
 11 10  1  1  0  0  0
 11  4  1  0  0  0  0
 11 12  1  0  0  0  0
 12 13  2  0  0  0  0
 13 14  1  0  0  0  0
 13 23  1  0  0  0  0
 14 24  1  0  0  0  0
 15 25  1  0  0  0  0
 15 14  2  0  0  0  0
 16  1  1  0  0  0  0
 16 17  1  0  0  0  0
 16 26  1  0  0  0  0
 17 28  1  0  0  0  0
 17  2  1  0  0  0  0
 18  5  1  0  0  0  0
 21  8  1  0  0  0  0
 22 12  1  0  0  0  0
 27 16  1  0  0  0  0
 29 17  1  0  0  0  0
M  END
