1,30
q = 0.0, confidence = 0.988

 52 54  0  0  1  0  0  0  0  0999 V2000
    1.7068   -0.5599   -0.7065 N   0  0  0  0  0  2  0  0  0  0  0  0
    2.2013    0.5969   -1.2051 N   0  0  0  0  0  0  0  0  0  0  0  0
    3.5652    0.5480   -1.3481 C   0  0  1  0  0  3  0  0  0  0  0  0
    3.9505   -0.7118   -0.8902 C   0  0  0  0  0  0  0  0  0  0  0  0
    4.9714   -1.1058   -0.8513 H   0  0  0  0  0  0  0  0  0  0  0  0
    2.7569   -1.3709   -0.4906 C   0  0  0  0  0  0  0  0  0  0  0  0
    4.3779    1.6574   -1.9339 C   0  0  0  0  0  0  0  0  0  0  0  0
    4.1396    1.8265   -3.0050 H   0  0  0  0  0  0  0  0  0  0  0  0
    5.4517    1.4033   -1.8664 H   0  0  0  0  0  0  0  0  0  0  0  0
    4.2292    2.6238   -1.4074 H   0  0  0  0  0  0  0  0  0  0  0  0
    2.5972   -2.7212    0.1256 C   0  0  0  0  0  0  0  0  0  0  0  0
    2.8812   -2.6870    1.1986 H   0  0  0  0  0  0  0  0  0  0  0  0
    3.2517   -3.4626   -0.3727 H   0  0  0  0  0  0  0  0  0  0  0  0
    1.5464   -3.0679    0.0719 H   0  0  0  0  0  0  0  0  0  0  0  0
    0.3586    1.9297   -0.4739 N   0  0  0  0  0  0  0  0  0  0  0  0
    0.5123    0.3076    2.0012 N   0  0  0  0  0  0  0  0  0  0  0  0
    1.3787    1.2818    1.6333 N   0  0  0  0  0  0  0  0  0  0  0  0
    2.6263    1.1230    2.1894 C   0  0  0  0  0  0  0  0  0  0  0  0
    2.5406   -0.0325    2.9655 C   0  0  0  0  0  0  0  0  0  0  0  0
    3.3438   -0.4746    3.5649 H   0  0  0  0  0  0  0  0  0  0  0  0
    1.2065   -0.5043    2.8190 C   0  0  0  0  0  0  0  0  0  0  0  0
    3.7733    2.0524    1.9614 C   0  0  0  0  0  0  0  0  0  0  0  0
    4.0805    2.0805    0.8957 H   0  0  0  0  0  0  0  0  0  0  0  0
    4.6471    1.7071    2.5441 H   0  0  0  0  0  0  0  0  0  0  0  0
    3.5514    3.0926    2.2807 H   0  0  0  0  0  0  0  0  0  0  0  0
    0.5718   -1.7020    3.4508 C   0  0  0  0  0  0  0  0  0  0  0  0
   -0.2222   -1.3993    4.1643 H   0  0  0  0  0  0  0  0  0  0  0  0
    1.3223   -2.2969    4.0044 H   0  0  0  0  0  0  0  0  0  0  0  0
    0.0907   -2.3466    2.6844 H   0  0  0  0  0  0  0  0  0  0  0  0
   -2.1876    0.8088    0.3588 N   0  0  0  0  0  2  0  0  0  0  0  0
   -1.9573    2.1159    0.0926 N   0  0  0  0  0  0  0  0  0  0  0  0
   -2.8059    2.9348    0.7984 C   0  0  2  0  0  3  0  0  0  0  0  0
   -3.6150    2.0855    1.5507 C   0  0  0  0  0  0  0  0  0  0  0  0
   -4.4129    2.3873    2.2374 H   0  0  0  0  0  0  0  0  0  0  0  0
   -3.1910    0.7622    1.2497 C   0  0  0  0  0  0  0  0  0  0  0  0
   -2.7961    4.4255    0.6938 C   0  0  0  0  0  0  0  0  0  0  0  0
   -1.8068    4.8621    0.9465 H   0  0  0  0  0  0  0  0  0  0  0  0
   -3.5348    4.8486    1.3989 H   0  0  0  0  0  0  0  0  0  0  0  0
   -3.0651    4.7773   -0.3242 H   0  0  0  0  0  0  0  0  0  0  0  0
   -3.7142   -0.5302    1.7847 C   0  0  0  0  0  0  0  0  0  0  0  0
   -3.0857   -1.3832    1.4607 H   0  0  0  0  0  0  0  0  0  0  0  0
   -4.7510   -0.7104    1.4333 H   0  0  0  0  0  0  0  0  0  0  0  0
   -3.7392   -0.5123    2.8928 H   0  0  0  0  0  0  0  0  0  0  0  0
    0.8991    2.3709    0.7968 C   0  0  0  0  0  0  0  0  0  0  0  0
    1.7482    3.0795    0.6686 H   0  0  0  0  0  0  0  0  0  0  0  0
    0.0892    2.8955    1.3445 H   0  0  0  0  0  0  0  0  0  0  0  0
    1.2973    1.6889   -1.5473 C   0  0  0  0  0  0  0  0  0  0  0  0
    0.7070    1.4046   -2.4496 H   0  0  0  0  0  0  0  0  0  0  0  0
    1.9444    2.5678   -1.7779 H   0  0  0  0  0  0  0  0  0  0  0  0
   -0.9265    2.4858   -0.8628 C   0  0  0  0  0  0  0  0  0  0  0  0
   -0.9398    3.5981   -0.9272 H   0  0  0  0  0  0  0  0  0  0  0  0
   -1.1795    2.0527   -1.8580 H   0  0  0  0  0  0  0  0  0  0  0  0
  1  6  1  0  0  0  0
  2  1  1  0  0  0  0
  3  7  1  6  0  0  0
  3  2  1  0  0  0  0
  3  4  1  0  0  0  0
  4  5  1  0  0  0  0
  4  6  2  0  0  0  0
  6 11  1  0  0  0  0
  7  9  1  0  0  0  0
  7 10  1  0  0  0  0
  8  7  1  0  0  0  0
 11 12  1  0  0  0  0
 13 11  1  0  0  0  0
 14 11  1  0  0  0  0
 15 44  1  0  0  0  0
 16 21  2  0  0  0  0
 17 16  1  0  0  0  0
 17 18  1  0  0  0  0
 18 19  2  0  0  0  0
 19 20  1  0  0  0  0
 21 19  1  0  0  0  0
 21 26  1  0  0  0  0
 22 18  1  0  0  0  0
 22 25  1  0  0  0  0
 22 24  1  0  0  0  0
 23 22  1  0  0  0  0
 26 28  1  0  0  0  0
 26 27  1  0  0  0  0
 29 26  1  0  0  0  0
 30 35  1  0  0  0  0
 31 30  1  0  0  0  0
 31 32  1  0  0  0  0
 32 36  1  6  0  0  0
 32 33  1  0  0  0  0
 33 34  1  0  0  0  0
 35 33  2  0  0  0  0
 35 40  1  0  0  0  0
 36 37  1  0  0  0  0
 36 38  1  0  0  0  0
 39 36  1  0  0  0  0
 40 43  1  0  0  0  0
 41 40  1  0  0  0  0
 42 40  1  0  0  0  0
 44 46  1  0  0  0  0
 44 17  1  0  0  0  0
 45 44  1  0  0  0  0
 47  2  1  0  0  0  0
 47 15  1  0  0  0  0
 48 47  1  0  0  0  0
 49 47  1  0  0  0  0
 50 15  1  0  0  0  0
 50 31  1  0  0  0  0
 51 50  1  0  0  0  0
 52 50  1  0  0  0  0
M  END
