1,4
q = 0.0, confidence = 0.57

 26 27  0  0  0  0  0  0  0  0999 V2000
   -1.1529    0.3000   -0.5432 N   0  0  0  0  0  0  0  0  0  0  0  0
   -0.6331    1.2102   -1.3904 N   0  0  0  0  0  0  0  0  0  0  0  0
    0.6480    1.2091   -1.3862 N   0  0  0  0  0  0  0  0  0  0  0  0
    1.1621    0.2998   -0.5324 N   0  0  0  0  0  0  0  0  0  0  0  0
   -3.3447   -0.7749   -0.8140 C   0  0  0  0  0  0  0  0  0  0  0  0
   -4.7406   -0.7604   -0.6655 C   0  0  0  0  0  0  0  0  0  0  0  0
   -5.3778    0.3943   -0.1786 C   0  0  0  0  0  0  0  0  0  0  0  0
   -4.6137    1.5159    0.1892 C   0  0  0  0  0  0  0  0  0  0  0  0
   -3.2170    1.4864    0.0472 C   0  0  0  0  0  0  0  0  0  0  0  0
   -2.5604    0.3359   -0.4421 C   0  0  0  0  0  0  0  0  0  0  0  0
    3.3339   -0.8276   -0.6673 C   0  0  0  0  0  0  0  0  0  0  0  0
    4.7314   -0.8159   -0.5387 C   0  0  0  0  0  0  0  0  0  0  0  0
    5.3892    0.3749   -0.1841 C   0  0  0  0  0  0  0  0  0  0  0  0
    4.6447    1.5446    0.0479 C   0  0  0  0  0  0  0  0  0  0  0  0
    3.2457    1.5206   -0.0736 C   0  0  0  0  0  0  0  0  0  0  0  0
    2.5681    0.3342   -0.4346 C   0  0  0  0  0  0  0  0  0  0  0  0
   -2.7675   -1.8763   -1.3095 F   0  0  0  0  0  0  0  0  0  0  0  0
   -5.4675   -1.8241   -1.0168 F   0  0  0  0  0  0  0  0  0  0  0  0
   -6.7041    0.4190   -0.0483 F   0  0  0  0  0  0  0  0  0  0  0  0
   -5.2211    2.6035    0.6686 F   0  0  0  0  0  0  0  0  0  0  0  0
   -2.5084    2.5491    0.4259 F   0  0  0  0  0  0  0  0  0  0  0  0
    2.7373   -1.9693   -1.0294 F   0  0  0  0  0  0  0  0  0  0  0  0
    5.4394   -1.9248   -0.7688 F   0  0  0  0  0  0  0  0  0  0  0  0
    6.7168    0.3936   -0.0653 F   0  0  0  0  0  0  0  0  0  0  0  0
    5.2710    2.6696    0.3994 F   0  0  0  0  0  0  0  0  0  0  0  0
    2.5614    2.6318    0.1915 F   0  0  0  0  0  0  0  0  0  0  0  0
  1 10  1  0  0  0  0
  2  3  2  0  0  0  0
  2  1  1  0  0  0  0
  3  4  1  0  0  0  0
  4 16  1  0  0  0  0
  5  6  2  0  0  0  0
  5 10  1  0  0  0  0
  6  7  1  0  0  0  0
  7 19  1  0  0  0  0
  7  8  2  0  0  0  0
  8 20  1  0  0  0  0
  9  8  1  0  0  0  0
  9 21  1  0  0  0  0
 10  9  2  0  0  0  0
 11 12  2  0  0  0  0
 11 16  1  0  0  0  0
 12 13  1  0  0  0  0
 13 24  1  0  0  0  0
 13 14  2  0  0  0  0
 14 25  1  0  0  0  0
 15 14  1  0  0  0  0
 15 26  1  0  0  0  0
 16 15  2  0  0  0  0
 17  5  1  0  0  0  0
 18  6  1  0  0  0  0
 22 11  1  0  0  0  0
 23 12  1  0  0  0  0
M  END
