1,2
q = -1.0, confidence = 0.0

 44 46  0  0  1  0  0  0  0  0999 V2000
   -1.5402   -0.7885   -0.4531 N   0  0  0  0  0  2  0  0  0  0  0  0
    0.6376   -1.1565   -0.4228 N   0  0  0  0  0  2  0  0  0  0  0  0
   -0.5955   -1.7118   -0.6902 C   0  0  2  0  0  3  0  0  0  0  0  0
   -0.7036   -3.0392   -1.1871 C   0  0  0  0  0  0  0  0  0  0  0  0
   -1.6936   -3.4559   -1.4171 H   0  0  0  0  0  0  0  0  0  0  0  0
    0.4755   -3.7473   -1.3986 C   0  0  0  0  0  0  0  0  0  0  0  0
    0.4316   -4.7759   -1.7895 H   0  0  0  0  0  0  0  0  0  0  0  0
    1.7296   -3.1589   -1.1210 C   0  0  0  0  0  0  0  0  0  0  0  0
    2.6673   -3.7138   -1.2594 H   0  0  0  0  0  0  0  0  0  0  0  0
    1.7794   -1.8424   -0.6324 C   0  0  0  0  0  0  0  0  0  0  0  0
    3.0820   -1.2277   -0.2301 C   0  0  0  0  0  0  0  0  0  0  0  0
    3.8182   -0.4275   -1.1396 C   0  0  0  0  0  0  0  0  0  0  0  0
    5.0442    0.1187   -0.7063 C   0  0  0  0  0  0  0  0  0  0  0  0
    5.6213    0.7469   -1.4029 H   0  0  0  0  0  0  0  0  0  0  0  0
    5.5410   -0.1434    0.5777 C   0  0  0  0  0  0  0  0  0  0  0  0
    6.5045    0.2856    0.8933 H   0  0  0  0  0  0  0  0  0  0  0  0
    4.8154   -0.9593    1.4560 C   0  0  0  0  0  0  0  0  0  0  0  0
    5.2046   -1.1697    2.4646 H   0  0  0  0  0  0  0  0  0  0  0  0
    3.5776   -1.5068    1.0691 C   0  0  0  0  0  0  0  0  0  0  0  0
    3.3128   -0.1860   -2.5353 C   0  0  0  0  0  0  0  0  0  0  0  0
    3.1516   -1.1461   -3.0679 H   0  0  0  0  0  0  0  0  0  0  0  0
    4.0288    0.4201   -3.1229 H   0  0  0  0  0  0  0  0  0  0  0  0
    2.3269    0.3285   -2.5321 H   0  0  0  0  0  0  0  0  0  0  0  0
    2.7798   -2.3586    2.0263 C   0  0  0  0  0  0  0  0  0  0  0  0
    1.7478   -1.9679    2.1462 H   0  0  0  0  0  0  0  0  0  0  0  0
    3.2583   -2.4026    3.0235 H   0  0  0  0  0  0  0  0  0  0  0  0
    2.6670   -3.3962    1.6503 H   0  0  0  0  0  0  0  0  0  0  0  0
   -2.8936   -1.0075   -0.1989 C   0  0  0  0  0  0  0  0  0  0  0  0
   -3.2955   -1.8603    0.8752 C   0  0  0  0  0  0  0  0  0  0  0  0
   -4.6690   -2.0101    1.1435 C   0  0  0  0  0  0  0  0  0  0  0  0
   -4.9793   -2.6670    1.9720 H   0  0  0  0  0  0  0  0  0  0  0  0
   -5.6349   -1.3274    0.3923 C   0  0  0  0  0  0  0  0  0  0  0  0
   -6.7039   -1.4521    0.6219 H   0  0  0  0  0  0  0  0  0  0  0  0
   -5.2305   -0.4814   -0.6506 C   0  0  0  0  0  0  0  0  0  0  0  0
   -5.9852    0.0531   -1.2494 H   0  0  0  0  0  0  0  0  0  0  0  0
   -3.8716   -0.3072   -0.9647 C   0  0  0  0  0  0  0  0  0  0  0  0
   -2.2713   -2.5666    1.7248 C   0  0  0  0  0  0  0  0  0  0  0  0
   -2.7131   -2.9043    2.6823 H   0  0  0  0  0  0  0  0  0  0  0  0
   -1.4072   -1.9069    1.9406 H   0  0  0  0  0  0  0  0  0  0  0  0
   -1.8486   -3.4590    1.2152 H   0  0  0  0  0  0  0  0  0  0  0  0
   -3.4392    0.5873   -2.0904 C   0  0  0  0  0  0  0  0  0  0  0  0
   -4.3087    0.9665   -2.6608 H   0  0  0  0  0  0  0  0  0  0  0  0
   -2.7441    0.0663   -2.7785 H   0  0  0  0  0  0  0  0  0  0  0  0
   -2.8507    1.4528   -1.7236 H   0  0  0  0  0  0  0  0  0  0  0  0
  1 28  1  0  0  0  0
  3  1  1  6  0  0  0
  3  2  1  0  0  0  0
  4  3  1  0  0  0  0
  5  4  1  0  0  0  0
  6  4  2  0  0  0  0
  6  8  1  0  0  0  0
  7  6  1  0  0  0  0
  8 10  2  0  0  0  0
  9  8  1  0  0  0  0
 10  2  1  0  0  0  0
 10 11  1  0  0  0  0
 11 19  1  0  0  0  0
 12 13  1  0  0  0  0
 12 11  2  0  0  0  0
 13 15  2  0  0  0  0
 14 13  1  0  0  0  0
 15 16  1  0  0  0  0
 15 17  1  0  0  0  0
 17 18  1  0  0  0  0
 19 17  2  0  0  0  0
 19 24  1  0  0  0  0
 20 23  1  0  0  0  0
 20 12  1  0  0  0  0
 21 20  1  0  0  0  0
 22 20  1  0  0  0  0
 24 25  1  0  0  0  0
 24 26  1  0  0  0  0
 27 24  1  0  0  0  0
 28 29  1  0  0  0  0
 29 30  2  0  0  0  0
 29 37  1  0  0  0  0
 30 31  1  0  0  0  0
 32 33  1  0  0  0  0
 32 30  1  0  0  0  0
 34 32  2  0  0  0  0
 35 34  1  0  0  0  0
 36 34  1  0  0  0  0
 36 28  2  0  0  0  0
 37 39  1  0  0  0  0
 37 38  1  0  0  0  0
 40 37  1  0  0  0  0
 41 44  1  0  0  0  0
 41 36  1  0  0  0  0
 42 41  1  0  0  0  0
 43 41  1  0  0  0  0
M  END
