8,9
q = 0.0, confidence = 0.946

 80 85  0  0  1  0  0  0  0  0999 V2000
   -3.3230   -0.0262   -1.6611 S   0  0  0  0  0  0  0  0  0  0  0  0
    1.8980   -1.6578   -1.7492 Cl  0  0  0  0  0  0  0  0  0  0  0  0
   -1.3748   -3.3844    2.2334 Cl  0  0  0  0  0  0  0  0  0  0  0  0
   -2.0082    1.7134    0.3894 O   0  0  0  0  0  0  0  0  0  0  0  0
   -2.7459    1.1520   -2.3371 O   0  0  0  0  0  0  0  0  0  0  0  0
   -4.1469   -0.9958   -2.4142 O   0  0  0  0  0  0  0  0  0  0  0  0
   -7.9952    1.5761    1.2437 O   0  0  0  0  0  0  0  0  0  0  0  0
    5.2449   -0.9754    0.6956 N   0  0  0  0  0  2  0  0  0  0  0  0
    4.3679    1.2831   -0.5795 N   0  0  0  0  0  2  0  0  0  0  0  0
   -4.3178    0.3613   -0.3455 N   0  0  0  0  0  0  0  0  0  0  0  0
   -5.3044   -0.0063   -0.5349 H   0  0  0  0  0  0  0  0  0  0  0  0
   -6.8986    0.1679   -0.1477 N   0  0  0  0  0  0  0  0  0  0  0  0
    5.6035   -2.0856    1.3689 C   0  0  0  0  0  0  0  0  0  0  0  0
    6.8599   -2.1380    2.0234 C   0  0  0  0  0  0  0  0  0  0  0  0
    7.1303   -3.0525    2.5695 H   0  0  0  0  0  0  0  0  0  0  0  0
    7.7372   -1.0652    1.9496 C   0  0  0  0  0  0  0  0  0  0  0  0
    8.7229   -1.1088    2.4374 H   0  0  0  0  0  0  0  0  0  0  0  0
    7.3647    0.0970    1.2288 C   0  0  0  0  0  0  0  0  0  0  0  0
    8.2237    1.2397    1.0746 C   0  0  0  0  0  0  0  0  0  0  0  0
    9.2194    1.2089    1.5422 H   0  0  0  0  0  0  0  0  0  0  0  0
    7.8227    2.3384    0.3518 C   0  0  0  0  0  0  0  0  0  0  0  0
    8.4946    3.2016    0.2277 H   0  0  0  0  0  0  0  0  0  0  0  0
    6.5184    2.3892   -0.2474 C   0  0  0  0  0  0  0  0  0  0  0  0
    6.0321    3.4986   -0.9885 C   0  0  0  0  0  0  0  0  0  0  0  0
    6.6860    4.3696   -1.1505 H   0  0  0  0  0  0  0  0  0  0  0  0
    4.7357    3.4777   -1.4882 C   0  0  0  0  0  0  0  0  0  0  0  0
    4.3351    4.3316   -2.0546 H   0  0  0  0  0  0  0  0  0  0  0  0
    3.9070    2.3489   -1.2399 C   0  0  0  0  0  0  0  0  0  0  0  0
    5.6289    1.2800   -0.0999 C   0  0  0  0  0  0  0  0  0  0  0  0
    6.0748    0.1042    0.6198 C   0  0  0  0  0  0  0  0  0  0  0  0
    4.6489   -3.2366    1.3685 C   0  0  0  0  0  0  0  0  0  0  0  0
    4.4475   -3.5340    0.3181 H   0  0  0  0  0  0  0  0  0  0  0  0
    3.6830   -2.9093    1.8073 H   0  0  0  0  0  0  0  0  0  0  0  0
    5.0491   -4.0996    1.9329 H   0  0  0  0  0  0  0  0  0  0  0  0
    2.4475    2.3040   -1.5980 C   0  0  0  0  0  0  0  0  0  0  0  0
    2.2273    1.2649   -1.9174 H   0  0  0  0  0  0  0  0  0  0  0  0
    2.2203    2.9762   -2.4502 H   0  0  0  0  0  0  0  0  0  0  0  0
    1.5590    2.6460   -0.3797 C   0  0  0  0  0  0  0  0  0  0  0  0
    2.0310    2.2183    0.5301 H   0  0  0  0  0  0  0  0  0  0  0  0
    1.5201    3.7497   -0.2444 H   0  0  0  0  0  0  0  0  0  0  0  0
    0.1631    2.0451   -0.5234 C   0  0  0  0  0  0  0  0  0  0  0  0
    0.2647    0.9457   -0.4551 H   0  0  0  0  0  0  0  0  0  0  0  0
   -0.2842    2.2697   -1.5145 H   0  0  0  0  0  0  0  0  0  0  0  0
   -0.8136    2.4836    0.5521 C   0  0  0  0  0  0  0  0  0  0  0  0
   -0.3932    2.3123    1.5704 H   0  0  0  0  0  0  0  0  0  0  0  0
   -1.0495    3.5679    0.4560 H   0  0  0  0  0  0  0  0  0  0  0  0
   -3.1679    2.1498    0.9355 C   0  0  0  0  0  0  0  0  0  0  0  0
   -3.2612    3.1942    1.8689 C   0  0  0  0  0  0  0  0  0  0  0  0
   -2.3478    3.7056    2.1997 H   0  0  0  0  0  0  0  0  0  0  0  0
   -4.5053    3.5744    2.4055 C   0  0  0  0  0  0  0  0  0  0  0  0
   -4.5530    4.3922    3.1390 H   0  0  0  0  0  0  0  0  0  0  0  0
   -5.6640    2.9074    2.0178 C   0  0  0  0  0  0  0  0  0  0  0  0
   -6.6446    3.1784    2.4301 H   0  0  0  0  0  0  0  0  0  0  0  0
   -5.5971    1.8529    1.0764 C   0  0  0  0  0  0  0  0  0  0  0  0
   -4.3431    1.4582    0.5153 C   0  0  0  0  0  0  0  0  0  0  0  0
   -1.9745   -0.9660   -0.9118 C   0  0  0  0  0  0  0  0  0  0  0  0
   -0.7361   -0.9568   -1.5671 C   0  0  0  0  0  0  0  0  0  0  0  0
   -0.5834   -0.3479   -2.4678 H   0  0  0  0  0  0  0  0  0  0  0  0
    0.2986   -1.7077   -0.9990 C   0  0  0  0  0  0  0  0  0  0  0  0
    0.1319   -2.4590    0.1702 C   0  0  0  0  0  0  0  0  0  0  0  0
    0.9698   -3.0098    0.6117 H   0  0  0  0  0  0  0  0  0  0  0  0
   -1.1344   -2.4601    0.7776 C   0  0  0  0  0  0  0  0  0  0  0  0
   -2.1986   -1.7134    0.2497 C   0  0  0  0  0  0  0  0  0  0  0  0
   -3.1768   -1.6904    0.7480 H   0  0  0  0  0  0  0  0  0  0  0  0
   -6.8249    1.1555    0.6897 C   0  0  0  0  0  0  0  0  0  0  0  0
   -9.0036    0.6301    0.8105 C   0  0  0  0  0  0  0  0  0  0  0  0
   -9.8870    1.1983    0.4631 H   0  0  0  0  0  0  0  0  0  0  0  0
   -9.2937    0.0115    1.6886 H   0  0  0  0  0  0  0  0  0  0  0  0
   -8.3045   -0.2112   -0.2927 C   0  0  2  0  0  0  0  0  0  0  0  0
   -8.6456    0.1060   -1.3077 H   0  0  0  0  0  0  0  0  0  0  0  0
   -8.5188   -1.7328   -0.1877 C   0  0  0  0  0  0  0  0  0  0  0  0
   -8.1484   -2.0331    0.8198 H   0  0  0  0  0  0  0  0  0  0  0  0
   -7.7000   -2.4747   -1.2496 C   0  0  0  0  0  0  0  0  0  0  0  0
   -6.6248   -2.2158   -1.2010 H   0  0  0  0  0  0  0  0  0  0  0  0
   -8.0551   -2.2154   -2.2696 H   0  0  0  0  0  0  0  0  0  0  0  0
   -7.8019   -3.5721   -1.1295 H   0  0  0  0  0  0  0  0  0  0  0  0
  -10.0093   -2.0790   -0.2866 C   0  0  0  0  0  0  0  0  0  0  0  0
  -10.1668   -3.1727   -0.2008 H   0  0  0  0  0  0  0  0  0  0  0  0
  -10.4234   -1.7595   -1.2668 H   0  0  0  0  0  0  0  0  0  0  0  0
  -10.6124   -1.5950    0.5092 H   0  0  0  0  0  0  0  0  0  0  0  0
  1 56  1  0  0  0  0
  1 10  1  0  0  0  0
  2 59  1  0  0  0  0
  4 44  1  0  0  0  0
  4 47  1  0  0  0  0
  5  1  2  0  0  0  0
  6  1  2  0  0  0  0
  8 13  1  0  0  0  0
  9 29  1  0  0  0  0
 10 55  1  0  0  0  0
 11 10  1  0  0  0  0
 12 65  2  0  0  0  0
 13 14  2  0  0  0  0
 14 15  1  0  0  0  0
 16 14  1  0  0  0  0
 16 17  1  0  0  0  0
 18 16  2  0  0  0  0
 19 18  1  0  0  0  0
 19 20  1  0  0  0  0
 21 19  2  0  0  0  0
 22 21  1  0  0  0  0
 23 29  1  0  0  0  0
 23 21  1  0  0  0  0
 24 23  2  0  0  0  0
 25 24  1  0  0  0  0
 26 28  2  0  0  0  0
 26 24  1  0  0  0  0
 27 26  1  0  0  0  0
 28  9  1  0  0  0  0
 29 30  2  0  0  0  0
 30  8  1  0  0  0  0
 30 18  1  0  0  0  0
 31 13  1  0  0  0  0
 31 33  1  0  0  0  0
 31 34  1  0  0  0  0
 32 31  1  0  0  0  0
 35 28  1  0  0  0  0
 35 38  1  0  0  0  0
 36 35  1  0  0  0  0
 37 35  1  0  0  0  0
 38 40  1  0  0  0  0
 38 39  1  0  0  0  0
 41 42  1  0  0  0  0
 41 38  1  0  0  0  0
 41 44  1  0  0  0  0
 43 41  1  0  0  0  0
 44 45  1  0  0  0  0
 46 44  1  0  0  0  0
 47 48  1  0  0  0  0
 48 49  1  0  0  0  0
 48 50  2  0  0  0  0
 50 51  1  0  0  0  0
 52 50  1  0  0  0  0
 52 53  1  0  0  0  0
 54 52  2  0  0  0  0
 55 47  2  0  0  0  0
 55 54  1  0  0  0  0
 56 63  1  0  0  0  0
 57 59  1  0  0  0  0
 57 56  2  0  0  0  0
 58 57  1  0  0  0  0
 59 60  2  0  0  0  0
 60 61  1  0  0  0  0
 60 62  1  0  0  0  0
 62  3  1  0  0  0  0
 63 64  1  0  0  0  0
 63 62  2  0  0  0  0
 65 54  1  0  0  0  0
 65  7  1  0  0  0  0
 66  7  1  0  0  0  0
 66 68  1  0  0  0  0
 67 66  1  0  0  0  0
 69 70  1  6  0  0  0
 69 71  1  0  0  0  0
 69 12  1  0  0  0  0
 69 66  1  0  0  0  0
 71 72  1  0  0  0  0
 73 74  1  0  0  0  0
 73 76  1  0  0  0  0
 73 71  1  0  0  0  0
 75 73  1  0  0  0  0
 77 78  1  0  0  0  0
 77 71  1  0  0  0  0
 77 80  1  0  0  0  0
 79 77  1  0  0  0  0
M  END
