5,6
q = 0.0, confidence = 0.998

 38 39  0  0  0  0  0  0  0  0999 V2000
   -5.3315    2.9788    0.0002 O   0  0  0  0  0  0  0  0  0  0  0  0
   -5.4001    0.7059   -0.0004 O   0  0  0  0  0  0  0  0  0  0  0  0
    5.3696   -1.1365    0.0003 O   0  0  0  0  0  0  0  0  0  0  0  0
    5.9108    1.0718    0.0001 O   0  0  0  0  0  0  0  0  0  0  0  0
   -1.3219    0.3457   -0.0002 N   0  0  0  0  0  2  0  0  0  0  0  0
    1.3037   -0.1221    0.0002 N   0  0  0  0  0  2  0  0  0  0  0  0
   -2.6558    0.4741   -0.0003 C   0  0  0  0  0  3  0  0  0  0  0  0
   -3.2822    1.7329   -0.0000 C   0  0  0  0  0  0  0  0  0  0  0  0
   -2.4719    2.8810    0.0003 C   0  0  0  0  0  0  0  0  0  0  0  0
   -1.0836    2.7358    0.0004 C   0  0  0  0  0  0  0  0  0  0  0  0
   -0.5263    1.4417    0.0000 C   0  0  0  0  0  0  0  0  0  0  0  0
   -4.7713    1.8959   -0.0001 C   0  0  0  0  0  0  0  0  0  0  0  0
   -6.8473    0.7447   -0.0004 C   0  0  0  0  0  0  0  0  0  0  0  0
   -7.3500   -0.6827   -0.0001 C   0  0  0  0  0  0  0  0  0  0  0  0
    2.6003   -0.4562    0.0003 C   0  0  0  0  0  3  0  0  0  0  0  0
    3.6224    0.5101    0.0001 C   0  0  0  0  0  0  0  0  0  0  0  0
    3.2560    1.8673   -0.0002 C   0  0  0  0  0  0  0  0  0  0  0  0
    1.9002    2.2048   -0.0002 C   0  0  0  0  0  0  0  0  0  0  0  0
    0.9327    1.1816    0.0000 C   0  0  0  0  0  0  0  0  0  0  0  0
    5.0425    0.0358    0.0002 C   0  0  0  0  0  0  0  0  0  0  0  0
    7.3137    0.7156    0.0001 C   0  0  0  0  0  0  0  0  0  0  0  0
    8.1209    1.9960   -0.0005 C   0  0  0  0  0  0  0  0  0  0  0  0
   -3.2357   -0.4609   -0.0005 H   0  0  0  0  0  0  0  0  0  0  0  0
   -2.9552    3.8692    0.0006 H   0  0  0  0  0  0  0  0  0  0  0  0
   -0.4386    3.6239    0.0007 H   0  0  0  0  0  0  0  0  0  0  0  0
   -7.1829    1.3151   -0.8922 H   0  0  0  0  0  0  0  0  0  0  0  0
   -7.1829    1.3156    0.8910 H   0  0  0  0  0  0  0  0  0  0  0  0
   -8.4577   -0.6904   -0.0001 H   0  0  0  0  0  0  0  0  0  0  0  0
   -6.9993   -1.2288    0.8977 H   0  0  0  0  0  0  0  0  0  0  0  0
   -6.9992   -1.2293   -0.8975 H   0  0  0  0  0  0  0  0  0  0  0  0
    2.8405   -1.5313    0.0005 H   0  0  0  0  0  0  0  0  0  0  0  0
    4.0349    2.6421   -0.0004 H   0  0  0  0  0  0  0  0  0  0  0  0
    1.5983    3.2600   -0.0005 H   0  0  0  0  0  0  0  0  0  0  0  0
    7.5171    0.0844   -0.8905 H   0  0  0  0  0  0  0  0  0  0  0  0
    7.5172    0.0851    0.8912 H   0  0  0  0  0  0  0  0  0  0  0  0
    9.2027    1.7579   -0.0004 H   0  0  0  0  0  0  0  0  0  0  0  0
    7.9025    2.6067    0.8980 H   0  0  0  0  0  0  0  0  0  0  0  0
    7.9024    2.6059   -0.8993 H   0  0  0  0  0  0  0  0  0  0  0  0
  2 12  1  0  0  0  0
  4 21  1  0  0  0  0
  4 20  1  0  0  0  0
  5 11  1  0  0  0  0
  6 15  1  0  0  0  0
  7  5  1  0  0  0  0
  7  8  1  0  0  0  0
  8  9  2  0  0  0  0
  9 10  1  0  0  0  0
  9 24  1  0  0  0  0
 10 25  1  0  0  0  0
 11 10  2  0  0  0  0
 12  8  1  0  0  0  0
 12  1  2  0  0  0  0
 13  2  1  0  0  0  0
 13 14  1  0  0  0  0
 13 27  1  0  0  0  0
 14 29  1  0  0  0  0
 15 31  1  0  0  0  0
 16 20  1  0  0  0  0
 16 15  1  0  0  0  0
 17 16  2  0  0  0  0
 18 17  1  0  0  0  0
 18 19  2  0  0  0  0
 19 11  1  0  0  0  0
 19  6  1  0  0  0  0
 20  3  2  0  0  0  0
 21 35  1  0  0  0  0
 22 36  1  0  0  0  0
 22 21  1  0  0  0  0
 22 37  1  0  0  0  0
 23  7  1  0  0  0  0
 26 13  1  0  0  0  0
 28 14  1  0  0  0  0
 30 14  1  0  0  0  0
 32 17  1  0  0  0  0
 33 18  1  0  0  0  0
 34 21  1  0  0  0  0
 38 22  1  0  0  0  0
M  END
