3,4
q = 0.0, confidence = 0.998

 18 19  0  0  0  0  0  0  0  0999 V2000
    4.6600    1.2617    1.1532 S   0  0  0  0  0  0  0  0  0  0  0  0
    4.6600   -1.2617   -1.1532 S   0  0  0  0  0  0  0  0  0  0  0  0
    2.0505    0.9783    0.9091 N   0  0  0  0  0  2  0  0  0  0  0  0
    2.0505   -0.9783   -0.9091 N   0  0  0  0  0  2  0  0  0  0  0  0
    3.2002    0.5404    0.4944 C   0  0  0  0  0  0  0  0  0  0  0  0
    2.2006    1.9983    1.9449 C   0  0  0  0  0  0  0  0  0  0  0  0
    3.5935    2.6266    1.7975 C   0  0  0  0  0  0  0  0  0  0  0  0
    3.2002   -0.5404   -0.4944 C   0  0  0  0  0  0  0  0  0  0  0  0
    2.2005   -1.9984   -1.9449 C   0  0  0  0  0  0  0  0  0  0  0  0
    3.5935   -2.6267   -1.7975 C   0  0  0  0  0  0  0  0  0  0  0  0
    2.0685    1.4946    2.9299 H   0  0  0  0  0  0  0  0  0  0  0  0
    1.3910    2.7462    1.8526 H   0  0  0  0  0  0  0  0  0  0  0  0
    4.0095    3.0000    2.7513 H   0  0  0  0  0  0  0  0  0  0  0  0
    3.6040    3.4347    1.0375 H   0  0  0  0  0  0  0  0  0  0  0  0
    1.3910   -2.7462   -1.8526 H   0  0  0  0  0  0  0  0  0  0  0  0
    2.0685   -1.4946   -2.9299 H   0  0  0  0  0  0  0  0  0  0  0  0
    3.6039   -3.4347   -1.0376 H   0  0  0  0  0  0  0  0  0  0  0  0
    4.0095   -3.0000   -2.7513 H   0  0  0  0  0  0  0  0  0  0  0  0
  1  7  1  0  0  0  0
  2  8  1  0  0  0  0
  3  6  1  0  0  0  0
  4  8  1  0  0  0  0
  5  3  1  0  0  0  0
  5  1  1  0  0  0  0
  6 11  1  0  0  0  0
  7  6  1  0  0  0  0
  7 13  1  0  0  0  0
  8  5  2  0  0  0  0
  9 15  1  0  0  0  0
  9 10  1  0  0  0  0
  9  4  1  0  0  0  0
 10  2  1  0  0  0  0
 10 17  1  0  0  0  0
 12  6  1  0  0  0  0
 14  7  1  0  0  0  0
 16  9  1  0  0  0  0
 18 10  1  0  0  0  0
M  END
