2,4
q = 0.0, confidence = 0.98

 19 20  0  0  0  0  0  0  0  0999 V2000
    1.5273   -2.9219    0.1377 B   0  0  0  0  0  0  0  0  0  0  0  0
   -0.2629   -1.8939   -1.2882 N   0  0  0  0  0  2  0  0  0  0  0  0
    0.7770   -2.7693   -1.1062 N   0  0  0  0  0  0  0  0  0  0  0  0
   -0.1108   -1.6295    1.5561 N   0  0  0  0  0  2  0  0  0  0  0  0
    0.9503   -2.5009    1.4222 N   0  0  0  0  0  0  0  0  0  0  0  0
    2.6662   -3.6478    0.0562 O   0  0  0  0  0  0  0  0  0  0  0  0
    3.1977   -3.7064    0.8679 H   0  0  0  0  0  0  0  0  0  0  0  0
   -0.7959   -2.1835   -2.4876 C   0  0  0  0  0  3  0  0  0  0  0  0
   -1.6568   -1.6135   -2.8507 H   0  0  0  0  0  0  0  0  0  0  0  0
   -0.0796   -3.2378   -3.1097 C   0  0  0  0  0  0  0  0  0  0  0  0
   -0.2787   -3.6894   -4.0863 H   0  0  0  0  0  0  0  0  0  0  0  0
    0.9169   -3.5802   -2.2139 C   0  0  0  0  0  0  0  0  0  0  0  0
    1.7065   -4.3372   -2.2458 H   0  0  0  0  0  0  0  0  0  0  0  0
   -0.5219   -1.7178    2.8310 C   0  0  0  0  0  3  0  0  0  0  0  0
   -1.3622   -1.1039    3.1713 H   0  0  0  0  0  0  0  0  0  0  0  0
    0.2807   -2.6361    3.5547 C   0  0  0  0  0  0  0  0  0  0  0  0
    0.1832   -2.9192    4.6072 H   0  0  0  0  0  0  0  0  0  0  0  0
    1.2025   -3.1108    2.6419 C   0  0  0  0  0  0  0  0  0  0  0  0
    1.9817   -3.8729    2.7509 H   0  0  0  0  0  0  0  0  0  0  0  0
  1  5  1  0  0  0  0
  2  3  1  0  0  0  0
  3  1  1  0  0  0  0
  4 14  1  0  0  0  0
  5  4  1  0  0  0  0
  5 18  1  0  0  0  0
  6  1  1  0  0  0  0
  6  7  1  0  0  0  0
  8  2  1  0  0  0  0
  9  8  1  0  0  0  0
 10  8  1  0  0  0  0
 10 12  2  0  0  0  0
 11 10  1  0  0  0  0
 12  3  1  0  0  0  0
 13 12  1  0  0  0  0
 14 15  1  0  0  0  0
 14 16  1  0  0  0  0
 16 17  1  0  0  0  0
 18 19  1  0  0  0  0
 18 16  2  0  0  0  0
M  END
