5,6
q = 0.0, confidence = 0.73

 30 31  0  0  1  0  0  0  0  0999 V2000
   -0.7032    0.9503   -2.5487 O   0  0  0  0  0  1  0  0  0  0  0  0
    0.2523    0.3291    2.2613 O   0  0  0  0  0  1  0  0  0  0  0  0
    0.5347    3.4931    0.6108 O   0  0  0  0  0  0  0  0  0  0  0  0
    2.7298   -3.3037   -0.0675 O   0  0  0  0  0  0  0  0  0  0  0  0
   -0.4797    0.9928   -1.3236 N   0  0  0  0  0  2  0  0  0  0  0  0
    0.0346    0.6386    1.0760 N   0  0  0  0  0  2  0  0  0  0  0  0
    0.7765    1.7398   -0.9741 C   0  0  2  0  0  0  0  0  0  0  0  0
    1.2615    1.2841    0.3948 C   0  0  1  0  0  0  0  0  0  0  0  0
    0.5255    3.2593   -0.7853 C   0  0  0  0  0  0  0  0  0  0  0  0
    1.5152    2.6110    1.1343 C   0  0  0  0  0  0  0  0  0  0  0  0
    2.3867    0.2288    0.4099 C   0  0  1  0  0  0  0  0  0  0  0  0
    1.9562   -1.0455   -0.3501 C   0  0  0  0  0  0  0  0  0  0  0  0
    3.0082   -2.1432   -0.3267 C   0  0  0  0  0  0  0  0  0  0  0  0
    4.4169   -1.6852   -0.6814 C   0  0  0  0  0  0  0  0  0  0  0  0
    4.8096   -0.3883    0.0485 C   0  0  0  0  0  0  0  0  0  0  0  0
    3.7504    0.7118   -0.1066 C   0  0  0  0  0  0  0  0  0  0  0  0
    1.4880    1.5373   -1.7975 H   0  0  0  0  0  0  0  0  0  0  0  0
   -0.4464    3.5827   -1.2063 H   0  0  0  0  0  0  0  0  0  0  0  0
    1.3430    3.8277   -1.2930 H   0  0  0  0  0  0  0  0  0  0  0  0
    2.5479    2.9882    0.9354 H   0  0  0  0  0  0  0  0  0  0  0  0
    1.3693    2.5021    2.2260 H   0  0  0  0  0  0  0  0  0  0  0  0
    2.5012   -0.0423    1.4836 H   0  0  0  0  0  0  0  0  0  0  0  0
    1.0117   -1.4597    0.0434 H   0  0  0  0  0  0  0  0  0  0  0  0
    1.7800   -0.7888   -1.4201 H   0  0  0  0  0  0  0  0  0  0  0  0
    5.1206   -2.5165   -0.4827 H   0  0  0  0  0  0  0  0  0  0  0  0
    4.4220   -1.4996   -1.7803 H   0  0  0  0  0  0  0  0  0  0  0  0
    4.9432   -0.6078    1.1301 H   0  0  0  0  0  0  0  0  0  0  0  0
    5.7925   -0.0306   -0.3208 H   0  0  0  0  0  0  0  0  0  0  0  0
    3.6663    1.0016   -1.1789 H   0  0  0  0  0  0  0  0  0  0  0  0
    4.0790    1.6186    0.4398 H   0  0  0  0  0  0  0  0  0  0  0  0
  1  5  1  0  0  0  0
  3 10  1  0  0  0  0
  5  7  1  0  0  0  0
  6  2  1  0  0  0  0
  7 17  1  6  0  0  0
  7  9  1  0  0  0  0
  7  8  1  0  0  0  0
  8 11  1  0  0  0  0
  8  6  1  1  0  0  0
  8 10  1  0  0  0  0
  9  3  1  0  0  0  0
 10 21  1  0  0  0  0
 11 22  1  1  0  0  0
 12 13  1  0  0  0  0
 12 23  1  0  0  0  0
 12 11  1  0  0  0  0
 13  4  2  0  0  0  0
 14 25  1  0  0  0  0
 14 13  1  0  0  0  0
 14 15  1  0  0  0  0
 15 27  1  0  0  0  0
 16 15  1  0  0  0  0
 16 11  1  0  0  0  0
 16 30  1  0  0  0  0
 18  9  1  0  0  0  0
 19  9  1  0  0  0  0
 20 10  1  0  0  0  0
 24 12  1  0  0  0  0
 26 14  1  0  0  0  0
 28 15  1  0  0  0  0
 29 16  1  0  0  0  0
M  END
