5,6
q = 0.0, confidence = 0.998

 29 31  0  0  0  0  0  0  0  0999 V2000
   -7.5103   -0.2266   -1.0202 F   0  0  0  0  0  0  0  0  0  0  0  0
   -7.4452   -0.1582    1.1582 F   0  0  0  0  0  0  0  0  0  0  0  0
   -6.4271   -1.7729    0.0871 F   0  0  0  0  0  0  0  0  0  0  0  0
   -5.5928    1.6708   -0.0189 O   0  0  0  0  0  0  0  0  0  0  0  0
    0.4980   -1.1430   -0.3660 N   0  0  0  0  0  2  0  0  0  0  0  0
    1.0302    1.4856   -0.3126 N   0  0  0  0  0  2  0  0  0  0  0  0
   -4.3033   -0.2644   -0.0659 N   0  0  0  0  0  0  0  0  0  0  0  0
   -4.4211   -1.2784   -0.0347 H   0  0  0  0  0  0  0  0  0  0  0  0
    0.2790   -2.4663   -0.3926 C   0  0  0  0  0  0  0  0  0  0  0  0
    1.1695   -3.1085   -0.4456 H   0  0  0  0  0  0  0  0  0  0  0  0
   -1.0158   -3.0118   -0.3472 C   0  0  0  0  0  0  0  0  0  0  0  0
   -1.1423   -4.1027   -0.3728 H   0  0  0  0  0  0  0  0  0  0  0  0
   -2.1176   -2.1634   -0.2657 C   0  0  0  0  0  0  0  0  0  0  0  0
   -3.1229   -2.6105   -0.2352 H   0  0  0  0  0  0  0  0  0  0  0  0
   -1.9214   -0.7606   -0.2274 C   0  0  0  0  0  0  0  0  0  0  0  0
   -2.9908    0.2239   -0.1362 C   0  0  0  0  0  0  0  0  0  0  0  0
   -2.7029    1.5787   -0.1217 C   0  0  0  0  0  0  0  0  0  0  0  0
   -3.5266    2.2998   -0.0589 H   0  0  0  0  0  0  0  0  0  0  0  0
   -1.3521    2.0485   -0.1827 C   0  0  0  0  0  0  0  0  0  0  0  0
   -1.0105    3.4256   -0.1632 C   0  0  0  0  0  0  0  0  0  0  0  0
   -1.8063    4.1827   -0.1021 H   0  0  0  0  0  0  0  0  0  0  0  0
    0.3312    3.7911   -0.2164 C   0  0  0  0  0  0  0  0  0  0  0  0
    0.6344    4.8472   -0.1973 H   0  0  0  0  0  0  0  0  0  0  0  0
    1.3254    2.7946   -0.2890 C   0  0  0  0  0  0  0  0  0  0  0  0
    2.3932    3.0540   -0.3211 H   0  0  0  0  0  0  0  0  0  0  0  0
   -0.2837    1.1113   -0.2566 C   0  0  0  0  0  0  0  0  0  0  0  0
   -0.5737   -0.2942   -0.2811 C   0  0  0  0  0  0  0  0  0  0  0  0
   -5.4710    0.4569   -0.0119 C   0  0  0  0  0  0  0  0  0  0  0  0
   -6.7411   -0.4417    0.0557 C   0  0  0  0  0  0  0  0  0  0  0  0
  1 29  1  0  0  0  0
  4 28  2  0  0  0  0
  5 27  1  0  0  0  0
  6 24  1  0  0  0  0
  6 26  1  0  0  0  0
  7  8  1  0  0  0  0
  7 28  1  0  0  0  0
  9  5  1  0  0  0  0
  9 11  2  0  0  0  0
 10  9  1  0  0  0  0
 11 13  1  0  0  0  0
 12 11  1  0  0  0  0
 13 14  1  0  0  0  0
 13 15  2  0  0  0  0
 15 16  1  0  0  0  0
 16 17  2  0  0  0  0
 16  7  1  0  0  0  0
 17 18  1  0  0  0  0
 19 20  2  0  0  0  0
 19 17  1  0  0  0  0
 20 21  1  0  0  0  0
 22 23  1  0  0  0  0
 22 20  1  0  0  0  0
 24 22  2  0  0  0  0
 25 24  1  0  0  0  0
 26 19  1  0  0  0  0
 27 26  2  0  0  0  0
 27 15  1  0  0  0  0
 28 29  1  0  0  0  0
 29  3  1  0  0  0  0
 29  2  1  0  0  0  0
M  END
