1,18
q = 0.0, confidence = 1.0

 34 35  0  0  0  0  0  0  0  0999 V2000
   -1.3880   -0.0932   -1.5303 N   0  0  0  0  0  2  0  0  0  0  0  0
   -0.7241    0.2468   -2.7858 C   0  0  0  0  0  0  0  0  0  0  0  0
   -2.6038   -0.5414   -1.5969 C   0  0  0  0  0  3  0  0  0  0  0  0
   -3.4607   -0.8314   -0.4510 C   0  0  0  0  0  0  0  0  0  0  0  0
   -4.6066   -1.6386   -0.6410 C   0  0  0  0  0  0  0  0  0  0  0  0
   -5.4486   -1.9393    0.4367 C   0  0  0  0  0  0  0  0  0  0  0  0
   -5.1714   -1.4150    1.7099 C   0  0  0  0  0  0  0  0  0  0  0  0
   -4.0504   -0.5861    1.9016 C   0  0  0  0  0  0  0  0  0  0  0  0
   -3.1970   -0.2993    0.8322 C   0  0  0  0  0  0  0  0  0  0  0  0
   -0.7357    1.3545   -2.8798 H   0  0  0  0  0  0  0  0  0  0  0  0
   -1.2644   -0.1629   -3.6685 H   0  0  0  0  0  0  0  0  0  0  0  0
   -3.0559   -0.7285   -2.5969 H   0  0  0  0  0  0  0  0  0  0  0  0
   -4.8292   -2.0380   -1.6430 H   0  0  0  0  0  0  0  0  0  0  0  0
   -6.3309   -2.5777    0.2831 H   0  0  0  0  0  0  0  0  0  0  0  0
   -5.8402   -1.6398    2.5542 H   0  0  0  0  0  0  0  0  0  0  0  0
   -3.8568   -0.1503    2.8939 H   0  0  0  0  0  0  0  0  0  0  0  0
   -2.3274    0.3615    0.9588 H   0  0  0  0  0  0  0  0  0  0  0  0
    1.3879    0.0935   -1.5303 N   0  0  0  0  0  2  0  0  0  0  0  0
    0.7241   -0.2462   -2.7858 C   0  0  0  0  0  0  0  0  0  0  0  0
    2.6038    0.5417   -1.5968 C   0  0  0  0  0  3  0  0  0  0  0  0
    0.7356   -1.3539   -2.8801 H   0  0  0  0  0  0  0  0  0  0  0  0
    1.2644    0.1637   -3.6685 H   0  0  0  0  0  0  0  0  0  0  0  0
    3.4608    0.8315   -0.4510 C   0  0  0  0  0  0  0  0  0  0  0  0
    3.0558    0.7290   -2.5968 H   0  0  0  0  0  0  0  0  0  0  0  0
    4.6067    1.6388   -0.6409 C   0  0  0  0  0  0  0  0  0  0  0  0
    3.1973    0.2991    0.8322 C   0  0  0  0  0  0  0  0  0  0  0  0
    5.4487    1.9393    0.4367 C   0  0  0  0  0  0  0  0  0  0  0  0
    4.8291    2.0384   -1.6429 H   0  0  0  0  0  0  0  0  0  0  0  0
    4.0509    0.5857    1.9015 C   0  0  0  0  0  0  0  0  0  0  0  0
    2.3278   -0.3618    0.9587 H   0  0  0  0  0  0  0  0  0  0  0  0
    5.1718    1.4147    1.7098 C   0  0  0  0  0  0  0  0  0  0  0  0
    6.3311    2.5778    0.2831 H   0  0  0  0  0  0  0  0  0  0  0  0
    3.8574    0.1496    2.8938 H   0  0  0  0  0  0  0  0  0  0  0  0
    5.8407    1.6393    2.5541 H   0  0  0  0  0  0  0  0  0  0  0  0
  2  1  1  0  0  0  0
  3  1  1  0  0  0  0
  3  4  1  0  0  0  0
  4  9  1  0  0  0  0
  5  4  2  0  0  0  0
  5  6  1  0  0  0  0
  6  7  2  0  0  0  0
  7  8  1  0  0  0  0
  7 15  1  0  0  0  0
  8 16  1  0  0  0  0
  9 17  1  0  0  0  0
  9  8  2  0  0  0  0
 10  2  1  0  0  0  0
 11  2  1  0  0  0  0
 12  3  1  0  0  0  0
 13  5  1  0  0  0  0
 14  6  1  0  0  0  0
 19  2  1  0  0  0  0
 19 18  1  0  0  0  0
 20 18  1  0  0  0  0
 20 23  1  0  0  0  0
 21 19  1  0  0  0  0
 22 19  1  0  0  0  0
 23 26  1  0  0  0  0
 24 20  1  0  0  0  0
 25 23  2  0  0  0  0
 25 27  1  0  0  0  0
 26 30  1  0  0  0  0
 26 29  2  0  0  0  0
 27 31  2  0  0  0  0
 28 25  1  0  0  0  0
 29 33  1  0  0  0  0
 31 29  1  0  0  0  0
 31 34  1  0  0  0  0
 32 27  1  0  0  0  0
M  END
