2,3
q = -2.0, confidence = 0.85

 49 51  0  0  1  0  0  0  0  0999 V2000
    2.1421    0.0428    0.9063 O   0  0  0  0  0  0  0  0  0  0  0  0
   -1.5486    0.0131   -1.3803 N   0  0  0  0  0  2  0  0  0  0  0  0
    1.1164   -0.0280   -1.4637 N   0  0  0  0  0  2  0  0  0  0  0  0
   -2.9339   -0.2904   -1.2351 C   0  0  0  0  0  0  0  0  0  0  0  0
   -3.8643    0.7714   -1.0380 C   0  0  0  0  0  0  0  0  0  0  0  0
   -5.2193    0.4659   -0.8108 C   0  0  0  0  0  0  0  0  0  0  0  0
   -5.6680   -0.8607   -0.7870 C   0  0  0  0  0  0  0  0  0  0  0  0
   -4.7577   -1.9010   -1.0088 C   0  0  0  0  0  0  0  0  0  0  0  0
   -3.3937   -1.6412   -1.2433 C   0  0  0  0  0  0  0  0  0  0  0  0
   -3.4085    2.2061   -1.0601 C   0  0  0  0  0  0  0  0  0  0  0  0
   -2.4502   -2.7910   -1.4847 C   0  0  0  0  0  0  0  0  0  0  0  0
   -0.9847   -0.1103   -2.7294 C   0  0  0  0  0  0  0  0  0  0  0  0
    0.4863    0.3404   -2.7282 C   0  0  0  0  0  0  0  0  0  0  0  0
    2.5567   -0.1235   -1.4832 C   0  0  2  0  0  0  0  0  0  0  0  0
    3.0659   -1.5057   -2.0376 C   0  0  0  0  0  0  0  0  0  0  0  0
    2.6137   -2.6570   -1.1800 C   0  0  0  0  0  0  0  0  0  0  0  0
    1.3563   -3.2600   -1.3922 C   0  0  0  0  0  0  0  0  0  0  0  0
    0.8861   -4.2695   -0.5383 C   0  0  0  0  0  0  0  0  0  0  0  0
    1.6609   -4.6857    0.5551 C   0  0  0  0  0  0  0  0  0  0  0  0
    2.9152   -4.0953    0.7788 C   0  0  0  0  0  0  0  0  0  0  0  0
    3.3862   -3.0936   -0.0831 C   0  0  0  0  0  0  0  0  0  0  0  0
    3.0913    0.1023   -0.1007 C   0  0  0  0  0  0  0  0  0  0  0  0
    4.3229    0.2996    0.4708 C   0  0  0  0  0  0  0  0  0  0  0  0
    4.1228    0.3806    1.8935 C   0  0  0  0  0  0  0  0  0  0  0  0
    2.7812    0.2252    2.1189 C   0  0  0  0  0  0  0  0  0  0  0  0
   -5.9323    1.2909   -0.6539 H   0  0  0  0  0  0  0  0  0  0  0  0
   -6.7292   -1.0839   -0.5995 H   0  0  0  0  0  0  0  0  0  0  0  0
   -5.1043   -2.9467   -0.9930 H   0  0  0  0  0  0  0  0  0  0  0  0
   -4.2646    2.8927   -1.2049 H   0  0  0  0  0  0  0  0  0  0  0  0
   -2.6666    2.3823   -1.8630 H   0  0  0  0  0  0  0  0  0  0  0  0
   -2.9088    2.4908   -0.1104 H   0  0  0  0  0  0  0  0  0  0  0  0
   -2.7909   -3.7045   -0.9588 H   0  0  0  0  0  0  0  0  0  0  0  0
   -1.4248   -2.5516   -1.1454 H   0  0  0  0  0  0  0  0  0  0  0  0
   -2.3855   -3.0425   -2.5653 H   0  0  0  0  0  0  0  0  0  0  0  0
   -1.5631    0.5027   -3.4595 H   0  0  0  0  0  0  0  0  0  0  0  0
   -1.0518   -1.1657   -3.0882 H   0  0  0  0  0  0  0  0  0  0  0  0
    1.0041   -0.1281   -3.5981 H   0  0  0  0  0  0  0  0  0  0  0  0
    0.5472    1.4467   -2.8789 H   0  0  0  0  0  0  0  0  0  0  0  0
    2.9931    0.6739   -2.1334 H   0  0  0  0  0  0  0  0  0  0  0  0
    2.6813   -1.6099   -3.0729 H   0  0  0  0  0  0  0  0  0  0  0  0
    4.1732   -1.4711   -2.1019 H   0  0  0  0  0  0  0  0  0  0  0  0
    0.7442   -2.9351   -2.2471 H   0  0  0  0  0  0  0  0  0  0  0  0
   -0.0960   -4.7296   -0.7249 H   0  0  0  0  0  0  0  0  0  0  0  0
    1.2902   -5.4730    1.2288 H   0  0  0  0  0  0  0  0  0  0  0  0
    3.5346   -4.4201    1.6288 H   0  0  0  0  0  0  0  0  0  0  0  0
    4.3702   -2.6350    0.0989 H   0  0  0  0  0  0  0  0  0  0  0  0
    5.2702    0.3925   -0.0703 H   0  0  0  0  0  0  0  0  0  0  0  0
    4.8864    0.5486    2.6604 H   0  0  0  0  0  0  0  0  0  0  0  0
    2.1320    0.2330    2.9974 H   0  0  0  0  0  0  0  0  0  0  0  0
  1 25  1  0  0  0  0
  2  4  1  0  0  0  0
  4  5  1  0  0  0  0
  5  6  2  0  0  0  0
  6  7  1  0  0  0  0
  6 26  1  0  0  0  0
  7 27  1  0  0  0  0
  8 28  1  0  0  0  0
  8  7  2  0  0  0  0
  9  4  2  0  0  0  0
  9  8  1  0  0  0  0
 10  5  1  0  0  0  0
 10 31  1  0  0  0  0
 11  9  1  0  0  0  0
 11 33  1  0  0  0  0
 11 32  1  0  0  0  0
 12 13  1  0  0  0  0
 12  2  1  0  0  0  0
 13  3  1  0  0  0  0
 14 39  1  6  0  0  0
 14  3  1  0  0  0  0
 14 22  1  0  0  0  0
 15 14  1  0  0  0  0
 15 16  1  0  0  0  0
 16 21  1  0  0  0  0
 17 16  2  0  0  0  0
 17 18  1  0  0  0  0
 18 19  2  0  0  0  0
 19 20  1  0  0  0  0
 19 44  1  0  0  0  0
 20 45  1  0  0  0  0
 21 46  1  0  0  0  0
 21 20  2  0  0  0  0
 22 23  2  0  0  0  0
 22  1  1  0  0  0  0
 23 24  1  0  0  0  0
 24 25  2  0  0  0  0
 24 48  1  0  0  0  0
 25 49  1  0  0  0  0
 29 10  1  0  0  0  0
 30 10  1  0  0  0  0
 34 11  1  0  0  0  0
 35 12  1  0  0  0  0
 36 12  1  0  0  0  0
 37 13  1  0  0  0  0
 38 13  1  0  0  0  0
 40 15  1  0  0  0  0
 41 15  1  0  0  0  0
 42 17  1  0  0  0  0
 43 18  1  0  0  0  0
 47 23  1  0  0  0  0
M  END
