1,12
q = 0.0, confidence = 0.89

 23 24  0  0  1  0  0  0  0  0999 V2000
   -1.9535    1.0082    0.1343 N   0  0  0  0  0  2  0  0  0  0  0  0
   -4.1562   -0.4402    0.4830 Cl  0  0  0  0  0  0  0  0  0  0  0  0
   -3.2864    1.0439    0.3715 C   0  0  2  0  0  3  0  0  0  0  0  0
   -3.9917    2.2489    0.5229 C   0  0  0  0  0  0  0  0  0  0  0  0
   -5.0670    2.2082    0.7400 H   0  0  0  0  0  0  0  0  0  0  0  0
   -3.3084    3.4664    0.3904 C   0  0  0  0  0  0  0  0  0  0  0  0
   -3.8480    4.4167    0.5106 H   0  0  0  0  0  0  0  0  0  0  0  0
   -1.9491    3.4522    0.0753 C   0  0  0  0  0  0  0  0  0  0  0  0
   -1.3643    4.3650   -0.0970 H   0  0  0  0  0  0  0  0  0  0  0  0
   -1.3030    2.2114   -0.0729 C   0  0  0  0  0  0  0  0  0  0  0  0
   -0.0071    2.1608   -0.5083 N   0  0  0  0  0  2  0  0  0  0  0  0
    0.4055    0.9516   -0.7117 N   0  0  0  0  0  2  0  0  0  0  0  0
    1.7019    0.8394   -1.2878 C   0  0  0  0  0  0  0  0  0  0  0  0
    2.7064    1.7738   -0.9576 C   0  0  0  0  0  0  0  0  0  0  0  0
    2.4783    2.5778   -0.2465 H   0  0  0  0  0  0  0  0  0  0  0  0
    3.9793    1.6267   -1.5136 C   0  0  0  0  0  0  0  0  0  0  0  0
    4.7778    2.3297   -1.2352 H   0  0  0  0  0  0  0  0  0  0  0  0
    4.2412    0.5845   -2.4222 C   0  0  0  0  0  0  0  0  0  0  0  0
    5.2444    0.4797   -2.8615 H   0  0  0  0  0  0  0  0  0  0  0  0
    3.2218   -0.3141   -2.7812 C   0  0  0  0  0  0  0  0  0  0  0  0
    3.4160   -1.1022   -3.5234 H   0  0  0  0  0  0  0  0  0  0  0  0
    1.9494   -0.2011   -2.2090 C   0  0  0  0  0  0  0  0  0  0  0  0
    1.1195   -0.8565   -2.5107 H   0  0  0  0  0  0  0  0  0  0  0  0
  1  3  1  0  0  0  0
  3  2  1  6  0  0  0
  3  4  1  0  0  0  0
  4  5  1  0  0  0  0
  6  7  1  0  0  0  0
  6  4  2  0  0  0  0
  8  6  1  0  0  0  0
  9  8  1  0  0  0  0
 10  8  2  0  0  0  0
 10  1  1  0  0  0  0
 11 10  1  0  0  0  0
 12 11  1  0  0  0  0
 13 14  1  0  0  0  0
 13 12  1  0  0  0  0
 14 15  1  0  0  0  0
 16 17  1  0  0  0  0
 16 14  2  0  0  0  0
 18 16  1  0  0  0  0
 19 18  1  0  0  0  0
 20 18  2  0  0  0  0
 20 22  1  0  0  0  0
 21 20  1  0  0  0  0
 22 13  2  0  0  0  0
 23 22  1  0  0  0  0
M  END
