2,3
q = 0.0, confidence = 0.984

 65 67  0  0  1  0  0  0  0  0999 V2000
    0.8603    0.4873    2.3952 P   0  0  0  0  0  2  0  0  0  0  0  0
   -3.5051   -0.4166    1.1610 N   0  0  0  0  0  2  0  0  0  0  0  0
   -0.8133    0.5158    0.4044 N   0  0  0  0  0  2  0  0  0  0  0  0
    0.3475    0.3096   -0.1568 N   0  0  0  0  0  0  0  0  0  0  0  0
   -0.7341    0.6458    1.7471 N   0  0  0  0  0  0  0  0  0  0  0  0
   -1.9617    0.9483    2.4883 C   0  0  0  0  0  0  0  0  0  0  0  0
   -2.3768    1.8994    2.0932 H   0  0  0  0  0  0  0  0  0  0  0  0
   -1.6714    1.1063    3.5421 H   0  0  0  0  0  0  0  0  0  0  0  0
   -2.9977   -0.1456    2.3911 C   0  0  2  0  0  3  0  0  0  0  0  0
    3.1724   -3.8162   -0.1387 C   0  0  0  0  0  0  0  0  0  0  0  0
    3.8796   -3.8646   -0.9896 H   0  0  0  0  0  0  0  0  0  0  0  0
    2.4801   -4.6734   -0.2519 H   0  0  0  0  0  0  0  0  0  0  0  0
    3.7439   -3.9639    0.8008 H   0  0  0  0  0  0  0  0  0  0  0  0
    3.2599   -1.2622    0.0592 C   0  0  0  0  0  0  0  0  0  0  0  0
    2.7821    0.0654    0.3075 C   0  0  0  0  0  0  0  0  0  0  0  0
   -4.8973   -2.1287    2.1439 C   0  0  0  0  0  0  0  0  0  0  0  0
   -5.6557   -2.9088    1.9890 H   0  0  0  0  0  0  0  0  0  0  0  0
    5.0348    0.9268    0.0347 C   0  0  0  0  0  0  0  0  0  0  0  0
    5.7323    1.7715    0.0036 H   0  0  0  0  0  0  0  0  0  0  0  0
    1.3705    0.2742    0.7253 C   0  0  0  0  0  0  0  0  0  0  0  0
    2.3468   -2.5089   -0.1219 C   0  0  0  0  0  0  0  0  0  0  0  0
    4.6448   -1.4283   -0.1398 C   0  0  0  0  0  0  0  0  0  0  0  0
    5.0276   -2.4374   -0.3115 H   0  0  0  0  0  0  0  0  0  0  0  0
   -4.3798   -1.8508    3.4147 C   0  0  0  0  0  0  0  0  0  0  0  0
   -4.7208   -2.4079    4.2998 H   0  0  0  0  0  0  0  0  0  0  0  0
    3.6688    1.1885    0.2436 C   0  0  0  0  0  0  0  0  0  0  0  0
    5.5553   -0.3642   -0.1316 C   0  0  0  0  0  0  0  0  0  0  0  0
    1.6531   -2.3810   -1.5008 C   0  0  0  0  0  0  0  0  0  0  0  0
    2.4098   -2.3242   -2.3095 H   0  0  0  0  0  0  0  0  0  0  0  0
    1.0099   -1.4837   -1.5563 H   0  0  0  0  0  0  0  0  0  0  0  0
    1.0060   -3.2623   -1.6871 H   0  0  0  0  0  0  0  0  0  0  0  0
    3.3331    3.0696    1.9020 C   0  0  0  0  0  0  0  0  0  0  0  0
    2.6198    2.4818    2.5153 H   0  0  0  0  0  0  0  0  0  0  0  0
    3.0883    4.1436    2.0397 H   0  0  0  0  0  0  0  0  0  0  0  0
    4.3505    2.8905    2.3046 H   0  0  0  0  0  0  0  0  0  0  0  0
   -3.4073   -0.8495    3.5332 C   0  0  0  0  0  0  0  0  0  0  0  0
   -2.9601   -0.6058    4.5077 H   0  0  0  0  0  0  0  0  0  0  0  0
   -4.4252   -1.4054    1.0445 C   0  0  0  0  0  0  0  0  0  0  0  0
   -4.7728   -1.6209    0.0253 H   0  0  0  0  0  0  0  0  0  0  0  0
    1.8436    3.0219   -0.1432 C   0  0  0  0  0  0  0  0  0  0  0  0
    1.6517    2.5416   -1.1224 H   0  0  0  0  0  0  0  0  0  0  0  0
    1.7634    4.1189   -0.2789 H   0  0  0  0  0  0  0  0  0  0  0  0
    1.0265    2.7333    0.5406 H   0  0  0  0  0  0  0  0  0  0  0  0
    4.2320    3.6033   -0.3653 C   0  0  0  0  0  0  0  0  0  0  0  0
    5.2548    3.6046    0.0580 H   0  0  0  0  0  0  0  0  0  0  0  0
    3.8669    4.6479   -0.3112 H   0  0  0  0  0  0  0  0  0  0  0  0
    4.2988    3.3188   -1.4345 H   0  0  0  0  0  0  0  0  0  0  0  0
    3.2524    2.6827    0.4070 C   0  0  0  0  0  0  0  0  0  0  0  0
    7.5255    0.2018   -1.5869 C   0  0  0  0  0  0  0  0  0  0  0  0
    7.0032   -0.1787   -2.4878 H   0  0  0  0  0  0  0  0  0  0  0  0
    8.6174    0.0773   -1.7419 H   0  0  0  0  0  0  0  0  0  0  0  0
    7.3181    1.2876   -1.5110 H   0  0  0  0  0  0  0  0  0  0  0  0
    7.0695   -0.5608   -0.3220 C   0  0  0  0  0  0  0  0  0  0  0  0
    7.4476   -2.0431   -0.4850 C   0  0  0  0  0  0  0  0  0  0  0  0
    7.1572   -2.6428    0.4011 H   0  0  0  0  0  0  0  0  0  0  0  0
    8.5450   -2.1392   -0.6087 H   0  0  0  0  0  0  0  0  0  0  0  0
    6.9715   -2.4951   -1.3783 H   0  0  0  0  0  0  0  0  0  0  0  0
    1.2795   -2.6958    0.9861 C   0  0  0  0  0  0  0  0  0  0  0  0
    0.8779   -3.7271    0.9259 H   0  0  0  0  0  0  0  0  0  0  0  0
    0.4073   -2.0305    0.8695 H   0  0  0  0  0  0  0  0  0  0  0  0
    1.7105   -2.5597    1.9993 H   0  0  0  0  0  0  0  0  0  0  0  0
    7.8104   -0.0013    0.9138 C   0  0  0  0  0  0  0  0  0  0  0  0
    7.6066    1.0779    1.0621 H   0  0  0  0  0  0  0  0  0  0  0  0
    8.9072   -0.1238    0.7968 H   0  0  0  0  0  0  0  0  0  0  0  0
    7.5002   -0.5333    1.8359 H   0  0  0  0  0  0  0  0  0  0  0  0
  2  9  1  0  0  0  0
  3  5  1  0  0  0  0
  4  3  1  0  0  0  0
  4 20  2  0  0  0  0
  5  1  1  0  0  0  0
  5  6  1  0  0  0  0
  6  8  1  0  0  0  0
  7  6  1  0  0  0  0
  9  6  1  6  0  0  0
  9 36  1  0  0  0  0
 10 21  1  0  0  0  0
 10 13  1  0  0  0  0
 11 10  1  0  0  0  0
 12 10  1  0  0  0  0
 14 15  1  0  0  0  0
 15 20  1  0  0  0  0
 16 24  1  0  0  0  0
 17 16  1  0  0  0  0
 18 26  1  0  0  0  0
 19 18  1  0  0  0  0
 20  1  1  0  0  0  0
 21 14  1  0  0  0  0
 21 58  1  0  0  0  0
 22 27  1  0  0  0  0
 22 14  2  0  0  0  0
 23 22  1  0  0  0  0
 24 36  2  0  0  0  0
 24 25  1  0  0  0  0
 26 15  2  0  0  0  0
 26 48  1  0  0  0  0
 27 18  2  0  0  0  0
 28 21  1  0  0  0  0
 29 28  1  0  0  0  0
 30 28  1  0  0  0  0
 31 28  1  0  0  0  0
 32 34  1  0  0  0  0
 32 35  1  0  0  0  0
 32 33  1  0  0  0  0
 36 37  1  0  0  0  0
 38  2  1  0  0  0  0
 38 16  2  0  0  0  0
 39 38  1  0  0  0  0
 40 48  1  0  0  0  0
 40 43  1  0  0  0  0
 41 40  1  0  0  0  0
 42 40  1  0  0  0  0
 44 46  1  0  0  0  0
 44 45  1  0  0  0  0
 44 48  1  0  0  0  0
 47 44  1  0  0  0  0
 48 32  1  0  0  0  0
 49 52  1  0  0  0  0
 49 53  1  0  0  0  0
 50 49  1  0  0  0  0
 51 49  1  0  0  0  0
 53 27  1  0  0  0  0
 53 62  1  0  0  0  0
 54 53  1  0  0  0  0
 54 55  1  0  0  0  0
 56 54  1  0  0  0  0
 57 54  1  0  0  0  0
 58 61  1  0  0  0  0
 59 58  1  0  0  0  0
 60 58  1  0  0  0  0
 62 63  1  0  0  0  0
 62 65  1  0  0  0  0
 64 62  1  0  0  0  0
M  END
