1,7
q = 0.0, confidence = 0.998

 35 37  0  0  1  0  0  0  0  0999 V2000
    0.5620    1.4657   -0.6685 N   0  0  0  0  0  2  0  0  0  0  0  0
   -0.7501    1.2838   -0.8745 C   0  0  2  0  0  3  0  0  0  0  0  0
   -1.3348    2.4958   -1.1582 N   0  0  0  0  0  0  0  0  0  0  0  0
   -2.7469    2.8117   -1.3752 C   0  0  0  0  0  0  0  0  0  0  0  0
   -0.3376    3.4526   -1.1540 C   0  0  0  0  0  0  0  0  0  0  0  0
    0.8370    2.8024   -0.8481 C   0  0  0  0  0  0  0  0  0  0  0  0
    0.5618   -1.4656   -0.6687 N   0  0  0  0  0  2  0  0  0  0  0  0
   -0.7502   -1.2836   -0.8749 C   0  0  1  0  0  3  0  0  0  0  0  0
   -1.3350   -2.4954   -1.1588 N   0  0  0  0  0  0  0  0  0  0  0  0
   -2.7473   -2.8112   -1.3755 C   0  0  0  0  0  0  0  0  0  0  0  0
   -0.3380   -3.4524   -1.1545 C   0  0  0  0  0  0  0  0  0  0  0  0
    0.8367   -2.8023   -0.8484 C   0  0  0  0  0  0  0  0  0  0  0  0
   -1.3862    0.0000    1.6691 N   0  0  0  0  0  0  0  0  0  0  0  0
   -2.2484    0.0000    0.6421 C   0  0  0  0  0  0  0  0  0  0  0  0
   -3.6444   -0.0002    0.7941 C   0  0  0  0  0  0  0  0  0  0  0  0
   -4.1573   -0.0003    2.1032 C   0  0  0  0  0  0  0  0  0  0  0  0
   -3.2659   -0.0003    3.1834 C   0  0  0  0  0  0  0  0  0  0  0  0
   -1.8855   -0.0001    2.9129 C   0  0  0  0  0  0  0  0  0  0  0  0
   -1.5643    0.0002   -0.7472 C   0  0  1  0  0  0  0  0  0  0  0  0
   -2.5859    0.0004   -1.7409 O   0  0  0  0  0  0  0  0  0  0  0  0
   -2.8608    3.9089   -1.3225 H   0  0  0  0  0  0  0  0  0  0  0  0
   -3.0952    2.4541   -2.3605 H   0  0  0  0  0  0  0  0  0  0  0  0
   -3.3689    2.3494   -0.5883 H   0  0  0  0  0  0  0  0  0  0  0  0
   -0.5499    4.5039   -1.3717 H   0  0  0  0  0  0  0  0  0  0  0  0
    1.8470    3.2086   -0.7443 H   0  0  0  0  0  0  0  0  0  0  0  0
   -3.0965   -2.4508   -2.3595 H   0  0  0  0  0  0  0  0  0  0  0  0
   -2.8608   -3.9085   -1.3257 H   0  0  0  0  0  0  0  0  0  0  0  0
   -3.3687   -2.3512   -0.5868 H   0  0  0  0  0  0  0  0  0  0  0  0
   -0.5503   -4.5036   -1.3723 H   0  0  0  0  0  0  0  0  0  0  0  0
    1.8467   -3.2086   -0.7447 H   0  0  0  0  0  0  0  0  0  0  0  0
   -4.3042   -0.0002   -0.0842 H   0  0  0  0  0  0  0  0  0  0  0  0
   -5.2447   -0.0004    2.2721 H   0  0  0  0  0  0  0  0  0  0  0  0
   -3.6279   -0.0004    4.2216 H   0  0  0  0  0  0  0  0  0  0  0  0
   -1.1508   -0.0001    3.7359 H   0  0  0  0  0  0  0  0  0  0  0  0
   -2.1447    0.0006   -2.6131 H   0  0  0  0  0  0  0  0  0  0  0  0
  2 19  1  1  0  0  0
  2  1  1  0  0  0  0
  3  5  1  0  0  0  0
  3  2  1  0  0  0  0
  4 21  1  0  0  0  0
  4  3  1  0  0  0  0
  4 23  1  0  0  0  0
  5  6  2  0  0  0  0
  6 25  1  0  0  0  0
  6  1  1  0  0  0  0
  8 19  1  1  0  0  0
  8  7  1  0  0  0  0
  9 11  1  0  0  0  0
  9  8  1  0  0  0  0
 10 27  1  0  0  0  0
 10  9  1  0  0  0  0
 10 28  1  0  0  0  0
 11 12  2  0  0  0  0
 12 30  1  0  0  0  0
 12  7  1  0  0  0  0
 13 18  1  0  0  0  0
 14 15  1  0  0  0  0
 14 13  2  0  0  0  0
 15 16  2  0  0  0  0
 16 32  1  0  0  0  0
 16 17  1  0  0  0  0
 17 33  1  0  0  0  0
 18 17  2  0  0  0  0
 18 34  1  0  0  0  0
 19 20  1  6  0  0  0
 19 14  1  0  0  0  0
 22  4  1  0  0  0  0
 24  5  1  0  0  0  0
 26 10  1  0  0  0  0
 29 11  1  0  0  0  0
 31 15  1  0  0  0  0
 35 20  1  0  0  0  0
M  END
