2,21
q = 0.0, confidence = 0.998

 32 34  0  0  1  0  0  0  0  0999 V2000
   -1.8868    1.9897   -0.6001 C   0  0  1  0  0  3  0  0  0  0  0  0
   -2.3971    0.9761    0.1646 N   0  0  0  0  0  2  0  0  0  0  0  0
   -3.4789    1.2140    0.9380 C   0  0  0  0  0  0  0  0  0  0  0  0
   -3.8163    0.3871    1.5768 H   0  0  0  0  0  0  0  0  0  0  0  0
   -4.1304    2.4496    0.9463 C   0  0  0  0  0  0  0  0  0  0  0  0
   -5.0078    2.5927    1.5918 H   0  0  0  0  0  0  0  0  0  0  0  0
   -3.6408    3.4842    0.1327 C   0  0  0  0  0  0  0  0  0  0  0  0
   -4.1347    4.4665    0.1166 H   0  0  0  0  0  0  0  0  0  0  0  0
   -2.5013    3.2526   -0.6425 C   0  0  0  0  0  0  0  0  0  0  0  0
   -2.0685    4.0434   -1.2704 H   0  0  0  0  0  0  0  0  0  0  0  0
    3.2400   -0.4836   -0.8426 C   0  0  0  0  0  0  0  0  0  0  0  0
    3.3067    0.0573    0.4536 C   0  0  0  0  0  0  0  0  0  0  0  0
    2.3889    0.1882    1.0505 H   0  0  0  0  0  0  0  0  0  0  0  0
    4.5552    0.4329    0.9928 C   0  0  0  0  0  0  0  0  0  0  0  0
    5.7368    0.2589    0.2324 C   0  0  0  0  0  0  0  0  0  0  0  0
    6.7054    0.5515    0.6618 H   0  0  0  0  0  0  0  0  0  0  0  0
    5.6605   -0.2845   -1.0542 C   0  0  0  0  0  0  0  0  0  0  0  0
    6.5780   -0.4229   -1.6445 H   0  0  0  0  0  0  0  0  0  0  0  0
    4.4171   -0.6522   -1.5946 C   0  0  0  0  0  0  0  0  0  0  0  0
    4.3655   -1.0804   -2.6082 H   0  0  0  0  0  0  0  0  0  0  0  0
   -0.1998    0.3859   -1.0454 N   0  0  0  0  0  2  0  0  0  0  0  0
    1.0224    0.2948   -1.6018 N   0  0  0  0  0  0  0  0  0  0  0  0
    1.3604    1.4750   -2.2025 C   0  0  0  0  0  3  0  0  0  0  0  0
    2.3344    1.5902   -2.6898 H   0  0  0  0  0  0  0  0  0  0  0  0
    0.3107    2.3681   -2.0207 C   0  0  0  0  0  0  0  0  0  0  0  0
    0.2610    3.4058   -2.3631 H   0  0  0  0  0  0  0  0  0  0  0  0
   -0.6471    1.6475   -1.2694 C   0  0  0  0  0  0  0  0  0  0  0  0
    1.8933   -0.8719   -1.4129 C   0  0  0  0  0  0  0  0  0  0  0  0
    2.0073   -1.3989   -2.3819 H   0  0  0  0  0  0  0  0  0  0  0  0
    1.3471   -1.5280   -0.7121 H   0  0  0  0  0  0  0  0  0  0  0  0
    4.6186    0.9888    2.3147 C   0  0  0  0  0  0  0  0  0  0  0  0
    4.6642    1.4462    3.3943 N   0  0  0  0  0  0  0  0  0  0  0  0
  1 27  1  1  0  0  0
  1  2  1  0  0  0  0
  2  3  1  0  0  0  0
  3  5  2  0  0  0  0
  3  4  1  0  0  0  0
  5  6  1  0  0  0  0
  7  5  1  0  0  0  0
  8  7  1  0  0  0  0
  9  1  1  0  0  0  0
  9  7  2  0  0  0  0
 10  9  1  0  0  0  0
 11 12  1  0  0  0  0
 12 14  2  0  0  0  0
 12 13  1  0  0  0  0
 14 31  1  0  0  0  0
 15 16  1  0  0  0  0
 15 14  1  0  0  0  0
 17 15  2  0  0  0  0
 18 17  1  0  0  0  0
 19 17  1  0  0  0  0
 19 11  2  0  0  0  0
 20 19  1  0  0  0  0
 22 28  1  0  0  0  0
 22 21  1  0  0  0  0
 23 25  1  0  0  0  0
 23 22  1  0  0  0  0
 24 23  1  0  0  0  0
 25 27  2  0  0  0  0
 26 25  1  0  0  0  0
 27 21  1  0  0  0  0
 28 11  1  0  0  0  0
 28 30  1  0  0  0  0
 29 28  1  0  0  0  0
 31 32  3  0  0  0  0
M  END
