1,2
q = 0.0, confidence = 0.994

 40 42  0  0  1  0  0  0  0  0999 V2000
    0.9381   -1.7586    0.7755 N   0  0  0  0  0  2  0  0  0  0  0  0
   -0.4436    0.0422   -0.4817 N   0  0  0  0  0  2  0  0  0  0  0  0
    1.7103   -2.6533    1.4471 C   0  0  0  0  0  3  0  0  0  0  0  0
    1.2053   -3.8497    1.9512 C   0  0  0  0  0  0  0  0  0  0  0  0
   -0.1560   -4.1604    1.7594 C   0  0  0  0  0  0  0  0  0  0  0  0
   -0.9585   -3.2491    1.0758 C   0  0  0  0  0  0  0  0  0  0  0  0
   -0.3922   -2.0476    0.5962 C   0  0  0  0  0  0  0  0  0  0  0  0
   -1.1388   -1.0219   -0.0999 C   0  0  1  0  0  3  0  0  0  0  0  0
   -2.6006   -1.2146   -0.3333 C   0  0  0  0  0  0  0  0  0  0  0  0
   -3.5398   -0.8840    0.6663 C   0  0  0  0  0  0  0  0  0  0  0  0
   -4.9072   -1.1011    0.4410 C   0  0  0  0  0  0  0  0  0  0  0  0
   -5.3443   -1.6563   -0.7719 C   0  0  0  0  0  0  0  0  0  0  0  0
   -4.4118   -1.9979   -1.7647 C   0  0  0  0  0  0  0  0  0  0  0  0
   -3.0436   -1.7816   -1.5485 C   0  0  0  0  0  0  0  0  0  0  0  0
   -1.2276    1.1691   -1.0567 C   0  0  2  0  0  0  0  0  0  0  0  0
   -0.6985    1.6086   -2.4213 C   0  0  0  0  0  0  0  0  0  0  0  0
   -1.3684    2.2872   -0.0236 C   0  0  0  0  0  0  0  0  0  0  0  0
   -1.5691    3.6207   -0.4323 C   0  0  0  0  0  0  0  0  0  0  0  0
   -1.7408    4.6416    0.5136 C   0  0  0  0  0  0  0  0  0  0  0  0
   -1.7114    4.3503    1.8855 C   0  0  0  0  0  0  0  0  0  0  0  0
   -1.5143    3.0264    2.3048 C   0  0  0  0  0  0  0  0  0  0  0  0
   -1.3472    2.0049    1.3589 C   0  0  0  0  0  0  0  0  0  0  0  0
    2.7662   -2.3804    1.5819 H   0  0  0  0  0  0  0  0  0  0  0  0
    1.8766   -4.5288    2.4951 H   0  0  0  0  0  0  0  0  0  0  0  0
   -0.5776   -5.0997    2.1450 H   0  0  0  0  0  0  0  0  0  0  0  0
   -2.0266   -3.4364    0.8994 H   0  0  0  0  0  0  0  0  0  0  0  0
   -3.1994   -0.4445    1.6153 H   0  0  0  0  0  0  0  0  0  0  0  0
   -5.6357   -0.8328    1.2202 H   0  0  0  0  0  0  0  0  0  0  0  0
   -6.4175   -1.8256   -0.9442 H   0  0  0  0  0  0  0  0  0  0  0  0
   -4.7513   -2.4371   -2.7144 H   0  0  0  0  0  0  0  0  0  0  0  0
   -2.3108   -2.0501   -2.3251 H   0  0  0  0  0  0  0  0  0  0  0  0
   -2.2510    0.7740   -1.2285 H   0  0  0  0  0  0  0  0  0  0  0  0
   -1.4383    2.2673   -2.9131 H   0  0  0  0  0  0  0  0  0  0  0  0
    0.2545    2.1645   -2.3469 H   0  0  0  0  0  0  0  0  0  0  0  0
   -0.5605    0.7309   -3.0808 H   0  0  0  0  0  0  0  0  0  0  0  0
   -1.5897    3.8796   -1.4999 H   0  0  0  0  0  0  0  0  0  0  0  0
   -1.8926    5.6763    0.1721 H   0  0  0  0  0  0  0  0  0  0  0  0
   -1.8377    5.1539    2.6258 H   0  0  0  0  0  0  0  0  0  0  0  0
   -1.4828    2.7852    3.3778 H   0  0  0  0  0  0  0  0  0  0  0  0
   -1.1628    0.9794    1.7108 H   0  0  0  0  0  0  0  0  0  0  0  0
  1  3  1  0  0  0  0
  3 23  1  0  0  0  0
  3  4  1  0  0  0  0
  4 24  1  0  0  0  0
  5  4  2  0  0  0  0
  5 25  1  0  0  0  0
  6  5  1  0  0  0  0
  7  1  1  0  0  0  0
  7  6  2  0  0  0  0
  8  2  1  1  0  0  0
  8  7  1  0  0  0  0
  9  8  1  0  0  0  0
  9 10  1  0  0  0  0
 10 27  1  0  0  0  0
 11 10  2  0  0  0  0
 11 28  1  0  0  0  0
 12 11  1  0  0  0  0
 13 14  1  0  0  0  0
 13 12  2  0  0  0  0
 14  9  2  0  0  0  0
 15 32  1  6  0  0  0
 15  2  1  0  0  0  0
 15 17  1  0  0  0  0
 16 34  1  0  0  0  0
 16 15  1  0  0  0  0
 17 22  1  0  0  0  0
 18 17  2  0  0  0  0
 18 19  1  0  0  0  0
 19 20  2  0  0  0  0
 20 21  1  0  0  0  0
 20 38  1  0  0  0  0
 21 39  1  0  0  0  0
 22 40  1  0  0  0  0
 22 21  2  0  0  0  0
 26  6  1  0  0  0  0
 29 12  1  0  0  0  0
 30 13  1  0  0  0  0
 31 14  1  0  0  0  0
 33 16  1  0  0  0  0
 35 16  1  0  0  0  0
 36 18  1  0  0  0  0
 37 19  1  0  0  0  0
M  END
