1,2
q = -1.0, confidence = 0.004

 42 46  0  0  0  0  0  0  0  0999 V2000
   -1.4670    1.4458   -0.0242 N   0  0  0  0  0  2  0  0  0  0  0  0
   -1.2640   -1.1949    0.0905 N   0  0  0  0  0  2  0  0  0  0  0  0
   -0.1940    0.9285    0.0117 C   0  0  0  0  0  0  0  0  0  0  0  0
   -0.0849   -0.4884    0.0723 C   0  0  0  0  0  0  0  0  0  0  0  0
    3.4751    1.6624    0.0126 N   0  0  0  0  0  0  0  0  0  0  0  0
    0.9699    1.7770   -0.0096 C   0  0  0  0  0  0  0  0  0  0  0  0
    2.2389    1.1315    0.0255 C   0  0  0  0  0  0  0  0  0  0  0  0
   -1.2390   -2.5391    0.1341 C   0  0  0  0  0  0  0  0  0  0  0  0
   -2.2018   -3.0686    0.1350 H   0  0  0  0  0  0  0  0  0  0  0  0
   -0.5536    3.6711   -0.0884 C   0  0  0  0  0  0  0  0  0  0  0  0
   -0.7540    4.7509   -0.1251 H   0  0  0  0  0  0  0  0  0  0  0  0
   -1.6481    2.7779   -0.0686 C   0  0  0  0  0  0  0  0  0  0  0  0
   -2.6807    3.1532   -0.0822 H   0  0  0  0  0  0  0  0  0  0  0  0
    2.3505   -0.3154    0.0824 C   0  0  0  0  0  0  0  0  0  0  0  0
    1.1953   -1.1479    0.1071 C   0  0  0  0  0  0  0  0  0  0  0  0
    1.1897   -2.5662    0.1542 C   0  0  0  0  0  0  0  0  0  0  0  0
    2.1561   -3.0910    0.1752 H   0  0  0  0  0  0  0  0  0  0  0  0
    5.7533    0.7174    0.0818 C   0  0  0  0  0  0  0  0  0  0  0  0
    0.7475    3.1774   -0.0623 C   0  0  0  0  0  0  0  0  0  0  0  0
    1.6225    3.8435   -0.0804 H   0  0  0  0  0  0  0  0  0  0  0  0
    3.6537   -0.6531    0.1022 N   0  0  0  0  0  2  0  0  0  0  0  0
    4.2947    0.5593    0.0506 C   0  0  0  0  0  0  0  0  0  0  0  0
   -0.0206   -3.2536    0.1667 C   0  0  0  0  0  0  0  0  0  0  0  0
   -0.0533   -4.3514    0.1988 H   0  0  0  0  0  0  0  0  0  0  0  0
    6.1809   -1.5380   -0.6996 O   0  0  0  0  0  0  0  0  0  0  0  0
    6.1775   -2.6247    0.2193 C   0  0  0  0  0  0  0  0  0  0  0  0
    7.1820   -2.7883    0.6647 H   0  0  0  0  0  0  0  0  0  0  0  0
    5.8908   -3.5252   -0.3573 H   0  0  0  0  0  0  0  0  0  0  0  0
    5.4240   -2.4526    1.0186 H   0  0  0  0  0  0  0  0  0  0  0  0
    6.6382   -0.3462   -0.2238 C   0  0  0  0  0  0  0  0  0  0  0  0
    7.6639    2.1759    0.5128 C   0  0  0  0  0  0  0  0  0  0  0  0
    8.0694    3.1598    0.7919 H   0  0  0  0  0  0  0  0  0  0  0  0
    6.2869    1.9870    0.4255 C   0  0  0  0  0  0  0  0  0  0  0  0
    5.5798    2.8018    0.6305 H   0  0  0  0  0  0  0  0  0  0  0  0
    8.0462   -0.1423   -0.1228 C   0  0  0  0  0  0  0  0  0  0  0  0
    8.5515    1.1158    0.2472 C   0  0  0  0  0  0  0  0  0  0  0  0
    9.6347    1.2820    0.3191 H   0  0  0  0  0  0  0  0  0  0  0  0
    8.8099   -1.2274   -0.4254 O   0  0  0  0  0  0  0  0  0  0  0  0
   10.2176   -1.0891   -0.3804 C   0  0  0  0  0  0  0  0  0  0  0  0
   10.5777   -0.8259    0.6397 H   0  0  0  0  0  0  0  0  0  0  0  0
   10.5797   -0.3174   -1.0961 H   0  0  0  0  0  0  0  0  0  0  0  0
   10.6374   -2.0708   -0.6677 H   0  0  0  0  0  0  0  0  0  0  0  0
  1  3  1  0  0  0  0
  2  8  1  0  0  0  0
  3  4  2  0  0  0  0
  4  2  1  0  0  0  0
  4 15  1  0  0  0  0
  5  7  1  0  0  0  0
  5 22  2  0  0  0  0
  6  3  1  0  0  0  0
  6  7  1  0  0  0  0
  7 14  2  0  0  0  0
  8  9  1  0  0  0  0
  8 23  2  0  0  0  0
 10 12  2  0  0  0  0
 10 19  1  0  0  0  0
 11 10  1  0  0  0  0
 12  1  1  0  0  0  0
 13 12  1  0  0  0  0
 14 21  1  0  0  0  0
 14 15  1  0  0  0  0
 15 16  2  0  0  0  0
 16 23  1  0  0  0  0
 16 17  1  0  0  0  0
 18 33  1  0  0  0  0
 19  6  2  0  0  0  0
 20 19  1  0  0  0  0
 22 18  1  0  0  0  0
 22 21  1  0  0  0  0
 23 24  1  0  0  0  0
 25 30  1  0  0  0  0
 25 26  1  0  0  0  0
 26 27  1  0  0  0  0
 26 29  1  0  0  0  0
 28 26  1  0  0  0  0
 30 35  1  0  0  0  0
 30 18  2  0  0  0  0
 31 32  1  0  0  0  0
 33 31  2  0  0  0  0
 33 34  1  0  0  0  0
 35 36  2  0  0  0  0
 36 37  1  0  0  0  0
 36 31  1  0  0  0  0
 38 39  1  0  0  0  0
 38 35  1  0  0  0  0
 39 40  1  0  0  0  0
 41 39  1  0  0  0  0
 42 39  1  0  0  0  0
M  END
