1,5
q = 0.0, confidence = 0.982

 16 15  0  0  1  0  0  0  0  0999 V2000
   -0.6147   -1.4255   -0.0003 N   0  0  0  0  0  2  0  0  0  0  0  0
   -0.3070   -2.4056   -0.0003 H   0  0  0  0  0  0  0  0  0  0  0  0
   -2.4785    0.0000    0.0000 N   0  0  0  0  0  0  0  0  0  0  0  0
   -3.4987    0.0000    0.0000 H   0  0  0  0  0  0  0  0  0  0  0  0
   -0.6147    1.4255    0.0004 N   0  0  0  0  0  2  0  0  0  0  0  0
   -0.3070    2.4056    0.0005 H   0  0  0  0  0  0  0  0  0  0  0  0
   -1.8980   -1.2650   -0.0001 C   0  0  2  0  0  3  0  0  0  0  0  0
   -2.8870   -2.4003    0.0006 C   0  0  0  0  0  0  0  0  0  0  0  0
   -3.5411   -2.3540   -0.8948 H   0  0  0  0  0  0  0  0  0  0  0  0
   -2.3625   -3.3722   -0.0026 H   0  0  0  0  0  0  0  0  0  0  0  0
   -3.5358   -2.3571    0.9000 H   0  0  0  0  0  0  0  0  0  0  0  0
   -1.8980    1.2650    0.0001 C   0  0  1  0  0  3  0  0  0  0  0  0
   -2.8870    2.4004   -0.0009 C   0  0  0  0  0  0  0  0  0  0  0  0
   -3.5347    2.3578   -0.9011 H   0  0  0  0  0  0  0  0  0  0  0  0
   -3.5422    2.3534    0.8936 H   0  0  0  0  0  0  0  0  0  0  0  0
   -2.3625    3.3723    0.0036 H   0  0  0  0  0  0  0  0  0  0  0  0
  2  1  1  0  0  0  0
  3  4  1  0  0  0  0
  3 12  1  0  0  0  0
  5  6  1  0  0  0  0
  7  1  1  1  0  0  0
  7  3  1  0  0  0  0
  7  8  1  0  0  0  0
  8 11  1  0  0  0  0
  9  8  1  0  0  0  0
 10  8  1  0  0  0  0
 12  5  1  6  0  0  0
 13 12  1  0  0  0  0
 13 16  1  0  0  0  0
 13 15  1  0  0  0  0
 14 13  1  0  0  0  0
M  END
