1,2
q = -1.0, confidence = 0.0

 54 55  0  0  1  0  0  0  0  0999 V2000
   -0.8308   -1.5957   -0.0171 N   0  0  0  0  0  2  0  0  0  0  0  0
    2.0354   -0.9592   -0.0133 N   0  0  0  0  0  2  0  0  0  0  0  0
    5.4787    1.5414    0.0297 C   0  0  0  0  0  0  0  0  0  0  0  0
    4.8890    1.1381   -1.1829 C   0  0  0  0  0  0  0  0  0  0  0  0
    5.3178    1.4924   -2.1352 H   0  0  0  0  0  0  0  0  0  0  0  0
   -2.8808   -1.1121    1.2367 C   0  0  0  0  0  0  0  0  0  0  0  0
   -2.2120   -1.2997   -0.0027 C   0  0  0  0  0  0  0  0  0  0  0  0
    3.7604    0.3011   -1.2223 C   0  0  0  0  0  0  0  0  0  0  0  0
    2.1281   -2.2973   -0.0321 C   0  0  1  0  0  3  0  0  0  0  0  0
   -4.2472   -0.6717   -1.1819 C   0  0  0  0  0  0  0  0  0  0  0  0
   -4.7759   -0.4949   -2.1337 H   0  0  0  0  0  0  0  0  0  0  0  0
   -4.2305   -0.7197    1.2289 C   0  0  0  0  0  0  0  0  0  0  0  0
   -4.7453   -0.5792    2.1943 H   0  0  0  0  0  0  0  0  0  0  0  0
    3.2037   -0.1534    0.0005 C   0  0  0  0  0  0  0  0  0  0  0  0
   -2.8966   -1.0633   -1.2236 C   0  0  0  0  0  0  0  0  0  0  0  0
    4.8883    1.0972    1.2280 C   0  0  0  0  0  0  0  0  0  0  0  0
    5.3165    1.4192    2.1920 H   0  0  0  0  0  0  0  0  0  0  0  0
   -1.3625   -3.9939   -0.0496 C   0  0  0  0  0  0  0  0  0  0  0  0
   -2.0232   -3.9523    0.8406 H   0  0  0  0  0  0  0  0  0  0  0  0
   -0.8554   -4.9757   -0.0687 H   0  0  0  0  0  0  0  0  0  0  0  0
   -2.0328   -3.9225   -0.9308 H   0  0  0  0  0  0  0  0  0  0  0  0
   -4.9383   -0.4945    0.0316 C   0  0  0  0  0  0  0  0  0  0  0  0
   -0.3683   -2.8499   -0.0360 C   0  0  0  0  0  0  0  0  0  0  0  0
    3.7600    0.2596    1.2385 C   0  0  0  0  0  0  0  0  0  0  0  0
    6.7148    2.4071    0.0457 C   0  0  0  0  0  0  0  0  0  0  0  0
    6.7398    3.0683    0.9351 H   0  0  0  0  0  0  0  0  0  0  0  0
    6.7788    3.0455   -0.8580 H   0  0  0  0  0  0  0  0  0  0  0  0
    7.6402    1.7911    0.0745 H   0  0  0  0  0  0  0  0  0  0  0  0
    1.0116   -3.1693   -0.0442 C   0  0  0  0  0  0  0  0  0  0  0  0
    1.2497   -4.2410   -0.0608 H   0  0  0  0  0  0  0  0  0  0  0  0
    3.5068   -2.9274   -0.0417 C   0  0  0  0  0  0  0  0  0  0  0  0
    4.0902   -2.5880   -0.9220 H   0  0  0  0  0  0  0  0  0  0  0  0
    3.4483   -4.0307   -0.0579 H   0  0  0  0  0  0  0  0  0  0  0  0
    4.0908   -2.6141    0.8477 H   0  0  0  0  0  0  0  0  0  0  0  0
    3.1083   -0.1710    2.5259 C   0  0  0  0  0  0  0  0  0  0  0  0
    3.1394   -1.2727    2.6627 H   0  0  0  0  0  0  0  0  0  0  0  0
    2.0303    0.1004    2.5239 H   0  0  0  0  0  0  0  0  0  0  0  0
    3.5928    0.2989    3.4032 H   0  0  0  0  0  0  0  0  0  0  0  0
   -6.3727   -0.0263    0.0555 C   0  0  0  0  0  0  0  0  0  0  0  0
   -6.8821   -0.2184   -0.9094 H   0  0  0  0  0  0  0  0  0  0  0  0
   -6.4379    1.0677    0.2481 H   0  0  0  0  0  0  0  0  0  0  0  0
   -6.9546   -0.5269    0.8555 H   0  0  0  0  0  0  0  0  0  0  0  0
    3.1093   -0.0857   -2.5238 C   0  0  0  0  0  0  0  0  0  0  0  0
    3.5952    0.4123   -3.3847 H   0  0  0  0  0  0  0  0  0  0  0  0
    2.0316    0.1871   -2.5135 H   0  0  0  0  0  0  0  0  0  0  0  0
    3.1390   -1.1823   -2.6968 H   0  0  0  0  0  0  0  0  0  0  0  0
   -2.1523   -1.1943   -2.5253 C   0  0  0  0  0  0  0  0  0  0  0  0
   -2.7727   -0.8738   -3.3842 H   0  0  0  0  0  0  0  0  0  0  0  0
   -1.8176   -2.2368   -2.7112 H   0  0  0  0  0  0  0  0  0  0  0  0
   -1.2245   -0.5829   -2.5008 H   0  0  0  0  0  0  0  0  0  0  0  0
   -2.1186   -1.2946    2.5219 C   0  0  0  0  0  0  0  0  0  0  0  0
   -2.7247   -1.0022    3.4007 H   0  0  0  0  0  0  0  0  0  0  0  0
   -1.1874   -0.6884    2.5060 H   0  0  0  0  0  0  0  0  0  0  0  0
   -1.7880   -2.3452    2.6650 H   0  0  0  0  0  0  0  0  0  0  0  0
  1  7  1  0  0  0  0
  2 14  1  0  0  0  0
  3 25  1  0  0  0  0
  3 16  1  0  0  0  0
  4  3  2  0  0  0  0
  5  4  1  0  0  0  0
  6 51  1  0  0  0  0
  7  6  2  0  0  0  0
  8  4  1  0  0  0  0
  8 14  2  0  0  0  0
  9 29  1  6  0  0  0
  9  2  1  0  0  0  0
 10 22  1  0  0  0  0
 11 10  1  0  0  0  0
 12  6  1  0  0  0  0
 12 13  1  0  0  0  0
 14 24  1  0  0  0  0
 15 10  2  0  0  0  0
 15  7  1  0  0  0  0
 16 24  2  0  0  0  0
 16 17  1  0  0  0  0
 18 23  1  0  0  0  0
 18 19  1  0  0  0  0
 20 18  1  0  0  0  0
 21 18  1  0  0  0  0
 22 39  1  0  0  0  0
 22 12  2  0  0  0  0
 23  1  1  0  0  0  0
 24 35  1  0  0  0  0
 25 28  1  0  0  0  0
 25 26  1  0  0  0  0
 27 25  1  0  0  0  0
 29 23  2  0  0  0  0
 30 29  1  0  0  0  0
 31  9  1  0  0  0  0
 31 34  1  0  0  0  0
 32 31  1  0  0  0  0
 33 31  1  0  0  0  0
 35 36  1  0  0  0  0
 35 38  1  0  0  0  0
 37 35  1  0  0  0  0
 39 41  1  0  0  0  0
 39 42  1  0  0  0  0
 40 39  1  0  0  0  0
 43 45  1  0  0  0  0
 43  8  1  0  0  0  0
 44 43  1  0  0  0  0
 46 43  1  0  0  0  0
 47 50  1  0  0  0  0
 47 15  1  0  0  0  0
 48 47  1  0  0  0  0
 49 47  1  0  0  0  0
 51 54  1  0  0  0  0
 51 52  1  0  0  0  0
 53 51  1  0  0  0  0
M  END
