1,2
q = 0.0, confidence = 0.996

 25 26  0  0  1  0  0  0  0  0999 V2000
   -0.1446    1.4364   -0.1892 N   0  0  0  0  0  2  0  0  0  0  0  0
   -0.1446   -1.4363   -0.1893 N   0  0  0  0  0  2  0  0  0  0  0  0
   -2.1385   -2.3822   -0.0382 N   0  0  0  0  0  0  0  0  0  0  0  0
   -2.1385    2.3821   -0.0384 N   0  0  0  0  0  0  0  0  0  0  0  0
   -0.0506    2.7223   -0.6903 C   0  0  0  0  0  0  0  0  0  0  0  0
   -1.2879    3.3200   -0.5997 C   0  0  0  0  0  0  0  0  0  0  0  0
   -1.4165    1.2480    0.1975 C   0  0  2  0  0  3  0  0  0  0  0  0
   -1.9618    0.0000    0.8227 C   0  0  0  0  0  0  0  0  0  0  0  0
   -1.4165   -1.2480    0.1975 C   0  0  1  0  0  3  0  0  0  0  0  0
   -1.2879   -3.3201   -0.5996 C   0  0  0  0  0  0  0  0  0  0  0  0
   -0.0506   -2.7222   -0.6904 C   0  0  0  0  0  0  0  0  0  0  0  0
   -3.5528   -2.5881    0.2538 C   0  0  0  0  0  0  0  0  0  0  0  0
   -3.5529    2.5881    0.2535 C   0  0  0  0  0  0  0  0  0  0  0  0
    0.8849    3.1309   -1.0835 H   0  0  0  0  0  0  0  0  0  0  0  0
   -1.6331    4.3185   -0.8850 H   0  0  0  0  0  0  0  0  0  0  0  0
   -1.7300    0.0000    1.9146 H   0  0  0  0  0  0  0  0  0  0  0  0
   -3.0654    0.0000    0.7498 H   0  0  0  0  0  0  0  0  0  0  0  0
   -1.6331   -4.3185   -0.8847 H   0  0  0  0  0  0  0  0  0  0  0  0
    0.8848   -3.1309   -1.0837 H   0  0  0  0  0  0  0  0  0  0  0  0
   -3.7531   -2.4700    1.3364 H   0  0  0  0  0  0  0  0  0  0  0  0
   -4.1814   -1.8796   -0.3207 H   0  0  0  0  0  0  0  0  0  0  0  0
   -3.8302   -3.6148   -0.0422 H   0  0  0  0  0  0  0  0  0  0  0  0
   -3.8303    3.6147   -0.0425 H   0  0  0  0  0  0  0  0  0  0  0  0
   -4.1814    1.8795   -0.3210 H   0  0  0  0  0  0  0  0  0  0  0  0
   -3.7533    2.4699    1.3361 H   0  0  0  0  0  0  0  0  0  0  0  0
  1  7  1  0  0  0  0
  2  9  1  0  0  0  0
  3  9  1  0  0  0  0
  3 12  1  0  0  0  0
  4  7  1  0  0  0  0
  4 13  1  0  0  0  0
  5  6  2  0  0  0  0
  5  1  1  0  0  0  0
  6  4  1  0  0  0  0
  7  8  1  1  0  0  0
  8 16  1  0  0  0  0
  9  8  1  1  0  0  0
 10  3  1  0  0  0  0
 11 10  2  0  0  0  0
 11  2  1  0  0  0  0
 12 20  1  0  0  0  0
 13 25  1  0  0  0  0
 14  5  1  0  0  0  0
 15  6  1  0  0  0  0
 17  8  1  0  0  0  0
 18 10  1  0  0  0  0
 19 11  1  0  0  0  0
 21 12  1  0  0  0  0
 22 12  1  0  0  0  0
 23 13  1  0  0  0  0
 24 13  1  0  0  0  0
M  END
