1,15
q = -1.0, confidence = 0.0

 28 29  0  0  1  0  0  0  0  0999 V2000
   -0.4644   -1.7923   -0.0014 N   0  0  0  0  0  2  0  0  0  0  0  0
    0.3662   -2.4269   -0.0017 H   0  0  0  0  0  0  0  0  0  0  0  0
   -1.6110   -2.4162   -0.0002 C   0  0  2  0  0  3  0  0  0  0  0  0
   -1.6551   -3.9391   -0.0001 C   0  0  0  0  0  0  0  0  0  0  0  0
   -0.6048   -4.2996   -0.0005 H   0  0  0  0  0  0  0  0  0  0  0  0
   -2.3554   -4.4429    1.2717 C   0  0  0  0  0  0  0  0  0  0  0  0
   -1.8177   -4.1187    2.1851 H   0  0  0  0  0  0  0  0  0  0  0  0
   -2.4040   -5.5506    1.2745 H   0  0  0  0  0  0  0  0  0  0  0  0
   -3.3884   -4.0444    1.3210 H   0  0  0  0  0  0  0  0  0  0  0  0
   -2.3563   -4.4431   -1.2713 C   0  0  0  0  0  0  0  0  0  0  0  0
   -3.3894   -4.0447   -1.3198 H   0  0  0  0  0  0  0  0  0  0  0  0
   -2.4048   -5.5508   -1.2740 H   0  0  0  0  0  0  0  0  0  0  0  0
   -1.8193   -4.1189   -2.1851 H   0  0  0  0  0  0  0  0  0  0  0  0
   -1.9662    2.8419    0.0007 O   0  0  0  0  0  0  0  0  0  0  0  0
   -1.9013    0.4632    0.0006 N   0  0  0  0  0  2  0  0  0  0  0  0
   -2.8282   -1.7984    0.0005 N   0  0  0  0  0  0  0  0  0  0  0  0
   -2.5222    1.7385    0.0003 C   0  0  0  0  0  0  0  0  0  0  0  0
   -4.0003    1.5491   -0.0000 C   0  0  0  0  0  0  0  0  0  0  0  0
   -5.0463    2.4734   -0.0004 C   0  0  0  0  0  0  0  0  0  0  0  0
   -4.8434    3.5546   -0.0006 H   0  0  0  0  0  0  0  0  0  0  0  0
   -6.3579    1.9599   -0.0005 C   0  0  0  0  0  0  0  0  0  0  0  0
   -7.2139    2.6516   -0.0008 H   0  0  0  0  0  0  0  0  0  0  0  0
   -6.5938    0.5697   -0.0003 C   0  0  0  0  0  0  0  0  0  0  0  0
   -7.6308    0.2008   -0.0004 H   0  0  0  0  0  0  0  0  0  0  0  0
   -5.5286   -0.3521    0.0001 C   0  0  0  0  0  0  0  0  0  0  0  0
   -5.6940   -1.4391    0.0003 H   0  0  0  0  0  0  0  0  0  0  0  0
   -4.2332    0.1696    0.0002 C   0  0  0  0  0  0  0  0  0  0  0  0
   -2.9075   -0.4905    0.0005 C   0  0  0  0  0  0  0  0  0  0  0  0
  2  1  1  0  0  0  0
  3  1  1  6  0  0  0
  3  4  1  0  0  0  0
  3 16  1  0  0  0  0
  4  6  1  0  0  0  0
  5  4  1  0  0  0  0
  6  8  1  0  0  0  0
  6  9  1  0  0  0  0
  6  7  1  0  0  0  0
 10  4  1  0  0  0  0
 11 10  1  0  0  0  0
 12 10  1  0  0  0  0
 13 10  1  0  0  0  0
 17 15  1  0  0  0  0
 17 14  2  0  0  0  0
 18 27  1  0  0  0  0
 18 17  1  0  0  0  0
 19 18  2  0  0  0  0
 20 19  1  0  0  0  0
 21 19  1  0  0  0  0
 21 23  2  0  0  0  0
 22 21  1  0  0  0  0
 23 25  1  0  0  0  0
 24 23  1  0  0  0  0
 25 27  2  0  0  0  0
 25 26  1  0  0  0  0
 27 28  1  0  0  0  0
 28 16  2  0  0  0  0
 28 15  1  0  0  0  0
M  END
