2,6
q = 0.0, confidence = 0.994

 44 47  0  0  1  0  0  0  0  0999 V2000
   -0.1778    0.5670   -0.9931 C   0  0  1  0  0  3  0  0  0  0  0  0
    0.3067   -0.3975   -0.1619 N   0  0  0  0  0  2  0  0  0  0  0  0
   -1.5458   -1.7337   -0.4432 C   0  0  0  0  0  0  0  0  0  0  0  0
   -0.3475   -1.4893    0.1146 N   0  0  0  0  0  0  0  0  0  0  0  0
   -3.4345   -3.2330   -0.0003 N   0  0  0  0  0  0  0  0  0  0  0  0
    2.0265    1.5195   -0.7294 N   0  0  0  0  0  2  0  0  0  0  0  0
    0.7442    1.7296   -1.1437 C   0  0  2  0  0  3  0  0  0  0  0  0
   -2.0982   -3.0596   -0.0303 C   0  0  0  0  0  0  0  0  0  0  0  0
   -2.1361   -0.8327   -1.3716 C   0  0  0  0  0  0  0  0  0  0  0  0
    2.9516    2.4825   -0.8592 C   0  0  0  0  0  0  0  0  0  0  0  0
    3.9622    2.2222   -0.5077 H   0  0  0  0  0  0  0  0  0  0  0  0
   -1.1931   -4.0834    0.3372 C   0  0  0  0  0  0  0  0  0  0  0  0
   -0.1127   -3.8907    0.2873 H   0  0  0  0  0  0  0  0  0  0  0  0
   -3.9150   -4.4184    0.4000 C   0  0  0  0  0  0  0  0  0  0  0  0
   -5.0149   -4.5179    0.4153 H   0  0  0  0  0  0  0  0  0  0  0  0
    0.3726    3.0053   -1.6208 C   0  0  0  0  0  0  0  0  0  0  0  0
   -0.6727    3.2377   -1.8356 H   0  0  0  0  0  0  0  0  0  0  0  0
   -3.0998   -5.4932    0.7881 C   0  0  0  0  0  0  0  0  0  0  0  0
   -3.5487   -6.4448    1.1088 H   0  0  0  0  0  0  0  0  0  0  0  0
   -1.7084   -5.3165    0.7494 C   0  0  0  0  0  0  0  0  0  0  0  0
   -1.0285   -6.1334    1.0351 H   0  0  0  0  0  0  0  0  0  0  0  0
   -3.4601   -1.1153   -2.0300 C   0  0  0  0  0  0  0  0  0  0  0  0
   -3.5960   -2.2078   -2.1283 H   0  0  0  0  0  0  0  0  0  0  0  0
   -3.4588   -0.6917   -3.0533 H   0  0  0  0  0  0  0  0  0  0  0  0
    1.3340    4.0136   -1.7472 C   0  0  0  0  0  0  0  0  0  0  0  0
    1.0384    5.0080   -2.1131 H   0  0  0  0  0  0  0  0  0  0  0  0
   -4.6689   -0.5624   -1.2414 C   0  0  0  0  0  0  0  0  0  0  0  0
   -4.8111   -1.2275   -0.3662 H   0  0  0  0  0  0  0  0  0  0  0  0
   -5.5687   -0.6761   -1.8846 H   0  0  0  0  0  0  0  0  0  0  0  0
    2.6601    3.7443   -1.3876 C   0  0  0  0  0  0  0  0  0  0  0  0
    3.4527    4.4999   -1.4814 H   0  0  0  0  0  0  0  0  0  0  0  0
   -1.9594    1.3378   -2.6768 C   0  0  0  0  0  0  0  0  0  0  0  0
   -1.1056    1.8356   -3.1729 H   0  0  0  0  0  0  0  0  0  0  0  0
   -2.4710    0.7765   -3.4827 H   0  0  0  0  0  0  0  0  0  0  0  0
   -1.4222    0.3612   -1.6569 C   0  0  0  0  0  0  0  0  0  0  0  0
   -2.9336    2.4066   -2.1235 C   0  0  0  0  0  0  0  0  0  0  0  0
   -2.5312    2.8354   -1.1802 H   0  0  0  0  0  0  0  0  0  0  0  0
   -2.9607    3.2419   -2.8559 H   0  0  0  0  0  0  0  0  0  0  0  0
   -4.5597    0.8867   -0.7605 C   0  0  0  0  0  0  0  0  0  0  0  0
   -3.7344    0.9651   -0.0216 H   0  0  0  0  0  0  0  0  0  0  0  0
   -5.4808    1.1087   -0.1827 H   0  0  0  0  0  0  0  0  0  0  0  0
   -4.3775    1.9623   -1.8486 C   0  0  0  0  0  0  0  0  0  0  0  0
   -4.8566    1.6253   -2.7957 H   0  0  0  0  0  0  0  0  0  0  0  0
   -4.9259    2.8754   -1.5391 H   0  0  0  0  0  0  0  0  0  0  0  0
  1 35  1  6  0  0  0
  1  2  1  0  0  0  0
  2  4  1  0  0  0  0
  3  8  1  0  0  0  0
  3  4  2  0  0  0  0
  5 14  1  0  0  0  0
  7 16  1  1  0  0  0
  7  1  1  0  0  0  0
  7  6  1  0  0  0  0
  8  5  2  0  0  0  0
  8 12  1  0  0  0  0
  9  3  1  0  0  0  0
 10  6  1  0  0  0  0
 10 11  1  0  0  0  0
 12 20  2  0  0  0  0
 13 12  1  0  0  0  0
 14 15  1  0  0  0  0
 14 18  2  0  0  0  0
 17 16  1  0  0  0  0
 18 19  1  0  0  0  0
 20 18  1  0  0  0  0
 20 21  1  0  0  0  0
 22  9  1  0  0  0  0
 22 27  1  0  0  0  0
 23 22  1  0  0  0  0
 24 22  1  0  0  0  0
 25 16  2  0  0  0  0
 25 30  1  0  0  0  0
 26 25  1  0  0  0  0
 27 39  1  0  0  0  0
 27 28  1  0  0  0  0
 29 27  1  0  0  0  0
 30 10  2  0  0  0  0
 31 30  1  0  0  0  0
 32 36  1  0  0  0  0
 32 35  1  0  0  0  0
 33 32  1  0  0  0  0
 34 32  1  0  0  0  0
 35  9  2  0  0  0  0
 36 42  1  0  0  0  0
 36 37  1  0  0  0  0
 38 36  1  0  0  0  0
 39 41  1  0  0  0  0
 39 40  1  0  0  0  0
 42 44  1  0  0  0  0
 42 39  1  0  0  0  0
 43 42  1  0  0  0  0
M  END
