7,8
q = 0.0, confidence = 0.986

 26 27  0  0  0  0  0  0  0  0999 V2000
    3.1377   -5.0655   -0.0002 O   0  0  0  0  0  0  0  0  0  0  0  0
    4.0170   -5.5021   -0.0005 H   0  0  0  0  0  0  0  0  0  0  0  0
    4.5025   -3.2544   -0.0009 O   0  0  0  0  0  0  0  0  0  0  0  0
    4.5000    3.2578    0.0008 O   0  0  0  0  0  0  0  0  0  0  0  0
    3.1338    5.0678    0.0000 O   0  0  0  0  0  0  0  0  0  0  0  0
    4.0127    5.5051    0.0003 H   0  0  0  0  0  0  0  0  0  0  0  0
   -0.1590   -1.3072    0.0004 N   0  0  0  0  0  2  0  0  0  0  0  0
   -0.1600    1.3070   -0.0003 N   0  0  0  0  0  2  0  0  0  0  0  0
   -0.2785   -2.6579    0.0006 C   0  0  0  0  0  0  0  0  0  0  0  0
   -1.3195   -3.0227    0.0008 H   0  0  0  0  0  0  0  0  0  0  0  0
    0.8365   -3.4942    0.0004 C   0  0  0  0  0  0  0  0  0  0  0  0
    0.7043   -4.5841    0.0005 H   0  0  0  0  0  0  0  0  0  0  0  0
    2.1259   -2.9249   -0.0000 C   0  0  0  0  0  0  0  0  0  0  0  0
    2.2442   -1.5274   -0.0001 C   0  0  0  0  0  0  0  0  0  0  0  0
    3.2494   -1.0837   -0.0005 H   0  0  0  0  0  0  0  0  0  0  0  0
    1.0921   -0.7327    0.0001 C   0  0  0  0  0  0  0  0  0  0  0  0
    1.0916    0.7335    0.0000 C   0  0  0  0  0  0  0  0  0  0  0  0
    2.2430    1.5290    0.0002 C   0  0  0  0  0  0  0  0  0  0  0  0
    3.2485    1.0861    0.0006 H   0  0  0  0  0  0  0  0  0  0  0  0
    2.1236    2.9264    0.0000 C   0  0  0  0  0  0  0  0  0  0  0  0
    0.8338    3.4948   -0.0004 C   0  0  0  0  0  0  0  0  0  0  0  0
    0.7007    4.5846   -0.0006 H   0  0  0  0  0  0  0  0  0  0  0  0
   -0.2805    2.6576   -0.0005 C   0  0  0  0  0  0  0  0  0  0  0  0
   -1.3218    3.0216   -0.0008 H   0  0  0  0  0  0  0  0  0  0  0  0
    3.3830   -3.7347   -0.0004 C   0  0  0  0  0  0  0  0  0  0  0  0
    3.3801    3.7372    0.0003 C   0  0  0  0  0  0  0  0  0  0  0  0
  2  1  1  0  0  0  0
  3 25  2  0  0  0  0
  5  6  1  0  0  0  0
  5 26  1  0  0  0  0
  7  9  1  0  0  0  0
  8 17  1  0  0  0  0
  9 10  1  0  0  0  0
 11 12  1  0  0  0  0
 11  9  2  0  0  0  0
 13 11  1  0  0  0  0
 14 13  2  0  0  0  0
 14 16  1  0  0  0  0
 15 14  1  0  0  0  0
 16  7  1  0  0  0  0
 17 16  2  0  0  0  0
 17 18  1  0  0  0  0
 18 19  1  0  0  0  0
 20 18  2  0  0  0  0
 20 26  1  0  0  0  0
 21 20  1  0  0  0  0
 22 21  1  0  0  0  0
 23 21  2  0  0  0  0
 23  8  1  0  0  0  0
 24 23  1  0  0  0  0
 25  1  1  0  0  0  0
 25 13  1  0  0  0  0
 26  4  2  0  0  0  0
M  END
