1,4
q = 0.0, confidence = 0.97

 33 34  0  0  0  0  0  0  0  0999 V2000
   -0.9579   -1.2460   -0.5575 N   0  0  0  0  0  2  0  0  0  0  0  0
   -2.8524   -0.2064   -1.1115 N   0  0  0  0  0  0  0  0  0  0  0  0
   -0.8515    1.1186   -0.6685 N   0  0  0  0  0  0  0  0  0  0  0  0
    0.3958    0.8952   -0.3368 N   0  0  0  0  0  2  0  0  0  0  0  0
    1.1990    2.0614   -0.2441 C   0  0  0  0  0  0  0  0  0  0  0  0
    2.5514    2.0103   -0.6427 C   0  0  0  0  0  0  0  0  0  0  0  0
    2.9695    1.0685   -1.0174 H   0  0  0  0  0  0  0  0  0  0  0  0
    3.3297    3.1726   -0.5675 C   0  0  0  0  0  0  0  0  0  0  0  0
    4.3816    3.1360   -0.8872 H   0  0  0  0  0  0  0  0  0  0  0  0
    2.7796    4.3706   -0.0867 C   0  0  0  0  0  0  0  0  0  0  0  0
    3.4026    5.2752   -0.0191 H   0  0  0  0  0  0  0  0  0  0  0  0
    1.4308    4.4144    0.3123 C   0  0  0  0  0  0  0  0  0  0  0  0
    0.9990    5.3495    0.6995 H   0  0  0  0  0  0  0  0  0  0  0  0
    0.6363    3.2685    0.2283 C   0  0  0  0  0  0  0  0  0  0  0  0
   -0.4165    3.2771    0.5409 H   0  0  0  0  0  0  0  0  0  0  0  0
   -1.5387   -0.0374   -0.7602 C   0  0  0  0  0  0  0  0  0  0  0  0
   -1.9060   -2.2080   -0.7687 C   0  0  0  0  0  0  0  0  0  0  0  0
   -1.6705   -3.2716   -0.6581 H   0  0  0  0  0  0  0  0  0  0  0  0
   -3.0935   -1.5661   -1.1103 C   0  0  0  0  0  0  0  0  0  0  0  0
   -4.0808   -1.9701   -1.3548 H   0  0  0  0  0  0  0  0  0  0  0  0
   -3.8096    0.8777   -1.3315 C   0  0  0  0  0  0  0  0  0  0  0  0
   -4.6707    0.4399   -1.8747 H   0  0  0  0  0  0  0  0  0  0  0  0
   -3.3258    1.6170   -2.0001 H   0  0  0  0  0  0  0  0  0  0  0  0
   -4.2599    1.5486   -0.0297 C   0  0  0  0  0  0  0  0  0  0  0  0
   -3.3735    2.0157    0.4520 H   0  0  0  0  0  0  0  0  0  0  0  0
   -4.9350    2.3871   -0.3075 H   0  0  0  0  0  0  0  0  0  0  0  0
   -4.9646    0.6132    0.9561 C   0  0  0  0  0  0  0  0  0  0  0  0
   -4.2845   -0.2265    1.2184 H   0  0  0  0  0  0  0  0  0  0  0  0
   -5.8432    0.1476    0.4551 H   0  0  0  0  0  0  0  0  0  0  0  0
   -5.4120    1.3232    2.2342 C   0  0  0  0  0  0  0  0  0  0  0  0
   -5.9156    0.6252    2.9317 H   0  0  0  0  0  0  0  0  0  0  0  0
   -6.1216    2.1474    2.0128 H   0  0  0  0  0  0  0  0  0  0  0  0
   -4.5470    1.7652    2.7706 H   0  0  0  0  0  0  0  0  0  0  0  0
  2 19  1  0  0  0  0
  2 16  1  0  0  0  0
  3  4  1  0  0  0  0
  4  5  1  0  0  0  0
  5 14  1  0  0  0  0
  6  8  1  0  0  0  0
  6  5  2  0  0  0  0
  7  6  1  0  0  0  0
  8 10  2  0  0  0  0
  9  8  1  0  0  0  0
 10 11  1  0  0  0  0
 10 12  1  0  0  0  0
 12 13  1  0  0  0  0
 14 12  2  0  0  0  0
 14 15  1  0  0  0  0
 16  3  2  0  0  0  0
 16  1  1  0  0  0  0
 17 18  1  0  0  0  0
 17  1  1  0  0  0  0
 19 17  2  0  0  0  0
 20 19  1  0  0  0  0
 21  2  1  0  0  0  0
 21 24  1  0  0  0  0
 22 21  1  0  0  0  0
 23 21  1  0  0  0  0
 24 25  1  0  0  0  0
 24 27  1  0  0  0  0
 26 24  1  0  0  0  0
 27 28  1  0  0  0  0
 27 30  1  0  0  0  0
 29 27  1  0  0  0  0
 30 33  1  0  0  0  0
 30 31  1  0  0  0  0
 32 30  1  0  0  0  0
M  END
