1,2
q = 0.0, confidence = 1.0

 50 51  0  0  1  0  0  0  0  0999 V2000
    1.3634    0.9065   -0.6298 N   0  0  0  0  0  2  0  0  0  0  0  0
   -1.3323    0.8356   -0.8226 N   0  0  0  0  0  2  0  0  0  0  0  0
    3.5019   -0.1172   -1.0798 N   0  0  0  0  0  0  0  0  0  0  0  0
    3.5655    1.8065   -0.0153 N   0  0  0  0  0  0  0  0  0  0  0  0
   -3.5432   -0.1311   -1.0563 N   0  0  0  0  0  0  0  0  0  0  0  0
   -3.4403    1.8853   -0.1903 N   0  0  0  0  0  0  0  0  0  0  0  0
    0.6724    2.1850   -0.7898 C   0  0  0  0  0  0  0  0  0  0  0  0
    1.2878    2.9098   -1.3655 H   0  0  0  0  0  0  0  0  0  0  0  0
    0.4131    2.6598    0.1884 H   0  0  0  0  0  0  0  0  0  0  0  0
   -0.6273    1.9044   -1.5260 C   0  0  0  0  0  0  0  0  0  0  0  0
   -1.2314    2.8333   -1.6146 H   0  0  0  0  0  0  0  0  0  0  0  0
   -0.3839    1.5768   -2.5650 H   0  0  0  0  0  0  0  0  0  0  0  0
    2.6950    0.8780   -0.5696 C   0  0  1  0  0  3  0  0  0  0  0  0
    4.8537    0.1714   -0.8320 C   0  0  0  0  0  0  0  0  0  0  0  0
    4.8974    1.3843   -0.1891 C   0  0  0  0  0  0  0  0  0  0  0  0
    5.9567   -0.7391   -1.2467 C   0  0  0  0  0  0  0  0  0  0  0  0
    6.9286   -0.3437   -0.9001 H   0  0  0  0  0  0  0  0  0  0  0  0
    6.0217   -0.8515   -2.3500 H   0  0  0  0  0  0  0  0  0  0  0  0
    5.8364   -1.7551   -0.8159 H   0  0  0  0  0  0  0  0  0  0  0  0
    6.0598    2.1809    0.2930 C   0  0  0  0  0  0  0  0  0  0  0  0
    7.0046    1.6797    0.0148 H   0  0  0  0  0  0  0  0  0  0  0  0
    6.0661    2.3021    1.3977 H   0  0  0  0  0  0  0  0  0  0  0  0
    6.0807    3.1974   -0.1527 H   0  0  0  0  0  0  0  0  0  0  0  0
    3.0276   -1.1871   -1.9342 C   0  0  0  0  0  0  0  0  0  0  0  0
    2.5671   -2.0037   -1.3466 H   0  0  0  0  0  0  0  0  0  0  0  0
    3.8757   -1.5873   -2.5159 H   0  0  0  0  0  0  0  0  0  0  0  0
    2.2632   -0.7954   -2.6299 H   0  0  0  0  0  0  0  0  0  0  0  0
    3.1877    2.9984    0.7239 C   0  0  0  0  0  0  0  0  0  0  0  0
    3.0658    3.8819    0.0647 H   0  0  0  0  0  0  0  0  0  0  0  0
    3.9700    3.2258    1.4701 H   0  0  0  0  0  0  0  0  0  0  0  0
    2.2441    2.8198    1.2638 H   0  0  0  0  0  0  0  0  0  0  0  0
   -2.6597    0.8662   -0.7107 C   0  0  1  0  0  3  0  0  0  0  0  0
   -4.8558    0.2450   -0.7330 C   0  0  0  0  0  0  0  0  0  0  0  0
   -4.7941    1.5186   -0.2116 C   0  0  0  0  0  0  0  0  0  0  0  0
   -6.0290   -0.6412   -0.9712 C   0  0  0  0  0  0  0  0  0  0  0  0
   -6.9530   -0.1585   -0.6046 H   0  0  0  0  0  0  0  0  0  0  0  0
   -5.9269   -1.6117   -0.4419 H   0  0  0  0  0  0  0  0  0  0  0  0
   -6.1788   -0.8640   -2.0490 H   0  0  0  0  0  0  0  0  0  0  0  0
   -5.8720    2.4200    0.2823 C   0  0  0  0  0  0  0  0  0  0  0  0
   -6.8624    1.9551    0.1275 H   0  0  0  0  0  0  0  0  0  0  0  0
   -5.8728    3.3924   -0.2530 H   0  0  0  0  0  0  0  0  0  0  0  0
   -5.7769    2.6395    1.3674 H   0  0  0  0  0  0  0  0  0  0  0  0
   -2.9052    3.0864    0.4148 C   0  0  0  0  0  0  0  0  0  0  0  0
   -1.8723    2.8756    0.7527 H   0  0  0  0  0  0  0  0  0  0  0  0
   -3.5166    3.3709    1.2911 H   0  0  0  0  0  0  0  0  0  0  0  0
   -2.8837    3.9405   -0.2935 H   0  0  0  0  0  0  0  0  0  0  0  0
   -3.1614   -1.2968   -1.8330 C   0  0  0  0  0  0  0  0  0  0  0  0
   -2.4940   -0.9935   -2.6608 H   0  0  0  0  0  0  0  0  0  0  0  0
   -4.0682   -1.7676   -2.2493 H   0  0  0  0  0  0  0  0  0  0  0  0
   -2.6142   -2.0290   -1.2117 H   0  0  0  0  0  0  0  0  0  0  0  0
  3 14  1  0  0  0  0
  3 13  1  0  0  0  0
  4 28  1  0  0  0  0
  5 33  1  0  0  0  0
  5 32  1  0  0  0  0
  6 43  1  0  0  0  0
  7  1  1  0  0  0  0
  7  9  1  0  0  0  0
  8  7  1  0  0  0  0
 10  2  1  0  0  0  0
 10  7  1  0  0  0  0
 11 10  1  0  0  0  0
 12 10  1  0  0  0  0
 13  1  1  6  0  0  0
 13  4  1  0  0  0  0
 14 15  2  0  0  0  0
 15  4  1  0  0  0  0
 15 20  1  0  0  0  0
 16 17  1  0  0  0  0
 16 14  1  0  0  0  0
 16 19  1  0  0  0  0
 18 16  1  0  0  0  0
 20 22  1  0  0  0  0
 21 20  1  0  0  0  0
 23 20  1  0  0  0  0
 24 25  1  0  0  0  0
 24  3  1  0  0  0  0
 26 24  1  0  0  0  0
 27 24  1  0  0  0  0
 28 31  1  0  0  0  0
 28 30  1  0  0  0  0
 29 28  1  0  0  0  0
 32  2  1  1  0  0  0
 32  6  1  0  0  0  0
 33 34  2  0  0  0  0
 34  6  1  0  0  0  0
 34 39  1  0  0  0  0
 35 33  1  0  0  0  0
 35 36  1  0  0  0  0
 35 37  1  0  0  0  0
 38 35  1  0  0  0  0
 39 42  1  0  0  0  0
 40 39  1  0  0  0  0
 41 39  1  0  0  0  0
 43 44  1  0  0  0  0
 43 45  1  0  0  0  0
 46 43  1  0  0  0  0
 47 50  1  0  0  0  0
 47  5  1  0  0  0  0
 48 47  1  0  0  0  0
 49 47  1  0  0  0  0
M  END
