2,5
q = 0.0, confidence = 1.0

 20 20  0  0  0  0  0  0  0  0999 V2000
   -2.5527    1.0973   -1.8220 O   0  0  0  0  0  0  0  0  0  0  0  0
    1.3552   -1.4962   -0.1530 N   0  0  0  0  0  2  0  0  0  0  0  0
   -2.6516   -0.9918   -0.8009 N   0  0  0  0  0  0  0  0  0  0  0  0
   -3.2072   -1.5381   -0.1155 H   0  0  0  0  0  0  0  0  0  0  0  0
   -1.3289   -1.1918   -0.7793 N   0  0  0  0  0  2  0  0  0  0  0  0
   -4.3513    0.5298   -0.4975 N   0  0  0  0  0  0  0  0  0  0  0  0
   -4.7178    1.4743   -0.6214 H   0  0  0  0  0  0  0  0  0  0  0  0
   -4.5060    0.0832    0.4206 H   0  0  0  0  0  0  0  0  0  0  0  0
   -3.1421    0.3044   -1.0840 C   0  0  0  0  0  0  0  0  0  0  0  0
   -0.8807   -2.3658   -0.4448 C   0  0  0  0  0  3  0  0  0  0  0  0
   -1.5633   -3.2209   -0.2672 H   0  0  0  0  0  0  0  0  0  0  0  0
    2.6810   -1.6416   -0.0061 C   0  0  0  0  0  3  0  0  0  0  0  0
    3.2467   -0.7005    0.1023 H   0  0  0  0  0  0  0  0  0  0  0  0
    0.5567   -2.5847   -0.2759 C   0  0  0  0  0  0  0  0  0  0  0  0
    3.2895   -2.9058    0.0366 C   0  0  0  0  0  0  0  0  0  0  0  0
    4.3780   -2.9876    0.1654 H   0  0  0  0  0  0  0  0  0  0  0  0
    1.0946   -3.8878   -0.2209 C   0  0  0  0  0  0  0  0  0  0  0  0
    0.4283   -4.7585   -0.3094 H   0  0  0  0  0  0  0  0  0  0  0  0
    2.4768   -4.0451   -0.0671 C   0  0  0  0  0  0  0  0  0  0  0  0
    2.9178   -5.0525   -0.0268 H   0  0  0  0  0  0  0  0  0  0  0  0
  1  9  2  0  0  0  0
  2 12  1  0  0  0  0
  3  5  1  0  0  0  0
  3  4  1  0  0  0  0
  5 10  1  0  0  0  0
  6  8  1  0  0  0  0
  7  6  1  0  0  0  0
  9  3  1  0  0  0  0
  9  6  1  0  0  0  0
 10 14  1  0  0  0  0
 10 11  1  0  0  0  0
 12 15  1  0  0  0  0
 12 13  1  0  0  0  0
 14 17  2  0  0  0  0
 14  2  1  0  0  0  0
 15 16  1  0  0  0  0
 17 19  1  0  0  0  0
 18 17  1  0  0  0  0
 19 20  1  0  0  0  0
 19 15  2  0  0  0  0
M  END
