1,2
q = 0.0, confidence = 0.994

 43 45  0  0  1  0  0  0  0  0999 V2000
   -2.2429   -0.2159   -0.2710 N   0  0  0  0  0  2  0  0  0  0  0  0
    1.6717   -1.1043   -0.2459 N   0  0  0  0  0  2  0  0  0  0  0  0
   -0.2892   -0.4703    1.6978 N   0  0  0  0  0  0  0  0  0  0  0  0
    0.4293    1.4799   -0.1712 N   0  0  0  0  0  0  0  0  0  0  0  0
   -0.1069    0.9235    2.1399 C   0  0  0  0  0  0  0  0  0  0  0  0
    0.3922    0.9731    3.1330 H   0  0  0  0  0  0  0  0  0  0  0  0
   -1.1161    1.3684    2.2735 H   0  0  0  0  0  0  0  0  0  0  0  0
    0.6261    1.7858    1.1315 C   0  0  0  0  0  0  0  0  0  0  0  0
    1.3825    2.8930    1.5357 C   0  0  0  0  0  0  0  0  0  0  0  0
    1.5291    3.1031    2.6053 H   0  0  0  0  0  0  0  0  0  0  0  0
    1.9300    3.7252    0.5496 C   0  0  0  0  0  0  0  0  0  0  0  0
    2.5291    4.6043    0.8293 H   0  0  0  0  0  0  0  0  0  0  0  0
    1.6964    3.4227   -0.7955 C   0  0  0  0  0  0  0  0  0  0  0  0
    2.0999    4.0616   -1.5940 H   0  0  0  0  0  0  0  0  0  0  0  0
    0.9425    2.2820   -1.1378 C   0  0  0  0  0  0  0  0  0  0  0  0
    0.6931    1.9122   -2.5704 C   0  0  0  0  0  0  0  0  0  0  0  0
    1.4108    1.1346   -2.9044 H   0  0  0  0  0  0  0  0  0  0  0  0
    0.8080    2.7864   -3.2378 H   0  0  0  0  0  0  0  0  0  0  0  0
   -0.3149    1.4723   -2.6873 H   0  0  0  0  0  0  0  0  0  0  0  0
   -1.6450   -0.9936    1.9742 C   0  0  0  0  0  0  0  0  0  0  0  0
   -1.9620   -0.8302    3.0301 H   0  0  0  0  0  0  0  0  0  0  0  0
   -1.6174   -2.0886    1.7967 H   0  0  0  0  0  0  0  0  0  0  0  0
   -2.6598   -0.3920    1.0236 C   0  0  2  0  0  3  0  0  0  0  0  0
   -3.9622   -0.0655    1.4145 C   0  0  0  0  0  0  0  0  0  0  0  0
   -4.2625   -0.2057    2.4631 H   0  0  0  0  0  0  0  0  0  0  0  0
   -4.8714    0.4274    0.4640 C   0  0  0  0  0  0  0  0  0  0  0  0
   -5.9008    0.6811    0.7557 H   0  0  0  0  0  0  0  0  0  0  0  0
   -4.4376    0.5930   -0.8567 C   0  0  0  0  0  0  0  0  0  0  0  0
   -5.1089    0.9774   -1.6373 H   0  0  0  0  0  0  0  0  0  0  0  0
   -3.1165    0.2653   -1.1840 C   0  0  0  0  0  0  0  0  0  0  0  0
   -2.7282    0.3857   -2.2050 H   0  0  0  0  0  0  0  0  0  0  0  0
    0.8317   -1.3638    2.0476 C   0  0  0  0  0  0  0  0  0  0  0  0
    0.4508   -2.4054    1.9932 H   0  0  0  0  0  0  0  0  0  0  0  0
    1.1909   -1.1966    3.0888 H   0  0  0  0  0  0  0  0  0  0  0  0
    1.9918   -1.2628    1.0771 C   0  0  1  0  0  3  0  0  0  0  0  0
    3.3218   -1.4063    1.4873 C   0  0  0  0  0  0  0  0  0  0  0  0
    3.5474   -1.5173    2.5578 H   0  0  0  0  0  0  0  0  0  0  0  0
    4.3485   -1.4194    0.5302 C   0  0  0  0  0  0  0  0  0  0  0  0
    5.3976   -1.5361    0.8384 H   0  0  0  0  0  0  0  0  0  0  0  0
    4.0075   -1.2817   -0.8210 C   0  0  0  0  0  0  0  0  0  0  0  0
    4.7724   -1.2899   -1.6100 H   0  0  0  0  0  0  0  0  0  0  0  0
    2.6613   -1.1209   -1.1674 C   0  0  0  0  0  0  0  0  0  0  0  0
    2.3464   -0.9998   -2.2132 H   0  0  0  0  0  0  0  0  0  0  0  0
  1 23  1  0  0  0  0
  2 35  1  0  0  0  0
  3 20  1  0  0  0  0
  3 32  1  0  0  0  0
  3  5  1  0  0  0  0
  4  8  1  0  0  0  0
  5  7  1  0  0  0  0
  5  6  1  0  0  0  0
  8  9  2  0  0  0  0
  8  5  1  0  0  0  0
  9 10  1  0  0  0  0
 11 12  1  0  0  0  0
 11  9  1  0  0  0  0
 13 11  2  0  0  0  0
 14 13  1  0  0  0  0
 15 13  1  0  0  0  0
 15  4  2  0  0  0  0
 16 15  1  0  0  0  0
 17 16  1  0  0  0  0
 18 16  1  0  0  0  0
 19 16  1  0  0  0  0
 20 21  1  0  0  0  0
 22 20  1  0  0  0  0
 23 24  1  0  0  0  0
 23 20  1  6  0  0  0
 24 25  1  0  0  0  0
 26 27  1  0  0  0  0
 26 24  2  0  0  0  0
 28 26  1  0  0  0  0
 29 28  1  0  0  0  0
 30 28  2  0  0  0  0
 30  1  1  0  0  0  0
 31 30  1  0  0  0  0
 32 34  1  0  0  0  0
 33 32  1  0  0  0  0
 35 36  1  0  0  0  0
 35 32  1  6  0  0  0
 36 37  1  0  0  0  0
 38 39  1  0  0  0  0
 38 36  2  0  0  0  0
 40 38  1  0  0  0  0
 41 40  1  0  0  0  0
 42 40  2  0  0  0  0
 42  2  1  0  0  0  0
 43 42  1  0  0  0  0
M  END
