1,2
q = 0.0, confidence = 0.962

 68 73  0  0  1  0  0  0  0  0999 V2000
    1.3227   -0.5775   -0.0435 N   0  0  0  0  0  2  0  0  0  0  0  0
   -1.3566   -0.4537   -0.0178 N   0  0  0  0  0  2  0  0  0  0  0  0
    1.5606    3.0550    2.4390 C   0  0  0  0  0  0  0  0  0  0  0  0
    2.6602    3.0008    2.4356 H   0  0  0  0  0  0  0  0  0  0  0  0
    0.8721    3.5739    3.5508 C   0  0  0  0  0  0  0  0  0  0  0  0
    1.4379    3.9335    4.4233 H   0  0  0  0  0  0  0  0  0  0  0  0
   -0.5309    3.6307    3.5552 C   0  0  0  0  0  0  0  0  0  0  0  0
   -1.0602    4.0334    4.4317 H   0  0  0  0  0  0  0  0  0  0  0  0
   -1.2664    3.1723    2.4470 C   0  0  0  0  0  0  0  0  0  0  0  0
   -2.3666    3.2071    2.4504 H   0  0  0  0  0  0  0  0  0  0  0  0
   -0.5831    2.6674    1.3347 C   0  0  0  0  0  0  0  0  0  0  0  0
    0.8310    2.6055    1.3322 C   0  0  0  0  0  0  0  0  0  0  0  0
    1.4115    1.9779    0.0658 C   0  0  2  0  0  0  0  0  0  0  0  0
    2.5139    1.9243    0.0644 H   0  0  0  0  0  0  0  0  0  0  0  0
    0.8340    2.7293   -1.1317 C   0  0  0  0  0  0  0  0  0  0  0  0
   -0.5796    2.7965   -1.1284 C   0  0  0  0  0  0  0  0  0  0  0  0
   -1.2217    2.1008    0.0686 C   0  0  1  0  0  0  0  0  0  0  0  0
   -2.3246    2.1447    0.0704 H   0  0  0  0  0  0  0  0  0  0  0  0
    1.5669    3.2913   -2.1835 C   0  0  0  0  0  0  0  0  0  0  0  0
    2.6662    3.2320   -2.1850 H   0  0  0  0  0  0  0  0  0  0  0  0
    0.8824    3.9311   -3.2330 C   0  0  0  0  0  0  0  0  0  0  0  0
    1.4509    4.3792   -4.0617 H   0  0  0  0  0  0  0  0  0  0  0  0
   -0.5200    3.9986   -3.2299 C   0  0  0  0  0  0  0  0  0  0  0  0
   -1.0465    4.4991   -4.0562 H   0  0  0  0  0  0  0  0  0  0  0  0
   -1.2587    3.4268   -2.1778 C   0  0  0  0  0  0  0  0  0  0  0  0
   -2.3585    3.4721   -2.1758 H   0  0  0  0  0  0  0  0  0  0  0  0
    0.7604    0.6032    0.0020 C   0  0  0  0  0  0  0  0  0  0  0  0
   -0.7029    0.6674    0.0068 C   0  0  0  0  0  0  0  0  0  0  0  0
   -2.7754   -0.4893   -0.0342 C   0  0  0  0  0  0  0  0  0  0  0  0
   -3.4511   -0.3968   -1.2725 C   0  0  0  0  0  0  0  0  0  0  0  0
   -4.8551   -0.4667   -1.2602 C   0  0  0  0  0  0  0  0  0  0  0  0
   -5.3935   -0.3986   -2.2197 H   0  0  0  0  0  0  0  0  0  0  0  0
   -5.5851   -0.6358   -0.0695 C   0  0  0  0  0  0  0  0  0  0  0  0
   -4.8695   -0.7452    1.1380 C   0  0  0  0  0  0  0  0  0  0  0  0
   -5.4196   -0.8935    2.0816 H   0  0  0  0  0  0  0  0  0  0  0  0
   -3.4668   -0.6881    1.1832 C   0  0  0  0  0  0  0  0  0  0  0  0
   -2.6974   -0.8543    2.4660 C   0  0  0  0  0  0  0  0  0  0  0  0
   -3.3771   -1.0132    3.3242 H   0  0  0  0  0  0  0  0  0  0  0  0
   -2.0598    0.0278    2.6892 H   0  0  0  0  0  0  0  0  0  0  0  0
   -2.0184   -1.7301    2.3843 H   0  0  0  0  0  0  0  0  0  0  0  0
   -2.6698   -0.2681   -2.5540 C   0  0  0  0  0  0  0  0  0  0  0  0
   -2.0967    0.6823   -2.6070 H   0  0  0  0  0  0  0  0  0  0  0  0
   -3.3379   -0.3089   -3.4348 H   0  0  0  0  0  0  0  0  0  0  0  0
   -1.9272   -1.0900   -2.6369 H   0  0  0  0  0  0  0  0  0  0  0  0
    2.7445   -0.6941   -0.0463 C   0  0  0  0  0  0  0  0  0  0  0  0
    3.4233   -0.7274   -1.2855 C   0  0  0  0  0  0  0  0  0  0  0  0
    4.8204   -0.8834   -1.2618 C   0  0  0  0  0  0  0  0  0  0  0  0
    5.3629   -0.9109   -2.2208 H   0  0  0  0  0  0  0  0  0  0  0  0
    5.5382   -1.0130   -0.0580 C   0  0  0  0  0  0  0  0  0  0  0  0
    4.8189   -0.9814    1.1518 C   0  0  0  0  0  0  0  0  0  0  0  0
    5.3606   -1.0867    2.1059 H   0  0  0  0  0  0  0  0  0  0  0  0
    3.4220   -0.8277    1.1873 C   0  0  0  0  0  0  0  0  0  0  0  0
    2.6520   -0.8097    2.4812 C   0  0  0  0  0  0  0  0  0  0  0  0
    2.1752    0.1769    2.6653 H   0  0  0  0  0  0  0  0  0  0  0  0
    3.3090   -1.0353    3.3419 H   0  0  0  0  0  0  0  0  0  0  0  0
    1.8258   -1.5526    2.4590 H   0  0  0  0  0  0  0  0  0  0  0  0
    2.6535   -0.6038   -2.5739 C   0  0  0  0  0  0  0  0  0  0  0  0
    1.8239   -1.3420   -2.6096 H   0  0  0  0  0  0  0  0  0  0  0  0
    3.3093   -0.7640   -3.4501 H   0  0  0  0  0  0  0  0  0  0  0  0
    2.1817    0.3968   -2.6794 H   0  0  0  0  0  0  0  0  0  0  0  0
   -7.0893   -0.7488   -0.0888 C   0  0  0  0  0  0  0  0  0  0  0  0
   -7.5254   -0.2625   -0.9836 H   0  0  0  0  0  0  0  0  0  0  0  0
   -7.5460   -0.2899    0.8109 H   0  0  0  0  0  0  0  0  0  0  0  0
   -7.4081   -1.8135   -0.1062 H   0  0  0  0  0  0  0  0  0  0  0  0
    7.0318   -1.2238   -0.0649 C   0  0  0  0  0  0  0  0  0  0  0  0
    7.2800   -2.3070   -0.0847 H   0  0  0  0  0  0  0  0  0  0  0  0
    7.5096   -0.7982    0.8396 H   0  0  0  0  0  0  0  0  0  0  0  0
    7.5060   -0.7653   -0.9550 H   0  0  0  0  0  0  0  0  0  0  0  0
  1 27  1  0  0  0  0
  2 28  1  0  0  0  0
  3  5  1  0  0  0  0
  4  3  1  0  0  0  0
  5  7  2  0  0  0  0
  5  6  1  0  0  0  0
  7  8  1  0  0  0  0
  9 10  1  0  0  0  0
  9  7  1  0  0  0  0
 11  9  2  0  0  0  0
 12 11  1  0  0  0  0
 12  3  2  0  0  0  0
 13 14  1  6  0  0  0
 13 12  1  0  0  0  0
 15 16  1  0  0  0  0
 15 13  1  0  0  0  0
 16 17  1  0  0  0  0
 17 18  1  1  0  0  0
 17 11  1  0  0  0  0
 19 15  2  0  0  0  0
 20 19  1  0  0  0  0
 21 23  2  0  0  0  0
 21 19  1  0  0  0  0
 22 21  1  0  0  0  0
 23 25  1  0  0  0  0
 24 23  1  0  0  0  0
 25 26  1  0  0  0  0
 25 16  2  0  0  0  0
 27 28  2  0  0  0  0
 27 13  1  0  0  0  0
 28 17  1  0  0  0  0
 29  2  1  0  0  0  0
 29 36  1  0  0  0  0
 30 31  1  0  0  0  0
 30 29  2  0  0  0  0
 31 33  2  0  0  0  0
 32 31  1  0  0  0  0
 33 34  1  0  0  0  0
 34 36  2  0  0  0  0
 34 35  1  0  0  0  0
 36 37  1  0  0  0  0
 37 39  1  0  0  0  0
 37 38  1  0  0  0  0
 40 37  1  0  0  0  0
 41 30  1  0  0  0  0
 42 41  1  0  0  0  0
 43 41  1  0  0  0  0
 44 41  1  0  0  0  0
 45  1  1  0  0  0  0
 45 52  1  0  0  0  0
 46 47  1  0  0  0  0
 46 45  2  0  0  0  0
 47 49  2  0  0  0  0
 48 47  1  0  0  0  0
 49 50  1  0  0  0  0
 50 52  2  0  0  0  0
 50 51  1  0  0  0  0
 52 53  1  0  0  0  0
 53 54  1  0  0  0  0
 53 55  1  0  0  0  0
 56 53  1  0  0  0  0
 57 46  1  0  0  0  0
 58 57  1  0  0  0  0
 59 57  1  0  0  0  0
 60 57  1  0  0  0  0
 61 33  1  0  0  0  0
 61 63  1  0  0  0  0
 62 61  1  0  0  0  0
 64 61  1  0  0  0  0
 65 49  1  0  0  0  0
 65 67  1  0  0  0  0
 66 65  1  0  0  0  0
 68 65  1  0  0  0  0
M  END
