1,2
q = 0.0, confidence = 0.986

 61 63  0  0  1  0  0  0  0  0999 V2000
   -1.6134   -0.0716    0.5479 N   0  0  0  0  0  2  0  0  0  0  0  0
    1.0886    0.4168    0.2186 N   0  0  0  0  0  0  0  0  0  0  0  0
   -0.9012   -0.1630    1.6402 C   0  0  2  0  0  3  0  0  0  0  0  0
    2.1377   -2.3216    0.7203 C   0  0  0  0  0  0  0  0  0  0  0  0
   -3.9310    0.8220    0.4258 C   0  0  0  0  0  0  0  0  0  0  0  0
    2.3317   -2.5510   -0.6595 C   0  0  0  0  0  0  0  0  0  0  0  0
    1.5082   -2.3612   -1.3676 H   0  0  0  0  0  0  0  0  0  0  0  0
   -3.5183   -1.6069    0.6055 C   0  0  0  0  0  0  0  0  0  0  0  0
   -3.0400   -0.2710    0.5538 C   0  0  0  0  0  0  0  0  0  0  0  0
   -5.8060   -0.7478    0.5502 C   0  0  0  0  0  0  0  0  0  0  0  0
   -6.8906   -0.9321    0.5560 H   0  0  0  0  0  0  0  0  0  0  0  0
   -5.3130    0.5565    0.4432 C   0  0  0  0  0  0  0  0  0  0  0  0
   -6.0096    1.4039    0.3501 H   0  0  0  0  0  0  0  0  0  0  0  0
    1.8170    1.6765    0.3401 C   0  0  0  0  0  0  0  0  0  0  0  0
    1.4343    0.1290    2.6992 C   0  0  0  0  0  0  0  0  0  0  0  0
    1.2611    1.1899    2.9580 H   0  0  0  0  0  0  0  0  0  0  0  0
    2.5142    0.0122    2.4905 H   0  0  0  0  0  0  0  0  0  0  0  0
    1.1865   -0.4960    3.5779 H   0  0  0  0  0  0  0  0  0  0  0  0
    0.6223   -0.3035    1.4761 C   0  0  2  0  0  0  0  0  0  0  0  0
   -1.5003   -0.3110    3.0045 C   0  0  0  0  0  0  0  0  0  0  0  0
   -2.6028   -0.2597    2.9632 H   0  0  0  0  0  0  0  0  0  0  0  0
   -1.1222    0.4849    3.6785 H   0  0  0  0  0  0  0  0  0  0  0  0
   -1.2074   -1.2781    3.4657 H   0  0  0  0  0  0  0  0  0  0  0  0
    0.7900   -1.8513    1.2073 C   0  0  0  0  0  0  0  0  0  0  0  0
    0.5183   -2.3719    2.1477 H   0  0  0  0  0  0  0  0  0  0  0  0
    0.0379   -2.1260    0.4457 H   0  0  0  0  0  0  0  0  0  0  0  0
    3.8562    0.4863   -0.6574 C   0  0  0  0  0  0  0  0  0  0  0  0
    4.8722    0.7465   -1.0078 H   0  0  0  0  0  0  0  0  0  0  0  0
    3.2858    0.1054   -1.5314 H   0  0  0  0  0  0  0  0  0  0  0  0
    3.9624   -0.3427    0.0725 H   0  0  0  0  0  0  0  0  0  0  0  0
   -3.4415    2.2277    0.2310 C   0  0  0  0  0  0  0  0  0  0  0  0
   -2.9108    2.6162    1.1227 H   0  0  0  0  0  0  0  0  0  0  0  0
   -4.2862    2.9092    0.0187 H   0  0  0  0  0  0  0  0  0  0  0  0
   -2.7400    2.2673   -0.6289 H   0  0  0  0  0  0  0  0  0  0  0  0
    3.1795    1.6953   -0.0669 C   0  0  0  0  0  0  0  0  0  0  0  0
    3.2124   -2.5571    1.6048 C   0  0  0  0  0  0  0  0  0  0  0  0
    3.0696   -2.4126    2.6869 H   0  0  0  0  0  0  0  0  0  0  0  0
   -4.9081   -1.8191    0.6138 C   0  0  0  0  0  0  0  0  0  0  0  0
   -5.2826   -2.8537    0.6512 H   0  0  0  0  0  0  0  0  0  0  0  0
    4.6378   -3.2089   -0.2560 C   0  0  0  0  0  0  0  0  0  0  0  0
    5.6122   -3.5524   -0.6347 H   0  0  0  0  0  0  0  0  0  0  0  0
    3.5737   -2.9896   -1.1432 C   0  0  0  0  0  0  0  0  0  0  0  0
    3.7065   -3.1535   -2.2229 H   0  0  0  0  0  0  0  0  0  0  0  0
   -2.5790   -2.7818    0.5754 C   0  0  0  0  0  0  0  0  0  0  0  0
   -1.9172   -2.7159   -0.3142 H   0  0  0  0  0  0  0  0  0  0  0  0
   -3.1437   -3.7306    0.5124 H   0  0  0  0  0  0  0  0  0  0  0  0
   -1.9305   -2.8417    1.4732 H   0  0  0  0  0  0  0  0  0  0  0  0
    4.4536   -2.9944    1.1206 C   0  0  0  0  0  0  0  0  0  0  0  0
    5.2814   -3.1764    1.8227 H   0  0  0  0  0  0  0  0  0  0  0  0
    1.1963    2.8522    0.8277 C   0  0  0  0  0  0  0  0  0  0  0  0
    1.9671    4.0236    0.9532 C   0  0  0  0  0  0  0  0  0  0  0  0
    1.4774    4.9343    1.3310 H   0  0  0  0  0  0  0  0  0  0  0  0
    3.3153    4.0508    0.5862 C   0  0  0  0  0  0  0  0  0  0  0  0
    3.9005    4.9772    0.6847 H   0  0  0  0  0  0  0  0  0  0  0  0
   -0.2647    2.8980    1.1512 C   0  0  0  0  0  0  0  0  0  0  0  0
   -0.8458    2.4484    0.3242 H   0  0  0  0  0  0  0  0  0  0  0  0
   -0.6057    3.9396    1.2996 H   0  0  0  0  0  0  0  0  0  0  0  0
   -0.5264    2.3314    2.0702 H   0  0  0  0  0  0  0  0  0  0  0  0
    3.9049    2.8933    0.0681 C   0  0  0  0  0  0  0  0  0  0  0  0
    4.9584    2.9058   -0.2506 H   0  0  0  0  0  0  0  0  0  0  0  0
    1.7493   -0.2279   -0.2451 H   0  0  0  0  0  0  0  0  0  0  0  0
  1  9  1  0  0  0  0
  2 14  1  0  0  0  0
  3  1  1  6  0  0  0
  3 20  1  0  0  0  0
  4 24  1  0  0  0  0
  4 36  1  0  0  0  0
  5 12  2  0  0  0  0
  5  9  1  0  0  0  0
  6  4  2  0  0  0  0
  7  6  1  0  0  0  0
  8 38  1  0  0  0  0
  9  8  2  0  0  0  0
 10 11  1  0  0  0  0
 10 38  2  0  0  0  0
 12 10  1  0  0  0  0
 13 12  1  0  0  0  0
 14 50  1  0  0  0  0
 15 16  1  0  0  0  0
 15 18  1  0  0  0  0
 17 15  1  0  0  0  0
 19  2  1  6  0  0  0
 19  3  1  0  0  0  0
 19 15  1  0  0  0  0
 20 23  1  0  0  0  0
 20 22  1  0  0  0  0
 21 20  1  0  0  0  0
 24 19  1  0  0  0  0
 24 25  1  0  0  0  0
 26 24  1  0  0  0  0
 27 35  1  0  0  0  0
 27 30  1  0  0  0  0
 28 27  1  0  0  0  0
 29 27  1  0  0  0  0
 31  5  1  0  0  0  0
 31 32  1  0  0  0  0
 33 31  1  0  0  0  0
 34 31  1  0  0  0  0
 35 59  1  0  0  0  0
 35 14  2  0  0  0  0
 36 37  1  0  0  0  0
 38 39  1  0  0  0  0
 40 48  1  0  0  0  0
 41 40  1  0  0  0  0
 42  6  1  0  0  0  0
 42 40  2  0  0  0  0
 43 42  1  0  0  0  0
 44  8  1  0  0  0  0
 44 47  1  0  0  0  0
 45 44  1  0  0  0  0
 46 44  1  0  0  0  0
 48 36  2  0  0  0  0
 48 49  1  0  0  0  0
 50 51  2  0  0  0  0
 50 55  1  0  0  0  0
 51 52  1  0  0  0  0
 53 54  1  0  0  0  0
 53 51  1  0  0  0  0
 55 57  1  0  0  0  0
 55 58  1  0  0  0  0
 56 55  1  0  0  0  0
 59 53  2  0  0  0  0
 60 59  1  0  0  0  0
 61  2  1  0  0  0  0
M  END
