1,18
q = 0.0, confidence = 0.998

 26 27  0  0  1  0  0  0  0  0999 V2000
   -1.3514    0.5222   -0.0021 N   0  0  0  0  0  2  0  0  0  0  0  0
   -2.6911    0.4342   -0.0032 C   0  0  0  0  0  3  0  0  0  0  0  0
   -3.1060   -0.5851   -0.0046 H   0  0  0  0  0  0  0  0  0  0  0  0
   -3.5346    1.5561   -0.0024 C   0  0  0  0  0  0  0  0  0  0  0  0
   -2.9043    2.8172   -0.0001 C   0  0  0  0  0  0  0  0  0  0  0  0
   -3.5122    3.7351    0.0009 H   0  0  0  0  0  0  0  0  0  0  0  0
   -1.5137    2.9077    0.0010 C   0  0  0  0  0  0  0  0  0  0  0  0
   -1.0271    3.8906    0.0032 H   0  0  0  0  0  0  0  0  0  0  0  0
   -0.7399    1.7332   -0.0001 C   0  0  0  0  0  0  0  0  0  0  0  0
    0.7399    1.7332    0.0009 C   0  0  2  0  0  3  0  0  0  0  0  0
    1.5137    2.9077    0.0004 C   0  0  0  0  0  0  0  0  0  0  0  0
    1.0271    3.8906   -0.0008 H   0  0  0  0  0  0  0  0  0  0  0  0
    2.9043    2.8172    0.0011 C   0  0  0  0  0  0  0  0  0  0  0  0
    3.5122    3.7350    0.0006 H   0  0  0  0  0  0  0  0  0  0  0  0
    3.5346    1.5560    0.0022 C   0  0  0  0  0  0  0  0  0  0  0  0
    2.6910    0.4342    0.0025 C   0  0  0  0  0  0  0  0  0  0  0  0
    3.1059   -0.5852    0.0033 H   0  0  0  0  0  0  0  0  0  0  0  0
    1.3513    0.5222    0.0020 N   0  0  0  0  0  2  0  0  0  0  0  0
   -5.0301    1.4096   -0.0043 C   0  0  0  0  0  0  0  0  0  0  0  0
   -5.3360    0.3463   -0.0014 H   0  0  0  0  0  0  0  0  0  0  0  0
   -5.4756    1.8921   -0.8986 H   0  0  0  0  0  0  0  0  0  0  0  0
   -5.4786    1.8980    0.8854 H   0  0  0  0  0  0  0  0  0  0  0  0
    5.0301    1.4096    0.0026 C   0  0  0  0  0  0  0  0  0  0  0  0
    5.4772    1.8978    0.8930 H   0  0  0  0  0  0  0  0  0  0  0  0
    5.4770    1.8922   -0.8910 H   0  0  0  0  0  0  0  0  0  0  0  0
    5.3360    0.3462    0.0058 H   0  0  0  0  0  0  0  0  0  0  0  0
  1  9  1  0  0  0  0
  2  4  1  0  0  0  0
  2  1  1  0  0  0  0
  3  2  1  0  0  0  0
  4  5  2  0  0  0  0
  5  6  1  0  0  0  0
  5  7  1  0  0  0  0
  7  8  1  0  0  0  0
  9  7  2  0  0  0  0
 10  9  1  6  0  0  0
 10 18  1  0  0  0  0
 11 10  1  0  0  0  0
 11 13  2  0  0  0  0
 12 11  1  0  0  0  0
 13 15  1  0  0  0  0
 14 13  1  0  0  0  0
 15 16  2  0  0  0  0
 15 23  1  0  0  0  0
 16 17  1  0  0  0  0
 18 16  1  0  0  0  0
 19  4  1  0  0  0  0
 19 20  1  0  0  0  0
 19 22  1  0  0  0  0
 21 19  1  0  0  0  0
 23 26  1  0  0  0  0
 23 24  1  0  0  0  0
 25 23  1  0  0  0  0
M  END
