1,15
q = 0.0, confidence = 0.986

 28 29  0  0  0  0  0  0  0  0999 V2000
    1.3091    1.1101   -0.2570 N   0  0  0  0  0  2  0  0  0  0  0  0
    2.7276    1.0460   -0.2501 C   0  0  0  0  0  0  0  0  0  0  0  0
    3.3627    0.0325   -0.9981 C   0  0  0  0  0  0  0  0  0  0  0  0
    2.7393   -0.6590   -1.5850 H   0  0  0  0  0  0  0  0  0  0  0  0
    4.7604   -0.0361   -1.0110 C   0  0  0  0  0  0  0  0  0  0  0  0
    5.2566   -0.8177   -1.6053 H   0  0  0  0  0  0  0  0  0  0  0  0
    5.5268    0.8803   -0.2700 C   0  0  0  0  0  0  0  0  0  0  0  0
    6.6247    0.8090   -0.2714 H   0  0  0  0  0  0  0  0  0  0  0  0
    4.8893    1.8822    0.4791 C   0  0  0  0  0  0  0  0  0  0  0  0
    5.4842    2.5922    1.0730 H   0  0  0  0  0  0  0  0  0  0  0  0
    3.4907    1.9754    0.4860 C   0  0  0  0  0  0  0  0  0  0  0  0
    2.9802    2.7377    1.0935 H   0  0  0  0  0  0  0  0  0  0  0  0
    0.7152    2.2509   -0.5515 C   0  0  0  0  0  0  0  0  0  0  0  0
    1.2982    3.1497   -0.8160 H   0  0  0  0  0  0  0  0  0  0  0  0
   -1.3091    1.1102   -0.2570 N   0  0  0  0  0  2  0  0  0  0  0  0
   -2.7275    1.0461   -0.2501 C   0  0  0  0  0  0  0  0  0  0  0  0
   -3.3627    0.0325   -0.9981 C   0  0  0  0  0  0  0  0  0  0  0  0
   -2.7393   -0.6590   -1.5850 H   0  0  0  0  0  0  0  0  0  0  0  0
   -4.7604   -0.0360   -1.0109 C   0  0  0  0  0  0  0  0  0  0  0  0
   -5.2566   -0.8177   -1.6053 H   0  0  0  0  0  0  0  0  0  0  0  0
   -5.5268    0.8804   -0.2700 C   0  0  0  0  0  0  0  0  0  0  0  0
   -6.6247    0.8090   -0.2713 H   0  0  0  0  0  0  0  0  0  0  0  0
   -4.8893    1.8822    0.4792 C   0  0  0  0  0  0  0  0  0  0  0  0
   -5.4842    2.5923    1.0731 H   0  0  0  0  0  0  0  0  0  0  0  0
   -3.4907    1.9754    0.4861 C   0  0  0  0  0  0  0  0  0  0  0  0
   -2.9802    2.7377    1.0935 H   0  0  0  0  0  0  0  0  0  0  0  0
   -0.7152    2.2509   -0.5515 C   0  0  0  0  0  0  0  0  0  0  0  0
   -1.2982    3.1497   -0.8160 H   0  0  0  0  0  0  0  0  0  0  0  0
  1  2  1  0  0  0  0
  2 11  1  0  0  0  0
  3  2  2  0  0  0  0
  4  3  1  0  0  0  0
  5  3  1  0  0  0  0
  5  7  2  0  0  0  0
  6  5  1  0  0  0  0
  7  9  1  0  0  0  0
  8  7  1  0  0  0  0
  9 11  2  0  0  0  0
  9 10  1  0  0  0  0
 11 12  1  0  0  0  0
 13 27  2  0  0  0  0
 13  1  1  0  0  0  0
 14 13  1  0  0  0  0
 15 16  1  0  0  0  0
 16 25  1  0  0  0  0
 17 16  2  0  0  0  0
 18 17  1  0  0  0  0
 19 17  1  0  0  0  0
 19 21  2  0  0  0  0
 20 19  1  0  0  0  0
 21 23  1  0  0  0  0
 22 21  1  0  0  0  0
 23 25  2  0  0  0  0
 23 24  1  0  0  0  0
 25 26  1  0  0  0  0
 27 15  1  0  0  0  0
 28 27  1  0  0  0  0
M  END
