1,17
q = -1.0, confidence = 0.004

 46 47  0  0  1  0  0  0  0  0999 V2000
    2.0261    1.1118    0.5955 N   0  0  0  0  0  2  0  0  0  0  0  0
    1.3424    2.1542    1.1120 C   0  0  1  0  0  3  0  0  0  0  0  0
    2.0135    3.3010    1.5812 C   0  0  0  0  0  0  0  0  0  0  0  0
    1.4374    4.1434    1.9900 H   0  0  0  0  0  0  0  0  0  0  0  0
    3.4085    3.3548    1.5099 C   0  0  0  0  0  0  0  0  0  0  0  0
    3.9496    4.2452    1.8643 H   0  0  0  0  0  0  0  0  0  0  0  0
    4.1093    2.2560    0.9803 C   0  0  0  0  0  0  0  0  0  0  0  0
    5.2062    2.2543    0.9107 H   0  0  0  0  0  0  0  0  0  0  0  0
    3.3754    1.1552    0.5371 C   0  0  0  0  0  0  0  0  0  0  0  0
    3.8608    0.2627    0.1107 H   0  0  0  0  0  0  0  0  0  0  0  0
   -0.1632    2.0108    1.1447 C   0  0  2  0  0  0  0  0  0  0  0  0
   -0.5634    2.8721    0.5491 H   0  0  0  0  0  0  0  0  0  0  0  0
   -0.7039    2.2033    2.5782 C   0  0  0  0  0  0  0  0  0  0  0  0
   -1.8054    2.0973    2.5701 H   0  0  0  0  0  0  0  0  0  0  0  0
   -0.4653    3.2098    2.9767 H   0  0  0  0  0  0  0  0  0  0  0  0
   -0.2823    1.4421    3.2645 H   0  0  0  0  0  0  0  0  0  0  0  0
   -0.5664    0.7499    0.5340 N   0  0  0  0  0  2  0  0  0  0  0  0
   -1.9586    0.6693    0.2238 C   0  0  0  0  0  0  0  0  0  0  0  0
   -2.4685    1.3409   -0.9335 C   0  0  0  0  0  0  0  0  0  0  0  0
   -3.8317    1.2163   -1.2568 C   0  0  0  0  0  0  0  0  0  0  0  0
   -4.2220    1.7276   -2.1513 H   0  0  0  0  0  0  0  0  0  0  0  0
   -4.6962    0.4414   -0.4745 C   0  0  0  0  0  0  0  0  0  0  0  0
   -5.7583    0.3476   -0.7478 H   0  0  0  0  0  0  0  0  0  0  0  0
   -4.1969   -0.2171    0.6545 C   0  0  0  0  0  0  0  0  0  0  0  0
   -4.8769   -0.8295    1.2676 H   0  0  0  0  0  0  0  0  0  0  0  0
   -2.8439   -0.1112    1.0296 C   0  0  0  0  0  0  0  0  0  0  0  0
   -1.5636    2.1673   -1.8436 C   0  0  0  0  0  0  0  0  0  0  0  0
   -0.5341    2.0763   -1.4422 H   0  0  0  0  0  0  0  0  0  0  0  0
   -1.5243    1.6181   -3.2797 C   0  0  0  0  0  0  0  0  0  0  0  0
   -1.1462    0.5767   -3.2994 H   0  0  0  0  0  0  0  0  0  0  0  0
   -0.8513    2.2323   -3.9128 H   0  0  0  0  0  0  0  0  0  0  0  0
   -2.5289    1.6270   -3.7506 H   0  0  0  0  0  0  0  0  0  0  0  0
   -1.9552    3.6551   -1.8319 C   0  0  0  0  0  0  0  0  0  0  0  0
   -2.9665    3.8084   -2.2631 H   0  0  0  0  0  0  0  0  0  0  0  0
   -1.2412    4.2577   -2.4309 H   0  0  0  0  0  0  0  0  0  0  0  0
   -1.9727    4.0647   -0.8011 H   0  0  0  0  0  0  0  0  0  0  0  0
   -2.3612   -0.8467    2.2745 C   0  0  0  0  0  0  0  0  0  0  0  0
   -1.2982   -0.5606    2.4127 H   0  0  0  0  0  0  0  0  0  0  0  0
   -3.1367   -0.4316    3.5353 C   0  0  0  0  0  0  0  0  0  0  0  0
   -3.1046    0.6639    3.7002 H   0  0  0  0  0  0  0  0  0  0  0  0
   -2.7123   -0.9256    4.4339 H   0  0  0  0  0  0  0  0  0  0  0  0
   -4.2046   -0.7271    3.4714 H   0  0  0  0  0  0  0  0  0  0  0  0
   -2.4047   -2.3708    2.0780 C   0  0  0  0  0  0  0  0  0  0  0  0
   -3.4455   -2.7286    1.9333 H   0  0  0  0  0  0  0  0  0  0  0  0
   -1.9882   -2.8952    2.9632 H   0  0  0  0  0  0  0  0  0  0  0  0
   -1.8125   -2.6577    1.1887 H   0  0  0  0  0  0  0  0  0  0  0  0
  1  2  1  0  0  0  0
  2 11  1  6  0  0  0
  2  3  1  0  0  0  0
  3  4  1  0  0  0  0
  5  3  2  0  0  0  0
  5  6  1  0  0  0  0
  7  5  1  0  0  0  0
  8  7  1  0  0  0  0
  9  1  1  0  0  0  0
  9  7  2  0  0  0  0
 10  9  1  0  0  0  0
 11 12  1  6  0  0  0
 11 13  1  0  0  0  0
 13 15  1  0  0  0  0
 13 16  1  0  0  0  0
 14 13  1  0  0  0  0
 17 11  1  0  0  0  0
 18 17  1  0  0  0  0
 18 26  1  0  0  0  0
 19 18  2  0  0  0  0
 20 19  1  0  0  0  0
 20 22  2  0  0  0  0
 21 20  1  0  0  0  0
 22 24  1  0  0  0  0
 23 22  1  0  0  0  0
 24 26  2  0  0  0  0
 24 25  1  0  0  0  0
 26 37  1  0  0  0  0
 27 33  1  0  0  0  0
 27 28  1  0  0  0  0
 27 19  1  0  0  0  0
 29 27  1  0  0  0  0
 30 29  1  0  0  0  0
 31 29  1  0  0  0  0
 32 29  1  0  0  0  0
 33 36  1  0  0  0  0
 34 33  1  0  0  0  0
 35 33  1  0  0  0  0
 37 38  1  0  0  0  0
 37 39  1  0  0  0  0
 39 40  1  0  0  0  0
 39 41  1  0  0  0  0
 42 39  1  0  0  0  0
 43 37  1  0  0  0  0
 43 45  1  0  0  0  0
 44 43  1  0  0  0  0
 46 43  1  0  0  0  0
M  END
