1,2
q = 0.0, confidence = 1.0

 38 39  0  0  1  0  0  0  0  0999 V2000
    0.1234   -1.4074    0.4404 N   0  0  0  0  0  2  0  0  0  0  0  0
    0.0152    1.3630    0.5019 N   0  0  0  0  0  2  0  0  0  0  0  0
   -1.8550   -0.0177   -2.0076 C   0  0  1  0  0  0  0  0  0  0  0  0
   -1.8501    0.0058   -3.1253 H   0  0  0  0  0  0  0  0  0  0  0  0
   -1.0149   -1.6813   -0.2507 N   0  0  0  0  0  0  0  0  0  0  0  0
   -1.9992    2.3597    0.5489 C   0  0  1  0  0  3  0  0  0  0  0  0
   -0.1292    1.9042    1.7238 C   0  0  0  0  0  0  0  0  0  0  0  0
    0.0325   -2.0086    1.6388 C   0  0  1  0  0  3  0  0  0  0  0  0
   -1.1825    1.3075   -1.6210 C   0  0  0  0  0  0  0  0  0  0  0  0
   -0.1394    1.3268   -2.0021 H   0  0  0  0  0  0  0  0  0  0  0  0
   -1.7474    2.1210   -2.1167 H   0  0  0  0  0  0  0  0  0  0  0  0
   -1.1116   -1.3224   -1.6571 C   0  0  0  0  0  0  0  0  0  0  0  0
   -1.6277   -2.1589   -2.1730 H   0  0  0  0  0  0  0  0  0  0  0  0
   -0.0713   -1.2831   -2.0465 H   0  0  0  0  0  0  0  0  0  0  0  0
   -1.8531   -2.4719    0.4945 C   0  0  0  0  0  0  0  0  0  0  0  0
   -1.2074   -2.6927    1.7113 C   0  0  0  0  0  0  0  0  0  0  0  0
   -1.5852   -3.2891    2.5479 H   0  0  0  0  0  0  0  0  0  0  0  0
    1.1308   -1.9003    2.6435 C   0  0  0  0  0  0  0  0  0  0  0  0
    2.0809   -1.6430    2.1359 H   0  0  0  0  0  0  0  0  0  0  0  0
    1.2590   -2.8567    3.1861 H   0  0  0  0  0  0  0  0  0  0  0  0
    0.9166   -1.1134    3.3955 H   0  0  0  0  0  0  0  0  0  0  0  0
   -3.1913   -0.0003   -1.5112 O   0  0  0  0  0  0  0  0  0  0  0  0
   -3.7106   -0.6481   -2.0206 H   0  0  0  0  0  0  0  0  0  0  0  0
   -1.3941    2.5414    1.7931 C   0  0  0  0  0  0  0  0  0  0  0  0
   -1.8144    3.0851    2.6452 H   0  0  0  0  0  0  0  0  0  0  0  0
    0.9526    1.8105    2.7482 C   0  0  0  0  0  0  0  0  0  0  0  0
    0.5906    1.3218    3.6754 H   0  0  0  0  0  0  0  0  0  0  0  0
    1.3167    2.8206    3.0250 H   0  0  0  0  0  0  0  0  0  0  0  0
    1.8089    1.2357    2.3465 H   0  0  0  0  0  0  0  0  0  0  0  0
   -3.3038    2.8489    0.0158 C   0  0  0  0  0  0  0  0  0  0  0  0
   -3.1596    3.6549   -0.7361 H   0  0  0  0  0  0  0  0  0  0  0  0
   -3.9126    3.2666    0.8383 H   0  0  0  0  0  0  0  0  0  0  0  0
   -3.8641    2.0285   -0.4725 H   0  0  0  0  0  0  0  0  0  0  0  0
   -3.1692   -2.9624   -0.0071 C   0  0  0  0  0  0  0  0  0  0  0  0
   -3.6566   -3.5860    0.7641 H   0  0  0  0  0  0  0  0  0  0  0  0
   -3.0616   -3.5842   -0.9218 H   0  0  0  0  0  0  0  0  0  0  0  0
   -3.8398   -2.1134   -0.2462 H   0  0  0  0  0  0  0  0  0  0  0  0
   -1.1140    1.6327   -0.2056 N   0  0  0  0  0  0  0  0  0  0  0  0
  1  8  1  0  0  0  0
  2  7  1  0  0  0  0
  3  4  1  6  0  0  0
  3 12  1  0  0  0  0
  3  9  1  0  0  0  0
  3 22  1  0  0  0  0
  5  1  1  0  0  0  0
  5 15  1  0  0  0  0
  6 30  1  6  0  0  0
  6 24  1  0  0  0  0
  7 24  2  0  0  0  0
  7 26  1  0  0  0  0
  8 16  1  0  0  0  0
  8 18  1  6  0  0  0
  9 38  1  0  0  0  0
 10  9  1  0  0  0  0
 11  9  1  0  0  0  0
 12  5  1  0  0  0  0
 13 12  1  0  0  0  0
 14 12  1  0  0  0  0
 15 16  2  0  0  0  0
 16 17  1  0  0  0  0
 18 20  1  0  0  0  0
 18 21  1  0  0  0  0
 19 18  1  0  0  0  0
 23 22  1  0  0  0  0
 24 25  1  0  0  0  0
 26 28  1  0  0  0  0
 26 27  1  0  0  0  0
 29 26  1  0  0  0  0
 30 32  1  0  0  0  0
 31 30  1  0  0  0  0
 33 30  1  0  0  0  0
 34 15  1  0  0  0  0
 34 35  1  0  0  0  0
 36 34  1  0  0  0  0
 37 34  1  0  0  0  0
 38  2  1  0  0  0  0
 38  6  1  0  0  0  0
M  END
