1,4
q = 0.0, confidence = 0.816

 14 15  0  0  0  0  0  0  0  0999 V2000
    1.9349   -0.8300   -1.0442 N   0  0  0  0  0  0  0  0  0  0  0  0
    4.2472   -1.0807   -1.1492 N   0  0  0  0  0  0  0  0  0  0  0  0
    4.2457    1.0881    1.1478 N   0  0  0  0  0  0  0  0  0  0  0  0
    1.9337    0.8339    1.0430 N   0  0  0  0  0  0  0  0  0  0  0  0
    2.2075   -1.7838   -1.9278 C   0  0  0  0  0  0  0  0  0  0  0  0
    3.6575   -1.9188   -1.9947 C   0  0  0  0  0  0  0  0  0  0  0  0
    3.2045   -0.4436   -0.5393 C   0  0  0  0  0  3  0  0  0  0  0  0
    3.2039    0.4495    0.5378 C   0  0  0  0  0  0  0  0  0  0  0  0
    3.6548    1.9251    1.9935 C   0  0  0  0  0  3  0  0  0  0  0  0
    2.2051    1.7878    1.9269 C   0  0  0  0  0  0  0  0  0  0  0  0
    1.4233   -2.3090   -2.4896 H   0  0  0  0  0  0  0  0  0  0  0  0
    4.2287   -2.5903   -2.6525 H   0  0  0  0  0  0  0  0  0  0  0  0
    4.2251    2.5973    2.6514 H   0  0  0  0  0  0  0  0  0  0  0  0
    1.4201    2.3116    2.4889 H   0  0  0  0  0  0  0  0  0  0  0  0
  1  7  1  0  0  0  0
  2  7  1  0  0  0  0
  3  9  1  0  0  0  0
  4 10  2  0  0  0  0
  5  1  2  0  0  0  0
  6  5  1  0  0  0  0
  6  2  2  0  0  0  0
  7  8  1  0  0  0  0
  8  4  1  0  0  0  0
  8  3  2  0  0  0  0
  9 13  1  0  0  0  0
 10  9  1  0  0  0  0
 10 14  1  0  0  0  0
 11  5  1  0  0  0  0
 12  6  1  0  0  0  0
M  END
