1,2
q = -2.0, confidence = 0.914

 45 46  0  0  0  0  0  0  0  0999 V2000
   -1.4492   -0.2820    0.7190 N   0  0  0  0  0  2  0  0  0  0  0  0
    1.4494   -0.2832    0.7188 N   0  0  0  0  0  2  0  0  0  0  0  0
   -1.2975   -0.6972    2.1147 C   0  0  0  0  0  0  0  0  0  0  0  0
   -1.3448    0.2008    2.7773 H   0  0  0  0  0  0  0  0  0  0  0  0
   -2.1615   -1.3376    2.4016 H   0  0  0  0  0  0  0  0  0  0  0  0
   -0.0003   -1.4732    2.3708 C   0  0  0  0  0  0  0  0  0  0  0  0
   -0.0012   -2.3956    1.7486 H   0  0  0  0  0  0  0  0  0  0  0  0
   -0.0003   -1.8022    3.4299 H   0  0  0  0  0  0  0  0  0  0  0  0
    1.2982   -0.6993    2.1142 C   0  0  0  0  0  0  0  0  0  0  0  0
    2.1612   -1.3416    2.3998 H   0  0  0  0  0  0  0  0  0  0  0  0
    1.3476    0.1979    2.7776 H   0  0  0  0  0  0  0  0  0  0  0  0
   -2.7320    0.1997    0.3126 C   0  0  0  0  0  0  0  0  0  0  0  0
   -3.7352   -0.7346   -0.0707 C   0  0  0  0  0  0  0  0  0  0  0  0
   -4.9915   -0.2393   -0.4656 C   0  0  0  0  0  0  0  0  0  0  0  0
   -5.7712   -0.9541   -0.7721 H   0  0  0  0  0  0  0  0  0  0  0  0
   -5.2577    1.1363   -0.4755 C   0  0  0  0  0  0  0  0  0  0  0  0
   -6.2470    1.5035   -0.7879 H   0  0  0  0  0  0  0  0  0  0  0  0
   -4.2637    2.0430   -0.0879 C   0  0  0  0  0  0  0  0  0  0  0  0
   -4.4714    3.1245   -0.0934 H   0  0  0  0  0  0  0  0  0  0  0  0
   -2.9892    1.5972    0.3096 C   0  0  0  0  0  0  0  0  0  0  0  0
   -3.4634   -2.2165   -0.0593 C   0  0  0  0  0  0  0  0  0  0  0  0
   -2.5414   -2.4715   -0.6202 H   0  0  0  0  0  0  0  0  0  0  0  0
   -3.3146   -2.5994    0.9730 H   0  0  0  0  0  0  0  0  0  0  0  0
   -4.3111   -2.7753   -0.4990 H   0  0  0  0  0  0  0  0  0  0  0  0
   -1.9195    2.5881    0.6843 C   0  0  0  0  0  0  0  0  0  0  0  0
   -2.3607    3.5648    0.9607 H   0  0  0  0  0  0  0  0  0  0  0  0
   -1.2937    2.2329    1.5260 H   0  0  0  0  0  0  0  0  0  0  0  0
   -1.2325    2.7547   -0.1724 H   0  0  0  0  0  0  0  0  0  0  0  0
    2.7322    0.1988    0.3126 C   0  0  0  0  0  0  0  0  0  0  0  0
    3.7350   -0.7349   -0.0730 C   0  0  0  0  0  0  0  0  0  0  0  0
    4.9912   -0.2391   -0.4674 C   0  0  0  0  0  0  0  0  0  0  0  0
    5.7706   -0.9535   -0.7756 H   0  0  0  0  0  0  0  0  0  0  0  0
    5.2577    1.1364   -0.4747 C   0  0  0  0  0  0  0  0  0  0  0  0
    6.2470    1.5040   -0.7868 H   0  0  0  0  0  0  0  0  0  0  0  0
    4.2642    2.0426   -0.0849 C   0  0  0  0  0  0  0  0  0  0  0  0
    4.4721    3.1240   -0.0883 H   0  0  0  0  0  0  0  0  0  0  0  0
    2.9897    1.5963    0.3123 C   0  0  0  0  0  0  0  0  0  0  0  0
    3.4628   -2.2168   -0.0641 C   0  0  0  0  0  0  0  0  0  0  0  0
    3.3129   -2.6012    0.9675 H   0  0  0  0  0  0  0  0  0  0  0  0
    2.5413   -2.4708   -0.6262 H   0  0  0  0  0  0  0  0  0  0  0  0
    4.3109   -2.7751   -0.5038 H   0  0  0  0  0  0  0  0  0  0  0  0
    1.9202    2.5863    0.6896 C   0  0  0  0  0  0  0  0  0  0  0  0
    2.3607    3.5657    0.9569 H   0  0  0  0  0  0  0  0  0  0  0  0
    1.3023    2.2345    1.5387 H   0  0  0  0  0  0  0  0  0  0  0  0
    1.2258    2.7460   -0.1624 H   0  0  0  0  0  0  0  0  0  0  0  0
  1  3  1  0  0  0  0
  2  9  1  0  0  0  0
  3  6  1  0  0  0  0
  3  5  1  0  0  0  0
  3  4  1  0  0  0  0
  6  8  1  0  0  0  0
  7  6  1  0  0  0  0
  9  6  1  0  0  0  0
  9 10  1  0  0  0  0
  9 11  1  0  0  0  0
 12  1  1  0  0  0  0
 13 21  1  0  0  0  0
 13 12  2  0  0  0  0
 14 13  1  0  0  0  0
 15 14  1  0  0  0  0
 16 14  2  0  0  0  0
 16 18  1  0  0  0  0
 17 16  1  0  0  0  0
 18 20  2  0  0  0  0
 19 18  1  0  0  0  0
 20 12  1  0  0  0  0
 20 25  1  0  0  0  0
 21 23  1  0  0  0  0
 22 21  1  0  0  0  0
 24 21  1  0  0  0  0
 25 26  1  0  0  0  0
 25 27  1  0  0  0  0
 28 25  1  0  0  0  0
 29  2  1  0  0  0  0
 30 38  1  0  0  0  0
 30 29  2  0  0  0  0
 31 30  1  0  0  0  0
 32 31  1  0  0  0  0
 33 31  2  0  0  0  0
 33 35  1  0  0  0  0
 34 33  1  0  0  0  0
 35 37  2  0  0  0  0
 36 35  1  0  0  0  0
 37 29  1  0  0  0  0
 37 42  1  0  0  0  0
 38 39  1  0  0  0  0
 40 38  1  0  0  0  0
 41 38  1  0  0  0  0
 42 43  1  0  0  0  0
 42 44  1  0  0  0  0
 45 42  1  0  0  0  0
M  END
