3,4
q = -2.0, confidence = 0.646

  8  7  0  0  0  0  0  0  0  0999 V2000
   -0.3351   -2.5593    1.2603 O   0  0  0  0  0  1  0  0  0  0  0  0
   -0.3342    2.5607    1.2578 O   0  0  0  0  0  1  0  0  0  0  0  0
   -0.3492   -1.2707    1.4624 N   0  0  0  0  0  2  0  0  0  0  0  0
   -0.3488    1.2725    1.4612 N   0  0  0  0  0  2  0  0  0  0  0  0
   -0.2287   -0.7196    2.6592 C   0  0  0  0  0  0  0  0  0  0  0  0
   -0.2285    0.7224    2.6585 C   0  0  0  0  0  0  0  0  0  0  0  0
   -0.1361   -1.3434    3.5611 H   0  0  0  0  0  0  0  0  0  0  0  0
   -0.1356    1.3470    3.5598 H   0  0  0  0  0  0  0  0  0  0  0  0
  1  3  1  0  0  0  0
  2  4  1  0  0  0  0
  3  5  1  0  0  0  0
  4  6  1  0  0  0  0
  5  7  1  0  0  0  0
  6  5  2  0  0  0  0
  6  8  1  0  0  0  0
M  END
