3,8
q = -1.0, confidence = 0.002

 36 37  0  0  1  0  0  0  0  0999 V2000
    6.7962    0.6340   -0.6805 Cl  0  0  0  0  0  0  0  0  0  0  0  0
   -6.9543    0.6562   -0.6235 Cl  0  0  0  0  0  0  0  0  0  0  0  0
   -1.5724   -1.9450   -0.4219 N   0  0  0  0  0  2  0  0  0  0  0  0
   -1.3741   -3.1616    0.1171 C   0  0  2  0  0  3  0  0  0  0  0  0
   -0.1020   -3.7310    0.3504 C   0  0  0  0  0  0  0  0  0  0  0  0
   -0.1269   -4.7439    0.7731 H   0  0  0  0  0  0  0  0  0  0  0  0
    1.1987   -3.2163    0.1367 C   0  0  0  0  0  0  0  0  0  0  0  0
    1.4542   -2.0374   -0.4497 N   0  0  0  0  0  2  0  0  0  0  0  0
   -2.5755   -4.0101    0.4883 C   0  0  0  0  0  0  0  0  0  0  0  0
   -3.0575   -3.6505    1.4196 H   0  0  0  0  0  0  0  0  0  0  0  0
   -2.2778   -5.0629    0.6427 H   0  0  0  0  0  0  0  0  0  0  0  0
   -3.3513   -3.9650   -0.3014 H   0  0  0  0  0  0  0  0  0  0  0  0
    2.3517   -4.0898    0.5906 C   0  0  0  0  0  0  0  0  0  0  0  0
    3.2056   -4.0327   -0.1116 H   0  0  0  0  0  0  0  0  0  0  0  0
    2.0285   -5.1428    0.6836 H   0  0  0  0  0  0  0  0  0  0  0  0
    2.7285   -3.7641    1.5819 H   0  0  0  0  0  0  0  0  0  0  0  0
   -2.8889   -1.4027   -0.4682 C   0  0  0  0  0  0  0  0  0  0  0  0
   -3.5501   -1.0225    0.7183 C   0  0  0  0  0  0  0  0  0  0  0  0
   -3.0490   -1.1684    1.6863 H   0  0  0  0  0  0  0  0  0  0  0  0
   -4.8100   -0.4158    0.6776 C   0  0  0  0  0  0  0  0  0  0  0  0
   -5.3071   -0.0945    1.6024 H   0  0  0  0  0  0  0  0  0  0  0  0
   -5.4162   -0.1730   -0.5639 C   0  0  0  0  0  0  0  0  0  0  0  0
   -4.7791   -0.5457   -1.7576 C   0  0  0  0  0  0  0  0  0  0  0  0
   -5.2653   -0.3443   -2.7223 H   0  0  0  0  0  0  0  0  0  0  0  0
   -3.5202   -1.1579   -1.7040 C   0  0  0  0  0  0  0  0  0  0  0  0
   -3.0017   -1.4420   -2.6312 H   0  0  0  0  0  0  0  0  0  0  0  0
    2.7831   -1.5265   -0.4915 C   0  0  0  0  0  0  0  0  0  0  0  0
    3.4008   -1.2633   -1.7326 C   0  0  0  0  0  0  0  0  0  0  0  0
    2.8745   -1.5408   -2.6572 H   0  0  0  0  0  0  0  0  0  0  0  0
    4.6445   -0.6249   -1.7956 C   0  0  0  0  0  0  0  0  0  0  0  0
    5.1137   -0.4025   -2.7640 H   0  0  0  0  0  0  0  0  0  0  0  0
    5.2839   -0.2406   -0.6049 C   0  0  0  0  0  0  0  0  0  0  0  0
    4.7027   -0.5220    0.6409 C   0  0  0  0  0  0  0  0  0  0  0  0
    5.2051   -0.2055    1.5655 H   0  0  0  0  0  0  0  0  0  0  0  0
    3.4583   -1.1641    0.6932 C   0  0  0  0  0  0  0  0  0  0  0  0
    2.9784   -1.3375    1.6661 H   0  0  0  0  0  0  0  0  0  0  0  0
  1 32  1  0  0  0  0
  2 22  1  0  0  0  0
  4  3  1  6  0  0  0
  4  5  1  0  0  0  0
  4  9  1  0  0  0  0
  5  6  1  0  0  0  0
  7  5  2  0  0  0  0
  7 13  1  0  0  0  0
  8  7  1  0  0  0  0
  9 11  1  0  0  0  0
  9 10  1  0  0  0  0
 12  9  1  0  0  0  0
 13 15  1  0  0  0  0
 13 16  1  0  0  0  0
 14 13  1  0  0  0  0
 17  3  1  0  0  0  0
 17 18  1  0  0  0  0
 18 19  1  0  0  0  0
 20 18  2  0  0  0  0
 20 21  1  0  0  0  0
 22 20  1  0  0  0  0
 23 25  1  0  0  0  0
 23 22  2  0  0  0  0
 24 23  1  0  0  0  0
 25 17  2  0  0  0  0
 26 25  1  0  0  0  0
 27  8  1  0  0  0  0
 27 35  1  0  0  0  0
 28 27  2  0  0  0  0
 29 28  1  0  0  0  0
 30 28  1  0  0  0  0
 30 32  2  0  0  0  0
 31 30  1  0  0  0  0
 32 33  1  0  0  0  0
 33 35  2  0  0  0  0
 33 34  1  0  0  0  0
 35 36  1  0  0  0  0
M  END
