2,4
q = -1.0, confidence = 0.0

 22 24  0  0  0  0  0  0  0  0999 V2000
   -1.1574    1.7580   -1.6019 N   0  0  0  0  0  0  0  0  0  0  0  0
   -2.0113   -0.0487   -0.3603 N   0  0  0  0  0  0  0  0  0  0  0  0
   -3.2569   -0.5754   -0.0408 C   0  0  0  0  0  0  0  0  0  0  0  0
    0.0490    1.1822   -1.3934 N   0  0  0  0  0  2  0  0  0  0  0  0
   -2.2796    1.0881   -1.0881 C   0  0  0  0  0  0  0  0  0  0  0  0
   -4.2966    0.2883   -0.5521 C   0  0  0  0  0  0  0  0  0  0  0  0
   -3.5798   -1.7678    0.6370 C   0  0  0  0  0  0  0  0  0  0  0  0
   -2.7817   -2.4340    0.9916 H   0  0  0  0  0  0  0  0  0  0  0  0
   -3.6348    1.3649   -1.2345 C   0  0  0  0  0  0  0  0  0  0  0  0
   -4.0944    2.1953   -1.7808 H   0  0  0  0  0  0  0  0  0  0  0  0
   -5.9571   -1.2293    0.3460 C   0  0  0  0  0  0  0  0  0  0  0  0
   -7.0092   -1.5069    0.5121 H   0  0  0  0  0  0  0  0  0  0  0  0
   -4.9301   -2.0807    0.8252 C   0  0  0  0  0  0  0  0  0  0  0  0
   -5.2001   -3.0100    1.3498 H   0  0  0  0  0  0  0  0  0  0  0  0
   -5.6527   -0.0525   -0.3434 C   0  0  0  0  0  3  0  0  0  0  0  0
   -6.4549    0.5968   -0.7273 H   0  0  0  0  0  0  0  0  0  0  0  0
    0.3281    3.1239   -2.5197 C   0  0  0  0  0  0  0  0  0  0  0  0
    0.7945    3.9619   -3.0466 H   0  0  0  0  0  0  0  0  0  0  0  0
   -1.0357    2.9344   -2.2798 C   0  0  0  0  0  3  0  0  0  0  0  0
   -1.9153    3.5341   -2.5335 H   0  0  0  0  0  0  0  0  0  0  0  0
    0.9642    2.0049   -1.9393 C   0  0  0  0  0  0  0  0  0  0  0  0
    2.0288    1.7508   -1.8755 H   0  0  0  0  0  0  0  0  0  0  0  0
  1  4  1  0  0  0  0
  1  5  1  0  0  0  0
  2  3  1  0  0  0  0
  3  7  2  0  0  0  0
  5  2  2  0  0  0  0
  6 15  1  0  0  0  0
  6  3  1  0  0  0  0
  7 13  1  0  0  0  0
  7  8  1  0  0  0  0
  9  5  1  0  0  0  0
  9  6  2  0  0  0  0
 10  9  1  0  0  0  0
 11 12  1  0  0  0  0
 11 13  2  0  0  0  0
 13 14  1  0  0  0  0
 15 11  1  0  0  0  0
 16 15  1  0  0  0  0
 17 19  1  0  0  0  0
 17 21  2  0  0  0  0
 18 17  1  0  0  0  0
 19  1  1  0  0  0  0
 20 19  1  0  0  0  0
 21 22  1  0  0  0  0
 21  4  1  0  0  0  0
M  END
