2,3
q = 0.0, confidence = 0.998

 30 32  0  0  0  0  0  0  0  0999 V2000
    5.5767   -0.7834   -0.8102 Br  0  0  0  0  0  0  0  0  0  0  0  0
   -1.1188   -2.4318   -0.4417 N   0  0  0  0  0  2  0  0  0  0  0  0
   -3.0223   -0.9334   -1.5677 N   0  0  0  0  0  2  0  0  0  0  0  0
   -2.3796   -2.9321   -0.3740 C   0  0  0  0  0  0  0  0  0  0  0  0
   -0.0809   -3.1144    0.1031 C   0  0  0  0  0  0  0  0  0  0  0  0
    1.2757   -2.5679   -0.1075 C   0  0  0  0  0  0  0  0  0  0  0  0
   -3.4163   -2.1494   -1.1007 C   0  0  0  0  0  0  0  0  0  0  0  0
    2.8582   -1.3505   -1.5226 C   0  0  0  0  0  0  0  0  0  0  0  0
    3.0939   -0.8356   -2.4639 H   0  0  0  0  0  0  0  0  0  0  0  0
   -3.8864   -0.1965   -2.2912 C   0  0  0  0  0  0  0  0  0  0  0  0
   -3.5187    0.7775   -2.6475 H   0  0  0  0  0  0  0  0  0  0  0  0
    1.5770   -1.8648   -1.2958 C   0  0  0  0  0  0  0  0  0  0  0  0
    0.8037   -1.7615   -2.0724 H   0  0  0  0  0  0  0  0  0  0  0  0
   -4.7164   -2.6342   -1.3359 C   0  0  0  0  0  0  0  0  0  0  0  0
   -5.0216   -3.6192   -0.9589 H   0  0  0  0  0  0  0  0  0  0  0  0
   -0.3023   -4.3141    0.8142 C   0  0  0  0  0  0  0  0  0  0  0  0
    0.5485   -4.8688    1.2323 H   0  0  0  0  0  0  0  0  0  0  0  0
    3.8485   -1.5092   -0.5366 C   0  0  0  0  0  0  0  0  0  0  0  0
    2.2941   -2.7361    0.8563 C   0  0  0  0  0  0  0  0  0  0  0  0
    2.0799   -3.2585    1.8005 H   0  0  0  0  0  0  0  0  0  0  0  0
   -1.6054   -4.8038    0.9418 C   0  0  0  0  0  0  0  0  0  0  0  0
   -1.7985   -5.7330    1.4975 H   0  0  0  0  0  0  0  0  0  0  0  0
   -5.1898   -0.6195   -2.5780 C   0  0  0  0  0  0  0  0  0  0  0  0
   -5.8553    0.0173   -3.1775 H   0  0  0  0  0  0  0  0  0  0  0  0
    3.5710   -2.2013    0.6557 C   0  0  0  0  0  0  0  0  0  0  0  0
    4.3513   -2.3158    1.4208 H   0  0  0  0  0  0  0  0  0  0  0  0
   -2.6617   -4.1160    0.3288 C   0  0  0  0  0  0  0  0  0  0  0  0
   -3.6885   -4.4962    0.4068 H   0  0  0  0  0  0  0  0  0  0  0  0
   -5.6137   -1.8601   -2.0809 C   0  0  0  0  0  0  0  0  0  0  0  0
   -6.6312   -2.2280   -2.2790 H   0  0  0  0  0  0  0  0  0  0  0  0
  1 18  1  0  0  0  0
  2  4  1  0  0  0  0
  2  5  1  0  0  0  0
  3  7  1  0  0  0  0
  4 27  1  0  0  0  0
  5 16  2  0  0  0  0
  6  5  1  0  0  0  0
  6 19  1  0  0  0  0
  7  4  2  0  0  0  0
  8 12  1  0  0  0  0
  8 18  2  0  0  0  0
  9  8  1  0  0  0  0
 10  3  1  0  0  0  0
 11 10  1  0  0  0  0
 12  6  2  0  0  0  0
 13 12  1  0  0  0  0
 14  7  1  0  0  0  0
 14 15  1  0  0  0  0
 16 21  1  0  0  0  0
 16 17  1  0  0  0  0
 18 25  1  0  0  0  0
 19 20  1  0  0  0  0
 21 22  1  0  0  0  0
 23 10  2  0  0  0  0
 23 29  1  0  0  0  0
 24 23  1  0  0  0  0
 25 19  2  0  0  0  0
 25 26  1  0  0  0  0
 27 28  1  0  0  0  0
 27 21  2  0  0  0  0
 29 14  2  0  0  0  0
 30 29  1  0  0  0  0
M  END
