1,2
q = -1.0, confidence = 0.0

 24 23  0  0  0  0  0  0  0  0999 V2000
   -1.9502    0.1524    0.0530 N   0  0  0  0  0  2  0  0  0  0  0  0
   -0.7442    2.0608   -0.1358 N   0  0  0  0  0  2  0  0  0  0  0  0
   -1.9351    1.4809   -0.0663 C   0  0  0  0  0  3  0  0  0  0  0  0
   -2.8708    2.0914   -0.1420 H   0  0  0  0  0  0  0  0  0  0  0  0
   -3.2304   -0.5826    0.0434 C   0  0  0  0  0  0  0  0  0  0  0  0
   -2.9269   -2.0765    0.2299 C   0  0  0  0  0  0  0  0  0  0  0  0
   -2.2593   -2.4407   -0.5740 H   0  0  0  0  0  0  0  0  0  0  0  0
   -3.8621   -2.6702    0.2026 H   0  0  0  0  0  0  0  0  0  0  0  0
   -2.4313   -2.2562    1.2025 H   0  0  0  0  0  0  0  0  0  0  0  0
   -3.9568   -0.3819   -1.3044 C   0  0  0  0  0  0  0  0  0  0  0  0
   -4.2108    0.6844   -1.4733 H   0  0  0  0  0  0  0  0  0  0  0  0
   -4.9021   -0.9609   -1.3366 H   0  0  0  0  0  0  0  0  0  0  0  0
   -3.3133   -0.7197   -2.1412 H   0  0  0  0  0  0  0  0  0  0  0  0
   -4.1253   -0.1026    1.2050 C   0  0  0  0  0  0  0  0  0  0  0  0
   -3.6015   -0.2297    2.1738 H   0  0  0  0  0  0  0  0  0  0  0  0
   -5.0688   -0.6840    1.2401 H   0  0  0  0  0  0  0  0  0  0  0  0
   -4.3977    0.9671    1.0999 H   0  0  0  0  0  0  0  0  0  0  0  0
   -0.6222    3.4724   -0.4298 C   0  0  0  0  0  0  0  0  0  0  0  0
   -1.6249    3.9600   -0.3635 H   0  0  0  0  0  0  0  0  0  0  0  0
   -0.2811    3.6074   -1.4822 H   0  0  0  0  0  0  0  0  0  0  0  0
    0.3629    4.1811    0.4980 C   0  0  0  0  0  0  0  0  0  0  0  0
    0.0470    4.0969    1.5574 H   0  0  0  0  0  0  0  0  0  0  0  0
    0.4440    5.2564    0.2400 H   0  0  0  0  0  0  0  0  0  0  0  0
    1.3722    3.7314    0.4081 H   0  0  0  0  0  0  0  0  0  0  0  0
  2  3  1  0  0  0  0
  3  1  1  0  0  0  0
  4  3  1  0  0  0  0
  5  1  1  0  0  0  0
  5  6  1  0  0  0  0
  5 14  1  0  0  0  0
  6  9  1  0  0  0  0
  7  6  1  0  0  0  0
  8  6  1  0  0  0  0
 10  5  1  0  0  0  0
 11 10  1  0  0  0  0
 12 10  1  0  0  0  0
 13 10  1  0  0  0  0
 14 16  1  0  0  0  0
 14 15  1  0  0  0  0
 17 14  1  0  0  0  0
 18 19  1  0  0  0  0
 18  2  1  0  0  0  0
 18 21  1  0  0  0  0
 20 18  1  0  0  0  0
 21 22  1  0  0  0  0
 23 21  1  0  0  0  0
 24 21  1  0  0  0  0
M  END
