1,2
q = 0.0, confidence = 0.964

 72 78  0  0  1  0  0  0  0  0999 V2000
    3.5017    1.1941    0.4887 N   0  0  0  0  0  2  0  0  0  0  0  0
    2.6134   -0.8731   -0.8460 N   0  0  0  0  0  2  0  0  0  0  0  0
    1.5599    2.6009    0.1988 C   0  0  0  0  0  0  0  0  0  0  0  0
    0.5044    0.0911   -1.5112 C   0  0  0  0  0  0  0  0  0  0  0  0
    2.2628    3.6321    0.8721 C   0  0  0  0  0  0  0  0  0  0  0  0
    1.7496    4.5929    1.0358 H   0  0  0  0  0  0  0  0  0  0  0  0
    1.7470    0.1888   -0.7994 C   0  0  2  0  0  3  0  0  0  0  0  0
    4.1460    2.1848    1.1293 C   0  0  0  0  0  3  0  0  0  0  0  0
    5.1582    1.9606    1.4882 H   0  0  0  0  0  0  0  0  0  0  0  0
    2.2406    1.3545   -0.0278 C   0  0  0  0  0  0  0  0  0  0  0  0
    0.2782    2.8961   -0.2062 N   0  0  0  0  0  0  0  0  0  0  0  0
   -0.0455    3.8188    0.0856 H   0  0  0  0  0  0  0  0  0  0  0  0
   -0.4635    1.0712   -1.5275 N   0  0  0  0  0  0  0  0  0  0  0  0
   -1.2688    0.8368   -2.1087 H   0  0  0  0  0  0  0  0  0  0  0  0
    2.3590   -1.9707   -1.5815 C   0  0  0  0  0  0  0  0  0  0  0  0
    3.1232   -2.7578   -1.5664 H   0  0  0  0  0  0  0  0  0  0  0  0
   -0.7854    1.9185   -0.3838 C   0  0  1  0  0  0  0  0  0  0  0  0
    0.2584   -1.0719   -2.2800 C   0  0  0  0  0  0  0  0  0  0  0  0
   -0.6934   -1.1437   -2.8299 H   0  0  0  0  0  0  0  0  0  0  0  0
    1.1903   -2.1002   -2.3352 C   0  0  0  0  0  0  0  0  0  0  0  0
    1.0156   -3.0040   -2.9346 H   0  0  0  0  0  0  0  0  0  0  0  0
    3.5607    3.4387    1.3227 C   0  0  0  0  0  0  0  0  0  0  0  0
    4.1148    4.2352    1.8377 H   0  0  0  0  0  0  0  0  0  0  0  0
   -3.3150    1.7774   -0.7941 C   0  0  1  0  0  0  0  0  0  0  0  0
   -3.1231    1.0117   -1.5856 H   0  0  0  0  0  0  0  0  0  0  0  0
   -1.0060    1.0801    0.9026 C   0  0  0  0  0  0  0  0  0  0  0  0
   -0.1065    0.4662    1.1088 H   0  0  0  0  0  0  0  0  0  0  0  0
   -1.0948    1.7860    1.7539 H   0  0  0  0  0  0  0  0  0  0  0  0
   -2.2432    0.1833    0.8115 C   0  0  0  0  0  0  0  0  0  0  0  0
   -2.0862   -0.5795    0.0164 H   0  0  0  0  0  0  0  0  0  0  0  0
   -2.3410   -0.3814    1.7600 H   0  0  0  0  0  0  0  0  0  0  0  0
   -3.5528    0.9555    0.5119 C   0  0  2  0  0  0  0  0  0  0  0  0
   -4.7205   -0.0455    0.2264 C   0  0  2  0  0  0  0  0  0  0  0  0
   -4.3757   -0.6674   -0.6363 H   0  0  0  0  0  0  0  0  0  0  0  0
   -6.0104    0.6715   -0.2670 C   0  0  1  0  0  0  0  0  0  0  0  0
   -6.3891    1.3244    0.5518 H   0  0  0  0  0  0  0  0  0  0  0  0
   -4.5674    2.5325   -1.2514 C   0  0  0  0  0  0  0  0  0  0  0  0
   -4.3442    3.0973   -2.1816 H   0  0  0  0  0  0  0  0  0  0  0  0
   -4.8466    3.2935   -0.4905 H   0  0  0  0  0  0  0  0  0  0  0  0
   -5.7271    1.5625   -1.4846 C   0  0  0  0  0  0  0  0  0  0  0  0
   -5.4808    0.9071   -2.3515 H   0  0  0  0  0  0  0  0  0  0  0  0
   -6.6442    2.1186   -1.7687 H   0  0  0  0  0  0  0  0  0  0  0  0
   -2.0799    2.6831   -0.7179 C   0  0  0  0  0  0  0  0  0  0  0  0
   -2.2317    3.4576    0.0634 H   0  0  0  0  0  0  0  0  0  0  0  0
   -1.9337    3.2204   -1.6790 H   0  0  0  0  0  0  0  0  0  0  0  0
   -7.0788   -0.3826   -0.5642 C   0  0  1  0  0  0  0  0  0  0  0  0
   -6.6299   -1.0698   -1.3223 H   0  0  0  0  0  0  0  0  0  0  0  0
   -7.4181   -1.2752    0.6488 C   0  0  1  0  0  0  0  0  0  0  0  0
   -6.1454   -2.0124    1.0794 C   0  0  0  0  0  0  0  0  0  0  0  0
   -5.8334   -2.6886    0.2523 H   0  0  0  0  0  0  0  0  0  0  0  0
   -6.3441   -2.6621    1.9576 H   0  0  0  0  0  0  0  0  0  0  0  0
   -5.0067   -1.0251    1.3847 C   0  0  0  0  0  0  0  0  0  0  0  0
   -5.2540   -0.4516    2.3026 H   0  0  0  0  0  0  0  0  0  0  0  0
   -4.0886   -1.5976    1.6258 H   0  0  0  0  0  0  0  0  0  0  0  0
   -8.0203   -0.4989    1.8336 C   0  0  0  0  0  0  0  0  0  0  0  0
   -8.3439   -1.2152    2.6168 H   0  0  0  0  0  0  0  0  0  0  0  0
   -8.9000    0.1101    1.5432 H   0  0  0  0  0  0  0  0  0  0  0  0
   -7.2940    0.1896    2.3054 H   0  0  0  0  0  0  0  0  0  0  0  0
   -8.5230   -2.1669    0.0142 C   0  0  2  0  0  0  0  0  0  0  0  0
   -8.0144   -2.8750   -0.6765 H   0  0  0  0  0  0  0  0  0  0  0  0
   -9.3769   -1.1626   -0.8138 C   0  0  0  0  0  0  0  0  0  0  0  0
  -10.2567   -0.8546   -0.2089 H   0  0  0  0  0  0  0  0  0  0  0  0
   -9.7842   -1.6386   -1.7268 H   0  0  0  0  0  0  0  0  0  0  0  0
   -8.4511    0.0467   -1.1213 C   0  0  0  0  0  0  0  0  0  0  0  0
   -8.4066    0.2846   -2.2019 H   0  0  0  0  0  0  0  0  0  0  0  0
   -8.8081    0.9654   -0.6098 H   0  0  0  0  0  0  0  0  0  0  0  0
   -9.2530   -2.9879    0.8998 O   0  0  0  0  0  0  0  0  0  0  0  0
   -9.8320   -2.4042    1.4247 H   0  0  0  0  0  0  0  0  0  0  0  0
   -3.8926    1.8697    1.7067 C   0  0  0  0  0  0  0  0  0  0  0  0
   -3.9372    1.2838    2.6457 H   0  0  0  0  0  0  0  0  0  0  0  0
   -4.8688    2.3765    1.5872 H   0  0  0  0  0  0  0  0  0  0  0  0
   -3.1340    2.6613    1.8614 H   0  0  0  0  0  0  0  0  0  0  0  0
  1  8  1  0  0  0  0
  2  7  1  0  0  0  0
  3  5  1  0  0  0  0
  5  6  1  0  0  0  0
  5 22  2  0  0  0  0
  7  4  1  6  0  0  0
  7 10  1  0  0  0  0
  8 22  1  0  0  0  0
  8  9  1  0  0  0  0
 10  3  2  0  0  0  0
 10  1  1  0  0  0  0
 11 12  1  0  0  0  0
 11  3  1  0  0  0  0
 13  4  1  0  0  0  0
 14 13  1  0  0  0  0
 15 16  1  0  0  0  0
 15  2  1  0  0  0  0
 17 13  1  6  0  0  0
 17 11  1  0  0  0  0
 17 26  1  0  0  0  0
 18  4  2  0  0  0  0
 19 18  1  0  0  0  0
 20 18  1  0  0  0  0
 20 15  2  0  0  0  0
 21 20  1  0  0  0  0
 22 23  1  0  0  0  0
 24 25  1  6  0  0  0
 24 43  1  0  0  0  0
 24 32  1  0  0  0  0
 26 27  1  0  0  0  0
 26 28  1  0  0  0  0
 29 26  1  0  0  0  0
 29 31  1  0  0  0  0
 30 29  1  0  0  0  0
 32 29  1  0  0  0  0
 32 69  1  1  0  0  0
 33 34  1  6  0  0  0
 33 32  1  0  0  0  0
 33 52  1  0  0  0  0
 35 33  1  0  0  0  0
 35 36  1  1  0  0  0
 37 24  1  0  0  0  0
 37 39  1  0  0  0  0
 38 37  1  0  0  0  0
 40 37  1  0  0  0  0
 40 35  1  0  0  0  0
 41 40  1  0  0  0  0
 42 40  1  0  0  0  0
 43 17  1  0  0  0  0
 43 44  1  0  0  0  0
 45 43  1  0  0  0  0
 46 47  1  6  0  0  0
 46 35  1  0  0  0  0
 46 48  1  0  0  0  0
 48 49  1  0  0  0  0
 48 55  1  1  0  0  0
 49 52  1  0  0  0  0
 49 51  1  0  0  0  0
 50 49  1  0  0  0  0
 52 54  1  0  0  0  0
 52 53  1  0  0  0  0
 55 58  1  0  0  0  0
 55 56  1  0  0  0  0
 57 55  1  0  0  0  0
 59 60  1  6  0  0  0
 59 48  1  0  0  0  0
 59 67  1  0  0  0  0
 61 62  1  0  0  0  0
 61 59  1  0  0  0  0
 63 61  1  0  0  0  0
 64 61  1  0  0  0  0
 64 66  1  0  0  0  0
 64 46  1  0  0  0  0
 65 64  1  0  0  0  0
 67 68  1  0  0  0  0
 69 72  1  0  0  0  0
 69 70  1  0  0  0  0
 71 69  1  0  0  0  0
M  END
