1,2
q = 0.0, confidence = 0.994

 30 32  0  0  1  0  0  0  0  0999 V2000
   -1.3054    0.6079    0.0524 N   0  0  0  0  0  2  0  0  0  0  0  0
    1.3428    0.8151    0.2115 N   0  0  0  0  0  2  0  0  0  0  0  0
    0.6499    1.8803    0.4984 C   0  0  0  0  0  3  0  0  0  0  0  0
    1.1399    2.8112    0.8377 H   0  0  0  0  0  0  0  0  0  0  0  0
    3.4743   -0.1375    0.9391 C   0  0  0  0  0  0  0  0  0  0  0  0
    2.9257   -0.9589    1.4199 H   0  0  0  0  0  0  0  0  0  0  0  0
    2.7621    0.8765    0.2666 C   0  0  0  0  0  0  0  0  0  0  0  0
   -0.7945    1.8109    0.4075 C   0  0  0  0  0  0  0  0  0  0  0  0
   -2.6726    0.4518    0.0532 C   0  0  2  0  0  3  0  0  0  0  0  0
   -1.5915    2.9463    0.7078 C   0  0  0  0  0  0  0  0  0  0  0  0
   -1.1007    3.8916    0.9787 H   0  0  0  0  0  0  0  0  0  0  0  0
    4.8697   -0.0673    1.0172 C   0  0  0  0  0  0  0  0  0  0  0  0
    5.4232   -0.8503    1.5559 H   0  0  0  0  0  0  0  0  0  0  0  0
    5.5627    0.9917    0.4064 C   0  0  0  0  0  0  0  0  0  0  0  0
    6.6606    1.0319    0.4560 H   0  0  0  0  0  0  0  0  0  0  0  0
   -3.5476    1.5787    0.3233 C   0  0  0  0  0  0  0  0  0  0  0  0
    4.8533    1.9910   -0.2787 C   0  0  0  0  0  0  0  0  0  0  0  0
    5.3925    2.8106   -0.7760 H   0  0  0  0  0  0  0  0  0  0  0  0
    3.4549    1.9424   -0.3465 C   0  0  0  0  0  0  0  0  0  0  0  0
    2.8968    2.7027   -0.9132 H   0  0  0  0  0  0  0  0  0  0  0  0
   -2.9668    2.8350    0.6382 C   0  0  0  0  0  0  0  0  0  0  0  0
   -3.6180    3.6988    0.8398 H   0  0  0  0  0  0  0  0  0  0  0  0
   -4.9594    1.4000    0.2848 C   0  0  0  0  0  0  0  0  0  0  0  0
   -5.6037    2.2709    0.4772 H   0  0  0  0  0  0  0  0  0  0  0  0
   -3.2749   -0.8156   -0.1835 C   0  0  0  0  0  0  0  0  0  0  0  0
   -2.6397   -1.6908   -0.3409 H   0  0  0  0  0  0  0  0  0  0  0  0
   -4.6541   -0.9572   -0.1988 C   0  0  0  0  0  0  0  0  0  0  0  0
   -5.0908   -1.9495   -0.3852 H   0  0  0  0  0  0  0  0  0  0  0  0
   -5.5081    0.1558    0.0216 C   0  0  0  0  0  0  0  0  0  0  0  0
   -6.5995    0.0244   -0.0075 H   0  0  0  0  0  0  0  0  0  0  0  0
  1  9  1  0  0  0  0
  1  8  1  0  0  0  0
  2  7  1  0  0  0  0
  2  3  1  0  0  0  0
  3  4  1  0  0  0  0
  5 12  1  0  0  0  0
  5  6  1  0  0  0  0
  7  5  2  0  0  0  0
  8  3  1  0  0  0  0
  8 10  2  0  0  0  0
  9 25  1  1  0  0  0
  9 16  1  0  0  0  0
 10 11  1  0  0  0  0
 12 13  1  0  0  0  0
 14 15  1  0  0  0  0
 14 12  2  0  0  0  0
 16 21  2  0  0  0  0
 17 14  1  0  0  0  0
 18 17  1  0  0  0  0
 19 17  2  0  0  0  0
 19  7  1  0  0  0  0
 20 19  1  0  0  0  0
 21 10  1  0  0  0  0
 21 22  1  0  0  0  0
 23 16  1  0  0  0  0
 23 24  1  0  0  0  0
 26 25  1  0  0  0  0
 27 25  2  0  0  0  0
 27 29  1  0  0  0  0
 28 27  1  0  0  0  0
 29 23  2  0  0  0  0
 30 29  1  0  0  0  0
M  END
