1,7
q = 0.0, confidence = 0.98

 32 36  0  0  0  0  0  0  0  0999 V2000
   -0.0571    1.3496   -0.3085 N   0  0  0  0  0  2  0  0  0  0  0  0
    0.0218    2.6828   -0.1208 C   0  0  0  0  0  3  0  0  0  0  0  0
   -1.1148    3.4643    0.1441 C   0  0  0  0  0  0  0  0  0  0  0  0
   -2.3714    2.8604    0.2372 C   0  0  0  0  0  0  0  0  0  0  0  0
   -2.4653    1.4629    0.0790 C   0  0  0  0  0  0  0  0  0  0  0  0
   -1.2766    0.7457   -0.1875 C   0  0  0  0  0  0  0  0  0  0  0  0
   -0.0604   -1.2621   -0.5349 N   0  0  0  0  0  2  0  0  0  0  0  0
    0.0141   -2.6076   -0.5871 C   0  0  0  0  0  3  0  0  0  0  0  0
   -1.1250   -3.4203   -0.4665 C   0  0  0  0  0  0  0  0  0  0  0  0
   -2.3800   -2.8384   -0.2686 C   0  0  0  0  0  0  0  0  0  0  0  0
   -2.4697   -1.4347   -0.1778 C   0  0  0  0  0  0  0  0  0  0  0  0
   -1.2785   -0.6854   -0.3127 C   0  0  0  0  0  0  0  0  0  0  0  0
   -3.7244    0.7205    0.1947 C   0  0  0  0  0  0  0  0  0  0  0  0
   -3.7267   -0.7206    0.0662 C   0  0  0  0  0  0  0  0  0  0  0  0
   -4.8465    1.4002    0.4266 N   0  0  0  0  0  0  0  0  0  0  0  0
   -4.8510   -1.4272    0.1736 N   0  0  0  0  0  0  0  0  0  0  0  0
   -5.9977    0.6976    0.5371 C   0  0  0  0  0  0  0  0  0  0  0  0
   -7.2265    1.3781    0.7847 C   0  0  0  0  0  0  0  0  0  0  0  0
   -8.4020    0.6554    0.8977 C   0  0  0  0  0  0  0  0  0  0  0  0
   -8.4043   -0.7669    0.7697 C   0  0  0  0  0  0  0  0  0  0  0  0
   -7.2311   -1.4616    0.5293 C   0  0  0  0  0  0  0  0  0  0  0  0
   -6.0001   -0.7518    0.4071 C   0  0  0  0  0  0  0  0  0  0  0  0
    1.0249    3.1268   -0.1728 H   0  0  0  0  0  0  0  0  0  0  0  0
   -0.9945    4.5479    0.2820 H   0  0  0  0  0  0  0  0  0  0  0  0
   -3.2877    3.4312    0.4443 H   0  0  0  0  0  0  0  0  0  0  0  0
    1.0160   -3.0382   -0.7182 H   0  0  0  0  0  0  0  0  0  0  0  0
   -1.0084   -4.5116   -0.5239 H   0  0  0  0  0  0  0  0  0  0  0  0
   -3.2983   -3.4340   -0.1668 H   0  0  0  0  0  0  0  0  0  0  0  0
   -7.1998    2.4729    0.8800 H   0  0  0  0  0  0  0  0  0  0  0  0
   -9.3506    1.1786    1.0892 H   0  0  0  0  0  0  0  0  0  0  0  0
   -9.3547   -1.3129    0.8648 H   0  0  0  0  0  0  0  0  0  0  0  0
   -7.2079   -2.5560    0.4277 H   0  0  0  0  0  0  0  0  0  0  0  0
  1  6  1  0  0  0  0
  1  2  1  0  0  0  0
  2  3  1  0  0  0  0
  3  4  2  0  0  0  0
  3 24  1  0  0  0  0
  4 25  1  0  0  0  0
  5 13  1  0  0  0  0
  5  4  1  0  0  0  0
  6  5  2  0  0  0  0
  7 12  1  0  0  0  0
  8  7  1  0  0  0  0
  8  9  1  0  0  0  0
  9 10  2  0  0  0  0
 10 11  1  0  0  0  0
 10 28  1  0  0  0  0
 11 14  1  0  0  0  0
 12  6  1  0  0  0  0
 12 11  2  0  0  0  0
 13 15  1  0  0  0  0
 14 16  1  0  0  0  0
 14 13  2  0  0  0  0
 15 17  2  0  0  0  0
 16 22  2  0  0  0  0
 17 18  1  0  0  0  0
 18 29  1  0  0  0  0
 18 19  2  0  0  0  0
 19 30  1  0  0  0  0
 20 31  1  0  0  0  0
 20 19  1  0  0  0  0
 21 20  2  0  0  0  0
 22 21  1  0  0  0  0
 22 17  1  0  0  0  0
 23  2  1  0  0  0  0
 26  8  1  0  0  0  0
 27  9  1  0  0  0  0
 32 21  1  0  0  0  0
M  END
