1,2
q = 0.0, confidence = 0.99

 30 32  0  0  0  0  0  0  0  0999 V2000
    1.6410    1.5325   -0.1294 N   0  0  0  0  0  2  0  0  0  0  0  0
   -0.2400    0.0637    1.0404 N   0  0  0  0  0  2  0  0  0  0  0  0
   -1.2915   -0.5659    1.4942 N   0  0  0  0  0  2  0  0  0  0  0  0
   -2.2535    0.3630    1.6306 N   0  0  0  0  0  0  0  0  0  0  0  0
    2.6693    2.2099   -0.6831 C   0  0  0  0  0  3  0  0  0  0  0  0
    3.5204    1.6005   -1.0192 H   0  0  0  0  0  0  0  0  0  0  0  0
    2.6600    3.5993   -0.8369 C   0  0  0  0  0  0  0  0  0  0  0  0
    3.5225    4.0985   -1.2996 H   0  0  0  0  0  0  0  0  0  0  0  0
    1.5414    4.3259   -0.3983 C   0  0  0  0  0  0  0  0  0  0  0  0
    1.5034    5.4197   -0.5052 H   0  0  0  0  0  0  0  0  0  0  0  0
    0.4733    3.6332    0.1795 C   0  0  0  0  0  0  0  0  0  0  0  0
   -0.4190    4.1634    0.5410 H   0  0  0  0  0  0  0  0  0  0  0  0
    0.5482    2.2350    0.2978 C   0  0  0  0  0  0  0  0  0  0  0  0
   -0.5017    1.4056    0.8709 C   0  0  0  0  0  0  0  0  0  0  0  0
   -1.8225    1.6016    1.2570 C   0  0  0  0  0  0  0  0  0  0  0  0
   -2.4798    2.4752    1.2501 H   0  0  0  0  0  0  0  0  0  0  0  0
   -3.6238   -0.0750    1.8664 C   0  0  0  0  0  0  0  0  0  0  0  0
   -4.0964    0.6084    2.5995 H   0  0  0  0  0  0  0  0  0  0  0  0
   -3.5354   -1.0737    2.3401 H   0  0  0  0  0  0  0  0  0  0  0  0
   -4.4258   -0.1406    0.5768 C   0  0  0  0  0  0  0  0  0  0  0  0
   -3.7998   -0.3970   -0.6595 C   0  0  0  0  0  0  0  0  0  0  0  0
   -2.7064   -0.5213   -0.7401 H   0  0  0  0  0  0  0  0  0  0  0  0
   -4.5724   -0.4874   -1.8272 C   0  0  0  0  0  0  0  0  0  0  0  0
   -4.0676   -0.6831   -2.7851 H   0  0  0  0  0  0  0  0  0  0  0  0
   -5.9660   -0.3307   -1.7735 C   0  0  0  0  0  0  0  0  0  0  0  0
   -6.5669   -0.4036   -2.6925 H   0  0  0  0  0  0  0  0  0  0  0  0
   -6.5907   -0.0741   -0.5427 C   0  0  0  0  0  0  0  0  0  0  0  0
   -7.6823    0.0570   -0.4921 H   0  0  0  0  0  0  0  0  0  0  0  0
   -5.8228    0.0255    0.6268 C   0  0  0  0  0  0  0  0  0  0  0  0
   -6.3163    0.2341    1.5900 H   0  0  0  0  0  0  0  0  0  0  0  0
  1 13  1  0  0  0  0
  2  3  1  0  0  0  0
  3  4  1  0  0  0  0
  4 17  1  0  0  0  0
  5  1  1  0  0  0  0
  6  5  1  0  0  0  0
  7  5  1  0  0  0  0
  7  9  2  0  0  0  0
  8  7  1  0  0  0  0
  9 11  1  0  0  0  0
 10  9  1  0  0  0  0
 11 13  2  0  0  0  0
 11 12  1  0  0  0  0
 13 14  1  0  0  0  0
 14  2  1  0  0  0  0
 14 15  2  0  0  0  0
 15  4  1  0  0  0  0
 16 15  1  0  0  0  0
 17 19  1  0  0  0  0
 17 18  1  0  0  0  0
 20 29  1  0  0  0  0
 20 17  1  0  0  0  0
 21 20  2  0  0  0  0
 22 21  1  0  0  0  0
 23 25  2  0  0  0  0
 23 21  1  0  0  0  0
 24 23  1  0  0  0  0
 25 27  1  0  0  0  0
 26 25  1  0  0  0  0
 27 28  1  0  0  0  0
 27 29  2  0  0  0  0
 29 30  1  0  0  0  0
M  END
