1,2
q = 0.0, confidence = 0.996

 25 25  0  0  1  0  0  0  0  0999 V2000
    1.7173   -2.4692    0.1120 N   0  0  0  0  0  0  0  0  0  0  0  0
    2.8144    0.5166   -0.0352 N   0  0  0  0  0  2  0  0  0  0  0  0
    1.1524   -3.0862    1.3277 C   0  0  0  0  0  0  0  0  0  0  0  0
    1.1900   -3.1523   -1.0870 C   0  0  0  0  0  0  0  0  0  0  0  0
    3.1987   -2.5179    0.1527 C   0  0  0  0  0  0  0  0  0  0  0  0
    3.8911   -1.5505   -0.8238 C   0  0  0  0  0  0  0  0  0  0  0  0
    3.9750   -0.1186   -0.3512 C   0  0  2  0  0  3  0  0  0  0  0  0
    5.2089    0.5460   -0.2365 C   0  0  0  0  0  0  0  0  0  0  0  0
    5.2470    1.8747    0.2058 C   0  0  0  0  0  0  0  0  0  0  0  0
    4.0429    2.5168    0.5290 C   0  0  0  0  0  0  0  0  0  0  0  0
    2.8508    1.8011    0.3926 C   0  0  0  0  0  0  0  0  0  0  0  0
    1.4652   -4.1519    1.4293 H   0  0  0  0  0  0  0  0  0  0  0  0
    1.4878   -2.5313    2.2250 H   0  0  0  0  0  0  0  0  0  0  0  0
    0.0483   -3.0447    1.2825 H   0  0  0  0  0  0  0  0  0  0  0  0
    0.0873   -3.0637   -1.1100 H   0  0  0  0  0  0  0  0  0  0  0  0
    1.5898   -2.6855   -2.0075 H   0  0  0  0  0  0  0  0  0  0  0  0
    1.4695   -4.2320   -1.0918 H   0  0  0  0  0  0  0  0  0  0  0  0
    3.5162   -2.2795    1.1881 H   0  0  0  0  0  0  0  0  0  0  0  0
    3.5411   -3.5593   -0.0552 H   0  0  0  0  0  0  0  0  0  0  0  0
    4.9184   -1.9199   -1.0063 H   0  0  0  0  0  0  0  0  0  0  0  0
    3.3833   -1.5840   -1.8126 H   0  0  0  0  0  0  0  0  0  0  0  0
    6.1359    0.0149   -0.4972 H   0  0  0  0  0  0  0  0  0  0  0  0
    6.2076    2.4034    0.2960 H   0  0  0  0  0  0  0  0  0  0  0  0
    4.0210    3.5594    0.8761 H   0  0  0  0  0  0  0  0  0  0  0  0
    1.8769    2.2642    0.6168 H   0  0  0  0  0  0  0  0  0  0  0  0
  1  5  1  0  0  0  0
  1  3  1  0  0  0  0
  2 11  1  0  0  0  0
  3 12  1  0  0  0  0
  3 13  1  0  0  0  0
  4  1  1  0  0  0  0
  5 18  1  0  0  0  0
  6  5  1  0  0  0  0
  7  6  1  1  0  0  0
  7  8  1  0  0  0  0
  7  2  1  0  0  0  0
  8  9  2  0  0  0  0
  9 23  1  0  0  0  0
  9 10  1  0  0  0  0
 10 24  1  0  0  0  0
 11 10  2  0  0  0  0
 11 25  1  0  0  0  0
 14  3  1  0  0  0  0
 15  4  1  0  0  0  0
 16  4  1  0  0  0  0
 17  4  1  0  0  0  0
 19  5  1  0  0  0  0
 20  6  1  0  0  0  0
 21  6  1  0  0  0  0
 22  8  1  0  0  0  0
M  END
