1,2
q = -1.0, confidence = 0.008

 69 75  0  0  1  0  0  0  0  0999 V2000
   -1.5817    1.3627    0.1908 N   0  0  0  0  0  2  0  0  0  0  0  0
   -1.4546   -1.5241    0.0392 N   0  0  0  0  0  0  0  0  0  0  0  0
    1.3504   -2.7999   -0.5184 C   0  0  0  0  0  0  0  0  0  0  0  0
    2.6997   -3.3910   -0.4193 C   0  0  0  0  0  0  0  0  0  0  0  0
    3.1339   -4.6786   -0.0858 C   0  0  0  0  0  0  0  0  0  0  0  0
    2.4114   -5.4745    0.1534 H   0  0  0  0  0  0  0  0  0  0  0  0
    4.5167   -4.9453   -0.0598 C   0  0  0  0  0  0  0  0  0  0  0  0
    4.8726   -5.9565    0.1891 H   0  0  0  0  0  0  0  0  0  0  0  0
    3.6442   -2.3569   -0.7046 C   0  0  0  0  0  0  0  0  0  0  0  0
    5.4466   -3.9296   -0.3435 C   0  0  0  0  0  0  0  0  0  0  0  0
    6.5236   -4.1546   -0.3135 H   0  0  0  0  0  0  0  0  0  0  0  0
    5.0172   -2.6250   -0.6584 C   0  0  0  0  0  3  0  0  0  0  0  0
    5.7564   -1.8351   -0.8630 H   0  0  0  0  0  0  0  0  0  0  0  0
    2.8938   -1.1092   -0.9843 C   0  0  0  0  0  0  0  0  0  0  0  0
    3.4908    0.1793   -1.1486 C   0  0  0  0  0  0  0  0  0  0  0  0
    4.5880    0.2141   -1.2514 H   0  0  0  0  0  0  0  0  0  0  0  0
    2.8160    1.3826   -1.0208 C   0  0  0  0  0  0  0  0  0  0  0  0
    3.3700    2.7193   -0.9132 C   0  0  0  0  0  0  0  0  0  0  0  0
    4.6901    3.1855   -1.1058 C   0  0  0  0  0  0  0  0  0  0  0  0
    5.4847    2.4936   -1.4237 H   0  0  0  0  0  0  0  0  0  0  0  0
    4.9717    4.5361   -0.8946 C   0  0  0  0  0  0  0  0  0  0  0  0
    5.9952    4.9109   -1.0476 H   0  0  0  0  0  0  0  0  0  0  0  0
    2.3382    3.6354   -0.5014 C   0  0  0  0  0  0  0  0  0  0  0  0
    3.9562    5.4375   -0.4834 C   0  0  0  0  0  0  0  0  0  0  0  0
    4.2077    6.4967   -0.3220 H   0  0  0  0  0  0  0  0  0  0  0  0
    2.6476    4.9964   -0.2818 C   0  0  0  0  0  0  0  0  0  0  0  0
    1.8666    5.7010    0.0426 H   0  0  0  0  0  0  0  0  0  0  0  0
    1.0821    2.9208   -0.3674 C   0  0  0  0  0  0  0  0  0  0  0  0
   -0.1514    3.4247    0.0023 C   0  0  0  0  0  0  0  0  0  0  0  0
   -0.2240    4.5128    0.1602 H   0  0  0  0  0  0  0  0  0  0  0  0
   -1.3969    2.7230    0.0925 C   0  0  1  0  0  3  0  0  0  0  0  0
   -2.6866    3.3798   -0.0362 C   0  0  0  0  0  0  0  0  0  0  0  0
   -2.8895    4.8516   -0.2164 C   0  0  0  0  0  0  0  0  0  0  0  0
   -2.3670    5.4396    0.5670 H   0  0  0  0  0  0  0  0  0  0  0  0
   -3.9630    5.1185   -0.1716 H   0  0  0  0  0  0  0  0  0  0  0  0
   -2.5009    5.2054   -1.1951 H   0  0  0  0  0  0  0  0  0  0  0  0
   -3.6548    2.3777   -0.0462 C   0  0  0  0  0  0  0  0  0  0  0  0
   -5.1310    2.5209   -0.2751 C   0  0  0  0  0  0  0  0  0  0  0  0
   -5.4619    3.5165    0.0881 H   0  0  0  0  0  0  0  0  0  0  0  0
   -5.6799    1.7802    0.3450 H   0  0  0  0  0  0  0  0  0  0  0  0
   -5.5356    2.3553   -1.7501 C   0  0  0  0  0  0  0  0  0  0  0  0
   -5.2449    1.3558   -2.1333 H   0  0  0  0  0  0  0  0  0  0  0  0
   -5.0318    3.1103   -2.3866 H   0  0  0  0  0  0  0  0  0  0  0  0
   -6.6307    2.4686   -1.8829 H   0  0  0  0  0  0  0  0  0  0  0  0
   -2.9449    1.1229    0.0862 C   0  0  0  0  0  0  0  0  0  0  0  0
   -3.5115   -0.1597    0.0280 C   0  0  0  0  0  0  0  0  0  0  0  0
   -4.6078   -0.2067   -0.0429 H   0  0  0  0  0  0  0  0  0  0  0  0
   -2.8271   -1.3862   -0.0705 C   0  0  0  0  0  3  0  0  0  0  0  0
   -3.4316   -2.6725   -0.3474 C   0  0  0  0  0  0  0  0  0  0  0  0
   -4.8883   -2.9071   -0.6212 C   0  0  0  0  0  0  0  0  0  0  0  0
   -5.1390   -3.9622   -0.3838 H   0  0  0  0  0  0  0  0  0  0  0  0
   -5.5038   -2.2922    0.0702 H   0  0  0  0  0  0  0  0  0  0  0  0
   -5.2897   -2.6011   -2.0743 C   0  0  0  0  0  0  0  0  0  0  0  0
   -4.7171   -3.2309   -2.7847 H   0  0  0  0  0  0  0  0  0  0  0  0
   -5.0803   -1.5426   -2.3313 H   0  0  0  0  0  0  0  0  0  0  0  0
   -6.3699   -2.7880   -2.2420 H   0  0  0  0  0  0  0  0  0  0  0  0
   -2.3881   -3.5943   -0.4046 C   0  0  0  0  0  0  0  0  0  0  0  0
   -2.4678   -5.0531   -0.7283 C   0  0  0  0  0  0  0  0  0  0  0  0
   -3.5151   -5.4118   -0.7171 H   0  0  0  0  0  0  0  0  0  0  0  0
   -1.8962   -5.6683   -0.0022 H   0  0  0  0  0  0  0  0  0  0  0  0
   -2.0514   -5.2764   -1.7335 H   0  0  0  0  0  0  0  0  0  0  0  0
   -1.1589   -2.8547   -0.1821 C   0  0  0  0  0  0  0  0  0  0  0  0
    0.1370   -3.4388   -0.2651 C   0  0  0  0  0  3  0  0  0  0  0  0
    0.1612   -4.5347   -0.1478 H   0  0  0  0  0  0  0  0  0  0  0  0
    1.5273   -1.4336   -0.9065 C   0  0  0  0  0  0  0  0  0  0  0  0
    0.6825   -0.7953   -1.1619 H   0  0  0  0  0  0  0  0  0  0  0  0
    1.3474    1.4990   -0.7520 C   0  0  0  0  0  0  0  0  0  0  0  0
    0.7101    1.1919   -1.6095 H   0  0  0  0  0  0  0  0  0  0  0  0
    1.0443    0.7896    0.0667 H   0  0  0  0  0  0  0  0  0  0  0  0
  3  4  1  0  0  0  0
  3 63  1  0  0  0  0
  4  5  2  0  0  0  0
  5  7  1  0  0  0  0
  5  6  1  0  0  0  0
  7  8  1  0  0  0  0
  9 12  1  0  0  0  0
  9  4  1  0  0  0  0
 10 11  1  0  0  0  0
 10  7  2  0  0  0  0
 12 10  1  0  0  0  0
 13 12  1  0  0  0  0
 14 65  1  0  0  0  0
 14  9  2  0  0  0  0
 15 17  2  0  0  0  0
 15 14  1  0  0  0  0
 16 15  1  0  0  0  0
 17 18  1  0  0  0  0
 17 67  1  0  0  0  0
 18 23  1  0  0  0  0
 19 18  2  0  0  0  0
 19 21  1  0  0  0  0
 20 19  1  0  0  0  0
 21 24  2  0  0  0  0
 22 21  1  0  0  0  0
 23 28  1  0  0  0  0
 23 26  2  0  0  0  0
 24 25  1  0  0  0  0
 24 26  1  0  0  0  0
 26 27  1  0  0  0  0
 28 29  2  0  0  0  0
 29 31  1  0  0  0  0
 29 30  1  0  0  0  0
 31 32  1  6  0  0  0
 31  1  1  0  0  0  0
 33 35  1  0  0  0  0
 33 32  1  0  0  0  0
 33 34  1  0  0  0  0
 36 33  1  0  0  0  0
 37 32  2  0  0  0  0
 37 45  1  0  0  0  0
 38 37  1  0  0  0  0
 38 39  1  0  0  0  0
 38 40  1  0  0  0  0
 41 38  1  0  0  0  0
 42 41  1  0  0  0  0
 43 41  1  0  0  0  0
 44 41  1  0  0  0  0
 45  1  1  0  0  0  0
 46 45  2  0  0  0  0
 47 46  1  0  0  0  0
 48 46  1  0  0  0  0
 48  2  1  0  0  0  0
 49 48  1  0  0  0  0
 50 51  1  0  0  0  0
 50 49  1  0  0  0  0
 50 52  1  0  0  0  0
 53 50  1  0  0  0  0
 54 53  1  0  0  0  0
 55 53  1  0  0  0  0
 56 53  1  0  0  0  0
 57 49  2  0  0  0  0
 57 62  1  0  0  0  0
 58 59  1  0  0  0  0
 58 57  1  0  0  0  0
 58 60  1  0  0  0  0
 61 58  1  0  0  0  0
 62  2  2  0  0  0  0
 63 62  1  0  0  0  0
 63 64  1  0  0  0  0
 65  3  2  0  0  0  0
 66 65  1  0  0  0  0
 67 28  1  0  0  0  0
 67 69  1  0  0  0  0
 68 67  1  0  0  0  0
M  END
