1,15
q = 0.0, confidence = 0.948

 43 45  0  0  1  0  0  0  0  0999 V2000
   -0.6990    1.4331    0.6317 N   0  0  0  0  0  2  0  0  0  0  0  0
    0.6324    1.2586    0.2074 N   0  0  0  0  0  0  0  0  0  0  0  0
   -0.8221    2.7778    0.8697 C   0  0  1  0  0  3  0  0  0  0  0  0
    0.3487    3.4502    0.4808 C   0  0  0  0  0  0  0  0  0  0  0  0
    0.4979    4.5355    0.4807 H   0  0  0  0  0  0  0  0  0  0  0  0
    1.2446    2.4993   -0.0031 C   0  0  0  0  0  0  0  0  0  0  0  0
   -2.0694    3.4800    1.2849 C   0  0  0  0  0  0  0  0  0  0  0  0
   -2.5576    3.0364    2.1742 H   0  0  0  0  0  0  0  0  0  0  0  0
   -2.8163    3.4811    0.4625 H   0  0  0  0  0  0  0  0  0  0  0  0
   -1.8276    4.5332    1.5220 H   0  0  0  0  0  0  0  0  0  0  0  0
    2.5181    2.7430   -0.7456 C   0  0  0  0  0  0  0  0  0  0  0  0
    2.6355    2.0454   -1.5979 H   0  0  0  0  0  0  0  0  0  0  0  0
    2.5034    3.7778   -1.1402 H   0  0  0  0  0  0  0  0  0  0  0  0
    3.4341    2.6366   -0.1270 H   0  0  0  0  0  0  0  0  0  0  0  0
   -0.6396   -1.6120    0.2380 N   0  0  0  0  0  2  0  0  0  0  0  0
    0.7020   -1.3326    0.4533 N   0  0  0  0  0  0  0  0  0  0  0  0
   -0.7851   -2.9537    0.3996 C   0  0  2  0  0  3  0  0  0  0  0  0
    0.4455   -3.5242    0.7847 C   0  0  0  0  0  0  0  0  0  0  0  0
    0.6412   -4.5825    0.9871 H   0  0  0  0  0  0  0  0  0  0  0  0
    1.3814   -2.5028    0.8134 C   0  0  0  0  0  0  0  0  0  0  0  0
    2.8254   -2.6328    1.1643 C   0  0  0  0  0  0  0  0  0  0  0  0
    3.0110   -3.6754    1.4842 H   0  0  0  0  0  0  0  0  0  0  0  0
    3.4903   -2.4091    0.3065 H   0  0  0  0  0  0  0  0  0  0  0  0
    3.1260   -1.9658    1.9965 H   0  0  0  0  0  0  0  0  0  0  0  0
   -2.0239   -3.7223    0.0930 C   0  0  0  0  0  0  0  0  0  0  0  0
   -2.7583   -3.7317    0.9256 H   0  0  0  0  0  0  0  0  0  0  0  0
   -2.5357   -3.2904   -0.7891 H   0  0  0  0  0  0  0  0  0  0  0  0
   -1.7584   -4.7758   -0.1193 H   0  0  0  0  0  0  0  0  0  0  0  0
    2.7831    0.0124    0.0924 N   0  0  0  0  0  0  0  0  0  0  0  0
    3.3631   -0.4535   -1.0544 N   0  0  0  0  0  0  0  0  0  0  0  0
    3.7180    0.4678    0.9939 C   0  0  0  0  0  0  0  0  0  0  0  0
    4.9610    0.2830    0.3922 C   0  0  0  0  0  0  0  0  0  0  0  0
    5.9381    0.5278    0.8230 H   0  0  0  0  0  0  0  0  0  0  0  0
    4.6845   -0.2868   -0.8861 C   0  0  0  0  0  0  0  0  0  0  0  0
    3.3313    1.0336    2.3205 C   0  0  0  0  0  0  0  0  0  0  0  0
    2.7734    1.9882    2.2086 H   0  0  0  0  0  0  0  0  0  0  0  0
    4.2289    1.2273    2.9361 H   0  0  0  0  0  0  0  0  0  0  0  0
    2.6683    0.3426    2.8829 H   0  0  0  0  0  0  0  0  0  0  0  0
    5.6463   -0.6864   -1.9615 C   0  0  0  0  0  0  0  0  0  0  0  0
    6.2563    0.1752   -2.3030 H   0  0  0  0  0  0  0  0  0  0  0  0
    6.3525   -1.4660   -1.6075 H   0  0  0  0  0  0  0  0  0  0  0  0
    5.0901   -1.0871   -2.8297 H   0  0  0  0  0  0  0  0  0  0  0  0
    1.3012   -0.0230    0.2159 B   0  0  0  0  0  0  0  0  0  0  0  0
  1  3  1  0  0  0  0
  2 43  1  0  0  0  0
  2  1  1  0  0  0  0
  3  7  1  6  0  0  0
  4  3  1  0  0  0  0
  5  4  1  0  0  0  0
  6  2  1  0  0  0  0
  6  4  2  0  0  0  0
  7 10  1  0  0  0  0
  7  8  1  0  0  0  0
  9  7  1  0  0  0  0
 11 14  1  0  0  0  0
 11  6  1  0  0  0  0
 12 11  1  0  0  0  0
 13 11  1  0  0  0  0
 15 17  1  0  0  0  0
 15 16  1  0  0  0  0
 16 20  1  0  0  0  0
 17 25  1  6  0  0  0
 17 18  1  0  0  0  0
 18 20  2  0  0  0  0
 18 19  1  0  0  0  0
 20 21  1  0  0  0  0
 21 22  1  0  0  0  0
 21 24  1  0  0  0  0
 23 21  1  0  0  0  0
 25 26  1  0  0  0  0
 27 25  1  0  0  0  0
 28 25  1  0  0  0  0
 29 43  1  0  0  0  0
 29 31  1  0  0  0  0
 30 34  2  0  0  0  0
 30 29  1  0  0  0  0
 31 35  1  0  0  0  0
 32 33  1  0  0  0  0
 32 31  2  0  0  0  0
 34 32  1  0  0  0  0
 35 38  1  0  0  0  0
 35 37  1  0  0  0  0
 36 35  1  0  0  0  0
 39 41  1  0  0  0  0
 39 34  1  0  0  0  0
 40 39  1  0  0  0  0
 42 39  1  0  0  0  0
 43 16  1  0  0  0  0
M  END
