1,2
q = -1.0, confidence = 0.004

 18 18  0  0  0  0  0  0  0  0999 V2000
   -1.7260   -0.4889    0.0341 N   0  0  0  0  0  2  0  0  0  0  0  0
   -0.6647    1.9207   -0.1277 N   0  0  0  0  0  2  0  0  0  0  0  0
   -2.1580   -1.7771    0.0536 C   0  0  0  0  0  3  0  0  0  0  0  0
   -1.3751   -2.5486    0.0616 H   0  0  0  0  0  0  0  0  0  0  0  0
   -3.5095   -2.1138    0.0685 C   0  0  0  0  0  0  0  0  0  0  0  0
   -3.8044   -3.1725    0.0870 H   0  0  0  0  0  0  0  0  0  0  0  0
   -4.4683   -1.0848    0.0591 C   0  0  0  0  0  0  0  0  0  0  0  0
   -5.5435   -1.3167    0.0689 H   0  0  0  0  0  0  0  0  0  0  0  0
   -4.0251    0.2415    0.0336 C   0  0  0  0  0  0  0  0  0  0  0  0
   -4.7373    1.0797    0.0231 H   0  0  0  0  0  0  0  0  0  0  0  0
   -2.6487    0.5163    0.0207 C   0  0  0  0  0  0  0  0  0  0  0  0
   -2.0915    1.9057    0.0059 C   0  0  0  0  0  0  0  0  0  0  0  0
   -2.6035    2.4768   -0.8158 H   0  0  0  0  0  0  0  0  0  0  0  0
   -2.4434    2.4136    0.9481 H   0  0  0  0  0  0  0  0  0  0  0  0
   -0.1303    3.2584   -0.1235 C   0  0  0  0  0  0  0  0  0  0  0  0
   -0.5875    3.8915   -0.9251 H   0  0  0  0  0  0  0  0  0  0  0  0
    0.9622    3.2523   -0.3008 H   0  0  0  0  0  0  0  0  0  0  0  0
   -0.3079    3.7976    0.8431 H   0  0  0  0  0  0  0  0  0  0  0  0
  1  3  1  0  0  0  0
  2 15  1  0  0  0  0
  2 12  1  0  0  0  0
  3  4  1  0  0  0  0
  3  5  1  0  0  0  0
  5  6  1  0  0  0  0
  7  5  2  0  0  0  0
  7  8  1  0  0  0  0
  9  7  1  0  0  0  0
 10  9  1  0  0  0  0
 11  9  2  0  0  0  0
 11  1  1  0  0  0  0
 12 11  1  0  0  0  0
 12 14  1  0  0  0  0
 13 12  1  0  0  0  0
 15 18  1  0  0  0  0
 16 15  1  0  0  0  0
 17 15  1  0  0  0  0
M  END
