21,22
q = 0.0, confidence = 0.994

 23 25  0  0  0  0  0  0  0  0999 V2000
   -0.3353    2.2125   -0.0002 C   0  0  0  0  0  0  0  0  0  0  0  0
   -0.4908    3.6113   -0.0002 C   0  0  0  0  0  0  0  0  0  0  0  0
    0.4019    4.2520    0.0000 H   0  0  0  0  0  0  0  0  0  0  0  0
   -1.7830    4.1405   -0.0004 C   0  0  0  0  0  0  0  0  0  0  0  0
   -1.9419    5.2286   -0.0004 H   0  0  0  0  0  0  0  0  0  0  0  0
   -2.8754    3.2521   -0.0007 C   0  0  0  0  0  0  0  0  0  0  0  0
   -3.9104    3.6219   -0.0008 H   0  0  0  0  0  0  0  0  0  0  0  0
   -2.6407    1.8739   -0.0007 C   0  0  0  0  0  0  0  0  0  0  0  0
   -3.4695    1.1507   -0.0009 H   0  0  0  0  0  0  0  0  0  0  0  0
    0.9331    1.5318    0.0000 C   0  0  0  0  0  0  0  0  0  0  0  0
    3.0677    1.1460    0.0001 C   0  0  0  0  0  0  0  0  0  0  0  0
    4.4582    1.2404    0.0000 C   0  0  0  0  0  0  0  0  0  0  0  0
    4.9766    2.2086   -0.0002 H   0  0  0  0  0  0  0  0  0  0  0  0
    5.1472    0.0157    0.0003 C   0  0  0  0  0  0  0  0  0  0  0  0
    6.2472    0.0244    0.0003 H   0  0  0  0  0  0  0  0  0  0  0  0
    4.4675   -1.2261    0.0007 C   0  0  0  0  0  0  0  0  0  0  0  0
    5.0563   -2.1551    0.0009 H   0  0  0  0  0  0  0  0  0  0  0  0
    3.0683   -1.3039    0.0007 C   0  0  0  0  0  0  0  0  0  0  0  0
    2.5311   -2.2621    0.0010 H   0  0  0  0  0  0  0  0  0  0  0  0
    2.3699   -0.0855    0.0004 C   0  0  0  0  0  0  0  0  0  0  0  0
   -1.3974    1.3410   -0.0005 N   0  0  0  0  0  2  0  0  0  0  0  0
    1.0079    0.2069    0.0003 N   0  0  0  0  0  2  0  0  0  0  0  0
    2.1393    2.1670   -0.0001 O   0  0  0  0  0  0  0  0  0  0  0  0
  1  2  1  0  0  0  0
  1 10  2  0  0  0  0
  2  3  1  0  0  0  0
  4  5  1  0  0  0  0
  4  2  2  0  0  0  0
  6  4  1  0  0  0  0
  7  6  1  0  0  0  0
  8  6  2  0  0  0  0
  8 21  1  0  0  0  0
  9  8  1  0  0  0  0
 10 22  1  0  0  0  0
 11 20  1  0  0  0  0
 12 11  2  0  0  0  0
 12 14  1  0  0  0  0
 13 12  1  0  0  0  0
 14 16  2  0  0  0  0
 15 14  1  0  0  0  0
 16 18  1  0  0  0  0
 16 17  1  0  0  0  0
 18 19  1  0  0  0  0
 20 18  2  0  0  0  0
 21  1  1  0  0  0  0
 22 20  1  0  0  0  0
 23 10  1  0  0  0  0
 23 11  1  0  0  0  0
M  END
