1,3
q = 0.0, confidence = 1.0

 28 30  0  0  0  0  0  0  0  0999 V2000
    1.1461   -1.3581   -0.7581 N   0  0  0  0  0  2  0  0  0  0  0  0
    3.6399    0.9902    0.6423 N   0  0  0  0  0  0  0  0  0  0  0  0
    1.4218    0.9329    0.5806 N   0  0  0  0  0  2  0  0  0  0  0  0
    5.0293    0.6582    0.4627 C   0  0  0  0  0  0  0  0  0  0  0  0
    1.7924    2.0671    1.2521 C   0  0  0  0  0  0  0  0  0  0  0  0
    1.0522    2.7680    1.6527 H   0  0  0  0  0  0  0  0  0  0  0  0
    2.5420    0.2813    0.2105 C   0  0  0  0  0  0  0  0  0  0  0  0
    3.1776    2.1165    1.2990 C   0  0  0  0  0  0  0  0  0  0  0  0
    3.8721    2.8422    1.7332 H   0  0  0  0  0  0  0  0  0  0  0  0
    3.5229   -1.7579   -0.9809 C   0  0  0  0  0  0  0  0  0  0  0  0
    4.5548   -1.4392   -0.7901 H   0  0  0  0  0  0  0  0  0  0  0  0
    2.4434   -0.9757   -0.5258 C   0  0  0  0  0  0  0  0  0  0  0  0
    5.7089    1.1359   -0.6697 C   0  0  0  0  0  0  0  0  0  0  0  0
    5.1779    1.7611   -1.4022 H   0  0  0  0  0  0  0  0  0  0  0  0
    7.7157   -0.0036    0.1009 C   0  0  0  0  0  0  0  0  0  0  0  0
    8.7747   -0.2648   -0.0418 H   0  0  0  0  0  0  0  0  0  0  0  0
    1.9287   -3.3245   -1.9067 C   0  0  0  0  0  0  0  0  0  0  0  0
    1.6802   -4.2477   -2.4484 H   0  0  0  0  0  0  0  0  0  0  0  0
    5.6773   -0.1366    1.4224 C   0  0  0  0  0  0  0  0  0  0  0  0
    5.1223   -0.4925    2.3026 H   0  0  0  0  0  0  0  0  0  0  0  0
    3.2590   -2.9431   -1.6773 C   0  0  0  0  0  0  0  0  0  0  0  0
    4.0912   -3.5647   -2.0384 H   0  0  0  0  0  0  0  0  0  0  0  0
    0.9026   -2.5017   -1.4290 C   0  0  0  0  0  0  0  0  0  0  0  0
   -0.1603   -2.7459   -1.5818 H   0  0  0  0  0  0  0  0  0  0  0  0
    7.0273   -0.4676    1.2340 C   0  0  0  0  0  0  0  0  0  0  0  0
    7.5447   -1.0889    1.9796 H   0  0  0  0  0  0  0  0  0  0  0  0
    7.0590    0.7985   -0.8468 C   0  0  0  0  0  0  0  0  0  0  0  0
    7.6012    1.1680   -1.7295 H   0  0  0  0  0  0  0  0  0  0  0  0
  1 12  1  0  0  0  0
  2  8  1  0  0  0  0
  3  5  1  0  0  0  0
  4  2  1  0  0  0  0
  4 19  1  0  0  0  0
  5  8  2  0  0  0  0
  5  6  1  0  0  0  0
  7  3  1  0  0  0  0
  7  2  1  0  0  0  0
  8  9  1  0  0  0  0
 10 11  1  0  0  0  0
 10 12  1  0  0  0  0
 12  7  2  0  0  0  0
 13  4  2  0  0  0  0
 14 13  1  0  0  0  0
 15 25  1  0  0  0  0
 16 15  1  0  0  0  0
 17 21  1  0  0  0  0
 17 23  2  0  0  0  0
 18 17  1  0  0  0  0
 19 20  1  0  0  0  0
 21 10  2  0  0  0  0
 22 21  1  0  0  0  0
 23  1  1  0  0  0  0
 24 23  1  0  0  0  0
 25 19  2  0  0  0  0
 25 26  1  0  0  0  0
 27 13  1  0  0  0  0
 27 15  2  0  0  0  0
 28 27  1  0  0  0  0
M  END
