1,12
q = 0.0, confidence = 0.984

 51 52  0  0  1  0  0  0  0  0999 V2000
    2.8659    0.4527   -0.3181 N   0  0  0  0  0  2  0  0  0  0  0  0
    4.2299    0.4857   -0.2745 C   0  0  2  0  0  3  0  0  0  0  0  0
    4.9158    1.5332   -0.9007 C   0  0  0  0  0  0  0  0  0  0  0  0
    6.0140    1.5423   -0.8552 H   0  0  0  0  0  0  0  0  0  0  0  0
    4.2126    2.5517   -1.5789 C   0  0  0  0  0  0  0  0  0  0  0  0
    4.7594    3.3693   -2.0702 H   0  0  0  0  0  0  0  0  0  0  0  0
    2.8201    2.5071   -1.6173 C   0  0  0  0  0  0  0  0  0  0  0  0
    2.2293    3.2783   -2.1320 H   0  0  0  0  0  0  0  0  0  0  0  0
    2.1529    1.4447   -0.9754 C   0  0  0  0  0  0  0  0  0  0  0  0
    0.7477    1.2169   -0.8743 C   0  0  0  0  0  3  0  0  0  0  0  0
   -0.0218    1.8669   -1.3168 H   0  0  0  0  0  0  0  0  0  0  0  0
    0.4331    0.1242   -0.1799 N   0  0  0  0  0  2  0  0  0  0  0  0
    4.9070   -0.6333    0.4551 C   0  0  0  0  0  0  0  0  0  0  0  0
    4.5441   -0.6782    1.5037 H   0  0  0  0  0  0  0  0  0  0  0  0
    6.0052   -0.5095    0.4534 H   0  0  0  0  0  0  0  0  0  0  0  0
    4.6468   -1.6036   -0.0187 H   0  0  0  0  0  0  0  0  0  0  0  0
   -0.9649   -0.2131    0.1233 C   0  0  0  0  0  0  0  0  0  0  0  0
   -1.5751    0.2219   -0.6995 H   0  0  0  0  0  0  0  0  0  0  0  0
   -1.3870    0.4335    1.4600 C   0  0  0  0  0  0  0  0  0  0  0  0
   -0.6025    0.1971    2.2086 H   0  0  0  0  0  0  0  0  0  0  0  0
   -2.3081   -0.0811    1.8030 H   0  0  0  0  0  0  0  0  0  0  0  0
   -1.6314    1.9481    1.4105 C   0  0  0  0  0  0  0  0  0  0  0  0
   -1.8043    2.3071    2.4483 H   0  0  0  0  0  0  0  0  0  0  0  0
   -0.7019    2.4582    1.0775 H   0  0  0  0  0  0  0  0  0  0  0  0
   -2.8100    2.3807    0.5227 C   0  0  0  0  0  0  0  0  0  0  0  0
   -2.7891    3.4836    0.3881 H   0  0  0  0  0  0  0  0  0  0  0  0
   -2.6676    1.9651   -0.4999 H   0  0  0  0  0  0  0  0  0  0  0  0
   -4.1914    1.9646    1.0556 C   0  0  0  0  0  0  0  0  0  0  0  0
   -4.4878    2.6599    1.8698 H   0  0  0  0  0  0  0  0  0  0  0  0
   -4.1189    0.9674    1.5410 H   0  0  0  0  0  0  0  0  0  0  0  0
   -5.2974    1.9142   -0.0123 C   0  0  0  0  0  0  0  0  0  0  0  0
   -6.2876    1.8381    0.4881 H   0  0  0  0  0  0  0  0  0  0  0  0
   -5.3115    2.8782   -0.5668 H   0  0  0  0  0  0  0  0  0  0  0  0
   -5.1502    0.7532   -1.0109 C   0  0  0  0  0  0  0  0  0  0  0  0
   -4.1276    0.7840   -1.4465 H   0  0  0  0  0  0  0  0  0  0  0  0
   -5.8345    0.9111   -1.8721 H   0  0  0  0  0  0  0  0  0  0  0  0
   -5.4141   -0.6351   -0.4066 C   0  0  0  0  0  0  0  0  0  0  0  0
   -4.9888   -0.6802    0.6195 H   0  0  0  0  0  0  0  0  0  0  0  0
   -6.5088   -0.7678   -0.2693 H   0  0  0  0  0  0  0  0  0  0  0  0
   -4.8561   -1.8102   -1.2277 C   0  0  0  0  0  0  0  0  0  0  0  0
   -5.2625   -1.7579   -2.2616 H   0  0  0  0  0  0  0  0  0  0  0  0
   -5.2360   -2.7641   -0.8006 H   0  0  0  0  0  0  0  0  0  0  0  0
   -3.3207   -1.8671   -1.2955 C   0  0  0  0  0  0  0  0  0  0  0  0
   -2.9463   -0.9033   -1.7047 H   0  0  0  0  0  0  0  0  0  0  0  0
   -3.0080   -2.6315   -2.0381 H   0  0  0  0  0  0  0  0  0  0  0  0
   -2.6346   -2.1637    0.0489 C   0  0  0  0  0  0  0  0  0  0  0  0
   -3.1895   -1.6676    0.8736 H   0  0  0  0  0  0  0  0  0  0  0  0
   -2.7069   -3.2503    0.2646 H   0  0  0  0  0  0  0  0  0  0  0  0
   -1.1597   -1.7408    0.1062 C   0  0  0  0  0  0  0  0  0  0  0  0
   -0.6769   -2.1672    1.0137 H   0  0  0  0  0  0  0  0  0  0  0  0
   -0.6130   -2.1591   -0.7637 H   0  0  0  0  0  0  0  0  0  0  0  0
  1  2  1  0  0  0  0
  2 13  1  6  0  0  0
  3  4  1  0  0  0  0
  3  2  1  0  0  0  0
  5  3  2  0  0  0  0
  6  5  1  0  0  0  0
  7  5  1  0  0  0  0
  7  9  2  0  0  0  0
  8  7  1  0  0  0  0
  9 10  1  0  0  0  0
  9  1  1  0  0  0  0
 10 12  1  0  0  0  0
 11 10  1  0  0  0  0
 12 17  1  0  0  0  0
 13 14  1  0  0  0  0
 15 13  1  0  0  0  0
 16 13  1  0  0  0  0
 17 19  1  0  0  0  0
 18 17  1  0  0  0  0
 19 21  1  0  0  0  0
 19 20  1  0  0  0  0
 22 19  1  0  0  0  0
 22 23  1  0  0  0  0
 24 22  1  0  0  0  0
 25 28  1  0  0  0  0
 25 22  1  0  0  0  0
 26 25  1  0  0  0  0
 27 25  1  0  0  0  0
 28 30  1  0  0  0  0
 28 29  1  0  0  0  0
 31 32  1  0  0  0  0
 31 28  1  0  0  0  0
 33 31  1  0  0  0  0
 34 37  1  0  0  0  0
 34 31  1  0  0  0  0
 35 34  1  0  0  0  0
 36 34  1  0  0  0  0
 37 39  1  0  0  0  0
 37 38  1  0  0  0  0
 40 42  1  0  0  0  0
 40 37  1  0  0  0  0
 41 40  1  0  0  0  0
 43 40  1  0  0  0  0
 43 46  1  0  0  0  0
 44 43  1  0  0  0  0
 45 43  1  0  0  0  0
 46 49  1  0  0  0  0
 46 48  1  0  0  0  0
 46 47  1  0  0  0  0
 49 17  1  0  0  0  0
 49 50  1  0  0  0  0
 51 49  1  0  0  0  0
M  END
