1,4
q = -1.0, confidence = 0.016

 42 45  0  0  1  0  0  0  0  0999 V2000
    1.4193   -1.7126    0.7337 N   0  0  0  0  0  2  0  0  0  0  0  0
   -1.1340   -0.9342   -2.1158 O   0  0  0  0  0  0  0  0  0  0  0  0
    2.1057    3.2503   -0.0873 O   0  0  0  0  0  0  0  0  0  0  0  0
    0.5762    0.3510   -0.6733 N   0  0  0  0  0  2  0  0  0  0  0  0
   -0.2473   -0.5241   -1.7190 H   0  0  0  0  0  0  0  0  0  0  0  0
   -4.2089    0.3605    0.4639 C   0  0  0  0  0  0  0  0  0  0  0  0
    1.1178   -3.7661    1.9553 C   0  0  0  0  0  0  0  0  0  0  0  0
    1.5436   -4.7205    2.2941 H   0  0  0  0  0  0  0  0  0  0  0  0
   -3.7408   -1.2511   -2.7917 O   0  0  0  0  0  0  0  0  0  0  0  0
   -0.6884   -2.1734    1.7981 C   0  0  0  0  0  0  0  0  0  0  0  0
   -1.7126   -1.8416    2.0141 H   0  0  0  0  0  0  0  0  0  0  0  0
   -0.1953   -3.3865    2.2832 C   0  0  0  0  0  0  0  0  0  0  0  0
   -0.8287   -4.0386    2.9019 H   0  0  0  0  0  0  0  0  0  0  0  0
    0.1346   -1.3485    1.0153 C   0  0  1  0  0  3  0  0  0  0  0  0
   -2.7824    0.4766    0.8976 C   0  0  0  0  0  0  0  0  0  0  0  0
    2.3159    4.0911    0.9799 C   0  0  0  0  0  0  0  0  0  0  0  0
    3.2998    4.5676    1.0297 H   0  0  0  0  0  0  0  0  0  0  0  0
   -6.9066    0.1356   -0.3065 C   0  0  0  0  0  0  0  0  0  0  0  0
   -7.9622    0.0506   -0.6049 H   0  0  0  0  0  0  0  0  0  0  0  0
    0.3736    1.7779   -1.0199 C   0  0  0  0  0  0  0  0  0  0  0  0
    0.8560    1.9863   -1.9965 H   0  0  0  0  0  0  0  0  0  0  0  0
   -0.7148    1.9198   -1.1924 H   0  0  0  0  0  0  0  0  0  0  0  0
   -2.4696    1.0049    1.9789 O   0  0  0  0  0  0  0  0  0  0  0  0
    1.1828    4.1621    1.7479 C   0  0  0  0  0  0  0  0  0  0  0  0
    1.0504    4.7625    2.6545 H   0  0  0  0  0  0  0  0  0  0  0  0
   -1.7602   -0.0646    0.0022 C   0  0  0  0  0  0  0  0  0  0  0  0
    0.8079    2.7752    0.0026 C   0  0  0  0  0  0  0  0  0  0  0  0
    1.8904   -2.9071    1.1793 C   0  0  0  0  0  0  0  0  0  0  0  0
    2.9143   -3.1796    0.8916 H   0  0  0  0  0  0  0  0  0  0  0  0
   -0.3128   -0.0263    0.4570 C   0  0  2  0  0  0  0  0  0  0  0  0
   -0.2564    0.7046    1.3033 H   0  0  0  0  0  0  0  0  0  0  0  0
   -5.2249    0.8370    1.3090 C   0  0  0  0  0  0  0  0  0  0  0  0
   -4.9316    1.2917    2.2667 H   0  0  0  0  0  0  0  0  0  0  0  0
   -4.5486   -0.2325   -0.7791 C   0  0  0  0  0  0  0  0  0  0  0  0
   -5.8994   -0.3417   -1.1561 C   0  0  0  0  0  0  0  0  0  0  0  0
   -6.1314   -0.8037   -2.1272 H   0  0  0  0  0  0  0  0  0  0  0  0
    0.2083    3.3135    1.1190 C   0  0  0  0  0  0  0  0  0  0  0  0
   -0.8169    3.1156    1.4555 H   0  0  0  0  0  0  0  0  0  0  0  0
   -3.4972   -0.7337   -1.7091 C   0  0  0  0  0  0  0  0  0  0  0  0
   -2.0617   -0.5755   -1.2506 C   0  0  0  0  0  0  0  0  0  0  0  0
   -6.5693    0.7250    0.9251 C   0  0  0  0  0  0  0  0  0  0  0  0
   -7.3620    1.0996    1.5900 H   0  0  0  0  0  0  0  0  0  0  0  0
  1 14  1  0  0  0  0
  1 28  1  0  0  0  0
  2  5  1  0  0  0  0
  2 40  1  0  0  0  0
  3 27  1  0  0  0  0
  3 16  1  0  0  0  0
  4 30  1  0  0  0  0
  6 15  1  0  0  0  0
  6 32  1  0  0  0  0
  7 12  1  0  0  0  0
  7  8  1  0  0  0  0
  9 39  2  0  0  0  0
 10 11  1  0  0  0  0
 10 12  2  0  0  0  0
 12 13  1  0  0  0  0
 14 30  1  1  0  0  0
 14 10  1  0  0  0  0
 15 23  2  0  0  0  0
 16 17  1  0  0  0  0
 16 24  2  0  0  0  0
 18 41  1  0  0  0  0
 19 18  1  0  0  0  0
 20  4  1  0  0  0  0
 20 27  1  0  0  0  0
 21 20  1  0  0  0  0
 22 20  1  0  0  0  0
 24 25  1  0  0  0  0
 26 30  1  0  0  0  0
 26 15  1  0  0  0  0
 27 37  2  0  0  0  0
 28  7  2  0  0  0  0
 29 28  1  0  0  0  0
 30 31  1  1  0  0  0
 32 33  1  0  0  0  0
 34  6  2  0  0  0  0
 35 34  1  0  0  0  0
 35 18  2  0  0  0  0
 36 35  1  0  0  0  0
 37 38  1  0  0  0  0
 37 24  1  0  0  0  0
 39 40  1  0  0  0  0
 39 34  1  0  0  0  0
 40 26  2  0  0  0  0
 41 32  2  0  0  0  0
 41 42  1  0  0  0  0
M  END
