1,3
q = 0.0, confidence = 0.996

 26 27  0  0  1  0  0  0  0  0999 V2000
    0.1947    1.6060   -0.0567 N   0  0  0  0  0  2  0  0  0  0  0  0
    4.2634    0.3636   -0.7735 N   0  0  0  0  0  0  0  0  0  0  0  0
    0.9581   -0.8032   -0.3105 N   0  0  0  0  0  2  0  0  0  0  0  0
   -0.3003    2.8605   -0.1375 C   0  0  0  0  0  3  0  0  0  0  0  0
   -1.3817    2.9429   -0.2991 H   0  0  0  0  0  0  0  0  0  0  0  0
    0.5155    3.9899   -0.0353 C   0  0  0  0  0  0  0  0  0  0  0  0
    0.0618    4.9887   -0.0996 H   0  0  0  0  0  0  0  0  0  0  0  0
    1.8986    3.8210    0.1379 C   0  0  0  0  0  0  0  0  0  0  0  0
    2.5643    4.6912    0.2296 H   0  0  0  0  0  0  0  0  0  0  0  0
    2.4230    2.5258    0.1555 C   0  0  0  0  0  0  0  0  0  0  0  0
    3.5024    2.3411    0.2086 H   0  0  0  0  0  0  0  0  0  0  0  0
    1.5532    1.4266    0.0324 C   0  0  0  0  0  0  0  0  0  0  0  0
    1.9611    0.0309   -0.1104 C   0  0  2  0  0  3  0  0  0  0  0  0
    3.3914   -0.3850   -0.0677 C   0  0  0  0  0  0  0  0  0  0  0  0
    3.7921   -1.4943    0.7088 C   0  0  0  0  0  0  0  0  0  0  0  0
    3.0583   -2.0555    1.3056 H   0  0  0  0  0  0  0  0  0  0  0  0
    5.1474   -1.8498    0.7192 C   0  0  0  0  0  0  0  0  0  0  0  0
    5.4943   -2.7056    1.3172 H   0  0  0  0  0  0  0  0  0  0  0  0
    6.0492   -1.0928   -0.0409 C   0  0  0  0  0  0  0  0  0  0  0  0
    7.1206   -1.3397   -0.0676 H   0  0  0  0  0  0  0  0  0  0  0  0
    5.5556    0.0087   -0.7622 C   0  0  0  0  0  0  0  0  0  0  0  0
    6.2392    0.6380   -1.3581 H   0  0  0  0  0  0  0  0  0  0  0  0
    1.1589   -2.1503   -0.8202 C   0  0  0  0  0  0  0  0  0  0  0  0
    2.2022   -2.3282   -1.1410 H   0  0  0  0  0  0  0  0  0  0  0  0
    0.4826   -2.2663   -1.6914 H   0  0  0  0  0  0  0  0  0  0  0  0
    0.8803   -2.9057   -0.0608 H   0  0  0  0  0  0  0  0  0  0  0  0
  1 12  1  0  0  0  0
  2 21  2  0  0  0  0
  2 14  1  0  0  0  0
  4  1  1  0  0  0  0
  4  6  1  0  0  0  0
  5  4  1  0  0  0  0
  6  8  2  0  0  0  0
  7  6  1  0  0  0  0
  8 10  1  0  0  0  0
  8  9  1  0  0  0  0
 10 11  1  0  0  0  0
 12 10  2  0  0  0  0
 13  3  1  6  0  0  0
 13 14  1  0  0  0  0
 13 12  1  0  0  0  0
 14 15  2  0  0  0  0
 15 17  1  0  0  0  0
 15 16  1  0  0  0  0
 17 18  1  0  0  0  0
 19 17  2  0  0  0  0
 20 19  1  0  0  0  0
 21 19  1  0  0  0  0
 22 21  1  0  0  0  0
 23  3  1  0  0  0  0
 23 26  1  0  0  0  0
 24 23  1  0  0  0  0
 25 23  1  0  0  0  0
M  END
