2,3
q = 0.0, confidence = 0.992

 45 48  0  0  1  0  0  0  0  0999 V2000
    0.8349   -0.5777    0.0047 P   0  0  0  0  0  4  0  0  0  0  0  0
   -1.4522   -1.1223    1.2897 N   0  0  0  0  0  2  0  0  0  0  0  0
    0.1514    0.9102    0.1195 N   0  0  0  0  0  2  0  0  0  0  0  0
    0.8923    2.1127   -0.0023 C   0  0  0  0  0  0  0  0  0  0  0  0
    0.5380    3.2148    0.8076 C   0  0  0  0  0  0  0  0  0  0  0  0
   -0.3130    3.1095    1.4970 H   0  0  0  0  0  0  0  0  0  0  0  0
    1.2569    4.4131    0.7264 C   0  0  0  0  0  0  0  0  0  0  0  0
    0.9659    5.2626    1.3625 H   0  0  0  0  0  0  0  0  0  0  0  0
    2.3486    4.5326   -0.1511 C   0  0  0  0  0  0  0  0  0  0  0  0
    2.9140    5.4741   -0.2082 H   0  0  0  0  0  0  0  0  0  0  0  0
    2.7049    3.4434   -0.9597 C   0  0  0  0  0  0  0  0  0  0  0  0
    3.5505    3.5266   -1.6589 H   0  0  0  0  0  0  0  0  0  0  0  0
    1.9760    2.2463   -0.8986 C   0  0  0  0  0  0  0  0  0  0  0  0
    2.2481    1.4085   -1.5590 H   0  0  0  0  0  0  0  0  0  0  0  0
    2.5465   -0.6373    0.5835 C   0  0  0  0  0  0  0  0  0  0  0  0
    2.8137   -0.0991    1.8623 C   0  0  0  0  0  0  0  0  0  0  0  0
    1.9956    0.3168    2.4704 H   0  0  0  0  0  0  0  0  0  0  0  0
    4.1292   -0.0783    2.3405 C   0  0  0  0  0  0  0  0  0  0  0  0
    4.3431    0.3446    3.3330 H   0  0  0  0  0  0  0  0  0  0  0  0
    5.1738   -0.5882    1.5499 C   0  0  0  0  0  0  0  0  0  0  0  0
    6.2066   -0.5677    1.9288 H   0  0  0  0  0  0  0  0  0  0  0  0
    4.9072   -1.1163    0.2767 C   0  0  0  0  0  0  0  0  0  0  0  0
    5.7281   -1.5067   -0.3427 H   0  0  0  0  0  0  0  0  0  0  0  0
    3.5938   -1.1395   -0.2149 C   0  0  0  0  0  0  0  0  0  0  0  0
    3.3862   -1.5376   -1.2190 H   0  0  0  0  0  0  0  0  0  0  0  0
    0.7029   -1.3647   -1.6283 C   0  0  0  0  0  0  0  0  0  0  0  0
    0.2713   -0.5734   -2.7116 C   0  0  0  0  0  0  0  0  0  0  0  0
    0.0147    0.4841   -2.5469 H   0  0  0  0  0  0  0  0  0  0  0  0
    0.1598   -1.1490   -3.9860 C   0  0  0  0  0  0  0  0  0  0  0  0
   -0.1738   -0.5337   -4.8346 H   0  0  0  0  0  0  0  0  0  0  0  0
    0.4684   -2.5053   -4.1756 C   0  0  0  0  0  0  0  0  0  0  0  0
    0.3778   -2.9538   -5.1762 H   0  0  0  0  0  0  0  0  0  0  0  0
    0.8873   -3.2962   -3.0915 C   0  0  0  0  0  0  0  0  0  0  0  0
    1.1218   -4.3603   -3.2425 H   0  0  0  0  0  0  0  0  0  0  0  0
    1.0040   -2.7309   -1.8144 C   0  0  0  0  0  0  0  0  0  0  0  0
    1.3267   -3.3569   -0.9679 H   0  0  0  0  0  0  0  0  0  0  0  0
   -0.1862   -1.5826    1.1595 C   0  0  2  0  0  3  0  0  0  0  0  0
    0.2900   -2.6996    1.8576 C   0  0  0  0  0  0  0  0  0  0  0  0
    1.3335   -3.0265    1.7376 H   0  0  0  0  0  0  0  0  0  0  0  0
   -0.5907   -3.3694    2.7224 C   0  0  0  0  0  0  0  0  0  0  0  0
   -0.2522   -4.2481    3.2913 H   0  0  0  0  0  0  0  0  0  0  0  0
   -1.9032   -2.8952    2.8526 C   0  0  0  0  0  0  0  0  0  0  0  0
   -2.6225   -3.3867    3.5230 H   0  0  0  0  0  0  0  0  0  0  0  0
   -2.2945   -1.7661    2.1182 C   0  0  0  0  0  0  0  0  0  0  0  0
   -3.3122   -1.3530    2.1934 H   0  0  0  0  0  0  0  0  0  0  0  0
  1  3  1  0  0  0  0
  1 15  1  0  0  0  0
  2 44  1  0  0  0  0
  4  3  1  0  0  0  0
  4  5  1  0  0  0  0
  5  6  1  0  0  0  0
  7  5  2  0  0  0  0
  7  8  1  0  0  0  0
  9  7  1  0  0  0  0
 10  9  1  0  0  0  0
 11 13  1  0  0  0  0
 11  9  2  0  0  0  0
 12 11  1  0  0  0  0
 13  4  2  0  0  0  0
 14 13  1  0  0  0  0
 15 16  1  0  0  0  0
 16 18  2  0  0  0  0
 16 17  1  0  0  0  0
 18 19  1  0  0  0  0
 20 21  1  0  0  0  0
 20 18  1  0  0  0  0
 22 20  2  0  0  0  0
 23 22  1  0  0  0  0
 24 22  1  0  0  0  0
 24 15  2  0  0  0  0
 25 24  1  0  0  0  0
 26  1  1  0  0  0  0
 27 28  1  0  0  0  0
 27 26  2  0  0  0  0
 29 27  1  0  0  0  0
 30 29  1  0  0  0  0
 31 29  2  0  0  0  0
 31 33  1  0  0  0  0
 32 31  1  0  0  0  0
 33 35  2  0  0  0  0
 34 33  1  0  0  0  0
 35 26  1  0  0  0  0
 35 36  1  0  0  0  0
 37  1  1  1  0  0  0
 37  2  1  0  0  0  0
 37 38  1  0  0  0  0
 38 40  2  0  0  0  0
 39 38  1  0  0  0  0
 40 42  1  0  0  0  0
 40 41  1  0  0  0  0
 42 43  1  0  0  0  0
 44 45  1  0  0  0  0
 44 42  2  0  0  0  0
M  END
