2,3
q = 0.0, confidence = 0.994

 51 54  0  0  1  0  0  0  0  0999 V2000
   -0.5447   -0.8323    0.0948 P   0  0  0  0  0  4  0  0  0  0  0  0
    1.5947   -0.4093    1.5841 N   0  0  0  0  0  2  0  0  0  0  0  0
   -0.2544    0.7280   -0.2214 N   0  0  0  0  0  2  0  0  0  0  0  0
   -1.1839    1.7893   -0.3112 C   0  0  0  0  0  0  0  0  0  0  0  0
   -1.3013    2.6971    0.7773 C   0  0  0  0  0  0  0  0  0  0  0  0
   -2.2402    3.7404    0.6867 C   0  0  0  0  0  0  0  0  0  0  0  0
   -2.3345    4.4469    1.5264 H   0  0  0  0  0  0  0  0  0  0  0  0
   -3.0477    3.8880   -0.4490 C   0  0  0  0  0  0  0  0  0  0  0  0
   -3.7797    4.7081   -0.5028 H   0  0  0  0  0  0  0  0  0  0  0  0
   -2.9085    2.9990   -1.5233 C   0  0  0  0  0  0  0  0  0  0  0  0
   -3.5247    3.1265   -2.4271 H   0  0  0  0  0  0  0  0  0  0  0  0
   -1.9729    1.9497   -1.4817 C   0  0  0  0  0  0  0  0  0  0  0  0
    0.0769   -1.9985   -1.1552 C   0  0  0  0  0  0  0  0  0  0  0  0
   -0.0748   -3.3871   -0.9541 C   0  0  0  0  0  0  0  0  0  0  0  0
   -0.5934   -3.7705   -0.0610 H   0  0  0  0  0  0  0  0  0  0  0  0
    0.4430   -4.2846   -1.8980 C   0  0  0  0  0  0  0  0  0  0  0  0
    0.3245   -5.3680   -1.7466 H   0  0  0  0  0  0  0  0  0  0  0  0
    1.1197   -3.7978   -3.0296 C   0  0  0  0  0  0  0  0  0  0  0  0
    1.5332   -4.5044   -3.7652 H   0  0  0  0  0  0  0  0  0  0  0  0
    1.2810   -2.4161   -3.2175 C   0  0  0  0  0  0  0  0  0  0  0  0
    1.8270   -2.0345   -4.0929 H   0  0  0  0  0  0  0  0  0  0  0  0
    0.7627   -1.5064   -2.2835 C   0  0  0  0  0  0  0  0  0  0  0  0
    0.9228   -0.4223   -2.4081 H   0  0  0  0  0  0  0  0  0  0  0  0
   -2.2839   -1.1932    0.4598 C   0  0  0  0  0  0  0  0  0  0  0  0
   -3.0806   -1.9725   -0.4037 C   0  0  0  0  0  0  0  0  0  0  0  0
   -2.6292   -2.4597   -1.2806 H   0  0  0  0  0  0  0  0  0  0  0  0
   -4.4509   -2.1174   -0.1436 C   0  0  0  0  0  0  0  0  0  0  0  0
   -5.0720   -2.7268   -0.8168 H   0  0  0  0  0  0  0  0  0  0  0  0
   -5.0289   -1.4807    0.9662 C   0  0  0  0  0  0  0  0  0  0  0  0
   -6.1057   -1.5929    1.1638 H   0  0  0  0  0  0  0  0  0  0  0  0
   -4.2392   -0.6929    1.8200 C   0  0  0  0  0  0  0  0  0  0  0  0
   -4.6948   -0.1827    2.6816 H   0  0  0  0  0  0  0  0  0  0  0  0
   -2.8693   -0.5433    1.5688 C   0  0  0  0  0  0  0  0  0  0  0  0
   -2.2542    0.0886    2.2272 H   0  0  0  0  0  0  0  0  0  0  0  0
    0.4609   -1.1649    1.6004 C   0  0  1  0  0  3  0  0  0  0  0  0
    0.1530   -2.0286    2.6562 C   0  0  0  0  0  0  0  0  0  0  0  0
   -0.7757   -2.6175    2.6312 H   0  0  0  0  0  0  0  0  0  0  0  0
    1.0493   -2.1141    3.7344 C   0  0  0  0  0  0  0  0  0  0  0  0
    0.8363   -2.7786    4.5850 H   0  0  0  0  0  0  0  0  0  0  0  0
    2.2222   -1.3451    3.7012 C   0  0  0  0  0  0  0  0  0  0  0  0
    2.9546   -1.3891    4.5200 H   0  0  0  0  0  0  0  0  0  0  0  0
    2.4696   -0.5046    2.6079 C   0  0  0  0  0  0  0  0  0  0  0  0
    3.3841    0.1012    2.4863 H   0  0  0  0  0  0  0  0  0  0  0  0
   -0.4208    2.5521    1.9879 C   0  0  0  0  0  0  0  0  0  0  0  0
   -0.6629    3.3117    2.7552 H   0  0  0  0  0  0  0  0  0  0  0  0
    0.6514    2.6570    1.7103 H   0  0  0  0  0  0  0  0  0  0  0  0
   -0.5101    1.5466    2.4529 H   0  0  0  0  0  0  0  0  0  0  0  0
   -1.7658    1.0455   -2.6655 C   0  0  0  0  0  0  0  0  0  0  0  0
   -1.9614   -0.0216   -2.4289 H   0  0  0  0  0  0  0  0  0  0  0  0
   -0.7099    1.1180   -2.9995 H   0  0  0  0  0  0  0  0  0  0  0  0
   -2.4284    1.3295   -3.5051 H   0  0  0  0  0  0  0  0  0  0  0  0
  1 24  1  0  0  0  0
  2 35  1  0  0  0  0
  2 42  1  0  0  0  0
  3  1  1  0  0  0  0
  4  3  1  0  0  0  0
  4  5  1  0  0  0  0
  5 44  1  0  0  0  0
  6  5  2  0  0  0  0
  6  7  1  0  0  0  0
  8  6  1  0  0  0  0
  9  8  1  0  0  0  0
 10 12  1  0  0  0  0
 10  8  2  0  0  0  0
 11 10  1  0  0  0  0
 12  4  2  0  0  0  0
 13 14  1  0  0  0  0
 13  1  1  0  0  0  0
 14 15  1  0  0  0  0
 16 17  1  0  0  0  0
 16 14  2  0  0  0  0
 18 16  1  0  0  0  0
 19 18  1  0  0  0  0
 20 18  2  0  0  0  0
 20 22  1  0  0  0  0
 21 20  1  0  0  0  0
 22 13  2  0  0  0  0
 23 22  1  0  0  0  0
 24 33  1  0  0  0  0
 25 27  1  0  0  0  0
 25 24  2  0  0  0  0
 26 25  1  0  0  0  0
 27 29  2  0  0  0  0
 28 27  1  0  0  0  0
 29 30  1  0  0  0  0
 29 31  1  0  0  0  0
 31 32  1  0  0  0  0
 33 31  2  0  0  0  0
 33 34  1  0  0  0  0
 35  1  1  1  0  0  0
 35 36  1  0  0  0  0
 36 38  2  0  0  0  0
 37 36  1  0  0  0  0
 38 39  1  0  0  0  0
 40 38  1  0  0  0  0
 40 41  1  0  0  0  0
 42 40  2  0  0  0  0
 43 42  1  0  0  0  0
 44 47  1  0  0  0  0
 44 45  1  0  0  0  0
 46 44  1  0  0  0  0
 48 49  1  0  0  0  0
 48 12  1  0  0  0  0
 50 48  1  0  0  0  0
 51 48  1  0  0  0  0
M  END
