58,59
q = 0.0, confidence = 0.98

 61 67  0  0  0  0  0  0  0  0999 V2000
    2.3203   -0.3270   -0.0671 C   0  0  0  0  0  0  0  0  0  0  0  0
    2.2365   -1.4143    0.0630 H   0  0  0  0  0  0  0  0  0  0  0  0
    1.1537    0.4915   -0.1317 C   0  0  0  0  0  0  0  0  0  0  0  0
    1.3498    1.8752   -0.2989 C   0  0  0  0  0  0  0  0  0  0  0  0
    0.4873    2.5573   -0.3537 H   0  0  0  0  0  0  0  0  0  0  0  0
    2.6537    2.4072   -0.3889 C   0  0  0  0  0  0  0  0  0  0  0  0
    2.9366    3.8100   -0.5547 C   0  0  0  0  0  0  0  0  0  0  0  0
    2.0901    4.5104   -0.6164 H   0  0  0  0  0  0  0  0  0  0  0  0
    4.2293    4.2709   -0.6333 C   0  0  0  0  0  0  0  0  0  0  0  0
    4.4307    5.3455   -0.7592 H   0  0  0  0  0  0  0  0  0  0  0  0
    5.3499    3.3712   -0.5531 C   0  0  0  0  0  0  0  0  0  0  0  0
    6.7027    3.7837   -0.6275 C   0  0  0  0  0  0  0  0  0  0  0  0
    6.9411    4.8509   -0.7523 H   0  0  0  0  0  0  0  0  0  0  0  0
    7.7124    2.8281   -0.5374 C   0  0  0  0  0  0  0  0  0  0  0  0
    8.7728    3.1121   -0.5861 H   0  0  0  0  0  0  0  0  0  0  0  0
    7.3721    1.4703   -0.3744 C   0  0  0  0  0  0  0  0  0  0  0  0
    8.1461    0.6934   -0.2914 H   0  0  0  0  0  0  0  0  0  0  0  0
    5.0969    1.9767   -0.3854 C   0  0  0  0  0  0  0  0  0  0  0  0
    3.7489    1.5000   -0.3045 C   0  0  0  0  0  0  0  0  0  0  0  0
   -0.1623   -0.1180   -0.0220 C   0  0  0  0  0  0  0  0  0  0  0  0
   -0.4949   -1.4558    0.2031 C   0  0  0  0  0  0  0  0  0  0  0  0
    0.2527   -2.2499    0.3311 H   0  0  0  0  0  0  0  0  0  0  0  0
   -1.8877   -1.6916    0.2525 C   0  0  0  0  0  0  0  0  0  0  0  0
   -2.3265   -2.6864    0.4030 H   0  0  0  0  0  0  0  0  0  0  0  0
   -2.6604   -0.5418    0.0651 C   0  0  0  0  0  0  0  0  0  0  0  0
   -4.1113   -0.4018    0.0493 C   0  0  0  0  0  0  0  0  0  0  0  0
   -4.9497   -1.4566    0.4925 C   0  0  0  0  0  0  0  0  0  0  0  0
   -4.5017   -2.3810    0.8848 H   0  0  0  0  0  0  0  0  0  0  0  0
   -6.3377   -1.3378    0.4830 C   0  0  0  0  0  0  0  0  0  0  0  0
   -6.9596   -2.1660    0.8503 H   0  0  0  0  0  0  0  0  0  0  0  0
   -6.9607   -0.1515    0.0224 C   0  0  0  0  0  0  0  0  0  0  0  0
   -6.1335    0.9080   -0.4242 C   0  0  0  0  0  0  0  0  0  0  0  0
   -6.5943    1.8322   -0.7997 H   0  0  0  0  0  0  0  0  0  0  0  0
   -4.7462    0.7810   -0.4061 C   0  0  0  0  0  0  0  0  0  0  0  0
   -4.1331    1.6143   -0.7841 H   0  0  0  0  0  0  0  0  0  0  0  0
   -8.9780    1.2313    0.2467 C   0  0  0  0  0  0  0  0  0  0  0  0
  -10.0785    1.6420   -0.5363 C   0  0  0  0  0  0  0  0  0  0  0  0
  -10.4463    0.9826   -1.3356 H   0  0  0  0  0  0  0  0  0  0  0  0
  -10.6929    2.8770   -0.2925 C   0  0  0  0  0  0  0  0  0  0  0  0
  -11.5493    3.1853   -0.9112 H   0  0  0  0  0  0  0  0  0  0  0  0
  -10.2143    3.7249    0.7200 C   0  0  0  0  0  0  0  0  0  0  0  0
  -10.6961    4.6964    0.9045 H   0  0  0  0  0  0  0  0  0  0  0  0
   -9.1164    3.3192    1.4967 C   0  0  0  0  0  0  0  0  0  0  0  0
   -8.7387    3.9693    2.3005 H   0  0  0  0  0  0  0  0  0  0  0  0
   -8.5051    2.0791    1.2720 C   0  0  0  0  0  0  0  0  0  0  0  0
   -7.6563    1.7550    1.8915 H   0  0  0  0  0  0  0  0  0  0  0  0
   -9.1838   -1.1634   -0.2359 C   0  0  0  0  0  0  0  0  0  0  0  0
  -10.3494   -1.3762    0.5315 C   0  0  0  0  0  0  0  0  0  0  0  0
  -10.6081   -0.6623    1.3267 H   0  0  0  0  0  0  0  0  0  0  0  0
  -11.1650   -2.4863    0.2779 C   0  0  0  0  0  0  0  0  0  0  0  0
  -12.0701   -2.6411    0.8847 H   0  0  0  0  0  0  0  0  0  0  0  0
  -10.8267   -3.4056   -0.7289 C   0  0  0  0  0  0  0  0  0  0  0  0
  -11.4666   -4.2794   -0.9207 H   0  0  0  0  0  0  0  0  0  0  0  0
   -9.6644   -3.1974   -1.4898 C   0  0  0  0  0  0  0  0  0  0  0  0
   -9.3936   -3.9046   -2.2885 H   0  0  0  0  0  0  0  0  0  0  0  0
   -8.8506   -2.0817   -1.2553 C   0  0  0  0  0  0  0  0  0  0  0  0
   -7.9496   -1.9105   -1.8621 H   0  0  0  0  0  0  0  0  0  0  0  0
    3.5607    0.1527   -0.1518 N   0  0  0  0  0  2  0  0  0  0  0  0
    6.1009    1.0499   -0.3029 N   0  0  0  0  0  2  0  0  0  0  0  0
   -8.3626   -0.0287    0.0105 N   0  0  0  0  0  0  0  0  0  0  0  0
   -1.6184    0.8463   -0.1644 S   0  0  0  0  0  0  0  0  0  0  0  0
  1  2  1  0  0  0  0
  3  1  2  0  0  0  0
  3 20  1  0  0  0  0
  4  3  1  0  0  0  0
  5  4  1  0  0  0  0
  6 19  1  0  0  0  0
  6  4  2  0  0  0  0
  7  6  1  0  0  0  0
  8  7  1  0  0  0  0
  9  7  2  0  0  0  0
  9 11  1  0  0  0  0
 10  9  1  0  0  0  0
 11 18  1  0  0  0  0
 12 11  2  0  0  0  0
 12 14  1  0  0  0  0
 13 12  1  0  0  0  0
 14 16  2  0  0  0  0
 15 14  1  0  0  0  0
 16 59  1  0  0  0  0
 16 17  1  0  0  0  0
 18 19  2  0  0  0  0
 18 59  1  0  0  0  0
 19 58  1  0  0  0  0
 20 21  2  0  0  0  0
 21 23  1  0  0  0  0
 21 22  1  0  0  0  0
 23 24  1  0  0  0  0
 25 23  2  0  0  0  0
 26 25  1  0  0  0  0
 26 27  1  0  0  0  0
 27 28  1  0  0  0  0
 29 27  2  0  0  0  0
 29 30  1  0  0  0  0
 31 29  1  0  0  0  0
 32 34  1  0  0  0  0
 32 31  2  0  0  0  0
 33 32  1  0  0  0  0
 34 26  2  0  0  0  0
 35 34  1  0  0  0  0
 36 45  1  0  0  0  0
 37 39  1  0  0  0  0
 37 36  2  0  0  0  0
 38 37  1  0  0  0  0
 39 41  2  0  0  0  0
 40 39  1  0  0  0  0
 41 42  1  0  0  0  0
 41 43  1  0  0  0  0
 43 44  1  0  0  0  0
 45 43  2  0  0  0  0
 45 46  1  0  0  0  0
 47 60  1  0  0  0  0
 47 48  1  0  0  0  0
 48 49  1  0  0  0  0
 50 48  2  0  0  0  0
 50 51  1  0  0  0  0
 52 50  1  0  0  0  0
 53 52  1  0  0  0  0
 54 56  1  0  0  0  0
 54 52  2  0  0  0  0
 55 54  1  0  0  0  0
 56 47  2  0  0  0  0
 57 56  1  0  0  0  0
 58  1  1  0  0  0  0
 60 31  1  0  0  0  0
 60 36  1  0  0  0  0
 61 20  1  0  0  0  0
 61 25  1  0  0  0  0
M  END
