1,2
q = 0.0, confidence = 0.994

 33 32  0  0  0  0  0  0  0  0999 V2000
    1.4013    0.9788   -0.1878 N   0  0  0  0  0  0  0  0  0  0  0  0
   -0.9887    1.4160   -0.1062 N   0  0  0  0  0  0  0  0  0  0  0  0
    2.1160    1.3319    1.0729 C   0  0  0  0  0  0  0  0  0  0  0  0
    1.3444    1.4420    1.8579 H   0  0  0  0  0  0  0  0  0  0  0  0
    2.5994    2.3314    0.9587 H   0  0  0  0  0  0  0  0  0  0  0  0
    3.1374    0.2960    1.5161 C   0  0  0  0  0  0  0  0  0  0  0  0
    2.6781   -0.7113    1.5601 H   0  0  0  0  0  0  0  0  0  0  0  0
    3.5076    0.5518    2.5281 H   0  0  0  0  0  0  0  0  0  0  0  0
    4.0160    0.2492    0.8432 H   0  0  0  0  0  0  0  0  0  0  0  0
    2.3406    0.7713   -1.3290 C   0  0  0  0  0  0  0  0  0  0  0  0
    1.7149    0.5168   -2.2059 H   0  0  0  0  0  0  0  0  0  0  0  0
    2.9238   -0.1436   -1.1082 H   0  0  0  0  0  0  0  0  0  0  0  0
    3.2666    1.9434   -1.6524 C   0  0  0  0  0  0  0  0  0  0  0  0
    2.7032    2.8760   -1.8636 H   0  0  0  0  0  0  0  0  0  0  0  0
    3.8586    1.7050   -2.5581 H   0  0  0  0  0  0  0  0  0  0  0  0
    3.9864    2.1573   -0.8374 H   0  0  0  0  0  0  0  0  0  0  0  0
    0.3336    1.9572   -0.5047 C   0  0  0  0  0  0  0  0  0  0  0  0
    0.5332    2.9441   -0.0266 H   0  0  0  0  0  0  0  0  0  0  0  0
    0.3216    2.1160   -1.5992 H   0  0  0  0  0  0  0  0  0  0  0  0
   -1.4552    1.9257    1.2183 C   0  0  0  0  0  0  0  0  0  0  0  0
   -0.6291    1.7620    1.9349 H   0  0  0  0  0  0  0  0  0  0  0  0
   -2.2693    1.2547    1.5544 H   0  0  0  0  0  0  0  0  0  0  0  0
   -1.9062    3.3857    1.2587 C   0  0  0  0  0  0  0  0  0  0  0  0
   -1.1197    4.0822    0.9016 H   0  0  0  0  0  0  0  0  0  0  0  0
   -2.1403    3.6661    2.3047 H   0  0  0  0  0  0  0  0  0  0  0  0
   -2.8190    3.5666    0.6576 H   0  0  0  0  0  0  0  0  0  0  0  0
   -2.0010    1.6392   -1.1809 C   0  0  0  0  0  0  0  0  0  0  0  0
   -1.5715    1.2072   -2.1053 H   0  0  0  0  0  0  0  0  0  0  0  0
   -2.1272    2.7333   -1.3591 H   0  0  0  0  0  0  0  0  0  0  0  0
   -3.3492    0.9934   -0.9032 C   0  0  0  0  0  0  0  0  0  0  0  0
   -3.2312   -0.0868   -0.6895 H   0  0  0  0  0  0  0  0  0  0  0  0
   -3.9960    1.1000   -1.7959 H   0  0  0  0  0  0  0  0  0  0  0  0
   -3.8821    1.4617   -0.0522 H   0  0  0  0  0  0  0  0  0  0  0  0
  1  3  1  0  0  0  0
  2 20  1  0  0  0  0
  3  6  1  0  0  0  0
  3  4  1  0  0  0  0
  5  3  1  0  0  0  0
  6  7  1  0  0  0  0
  6  8  1  0  0  0  0
  9  6  1  0  0  0  0
 10 12  1  0  0  0  0
 10  1  1  0  0  0  0
 11 10  1  0  0  0  0
 13 10  1  0  0  0  0
 13 16  1  0  0  0  0
 14 13  1  0  0  0  0
 15 13  1  0  0  0  0
 17  1  1  0  0  0  0
 17  2  1  0  0  0  0
 17 18  1  0  0  0  0
 19 17  1  0  0  0  0
 20 23  1  0  0  0  0
 20 22  1  0  0  0  0
 20 21  1  0  0  0  0
 23 25  1  0  0  0  0
 24 23  1  0  0  0  0
 26 23  1  0  0  0  0
 27 30  1  0  0  0  0
 27  2  1  0  0  0  0
 28 27  1  0  0  0  0
 29 27  1  0  0  0  0
 30 31  1  0  0  0  0
 30 33  1  0  0  0  0
 32 30  1  0  0  0  0
M  END
