2,3
q = -2.0, confidence = 0.952

 47 51  0  0  0  0  0  0  0  0999 V2000
    5.9049    0.2510   -0.6252 Br  0  0  0  0  0  0  0  0  0  0  0  0
   -0.8551   -1.4999    0.4965 N   0  0  0  0  0  0  0  0  0  0  0  0
   -1.0404    1.4861    0.3754 N   0  0  0  0  0  0  0  0  0  0  0  0
    0.2561    0.1352    2.0751 C   0  0  0  0  0  0  0  0  0  0  0  0
    0.4031    0.1867    3.1735 H   0  0  0  0  0  0  0  0  0  0  0  0
    1.6563    0.1838    1.4316 C   0  0  0  0  0  0  0  0  0  0  0  0
    2.1741    1.3743    0.8883 C   0  0  0  0  0  0  0  0  0  0  0  0
    1.5705    2.2933    0.9291 H   0  0  0  0  0  0  0  0  0  0  0  0
    3.4432    1.4086    0.2909 C   0  0  0  0  0  0  0  0  0  0  0  0
    3.8301    2.3404   -0.1454 H   0  0  0  0  0  0  0  0  0  0  0  0
    4.2099    0.2351    0.2457 C   0  0  0  0  0  0  0  0  0  0  0  0
    3.7323   -0.9570    0.8124 C   0  0  0  0  0  0  0  0  0  0  0  0
    4.3447   -1.8691    0.7775 H   0  0  0  0  0  0  0  0  0  0  0  0
    2.4584   -0.9735    1.3955 C   0  0  0  0  0  0  0  0  0  0  0  0
    2.0634   -1.9126    1.8136 H   0  0  0  0  0  0  0  0  0  0  0  0
   -0.4238   -1.1897    1.7979 C   0  0  0  0  0  3  0  0  0  0  0  0
   -0.6540   -2.2507    2.6694 C   0  0  0  0  0  0  0  0  0  0  0  0
   -1.2733   -3.2920    1.8780 C   0  0  0  0  0  0  0  0  0  0  0  0
   -1.7408   -4.5898    2.1718 C   0  0  0  0  0  0  0  0  0  0  0  0
   -1.6586   -4.9957    3.1923 H   0  0  0  0  0  0  0  0  0  0  0  0
   -2.3136   -5.3532    1.1464 C   0  0  0  0  0  0  0  0  0  0  0  0
   -2.6814   -6.3679    1.3620 H   0  0  0  0  0  0  0  0  0  0  0  0
   -2.4318   -4.8371   -0.1656 C   0  0  0  0  0  0  0  0  0  0  0  0
   -2.8932   -5.4544   -0.9515 H   0  0  0  0  0  0  0  0  0  0  0  0
   -1.9748   -3.5501   -0.4819 C   0  0  0  0  0  0  0  0  0  0  0  0
   -2.0849   -3.1442   -1.4987 H   0  0  0  0  0  0  0  0  0  0  0  0
   -1.3874   -2.7844    0.5418 C   0  0  0  0  0  0  0  0  0  0  0  0
   -0.3366   -2.3396    4.1290 C   0  0  0  0  0  0  0  0  0  0  0  0
   -1.2522   -2.5102    4.7352 H   0  0  0  0  0  0  0  0  0  0  0  0
    0.3500   -3.1857    4.3483 H   0  0  0  0  0  0  0  0  0  0  0  0
    0.1439   -1.4172    4.5109 H   0  0  0  0  0  0  0  0  0  0  0  0
   -0.5835    1.3350    1.6995 C   0  0  0  0  0  3  0  0  0  0  0  0
   -0.9650    2.4167    2.4850 C   0  0  0  0  0  0  0  0  0  0  0  0
   -1.7054    3.3080    1.6143 C   0  0  0  0  0  0  0  0  0  0  0  0
   -2.3346    4.5548    1.8072 C   0  0  0  0  0  0  0  0  0  0  0  0
   -2.3253    5.0394    2.7959 H   0  0  0  0  0  0  0  0  0  0  0  0
   -2.9699    5.1682    0.7191 C   0  0  0  0  0  0  0  0  0  0  0  0
   -3.4636    6.1425    0.8546 H   0  0  0  0  0  0  0  0  0  0  0  0
   -2.9813    4.5573   -0.5565 C   0  0  0  0  0  0  0  0  0  0  0  0
   -2.3604    3.3182   -0.7721 C   0  0  0  0  0  0  0  0  0  0  0  0
   -2.3614    2.8429   -1.7642 H   0  0  0  0  0  0  0  0  0  0  0  0
   -1.7305    2.6966    0.3199 C   0  0  0  0  0  0  0  0  0  0  0  0
   -0.6814    2.6579    3.9335 C   0  0  0  0  0  0  0  0  0  0  0  0
   -1.6204    2.7715    4.5166 H   0  0  0  0  0  0  0  0  0  0  0  0
   -0.1052    1.8305    4.3918 H   0  0  0  0  0  0  0  0  0  0  0  0
   -0.0990    3.5922    4.0849 H   0  0  0  0  0  0  0  0  0  0  0  0
   -3.4818    5.0640   -1.3956 H   0  0  0  0  0  0  0  0  0  0  0  0
  1 11  1  0  0  0  0
  2 27  2  0  0  0  0
  2 16  1  0  0  0  0
  3 32  1  0  0  0  0
  4  5  1  0  0  0  0
  6  4  1  0  0  0  0
  7  8  1  0  0  0  0
  7  6  2  0  0  0  0
  9  7  1  0  0  0  0
 10  9  1  0  0  0  0
 11  9  2  0  0  0  0
 11 12  1  0  0  0  0
 12 14  2  0  0  0  0
 13 12  1  0  0  0  0
 14  6  1  0  0  0  0
 14 15  1  0  0  0  0
 16  4  1  0  0  0  0
 16 17  1  0  0  0  0
 17 28  1  0  0  0  0
 18 19  1  0  0  0  0
 18 17  2  0  0  0  0
 19 20  1  0  0  0  0
 21 22  1  0  0  0  0
 21 19  2  0  0  0  0
 23 21  1  0  0  0  0
 24 23  1  0  0  0  0
 25 23  2  0  0  0  0
 25 27  1  0  0  0  0
 26 25  1  0  0  0  0
 27 18  1  0  0  0  0
 28 30  1  0  0  0  0
 28 31  1  0  0  0  0
 28 29  1  0  0  0  0
 32  4  1  0  0  0  0
 32 33  1  0  0  0  0
 33 43  1  0  0  0  0
 34 35  1  0  0  0  0
 34 33  2  0  0  0  0
 35 36  1  0  0  0  0
 37 38  1  0  0  0  0
 37 35  2  0  0  0  0
 39 37  1  0  0  0  0
 40 39  2  0  0  0  0
 40 42  1  0  0  0  0
 41 40  1  0  0  0  0
 42  3  2  0  0  0  0
 42 34  1  0  0  0  0
 43 46  1  0  0  0  0
 43 45  1  0  0  0  0
 43 44  1  0  0  0  0
 47 39  1  0  0  0  0
M  END
