1,2
q = 0.0, confidence = 0.998

 26 28  0  0  1  0  0  0  0  0999 V2000
    1.8134   -0.0772   -0.0596 N   0  0  0  0  0  2  0  0  0  0  0  0
    0.7497   -1.9739   -1.6061 N   0  0  0  0  0  2  0  0  0  0  0  0
    3.6801    0.9409    0.0212 N   0  0  0  0  0  0  0  0  0  0  0  0
    2.4665    0.8388    0.6068 N   0  0  0  0  0  2  0  0  0  0  0  0
    5.8133    1.8410   -0.1784 N   0  0  0  0  0  0  0  0  0  0  0  0
    2.5938   -0.5818   -1.0833 C   0  0  0  0  0  0  0  0  0  0  0  0
    4.6664    1.8632    0.4993 C   0  0  0  0  0  0  0  0  0  0  0  0
    2.0260   -1.6236   -1.9366 C   0  0  1  0  0  3  0  0  0  0  0  0
    3.8131    0.0817   -1.0331 C   0  0  0  0  0  0  0  0  0  0  0  0
    4.7398    0.0446   -1.6116 H   0  0  0  0  0  0  0  0  0  0  0  0
    0.1342   -2.9299   -2.3291 C   0  0  0  0  0  0  0  0  0  0  0  0
   -0.8950   -3.1788   -2.0253 H   0  0  0  0  0  0  0  0  0  0  0  0
    0.7483   -3.5784   -3.4068 C   0  0  0  0  0  0  0  0  0  0  0  0
    0.2025   -4.3514   -3.9659 H   0  0  0  0  0  0  0  0  0  0  0  0
    2.7110   -2.2279   -3.0053 C   0  0  0  0  0  0  0  0  0  0  0  0
    3.7392   -1.9211   -3.2449 H   0  0  0  0  0  0  0  0  0  0  0  0
    4.3871    2.6951    1.5952 C   0  0  0  0  0  0  0  0  0  0  0  0
    3.4126    2.6505    2.0981 H   0  0  0  0  0  0  0  0  0  0  0  0
    5.4085    3.5662    1.9957 C   0  0  0  0  0  0  0  0  0  0  0  0
    5.2499    4.2430    2.8483 H   0  0  0  0  0  0  0  0  0  0  0  0
    2.0618   -3.2190   -3.7506 C   0  0  0  0  0  0  0  0  0  0  0  0
    2.5752   -3.7070   -4.5919 H   0  0  0  0  0  0  0  0  0  0  0  0
    6.6278    3.5647    1.3002 C   0  0  0  0  0  0  0  0  0  0  0  0
    7.4494    4.2357    1.5888 H   0  0  0  0  0  0  0  0  0  0  0  0
    6.7804    2.6820    0.2186 C   0  0  0  0  0  0  0  0  0  0  0  0
    7.7221    2.6492   -0.3547 H   0  0  0  0  0  0  0  0  0  0  0  0
  1  4  1  0  0  0  0
  3  7  1  0  0  0  0
  3  4  1  0  0  0  0
  5 25  2  0  0  0  0
  5  7  1  0  0  0  0
  6  9  2  0  0  0  0
  6  1  1  0  0  0  0
  7 17  2  0  0  0  0
  8  2  1  0  0  0  0
  8  6  1  1  0  0  0
  9  3  1  0  0  0  0
 10  9  1  0  0  0  0
 11 12  1  0  0  0  0
 11  2  1  0  0  0  0
 13 11  2  0  0  0  0
 14 13  1  0  0  0  0
 15  8  1  0  0  0  0
 16 15  1  0  0  0  0
 17 19  1  0  0  0  0
 17 18  1  0  0  0  0
 19 20  1  0  0  0  0
 21 13  1  0  0  0  0
 21 15  2  0  0  0  0
 22 21  1  0  0  0  0
 23 24  1  0  0  0  0
 23 19  2  0  0  0  0
 25 23  1  0  0  0  0
 26 25  1  0  0  0  0
M  END
