1,2
q = 0.0, confidence = 0.996

 27 29  0  0  1  0  0  0  0  0999 V2000
    0.5977    1.8229   -0.1342 N   0  0  0  0  0  2  0  0  0  0  0  0
   -1.0603   -0.1399   -0.1498 N   0  0  0  0  0  2  0  0  0  0  0  0
   -2.9720    0.9871    0.1914 N   0  0  0  0  0  0  0  0  0  0  0  0
    1.5528    2.7695   -0.2490 C   0  0  0  0  0  3  0  0  0  0  0  0
    2.5661    2.4104   -0.4720 H   0  0  0  0  0  0  0  0  0  0  0  0
    1.2801    4.1331   -0.1139 C   0  0  0  0  0  0  0  0  0  0  0  0
    2.0975    4.8608   -0.2105 H   0  0  0  0  0  0  0  0  0  0  0  0
   -0.0400    4.5387    0.1330 C   0  0  0  0  0  0  0  0  0  0  0  0
   -0.2900    5.6036    0.2442 H   0  0  0  0  0  0  0  0  0  0  0  0
   -1.0429    3.5687    0.2171 C   0  0  0  0  0  0  0  0  0  0  0  0
   -2.0832    3.8684    0.3826 H   0  0  0  0  0  0  0  0  0  0  0  0
   -0.7059    2.2092    0.0707 C   0  0  0  0  0  0  0  0  0  0  0  0
   -1.6055    1.0736    0.0641 C   0  0  2  0  0  3  0  0  0  0  0  0
   -2.0905   -1.0571   -0.2002 C   0  0  0  0  0  0  0  0  0  0  0  0
   -2.0968   -2.4445   -0.4412 C   0  0  0  0  0  0  0  0  0  0  0  0
   -1.1660   -2.9805   -0.6622 H   0  0  0  0  0  0  0  0  0  0  0  0
   -3.3302   -3.0969   -0.4227 C   0  0  0  0  0  0  0  0  0  0  0  0
   -3.3724   -4.1789   -0.6139 H   0  0  0  0  0  0  0  0  0  0  0  0
   -4.5370   -2.3934   -0.1755 C   0  0  0  0  0  0  0  0  0  0  0  0
   -5.4880   -2.9454   -0.1710 H   0  0  0  0  0  0  0  0  0  0  0  0
   -4.5515   -1.0135    0.0482 C   0  0  0  0  0  0  0  0  0  0  0  0
   -5.4967   -0.4806    0.2220 H   0  0  0  0  0  0  0  0  0  0  0  0
   -3.3112   -0.3538    0.0271 C   0  0  0  0  0  0  0  0  0  0  0  0
   -3.9167    2.0672    0.4257 C   0  0  0  0  0  0  0  0  0  0  0  0
   -3.6753    2.6090    1.3608 H   0  0  0  0  0  0  0  0  0  0  0  0
   -4.9270    1.6363    0.5321 H   0  0  0  0  0  0  0  0  0  0  0  0
   -3.9314    2.7750   -0.4267 H   0  0  0  0  0  0  0  0  0  0  0  0
  1 12  1  0  0  0  0
  2 13  1  0  0  0  0
  3 24  1  0  0  0  0
  4  1  1  0  0  0  0
  4  6  1  0  0  0  0
  5  4  1  0  0  0  0
  6  8  2  0  0  0  0
  7  6  1  0  0  0  0
  8 10  1  0  0  0  0
  8  9  1  0  0  0  0
 10 11  1  0  0  0  0
 12 10  2  0  0  0  0
 13 12  1  6  0  0  0
 13  3  1  0  0  0  0
 14  2  1  0  0  0  0
 14 23  1  0  0  0  0
 15 17  1  0  0  0  0
 15 14  2  0  0  0  0
 16 15  1  0  0  0  0
 17 19  2  0  0  0  0
 18 17  1  0  0  0  0
 19 20  1  0  0  0  0
 19 21  1  0  0  0  0
 21 22  1  0  0  0  0
 23 21  2  0  0  0  0
 23  3  1  0  0  0  0
 24 26  1  0  0  0  0
 24 25  1  0  0  0  0
 27 24  1  0  0  0  0
M  END
