1,2
q = 0.0, confidence = 0.996

 44 47  0  0  0  0  0  0  0  0999 V2000
    1.3657   -0.9234    0.0000 N   0  0  0  0  0  2  0  0  0  0  0  0
   -1.3854   -0.8637    0.0002 N   0  0  0  0  0  2  0  0  0  0  0  0
    2.7295   -1.0153    0.0000 C   0  0  0  0  0  0  0  0  0  0  0  0
    3.3281   -2.3068    0.0000 C   0  0  0  0  0  0  0  0  0  0  0  0
    2.6574   -3.1826    0.0000 H   0  0  0  0  0  0  0  0  0  0  0  0
    4.7050   -2.4485   -0.0000 C   0  0  0  0  0  0  0  0  0  0  0  0
    5.1564   -3.4515   -0.0000 H   0  0  0  0  0  0  0  0  0  0  0  0
    5.5370   -1.2977   -0.0001 C   0  0  0  0  0  0  0  0  0  0  0  0
    6.6303   -1.4183   -0.0001 H   0  0  0  0  0  0  0  0  0  0  0  0
    4.9898   -0.0228   -0.0001 C   0  0  0  0  0  0  0  0  0  0  0  0
    5.6277    0.8689   -0.0001 H   0  0  0  0  0  0  0  0  0  0  0  0
    3.5754    0.1602    0.0000 C   0  0  0  0  0  0  0  0  0  0  0  0
    2.9104    1.4334    0.0001 C   0  0  0  0  0  0  0  0  0  0  0  0
    1.5200    1.4674    0.0001 C   0  0  0  0  0  0  0  0  0  0  0  0
    1.0266    2.4445    0.0002 H   0  0  0  0  0  0  0  0  0  0  0  0
    0.7585    0.2690    0.0001 C   0  0  0  0  0  0  0  0  0  0  0  0
   -0.7376    0.3029    0.0001 C   0  0  0  0  0  0  0  0  0  0  0  0
   -1.4499    1.5318   -0.0000 C   0  0  0  0  0  0  0  0  0  0  0  0
   -0.9238    2.4919   -0.0002 H   0  0  0  0  0  0  0  0  0  0  0  0
   -2.8415    1.5464    0.0000 C   0  0  0  0  0  0  0  0  0  0  0  0
   -3.5527    0.2979    0.0002 C   0  0  0  0  0  0  0  0  0  0  0  0
   -4.9722    0.1640    0.0003 C   0  0  0  0  0  0  0  0  0  0  0  0
   -5.5810    1.0757    0.0003 H   0  0  0  0  0  0  0  0  0  0  0  0
   -5.5607   -1.0927    0.0004 C   0  0  0  0  0  0  0  0  0  0  0  0
   -6.6576   -1.1762    0.0004 H   0  0  0  0  0  0  0  0  0  0  0  0
   -4.7689   -2.2720    0.0004 C   0  0  0  0  0  0  0  0  0  0  0  0
   -5.2563   -3.2582    0.0004 H   0  0  0  0  0  0  0  0  0  0  0  0
   -3.3876   -2.1813    0.0003 C   0  0  0  0  0  0  0  0  0  0  0  0
   -2.7543   -3.0828    0.0003 H   0  0  0  0  0  0  0  0  0  0  0  0
   -2.7480   -0.9075    0.0002 C   0  0  0  0  0  0  0  0  0  0  0  0
    3.6721    2.7384    0.0001 C   0  0  0  0  0  0  0  0  0  0  0  0
    3.4632    5.0870    0.0005 C   0  0  0  0  0  0  0  0  0  0  0  0
    4.0992    5.2068    0.8996 H   0  0  0  0  0  0  0  0  0  0  0  0
    2.6428    5.8248    0.0010 H   0  0  0  0  0  0  0  0  0  0  0  0
    4.0985    5.2072   -0.8989 H   0  0  0  0  0  0  0  0  0  0  0  0
   -3.5563    2.8770   -0.0001 C   0  0  0  0  0  0  0  0  0  0  0  0
   -3.2665    5.2170   -0.0010 C   0  0  0  0  0  0  0  0  0  0  0  0
   -3.8985    5.3585   -0.8998 H   0  0  0  0  0  0  0  0  0  0  0  0
   -2.4217    5.9266   -0.0019 H   0  0  0  0  0  0  0  0  0  0  0  0
   -3.8972    5.3592    0.8985 H   0  0  0  0  0  0  0  0  0  0  0  0
    4.8847    2.8505   -0.0001 O   0  0  0  0  0  0  0  0  0  0  0  0
    2.8315    3.7942    0.0005 O   0  0  0  0  0  0  0  0  0  0  0  0
   -4.7641    3.0327    0.0006 O   0  0  0  0  0  0  0  0  0  0  0  0
   -2.6792    3.9037   -0.0010 O   0  0  0  0  0  0  0  0  0  0  0  0
  1 16  1  0  0  0  0
  2 30  1  0  0  0  0
  3  1  1  0  0  0  0
  4  3  2  0  0  0  0
  4  5  1  0  0  0  0
  6  4  1  0  0  0  0
  7  6  1  0  0  0  0
  8 10  1  0  0  0  0
  8  6  2  0  0  0  0
  9  8  1  0  0  0  0
 10 12  2  0  0  0  0
 11 10  1  0  0  0  0
 12  3  1  0  0  0  0
 12 13  1  0  0  0  0
 13 31  1  0  0  0  0
 13 14  2  0  0  0  0
 14 15  1  0  0  0  0
 16 17  2  0  0  0  0
 16 14  1  0  0  0  0
 17  2  1  0  0  0  0
 18 20  2  0  0  0  0
 18 17  1  0  0  0  0
 19 18  1  0  0  0  0
 20 21  1  0  0  0  0
 21 30  2  0  0  0  0
 21 22  1  0  0  0  0
 22 23  1  0  0  0  0
 22 24  2  0  0  0  0
 24 26  1  0  0  0  0
 24 25  1  0  0  0  0
 26 27  1  0  0  0  0
 28 29  1  0  0  0  0
 28 26  2  0  0  0  0
 30 28  1  0  0  0  0
 31 42  1  0  0  0  0
 32 34  1  0  0  0  0
 32 33  1  0  0  0  0
 35 32  1  0  0  0  0
 36 20  1  0  0  0  0
 36 43  2  0  0  0  0
 37 44  1  0  0  0  0
 37 40  1  0  0  0  0
 38 37  1  0  0  0  0
 39 37  1  0  0  0  0
 41 31  2  0  0  0  0
 42 32  1  0  0  0  0
 44 36  1  0  0  0  0
M  END
