1,2
q = 0.0, confidence = 0.994

 44 49  0  0  0  0  0  0  0  0999 V2000
   -1.5357    1.2958   -0.2756 N   0  0  0  0  0  2  0  0  0  0  0  0
   -1.5380   -1.2978    0.2091 N   0  0  0  0  0  2  0  0  0  0  0  0
    3.3180    1.3962   -0.1089 N   0  0  0  0  0  0  0  0  0  0  0  0
    3.3178   -1.3895    0.1373 N   0  0  0  0  0  0  0  0  0  0  0  0
   -0.4363    3.3927   -0.7016 C   0  0  0  0  0  0  0  0  0  0  0  0
   -0.5423    4.4615   -0.9341 H   0  0  0  0  0  0  0  0  0  0  0  0
   -0.3125   -0.7034    0.1242 C   0  0  0  0  0  0  0  0  0  0  0  0
   -1.6016   -2.6290    0.3834 C   0  0  0  0  0  0  0  0  0  0  0  0
   -2.6057   -3.0737    0.3961 H   0  0  0  0  0  0  0  0  0  0  0  0
   -0.3113    0.7085   -0.1402 C   0  0  0  0  0  0  0  0  0  0  0  0
    0.9020    1.4281   -0.2687 C   0  0  0  0  0  0  0  0  0  0  0  0
   -1.5955    2.6049   -0.5736 C   0  0  0  0  0  0  0  0  0  0  0  0
   -2.5978    3.0282   -0.7219 H   0  0  0  0  0  0  0  0  0  0  0  0
    2.1583   -0.7019    0.1141 C   0  0  0  0  0  0  0  0  0  0  0  0
    0.8159   -2.8214    0.4501 C   0  0  0  0  0  0  0  0  0  0  0  0
    1.7466   -3.4005    0.5319 H   0  0  0  0  0  0  0  0  0  0  0  0
    0.8218    2.8112   -0.5401 C   0  0  0  0  0  0  0  0  0  0  0  0
    1.7531    3.3888   -0.6246 H   0  0  0  0  0  0  0  0  0  0  0  0
    2.1591    0.7072   -0.1016 C   0  0  0  0  0  0  0  0  0  0  0  0
    0.8992   -1.4269    0.2464 C   0  0  0  0  0  0  0  0  0  0  0  0
   -0.4439   -3.4176    0.5166 C   0  0  0  0  0  0  0  0  0  0  0  0
   -0.5522   -4.5020    0.6583 H   0  0  0  0  0  0  0  0  0  0  0  0
    6.5971   -0.9576   -1.0484 N   0  0  0  0  0  0  0  0  0  0  0  0
    4.4646   -0.7210    0.0208 C   0  0  0  0  0  0  0  0  0  0  0  0
    4.4636    0.7289    0.0231 C   0  0  0  0  0  0  0  0  0  0  0  0
    6.5740    0.9779    1.1326 N   0  0  0  0  0  0  0  0  0  0  0  0
    5.6944    1.5224    0.2693 C   0  0  0  0  0  0  0  0  0  0  0  0
    5.6991   -1.5126   -0.2111 C   0  0  0  0  0  0  0  0  0  0  0  0
    5.8681    2.7921   -0.3154 C   0  0  0  0  0  0  0  0  0  0  0  0
    5.1038    3.1919   -0.9959 H   0  0  0  0  0  0  0  0  0  0  0  0
    7.7036   -1.6530   -1.3305 C   0  0  0  0  0  0  0  0  0  0  0  0
    8.4170   -1.1788   -2.0273 H   0  0  0  0  0  0  0  0  0  0  0  0
    7.9767   -2.9235   -0.7898 C   0  0  0  0  0  0  0  0  0  0  0  0
    8.9106   -3.4459   -1.0442 H   0  0  0  0  0  0  0  0  0  0  0  0
    7.0307   -3.5019    0.0685 C   0  0  0  0  0  0  0  0  0  0  0  0
    7.2044   -4.4960    0.5072 H   0  0  0  0  0  0  0  0  0  0  0  0
    7.0364    3.5038   -0.0152 C   0  0  0  0  0  0  0  0  0  0  0  0
    7.2216    4.4902   -0.4665 H   0  0  0  0  0  0  0  0  0  0  0  0
    5.8589   -2.7915    0.3575 C   0  0  0  0  0  0  0  0  0  0  0  0
    5.0801   -3.2000    1.0160 H   0  0  0  0  0  0  0  0  0  0  0  0
    7.9642    2.9361    0.8695 C   0  0  0  0  0  0  0  0  0  0  0  0
    8.8951    3.4595    1.1329 H   0  0  0  0  0  0  0  0  0  0  0  0
    7.6770    1.6750    1.4248 C   0  0  0  0  0  0  0  0  0  0  0  0
    8.3759    1.2099    2.1421 H   0  0  0  0  0  0  0  0  0  0  0  0
  1 10  1  0  0  0  0
  2  8  1  0  0  0  0
  3 19  2  0  0  0  0
  3 25  1  0  0  0  0
  5 12  2  0  0  0  0
  5 17  1  0  0  0  0
  6  5  1  0  0  0  0
  7  2  1  0  0  0  0
  7 20  1  0  0  0  0
  8  9  1  0  0  0  0
  8 21  2  0  0  0  0
 10  7  2  0  0  0  0
 11 10  1  0  0  0  0
 11 19  1  0  0  0  0
 12  1  1  0  0  0  0
 13 12  1  0  0  0  0
 14  4  2  0  0  0  0
 14 20  1  0  0  0  0
 15 21  1  0  0  0  0
 15 16  1  0  0  0  0
 17 11  2  0  0  0  0
 18 17  1  0  0  0  0
 19 14  1  0  0  0  0
 20 15  2  0  0  0  0
 21 22  1  0  0  0  0
 23 28  1  0  0  0  0
 24 25  2  0  0  0  0
 24  4  1  0  0  0  0
 25 27  1  0  0  0  0
 26 43  1  0  0  0  0
 27 26  2  0  0  0  0
 28 24  1  0  0  0  0
 28 39  2  0  0  0  0
 29 37  2  0  0  0  0
 29 27  1  0  0  0  0
 30 29  1  0  0  0  0
 31 23  2  0  0  0  0
 31 33  1  0  0  0  0
 32 31  1  0  0  0  0
 33 35  2  0  0  0  0
 34 33  1  0  0  0  0
 35 39  1  0  0  0  0
 35 36  1  0  0  0  0
 37 41  1  0  0  0  0
 38 37  1  0  0  0  0
 39 40  1  0  0  0  0
 41 42  1  0  0  0  0
 41 43  2  0  0  0  0
 43 44  1  0  0  0  0
M  END
