6,7
q = 0.0, confidence = 0.986

 17 18  0  0  0  0  0  0  0  0999 V2000
    1.8217    3.6024   -0.7257 P   0  0  0  0  0  0  0  0  0  0  0  0
    3.0306   -2.7962   -0.5728 P   0  0  0  0  0  0  0  0  0  0  0  0
    1.5466    1.4695    0.7252 N   0  0  0  0  0  0  0  0  0  0  0  0
    0.4342    2.5031   -0.8706 C   0  0  0  0  0  3  0  0  0  0  0  0
   -0.4031    2.5776   -1.5779 H   0  0  0  0  0  0  0  0  0  0  0  0
    0.4368    1.4510   -0.0516 N   0  0  0  0  0  2  0  0  0  0  0  0
    0.9319   -1.3129    0.0767 N   0  0  0  0  0  2  0  0  0  0  0  0
    1.7780    0.3303    1.6013 C   0  0  0  0  0  0  0  0  0  0  0  0
    2.6816    0.5236    2.2033 H   0  0  0  0  0  0  0  0  0  0  0  0
    0.8921    0.1953    2.2518 H   0  0  0  0  0  0  0  0  0  0  0  0
    1.9782   -0.8794    0.8216 N   0  0  0  0  0  0  0  0  0  0  0  0
    3.1587   -1.5221    0.6115 C   0  0  0  0  0  3  0  0  0  0  0  0
    4.0366   -1.1893    1.1810 H   0  0  0  0  0  0  0  0  0  0  0  0
    1.3276   -2.3102   -0.7153 C   0  0  0  0  0  0  0  0  0  0  0  0
    0.5883   -2.7009   -1.4276 H   0  0  0  0  0  0  0  0  0  0  0  0
    2.3958    2.5106    0.5068 C   0  0  0  0  0  0  0  0  0  0  0  0
    3.3143    2.5608    1.1064 H   0  0  0  0  0  0  0  0  0  0  0  0
  1 16  2  0  0  0  0
  2 12  1  0  0  0  0
  3  8  1  0  0  0  0
  4  1  1  0  0  0  0
  4  6  1  0  0  0  0
  5  4  1  0  0  0  0
  6  3  1  0  0  0  0
  7 11  1  0  0  0  0
  8  9  1  0  0  0  0
  8 10  1  0  0  0  0
 11  8  1  0  0  0  0
 12 11  1  0  0  0  0
 12 13  1  0  0  0  0
 14  2  2  0  0  0  0
 14  7  1  0  0  0  0
 15 14  1  0  0  0  0
 16  3  1  0  0  0  0
 16 17  1  0  0  0  0
M  END
