1,29
q = 0.0, confidence = 0.988

 56 57  0  0  0  0  0  0  0  0999 V2000
   -1.2939   -1.4051    0.0196 N   0  0  0  0  0  2  0  0  0  0  0  0
   -0.0258   -0.8888   -0.1037 C   0  0  0  0  0  0  0  0  0  0  0  0
    1.1170   -1.7136   -0.0776 C   0  0  0  0  0  0  0  0  0  0  0  0
    2.1060   -1.2495   -0.1811 H   0  0  0  0  0  0  0  0  0  0  0  0
    0.9983   -3.0985    0.0746 C   0  0  0  0  0  0  0  0  0  0  0  0
   -0.3195   -3.6073    0.1978 C   0  0  0  0  0  0  0  0  0  0  0  0
   -0.4934   -4.6868    0.3206 H   0  0  0  0  0  0  0  0  0  0  0  0
   -1.4121   -2.7503    0.1644 C   0  0  0  0  0  0  0  0  0  0  0  0
   -2.4402   -3.1353    0.2553 H   0  0  0  0  0  0  0  0  0  0  0  0
    2.1813   -4.0367    0.1100 C   0  0  0  0  0  0  0  0  0  0  0  0
    2.0442   -4.7952   -0.6939 H   0  0  0  0  0  0  0  0  0  0  0  0
    2.1290   -4.6213    1.0566 H   0  0  0  0  0  0  0  0  0  0  0  0
    3.5658   -3.4028   -0.0199 C   0  0  0  0  0  0  0  0  0  0  0  0
    3.6288   -2.8356   -0.9752 H   0  0  0  0  0  0  0  0  0  0  0  0
    3.7108   -2.6537    0.7901 H   0  0  0  0  0  0  0  0  0  0  0  0
    4.7033   -4.4263    0.0328 C   0  0  0  0  0  0  0  0  0  0  0  0
    4.5588   -5.1792   -0.7747 H   0  0  0  0  0  0  0  0  0  0  0  0
    4.6406   -4.9970    0.9868 H   0  0  0  0  0  0  0  0  0  0  0  0
    6.0959   -3.8046   -0.0960 C   0  0  0  0  0  0  0  0  0  0  0  0
    6.1574   -3.2343   -1.0509 H   0  0  0  0  0  0  0  0  0  0  0  0
    6.2380   -3.0499    0.7108 H   0  0  0  0  0  0  0  0  0  0  0  0
    7.2380   -4.8238   -0.0415 C   0  0  0  0  0  0  0  0  0  0  0  0
    7.1722   -5.3926    0.9128 H   0  0  0  0  0  0  0  0  0  0  0  0
    7.0917   -5.5771   -0.8476 H   0  0  0  0  0  0  0  0  0  0  0  0
    8.6245   -4.1926   -0.1710 C   0  0  0  0  0  0  0  0  0  0  0  0
    8.8126   -3.4618    0.6433 H   0  0  0  0  0  0  0  0  0  0  0  0
    8.7314   -3.6478   -1.1324 H   0  0  0  0  0  0  0  0  0  0  0  0
    9.4287   -4.9543   -0.1280 H   0  0  0  0  0  0  0  0  0  0  0  0
   -1.2480    1.1361   -0.2738 N   0  0  0  0  0  2  0  0  0  0  0  0
    0.0019    0.5588   -0.2613 C   0  0  0  0  0  0  0  0  0  0  0  0
    1.1714    1.3322   -0.3889 C   0  0  0  0  0  0  0  0  0  0  0  0
    2.1520    0.8347   -0.3750 H   0  0  0  0  0  0  0  0  0  0  0  0
    1.1011    2.7224   -0.5336 C   0  0  0  0  0  0  0  0  0  0  0  0
   -0.1944    3.2934   -0.5408 C   0  0  0  0  0  0  0  0  0  0  0  0
   -0.3287    4.3796   -0.6533 H   0  0  0  0  0  0  0  0  0  0  0  0
   -1.3182    2.4843   -0.4108 C   0  0  0  0  0  0  0  0  0  0  0  0
   -2.3324    2.9145   -0.4149 H   0  0  0  0  0  0  0  0  0  0  0  0
    2.3399    3.5746   -0.6107 C   0  0  0  0  0  0  0  0  0  0  0  0
    3.1683    2.9790   -1.0466 H   0  0  0  0  0  0  0  0  0  0  0  0
    2.1625    4.4278   -1.3005 H   0  0  0  0  0  0  0  0  0  0  0  0
    2.7605    4.1253    0.7675 C   0  0  0  0  0  0  0  0  0  0  0  0
    2.9436    3.2695    1.4546 H   0  0  0  0  0  0  0  0  0  0  0  0
    1.9025    4.6814    1.2021 H   0  0  0  0  0  0  0  0  0  0  0  0
    3.9949    5.0343    0.7318 C   0  0  0  0  0  0  0  0  0  0  0  0
    3.8005    5.8930    0.0498 H   0  0  0  0  0  0  0  0  0  0  0  0
    4.1341    5.4797    1.7412 H   0  0  0  0  0  0  0  0  0  0  0  0
    5.2961    4.3409    0.3151 C   0  0  0  0  0  0  0  0  0  0  0  0
    5.1984    3.9305   -0.7149 H   0  0  0  0  0  0  0  0  0  0  0  0
    5.4682    3.4590    0.9741 H   0  0  0  0  0  0  0  0  0  0  0  0
    6.5230    5.2571    0.3653 C   0  0  0  0  0  0  0  0  0  0  0  0
    6.6302    5.6648    1.3952 H   0  0  0  0  0  0  0  0  0  0  0  0
    6.3429    6.1405   -0.2870 H   0  0  0  0  0  0  0  0  0  0  0  0
    7.8196    4.5632   -0.0527 C   0  0  0  0  0  0  0  0  0  0  0  0
    8.6878    5.2508   -0.0056 H   0  0  0  0  0  0  0  0  0  0  0  0
    8.0436    3.6970    0.6047 H   0  0  0  0  0  0  0  0  0  0  0  0
    7.7546    4.1785   -1.0922 H   0  0  0  0  0  0  0  0  0  0  0  0
  1  8  1  0  0  0  0
  2  3  1  0  0  0  0
  2  1  1  0  0  0  0
  3  5  2  0  0  0  0
  4  3  1  0  0  0  0
  5 10  1  0  0  0  0
  5  6  1  0  0  0  0
  6  7  1  0  0  0  0
  8  6  2  0  0  0  0
  8  9  1  0  0  0  0
 10 12  1  0  0  0  0
 11 10  1  0  0  0  0
 13 16  1  0  0  0  0
 13 10  1  0  0  0  0
 13 15  1  0  0  0  0
 14 13  1  0  0  0  0
 16 18  1  0  0  0  0
 17 16  1  0  0  0  0
 19 22  1  0  0  0  0
 19 16  1  0  0  0  0
 19 21  1  0  0  0  0
 20 19  1  0  0  0  0
 22 23  1  0  0  0  0
 24 22  1  0  0  0  0
 25 28  1  0  0  0  0
 25 22  1  0  0  0  0
 25 26  1  0  0  0  0
 27 25  1  0  0  0  0
 29 30  1  0  0  0  0
 30  2  2  0  0  0  0
 31 32  1  0  0  0  0
 31 30  1  0  0  0  0
 33 31  2  0  0  0  0
 34 33  1  0  0  0  0
 34 36  2  0  0  0  0
 35 34  1  0  0  0  0
 36 29  1  0  0  0  0
 37 36  1  0  0  0  0
 38 33  1  0  0  0  0
 38 41  1  0  0  0  0
 39 38  1  0  0  0  0
 40 38  1  0  0  0  0
 41 43  1  0  0  0  0
 41 42  1  0  0  0  0
 44 41  1  0  0  0  0
 44 46  1  0  0  0  0
 45 44  1  0  0  0  0
 47 50  1  0  0  0  0
 47 44  1  0  0  0  0
 47 49  1  0  0  0  0
 48 47  1  0  0  0  0
 50 51  1  0  0  0  0
 52 50  1  0  0  0  0
 53 54  1  0  0  0  0
 53 50  1  0  0  0  0
 53 55  1  0  0  0  0
 56 53  1  0  0  0  0
M  END
