1,9
q = 0.0, confidence = 0.972

 43 44  0  0  1  0  0  0  0  0999 V2000
    1.3358    0.0709    0.2156 N   0  0  0  0  0  2  0  0  0  0  0  0
    0.9285   -1.1385   -0.0643 C   0  0  0  0  0  0  0  0  0  0  0  0
    1.5984   -2.0086    0.0528 H   0  0  0  0  0  0  0  0  0  0  0  0
   -0.4408   -1.2992   -0.5310 C   0  0  0  0  0  0  0  0  0  0  0  0
   -0.9332   -2.6711   -0.8869 C   0  0  0  0  0  0  0  0  0  0  0  0
   -2.0092   -2.7941   -0.6674 H   0  0  0  0  0  0  0  0  0  0  0  0
   -0.3604   -3.4393   -0.3332 H   0  0  0  0  0  0  0  0  0  0  0  0
   -0.7824   -2.8666   -1.9700 H   0  0  0  0  0  0  0  0  0  0  0  0
   -1.1242   -0.1743   -0.6049 N   0  0  0  0  0  2  0  0  0  0  0  0
   -2.5339   -0.1091   -1.0590 C   0  0  1  0  0  0  0  0  0  0  0  0
   -2.7968    0.9628   -0.9119 H   0  0  0  0  0  0  0  0  0  0  0  0
   -2.6411   -0.3793   -2.5608 C   0  0  0  0  0  0  0  0  0  0  0  0
   -1.9293    0.2747   -3.1005 H   0  0  0  0  0  0  0  0  0  0  0  0
   -3.6605   -0.1248   -2.9106 H   0  0  0  0  0  0  0  0  0  0  0  0
   -2.4359   -1.4319   -2.8380 H   0  0  0  0  0  0  0  0  0  0  0  0
   -3.4527   -0.9101   -0.1461 C   0  0  0  0  0  0  0  0  0  0  0  0
   -3.3744   -0.6910    1.2470 C   0  0  0  0  0  0  0  0  0  0  0  0
   -2.6476    0.0398    1.6352 H   0  0  0  0  0  0  0  0  0  0  0  0
   -4.2175   -1.3804    2.1275 C   0  0  0  0  0  0  0  0  0  0  0  0
   -4.1440   -1.1948    3.2099 H   0  0  0  0  0  0  0  0  0  0  0  0
   -5.1634   -2.2943    1.6321 C   0  0  0  0  0  0  0  0  0  0  0  0
   -5.8283   -2.8335    2.3235 H   0  0  0  0  0  0  0  0  0  0  0  0
   -5.2608   -2.5064    0.2496 C   0  0  0  0  0  0  0  0  0  0  0  0
   -6.0046   -3.2126   -0.1500 H   0  0  0  0  0  0  0  0  0  0  0  0
   -4.4107   -1.8200   -0.6340 C   0  0  0  0  0  0  0  0  0  0  0  0
   -4.5003   -2.0002   -1.7151 H   0  0  0  0  0  0  0  0  0  0  0  0
    2.6806    0.3214    0.7866 C   0  0  1  0  0  0  0  0  0  0  0  0
    2.9552    1.3231    0.3913 H   0  0  0  0  0  0  0  0  0  0  0  0
    2.5349    0.4770    2.3050 C   0  0  0  0  0  0  0  0  0  0  0  0
    1.8665    1.3330    2.5150 H   0  0  0  0  0  0  0  0  0  0  0  0
    3.5257    0.6861    2.7528 H   0  0  0  0  0  0  0  0  0  0  0  0
    2.1133   -0.4347    2.7744 H   0  0  0  0  0  0  0  0  0  0  0  0
    3.6972   -0.7041    0.3164 C   0  0  0  0  0  0  0  0  0  0  0  0
    4.1876   -0.6080   -1.0038 C   0  0  0  0  0  0  0  0  0  0  0  0
    3.8459    0.2219   -1.6429 H   0  0  0  0  0  0  0  0  0  0  0  0
    5.0997   -1.5478   -1.5008 C   0  0  0  0  0  0  0  0  0  0  0  0
    5.4770   -1.4534   -2.5304 H   0  0  0  0  0  0  0  0  0  0  0  0
    5.5399   -2.6024   -0.6828 C   0  0  0  0  0  0  0  0  0  0  0  0
    6.2600   -3.3391   -1.0698 H   0  0  0  0  0  0  0  0  0  0  0  0
    5.0635   -2.7056    0.6323 C   0  0  0  0  0  0  0  0  0  0  0  0
    5.4099   -3.5239    1.2819 H   0  0  0  0  0  0  0  0  0  0  0  0
    4.1475   -1.7629    1.1285 C   0  0  0  0  0  0  0  0  0  0  0  0
    3.7879   -1.8522    2.1641 H   0  0  0  0  0  0  0  0  0  0  0  0
  1 27  1  0  0  0  0
  2  3  1  0  0  0  0
  2  1  1  0  0  0  0
  4  2  2  0  0  0  0
  5  6  1  0  0  0  0
  5  4  1  0  0  0  0
  5  7  1  0  0  0  0
  8  5  1  0  0  0  0
  9  4  1  0  0  0  0
 10 11  1  1  0  0  0
 10  9  1  0  0  0  0
 10 16  1  0  0  0  0
 12 10  1  0  0  0  0
 13 12  1  0  0  0  0
 14 12  1  0  0  0  0
 15 12  1  0  0  0  0
 16 17  1  0  0  0  0
 17 18  1  0  0  0  0
 17 19  2  0  0  0  0
 19 20  1  0  0  0  0
 21 19  1  0  0  0  0
 21 22  1  0  0  0  0
 23 21  2  0  0  0  0
 24 23  1  0  0  0  0
 25 16  2  0  0  0  0
 25 23  1  0  0  0  0
 26 25  1  0  0  0  0
 27 28  1  6  0  0  0
 27 29  1  0  0  0  0
 29 30  1  0  0  0  0
 29 31  1  0  0  0  0
 29 32  1  0  0  0  0
 33 27  1  0  0  0  0
 33 42  1  0  0  0  0
 34 33  2  0  0  0  0
 35 34  1  0  0  0  0
 36 34  1  0  0  0  0
 36 38  2  0  0  0  0
 37 36  1  0  0  0  0
 38 40  1  0  0  0  0
 39 38  1  0  0  0  0
 40 42  2  0  0  0  0
 40 41  1  0  0  0  0
 42 43  1  0  0  0  0
M  END
