1,2
q = 0.0, confidence = 0.996

 20 21  0  0  0  0  0  0  0  0999 V2000
    1.4439   -0.1637   -0.4811 N   0  0  0  0  0  2  0  0  0  0  0  0
   -1.4522   -0.1622   -0.4663 N   0  0  0  0  0  2  0  0  0  0  0  0
    1.6285   -1.4623   -0.1473 N   0  0  0  0  0  0  0  0  0  0  0  0
   -1.6306   -1.4636   -0.1402 N   0  0  0  0  0  0  0  0  0  0  0  0
    2.8732   -1.8924   -0.5492 C   0  0  0  0  0  3  0  0  0  0  0  0
    3.1952   -2.9241   -0.3719 H   0  0  0  0  0  0  0  0  0  0  0  0
   -2.8738   -1.8967   -0.5436 C   0  0  0  0  0  3  0  0  0  0  0  0
   -3.1912   -2.9308   -0.3720 H   0  0  0  0  0  0  0  0  0  0  0  0
    3.4935   -0.8237   -1.1815 C   0  0  0  0  0  0  0  0  0  0  0  0
    4.4922   -0.8095   -1.6286 H   0  0  0  0  0  0  0  0  0  0  0  0
   -3.4993   -0.8270   -1.1692 C   0  0  0  0  0  0  0  0  0  0  0  0
   -4.4984   -0.8147   -1.6156 H   0  0  0  0  0  0  0  0  0  0  0  0
   -2.5654    0.2362   -1.0896 C   0  0  0  0  0  0  0  0  0  0  0  0
   -2.6254    1.2792   -1.4269 H   0  0  0  0  0  0  0  0  0  0  0  0
    2.5550    0.2359   -1.1073 C   0  0  0  0  0  0  0  0  0  0  0  0
    2.6108    1.2775   -1.4497 H   0  0  0  0  0  0  0  0  0  0  0  0
   -0.6767   -2.2719    0.4989 C   0  0  0  0  0  0  0  0  0  0  0  0
   -1.1467   -3.0717    1.0879 H   0  0  0  0  0  0  0  0  0  0  0  0
    0.6781   -2.2711    0.4960 C   0  0  0  0  0  0  0  0  0  0  0  0
    1.1516   -3.0701    1.0832 H   0  0  0  0  0  0  0  0  0  0  0  0
  1  3  1  0  0  0  0
  2  4  1  0  0  0  0
  3 19  1  0  0  0  0
  4 17  1  0  0  0  0
  5  6  1  0  0  0  0
  5  3  1  0  0  0  0
  7  8  1  0  0  0  0
  7  4  1  0  0  0  0
  9 15  2  0  0  0  0
  9  5  1  0  0  0  0
 10  9  1  0  0  0  0
 11 13  2  0  0  0  0
 11  7  1  0  0  0  0
 12 11  1  0  0  0  0
 13  2  1  0  0  0  0
 14 13  1  0  0  0  0
 15  1  1  0  0  0  0
 16 15  1  0  0  0  0
 17 18  1  0  0  0  0
 19 17  2  0  0  0  0
 19 20  1  0  0  0  0
M  END
