2,3
q = 0.0, confidence = 0.984

 32 36  0  0  0  0  0  0  0  0999 V2000
    2.3917    2.3985   -0.0316 N   0  0  0  0  0  0  0  0  0  0  0  0
   -0.0115   -1.7335    0.4139 N   0  0  0  0  0  2  0  0  0  0  0  0
   -0.0405    0.9401    0.1930 N   0  0  0  0  0  2  0  0  0  0  0  0
    4.7886    1.0727   -0.1944 N   0  0  0  0  0  0  0  0  0  0  0  0
    1.1954   -1.1151    0.2569 C   0  0  0  0  0  0  0  0  0  0  0  0
    1.1649    0.3273    0.1400 C   0  0  0  0  0  0  0  0  0  0  0  0
    1.2008    3.0317    0.0739 C   0  0  0  0  0  0  0  0  0  0  0  0
    1.1839    4.4590    0.0573 C   0  0  0  0  0  0  0  0  0  0  0  0
    2.1516    4.9665   -0.0613 H   0  0  0  0  0  0  0  0  0  0  0  0
   -0.0508    2.3119    0.2107 C   0  0  0  0  0  0  0  0  0  0  0  0
    2.3882    1.0706    0.0264 C   0  0  0  0  0  0  0  0  0  0  0  0
   -0.0465   -3.0644    0.5990 C   0  0  0  0  0  0  0  0  0  0  0  0
   -1.0416   -3.5169    0.7126 H   0  0  0  0  0  0  0  0  0  0  0  0
    3.6685    0.3388   -0.0352 C   0  0  0  0  0  0  0  0  0  0  0  0
    2.4269   -1.8242    0.2627 C   0  0  0  0  0  0  0  0  0  0  0  0
    1.1206   -3.8406    0.6260 C   0  0  0  0  0  0  0  0  0  0  0  0
    1.0446   -4.9262    0.7770 H   0  0  0  0  0  0  0  0  0  0  0  0
    6.0917   -0.9607   -0.1556 C   0  0  0  0  0  0  0  0  0  0  0  0
    7.0826   -1.4342   -0.2141 H   0  0  0  0  0  0  0  0  0  0  0  0
    2.3596   -3.2220    0.4500 C   0  0  0  0  0  0  0  0  0  0  0  0
    3.2759   -3.8279    0.4640 H   0  0  0  0  0  0  0  0  0  0  0  0
    3.6793   -1.0853    0.0806 C   0  0  0  0  0  0  0  0  0  0  0  0
    4.9398   -1.7237    0.0142 C   0  0  0  0  0  0  0  0  0  0  0  0
    5.0165   -2.8177    0.0895 H   0  0  0  0  0  0  0  0  0  0  0  0
   -1.2545    3.0491    0.3743 C   0  0  0  0  0  0  0  0  0  0  0  0
   -2.1933    2.5031    0.5195 H   0  0  0  0  0  0  0  0  0  0  0  0
   -0.0078    5.1473    0.2004 C   0  0  0  0  0  0  0  0  0  0  0  0
   -0.0165    6.2474    0.1909 H   0  0  0  0  0  0  0  0  0  0  0  0
   -1.2282    4.4351    0.3720 C   0  0  0  0  0  0  0  0  0  0  0  0
   -2.1681    4.9911    0.5048 H   0  0  0  0  0  0  0  0  0  0  0  0
    5.9583    0.4415   -0.2535 C   0  0  0  0  0  0  0  0  0  0  0  0
    6.8537    1.0750   -0.3880 H   0  0  0  0  0  0  0  0  0  0  0  0
  1 11  2  0  0  0  0
  1  7  1  0  0  0  0
  2 12  1  0  0  0  0
  3 10  1  0  0  0  0
  4 14  1  0  0  0  0
  5 15  1  0  0  0  0
  5  2  1  0  0  0  0
  6  3  1  0  0  0  0
  6  5  2  0  0  0  0
  7 10  1  0  0  0  0
  8  7  2  0  0  0  0
  8 27  1  0  0  0  0
  9  8  1  0  0  0  0
 10 25  2  0  0  0  0
 11  6  1  0  0  0  0
 12 16  2  0  0  0  0
 12 13  1  0  0  0  0
 14 11  1  0  0  0  0
 14 22  2  0  0  0  0
 15 20  2  0  0  0  0
 16 17  1  0  0  0  0
 18 23  2  0  0  0  0
 19 18  1  0  0  0  0
 20 21  1  0  0  0  0
 20 16  1  0  0  0  0
 22 15  1  0  0  0  0
 23 22  1  0  0  0  0
 23 24  1  0  0  0  0
 25 26  1  0  0  0  0
 27 29  2  0  0  0  0
 28 27  1  0  0  0  0
 29 25  1  0  0  0  0
 29 30  1  0  0  0  0
 31  4  2  0  0  0  0
 31 18  1  0  0  0  0
 32 31  1  0  0  0  0
M  END
