1,3
q = 0.0, confidence = 0.998

 30 29  0  0  0  0  0  0  0  0999 V2000
   -1.4393    1.2677    0.2872 N   0  0  0  0  0  0  0  0  0  0  0  0
   -1.4418    1.3015    1.3184 H   0  0  0  0  0  0  0  0  0  0  0  0
    1.4349    1.2681   -0.3005 N   0  0  0  0  0  0  0  0  0  0  0  0
    1.4375    1.2929   -1.3320 H   0  0  0  0  0  0  0  0  0  0  0  0
    3.4384   -0.1274   -0.4821 C   0  0  0  0  0  0  0  0  0  0  0  0
    2.8195   -1.0233   -0.2896 H   0  0  0  0  0  0  0  0  0  0  0  0
    4.4554   -0.3178   -0.0878 H   0  0  0  0  0  0  0  0  0  0  0  0
    3.5219    0.0050   -1.5818 H   0  0  0  0  0  0  0  0  0  0  0  0
    3.7075    2.3497   -0.0742 C   0  0  0  0  0  0  0  0  0  0  0  0
    4.7412    2.1639    0.2793 H   0  0  0  0  0  0  0  0  0  0  0  0
    3.3360    3.2485    0.4563 H   0  0  0  0  0  0  0  0  0  0  0  0
    3.7622    2.5866   -1.1585 H   0  0  0  0  0  0  0  0  0  0  0  0
    2.8307    1.1129    0.1698 C   0  0  0  0  0  0  0  0  0  0  0  0
    2.7622    0.9376    1.2668 H   0  0  0  0  0  0  0  0  0  0  0  0
    0.7281    2.4462    0.2031 C   0  0  0  0  0  0  0  0  0  0  0  0
    1.1852    3.4086   -0.1263 H   0  0  0  0  0  0  0  0  0  0  0  0
    0.7918    2.4318    1.3136 H   0  0  0  0  0  0  0  0  0  0  0  0
   -0.7347    2.4429   -0.2264 C   0  0  0  0  0  0  0  0  0  0  0  0
   -1.1938    3.4072    0.0949 H   0  0  0  0  0  0  0  0  0  0  0  0
   -0.7985    2.4191   -1.3367 H   0  0  0  0  0  0  0  0  0  0  0  0
   -2.8352    1.1070   -0.1811 C   0  0  0  0  0  0  0  0  0  0  0  0
   -2.7672    0.9253   -1.2772 H   0  0  0  0  0  0  0  0  0  0  0  0
   -3.4404   -0.1303    0.4786 C   0  0  0  0  0  0  0  0  0  0  0  0
   -2.8211   -1.0267    0.2897 H   0  0  0  0  0  0  0  0  0  0  0  0
   -4.4580   -0.3237    0.0874 H   0  0  0  0  0  0  0  0  0  0  0  0
   -3.5217    0.0081    1.5777 H   0  0  0  0  0  0  0  0  0  0  0  0
   -3.7139    2.3438    0.0561 C   0  0  0  0  0  0  0  0  0  0  0  0
   -4.7475    2.1543   -0.2957 H   0  0  0  0  0  0  0  0  0  0  0  0
   -3.3443    3.2401   -0.4799 H   0  0  0  0  0  0  0  0  0  0  0  0
   -3.7684    2.5869    1.1390 H   0  0  0  0  0  0  0  0  0  0  0  0
  1  2  1  0  0  0  0
  3 13  1  0  0  0  0
  3 15  1  0  0  0  0
  4  3  1  0  0  0  0
  5  6  1  0  0  0  0
  5  7  1  0  0  0  0
  5 13  1  0  0  0  0
  8  5  1  0  0  0  0
  9 13  1  0  0  0  0
  9 10  1  0  0  0  0
  9 11  1  0  0  0  0
 12  9  1  0  0  0  0
 13 14  1  0  0  0  0
 15 17  1  0  0  0  0
 16 15  1  0  0  0  0
 18 19  1  0  0  0  0
 18 15  1  0  0  0  0
 18  1  1  0  0  0  0
 20 18  1  0  0  0  0
 21 27  1  0  0  0  0
 21  1  1  0  0  0  0
 21 23  1  0  0  0  0
 22 21  1  0  0  0  0
 23 26  1  0  0  0  0
 24 23  1  0  0  0  0
 25 23  1  0  0  0  0
 27 30  1  0  0  0  0
 28 27  1  0  0  0  0
 29 27  1  0  0  0  0
M  END
