5,6
q = -1.0, confidence = 0.018

 29 28  0  0  0  0  0  0  0  0999 V2000
   -2.0386    2.1707    0.0382 O   0  0  0  0  0  0  0  0  0  0  0  0
   -0.5824   -2.8240   -0.0590 O   0  0  0  0  0  1  0  0  0  0  0  0
   -6.5596    0.3762   -0.0697 C   0  0  0  0  0  0  0  0  0  0  0  0
   -4.1092    0.4176   -0.0371 N   0  0  0  0  0  0  0  0  0  0  0  0
   -1.1246   -1.6756   -0.0383 N   0  0  0  0  0  2  0  0  0  0  0  0
   -1.8006    0.8257    0.0107 N   0  0  0  0  0  2  0  0  0  0  0  0
  -10.3943   -0.4849    0.1077 C   0  0  0  0  0  0  0  0  0  0  0  0
   -2.4334   -1.4355   -0.0354 C   0  0  0  0  0  0  0  0  0  0  0  0
   -9.1194    0.3379   -0.1003 C   0  0  0  0  0  0  0  0  0  0  0  0
   -5.2775   -0.4136    0.1869 C   0  0  0  0  0  0  0  0  0  0  0  0
   -2.8179   -0.0220   -0.0122 C   0  0  0  0  0  0  0  0  0  0  0  0
   -7.8295   -0.4500    0.1420 C   0  0  0  0  0  0  0  0  0  0  0  0
  -11.6778    0.3096   -0.1353 C   0  0  0  0  0  0  0  0  0  0  0  0
   -6.5791    1.2631    0.6038 H   0  0  0  0  0  0  0  0  0  0  0  0
   -6.5329    0.7763   -1.1069 H   0  0  0  0  0  0  0  0  0  0  0  0
  -10.3973   -0.8956    1.1421 H   0  0  0  0  0  0  0  0  0  0  0  0
  -10.3687   -1.3714   -0.5645 H   0  0  0  0  0  0  0  0  0  0  0  0
   -3.1500   -2.2689   -0.0501 H   0  0  0  0  0  0  0  0  0  0  0  0
   -9.1402    1.2255    0.5720 H   0  0  0  0  0  0  0  0  0  0  0  0
   -9.1107    0.7486   -1.1354 H   0  0  0  0  0  0  0  0  0  0  0  0
   -5.2947   -0.8286    1.2244 H   0  0  0  0  0  0  0  0  0  0  0  0
   -5.2423   -1.2875   -0.4997 H   0  0  0  0  0  0  0  0  0  0  0  0
   -7.8367   -0.8588    1.1776 H   0  0  0  0  0  0  0  0  0  0  0  0
   -7.8083   -1.3370   -0.5305 H   0  0  0  0  0  0  0  0  0  0  0  0
  -12.5821   -0.3118    0.0227 H   0  0  0  0  0  0  0  0  0  0  0  0
  -11.7478    1.1816    0.5482 H   0  0  0  0  0  0  0  0  0  0  0  0
  -11.7189    0.7018   -1.1730 H   0  0  0  0  0  0  0  0  0  0  0  0
   -4.2035    1.4255    0.1137 H   0  0  0  0  0  0  0  0  0  0  0  0
   -1.0881    2.5590    0.0539 H   0  0  0  0  0  0  0  0  0  0  0  0
  1 29  1  0  0  0  0
  2  5  1  0  0  0  0
  3 12  1  0  0  0  0
  3 10  1  0  0  0  0
  3 14  1  0  0  0  0
  4 11  1  0  0  0  0
  4 28  1  0  0  0  0
  4 10  1  0  0  0  0
  5  8  1  0  0  0  0
  6  1  1  0  0  0  0
  7 16  1  0  0  0  0
  8 11  2  0  0  0  0
  9  7  1  0  0  0  0
  9 12  1  0  0  0  0
  9 19  1  0  0  0  0
 10 21  1  0  0  0  0
 11  6  1  0  0  0  0
 12 23  1  0  0  0  0
 13 25  1  0  0  0  0
 13  7  1  0  0  0  0
 13 26  1  0  0  0  0
 15  3  1  0  0  0  0
 17  7  1  0  0  0  0
 18  8  1  0  0  0  0
 20  9  1  0  0  0  0
 22 10  1  0  0  0  0
 24 12  1  0  0  0  0
 27 13  1  0  0  0  0
M  END
