1,2
q = -1.0, confidence = 0.0

 31 32  0  0  1  0  0  0  0  0999 V2000
    0.9307    1.3408   -1.1211 N   0  0  0  0  0  2  0  0  0  0  0  0
    2.0062    0.2100    0.5080 N   0  0  0  0  0  2  0  0  0  0  0  0
   -0.5574    2.3428   -2.7670 C   0  0  0  0  0  0  0  0  0  0  0  0
   -1.4072    2.5685   -2.0892 H   0  0  0  0  0  0  0  0  0  0  0  0
   -0.7544    1.3447   -3.2054 H   0  0  0  0  0  0  0  0  0  0  0  0
   -0.5456    3.0976   -3.5750 H   0  0  0  0  0  0  0  0  0  0  0  0
    0.7346    2.3423   -1.9975 C   0  0  1  0  0  3  0  0  0  0  0  0
    1.7031    3.3486   -2.1632 C   0  0  0  0  0  0  0  0  0  0  0  0
    1.5389    4.1576   -2.8879 H   0  0  0  0  0  0  0  0  0  0  0  0
    2.8791    3.2860   -1.3920 C   0  0  0  0  0  0  0  0  0  0  0  0
    3.6549    4.0578   -1.5181 H   0  0  0  0  0  0  0  0  0  0  0  0
    3.0810    2.2561   -0.4734 C   0  0  0  0  0  0  0  0  0  0  0  0
    4.0062    2.1882    0.1116 H   0  0  0  0  0  0  0  0  0  0  0  0
    2.0585    1.2725   -0.3407 C   0  0  0  0  0  0  0  0  0  0  0  0
    3.1207   -0.0149    1.4130 C   0  0  1  0  0  0  0  0  0  0  0  0
    3.3733    0.9437    1.9316 H   0  0  0  0  0  0  0  0  0  0  0  0
    2.7530   -1.0361    2.4962 C   0  0  0  0  0  0  0  0  0  0  0  0
    1.8269   -0.7363    3.0254 H   0  0  0  0  0  0  0  0  0  0  0  0
    3.5767   -1.1294    3.2304 H   0  0  0  0  0  0  0  0  0  0  0  0
    2.5855   -2.0332    2.0463 H   0  0  0  0  0  0  0  0  0  0  0  0
    4.3838   -0.4744    0.6816 C   0  0  0  0  0  0  0  0  0  0  0  0
    5.6569   -0.0431    1.0973 C   0  0  0  0  0  0  0  0  0  0  0  0
    5.7386    0.6687    1.9358 H   0  0  0  0  0  0  0  0  0  0  0  0
    6.8168   -0.5027    0.4535 C   0  0  0  0  0  0  0  0  0  0  0  0
    7.8053   -0.1506    0.7869 H   0  0  0  0  0  0  0  0  0  0  0  0
    6.7151   -1.4031   -0.6185 C   0  0  0  0  0  0  0  0  0  0  0  0
    7.6226   -1.7606   -1.1287 H   0  0  0  0  0  0  0  0  0  0  0  0
    5.4479   -1.8392   -1.0398 C   0  0  0  0  0  0  0  0  0  0  0  0
    5.3589   -2.5423   -1.8826 H   0  0  0  0  0  0  0  0  0  0  0  0
    4.2917   -1.3782   -0.3941 C   0  0  0  0  0  0  0  0  0  0  0  0
    3.2949   -1.7054   -0.7279 H   0  0  0  0  0  0  0  0  0  0  0  0
  1 14  1  0  0  0  0
  2 15  1  0  0  0  0
  3  4  1  0  0  0  0
  5  3  1  0  0  0  0
  6  3  1  0  0  0  0
  7  3  1  1  0  0  0
  7  1  1  0  0  0  0
  8  7  1  0  0  0  0
  8 10  2  0  0  0  0
  9  8  1  0  0  0  0
 10 12  1  0  0  0  0
 11 10  1  0  0  0  0
 12 14  2  0  0  0  0
 12 13  1  0  0  0  0
 14  2  1  0  0  0  0
 15 16  1  1  0  0  0
 15 17  1  0  0  0  0
 17 18  1  0  0  0  0
 17 19  1  0  0  0  0
 20 17  1  0  0  0  0
 21 22  1  0  0  0  0
 21 15  1  0  0  0  0
 22 23  1  0  0  0  0
 24 25  1  0  0  0  0
 24 22  2  0  0  0  0
 26 24  1  0  0  0  0
 27 26  1  0  0  0  0
 28 26  2  0  0  0  0
 28 30  1  0  0  0  0
 29 28  1  0  0  0  0
 30 21  2  0  0  0  0
 31 30  1  0  0  0  0
M  END
