1,2
q = 0.0, confidence = 0.956

 56 61  0  0  1  0  0  0  0  0999 V2000
   -1.3464   -0.8513    0.0001 N   0  0  0  0  0  2  0  0  0  0  0  0
    1.3464   -0.8512    0.0001 N   0  0  0  0  0  2  0  0  0  0  0  0
   -0.7257   -1.9966    0.0002 C   0  0  0  0  0  0  0  0  0  0  0  0
   -1.2696   -2.9540    0.0002 H   0  0  0  0  0  0  0  0  0  0  0  0
    0.7258   -1.9966    0.0002 C   0  0  0  0  0  0  0  0  0  0  0  0
    1.2697   -2.9539    0.0002 H   0  0  0  0  0  0  0  0  0  0  0  0
   -2.8278   -0.7997    0.0000 C   0  0  1  0  0  0  0  0  0  0  0  0
   -3.2858   -0.0444   -1.2766 C   0  0  0  0  0  0  0  0  0  0  0  0
   -2.9581   -0.6207   -2.1671 H   0  0  0  0  0  0  0  0  0  0  0  0
   -2.7964    0.9466   -1.3421 H   0  0  0  0  0  0  0  0  0  0  0  0
   -4.8179    0.1183   -1.2590 C   0  0  1  0  0  0  0  0  0  0  0  0
   -5.1143    0.6801   -2.1688 H   0  0  0  0  0  0  0  0  0  0  0  0
   -5.4760   -1.2719   -1.2589 C   0  0  0  0  0  0  0  0  0  0  0  0
   -6.5809   -1.1718   -1.2721 H   0  0  0  0  0  0  0  0  0  0  0  0
   -5.1932   -1.8329   -2.1749 H   0  0  0  0  0  0  0  0  0  0  0  0
   -5.0343   -2.0393    0.0001 C   0  0  1  0  0  0  0  0  0  0  0  0
   -5.4807   -3.0546    0.0002 H   0  0  0  0  0  0  0  0  0  0  0  0
   -3.4972   -2.1908    0.0002 C   0  0  0  0  0  0  0  0  0  0  0  0
   -3.1846   -2.7667   -0.8979 H   0  0  0  0  0  0  0  0  0  0  0  0
   -5.2398    0.9010   -0.0003 C   0  0  0  0  0  0  0  0  0  0  0  0
   -6.3387    1.0516   -0.0004 H   0  0  0  0  0  0  0  0  0  0  0  0
   -4.7781    1.9110   -0.0004 H   0  0  0  0  0  0  0  0  0  0  0  0
    2.8278   -0.7997    0.0000 C   0  0  1  0  0  0  0  0  0  0  0  0
    3.4972   -2.1908    0.0001 C   0  0  0  0  0  0  0  0  0  0  0  0
    3.1846   -2.7666   -0.8980 H   0  0  0  0  0  0  0  0  0  0  0  0
    5.0343   -2.0393    0.0001 C   0  0  1  0  0  0  0  0  0  0  0  0
    5.4807   -3.0546    0.0002 H   0  0  0  0  0  0  0  0  0  0  0  0
    5.4761   -1.2719   -1.2589 C   0  0  0  0  0  0  0  0  0  0  0  0
    5.1932   -1.8328   -2.1749 H   0  0  0  0  0  0  0  0  0  0  0  0
    6.5809   -1.1718   -1.2721 H   0  0  0  0  0  0  0  0  0  0  0  0
    4.8180    0.1184   -1.2589 C   0  0  1  0  0  0  0  0  0  0  0  0
    5.1144    0.6802   -2.1688 H   0  0  0  0  0  0  0  0  0  0  0  0
    3.2859   -0.0443   -1.2765 C   0  0  0  0  0  0  0  0  0  0  0  0
    2.9582   -0.6206   -2.1671 H   0  0  0  0  0  0  0  0  0  0  0  0
    2.7964    0.9467   -1.3420 H   0  0  0  0  0  0  0  0  0  0  0  0
    5.2399    0.9011   -0.0002 C   0  0  0  0  0  0  0  0  0  0  0  0
    4.7782    1.9110   -0.0003 H   0  0  0  0  0  0  0  0  0  0  0  0
    6.3388    1.0516   -0.0003 H   0  0  0  0  0  0  0  0  0  0  0  0
   -3.2859   -0.0440    1.2763 C   0  0  0  0  0  0  0  0  0  0  0  0
   -2.9582   -0.6201    2.1671 H   0  0  0  0  0  0  0  0  0  0  0  0
   -2.7964    0.9469    1.3416 H   0  0  0  0  0  0  0  0  0  0  0  0
   -4.8180    0.1187    1.2586 C   0  0  2  0  0  0  0  0  0  0  0  0
   -5.1145    0.6807    2.1683 H   0  0  0  0  0  0  0  0  0  0  0  0
   -5.4761   -1.2716    1.2589 C   0  0  0  0  0  0  0  0  0  0  0  0
   -6.5810   -1.1714    1.2720 H   0  0  0  0  0  0  0  0  0  0  0  0
   -5.1933   -1.8323    2.1750 H   0  0  0  0  0  0  0  0  0  0  0  0
   -3.1846   -2.7664    0.8985 H   0  0  0  0  0  0  0  0  0  0  0  0
    3.1846   -2.7664    0.8984 H   0  0  0  0  0  0  0  0  0  0  0  0
    5.4761   -1.2716    1.2589 C   0  0  0  0  0  0  0  0  0  0  0  0
    5.1934   -1.8324    2.1750 H   0  0  0  0  0  0  0  0  0  0  0  0
    6.5810   -1.1715    1.2720 H   0  0  0  0  0  0  0  0  0  0  0  0
    4.8180    0.1186    1.2587 C   0  0  2  0  0  0  0  0  0  0  0  0
    5.1145    0.6806    2.1683 H   0  0  0  0  0  0  0  0  0  0  0  0
    3.2859   -0.0440    1.2764 C   0  0  0  0  0  0  0  0  0  0  0  0
    2.9583   -0.6201    2.1671 H   0  0  0  0  0  0  0  0  0  0  0  0
    2.7965    0.9470    1.3417 H   0  0  0  0  0  0  0  0  0  0  0  0
  1  3  1  0  0  0  0
  2  5  1  0  0  0  0
  3  5  2  0  0  0  0
  3  4  1  0  0  0  0
  5  6  1  0  0  0  0
  7  1  1  1  0  0  0
  7 18  1  0  0  0  0
  7 39  1  0  0  0  0
  8 11  1  0  0  0  0
  8  7  1  0  0  0  0
  9  8  1  0  0  0  0
 10  8  1  0  0  0  0
 11 12  1  6  0  0  0
 11 13  1  0  0  0  0
 11 20  1  0  0  0  0
 13 16  1  0  0  0  0
 14 13  1  0  0  0  0
 15 13  1  0  0  0  0
 16 18  1  0  0  0  0
 16 17  1  1  0  0  0
 16 44  1  0  0  0  0
 18 47  1  0  0  0  0
 19 18  1  0  0  0  0
 20 42  1  0  0  0  0
 21 20  1  0  0  0  0
 22 20  1  0  0  0  0
 23  2  1  1  0  0  0
 23 24  1  0  0  0  0
 23 54  1  0  0  0  0
 24 48  1  0  0  0  0
 25 24  1  0  0  0  0
 26 24  1  0  0  0  0
 26 27  1  1  0  0  0
 26 49  1  0  0  0  0
 28 31  1  0  0  0  0
 28 26  1  0  0  0  0
 29 28  1  0  0  0  0
 30 28  1  0  0  0  0
 31 32  1  6  0  0  0
 31 36  1  0  0  0  0
 33 31  1  0  0  0  0
 33 23  1  0  0  0  0
 34 33  1  0  0  0  0
 35 33  1  0  0  0  0
 36 52  1  0  0  0  0
 37 36  1  0  0  0  0
 38 36  1  0  0  0  0
 39 41  1  0  0  0  0
 39 40  1  0  0  0  0
 42 44  1  0  0  0  0
 42 39  1  0  0  0  0
 42 43  1  1  0  0  0
 44 45  1  0  0  0  0
 44 46  1  0  0  0  0
 49 51  1  0  0  0  0
 49 50  1  0  0  0  0
 52 49  1  0  0  0  0
 52 54  1  0  0  0  0
 52 53  1  1  0  0  0
 54 56  1  0  0  0  0
 54 55  1  0  0  0  0
M  END
