2,3
q = 0.0, confidence = 1.0

 23 26  0  0  1  0  0  0  0  0999 V2000
    4.4460    0.0000    1.1132 O   0  0  0  0  0  0  0  0  0  0  0  0
    0.4401   -1.3390    0.1159 N   0  0  0  0  0  2  0  0  0  0  0  0
    0.4401    1.3390    0.1159 N   0  0  0  0  0  2  0  0  0  0  0  0
    0.3786   -2.6849    0.0454 C   0  0  0  0  0  3  0  0  0  0  0  0
   -0.6255   -3.1275    0.1089 H   0  0  0  0  0  0  0  0  0  0  0  0
    1.5188   -3.4776   -0.1245 C   0  0  0  0  0  0  0  0  0  0  0  0
    1.4138   -4.5692   -0.1928 H   0  0  0  0  0  0  0  0  0  0  0  0
    2.7749   -2.8603   -0.1999 C   0  0  0  0  0  0  0  0  0  0  0  0
    3.6911   -3.4568   -0.3266 H   0  0  0  0  0  0  0  0  0  0  0  0
    2.8577   -1.4652   -0.0901 C   0  0  0  0  0  0  0  0  0  0  0  0
    1.6558   -0.7306    0.0436 C   0  0  0  0  0  0  0  0  0  0  0  0
    1.6558    0.7306    0.0436 C   0  0  1  0  0  3  0  0  0  0  0  0
    2.8577    1.4652   -0.0902 C   0  0  0  0  0  0  0  0  0  0  0  0
    2.7749    2.8603   -0.2000 C   0  0  0  0  0  0  0  0  0  0  0  0
    3.6911    3.4568   -0.3267 H   0  0  0  0  0  0  0  0  0  0  0  0
    1.5188    3.4776   -0.1246 C   0  0  0  0  0  0  0  0  0  0  0  0
    1.4138    4.5692   -0.1929 H   0  0  0  0  0  0  0  0  0  0  0  0
    0.3786    2.6849    0.0453 C   0  0  0  0  0  0  0  0  0  0  0  0
   -0.6255    3.1275    0.1088 H   0  0  0  0  0  0  0  0  0  0  0  0
    4.1571    0.7455   -0.0772 C   0  0  2  0  0  0  0  0  0  0  0  0
    5.0202    1.2851   -0.5106 H   0  0  0  0  0  0  0  0  0  0  0  0
    4.1571   -0.7455   -0.0772 C   0  0  1  0  0  0  0  0  0  0  0  0
    5.0202   -1.2851   -0.5106 H   0  0  0  0  0  0  0  0  0  0  0  0
  4  5  1  0  0  0  0
  4  2  1  0  0  0  0
  6  4  1  0  0  0  0
  7  6  1  0  0  0  0
  8  6  2  0  0  0  0
  8 10  1  0  0  0  0
  9  8  1  0  0  0  0
 10 22  1  0  0  0  0
 10 11  2  0  0  0  0
 11  2  1  0  0  0  0
 12 13  1  6  0  0  0
 12 11  1  0  0  0  0
 12  3  1  0  0  0  0
 13 20  1  0  0  0  0
 14 16  1  0  0  0  0
 14 13  2  0  0  0  0
 15 14  1  0  0  0  0
 16 18  2  0  0  0  0
 17 16  1  0  0  0  0
 18 19  1  0  0  0  0
 18  3  1  0  0  0  0
 20 21  1  6  0  0  0
 20 22  1  0  0  0  0
 20  1  1  0  0  0  0
 22 23  1  6  0  0  0
 22  1  1  0  0  0  0
M  END
