3,20
q = -1.0, confidence = 0.004

 33 36  0  0  1  0  0  0  0  0999 V2000
   -0.8572   -2.6291   -1.9560 S   0  0  0  0  0  0  0  0  0  0  0  0
    0.1199    3.5693   -1.0362 S   0  0  0  0  0  0  0  0  0  0  0  0
    1.2856   -1.0855   -1.1834 N   0  0  0  0  0  2  0  0  0  0  0  0
    1.6716   -1.4163   -2.0712 H   0  0  0  0  0  0  0  0  0  0  0  0
    0.0808   -1.5229   -0.9259 C   0  0  2  0  0  3  0  0  0  0  0  0
   -0.5910   -1.1916    0.2186 N   0  0  0  0  0  0  0  0  0  0  0  0
   -1.7936   -1.8845    0.3786 C   0  0  0  0  0  0  0  0  0  0  0  0
   -2.6505   -1.8646    1.4933 C   0  0  0  0  0  0  0  0  0  0  0  0
   -2.3779   -1.2783    2.3811 H   0  0  0  0  0  0  0  0  0  0  0  0
   -3.8303   -2.6237    1.4623 C   0  0  0  0  0  0  0  0  0  0  0  0
   -4.4983   -2.6087    2.3361 H   0  0  0  0  0  0  0  0  0  0  0  0
   -4.1644   -3.4061    0.3426 C   0  0  0  0  0  0  0  0  0  0  0  0
   -5.0944   -3.9929    0.3365 H   0  0  0  0  0  0  0  0  0  0  0  0
   -3.3054   -3.4572   -0.7674 C   0  0  0  0  0  0  0  0  0  0  0  0
   -3.5465   -4.0808   -1.6403 H   0  0  0  0  0  0  0  0  0  0  0  0
   -2.1274   -2.7034   -0.7323 C   0  0  0  0  0  0  0  0  0  0  0  0
   -0.1017    0.0138    1.0608 B   0  0  0  0  0  0  0  0  0  0  0  0
   -0.6614    0.0320    2.1451 H   0  0  0  0  0  0  0  0  0  0  0  0
    1.1205   -0.1131    1.4077 H   0  0  0  0  0  0  0  0  0  0  0  0
    1.9020    1.5805   -0.4673 N   0  0  0  0  0  2  0  0  0  0  0  0
    2.5388    2.2257   -0.9405 H   0  0  0  0  0  0  0  0  0  0  0  0
    0.6765    2.0224   -0.3543 C   0  0  1  0  0  3  0  0  0  0  0  0
   -0.3186    1.3644    0.3156 N   0  0  0  0  0  0  0  0  0  0  0  0
   -1.5389    2.0496    0.3018 C   0  0  0  0  0  0  0  0  0  0  0  0
   -2.7510    1.6348    0.8794 C   0  0  0  0  0  0  0  0  0  0  0  0
   -2.8163    0.6720    1.3990 H   0  0  0  0  0  0  0  0  0  0  0  0
   -3.8791    2.4614    0.7673 C   0  0  0  0  0  0  0  0  0  0  0  0
   -4.8269    2.1326    1.2185 H   0  0  0  0  0  0  0  0  0  0  0  0
   -3.8195    3.6902    0.0869 C   0  0  0  0  0  0  0  0  0  0  0  0
   -4.7157    4.3226    0.0081 H   0  0  0  0  0  0  0  0  0  0  0  0
   -2.6173    4.1151   -0.5019 C   0  0  0  0  0  0  0  0  0  0  0  0
   -2.5576    5.0722   -1.0399 H   0  0  0  0  0  0  0  0  0  0  0  0
   -1.4943    3.2888   -0.3885 C   0  0  0  0  0  0  0  0  0  0  0  0
  1  5  1  0  0  0  0
  1 16  1  0  0  0  0
  2 33  1  0  0  0  0
  2 22  1  0  0  0  0
  4  3  1  0  0  0  0
  5  3  1  1  0  0  0
  5  6  1  0  0  0  0
  6  7  1  0  0  0  0
  6 17  1  0  0  0  0
  7  8  1  0  0  0  0
  8  9  1  0  0  0  0
 10  8  2  0  0  0  0
 10 11  1  0  0  0  0
 12 10  1  0  0  0  0
 13 12  1  0  0  0  0
 14 16  1  0  0  0  0
 14 12  2  0  0  0  0
 15 14  1  0  0  0  0
 16  7  2  0  0  0  0
 17 19  1  0  0  0  0
 17 18  1  0  0  0  0
 21 20  1  0  0  0  0
 22 20  1  1  0  0  0
 22 23  1  0  0  0  0
 23 17  1  0  0  0  0
 24 23  1  0  0  0  0
 24 25  1  0  0  0  0
 25 26  1  0  0  0  0
 27 25  2  0  0  0  0
 27 28  1  0  0  0  0
 29 27  1  0  0  0  0
 30 29  1  0  0  0  0
 31 33  1  0  0  0  0
 31 29  2  0  0  0  0
 32 31  1  0  0  0  0
 33 24  2  0  0  0  0
M  END
