3,4
q = 0.0, confidence = 0.988

 50 54  0  0  0  0  0  0  0  0999 V2000
   -6.8884   -0.7905    0.1280 O   0  0  0  0  0  0  0  0  0  0  0  0
    6.8885   -0.7902    0.1280 O   0  0  0  0  0  0  0  0  0  0  0  0
   -1.3356   -0.2538   -0.1231 N   0  0  0  0  0  2  0  0  0  0  0  0
    1.3357   -0.2536   -0.1231 N   0  0  0  0  0  2  0  0  0  0  0  0
   -1.1951    2.3192   -0.1079 C   0  0  0  0  0  0  0  0  0  0  0  0
   -2.4262    2.9700   -0.1908 C   0  0  0  0  0  0  0  0  0  0  0  0
   -3.3707    2.4103   -0.1727 H   0  0  0  0  0  0  0  0  0  0  0  0
   -2.4442    4.3891   -0.3012 C   0  0  0  0  0  0  0  0  0  0  0  0
   -3.4186    4.8964   -0.3650 H   0  0  0  0  0  0  0  0  0  0  0  0
   -1.2783    5.1535   -0.3323 C   0  0  0  0  0  0  0  0  0  0  0  0
   -1.3370    6.2494   -0.4189 H   0  0  0  0  0  0  0  0  0  0  0  0
    1.2775    5.1538   -0.3326 C   0  0  0  0  0  0  0  0  0  0  0  0
    1.3359    6.2497   -0.4192 H   0  0  0  0  0  0  0  0  0  0  0  0
    2.4435    4.3895   -0.3016 C   0  0  0  0  0  0  0  0  0  0  0  0
    3.4178    4.8970   -0.3656 H   0  0  0  0  0  0  0  0  0  0  0  0
    2.4258    2.9705   -0.1912 C   0  0  0  0  0  0  0  0  0  0  0  0
    3.3703    2.4110   -0.1733 H   0  0  0  0  0  0  0  0  0  0  0  0
    1.1948    2.3194   -0.1081 C   0  0  0  0  0  0  0  0  0  0  0  0
   -0.0002    3.1079   -0.1463 C   0  0  0  0  0  0  0  0  0  0  0  0
   -0.0004    4.5200   -0.2654 C   0  0  0  0  0  0  0  0  0  0  0  0
   -0.7370    0.9217   -0.0589 C   0  0  0  0  0  0  0  0  0  0  0  0
    0.7369    0.9218   -0.0589 C   0  0  0  0  0  0  0  0  0  0  0  0
   -2.7403   -0.3689   -0.0406 C   0  0  0  0  0  0  0  0  0  0  0  0
   -3.4548   -1.0720   -1.0384 C   0  0  0  0  0  0  0  0  0  0  0  0
   -2.9030   -1.5221   -1.8731 H   0  0  0  0  0  0  0  0  0  0  0  0
   -4.8411   -1.1703   -0.9616 C   0  0  0  0  0  0  0  0  0  0  0  0
   -5.4167   -1.6958   -1.7366 H   0  0  0  0  0  0  0  0  0  0  0  0
   -5.5422   -0.6219    0.1368 C   0  0  0  0  0  0  0  0  0  0  0  0
   -4.8270    0.0403    1.1596 C   0  0  0  0  0  0  0  0  0  0  0  0
   -5.3397    0.4445    2.0421 H   0  0  0  0  0  0  0  0  0  0  0  0
   -3.4357    0.1652    1.0606 C   0  0  0  0  0  0  0  0  0  0  0  0
   -2.8714    0.6624    1.8632 H   0  0  0  0  0  0  0  0  0  0  0  0
   -7.6426   -0.2872    1.2156 C   0  0  0  0  0  0  0  0  0  0  0  0
   -7.3439   -0.7582    2.1786 H   0  0  0  0  0  0  0  0  0  0  0  0
   -8.6988   -0.5370    1.0056 H   0  0  0  0  0  0  0  0  0  0  0  0
   -7.5441    0.8175    1.3119 H   0  0  0  0  0  0  0  0  0  0  0  0
    2.7404   -0.3687   -0.0406 C   0  0  0  0  0  0  0  0  0  0  0  0
    3.4549   -1.0719   -1.0383 C   0  0  0  0  0  0  0  0  0  0  0  0
    2.9031   -1.5221   -1.8729 H   0  0  0  0  0  0  0  0  0  0  0  0
    4.8412   -1.1701   -0.9615 C   0  0  0  0  0  0  0  0  0  0  0  0
    5.4168   -1.6957   -1.7364 H   0  0  0  0  0  0  0  0  0  0  0  0
    5.5424   -0.6216    0.1369 C   0  0  0  0  0  0  0  0  0  0  0  0
    4.8271    0.0407    1.1596 C   0  0  0  0  0  0  0  0  0  0  0  0
    5.3398    0.4449    2.0421 H   0  0  0  0  0  0  0  0  0  0  0  0
    3.4358    0.1656    1.0606 C   0  0  0  0  0  0  0  0  0  0  0  0
    2.8715    0.6628    1.8631 H   0  0  0  0  0  0  0  0  0  0  0  0
    7.6427   -0.2867    1.2156 C   0  0  0  0  0  0  0  0  0  0  0  0
    7.5442    0.8180    1.3117 H   0  0  0  0  0  0  0  0  0  0  0  0
    8.6989   -0.5365    1.0056 H   0  0  0  0  0  0  0  0  0  0  0  0
    7.3440   -0.7576    2.1786 H   0  0  0  0  0  0  0  0  0  0  0  0
  1 28  1  0  0  0  0
  1 33  1  0  0  0  0
  2 42  1  0  0  0  0
  2 47  1  0  0  0  0
  3 21  1  0  0  0  0
  3 23  1  0  0  0  0
  4 22  1  0  0  0  0
  4 37  1  0  0  0  0
  5 21  1  0  0  0  0
  6  7  1  0  0  0  0
  6  5  2  0  0  0  0
  8  6  1  0  0  0  0
  9  8  1  0  0  0  0
 10  8  2  0  0  0  0
 10 20  1  0  0  0  0
 11 10  1  0  0  0  0
 12 14  2  0  0  0  0
 12 20  1  0  0  0  0
 13 12  1  0  0  0  0
 14 16  1  0  0  0  0
 15 14  1  0  0  0  0
 16 17  1  0  0  0  0
 16 18  2  0  0  0  0
 18 22  1  0  0  0  0
 19 18  1  0  0  0  0
 19  5  1  0  0  0  0
 20 19  2  0  0  0  0
 22 21  2  0  0  0  0
 23 31  1  0  0  0  0
 24 26  1  0  0  0  0
 24 23  2  0  0  0  0
 25 24  1  0  0  0  0
 26 28  2  0  0  0  0
 27 26  1  0  0  0  0
 28 29  1  0  0  0  0
 29 30  1  0  0  0  0
 31 29  2  0  0  0  0
 31 32  1  0  0  0  0
 33 36  1  0  0  0  0
 33 34  1  0  0  0  0
 35 33  1  0  0  0  0
 37 45  1  0  0  0  0
 38 40  1  0  0  0  0
 38 37  2  0  0  0  0
 39 38  1  0  0  0  0
 40 42  2  0  0  0  0
 41 40  1  0  0  0  0
 42 43  1  0  0  0  0
 43 44  1  0  0  0  0
 45 43  2  0  0  0  0
 45 46  1  0  0  0  0
 47 48  1  0  0  0  0
 47 50  1  0  0  0  0
 49 47  1  0  0  0  0
M  END
