2,3
q = 0.0, confidence = 0.976

 29 29  0  0  0  0  0  0  0  0999 V2000
    7.3301   -0.1693    0.2139 Cl  0  0  0  0  0  0  0  0  0  0  0  0
   -1.9618   -1.9882   -0.4592 N   0  0  0  0  0  0  0  0  0  0  0  0
    0.3403   -0.5312   -0.0809 N   0  0  0  0  0  2  0  0  0  0  0  0
    3.5617    1.2144    0.3143 C   0  0  0  0  0  0  0  0  0  0  0  0
    4.9558    1.1641    0.2937 C   0  0  0  0  0  0  0  0  0  0  0  0
    5.5951   -0.0873    0.2333 C   0  0  0  0  0  0  0  0  0  0  0  0
    4.8424   -1.2744    0.2006 C   0  0  0  0  0  0  0  0  0  0  0  0
    3.4459   -1.2111    0.2052 C   0  0  0  0  0  0  0  0  0  0  0  0
    2.8888   -2.1549    0.2104 H   0  0  0  0  0  0  0  0  0  0  0  0
    2.7703    0.0366    0.2504 C   0  0  0  0  0  0  0  0  0  0  0  0
    1.3244    0.2467    0.2702 C   0  0  0  0  0  3  0  0  0  0  0  0
    0.9826    1.2418    0.6113 H   0  0  0  0  0  0  0  0  0  0  0  0
    0.5133   -1.8873   -0.6095 C   0  0  0  0  0  0  0  0  0  0  0  0
    0.7632   -2.5779    0.2251 H   0  0  0  0  0  0  0  0  0  0  0  0
    1.3552   -1.9291   -1.3326 H   0  0  0  0  0  0  0  0  0  0  0  0
   -0.7770   -2.3147   -1.2965 C   0  0  0  0  0  0  0  0  0  0  0  0
   -0.7550   -3.4050   -1.5298 H   0  0  0  0  0  0  0  0  0  0  0  0
   -0.8891   -1.7584   -2.2480 H   0  0  0  0  0  0  0  0  0  0  0  0
   -2.0256   -2.8054    0.7767 C   0  0  0  0  0  0  0  0  0  0  0  0
   -1.1107   -2.6606    1.3793 H   0  0  0  0  0  0  0  0  0  0  0  0
   -2.1334   -3.8844    0.5191 H   0  0  0  0  0  0  0  0  0  0  0  0
   -2.8937   -2.4394    1.3574 H   0  0  0  0  0  0  0  0  0  0  0  0
   -3.2020   -2.1767   -1.2432 C   0  0  0  0  0  0  0  0  0  0  0  0
   -3.2159   -1.4684   -2.0917 H   0  0  0  0  0  0  0  0  0  0  0  0
   -4.0621   -1.9806   -0.5799 H   0  0  0  0  0  0  0  0  0  0  0  0
   -3.2548   -3.2219   -1.6243 H   0  0  0  0  0  0  0  0  0  0  0  0
    3.0568    2.1911    0.3681 H   0  0  0  0  0  0  0  0  0  0  0  0
    5.5561    2.0836    0.3298 H   0  0  0  0  0  0  0  0  0  0  0  0
    5.3593   -2.2437    0.1769 H   0  0  0  0  0  0  0  0  0  0  0  0
  1  6  1  0  0  0  0
  2 19  1  0  0  0  0
  3 11  1  0  0  0  0
  4 27  1  0  0  0  0
  5  4  1  0  0  0  0
  5 28  1  0  0  0  0
  6  5  2  0  0  0  0
  7  8  2  0  0  0  0
  7  6  1  0  0  0  0
  8  9  1  0  0  0  0
  8 10  1  0  0  0  0
 10 11  1  0  0  0  0
 10  4  2  0  0  0  0
 11 12  1  0  0  0  0
 13  3  1  0  0  0  0
 13 14  1  0  0  0  0
 15 13  1  0  0  0  0
 16 13  1  0  0  0  0
 16  2  1  0  0  0  0
 17 16  1  0  0  0  0
 18 16  1  0  0  0  0
 19 22  1  0  0  0  0
 19 20  1  0  0  0  0
 21 19  1  0  0  0  0
 23 25  1  0  0  0  0
 23  2  1  0  0  0  0
 24 23  1  0  0  0  0
 26 23  1  0  0  0  0
 29  7  1  0  0  0  0
M  END
