5,6
q = -2.0, confidence = 0.646

 47 52  0  0  1  0  0  0  0  0999 V2000
    4.4645   -2.0368   -0.9016 Br  0  0  0  0  0  0  0  0  0  0  0  0
    4.4645    2.0367    0.9016 Br  0  0  0  0  0  0  0  0  0  0  0  0
    0.5861    3.3224    0.7638 O   0  0  0  0  0  0  0  0  0  0  0  0
    0.5861   -3.3223   -0.7639 O   0  0  0  0  0  0  0  0  0  0  0  0
   -0.5323   -1.3881   -0.4689 N   0  0  0  0  0  2  0  0  0  0  0  0
   -0.5322    1.3882    0.4689 N   0  0  0  0  0  2  0  0  0  0  0  0
    0.7485    1.0221    0.7869 C   0  0  1  0  0  3  0  0  0  0  0  0
    1.5052    0.0000    0.0000 C   0  0  2  0  0  0  0  0  0  0  0  0
   -0.5792   -2.7370   -0.3963 C   0  0  2  0  0  3  0  0  0  0  0  0
    0.7484   -1.0220   -0.7868 C   0  0  1  0  0  3  0  0  0  0  0  0
    2.3596   -0.9819    0.8739 C   0  0  0  0  0  0  0  0  0  0  0  0
    2.6981   -2.1983   -0.0091 C   0  0  1  0  0  0  0  0  0  0  0  0
   -1.5934    3.6170   -0.1531 C   0  0  0  0  0  0  0  0  0  0  0  0
    1.5500    2.2663    1.0433 C   0  0  1  0  0  0  0  0  0  0  0  0
    1.5499   -2.2662   -1.0433 C   0  0  1  0  0  0  0  0  0  0  0  0
   -1.5934   -3.6170    0.1528 C   0  0  0  0  0  0  0  0  0  0  0  0
    2.3595    0.9819   -0.8739 C   0  0  0  0  0  0  0  0  0  0  0  0
    2.6981    2.1984    0.0091 C   0  0  2  0  0  0  0  0  0  0  0  0
   -0.5791    2.7370    0.3962 C   0  0  2  0  0  3  0  0  0  0  0  0
   -3.4246   -4.0770    1.6928 C   0  0  0  0  0  0  0  0  0  0  0  0
   -1.5730    4.9868    0.2145 C   0  0  0  0  0  0  0  0  0  0  0  0
   -2.5258   -3.1717    1.1236 C   0  0  0  0  0  0  0  0  0  0  0  0
   -2.5259    3.1714   -1.1237 C   0  0  0  0  0  0  0  0  0  0  0  0
   -2.4897   -5.8790    0.3480 C   0  0  0  0  0  0  0  0  0  0  0  0
   -3.4194   -5.4263    1.3003 C   0  0  0  0  0  0  0  0  0  0  0  0
   -3.4247    4.0767   -1.6929 C   0  0  0  0  0  0  0  0  0  0  0  0
   -1.5732   -4.9867   -0.2151 C   0  0  0  0  0  0  0  0  0  0  0  0
   -2.4895    5.8790   -0.3487 C   0  0  0  0  0  0  0  0  0  0  0  0
   -3.4194    5.4261   -1.3008 C   0  0  0  0  0  0  0  0  0  0  0  0
   -2.4823   -6.9353    0.0408 H   0  0  0  0  0  0  0  0  0  0  0  0
   -4.1403   -6.1307    1.7427 H   0  0  0  0  0  0  0  0  0  0  0  0
   -4.1417   -3.7208    2.4466 H   0  0  0  0  0  0  0  0  0  0  0  0
   -2.5286   -2.1190    1.4394 H   0  0  0  0  0  0  0  0  0  0  0  0
   -0.8434   -5.3330   -0.9601 H   0  0  0  0  0  0  0  0  0  0  0  0
   -2.5288    2.1187   -1.4391 H   0  0  0  0  0  0  0  0  0  0  0  0
   -4.1420    3.7203   -2.4466 H   0  0  0  0  0  0  0  0  0  0  0  0
   -4.1402    6.1304   -1.7433 H   0  0  0  0  0  0  0  0  0  0  0  0
   -2.4820    6.9354   -0.0418 H   0  0  0  0  0  0  0  0  0  0  0  0
   -0.8431    5.3332    0.9593 H   0  0  0  0  0  0  0  0  0  0  0  0
    2.7668    3.1399   -0.5654 H   0  0  0  0  0  0  0  0  0  0  0  0
    2.7667   -3.1398    0.5654 H   0  0  0  0  0  0  0  0  0  0  0  0
    3.2516   -0.4964    1.3157 H   0  0  0  0  0  0  0  0  0  0  0  0
    1.7086   -1.3193    1.7087 H   0  0  0  0  0  0  0  0  0  0  0  0
    3.2515    0.4965   -1.3158 H   0  0  0  0  0  0  0  0  0  0  0  0
    1.7084    1.3194   -1.7086 H   0  0  0  0  0  0  0  0  0  0  0  0
    1.9192   -2.4325   -2.0784 H   0  0  0  0  0  0  0  0  0  0  0  0
    1.9192    2.4327    2.0783 H   0  0  0  0  0  0  0  0  0  0  0  0
  1 12  1  0  0  0  0
  3 14  1  0  0  0  0
  4  9  1  0  0  0  0
  5  9  1  0  0  0  0
  7  6  1  6  0  0  0
  7 14  1  0  0  0  0
  8 17  1  6  0  0  0
  8  7  1  0  0  0  0
  8 11  1  0  0  0  0
  9 16  1  1  0  0  0
 10  5  1  1  0  0  0
 10  8  1  0  0  0  0
 11 42  1  0  0  0  0
 11 43  1  0  0  0  0
 12 41  1  1  0  0  0
 12 11  1  0  0  0  0
 13 21  1  0  0  0  0
 14 47  1  1  0  0  0
 15 46  1  6  0  0  0
 15 10  1  0  0  0  0
 15  4  1  0  0  0  0
 15 12  1  0  0  0  0
 16 22  1  0  0  0  0
 17 18  1  0  0  0  0
 18 40  1  6  0  0  0
 18  2  1  0  0  0  0
 18 14  1  0  0  0  0
 19 13  1  6  0  0  0
 19  6  1  0  0  0  0
 19  3  1  0  0  0  0
 20 32  1  0  0  0  0
 21 39  1  0  0  0  0
 22 33  1  0  0  0  0
 22 20  2  0  0  0  0
 23 13  2  0  0  0  0
 24 25  2  0  0  0  0
 25 20  1  0  0  0  0
 25 31  1  0  0  0  0
 26 29  2  0  0  0  0
 26 23  1  0  0  0  0
 27 16  2  0  0  0  0
 27 24  1  0  0  0  0
 28 38  1  0  0  0  0
 28 21  2  0  0  0  0
 29 28  1  0  0  0  0
 30 24  1  0  0  0  0
 34 27  1  0  0  0  0
 35 23  1  0  0  0  0
 36 26  1  0  0  0  0
 37 29  1  0  0  0  0
 44 17  1  0  0  0  0
 45 17  1  0  0  0  0
M  END
