2,3
q = 0.0, confidence = 0.972

 30 31  0  0  0  0  0  0  0  0999 V2000
   -1.1078   -0.4687   -1.8440 N   0  0  0  0  0  0  0  0  0  0  0  0
    0.0317   -0.0708   -1.3877 N   0  0  0  0  0  2  0  0  0  0  0  0
   -1.9061    1.4052   -0.6216 N   0  0  0  0  0  2  0  0  0  0  0  0
   -3.4226    0.3026   -1.8257 N   0  0  0  0  0  0  0  0  0  0  0  0
    1.1542   -0.8841   -1.6371 C   0  0  0  0  0  0  0  0  0  0  0  0
   -2.1091    0.3527   -1.4468 C   0  0  0  0  0  0  0  0  0  0  0  0
    1.0553   -2.2917   -1.6109 C   0  0  0  0  0  0  0  0  0  0  0  0
    0.0778   -2.7566   -1.4200 H   0  0  0  0  0  0  0  0  0  0  0  0
    3.5312   -1.0471   -2.0771 C   0  0  0  0  0  0  0  0  0  0  0  0
    4.4949   -0.5587   -2.2895 H   0  0  0  0  0  0  0  0  0  0  0  0
    3.4659   -2.4600   -2.0228 C   0  0  0  0  0  0  0  0  0  0  0  0
    2.2077   -3.0615   -1.7896 C   0  0  0  0  0  0  0  0  0  0  0  0
    2.1362   -4.1591   -1.7443 H   0  0  0  0  0  0  0  0  0  0  0  0
   -3.0888    2.0575   -0.4763 C   0  0  0  0  0  0  0  0  0  0  0  0
   -3.1776    2.9588    0.1402 H   0  0  0  0  0  0  0  0  0  0  0  0
    4.7001   -3.2917   -2.2341 C   0  0  0  0  0  0  0  0  0  0  0  0
    4.9957   -3.2836   -3.3052 H   0  0  0  0  0  0  0  0  0  0  0  0
    4.5454   -4.3467   -1.9394 H   0  0  0  0  0  0  0  0  0  0  0  0
    5.5635   -2.8902   -1.6659 H   0  0  0  0  0  0  0  0  0  0  0  0
    2.3974   -0.2589   -1.8786 C   0  0  0  0  0  0  0  0  0  0  0  0
    2.4308    0.8371   -1.9536 H   0  0  0  0  0  0  0  0  0  0  0  0
   -4.0495    1.3663   -1.2220 C   0  0  0  0  0  0  0  0  0  0  0  0
   -5.1160    1.5659   -1.3694 H   0  0  0  0  0  0  0  0  0  0  0  0
   -4.0375   -0.7700   -2.6170 C   0  0  0  0  0  0  0  0  0  0  0  0
   -3.2719   -1.1118   -3.3397 H   0  0  0  0  0  0  0  0  0  0  0  0
   -4.8654   -0.3158   -3.1954 H   0  0  0  0  0  0  0  0  0  0  0  0
   -4.5230   -1.9220   -1.7401 C   0  0  0  0  0  0  0  0  0  0  0  0
   -3.6843   -2.3663   -1.1682 H   0  0  0  0  0  0  0  0  0  0  0  0
   -4.9682   -2.7122   -2.3755 H   0  0  0  0  0  0  0  0  0  0  0  0
   -5.2944   -1.5839   -1.0201 H   0  0  0  0  0  0  0  0  0  0  0  0
  1  6  2  0  0  0  0
  1  2  1  0  0  0  0
  3 14  1  0  0  0  0
  4  6  1  0  0  0  0
  4 22  1  0  0  0  0
  5  7  1  0  0  0  0
  5  2  1  0  0  0  0
  6  3  1  0  0  0  0
  7  8  1  0  0  0  0
  9 11  2  0  0  0  0
  9 20  1  0  0  0  0
 10  9  1  0  0  0  0
 11 12  1  0  0  0  0
 12 13  1  0  0  0  0
 12  7  2  0  0  0  0
 14 15  1  0  0  0  0
 16 11  1  0  0  0  0
 16 18  1  0  0  0  0
 16 19  1  0  0  0  0
 17 16  1  0  0  0  0
 20  5  2  0  0  0  0
 21 20  1  0  0  0  0
 22 14  2  0  0  0  0
 23 22  1  0  0  0  0
 24  4  1  0  0  0  0
 24 27  1  0  0  0  0
 25 24  1  0  0  0  0
 26 24  1  0  0  0  0
 27 28  1  0  0  0  0
 27 30  1  0  0  0  0
 29 27  1  0  0  0  0
M  END
