1,15
q = 0.0, confidence = 0.94

 34 36  0  0  0  0  0  0  0  0999 V2000
    1.7444   -0.7557   -0.3656 N   0  0  0  0  0  2  0  0  0  0  0  0
    3.1131   -0.8348   -0.5632 C   0  0  0  0  0  0  0  0  0  0  0  0
    4.0472    0.2187   -0.5085 C   0  0  0  0  0  0  0  0  0  0  0  0
    3.6989    1.2442   -0.3330 H   0  0  0  0  0  0  0  0  0  0  0  0
    5.3956   -0.0712   -0.7275 C   0  0  0  0  0  0  0  0  0  0  0  0
    6.1352    0.7420   -0.6975 H   0  0  0  0  0  0  0  0  0  0  0  0
    5.8243   -1.3899   -1.0018 C   0  0  0  0  0  0  0  0  0  0  0  0
    6.8923   -1.5905   -1.1701 H   0  0  0  0  0  0  0  0  0  0  0  0
    4.9084   -2.4462   -1.0808 C   0  0  0  0  0  0  0  0  0  0  0  0
    5.2417   -3.4677   -1.3129 H   0  0  0  0  0  0  0  0  0  0  0  0
    3.5524   -2.1595   -0.8663 C   0  0  0  0  0  0  0  0  0  0  0  0
    2.1923   -3.2708   -0.9387 S   0  0  0  0  0  0  0  0  0  0  0  0
    1.1251   -1.9377   -0.5726 C   0  0  0  0  0  0  0  0  0  0  0  0
   -0.2082   -2.0382   -0.5207 N   0  0  0  0  0  0  0  0  0  0  0  0
   -0.7607   -0.8702   -0.2605 N   0  0  0  0  0  2  0  0  0  0  0  0
   -2.1560   -0.8553   -0.2800 C   0  0  0  0  0  0  0  0  0  0  0  0
   -2.8555    0.3516   -0.5393 C   0  0  0  0  0  0  0  0  0  0  0  0
   -2.2759    1.2513   -0.7852 H   0  0  0  0  0  0  0  0  0  0  0  0
   -4.2402    0.3737   -0.5962 C   0  0  0  0  0  0  0  0  0  0  0  0
   -4.7393    1.3168   -0.8494 H   0  0  0  0  0  0  0  0  0  0  0  0
   -5.0086   -0.8151   -0.3761 C   0  0  0  0  0  0  0  0  0  0  0  0
   -4.2878   -2.0303   -0.1248 C   0  0  0  0  0  0  0  0  0  0  0  0
   -4.8291   -2.9671    0.0548 H   0  0  0  0  0  0  0  0  0  0  0  0
   -2.9049   -2.0504   -0.0974 C   0  0  0  0  0  0  0  0  0  0  0  0
   -2.3643   -2.9882    0.0863 H   0  0  0  0  0  0  0  0  0  0  0  0
   -6.3724   -0.7973   -0.4137 N   0  0  0  0  0  0  0  0  0  0  0  0
   -7.0859    0.4495   -0.6588 C   0  0  0  0  0  0  0  0  0  0  0  0
   -6.8287    1.2192    0.0990 H   0  0  0  0  0  0  0  0  0  0  0  0
   -8.1723    0.2651   -0.6032 H   0  0  0  0  0  0  0  0  0  0  0  0
   -6.8573    0.8623   -1.6650 H   0  0  0  0  0  0  0  0  0  0  0  0
   -7.1332   -2.0292   -0.2422 C   0  0  0  0  0  0  0  0  0  0  0  0
   -6.9520   -2.4857    0.7542 H   0  0  0  0  0  0  0  0  0  0  0  0
   -6.8768   -2.7789   -1.0203 H   0  0  0  0  0  0  0  0  0  0  0  0
   -8.2105   -1.8057   -0.3240 H   0  0  0  0  0  0  0  0  0  0  0  0
  2  3  1  0  0  0  0
  2  1  1  0  0  0  0
  3  4  1  0  0  0  0
  5  6  1  0  0  0  0
  5  3  2  0  0  0  0
  7  5  1  0  0  0  0
  8  7  1  0  0  0  0
  9  7  2  0  0  0  0
  9 11  1  0  0  0  0
 10  9  1  0  0  0  0
 11  2  2  0  0  0  0
 12 11  1  0  0  0  0
 12 13  1  0  0  0  0
 13 14  2  0  0  0  0
 13  1  1  0  0  0  0
 14 15  1  0  0  0  0
 16 15  1  0  0  0  0
 16 24  1  0  0  0  0
 17 16  2  0  0  0  0
 18 17  1  0  0  0  0
 19 17  1  0  0  0  0
 19 21  2  0  0  0  0
 20 19  1  0  0  0  0
 21 22  1  0  0  0  0
 22 24  2  0  0  0  0
 22 23  1  0  0  0  0
 24 25  1  0  0  0  0
 26 21  1  0  0  0  0
 26 31  1  0  0  0  0
 27 29  1  0  0  0  0
 27 26  1  0  0  0  0
 27 28  1  0  0  0  0
 30 27  1  0  0  0  0
 31 32  1  0  0  0  0
 33 31  1  0  0  0  0
 34 31  1  0  0  0  0
M  END
