21,22
q = 0.0, confidence = 1.0

 38 39  0  0  0  0  0  0  0  0999 V2000
   -0.2374    2.6010   -0.4998 C   0  0  0  0  0  0  0  0  0  0  0  0
    0.8387    3.4784   -0.4608 C   0  0  0  0  0  0  0  0  0  0  0  0
    2.0912    2.9802   -0.0710 C   0  0  0  0  0  0  0  0  0  0  0  0
    2.2556    1.6122    0.1796 C   0  0  0  0  0  0  0  0  0  0  0  0
    1.1512    0.7335   -0.0319 C   0  0  0  0  0  0  0  0  0  0  0  0
    1.1512   -0.7334    0.0321 C   0  0  0  0  0  0  0  0  0  0  0  0
    2.2556   -1.6121   -0.1793 C   0  0  0  0  0  0  0  0  0  0  0  0
    2.0912   -2.9801    0.0713 C   0  0  0  0  0  0  0  0  0  0  0  0
    0.8387   -3.4783    0.4613 C   0  0  0  0  0  0  0  0  0  0  0  0
   -0.2374   -2.6008    0.5003 C   0  0  0  0  0  0  0  0  0  0  0  0
    3.5257    1.1611    0.8376 C   0  0  0  0  0  0  0  0  0  0  0  0
    5.7987    1.7005    1.2316 C   0  0  0  0  0  0  0  0  0  0  0  0
    6.8456    2.6527    0.6952 C   0  0  0  0  0  0  0  0  0  0  0  0
    3.5256   -1.1610   -0.8375 C   0  0  0  0  0  0  0  0  0  0  0  0
    5.7985   -1.7007   -1.2321 C   0  0  0  0  0  0  0  0  0  0  0  0
    6.8453   -2.6532   -0.6961 C   0  0  0  0  0  0  0  0  0  0  0  0
    3.6285    0.1825    1.5598 O   0  0  0  0  0  0  0  0  0  0  0  0
    4.5413    2.0137    0.5904 O   0  0  0  0  0  0  0  0  0  0  0  0
    3.6284   -0.1824   -1.5596 O   0  0  0  0  0  0  0  0  0  0  0  0
    4.5412   -2.0137   -0.5906 O   0  0  0  0  0  0  0  0  0  0  0  0
   -0.0948    1.2727   -0.2714 N   0  0  0  0  0  2  0  0  0  0  0  0
   -0.0948   -1.2726    0.2717 N   0  0  0  0  0  2  0  0  0  0  0  0
   -1.2615    2.9509   -0.6995 H   0  0  0  0  0  0  0  0  0  0  0  0
    0.6826    4.5445   -0.6745 H   0  0  0  0  0  0  0  0  0  0  0  0
    2.9483    3.6499    0.0774 H   0  0  0  0  0  0  0  0  0  0  0  0
    2.9483   -3.6498   -0.0771 H   0  0  0  0  0  0  0  0  0  0  0  0
    0.6826   -4.5443    0.6751 H   0  0  0  0  0  0  0  0  0  0  0  0
   -1.2615   -2.9507    0.7000 H   0  0  0  0  0  0  0  0  0  0  0  0
    5.6675    1.7872    2.3311 H   0  0  0  0  0  0  0  0  0  0  0  0
    6.0434    0.6374    1.0240 H   0  0  0  0  0  0  0  0  0  0  0  0
    7.8251    2.4398    1.1668 H   0  0  0  0  0  0  0  0  0  0  0  0
    6.5800    3.7057    0.9148 H   0  0  0  0  0  0  0  0  0  0  0  0
    6.9562    2.5441   -0.4019 H   0  0  0  0  0  0  0  0  0  0  0  0
    5.6670   -1.7870   -2.3315 H   0  0  0  0  0  0  0  0  0  0  0  0
    6.0435   -0.6377   -1.0242 H   0  0  0  0  0  0  0  0  0  0  0  0
    7.8248   -2.4403   -1.1679 H   0  0  0  0  0  0  0  0  0  0  0  0
    6.5795   -3.7060   -0.9159 H   0  0  0  0  0  0  0  0  0  0  0  0
    6.9562   -2.5449    0.4010 H   0  0  0  0  0  0  0  0  0  0  0  0
  1  2  2  0  0  0  0
  1 21  1  0  0  0  0
  2  3  1  0  0  0  0
  3 25  1  0  0  0  0
  3  4  2  0  0  0  0
  4 11  1  0  0  0  0
  5  6  2  0  0  0  0
  5  4  1  0  0  0  0
  6 22  1  0  0  0  0
  7  6  1  0  0  0  0
  7  8  2  0  0  0  0
  8  9  1  0  0  0  0
  9 10  2  0  0  0  0
  9 27  1  0  0  0  0
 10 28  1  0  0  0  0
 11 17  2  0  0  0  0
 12 29  1  0  0  0  0
 13 32  1  0  0  0  0
 13 31  1  0  0  0  0
 13 12  1  0  0  0  0
 14 20  1  0  0  0  0
 14  7  1  0  0  0  0
 15 35  1  0  0  0  0
 15 16  1  0  0  0  0
 15 20  1  0  0  0  0
 16 38  1  0  0  0  0
 18 11  1  0  0  0  0
 18 12  1  0  0  0  0
 19 14  2  0  0  0  0
 21  5  1  0  0  0  0
 22 10  1  0  0  0  0
 23  1  1  0  0  0  0
 24  2  1  0  0  0  0
 26  8  1  0  0  0  0
 30 12  1  0  0  0  0
 33 13  1  0  0  0  0
 34 15  1  0  0  0  0
 36 16  1  0  0  0  0
 37 16  1  0  0  0  0
M  END
