2,15
q = 0.0, confidence = 0.998

 27 28  0  0  0  0  0  0  0  0999 V2000
    0.0000    2.8494    0.0001 S   0  0  0  0  0  0  0  0  0  0  0  0
   -1.7864   -0.0996    0.0356 N   0  0  0  0  0  2  0  0  0  0  0  0
   -2.8219   -0.6864    0.6715 C   0  0  0  0  0  3  0  0  0  0  0  0
   -2.5584   -1.5868    1.2535 H   0  0  0  0  0  0  0  0  0  0  0  0
   -4.1183   -0.1677    0.6128 C   0  0  0  0  0  0  0  0  0  0  0  0
   -4.9384   -0.6799    1.1355 H   0  0  0  0  0  0  0  0  0  0  0  0
   -4.3379    1.0077   -0.1226 C   0  0  0  0  0  0  0  0  0  0  0  0
   -5.3465    1.4418   -0.1973 H   0  0  0  0  0  0  0  0  0  0  0  0
   -3.2541    1.6279   -0.7533 C   0  0  0  0  0  0  0  0  0  0  0  0
   -3.3830    2.5642   -1.3154 H   0  0  0  0  0  0  0  0  0  0  0  0
   -1.9764    1.0457   -0.6579 C   0  0  0  0  0  0  0  0  0  0  0  0
   -0.7508    1.6966   -1.2288 C   0  0  0  0  0  0  0  0  0  0  0  0
   -1.0010    2.3504   -2.0863 H   0  0  0  0  0  0  0  0  0  0  0  0
   -0.0228    0.9332   -1.5760 H   0  0  0  0  0  0  0  0  0  0  0  0
    1.7863   -0.0996   -0.0356 N   0  0  0  0  0  2  0  0  0  0  0  0
    2.8218   -0.6864   -0.6717 C   0  0  0  0  0  3  0  0  0  0  0  0
    2.5582   -1.5868   -1.2536 H   0  0  0  0  0  0  0  0  0  0  0  0
    4.1182   -0.1678   -0.6132 C   0  0  0  0  0  0  0  0  0  0  0  0
    4.9382   -0.6800   -1.1360 H   0  0  0  0  0  0  0  0  0  0  0  0
    4.3379    1.0077    0.1223 C   0  0  0  0  0  0  0  0  0  0  0  0
    5.3465    1.4417    0.1968 H   0  0  0  0  0  0  0  0  0  0  0  0
    3.2542    1.6279    0.7531 C   0  0  0  0  0  0  0  0  0  0  0  0
    3.3832    2.5642    1.3152 H   0  0  0  0  0  0  0  0  0  0  0  0
    1.9764    1.0457    0.6578 C   0  0  0  0  0  0  0  0  0  0  0  0
    0.7510    1.6966    1.2289 C   0  0  0  0  0  0  0  0  0  0  0  0
    1.0013    2.3504    2.0864 H   0  0  0  0  0  0  0  0  0  0  0  0
    0.0230    0.9332    1.5762 H   0  0  0  0  0  0  0  0  0  0  0  0
  1 25  1  0  0  0  0
  2  3  1  0  0  0  0
  3  4  1  0  0  0  0
  5  3  1  0  0  0  0
  5  6  1  0  0  0  0
  7  5  2  0  0  0  0
  8  7  1  0  0  0  0
  9 11  2  0  0  0  0
  9  7  1  0  0  0  0
 10  9  1  0  0  0  0
 11  2  1  0  0  0  0
 12 11  1  0  0  0  0
 12  1  1  0  0  0  0
 13 12  1  0  0  0  0
 14 12  1  0  0  0  0
 15 24  1  0  0  0  0
 16 18  1  0  0  0  0
 16 15  1  0  0  0  0
 17 16  1  0  0  0  0
 18 20  2  0  0  0  0
 19 18  1  0  0  0  0
 20 21  1  0  0  0  0
 20 22  1  0  0  0  0
 22 23  1  0  0  0  0
 24 22  2  0  0  0  0
 24 25  1  0  0  0  0
 25 27  1  0  0  0  0
 25 26  1  0  0  0  0
M  END
