3,4
q = 0.0, confidence = 0.982

 29 31  0  0  0  0  0  0  0  0999 V2000
   -6.3715   -2.6152    0.4352 Cl  0  0  0  0  0  0  0  0  0  0  0  0
   -6.3711    2.6148    0.4378 Cl  0  0  0  0  0  0  0  0  0  0  0  0
   -0.7181   -1.3456   -1.2184 N   0  0  0  0  0  2  0  0  0  0  0  0
   -0.7180    1.3463   -1.2184 N   0  0  0  0  0  2  0  0  0  0  0  0
   -2.6465    0.0004   -1.5032 N   0  0  0  0  0  0  0  0  0  0  0  0
   -4.4373   -1.1950   -0.5980 N   0  0  0  0  0  4  0  0  0  0  0  0
   -4.4370    1.1952   -0.5967 N   0  0  0  0  0  0  0  0  0  0  0  0
   -6.2591   -0.0002    0.3724 N   0  0  0  0  0  2  0  0  0  0  0  0
    0.0245   -2.4320   -1.5596 C   0  0  0  0  0  3  0  0  0  0  0  0
    1.0434   -2.4554   -1.1519 H   0  0  0  0  0  0  0  0  0  0  0  0
   -0.4658   -3.4451   -2.3819 C   0  0  0  0  0  0  0  0  0  0  0  0
    0.1749   -4.3069   -2.6147 H   0  0  0  0  0  0  0  0  0  0  0  0
   -1.7651   -3.3330   -2.9027 C   0  0  0  0  0  0  0  0  0  0  0  0
   -2.1837   -4.1130   -3.5549 H   0  0  0  0  0  0  0  0  0  0  0  0
   -2.5103   -2.1894   -2.6026 C   0  0  0  0  0  0  0  0  0  0  0  0
   -3.5179   -2.0325   -3.0063 H   0  0  0  0  0  0  0  0  0  0  0  0
   -1.9521   -1.2150   -1.7611 C   0  0  0  0  0  0  0  0  0  0  0  0
    0.0246    2.4327   -1.5596 C   0  0  0  0  0  3  0  0  0  0  0  0
    1.0437    2.4557   -1.1523 H   0  0  0  0  0  0  0  0  0  0  0  0
   -0.4660    3.4462   -2.3811 C   0  0  0  0  0  0  0  0  0  0  0  0
    0.1748    4.3080   -2.6139 H   0  0  0  0  0  0  0  0  0  0  0  0
   -1.7655    3.3345   -2.9012 C   0  0  0  0  0  0  0  0  0  0  0  0
   -2.1844    4.1150   -3.5529 H   0  0  0  0  0  0  0  0  0  0  0  0
   -2.5108    2.1909   -2.6013 C   0  0  0  0  0  0  0  0  0  0  0  0
   -3.5186    2.0343   -3.0047 H   0  0  0  0  0  0  0  0  0  0  0  0
   -1.9523    1.2160   -1.7607 C   0  0  0  0  0  0  0  0  0  0  0  0
   -3.8873    0.0002   -0.8796 C   0  0  0  0  0  0  0  0  0  0  0  0
   -5.6052   -1.1132    0.0333 C   0  0  0  0  0  0  0  0  0  0  0  0
   -5.6049    1.1130    0.0345 C   0  0  0  0  0  0  0  0  0  0  0  0
  5 27  1  0  0  0  0
  6 28  2  0  0  0  0
  7 29  2  0  0  0  0
  9  3  1  0  0  0  0
  9 10  1  0  0  0  0
 11  9  1  0  0  0  0
 12 11  1  0  0  0  0
 13 15  1  0  0  0  0
 13 11  2  0  0  0  0
 14 13  1  0  0  0  0
 15 17  2  0  0  0  0
 16 15  1  0  0  0  0
 17  5  1  0  0  0  0
 17  3  1  0  0  0  0
 18  4  1  0  0  0  0
 18 19  1  0  0  0  0
 20 18  1  0  0  0  0
 21 20  1  0  0  0  0
 22 24  1  0  0  0  0
 22 20  2  0  0  0  0
 23 22  1  0  0  0  0
 24 26  2  0  0  0  0
 25 24  1  0  0  0  0
 26  5  1  0  0  0  0
 26  4  1  0  0  0  0
 27  6  2  0  0  0  0
 27  7  1  0  0  0  0
 28  8  1  0  0  0  0
 28  1  1  0  0  0  0
 29  8  1  0  0  0  0
 29  2  1  0  0  0  0
M  END
