3,6
q = 0.0, confidence = 0.964

 28 29  0  0  0  0  0  0  0  0999 V2000
   -5.4021    2.7967   -0.1935 O   0  0  0  0  0  0  0  0  0  0  0  0
   -6.2249    3.3109   -0.2663 H   0  0  0  0  0  0  0  0  0  0  0  0
   -0.9543    1.1371    1.3019 N   0  0  0  0  0  2  0  0  0  0  0  0
   -4.7350   -2.9707   -1.8011 O   0  0  0  0  0  0  0  0  0  0  0  0
   -4.1808   -2.5398   -2.4811 H   0  0  0  0  0  0  0  0  0  0  0  0
   -0.8248   -1.4227    0.9556 N   0  0  0  0  0  2  0  0  0  0  0  0
   -0.9411    2.4761    1.5305 C   0  0  0  0  0  0  0  0  0  0  0  0
    0.0042    2.8887    1.9045 H   0  0  0  0  0  0  0  0  0  0  0  0
   -2.0428    3.2918    1.2894 C   0  0  0  0  0  0  0  0  0  0  0  0
   -1.9616    4.3708    1.4887 H   0  0  0  0  0  0  0  0  0  0  0  0
   -3.2338    2.7291    0.7817 C   0  0  0  0  0  0  0  0  0  0  0  0
   -3.2499    1.3504    0.5519 C   0  0  0  0  0  0  0  0  0  0  0  0
   -4.1608    0.8919    0.1473 H   0  0  0  0  0  0  0  0  0  0  0  0
   -2.1075    0.5768    0.8159 C   0  0  0  0  0  0  0  0  0  0  0  0
   -2.0172   -0.8618    0.5756 C   0  0  0  0  0  0  0  0  0  0  0  0
   -3.0214   -1.6231   -0.0401 C   0  0  0  0  0  0  0  0  0  0  0  0
   -3.9464   -1.1493   -0.3946 H   0  0  0  0  0  0  0  0  0  0  0  0
   -2.8339   -2.9895   -0.2713 C   0  0  0  0  0  0  0  0  0  0  0  0
   -1.6313   -3.5653    0.1878 C   0  0  0  0  0  0  0  0  0  0  0  0
   -1.4241   -4.6370    0.0486 H   0  0  0  0  0  0  0  0  0  0  0  0
   -0.6643   -2.7581    0.7819 C   0  0  0  0  0  0  0  0  0  0  0  0
    0.3000   -3.1696    1.1098 H   0  0  0  0  0  0  0  0  0  0  0  0
   -4.4500    3.5721    0.4938 C   0  0  0  0  0  0  0  0  0  0  0  0
   -4.8368    3.9610    1.4696 H   0  0  0  0  0  0  0  0  0  0  0  0
   -4.1236    4.4706   -0.0880 H   0  0  0  0  0  0  0  0  0  0  0  0
   -3.8858   -3.7803   -1.0224 C   0  0  0  0  0  0  0  0  0  0  0  0
   -3.3814   -4.5810   -1.6163 H   0  0  0  0  0  0  0  0  0  0  0  0
   -4.5370   -4.3084   -0.2908 H   0  0  0  0  0  0  0  0  0  0  0  0
  1 23  1  0  0  0  0
  2  1  1  0  0  0  0
  3  7  1  0  0  0  0
  4 26  1  0  0  0  0
  5  4  1  0  0  0  0
  7  8  1  0  0  0  0
  9 10  1  0  0  0  0
  9  7  2  0  0  0  0
 11  9  1  0  0  0  0
 12 11  2  0  0  0  0
 12 14  1  0  0  0  0
 13 12  1  0  0  0  0
 14  3  1  0  0  0  0
 15 14  2  0  0  0  0
 15  6  1  0  0  0  0
 16 15  1  0  0  0  0
 17 16  1  0  0  0  0
 18 16  2  0  0  0  0
 18 19  1  0  0  0  0
 19 21  2  0  0  0  0
 20 19  1  0  0  0  0
 21  6  1  0  0  0  0
 21 22  1  0  0  0  0
 23 11  1  0  0  0  0
 23 24  1  0  0  0  0
 25 23  1  0  0  0  0
 26 28  1  0  0  0  0
 26 18  1  0  0  0  0
 27 26  1  0  0  0  0
M  END
