1,2
q = -1.0, confidence = 0.002

 12 11  0  0  0  0  0  0  0  0999 V2000
    0.6451   -2.4475   -0.4488 N   0  0  0  0  0  0  0  0  0  0  0  0
    2.3406   -0.3581   -0.1521 N   0  0  0  0  0  2  0  0  0  0  0  0
    3.1255    0.3320    0.6191 N   0  0  0  0  0  0  0  0  0  0  0  0
    2.6928    1.1938    1.3643 O   0  0  0  0  0  0  0  0  0  0  0  0
    2.1147   -2.7414   -0.3565 C   0  0  0  0  0  0  0  0  0  0  0  0
    2.8880   -1.5231   -0.8557 C   0  0  0  0  0  0  0  0  0  0  0  0
    0.3091   -2.5736   -1.4217 H   0  0  0  0  0  0  0  0  0  0  0  0
    0.1088   -3.0782    0.1653 H   0  0  0  0  0  0  0  0  0  0  0  0
    2.3499   -3.6503   -0.9460 H   0  0  0  0  0  0  0  0  0  0  0  0
    2.3438   -2.9251    0.7089 H   0  0  0  0  0  0  0  0  0  0  0  0
    2.7493   -1.3800   -1.9473 H   0  0  0  0  0  0  0  0  0  0  0  0
    3.9675   -1.6135   -0.6315 H   0  0  0  0  0  0  0  0  0  0  0  0
  1  5  1  0  0  0  0
  1  8  1  0  0  0  0
  2  3  1  0  0  0  0
  3  4  2  0  0  0  0
  5 10  1  0  0  0  0
  6 12  1  0  0  0  0
  6  5  1  0  0  0  0
  6  2  1  0  0  0  0
  7  1  1  0  0  0  0
  9  5  1  0  0  0  0
 11  6  1  0  0  0  0
M  END
