2,3
q = -1.0, confidence = 0.006

 53 56  0  0  0  0  0  0  0  0999 V2000
   -0.0156   -0.6503    0.0320 P   0  0  0  0  0  4  0  0  0  0  0  0
    1.2089    0.4344   -0.1018 N   0  0  0  0  0  2  0  0  0  0  0  0
   -1.2345    0.4315   -0.2169 N   0  0  0  0  0  2  0  0  0  0  0  0
    0.0050   -1.9928   -1.2038 C   0  0  0  0  0  0  0  0  0  0  0  0
   -0.5826   -1.7276   -2.4591 C   0  0  0  0  0  0  0  0  0  0  0  0
   -1.0988   -0.7690   -2.6216 H   0  0  0  0  0  0  0  0  0  0  0  0
   -0.5095   -2.6854   -3.4794 C   0  0  0  0  0  0  0  0  0  0  0  0
   -0.9704   -2.4777   -4.4568 H   0  0  0  0  0  0  0  0  0  0  0  0
    0.1445   -3.9082   -3.2530 C   0  0  0  0  0  0  0  0  0  0  0  0
    0.1981   -4.6595   -4.0555 H   0  0  0  0  0  0  0  0  0  0  0  0
    0.7291   -4.1744   -2.0038 C   0  0  0  0  0  0  0  0  0  0  0  0
    1.2441   -5.1309   -1.8277 H   0  0  0  0  0  0  0  0  0  0  0  0
    0.6624   -3.2201   -0.9781 C   0  0  0  0  0  0  0  0  0  0  0  0
    1.1357   -3.4225   -0.0056 H   0  0  0  0  0  0  0  0  0  0  0  0
   -0.0353   -1.4355    1.6801 C   0  0  0  0  0  0  0  0  0  0  0  0
   -0.7429   -2.6225    1.9650 C   0  0  0  0  0  0  0  0  0  0  0  0
   -1.2587   -3.1689    1.1626 H   0  0  0  0  0  0  0  0  0  0  0  0
   -0.7866   -3.1152    3.2774 C   0  0  0  0  0  0  0  0  0  0  0  0
   -1.3427   -4.0397    3.4942 H   0  0  0  0  0  0  0  0  0  0  0  0
   -0.1245   -2.4322    4.3100 C   0  0  0  0  0  0  0  0  0  0  0  0
   -0.1593   -2.8232    5.3382 H   0  0  0  0  0  0  0  0  0  0  0  0
    0.5853   -1.2530    4.0302 C   0  0  0  0  0  0  0  0  0  0  0  0
    1.1119   -0.7202    4.8362 H   0  0  0  0  0  0  0  0  0  0  0  0
    0.6294   -0.7540    2.7216 C   0  0  0  0  0  0  0  0  0  0  0  0
    1.1888    0.1630    2.4882 H   0  0  0  0  0  0  0  0  0  0  0  0
    2.5872    0.1528   -0.0642 C   0  0  0  0  0  0  0  0  0  0  0  0
    3.1963   -0.8236   -0.8842 C   0  0  0  0  0  0  0  0  0  0  0  0
    2.5822   -1.3881   -1.5984 H   0  0  0  0  0  0  0  0  0  0  0  0
    4.5775   -1.0563   -0.8190 C   0  0  0  0  0  0  0  0  0  0  0  0
    5.0211   -1.8246   -1.4729 H   0  0  0  0  0  0  0  0  0  0  0  0
    5.4131   -0.3198    0.0419 C   0  0  0  0  0  0  0  0  0  0  0  0
    4.8053    0.6736    0.8387 C   0  0  0  0  0  0  0  0  0  0  0  0
    5.4288    1.2806    1.5153 H   0  0  0  0  0  0  0  0  0  0  0  0
    3.4268    0.9044    0.7922 C   0  0  0  0  0  0  0  0  0  0  0  0
    2.9751    1.6874    1.4178 H   0  0  0  0  0  0  0  0  0  0  0  0
    6.8972   -0.5773    0.1181 C   0  0  0  0  0  0  0  0  0  0  0  0
    7.2352   -1.2543   -0.6905 H   0  0  0  0  0  0  0  0  0  0  0  0
    7.1784   -1.0475    1.0851 H   0  0  0  0  0  0  0  0  0  0  0  0
    7.4794    0.3639    0.0394 H   0  0  0  0  0  0  0  0  0  0  0  0
   -2.6019    0.1578   -0.1289 C   0  0  0  0  0  0  0  0  0  0  0  0
   -3.1374   -1.1560   -0.1417 C   0  0  0  0  0  0  0  0  0  0  0  0
   -2.4673   -2.0177   -0.2641 H   0  0  0  0  0  0  0  0  0  0  0  0
   -4.5157   -1.3850   -0.0352 C   0  0  0  0  0  0  0  0  0  0  0  0
   -4.8847   -2.4235   -0.0484 H   0  0  0  0  0  0  0  0  0  0  0  0
   -5.4369   -0.3275    0.0759 C   0  0  0  0  0  0  0  0  0  0  0  0
   -4.9083    0.9808    0.0687 C   0  0  0  0  0  0  0  0  0  0  0  0
   -5.5940    1.8405    0.1440 H   0  0  0  0  0  0  0  0  0  0  0  0
   -3.5356    1.2229   -0.0304 C   0  0  0  0  0  0  0  0  0  0  0  0
   -3.1640    2.2539   -0.0377 H   0  0  0  0  0  0  0  0  0  0  0  0
   -6.9201   -0.5709    0.1976 C   0  0  0  0  0  0  0  0  0  0  0  0
   -7.3114   -0.2263    1.1788 H   0  0  0  0  0  0  0  0  0  0  0  0
   -7.1652   -1.6467    0.1008 H   0  0  0  0  0  0  0  0  0  0  0  0
   -7.4900   -0.0235   -0.5824 H   0  0  0  0  0  0  0  0  0  0  0  0
  1 15  1  0  0  0  0
  2 26  1  0  0  0  0
  2  1  1  0  0  0  0
  3 40  1  0  0  0  0
  3  1  1  0  0  0  0
  4 13  1  0  0  0  0
  4  1  1  0  0  0  0
  5  4  2  0  0  0  0
  6  5  1  0  0  0  0
  7  9  2  0  0  0  0
  7  5  1  0  0  0  0
  8  7  1  0  0  0  0
  9 11  1  0  0  0  0
 10  9  1  0  0  0  0
 11 12  1  0  0  0  0
 11 13  2  0  0  0  0
 13 14  1  0  0  0  0
 15 16  2  0  0  0  0
 15 24  1  0  0  0  0
 16 18  1  0  0  0  0
 17 16  1  0  0  0  0
 18 19  1  0  0  0  0
 18 20  2  0  0  0  0
 20 21  1  0  0  0  0
 22 20  1  0  0  0  0
 22 23  1  0  0  0  0
 24 22  2  0  0  0  0
 25 24  1  0  0  0  0
 26 34  1  0  0  0  0
 27 29  1  0  0  0  0
 27 26  2  0  0  0  0
 28 27  1  0  0  0  0
 29 31  2  0  0  0  0
 30 29  1  0  0  0  0
 31 36  1  0  0  0  0
 31 32  1  0  0  0  0
 32 33  1  0  0  0  0
 34 32  2  0  0  0  0
 34 35  1  0  0  0  0
 36 38  1  0  0  0  0
 37 36  1  0  0  0  0
 39 36  1  0  0  0  0
 40 48  1  0  0  0  0
 41 40  2  0  0  0  0
 41 43  1  0  0  0  0
 42 41  1  0  0  0  0
 43 45  2  0  0  0  0
 44 43  1  0  0  0  0
 45 50  1  0  0  0  0
 46 45  1  0  0  0  0
 46 47  1  0  0  0  0
 48 46  2  0  0  0  0
 49 48  1  0  0  0  0
 50 51  1  0  0  0  0
 52 50  1  0  0  0  0
 53 50  1  0  0  0  0
M  END
