1,2
q = 0.0, confidence = 0.996

 29 30  0  0  0  0  0  0  0  0999 V2000
    0.1738   -2.3138   -0.2939 N   0  0  0  0  0  2  0  0  0  0  0  0
   -1.6768   -0.4270   -0.6510 N   0  0  0  0  0  0  0  0  0  0  0  0
    1.2286   -3.0527    0.1297 C   0  0  0  0  0  3  0  0  0  0  0  0
    2.2167   -2.7081   -0.2039 H   0  0  0  0  0  0  0  0  0  0  0  0
    1.0757   -4.1724    0.9502 C   0  0  0  0  0  0  0  0  0  0  0  0
    1.9653   -4.7334    1.2675 H   0  0  0  0  0  0  0  0  0  0  0  0
   -0.2112   -4.5453    1.3641 C   0  0  0  0  0  0  0  0  0  0  0  0
   -0.3628   -5.4165    2.0176 H   0  0  0  0  0  0  0  0  0  0  0  0
   -1.3019   -3.7771    0.9349 C   0  0  0  0  0  0  0  0  0  0  0  0
   -2.3282   -4.0259    1.2410 H   0  0  0  0  0  0  0  0  0  0  0  0
   -1.0795   -2.6707    0.1068 C   0  0  0  0  0  0  0  0  0  0  0  0
   -2.1799   -1.8067   -0.4385 C   0  0  0  0  0  0  0  0  0  0  0  0
   -2.4842   -2.1932   -1.4363 H   0  0  0  0  0  0  0  0  0  0  0  0
   -3.0797   -1.8283    0.2121 H   0  0  0  0  0  0  0  0  0  0  0  0
   -2.6670    0.4274   -1.3747 C   0  0  0  0  0  0  0  0  0  0  0  0
   -2.1652    1.3949   -1.5589 H   0  0  0  0  0  0  0  0  0  0  0  0
   -2.8672   -0.0471   -2.3548 H   0  0  0  0  0  0  0  0  0  0  0  0
   -3.9368    0.6235   -0.5793 C   0  0  0  0  0  0  0  0  0  0  0  0
   -5.1407   -0.0065   -0.9479 C   0  0  0  0  0  0  0  0  0  0  0  0
   -5.1770   -0.6196   -1.8628 H   0  0  0  0  0  0  0  0  0  0  0  0
   -6.2954    0.1495   -0.1649 C   0  0  0  0  0  0  0  0  0  0  0  0
   -7.2326   -0.3416   -0.4667 H   0  0  0  0  0  0  0  0  0  0  0  0
   -6.2543    0.9325    0.9990 C   0  0  0  0  0  0  0  0  0  0  0  0
   -7.1595    1.0561    1.6121 H   0  0  0  0  0  0  0  0  0  0  0  0
   -5.0577    1.5656    1.3747 C   0  0  0  0  0  0  0  0  0  0  0  0
   -5.0245    2.1911    2.2795 H   0  0  0  0  0  0  0  0  0  0  0  0
   -3.9064    1.4149    0.5892 C   0  0  0  0  0  0  0  0  0  0  0  0
   -2.9781    1.9343    0.8783 H   0  0  0  0  0  0  0  0  0  0  0  0
   -1.5677    0.0144    0.2761 H   0  0  0  0  0  0  0  0  0  0  0  0
  1 11  1  0  0  0  0
  1  3  1  0  0  0  0
  2 12  1  0  0  0  0
  2 29  1  0  0  0  0
  3  5  1  0  0  0  0
  4  3  1  0  0  0  0
  5  6  1  0  0  0  0
  5  7  2  0  0  0  0
  7  8  1  0  0  0  0
  9 10  1  0  0  0  0
  9  7  1  0  0  0  0
 11  9  2  0  0  0  0
 12 11  1  0  0  0  0
 12 14  1  0  0  0  0
 13 12  1  0  0  0  0
 15  2  1  0  0  0  0
 15 18  1  0  0  0  0
 16 15  1  0  0  0  0
 17 15  1  0  0  0  0
 18 27  1  0  0  0  0
 19 18  2  0  0  0  0
 19 21  1  0  0  0  0
 20 19  1  0  0  0  0
 21 23  2  0  0  0  0
 22 21  1  0  0  0  0
 23 25  1  0  0  0  0
 23 24  1  0  0  0  0
 25 26  1  0  0  0  0
 27 28  1  0  0  0  0
 27 25  2  0  0  0  0
M  END
