29,30
q = 0.0, confidence = 0.998

 30 32  0  0  0  0  0  0  0  0999 V2000
   -3.6176    0.5160    0.3546 C   0  0  0  0  0  3  0  0  0  0  0  0
   -3.9505   -0.2366   -0.3750 H   0  0  0  0  0  0  0  0  0  0  0  0
   -4.5396    1.2307    1.1310 C   0  0  0  0  0  0  0  0  0  0  0  0
   -5.6140    1.0338    1.0093 H   0  0  0  0  0  0  0  0  0  0  0  0
   -4.0712    2.1896    2.0427 C   0  0  0  0  0  0  0  0  0  0  0  0
   -4.7734    2.7668    2.6617 H   0  0  0  0  0  0  0  0  0  0  0  0
   -2.6919    2.4022    2.1450 C   0  0  0  0  0  0  0  0  0  0  0  0
   -2.2780    3.1461    2.8409 H   0  0  0  0  0  0  0  0  0  0  0  0
   -1.8194    1.6507    1.3359 C   0  0  0  0  0  0  0  0  0  0  0  0
    1.7360    1.3685    0.4221 C   0  0  0  0  0  0  0  0  0  0  0  0
    2.0637    2.6370   -0.0642 C   0  0  0  0  0  0  0  0  0  0  0  0
    1.2596    3.3597   -0.2688 H   0  0  0  0  0  0  0  0  0  0  0  0
    3.4038    2.9586   -0.3834 C   0  0  0  0  0  0  0  0  0  0  0  0
    3.6371    3.9517   -0.7939 H   0  0  0  0  0  0  0  0  0  0  0  0
    4.4063    2.0157   -0.2093 C   0  0  0  0  0  0  0  0  0  0  0  0
    5.4473    2.2556   -0.4733 H   0  0  0  0  0  0  0  0  0  0  0  0
    4.1124    0.7215    0.3119 C   0  0  0  0  0  0  0  0  0  0  0  0
    5.1360   -0.2474    0.5238 C   0  0  0  0  0  0  0  0  0  0  0  0
    6.1715    0.0138    0.2580 H   0  0  0  0  0  0  0  0  0  0  0  0
    4.8407   -1.4912    1.0621 C   0  0  0  0  0  0  0  0  0  0  0  0
    5.6409   -2.2296    1.2176 H   0  0  0  0  0  0  0  0  0  0  0  0
    3.5075   -1.8076    1.4282 C   0  0  0  0  0  0  0  0  0  0  0  0
    3.2862   -2.7892    1.8737 H   0  0  0  0  0  0  0  0  0  0  0  0
    2.4855   -0.8869    1.2372 C   0  0  0  0  0  0  0  0  0  0  0  0
    1.4596   -1.1271    1.5442 H   0  0  0  0  0  0  0  0  0  0  0  0
    2.7524    0.3817    0.6525 C   0  0  0  0  0  0  0  0  0  0  0  0
   -0.3792    1.8264    1.3536 C   0  0  0  0  0  3  0  0  0  0  0  0
    0.0748    2.6279    1.9633 H   0  0  0  0  0  0  0  0  0  0  0  0
    0.3623    1.0460    0.6074 N   0  0  0  0  0  2  0  0  0  0  0  0
   -2.2859    0.7154    0.4471 N   0  0  0  0  0  2  0  0  0  0  0  0
  1 30  1  0  0  0  0
  1  3  1  0  0  0  0
  2  1  1  0  0  0  0
  3  5  2  0  0  0  0
  4  3  1  0  0  0  0
  5  7  1  0  0  0  0
  5  6  1  0  0  0  0
  7  8  1  0  0  0  0
  9 27  1  0  0  0  0
  9  7  2  0  0  0  0
 10 29  1  0  0  0  0
 10 26  1  0  0  0  0
 11 10  2  0  0  0  0
 12 11  1  0  0  0  0
 13 15  2  0  0  0  0
 13 11  1  0  0  0  0
 14 13  1  0  0  0  0
 15 17  1  0  0  0  0
 16 15  1  0  0  0  0
 17 18  2  0  0  0  0
 17 26  1  0  0  0  0
 18 20  1  0  0  0  0
 19 18  1  0  0  0  0
 20 21  1  0  0  0  0
 20 22  2  0  0  0  0
 22 23  1  0  0  0  0
 24 22  1  0  0  0  0
 24 25  1  0  0  0  0
 26 24  2  0  0  0  0
 27 28  1  0  0  0  0
 29 27  1  0  0  0  0
 30  9  1  0  0  0  0
M  END
