12,22
q = 0.0, confidence = 0.996

 32 33  0  0  1  0  0  0  0  0999 V2000
   -1.0124    0.3597   -0.7967 C   0  0  0  0  0  0  0  0  0  0  0  0
   -2.2263    0.6047   -0.3741 N   0  0  0  0  0  0  0  0  0  0  0  0
   -3.0884   -0.3718   -0.1268 N   0  0  0  0  0  0  0  0  0  0  0  0
   -4.3539   -0.1097    0.4219 C   0  0  0  0  0  0  0  0  0  0  0  0
   -5.3762   -1.4010    0.6932 S   0  0  0  0  0  0  0  0  0  0  0  0
   -4.5862    1.1985    0.6509 N   0  0  0  0  0  0  0  0  0  0  0  0
   -3.7886    1.8162    0.4568 H   0  0  0  0  0  0  0  0  0  0  0  0
   -5.7989    1.7297    1.2281 C   0  0  0  0  0  0  0  0  0  0  0  0
   -6.2163    2.5389    0.5937 H   0  0  0  0  0  0  0  0  0  0  0  0
   -5.6180    2.1352    2.2464 H   0  0  0  0  0  0  0  0  0  0  0  0
   -6.5331    0.9042    1.3001 H   0  0  0  0  0  0  0  0  0  0  0  0
    1.1501    1.4715   -0.6590 N   0  0  0  0  0  2  0  0  0  0  0  0
   -0.1480    1.5416   -1.0493 C   0  0  1  0  0  3  0  0  0  0  0  0
   -0.6521    2.6765   -1.7133 C   0  0  0  0  0  0  0  0  0  0  0  0
   -1.7119    2.6956   -2.0011 H   0  0  0  0  0  0  0  0  0  0  0  0
    0.2131    3.7355   -2.0076 C   0  0  0  0  0  0  0  0  0  0  0  0
   -0.1609    4.6328   -2.5232 H   0  0  0  0  0  0  0  0  0  0  0  0
    1.5687    3.6188   -1.6634 C   0  0  0  0  0  0  0  0  0  0  0  0
    2.2930    4.4095   -1.9040 H   0  0  0  0  0  0  0  0  0  0  0  0
    1.9981    2.4690   -0.9940 C   0  0  0  0  0  0  0  0  0  0  0  0
    3.0489    2.3054   -0.7112 H   0  0  0  0  0  0  0  0  0  0  0  0
    0.7233   -1.3733   -0.7914 N   0  0  0  0  0  2  0  0  0  0  0  0
   -0.5062   -0.9817   -1.2162 C   0  0  2  0  0  3  0  0  0  0  0  0
   -1.2494   -1.7708   -2.1181 C   0  0  0  0  0  0  0  0  0  0  0  0
   -2.2326   -1.4229   -2.4665 H   0  0  0  0  0  0  0  0  0  0  0  0
   -0.7088   -2.9751   -2.5862 C   0  0  0  0  0  0  0  0  0  0  0  0
   -1.2786   -3.6042   -3.2860 H   0  0  0  0  0  0  0  0  0  0  0  0
    0.5766   -3.3450   -2.1680 C   0  0  0  0  0  0  0  0  0  0  0  0
    1.0535   -4.2687   -2.5246 H   0  0  0  0  0  0  0  0  0  0  0  0
    1.2654   -2.5100   -1.2819 C   0  0  0  0  0  0  0  0  0  0  0  0
    2.2938   -2.7201   -0.9526 H   0  0  0  0  0  0  0  0  0  0  0  0
   -2.8538   -1.3741   -0.1988 H   0  0  0  0  0  0  0  0  0  0  0  0
  1  2  2  0  0  0  0
  2  3  1  0  0  0  0
  3  4  1  0  0  0  0
  4  6  1  0  0  0  0
  4  5  2  0  0  0  0
  6  8  1  0  0  0  0
  7  6  1  0  0  0  0
  8 11  1  0  0  0  0
  8 10  1  0  0  0  0
  9  8  1  0  0  0  0
 13  1  1  6  0  0  0
 13 12  1  0  0  0  0
 14 13  1  0  0  0  0
 15 14  1  0  0  0  0
 16 14  2  0  0  0  0
 16 18  1  0  0  0  0
 17 16  1  0  0  0  0
 18 20  2  0  0  0  0
 19 18  1  0  0  0  0
 20 21  1  0  0  0  0
 20 12  1  0  0  0  0
 23  1  1  6  0  0  0
 23 22  1  0  0  0  0
 24 23  1  0  0  0  0
 25 24  1  0  0  0  0
 26 28  1  0  0  0  0
 26 24  2  0  0  0  0
 27 26  1  0  0  0  0
 28 30  2  0  0  0  0
 29 28  1  0  0  0  0
 30 31  1  0  0  0  0
 30 22  1  0  0  0  0
 32  3  1  0  0  0  0
M  END
