1,2
q = 0.0, confidence = 0.972

 50 49  0  0  0  0  0  0  0  0999 V2000
   -1.0424   -1.8643   -0.6092 N   0  0  0  0  0  2  0  0  0  0  0  0
    1.6133   -1.3632   -0.8185 N   0  0  0  0  0  2  0  0  0  0  0  0
   -0.3604   -2.4774   -1.5213 C   0  0  0  0  0  0  0  0  0  0  0  0
    1.0832   -2.2433   -1.6025 C   0  0  0  0  0  0  0  0  0  0  0  0
   -2.4836   -2.0692   -0.5386 C   0  0  0  0  0  0  0  0  0  0  0  0
   -2.8699   -2.6886    0.8359 C   0  0  0  0  0  0  0  0  0  0  0  0
   -3.2173   -0.7451   -0.8914 C   0  0  0  0  0  0  0  0  0  0  0  0
    3.0502   -1.1390   -0.8391 C   0  0  0  0  0  0  0  0  0  0  0  0
    3.6421   -1.5215    0.5457 C   0  0  0  0  0  0  0  0  0  0  0  0
    3.3636    0.3167   -1.3040 C   0  0  0  0  0  0  0  0  0  0  0  0
   -2.7147   -1.7379    2.0258 C   0  0  0  0  0  0  0  0  0  0  0  0
   -2.1191   -4.0049    1.0719 C   0  0  0  0  0  0  0  0  0  0  0  0
   -4.7369   -0.9003   -0.7674 C   0  0  0  0  0  0  0  0  0  0  0  0
   -2.8342   -0.2631   -2.2949 C   0  0  0  0  0  0  0  0  0  0  0  0
    3.2297   -2.9410    0.9534 C   0  0  0  0  0  0  0  0  0  0  0  0
    5.1668   -1.3688    0.5528 C   0  0  0  0  0  0  0  0  0  0  0  0
    2.6277    0.6387   -2.6117 C   0  0  0  0  0  0  0  0  0  0  0  0
    3.0792    1.3802   -0.2391 C   0  0  0  0  0  0  0  0  0  0  0  0
   -0.8392   -3.1748   -2.2393 H   0  0  0  0  0  0  0  0  0  0  0  0
    1.6913   -2.8294   -2.3227 H   0  0  0  0  0  0  0  0  0  0  0  0
   -2.7706   -2.8197   -1.3175 H   0  0  0  0  0  0  0  0  0  0  0  0
   -3.9482   -2.9353    0.7298 H   0  0  0  0  0  0  0  0  0  0  0  0
   -2.8849    0.0210   -0.1612 H   0  0  0  0  0  0  0  0  0  0  0  0
    3.5057   -1.8276   -1.5941 H   0  0  0  0  0  0  0  0  0  0  0  0
    3.2097   -0.8165    1.2887 H   0  0  0  0  0  0  0  0  0  0  0  0
    4.4548    0.3125   -1.5181 H   0  0  0  0  0  0  0  0  0  0  0  0
   -3.2366   -0.7733    1.8793 H   0  0  0  0  0  0  0  0  0  0  0  0
   -1.6479   -1.5029    2.2060 H   0  0  0  0  0  0  0  0  0  0  0  0
   -3.1109   -2.2098    2.9474 H   0  0  0  0  0  0  0  0  0  0  0  0
   -2.4993   -4.5178    1.9779 H   0  0  0  0  0  0  0  0  0  0  0  0
   -1.0338   -3.8253    1.2221 H   0  0  0  0  0  0  0  0  0  0  0  0
   -2.2316   -4.7038    0.2167 H   0  0  0  0  0  0  0  0  0  0  0  0
   -5.0665   -1.1030    0.2703 H   0  0  0  0  0  0  0  0  0  0  0  0
   -5.1160   -1.7193   -1.4162 H   0  0  0  0  0  0  0  0  0  0  0  0
   -5.2316    0.0369   -1.0908 H   0  0  0  0  0  0  0  0  0  0  0  0
   -3.3342    0.7000   -2.5126 H   0  0  0  0  0  0  0  0  0  0  0  0
   -3.1366   -1.0013   -3.0696 H   0  0  0  0  0  0  0  0  0  0  0  0
   -1.7481   -0.0718   -2.3795 H   0  0  0  0  0  0  0  0  0  0  0  0
    2.1309   -3.0324    1.0646 H   0  0  0  0  0  0  0  0  0  0  0  0
    3.6894   -3.2179    1.9230 H   0  0  0  0  0  0  0  0  0  0  0  0
    3.5616   -3.6885    0.2007 H   0  0  0  0  0  0  0  0  0  0  0  0
    5.4903   -0.3269    0.3645 H   0  0  0  0  0  0  0  0  0  0  0  0
    5.6360   -2.0154   -0.2189 H   0  0  0  0  0  0  0  0  0  0  0  0
    5.5793   -1.6726    1.5357 H   0  0  0  0  0  0  0  0  0  0  0  0
    2.7608   -0.1619   -3.3699 H   0  0  0  0  0  0  0  0  0  0  0  0
    3.0141    1.5808   -3.0486 H   0  0  0  0  0  0  0  0  0  0  0  0
    1.5429    0.7776   -2.4279 H   0  0  0  0  0  0  0  0  0  0  0  0
    3.7328    1.2825    0.6500 H   0  0  0  0  0  0  0  0  0  0  0  0
    2.0254    1.3320    0.0928 H   0  0  0  0  0  0  0  0  0  0  0  0
    3.2320    2.3949   -0.6565 H   0  0  0  0  0  0  0  0  0  0  0  0
  1  5  1  0  0  0  0
  3  1  1  0  0  0  0
  4  3  2  0  0  0  0
  4  2  1  0  0  0  0
  5  6  1  0  0  0  0
  6 12  1  0  0  0  0
  6 11  1  0  0  0  0
  7 13  1  0  0  0  0
  7  5  1  0  0  0  0
  7 23  1  0  0  0  0
  8  2  1  0  0  0  0
  8  9  1  0  0  0  0
  9 16  1  0  0  0  0
  9 15  1  0  0  0  0
  9 25  1  0  0  0  0
 10  8  1  0  0  0  0
 10 18  1  0  0  0  0
 11 28  1  0  0  0  0
 11 29  1  0  0  0  0
 12 31  1  0  0  0  0
 12 30  1  0  0  0  0
 13 33  1  0  0  0  0
 14  7  1  0  0  0  0
 15 39  1  0  0  0  0
 15 40  1  0  0  0  0
 16 44  1  0  0  0  0
 17 47  1  0  0  0  0
 17 10  1  0  0  0  0
 18 49  1  0  0  0  0
 18 48  1  0  0  0  0
 19  3  1  0  0  0  0
 20  4  1  0  0  0  0
 21  5  1  0  0  0  0
 22  6  1  0  0  0  0
 24  8  1  0  0  0  0
 26 10  1  0  0  0  0
 27 11  1  0  0  0  0
 32 12  1  0  0  0  0
 34 13  1  0  0  0  0
 35 13  1  0  0  0  0
 36 14  1  0  0  0  0
 37 14  1  0  0  0  0
 38 14  1  0  0  0  0
 41 15  1  0  0  0  0
 42 16  1  0  0  0  0
 43 16  1  0  0  0  0
 45 17  1  0  0  0  0
 46 17  1  0  0  0  0
 50 18  1  0  0  0  0
M  END
