1,3
q = 0.0, confidence = 0.698

 27 28  0  0  0  0  0  0  0  0999 V2000
    1.4481   -1.1170   -0.0879 N   0  0  0  0  0  2  0  0  0  0  0  0
    1.2053    1.1380   -0.2922 N   0  0  0  0  0  0  0  0  0  0  0  0
   -0.0582    0.7521   -0.3532 N   0  0  0  0  0  2  0  0  0  0  0  0
    7.9432    1.1620    0.2501 Cl  0  0  0  0  0  0  0  0  0  0  0  0
    2.0315    0.0771   -0.1330 C   0  0  0  0  0  0  0  0  0  0  0  0
    3.4789    0.3238   -0.0341 C   0  0  0  0  0  0  0  0  0  0  0  0
    4.3885   -0.7135    0.2679 C   0  0  0  0  0  0  0  0  0  0  0  0
    5.7606   -0.4625    0.3571 C   0  0  0  0  0  0  0  0  0  0  0  0
    6.4674   -1.2691    0.5953 H   0  0  0  0  0  0  0  0  0  0  0  0
    6.2369    0.8429    0.1426 C   0  0  0  0  0  0  0  0  0  0  0  0
    5.3495    1.8927   -0.1558 C   0  0  0  0  0  0  0  0  0  0  0  0
    5.7411    2.9062   -0.3199 H   0  0  0  0  0  0  0  0  0  0  0  0
    3.9806    1.6298   -0.2411 C   0  0  0  0  0  0  0  0  0  0  0  0
    3.2695    2.4343   -0.4746 H   0  0  0  0  0  0  0  0  0  0  0  0
   -0.9700    1.8460   -0.5037 C   0  0  0  0  0  0  0  0  0  0  0  0
   -1.9374    1.8104   -1.5234 C   0  0  0  0  0  0  0  0  0  0  0  0
   -1.9532    0.9582   -2.2186 H   0  0  0  0  0  0  0  0  0  0  0  0
   -2.8498    2.8679   -1.6351 C   0  0  0  0  0  0  0  0  0  0  0  0
   -3.6077    2.8468   -2.4322 H   0  0  0  0  0  0  0  0  0  0  0  0
   -2.8017    3.9453   -0.7355 C   0  0  0  0  0  0  0  0  0  0  0  0
   -1.8206    3.9772    0.2701 C   0  0  0  0  0  0  0  0  0  0  0  0
   -0.8930    2.9341    0.3852 C   0  0  0  0  0  0  0  0  0  0  0  0
   -0.1200    2.9283    1.1659 H   0  0  0  0  0  0  0  0  0  0  0  0
    2.0281   -1.9492    0.0568 H   0  0  0  0  0  0  0  0  0  0  0  0
   -3.5301    4.7655   -0.8199 H   0  0  0  0  0  0  0  0  0  0  0  0
    4.0311   -1.7382    0.4510 H   0  0  0  0  0  0  0  0  0  0  0  0
   -1.7809    4.8200    0.9765 H   0  0  0  0  0  0  0  0  0  0  0  0
  1 24  1  0  0  0  0
  2  5  2  0  0  0  0
  3  2  1  0  0  0  0
  5  1  1  0  0  0  0
  5  6  1  0  0  0  0
  6  7  1  0  0  0  0
  7  8  2  0  0  0  0
  7 26  1  0  0  0  0
  8  9  1  0  0  0  0
 10  4  1  0  0  0  0
 10  8  1  0  0  0  0
 11 10  2  0  0  0  0
 12 11  1  0  0  0  0
 13 11  1  0  0  0  0
 13  6  2  0  0  0  0
 14 13  1  0  0  0  0
 15  3  1  0  0  0  0
 15 22  1  0  0  0  0
 16 15  2  0  0  0  0
 17 16  1  0  0  0  0
 18 16  1  0  0  0  0
 18 20  2  0  0  0  0
 19 18  1  0  0  0  0
 20 21  1  0  0  0  0
 21 22  2  0  0  0  0
 21 27  1  0  0  0  0
 22 23  1  0  0  0  0
 25 20  1  0  0  0  0
M  END
