1,10
q = 0.0, confidence = 0.556

 26 27  0  0  0  0  0  0  0  0999 V2000
    0.9755   -1.9000    0.4827 N   0  0  0  0  0  2  0  0  0  0  0  0
    2.3650   -2.0108    0.6654 C   0  0  0  0  0  0  0  0  0  0  0  0
    2.9972   -1.1034    1.5474 C   0  0  0  0  0  0  0  0  0  0  0  0
    4.3884   -1.1128    1.7061 C   0  0  0  0  0  0  0  0  0  0  0  0
    5.1747   -2.0460    1.0060 C   0  0  0  0  0  0  0  0  0  0  0  0
    4.5465   -2.9814    0.1639 C   0  0  0  0  0  0  0  0  0  0  0  0
    3.1561   -2.9728   -0.0064 C   0  0  0  0  0  0  0  0  0  0  0  0
    0.3597   -3.0600    0.1695 N   0  0  0  0  0  2  0  0  0  0  0  0
   -0.8679   -2.9837   -0.1333 N   0  0  0  0  0  2  0  0  0  0  0  0
   -1.3386   -1.7575   -0.4509 N   0  0  0  0  0  2  0  0  0  0  0  0
   -2.7294   -1.7162   -0.6596 C   0  0  0  0  0  0  0  0  0  0  0  0
   -3.2446   -0.7448   -1.5476 C   0  0  0  0  0  0  0  0  0  0  0  0
   -4.6241   -0.6291   -1.7587 C   0  0  0  0  0  0  0  0  0  0  0  0
   -5.5172   -1.4930   -1.1002 C   0  0  0  0  0  0  0  0  0  0  0  0
   -5.0082   -2.4829   -0.2406 C   0  0  0  0  0  0  0  0  0  0  0  0
   -3.6301   -2.6011   -0.0202 C   0  0  0  0  0  0  0  0  0  0  0  0
    2.3591   -0.4013    2.1045 H   0  0  0  0  0  0  0  0  0  0  0  0
    4.8641   -0.3972    2.3949 H   0  0  0  0  0  0  0  0  0  0  0  0
    6.2681   -2.0553    1.1289 H   0  0  0  0  0  0  0  0  0  0  0  0
    5.1534   -3.7242   -0.3773 H   0  0  0  0  0  0  0  0  0  0  0  0
    2.6546   -3.6920   -0.6684 H   0  0  0  0  0  0  0  0  0  0  0  0
   -2.5268   -0.0915   -2.0635 H   0  0  0  0  0  0  0  0  0  0  0  0
   -5.0068    0.1327   -2.4562 H   0  0  0  0  0  0  0  0  0  0  0  0
   -6.6014   -1.4045   -1.2660 H   0  0  0  0  0  0  0  0  0  0  0  0
   -5.6990   -3.1706    0.2723 H   0  0  0  0  0  0  0  0  0  0  0  0
   -3.2215   -3.3703    0.6493 H   0  0  0  0  0  0  0  0  0  0  0  0
  1  2  1  0  0  0  0
  2  3  1  0  0  0  0
  3  4  2  0  0  0  0
  3 17  1  0  0  0  0
  4 18  1  0  0  0  0
  5 19  1  0  0  0  0
  5  4  1  0  0  0  0
  6  5  2  0  0  0  0
  7  6  1  0  0  0  0
  7  2  2  0  0  0  0
  8  1  1  0  0  0  0
  9  8  1  0  0  0  0
 10  9  1  0  0  0  0
 11 10  1  0  0  0  0
 11 16  1  0  0  0  0
 12 11  2  0  0  0  0
 13 12  1  0  0  0  0
 13 14  2  0  0  0  0
 14 15  1  0  0  0  0
 15 16  2  0  0  0  0
 15 25  1  0  0  0  0
 16 26  1  0  0  0  0
 20  6  1  0  0  0  0
 21  7  1  0  0  0  0
 22 12  1  0  0  0  0
 23 13  1  0  0  0  0
 24 14  1  0  0  0  0
M  END
