1,16
q = 0.0, confidence = 0.994

 43 45  0  0  0  0  0  0  0  0999 V2000
   -1.0639   -0.6084    1.6603 N   0  0  0  0  0  2  0  0  0  0  0  0
    0.1576   -0.3249    2.1569 N   0  0  0  0  0  0  0  0  0  0  0  0
   -1.5120   -1.6829    2.3290 C   0  0  0  0  0  3  0  0  0  0  0  0
   -2.5014   -2.0892    2.0791 H   0  0  0  0  0  0  0  0  0  0  0  0
   -0.5567   -2.1038    3.2825 C   0  0  0  0  0  0  0  0  0  0  0  0
   -0.6304   -2.9389    3.9860 H   0  0  0  0  0  0  0  0  0  0  0  0
    0.5009   -1.2073    3.1402 C   0  0  0  0  0  0  0  0  0  0  0  0
    1.4580   -1.1218    3.6669 H   0  0  0  0  0  0  0  0  0  0  0  0
    0.9944    0.7589    1.5933 C   0  0  0  0  0  0  0  0  0  0  0  0
    0.3089    1.5919    1.3309 H   0  0  0  0  0  0  0  0  0  0  0  0
    1.6444    1.0792    2.4340 H   0  0  0  0  0  0  0  0  0  0  0  0
    1.3388    0.7041   -0.8715 C   0  0  0  0  0  0  0  0  0  0  0  0
    2.1859    1.0176   -1.5154 H   0  0  0  0  0  0  0  0  0  0  0  0
    0.5967    1.5290   -0.8405 H   0  0  0  0  0  0  0  0  0  0  0  0
    0.7072   -0.4214   -1.5928 N   0  0  0  0  0  0  0  0  0  0  0  0
   -0.6074   -0.6937   -1.4638 N   0  0  0  0  0  2  0  0  0  0  0  0
    1.3250   -1.3562   -2.3726 C   0  0  0  0  0  3  0  0  0  0  0  0
    2.3964   -1.2879   -2.5922 H   0  0  0  0  0  0  0  0  0  0  0  0
    0.3540   -2.2754   -2.7669 C   0  0  0  0  0  0  0  0  0  0  0  0
    0.4905   -3.1532   -3.4060 H   0  0  0  0  0  0  0  0  0  0  0  0
   -0.8402   -1.8126   -2.1681 C   0  0  0  0  0  0  0  0  0  0  0  0
   -1.8604   -2.2182   -2.1985 H   0  0  0  0  0  0  0  0  0  0  0  0
    1.7987    0.4213    0.4568 N   0  0  0  0  0  0  0  0  0  0  0  0
    2.8439   -0.5812    0.6264 C   0  0  0  0  0  0  0  0  0  0  0  0
    3.0613   -0.6525    1.7132 H   0  0  0  0  0  0  0  0  0  0  0  0
    2.4906   -1.5974    0.3220 H   0  0  0  0  0  0  0  0  0  0  0  0
    4.1599   -0.2611   -0.0982 C   0  0  0  0  0  0  0  0  0  0  0  0
    3.9665   -0.2201   -1.1964 H   0  0  0  0  0  0  0  0  0  0  0  0
    4.7414    1.0987    0.3189 C   0  0  0  0  0  0  0  0  0  0  0  0
    4.9071    1.0851    1.4212 H   0  0  0  0  0  0  0  0  0  0  0  0
    3.9997    1.9025    0.1305 H   0  0  0  0  0  0  0  0  0  0  0  0
    6.0676    1.3947   -0.3917 C   0  0  0  0  0  0  0  0  0  0  0  0
    6.4786    2.3665   -0.0475 H   0  0  0  0  0  0  0  0  0  0  0  0
    5.8782    1.5078   -1.4833 H   0  0  0  0  0  0  0  0  0  0  0  0
    7.0871    0.2695   -0.1707 C   0  0  0  0  0  0  0  0  0  0  0  0
    8.0251    0.4798   -0.7255 H   0  0  0  0  0  0  0  0  0  0  0  0
    7.3633    0.2356    0.9075 H   0  0  0  0  0  0  0  0  0  0  0  0
    6.5146   -1.0928   -0.5847 C   0  0  0  0  0  0  0  0  0  0  0  0
    7.2452   -1.9021   -0.3771 H   0  0  0  0  0  0  0  0  0  0  0  0
    6.3478   -1.0995   -1.6856 H   0  0  0  0  0  0  0  0  0  0  0  0
    5.1861   -1.3846    0.1247 C   0  0  0  0  0  0  0  0  0  0  0  0
    5.3685   -1.4889    1.2192 H   0  0  0  0  0  0  0  0  0  0  0  0
    4.7671   -2.3564   -0.2144 H   0  0  0  0  0  0  0  0  0  0  0  0
  1  2  1  0  0  0  0
  1  3  1  0  0  0  0
  2  7  1  0  0  0  0
  3  5  1  0  0  0  0
  4  3  1  0  0  0  0
  5  6  1  0  0  0  0
  7  5  2  0  0  0  0
  7  8  1  0  0  0  0
  9  2  1  0  0  0  0
  9 11  1  0  0  0  0
 10  9  1  0  0  0  0
 12 14  1  0  0  0  0
 12 23  1  0  0  0  0
 13 12  1  0  0  0  0
 15 16  1  0  0  0  0
 15 12  1  0  0  0  0
 17 15  1  0  0  0  0
 18 17  1  0  0  0  0
 19 17  1  0  0  0  0
 19 21  2  0  0  0  0
 20 19  1  0  0  0  0
 21 16  1  0  0  0  0
 22 21  1  0  0  0  0
 23 24  1  0  0  0  0
 23  9  1  0  0  0  0
 24 25  1  0  0  0  0
 26 24  1  0  0  0  0
 27 41  1  0  0  0  0
 27 29  1  0  0  0  0
 27 24  1  0  0  0  0
 28 27  1  0  0  0  0
 29 30  1  0  0  0  0
 31 29  1  0  0  0  0
 32 35  1  0  0  0  0
 32 33  1  0  0  0  0
 32 29  1  0  0  0  0
 34 32  1  0  0  0  0
 35 37  1  0  0  0  0
 36 35  1  0  0  0  0
 38 39  1  0  0  0  0
 38 35  1  0  0  0  0
 38 41  1  0  0  0  0
 40 38  1  0  0  0  0
 41 42  1  0  0  0  0
 43 41  1  0  0  0  0
M  END
