1,15
q = 0.0, confidence = 0.986

 55 57  0  0  1  0  0  0  0  0999 V2000
    1.8192    1.3761    0.0258 N   0  0  0  0  0  2  0  0  0  0  0  0
    1.4884    2.0372   -1.1098 N   0  0  0  0  0  0  0  0  0  0  0  0
    2.4487    2.2647    0.8187 C   0  0  2  0  0  3  0  0  0  0  0  0
    2.5070    3.5226    0.1638 C   0  0  0  0  0  0  0  0  0  0  0  0
    2.9517    4.4472    0.5463 H   0  0  0  0  0  0  0  0  0  0  0  0
    1.8838    3.3493   -1.0723 C   0  0  0  0  0  0  0  0  0  0  0  0
    0.8275    1.3159   -2.1874 C   0  0  0  0  0  0  0  0  0  0  0  0
    0.7168    2.0380   -3.0293 H   0  0  0  0  0  0  0  0  0  0  0  0
    1.4893    0.4820   -2.5106 H   0  0  0  0  0  0  0  0  0  0  0  0
   -0.4242    0.7494   -1.7301 N   0  0  0  0  0  0  0  0  0  0  0  0
   -0.8175   -0.4641   -2.4099 C   0  0  0  0  0  0  0  0  0  0  0  0
   -1.4403   -0.2816   -3.3171 H   0  0  0  0  0  0  0  0  0  0  0  0
    0.1039   -1.0156   -2.7012 H   0  0  0  0  0  0  0  0  0  0  0  0
   -1.6101   -1.3228   -1.5397 N   0  0  0  0  0  0  0  0  0  0  0  0
   -1.1011   -1.7117   -0.3459 N   0  0  0  0  0  2  0  0  0  0  0  0
   -2.8869   -1.7819   -1.7274 C   0  0  1  0  0  3  0  0  0  0  0  0
   -3.1984   -2.5160   -0.5824 C   0  0  0  0  0  0  0  0  0  0  0  0
   -4.1381   -3.0398   -0.3786 H   0  0  0  0  0  0  0  0  0  0  0  0
   -2.0546   -2.4503    0.2557 C   0  0  0  0  0  0  0  0  0  0  0  0
    3.0050    1.8923    2.1536 C   0  0  0  0  0  0  0  0  0  0  0  0
    2.3207    1.2122    2.6994 H   0  0  0  0  0  0  0  0  0  0  0  0
    3.1908    2.7973    2.7617 H   0  0  0  0  0  0  0  0  0  0  0  0
    3.9698    1.3549    2.0401 H   0  0  0  0  0  0  0  0  0  0  0  0
    1.6591    4.3171   -2.1886 C   0  0  0  0  0  0  0  0  0  0  0  0
    2.1990    4.0240   -3.1132 H   0  0  0  0  0  0  0  0  0  0  0  0
    2.0276    5.3154   -1.8895 H   0  0  0  0  0  0  0  0  0  0  0  0
    0.5848    4.4206   -2.4483 H   0  0  0  0  0  0  0  0  0  0  0  0
   -3.7071   -1.4855   -2.9404 C   0  0  0  0  0  0  0  0  0  0  0  0
   -4.6964   -1.9688   -2.8423 H   0  0  0  0  0  0  0  0  0  0  0  0
   -3.2375   -1.8674   -3.8704 H   0  0  0  0  0  0  0  0  0  0  0  0
   -3.8774   -0.3965   -3.0732 H   0  0  0  0  0  0  0  0  0  0  0  0
   -1.8468   -3.1026    1.5829 C   0  0  0  0  0  0  0  0  0  0  0  0
   -2.8195   -3.3387    2.0538 H   0  0  0  0  0  0  0  0  0  0  0  0
   -1.2526   -2.4576    2.2608 H   0  0  0  0  0  0  0  0  0  0  0  0
   -1.2860   -4.0540    1.4688 H   0  0  0  0  0  0  0  0  0  0  0  0
   -1.5009    1.7196   -1.4898 C   0  0  0  0  0  0  0  0  0  0  0  0
   -1.0350    2.7235   -1.3929 H   0  0  0  0  0  0  0  0  0  0  0  0
   -2.1688    1.7671   -2.3876 H   0  0  0  0  0  0  0  0  0  0  0  0
   -2.3510    1.4764   -0.2331 C   0  0  0  0  0  0  0  0  0  0  0  0
   -2.7376    0.4349   -0.2596 H   0  0  0  0  0  0  0  0  0  0  0  0
   -1.5460    1.6421    1.0629 C   0  0  0  0  0  0  0  0  0  0  0  0
   -0.6726    0.9624    1.0714 H   0  0  0  0  0  0  0  0  0  0  0  0
   -1.1307    2.6765    1.0982 H   0  0  0  0  0  0  0  0  0  0  0  0
   -2.4081    1.3854    2.3016 C   0  0  0  0  0  0  0  0  0  0  0  0
   -1.8002    1.5172    3.2198 H   0  0  0  0  0  0  0  0  0  0  0  0
   -2.7268    0.3189    2.2990 H   0  0  0  0  0  0  0  0  0  0  0  0
   -3.6445    2.2925    2.3190 C   0  0  0  0  0  0  0  0  0  0  0  0
   -4.2874    2.0633    3.1947 H   0  0  0  0  0  0  0  0  0  0  0  0
   -3.3185    3.3507    2.4397 H   0  0  0  0  0  0  0  0  0  0  0  0
   -4.4506    2.1627    1.0190 C   0  0  0  0  0  0  0  0  0  0  0  0
   -5.3140    2.8609    1.0226 H   0  0  0  0  0  0  0  0  0  0  0  0
   -4.8776    1.1363    0.9572 H   0  0  0  0  0  0  0  0  0  0  0  0
   -3.5762    2.4064   -0.2188 C   0  0  0  0  0  0  0  0  0  0  0  0
   -4.1739    2.2682   -1.1467 H   0  0  0  0  0  0  0  0  0  0  0  0
   -3.2286    3.4657   -0.2258 H   0  0  0  0  0  0  0  0  0  0  0  0
  1  3  1  0  0  0  0
  2  6  1  0  0  0  0
  2  1  1  0  0  0  0
  3 20  1  6  0  0  0
  4  5  1  0  0  0  0
  4  3  1  0  0  0  0
  6  4  2  0  0  0  0
  7 10  1  0  0  0  0
  7  2  1  0  0  0  0
  8  7  1  0  0  0  0
  9  7  1  0  0  0  0
 10 36  1  0  0  0  0
 11 10  1  0  0  0  0
 11 14  1  0  0  0  0
 12 11  1  0  0  0  0
 13 11  1  0  0  0  0
 14 15  1  0  0  0  0
 15 19  1  0  0  0  0
 16 28  1  1  0  0  0
 16 14  1  0  0  0  0
 16 17  1  0  0  0  0
 17 18  1  0  0  0  0
 17 19  2  0  0  0  0
 19 32  1  0  0  0  0
 20 21  1  0  0  0  0
 20 22  1  0  0  0  0
 23 20  1  0  0  0  0
 24 26  1  0  0  0  0
 24  6  1  0  0  0  0
 25 24  1  0  0  0  0
 27 24  1  0  0  0  0
 28 29  1  0  0  0  0
 30 28  1  0  0  0  0
 31 28  1  0  0  0  0
 32 33  1  0  0  0  0
 32 34  1  0  0  0  0
 35 32  1  0  0  0  0
 36 37  1  0  0  0  0
 36 39  1  0  0  0  0
 38 36  1  0  0  0  0
 39 53  1  0  0  0  0
 39 41  1  0  0  0  0
 40 39  1  0  0  0  0
 41 42  1  0  0  0  0
 41 43  1  0  0  0  0
 41 44  1  0  0  0  0
 44 47  1  0  0  0  0
 44 45  1  0  0  0  0
 46 44  1  0  0  0  0
 47 49  1  0  0  0  0
 47 48  1  0  0  0  0
 50 51  1  0  0  0  0
 50 47  1  0  0  0  0
 52 50  1  0  0  0  0
 53 50  1  0  0  0  0
 54 53  1  0  0  0  0
 55 53  1  0  0  0  0
M  END
