33,34
q = 0.0, confidence = 0.98

 38 41  0  0  1  0  0  0  0  0999 V2000
   -0.0766    2.9808    0.1097 C   0  0  0  0  0  3  0  0  0  0  0  0
    0.9968    2.8736    0.3331 H   0  0  0  0  0  0  0  0  0  0  0  0
   -0.6985    4.2339    0.0412 C   0  0  0  0  0  0  0  0  0  0  0  0
   -0.0961    5.1376    0.2110 H   0  0  0  0  0  0  0  0  0  0  0  0
   -2.0708    4.3147   -0.2383 C   0  0  0  0  0  0  0  0  0  0  0  0
   -2.5818    5.2866   -0.2982 H   0  0  0  0  0  0  0  0  0  0  0  0
   -2.7824    3.1278   -0.4436 C   0  0  0  0  0  0  0  0  0  0  0  0
   -3.8564    3.1340   -0.6703 H   0  0  0  0  0  0  0  0  0  0  0  0
   -2.0927    1.9072   -0.3583 C   0  0  0  0  0  0  0  0  0  0  0  0
   -2.6470    0.5885   -0.5536 C   0  0  1  0  0  3  0  0  0  0  0  0
   -3.8050   -1.2564   -0.6534 C   0  0  0  0  0  0  0  0  0  0  0  0
   -4.9169   -2.2080   -0.5934 C   0  0  0  0  0  0  0  0  0  0  0  0
   -4.7849   -3.3845    0.1773 C   0  0  0  0  0  0  0  0  0  0  0  0
   -3.8698   -3.5614    0.7605 H   0  0  0  0  0  0  0  0  0  0  0  0
   -5.8782   -4.2446    0.1845 C   0  0  0  0  0  0  0  0  0  0  0  0
   -5.8735   -5.1831    0.7586 H   0  0  0  0  0  0  0  0  0  0  0  0
   -7.0107   -3.8504   -0.5520 C   0  0  0  0  0  0  0  0  0  0  0  0
   -7.9198   -4.4737   -0.5834 H   0  0  0  0  0  0  0  0  0  0  0  0
   -5.1215    0.8841   -0.3327 C   0  0  0  0  0  0  0  0  0  0  0  0
   -5.9601    1.2976   -1.3774 C   0  0  0  0  0  0  0  0  0  0  0  0
   -5.7347    0.9951   -2.4087 H   0  0  0  0  0  0  0  0  0  0  0  0
   -7.0819    2.0782   -1.0768 C   0  0  0  0  0  0  0  0  0  0  0  0
   -7.7447    2.4046   -1.8932 H   0  0  0  0  0  0  0  0  0  0  0  0
   -7.3856    2.4439    0.2531 C   0  0  0  0  0  0  0  0  0  0  0  0
   -6.5274    2.0007    1.2802 C   0  0  0  0  0  0  0  0  0  0  0  0
   -6.7483    2.2682    2.3252 H   0  0  0  0  0  0  0  0  0  0  0  0
   -5.3965    1.2210    1.0013 C   0  0  0  0  0  0  0  0  0  0  0  0
   -4.7297    0.8570    1.8026 H   0  0  0  0  0  0  0  0  0  0  0  0
   -8.6173    3.2551    0.5638 C   0  0  0  0  0  0  0  0  0  0  0  0
   -8.5435    3.7503    1.5513 H   0  0  0  0  0  0  0  0  0  0  0  0
   -8.7984    4.0333   -0.2042 H   0  0  0  0  0  0  0  0  0  0  0  0
   -9.5195    2.6067    0.5855 H   0  0  0  0  0  0  0  0  0  0  0  0
   -0.7504    1.8277   -0.0790 N   0  0  0  0  0  2  0  0  0  0  0  0
   -1.8019   -0.4535   -0.5859 N   0  0  0  0  0  2  0  0  0  0  0  0
   -2.5195   -1.5954   -0.6535 N   0  0  0  0  0  0  0  0  0  0  0  0
   -3.9345    0.1201   -0.6102 N   0  0  0  0  0  0  0  0  0  0  0  0
   -6.0355   -1.8885   -1.2811 N   0  0  0  0  0  0  0  0  0  0  0  0
   -7.0830   -2.7043   -1.2497 N   0  0  0  0  0  0  0  0  0  0  0  0
  1  2  1  0  0  0  0
  3  1  1  0  0  0  0
  3  4  1  0  0  0  0
  5  3  2  0  0  0  0
  6  5  1  0  0  0  0
  7  9  2  0  0  0  0
  7  5  1  0  0  0  0
  8  7  1  0  0  0  0
  9 33  1  0  0  0  0
 10  9  1  1  0  0  0
 11 36  1  0  0  0  0
 11 12  1  0  0  0  0
 12 13  1  0  0  0  0
 13 15  2  0  0  0  0
 13 14  1  0  0  0  0
 15 16  1  0  0  0  0
 17 15  1  0  0  0  0
 18 17  1  0  0  0  0
 19 27  1  0  0  0  0
 20 22  1  0  0  0  0
 20 19  2  0  0  0  0
 21 20  1  0  0  0  0
 22 24  2  0  0  0  0
 23 22  1  0  0  0  0
 24 29  1  0  0  0  0
 24 25  1  0  0  0  0
 25 26  1  0  0  0  0
 27 25  2  0  0  0  0
 27 28  1  0  0  0  0
 29 32  1  0  0  0  0
 29 30  1  0  0  0  0
 31 29  1  0  0  0  0
 33  1  1  0  0  0  0
 34 10  1  0  0  0  0
 35 11  2  0  0  0  0
 35 34  1  0  0  0  0
 36 10  1  0  0  0  0
 36 19  1  0  0  0  0
 37 38  1  0  0  0  0
 37 12  2  0  0  0  0
 38 17  2  0  0  0  0
M  END
