3,4
q = 0.0, confidence = 1.0

 33 34  0  0  1  0  0  0  0  0999 V2000
   -4.2377   -1.8163    1.2752 O   0  0  0  0  0  0  0  0  0  0  0  0
   -2.6467   -1.5038   -0.3471 N   0  0  0  0  0  0  0  0  0  0  0  0
   -0.4647   -1.8349    0.5196 N   0  0  0  0  0  2  0  0  0  0  0  0
   -1.0390   -0.2951   -1.6166 N   0  0  0  0  0  2  0  0  0  0  0  0
    0.4719   -2.6532    1.0675 C   0  0  0  0  0  3  0  0  0  0  0  0
    1.4872   -2.2422    1.1256 H   0  0  0  0  0  0  0  0  0  0  0  0
    0.1768   -3.9359    1.5257 C   0  0  0  0  0  0  0  0  0  0  0  0
    0.9757   -4.5459    1.9696 H   0  0  0  0  0  0  0  0  0  0  0  0
   -1.1345   -4.4188    1.3961 C   0  0  0  0  0  0  0  0  0  0  0  0
   -1.4052   -5.4253    1.7468 H   0  0  0  0  0  0  0  0  0  0  0  0
   -2.0895   -3.6078    0.7766 C   0  0  0  0  0  0  0  0  0  0  0  0
   -3.1209   -3.9428    0.6190 H   0  0  0  0  0  0  0  0  0  0  0  0
   -1.7167   -2.3255    0.3399 C   0  0  0  0  0  0  0  0  0  0  0  0
   -2.2245   -0.9588   -1.5833 C   0  0  1  0  0  3  0  0  0  0  0  0
   -2.9707   -1.1979   -2.7506 C   0  0  0  0  0  0  0  0  0  0  0  0
   -3.8950   -1.7862   -2.6796 H   0  0  0  0  0  0  0  0  0  0  0  0
   -2.5043   -0.7181   -3.9784 C   0  0  0  0  0  0  0  0  0  0  0  0
   -3.0801   -0.8916   -4.8991 H   0  0  0  0  0  0  0  0  0  0  0  0
   -1.2644   -0.0610   -4.0116 C   0  0  0  0  0  0  0  0  0  0  0  0
   -0.8296    0.3012   -4.9536 H   0  0  0  0  0  0  0  0  0  0  0  0
   -0.5577    0.1095   -2.8219 C   0  0  0  0  0  0  0  0  0  0  0  0
    0.4387    0.5696   -2.7999 H   0  0  0  0  0  0  0  0  0  0  0  0
   -3.8965   -1.2064    0.2757 C   0  0  0  0  0  0  0  0  0  0  0  0
   -4.7117   -0.0834   -0.3383 C   0  0  0  0  0  0  0  0  0  0  0  0
   -5.1176   -0.4124   -1.3197 H   0  0  0  0  0  0  0  0  0  0  0  0
   -4.0289    0.7635   -0.5642 H   0  0  0  0  0  0  0  0  0  0  0  0
   -5.8491    0.3742    0.5754 C   0  0  0  0  0  0  0  0  0  0  0  0
   -5.4168    0.6399    1.5614 H   0  0  0  0  0  0  0  0  0  0  0  0
   -6.5391   -0.4772    0.7515 H   0  0  0  0  0  0  0  0  0  0  0  0
   -6.5918    1.5787    0.0015 C   0  0  0  0  0  0  0  0  0  0  0  0
   -7.0113    1.3691   -1.0059 H   0  0  0  0  0  0  0  0  0  0  0  0
   -5.9080    2.4486   -0.0845 H   0  0  0  0  0  0  0  0  0  0  0  0
   -7.4322    1.8813    0.6574 H   0  0  0  0  0  0  0  0  0  0  0  0
  2 23  1  0  0  0  0
  2 13  1  0  0  0  0
  3  5  1  0  0  0  0
  4 14  1  0  0  0  0
  5  6  1  0  0  0  0
  5  7  1  0  0  0  0
  7  8  1  0  0  0  0
  9  7  2  0  0  0  0
  9 10  1  0  0  0  0
 11  9  1  0  0  0  0
 12 11  1  0  0  0  0
 13  3  1  0  0  0  0
 13 11  2  0  0  0  0
 14  2  1  6  0  0  0
 15 16  1  0  0  0  0
 15 14  1  0  0  0  0
 17 15  2  0  0  0  0
 18 17  1  0  0  0  0
 19 17  1  0  0  0  0
 19 21  2  0  0  0  0
 20 19  1  0  0  0  0
 21 22  1  0  0  0  0
 21  4  1  0  0  0  0
 23  1  2  0  0  0  0
 24 23  1  0  0  0  0
 24 27  1  0  0  0  0
 25 24  1  0  0  0  0
 26 24  1  0  0  0  0
 27 29  1  0  0  0  0
 27 28  1  0  0  0  0
 30 27  1  0  0  0  0
 30 33  1  0  0  0  0
 31 30  1  0  0  0  0
 32 30  1  0  0  0  0
M  END
