40,43
q = 0.0, confidence = 0.996

 43 46  0  0  1  0  0  0  0  0999 V2000
    2.7408   -0.0008   -1.6081 Si  0  0  0  0  0  0  0  0  0  0  0  0
   -1.9071   -2.4346    1.1030 C   0  0  0  0  0  3  0  0  0  0  0  0
   -2.9246   -2.2221    0.7444 H   0  0  0  0  0  0  0  0  0  0  0  0
   -1.6511   -3.5057    1.9814 C   0  0  0  0  0  0  0  0  0  0  0  0
   -2.4931   -4.1301    2.3120 H   0  0  0  0  0  0  0  0  0  0  0  0
   -0.3477   -3.7669    2.4187 C   0  0  0  0  0  0  0  0  0  0  0  0
   -0.1310   -4.6008    3.1031 H   0  0  0  0  0  0  0  0  0  0  0  0
    0.6783   -2.9248    1.9495 C   0  0  0  0  0  0  0  0  0  0  0  0
    2.1001   -2.8362    2.1319 C   0  0  0  0  0  0  0  0  0  0  0  0
    2.7297   -3.4864    2.7483 H   0  0  0  0  0  0  0  0  0  0  0  0
    2.5301   -1.7662    1.3708 C   0  0  0  0  0  0  0  0  0  0  0  0
    3.5368   -1.3554    1.2407 H   0  0  0  0  0  0  0  0  0  0  0  0
    0.3077   -1.8624    1.0572 C   0  0  0  0  0  0  0  0  0  0  0  0
    1.5165    0.0190   -0.1225 C   0  0  1  0  0  0  0  0  0  0  0  0
    0.5311   -0.0017   -0.7102 H   0  0  0  0  0  0  0  0  0  0  0  0
    2.4997    1.8915    1.2810 C   0  0  0  0  0  0  0  0  0  0  0  0
    3.5186    1.5201    1.1296 H   0  0  0  0  0  0  0  0  0  0  0  0
    2.0472    2.9617    2.0286 C   0  0  0  0  0  0  0  0  0  0  0  0
    2.6664    3.6533    2.6094 H   0  0  0  0  0  0  0  0  0  0  0  0
    0.6181    2.9856    1.8881 C   0  0  0  0  0  0  0  0  0  0  0  0
   -0.4290    3.7925    2.3720 C   0  0  0  0  0  0  0  0  0  0  0  0
   -0.2283    4.6509    3.0304 H   0  0  0  0  0  0  0  0  0  0  0  0
   -1.7327    3.4625    1.9852 C   0  0  0  0  0  0  0  0  0  0  0  0
   -2.5912    4.0554    2.3310 H   0  0  0  0  0  0  0  0  0  0  0  0
   -1.9681    2.3622    1.1379 C   0  0  0  0  0  3  0  0  0  0  0  0
   -2.9865    2.0981    0.8187 H   0  0  0  0  0  0  0  0  0  0  0  0
    0.2671    1.8880    1.0310 C   0  0  0  0  0  0  0  0  0  0  0  0
    2.2921    1.5489   -2.5819 C   0  0  0  0  0  0  0  0  0  0  0  0
    2.8532    1.5997   -3.5372 H   0  0  0  0  0  0  0  0  0  0  0  0
    2.5183    2.4669   -2.0021 H   0  0  0  0  0  0  0  0  0  0  0  0
    1.2070    1.5487   -2.8139 H   0  0  0  0  0  0  0  0  0  0  0  0
    2.2948   -1.5824   -2.5304 C   0  0  0  0  0  0  0  0  0  0  0  0
    2.8550   -1.6635   -3.4840 H   0  0  0  0  0  0  0  0  0  0  0  0
    1.2092   -1.5938   -2.7605 H   0  0  0  0  0  0  0  0  0  0  0  0
    2.5245   -2.4797   -1.9204 H   0  0  0  0  0  0  0  0  0  0  0  0
    4.5846    0.0057   -1.1640 C   0  0  0  0  0  0  0  0  0  0  0  0
    5.1761   -0.0082   -2.1038 H   0  0  0  0  0  0  0  0  0  0  0  0
    4.8840   -0.8872   -0.5788 H   0  0  0  0  0  0  0  0  0  0  0  0
    4.8869    0.9136   -0.6039 H   0  0  0  0  0  0  0  0  0  0  0  0
   -0.9468   -1.6037    0.6378 N   0  0  0  0  0  2  0  0  0  0  0  0
    1.4599   -1.1733    0.7084 N   0  0  0  0  0  0  0  0  0  0  0  0
    1.4369    1.2382    0.6650 N   0  0  0  0  0  0  0  0  0  0  0  0
   -0.9868    1.5670    0.6551 N   0  0  0  0  0  2  0  0  0  0  0  0
  1 36  1  0  0  0  0
  1 14  1  0  0  0  0
  2  4  1  0  0  0  0
  3  2  1  0  0  0  0
  4  5  1  0  0  0  0
  4  6  2  0  0  0  0
  6  7  1  0  0  0  0
  8  9  1  0  0  0  0
  8  6  1  0  0  0  0
  9 10  1  0  0  0  0
 11  9  2  0  0  0  0
 12 11  1  0  0  0  0
 13  8  2  0  0  0  0
 14 15  1  6  0  0  0
 14 42  1  0  0  0  0
 14 41  1  0  0  0  0
 16 18  2  0  0  0  0
 17 16  1  0  0  0  0
 18 19  1  0  0  0  0
 20 18  1  0  0  0  0
 20 21  1  0  0  0  0
 21 22  1  0  0  0  0
 23 24  1  0  0  0  0
 23 21  2  0  0  0  0
 25 23  1  0  0  0  0
 26 25  1  0  0  0  0
 27 20  2  0  0  0  0
 28 30  1  0  0  0  0
 28  1  1  0  0  0  0
 29 28  1  0  0  0  0
 31 28  1  0  0  0  0
 32 35  1  0  0  0  0
 32  1  1  0  0  0  0
 33 32  1  0  0  0  0
 34 32  1  0  0  0  0
 36 39  1  0  0  0  0
 36 38  1  0  0  0  0
 37 36  1  0  0  0  0
 40 13  1  0  0  0  0
 40  2  1  0  0  0  0
 41 13  1  0  0  0  0
 41 11  1  0  0  0  0
 42 27  1  0  0  0  0
 42 16  1  0  0  0  0
 43 27  1  0  0  0  0
 43 25  1  0  0  0  0
M  END
