4,7
q = 0.0, confidence = 0.988

 22 23  0  0  1  0  0  0  0  0999 V2000
   -1.5259    1.0768    2.4047 O   0  0  0  0  0  0  0  0  0  0  0  0
   -1.3631   -1.1940    2.2825 O   0  0  0  0  0  0  0  0  0  0  0  0
   -1.0244   -1.0839    3.1986 H   0  0  0  0  0  0  0  0  0  0  0  0
   -0.3202   -1.4405   -0.5349 N   0  0  0  0  0  2  0  0  0  0  0  0
   -1.6479   -1.2209   -0.3778 N   0  0  0  0  0  0  0  0  0  0  0  0
   -1.6930    1.1773   -0.3693 N   0  0  0  0  0  0  0  0  0  0  0  0
   -0.3721    1.4486   -0.5123 N   0  0  0  0  0  2  0  0  0  0  0  0
   -0.1889   -2.6694   -1.0541 C   0  0  0  0  0  3  0  0  0  0  0  0
    0.8236   -3.0439   -1.2473 H   0  0  0  0  0  0  0  0  0  0  0  0
   -1.4650   -3.2588   -1.2249 C   0  0  0  0  0  0  0  0  0  0  0  0
   -1.6906   -4.2512   -1.6269 H   0  0  0  0  0  0  0  0  0  0  0  0
   -2.3762   -2.3096   -0.7766 C   0  0  0  0  0  0  0  0  0  0  0  0
   -3.4691   -2.3182   -0.7048 H   0  0  0  0  0  0  0  0  0  0  0  0
   -2.0857   -0.0317    0.3171 C   0  0  2  0  0  0  0  0  0  0  0  0
   -3.1928   -0.0552    0.3448 H   0  0  0  0  0  0  0  0  0  0  0  0
   -1.5876    0.0355    1.7965 C   0  0  0  0  0  0  0  0  0  0  0  0
   -2.4568    2.2524   -0.7348 C   0  0  0  0  0  3  0  0  0  0  0  0
   -3.5490    2.2238   -0.6584 H   0  0  0  0  0  0  0  0  0  0  0  0
   -1.5789    3.2429   -1.1579 C   0  0  0  0  0  0  0  0  0  0  0  0
   -1.8379    4.2379   -1.5323 H   0  0  0  0  0  0  0  0  0  0  0  0
   -0.2832    2.6938   -0.9994 C   0  0  0  0  0  0  0  0  0  0  0  0
    0.7159    3.1082   -1.1806 H   0  0  0  0  0  0  0  0  0  0  0  0
  2  3  1  0  0  0  0
  4  5  1  0  0  0  0
  5 14  1  0  0  0  0
  6 14  1  0  0  0  0
  7  6  1  0  0  0  0
  8  4  1  0  0  0  0
  9  8  1  0  0  0  0
 10  8  1  0  0  0  0
 10 12  2  0  0  0  0
 11 10  1  0  0  0  0
 12 13  1  0  0  0  0
 12  5  1  0  0  0  0
 14 15  1  1  0  0  0
 14 16  1  0  0  0  0
 16  2  1  0  0  0  0
 16  1  2  0  0  0  0
 17 18  1  0  0  0  0
 17  6  1  0  0  0  0
 19 21  2  0  0  0  0
 19 17  1  0  0  0  0
 20 19  1  0  0  0  0
 21  7  1  0  0  0  0
 22 21  1  0  0  0  0
M  END
