1,2
q = 0.0, confidence = 1.0

 53 54  0  0  1  0  0  0  0  0999 V2000
   -0.0074    0.4909    0.0899 N   0  0  0  0  0  2  0  0  0  0  0  0
   -2.5749    1.1491   -0.3581 N   0  0  0  0  0  0  0  0  0  0  0  0
   -2.7753    1.4591   -1.3214 H   0  0  0  0  0  0  0  0  0  0  0  0
   -3.4791    1.0585    0.1294 H   0  0  0  0  0  0  0  0  0  0  0  0
    1.8791   -0.6132    1.1221 N   0  0  0  0  0  0  0  0  0  0  0  0
    2.2108    0.1478   -0.9192 N   0  0  0  0  0  0  0  0  0  0  0  0
   -0.2848    1.9228   -0.0746 C   0  0  2  0  0  0  0  0  0  0  0  0
   -0.2028    2.2477   -1.1485 H   0  0  0  0  0  0  0  0  0  0  0  0
    0.6206    2.8456    0.7550 C   0  0  0  0  0  0  0  0  0  0  0  0
    1.6864    2.6823    0.4920 H   0  0  0  0  0  0  0  0  0  0  0  0
    0.5121    2.5637    1.8246 H   0  0  0  0  0  0  0  0  0  0  0  0
    0.2285    4.3154    0.5511 C   0  0  0  0  0  0  0  0  0  0  0  0
    0.8759    4.9694    1.1695 H   0  0  0  0  0  0  0  0  0  0  0  0
    0.4176    4.6032   -0.5074 H   0  0  0  0  0  0  0  0  0  0  0  0
   -1.2483    4.5572    0.8914 C   0  0  0  0  0  0  0  0  0  0  0  0
   -1.5300    5.6083    0.6809 H   0  0  0  0  0  0  0  0  0  0  0  0
   -1.4023    4.4042    1.9816 H   0  0  0  0  0  0  0  0  0  0  0  0
   -2.1735    3.6014    0.1215 C   0  0  0  0  0  0  0  0  0  0  0  0
   -3.2274    3.7349    0.4441 H   0  0  0  0  0  0  0  0  0  0  0  0
   -2.1351    3.8361   -0.9673 H   0  0  0  0  0  0  0  0  0  0  0  0
   -1.7338    2.1552    0.3454 C   0  0  1  0  0  0  0  0  0  0  0  0
   -1.8113    1.8868    1.4191 H   0  0  0  0  0  0  0  0  0  0  0  0
    1.2660    0.0482    0.0842 C   0  0  1  0  0  3  0  0  0  0  0  0
    3.1951   -0.9228    0.7790 C   0  0  0  0  0  0  0  0  0  0  0  0
    3.4146   -0.4267   -0.4961 C   0  0  0  0  0  0  0  0  0  0  0  0
    4.1416   -1.6771    1.6511 C   0  0  0  0  0  0  0  0  0  0  0  0
    5.1583   -1.6489    1.2191 H   0  0  0  0  0  0  0  0  0  0  0  0
    3.8532   -2.7437    1.7470 H   0  0  0  0  0  0  0  0  0  0  0  0
    4.2004   -1.2563    2.6732 H   0  0  0  0  0  0  0  0  0  0  0  0
    4.6698   -0.4788   -1.3024 C   0  0  0  0  0  0  0  0  0  0  0  0
    5.5258   -0.7229   -0.6470 H   0  0  0  0  0  0  0  0  0  0  0  0
    4.8944    0.4912   -1.7863 H   0  0  0  0  0  0  0  0  0  0  0  0
    4.6365   -1.2513   -2.0979 H   0  0  0  0  0  0  0  0  0  0  0  0
    1.2090   -0.7816    2.4335 C   0  0  0  0  0  0  0  0  0  0  0  0
    0.1709   -0.4501    2.2282 H   0  0  0  0  0  0  0  0  0  0  0  0
    1.8053    0.1530    3.4890 C   0  0  0  0  0  0  0  0  0  0  0  0
    2.8335   -0.1313    3.7886 H   0  0  0  0  0  0  0  0  0  0  0  0
    1.1733    0.1174    4.3978 H   0  0  0  0  0  0  0  0  0  0  0  0
    1.8245    1.2006    3.1306 H   0  0  0  0  0  0  0  0  0  0  0  0
    1.1446   -2.2412    2.8843 C   0  0  0  0  0  0  0  0  0  0  0  0
    0.8377   -2.9047    2.0532 H   0  0  0  0  0  0  0  0  0  0  0  0
    0.3776   -2.3320    3.6776 H   0  0  0  0  0  0  0  0  0  0  0  0
    2.1024   -2.6142    3.2954 H   0  0  0  0  0  0  0  0  0  0  0  0
    1.8831    0.7115   -2.2472 C   0  0  0  0  0  0  0  0  0  0  0  0
    0.7800    0.8070   -2.2040 H   0  0  0  0  0  0  0  0  0  0  0  0
    2.4844    2.1059   -2.4525 C   0  0  0  0  0  0  0  0  0  0  0  0
    2.1923    2.8007   -1.6429 H   0  0  0  0  0  0  0  0  0  0  0  0
    2.1260    2.5284   -3.4114 H   0  0  0  0  0  0  0  0  0  0  0  0
    3.5906    2.0742   -2.4978 H   0  0  0  0  0  0  0  0  0  0  0  0
    2.2212   -0.2458   -3.3955 C   0  0  0  0  0  0  0  0  0  0  0  0
    3.3043   -0.2816   -3.6149 H   0  0  0  0  0  0  0  0  0  0  0  0
    1.7169    0.1050   -4.3172 H   0  0  0  0  0  0  0  0  0  0  0  0
    1.8761   -1.2780   -3.1904 H   0  0  0  0  0  0  0  0  0  0  0  0
  2  4  1  0  0  0  0
  2 21  1  0  0  0  0
  3  2  1  0  0  0  0
  5 34  1  0  0  0  0
  6 25  1  0  0  0  0
  6 23  1  0  0  0  0
  7  8  1  6  0  0  0
  7  1  1  0  0  0  0
  7 21  1  0  0  0  0
  7  9  1  0  0  0  0
  9 11  1  0  0  0  0
 10  9  1  0  0  0  0
 12  9  1  0  0  0  0
 12 15  1  0  0  0  0
 12 13  1  0  0  0  0
 14 12  1  0  0  0  0
 15 17  1  0  0  0  0
 16 15  1  0  0  0  0
 18 21  1  0  0  0  0
 18 19  1  0  0  0  0
 18 15  1  0  0  0  0
 20 18  1  0  0  0  0
 21 22  1  1  0  0  0
 23  1  1  6  0  0  0
 23  5  1  0  0  0  0
 24  5  1  0  0  0  0
 24 26  1  0  0  0  0
 25 24  2  0  0  0  0
 26 28  1  0  0  0  0
 26 29  1  0  0  0  0
 27 26  1  0  0  0  0
 30 31  1  0  0  0  0
 30 25  1  0  0  0  0
 32 30  1  0  0  0  0
 33 30  1  0  0  0  0
 34 40  1  0  0  0  0
 34 36  1  0  0  0  0
 35 34  1  0  0  0  0
 36 37  1  0  0  0  0
 36 38  1  0  0  0  0
 39 36  1  0  0  0  0
 40 43  1  0  0  0  0
 40 42  1  0  0  0  0
 41 40  1  0  0  0  0
 44 45  1  0  0  0  0
 44  6  1  0  0  0  0
 46 44  1  0  0  0  0
 46 47  1  0  0  0  0
 48 46  1  0  0  0  0
 49 46  1  0  0  0  0
 50 53  1  0  0  0  0
 50 44  1  0  0  0  0
 51 50  1  0  0  0  0
 52 50  1  0  0  0  0
M  END
