1,19
q = 0.0, confidence = 0.992

 30 32  0  0  1  0  0  0  0  0999 V2000
    1.4486    1.9906   -1.4002 N   0  0  0  0  0  2  0  0  0  0  0  0
    2.7308    2.3987   -1.4426 C   0  0  0  0  0  3  0  0  0  0  0  0
    3.4675    1.6286   -1.7244 H   0  0  0  0  0  0  0  0  0  0  0  0
    3.1190    3.7112   -1.1539 C   0  0  0  0  0  0  0  0  0  0  0  0
    4.1797    3.9961   -1.2042 H   0  0  0  0  0  0  0  0  0  0  0  0
    2.1253    4.6424   -0.8063 C   0  0  0  0  0  0  0  0  0  0  0  0
    2.3886    5.6828   -0.5654 H   0  0  0  0  0  0  0  0  0  0  0  0
    0.7922    4.2246   -0.7632 C   0  0  0  0  0  0  0  0  0  0  0  0
    0.0015    4.9317   -0.4791 H   0  0  0  0  0  0  0  0  0  0  0  0
    0.4755    2.8852   -1.0676 C   0  0  0  0  0  0  0  0  0  0  0  0
   -0.8951    2.3329   -0.9914 C   0  0  2  0  0  3  0  0  0  0  0  0
   -2.0350    3.0877   -0.6453 C   0  0  0  0  0  0  0  0  0  0  0  0
   -1.9617    4.1738   -0.4984 H   0  0  0  0  0  0  0  0  0  0  0  0
   -3.2524    2.4387   -0.4378 C   0  0  0  0  0  0  0  0  0  0  0  0
   -4.1334    3.0115   -0.1125 H   0  0  0  0  0  0  0  0  0  0  0  0
   -3.3402    1.0342   -0.5946 C   0  0  0  0  0  0  0  0  0  0  0  0
   -2.1741    0.3770   -1.0372 C   0  0  0  0  0  0  0  0  0  0  0  0
   -2.1858   -0.7013   -1.2640 H   0  0  0  0  0  0  0  0  0  0  0  0
   -0.9974    0.9963   -1.2177 N   0  0  0  0  0  2  0  0  0  0  0  0
   -4.5716    0.2722   -0.2964 C   0  0  0  0  0  0  0  0  0  0  0  0
   -4.4828   -1.0184    0.2758 C   0  0  0  0  0  0  0  0  0  0  0  0
   -3.4975   -1.4451    0.5151 H   0  0  0  0  0  0  0  0  0  0  0  0
   -5.6409   -1.7463    0.5767 C   0  0  0  0  0  0  0  0  0  0  0  0
   -5.5483   -2.7447    1.0308 H   0  0  0  0  0  0  0  0  0  0  0  0
   -6.9083   -1.2023    0.3129 C   0  0  0  0  0  0  0  0  0  0  0  0
   -7.8177   -1.7752    0.5490 H   0  0  0  0  0  0  0  0  0  0  0  0
   -7.0092    0.0791   -0.2535 C   0  0  0  0  0  0  0  0  0  0  0  0
   -7.9986    0.5095   -0.4709 H   0  0  0  0  0  0  0  0  0  0  0  0
   -5.8526    0.8109   -0.5537 C   0  0  0  0  0  0  0  0  0  0  0  0
   -5.9415    1.8037   -1.0205 H   0  0  0  0  0  0  0  0  0  0  0  0
  1 10  1  0  0  0  0
  2  1  1  0  0  0  0
  2  4  1  0  0  0  0
  3  2  1  0  0  0  0
  4  6  2  0  0  0  0
  5  4  1  0  0  0  0
  6  8  1  0  0  0  0
  6  7  1  0  0  0  0
  8  9  1  0  0  0  0
 10  8  2  0  0  0  0
 11 10  1  1  0  0  0
 11 12  1  0  0  0  0
 12 13  1  0  0  0  0
 12 14  2  0  0  0  0
 14 15  1  0  0  0  0
 16 14  1  0  0  0  0
 16 20  1  0  0  0  0
 17 16  2  0  0  0  0
 18 17  1  0  0  0  0
 19 17  1  0  0  0  0
 19 11  1  0  0  0  0
 20 21  1  0  0  0  0
 21 22  1  0  0  0  0
 21 23  2  0  0  0  0
 23 24  1  0  0  0  0
 25 26  1  0  0  0  0
 25 23  1  0  0  0  0
 27 25  2  0  0  0  0
 28 27  1  0  0  0  0
 29 20  2  0  0  0  0
 29 27  1  0  0  0  0
 30 29  1  0  0  0  0
M  END
