1,18
q = 0.0, confidence = 0.998

 27 29  0  0  1  0  0  0  0  0999 V2000
    0.6782    0.1771   -0.3099 N   0  0  0  0  0  2  0  0  0  0  0  0
    4.2724    0.2785   -0.1006 C   0  0  0  0  0  0  0  0  0  0  0  0
    4.5001   -1.0535   -0.1604 N   0  0  0  0  0  0  0  0  0  0  0  0
   -2.7812    2.1292   -0.2969 C   0  0  0  0  0  3  0  0  0  0  0  0
   -3.6595    1.4696   -0.3438 H   0  0  0  0  0  0  0  0  0  0  0  0
    1.9114   -0.3176   -0.2673 N   0  0  0  0  0  0  0  0  0  0  0  0
    2.1096   -1.3235   -0.2808 H   0  0  0  0  0  0  0  0  0  0  0  0
    2.1675    1.8797   -0.1431 C   0  0  0  0  0  0  0  0  0  0  0  0
    2.5985    2.8815   -0.0649 H   0  0  0  0  0  0  0  0  0  0  0  0
   -2.9174    3.5185   -0.2278 C   0  0  0  0  0  0  0  0  0  0  0  0
   -3.9214    3.9648   -0.2235 H   0  0  0  0  0  0  0  0  0  0  0  0
    2.8602    0.6609   -0.1650 C   0  0  1  0  0  3  0  0  0  0  0  0
   -0.4477    2.2822   -0.2317 C   0  0  0  0  0  0  0  0  0  0  0  0
   -1.7612    4.3122   -0.1605 C   0  0  0  0  0  0  0  0  0  0  0  0
   -1.8337    5.4082   -0.1036 H   0  0  0  0  0  0  0  0  0  0  0  0
   -0.5124    3.6847   -0.1636 C   0  0  0  0  0  0  0  0  0  0  0  0
    0.4173    4.2678   -0.1083 H   0  0  0  0  0  0  0  0  0  0  0  0
   -1.5792    1.5148   -0.3024 N   0  0  0  0  0  2  0  0  0  0  0  0
    0.7983    1.5280   -0.2307 C   0  0  0  0  0  0  0  0  0  0  0  0
    5.3107    1.2256    0.0188 C   0  0  0  0  0  0  0  0  0  0  0  0
    5.0855    2.3007    0.0662 H   0  0  0  0  0  0  0  0  0  0  0  0
    6.8692   -0.6199    0.0173 C   0  0  0  0  0  0  0  0  0  0  0  0
    7.8902   -1.0257    0.0617 H   0  0  0  0  0  0  0  0  0  0  0  0
    5.7659   -1.4828   -0.1017 C   0  0  0  0  0  0  0  0  0  0  0  0
    5.9140   -2.5757   -0.1515 H   0  0  0  0  0  0  0  0  0  0  0  0
    6.6296    0.7613    0.0780 C   0  0  0  0  0  0  0  0  0  0  0  0
    7.4642    1.4722    0.1721 H   0  0  0  0  0  0  0  0  0  0  0  0
  1  6  1  0  0  0  0
  1 19  1  0  0  0  0
  2 20  1  0  0  0  0
  3 24  1  0  0  0  0
  3  2  2  0  0  0  0
  4 10  1  0  0  0  0
  5  4  1  0  0  0  0
  6 12  1  0  0  0  0
  7  6  1  0  0  0  0
  8  9  1  0  0  0  0
 10 11  1  0  0  0  0
 10 14  2  0  0  0  0
 12  8  1  0  0  0  0
 12  2  1  1  0  0  0
 13 19  1  0  0  0  0
 13 16  2  0  0  0  0
 14 15  1  0  0  0  0
 16 14  1  0  0  0  0
 16 17  1  0  0  0  0
 18  4  1  0  0  0  0
 18 13  1  0  0  0  0
 19  8  2  0  0  0  0
 20 21  1  0  0  0  0
 20 26  2  0  0  0  0
 22 23  1  0  0  0  0
 22 26  1  0  0  0  0
 24 22  2  0  0  0  0
 25 24  1  0  0  0  0
 26 27  1  0  0  0  0
M  END
