55,56
q = -1.0, confidence = 0.01

 57 62  0  0  1  0  0  0  0  0999 V2000
    5.6434   -5.4321   -0.5855 Br  0  0  0  0  0  0  0  0  0  0  0  0
   -8.3650   -3.1309   -0.1968 Br  0  0  0  0  0  0  0  0  0  0  0  0
   -8.3789    3.1693    0.1872 Br  0  0  0  0  0  0  0  0  0  0  0  0
    5.7044    5.1002   -1.0332 Br  0  0  0  0  0  0  0  0  0  0  0  0
    0.0348   -2.8370   -0.2864 C   0  0  1  0  0  3  0  0  0  0  0  0
   -1.2457   -3.4670   -0.2884 C   0  0  0  0  0  0  0  0  0  0  0  0
   -1.4233   -4.5462   -0.3615 H   0  0  0  0  0  0  0  0  0  0  0  0
   -2.2083   -2.4558   -0.1915 C   0  0  0  0  0  0  0  0  0  0  0  0
   -1.4657   -1.1991   -0.1652 C   0  0  0  0  0  0  0  0  0  0  0  0
   -1.4954    1.1831   -0.3425 C   0  0  0  0  0  0  0  0  0  0  0  0
   -2.2484    2.4509   -0.3287 C   0  0  0  0  0  3  0  0  0  0  0  0
   -1.2809    3.4467   -0.4411 C   0  0  0  0  0  0  0  0  0  0  0  0
   -1.4552    4.5266   -0.5216 H   0  0  0  0  0  0  0  0  0  0  0  0
   -0.0063    2.7766   -0.5635 C   0  0  0  0  0  0  0  0  0  0  0  0
    1.3473   -3.4799   -0.3834 C   0  0  0  0  0  0  0  0  0  0  0  0
    1.5923   -4.7476    0.1932 C   0  0  0  0  0  0  0  0  0  0  0  0
    0.7830   -5.2623    0.7325 H   0  0  0  0  0  0  0  0  0  0  0  0
    2.8613   -5.3376    0.1329 C   0  0  0  0  0  0  0  0  0  0  0  0
    3.0493   -6.3101    0.6090 H   0  0  0  0  0  0  0  0  0  0  0  0
    3.9005   -4.6643   -0.5311 C   0  0  0  0  0  0  0  0  0  0  0  0
    3.6762   -3.4247   -1.1516 C   0  0  0  0  0  0  0  0  0  0  0  0
    4.4878   -2.9199   -1.6936 H   0  0  0  0  0  0  0  0  0  0  0  0
    2.4088   -2.8393   -1.0683 C   0  0  0  0  0  0  0  0  0  0  0  0
    2.2238   -1.8767   -1.5670 H   0  0  0  0  0  0  0  0  0  0  0  0
   -3.6652   -2.6074   -0.1864 C   0  0  0  0  0  0  0  0  0  0  0  0
   -4.2769   -3.7132   -0.8261 C   0  0  0  0  0  0  0  0  0  0  0  0
   -3.6503   -4.4438   -1.3593 H   0  0  0  0  0  0  0  0  0  0  0  0
   -5.6662   -3.8799   -0.8287 C   0  0  0  0  0  0  0  0  0  0  0  0
   -6.1267   -4.7362   -1.3412 H   0  0  0  0  0  0  0  0  0  0  0  0
   -6.4724   -2.9282   -0.1822 C   0  0  0  0  0  0  0  0  0  0  0  0
   -5.8976   -1.8256    0.4701 C   0  0  0  0  0  0  0  0  0  0  0  0
   -6.5349   -1.0898    0.9810 H   0  0  0  0  0  0  0  0  0  0  0  0
   -4.5067   -1.6724    0.4666 C   0  0  0  0  0  0  0  0  0  0  0  0
   -4.0548   -0.8111    0.9745 H   0  0  0  0  0  0  0  0  0  0  0  0
   -3.6988    2.6118   -0.2124 C   0  0  0  0  0  0  0  0  0  0  0  0
   -4.5963    1.6176   -0.6762 C   0  0  0  0  0  0  0  0  0  0  0  0
   -4.1924    0.7047   -1.1319 H   0  0  0  0  0  0  0  0  0  0  0  0
   -5.9819    1.7787   -0.5628 C   0  0  0  0  0  0  0  0  0  0  0  0
   -6.6622    0.9962   -0.9285 H   0  0  0  0  0  0  0  0  0  0  0  0
   -6.4954    2.9495    0.0175 C   0  0  0  0  0  0  0  0  0  0  0  0
   -5.6340    3.9594    0.4784 C   0  0  0  0  0  0  0  0  0  0  0  0
   -6.0466    4.8695    0.9361 H   0  0  0  0  0  0  0  0  0  0  0  0
   -4.2510    3.7835    0.3617 C   0  0  0  0  0  0  0  0  0  0  0  0
   -3.5779    4.5628    0.7498 H   0  0  0  0  0  0  0  0  0  0  0  0
    1.3145    3.3782   -0.7545 C   0  0  0  0  0  0  0  0  0  0  0  0
    2.3671    2.6088   -1.3117 C   0  0  0  0  0  0  0  0  0  0  0  0
    2.1469    1.5892   -1.6582 H   0  0  0  0  0  0  0  0  0  0  0  0
    3.6623    3.1221   -1.4225 C   0  0  0  0  0  0  0  0  0  0  0  0
    4.4711    2.5121   -1.8478 H   0  0  0  0  0  0  0  0  0  0  0  0
    3.9233    4.4263   -0.9668 C   0  0  0  0  0  0  0  0  0  0  0  0
    2.8939    5.2288   -0.4454 C   0  0  0  0  0  0  0  0  0  0  0  0
    3.1111    6.2501   -0.1022 H   0  0  0  0  0  0  0  0  0  0  0  0
    1.5979    4.7044   -0.3511 C   0  0  0  0  0  0  0  0  0  0  0  0
    0.7990    5.3231    0.0840 H   0  0  0  0  0  0  0  0  0  0  0  0
   -0.0951   -1.4850   -0.2012 N   0  0  0  0  0  2  0  0  0  0  0  0
   -0.1434    1.4397   -0.5003 N   0  0  0  0  0  0  0  0  0  0  0  0
   -2.0573   -0.0085   -0.1953 N   0  0  0  0  0  0  0  0  0  0  0  0
  1 20  1  0  0  0  0
  2 30  1  0  0  0  0
  4 50  1  0  0  0  0
  5 15  1  6  0  0  0
  5 55  1  0  0  0  0
  6  5  1  0  0  0  0
  6  8  2  0  0  0  0
  7  6  1  0  0  0  0
  8 25  1  0  0  0  0
  8  9  1  0  0  0  0
 10 11  1  0  0  0  0
 10 57  1  0  0  0  0
 11 35  1  0  0  0  0
 12 11  1  0  0  0  0
 13 12  1  0  0  0  0
 14 56  1  0  0  0  0
 14 12  2  0  0  0  0
 15 16  1  0  0  0  0
 16 17  1  0  0  0  0
 18 16  2  0  0  0  0
 18 19  1  0  0  0  0
 20 18  1  0  0  0  0
 21 23  1  0  0  0  0
 21 20  2  0  0  0  0
 22 21  1  0  0  0  0
 23 15  2  0  0  0  0
 24 23  1  0  0  0  0
 25 33  1  0  0  0  0
 26 25  2  0  0  0  0
 27 26  1  0  0  0  0
 28 26  1  0  0  0  0
 28 30  2  0  0  0  0
 29 28  1  0  0  0  0
 30 31  1  0  0  0  0
 31 32  1  0  0  0  0
 33 31  2  0  0  0  0
 33 34  1  0  0  0  0
 35 43  1  0  0  0  0
 36 38  1  0  0  0  0
 36 35  2  0  0  0  0
 37 36  1  0  0  0  0
 38 40  2  0  0  0  0
 39 38  1  0  0  0  0
 40  3  1  0  0  0  0
 40 41  1  0  0  0  0
 41 42  1  0  0  0  0
 43 41  2  0  0  0  0
 43 44  1  0  0  0  0
 45 14  1  0  0  0  0
 45 53  1  0  0  0  0
 46 45  2  0  0  0  0
 47 46  1  0  0  0  0
 48 46  1  0  0  0  0
 48 50  2  0  0  0  0
 49 48  1  0  0  0  0
 50 51  1  0  0  0  0
 51 53  2  0  0  0  0
 51 52  1  0  0  0  0
 53 54  1  0  0  0  0
 55  9  1  0  0  0  0
 56 10  2  0  0  0  0
 57  9  2  0  0  0  0
M  END
