7,8
q = 0.0, confidence = 0.996

 26 27  0  0  1  0  0  0  0  0999 V2000
   -5.2825    1.1021    0.3197 O   0  0  0  0  0  0  0  0  0  0  0  0
   -5.2158    3.3565    0.0995 O   0  0  0  0  0  0  0  0  0  0  0  0
   -6.1795    3.1991    0.1978 H   0  0  0  0  0  0  0  0  0  0  0  0
    5.5330   -0.0935    0.0511 O   0  0  0  0  0  0  0  0  0  0  0  0
    6.5120   -0.1610    0.0441 H   0  0  0  0  0  0  0  0  0  0  0  0
    6.1052    2.0884   -0.1765 O   0  0  0  0  0  0  0  0  0  0  0  0
   -1.0947    0.9518   -0.0873 N   0  0  0  0  0  2  0  0  0  0  0  0
    1.5114    0.7173   -0.0862 N   0  0  0  0  0  2  0  0  0  0  0  0
   -2.4428    0.9860    0.0186 C   0  0  0  0  0  3  0  0  0  0  0  0
   -2.9619    0.0076    0.0498 H   0  0  0  0  0  0  0  0  0  0  0  0
   -3.1563    2.1933    0.0305 C   0  0  0  0  0  0  0  0  0  0  0  0
   -2.4585    3.4148   -0.0825 C   0  0  0  0  0  0  0  0  0  0  0  0
   -3.0069    4.3659   -0.0859 H   0  0  0  0  0  0  0  0  0  0  0  0
   -1.0697    3.3770   -0.1851 C   0  0  0  0  0  0  0  0  0  0  0  0
   -0.4947    4.3089   -0.2658 H   0  0  0  0  0  0  0  0  0  0  0  0
   -0.3982    2.1405   -0.1815 C   0  0  0  0  0  0  0  0  0  0  0  0
    1.0583    2.0049   -0.2067 C   0  0  1  0  0  3  0  0  0  0  0  0
    1.9687    3.0781   -0.2924 C   0  0  0  0  0  0  0  0  0  0  0  0
    1.5989    4.1063   -0.3992 H   0  0  0  0  0  0  0  0  0  0  0  0
    3.3374    2.8234   -0.2503 C   0  0  0  0  0  0  0  0  0  0  0  0
    4.0831    3.6287   -0.3172 H   0  0  0  0  0  0  0  0  0  0  0  0
    3.7840    1.4917   -0.1278 C   0  0  0  0  0  0  0  0  0  0  0  0
    2.8326    0.4623   -0.0594 C   0  0  0  0  0  0  0  0  0  0  0  0
    3.1063   -0.6055   -0.0213 H   0  0  0  0  0  0  0  0  0  0  0  0
   -4.6434    2.1240    0.1642 C   0  0  0  0  0  0  0  0  0  0  0  0
    5.2512    1.2227   -0.0923 C   0  0  0  0  0  0  0  0  0  0  0  0
  2 25  1  0  0  0  0
  2  3  1  0  0  0  0
  5  4  1  0  0  0  0
  6 26  2  0  0  0  0
  7  9  1  0  0  0  0
  8 23  1  0  0  0  0
  9 11  1  0  0  0  0
  9 10  1  0  0  0  0
 11 25  1  0  0  0  0
 12 11  2  0  0  0  0
 13 12  1  0  0  0  0
 14 16  2  0  0  0  0
 14 12  1  0  0  0  0
 15 14  1  0  0  0  0
 16  7  1  0  0  0  0
 17 16  1  1  0  0  0
 17  8  1  0  0  0  0
 18 20  2  0  0  0  0
 18 17  1  0  0  0  0
 19 18  1  0  0  0  0
 20 22  1  0  0  0  0
 21 20  1  0  0  0  0
 22 26  1  0  0  0  0
 22 23  2  0  0  0  0
 23 24  1  0  0  0  0
 25  1  2  0  0  0  0
 26  4  1  0  0  0  0
M  END
