16,17
q = -2.0, confidence = 0.816

 33 34  0  0  0  0  0  0  0  0999 V2000
    2.0089   -1.1723   -0.4717 C   0  0  0  0  0  0  0  0  0  0  0  0
    2.6535   -2.0233    0.4669 C   0  0  0  0  0  0  0  0  0  0  0  0
    4.0006   -1.8534    0.8200 C   0  0  0  0  0  0  0  0  0  0  0  0
    4.7947   -0.8249    0.2811 C   0  0  0  0  0  0  0  0  0  0  0  0
    4.1688    0.0112   -0.6611 C   0  0  0  0  0  0  0  0  0  0  0  0
    2.8451   -0.1814   -1.0640 C   0  0  0  0  0  0  0  0  0  0  0  0
    6.2325   -0.6264    0.6710 C   0  0  0  0  0  0  0  0  0  0  0  0
    0.0406   -2.5411   -1.0589 C   0  0  0  0  0  0  0  0  0  0  0  0
   -1.2921   -2.2262   -1.7376 C   0  0  0  0  0  0  0  0  0  0  0  0
   -3.0498   -1.6447   -0.1143 C   0  0  0  0  0  0  0  0  0  0  0  0
   -3.2544   -1.1437    1.2039 C   0  0  0  0  0  0  0  0  0  0  0  0
   -4.3838   -1.4914    1.9537 C   0  0  0  0  0  0  0  0  0  0  0  0
   -5.3524   -2.3707    1.4422 C   0  0  0  0  0  0  0  0  0  0  0  0
   -5.1581   -2.8951    0.1521 C   0  0  0  0  0  0  0  0  0  0  0  0
   -4.0423   -2.5420   -0.6138 C   0  0  0  0  0  0  0  0  0  0  0  0
    0.6744   -1.2444   -0.8066 N   0  0  0  0  0  2  0  0  0  0  0  0
   -1.9840   -1.2363   -0.9080 N   0  0  0  0  0  2  0  0  0  0  0  0
    1.9387   -2.9702    1.1036 F   0  0  0  0  0  0  0  0  0  0  0  0
    4.5280   -2.6816    1.7450 F   0  0  0  0  0  0  0  0  0  0  0  0
    4.8824    1.0123   -1.2214 F   0  0  0  0  0  0  0  0  0  0  0  0
    2.3396    0.6272   -2.0154 F   0  0  0  0  0  0  0  0  0  0  0  0
    6.4292    0.4281    0.9517 H   0  0  0  0  0  0  0  0  0  0  0  0
    6.9168   -0.8664   -0.1700 H   0  0  0  0  0  0  0  0  0  0  0  0
    6.4981   -1.2761    1.5243 H   0  0  0  0  0  0  0  0  0  0  0  0
    0.6958   -3.1602   -1.7131 H   0  0  0  0  0  0  0  0  0  0  0  0
   -0.1562   -3.1239   -0.1285 H   0  0  0  0  0  0  0  0  0  0  0  0
   -1.8972   -3.1486   -1.8461 H   0  0  0  0  0  0  0  0  0  0  0  0
   -1.0998   -1.8160   -2.7543 H   0  0  0  0  0  0  0  0  0  0  0  0
   -2.4808   -0.4925    1.6372 H   0  0  0  0  0  0  0  0  0  0  0  0
   -4.4949   -1.0820    2.9708 H   0  0  0  0  0  0  0  0  0  0  0  0
   -6.2347   -2.6486    2.0372 H   0  0  0  0  0  0  0  0  0  0  0  0
   -5.9009   -3.5865   -0.2774 H   0  0  0  0  0  0  0  0  0  0  0  0
   -3.9452   -2.9401   -1.6347 H   0  0  0  0  0  0  0  0  0  0  0  0
  1  2  1  0  0  0  0
  2  3  2  0  0  0  0
  2 18  1  0  0  0  0
  3 19  1  0  0  0  0
  4  7  1  0  0  0  0
  4  3  1  0  0  0  0
  5  4  2  0  0  0  0
  6  5  1  0  0  0  0
  6  1  2  0  0  0  0
  7 22  1  0  0  0  0
  7 24  1  0  0  0  0
  8 16  1  0  0  0  0
  8 26  1  0  0  0  0
  9  8  1  0  0  0  0
  9 17  1  0  0  0  0
 10 11  1  0  0  0  0
 11 29  1  0  0  0  0
 11 12  2  0  0  0  0
 12 30  1  0  0  0  0
 13 12  1  0  0  0  0
 13 31  1  0  0  0  0
 14 13  2  0  0  0  0
 15 10  2  0  0  0  0
 15 14  1  0  0  0  0
 16  1  1  0  0  0  0
 17 10  1  0  0  0  0
 20  5  1  0  0  0  0
 21  6  1  0  0  0  0
 23  7  1  0  0  0  0
 25  8  1  0  0  0  0
 27  9  1  0  0  0  0
 28  9  1  0  0  0  0
 32 14  1  0  0  0  0
 33 15  1  0  0  0  0
M  END
