1,2
q = 0.0, confidence = 0.998

 41 43  0  0  0  0  0  0  0  0999 V2000
    2.3379   -1.3504    1.6418 N   0  0  0  0  0  0  0  0  0  0  0  0
    0.0887   -0.8017   -0.1262 N   0  0  0  0  0  2  0  0  0  0  0  0
    2.7319   -2.7666    1.6835 C   0  0  0  0  0  0  0  0  0  0  0  0
    3.7444   -2.8805    1.2537 H   0  0  0  0  0  0  0  0  0  0  0  0
    2.0385   -3.3876    1.0896 H   0  0  0  0  0  0  0  0  0  0  0  0
    2.7439   -3.1417    2.7334 H   0  0  0  0  0  0  0  0  0  0  0  0
    3.2673   -0.5716    2.4834 C   0  0  0  0  0  0  0  0  0  0  0  0
    3.0044    0.5016    2.4218 H   0  0  0  0  0  0  0  0  0  0  0  0
    4.2977   -0.7007    2.1034 H   0  0  0  0  0  0  0  0  0  0  0  0
    3.2270   -0.9204    3.5415 H   0  0  0  0  0  0  0  0  0  0  0  0
    0.9457   -1.1693    2.1181 C   0  0  0  0  0  0  0  0  0  0  0  0
    0.8086   -0.0872    2.3177 H   0  0  0  0  0  0  0  0  0  0  0  0
    0.7833   -1.7284    3.0701 H   0  0  0  0  0  0  0  0  0  0  0  0
   -0.0957   -1.5986    1.0824 C   0  0  0  0  0  0  0  0  0  0  0  0
    0.0261   -2.6721    0.8201 H   0  0  0  0  0  0  0  0  0  0  0  0
   -1.1118   -1.4781    1.5127 H   0  0  0  0  0  0  0  0  0  0  0  0
   -0.8751   -0.1637   -0.7024 C   0  0  0  0  0  3  0  0  0  0  0  0
   -0.5687    0.5098   -1.5249 H   0  0  0  0  0  0  0  0  0  0  0  0
   -2.3144   -0.2093   -0.3826 C   0  0  0  0  0  0  0  0  0  0  0  0
   -3.0352    1.0409   -0.2212 C   0  0  0  0  0  0  0  0  0  0  0  0
   -2.3442    2.2835   -0.2022 C   0  0  0  0  0  0  0  0  0  0  0  0
   -1.2440    2.3001   -0.2731 H   0  0  0  0  0  0  0  0  0  0  0  0
   -3.0376    3.4797   -0.0506 C   0  0  0  0  0  0  0  0  0  0  0  0
   -2.4864    4.4317   -0.0349 H   0  0  0  0  0  0  0  0  0  0  0  0
   -4.4420    3.4653    0.0973 C   0  0  0  0  0  0  0  0  0  0  0  0
   -4.9932    4.4101    0.2182 H   0  0  0  0  0  0  0  0  0  0  0  0
   -5.1337    2.2573    0.1072 C   0  0  0  0  0  0  0  0  0  0  0  0
   -6.2239    2.2723    0.2422 H   0  0  0  0  0  0  0  0  0  0  0  0
   -4.4605    1.0164   -0.0445 C   0  0  0  0  0  0  0  0  0  0  0  0
   -5.1629   -0.2630   -0.0103 C   0  0  0  0  0  0  0  0  0  0  0  0
   -6.5684   -0.3712    0.1569 C   0  0  0  0  0  0  0  0  0  0  0  0
   -7.1771    0.5372    0.2622 H   0  0  0  0  0  0  0  0  0  0  0  0
   -7.2026   -1.6105    0.1914 C   0  0  0  0  0  0  0  0  0  0  0  0
   -8.2941   -1.6595    0.3228 H   0  0  0  0  0  0  0  0  0  0  0  0
   -6.4552   -2.8034    0.0569 C   0  0  0  0  0  0  0  0  0  0  0  0
   -6.9625   -3.7793    0.0832 H   0  0  0  0  0  0  0  0  0  0  0  0
   -5.0778   -2.7324   -0.1115 C   0  0  0  0  0  0  0  0  0  0  0  0
   -4.4807   -3.6510   -0.2223 H   0  0  0  0  0  0  0  0  0  0  0  0
   -4.4093   -1.4779   -0.1461 C   0  0  0  0  0  0  0  0  0  0  0  0
   -2.9900   -1.4133   -0.3310 C   0  0  0  0  0  0  0  0  0  0  0  0
   -2.4426   -2.3563   -0.4849 H   0  0  0  0  0  0  0  0  0  0  0  0
  1  3  1  0  0  0  0
  1 11  1  0  0  0  0
  1  7  1  0  0  0  0
  2 14  1  0  0  0  0
  3  6  1  0  0  0  0
  4  3  1  0  0  0  0
  5  3  1  0  0  0  0
  7 10  1  0  0  0  0
  8  7  1  0  0  0  0
  9  7  1  0  0  0  0
 11 12  1  0  0  0  0
 11 13  1  0  0  0  0
 14 16  1  0  0  0  0
 14 11  1  0  0  0  0
 15 14  1  0  0  0  0
 17 19  1  0  0  0  0
 17  2  1  0  0  0  0
 18 17  1  0  0  0  0
 19 40  2  0  0  0  0
 19 20  1  0  0  0  0
 20 21  2  0  0  0  0
 20 29  1  0  0  0  0
 21 23  1  0  0  0  0
 22 21  1  0  0  0  0
 23 24  1  0  0  0  0
 23 25  2  0  0  0  0
 25 27  1  0  0  0  0
 25 26  1  0  0  0  0
 27 28  1  0  0  0  0
 29 30  1  0  0  0  0
 29 27  2  0  0  0  0
 30 31  1  0  0  0  0
 31 33  2  0  0  0  0
 31 32  1  0  0  0  0
 33 34  1  0  0  0  0
 35 36  1  0  0  0  0
 35 33  1  0  0  0  0
 37 35  2  0  0  0  0
 38 37  1  0  0  0  0
 39 37  1  0  0  0  0
 39 30  2  0  0  0  0
 40 39  1  0  0  0  0
 41 40  1  0  0  0  0
M  END
