1,2
q = 0.0, confidence = 0.996

 41 43  0  0  0  0  0  0  0  0999 V2000
   -2.5836   -1.9131    0.5907 N   0  0  0  0  0  0  0  0  0  0  0  0
   -0.0962   -0.5428    1.3709 N   0  0  0  0  0  2  0  0  0  0  0  0
   -3.8744   -1.2473    0.8427 C   0  0  0  0  0  0  0  0  0  0  0  0
   -4.3512   -0.9961   -0.1229 H   0  0  0  0  0  0  0  0  0  0  0  0
   -3.7199   -0.2927    1.3768 H   0  0  0  0  0  0  0  0  0  0  0  0
   -4.5507   -1.9163    1.4257 H   0  0  0  0  0  0  0  0  0  0  0  0
   -2.8358   -3.1812   -0.1123 C   0  0  0  0  0  0  0  0  0  0  0  0
   -1.8848   -3.7040   -0.3144 H   0  0  0  0  0  0  0  0  0  0  0  0
   -3.3309   -2.9727   -1.0791 H   0  0  0  0  0  0  0  0  0  0  0  0
   -3.4982   -3.8463    0.4894 H   0  0  0  0  0  0  0  0  0  0  0  0
   -1.8605   -2.1650    1.8559 C   0  0  0  0  0  0  0  0  0  0  0  0
   -1.1285   -2.9781    1.6739 H   0  0  0  0  0  0  0  0  0  0  0  0
   -2.5624   -2.5233    2.6458 H   0  0  0  0  0  0  0  0  0  0  0  0
   -1.1113   -0.9317    2.3492 C   0  0  0  0  0  0  0  0  0  0  0  0
   -0.6576   -1.1377    3.3442 H   0  0  0  0  0  0  0  0  0  0  0  0
   -1.8045   -0.0670    2.4487 H   0  0  0  0  0  0  0  0  0  0  0  0
    1.1218   -0.4293    1.7745 C   0  0  0  0  0  3  0  0  0  0  0  0
    1.3473   -0.6778    2.8393 H   0  0  0  0  0  0  0  0  0  0  0  0
    2.2644    0.0205    0.9498 C   0  0  0  0  0  0  0  0  0  0  0  0
    2.4098    1.3977    0.6322 C   0  0  0  0  0  0  0  0  0  0  0  0
    1.4401    2.3848    1.0023 C   0  0  0  0  0  0  0  0  0  0  0  0
    0.5152    2.0785    1.5112 H   0  0  0  0  0  0  0  0  0  0  0  0
    1.6151    3.7119    0.6611 C   0  0  0  0  0  0  0  0  0  0  0  0
    0.8387    4.4434    0.9297 H   0  0  0  0  0  0  0  0  0  0  0  0
    2.7730    4.1348   -0.0579 C   0  0  0  0  0  0  0  0  0  0  0  0
    2.8935    5.1966   -0.3207 H   0  0  0  0  0  0  0  0  0  0  0  0
    3.7315    3.2142   -0.4321 C   0  0  0  0  0  0  0  0  0  0  0  0
    4.6253    3.5281   -0.9932 H   0  0  0  0  0  0  0  0  0  0  0  0
    3.5859    1.8264   -0.1060 C   0  0  0  0  0  0  0  0  0  0  0  0
    4.5475    0.8741   -0.4904 C   0  0  0  0  0  0  0  0  0  0  0  0
    5.4333    1.2065   -1.0549 H   0  0  0  0  0  0  0  0  0  0  0  0
    4.4108   -0.4904   -0.1751 C   0  0  0  0  0  0  0  0  0  0  0  0
    5.3863   -1.4614   -0.5735 C   0  0  0  0  0  0  0  0  0  0  0  0
    6.2625   -1.1173   -1.1448 H   0  0  0  0  0  0  0  0  0  0  0  0
    5.2353   -2.7965   -0.2537 C   0  0  0  0  0  0  0  0  0  0  0  0
    5.9925   -3.5306   -0.5673 H   0  0  0  0  0  0  0  0  0  0  0  0
    4.0910   -3.2317    0.4803 C   0  0  0  0  0  0  0  0  0  0  0  0
    3.9763   -4.2985    0.7247 H   0  0  0  0  0  0  0  0  0  0  0  0
    3.1238   -2.3266    0.8751 C   0  0  0  0  0  0  0  0  0  0  0  0
    2.2349   -2.6791    1.4193 H   0  0  0  0  0  0  0  0  0  0  0  0
    3.2463   -0.9313    0.5705 C   0  0  0  0  0  0  0  0  0  0  0  0
  1  3  1  0  0  0  0
  1 11  1  0  0  0  0
  2 17  1  0  0  0  0
  2 14  1  0  0  0  0
  3  5  1  0  0  0  0
  3  6  1  0  0  0  0
  4  3  1  0  0  0  0
  7 10  1  0  0  0  0
  7  1  1  0  0  0  0
  8  7  1  0  0  0  0
  9  7  1  0  0  0  0
 11 14  1  0  0  0  0
 11 13  1  0  0  0  0
 12 11  1  0  0  0  0
 14 16  1  0  0  0  0
 14 15  1  0  0  0  0
 17 18  1  0  0  0  0
 19 17  1  0  0  0  0
 20 19  1  0  0  0  0
 20 21  1  0  0  0  0
 21 22  1  0  0  0  0
 23 24  1  0  0  0  0
 23 21  2  0  0  0  0
 25 23  1  0  0  0  0
 26 25  1  0  0  0  0
 27 29  1  0  0  0  0
 27 25  2  0  0  0  0
 28 27  1  0  0  0  0
 29 20  2  0  0  0  0
 30 32  2  0  0  0  0
 30 29  1  0  0  0  0
 31 30  1  0  0  0  0
 32 41  1  0  0  0  0
 33 35  2  0  0  0  0
 33 32  1  0  0  0  0
 34 33  1  0  0  0  0
 35 37  1  0  0  0  0
 36 35  1  0  0  0  0
 37 38  1  0  0  0  0
 37 39  2  0  0  0  0
 39 40  1  0  0  0  0
 41 39  1  0  0  0  0
 41 19  2  0  0  0  0
M  END
