1,6
q = -1.0, confidence = 0.002

 54 55  0  0  1  0  0  0  0  0999 V2000
    1.1664   -0.7209    0.6094 N   0  0  0  0  0  2  0  0  0  0  0  0
    1.0608   -0.9224    1.9183 C   0  0  2  0  0  3  0  0  0  0  0  0
   -0.1771   -0.6220    2.5830 C   0  0  0  0  0  3  0  0  0  0  0  0
   -0.1218   -0.5001    3.6731 H   0  0  0  0  0  0  0  0  0  0  0  0
   -1.4772   -0.8394    2.0542 C   0  0  2  0  0  3  0  0  0  0  0  0
   -1.6912   -0.8041    0.7247 N   0  0  0  0  0  2  0  0  0  0  0  0
    2.2025   -1.4295    2.7591 C   0  0  0  0  0  0  0  0  0  0  0  0
    2.9376   -1.9838    2.1471 H   0  0  0  0  0  0  0  0  0  0  0  0
    1.8439   -2.0687    3.5871 H   0  0  0  0  0  0  0  0  0  0  0  0
    2.7246   -0.5564    3.2058 H   0  0  0  0  0  0  0  0  0  0  0  0
   -2.6349   -1.0156    3.0007 C   0  0  0  0  0  0  0  0  0  0  0  0
   -3.3234   -0.1530    2.8804 H   0  0  0  0  0  0  0  0  0  0  0  0
   -2.3008   -1.0716    4.0515 H   0  0  0  0  0  0  0  0  0  0  0  0
   -3.2074   -1.9297    2.7489 H   0  0  0  0  0  0  0  0  0  0  0  0
    2.2157   -1.3083   -0.1732 C   0  0  0  0  0  0  0  0  0  0  0  0
    1.8994   -2.4910   -0.9036 C   0  0  0  0  0  0  0  0  0  0  0  0
    2.8867   -3.0603   -1.7267 C   0  0  0  0  0  0  0  0  0  0  0  0
    2.6529   -3.9740   -2.2924 H   0  0  0  0  0  0  0  0  0  0  0  0
    4.1590   -2.4859   -1.8378 C   0  0  0  0  0  0  0  0  0  0  0  0
    4.9180   -2.9425   -2.4909 H   0  0  0  0  0  0  0  0  0  0  0  0
    4.4566   -1.3294   -1.1123 C   0  0  0  0  0  0  0  0  0  0  0  0
    5.4571   -0.8782   -1.1965 H   0  0  0  0  0  0  0  0  0  0  0  0
    3.5052   -0.7180   -0.2704 C   0  0  0  0  0  0  0  0  0  0  0  0
    0.5385   -3.1564   -0.7561 C   0  0  0  0  0  0  0  0  0  0  0  0
   -0.1733   -2.3587   -0.4642 H   0  0  0  0  0  0  0  0  0  0  0  0
    0.0226   -3.7976   -2.0511 C   0  0  0  0  0  0  0  0  0  0  0  0
    0.0672   -3.0889   -2.9027 H   0  0  0  0  0  0  0  0  0  0  0  0
   -1.0327   -4.1148   -1.9287 H   0  0  0  0  0  0  0  0  0  0  0  0
    0.6032   -4.6998   -2.3346 H   0  0  0  0  0  0  0  0  0  0  0  0
    0.5723   -4.1808    0.3941 C   0  0  0  0  0  0  0  0  0  0  0  0
    1.3105   -4.9827    0.1852 H   0  0  0  0  0  0  0  0  0  0  0  0
   -0.4180   -4.6638    0.5317 H   0  0  0  0  0  0  0  0  0  0  0  0
    0.8539   -3.7072    1.3557 H   0  0  0  0  0  0  0  0  0  0  0  0
    3.8913    0.5501    0.4780 C   0  0  0  0  0  0  0  0  0  0  0  0
    3.0350    0.8492    1.1118 H   0  0  0  0  0  0  0  0  0  0  0  0
    4.1384    1.7158   -0.4949 C   0  0  0  0  0  0  0  0  0  0  0  0
    5.0206    1.5258   -1.1413 H   0  0  0  0  0  0  0  0  0  0  0  0
    4.3162    2.6555    0.0655 H   0  0  0  0  0  0  0  0  0  0  0  0
    3.2654    1.8816   -1.1540 H   0  0  0  0  0  0  0  0  0  0  0  0
    5.1126    0.3380    1.3888 C   0  0  0  0  0  0  0  0  0  0  0  0
    6.0295    0.1195    0.8029 H   0  0  0  0  0  0  0  0  0  0  0  0
    4.9627   -0.5024    2.0952 H   0  0  0  0  0  0  0  0  0  0  0  0
    5.3106    1.2530    1.9835 H   0  0  0  0  0  0  0  0  0  0  0  0
   -2.8975   -1.3159    0.1717 C   0  0  0  0  0  0  0  0  0  0  0  0
   -3.0181   -2.7021   -0.0646 C   0  0  0  0  0  0  0  0  0  0  0  0
   -2.1873   -3.3643    0.2157 H   0  0  0  0  0  0  0  0  0  0  0  0
   -4.1837   -3.2237   -0.6443 C   0  0  0  0  0  0  0  0  0  0  0  0
   -4.2609   -4.3064   -0.8273 H   0  0  0  0  0  0  0  0  0  0  0  0
   -5.2449   -2.3718   -0.9898 C   0  0  0  0  0  0  0  0  0  0  0  0
   -6.1573   -2.7812   -1.4484 H   0  0  0  0  0  0  0  0  0  0  0  0
   -5.1363   -0.9954   -0.7352 C   0  0  0  0  0  0  0  0  0  0  0  0
   -5.9705   -0.3214   -0.9835 H   0  0  0  0  0  0  0  0  0  0  0  0
   -3.9740   -0.4652   -0.1558 C   0  0  0  0  0  0  0  0  0  0  0  0
   -3.8863    0.6062    0.0774 H   0  0  0  0  0  0  0  0  0  0  0  0
  2  1  1  1  0  0  0
  2  3  1  0  0  0  0
  2  7  1  0  0  0  0
  3  4  1  0  0  0  0
  5  6  1  6  0  0  0
  5  3  1  0  0  0  0
  5 11  1  0  0  0  0
  7 10  1  0  0  0  0
  7  9  1  0  0  0  0
  8  7  1  0  0  0  0
 11 13  1  0  0  0  0
 12 11  1  0  0  0  0
 14 11  1  0  0  0  0
 15  1  1  0  0  0  0
 16 24  1  0  0  0  0
 16 15  2  0  0  0  0
 17 16  1  0  0  0  0
 18 17  1  0  0  0  0
 19 17  2  0  0  0  0
 19 21  1  0  0  0  0
 20 19  1  0  0  0  0
 21 23  2  0  0  0  0
 22 21  1  0  0  0  0
 23 15  1  0  0  0  0
 23 34  1  0  0  0  0
 24 25  1  0  0  0  0
 24 30  1  0  0  0  0
 26 28  1  0  0  0  0
 26 24  1  0  0  0  0
 27 26  1  0  0  0  0
 29 26  1  0  0  0  0
 30 32  1  0  0  0  0
 30 33  1  0  0  0  0
 31 30  1  0  0  0  0
 34 35  1  0  0  0  0
 34 40  1  0  0  0  0
 36 38  1  0  0  0  0
 36 34  1  0  0  0  0
 37 36  1  0  0  0  0
 39 36  1  0  0  0  0
 40 43  1  0  0  0  0
 40 42  1  0  0  0  0
 41 40  1  0  0  0  0
 44  6  1  0  0  0  0
 45 44  1  0  0  0  0
 45 46  1  0  0  0  0
 47 45  2  0  0  0  0
 48 47  1  0  0  0  0
 49 51  2  0  0  0  0
 49 47  1  0  0  0  0
 50 49  1  0  0  0  0
 51 53  1  0  0  0  0
 52 51  1  0  0  0  0
 53 54  1  0  0  0  0
 53 44  2  0  0  0  0
M  END
