2,3
q = 0.0, confidence = 0.99

 33 35  0  0  1  0  0  0  0  0999 V2000
    2.6888   -0.7494    1.9544 F   0  0  0  0  0  0  0  0  0  0  0  0
    0.9868    1.4842   -0.3164 N   0  0  0  0  0  2  0  0  0  0  0  0
    0.8036   -1.0997   -1.0812 N   0  0  0  0  0  2  0  0  0  0  0  0
    1.1826    2.7135   -0.8459 C   0  0  0  0  0  3  0  0  0  0  0  0
    0.4270    3.0455   -1.5701 H   0  0  0  0  0  0  0  0  0  0  0  0
    2.2622    3.5212   -0.4758 C   0  0  0  0  0  0  0  0  0  0  0  0
    2.3764    4.5128   -0.9361 H   0  0  0  0  0  0  0  0  0  0  0  0
    3.1715    3.0507    0.4816 C   0  0  0  0  0  0  0  0  0  0  0  0
    4.0228    3.6690    0.8031 H   0  0  0  0  0  0  0  0  0  0  0  0
    2.9781    1.7724    1.0232 C   0  0  0  0  0  0  0  0  0  0  0  0
    3.6564    1.3435    1.7715 H   0  0  0  0  0  0  0  0  0  0  0  0
    1.8793    1.0206    0.5930 C   0  0  0  0  0  0  0  0  0  0  0  0
    1.6485   -0.4116    1.0722 C   0  0  1  0  0  0  0  0  0  0  0  0
    1.7776   -1.2950   -0.1669 C   0  0  2  0  0  3  0  0  0  0  0  0
    2.8279   -2.1973   -0.3673 C   0  0  0  0  0  0  0  0  0  0  0  0
    3.5901   -2.3161    0.4136 H   0  0  0  0  0  0  0  0  0  0  0  0
    2.8570   -2.9277   -1.5639 C   0  0  0  0  0  0  0  0  0  0  0  0
    3.6619   -3.6537   -1.7526 H   0  0  0  0  0  0  0  0  0  0  0  0
    1.8429   -2.7225   -2.5126 C   0  0  0  0  0  0  0  0  0  0  0  0
    1.8277   -3.2764   -3.4617 H   0  0  0  0  0  0  0  0  0  0  0  0
    0.8283   -1.8020   -2.2338 C   0  0  0  0  0  0  0  0  0  0  0  0
   -0.0059   -1.6217   -2.9277 H   0  0  0  0  0  0  0  0  0  0  0  0
    0.3098   -0.6237    1.7686 C   0  0  0  0  0  0  0  0  0  0  0  0
   -0.1145   -1.9450    2.0182 C   0  0  0  0  0  0  0  0  0  0  0  0
    0.4821   -2.7897    1.6430 H   0  0  0  0  0  0  0  0  0  0  0  0
   -1.3094   -2.1839    2.7061 C   0  0  0  0  0  0  0  0  0  0  0  0
   -1.6446   -3.2181    2.8738 H   0  0  0  0  0  0  0  0  0  0  0  0
   -2.0879   -1.1074    3.1589 C   0  0  0  0  0  0  0  0  0  0  0  0
   -3.0388   -1.2960    3.6792 H   0  0  0  0  0  0  0  0  0  0  0  0
   -1.6613    0.2092    2.9312 C   0  0  0  0  0  0  0  0  0  0  0  0
   -2.2735    1.0587    3.2671 H   0  0  0  0  0  0  0  0  0  0  0  0
   -0.4636    0.4539    2.2467 C   0  0  0  0  0  0  0  0  0  0  0  0
   -0.1530    1.4909    2.0650 H   0  0  0  0  0  0  0  0  0  0  0  0
  2 12  1  0  0  0  0
  3 14  1  0  0  0  0
  4  6  1  0  0  0  0
  4  2  1  0  0  0  0
  5  4  1  0  0  0  0
  6  8  2  0  0  0  0
  7  6  1  0  0  0  0
  8  9  1  0  0  0  0
  8 10  1  0  0  0  0
 10 11  1  0  0  0  0
 12 10  2  0  0  0  0
 12 13  1  0  0  0  0
 13 23  1  0  0  0  0
 13  1  1  1  0  0  0
 14 13  1  6  0  0  0
 15 14  1  0  0  0  0
 15 16  1  0  0  0  0
 17 15  2  0  0  0  0
 18 17  1  0  0  0  0
 19 21  2  0  0  0  0
 19 17  1  0  0  0  0
 20 19  1  0  0  0  0
 21  3  1  0  0  0  0
 22 21  1  0  0  0  0
 23 24  2  0  0  0  0
 23 32  1  0  0  0  0
 24 26  1  0  0  0  0
 25 24  1  0  0  0  0
 26 27  1  0  0  0  0
 26 28  2  0  0  0  0
 28 29  1  0  0  0  0
 30 28  1  0  0  0  0
 30 31  1  0  0  0  0
 32 30  2  0  0  0  0
 33 32  1  0  0  0  0
M  END
