1,2
q = 0.0, confidence = 0.992

 36 35  0  0  0  0  0  0  0  0999 V2000
   -1.5254    0.7332   -0.6784 N   0  0  0  0  0  0  0  0  0  0  0  0
    1.3605    0.8831   -0.6099 N   0  0  0  0  0  0  0  0  0  0  0  0
   -0.7794    1.6551   -1.5716 C   0  0  0  0  0  0  0  0  0  0  0  0
    0.5279    2.0773   -0.9227 C   0  0  0  0  0  0  0  0  0  0  0  0
   -2.3935    1.3483    0.4395 C   0  0  0  0  0  0  0  0  0  0  0  0
   -2.9432    2.7200    0.0156 C   0  0  0  0  0  0  0  0  0  0  0  0
   -3.5666    0.3817    0.6589 C   0  0  0  0  0  0  0  0  0  0  0  0
   -1.5934    1.4765    1.7424 C   0  0  0  0  0  0  0  0  0  0  0  0
    2.5952    1.1695    0.2637 C   0  0  0  0  0  0  0  0  0  0  0  0
    2.2296    0.9385    1.7331 C   0  0  0  0  0  0  0  0  0  0  0  0
    3.6961    0.2012   -0.1905 C   0  0  0  0  0  0  0  0  0  0  0  0
    3.0983    2.6115    0.0588 C   0  0  0  0  0  0  0  0  0  0  0  0
   -2.1789    0.1837   -1.2583 H   0  0  0  0  0  0  0  0  0  0  0  0
    1.7356    0.5344   -1.5063 H   0  0  0  0  0  0  0  0  0  0  0  0
   -0.5713    1.0922   -2.5045 H   0  0  0  0  0  0  0  0  0  0  0  0
   -1.3707    2.5514   -1.8496 H   0  0  0  0  0  0  0  0  0  0  0  0
    0.3244    2.6115    0.0235 H   0  0  0  0  0  0  0  0  0  0  0  0
    1.0644    2.7828   -1.5900 H   0  0  0  0  0  0  0  0  0  0  0  0
   -2.1566    3.4971   -0.0637 H   0  0  0  0  0  0  0  0  0  0  0  0
   -3.6620    3.0657    0.7839 H   0  0  0  0  0  0  0  0  0  0  0  0
   -3.4921    2.6684   -0.9472 H   0  0  0  0  0  0  0  0  0  0  0  0
   -4.1976    0.3079   -0.2521 H   0  0  0  0  0  0  0  0  0  0  0  0
   -4.2055    0.7542    1.4830 H   0  0  0  0  0  0  0  0  0  0  0  0
   -3.1994   -0.6346    0.9028 H   0  0  0  0  0  0  0  0  0  0  0  0
   -0.7874    2.2322    1.6713 H   0  0  0  0  0  0  0  0  0  0  0  0
   -1.1360    0.5032    2.0091 H   0  0  0  0  0  0  0  0  0  0  0  0
   -2.2720    1.7949    2.5582 H   0  0  0  0  0  0  0  0  0  0  0  0
    1.3912    1.5905    2.0491 H   0  0  0  0  0  0  0  0  0  0  0  0
    3.1016    1.1742    2.3751 H   0  0  0  0  0  0  0  0  0  0  0  0
    1.9372   -0.1176    1.8906 H   0  0  0  0  0  0  0  0  0  0  0  0
    3.3537   -0.8483   -0.0966 H   0  0  0  0  0  0  0  0  0  0  0  0
    4.5979    0.3419    0.4370 H   0  0  0  0  0  0  0  0  0  0  0  0
    3.9872    0.4018   -1.2442 H   0  0  0  0  0  0  0  0  0  0  0  0
    2.3975    3.3775    0.4444 H   0  0  0  0  0  0  0  0  0  0  0  0
    3.3147    2.8308   -1.0070 H   0  0  0  0  0  0  0  0  0  0  0  0
    4.0483    2.7311    0.6147 H   0  0  0  0  0  0  0  0  0  0  0  0
  1  5  1  0  0  0  0
  2  9  1  0  0  0  0
  3  4  1  0  0  0  0
  3  1  1  0  0  0  0
  4  2  1  0  0  0  0
  4 17  1  0  0  0  0
  5  7  1  0  0  0  0
  5  8  1  0  0  0  0
  6  5  1  0  0  0  0
  6 20  1  0  0  0  0
  7 24  1  0  0  0  0
  7 23  1  0  0  0  0
  8 26  1  0  0  0  0
  8 27  1  0  0  0  0
  9 10  1  0  0  0  0
 10 30  1  0  0  0  0
 10 28  1  0  0  0  0
 10 29  1  0  0  0  0
 11 31  1  0  0  0  0
 11  9  1  0  0  0  0
 11 32  1  0  0  0  0
 12  9  1  0  0  0  0
 12 34  1  0  0  0  0
 12 36  1  0  0  0  0
 13  1  1  0  0  0  0
 14  2  1  0  0  0  0
 15  3  1  0  0  0  0
 16  3  1  0  0  0  0
 18  4  1  0  0  0  0
 19  6  1  0  0  0  0
 21  6  1  0  0  0  0
 22  7  1  0  0  0  0
 25  8  1  0  0  0  0
 33 11  1  0  0  0  0
 35 12  1  0  0  0  0
M  END
