1,14
q = -2.0, confidence = 0.504

 26 27  0  0  0  0  0  0  0  0999 V2000
    1.1985   -1.8482    0.3175 N   0  0  0  0  0  2  0  0  0  0  0  0
    0.6196   -3.0666    0.1133 N   0  0  0  0  0  0  0  0  0  0  0  0
    2.5861   -1.8953    0.5265 C   0  0  0  0  0  0  0  0  0  0  0  0
    3.4195   -2.8076   -0.1640 C   0  0  0  0  0  0  0  0  0  0  0  0
    4.8066   -2.7772    0.0275 C   0  0  0  0  0  0  0  0  0  0  0  0
    5.3927   -1.8514    0.9101 C   0  0  0  0  0  0  0  0  0  0  0  0
    4.5649   -0.9718    1.6298 C   0  0  0  0  0  0  0  0  0  0  0  0
    3.1754   -1.0027    1.4516 C   0  0  0  0  0  0  0  0  0  0  0  0
    2.9518   -3.5221   -0.8552 H   0  0  0  0  0  0  0  0  0  0  0  0
    5.4444   -3.4815   -0.5293 H   0  0  0  0  0  0  0  0  0  0  0  0
    6.4837   -1.8302    1.0505 H   0  0  0  0  0  0  0  0  0  0  0  0
    5.0052   -0.2703    2.3560 H   0  0  0  0  0  0  0  0  0  0  0  0
    2.5068   -0.3530    2.0349 H   0  0  0  0  0  0  0  0  0  0  0  0
   -1.1985   -1.8482   -0.3174 N   0  0  0  0  0  2  0  0  0  0  0  0
   -0.6196   -3.0666   -0.1131 N   0  0  0  0  0  0  0  0  0  0  0  0
   -2.5861   -1.8953   -0.5266 C   0  0  0  0  0  0  0  0  0  0  0  0
   -3.4196   -2.8075    0.1639 C   0  0  0  0  0  0  0  0  0  0  0  0
   -3.1753   -1.0027   -1.4517 C   0  0  0  0  0  0  0  0  0  0  0  0
   -4.8067   -2.7770   -0.0276 C   0  0  0  0  0  0  0  0  0  0  0  0
   -2.9519   -3.5220    0.8552 H   0  0  0  0  0  0  0  0  0  0  0  0
   -4.5648   -0.9717   -1.6299 C   0  0  0  0  0  0  0  0  0  0  0  0
   -2.5066   -0.3531   -2.0350 H   0  0  0  0  0  0  0  0  0  0  0  0
   -5.3926   -1.8512   -0.9102 C   0  0  0  0  0  0  0  0  0  0  0  0
   -5.4445   -3.4813    0.5293 H   0  0  0  0  0  0  0  0  0  0  0  0
   -5.0050   -0.2702   -2.3561 H   0  0  0  0  0  0  0  0  0  0  0  0
   -6.4837   -1.8300   -1.0506 H   0  0  0  0  0  0  0  0  0  0  0  0
  1  3  1  0  0  0  0
  2  1  1  0  0  0  0
  3  8  1  0  0  0  0
  4  5  1  0  0  0  0
  4  3  2  0  0  0  0
  5  6  2  0  0  0  0
  6 11  1  0  0  0  0
  6  7  1  0  0  0  0
  7 12  1  0  0  0  0
  8  7  2  0  0  0  0
  8 13  1  0  0  0  0
  9  4  1  0  0  0  0
 10  5  1  0  0  0  0
 14 15  1  0  0  0  0
 15  2  2  0  0  0  0
 16 14  1  0  0  0  0
 16 17  1  0  0  0  0
 17 20  1  0  0  0  0
 18 16  2  0  0  0  0
 19 17  2  0  0  0  0
 19 24  1  0  0  0  0
 21 18  1  0  0  0  0
 21 23  2  0  0  0  0
 22 18  1  0  0  0  0
 23 19  1  0  0  0  0
 25 21  1  0  0  0  0
 26 23  1  0  0  0  0
M  END
