1,2
q = 0.0, confidence = 0.992

 26 27  0  0  1  0  0  0  0  0999 V2000
   -0.4692    1.4262   -0.2221 N   0  0  0  0  0  2  0  0  0  0  0  0
   -0.4693   -1.4261   -0.2221 N   0  0  0  0  0  2  0  0  0  0  0  0
   -1.7205    1.2407    0.2877 C   0  0  2  0  0  3  0  0  0  0  0  0
   -2.7416    2.1623    0.0164 C   0  0  0  0  0  0  0  0  0  0  0  0
   -3.7437    2.0001    0.4339 H   0  0  0  0  0  0  0  0  0  0  0  0
   -2.4753    3.2902   -0.7719 C   0  0  0  0  0  0  0  0  0  0  0  0
   -3.2716    4.0176   -0.9883 H   0  0  0  0  0  0  0  0  0  0  0  0
   -1.1777    3.4750   -1.2667 C   0  0  0  0  0  0  0  0  0  0  0  0
   -0.9127    4.3479   -1.8795 H   0  0  0  0  0  0  0  0  0  0  0  0
   -0.1983    2.5247   -0.9726 C   0  0  0  0  0  0  0  0  0  0  0  0
    0.8489    2.6190   -1.2954 H   0  0  0  0  0  0  0  0  0  0  0  0
   -1.7206   -1.2406    0.2877 C   0  0  1  0  0  3  0  0  0  0  0  0
   -2.7417   -2.1622    0.0165 C   0  0  0  0  0  0  0  0  0  0  0  0
   -3.7438   -2.0000    0.4341 H   0  0  0  0  0  0  0  0  0  0  0  0
   -2.4754   -3.2901   -0.7718 C   0  0  0  0  0  0  0  0  0  0  0  0
   -3.2717   -4.0175   -0.9881 H   0  0  0  0  0  0  0  0  0  0  0  0
   -1.1779   -3.4749   -1.2667 C   0  0  0  0  0  0  0  0  0  0  0  0
   -0.9130   -4.3479   -1.8795 H   0  0  0  0  0  0  0  0  0  0  0  0
   -0.1985   -2.5246   -0.9727 C   0  0  0  0  0  0  0  0  0  0  0  0
    0.8487   -2.6189   -1.2956 H   0  0  0  0  0  0  0  0  0  0  0  0
   -1.9114    0.0001    1.1494 C   0  0  2  0  0  0  0  0  0  0  0  0
   -1.0327    0.0000    1.8389 H   0  0  0  0  0  0  0  0  0  0  0  0
   -3.1957    0.0001    1.9746 C   0  0  0  0  0  0  0  0  0  0  0  0
   -4.1101    0.0001    1.3477 H   0  0  0  0  0  0  0  0  0  0  0  0
   -3.2334    0.8943    2.6257 H   0  0  0  0  0  0  0  0  0  0  0  0
   -3.2335   -0.8941    2.6258 H   0  0  0  0  0  0  0  0  0  0  0  0
  1  3  1  0  0  0  0
  2 12  1  0  0  0  0
  3 21  1  1  0  0  0
  4  3  1  0  0  0  0
  4  5  1  0  0  0  0
  6  4  2  0  0  0  0
  7  6  1  0  0  0  0
  8 10  2  0  0  0  0
  8  6  1  0  0  0  0
  9  8  1  0  0  0  0
 10  1  1  0  0  0  0
 11 10  1  0  0  0  0
 12 21  1  1  0  0  0
 13 12  1  0  0  0  0
 13 14  1  0  0  0  0
 15 13  2  0  0  0  0
 16 15  1  0  0  0  0
 17 19  2  0  0  0  0
 17 15  1  0  0  0  0
 18 17  1  0  0  0  0
 19  2  1  0  0  0  0
 20 19  1  0  0  0  0
 21 22  1  1  0  0  0
 21 23  1  0  0  0  0
 23 25  1  0  0  0  0
 23 26  1  0  0  0  0
 24 23  1  0  0  0  0
M  END
