1,2
q = 0.0, confidence = 0.996

 45 47  0  0  1  0  0  0  0  0999 V2000
    2.5452    0.4190    0.1332 N   0  0  0  0  0  2  0  0  0  0  0  0
    0.0104    1.2940   -0.0061 N   0  0  0  0  0  2  0  0  0  0  0  0
   -3.4823    0.7952    0.3549 N   0  0  0  0  0  0  0  0  0  0  0  0
    3.4182    2.5138    0.0460 O   0  0  0  0  0  0  0  0  0  0  0  0
   -2.1923   -0.1762   -1.2566 O   0  0  0  0  0  0  0  0  0  0  0  0
    4.0043    0.2014    0.0559 C   0  0  2  0  0  0  0  0  0  0  0  0
    4.5605    1.6370    0.2584 C   0  0  0  0  0  0  0  0  0  0  0  0
    2.3405    1.7036    0.0621 C   0  0  0  0  0  0  0  0  0  0  0  0
    0.9946    2.2485    0.0141 C   0  0  0  0  0  0  0  0  0  0  0  0
    0.7395    3.6290    0.0166 C   0  0  0  0  0  0  0  0  0  0  0  0
   -0.5893    4.0646    0.0055 C   0  0  0  0  0  0  0  0  0  0  0  0
   -1.6040    3.1009   -0.0649 C   0  0  0  0  0  0  0  0  0  0  0  0
   -1.2698    1.7349   -0.1043 C   0  0  0  0  0  0  0  0  0  0  0  0
   -2.3709    0.7567   -0.2846 C   0  0  0  0  0  0  0  0  0  0  0  0
   -3.4346   -0.9250   -1.3062 C   0  0  0  0  0  0  0  0  0  0  0  0
   -4.2888   -0.3301   -0.1478 C   0  0  2  0  0  0  0  0  0  0  0  0
    4.4501   -0.4420   -1.2848 C   0  0  0  0  0  0  0  0  0  0  0  0
    3.8722    0.3005   -2.4958 C   0  0  0  0  0  0  0  0  0  0  0  0
    4.1590   -1.9433   -1.3529 C   0  0  0  0  0  0  0  0  0  0  0  0
   -5.7112    0.1027   -0.5538 C   0  0  0  0  0  0  0  0  0  0  0  0
   -6.5168   -1.0989   -1.0621 C   0  0  0  0  0  0  0  0  0  0  0  0
   -6.4231    0.8039    0.6065 C   0  0  0  0  0  0  0  0  0  0  0  0
    4.3062   -0.4668    0.8875 H   0  0  0  0  0  0  0  0  0  0  0  0
    4.9367    1.8158    1.2868 H   0  0  0  0  0  0  0  0  0  0  0  0
    5.3460    1.9139   -0.4711 H   0  0  0  0  0  0  0  0  0  0  0  0
    1.5878    4.3265    0.0431 H   0  0  0  0  0  0  0  0  0  0  0  0
   -0.8323    5.1364    0.0342 H   0  0  0  0  0  0  0  0  0  0  0  0
   -2.6674    3.3726   -0.1022 H   0  0  0  0  0  0  0  0  0  0  0  0
   -3.1935   -1.9970   -1.1804 H   0  0  0  0  0  0  0  0  0  0  0  0
   -3.8845   -0.7608   -2.3089 H   0  0  0  0  0  0  0  0  0  0  0  0
   -4.3759   -1.0678    0.6823 H   0  0  0  0  0  0  0  0  0  0  0  0
    5.5577   -0.3135   -1.2890 H   0  0  0  0  0  0  0  0  0  0  0  0
    4.2916   -0.1049   -3.4375 H   0  0  0  0  0  0  0  0  0  0  0  0
    2.7709    0.1748   -2.5384 H   0  0  0  0  0  0  0  0  0  0  0  0
    4.0905    1.3882   -2.4746 H   0  0  0  0  0  0  0  0  0  0  0  0
    4.5481   -2.4815   -0.4659 H   0  0  0  0  0  0  0  0  0  0  0  0
    3.0713   -2.1376   -1.4060 H   0  0  0  0  0  0  0  0  0  0  0  0
    4.6257   -2.3855   -2.2559 H   0  0  0  0  0  0  0  0  0  0  0  0
   -5.5963    0.8323   -1.3893 H   0  0  0  0  0  0  0  0  0  0  0  0
   -6.0397   -1.5918   -1.9340 H   0  0  0  0  0  0  0  0  0  0  0  0
   -6.6274   -1.8626   -0.2632 H   0  0  0  0  0  0  0  0  0  0  0  0
   -7.5351   -0.7900   -1.3727 H   0  0  0  0  0  0  0  0  0  0  0  0
   -5.8245    1.6563    0.9797 H   0  0  0  0  0  0  0  0  0  0  0  0
   -7.4213    1.1739    0.2961 H   0  0  0  0  0  0  0  0  0  0  0  0
   -6.5723    0.1025    1.4548 H   0  0  0  0  0  0  0  0  0  0  0  0
  2  9  1  0  0  0  0
  4  8  1  0  0  0  0
  4  7  1  0  0  0  0
  5 14  1  0  0  0  0
  6  1  1  0  0  0  0
  6  7  1  0  0  0  0
  6 23  1  1  0  0  0
  7 24  1  0  0  0  0
  8  1  1  0  0  0  0
  9 10  1  0  0  0  0
  9  8  2  0  0  0  0
 10 26  1  0  0  0  0
 11 10  2  0  0  0  0
 11 27  1  0  0  0  0
 12 11  1  0  0  0  0
 13 12  2  0  0  0  0
 13  2  1  0  0  0  0
 14 13  1  0  0  0  0
 14  3  2  0  0  0  0
 15  5  1  0  0  0  0
 15 29  1  0  0  0  0
 15 16  1  0  0  0  0
 16  3  1  0  0  0  0
 16 31  1  1  0  0  0
 17  6  1  0  0  0  0
 18 35  1  0  0  0  0
 18 17  1  0  0  0  0
 19 17  1  0  0  0  0
 19 36  1  0  0  0  0
 20 16  1  0  0  0  0
 20 22  1  0  0  0  0
 21 20  1  0  0  0  0
 21 41  1  0  0  0  0
 22 43  1  0  0  0  0
 22 45  1  0  0  0  0
 25  7  1  0  0  0  0
 28 12  1  0  0  0  0
 30 15  1  0  0  0  0
 32 17  1  0  0  0  0
 33 18  1  0  0  0  0
 34 18  1  0  0  0  0
 37 19  1  0  0  0  0
 38 19  1  0  0  0  0
 39 20  1  0  0  0  0
 40 21  1  0  0  0  0
 42 21  1  0  0  0  0
 44 22  1  0  0  0  0
M  END
