4,5
q = 0.0, confidence = 0.932

 44 45  0  0  1  0  0  0  0  0999 V2000
   -0.3749    4.0433   -1.8815 O   0  0  0  0  0  0  0  0  0  0  0  0
    6.4200   -1.2352   -0.4074 O   0  0  0  0  0  0  0  0  0  0  0  0
   -5.6451   -2.8557   -1.3062 O   0  0  0  0  0  0  0  0  0  0  0  0
    1.3630    1.1764   -0.7039 N   0  0  0  0  0  2  0  0  0  0  0  0
   -1.3704    0.7654   -0.9358 N   0  0  0  0  0  2  0  0  0  0  0  0
    2.2811    3.1220   -1.9266 C   0  0  0  0  0  0  0  0  0  0  0  0
    3.0445    3.3712   -1.1627 H   0  0  0  0  0  0  0  0  0  0  0  0
    1.8675    4.0558   -2.3466 H   0  0  0  0  0  0  0  0  0  0  0  0
    2.8031    2.5456   -2.7181 H   0  0  0  0  0  0  0  0  0  0  0  0
    1.1596    2.3221   -1.3272 C   0  0  1  0  0  3  0  0  0  0  0  0
   -0.2184    2.8623   -1.5211 C   0  0  0  0  0  0  0  0  0  0  0  0
   -1.3839    1.9356   -1.5620 C   0  0  1  0  0  3  0  0  0  0  0  0
   -2.5477    2.4258   -2.3772 C   0  0  0  0  0  0  0  0  0  0  0  0
   -3.1304    1.5891   -2.8044 H   0  0  0  0  0  0  0  0  0  0  0  0
   -2.1838    3.1026   -3.1723 H   0  0  0  0  0  0  0  0  0  0  0  0
   -3.2384    3.0308   -1.7512 H   0  0  0  0  0  0  0  0  0  0  0  0
    2.6775    0.6024   -0.6842 C   0  0  0  0  0  0  0  0  0  0  0  0
    3.5997    0.9541    0.3220 C   0  0  0  0  0  0  0  0  0  0  0  0
    3.3148    1.7065    1.0704 H   0  0  0  0  0  0  0  0  0  0  0  0
    4.8436    0.3249    0.3812 C   0  0  0  0  0  0  0  0  0  0  0  0
    5.5758    0.5813    1.1606 H   0  0  0  0  0  0  0  0  0  0  0  0
    5.1897   -0.6698   -0.5601 C   0  0  0  0  0  0  0  0  0  0  0  0
    4.2727   -1.0119   -1.5747 C   0  0  0  0  0  0  0  0  0  0  0  0
    4.5147   -1.7777   -2.3235 H   0  0  0  0  0  0  0  0  0  0  0  0
    3.0236   -0.3740   -1.6300 C   0  0  0  0  0  0  0  0  0  0  0  0
    2.2928   -0.6518   -2.4027 H   0  0  0  0  0  0  0  0  0  0  0  0
   -2.4951   -0.1188   -1.0528 C   0  0  0  0  0  0  0  0  0  0  0  0
   -3.7337    0.2171   -0.4839 C   0  0  0  0  0  0  0  0  0  0  0  0
   -3.8428    1.1781    0.0382 H   0  0  0  0  0  0  0  0  0  0  0  0
   -4.8156   -0.6756   -0.5426 C   0  0  0  0  0  0  0  0  0  0  0  0
   -5.7694   -0.3889   -0.0803 H   0  0  0  0  0  0  0  0  0  0  0  0
   -4.6624   -1.9194   -1.1889 C   0  0  0  0  0  0  0  0  0  0  0  0
   -3.4153   -2.2524   -1.7629 C   0  0  0  0  0  0  0  0  0  0  0  0
   -3.3146   -3.2294   -2.2573 H   0  0  0  0  0  0  0  0  0  0  0  0
   -2.3401   -1.3676   -1.6869 C   0  0  0  0  0  0  0  0  0  0  0  0
   -1.3563   -1.6407   -2.0892 H   0  0  0  0  0  0  0  0  0  0  0  0
    6.8060   -2.2506   -1.3114 C   0  0  0  0  0  0  0  0  0  0  0  0
    7.8183   -2.5753   -1.0068 H   0  0  0  0  0  0  0  0  0  0  0  0
    6.8472   -1.8811   -2.3613 H   0  0  0  0  0  0  0  0  0  0  0  0
    6.1186   -3.1262   -1.2717 H   0  0  0  0  0  0  0  0  0  0  0  0
   -6.9056   -2.5786   -0.7301 C   0  0  0  0  0  0  0  0  0  0  0  0
   -6.8357   -2.4284    0.3714 H   0  0  0  0  0  0  0  0  0  0  0  0
   -7.5443   -3.4586   -0.9317 H   0  0  0  0  0  0  0  0  0  0  0  0
   -7.3810   -1.6775   -1.1798 H   0  0  0  0  0  0  0  0  0  0  0  0
  1 11  2  0  0  0  0
  3 32  1  0  0  0  0
  3 41  1  0  0  0  0
  4 17  1  0  0  0  0
  6 10  1  0  0  0  0
  6  7  1  0  0  0  0
  8  6  1  0  0  0  0
  9  6  1  0  0  0  0
 10 11  1  6  0  0  0
 10  4  1  0  0  0  0
 12 11  1  6  0  0  0
 12  5  1  0  0  0  0
 13 16  1  0  0  0  0
 13 12  1  0  0  0  0
 14 13  1  0  0  0  0
 15 13  1  0  0  0  0
 17 18  1  0  0  0  0
 18 20  2  0  0  0  0
 18 19  1  0  0  0  0
 20 21  1  0  0  0  0
 22  2  1  0  0  0  0
 22 20  1  0  0  0  0
 23 22  2  0  0  0  0
 24 23  1  0  0  0  0
 25 23  1  0  0  0  0
 25 17  2  0  0  0  0
 26 25  1  0  0  0  0
 27  5  1  0  0  0  0
 27 28  1  0  0  0  0
 28 29  1  0  0  0  0
 30 28  2  0  0  0  0
 30 31  1  0  0  0  0
 32 30  1  0  0  0  0
 33 35  1  0  0  0  0
 33 32  2  0  0  0  0
 34 33  1  0  0  0  0
 35 27  2  0  0  0  0
 36 35  1  0  0  0  0
 37 40  1  0  0  0  0
 37 38  1  0  0  0  0
 37  2  1  0  0  0  0
 39 37  1  0  0  0  0
 41 42  1  0  0  0  0
 43 41  1  0  0  0  0
 44 41  1  0  0  0  0
M  END
