3,5
q = 0.0, confidence = 1.0

 25 27  0  0  0  0  0  0  0  0999 V2000
   -2.1729   -0.7330   -0.6047 N   0  0  0  0  0  0  0  0  0  0  0  0
   -2.2912    0.6003    1.1799 O   0  0  0  0  0  0  0  0  0  0  0  0
    1.3133    0.2026    1.2188 N   0  0  0  0  0  2  0  0  0  0  0  0
   -5.0304    0.9254    0.9490 N   0  0  0  0  0  0  0  0  0  0  0  0
   -0.9258   -0.5420   -0.1078 N   0  0  0  0  0  2  0  0  0  0  0  0
   -1.0127    0.2518    0.9432 C   0  0  0  0  0  0  0  0  0  0  0  0
    0.1400    0.6960    1.6989 C   0  0  0  0  0  0  0  0  0  0  0  0
    2.4529    0.5515    1.8263 C   0  0  0  0  0  0  0  0  0  0  0  0
    3.3749    0.1261    1.4031 H   0  0  0  0  0  0  0  0  0  0  0  0
    2.4791    1.4164    2.9311 C   0  0  0  0  0  0  0  0  0  0  0  0
    3.4417    1.6819    3.3898 H   0  0  0  0  0  0  0  0  0  0  0  0
    1.2711    1.9284    3.4253 C   0  0  0  0  0  0  0  0  0  0  0  0
    1.2618    2.6084    4.2897 H   0  0  0  0  0  0  0  0  0  0  0  0
    0.0721    1.5607    2.8028 C   0  0  0  0  0  0  0  0  0  0  0  0
   -0.9032    1.9300    3.1487 H   0  0  0  0  0  0  0  0  0  0  0  0
   -4.4269    0.0991    0.0720 C   0  0  0  0  0  0  0  0  0  0  0  0
   -6.3595    1.0551    0.8555 C   0  0  0  0  0  0  0  0  0  0  0  0
   -6.8352    1.7354    1.5840 H   0  0  0  0  0  0  0  0  0  0  0  0
   -7.1426    0.3830   -0.1000 C   0  0  0  0  0  0  0  0  0  0  0  0
   -8.2324    0.5299   -0.1267 H   0  0  0  0  0  0  0  0  0  0  0  0
   -6.5012   -0.4729   -1.0089 C   0  0  0  0  0  0  0  0  0  0  0  0
   -7.0769   -1.0191   -1.7710 H   0  0  0  0  0  0  0  0  0  0  0  0
   -5.1134   -0.6246   -0.9285 C   0  0  0  0  0  0  0  0  0  0  0  0
   -4.5525   -1.2824   -1.6075 H   0  0  0  0  0  0  0  0  0  0  0  0
   -2.9744   -0.0375    0.1751 C   0  0  0  0  0  0  0  0  0  0  0  0
  1  5  1  0  0  0  0
  1 25  2  0  0  0  0
  3  7  1  0  0  0  0
  3  8  1  0  0  0  0
  5  6  1  0  0  0  0
  6  2  1  0  0  0  0
  6  7  2  0  0  0  0
  7 14  1  0  0  0  0
  8 10  2  0  0  0  0
  9  8  1  0  0  0  0
 10 11  1  0  0  0  0
 10 12  1  0  0  0  0
 12 13  1  0  0  0  0
 14 15  1  0  0  0  0
 14 12  2  0  0  0  0
 16 25  1  0  0  0  0
 16  4  2  0  0  0  0
 17  4  1  0  0  0  0
 17 18  1  0  0  0  0
 19 17  2  0  0  0  0
 20 19  1  0  0  0  0
 21 23  2  0  0  0  0
 21 19  1  0  0  0  0
 22 21  1  0  0  0  0
 23 16  1  0  0  0  0
 24 23  1  0  0  0  0
 25  2  1  0  0  0  0
M  END
