3,4
q = 0.0, confidence = 0.98

 47 50  0  0  0  0  0  0  0  0999 V2000
   -7.7668   -2.5636    0.7838 Cl  0  0  0  0  0  0  0  0  0  0  0  0
   -0.2512    4.4215   -0.9543 O   0  0  0  0  0  0  0  0  0  0  0  0
    2.2786    1.2615    0.7456 N   0  0  0  0  0  2  0  0  0  0  0  0
    0.3997   -0.5726    0.7666 N   0  0  0  0  0  2  0  0  0  0  0  0
   -1.6046   -0.5919   -1.4736 N   0  0  0  0  0  0  0  0  0  0  0  0
   -0.8537    0.0001   -1.8484 H   0  0  0  0  0  0  0  0  0  0  0  0
   -4.7064    1.4994    0.5615 N   0  0  0  0  0  0  0  0  0  0  0  0
    3.2617    2.1762    0.6415 C   0  0  0  0  0  3  0  0  0  0  0  0
    4.2099    1.8312    0.2068 H   0  0  0  0  0  0  0  0  0  0  0  0
    3.0865    3.5047    1.0455 C   0  0  0  0  0  0  0  0  0  0  0  0
    3.9195    4.2138    0.9411 H   0  0  0  0  0  0  0  0  0  0  0  0
    1.8451    3.9061    1.5708 C   0  0  0  0  0  0  0  0  0  0  0  0
    1.6787    4.9444    1.8907 H   0  0  0  0  0  0  0  0  0  0  0  0
    0.8165    2.9651    1.6568 C   0  0  0  0  0  0  0  0  0  0  0  0
   -0.1844    3.2372    2.0200 H   0  0  0  0  0  0  0  0  0  0  0  0
    1.0543    1.6489    1.2203 C   0  0  0  0  0  0  0  0  0  0  0  0
    0.0478    0.6085    1.1951 C   0  0  0  0  0  3  0  0  0  0  0  0
   -0.9829    0.8163    1.5318 H   0  0  0  0  0  0  0  0  0  0  0  0
   -0.6029   -1.6043    0.6034 C   0  0  0  0  0  0  0  0  0  0  0  0
   -1.5009   -1.3609    1.2119 H   0  0  0  0  0  0  0  0  0  0  0  0
   -0.1919   -2.5682    0.9634 H   0  0  0  0  0  0  0  0  0  0  0  0
   -1.0370   -1.7836   -0.8792 C   0  0  0  0  0  0  0  0  0  0  0  0
   -0.1549   -2.0603   -1.4875 H   0  0  0  0  0  0  0  0  0  0  0  0
   -1.7385   -2.6401   -0.8920 H   0  0  0  0  0  0  0  0  0  0  0  0
   -2.6629    0.1059   -0.9002 C   0  0  0  0  0  0  0  0  0  0  0  0
   -2.5466    1.5065   -0.6373 C   0  0  0  0  0  0  0  0  0  0  0  0
   -1.3939    2.2715   -1.0021 C   0  0  0  0  0  0  0  0  0  0  0  0
   -0.5692    1.8061   -1.5580 H   0  0  0  0  0  0  0  0  0  0  0  0
   -1.3041    3.6200   -0.6589 C   0  0  0  0  0  0  0  0  0  0  0  0
   -2.3508    4.2494    0.0898 C   0  0  0  0  0  0  0  0  0  0  0  0
   -2.2403    5.3151    0.3378 H   0  0  0  0  0  0  0  0  0  0  0  0
   -3.4618    3.5281    0.4626 C   0  0  0  0  0  0  0  0  0  0  0  0
   -4.2838    3.9851    1.0320 H   0  0  0  0  0  0  0  0  0  0  0  0
   -3.6104    2.1386    0.1187 C   0  0  0  0  0  0  0  0  0  0  0  0
   -4.8606    0.2020    0.2274 C   0  0  0  0  0  0  0  0  0  0  0  0
   -6.0599   -0.4553    0.6514 C   0  0  0  0  0  0  0  0  0  0  0  0
   -6.7732    0.1222    1.2538 H   0  0  0  0  0  0  0  0  0  0  0  0
   -6.3095   -1.7629    0.2778 C   0  0  0  0  0  0  0  0  0  0  0  0
   -5.3975   -2.4748   -0.5588 C   0  0  0  0  0  0  0  0  0  0  0  0
   -5.6619   -3.4851   -0.9009 H   0  0  0  0  0  0  0  0  0  0  0  0
   -4.2161   -1.8745   -0.9519 C   0  0  0  0  0  0  0  0  0  0  0  0
   -3.5544   -2.4070   -1.6488 H   0  0  0  0  0  0  0  0  0  0  0  0
   -3.8817   -0.5458   -0.5427 C   0  0  0  0  0  0  0  0  0  0  0  0
    0.7469    3.9290   -1.8408 C   0  0  0  0  0  0  0  0  0  0  0  0
    1.2698    3.0376   -1.4326 H   0  0  0  0  0  0  0  0  0  0  0  0
    1.4700    4.7523   -1.9819 H   0  0  0  0  0  0  0  0  0  0  0  0
    0.3066    3.6513   -2.8227 H   0  0  0  0  0  0  0  0  0  0  0  0
  2 29  1  0  0  0  0
  3 16  1  0  0  0  0
  4 17  1  0  0  0  0
  5 25  1  0  0  0  0
  5 22  1  0  0  0  0
  6  5  1  0  0  0  0
  8  3  1  0  0  0  0
  8 10  1  0  0  0  0
  9  8  1  0  0  0  0
 10 12  2  0  0  0  0
 11 10  1  0  0  0  0
 12 14  1  0  0  0  0
 12 13  1  0  0  0  0
 14 15  1  0  0  0  0
 16 14  2  0  0  0  0
 17 16  1  0  0  0  0
 17 18  1  0  0  0  0
 19  4  1  0  0  0  0
 19 21  1  0  0  0  0
 19 20  1  0  0  0  0
 22 19  1  0  0  0  0
 23 22  1  0  0  0  0
 24 22  1  0  0  0  0
 25 26  2  0  0  0  0
 25 43  1  0  0  0  0
 26 34  1  0  0  0  0
 27 29  2  0  0  0  0
 27 26  1  0  0  0  0
 28 27  1  0  0  0  0
 29 30  1  0  0  0  0
 30 31  1  0  0  0  0
 30 32  2  0  0  0  0
 32 33  1  0  0  0  0
 34 32  1  0  0  0  0
 34  7  2  0  0  0  0
 35  7  1  0  0  0  0
 35 36  1  0  0  0  0
 36 37  1  0  0  0  0
 38 36  2  0  0  0  0
 38  1  1  0  0  0  0
 39 38  1  0  0  0  0
 40 39  1  0  0  0  0
 41 39  2  0  0  0  0
 41 43  1  0  0  0  0
 42 41  1  0  0  0  0
 43 35  2  0  0  0  0
 44 45  1  0  0  0  0
 44  2  1  0  0  0  0
 46 44  1  0  0  0  0
 47 44  1  0  0  0  0
M  END
