4,33
q = 0.0, confidence = 0.99

 58 59  0  0  0  0  0  0  0  0999 V2000
   -1.8613   -1.1264    0.8314 N   0  0  0  0  0  2  0  0  0  0  0  0
   -3.9748   -1.5998    1.6712 N   0  0  0  0  0  0  0  0  0  0  0  0
   -3.5141   -2.1855   -0.5535 N   0  0  0  0  0  0  0  0  0  0  0  0
    1.6362   -1.2745   -0.2712 N   0  0  0  0  0  2  0  0  0  0  0  0
   -0.7232   -1.5990    0.2131 C   0  0  0  0  0  0  0  0  0  0  0  0
   -0.5304   -2.9865   -0.0234 C   0  0  0  0  0  0  0  0  0  0  0  0
   -1.3685   -3.6749    0.1612 H   0  0  0  0  0  0  0  0  0  0  0  0
    0.7203   -3.4771   -0.3972 C   0  0  0  0  0  0  0  0  0  0  0  0
    0.8832   -4.5507   -0.5696 H   0  0  0  0  0  0  0  0  0  0  0  0
    1.8034   -2.5981   -0.4734 C   0  0  0  0  0  0  0  0  0  0  0  0
    2.8455   -2.9095   -0.6537 H   0  0  0  0  0  0  0  0  0  0  0  0
    0.3888   -0.7320   -0.0418 C   0  0  0  0  0  0  0  0  0  0  0  0
   -3.0544   -1.6349    0.6357 C   0  0  0  0  0  3  0  0  0  0  0  0
   -3.5178   -1.5447    3.0470 C   0  0  0  0  0  0  0  0  0  0  0  0
   -2.4416   -1.7890    3.0832 H   0  0  0  0  0  0  0  0  0  0  0  0
   -4.0878   -2.2703    3.6674 H   0  0  0  0  0  0  0  0  0  0  0  0
   -3.6555   -0.5338    3.4915 H   0  0  0  0  0  0  0  0  0  0  0  0
   -5.3759   -1.2942    1.4573 C   0  0  0  0  0  0  0  0  0  0  0  0
   -5.5785   -1.1842    0.3777 H   0  0  0  0  0  0  0  0  0  0  0  0
   -5.6425   -0.3354    1.9597 H   0  0  0  0  0  0  0  0  0  0  0  0
   -6.0455   -2.0836    1.8653 H   0  0  0  0  0  0  0  0  0  0  0  0
   -4.3702   -3.3601   -0.5715 C   0  0  0  0  0  0  0  0  0  0  0  0
   -4.6073   -3.6782    0.4595 H   0  0  0  0  0  0  0  0  0  0  0  0
   -3.8483   -4.2015   -1.0823 H   0  0  0  0  0  0  0  0  0  0  0  0
   -5.3234   -3.1779   -1.1167 H   0  0  0  0  0  0  0  0  0  0  0  0
   -2.9106   -1.8332   -1.8268 C   0  0  0  0  0  0  0  0  0  0  0  0
   -2.3550   -0.8802   -1.7253 H   0  0  0  0  0  0  0  0  0  0  0  0
   -3.7123   -1.7089   -2.5873 H   0  0  0  0  0  0  0  0  0  0  0  0
   -2.2126   -2.6213   -2.1903 H   0  0  0  0  0  0  0  0  0  0  0  0
   -1.8613    1.1265   -0.8314 N   0  0  0  0  0  2  0  0  0  0  0  0
   -3.9749    1.5998   -1.6711 N   0  0  0  0  0  0  0  0  0  0  0  0
   -3.5141    2.1855    0.5535 N   0  0  0  0  0  0  0  0  0  0  0  0
    1.6362    1.2745    0.2711 N   0  0  0  0  0  2  0  0  0  0  0  0
   -0.7232    1.5991   -0.2133 C   0  0  0  0  0  0  0  0  0  0  0  0
   -0.5303    2.9866    0.0231 C   0  0  0  0  0  0  0  0  0  0  0  0
   -1.3684    3.6749   -0.1616 H   0  0  0  0  0  0  0  0  0  0  0  0
    0.7204    3.4771    0.3969 C   0  0  0  0  0  0  0  0  0  0  0  0
    0.8834    4.5508    0.5691 H   0  0  0  0  0  0  0  0  0  0  0  0
    1.8035    2.5982    0.4731 C   0  0  0  0  0  0  0  0  0  0  0  0
    2.8456    2.9095    0.6535 H   0  0  0  0  0  0  0  0  0  0  0  0
    0.3888    0.7320    0.0417 C   0  0  0  0  0  0  0  0  0  0  0  0
   -3.0544    1.6350   -0.6356 C   0  0  0  0  0  3  0  0  0  0  0  0
   -3.5179    1.5447   -3.0470 C   0  0  0  0  0  0  0  0  0  0  0  0
   -2.4418    1.7891   -3.0831 H   0  0  0  0  0  0  0  0  0  0  0  0
   -4.0880    2.2704   -3.6673 H   0  0  0  0  0  0  0  0  0  0  0  0
   -3.6558    0.5339   -3.4915 H   0  0  0  0  0  0  0  0  0  0  0  0
   -5.3759    1.2942   -1.4571 C   0  0  0  0  0  0  0  0  0  0  0  0
   -5.5785    1.1842   -0.3775 H   0  0  0  0  0  0  0  0  0  0  0  0
   -5.6427    0.3355   -1.9595 H   0  0  0  0  0  0  0  0  0  0  0  0
   -6.0456    2.0837   -1.8649 H   0  0  0  0  0  0  0  0  0  0  0  0
   -4.3703    3.3599    0.5716 C   0  0  0  0  0  0  0  0  0  0  0  0
   -4.6075    3.6780   -0.4593 H   0  0  0  0  0  0  0  0  0  0  0  0
   -3.8485    4.2014    1.0824 H   0  0  0  0  0  0  0  0  0  0  0  0
   -5.3234    3.1776    1.1169 H   0  0  0  0  0  0  0  0  0  0  0  0
   -2.9104    1.8332    1.8269 C   0  0  0  0  0  0  0  0  0  0  0  0
   -2.3548    0.8803    1.7253 H   0  0  0  0  0  0  0  0  0  0  0  0
   -3.7120    1.7088    2.5874 H   0  0  0  0  0  0  0  0  0  0  0  0
   -2.2125    2.6214    2.1902 H   0  0  0  0  0  0  0  0  0  0  0  0
  2 14  1  0  0  0  0
  3 13  1  0  0  0  0
  4 12  1  0  0  0  0
  5  1  1  0  0  0  0
  6  7  1  0  0  0  0
  6  5  2  0  0  0  0
  8  6  1  0  0  0  0
  9  8  1  0  0  0  0
 10  8  2  0  0  0  0
 10  4  1  0  0  0  0
 11 10  1  0  0  0  0
 12 41  2  0  0  0  0
 12  5  1  0  0  0  0
 13  1  1  0  0  0  0
 13  2  1  0  0  0  0
 14 15  1  0  0  0  0
 14 17  1  0  0  0  0
 14 16  1  0  0  0  0
 18  2  1  0  0  0  0
 18 21  1  0  0  0  0
 18 20  1  0  0  0  0
 19 18  1  0  0  0  0
 22  3  1  0  0  0  0
 22 23  1  0  0  0  0
 24 22  1  0  0  0  0
 25 22  1  0  0  0  0
 26 27  1  0  0  0  0
 26  3  1  0  0  0  0
 28 26  1  0  0  0  0
 29 26  1  0  0  0  0
 30 42  1  0  0  0  0
 30 34  1  0  0  0  0
 31 47  1  0  0  0  0
 31 42  1  0  0  0  0
 32 51  1  0  0  0  0
 32 55  1  0  0  0  0
 33 39  1  0  0  0  0
 34 35  2  0  0  0  0
 34 41  1  0  0  0  0
 35 37  1  0  0  0  0
 36 35  1  0  0  0  0
 37 39  2  0  0  0  0
 37 38  1  0  0  0  0
 39 40  1  0  0  0  0
 41 33  1  0  0  0  0
 42 32  1  0  0  0  0
 43 31  1  0  0  0  0
 44 43  1  0  0  0  0
 45 43  1  0  0  0  0
 46 43  1  0  0  0  0
 47 48  1  0  0  0  0
 49 47  1  0  0  0  0
 50 47  1  0  0  0  0
 51 53  1  0  0  0  0
 51 54  1  0  0  0  0
 52 51  1  0  0  0  0
 55 58  1  0  0  0  0
 55 57  1  0  0  0  0
 56 55  1  0  0  0  0
M  END
