1,2
q = 0.0, confidence = 0.996

 27 28  0  0  0  0  0  0  0  0999 V2000
   -1.5429   -2.0812   -0.3042 N   0  0  0  0  0  2  0  0  0  0  0  0
    1.0705   -1.7655   -0.0929 N   0  0  0  0  0  2  0  0  0  0  0  0
   -2.8789   -2.1792   -0.4270 C   0  0  0  0  0  3  0  0  0  0  0  0
   -3.3524   -1.4316   -1.0785 H   0  0  0  0  0  0  0  0  0  0  0  0
   -3.6223   -3.1619    0.2366 C   0  0  0  0  0  0  0  0  0  0  0  0
   -4.7135   -3.1923    0.1132 H   0  0  0  0  0  0  0  0  0  0  0  0
   -2.9505   -4.0935    1.0478 C   0  0  0  0  0  0  0  0  0  0  0  0
   -3.5078   -4.8819    1.5752 H   0  0  0  0  0  0  0  0  0  0  0  0
   -1.5628   -4.0027    1.1723 C   0  0  0  0  0  0  0  0  0  0  0  0
   -0.9948   -4.7102    1.7936 H   0  0  0  0  0  0  0  0  0  0  0  0
   -0.8770   -2.9778    0.4875 C   0  0  0  0  0  0  0  0  0  0  0  0
    0.5457   -2.7503    0.6017 C   0  0  0  0  0  3  0  0  0  0  0  0
    1.1591   -3.3795    1.2715 H   0  0  0  0  0  0  0  0  0  0  0  0
    2.4287   -1.4269    0.1044 C   0  0  0  0  0  0  0  0  0  0  0  0
    2.9670   -1.3001    1.4019 C   0  0  0  0  0  0  0  0  0  0  0  0
    2.3170   -1.4506    2.2766 H   0  0  0  0  0  0  0  0  0  0  0  0
    4.2984   -0.9066    1.5740 C   0  0  0  0  0  0  0  0  0  0  0  0
    4.6940   -0.7779    2.5937 H   0  0  0  0  0  0  0  0  0  0  0  0
    5.1317   -0.6425    0.4684 C   0  0  0  0  0  0  0  0  0  0  0  0
    4.5828   -0.7956   -0.8238 C   0  0  0  0  0  0  0  0  0  0  0  0
    5.2159   -0.6094   -1.7056 H   0  0  0  0  0  0  0  0  0  0  0  0
    3.2495   -1.1701   -1.0126 C   0  0  0  0  0  0  0  0  0  0  0  0
    2.8254   -1.2939   -2.0185 H   0  0  0  0  0  0  0  0  0  0  0  0
    6.5475   -0.1632    0.6595 C   0  0  0  0  0  0  0  0  0  0  0  0
    6.9795   -0.5290    1.6118 H   0  0  0  0  0  0  0  0  0  0  0  0
    6.5895    0.9478    0.6882 H   0  0  0  0  0  0  0  0  0  0  0  0
    7.2059   -0.4896   -0.1695 H   0  0  0  0  0  0  0  0  0  0  0  0
  1 11  1  0  0  0  0
  2 14  1  0  0  0  0
  2 12  1  0  0  0  0
  3  1  1  0  0  0  0
  3  5  1  0  0  0  0
  4  3  1  0  0  0  0
  5  7  2  0  0  0  0
  6  5  1  0  0  0  0
  7  9  1  0  0  0  0
  7  8  1  0  0  0  0
  9 10  1  0  0  0  0
 11 12  1  0  0  0  0
 11  9  2  0  0  0  0
 12 13  1  0  0  0  0
 14 15  1  0  0  0  0
 15 17  2  0  0  0  0
 15 16  1  0  0  0  0
 17 18  1  0  0  0  0
 19 24  1  0  0  0  0
 19 17  1  0  0  0  0
 20 19  2  0  0  0  0
 21 20  1  0  0  0  0
 22 20  1  0  0  0  0
 22 14  2  0  0  0  0
 23 22  1  0  0  0  0
 24 26  1  0  0  0  0
 24 25  1  0  0  0  0
 27 24  1  0  0  0  0
M  END
