3,4
q = -1.0, confidence = 0.0

 36 36  0  0  1  0  0  0  0  0999 V2000
   -0.8820   -2.3744   -2.3905 O   0  0  0  0  0  0  0  0  0  0  0  0
   -0.5924    1.1834    2.5698 O   0  0  0  0  0  0  0  0  0  0  0  0
    1.3747   -0.6625   -1.2238 N   0  0  0  0  0  2  0  0  0  0  0  0
    1.6705    0.1000    1.2626 N   0  0  0  0  0  2  0  0  0  0  0  0
    2.6447   -0.4914   -0.8381 C   0  0  0  0  0  0  0  0  0  0  0  0
    3.7328   -0.7290   -1.7355 C   0  0  0  0  0  0  0  0  0  0  0  0
    3.4205   -1.0816   -2.7274 H   0  0  0  0  0  0  0  0  0  0  0  0
    5.1203   -0.6194   -1.6011 C   0  0  0  0  0  0  0  0  0  0  0  0
    5.6865   -0.8984   -2.5064 H   0  0  0  0  0  0  0  0  0  0  0  0
    5.8948   -0.2091   -0.5077 C   0  0  0  0  0  0  0  0  0  0  0  0
    6.9875   -0.1934   -0.6397 H   0  0  0  0  0  0  0  0  0  0  0  0
    5.3909    0.1907    0.7375 C   0  0  0  0  0  0  0  0  0  0  0  0
    6.1463    0.5004    1.4801 H   0  0  0  0  0  0  0  0  0  0  0  0
    4.0718    0.2646    1.1933 C   0  0  0  0  0  0  0  0  0  0  0  0
    3.9875    0.6335    2.2247 H   0  0  0  0  0  0  0  0  0  0  0  0
    2.8120   -0.0320    0.5835 C   0  0  1  0  0  3  0  0  0  0  0  0
    1.0804   -1.0052   -2.6009 C   0  0  0  0  0  0  0  0  0  0  0  0
    1.5638   -1.9669   -2.8976 H   0  0  0  0  0  0  0  0  0  0  0  0
    1.4916   -0.2288   -3.2909 H   0  0  0  0  0  0  0  0  0  0  0  0
   -0.4048   -1.1405   -2.8912 C   0  0  0  0  0  0  0  0  0  0  0  0
   -0.9611   -0.2835   -2.4387 H   0  0  0  0  0  0  0  0  0  0  0  0
   -0.5604   -1.0921   -3.9982 H   0  0  0  0  0  0  0  0  0  0  0  0
   -2.2505   -2.5748   -2.6577 C   0  0  0  0  0  0  0  0  0  0  0  0
   -2.8939   -1.7997   -2.1776 H   0  0  0  0  0  0  0  0  0  0  0  0
   -2.5303   -3.5677   -2.2540 H   0  0  0  0  0  0  0  0  0  0  0  0
   -2.4632   -2.5677   -3.7550 H   0  0  0  0  0  0  0  0  0  0  0  0
    1.6751    0.4744    2.6591 C   0  0  0  0  0  0  0  0  0  0  0  0
    2.0204    1.5292    2.7892 H   0  0  0  0  0  0  0  0  0  0  0  0
    2.3771   -0.1593    3.2519 H   0  0  0  0  0  0  0  0  0  0  0  0
    0.2926    0.3342    3.2741 C   0  0  0  0  0  0  0  0  0  0  0  0
   -0.0429   -0.7283    3.2009 H   0  0  0  0  0  0  0  0  0  0  0  0
    0.3378    0.6132    4.3562 H   0  0  0  0  0  0  0  0  0  0  0  0
   -1.9171    1.1297    3.0481 C   0  0  0  0  0  0  0  0  0  0  0  0
   -2.3291    0.0936    3.0193 H   0  0  0  0  0  0  0  0  0  0  0  0
   -2.5383    1.7688    2.3926 H   0  0  0  0  0  0  0  0  0  0  0  0
   -1.9905    1.5049    4.0977 H   0  0  0  0  0  0  0  0  0  0  0  0
  2 33  1  0  0  0  0
  2 30  1  0  0  0  0
  3  5  1  0  0  0  0
  4 27  1  0  0  0  0
  5 16  1  0  0  0  0
  6  8  1  0  0  0  0
  6  5  2  0  0  0  0
  7  6  1  0  0  0  0
  8 10  2  0  0  0  0
  9  8  1  0  0  0  0
 10 12  1  0  0  0  0
 11 10  1  0  0  0  0
 12 14  2  0  0  0  0
 12 13  1  0  0  0  0
 14 15  1  0  0  0  0
 16 14  1  0  0  0  0
 16  4  1  6  0  0  0
 17  3  1  0  0  0  0
 18 17  1  0  0  0  0
 19 17  1  0  0  0  0
 20 17  1  0  0  0  0
 20 21  1  0  0  0  0
 20  1  1  0  0  0  0
 22 20  1  0  0  0  0
 23  1  1  0  0  0  0
 23 25  1  0  0  0  0
 23 24  1  0  0  0  0
 26 23  1  0  0  0  0
 27 28  1  0  0  0  0
 27 29  1  0  0  0  0
 27 30  1  0  0  0  0
 30 32  1  0  0  0  0
 31 30  1  0  0  0  0
 33 36  1  0  0  0  0
 34 33  1  0  0  0  0
 35 33  1  0  0  0  0
M  END
