1,2
q = 0.0, confidence = 0.998

 64 68  0  0  1  0  0  0  0  0999 V2000
    1.0312   -0.1336   -0.0001 N   0  0  0  0  0  2  0  0  0  0  0  0
   -0.5520    1.9967   -0.0002 N   0  0  0  0  0  2  0  0  0  0  0  0
   -2.4770    0.8890   -0.0000 N   0  0  0  0  0  0  0  0  0  0  0  0
    1.9938   -1.2502   -0.0001 C   0  0  1  0  0  0  0  0  0  0  0  0
   -2.7707    2.2430   -0.0001 C   0  0  0  0  0  0  0  0  0  0  0  0
   -3.8060    2.5967   -0.0001 H   0  0  0  0  0  0  0  0  0  0  0  0
   -1.1112    0.7733   -0.0001 C   0  0  0  0  0  0  0  0  0  0  0  0
    2.4243   -3.7449   -0.0003 C   0  0  2  0  0  0  0  0  0  0  0  0
    1.9233   -4.7364   -0.0005 H   0  0  0  0  0  0  0  0  0  0  0  0
   -3.4025   -0.2122    0.0001 C   0  0  0  0  0  0  0  0  0  0  0  0
    2.8734   -1.1241   -1.2715 C   0  0  0  0  0  0  0  0  0  0  0  0
    2.2205   -1.2284   -2.1652 H   0  0  0  0  0  0  0  0  0  0  0  0
    3.3258   -0.1134   -1.2906 H   0  0  0  0  0  0  0  0  0  0  0  0
   -4.6990   -1.8400   -1.2152 C   0  0  0  0  0  0  0  0  0  0  0  0
   -5.0456   -2.2793   -2.1625 H   0  0  0  0  0  0  0  0  0  0  0  0
    2.8732   -1.1244    1.2714 C   0  0  0  0  0  0  0  0  0  0  0  0
    3.3256   -0.1136    1.2908 H   0  0  0  0  0  0  0  0  0  0  0  0
    2.2201   -1.2289    2.1650 H   0  0  0  0  0  0  0  0  0  0  0  0
    3.3022   -3.6028   -1.2578 C   0  0  0  0  0  0  0  0  0  0  0  0
    4.0759   -4.4001   -1.2689 H   0  0  0  0  0  0  0  0  0  0  0  0
    2.6860   -3.7363   -2.1735 H   0  0  0  0  0  0  0  0  0  0  0  0
   -3.3174   -0.1783    2.5696 C   0  0  0  0  0  0  0  0  0  0  0  0
   -2.7963    0.7771    2.3557 H   0  0  0  0  0  0  0  0  0  0  0  0
    1.3371   -2.6488   -0.0003 C   0  0  0  0  0  0  0  0  0  0  0  0
    0.6908   -2.7708    0.8972 H   0  0  0  0  0  0  0  0  0  0  0  0
    0.6909   -2.7705   -0.8980 H   0  0  0  0  0  0  0  0  0  0  0  0
    4.8344   -2.0440    0.0000 C   0  0  0  0  0  0  0  0  0  0  0  0
    5.6520   -2.7963    0.0000 H   0  0  0  0  0  0  0  0  0  0  0  0
    5.3039   -1.0389    0.0002 H   0  0  0  0  0  0  0  0  0  0  0  0
    3.9610   -2.2122   -1.2593 C   0  0  2  0  0  0  0  0  0  0  0  0
    4.5891   -2.0924   -2.1672 H   0  0  0  0  0  0  0  0  0  0  0  0
    3.9608   -2.2125    1.2592 C   0  0  2  0  0  0  0  0  0  0  0  0
    4.5888   -2.0929    2.1672 H   0  0  0  0  0  0  0  0  0  0  0  0
   -3.8216   -0.7394    1.2458 C   0  0  0  0  0  0  0  0  0  0  0  0
   -1.5572    2.9232   -0.0002 C   0  0  0  0  0  0  0  0  0  0  0  0
   -1.3258    3.9943   -0.0004 H   0  0  0  0  0  0  0  0  0  0  0  0
   -0.2559   -0.3766   -0.0001 C   0  0  0  0  0  0  0  0  0  0  0  0
   -0.6805   -1.3918   -0.0001 H   0  0  0  0  0  0  0  0  0  0  0  0
   -3.8220   -0.7394   -1.2454 C   0  0  0  0  0  0  0  0  0  0  0  0
   -3.3181   -0.1783   -2.5694 C   0  0  0  0  0  0  0  0  0  0  0  0
   -2.7970    0.7772   -2.3557 H   0  0  0  0  0  0  0  0  0  0  0  0
   -4.6986   -1.8400    1.2157 C   0  0  0  0  0  0  0  0  0  0  0  0
   -5.0450   -2.2793    2.1631 H   0  0  0  0  0  0  0  0  0  0  0  0
    3.3020   -3.6031    1.2573 C   0  0  0  0  0  0  0  0  0  0  0  0
    2.6857   -3.7367    2.1728 H   0  0  0  0  0  0  0  0  0  0  0  0
    4.0757   -4.4003    1.2683 H   0  0  0  0  0  0  0  0  0  0  0  0
   -5.1327   -2.3840    0.0003 C   0  0  0  0  0  0  0  0  0  0  0  0
   -5.8179   -3.2453    0.0004 H   0  0  0  0  0  0  0  0  0  0  0  0
   -4.4664    0.1375   -3.5409 C   0  0  0  0  0  0  0  0  0  0  0  0
   -4.0717    0.6193   -4.4578 H   0  0  0  0  0  0  0  0  0  0  0  0
   -5.2075    0.8234   -3.0843 H   0  0  0  0  0  0  0  0  0  0  0  0
   -5.0039   -0.7801   -3.8568 H   0  0  0  0  0  0  0  0  0  0  0  0
   -2.2875   -1.1310    3.2054 C   0  0  0  0  0  0  0  0  0  0  0  0
   -1.8902   -0.7031    4.1478 H   0  0  0  0  0  0  0  0  0  0  0  0
   -1.4281   -1.3133    2.5293 H   0  0  0  0  0  0  0  0  0  0  0  0
   -2.7455   -2.1136    3.4426 H   0  0  0  0  0  0  0  0  0  0  0  0
   -4.4654    0.1375    3.5414 C   0  0  0  0  0  0  0  0  0  0  0  0
   -4.0704    0.6191    4.4583 H   0  0  0  0  0  0  0  0  0  0  0  0
   -5.0029   -0.7801    3.8573 H   0  0  0  0  0  0  0  0  0  0  0  0
   -5.2065    0.8235    3.0850 H   0  0  0  0  0  0  0  0  0  0  0  0
   -2.2884   -1.1309   -3.2055 C   0  0  0  0  0  0  0  0  0  0  0  0
   -1.8914   -0.7031   -4.1481 H   0  0  0  0  0  0  0  0  0  0  0  0
   -2.7463   -2.1135   -3.4425 H   0  0  0  0  0  0  0  0  0  0  0  0
   -1.4287   -1.3132   -2.5297 H   0  0  0  0  0  0  0  0  0  0  0  0
  2  7  1  0  0  0  0
  3 10  1  0  0  0  0
  4  1  1  1  0  0  0
  4 16  1  0  0  0  0
  5  6  1  0  0  0  0
  5  3  1  0  0  0  0
  7  3  1  0  0  0  0
  8  9  1  6  0  0  0
  8 24  1  0  0  0  0
  8 44  1  0  0  0  0
 10 34  1  0  0  0  0
 11 30  1  0  0  0  0
 11  4  1  0  0  0  0
 12 11  1  0  0  0  0
 13 11  1  0  0  0  0
 14 47  2  0  0  0  0
 15 14  1  0  0  0  0
 16 17  1  0  0  0  0
 16 18  1  0  0  0  0
 19  8  1  0  0  0  0
 20 19  1  0  0  0  0
 21 19  1  0  0  0  0
 22 53  1  0  0  0  0
 22 57  1  0  0  0  0
 23 22  1  0  0  0  0
 24  4  1  0  0  0  0
 24 25  1  0  0  0  0
 26 24  1  0  0  0  0
 27 29  1  0  0  0  0
 27 32  1  0  0  0  0
 28 27  1  0  0  0  0
 30 31  1  6  0  0  0
 30 19  1  0  0  0  0
 30 27  1  0  0  0  0
 32 16  1  0  0  0  0
 32 33  1  1  0  0  0
 34 22  1  0  0  0  0
 35  2  1  0  0  0  0
 35  5  2  0  0  0  0
 36 35  1  0  0  0  0
 37 38  1  0  0  0  0
 37  1  1  0  0  0  0
 37  7  2  0  0  0  0
 39 14  1  0  0  0  0
 39 10  2  0  0  0  0
 40 41  1  0  0  0  0
 40 39  1  0  0  0  0
 42 34  2  0  0  0  0
 42 43  1  0  0  0  0
 44 32  1  0  0  0  0
 44 46  1  0  0  0  0
 44 45  1  0  0  0  0
 47 48  1  0  0  0  0
 47 42  1  0  0  0  0
 49 51  1  0  0  0  0
 49 40  1  0  0  0  0
 50 49  1  0  0  0  0
 52 49  1  0  0  0  0
 53 56  1  0  0  0  0
 53 54  1  0  0  0  0
 55 53  1  0  0  0  0
 57 59  1  0  0  0  0
 57 58  1  0  0  0  0
 60 57  1  0  0  0  0
 61 40  1  0  0  0  0
 61 64  1  0  0  0  0
 62 61  1  0  0  0  0
 63 61  1  0  0  0  0
M  END
