1,22
q = 0.0, confidence = 0.996

 41 43  0  0  1  0  0  0  0  0999 V2000
   -0.8759   -0.7909   -0.1629 N   0  0  0  0  0  2  0  0  0  0  0  0
   -1.7907   -1.7094   -0.5264 C   0  0  0  0  0  3  0  0  0  0  0  0
   -1.4068   -2.6946   -0.8312 H   0  0  0  0  0  0  0  0  0  0  0  0
   -3.1650   -1.4512   -0.5351 C   0  0  0  0  0  0  0  0  0  0  0  0
   -3.8466   -2.2432   -0.8743 H   0  0  0  0  0  0  0  0  0  0  0  0
   -3.6656   -0.1870   -0.1453 C   0  0  0  0  0  0  0  0  0  0  0  0
   -2.6951    0.7733    0.2359 C   0  0  0  0  0  0  0  0  0  0  0  0
   -2.9832    1.7761    0.5791 H   0  0  0  0  0  0  0  0  0  0  0  0
   -1.3423    0.4401    0.2073 C   0  0  0  0  0  0  0  0  0  0  0  0
   -5.1078    0.1203   -0.1322 C   0  0  0  0  0  0  0  0  0  0  0  0
   -6.0638   -0.9056    0.0616 C   0  0  0  0  0  0  0  0  0  0  0  0
   -5.7340   -1.9400    0.2388 H   0  0  0  0  0  0  0  0  0  0  0  0
   -7.4317   -0.6117    0.0762 C   0  0  0  0  0  0  0  0  0  0  0  0
   -8.1612   -1.4177    0.2431 H   0  0  0  0  0  0  0  0  0  0  0  0
   -7.8713    0.7090   -0.1128 C   0  0  0  0  0  0  0  0  0  0  0  0
   -8.9473    0.9381   -0.1053 H   0  0  0  0  0  0  0  0  0  0  0  0
   -6.9345    1.7366   -0.3108 C   0  0  0  0  0  0  0  0  0  0  0  0
   -7.2745    2.7705   -0.4699 H   0  0  0  0  0  0  0  0  0  0  0  0
   -5.5654    1.4475   -0.3147 C   0  0  0  0  0  0  0  0  0  0  0  0
   -4.8455    2.2588   -0.4984 H   0  0  0  0  0  0  0  0  0  0  0  0
   -0.2713    1.3743    0.5654 C   0  0  1  0  0  3  0  0  0  0  0  0
    0.9792    1.0070    0.5025 N   0  0  0  0  0  2  0  0  0  0  0  0
   -0.5303    2.6254    0.9358 O   0  0  0  0  0  0  0  0  0  0  0  0
    0.7647    3.1962    1.3306 C   0  0  0  0  0  0  0  0  0  0  0  0
    0.7714    3.2513    2.4377 H   0  0  0  0  0  0  0  0  0  0  0  0
    0.8238    4.2158    0.9071 H   0  0  0  0  0  0  0  0  0  0  0  0
    1.8069    2.2101    0.7455 C   0  0  2  0  0  0  0  0  0  0  0  0
    2.5909    1.9674    1.4902 H   0  0  0  0  0  0  0  0  0  0  0  0
    2.4487    2.6968   -0.5626 C   0  0  0  0  0  0  0  0  0  0  0  0
    1.6388    3.0779   -1.2227 H   0  0  0  0  0  0  0  0  0  0  0  0
    2.8826    1.8215   -1.0908 H   0  0  0  0  0  0  0  0  0  0  0  0
    3.5353    3.7735   -0.3816 C   0  0  0  0  0  0  0  0  0  0  0  0
    3.1087    4.5948    0.2411 H   0  0  0  0  0  0  0  0  0  0  0  0
    3.9111    4.3711   -1.7432 C   0  0  0  0  0  0  0  0  0  0  0  0
    3.0321    4.8143   -2.2534 H   0  0  0  0  0  0  0  0  0  0  0  0
    4.3318    3.5915   -2.4128 H   0  0  0  0  0  0  0  0  0  0  0  0
    4.6760    5.1651   -1.6341 H   0  0  0  0  0  0  0  0  0  0  0  0
    4.7741    3.2252    0.3392 C   0  0  0  0  0  0  0  0  0  0  0  0
    4.5484    2.8322    1.3519 H   0  0  0  0  0  0  0  0  0  0  0  0
    5.5407    4.0151    0.4644 H   0  0  0  0  0  0  0  0  0  0  0  0
    5.2377    2.4025   -0.2460 H   0  0  0  0  0  0  0  0  0  0  0  0
  1  9  1  0  0  0  0
  2  1  1  0  0  0  0
  3  2  1  0  0  0  0
  4  2  1  0  0  0  0
  4  6  2  0  0  0  0
  5  4  1  0  0  0  0
  6 10  1  0  0  0  0
  6  7  1  0  0  0  0
  7  8  1  0  0  0  0
  9  7  2  0  0  0  0
 10 11  1  0  0  0  0
 11 13  2  0  0  0  0
 11 12  1  0  0  0  0
 13 14  1  0  0  0  0
 15 16  1  0  0  0  0
 15 13  1  0  0  0  0
 17 15  2  0  0  0  0
 18 17  1  0  0  0  0
 19 17  1  0  0  0  0
 19 10  2  0  0  0  0
 20 19  1  0  0  0  0
 21  9  1  6  0  0  0
 21 23  1  0  0  0  0
 22 21  1  0  0  0  0
 22 27  1  0  0  0  0
 23 24  1  0  0  0  0
 24 25  1  0  0  0  0
 26 24  1  0  0  0  0
 27 24  1  0  0  0  0
 27 28  1  1  0  0  0
 29 32  1  0  0  0  0
 29 27  1  0  0  0  0
 30 29  1  0  0  0  0
 31 29  1  0  0  0  0
 32 33  1  0  0  0  0
 32 38  1  0  0  0  0
 34 37  1  0  0  0  0
 34 32  1  0  0  0  0
 35 34  1  0  0  0  0
 36 34  1  0  0  0  0
 38 40  1  0  0  0  0
 38 39  1  0  0  0  0
 41 38  1  0  0  0  0
M  END
