2,3
q = -1.0, confidence = 0.0

 28 30  0  0  0  0  0  0  0  0999 V2000
   -7.6345    1.2979   -0.0279 F   0  0  0  0  0  0  0  0  0  0  0  0
   -0.5599   -1.6629    1.3790 N   0  0  0  0  0  0  0  0  0  0  0  0
   -0.4326   -1.2804   -1.5287 N   0  0  0  0  0  0  0  0  0  0  0  0
   -0.4591   -2.0024    2.6828 C   0  0  0  0  0  3  0  0  0  0  0  0
    0.4896   -2.3686    3.0947 H   0  0  0  0  0  0  0  0  0  0  0  0
   -1.6875   -1.7932    3.3707 C   0  0  0  0  0  0  0  0  0  0  0  0
   -1.8744   -1.9947    4.4317 H   0  0  0  0  0  0  0  0  0  0  0  0
   -2.5801   -1.2894    2.4278 C   0  0  0  0  0  0  0  0  0  0  0  0
   -3.6241   -0.9974    2.5801 H   0  0  0  0  0  0  0  0  0  0  0  0
   -1.8750   -1.2277    1.1764 C   0  0  0  0  0  0  0  0  0  0  0  0
   -2.4086   -0.8214   -0.0659 C   0  0  0  0  0  3  0  0  0  0  0  0
   -1.7612   -0.8873   -1.3196 C   0  0  0  0  0  3  0  0  0  0  0  0
   -2.3892   -0.6927   -2.6008 C   0  0  0  0  0  0  0  0  0  0  0  0
   -3.4360   -0.4074   -2.7505 H   0  0  0  0  0  0  0  0  0  0  0  0
   -1.4352   -0.9922   -3.5691 C   0  0  0  0  0  0  0  0  0  0  0  0
   -1.5550   -0.9761   -4.6584 H   0  0  0  0  0  0  0  0  0  0  0  0
   -0.2476   -1.3379   -2.8638 C   0  0  0  0  0  0  0  0  0  0  0  0
    0.7305   -1.6073   -3.2815 H   0  0  0  0  0  0  0  0  0  0  0  0
   -3.8016   -0.2826   -0.0622 C   0  0  0  0  0  0  0  0  0  0  0  0
   -4.0110    1.0926   -0.2977 C   0  0  0  0  0  0  0  0  0  0  0  0
   -3.1440    1.7470   -0.4705 H   0  0  0  0  0  0  0  0  0  0  0  0
   -5.3031    1.6337   -0.2822 C   0  0  0  0  0  0  0  0  0  0  0  0
   -5.4806    2.7054   -0.4511 H   0  0  0  0  0  0  0  0  0  0  0  0
   -6.3903    0.7851   -0.0398 C   0  0  0  0  0  0  0  0  0  0  0  0
   -6.2136   -0.5849    0.1905 C   0  0  0  0  0  0  0  0  0  0  0  0
   -7.0929   -1.2199    0.3695 H   0  0  0  0  0  0  0  0  0  0  0  0
   -4.9147   -1.1124    0.1827 C   0  0  0  0  0  0  0  0  0  0  0  0
   -4.7584   -2.1867    0.3590 H   0  0  0  0  0  0  0  0  0  0  0  0
  2  4  1  0  0  0  0
  3 12  1  0  0  0  0
  4  5  1  0  0  0  0
  4  6  1  0  0  0  0
  6  7  1  0  0  0  0
  8  9  1  0  0  0  0
  8  6  2  0  0  0  0
 10  2  2  0  0  0  0
 10  8  1  0  0  0  0
 11 19  1  0  0  0  0
 11 10  1  0  0  0  0
 12 11  1  0  0  0  0
 13 12  1  0  0  0  0
 14 13  1  0  0  0  0
 15 17  1  0  0  0  0
 15 13  2  0  0  0  0
 16 15  1  0  0  0  0
 17  3  2  0  0  0  0
 18 17  1  0  0  0  0
 19 27  1  0  0  0  0
 20 22  1  0  0  0  0
 20 19  2  0  0  0  0
 21 20  1  0  0  0  0
 22 24  2  0  0  0  0
 23 22  1  0  0  0  0
 24  1  1  0  0  0  0
 24 25  1  0  0  0  0
 25 26  1  0  0  0  0
 27 25  2  0  0  0  0
 27 28  1  0  0  0  0
M  END
