1,5
q = 0.0, confidence = 0.99

 45 47  0  0  0  0  0  0  0  0999 V2000
    1.8458    1.7415   -0.7103 N   0  0  0  0  0  2  0  0  0  0  0  0
   -2.3537    0.5888   -0.1139 N   0  0  0  0  0  0  0  0  0  0  0  0
   -3.0777   -1.2414   -2.2076 C   0  0  0  0  0  0  0  0  0  0  0  0
   -2.2490   -0.5032   -2.2498 H   0  0  0  0  0  0  0  0  0  0  0  0
   -0.2526    0.4495    0.0589 N   0  0  0  0  0  2  0  0  0  0  0  0
   -4.0771   -0.7811   -1.1527 C   0  0  0  0  0  0  0  0  0  0  0  0
   -5.8959    0.0217    0.8803 C   0  0  0  0  0  0  0  0  0  0  0  0
   -6.6150    0.3190    1.6561 H   0  0  0  0  0  0  0  0  0  0  0  0
   -1.3555   -0.1919    0.3394 N   0  0  0  0  0  2  0  0  0  0  0  0
    3.0673    3.5711   -1.6857 C   0  0  0  0  0  0  0  0  0  0  0  0
    4.0430    3.9970   -1.9577 H   0  0  0  0  0  0  0  0  0  0  0  0
   -3.7126    0.1026   -0.1088 C   0  0  0  0  0  0  0  0  0  0  0  0
   -5.4033   -1.2527   -1.1372 C   0  0  0  0  0  0  0  0  0  0  0  0
   -5.7394   -1.9408   -1.9259 H   0  0  0  0  0  0  0  0  0  0  0  0
   -4.0943    1.4125    2.0611 C   0  0  0  0  0  0  0  0  0  0  0  0
   -3.2982    2.0730    1.6535 H   0  0  0  0  0  0  0  0  0  0  0  0
   -4.5828    0.5241    0.9231 C   0  0  0  0  0  0  0  0  0  0  0  0
   -0.5004    1.6461   -0.5700 C   0  0  0  0  0  0  0  0  0  0  0  0
   -1.8840    1.7374   -0.6828 C   0  0  0  0  0  3  0  0  0  0  0  0
   -2.5541    2.4762   -1.1312 H   0  0  0  0  0  0  0  0  0  0  0  0
    0.6726    2.3977   -0.9770 C   0  0  0  0  0  0  0  0  0  0  0  0
   -6.2987   -0.8552   -0.1365 C   0  0  0  0  0  0  0  0  0  0  0  0
   -7.3313   -1.2351   -0.1481 H   0  0  0  0  0  0  0  0  0  0  0  0
    0.6576    3.6586   -1.5943 C   0  0  0  0  0  0  0  0  0  0  0  0
   -0.3021    4.1559   -1.7924 H   0  0  0  0  0  0  0  0  0  0  0  0
   -3.6848   -1.3152   -3.6159 C   0  0  0  0  0  0  0  0  0  0  0  0
   -2.8928   -1.5438   -4.3561 H   0  0  0  0  0  0  0  0  0  0  0  0
   -4.1645   -0.3600   -3.9086 H   0  0  0  0  0  0  0  0  0  0  0  0
   -4.4457   -2.1176   -3.6982 H   0  0  0  0  0  0  0  0  0  0  0  0
    1.8704    4.2556   -1.9514 C   0  0  0  0  0  0  0  0  0  0  0  0
    1.8835    5.2416   -2.4378 H   0  0  0  0  0  0  0  0  0  0  0  0
    3.0117    2.3173   -1.0710 C   0  0  0  0  0  0  0  0  0  0  0  0
    3.9212    1.7373   -0.8650 H   0  0  0  0  0  0  0  0  0  0  0  0
   -3.4509    0.5452    3.1627 C   0  0  0  0  0  0  0  0  0  0  0  0
   -3.0495    1.1817    3.9773 H   0  0  0  0  0  0  0  0  0  0  0  0
   -2.6235   -0.0741    2.7629 H   0  0  0  0  0  0  0  0  0  0  0  0
   -4.2020   -0.1414    3.6035 H   0  0  0  0  0  0  0  0  0  0  0  0
   -5.1852    2.3228    2.6391 C   0  0  0  0  0  0  0  0  0  0  0  0
   -4.7447    3.0270    3.3722 H   0  0  0  0  0  0  0  0  0  0  0  0
   -5.9623    1.7434    3.1775 H   0  0  0  0  0  0  0  0  0  0  0  0
   -5.6877    2.9169    1.8502 H   0  0  0  0  0  0  0  0  0  0  0  0
   -2.4464   -2.5869   -1.7973 C   0  0  0  0  0  0  0  0  0  0  0  0
   -1.6545   -2.8708   -2.5186 H   0  0  0  0  0  0  0  0  0  0  0  0
   -3.2105   -3.3908   -1.7752 H   0  0  0  0  0  0  0  0  0  0  0  0
   -1.9823   -2.5216   -0.7943 H   0  0  0  0  0  0  0  0  0  0  0  0
  2 12  1  0  0  0  0
  2  9  1  0  0  0  0
  3 42  1  0  0  0  0
  3  6  1  0  0  0  0
  4  3  1  0  0  0  0
  5  9  1  0  0  0  0
  6 13  2  0  0  0  0
  6 12  1  0  0  0  0
  7 17  1  0  0  0  0
  7  8  1  0  0  0  0
 10 32  2  0  0  0  0
 11 10  1  0  0  0  0
 12 17  2  0  0  0  0
 13 22  1  0  0  0  0
 14 13  1  0  0  0  0
 15 38  1  0  0  0  0
 15 34  1  0  0  0  0
 16 15  1  0  0  0  0
 17 15  1  0  0  0  0
 18  5  1  0  0  0  0
 19 18  1  0  0  0  0
 19  2  1  0  0  0  0
 20 19  1  0  0  0  0
 21  1  1  0  0  0  0
 21 18  2  0  0  0  0
 22  7  2  0  0  0  0
 23 22  1  0  0  0  0
 24 21  1  0  0  0  0
 25 24  1  0  0  0  0
 26  3  1  0  0  0  0
 27 26  1  0  0  0  0
 28 26  1  0  0  0  0
 29 26  1  0  0  0  0
 30 10  1  0  0  0  0
 30 24  2  0  0  0  0
 31 30  1  0  0  0  0
 32 33  1  0  0  0  0
 32  1  1  0  0  0  0
 34 37  1  0  0  0  0
 34 35  1  0  0  0  0
 36 34  1  0  0  0  0
 38 40  1  0  0  0  0
 38 39  1  0  0  0  0
 41 38  1  0  0  0  0
 42 44  1  0  0  0  0
 42 45  1  0  0  0  0
 43 42  1  0  0  0  0
M  END
