2,3
q = -1.0, confidence = 0.002

 23 24  0  0  1  0  0  0  0  0999 V2000
    3.5988    0.9369   -0.1036 O   0  0  0  0  0  0  0  0  0  0  0  0
    0.1262    1.9534    0.1768 N   0  0  0  0  0  0  0  0  0  0  0  0
    1.6685   -0.2613   -0.0852 N   0  0  0  0  0  2  0  0  0  0  0  0
   -0.4067    3.1982    0.2439 C   0  0  0  0  0  3  0  0  0  0  0  0
   -1.4855    3.3459    0.3735 H   0  0  0  0  0  0  0  0  0  0  0  0
    0.6023    4.1870    0.1287 C   0  0  0  0  0  0  0  0  0  0  0  0
    0.4508    5.2727    0.1602 H   0  0  0  0  0  0  0  0  0  0  0  0
    1.8238    3.5034   -0.0219 C   0  0  0  0  0  0  0  0  0  0  0  0
    2.8274    3.9277   -0.1385 H   0  0  0  0  0  0  0  0  0  0  0  0
    1.4937    2.1285    0.0065 C   0  0  0  0  0  0  0  0  0  0  0  0
    2.2484    0.9283   -0.0803 C   0  0  1  0  0  3  0  0  0  0  0  0
    4.0001   -0.4342   -0.3080 C   0  0  0  0  0  0  0  0  0  0  0  0
    4.8769   -0.6413    0.3353 H   0  0  0  0  0  0  0  0  0  0  0  0
    4.2900   -0.5573   -1.3747 H   0  0  0  0  0  0  0  0  0  0  0  0
    2.7452   -1.2788    0.0513 C   0  0  0  0  0  0  0  0  0  0  0  0
    2.5756   -2.4556   -0.9112 C   0  0  0  0  0  0  0  0  0  0  0  0
    1.6132   -2.9670   -0.7293 H   0  0  0  0  0  0  0  0  0  0  0  0
    3.3951   -3.1893   -0.7714 H   0  0  0  0  0  0  0  0  0  0  0  0
    2.5922   -2.1146   -1.9641 H   0  0  0  0  0  0  0  0  0  0  0  0
    2.8040   -1.7668    1.5096 C   0  0  0  0  0  0  0  0  0  0  0  0
    1.8386   -2.2203    1.8026 H   0  0  0  0  0  0  0  0  0  0  0  0
    3.0030   -0.9212    2.1962 H   0  0  0  0  0  0  0  0  0  0  0  0
    3.6051   -2.5231    1.6386 H   0  0  0  0  0  0  0  0  0  0  0  0
  1 11  1  0  0  0  0
  2  4  1  0  0  0  0
  3 11  1  0  0  0  0
  3 15  1  0  0  0  0
  4  5  1  0  0  0  0
  6  7  1  0  0  0  0
  6  4  1  0  0  0  0
  8 10  1  0  0  0  0
  8  6  2  0  0  0  0
  9  8  1  0  0  0  0
 10  2  2  0  0  0  0
 11 10  1  1  0  0  0
 12  1  1  0  0  0  0
 12 15  1  0  0  0  0
 12 13  1  0  0  0  0
 14 12  1  0  0  0  0
 15 20  1  0  0  0  0
 16 18  1  0  0  0  0
 16 17  1  0  0  0  0
 16 15  1  0  0  0  0
 19 16  1  0  0  0  0
 20 23  1  0  0  0  0
 20 21  1  0  0  0  0
 20 22  1  0  0  0  0
M  END
