8,15
q = 0.0, confidence = 0.996

 32 34  0  0  1  0  0  0  0  0999 V2000
    0.4288   -0.6478    1.8548 C   0  0  0  0  0  0  0  0  0  0  0  0
   -0.8144   -1.2742    1.6416 C   0  0  0  0  0  0  0  0  0  0  0  0
   -0.8906   -2.6694    1.5517 C   0  0  0  0  0  0  0  0  0  0  0  0
    0.2763   -3.4362    1.6543 C   0  0  0  0  0  0  0  0  0  0  0  0
    1.5163   -2.8128    1.8629 C   0  0  0  0  0  0  0  0  0  0  0  0
    1.5926   -1.4187    1.9721 C   0  0  0  0  0  0  0  0  0  0  0  0
    0.4685    0.7433    1.9808 O   0  0  0  0  0  0  0  0  0  0  0  0
    1.4317    1.0291   -0.1336 N   0  0  0  0  0  2  0  0  0  0  0  0
    1.3037    1.4256    1.1515 C   0  0  1  0  0  3  0  0  0  0  0  0
    1.9837    2.5435    1.6626 C   0  0  0  0  0  0  0  0  0  0  0  0
    2.8496    3.2407    0.8155 C   0  0  0  0  0  0  0  0  0  0  0  0
    3.0343    2.7867   -0.5022 C   0  0  0  0  0  0  0  0  0  0  0  0
    2.3132    1.6737   -0.9378 C   0  0  0  0  0  0  0  0  0  0  0  0
   -2.0004   -0.5561    1.6132 O   0  0  0  0  0  0  0  0  0  0  0  0
   -1.4795    0.7763   -0.2704 N   0  0  0  0  0  2  0  0  0  0  0  0
   -2.2540    0.4819    0.7913 C   0  0  1  0  0  3  0  0  0  0  0  0
   -3.4113    1.2304    1.0994 C   0  0  0  0  0  0  0  0  0  0  0  0
   -3.7578    2.3046    0.2862 C   0  0  0  0  0  0  0  0  0  0  0  0
   -2.9429    2.6189   -0.8183 C   0  0  0  0  0  0  0  0  0  0  0  0
   -1.8218    1.8306   -1.0569 C   0  0  0  0  0  0  0  0  0  0  0  0
   -1.8701   -3.1246    1.3550 H   0  0  0  0  0  0  0  0  0  0  0  0
    0.2169   -4.5291    1.5522 H   0  0  0  0  0  0  0  0  0  0  0  0
    2.4350   -3.4126    1.9295 H   0  0  0  0  0  0  0  0  0  0  0  0
    2.5570   -0.9107    2.1161 H   0  0  0  0  0  0  0  0  0  0  0  0
    1.8295    2.8189    2.7145 H   0  0  0  0  0  0  0  0  0  0  0  0
    3.3976    4.1183    1.1894 H   0  0  0  0  0  0  0  0  0  0  0  0
    3.7302    3.2858   -1.1902 H   0  0  0  0  0  0  0  0  0  0  0  0
    2.4213    1.2402   -1.9436 H   0  0  0  0  0  0  0  0  0  0  0  0
   -4.0002    0.9346    1.9778 H   0  0  0  0  0  0  0  0  0  0  0  0
   -4.6571    2.8977    0.5092 H   0  0  0  0  0  0  0  0  0  0  0  0
   -3.1750    3.4562   -1.4900 H   0  0  0  0  0  0  0  0  0  0  0  0
   -1.1558    2.0151   -1.9120 H   0  0  0  0  0  0  0  0  0  0  0  0
  1  6  1  0  0  0  0
  1  7  1  0  0  0  0
  2  1  2  0  0  0  0
  3  2  1  0  0  0  0
  3  4  2  0  0  0  0
  4  5  1  0  0  0  0
  5 23  1  0  0  0  0
  5  6  2  0  0  0  0
  6 24  1  0  0  0  0
  8  9  1  0  0  0  0
  9 10  1  0  0  0  0
  9  7  1  6  0  0  0
 10 25  1  0  0  0  0
 11 26  1  0  0  0  0
 11 10  2  0  0  0  0
 12 11  1  0  0  0  0
 13 12  2  0  0  0  0
 13  8  1  0  0  0  0
 14  2  1  0  0  0  0
 15 16  1  0  0  0  0
 16 17  1  0  0  0  0
 16 14  1  6  0  0  0
 17 29  1  0  0  0  0
 18 30  1  0  0  0  0
 18 17  2  0  0  0  0
 19 18  1  0  0  0  0
 20 19  2  0  0  0  0
 20 15  1  0  0  0  0
 21  3  1  0  0  0  0
 22  4  1  0  0  0  0
 27 12  1  0  0  0  0
 28 13  1  0  0  0  0
 31 19  1  0  0  0  0
 32 20  1  0  0  0  0
M  END
