1,2
q = 0.0, confidence = 1.0

 27 28  0  0  0  0  0  0  0  0999 V2000
   -0.9715   -1.1517    0.0408 N   0  0  0  0  0  2  0  0  0  0  0  0
   -0.3408    1.5797   -0.0217 N   0  0  0  0  0  2  0  0  0  0  0  0
   -1.4200   -2.4216    0.1512 C   0  0  0  0  0  0  0  0  0  0  0  0
   -2.7921   -2.7311    0.1379 C   0  0  0  0  0  0  0  0  0  0  0  0
   -3.7629   -1.7192    0.0185 C   0  0  0  0  0  0  0  0  0  0  0  0
   -3.3013   -0.3980   -0.0675 C   0  0  0  0  0  0  0  0  0  0  0  0
   -1.9170   -0.1888   -0.0475 C   0  0  0  0  0  0  0  0  0  0  0  0
   -1.5794    1.2291   -0.0962 C   0  0  0  0  0  0  0  0  0  0  0  0
   -2.8849    2.0083   -0.2058 C   0  0  0  0  0  0  0  0  0  0  0  0
   -4.0163    0.9324   -0.1679 C   0  0  0  0  0  0  0  0  0  0  0  0
    0.0595    2.9848   -0.0515 C   0  0  0  0  0  0  0  0  0  0  0  0
    0.9773    3.2138   -1.2606 C   0  0  0  0  0  0  0  0  0  0  0  0
    0.7579    3.3283    1.2714 C   0  0  0  0  0  0  0  0  0  0  0  0
   -0.6411   -3.1894    0.2769 H   0  0  0  0  0  0  0  0  0  0  0  0
   -3.0926   -3.7854    0.2251 H   0  0  0  0  0  0  0  0  0  0  0  0
   -4.8358   -1.9638    0.0056 H   0  0  0  0  0  0  0  0  0  0  0  0
   -2.9070    2.5993   -1.1445 H   0  0  0  0  0  0  0  0  0  0  0  0
   -2.9777    2.7397    0.6226 H   0  0  0  0  0  0  0  0  0  0  0  0
   -4.6957    1.0814    0.6971 H   0  0  0  0  0  0  0  0  0  0  0  0
   -4.6568    0.9726   -1.0732 H   0  0  0  0  0  0  0  0  0  0  0  0
   -0.8446    3.6303   -0.1603 H   0  0  0  0  0  0  0  0  0  0  0  0
    0.4630    2.9504   -2.2066 H   0  0  0  0  0  0  0  0  0  0  0  0
    1.8865    2.5878   -1.1605 H   0  0  0  0  0  0  0  0  0  0  0  0
    1.2738    4.2808   -1.3096 H   0  0  0  0  0  0  0  0  0  0  0  0
    1.6592    2.6942    1.3901 H   0  0  0  0  0  0  0  0  0  0  0  0
    0.0836    3.1568    2.1343 H   0  0  0  0  0  0  0  0  0  0  0  0
    1.0606    4.3946    1.2711 H   0  0  0  0  0  0  0  0  0  0  0  0
  1  3  1  0  0  0  0
  3 14  1  0  0  0  0
  4  3  2  0  0  0  0
  4 15  1  0  0  0  0
  5  4  1  0  0  0  0
  6  7  1  0  0  0  0
  6  5  2  0  0  0  0
  7  1  1  0  0  0  0
  8  7  2  0  0  0  0
  8  2  1  0  0  0  0
  9 10  1  0  0  0  0
  9  8  1  0  0  0  0
  9 18  1  0  0  0  0
 10  6  1  0  0  0  0
 10 19  1  0  0  0  0
 11  2  1  0  0  0  0
 11 13  1  0  0  0  0
 12 23  1  0  0  0  0
 12 11  1  0  0  0  0
 13 25  1  0  0  0  0
 13 26  1  0  0  0  0
 16  5  1  0  0  0  0
 17  9  1  0  0  0  0
 20 10  1  0  0  0  0
 21 11  1  0  0  0  0
 22 12  1  0  0  0  0
 24 12  1  0  0  0  0
 27 13  1  0  0  0  0
M  END
