1,3
q = -1.0, confidence = 0.0

 17 17  0  0  0  0  0  0  0  0999 V2000
   -0.3245   -0.3463    1.7856 N   0  0  0  0  0  2  0  0  0  0  0  0
   -2.4376   -0.1398    2.7704 O   0  0  0  0  0  0  0  0  0  0  0  0
   -1.4078   -0.4733   -0.6452 N   0  0  0  0  0  2  0  0  0  0  0  0
   -1.9047   -0.5625   -1.8995 C   0  0  0  0  0  3  0  0  0  0  0  0
   -1.1654   -0.6640   -2.7081 H   0  0  0  0  0  0  0  0  0  0  0  0
   -3.2785   -0.5321   -2.1585 C   0  0  0  0  0  0  0  0  0  0  0  0
   -3.6358   -0.6141   -3.1947 H   0  0  0  0  0  0  0  0  0  0  0  0
    0.3373   -0.3477    3.0794 C   0  0  0  0  0  0  0  0  0  0  0  0
    1.0047    0.5366    3.1898 H   0  0  0  0  0  0  0  0  0  0  0  0
    0.9782   -1.2486    3.1882 H   0  0  0  0  0  0  0  0  0  0  0  0
   -0.4163   -0.3313    3.8928 H   0  0  0  0  0  0  0  0  0  0  0  0
   -2.2653   -0.3492    0.4008 C   0  0  0  0  0  0  0  0  0  0  0  0
   -1.6800   -0.2690    1.7918 C   0  0  0  0  0  0  0  0  0  0  0  0
   -3.6539   -0.3062    0.2141 C   0  0  0  0  0  0  0  0  0  0  0  0
   -4.2716   -0.2027    1.1179 H   0  0  0  0  0  0  0  0  0  0  0  0
   -4.1717   -0.3998   -1.0816 C   0  0  0  0  0  0  0  0  0  0  0  0
   -5.2580   -0.3730   -1.2566 H   0  0  0  0  0  0  0  0  0  0  0  0
  1 13  1  0  0  0  0
  1  8  1  0  0  0  0
  3 12  1  0  0  0  0
  4  3  1  0  0  0  0
  5  4  1  0  0  0  0
  6  4  1  0  0  0  0
  6 16  2  0  0  0  0
  7  6  1  0  0  0  0
  8 10  1  0  0  0  0
  8  9  1  0  0  0  0
  8 11  1  0  0  0  0
 12 13  1  0  0  0  0
 13  2  2  0  0  0  0
 14 12  2  0  0  0  0
 14 15  1  0  0  0  0
 16 14  1  0  0  0  0
 17 16  1  0  0  0  0
M  END
