1,2
q = 0.0, confidence = 1.0

 30 31  0  0  1  0  0  0  0  0999 V2000
    1.7708    1.3408    0.3236 N   0  0  0  0  0  2  0  0  0  0  0  0
   -0.6107    1.0894   -0.7479 N   0  0  0  0  0  2  0  0  0  0  0  0
    3.0204    1.4048    0.8191 C   0  0  0  0  0  0  0  0  0  0  0  0
    3.5065    0.4479    1.0518 H   0  0  0  0  0  0  0  0  0  0  0  0
    3.6846    2.6226    1.0117 C   0  0  0  0  0  0  0  0  0  0  0  0
    4.7018    2.6214    1.4279 H   0  0  0  0  0  0  0  0  0  0  0  0
    3.0415    3.8195    0.6591 C   0  0  0  0  0  0  0  0  0  0  0  0
    3.5429    4.7884    0.7967 H   0  0  0  0  0  0  0  0  0  0  0  0
    1.7561    3.7537    0.1113 C   0  0  0  0  0  0  0  0  0  0  0  0
    1.2211    4.6601   -0.2066 H   0  0  0  0  0  0  0  0  0  0  0  0
    1.1450    2.4977   -0.0479 C   0  0  0  0  0  0  0  0  0  0  0  0
   -0.1574    2.3032   -0.6541 C   0  0  0  0  0  0  0  0  0  0  0  0
   -0.7102    3.1699   -1.0529 H   0  0  0  0  0  0  0  0  0  0  0  0
   -1.8979    0.8159   -1.4079 C   0  0  2  0  0  0  0  0  0  0  0  0
   -1.7612   -0.1771   -1.8805 H   0  0  0  0  0  0  0  0  0  0  0  0
   -2.2589    1.8167   -2.5143 C   0  0  0  0  0  0  0  0  0  0  0  0
   -2.5211    2.8144   -2.1101 H   0  0  0  0  0  0  0  0  0  0  0  0
   -3.1539    1.4465   -3.0493 H   0  0  0  0  0  0  0  0  0  0  0  0
   -1.4299    1.9118   -3.2433 H   0  0  0  0  0  0  0  0  0  0  0  0
   -3.0170    0.6964   -0.3748 C   0  0  0  0  0  0  0  0  0  0  0  0
   -3.0352    1.4649    0.8036 C   0  0  0  0  0  0  0  0  0  0  0  0
   -2.1995    2.1404    1.0395 H   0  0  0  0  0  0  0  0  0  0  0  0
   -4.1093    1.3665    1.7026 C   0  0  0  0  0  0  0  0  0  0  0  0
   -4.1084    1.9719    2.6214 H   0  0  0  0  0  0  0  0  0  0  0  0
   -5.1782    0.4982    1.4346 C   0  0  0  0  0  0  0  0  0  0  0  0
   -6.0175    0.4186    2.1412 H   0  0  0  0  0  0  0  0  0  0  0  0
   -5.1746   -0.2631    0.2544 C   0  0  0  0  0  0  0  0  0  0  0  0
   -6.0138   -0.9382    0.0295 H   0  0  0  0  0  0  0  0  0  0  0  0
   -4.1019   -0.1630   -0.6436 C   0  0  0  0  0  0  0  0  0  0  0  0
   -4.1125   -0.7536   -1.5736 H   0  0  0  0  0  0  0  0  0  0  0  0
  1  3  1  0  0  0  0
  2 12  1  0  0  0  0
  3  5  2  0  0  0  0
  3  4  1  0  0  0  0
  5  6  1  0  0  0  0
  7  8  1  0  0  0  0
  7  5  1  0  0  0  0
  9  7  2  0  0  0  0
 10  9  1  0  0  0  0
 11  9  1  0  0  0  0
 11  1  1  0  0  0  0
 12 11  2  0  0  0  0
 13 12  1  0  0  0  0
 14 15  1  6  0  0  0
 14  2  1  0  0  0  0
 14 20  1  0  0  0  0
 16 17  1  0  0  0  0
 16 14  1  0  0  0  0
 18 16  1  0  0  0  0
 19 16  1  0  0  0  0
 20 21  1  0  0  0  0
 21 22  1  0  0  0  0
 21 23  2  0  0  0  0
 23 24  1  0  0  0  0
 25 23  1  0  0  0  0
 25 26  1  0  0  0  0
 27 25  2  0  0  0  0
 28 27  1  0  0  0  0
 29 20  2  0  0  0  0
 29 27  1  0  0  0  0
 30 29  1  0  0  0  0
M  END
