1,16
q = 0.0, confidence = 0.998

 30 31  0  0  1  0  0  0  0  0999 V2000
   -2.0121   -2.1777   -0.5333 N   0  0  0  0  0  2  0  0  0  0  0  0
   -3.3505   -2.1217   -0.7230 C   0  0  1  0  0  3  0  0  0  0  0  0
   -4.1724   -3.2022   -0.3520 C   0  0  0  0  0  0  0  0  0  0  0  0
   -5.2578   -3.1396   -0.5165 H   0  0  0  0  0  0  0  0  0  0  0  0
   -3.5968   -4.3480    0.2263 C   0  0  0  0  0  0  0  0  0  0  0  0
   -4.2301   -5.1976    0.5221 H   0  0  0  0  0  0  0  0  0  0  0  0
   -2.2122   -4.3977    0.4135 C   0  0  0  0  0  0  0  0  0  0  0  0
   -1.7220   -5.2787    0.8538 H   0  0  0  0  0  0  0  0  0  0  0  0
   -1.4377   -3.2903    0.0121 C   0  0  0  0  0  0  0  0  0  0  0  0
   -3.8672   -0.8536   -1.3340 C   0  0  0  0  0  0  0  0  0  0  0  0
   -3.2854   -0.6207   -2.2517 H   0  0  0  0  0  0  0  0  0  0  0  0
   -3.6901   -0.0017   -0.6428 H   0  0  0  0  0  0  0  0  0  0  0  0
   -4.9465   -0.9084   -1.5679 H   0  0  0  0  0  0  0  0  0  0  0  0
    0.0136   -3.2350    0.1394 C   0  0  0  0  0  3  0  0  0  0  0  0
    0.5508   -4.0821    0.6118 H   0  0  0  0  0  0  0  0  0  0  0  0
    0.6214   -2.1875   -0.3461 N   0  0  0  0  0  2  0  0  0  0  0  0
    2.0023   -1.9654   -0.2618 C   0  0  0  0  0  0  0  0  0  0  0  0
    2.8046   -2.4047    0.8139 C   0  0  0  0  0  0  0  0  0  0  0  0
    2.3468   -2.9465    1.6554 H   0  0  0  0  0  0  0  0  0  0  0  0
    4.1718   -2.1007    0.8343 C   0  0  0  0  0  0  0  0  0  0  0  0
    4.7854   -2.4270    1.6892 H   0  0  0  0  0  0  0  0  0  0  0  0
    4.7770   -1.3713   -0.2097 C   0  0  0  0  0  0  0  0  0  0  0  0
    3.9597   -0.9369   -1.2770 C   0  0  0  0  0  0  0  0  0  0  0  0
    4.4036   -0.3451   -2.0923 H   0  0  0  0  0  0  0  0  0  0  0  0
    2.5921   -1.2068   -1.3016 C   0  0  0  0  0  0  0  0  0  0  0  0
    1.9419   -0.8362   -2.1115 H   0  0  0  0  0  0  0  0  0  0  0  0
    6.2415   -1.0207   -0.1790 C   0  0  0  0  0  0  0  0  0  0  0  0
    6.3834    0.0806   -0.1411 H   0  0  0  0  0  0  0  0  0  0  0  0
    6.7615   -1.3759   -1.0929 H   0  0  0  0  0  0  0  0  0  0  0  0
    6.7539   -1.4602    0.6986 H   0  0  0  0  0  0  0  0  0  0  0  0
  1  9  1  0  0  0  0
  2 10  1  1  0  0  0
  2  1  1  0  0  0  0
  2  3  1  0  0  0  0
  3  5  2  0  0  0  0
  4  3  1  0  0  0  0
  5  7  1  0  0  0  0
  5  6  1  0  0  0  0
  7  8  1  0  0  0  0
  9 14  1  0  0  0  0
  9  7  2  0  0  0  0
 10 12  1  0  0  0  0
 11 10  1  0  0  0  0
 13 10  1  0  0  0  0
 14 15  1  0  0  0  0
 16 17  1  0  0  0  0
 16 14  1  0  0  0  0
 17 18  1  0  0  0  0
 18 20  2  0  0  0  0
 18 19  1  0  0  0  0
 20 21  1  0  0  0  0
 22 27  1  0  0  0  0
 22 20  1  0  0  0  0
 23 22  2  0  0  0  0
 24 23  1  0  0  0  0
 25 23  1  0  0  0  0
 25 17  2  0  0  0  0
 26 25  1  0  0  0  0
 27 28  1  0  0  0  0
 27 30  1  0  0  0  0
 29 27  1  0  0  0  0
M  END
