1,2
q = -1.0, confidence = 0.01

 40 40  0  0  0  0  0  0  0  0999 V2000
   -1.0058    1.1471    0.0678 N   0  0  0  0  0  2  0  0  0  0  0  0
   -1.0059   -1.1471    0.0674 N   0  0  0  0  0  2  0  0  0  0  0  0
   -1.4379    2.7799   -0.5025 Si  0  0  0  0  0  0  0  0  0  0  0  0
   -1.4384   -2.7798   -0.5028 Si  0  0  0  0  0  0  0  0  0  0  0  0
   -1.6582    0.0001   -0.1788 C   0  0  0  0  0  3  0  0  0  0  0  0
   -3.0755    0.0003   -0.6773 C   0  0  0  0  0  0  0  0  0  0  0  0
   -3.3668    0.0006   -2.0545 C   0  0  0  0  0  0  0  0  0  0  0  0
   -4.7004    0.0008   -2.4927 C   0  0  0  0  0  0  0  0  0  0  0  0
   -5.7495    0.0007   -1.5598 C   0  0  0  0  0  0  0  0  0  0  0  0
   -5.4624    0.0003   -0.1845 C   0  0  0  0  0  0  0  0  0  0  0  0
   -4.1317    0.0001    0.2551 C   0  0  0  0  0  0  0  0  0  0  0  0
   -0.2702    4.0115    0.3144 C   0  0  0  0  0  0  0  0  0  0  0  0
   -1.1895    2.8564   -2.3764 C   0  0  0  0  0  0  0  0  0  0  0  0
   -3.2109    3.2699   -0.0598 C   0  0  0  0  0  0  0  0  0  0  0  0
   -0.2704   -4.0115    0.3135 C   0  0  0  0  0  0  0  0  0  0  0  0
   -1.1909   -2.8567   -2.3767 C   0  0  0  0  0  0  0  0  0  0  0  0
   -3.2113   -3.2695   -0.0596 C   0  0  0  0  0  0  0  0  0  0  0  0
   -2.5430    0.0008   -2.7830 H   0  0  0  0  0  0  0  0  0  0  0  0
   -4.9207    0.0011   -3.5710 H   0  0  0  0  0  0  0  0  0  0  0  0
   -6.7944    0.0008   -1.9051 H   0  0  0  0  0  0  0  0  0  0  0  0
   -6.2817    0.0002    0.5502 H   0  0  0  0  0  0  0  0  0  0  0  0
   -3.9008   -0.0001    1.3312 H   0  0  0  0  0  0  0  0  0  0  0  0
   -0.4200    5.0118   -0.1419 H   0  0  0  0  0  0  0  0  0  0  0  0
   -0.4685    4.1057    1.4001 H   0  0  0  0  0  0  0  0  0  0  0  0
    0.7907    3.7298    0.1756 H   0  0  0  0  0  0  0  0  0  0  0  0
   -1.1937    3.9083   -2.7299 H   0  0  0  0  0  0  0  0  0  0  0  0
   -0.2185    2.4007   -2.6587 H   0  0  0  0  0  0  0  0  0  0  0  0
   -1.9927    2.3150   -2.9138 H   0  0  0  0  0  0  0  0  0  0  0  0
   -3.3500    4.3517   -0.2684 H   0  0  0  0  0  0  0  0  0  0  0  0
   -3.4138    3.1039    1.0179 H   0  0  0  0  0  0  0  0  0  0  0  0
   -3.9668    2.7080   -0.6417 H   0  0  0  0  0  0  0  0  0  0  0  0
   -0.4204   -5.0117   -0.1428 H   0  0  0  0  0  0  0  0  0  0  0  0
   -0.4683   -4.1058    1.3994 H   0  0  0  0  0  0  0  0  0  0  0  0
    0.7904   -3.7298    0.1743 H   0  0  0  0  0  0  0  0  0  0  0  0
   -1.1984   -3.9085   -2.7302 H   0  0  0  0  0  0  0  0  0  0  0  0
   -0.2186   -2.4039   -2.6595 H   0  0  0  0  0  0  0  0  0  0  0  0
   -1.9926   -2.3128   -2.9138 H   0  0  0  0  0  0  0  0  0  0  0  0
   -3.3506   -4.3513   -0.2678 H   0  0  0  0  0  0  0  0  0  0  0  0
   -3.4143   -3.1030    1.0180 H   0  0  0  0  0  0  0  0  0  0  0  0
   -3.9672   -2.7078   -0.6418 H   0  0  0  0  0  0  0  0  0  0  0  0
  3 14  1  0  0  0  0
  3  1  1  0  0  0  0
  3 12  1  0  0  0  0
  4 17  1  0  0  0  0
  4  2  1  0  0  0  0
  4 15  1  0  0  0  0
  5  2  1  0  0  0  0
  5  1  1  0  0  0  0
  6  5  1  0  0  0  0
  6 11  1  0  0  0  0
  7  6  2  0  0  0  0
  8  7  1  0  0  0  0
  8  9  2  0  0  0  0
  9 10  1  0  0  0  0
 10 11  2  0  0  0  0
 10 21  1  0  0  0  0
 11 22  1  0  0  0  0
 12 24  1  0  0  0  0
 13  3  1  0  0  0  0
 14 30  1  0  0  0  0
 15 33  1  0  0  0  0
 16  4  1  0  0  0  0
 17 39  1  0  0  0  0
 18  7  1  0  0  0  0
 19  8  1  0  0  0  0
 20  9  1  0  0  0  0
 23 12  1  0  0  0  0
 25 12  1  0  0  0  0
 26 13  1  0  0  0  0
 27 13  1  0  0  0  0
 28 13  1  0  0  0  0
 29 14  1  0  0  0  0
 31 14  1  0  0  0  0
 32 15  1  0  0  0  0
 34 15  1  0  0  0  0
 35 16  1  0  0  0  0
 36 16  1  0  0  0  0
 37 16  1  0  0  0  0
 38 17  1  0  0  0  0
 40 17  1  0  0  0  0
M  END
