1,2
q = 0.0, confidence = 0.998

 26 27  0  0  0  0  0  0  0  0999 V2000
   -1.2070    1.5809    0.3341 N   0  0  0  0  0  2  0  0  0  0  0  0
    0.7706    0.3467   -0.9984 N   0  0  0  0  0  2  0  0  0  0  0  0
    3.4978    1.1882   -0.8330 N   0  0  0  0  0  0  0  0  0  0  0  0
   -2.2301    2.1535    0.9847 C   0  0  0  0  0  3  0  0  0  0  0  0
   -2.7228    3.4211    0.6437 C   0  0  0  0  0  0  0  0  0  0  0  0
   -2.1265    4.1192   -0.4174 C   0  0  0  0  0  0  0  0  0  0  0  0
   -1.0636    3.5207   -1.1029 C   0  0  0  0  0  0  0  0  0  0  0  0
   -0.6244    2.2448   -0.7045 C   0  0  0  0  0  0  0  0  0  0  0  0
    0.4459    1.5336   -1.3981 C   0  0  0  0  0  3  0  0  0  0  0  0
    1.8336   -0.3714   -1.6751 C   0  0  0  0  0  0  0  0  0  0  0  0
    3.1689   -0.1050   -0.9900 C   0  0  0  0  0  0  0  0  0  0  0  0
    3.9999   -1.1584   -0.5682 C   0  0  0  0  0  0  0  0  0  0  0  0
    5.2231   -0.8440    0.0409 C   0  0  0  0  0  0  0  0  0  0  0  0
    5.5667    0.5040    0.2111 C   0  0  0  0  0  0  0  0  0  0  0  0
    4.6667    1.4811   -0.2460 C   0  0  0  0  0  0  0  0  0  0  0  0
   -2.6706    1.5638    1.8035 H   0  0  0  0  0  0  0  0  0  0  0  0
   -3.5661    3.8462    1.2060 H   0  0  0  0  0  0  0  0  0  0  0  0
   -2.4904    5.1151   -0.7098 H   0  0  0  0  0  0  0  0  0  0  0  0
   -0.5703    4.0238   -1.9472 H   0  0  0  0  0  0  0  0  0  0  0  0
    0.9311    2.0077   -2.2713 H   0  0  0  0  0  0  0  0  0  0  0  0
    1.9099   -0.0453   -2.7361 H   0  0  0  0  0  0  0  0  0  0  0  0
    1.5910   -1.4499   -1.6582 H   0  0  0  0  0  0  0  0  0  0  0  0
    3.6874   -2.2031   -0.7111 H   0  0  0  0  0  0  0  0  0  0  0  0
    5.8950   -1.6444    0.3862 H   0  0  0  0  0  0  0  0  0  0  0  0
    6.5119    0.7977    0.6908 H   0  0  0  0  0  0  0  0  0  0  0  0
    4.9030    2.5540   -0.1305 H   0  0  0  0  0  0  0  0  0  0  0  0
  1  4  1  0  0  0  0
  3 15  1  0  0  0  0
  4 16  1  0  0  0  0
  5  4  1  0  0  0  0
  5 17  1  0  0  0  0
  6  5  2  0  0  0  0
  7  8  2  0  0  0  0
  7  6  1  0  0  0  0
  8  1  1  0  0  0  0
  9  2  1  0  0  0  0
  9  8  1  0  0  0  0
 10 22  1  0  0  0  0
 10  2  1  0  0  0  0
 10 11  1  0  0  0  0
 11  3  2  0  0  0  0
 11 12  1  0  0  0  0
 12 13  2  0  0  0  0
 13 14  1  0  0  0  0
 13 24  1  0  0  0  0
 14 25  1  0  0  0  0
 15 26  1  0  0  0  0
 15 14  2  0  0  0  0
 18  6  1  0  0  0  0
 19  7  1  0  0  0  0
 20  9  1  0  0  0  0
 21 10  1  0  0  0  0
 23 12  1  0  0  0  0
M  END
