21,29
q = 0.0, confidence = 0.98

 44 47  0  0  0  0  0  0  0  0999 V2000
    7.2835   -1.8592    0.7232 C   0  0  0  0  0  0  0  0  0  0  0  0
    6.9656   -1.9967    1.7778 H   0  0  0  0  0  0  0  0  0  0  0  0
    8.3863   -1.8522    0.6975 H   0  0  0  0  0  0  0  0  0  0  0  0
    6.9312   -2.7302    0.1316 H   0  0  0  0  0  0  0  0  0  0  0  0
    7.7292    0.3964   -0.3172 C   0  0  0  0  0  0  0  0  0  0  0  0
    7.5855    0.5939   -1.4003 H   0  0  0  0  0  0  0  0  0  0  0  0
    8.7572    0.0243   -0.1707 H   0  0  0  0  0  0  0  0  0  0  0  0
    7.6290    1.3555    0.2328 H   0  0  0  0  0  0  0  0  0  0  0  0
    6.7823   -0.6013    0.1746 N   0  0  0  0  0  0  0  0  0  0  0  0
    5.4512   -0.3662    0.1119 C   0  0  0  0  0  0  0  0  0  0  0  0
    4.9159    0.8492   -0.4259 C   0  0  0  0  0  0  0  0  0  0  0  0
    5.5663    1.6386   -0.8188 H   0  0  0  0  0  0  0  0  0  0  0  0
    3.5503    1.0547   -0.4676 C   0  0  0  0  0  3  0  0  0  0  0  0
    3.1226    1.9762   -0.8848 H   0  0  0  0  0  0  0  0  0  0  0  0
    2.6582    0.1340   -0.0058 N   0  0  0  0  0  0  0  0  0  0  0  0
    3.1394   -1.0435    0.4945 C   0  0  0  0  0  0  0  0  0  0  0  0
    2.3834   -1.7673    0.8311 H   0  0  0  0  0  0  0  0  0  0  0  0
    4.4873   -1.3228    0.5740 C   0  0  0  0  0  0  0  0  0  0  0  0
    4.7904   -2.2901    0.9902 H   0  0  0  0  0  0  0  0  0  0  0  0
    1.0816    0.3326   -0.1286 B   0  0  1  0  0  0  0  0  0  0  0  0
   -0.6327   -1.2756   -1.1224 N   0  0  0  0  0  2  0  0  0  0  0  0
    0.6148   -0.7487   -1.1164 N   0  0  0  0  0  0  0  0  0  0  0  0
    1.3413   -1.2970   -2.1366 C   0  0  0  0  0  3  0  0  0  0  0  0
    2.3697   -0.9796   -2.3305 H   0  0  0  0  0  0  0  0  0  0  0  0
    0.5421   -2.2239   -2.7963 C   0  0  0  0  0  0  0  0  0  0  0  0
    0.8133   -2.8498   -3.6513 H   0  0  0  0  0  0  0  0  0  0  0  0
   -0.6910   -2.1810   -2.1159 C   0  0  0  0  0  0  0  0  0  0  0  0
   -1.6015   -2.7705   -2.2620 H   0  0  0  0  0  0  0  0  0  0  0  0
   -0.7760   -0.2737    1.5238 N   0  0  0  0  0  2  0  0  0  0  0  0
    0.5041    0.1146    1.2921 N   0  0  0  0  0  0  0  0  0  0  0  0
    1.1304    0.3368    2.4894 C   0  0  0  0  0  3  0  0  0  0  0  0
    2.1718    0.6714    2.5268 H   0  0  0  0  0  0  0  0  0  0  0  0
    0.2306    0.0606    3.5147 C   0  0  0  0  0  0  0  0  0  0  0  0
    0.4076    0.1228    4.5923 H   0  0  0  0  0  0  0  0  0  0  0  0
   -0.9522   -0.3311    2.8565 C   0  0  0  0  0  0  0  0  0  0  0  0
   -1.9092   -0.6721    3.2637 H   0  0  0  0  0  0  0  0  0  0  0  0
    0.7809    1.7391   -0.6327 N   0  0  0  0  0  0  0  0  0  0  0  0
    0.5971    1.9660   -1.9614 N   0  0  0  0  0  0  0  0  0  0  0  0
    0.5787    3.2992   -2.0964 C   0  0  0  0  0  0  0  0  0  0  0  0
    0.4258    3.7444   -3.0883 H   0  0  0  0  0  0  0  0  0  0  0  0
    0.7689    3.9556   -0.8497 C   0  0  0  0  0  0  0  0  0  0  0  0
    0.7915    5.0308   -0.6436 H   0  0  0  0  0  0  0  0  0  0  0  0
    0.8971    2.9165    0.0664 C   0  0  0  0  0  0  0  0  0  0  0  0
    1.0392    2.9272    1.1527 H   0  0  0  0  0  0  0  0  0  0  0  0
  1  2  1  0  0  0  0
  3  1  1  0  0  0  0
  4  1  1  0  0  0  0
  5  7  1  0  0  0  0
  5  9  1  0  0  0  0
  5  8  1  0  0  0  0
  6  5  1  0  0  0  0
  9  1  1  0  0  0  0
 10  9  1  0  0  0  0
 10 18  1  0  0  0  0
 11 10  2  0  0  0  0
 12 11  1  0  0  0  0
 13 11  1  0  0  0  0
 13 15  1  0  0  0  0
 14 13  1  0  0  0  0
 15 16  1  0  0  0  0
 16 18  2  0  0  0  0
 16 17  1  0  0  0  0
 18 19  1  0  0  0  0
 20 22  1  6  0  0  0
 20 15  1  0  0  0  0
 20 30  1  0  0  0  0
 21 22  1  0  0  0  0
 23 22  1  0  0  0  0
 24 23  1  0  0  0  0
 25 23  1  0  0  0  0
 25 27  2  0  0  0  0
 26 25  1  0  0  0  0
 27 21  1  0  0  0  0
 28 27  1  0  0  0  0
 29 35  1  0  0  0  0
 30 29  1  0  0  0  0
 30 31  1  0  0  0  0
 31 32  1  0  0  0  0
 31 33  1  0  0  0  0
 33 34  1  0  0  0  0
 35 36  1  0  0  0  0
 35 33  2  0  0  0  0
 37 20  1  0  0  0  0
 37 43  1  0  0  0  0
 38 37  1  0  0  0  0
 39 38  2  0  0  0  0
 39 41  1  0  0  0  0
 40 39  1  0  0  0  0
 41 42  1  0  0  0  0
 41 43  2  0  0  0  0
 43 44  1  0  0  0  0
M  END
