3,4
q = 0.0, confidence = 0.986

 28 29  0  0  0  0  0  0  0  0999 V2000
   -1.5682    3.1434   -0.0939 Cl  0  0  0  0  0  0  0  0  0  0  0  0
    1.5680    3.1437    0.0934 Cl  0  0  0  0  0  0  0  0  0  0  0  0
   -1.3250    0.4648   -0.0208 N   0  0  0  0  0  2  0  0  0  0  0  0
    1.3251    0.4650    0.0208 N   0  0  0  0  0  2  0  0  0  0  0  0
   -0.7317    1.6341   -0.0135 C   0  0  0  0  0  0  0  0  0  0  0  0
    0.7317    1.6341    0.0132 C   0  0  0  0  0  0  0  0  0  0  0  0
   -2.7386    0.3226   -0.0149 C   0  0  0  0  0  0  0  0  0  0  0  0
   -3.3591   -0.3960   -1.0555 C   0  0  0  0  0  0  0  0  0  0  0  0
   -4.7523   -0.5380   -1.0542 C   0  0  0  0  0  0  0  0  0  0  0  0
   -5.5201   -0.0072   -0.0062 C   0  0  0  0  0  0  0  0  0  0  0  0
   -4.8913    0.6799    1.0457 C   0  0  0  0  0  0  0  0  0  0  0  0
   -3.5028    0.8550    1.0430 C   0  0  0  0  0  0  0  0  0  0  0  0
    2.7386    0.3228    0.0152 C   0  0  0  0  0  0  0  0  0  0  0  0
    3.5033    0.8556   -1.0421 C   0  0  0  0  0  0  0  0  0  0  0  0
    4.8917    0.6804   -1.0445 C   0  0  0  0  0  0  0  0  0  0  0  0
    5.5202   -0.0073    0.0072 C   0  0  0  0  0  0  0  0  0  0  0  0
    4.7520   -0.5386    1.0547 C   0  0  0  0  0  0  0  0  0  0  0  0
    3.3587   -0.3965    1.0557 C   0  0  0  0  0  0  0  0  0  0  0  0
   -3.0020    1.3798    1.8687 H   0  0  0  0  0  0  0  0  0  0  0  0
    2.7415   -0.8270    1.8542 H   0  0  0  0  0  0  0  0  0  0  0  0
   -2.7421   -0.8262   -1.8545 H   0  0  0  0  0  0  0  0  0  0  0  0
   -5.4859    1.0800    1.8804 H   0  0  0  0  0  0  0  0  0  0  0  0
    3.0029    1.3808   -1.8678 H   0  0  0  0  0  0  0  0  0  0  0  0
    5.2378   -1.0888    1.8739 H   0  0  0  0  0  0  0  0  0  0  0  0
   -5.2385   -1.0878   -1.8735 H   0  0  0  0  0  0  0  0  0  0  0  0
   -6.6124   -0.1386   -0.0019 H   0  0  0  0  0  0  0  0  0  0  0  0
    5.4867    1.0809   -1.8788 H   0  0  0  0  0  0  0  0  0  0  0  0
    6.6125   -0.1387    0.0032 H   0  0  0  0  0  0  0  0  0  0  0  0
  1  5  1  0  0  0  0
  3  7  1  0  0  0  0
  3  5  1  0  0  0  0
  5  6  2  0  0  0  0
  6  4  1  0  0  0  0
  6  2  1  0  0  0  0
  7 12  1  0  0  0  0
  8  9  1  0  0  0  0
  8  7  2  0  0  0  0
  9 10  2  0  0  0  0
 10 26  1  0  0  0  0
 10 11  1  0  0  0  0
 11 22  1  0  0  0  0
 12 11  2  0  0  0  0
 12 19  1  0  0  0  0
 13  4  1  0  0  0  0
 13 18  1  0  0  0  0
 14 13  2  0  0  0  0
 15 14  1  0  0  0  0
 15 16  2  0  0  0  0
 16 17  1  0  0  0  0
 17 18  2  0  0  0  0
 17 24  1  0  0  0  0
 18 20  1  0  0  0  0
 21  8  1  0  0  0  0
 23 14  1  0  0  0  0
 25  9  1  0  0  0  0
 27 15  1  0  0  0  0
 28 16  1  0  0  0  0
M  END
