1,5
q = 0.0, confidence = 0.994

 29 30  0  0  0  0  0  0  0  0999 V2000
    1.4892   -1.5505    1.5590 N   0  0  0  0  0  2  0  0  0  0  0  0
    0.9805   -3.2834    2.8498 N   0  0  0  0  0  0  0  0  0  0  0  0
    0.4213   -4.0018    3.3130 H   0  0  0  0  0  0  0  0  0  0  0  0
   -0.8203   -2.2032    1.6556 N   0  0  0  0  0  0  0  0  0  0  0  0
   -1.0266   -1.2547    0.7811 N   0  0  0  0  0  2  0  0  0  0  0  0
   -6.3669   -0.3682   -0.7149 N   0  0  0  0  0  0  0  0  0  0  0  0
    0.4815   -2.3339    1.9972 C   0  0  0  0  0  0  0  0  0  0  0  0
    2.3431   -3.0981    2.9450 C   0  0  0  0  0  0  0  0  0  0  0  0
    2.9788   -3.7353    3.5671 H   0  0  0  0  0  0  0  0  0  0  0  0
    2.6472   -2.0111    2.1313 C   0  0  0  0  0  0  0  0  0  0  0  0
    3.6168   -1.5417    1.9323 H   0  0  0  0  0  0  0  0  0  0  0  0
   -2.3581   -1.0482    0.4337 C   0  0  0  0  0  0  0  0  0  0  0  0
   -2.6702   -0.1898   -0.6518 C   0  0  0  0  0  0  0  0  0  0  0  0
   -1.8514    0.2965   -1.1969 H   0  0  0  0  0  0  0  0  0  0  0  0
   -3.9822    0.0322   -1.0388 C   0  0  0  0  0  0  0  0  0  0  0  0
   -4.1682    0.6981   -1.8900 H   0  0  0  0  0  0  0  0  0  0  0  0
   -5.0700   -0.5899   -0.3485 C   0  0  0  0  0  0  0  0  0  0  0  0
   -4.7461   -1.4561    0.7502 C   0  0  0  0  0  0  0  0  0  0  0  0
   -5.5452   -1.9491    1.3176 H   0  0  0  0  0  0  0  0  0  0  0  0
   -3.4336   -1.6802    1.1228 C   0  0  0  0  0  0  0  0  0  0  0  0
   -3.1996   -2.3427    1.9661 H   0  0  0  0  0  0  0  0  0  0  0  0
   -7.4590   -1.0225   -0.0066 C   0  0  0  0  0  0  0  0  0  0  0  0
   -7.4836   -0.7345    1.0662 H   0  0  0  0  0  0  0  0  0  0  0  0
   -7.3811   -2.1290   -0.0663 H   0  0  0  0  0  0  0  0  0  0  0  0
   -8.4187   -0.7235   -0.4618 H   0  0  0  0  0  0  0  0  0  0  0  0
   -6.6725    0.5280   -1.8218 C   0  0  0  0  0  0  0  0  0  0  0  0
   -6.2303    0.1668   -2.7749 H   0  0  0  0  0  0  0  0  0  0  0  0
   -6.2916    1.5543   -1.6327 H   0  0  0  0  0  0  0  0  0  0  0  0
   -7.7666    0.5869   -1.9524 H   0  0  0  0  0  0  0  0  0  0  0  0
  1  7  1  0  0  0  0
  1 10  1  0  0  0  0
  2  8  1  0  0  0  0
  2  3  1  0  0  0  0
  4  7  2  0  0  0  0
  5  4  1  0  0  0  0
  6 17  1  0  0  0  0
  6 22  1  0  0  0  0
  7  2  1  0  0  0  0
  8  9  1  0  0  0  0
 10  8  2  0  0  0  0
 11 10  1  0  0  0  0
 12  5  1  0  0  0  0
 12 20  1  0  0  0  0
 13 12  2  0  0  0  0
 14 13  1  0  0  0  0
 15 13  1  0  0  0  0
 15 17  2  0  0  0  0
 16 15  1  0  0  0  0
 17 18  1  0  0  0  0
 18 20  2  0  0  0  0
 18 19  1  0  0  0  0
 20 21  1  0  0  0  0
 22 23  1  0  0  0  0
 24 22  1  0  0  0  0
 25 22  1  0  0  0  0
 26 28  1  0  0  0  0
 26  6  1  0  0  0  0
 27 26  1  0  0  0  0
 29 26  1  0  0  0  0
M  END
