1,18
q = 0.0, confidence = 1.0

 33 36  0  0  1  0  0  0  0  0999 V2000
   -1.5186    1.4296    0.2512 N   0  0  0  0  0  2  0  0  0  0  0  0
   -2.2275    3.5595    0.1139 N   0  0  0  0  0  0  0  0  0  0  0  0
    4.3624    3.5659   -0.9761 C   0  0  0  0  0  3  0  0  0  0  0  0
    4.8195    4.5616   -0.8725 H   0  0  0  0  0  0  0  0  0  0  0  0
    5.1131    2.4793   -1.3975 C   0  0  0  0  0  0  0  0  0  0  0  0
    6.1819    2.6000   -1.6272 H   0  0  0  0  0  0  0  0  0  0  0  0
    4.4948    1.2102   -1.5500 C   0  0  0  0  0  0  0  0  0  0  0  0
    5.0864    0.3555   -1.9106 H   0  0  0  0  0  0  0  0  0  0  0  0
    3.1515    1.0276   -1.2551 C   0  0  0  0  0  0  0  0  0  0  0  0
    2.6776    0.0475   -1.3801 H   0  0  0  0  0  0  0  0  0  0  0  0
    2.3590    2.1148   -0.7953 C   0  0  0  0  0  0  0  0  0  0  0  0
    2.9781    3.4168   -0.6821 C   0  0  0  0  0  0  0  0  0  0  0  0
    2.1646    4.5082   -0.2835 C   0  0  0  0  0  0  0  0  0  0  0  0
    2.6144    5.5048   -0.1586 H   0  0  0  0  0  0  0  0  0  0  0  0
    0.8145    4.3133   -0.0630 C   0  0  0  0  0  0  0  0  0  0  0  0
    0.1841    5.1505    0.2531 H   0  0  0  0  0  0  0  0  0  0  0  0
    0.2648    3.0060   -0.1928 C   0  0  0  0  0  0  0  0  0  0  0  0
    1.0271    1.9259   -0.4946 N   0  0  0  0  0  2  0  0  0  0  0  0
   -1.1442    2.7039    0.0486 C   0  0  1  0  0  3  0  0  0  0  0  0
   -3.3441    2.7782    0.3995 C   0  0  0  0  0  0  0  0  0  0  0  0
   -4.6950    3.1169    0.5863 C   0  0  0  0  0  0  0  0  0  0  0  0
   -5.0537    4.1542    0.5314 H   0  0  0  0  0  0  0  0  0  0  0  0
   -5.5729    2.0645    0.8646 C   0  0  0  0  0  0  0  0  0  0  0  0
   -6.6387    2.2852    1.0226 H   0  0  0  0  0  0  0  0  0  0  0  0
   -5.1226    0.7226    0.9588 C   0  0  0  0  0  0  0  0  0  0  0  0
   -5.8502   -0.0696    1.1874 H   0  0  0  0  0  0  0  0  0  0  0  0
   -3.7811    0.3833    0.7738 C   0  0  0  0  0  0  0  0  0  0  0  0
   -3.4294   -0.6520    0.8547 H   0  0  0  0  0  0  0  0  0  0  0  0
   -2.8829    1.4311    0.4839 C   0  0  0  0  0  0  0  0  0  0  0  0
   -2.2853    4.9865   -0.1629 C   0  0  0  0  0  0  0  0  0  0  0  0
   -1.6260    5.2427   -1.0121 H   0  0  0  0  0  0  0  0  0  0  0  0
   -2.0032    5.5911    0.7232 H   0  0  0  0  0  0  0  0  0  0  0  0
   -3.3207    5.2473   -0.4467 H   0  0  0  0  0  0  0  0  0  0  0  0
  1 29  1  0  0  0  0
  2 20  1  0  0  0  0
  3  4  1  0  0  0  0
  3 12  1  0  0  0  0
  5  3  1  0  0  0  0
  6  5  1  0  0  0  0
  7  5  2  0  0  0  0
  7  9  1  0  0  0  0
  8  7  1  0  0  0  0
  9 11  2  0  0  0  0
 10  9  1  0  0  0  0
 11 12  1  0  0  0  0
 11 18  1  0  0  0  0
 12 13  2  0  0  0  0
 13 14  1  0  0  0  0
 13 15  1  0  0  0  0
 15 16  1  0  0  0  0
 17 15  2  0  0  0  0
 18 17  1  0  0  0  0
 19 17  1  1  0  0  0
 19  2  1  0  0  0  0
 19  1  1  0  0  0  0
 20 29  2  0  0  0  0
 20 21  1  0  0  0  0
 21 23  2  0  0  0  0
 22 21  1  0  0  0  0
 23 25  1  0  0  0  0
 23 24  1  0  0  0  0
 25 26  1  0  0  0  0
 27 28  1  0  0  0  0
 27 25  2  0  0  0  0
 29 27  1  0  0  0  0
 30  2  1  0  0  0  0
 30 32  1  0  0  0  0
 31 30  1  0  0  0  0
 33 30  1  0  0  0  0
M  END
