1,2
q = 0.0, confidence = 0.996

 25 25  0  0  0  0  0  0  0  0999 V2000
   -1.4242    1.3241   -0.1270 N   0  0  0  0  0  0  0  0  0  0  0  0
   -1.2037   -1.6053    0.2275 N   0  0  0  0  0  0  0  0  0  0  0  0
   -0.9020    2.6876   -0.3818 C   0  0  0  0  0  0  0  0  0  0  0  0
   -0.9842   -2.6814   -0.7664 C   0  0  0  0  0  0  0  0  0  0  0  0
   -2.2318    1.3135    1.1252 C   0  0  0  0  0  0  0  0  0  0  0  0
   -2.6974   -0.1099    1.4996 C   0  0  0  0  0  0  0  0  0  0  0  0
   -2.6023   -1.0965    0.3231 C   0  0  0  0  0  0  0  0  0  0  0  0
   -3.0573   -0.4068   -0.9684 C   0  0  0  0  0  0  0  0  0  0  0  0
   -2.2917    0.9011   -1.2675 C   0  0  0  0  0  0  0  0  0  0  0  0
   -0.9691   -2.0012    1.1519 H   0  0  0  0  0  0  0  0  0  0  0  0
   -1.7420    3.4147   -0.4289 H   0  0  0  0  0  0  0  0  0  0  0  0
   -0.3424    2.6878   -1.3336 H   0  0  0  0  0  0  0  0  0  0  0  0
   -0.1892    2.9607    0.4157 H   0  0  0  0  0  0  0  0  0  0  0  0
   -1.6720   -3.5367   -0.5886 H   0  0  0  0  0  0  0  0  0  0  0  0
    0.0697   -3.0056   -0.6789 H   0  0  0  0  0  0  0  0  0  0  0  0
   -1.1363   -2.2899   -1.7878 H   0  0  0  0  0  0  0  0  0  0  0  0
   -3.1058    1.9900    0.9744 H   0  0  0  0  0  0  0  0  0  0  0  0
   -1.6055    1.7504    1.9244 H   0  0  0  0  0  0  0  0  0  0  0  0
   -2.1043   -0.4989    2.3521 H   0  0  0  0  0  0  0  0  0  0  0  0
   -3.7511   -0.0718    1.8406 H   0  0  0  0  0  0  0  0  0  0  0  0
   -3.2719   -1.9654    0.5137 H   0  0  0  0  0  0  0  0  0  0  0  0
   -4.1375   -0.1921   -0.8432 H   0  0  0  0  0  0  0  0  0  0  0  0
   -2.9860   -1.0984   -1.8297 H   0  0  0  0  0  0  0  0  0  0  0  0
   -1.6295    0.7981   -2.1469 H   0  0  0  0  0  0  0  0  0  0  0  0
   -3.0120    1.7244   -1.4805 H   0  0  0  0  0  0  0  0  0  0  0  0
  1  5  1  0  0  0  0
  2  7  1  0  0  0  0
  2 10  1  0  0  0  0
  3  1  1  0  0  0  0
  3 13  1  0  0  0  0
  4 15  1  0  0  0  0
  4 14  1  0  0  0  0
  4  2  1  0  0  0  0
  5  6  1  0  0  0  0
  5 18  1  0  0  0  0
  6 20  1  0  0  0  0
  6 19  1  0  0  0  0
  7 21  1  0  0  0  0
  7  6  1  0  0  0  0
  8 22  1  0  0  0  0
  8  7  1  0  0  0  0
  9  8  1  0  0  0  0
  9  1  1  0  0  0  0
 11  3  1  0  0  0  0
 12  3  1  0  0  0  0
 16  4  1  0  0  0  0
 17  5  1  0  0  0  0
 23  8  1  0  0  0  0
 24  9  1  0  0  0  0
 25  9  1  0  0  0  0
M  END
