3,4
q = -1.0, confidence = 0.014

 17 16  0  0  0  0  0  0  0  0999 V2000
   -3.3501   -2.3049   -0.0003 O   0  0  0  0  0  0  0  0  0  0  0  0
   -3.3501    2.3049    0.0003 O   0  0  0  0  0  0  0  0  0  0  0  0
   -1.3177   -1.3144    0.0010 N   0  0  0  0  0  2  0  0  0  0  0  0
   -1.3177    1.3144   -0.0010 N   0  0  0  0  0  2  0  0  0  0  0  0
   -4.7707   -2.1977   -0.0004 C   0  0  0  0  0  0  0  0  0  0  0  0
   -5.1370   -1.6598   -0.8987 H   0  0  0  0  0  0  0  0  0  0  0  0
   -5.1489   -3.2371    0.0008 H   0  0  0  0  0  0  0  0  0  0  0  0
   -5.1370   -1.6576    0.8965 H   0  0  0  0  0  0  0  0  0  0  0  0
   -3.3081    0.0000    0.0001 N   0  0  0  0  0  4  0  0  0  0  0  0
   -2.6308   -1.1516    0.0002 C   0  0  0  0  0  0  0  0  0  0  0  0
   -4.7707    2.1977    0.0004 C   0  0  0  0  0  0  0  0  0  0  0  0
   -5.1489    3.2371   -0.0010 H   0  0  0  0  0  0  0  0  0  0  0  0
   -5.1370    1.6575   -0.8965 H   0  0  0  0  0  0  0  0  0  0  0  0
   -5.1370    1.6599    0.8987 H   0  0  0  0  0  0  0  0  0  0  0  0
   -2.6308    1.1516   -0.0002 C   0  0  0  0  0  0  0  0  0  0  0  0
   -1.0647   -2.3100    0.0009 H   0  0  0  0  0  0  0  0  0  0  0  0
   -1.0647    2.3100   -0.0011 H   0  0  0  0  0  0  0  0  0  0  0  0
  1 10  1  0  0  0  0
  2 11  1  0  0  0  0
  4 15  1  0  0  0  0
  5  1  1  0  0  0  0
  5  7  1  0  0  0  0
  5  8  1  0  0  0  0
  6  5  1  0  0  0  0
  9 10  2  0  0  0  0
 10  3  1  0  0  0  0
 11 14  1  0  0  0  0
 12 11  1  0  0  0  0
 13 11  1  0  0  0  0
 15  9  2  0  0  0  0
 15  2  1  0  0  0  0
 16  3  1  0  0  0  0
 17  4  1  0  0  0  0
M  END
