10,18
q = 0.0, confidence = 0.998

 26 28  0  0  1  0  0  0  0  0999 V2000
    1.2708    1.8191    0.1517 C   0  0  1  0  0  0  0  0  0  0  0  0
    1.7993    2.7956    0.1787 H   0  0  0  0  0  0  0  0  0  0  0  0
    0.5502    1.8110   -1.1225 N   0  0  0  0  0  0  0  0  0  0  0  0
    0.5485    2.7685   -2.0989 C   0  0  0  0  0  3  0  0  0  0  0  0
    1.1694    3.6673   -2.0152 H   0  0  0  0  0  0  0  0  0  0  0  0
   -0.3265    2.3309   -3.0881 C   0  0  0  0  0  0  0  0  0  0  0  0
   -0.5740    2.8395   -4.0248 H   0  0  0  0  0  0  0  0  0  0  0  0
   -0.8252    1.0941   -2.6123 C   0  0  0  0  0  0  0  0  0  0  0  0
   -1.5723    0.4176   -3.0447 H   0  0  0  0  0  0  0  0  0  0  0  0
   -0.2792    0.7902   -1.4287 N   0  0  0  0  0  2  0  0  0  0  0  0
    0.3312    1.8528    1.2693 N   0  0  0  0  0  0  0  0  0  0  0  0
    0.1488    2.8449    2.1920 C   0  0  0  0  0  3  0  0  0  0  0  0
    0.7697    3.7478    2.1868 H   0  0  0  0  0  0  0  0  0  0  0  0
   -0.8908    2.4350    3.0213 C   0  0  0  0  0  0  0  0  0  0  0  0
   -1.3084    2.9764    3.8757 H   0  0  0  0  0  0  0  0  0  0  0  0
   -1.2907    1.1770    2.5094 C   0  0  0  0  0  0  0  0  0  0  0  0
   -2.1047    0.5109    2.8203 H   0  0  0  0  0  0  0  0  0  0  0  0
   -0.5355    0.8345    1.4583 N   0  0  0  0  0  2  0  0  0  0  0  0
    2.2324    0.6697    0.2784 C   0  0  0  0  0  0  0  0  0  0  0  0
    2.6507    0.0427    1.4388 C   0  0  0  0  0  0  0  0  0  0  0  0
    2.2306    0.2651    2.4287 H   0  0  0  0  0  0  0  0  0  0  0  0
    3.6457   -0.9469    1.1920 C   0  0  0  0  0  0  0  0  0  0  0  0
    4.0853   -1.5848    1.9697 H   0  0  0  0  0  0  0  0  0  0  0  0
    3.9696   -1.0489   -0.1464 C   0  0  0  0  0  0  0  0  0  0  0  0
    4.6662   -1.7448   -0.6290 H   0  0  0  0  0  0  0  0  0  0  0  0
    3.0573    0.0475   -1.1190 S   0  0  0  0  0  0  0  0  0  0  0  0
  1  2  1  1  0  0  0
  1 19  1  0  0  0  0
  1 11  1  0  0  0  0
  3  1  1  0  0  0  0
  4  5  1  0  0  0  0
  4  3  1  0  0  0  0
  6  8  2  0  0  0  0
  6  4  1  0  0  0  0
  7  6  1  0  0  0  0
  8 10  1  0  0  0  0
  9  8  1  0  0  0  0
 10  3  1  0  0  0  0
 11 18  1  0  0  0  0
 11 12  1  0  0  0  0
 12 14  1  0  0  0  0
 13 12  1  0  0  0  0
 14 15  1  0  0  0  0
 16 17  1  0  0  0  0
 16 14  2  0  0  0  0
 18 16  1  0  0  0  0
 19 20  2  0  0  0  0
 20 21  1  0  0  0  0
 22 20  1  0  0  0  0
 22 23  1  0  0  0  0
 24 22  2  0  0  0  0
 25 24  1  0  0  0  0
 26 24  1  0  0  0  0
 26 19  1  0  0  0  0
M  END
