1,2
q = 0.0, confidence = 1.0

 22 23  0  0  1  0  0  0  0  0999 V2000
   -0.0650    1.4136   -0.4212 N   0  0  0  0  0  0  0  0  0  0  0  0
    0.2021   -1.6388   -0.0248 N   0  0  0  0  0  0  0  0  0  0  0  0
   -1.1360   -1.3705    0.3192 N   0  0  0  0  0  0  0  0  0  0  0  0
   -1.9343   -2.8318   -1.2672 O   0  0  0  0  0  0  0  0  0  0  0  0
   -1.3208    1.0541    0.0860 N   0  0  0  0  0  0  0  0  0  0  0  0
   -3.5666    1.2151    0.6917 C   0  0  0  0  0  0  0  0  0  0  0  0
   -3.6969    1.8251    1.6101 H   0  0  0  0  0  0  0  0  0  0  0  0
   -4.5237    1.2486    0.1379 H   0  0  0  0  0  0  0  0  0  0  0  0
   -3.0733   -0.2066    1.0061 C   0  0  2  0  0  0  0  0  0  0  0  0
   -3.3827   -0.5510    2.0096 H   0  0  0  0  0  0  0  0  0  0  0  0
   -2.4476    2.8509   -0.8162 O   0  0  0  0  0  0  0  0  0  0  0  0
   -2.1438   -1.9555   -0.4455 C   0  0  0  0  0  0  0  0  0  0  0  0
   -2.4442    1.8481   -0.1264 C   0  0  0  0  0  0  0  0  0  0  0  0
   -1.5145   -0.1162    0.9366 C   0  0  1  0  0  0  0  0  0  0  0  0
   -0.9962    0.0048    1.9115 H   0  0  0  0  0  0  0  0  0  0  0  0
   -3.4395   -1.2558   -0.0702 C   0  0  0  0  0  0  0  0  0  0  0  0
   -3.8490   -0.7932   -0.9925 H   0  0  0  0  0  0  0  0  0  0  0  0
   -4.1871   -1.9973    0.2713 H   0  0  0  0  0  0  0  0  0  0  0  0
    0.1621   -2.1725   -0.9183 H   0  0  0  0  0  0  0  0  0  0  0  0
    0.3200    2.2698    0.0296 H   0  0  0  0  0  0  0  0  0  0  0  0
   -0.1668    1.6430   -1.4253 H   0  0  0  0  0  0  0  0  0  0  0  0
    0.6720   -2.2580    0.6644 H   0  0  0  0  0  0  0  0  0  0  0  0
  1 20  1  0  0  0  0
  1  5  1  0  0  0  0
  2  3  1  0  0  0  0
  2 22  1  0  0  0  0
  3 14  1  0  0  0  0
  4 12  2  0  0  0  0
  5 14  1  0  0  0  0
  6  9  1  0  0  0  0
  6  7  1  0  0  0  0
  8  6  1  0  0  0  0
  9 10  1  1  0  0  0
 11 13  2  0  0  0  0
 12 16  1  0  0  0  0
 12  3  1  0  0  0  0
 13  5  1  0  0  0  0
 13  6  1  0  0  0  0
 14  9  1  0  0  0  0
 14 15  1  1  0  0  0
 16 18  1  0  0  0  0
 16  9  1  0  0  0  0
 17 16  1  0  0  0  0
 19  2  1  0  0  0  0
 21  1  1  0  0  0  0
M  END
