1,10
q = -1.0, confidence = 0.002

 47 49  0  0  0  0  0  0  0  0999 V2000
   -0.7105    1.0676   -0.0787 N   0  0  0  0  0  2  0  0  0  0  0  0
    3.1641    0.1268   -1.3273 C   0  0  0  0  0  0  0  0  0  0  0  0
    2.2960   -0.3976   -1.7522 H   0  0  0  0  0  0  0  0  0  0  0  0
    0.5645    0.6655    0.1136 C   0  0  0  0  0  3  0  0  0  0  0  0
    1.6422    1.5113    0.0242 N   0  0  0  0  0  0  0  0  0  0  0  0
    1.3777    2.4964   -0.0730 H   0  0  0  0  0  0  0  0  0  0  0  0
   -0.9783    3.4747    0.3419 C   0  0  0  0  0  0  0  0  0  0  0  0
   -1.7697    2.4693   -1.7584 C   0  0  0  0  0  0  0  0  0  0  0  0
   -1.8558    1.5683   -2.3840 H   0  0  0  0  0  0  0  0  0  0  0  0
    0.5574   -0.6615    0.3104 N   0  0  0  0  0  2  0  0  0  0  0  0
    3.4207   -2.3960    1.9405 C   0  0  0  0  0  0  0  0  0  0  0  0
    4.0869   -2.2803    2.8106 H   0  0  0  0  0  0  0  0  0  0  0  0
    2.9514    1.1740   -0.4106 C   0  0  0  0  0  0  0  0  0  0  0  0
    4.0381    1.9410    0.0834 C   0  0  0  0  0  0  0  0  0  0  0  0
    2.4326   -1.4167    1.7215 C   0  0  0  0  0  0  0  0  0  0  0  0
    1.5778   -1.5721    0.5933 C   0  0  0  0  0  0  0  0  0  0  0  0
   -1.4427    4.7189   -0.1330 C   0  0  0  0  0  0  0  0  0  0  0  0
   -1.3340    5.6022    0.5171 H   0  0  0  0  0  0  0  0  0  0  0  0
   -0.4062    3.3516    1.7333 C   0  0  0  0  0  0  0  0  0  0  0  0
   -0.7284    4.1995    2.3680 H   0  0  0  0  0  0  0  0  0  0  0  0
    0.7050    3.3358    1.7559 H   0  0  0  0  0  0  0  0  0  0  0  0
   -0.7323    2.4060    2.2092 H   0  0  0  0  0  0  0  0  0  0  0  0
    4.4682   -0.2082   -1.7112 C   0  0  0  0  0  0  0  0  0  0  0  0
    4.6262   -1.0373   -2.4169 H   0  0  0  0  0  0  0  0  0  0  0  0
    3.5641   -3.5098    1.1020 C   0  0  0  0  0  0  0  0  0  0  0  0
    4.3467   -4.2560    1.3059 H   0  0  0  0  0  0  0  0  0  0  0  0
    3.7996    3.0987    1.0178 C   0  0  0  0  0  0  0  0  0  0  0  0
    3.2247    3.9176    0.5307 H   0  0  0  0  0  0  0  0  0  0  0  0
    4.7549    3.5347    1.3665 H   0  0  0  0  0  0  0  0  0  0  0  0
    3.2137    2.7918    1.9105 H   0  0  0  0  0  0  0  0  0  0  0  0
   -2.0607    4.8510   -1.3833 C   0  0  0  0  0  0  0  0  0  0  0  0
   -2.4190    5.8356   -1.7194 H   0  0  0  0  0  0  0  0  0  0  0  0
    5.5587    0.5189   -1.2111 C   0  0  0  0  0  0  0  0  0  0  0  0
    6.5852    0.2593   -1.5103 H   0  0  0  0  0  0  0  0  0  0  0  0
   -1.1296    2.3341   -0.5040 C   0  0  0  0  0  0  0  0  0  0  0  0
    1.7052   -2.7115   -0.2357 C   0  0  0  0  0  0  0  0  0  0  0  0
    1.0297   -2.7863   -1.1013 H   0  0  0  0  0  0  0  0  0  0  0  0
    2.6914   -3.6705    0.0129 C   0  0  0  0  0  0  0  0  0  0  0  0
    2.7861   -4.5422   -0.6528 H   0  0  0  0  0  0  0  0  0  0  0  0
    5.3350    1.5928   -0.3368 C   0  0  0  0  0  0  0  0  0  0  0  0
    6.1876    2.1777    0.0433 H   0  0  0  0  0  0  0  0  0  0  0  0
   -2.2313    3.7152   -2.1934 C   0  0  0  0  0  0  0  0  0  0  0  0
   -2.7170    3.8032   -3.1774 H   0  0  0  0  0  0  0  0  0  0  0  0
    2.2720   -0.2619    2.6720 C   0  0  0  0  0  0  0  0  0  0  0  0
    1.2004   -0.0380    2.8517 H   0  0  0  0  0  0  0  0  0  0  0  0
    2.7233    0.6680    2.2693 H   0  0  0  0  0  0  0  0  0  0  0  0
    2.7560   -0.4765    3.6440 H   0  0  0  0  0  0  0  0  0  0  0  0
  1  4  1  0  0  0  0
  2 13  1  0  0  0  0
  3  2  1  0  0  0  0
  4 10  1  0  0  0  0
  5  4  1  0  0  0  0
  6  5  1  0  0  0  0
  7 19  1  0  0  0  0
  8 35  1  0  0  0  0
  9  8  1  0  0  0  0
 10 16  1  0  0  0  0
 11 12  1  0  0  0  0
 13  5  1  0  0  0  0
 13 14  2  0  0  0  0
 14 27  1  0  0  0  0
 15 11  1  0  0  0  0
 15 44  1  0  0  0  0
 16 15  2  0  0  0  0
 17  7  1  0  0  0  0
 17 18  1  0  0  0  0
 19 21  1  0  0  0  0
 19 22  1  0  0  0  0
 19 20  1  0  0  0  0
 23  2  2  0  0  0  0
 23 33  1  0  0  0  0
 24 23  1  0  0  0  0
 25 26  1  0  0  0  0
 25 11  2  0  0  0  0
 27 29  1  0  0  0  0
 27 30  1  0  0  0  0
 28 27  1  0  0  0  0
 31 17  2  0  0  0  0
 32 31  1  0  0  0  0
 33 40  2  0  0  0  0
 34 33  1  0  0  0  0
 35  1  1  0  0  0  0
 35  7  2  0  0  0  0
 36 38  2  0  0  0  0
 36 16  1  0  0  0  0
 37 36  1  0  0  0  0
 38 25  1  0  0  0  0
 39 38  1  0  0  0  0
 40 41  1  0  0  0  0
 40 14  1  0  0  0  0
 42  8  2  0  0  0  0
 42 31  1  0  0  0  0
 43 42  1  0  0  0  0
 44 45  1  0  0  0  0
 44 47  1  0  0  0  0
 46 44  1  0  0  0  0
M  END
