1,3
q = -2.0, confidence = 0.94

 55 57  0  0  0  0  0  0  0  0999 V2000
    0.5562    1.0279   -0.5693 N   0  0  0  0  0  2  0  0  0  0  0  0
   -1.7294    1.6306   -0.5733 N   0  0  0  0  0  0  0  0  0  0  0  0
   -0.8093   -0.6187   -0.0232 N   0  0  0  0  0  2  0  0  0  0  0  0
    2.2129    2.6435   -1.4867 C   0  0  0  0  0  0  0  0  0  0  0  0
    2.0854    2.1810   -2.4882 H   0  0  0  0  0  0  0  0  0  0  0  0
    3.0528    2.1095   -0.9963 H   0  0  0  0  0  0  0  0  0  0  0  0
    2.5573    4.1340   -1.6059 C   0  0  0  0  0  0  0  0  0  0  0  0
    1.7581    4.6494   -2.1846 H   0  0  0  0  0  0  0  0  0  0  0  0
    3.4962    4.2666   -2.1842 H   0  0  0  0  0  0  0  0  0  0  0  0
    2.6785    4.7939   -0.2254 C   0  0  0  0  0  0  0  0  0  0  0  0
    3.5419    4.3445    0.3172 H   0  0  0  0  0  0  0  0  0  0  0  0
    2.9053    5.8760   -0.3305 H   0  0  0  0  0  0  0  0  0  0  0  0
    1.4029    4.5881    0.6023 C   0  0  0  0  0  0  0  0  0  0  0  0
    1.5137    5.0413    1.6102 H   0  0  0  0  0  0  0  0  0  0  0  0
    0.5602    5.1240    0.1107 H   0  0  0  0  0  0  0  0  0  0  0  0
    1.0463    3.1013    0.7189 C   0  0  0  0  0  0  0  0  0  0  0  0
    0.0814    2.9653    1.2496 H   0  0  0  0  0  0  0  0  0  0  0  0
    1.8259    2.5726    1.3114 H   0  0  0  0  0  0  0  0  0  0  0  0
    0.9380    2.4315   -0.6647 C   0  0  0  0  0  0  0  0  0  0  0  0
    0.0909    2.9271   -1.1914 H   0  0  0  0  0  0  0  0  0  0  0  0
   -3.9447    2.5485   -0.9981 C   0  0  0  0  0  0  0  0  0  0  0  0
   -3.7702    2.4471   -2.0897 H   0  0  0  0  0  0  0  0  0  0  0  0
   -3.5315    3.5399   -0.7077 H   0  0  0  0  0  0  0  0  0  0  0  0
   -5.4384    2.4724   -0.6647 C   0  0  0  0  0  0  0  0  0  0  0  0
   -5.8512    1.5093   -1.0431 H   0  0  0  0  0  0  0  0  0  0  0  0
   -5.9947    3.2752   -1.1932 H   0  0  0  0  0  0  0  0  0  0  0  0
   -5.6806    2.5588    0.8484 C   0  0  0  0  0  0  0  0  0  0  0  0
   -5.3734    3.5668    1.2080 H   0  0  0  0  0  0  0  0  0  0  0  0
   -6.7630    2.4608    1.0776 H   0  0  0  0  0  0  0  0  0  0  0  0
   -4.8737    1.4935    1.6026 C   0  0  0  0  0  0  0  0  0  0  0  0
   -5.2581    0.4840    1.3295 H   0  0  0  0  0  0  0  0  0  0  0  0
   -5.0227    1.5949    2.6987 H   0  0  0  0  0  0  0  0  0  0  0  0
   -3.3817    1.5717    1.2581 C   0  0  0  0  0  0  0  0  0  0  0  0
   -2.9556    2.5384    1.6083 H   0  0  0  0  0  0  0  0  0  0  0  0
   -2.8133    0.7717    1.7801 H   0  0  0  0  0  0  0  0  0  0  0  0
   -3.1305    1.4693   -0.2621 C   0  0  0  0  0  0  0  0  0  0  0  0
   -3.5418    0.4834   -0.5930 H   0  0  0  0  0  0  0  0  0  0  0  0
   -2.4512   -1.7781   -1.4900 C   0  0  0  0  0  0  0  0  0  0  0  0
   -2.6850   -0.8153   -1.9895 H   0  0  0  0  0  0  0  0  0  0  0  0
   -1.6153   -2.2347   -2.0629 H   0  0  0  0  0  0  0  0  0  0  0  0
   -3.6631   -2.7161   -1.5033 C   0  0  0  0  0  0  0  0  0  0  0  0
   -3.9996   -2.8984   -2.5456 H   0  0  0  0  0  0  0  0  0  0  0  0
   -4.5150   -2.2197   -0.9850 H   0  0  0  0  0  0  0  0  0  0  0  0
   -3.3440   -4.0414   -0.7994 C   0  0  0  0  0  0  0  0  0  0  0  0
   -4.2385   -4.6990   -0.7772 H   0  0  0  0  0  0  0  0  0  0  0  0
   -2.5696   -4.5853   -1.3868 H   0  0  0  0  0  0  0  0  0  0  0  0
   -2.8180   -3.8032    0.6221 C   0  0  0  0  0  0  0  0  0  0  0  0
   -3.6343   -3.3693    1.2428 H   0  0  0  0  0  0  0  0  0  0  0  0
   -2.5434   -4.7661    1.1021 H   0  0  0  0  0  0  0  0  0  0  0  0
   -1.6197   -2.8454    0.6342 C   0  0  0  0  0  0  0  0  0  0  0  0
   -0.7578   -3.3086    0.1023 H   0  0  0  0  0  0  0  0  0  0  0  0
   -1.2821   -2.6546    1.6729 H   0  0  0  0  0  0  0  0  0  0  0  0
   -1.9524   -1.5102   -0.0535 C   0  0  0  0  0  0  0  0  0  0  0  0
   -2.8041   -1.0632    0.5142 H   0  0  0  0  0  0  0  0  0  0  0  0
   -0.8269    0.7231   -0.4076 C   0  0  0  0  0  0  0  0  0  0  0  0
  1 55  1  0  0  0  0
  2 55  2  0  0  0  0
  2 36  1  0  0  0  0
  4  6  1  0  0  0  0
  4 19  1  0  0  0  0
  5  4  1  0  0  0  0
  7  4  1  0  0  0  0
  7 10  1  0  0  0  0
  8  7  1  0  0  0  0
  9  7  1  0  0  0  0
 10 11  1  0  0  0  0
 10 13  1  0  0  0  0
 12 10  1  0  0  0  0
 13 16  1  0  0  0  0
 13 14  1  0  0  0  0
 15 13  1  0  0  0  0
 16 17  1  0  0  0  0
 16 18  1  0  0  0  0
 19  1  1  0  0  0  0
 19 16  1  0  0  0  0
 20 19  1  0  0  0  0
 21 23  1  0  0  0  0
 21 24  1  0  0  0  0
 21 36  1  0  0  0  0
 22 21  1  0  0  0  0
 24 27  1  0  0  0  0
 25 24  1  0  0  0  0
 26 24  1  0  0  0  0
 27 29  1  0  0  0  0
 27 28  1  0  0  0  0
 27 30  1  0  0  0  0
 30 32  1  0  0  0  0
 31 30  1  0  0  0  0
 33 30  1  0  0  0  0
 33 34  1  0  0  0  0
 33 35  1  0  0  0  0
 36 33  1  0  0  0  0
 37 36  1  0  0  0  0
 38 53  1  0  0  0  0
 39 38  1  0  0  0  0
 40 38  1  0  0  0  0
 41 38  1  0  0  0  0
 41 43  1  0  0  0  0
 41 44  1  0  0  0  0
 42 41  1  0  0  0  0
 44 45  1  0  0  0  0
 44 47  1  0  0  0  0
 46 44  1  0  0  0  0
 47 50  1  0  0  0  0
 47 49  1  0  0  0  0
 47 48  1  0  0  0  0
 50 52  1  0  0  0  0
 51 50  1  0  0  0  0
 53  3  1  0  0  0  0
 53 54  1  0  0  0  0
 53 50  1  0  0  0  0
 55  3  1  0  0  0  0
M  END
