3,5
q = 0.0, confidence = 0.994

 77 79  0  0  1  0  0  0  0  0999 V2000
    2.9045   -3.0483    0.4227 O   0  0  0  0  0  0  0  0  0  0  0  0
   -1.2492    1.2005   -1.7906 O   0  0  0  0  0  0  0  0  0  0  0  0
    2.4372    0.4060   -0.0866 N   0  0  0  0  0  2  0  0  0  0  0  0
    3.1275   -0.7868    0.0097 N   0  0  0  0  0  0  0  0  0  0  0  0
    0.1677   -1.0376   -0.6211 N   0  0  0  0  0  2  0  0  0  0  0  0
   -3.1148    0.1092   -0.9312 N   0  0  0  0  0  0  0  0  0  0  0  0
   -3.5491   -1.1459   -0.5765 N   0  0  0  0  0  0  0  0  0  0  0  0
    1.4893    3.1066   -0.6861 C   0  0  0  0  0  0  0  0  0  0  0  0
    1.0158    2.4600   -1.4506 H   0  0  0  0  0  0  0  0  0  0  0  0
    1.3365    4.1628   -0.9866 H   0  0  0  0  0  0  0  0  0  0  0  0
    0.9654    2.9483    0.2762 H   0  0  0  0  0  0  0  0  0  0  0  0
    3.5786    3.6853    0.6079 C   0  0  0  0  0  0  0  0  0  0  0  0
    3.0962    3.3967    1.5618 H   0  0  0  0  0  0  0  0  0  0  0  0
    3.3851    4.7605    0.4167 H   0  0  0  0  0  0  0  0  0  0  0  0
    4.6749    3.5473    0.7051 H   0  0  0  0  0  0  0  0  0  0  0  0
    3.6912    3.2354   -1.8796 C   0  0  0  0  0  0  0  0  0  0  0  0
    4.7909    3.1035   -1.8361 H   0  0  0  0  0  0  0  0  0  0  0  0
    3.4905    4.3041   -2.0949 H   0  0  0  0  0  0  0  0  0  0  0  0
    3.3027    2.6360   -2.7277 H   0  0  0  0  0  0  0  0  0  0  0  0
    2.9980    2.8418   -0.5509 C   0  0  0  0  0  0  0  0  0  0  0  0
    3.3267    1.3808   -0.2975 C   0  0  2  0  0  3  0  0  0  0  0  0
    4.6293    0.8018   -0.3124 C   0  0  0  0  0  0  0  0  0  0  0  0
    5.5645    1.3405   -0.4786 H   0  0  0  0  0  0  0  0  0  0  0  0
    4.5079   -0.5640   -0.1053 C   0  0  0  0  0  0  0  0  0  0  0  0
    5.6356   -1.5874   -0.0449 C   0  0  0  0  0  0  0  0  0  0  0  0
    6.9669   -0.8475   -0.2993 C   0  0  0  0  0  0  0  0  0  0  0  0
    6.9940   -0.3752   -1.3015 H   0  0  0  0  0  0  0  0  0  0  0  0
    7.7999   -1.5755   -0.2473 H   0  0  0  0  0  0  0  0  0  0  0  0
    7.1574   -0.0680    0.4646 H   0  0  0  0  0  0  0  0  0  0  0  0
    5.7066   -2.2248    1.3633 C   0  0  0  0  0  0  0  0  0  0  0  0
    5.8494   -1.4445    2.1371 H   0  0  0  0  0  0  0  0  0  0  0  0
    6.5713   -2.9177    1.4096 H   0  0  0  0  0  0  0  0  0  0  0  0
    4.7888   -2.7921    1.5960 H   0  0  0  0  0  0  0  0  0  0  0  0
    5.4839   -2.6676   -1.1415 C   0  0  0  0  0  0  0  0  0  0  0  0
    4.6063   -3.3164   -0.9739 H   0  0  0  0  0  0  0  0  0  0  0  0
    6.3821   -3.3175   -1.1372 H   0  0  0  0  0  0  0  0  0  0  0  0
    5.4050   -2.2031   -2.1453 H   0  0  0  0  0  0  0  0  0  0  0  0
    2.3962   -2.0147    0.0260 C   0  0  0  0  0  0  0  0  0  0  0  0
    1.0528   -2.0624   -0.6746 C   0  0  1  0  0  3  0  0  0  0  0  0
    0.7629   -3.2375   -1.3850 C   0  0  0  0  0  0  0  0  0  0  0  0
    1.4880   -4.0615   -1.3623 H   0  0  0  0  0  0  0  0  0  0  0  0
   -0.4402   -3.3169   -2.0991 C   0  0  0  0  0  0  0  0  0  0  0  0
   -0.6880   -4.2230   -2.6710 H   0  0  0  0  0  0  0  0  0  0  0  0
   -1.3223   -2.2326   -2.0741 C   0  0  0  0  0  0  0  0  0  0  0  0
   -2.2771   -2.2521   -2.6138 H   0  0  0  0  0  0  0  0  0  0  0  0
   -0.9932   -1.1001   -1.3092 C   0  0  0  0  0  0  0  0  0  0  0  0
   -1.7874    0.1938   -1.3582 C   0  0  0  0  0  0  0  0  0  0  0  0
   -2.6768    3.1376    0.1258 C   0  0  0  0  0  0  0  0  0  0  0  0
   -2.7641    2.8207    1.1829 H   0  0  0  0  0  0  0  0  0  0  0  0
   -2.6583    4.2460    0.0844 H   0  0  0  0  0  0  0  0  0  0  0  0
   -1.7102    2.7647   -0.2553 H   0  0  0  0  0  0  0  0  0  0  0  0
   -3.7217    3.0027   -2.1981 C   0  0  0  0  0  0  0  0  0  0  0  0
   -2.8005    2.5745   -2.6320 H   0  0  0  0  0  0  0  0  0  0  0  0
   -3.6645    4.1065   -2.2905 H   0  0  0  0  0  0  0  0  0  0  0  0
   -4.5954    2.6553   -2.7865 H   0  0  0  0  0  0  0  0  0  0  0  0
   -5.1543    3.2908   -0.1694 C   0  0  0  0  0  0  0  0  0  0  0  0
   -6.0581    2.9568   -0.7178 H   0  0  0  0  0  0  0  0  0  0  0  0
   -5.0699    4.3884   -0.2938 H   0  0  0  0  0  0  0  0  0  0  0  0
   -5.2999    3.0870    0.9099 H   0  0  0  0  0  0  0  0  0  0  0  0
   -3.8736    2.6191   -0.7085 C   0  0  0  0  0  0  0  0  0  0  0  0
   -4.0268    1.1142   -0.5480 C   0  0  0  0  0  0  0  0  0  0  0  0
   -5.0614    0.4208    0.0539 C   0  0  0  0  0  0  0  0  0  0  0  0
   -5.9590    0.8636    0.4933 H   0  0  0  0  0  0  0  0  0  0  0  0
   -4.7167   -0.9730    0.0185 C   0  0  0  0  0  0  0  0  0  0  0  0
   -5.4710   -2.1344    0.6330 C   0  0  0  0  0  0  0  0  0  0  0  0
   -5.3995   -1.9651    2.1696 C   0  0  0  0  0  0  0  0  0  0  0  0
   -4.3455   -1.9395    2.5113 H   0  0  0  0  0  0  0  0  0  0  0  0
   -5.9168   -2.8075    2.6735 H   0  0  0  0  0  0  0  0  0  0  0  0
   -5.8831   -1.0221    2.4952 H   0  0  0  0  0  0  0  0  0  0  0  0
   -6.9414   -2.1080    0.1685 C   0  0  0  0  0  0  0  0  0  0  0  0
   -7.4439   -1.1610    0.4517 H   0  0  0  0  0  0  0  0  0  0  0  0
   -7.5060   -2.9400    0.6367 H   0  0  0  0  0  0  0  0  0  0  0  0
   -7.0162   -2.2181   -0.9323 H   0  0  0  0  0  0  0  0  0  0  0  0
   -4.8158   -3.4666    0.2327 C   0  0  0  0  0  0  0  0  0  0  0  0
   -4.8348   -3.6074   -0.8665 H   0  0  0  0  0  0  0  0  0  0  0  0
   -5.3580   -4.3118    0.7025 H   0  0  0  0  0  0  0  0  0  0  0  0
   -3.7580   -3.5007    0.5569 H   0  0  0  0  0  0  0  0  0  0  0  0
  2 47  2  0  0  0  0
  3  4  1  0  0  0  0
  4 38  1  0  0  0  0
  6  7  1  0  0  0  0
  6 61  1  0  0  0  0
  7 64  2  0  0  0  0
  8 20  1  0  0  0  0
  8 11  1  0  0  0  0
  9  8  1  0  0  0  0
 10  8  1  0  0  0  0
 12 15  1  0  0  0  0
 12 13  1  0  0  0  0
 14 12  1  0  0  0  0
 16 17  1  0  0  0  0
 16 20  1  0  0  0  0
 18 16  1  0  0  0  0
 19 16  1  0  0  0  0
 20 12  1  0  0  0  0
 21 20  1  6  0  0  0
 21  3  1  0  0  0  0
 22 21  1  0  0  0  0
 22 24  2  0  0  0  0
 23 22  1  0  0  0  0
 24 25  1  0  0  0  0
 24  4  1  0  0  0  0
 25 30  1  0  0  0  0
 26 28  1  0  0  0  0
 26 25  1  0  0  0  0
 26 29  1  0  0  0  0
 27 26  1  0  0  0  0
 30 32  1  0  0  0  0
 30 33  1  0  0  0  0
 30 31  1  0  0  0  0
 34 36  1  0  0  0  0
 34 35  1  0  0  0  0
 34 25  1  0  0  0  0
 37 34  1  0  0  0  0
 38  1  2  0  0  0  0
 39  5  1  0  0  0  0
 39 38  1  1  0  0  0
 40 41  1  0  0  0  0
 40 39  1  0  0  0  0
 42 44  1  0  0  0  0
 42 40  2  0  0  0  0
 43 42  1  0  0  0  0
 44 46  2  0  0  0  0
 45 44  1  0  0  0  0
 46  5  1  0  0  0  0
 47 46  1  0  0  0  0
 47  6  1  0  0  0  0
 48 49  1  0  0  0  0
 50 48  1  0  0  0  0
 51 48  1  0  0  0  0
 52 60  1  0  0  0  0
 53 52  1  0  0  0  0
 54 52  1  0  0  0  0
 55 52  1  0  0  0  0
 56 59  1  0  0  0  0
 57 56  1  0  0  0  0
 58 56  1  0  0  0  0
 60 61  1  0  0  0  0
 60 56  1  0  0  0  0
 60 48  1  0  0  0  0
 61 62  2  0  0  0  0
 62 63  1  0  0  0  0
 64 62  1  0  0  0  0
 64 65  1  0  0  0  0
 65 66  1  0  0  0  0
 66 69  1  0  0  0  0
 66 67  1  0  0  0  0
 66 68  1  0  0  0  0
 70 71  1  0  0  0  0
 70 65  1  0  0  0  0
 70 72  1  0  0  0  0
 73 70  1  0  0  0  0
 74 77  1  0  0  0  0
 74 65  1  0  0  0  0
 74 76  1  0  0  0  0
 75 74  1  0  0  0  0
M  END
