1,3
q = 0.0, confidence = 0.994

 18 17  0  0  0  0  0  0  0  0999 V2000
   -2.1944   -0.0429   -0.3128 N   0  0  0  0  0  0  0  0  0  0  0  0
   -2.2664   -0.0765   -1.3436 H   0  0  0  0  0  0  0  0  0  0  0  0
   -0.4243   -2.1406    0.2700 N   0  0  0  0  0  0  0  0  0  0  0  0
    0.2539   -2.7454   -0.2145 H   0  0  0  0  0  0  0  0  0  0  0  0
   -0.3253   -2.3271    1.2805 H   0  0  0  0  0  0  0  0  0  0  0  0
   -2.9365    1.1611    0.1632 C   0  0  0  0  0  0  0  0  0  0  0  0
   -2.4658    2.0267   -0.3456 H   0  0  0  0  0  0  0  0  0  0  0  0
   -2.7174    1.2594    1.2457 H   0  0  0  0  0  0  0  0  0  0  0  0
   -4.4362    1.1487   -0.1125 C   0  0  0  0  0  0  0  0  0  0  0  0
   -4.6566    0.9971   -1.1896 H   0  0  0  0  0  0  0  0  0  0  0  0
   -4.8720    2.1242    0.1791 H   0  0  0  0  0  0  0  0  0  0  0  0
   -4.9700    0.3709    0.4676 H   0  0  0  0  0  0  0  0  0  0  0  0
   -2.7327   -1.3259    0.2229 C   0  0  0  0  0  0  0  0  0  0  0  0
   -2.7759   -1.2277    1.3274 H   0  0  0  0  0  0  0  0  0  0  0  0
   -3.7613   -1.5236   -0.1418 H   0  0  0  0  0  0  0  0  0  0  0  0
   -1.8081   -2.4619   -0.1827 C   0  0  0  0  0  0  0  0  0  0  0  0
   -1.7795   -2.5603   -1.2869 H   0  0  0  0  0  0  0  0  0  0  0  0
   -2.1648   -3.4261    0.2339 H   0  0  0  0  0  0  0  0  0  0  0  0
  1  6  1  0  0  0  0
  1 13  1  0  0  0  0
  2  1  1  0  0  0  0
  3  5  1  0  0  0  0
  4  3  1  0  0  0  0
  6  8  1  0  0  0  0
  7  6  1  0  0  0  0
  9  6  1  0  0  0  0
  9 11  1  0  0  0  0
  9 12  1  0  0  0  0
 10  9  1  0  0  0  0
 13 14  1  0  0  0  0
 15 13  1  0  0  0  0
 16 13  1  0  0  0  0
 16 18  1  0  0  0  0
 16  3  1  0  0  0  0
 17 16  1  0  0  0  0
M  END
