29,30
q = 0.0, confidence = 1.0

 31 33  0  0  1  0  0  0  0  0999 V2000
    3.2752    0.4555   -1.7641 C   0  0  0  0  0  3  0  0  0  0  0  0
    3.0830   -0.3118   -2.5340 H   0  0  0  0  0  0  0  0  0  0  0  0
    4.5648    0.9204   -1.4726 C   0  0  0  0  0  0  0  0  0  0  0  0
    5.4300    0.5266   -2.0243 H   0  0  0  0  0  0  0  0  0  0  0  0
    4.7110    1.8910   -0.4700 C   0  0  0  0  0  0  0  0  0  0  0  0
    5.7069    2.2750   -0.2023 H   0  0  0  0  0  0  0  0  0  0  0  0
    3.5756    2.3643    0.1937 C   0  0  0  0  0  0  0  0  0  0  0  0
    3.6604    3.1128    0.9925 H   0  0  0  0  0  0  0  0  0  0  0  0
    2.3110    1.8512   -0.1605 C   0  0  0  0  0  0  0  0  0  0  0  0
    1.0754    2.3331    0.4684 C   0  0  1  0  0  3  0  0  0  0  0  0
    0.8649    3.4492    1.3253 C   0  0  0  0  0  0  0  0  0  0  0  0
    1.6033    4.1593    1.7081 H   0  0  0  0  0  0  0  0  0  0  0  0
   -0.5101    3.4835    1.5248 C   0  0  0  0  0  0  0  0  0  0  0  0
   -1.1496    4.1759    2.0817 H   0  0  0  0  0  0  0  0  0  0  0  0
   -2.4438    2.0757    0.7127 C   0  0  0  0  0  0  0  0  0  0  0  0
   -2.5957    1.7219   -0.3260 H   0  0  0  0  0  0  0  0  0  0  0  0
   -3.0321    3.0093    0.7981 H   0  0  0  0  0  0  0  0  0  0  0  0
   -2.9111    1.0352    1.7107 C   0  0  0  0  0  0  0  0  0  0  0  0
   -4.2928    0.7961    1.8486 C   0  0  0  0  0  0  0  0  0  0  0  0
   -5.0083    1.3842    1.2522 H   0  0  0  0  0  0  0  0  0  0  0  0
   -4.7604   -0.1861    2.7320 C   0  0  0  0  0  0  0  0  0  0  0  0
   -5.8427   -0.3610    2.8302 H   0  0  0  0  0  0  0  0  0  0  0  0
   -3.8529   -0.9447    3.4905 C   0  0  0  0  0  0  0  0  0  0  0  0
   -4.2208   -1.7150    4.1851 H   0  0  0  0  0  0  0  0  0  0  0  0
   -2.4762   -0.7081    3.3620 C   0  0  0  0  0  0  0  0  0  0  0  0
   -1.7542   -1.2984    3.9464 H   0  0  0  0  0  0  0  0  0  0  0  0
   -2.0100    0.2769    2.4779 C   0  0  0  0  0  0  0  0  0  0  0  0
   -0.9309    0.4518    2.3683 H   0  0  0  0  0  0  0  0  0  0  0  0
    2.1844    0.9078   -1.1238 N   0  0  0  0  0  2  0  0  0  0  0  0
   -0.0968    1.7254    0.1966 N   0  0  0  0  0  2  0  0  0  0  0  0
   -1.0413    2.4369    0.8261 N   0  0  0  0  0  0  0  0  0  0  0  0
  1  3  1  0  0  0  0
  1 29  1  0  0  0  0
  2  1  1  0  0  0  0
  3  5  2  0  0  0  0
  4  3  1  0  0  0  0
  5  6  1  0  0  0  0
  5  7  1  0  0  0  0
  7  8  1  0  0  0  0
  9  7  2  0  0  0  0
 10  9  1  6  0  0  0
 10 11  1  0  0  0  0
 11 13  2  0  0  0  0
 11 12  1  0  0  0  0
 13 14  1  0  0  0  0
 15 17  1  0  0  0  0
 15 31  1  0  0  0  0
 15 18  1  0  0  0  0
 16 15  1  0  0  0  0
 18 19  2  0  0  0  0
 18 27  1  0  0  0  0
 19 21  1  0  0  0  0
 20 19  1  0  0  0  0
 21 22  1  0  0  0  0
 21 23  2  0  0  0  0
 23 24  1  0  0  0  0
 25 23  1  0  0  0  0
 25 26  1  0  0  0  0
 27 25  2  0  0  0  0
 28 27  1  0  0  0  0
 29  9  1  0  0  0  0
 30 10  1  0  0  0  0
 30 31  1  0  0  0  0
 31 13  1  0  0  0  0
M  END
