17,19
q = 0.0, confidence = 0.988

 20 22  0  0  0  0  0  0  0  0999 V2000
   -2.8078    0.0330   -0.9680 C   0  0  0  0  0  0  0  0  0  0  0  0
   -1.5335   -1.3282   -2.2982 C   0  0  0  0  0  0  0  0  0  0  0  0
   -0.5693   -1.5341   -2.7912 H   0  0  0  0  0  0  0  0  0  0  0  0
   -2.6152   -2.2444   -2.3875 C   0  0  0  0  0  0  0  0  0  0  0  0
   -2.4980   -3.1825   -2.9580 H   0  0  0  0  0  0  0  0  0  0  0  0
   -3.9051   -0.8787   -1.0831 C   0  0  0  0  0  0  0  0  0  0  0  0
   -5.1467   -0.5941   -0.4132 C   0  0  0  0  0  0  0  0  0  0  0  0
   -5.9590   -1.3245   -0.5376 H   0  0  0  0  0  0  0  0  0  0  0  0
   -5.2882    0.5331    0.3573 C   0  0  0  0  0  0  0  0  0  0  0  0
   -6.2218    0.7676    0.8880 H   0  0  0  0  0  0  0  0  0  0  0  0
   -4.1957    1.4555    0.5262 C   0  0  0  0  0  0  0  0  0  0  0  0
   -2.9472    1.2108   -0.1325 C   0  0  0  0  0  0  0  0  0  0  0  0
   -2.0805    3.1100    0.8354 C   0  0  0  0  0  0  0  0  0  0  0  0
   -1.2286    3.7944    0.9775 H   0  0  0  0  0  0  0  0  0  0  0  0
   -3.3226    3.3471    1.4730 C   0  0  0  0  0  0  0  0  0  0  0  0
   -3.4471    4.2329    2.1210 H   0  0  0  0  0  0  0  0  0  0  0  0
   -1.6407   -0.1951   -1.6138 N   0  0  0  0  0  2  0  0  0  0  0  0
   -3.7905   -2.0187   -1.8144 N   0  0  0  0  0  0  0  0  0  0  0  0
   -1.8930    2.0520    0.0432 N   0  0  0  0  0  2  0  0  0  0  0  0
   -4.3674    2.5401    1.3285 N   0  0  0  0  0  0  0  0  0  0  0  0
  1 12  2  0  0  0  0
  2 17  1  0  0  0  0
  3  2  1  0  0  0  0
  4  2  2  0  0  0  0
  4 18  1  0  0  0  0
  5  4  1  0  0  0  0
  6  1  1  0  0  0  0
  6  7  1  0  0  0  0
  7  9  2  0  0  0  0
  8  7  1  0  0  0  0
  9 11  1  0  0  0  0
  9 10  1  0  0  0  0
 11 20  2  0  0  0  0
 12 19  1  0  0  0  0
 12 11  1  0  0  0  0
 13 14  1  0  0  0  0
 13 15  2  0  0  0  0
 15 16  1  0  0  0  0
 17  1  1  0  0  0  0
 18  6  2  0  0  0  0
 19 13  1  0  0  0  0
 20 15  1  0  0  0  0
M  END
