1,2
q = 0.0, confidence = 0.984

 74 77  0  0  1  0  0  0  0  0999 V2000
   -1.3342    0.2796   -0.5129 N   0  0  0  0  0  2  0  0  0  0  0  0
    1.1350    0.0512   -0.1038 N   0  0  0  0  0  2  0  0  0  0  0  0
   -2.4226   -2.0870   -1.7849 C   0  0  0  0  0  0  0  0  0  0  0  0
   -1.3576   -1.8837   -1.9825 H   0  0  0  0  0  0  0  0  0  0  0  0
   -2.9595   -3.3413   -2.0894 C   0  0  0  0  0  0  0  0  0  0  0  0
   -2.3072   -4.1214   -2.5086 H   0  0  0  0  0  0  0  0  0  0  0  0
   -4.3162   -3.6026   -1.8413 C   0  0  0  0  0  0  0  0  0  0  0  0
   -4.7378   -4.5933   -2.0693 H   0  0  0  0  0  0  0  0  0  0  0  0
   -5.1353   -2.5989   -1.2972 C   0  0  0  0  0  0  0  0  0  0  0  0
   -6.1965   -2.8046   -1.0917 H   0  0  0  0  0  0  0  0  0  0  0  0
   -4.6002   -1.3418   -0.9919 C   0  0  0  0  0  0  0  0  0  0  0  0
   -5.2351   -0.5754   -0.5228 H   0  0  0  0  0  0  0  0  0  0  0  0
   -3.2334   -1.0772   -1.2191 C   0  0  0  0  0  0  0  0  0  0  0  0
   -2.6374    0.2367   -0.9094 C   0  0  2  0  0  3  0  0  0  0  0  0
   -3.3487    1.4369   -1.0953 C   0  0  0  0  0  0  0  0  0  0  0  0
   -4.3995    1.3791   -1.4136 H   0  0  0  0  0  0  0  0  0  0  0  0
   -2.7334    2.6895   -0.9112 C   0  0  0  0  0  0  0  0  0  0  0  0
   -1.3545    2.6946   -0.6419 C   0  0  0  0  0  0  0  0  0  0  0  0
   -0.8042    3.6404   -0.5460 H   0  0  0  0  0  0  0  0  0  0  0  0
   -0.6691    1.4776   -0.4930 C   0  0  0  0  0  0  0  0  0  0  0  0
   -3.5323    3.9656   -0.9901 C   0  0  0  0  0  0  0  0  0  0  0  0
   -4.2175    3.9148   -1.8621 H   0  0  0  0  0  0  0  0  0  0  0  0
   -2.8477    4.8214   -1.1674 H   0  0  0  0  0  0  0  0  0  0  0  0
   -4.3611    4.2276    0.2852 C   0  0  0  0  0  0  0  0  0  0  0  0
   -4.9908    5.1281    0.1151 H   0  0  0  0  0  0  0  0  0  0  0  0
   -5.0704    3.3835    0.4367 H   0  0  0  0  0  0  0  0  0  0  0  0
   -3.5227    4.4200    1.5520 C   0  0  0  0  0  0  0  0  0  0  0  0
   -2.8047    5.2552    1.3892 H   0  0  0  0  0  0  0  0  0  0  0  0
   -2.8982    3.5159    1.7227 H   0  0  0  0  0  0  0  0  0  0  0  0
   -4.3692    4.6985    2.7941 C   0  0  0  0  0  0  0  0  0  0  0  0
   -3.7387    4.8353    3.6952 H   0  0  0  0  0  0  0  0  0  0  0  0
   -5.0673    3.8607    3.0002 H   0  0  0  0  0  0  0  0  0  0  0  0
   -4.9814    5.6163    2.6707 H   0  0  0  0  0  0  0  0  0  0  0  0
    0.7680    1.3184   -0.2848 C   0  0  2  0  0  3  0  0  0  0  0  0
    1.7023    2.4666   -0.3860 C   0  0  0  0  0  0  0  0  0  0  0  0
    1.6075    3.3115   -1.5189 C   0  0  0  0  0  0  0  0  0  0  0  0
    0.8521    3.1018   -2.2904 H   0  0  0  0  0  0  0  0  0  0  0  0
    2.4970    4.3803   -1.6929 C   0  0  0  0  0  0  0  0  0  0  0  0
    2.4152    5.0153   -2.5878 H   0  0  0  0  0  0  0  0  0  0  0  0
    3.4961    4.6276   -0.7390 C   0  0  0  0  0  0  0  0  0  0  0  0
    4.1965    5.4653   -0.8754 H   0  0  0  0  0  0  0  0  0  0  0  0
    3.6016    3.7940    0.3860 C   0  0  0  0  0  0  0  0  0  0  0  0
    4.3840    3.9763    1.1376 H   0  0  0  0  0  0  0  0  0  0  0  0
    2.7196    2.7206    0.5614 C   0  0  0  0  0  0  0  0  0  0  0  0
    2.8221    2.0726    1.4399 H   0  0  0  0  0  0  0  0  0  0  0  0
    2.4948   -0.2733    0.2033 C   0  0  0  0  0  0  0  0  0  0  0  0
    3.4621   -0.2725   -0.8315 C   0  0  0  0  0  0  0  0  0  0  0  0
    4.7973   -0.5344   -0.4735 C   0  0  0  0  0  0  0  0  0  0  0  0
    5.5697   -0.5409   -1.2571 H   0  0  0  0  0  0  0  0  0  0  0  0
    5.1566   -0.7929    0.8541 C   0  0  0  0  0  0  0  0  0  0  0  0
    6.2084   -0.9893    1.1116 H   0  0  0  0  0  0  0  0  0  0  0  0
    4.1722   -0.8270    1.8509 C   0  0  0  0  0  0  0  0  0  0  0  0
    4.4544   -1.0602    2.8887 H   0  0  0  0  0  0  0  0  0  0  0  0
    2.8215   -0.5848    1.5497 C   0  0  0  0  0  0  0  0  0  0  0  0
    1.7563   -0.6630    2.6379 C   0  0  0  0  0  0  0  0  0  0  0  0
    0.7668   -0.6551    2.1314 H   0  0  0  0  0  0  0  0  0  0  0  0
    1.8263   -1.9858    3.4134 C   0  0  0  0  0  0  0  0  0  0  0  0
    1.7919   -2.8453    2.7160 H   0  0  0  0  0  0  0  0  0  0  0  0
    0.9563   -2.0676    4.0952 H   0  0  0  0  0  0  0  0  0  0  0  0
    2.7489   -2.0595    4.0265 H   0  0  0  0  0  0  0  0  0  0  0  0
    1.7967    0.5481    3.5847 C   0  0  0  0  0  0  0  0  0  0  0  0
    1.6084    1.5022    3.0518 H   0  0  0  0  0  0  0  0  0  0  0  0
    2.7803    0.6321    4.0933 H   0  0  0  0  0  0  0  0  0  0  0  0
    1.0181    0.4487    4.3681 H   0  0  0  0  0  0  0  0  0  0  0  0
    3.0804   -0.0710   -2.2918 C   0  0  0  0  0  0  0  0  0  0  0  0
    2.0455    0.3250   -2.3201 H   0  0  0  0  0  0  0  0  0  0  0  0
    3.0590   -1.4300   -3.0172 C   0  0  0  0  0  0  0  0  0  0  0  0
    2.3856   -2.1410   -2.4976 H   0  0  0  0  0  0  0  0  0  0  0  0
    4.0734   -1.8799   -3.0396 H   0  0  0  0  0  0  0  0  0  0  0  0
    2.7159   -1.3098   -4.0658 H   0  0  0  0  0  0  0  0  0  0  0  0
    3.9819    0.9471   -3.0059 C   0  0  0  0  0  0  0  0  0  0  0  0
    4.0051    1.9166   -2.4696 H   0  0  0  0  0  0  0  0  0  0  0  0
    3.6150    1.1313   -4.0363 H   0  0  0  0  0  0  0  0  0  0  0  0
    5.0253    0.5800   -3.0934 H   0  0  0  0  0  0  0  0  0  0  0  0
  1 20  1  0  0  0  0
  2 46  1  0  0  0  0
  3 13  1  0  0  0  0
  4  3  1  0  0  0  0
  5  7  1  0  0  0  0
  5  3  2  0  0  0  0
  6  5  1  0  0  0  0
  7  9  2  0  0  0  0
  8  7  1  0  0  0  0
  9 10  1  0  0  0  0
  9 11  1  0  0  0  0
 11 12  1  0  0  0  0
 13 11  2  0  0  0  0
 14 13  1  6  0  0  0
 14  1  1  0  0  0  0
 15 17  2  0  0  0  0
 15 14  1  0  0  0  0
 16 15  1  0  0  0  0
 17 18  1  0  0  0  0
 18 19  1  0  0  0  0
 18 20  2  0  0  0  0
 20 34  1  0  0  0  0
 21 17  1  0  0  0  0
 21 24  1  0  0  0  0
 22 21  1  0  0  0  0
 23 21  1  0  0  0  0
 24 26  1  0  0  0  0
 24 27  1  0  0  0  0
 25 24  1  0  0  0  0
 27 29  1  0  0  0  0
 27 30  1  0  0  0  0
 28 27  1  0  0  0  0
 30 32  1  0  0  0  0
 30 31  1  0  0  0  0
 33 30  1  0  0  0  0
 34  2  1  6  0  0  0
 35 34  1  0  0  0  0
 35 44  1  0  0  0  0
 36 35  2  0  0  0  0
 37 36  1  0  0  0  0
 38 36  1  0  0  0  0
 38 40  2  0  0  0  0
 39 38  1  0  0  0  0
 40 42  1  0  0  0  0
 41 40  1  0  0  0  0
 42 44  2  0  0  0  0
 42 43  1  0  0  0  0
 44 45  1  0  0  0  0
 46 54  1  0  0  0  0
 47 48  1  0  0  0  0
 47 46  2  0  0  0  0
 48 50  2  0  0  0  0
 49 48  1  0  0  0  0
 50 51  1  0  0  0  0
 50 52  1  0  0  0  0
 52 53  1  0  0  0  0
 54 52  2  0  0  0  0
 54 55  1  0  0  0  0
 55 57  1  0  0  0  0
 55 61  1  0  0  0  0
 56 55  1  0  0  0  0
 57 60  1  0  0  0  0
 57 59  1  0  0  0  0
 58 57  1  0  0  0  0
 61 63  1  0  0  0  0
 61 64  1  0  0  0  0
 62 61  1  0  0  0  0
 65 47  1  0  0  0  0
 66 65  1  0  0  0  0
 67 68  1  0  0  0  0
 67 65  1  0  0  0  0
 69 67  1  0  0  0  0
 70 67  1  0  0  0  0
 71 72  1  0  0  0  0
 71 65  1  0  0  0  0
 73 71  1  0  0  0  0
 74 71  1  0  0  0  0
M  END
