1,9
q = -1.0, confidence = 0.022

 19 18  0  0  1  0  0  0  0  0999 V2000
   -0.1254    1.7685   -0.0196 N   0  0  0  0  0  2  0  0  0  0  0  0
   -0.8257    2.5153    0.0222 H   0  0  0  0  0  0  0  0  0  0  0  0
    1.1792    2.0680    0.0022 C   0  0  1  0  0  3  0  0  0  0  0  0
    1.5312    3.3951    0.0716 N   0  0  0  0  0  0  0  0  0  0  0  0
    0.8519    4.1159   -0.1653 H   0  0  0  0  0  0  0  0  0  0  0  0
    2.5131    3.5979   -0.1095 H   0  0  0  0  0  0  0  0  0  0  0  0
    2.1084   -0.1236   -0.0071 C   0  0  0  0  0  0  0  0  0  0  0  0
    2.2098    1.2161   -0.0231 N   0  0  0  0  0  0  0  0  0  0  0  0
    0.9688   -0.8285    0.0600 N   0  0  0  0  0  2  0  0  0  0  0  0
    0.9916   -1.8504    0.0966 H   0  0  0  0  0  0  0  0  0  0  0  0
    3.2919   -0.8299   -0.0651 N   0  0  0  0  0  0  0  0  0  0  0  0
    4.5786   -0.1666    0.0543 C   0  0  0  0  0  0  0  0  0  0  0  0
    5.2408   -0.4440   -0.7935 H   0  0  0  0  0  0  0  0  0  0  0  0
    5.0890   -0.4450    1.0032 H   0  0  0  0  0  0  0  0  0  0  0  0
    4.4078    0.9229    0.0427 H   0  0  0  0  0  0  0  0  0  0  0  0
    3.2830   -2.2799   -0.0769 C   0  0  0  0  0  0  0  0  0  0  0  0
    4.2978   -2.6435   -0.3215 H   0  0  0  0  0  0  0  0  0  0  0  0
    2.5940   -2.6741   -0.8542 H   0  0  0  0  0  0  0  0  0  0  0  0
    2.9913   -2.7192    0.9056 H   0  0  0  0  0  0  0  0  0  0  0  0
  1  3  1  0  0  0  0
  1  2  1  0  0  0  0
  3  8  1  1  0  0  0
  3  4  1  0  0  0  0
  5  4  1  0  0  0  0
  6  4  1  0  0  0  0
  7  9  1  0  0  0  0
  8  7  2  0  0  0  0
  9 10  1  0  0  0  0
 11  7  1  0  0  0  0
 11 12  1  0  0  0  0
 12 14  1  0  0  0  0
 13 12  1  0  0  0  0
 15 12  1  0  0  0  0
 16 11  1  0  0  0  0
 16 19  1  0  0  0  0
 17 16  1  0  0  0  0
 18 16  1  0  0  0  0
M  END
