2,14
q = 0.0, confidence = 0.998

 28 30  0  0  0  0  0  0  0  0999 V2000
    1.0667    2.7720    0.3529 N   0  0  0  0  0  0  0  0  0  0  0  0
    1.6742    1.7649   -0.3179 N   0  0  0  0  0  2  0  0  0  0  0  0
    2.5108    2.3395   -1.2001 C   0  0  0  0  0  3  0  0  0  0  0  0
    3.0758    1.7123   -1.8977 H   0  0  0  0  0  0  0  0  0  0  0  0
    2.4535    3.7440   -1.0805 C   0  0  0  0  0  0  0  0  0  0  0  0
    3.0131    4.4870   -1.6568 H   0  0  0  0  0  0  0  0  0  0  0  0
    1.5136    3.9856   -0.0815 C   0  0  0  0  0  0  0  0  0  0  0  0
    1.1347    4.9175    0.3522 H   0  0  0  0  0  0  0  0  0  0  0  0
    0.0754    2.4791    1.3792 C   0  0  0  0  0  0  0  0  0  0  0  0
   -0.3278    3.4401    1.7444 H   0  0  0  0  0  0  0  0  0  0  0  0
    0.5819    1.9749    2.2311 H   0  0  0  0  0  0  0  0  0  0  0  0
   -2.8477    0.5538    0.2890 N   0  0  0  0  0  0  0  0  0  0  0  0
   -1.8250   -0.2422   -0.0613 N   0  0  0  0  0  2  0  0  0  0  0  0
   -0.7335    0.3916    0.2881 N   0  0  0  0  0  2  0  0  0  0  0  0
   -1.0219    1.6022    0.8599 C   0  0  0  0  0  0  0  0  0  0  0  0
   -2.4032    1.7173    0.8601 C   0  0  0  0  0  0  0  0  0  0  0  0
   -3.0783    2.4904    1.2367 H   0  0  0  0  0  0  0  0  0  0  0  0
   -4.1993    0.1441    0.0534 C   0  0  0  0  0  0  0  0  0  0  0  0
   -4.5063   -1.2268    0.0371 C   0  0  0  0  0  0  0  0  0  0  0  0
   -3.7110   -1.9658    0.2011 H   0  0  0  0  0  0  0  0  0  0  0  0
   -5.8308   -1.6211   -0.1903 C   0  0  0  0  0  0  0  0  0  0  0  0
   -6.0807   -2.6920   -0.2050 H   0  0  0  0  0  0  0  0  0  0  0  0
   -6.8349   -0.6598   -0.3906 C   0  0  0  0  0  0  0  0  0  0  0  0
   -7.8734   -0.9767   -0.5652 H   0  0  0  0  0  0  0  0  0  0  0  0
   -6.5117    0.7062   -0.3748 C   0  0  0  0  0  0  0  0  0  0  0  0
   -7.2918    1.4620   -0.5465 H   0  0  0  0  0  0  0  0  0  0  0  0
   -5.1895    1.1177   -0.1598 C   0  0  0  0  0  0  0  0  0  0  0  0
   -4.9328    2.1864   -0.1878 H   0  0  0  0  0  0  0  0  0  0  0  0
  1  9  1  0  0  0  0
  2  1  1  0  0  0  0
  3  5  1  0  0  0  0
  3  2  1  0  0  0  0
  4  3  1  0  0  0  0
  5  7  2  0  0  0  0
  6  5  1  0  0  0  0
  7  8  1  0  0  0  0
  7  1  1  0  0  0  0
  9 10  1  0  0  0  0
  9 11  1  0  0  0  0
 12 16  1  0  0  0  0
 13 14  1  0  0  0  0
 13 12  1  0  0  0  0
 14 15  1  0  0  0  0
 15 16  2  0  0  0  0
 15  9  1  0  0  0  0
 16 17  1  0  0  0  0
 18 12  1  0  0  0  0
 19 18  1  0  0  0  0
 19 20  1  0  0  0  0
 21 19  2  0  0  0  0
 22 21  1  0  0  0  0
 23 25  2  0  0  0  0
 23 21  1  0  0  0  0
 24 23  1  0  0  0  0
 25 27  1  0  0  0  0
 26 25  1  0  0  0  0
 27 18  2  0  0  0  0
 28 27  1  0  0  0  0
M  END
