1,11
q = -1.0, confidence = 0.0

 25 26  0  0  1  0  0  0  0  0999 V2000
   -1.7633    0.5830    0.8625 N   0  0  0  0  0  2  0  0  0  0  0  0
   -2.0583    1.3646    2.0755 C   0  0  0  0  0  0  0  0  0  0  0  0
   -3.4416    0.8663    2.5197 C   0  0  0  0  0  0  0  0  0  0  0  0
   -4.0857    0.4476    1.1890 C   0  0  0  0  0  0  0  0  0  0  0  0
   -2.8751    0.0743    0.3586 C   0  0  0  0  0  0  0  0  0  0  0  0
   -2.9400   -0.7394   -0.8064 C   0  0  0  0  0  0  0  0  0  0  0  0
   -1.7637   -1.1567   -1.4876 C   0  0  2  0  0  3  0  0  0  0  0  0
   -1.7748   -2.1434   -2.6374 C   0  0  0  0  0  0  0  0  0  0  0  0
   -0.3298   -2.6623   -2.6293 C   0  0  0  0  0  0  0  0  0  0  0  0
    0.4539   -1.4818   -2.0345 C   0  0  0  0  0  0  0  0  0  0  0  0
   -0.5295   -0.7635   -1.2059 N   0  0  0  0  0  2  0  0  0  0  0  0
   -4.2034   -1.2287   -1.2407 C   0  0  0  0  0  0  0  0  0  0  0  0
   -5.2504   -1.6363   -1.5965 N   0  0  0  0  0  0  0  0  0  0  0  0
   -1.2552    1.2348    2.8277 H   0  0  0  0  0  0  0  0  0  0  0  0
   -2.0847    2.4503    1.8294 H   0  0  0  0  0  0  0  0  0  0  0  0
   -4.0189    1.6290    3.0760 H   0  0  0  0  0  0  0  0  0  0  0  0
   -3.3307   -0.0203    3.1788 H   0  0  0  0  0  0  0  0  0  0  0  0
   -4.6059    1.2971    0.6924 H   0  0  0  0  0  0  0  0  0  0  0  0
   -4.8221   -0.3754    1.2622 H   0  0  0  0  0  0  0  0  0  0  0  0
   -2.0169   -1.5912   -3.5730 H   0  0  0  0  0  0  0  0  0  0  0  0
   -2.5515   -2.9227   -2.5190 H   0  0  0  0  0  0  0  0  0  0  0  0
   -0.2512   -3.5411   -1.9563 H   0  0  0  0  0  0  0  0  0  0  0  0
    0.0407   -2.9675   -3.6263 H   0  0  0  0  0  0  0  0  0  0  0  0
    0.8435   -0.8015   -2.8251 H   0  0  0  0  0  0  0  0  0  0  0  0
    1.3224   -1.7947   -1.4227 H   0  0  0  0  0  0  0  0  0  0  0  0
  1  2  1  0  0  0  0
  2  3  1  0  0  0  0
  2 14  1  0  0  0  0
  3 16  1  0  0  0  0
  3 17  1  0  0  0  0
  4 19  1  0  0  0  0
  4  3  1  0  0  0  0
  5  1  1  0  0  0  0
  5  4  1  0  0  0  0
  6  5  2  0  0  0  0
  7 11  1  0  0  0  0
  7  6  1  1  0  0  0
  8  9  1  0  0  0  0
  8 21  1  0  0  0  0
  8  7  1  0  0  0  0
  9 10  1  0  0  0  0
  9 22  1  0  0  0  0
 10 25  1  0  0  0  0
 10 11  1  0  0  0  0
 12  6  1  0  0  0  0
 13 12  3  0  0  0  0
 15  2  1  0  0  0  0
 18  4  1  0  0  0  0
 20  8  1  0  0  0  0
 23  9  1  0  0  0  0
 24 10  1  0  0  0  0
M  END
