6,7
q = 0.0, confidence = 0.97

 45 47  0  0  0  0  0  0  0  0999 V2000
    3.6642    2.9360    0.1707 S   0  0  0  0  0  0  0  0  0  0  0  0
    3.9221    3.7862    1.3446 O   0  0  0  0  0  0  0  0  0  0  0  0
    4.2005    3.2292   -1.1669 O   0  0  0  0  0  0  0  0  0  0  0  0
    6.0421   -0.4577    1.2819 O   0  0  0  0  0  0  0  0  0  0  0  0
    6.1142   -2.8540   -0.3393 O   0  0  0  0  0  0  0  0  0  0  0  0
   -4.3993    0.2887   -0.4469 N   0  0  0  0  0  2  0  0  0  0  0  0
   -2.0865    1.4711   -0.3616 N   0  0  0  0  0  2  0  0  0  0  0  0
    4.1723    1.3782    0.7067 N   0  0  0  0  0  0  0  0  0  0  0  0
    3.4129    0.1236   -1.1428 N   0  0  0  0  0  0  0  0  0  0  0  0
    4.4009   -1.9936   -1.6481 N   0  0  0  0  0  0  0  0  0  0  0  0
   -5.5846   -0.3396   -0.3540 C   0  0  0  0  0  0  0  0  0  0  0  0
   -5.5753   -1.3390    0.1030 H   0  0  0  0  0  0  0  0  0  0  0  0
   -6.7761    0.2505   -0.7965 C   0  0  0  0  0  0  0  0  0  0  0  0
   -7.7190   -0.3071   -0.7080 H   0  0  0  0  0  0  0  0  0  0  0  0
   -6.7424    1.5462   -1.3350 C   0  0  0  0  0  0  0  0  0  0  0  0
   -7.6642    2.0323   -1.6861 H   0  0  0  0  0  0  0  0  0  0  0  0
   -5.5159    2.2164   -1.3998 C   0  0  0  0  0  0  0  0  0  0  0  0
   -5.4428    3.2432   -1.7860 H   0  0  0  0  0  0  0  0  0  0  0  0
   -4.3574    1.5639   -0.9426 C   0  0  0  0  0  0  0  0  0  0  0  0
   -3.0439    2.1753   -0.8943 C   0  0  0  0  0  0  0  0  0  0  0  0
   -2.8748    3.2078   -1.2477 H   0  0  0  0  0  0  0  0  0  0  0  0
   -0.7642    1.9672   -0.2419 C   0  0  0  0  0  0  0  0  0  0  0  0
   -0.2131    2.1161    1.0480 C   0  0  0  0  0  0  0  0  0  0  0  0
   -0.8499    1.9192    1.9238 H   0  0  0  0  0  0  0  0  0  0  0  0
    1.1255    2.4963    1.1733 C   0  0  0  0  0  0  0  0  0  0  0  0
    1.5883    2.6287    2.1621 H   0  0  0  0  0  0  0  0  0  0  0  0
    1.8944    2.6672    0.0123 C   0  0  0  0  0  0  0  0  0  0  0  0
    1.3472    2.5650   -1.2711 C   0  0  0  0  0  0  0  0  0  0  0  0
    1.9961    2.7095   -2.1458 H   0  0  0  0  0  0  0  0  0  0  0  0
   -0.0058    2.2308   -1.4005 C   0  0  0  0  0  0  0  0  0  0  0  0
   -0.4644    2.1154   -2.3936 H   0  0  0  0  0  0  0  0  0  0  0  0
    4.2761    0.2647   -0.1181 C   0  0  0  0  0  0  0  0  0  0  0  0
    3.5411   -0.9935   -1.8657 C   0  0  0  0  0  0  0  0  0  0  0  0
    2.8599   -1.1065   -2.7287 H   0  0  0  0  0  0  0  0  0  0  0  0
    5.2459   -1.8669   -0.6158 C   0  0  0  0  0  0  0  0  0  0  0  0
    5.2551   -0.7073    0.2030 C   0  0  0  0  0  0  0  0  0  0  0  0
    7.4359   -0.7999    1.2276 C   0  0  0  0  0  0  0  0  0  0  0  0
    7.8955   -0.3318    2.1170 H   0  0  0  0  0  0  0  0  0  0  0  0
    7.9068   -0.3882    0.3099 H   0  0  0  0  0  0  0  0  0  0  0  0
    7.5839   -1.8960    1.2569 H   0  0  0  0  0  0  0  0  0  0  0  0
    6.1290   -3.9843   -1.2225 C   0  0  0  0  0  0  0  0  0  0  0  0
    5.1478   -4.4988   -1.2233 H   0  0  0  0  0  0  0  0  0  0  0  0
    6.9166   -4.6530   -0.8328 H   0  0  0  0  0  0  0  0  0  0  0  0
    6.3603   -3.6736   -2.2607 H   0  0  0  0  0  0  0  0  0  0  0  0
    4.8796    1.4467    1.4501 H   0  0  0  0  0  0  0  0  0  0  0  0
  1  8  1  0  0  0  0
  1  2  2  0  0  0  0
  3  1  2  0  0  0  0
  6 11  1  0  0  0  0
  7 22  1  0  0  0  0
  8 45  1  0  0  0  0
  9 32  1  0  0  0  0
 10 35  2  0  0  0  0
 11 12  1  0  0  0  0
 13 14  1  0  0  0  0
 13 11  2  0  0  0  0
 15 13  1  0  0  0  0
 16 15  1  0  0  0  0
 17 15  2  0  0  0  0
 17 19  1  0  0  0  0
 18 17  1  0  0  0  0
 19 20  2  0  0  0  0
 19  6  1  0  0  0  0
 20  7  1  0  0  0  0
 21 20  1  0  0  0  0
 22 23  1  0  0  0  0
 23 25  2  0  0  0  0
 23 24  1  0  0  0  0
 25 26  1  0  0  0  0
 27  1  1  0  0  0  0
 27 25  1  0  0  0  0
 28 27  2  0  0  0  0
 29 28  1  0  0  0  0
 30 28  1  0  0  0  0
 30 22  2  0  0  0  0
 31 30  1  0  0  0  0
 32 36  2  0  0  0  0
 32  8  1  0  0  0  0
 33 10  1  0  0  0  0
 33  9  2  0  0  0  0
 34 33  1  0  0  0  0
 35  5  1  0  0  0  0
 35 36  1  0  0  0  0
 36  4  1  0  0  0  0
 37 40  1  0  0  0  0
 37  4  1  0  0  0  0
 37 38  1  0  0  0  0
 39 37  1  0  0  0  0
 41 43  1  0  0  0  0
 41  5  1  0  0  0  0
 42 41  1  0  0  0  0
 44 41  1  0  0  0  0
M  END
