1,4
q = 0.0, confidence = 1.0

 27 26  0  0  0  0  0  0  0  0999 V2000
   -2.1074   -0.4356   -1.1515 N   0  0  0  0  0  0  0  0  0  0  0  0
   -2.9605    0.7821   -1.2144 C   0  0  0  0  0  0  0  0  0  0  0  0
   -2.7416    1.5872    0.0881 C   0  0  0  0  0  0  0  0  0  0  0  0
   -1.3473    2.0016    0.2745 N   0  0  0  0  0  0  0  0  0  0  0  0
   -2.5489    1.5978   -2.4498 C   0  0  0  0  0  0  0  0  0  0  0  0
   -4.4470    0.3958   -1.2907 C   0  0  0  0  0  0  0  0  0  0  0  0
   -1.1140    2.9215    1.4123 C   0  0  0  0  0  0  0  0  0  0  0  0
   -1.2425    2.1960    2.7524 C   0  0  0  0  0  0  0  0  0  0  0  0
    0.2497    3.5913    1.2427 C   0  0  0  0  0  0  0  0  0  0  0  0
   -1.9934   -0.8282   -2.0946 H   0  0  0  0  0  0  0  0  0  0  0  0
   -2.5855   -1.1584   -0.5777 H   0  0  0  0  0  0  0  0  0  0  0  0
   -1.0200    2.4678   -0.5846 H   0  0  0  0  0  0  0  0  0  0  0  0
   -3.0457    0.9552    0.9483 H   0  0  0  0  0  0  0  0  0  0  0  0
   -3.4242    2.4707    0.0718 H   0  0  0  0  0  0  0  0  0  0  0  0
   -3.0702    2.5757   -2.4656 H   0  0  0  0  0  0  0  0  0  0  0  0
   -2.8332    1.0563   -3.3759 H   0  0  0  0  0  0  0  0  0  0  0  0
   -1.4519    1.7601   -2.4899 H   0  0  0  0  0  0  0  0  0  0  0  0
   -5.0951    1.2953   -1.3174 H   0  0  0  0  0  0  0  0  0  0  0  0
   -4.7346   -0.2197   -0.4133 H   0  0  0  0  0  0  0  0  0  0  0  0
   -4.6457   -0.1941   -2.2083 H   0  0  0  0  0  0  0  0  0  0  0  0
   -1.8942    3.7237    1.3782 H   0  0  0  0  0  0  0  0  0  0  0  0
   -1.0568    2.9012    3.5863 H   0  0  0  0  0  0  0  0  0  0  0  0
   -0.5218    1.3562    2.8219 H   0  0  0  0  0  0  0  0  0  0  0  0
   -2.2517    1.7642    2.8982 H   0  0  0  0  0  0  0  0  0  0  0  0
    0.4175    4.3369    2.0438 H   0  0  0  0  0  0  0  0  0  0  0  0
    0.3346    4.1133    0.2677 H   0  0  0  0  0  0  0  0  0  0  0  0
    1.0722    2.8514    1.2845 H   0  0  0  0  0  0  0  0  0  0  0  0
  1 11  1  0  0  0  0
  2  1  1  0  0  0  0
  2  3  1  0  0  0  0
  3  4  1  0  0  0  0
  3 13  1  0  0  0  0
  4  7  1  0  0  0  0
  5  2  1  0  0  0  0
  6  2  1  0  0  0  0
  6 19  1  0  0  0  0
  7  8  1  0  0  0  0
  8 23  1  0  0  0  0
  8 24  1  0  0  0  0
  8 22  1  0  0  0  0
  9 27  1  0  0  0  0
  9  7  1  0  0  0  0
  9 25  1  0  0  0  0
 10  1  1  0  0  0  0
 12  4  1  0  0  0  0
 14  3  1  0  0  0  0
 15  5  1  0  0  0  0
 16  5  1  0  0  0  0
 17  5  1  0  0  0  0
 18  6  1  0  0  0  0
 20  6  1  0  0  0  0
 21  7  1  0  0  0  0
 26  9  1  0  0  0  0
M  END
