19,20
q = 0.0, confidence = 0.994

 67 69  0  0  0  0  0  0  0  0999 V2000
    3.7872    2.2823   -0.9177 C   0  0  0  0  0  0  0  0  0  0  0  0
    4.6072    1.7623   -0.3950 H   0  0  0  0  0  0  0  0  0  0  0  0
    3.7727    3.3426   -0.5983 H   0  0  0  0  0  0  0  0  0  0  0  0
    4.0049    2.2601   -2.0063 H   0  0  0  0  0  0  0  0  0  0  0  0
    2.4660    1.6179   -0.6352 C   0  0  0  0  0  0  0  0  0  0  0  0
    1.2303    2.3082   -1.0794 C   0  0  0  0  0  0  0  0  0  0  0  0
    1.2999    3.5459   -1.7530 C   0  0  0  0  0  0  0  0  0  0  0  0
    2.2709    4.0218   -1.9328 H   0  0  0  0  0  0  0  0  0  0  0  0
    0.1246    4.1546   -2.1956 C   0  0  0  0  0  0  0  0  0  0  0  0
    0.1549    5.1185   -2.7237 H   0  0  0  0  0  0  0  0  0  0  0  0
   -1.0894    3.5086   -1.9570 C   0  0  0  0  0  0  0  0  0  0  0  0
   -2.0311    3.9558   -2.2961 H   0  0  0  0  0  0  0  0  0  0  0  0
   -1.0948    2.2714   -1.2798 C   0  0  0  0  0  0  0  0  0  0  0  0
   -2.3701    1.5590   -1.0179 C   0  0  0  0  0  0  0  0  0  0  0  0
   -3.6457    2.1898   -1.5084 C   0  0  0  0  0  0  0  0  0  0  0  0
   -4.5196    1.5792   -1.2264 H   0  0  0  0  0  0  0  0  0  0  0  0
   -3.6247    2.2862   -2.6135 H   0  0  0  0  0  0  0  0  0  0  0  0
   -3.7693    3.2081   -1.0878 H   0  0  0  0  0  0  0  0  0  0  0  0
    2.3385    0.4623   -0.0533 N   0  0  0  0  0  2  0  0  0  0  0  0
    0.0486    1.6897   -0.8502 N   0  0  0  0  0  2  0  0  0  0  0  0
   -2.3097    0.4274   -0.3846 N   0  0  0  0  0  0  0  0  0  0  0  0
    3.5527   -0.2529    0.2410 C   0  0  0  0  0  0  0  0  0  0  0  0
    4.2284   -0.9183   -0.8149 C   0  0  0  0  0  0  0  0  0  0  0  0
    5.4400   -1.5706   -0.5144 C   0  0  0  0  0  0  0  0  0  0  0  0
    5.9714   -2.0913   -1.3266 H   0  0  0  0  0  0  0  0  0  0  0  0
    5.9680   -1.5742    0.7798 C   0  0  0  0  0  0  0  0  0  0  0  0
    6.9177   -2.0884    0.9908 H   0  0  0  0  0  0  0  0  0  0  0  0
    5.2708   -0.9282    1.8082 C   0  0  0  0  0  0  0  0  0  0  0  0
    5.6667   -0.9376    2.8359 H   0  0  0  0  0  0  0  0  0  0  0  0
    4.0550   -0.2645    1.5683 C   0  0  0  0  0  0  0  0  0  0  0  0
    3.6763   -1.0229   -2.2218 C   0  0  0  0  0  0  0  0  0  0  0  0
    2.8133   -0.3446   -2.3626 H   0  0  0  0  0  0  0  0  0  0  0  0
    4.4625   -0.6973   -2.9384 H   0  0  0  0  0  0  0  0  0  0  0  0
    3.2247   -2.4513   -2.5651 C   0  0  0  0  0  0  0  0  0  0  0  0
    2.4372   -2.7826   -1.8611 H   0  0  0  0  0  0  0  0  0  0  0  0
    4.0683   -3.1684   -2.5017 H   0  0  0  0  0  0  0  0  0  0  0  0
    2.8097   -2.4954   -3.5917 H   0  0  0  0  0  0  0  0  0  0  0  0
    3.3400    0.4228    2.7070 C   0  0  0  0  0  0  0  0  0  0  0  0
    2.2546    0.2100    2.6452 H   0  0  0  0  0  0  0  0  0  0  0  0
    3.6929   -0.0310    3.6556 H   0  0  0  0  0  0  0  0  0  0  0  0
    3.5466    1.9426    2.7722 C   0  0  0  0  0  0  0  0  0  0  0  0
    4.6235    2.2065    2.8152 H   0  0  0  0  0  0  0  0  0  0  0  0
    3.0514    2.3627    3.6703 H   0  0  0  0  0  0  0  0  0  0  0  0
    3.1022    2.4552    1.8959 H   0  0  0  0  0  0  0  0  0  0  0  0
   -3.5575   -0.2313   -0.0881 C   0  0  0  0  0  0  0  0  0  0  0  0
   -4.0925   -1.1833   -0.9847 C   0  0  0  0  0  0  0  0  0  0  0  0
   -5.3271   -1.7774   -0.6504 C   0  0  0  0  0  0  0  0  0  0  0  0
   -5.7558   -2.5203   -1.3416 H   0  0  0  0  0  0  0  0  0  0  0  0
   -6.0010   -1.4454    0.5265 C   0  0  0  0  0  0  0  0  0  0  0  0
   -6.9613   -1.9245    0.7696 H   0  0  0  0  0  0  0  0  0  0  0  0
   -5.4484   -0.4974    1.4002 C   0  0  0  0  0  0  0  0  0  0  0  0
   -5.9785   -0.2422    2.3283 H   0  0  0  0  0  0  0  0  0  0  0  0
   -4.2270    0.1324    1.1131 C   0  0  0  0  0  0  0  0  0  0  0  0
   -3.3829   -1.6226   -2.2462 C   0  0  0  0  0  0  0  0  0  0  0  0
   -4.1087   -1.5986   -3.0882 H   0  0  0  0  0  0  0  0  0  0  0  0
   -2.5689   -0.9180   -2.5036 H   0  0  0  0  0  0  0  0  0  0  0  0
   -2.7910   -3.0354   -2.1202 C   0  0  0  0  0  0  0  0  0  0  0  0
   -2.0792   -3.0859   -1.2739 H   0  0  0  0  0  0  0  0  0  0  0  0
   -2.2465   -3.3176   -3.0431 H   0  0  0  0  0  0  0  0  0  0  0  0
   -3.5850   -3.7883   -1.9395 H   0  0  0  0  0  0  0  0  0  0  0  0
   -3.6108    1.1603    2.0360 C   0  0  0  0  0  0  0  0  0  0  0  0
   -2.5547    0.8687    2.2153 H   0  0  0  0  0  0  0  0  0  0  0  0
   -3.5394    2.1353    1.5003 H   0  0  0  0  0  0  0  0  0  0  0  0
   -4.3122    1.3751    3.3737 C   0  0  0  0  0  0  0  0  0  0  0  0
   -5.3489    1.7527    3.2549 H   0  0  0  0  0  0  0  0  0  0  0  0
   -3.7554    2.1147    3.9821 H   0  0  0  0  0  0  0  0  0  0  0  0
   -4.3597    0.4337    3.9579 H   0  0  0  0  0  0  0  0  0  0  0  0
  1  5  1  0  0  0  0
  1  3  1  0  0  0  0
  1  2  1  0  0  0  0
  4  1  1  0  0  0  0
  5 19  1  0  0  0  0
  6 20  1  0  0  0  0
  6  5  2  0  0  0  0
  7  6  1  0  0  0  0
  8  7  1  0  0  0  0
  9 11  1  0  0  0  0
  9  7  2  0  0  0  0
 10  9  1  0  0  0  0
 11 13  2  0  0  0  0
 12 11  1  0  0  0  0
 13 14  1  0  0  0  0
 13 20  1  0  0  0  0
 14 21  2  0  0  0  0
 15 16  1  0  0  0  0
 15 18  1  0  0  0  0
 15 14  1  0  0  0  0
 17 15  1  0  0  0  0
 19 22  1  0  0  0  0
 21 45  1  0  0  0  0
 22 30  1  0  0  0  0
 23 24  1  0  0  0  0
 23 22  2  0  0  0  0
 24 26  2  0  0  0  0
 25 24  1  0  0  0  0
 26 27  1  0  0  0  0
 26 28  1  0  0  0  0
 28 29  1  0  0  0  0
 30 28  2  0  0  0  0
 30 38  1  0  0  0  0
 31 23  1  0  0  0  0
 32 31  1  0  0  0  0
 33 31  1  0  0  0  0
 34 36  1  0  0  0  0
 34 31  1  0  0  0  0
 34 35  1  0  0  0  0
 37 34  1  0  0  0  0
 38 41  1  0  0  0  0
 38 40  1  0  0  0  0
 39 38  1  0  0  0  0
 41 42  1  0  0  0  0
 41 43  1  0  0  0  0
 44 41  1  0  0  0  0
 45 53  1  0  0  0  0
 46 47  1  0  0  0  0
 46 45  2  0  0  0  0
 47 49  2  0  0  0  0
 48 47  1  0  0  0  0
 49 50  1  0  0  0  0
 49 51  1  0  0  0  0
 51 52  1  0  0  0  0
 53 51  2  0  0  0  0
 53 61  1  0  0  0  0
 54 57  1  0  0  0  0
 54 46  1  0  0  0  0
 55 54  1  0  0  0  0
 56 54  1  0  0  0  0
 57 60  1  0  0  0  0
 57 58  1  0  0  0  0
 59 57  1  0  0  0  0
 61 62  1  0  0  0  0
 61 64  1  0  0  0  0
 63 61  1  0  0  0  0
 64 67  1  0  0  0  0
 64 66  1  0  0  0  0
 65 64  1  0  0  0  0
M  END
