7,8
q = 0.0, confidence = 0.99

 54 55  0  0  1  0  0  0  0  0999 V2000
    2.7110    1.2015    0.8647 P   0  0  0  0  0  0  0  0  0  0  0  0
    3.3946    0.4498    1.9727 O   0  0  0  0  0  0  0  0  0  0  0  0
    3.0836    0.7502   -0.6508 O   0  0  0  0  0  0  0  0  0  0  0  0
    2.8623    2.8202    0.7749 O   0  0  0  0  0  0  0  0  0  0  0  0
   -4.2041   -0.7650   -0.6913 O   0  0  0  0  0  0  0  0  0  0  0  0
   -4.9565    1.7227   -0.4606 O   0  0  0  0  0  0  0  0  0  0  0  0
   -0.1360    0.2666   -0.9050 N   0  0  0  0  0  2  0  0  0  0  0  0
    0.5504   -0.1822    1.6912 N   0  0  0  0  0  0  0  0  0  0  0  0
    1.3965   -0.4966    2.2083 H   0  0  0  0  0  0  0  0  0  0  0  0
   -0.6147   -0.1815    2.6507 C   0  0  0  0  0  0  0  0  0  0  0  0
   -0.3424    0.4591    3.5172 H   0  0  0  0  0  0  0  0  0  0  0  0
   -0.6979   -1.2314    2.9942 H   0  0  0  0  0  0  0  0  0  0  0  0
   -2.5489   -0.5314    1.0831 C   0  0  0  0  0  0  0  0  0  0  0  0
   -2.2124   -1.5721    0.9784 H   0  0  0  0  0  0  0  0  0  0  0  0
   -0.7440    0.3739   -2.1106 C   0  0  0  0  0  3  0  0  0  0  0  0
   -0.8912   -0.5841   -2.6353 H   0  0  0  0  0  0  0  0  0  0  0  0
   -3.5685   -0.0431    0.2594 C   0  0  0  0  0  0  0  0  0  0  0  0
   -5.3768    3.0702   -0.4048 C   0  0  0  0  0  0  0  0  0  0  0  0
   -6.1641    3.1857   -1.1726 H   0  0  0  0  0  0  0  0  0  0  0  0
   -4.5425    3.7735   -0.6306 H   0  0  0  0  0  0  0  0  0  0  0  0
   -5.8013    3.3340    0.5903 H   0  0  0  0  0  0  0  0  0  0  0  0
   -1.1271    1.6131   -2.6268 C   0  0  0  0  0  0  0  0  0  0  0  0
   -1.6217    1.6558   -3.6071 H   0  0  0  0  0  0  0  0  0  0  0  0
   -0.8799    2.7758   -1.8807 C   0  0  0  0  0  0  0  0  0  0  0  0
   -1.1778    3.7633   -2.2624 H   0  0  0  0  0  0  0  0  0  0  0  0
   -2.2900    1.6446    2.1254 C   0  0  0  0  0  0  0  0  0  0  0  0
   -1.7860    2.3134    2.8410 H   0  0  0  0  0  0  0  0  0  0  0  0
   -0.2476    2.6588   -0.6358 C   0  0  0  0  0  0  0  0  0  0  0  0
   -0.0265    3.5388   -0.0168 H   0  0  0  0  0  0  0  0  0  0  0  0
    0.1129    1.3907   -0.1698 C   0  0  0  0  0  0  0  0  0  0  0  0
   -3.9712    1.3262    0.3841 C   0  0  0  0  0  0  0  0  0  0  0  0
    0.8596    1.1535    1.1105 C   0  0  2  0  0  0  0  0  0  0  0  0
    0.6588    1.9684    1.8389 H   0  0  0  0  0  0  0  0  0  0  0  0
    3.6527   -0.5753   -0.9153 C   0  0  0  0  0  0  0  0  0  0  0  0
    4.7402   -0.5149   -0.7031 H   0  0  0  0  0  0  0  0  0  0  0  0
    3.1951   -1.3120   -0.2223 H   0  0  0  0  0  0  0  0  0  0  0  0
    3.3678   -0.9379   -2.3546 C   0  0  0  0  0  0  0  0  0  0  0  0
    2.2863   -1.1186   -2.5118 H   0  0  0  0  0  0  0  0  0  0  0  0
    3.8962   -1.8806   -2.6010 H   0  0  0  0  0  0  0  0  0  0  0  0
    3.7236   -0.1484   -3.0466 H   0  0  0  0  0  0  0  0  0  0  0  0
   -3.3434    2.1451    1.3355 C   0  0  0  0  0  0  0  0  0  0  0  0
   -3.6582    3.1901    1.4549 H   0  0  0  0  0  0  0  0  0  0  0  0
    4.0593    3.4170    0.2122 C   0  0  0  0  0  0  0  0  0  0  0  0
    4.8951    2.6861    0.2404 H   0  0  0  0  0  0  0  0  0  0  0  0
    4.3250    4.2518    0.8922 H   0  0  0  0  0  0  0  0  0  0  0  0
   -1.8716    0.3148    1.9904 C   0  0  0  0  0  0  0  0  0  0  0  0
   -3.8029   -2.1201   -0.8734 C   0  0  0  0  0  0  0  0  0  0  0  0
   -4.4137   -2.5093   -1.7083 H   0  0  0  0  0  0  0  0  0  0  0  0
   -4.0036   -2.7282    0.0362 H   0  0  0  0  0  0  0  0  0  0  0  0
   -2.7243   -2.2111   -1.1320 H   0  0  0  0  0  0  0  0  0  0  0  0
    3.7964    3.9042   -1.2001 C   0  0  0  0  0  0  0  0  0  0  0  0
    2.9573    4.6282   -1.2157 H   0  0  0  0  0  0  0  0  0  0  0  0
    3.5404    3.0524   -1.8594 H   0  0  0  0  0  0  0  0  0  0  0  0
    4.6967    4.4093   -1.6045 H   0  0  0  0  0  0  0  0  0  0  0  0
  1 32  1  0  0  0  0
  1  2  2  0  0  0  0
  3  1  1  0  0  0  0
  4  1  1  0  0  0  0
  5 17  1  0  0  0  0
  6 18  1  0  0  0  0
  6 31  1  0  0  0  0
  7 30  1  0  0  0  0
  8  9  1  0  0  0  0
  8 10  1  0  0  0  0
 10 12  1  0  0  0  0
 10 11  1  0  0  0  0
 13 46  1  0  0  0  0
 14 13  1  0  0  0  0
 15  7  1  0  0  0  0
 16 15  1  0  0  0  0
 17 31  1  0  0  0  0
 17 13  2  0  0  0  0
 18 21  1  0  0  0  0
 19 18  1  0  0  0  0
 20 18  1  0  0  0  0
 22 15  1  0  0  0  0
 22 24  2  0  0  0  0
 23 22  1  0  0  0  0
 24 28  1  0  0  0  0
 25 24  1  0  0  0  0
 26 27  1  0  0  0  0
 28 30  2  0  0  0  0
 28 29  1  0  0  0  0
 30 32  1  0  0  0  0
 31 41  2  0  0  0  0
 32  8  1  0  0  0  0
 32 33  1  1  0  0  0
 34 35  1  0  0  0  0
 34  3  1  0  0  0  0
 34 36  1  0  0  0  0
 37 34  1  0  0  0  0
 38 37  1  0  0  0  0
 39 37  1  0  0  0  0
 40 37  1  0  0  0  0
 41 42  1  0  0  0  0
 41 26  1  0  0  0  0
 43 44  1  0  0  0  0
 43  4  1  0  0  0  0
 43 45  1  0  0  0  0
 46 26  2  0  0  0  0
 46 10  1  0  0  0  0
 47  5  1  0  0  0  0
 47 49  1  0  0  0  0
 48 47  1  0  0  0  0
 50 47  1  0  0  0  0
 51 43  1  0  0  0  0
 52 51  1  0  0  0  0
 53 51  1  0  0  0  0
 54 51  1  0  0  0  0
M  END
