7,8
q = 0.0, confidence = 0.98

 52 54  0  0  1  0  0  0  0  0999 V2000
    2.6607    1.6001   -0.3275 P   0  0  0  0  0  0  0  0  0  0  0  0
    2.4459    1.9066   -1.7852 O   0  0  0  0  0  0  0  0  0  0  0  0
    3.6067    0.3328    0.0262 O   0  0  0  0  0  0  0  0  0  0  0  0
    3.2726    2.7480    0.6558 O   0  0  0  0  0  0  0  0  0  0  0  0
   -7.6312    1.3314    0.3164 O   0  0  0  0  0  0  0  0  0  0  0  0
   -6.5218   -0.5696    1.0397 O   0  0  0  0  0  0  0  0  0  0  0  0
    0.9270   -0.7221    1.6152 N   0  0  0  0  0  2  0  0  0  0  0  0
    0.0895    0.7866   -0.4541 N   0  0  0  0  0  0  0  0  0  0  0  0
    0.3785    1.0977   -1.4040 H   0  0  0  0  0  0  0  0  0  0  0  0
    1.0460   -1.5563    2.6767 C   0  0  0  0  0  3  0  0  0  0  0  0
    0.9352   -2.6254    2.4328 H   0  0  0  0  0  0  0  0  0  0  0  0
    1.3281   -1.0696    3.9554 C   0  0  0  0  0  0  0  0  0  0  0  0
    1.4210   -1.7789    4.7899 H   0  0  0  0  0  0  0  0  0  0  0  0
    1.4900    0.3109    4.1504 C   0  0  0  0  0  0  0  0  0  0  0  0
    1.7120    0.7160    5.1484 H   0  0  0  0  0  0  0  0  0  0  0  0
    1.3642    1.1690    3.0482 C   0  0  0  0  0  0  0  0  0  0  0  0
    1.4983    2.2553    3.1450 H   0  0  0  0  0  0  0  0  0  0  0  0
    1.0827    0.6252    1.7916 C   0  0  0  0  0  0  0  0  0  0  0  0
    1.0063    1.4288    0.5259 C   0  0  1  0  0  0  0  0  0  0  0  0
    0.7001    2.4769    0.7391 H   0  0  0  0  0  0  0  0  0  0  0  0
    3.8892   -0.7010   -0.9743 C   0  0  0  0  0  0  0  0  0  0  0  0
    3.6761   -1.6650   -0.4726 H   0  0  0  0  0  0  0  0  0  0  0  0
    3.1744   -0.5994   -1.8153 H   0  0  0  0  0  0  0  0  0  0  0  0
    5.3265   -0.5799   -1.4352 C   0  0  0  0  0  0  0  0  0  0  0  0
    6.0312   -0.6503   -0.5822 H   0  0  0  0  0  0  0  0  0  0  0  0
    5.4968    0.3817   -1.9605 H   0  0  0  0  0  0  0  0  0  0  0  0
    5.5599   -1.4009   -2.1427 H   0  0  0  0  0  0  0  0  0  0  0  0
    4.6803    3.0904    0.5869 C   0  0  0  0  0  0  0  0  0  0  0  0
    4.8749    3.6644    1.5146 H   0  0  0  0  0  0  0  0  0  0  0  0
    5.2764    2.1541    0.6330 H   0  0  0  0  0  0  0  0  0  0  0  0
    5.0106    3.9039   -0.6528 C   0  0  0  0  0  0  0  0  0  0  0  0
    6.0815    4.1907   -0.6432 H   0  0  0  0  0  0  0  0  0  0  0  0
    4.4014    4.8285   -0.6919 H   0  0  0  0  0  0  0  0  0  0  0  0
    4.8091    3.3250   -1.5759 H   0  0  0  0  0  0  0  0  0  0  0  0
   -1.3395    1.1305   -0.2138 C   0  0  0  0  0  0  0  0  0  0  0  0
   -1.4293    2.2371   -0.1214 H   0  0  0  0  0  0  0  0  0  0  0  0
   -1.6266    0.6929    0.7635 H   0  0  0  0  0  0  0  0  0  0  0  0
   -2.2656    0.6174   -1.3183 C   0  0  0  0  0  0  0  0  0  0  0  0
   -2.0620   -0.4605   -1.4810 H   0  0  0  0  0  0  0  0  0  0  0  0
   -2.0188    1.1258   -2.2734 H   0  0  0  0  0  0  0  0  0  0  0  0
   -3.7134    0.8482   -0.9514 C   0  0  0  0  0  0  0  0  0  0  0  0
   -4.3973    2.0001   -1.3812 C   0  0  0  0  0  0  0  0  0  0  0  0
   -3.8764    2.7169   -2.0348 H   0  0  0  0  0  0  0  0  0  0  0  0
   -5.7390    2.2594   -1.0155 C   0  0  0  0  0  0  0  0  0  0  0  0
   -6.2709    3.1573   -1.3582 H   0  0  0  0  0  0  0  0  0  0  0  0
   -6.3607    1.3191   -0.2035 C   0  0  0  0  0  0  0  0  0  0  0  0
   -7.8079    0.0468    0.9223 C   0  0  0  0  0  0  0  0  0  0  0  0
   -8.2565    0.1685    1.9311 H   0  0  0  0  0  0  0  0  0  0  0  0
   -8.4678   -0.5844    0.2765 H   0  0  0  0  0  0  0  0  0  0  0  0
   -5.6871    0.1654    0.2357 C   0  0  0  0  0  0  0  0  0  0  0  0
   -4.3699   -0.0966   -0.1167 C   0  0  0  0  0  0  0  0  0  0  0  0
   -3.8579   -1.0077    0.2257 H   0  0  0  0  0  0  0  0  0  0  0  0
  1  3  1  0  0  0  0
  1 19  1  0  0  0  0
  1  4  1  0  0  0  0
  2  1  2  0  0  0  0
  5 47  1  0  0  0  0
  7 18  1  0  0  0  0
  7 10  1  0  0  0  0
  8 35  1  0  0  0  0
  8 19  1  0  0  0  0
  9  8  1  0  0  0  0
 10 12  1  0  0  0  0
 11 10  1  0  0  0  0
 12 14  2  0  0  0  0
 12 13  1  0  0  0  0
 14 15  1  0  0  0  0
 16 17  1  0  0  0  0
 16 14  1  0  0  0  0
 18 16  2  0  0  0  0
 19 20  1  1  0  0  0
 19 18  1  0  0  0  0
 21 22  1  0  0  0  0
 21  3  1  0  0  0  0
 23 21  1  0  0  0  0
 24 21  1  0  0  0  0
 24 25  1  0  0  0  0
 26 24  1  0  0  0  0
 27 24  1  0  0  0  0
 28 30  1  0  0  0  0
 28  4  1  0  0  0  0
 28 29  1  0  0  0  0
 31 32  1  0  0  0  0
 31 28  1  0  0  0  0
 33 31  1  0  0  0  0
 34 31  1  0  0  0  0
 35 36  1  0  0  0  0
 35 37  1  0  0  0  0
 38 41  1  0  0  0  0
 38 35  1  0  0  0  0
 39 38  1  0  0  0  0
 40 38  1  0  0  0  0
 41 51  1  0  0  0  0
 42 44  1  0  0  0  0
 42 41  2  0  0  0  0
 43 42  1  0  0  0  0
 44 46  2  0  0  0  0
 45 44  1  0  0  0  0
 46 50  1  0  0  0  0
 46  5  1  0  0  0  0
 47  6  1  0  0  0  0
 47 48  1  0  0  0  0
 49 47  1  0  0  0  0
 50  6  1  0  0  0  0
 51 52  1  0  0  0  0
 51 50  2  0  0  0  0
M  END
