1,2
q = 0.0, confidence = 0.998

 37 40  0  0  1  0  0  0  0  0999 V2000
   -0.3449    1.4887   -0.6652 N   0  0  0  0  0  2  0  0  0  0  0  0
   -0.5903   -1.7253   -0.5228 N   0  0  0  0  0  2  0  0  0  0  0  0
   -1.1177    2.5280   -1.0640 C   0  0  0  0  0  3  0  0  0  0  0  0
   -0.6059    3.6726   -1.6810 C   0  0  0  0  0  0  0  0  0  0  0  0
    0.7771    3.7595   -1.8837 C   0  0  0  0  0  0  0  0  0  0  0  0
    1.5776    2.6942   -1.4643 C   0  0  0  0  0  0  0  0  0  0  0  0
    0.9938    1.5584   -0.8610 C   0  0  0  0  0  0  0  0  0  0  0  0
   -1.2006   -2.6876   -1.2539 C   0  0  0  0  0  3  0  0  0  0  0  0
   -0.5285   -3.8194   -1.7226 C   0  0  0  0  0  0  0  0  0  0  0  0
    0.8281   -3.9736   -1.4054 C   0  0  0  0  0  0  0  0  0  0  0  0
    1.4601   -2.9738   -0.6553 C   0  0  0  0  0  0  0  0  0  0  0  0
    0.7367   -1.8455   -0.2326 C   0  0  0  0  0  0  0  0  0  0  0  0
    1.3493   -0.6844    0.4996 C   0  0  2  0  0  0  0  0  0  0  0  0
    1.8988    0.3949   -0.5009 C   0  0  2  0  0  0  0  0  0  0  0  0
    3.2722    0.7592    0.1315 C   0  0  1  0  0  0  0  0  0  0  0  0
    3.0360    1.4223    1.5099 C   0  0  0  0  0  0  0  0  0  0  0  0
    2.6324    0.2172    2.4178 C   0  0  0  0  0  0  0  0  0  0  0  0
    2.5705   -0.9601    1.4180 C   0  0  2  0  0  0  0  0  0  0  0  0
    3.7842   -0.6406    0.5192 C   0  0  0  0  0  0  0  0  0  0  0  0
   -2.1882    2.4319   -0.8248 H   0  0  0  0  0  0  0  0  0  0  0  0
   -1.2884    4.4794   -1.9838 H   0  0  0  0  0  0  0  0  0  0  0  0
    1.2283    4.6441   -2.3585 H   0  0  0  0  0  0  0  0  0  0  0  0
    2.6663    2.7299   -1.6070 H   0  0  0  0  0  0  0  0  0  0  0  0
   -2.2713   -2.5333   -1.4483 H   0  0  0  0  0  0  0  0  0  0  0  0
   -1.0723   -4.5689   -2.3146 H   0  0  0  0  0  0  0  0  0  0  0  0
    1.3884   -4.8601   -1.7382 H   0  0  0  0  0  0  0  0  0  0  0  0
    2.5226   -3.0617   -0.3903 H   0  0  0  0  0  0  0  0  0  0  0  0
    0.5197   -0.2426    1.0996 H   0  0  0  0  0  0  0  0  0  0  0  0
    2.1179   -0.1210   -1.4640 H   0  0  0  0  0  0  0  0  0  0  0  0
    3.9332    1.3333   -0.5452 H   0  0  0  0  0  0  0  0  0  0  0  0
    2.2506    2.2027    1.4600 H   0  0  0  0  0  0  0  0  0  0  0  0
    3.9600    1.9152    1.8716 H   0  0  0  0  0  0  0  0  0  0  0  0
    3.4004    0.0232    3.1933 H   0  0  0  0  0  0  0  0  0  0  0  0
    1.6660    0.3715    2.9364 H   0  0  0  0  0  0  0  0  0  0  0  0
    2.5468   -1.9573    1.8981 H   0  0  0  0  0  0  0  0  0  0  0  0
    4.7411   -0.6159    1.0789 H   0  0  0  0  0  0  0  0  0  0  0  0
    3.9030   -1.3127   -0.3545 H   0  0  0  0  0  0  0  0  0  0  0  0
  2 12  1  0  0  0  0
  3 20  1  0  0  0  0
  3  1  1  0  0  0  0
  4  3  1  0  0  0  0
  5  4  2  0  0  0  0
  5  6  1  0  0  0  0
  6  7  2  0  0  0  0
  7  1  1  0  0  0  0
  7 14  1  0  0  0  0
  8  2  1  0  0  0  0
  9 10  2  0  0  0  0
  9  8  1  0  0  0  0
 10 11  1  0  0  0  0
 11 27  1  0  0  0  0
 11 12  2  0  0  0  0
 12 13  1  0  0  0  0
 13 28  1  1  0  0  0
 13 18  1  0  0  0  0
 14 29  1  6  0  0  0
 14 15  1  0  0  0  0
 14 13  1  0  0  0  0
 15 30  1  6  0  0  0
 15 19  1  0  0  0  0
 15 16  1  0  0  0  0
 16 32  1  0  0  0  0
 16 17  1  0  0  0  0
 17 34  1  0  0  0  0
 17 33  1  0  0  0  0
 18 35  1  1  0  0  0
 18 17  1  0  0  0  0
 19 36  1  0  0  0  0
 19 18  1  0  0  0  0
 21  4  1  0  0  0  0
 22  5  1  0  0  0  0
 23  6  1  0  0  0  0
 24  8  1  0  0  0  0
 25  9  1  0  0  0  0
 26 10  1  0  0  0  0
 31 16  1  0  0  0  0
 37 19  1  0  0  0  0
M  END
