3,4
q = -1.0, confidence = 0.0

 34 37  0  0  1  0  0  0  0  0999 V2000
   -3.6867    2.3353   -0.8849 S   0  0  0  0  0  0  0  0  0  0  0  0
    2.4843   -0.8568    1.3559 N   0  0  0  0  0  0  0  0  0  0  0  0
    0.9657   -1.8503   -0.5525 N   0  0  0  0  0  0  0  0  0  0  0  0
   -1.0976   -0.5420   -1.5443 N   0  0  0  0  0  2  0  0  0  0  0  0
    3.2348   -0.2376    2.2734 C   0  0  0  0  0  0  0  0  0  0  0  0
    2.8810    0.7601    2.5882 H   0  0  0  0  0  0  0  0  0  0  0  0
    4.4031   -0.7992    2.8119 C   0  0  0  0  0  0  0  0  0  0  0  0
    4.9880   -0.2544    3.5667 H   0  0  0  0  0  0  0  0  0  0  0  0
    4.7932   -2.0708    2.3550 C   0  0  0  0  0  0  0  0  0  0  0  0
    5.7026   -2.5500    2.7495 H   0  0  0  0  0  0  0  0  0  0  0  0
    4.0213   -2.7214    1.3884 C   0  0  0  0  0  0  0  0  0  0  0  0
    4.3084   -3.7103    1.0029 H   0  0  0  0  0  0  0  0  0  0  0  0
    2.8591   -2.0834    0.8944 C   0  0  0  0  0  0  0  0  0  0  0  0
    1.9782   -2.6474   -0.1220 C   0  0  0  0  0  3  0  0  0  0  0  0
    1.8815   -3.9087   -0.7760 C   0  0  0  0  0  0  0  0  0  0  0  0
    2.5504   -4.7689   -0.6500 H   0  0  0  0  0  0  0  0  0  0  0  0
    0.7447   -3.8399   -1.6115 C   0  0  0  0  0  0  0  0  0  0  0  0
    0.3625   -4.6339   -2.2644 H   0  0  0  0  0  0  0  0  0  0  0  0
    0.2019   -2.5359   -1.4408 C   0  0  0  0  0  0  0  0  0  0  0  0
   -0.9924   -1.8526   -1.9125 C   0  0  1  0  0  3  0  0  0  0  0  0
   -2.0264   -2.4973   -2.6295 C   0  0  0  0  0  0  0  0  0  0  0  0
   -1.9160   -3.5546   -2.9068 H   0  0  0  0  0  0  0  0  0  0  0  0
   -3.1884   -1.7841   -2.9282 C   0  0  0  0  0  0  0  0  0  0  0  0
   -4.0152   -2.2702   -3.4680 H   0  0  0  0  0  0  0  0  0  0  0  0
   -3.2957   -0.4420   -2.5374 C   0  0  0  0  0  0  0  0  0  0  0  0
   -4.1847    0.1572   -2.7786 H   0  0  0  0  0  0  0  0  0  0  0  0
   -2.2107    0.1558   -1.8596 C   0  0  0  0  0  0  0  0  0  0  0  0
   -2.2312    1.5766   -1.4876 C   0  0  0  0  0  0  0  0  0  0  0  0
   -1.1863    2.4887   -1.5439 C   0  0  0  0  0  0  0  0  0  0  0  0
   -0.1860    2.2159   -1.9031 H   0  0  0  0  0  0  0  0  0  0  0  0
   -1.5597    3.7910   -1.1024 C   0  0  0  0  0  0  0  0  0  0  0  0
   -0.8666    4.6413   -1.0557 H   0  0  0  0  0  0  0  0  0  0  0  0
   -2.8856    3.8606   -0.7146 C   0  0  0  0  0  0  0  0  0  0  0  0
   -3.4364    4.7233   -0.3207 H   0  0  0  0  0  0  0  0  0  0  0  0
  1 33  1  0  0  0  0
  2  5  1  0  0  0  0
  3 14  1  0  0  0  0
  5  6  1  0  0  0  0
  5  7  2  0  0  0  0
  7  8  1  0  0  0  0
  9 10  1  0  0  0  0
  9  7  1  0  0  0  0
 11  9  2  0  0  0  0
 12 11  1  0  0  0  0
 13  2  2  0  0  0  0
 13 11  1  0  0  0  0
 14 13  1  0  0  0  0
 15 16  1  0  0  0  0
 15 14  1  0  0  0  0
 17 19  1  0  0  0  0
 17 15  2  0  0  0  0
 18 17  1  0  0  0  0
 19  3  2  0  0  0  0
 20  4  1  0  0  0  0
 20 19  1  1  0  0  0
 21 20  1  0  0  0  0
 22 21  1  0  0  0  0
 23 21  2  0  0  0  0
 23 25  1  0  0  0  0
 24 23  1  0  0  0  0
 25 27  2  0  0  0  0
 26 25  1  0  0  0  0
 27  4  1  0  0  0  0
 27 28  1  0  0  0  0
 28  1  1  0  0  0  0
 29 28  2  0  0  0  0
 29 31  1  0  0  0  0
 30 29  1  0  0  0  0
 31 32  1  0  0  0  0
 31 33  2  0  0  0  0
 33 34  1  0  0  0  0
M  END
