2,4
q = 0.0, confidence = 0.992

 41 44  0  0  0  0  0  0  0  0999 V2000
   -0.9530    3.7677    0.5559 O   0  0  0  0  0  0  0  0  0  0  0  0
   -1.2896   -0.0522   -0.6829 N   0  0  0  0  0  2  0  0  0  0  0  0
   -1.9077    1.9604   -1.4583 N   0  0  0  0  0  0  0  0  0  0  0  0
    1.3799    0.2532    0.7139 N   0  0  0  0  0  2  0  0  0  0  0  0
    1.5486    2.3966    1.3489 N   0  0  0  0  0  0  0  0  0  0  0  0
   -0.8849    1.0697   -1.2571 C   0  0  0  0  0  3  0  0  0  0  0  0
    0.1481    1.2637   -1.5723 H   0  0  0  0  0  0  0  0  0  0  0  0
   -2.6606    0.0823   -0.4815 C   0  0  0  0  0  0  0  0  0  0  0  0
   -3.0676    1.3598   -0.9658 C   0  0  0  0  0  0  0  0  0  0  0  0
   -3.6013   -0.7951    0.0881 C   0  0  0  0  0  0  0  0  0  0  0  0
   -3.2830   -1.7679    0.4837 H   0  0  0  0  0  0  0  0  0  0  0  0
   -4.9304   -0.3625    0.1495 C   0  0  0  0  0  0  0  0  0  0  0  0
   -5.6898   -1.0241    0.5918 H   0  0  0  0  0  0  0  0  0  0  0  0
   -5.3257    0.9073   -0.3377 C   0  0  0  0  0  0  0  0  0  0  0  0
   -6.3829    1.2045   -0.2707 H   0  0  0  0  0  0  0  0  0  0  0  0
   -4.4013    1.7949   -0.9037 C   0  0  0  0  0  0  0  0  0  0  0  0
   -4.7145    2.7776   -1.2856 H   0  0  0  0  0  0  0  0  0  0  0  0
    0.7723    1.2658    1.3175 C   0  0  0  0  0  3  0  0  0  0  0  0
   -0.2360    1.2143    1.7470 H   0  0  0  0  0  0  0  0  0  0  0  0
    2.6361    0.7176    0.3302 C   0  0  0  0  0  0  0  0  0  0  0  0
    2.7520    2.0849    0.7149 C   0  0  0  0  0  0  0  0  0  0  0  0
    3.7046    0.0701   -0.3178 C   0  0  0  0  0  0  0  0  0  0  0  0
    3.6114   -0.9787   -0.6264 H   0  0  0  0  0  0  0  0  0  0  0  0
    4.8573    0.8221   -0.5688 C   0  0  0  0  0  0  0  0  0  0  0  0
    5.7087    0.3449   -1.0763 H   0  0  0  0  0  0  0  0  0  0  0  0
    4.9568    2.1842   -0.1933 C   0  0  0  0  0  0  0  0  0  0  0  0
    5.8815    2.7378   -0.4144 H   0  0  0  0  0  0  0  0  0  0  0  0
    3.9054    2.8432    0.4564 C   0  0  0  0  0  0  0  0  0  0  0  0
    3.9901    3.8998    0.7500 H   0  0  0  0  0  0  0  0  0  0  0  0
   -1.7233    3.3715   -1.7450 C   0  0  0  0  0  0  0  0  0  0  0  0
   -2.4858    3.7136   -2.4763 H   0  0  0  0  0  0  0  0  0  0  0  0
   -0.7317    3.4891   -2.2259 H   0  0  0  0  0  0  0  0  0  0  0  0
   -1.8237    4.2190   -0.4636 C   0  0  0  0  0  0  0  0  0  0  0  0
   -1.6476    5.2905   -0.7160 H   0  0  0  0  0  0  0  0  0  0  0  0
   -2.8524    4.1354   -0.0554 H   0  0  0  0  0  0  0  0  0  0  0  0
    0.2990    4.4189    0.6441 C   0  0  0  0  0  0  0  0  0  0  0  0
    0.1686    5.4957    0.9132 H   0  0  0  0  0  0  0  0  0  0  0  0
    0.8650    4.3795   -0.3185 H   0  0  0  0  0  0  0  0  0  0  0  0
    1.1053    3.7232    1.7394 C   0  0  0  0  0  0  0  0  0  0  0  0
    1.9949    4.3290    1.9994 H   0  0  0  0  0  0  0  0  0  0  0  0
    0.4767    3.6411    2.6487 H   0  0  0  0  0  0  0  0  0  0  0  0
  1 36  1  0  0  0  0
  2  8  1  0  0  0  0
  3  6  1  0  0  0  0
  3  9  1  0  0  0  0
  4 18  1  0  0  0  0
  5 39  1  0  0  0  0
  6  2  1  0  0  0  0
  7  6  1  0  0  0  0
  8 10  1  0  0  0  0
  9 16  1  0  0  0  0
  9  8  2  0  0  0  0
 10 12  2  0  0  0  0
 10 11  1  0  0  0  0
 12 13  1  0  0  0  0
 14 15  1  0  0  0  0
 14 12  1  0  0  0  0
 16 14  2  0  0  0  0
 17 16  1  0  0  0  0
 18  5  1  0  0  0  0
 18 19  1  0  0  0  0
 20  4  1  0  0  0  0
 20 21  1  0  0  0  0
 21  5  1  0  0  0  0
 22 20  2  0  0  0  0
 23 22  1  0  0  0  0
 24 22  1  0  0  0  0
 24 26  2  0  0  0  0
 25 24  1  0  0  0  0
 26 28  1  0  0  0  0
 27 26  1  0  0  0  0
 28 21  2  0  0  0  0
 28 29  1  0  0  0  0
 30  3  1  0  0  0  0
 30 33  1  0  0  0  0
 31 30  1  0  0  0  0
 32 30  1  0  0  0  0
 33 35  1  0  0  0  0
 33  1  1  0  0  0  0
 34 33  1  0  0  0  0
 36 37  1  0  0  0  0
 36 39  1  0  0  0  0
 38 36  1  0  0  0  0
 39 40  1  0  0  0  0
 39 41  1  0  0  0  0
M  END
