2,3
q = 0.0, confidence = 0.994

 34 36  0  0  0  0  0  0  0  0999 V2000
   -6.4394    0.9659    0.2437 O   0  0  0  0  0  0  0  0  0  0  0  0
    1.7501    0.6978    0.0009 N   0  0  0  0  0  2  0  0  0  0  0  0
   -0.8687    0.8472   -0.1358 N   0  0  0  0  0  2  0  0  0  0  0  0
    3.0921    0.6154    0.3261 C   0  0  0  0  0  0  0  0  0  0  0  0
    3.6334   -0.5618    0.9117 C   0  0  0  0  0  0  0  0  0  0  0  0
    2.9657   -1.4100    1.1036 H   0  0  0  0  0  0  0  0  0  0  0  0
    4.9867   -0.6310    1.2167 C   0  0  0  0  0  0  0  0  0  0  0  0
    5.3850   -1.5481    1.6757 H   0  0  0  0  0  0  0  0  0  0  0  0
    5.8552    0.4574    0.9526 C   0  0  0  0  0  0  0  0  0  0  0  0
    6.9261    0.3772    1.1918 H   0  0  0  0  0  0  0  0  0  0  0  0
    5.3456    1.6326    0.4188 C   0  0  0  0  0  0  0  0  0  0  0  0
    5.9978    2.5011    0.2404 H   0  0  0  0  0  0  0  0  0  0  0  0
    3.9621    1.7519    0.1156 C   0  0  0  0  0  0  0  0  0  0  0  0
    3.3986    2.9743   -0.3526 C   0  0  0  0  0  0  0  0  0  0  0  0
    4.0568    3.8377   -0.5318 H   0  0  0  0  0  0  0  0  0  0  0  0
    2.0347    3.0691   -0.5277 C   0  0  0  0  0  0  0  0  0  0  0  0
    1.5525    4.0098   -0.8288 H   0  0  0  0  0  0  0  0  0  0  0  0
    1.2244    1.9176   -0.3289 C   0  0  0  0  0  0  0  0  0  0  0  0
   -0.2083    1.9689   -0.3741 C   0  0  0  0  0  0  0  0  0  0  0  0
   -0.7373    2.9287   -0.4868 H   0  0  0  0  0  0  0  0  0  0  0  0
   -2.2793    0.8532   -0.0486 C   0  0  0  0  0  0  0  0  0  0  0  0
   -3.0646    1.6629   -0.9029 C   0  0  0  0  0  0  0  0  0  0  0  0
   -2.5816    2.2482   -1.6991 H   0  0  0  0  0  0  0  0  0  0  0  0
   -4.4507    1.6767   -0.7818 C   0  0  0  0  0  0  0  0  0  0  0  0
   -5.0780    2.2779   -1.4549 H   0  0  0  0  0  0  0  0  0  0  0  0
   -5.0880    0.8843    0.2028 C   0  0  0  0  0  0  0  0  0  0  0  0
   -4.3082    0.0704    1.0529 C   0  0  0  0  0  0  0  0  0  0  0  0
   -4.7763   -0.5593    1.8202 H   0  0  0  0  0  0  0  0  0  0  0  0
   -2.9174    0.0428    0.9125 C   0  0  0  0  0  0  0  0  0  0  0  0
   -2.3047   -0.5934    1.5633 H   0  0  0  0  0  0  0  0  0  0  0  0
   -7.1414    0.1603    1.1763 C   0  0  0  0  0  0  0  0  0  0  0  0
   -8.2155    0.3717    1.0233 H   0  0  0  0  0  0  0  0  0  0  0  0
   -6.8681    0.4112    2.2252 H   0  0  0  0  0  0  0  0  0  0  0  0
   -6.9553   -0.9229    1.0055 H   0  0  0  0  0  0  0  0  0  0  0  0
  1 31  1  0  0  0  0
  2  4  1  0  0  0  0
  3 21  1  0  0  0  0
  4  5  1  0  0  0  0
  5  6  1  0  0  0  0
  5  7  2  0  0  0  0
  7  8  1  0  0  0  0
  9 10  1  0  0  0  0
  9  7  1  0  0  0  0
 11  9  2  0  0  0  0
 12 11  1  0  0  0  0
 13  4  2  0  0  0  0
 13 11  1  0  0  0  0
 14 13  1  0  0  0  0
 15 14  1  0  0  0  0
 16 14  2  0  0  0  0
 16 18  1  0  0  0  0
 17 16  1  0  0  0  0
 18  2  1  0  0  0  0
 19 18  2  0  0  0  0
 19  3  1  0  0  0  0
 20 19  1  0  0  0  0
 21 29  1  0  0  0  0
 22 24  1  0  0  0  0
 22 21  2  0  0  0  0
 23 22  1  0  0  0  0
 24 26  2  0  0  0  0
 25 24  1  0  0  0  0
 26  1  1  0  0  0  0
 26 27  1  0  0  0  0
 27 28  1  0  0  0  0
 29 27  2  0  0  0  0
 29 30  1  0  0  0  0
 31 33  1  0  0  0  0
 32 31  1  0  0  0  0
 34 31  1  0  0  0  0
M  END
