7,10
q = -1.0, confidence = 0.0

 13 14  0  0  0  0  0  0  0  0999 V2000
    2.9330    0.4444   -0.0030 C   0  0  0  0  0  0  0  0  0  0  0  0
    4.0353    1.2819    0.0706 C   0  0  0  0  0  0  0  0  0  0  0  0
    5.1041    1.0695    0.1581 H   0  0  0  0  0  0  0  0  0  0  0  0
    2.1633    2.4966   -0.0719 C   0  0  0  0  0  3  0  0  0  0  0  0
    1.4820    3.3566   -0.1135 H   0  0  0  0  0  0  0  0  0  0  0  0
    2.7330   -0.9969    0.0230 C   0  0  0  0  0  0  0  0  0  0  0  0
    1.7859    1.2254   -0.0975 N   0  0  0  0  0  2  0  0  0  0  0  0
    3.5215    2.5692    0.0262 N   0  0  0  0  0  0  0  0  0  0  0  0
    4.0703    3.4289    0.0676 H   0  0  0  0  0  0  0  0  0  0  0  0
    1.4530   -1.4539    0.0083 N   0  0  0  0  0  0  0  0  0  0  0  0
    1.5387   -2.7954    0.0467 N   0  0  0  0  0  0  0  0  0  0  0  0
    2.8175   -3.1249    0.0818 N   0  0  0  0  0  0  0  0  0  0  0  0
    3.5967   -2.0183    0.0687 N   0  0  0  0  0  2  0  0  0  0  0  0
  1  6  1  0  0  0  0
  1  2  2  0  0  0  0
  2  3  1  0  0  0  0
  4  8  1  0  0  0  0
  5  4  1  0  0  0  0
  6 13  1  0  0  0  0
  7  4  1  0  0  0  0
  7  1  1  0  0  0  0
  8  9  1  0  0  0  0
  8  2  1  0  0  0  0
 10  6  2  0  0  0  0
 10 11  1  0  0  0  0
 11 12  2  0  0  0  0
 13 12  1  0  0  0  0
M  END
