1,4
q = 0.0, confidence = 0.998

 26 26  0  0  0  0  0  0  0  0999 V2000
    0.9211   -1.0381    0.9287 N   0  0  0  0  0  0  0  0  0  0  0  0
    0.6901   -0.9824    1.9317 H   0  0  0  0  0  0  0  0  0  0  0  0
    0.2135   -1.7587    0.5223 H   0  0  0  0  0  0  0  0  0  0  0  0
    1.0441    0.3671   -1.7030 N   0  0  0  0  0  0  0  0  0  0  0  0
    0.2304   -0.0774   -2.2072 H   0  0  0  0  0  0  0  0  0  0  0  0
    1.3172    1.2373   -2.1779 H   0  0  0  0  0  0  0  0  0  0  0  0
    5.6843    0.2343    0.5848 O   0  0  0  0  0  0  0  0  0  0  0  0
    2.3348   -1.4002    0.7004 C   0  0  0  0  0  0  0  0  0  0  0  0
    2.3829   -2.4799    0.4431 H   0  0  0  0  0  0  0  0  0  0  0  0
    2.8912   -1.2733    1.6488 H   0  0  0  0  0  0  0  0  0  0  0  0
    2.1618   -0.6135   -1.6972 C   0  0  0  0  0  0  0  0  0  0  0  0
    2.8035   -0.4217   -2.5822 H   0  0  0  0  0  0  0  0  0  0  0  0
    1.7052   -1.6160   -1.8308 H   0  0  0  0  0  0  0  0  0  0  0  0
    3.0435   -0.6065   -0.4277 C   0  0  0  0  0  0  0  0  0  0  0  0
    4.3779   -1.3191   -0.7661 C   0  0  0  0  0  0  0  0  0  0  0  0
    4.2057   -2.3998   -0.9595 H   0  0  0  0  0  0  0  0  0  0  0  0
    4.7826   -0.8821   -1.7039 H   0  0  0  0  0  0  0  0  0  0  0  0
    5.4358   -1.1362    0.3259 C   0  0  0  0  0  0  0  0  0  0  0  0
    5.1323   -1.6620    1.2664 H   0  0  0  0  0  0  0  0  0  0  0  0
    6.4001   -1.5778    0.0043 H   0  0  0  0  0  0  0  0  0  0  0  0
    4.5157    0.8997    1.0316 C   0  0  0  0  0  0  0  0  0  0  0  0
    4.8051    1.9515    1.2262 H   0  0  0  0  0  0  0  0  0  0  0  0
    4.1751    0.4697    2.0080 H   0  0  0  0  0  0  0  0  0  0  0  0
    3.3843    0.8417    0.0026 C   0  0  0  0  0  0  0  0  0  0  0  0
    3.7023    1.4142   -0.8966 H   0  0  0  0  0  0  0  0  0  0  0  0
    2.4788    1.3505    0.4075 H   0  0  0  0  0  0  0  0  0  0  0  0
  1  2  1  0  0  0  0
  3  1  1  0  0  0  0
  4 11  1  0  0  0  0
  5  4  1  0  0  0  0
  6  4  1  0  0  0  0
  7 21  1  0  0  0  0
  8  1  1  0  0  0  0
  8 10  1  0  0  0  0
  9  8  1  0  0  0  0
 11 14  1  0  0  0  0
 12 11  1  0  0  0  0
 13 11  1  0  0  0  0
 14 24  1  0  0  0  0
 14  8  1  0  0  0  0
 15 14  1  0  0  0  0
 15 18  1  0  0  0  0
 16 15  1  0  0  0  0
 17 15  1  0  0  0  0
 18  7  1  0  0  0  0
 18 19  1  0  0  0  0
 20 18  1  0  0  0  0
 21 22  1  0  0  0  0
 21 23  1  0  0  0  0
 24 26  1  0  0  0  0
 24 21  1  0  0  0  0
 25 24  1  0  0  0  0
M  END
