1,12
q = 0.0, confidence = 0.998

 36 39  0  0  0  0  0  0  0  0999 V2000
    3.5798    0.2530   -0.9153 N   0  0  0  0  0  2  0  0  0  0  0  0
    4.3358    0.4384   -2.0163 C   0  0  0  0  0  0  0  0  0  0  0  0
    5.7440    0.3964   -1.9724 C   0  0  0  0  0  0  0  0  0  0  0  0
    6.4018    0.1375   -0.7715 C   0  0  0  0  0  0  0  0  0  0  0  0
    5.6331   -0.0623    0.4041 C   0  0  0  0  0  0  0  0  0  0  0  0
    6.1894   -0.3613    1.6958 C   0  0  0  0  0  0  0  0  0  0  0  0
    5.3765   -0.5505    2.7901 C   0  0  0  0  0  0  0  0  0  0  0  0
    3.9470   -0.4275    2.6913 C   0  0  0  0  0  0  0  0  0  0  0  0
    3.0592   -0.5978    3.7830 C   0  0  0  0  0  0  0  0  0  0  0  0
    1.7042   -0.3687    3.5841 C   0  0  0  0  0  0  0  0  0  0  0  0
    1.2004    0.0204    2.3148 C   0  0  0  0  0  0  0  0  0  0  0  0
    2.0167    0.0728    1.2281 N   0  0  0  0  0  2  0  0  0  0  0  0
    3.3707   -0.1143    1.4270 C   0  0  0  0  0  0  0  0  0  0  0  0
    4.2160    0.0302    0.2826 C   0  0  0  0  0  0  0  0  0  0  0  0
   -0.2055    0.4833    2.2194 C   0  0  0  0  0  0  0  0  0  0  0  0
   -1.2952   -0.3707    2.4775 C   0  0  0  0  0  0  0  0  0  0  0  0
   -2.6131    0.1072    2.4630 C   0  0  0  0  0  0  0  0  0  0  0  0
   -2.8608    1.4756    2.2145 C   0  0  0  0  0  0  0  0  0  0  0  0
   -1.7680    2.3488    2.0100 C   0  0  0  0  0  0  0  0  0  0  0  0
   -0.4643    1.8566    1.9997 C   0  0  0  0  0  0  0  0  0  0  0  0
   -4.0895    2.0359    2.1424 O   0  0  0  0  0  0  0  0  0  0  0  0
   -5.2326    1.2299    2.4089 C   0  0  0  0  0  0  0  0  0  0  0  0
    3.7706    0.5834   -2.9510 H   0  0  0  0  0  0  0  0  0  0  0  0
    6.3064    0.5546   -2.9035 H   0  0  0  0  0  0  0  0  0  0  0  0
    7.4996    0.0819   -0.7243 H   0  0  0  0  0  0  0  0  0  0  0  0
    7.2824   -0.4429    1.7915 H   0  0  0  0  0  0  0  0  0  0  0  0
    5.8117   -0.7901    3.7718 H   0  0  0  0  0  0  0  0  0  0  0  0
    3.4493   -0.8704    4.7749 H   0  0  0  0  0  0  0  0  0  0  0  0
    0.9929   -0.4278    4.4197 H   0  0  0  0  0  0  0  0  0  0  0  0
   -1.1132   -1.4396    2.6683 H   0  0  0  0  0  0  0  0  0  0  0  0
   -3.4431   -0.5923    2.6274 H   0  0  0  0  0  0  0  0  0  0  0  0
   -1.9758    3.4158    1.8464 H   0  0  0  0  0  0  0  0  0  0  0  0
    0.3765    2.5463    1.8356 H   0  0  0  0  0  0  0  0  0  0  0  0
   -6.1066    1.9007    2.3279 H   0  0  0  0  0  0  0  0  0  0  0  0
   -5.3376    0.4074    1.6694 H   0  0  0  0  0  0  0  0  0  0  0  0
   -5.1965    0.8026    3.4346 H   0  0  0  0  0  0  0  0  0  0  0  0
  1 14  1  0  0  0  0
  2  3  2  0  0  0  0
  2  1  1  0  0  0  0
  3  4  1  0  0  0  0
  4 25  1  0  0  0  0
  4  5  2  0  0  0  0
  5  6  1  0  0  0  0
  6 26  1  0  0  0  0
  6  7  2  0  0  0  0
  7 27  1  0  0  0  0
  8  7  1  0  0  0  0
  8  9  2  0  0  0  0
  9 28  1  0  0  0  0
 10  9  1  0  0  0  0
 10 29  1  0  0  0  0
 11 10  2  0  0  0  0
 12 13  1  0  0  0  0
 12 11  1  0  0  0  0
 13  8  1  0  0  0  0
 14  5  1  0  0  0  0
 14 13  2  0  0  0  0
 15 11  1  0  0  0  0
 15 16  1  0  0  0  0
 16 30  1  0  0  0  0
 17 16  2  0  0  0  0
 17 31  1  0  0  0  0
 18 17  1  0  0  0  0
 19 18  2  0  0  0  0
 20 19  1  0  0  0  0
 20 15  2  0  0  0  0
 21 18  1  0  0  0  0
 21 22  1  0  0  0  0
 22 36  1  0  0  0  0
 23  2  1  0  0  0  0
 24  3  1  0  0  0  0
 32 19  1  0  0  0  0
 33 20  1  0  0  0  0
 34 22  1  0  0  0  0
 35 22  1  0  0  0  0
M  END
