1,2
q = 0.0, confidence = 0.992

 40 41  0  0  0  0  0  0  0  0999 V2000
   -1.5492   -1.4429    0.1485 N   0  0  0  0  0  2  0  0  0  0  0  0
    1.0489   -1.6795    0.2571 N   0  0  0  0  0  2  0  0  0  0  0  0
   -1.0815   -2.6561    0.3543 C   0  0  0  0  0  0  0  0  0  0  0  0
   -1.7539   -3.5224    0.4839 H   0  0  0  0  0  0  0  0  0  0  0  0
    0.3503   -2.7791    0.4315 C   0  0  0  0  0  0  0  0  0  0  0  0
    0.8380   -3.7449    0.6559 H   0  0  0  0  0  0  0  0  0  0  0  0
   -2.9561   -1.2219    0.0759 C   0  0  0  0  0  0  0  0  0  0  0  0
   -3.6310   -0.7785    1.2385 C   0  0  0  0  0  0  0  0  0  0  0  0
   -2.8759   -0.5826    2.5258 C   0  0  0  0  0  0  0  0  0  0  0  0
   -2.4368   -1.5319    2.8977 H   0  0  0  0  0  0  0  0  0  0  0  0
   -3.5326   -0.1754    3.3174 H   0  0  0  0  0  0  0  0  0  0  0  0
   -2.0245    0.1154    2.3737 H   0  0  0  0  0  0  0  0  0  0  0  0
   -5.0074   -0.5065    1.1316 C   0  0  0  0  0  0  0  0  0  0  0  0
   -5.5505   -0.1624    2.0256 H   0  0  0  0  0  0  0  0  0  0  0  0
   -5.6817   -0.6549   -0.0880 C   0  0  0  0  0  0  0  0  0  0  0  0
   -6.7572   -0.4318   -0.1528 H   0  0  0  0  0  0  0  0  0  0  0  0
   -4.9826   -1.0714   -1.2290 C   0  0  0  0  0  0  0  0  0  0  0  0
   -5.5058   -1.1683   -2.1931 H   0  0  0  0  0  0  0  0  0  0  0  0
   -3.6064   -1.3594   -1.1735 C   0  0  0  0  0  0  0  0  0  0  0  0
   -2.8262   -1.7595   -2.3982 C   0  0  0  0  0  0  0  0  0  0  0  0
   -2.4283   -2.7930   -2.3198 H   0  0  0  0  0  0  0  0  0  0  0  0
   -1.9462   -1.0950   -2.5346 H   0  0  0  0  0  0  0  0  0  0  0  0
   -3.4551   -1.7069   -3.3066 H   0  0  0  0  0  0  0  0  0  0  0  0
    2.4677   -1.7314    0.3280 C   0  0  0  0  0  0  0  0  0  0  0  0
    3.1107   -1.1617    1.4554 C   0  0  0  0  0  0  0  0  0  0  0  0
    2.3006   -0.5680    2.5747 C   0  0  0  0  0  0  0  0  0  0  0  0
    1.6480    0.2441    2.1862 H   0  0  0  0  0  0  0  0  0  0  0  0
    2.9537   -0.1551    3.3660 H   0  0  0  0  0  0  0  0  0  0  0  0
    1.6238   -1.3168    3.0363 H   0  0  0  0  0  0  0  0  0  0  0  0
    4.5168   -1.1555    1.4728 C   0  0  0  0  0  0  0  0  0  0  0  0
    5.0326   -0.7177    2.3415 H   0  0  0  0  0  0  0  0  0  0  0  0
    5.2583   -1.6761    0.4037 C   0  0  0  0  0  0  0  0  0  0  0  0
    6.3579   -1.6503    0.4319 H   0  0  0  0  0  0  0  0  0  0  0  0
    4.5983   -2.2145   -0.7093 C   0  0  0  0  0  0  0  0  0  0  0  0
    5.1783   -2.6019   -1.5614 H   0  0  0  0  0  0  0  0  0  0  0  0
    3.1930   -2.2558   -0.7717 C   0  0  0  0  0  0  0  0  0  0  0  0
    2.4754   -2.7686   -1.9945 C   0  0  0  0  0  0  0  0  0  0  0  0
    1.7215   -2.0327   -2.3457 H   0  0  0  0  0  0  0  0  0  0  0  0
    1.9279   -3.7141   -1.7990 H   0  0  0  0  0  0  0  0  0  0  0  0
    3.1883   -2.9607   -2.8182 H   0  0  0  0  0  0  0  0  0  0  0  0
  1  3  1  0  0  0  0
  2 24  1  0  0  0  0
  2  5  1  0  0  0  0
  3  5  2  0  0  0  0
  3  4  1  0  0  0  0
  5  6  1  0  0  0  0
  7  1  1  0  0  0  0
  7  8  1  0  0  0  0
  8  9  1  0  0  0  0
  9 10  1  0  0  0  0
  9 11  1  0  0  0  0
 12  9  1  0  0  0  0
 13  8  2  0  0  0  0
 13 14  1  0  0  0  0
 15 13  1  0  0  0  0
 16 15  1  0  0  0  0
 17 19  1  0  0  0  0
 17 15  2  0  0  0  0
 18 17  1  0  0  0  0
 19  7  2  0  0  0  0
 20 21  1  0  0  0  0
 20 19  1  0  0  0  0
 22 20  1  0  0  0  0
 23 20  1  0  0  0  0
 24 25  1  0  0  0  0
 25 30  2  0  0  0  0
 25 26  1  0  0  0  0
 26 29  1  0  0  0  0
 26 28  1  0  0  0  0
 27 26  1  0  0  0  0
 30 31  1  0  0  0  0
 32 33  1  0  0  0  0
 32 30  1  0  0  0  0
 34 32  2  0  0  0  0
 35 34  1  0  0  0  0
 36 34  1  0  0  0  0
 36 24  2  0  0  0  0
 37 39  1  0  0  0  0
 37 36  1  0  0  0  0
 38 37  1  0  0  0  0
 40 37  1  0  0  0  0
M  END
