27,28
q = 0.0, confidence = 1.0

 32 36  0  0  0  0  0  0  0  0999 V2000
    1.0949   -2.5649    0.9539 C   0  0  0  0  0  0  0  0  0  0  0  0
    2.0898   -3.0142    1.0691 H   0  0  0  0  0  0  0  0  0  0  0  0
   -0.0691   -3.2399    1.3717 C   0  0  0  0  0  0  0  0  0  0  0  0
    0.0285   -4.2293    1.8394 H   0  0  0  0  0  0  0  0  0  0  0  0
   -1.3197   -2.6572    1.1831 C   0  0  0  0  0  0  0  0  0  0  0  0
   -2.2287   -3.1848    1.5070 H   0  0  0  0  0  0  0  0  0  0  0  0
   -1.4032   -1.3913    0.5507 C   0  0  0  0  0  0  0  0  0  0  0  0
   -2.5863   -0.6570    0.2321 C   0  0  0  0  0  0  0  0  0  0  0  0
   -2.5786    0.5836   -0.4531 C   0  0  0  0  0  0  0  0  0  0  0  0
   -1.3403    1.1806   -0.8766 C   0  0  0  0  0  0  0  0  0  0  0  0
   -1.2263    2.3794   -1.6160 C   0  0  0  0  0  0  0  0  0  0  0  0
   -2.1375    2.9324   -1.8848 H   0  0  0  0  0  0  0  0  0  0  0  0
    0.0421    2.8067   -2.0027 C   0  0  0  0  0  0  0  0  0  0  0  0
    0.1773    3.7182   -2.6015 H   0  0  0  0  0  0  0  0  0  0  0  0
    1.1800    2.0595   -1.6358 C   0  0  0  0  0  0  0  0  0  0  0  0
    2.1856    2.3572   -1.9604 H   0  0  0  0  0  0  0  0  0  0  0  0
   -0.1457    0.4835   -0.5375 C   0  0  0  0  0  0  0  0  0  0  0  0
   -0.1727   -0.7694    0.1594 C   0  0  0  0  0  0  0  0  0  0  0  0
   -4.6500    0.1363   -0.0907 C   0  0  0  0  0  0  0  0  0  0  0  0
   -6.0907    0.2184   -0.0543 C   0  0  0  0  0  0  0  0  0  0  0  0
   -6.8714    1.2434   -0.5854 C   0  0  0  0  0  0  0  0  0  0  0  0
   -6.4243    2.1062   -1.0957 H   0  0  0  0  0  0  0  0  0  0  0  0
   -8.2615    1.0303   -0.3881 C   0  0  0  0  0  0  0  0  0  0  0  0
   -9.0472    1.7170   -0.7300 H   0  0  0  0  0  0  0  0  0  0  0  0
   -8.5327   -0.1479    0.2878 C   0  0  0  0  0  0  0  0  0  0  0  0
   -9.5060   -0.5643    0.5753 H   0  0  0  0  0  0  0  0  0  0  0  0
    1.0436   -1.3494    0.3847 N   0  0  0  0  0  2  0  0  0  0  0  0
    1.0931    0.9427   -0.8948 N   0  0  0  0  0  2  0  0  0  0  0  0
   -3.9218   -0.9179    0.4494 N   0  0  0  0  0  0  0  0  0  0  0  0
   -4.3173   -1.7359    0.9152 H   0  0  0  0  0  0  0  0  0  0  0  0
   -3.8455    1.0523   -0.6412 N   0  0  0  0  0  0  0  0  0  0  0  0
   -7.0902   -1.0087    0.6901 S   0  0  0  0  0  0  0  0  0  0  0  0
  1  2  1  0  0  0  0
  1  3  2  0  0  0  0
  3  4  1  0  0  0  0
  5  3  1  0  0  0  0
  5  6  1  0  0  0  0
  7  5  2  0  0  0  0
  8 29  1  0  0  0  0
  8  7  1  0  0  0  0
  9  8  2  0  0  0  0
 10 17  1  0  0  0  0
 10  9  1  0  0  0  0
 11 10  2  0  0  0  0
 12 11  1  0  0  0  0
 13 15  2  0  0  0  0
 13 11  1  0  0  0  0
 14 13  1  0  0  0  0
 15 28  1  0  0  0  0
 16 15  1  0  0  0  0
 17 18  2  0  0  0  0
 18 27  1  0  0  0  0
 18  7  1  0  0  0  0
 19 20  1  0  0  0  0
 19 29  1  0  0  0  0
 20 32  1  0  0  0  0
 21 23  1  0  0  0  0
 21 20  2  0  0  0  0
 22 21  1  0  0  0  0
 23 25  2  0  0  0  0
 24 23  1  0  0  0  0
 25 26  1  0  0  0  0
 25 32  1  0  0  0  0
 27  1  1  0  0  0  0
 28 17  1  0  0  0  0
 29 30  1  0  0  0  0
 31  9  1  0  0  0  0
 31 19  2  0  0  0  0
M  END
