3,5
q = -1.0, confidence = 0.0

 35 38  0  0  0  0  0  0  0  0999 V2000
    3.5082   -0.4224   -1.9131 F   0  0  0  0  0  0  0  0  0  0  0  0
   -6.0871   -0.1768   -2.2890 F   0  0  0  0  0  0  0  0  0  0  0  0
   -0.3938    0.8703    0.1479 N   0  0  0  0  0  0  0  0  0  0  0  0
    0.9252    2.9076    0.1474 N   0  0  0  0  0  0  0  0  0  0  0  0
    2.2851    1.1222   -0.7663 N   0  0  0  0  0  2  0  0  0  0  0  0
   -2.1922   -0.6375    0.1419 N   0  0  0  0  0  2  0  0  0  0  0  0
   -4.2124   -0.3851   -1.0492 N   0  0  0  0  0  0  0  0  0  0  0  0
   -0.1886    2.2154    0.2572 C   0  0  0  0  0  0  0  0  0  0  0  0
   -1.4887    2.8728    0.4962 C   0  0  0  0  0  0  0  0  0  0  0  0
   -2.4830    1.8740    0.4266 C   0  0  0  0  0  3  0  0  0  0  0  0
   -1.7644    0.5842    0.1991 C   0  0  0  0  0  0  0  0  0  0  0  0
   -1.7930    4.2132    0.7427 C   0  0  0  0  0  0  0  0  0  0  0  0
   -0.9887    4.9623    0.7775 H   0  0  0  0  0  0  0  0  0  0  0  0
   -3.1435    4.5471    0.9468 C   0  0  0  0  0  0  0  0  0  0  0  0
   -3.4257    5.5919    1.1469 H   0  0  0  0  0  0  0  0  0  0  0  0
   -4.1420    3.5554    0.8977 C   0  0  0  0  0  0  0  0  0  0  0  0
   -5.1933    3.8386    1.0584 H   0  0  0  0  0  0  0  0  0  0  0  0
   -3.8274    2.2087    0.6337 C   0  0  0  0  0  0  0  0  0  0  0  0
   -4.6205    1.4536    0.5778 H   0  0  0  0  0  0  0  0  0  0  0  0
    2.0864    2.4364   -0.3708 C   0  0  0  0  0  0  0  0  0  0  0  0
    3.1290    3.3843   -0.5738 C   0  0  0  0  0  0  0  0  0  0  0  0
    2.9452    4.4006   -0.2027 H   0  0  0  0  0  0  0  0  0  0  0  0
    4.2797    3.0380   -1.2732 C   0  0  0  0  0  0  0  0  0  0  0  0
    5.0697    3.7819   -1.4539 H   0  0  0  0  0  0  0  0  0  0  0  0
    4.4081    1.7333   -1.7798 C   0  0  0  0  0  0  0  0  0  0  0  0
    5.2621    1.3964   -2.3806 H   0  0  0  0  0  0  0  0  0  0  0  0
    3.3826    0.8357   -1.4864 C   0  0  0  0  0  0  0  0  0  0  0  0
   -3.4958   -1.0142   -0.0831 C   0  0  0  0  0  0  0  0  0  0  0  0
   -4.0363   -2.1193    0.6291 C   0  0  0  0  0  0  0  0  0  0  0  0
   -3.4358   -2.6170    1.4024 H   0  0  0  0  0  0  0  0  0  0  0  0
   -5.3356   -2.5423    0.3333 C   0  0  0  0  0  0  0  0  0  0  0  0
   -5.7786   -3.3886    0.8801 H   0  0  0  0  0  0  0  0  0  0  0  0
   -6.0690   -1.8967   -0.6738 C   0  0  0  0  0  0  0  0  0  0  0  0
   -7.0843   -2.1977   -0.9634 H   0  0  0  0  0  0  0  0  0  0  0  0
   -5.4227   -0.8279   -1.3169 C   0  0  0  0  0  0  0  0  0  0  0  0
  1 27  1  0  0  0  0
  2 35  1  0  0  0  0
  3 11  2  0  0  0  0
  3  8  1  0  0  0  0
  4  8  1  0  0  0  0
  5 20  1  0  0  0  0
  6 11  1  0  0  0  0
  7 28  1  0  0  0  0
  8  9  2  0  0  0  0
  9 12  1  0  0  0  0
 10  9  1  0  0  0  0
 10 18  1  0  0  0  0
 11 10  1  0  0  0  0
 12 13  1  0  0  0  0
 12 14  2  0  0  0  0
 14 15  1  0  0  0  0
 16 14  1  0  0  0  0
 16 17  1  0  0  0  0
 18 16  2  0  0  0  0
 19 18  1  0  0  0  0
 20  4  2  0  0  0  0
 21 20  1  0  0  0  0
 21 22  1  0  0  0  0
 23 21  2  0  0  0  0
 24 23  1  0  0  0  0
 25 27  2  0  0  0  0
 25 23  1  0  0  0  0
 26 25  1  0  0  0  0
 27  5  1  0  0  0  0
 28  6  1  0  0  0  0
 28 29  2  0  0  0  0
 29 30  1  0  0  0  0
 31 29  1  0  0  0  0
 31 32  1  0  0  0  0
 33 31  2  0  0  0  0
 34 33  1  0  0  0  0
 35  7  2  0  0  0  0
 35 33  1  0  0  0  0
M  END
