1,3
q = 0.0, confidence = 0.88

 29 31  0  0  1  0  0  0  0  0999 V2000
    0.9634    0.8338    0.9235 N   0  0  0  0  0  2  0  0  0  0  0  0
    2.2504    0.7282    1.1284 N   0  0  0  0  0  2  0  0  0  0  0  0
    2.0600   -0.7479   -0.6641 N   0  0  0  0  0  2  0  0  0  0  0  0
   -0.9876    1.3581    2.3144 C   0  0  0  0  0  0  0  0  0  0  0  0
   -1.4375    0.3989    2.0297 H   0  0  0  0  0  0  0  0  0  0  0  0
   -1.6631    2.2422    3.1635 C   0  0  0  0  0  0  0  0  0  0  0  0
   -2.6610    1.9730    3.5403 H   0  0  0  0  0  0  0  0  0  0  0  0
   -1.0759    3.4651    3.5290 C   0  0  0  0  0  0  0  0  0  0  0  0
   -1.6190    4.1640    4.1824 H   0  0  0  0  0  0  0  0  0  0  0  0
    0.2064    3.7930    3.0574 C   0  0  0  0  0  0  0  0  0  0  0  0
    0.6692    4.7513    3.3380 H   0  0  0  0  0  0  0  0  0  0  0  0
    0.9006    2.9100    2.2220 C   0  0  0  0  0  0  0  0  0  0  0  0
    1.8986    3.1470    1.8299 H   0  0  0  0  0  0  0  0  0  0  0  0
    0.2928    1.6971    1.8363 C   0  0  0  0  0  0  0  0  0  0  0  0
    2.8514   -0.1279    0.2544 C   0  0  0  0  0  0  0  0  0  0  0  0
    4.2570   -0.4175    0.3625 C   0  0  0  0  0  0  0  0  0  0  0  0
    5.0912    0.2160    1.3201 C   0  0  0  0  0  0  0  0  0  0  0  0
    4.6401    0.9488    2.0034 H   0  0  0  0  0  0  0  0  0  0  0  0
    6.4439   -0.0971    1.3766 C   0  0  0  0  0  0  0  0  0  0  0  0
    7.0901    0.3959    2.1183 H   0  0  0  0  0  0  0  0  0  0  0  0
    7.0000   -1.0498    0.4833 C   0  0  0  0  0  0  0  0  0  0  0  0
    8.0735   -1.2859    0.5391 H   0  0  0  0  0  0  0  0  0  0  0  0
    6.1997   -1.6841   -0.4581 C   0  0  0  0  0  0  0  0  0  0  0  0
    6.6276   -2.4232   -1.1525 H   0  0  0  0  0  0  0  0  0  0  0  0
    4.8109   -1.3862   -0.5424 C   0  0  2  0  0  3  0  0  0  0  0  0
    3.9352   -2.0001   -1.4890 C   0  0  0  0  0  0  0  0  0  0  0  0
    4.3292   -2.7321   -2.2088 H   0  0  0  0  0  0  0  0  0  0  0  0
    2.5944   -1.6644   -1.5219 C   0  0  0  0  0  0  0  0  0  0  0  0
    1.8797   -2.0739   -2.2534 H   0  0  0  0  0  0  0  0  0  0  0  0
  1  2  1  0  0  0  0
  1 14  1  0  0  0  0
  3 15  1  0  0  0  0
  4  6  1  0  0  0  0
  5  4  1  0  0  0  0
  6  8  2  0  0  0  0
  6  7  1  0  0  0  0
  8  9  1  0  0  0  0
 10 11  1  0  0  0  0
 10  8  1  0  0  0  0
 12 10  2  0  0  0  0
 13 12  1  0  0  0  0
 14 12  1  0  0  0  0
 14  4  2  0  0  0  0
 15 16  2  0  0  0  0
 15  2  1  0  0  0  0
 16 17  1  0  0  0  0
 17 19  2  0  0  0  0
 17 18  1  0  0  0  0
 19 20  1  0  0  0  0
 21 22  1  0  0  0  0
 21 19  1  0  0  0  0
 23 21  2  0  0  0  0
 24 23  1  0  0  0  0
 25 26  1  6  0  0  0
 25 23  1  0  0  0  0
 25 16  1  0  0  0  0
 27 26  1  0  0  0  0
 28 26  2  0  0  0  0
 28  3  1  0  0  0  0
 29 28  1  0  0  0  0
M  END
