24,25
q = 0.0, confidence = 0.996

 26 27  0  0  0  0  0  0  0  0999 V2000
   -3.5140    1.4022   -0.3162 C   0  0  0  0  0  3  0  0  0  0  0  0
   -3.9956    0.4181   -0.3632 H   0  0  0  0  0  0  0  0  0  0  0  0
   -4.2585    2.5804   -0.4337 C   0  0  0  0  0  0  0  0  0  0  0  0
   -5.3488    2.5145   -0.5550 H   0  0  0  0  0  0  0  0  0  0  0  0
   -3.6016    3.8228   -0.4052 C   0  0  0  0  0  0  0  0  0  0  0  0
   -4.1673    4.7608   -0.4982 H   0  0  0  0  0  0  0  0  0  0  0  0
   -2.2111    3.8380   -0.2774 C   0  0  0  0  0  0  0  0  0  0  0  0
   -1.6436    4.7796   -0.2819 H   0  0  0  0  0  0  0  0  0  0  0  0
   -1.5197    2.6173   -0.1603 C   0  0  0  0  0  0  0  0  0  0  0  0
   -0.0901    2.4897   -0.0982 C   0  0  0  0  0  3  0  0  0  0  0  0
    0.5829    3.3615   -0.1436 H   0  0  0  0  0  0  0  0  0  0  0  0
    1.7886    1.0576   -0.0703 C   0  0  0  0  0  0  0  0  0  0  0  0
    2.5960    1.5888    0.9560 C   0  0  0  0  0  0  0  0  0  0  0  0
    2.1366    2.1610    1.7755 H   0  0  0  0  0  0  0  0  0  0  0  0
    3.9775    1.3563    0.9383 C   0  0  0  0  0  0  0  0  0  0  0  0
    4.6463    1.7372    1.7220 H   0  0  0  0  0  0  0  0  0  0  0  0
    4.5191    0.6071   -0.1118 C   0  0  0  0  0  0  0  0  0  0  0  0
    3.7309    0.0921   -1.1503 C   0  0  0  0  0  0  0  0  0  0  0  0
    4.2180   -0.4720   -1.9574 H   0  0  0  0  0  0  0  0  0  0  0  0
    2.3509    0.3122   -1.1268 C   0  0  0  0  0  0  0  0  0  0  0  0
    1.6882   -0.0598   -1.9227 H   0  0  0  0  0  0  0  0  0  0  0  0
    6.6463    0.8324    0.7915 O   0  0  0  0  0  0  0  0  0  0  0  0
    6.4217   -0.3420   -1.0433 O   0  0  0  0  0  0  0  0  0  0  0  0
   -2.1737    1.4075   -0.1529 N   0  0  0  0  0  2  0  0  0  0  0  0
    0.3797    1.2637   -0.0520 N   0  0  0  0  0  2  0  0  0  0  0  0
    5.9881    0.3448   -0.1229 N   0  0  0  0  0  0  0  0  0  0  0  0
  1 24  1  0  0  0  0
  2  1  1  0  0  0  0
  3  5  2  0  0  0  0
  3  1  1  0  0  0  0
  4  3  1  0  0  0  0
  5  7  1  0  0  0  0
  6  5  1  0  0  0  0
  7  9  2  0  0  0  0
  8  7  1  0  0  0  0
  9 24  1  0  0  0  0
  9 10  1  0  0  0  0
 10 25  1  0  0  0  0
 11 10  1  0  0  0  0
 12 25  1  0  0  0  0
 12 13  1  0  0  0  0
 13 14  1  0  0  0  0
 15 13  2  0  0  0  0
 15 16  1  0  0  0  0
 17 15  1  0  0  0  0
 18 20  1  0  0  0  0
 18 17  2  0  0  0  0
 19 18  1  0  0  0  0
 20 12  2  0  0  0  0
 21 20  1  0  0  0  0
 23 26  2  0  0  0  0
 26 17  1  0  0  0  0
 26 22  2  0  0  0  0
M  END
