2,3
q = 0.0, confidence = 0.826

 23 24  0  0  0  0  0  0  0  0999 V2000
    0.0498    1.9111   -3.5082 Cl  0  0  0  0  0  0  0  0  0  0  0  0
   -0.3419   -0.5188   -1.6925 N   0  0  0  0  0  2  0  0  0  0  0  0
    1.8592   -1.4707   -1.0181 N   0  0  0  0  0  2  0  0  0  0  0  0
    0.0413   -1.5136   -2.5073 N   0  0  0  0  0  2  0  0  0  0  0  0
   -2.7865   -0.4683   -1.9074 C   0  0  0  0  0  0  0  0  0  0  0  0
   -2.8137   -1.4121   -1.3506 H   0  0  0  0  0  0  0  0  0  0  0  0
    1.8518   -3.0620   -2.8699 C   0  0  0  0  0  0  0  0  0  0  0  0
    1.3006   -3.4721   -3.7265 H   0  0  0  0  0  0  0  0  0  0  0  0
    3.7456   -2.9385   -1.3694 C   0  0  0  0  0  0  0  0  0  0  0  0
    4.7317   -3.2831   -1.0295 H   0  0  0  0  0  0  0  0  0  0  0  0
    3.1050   -3.5183   -2.4947 C   0  0  0  0  0  0  0  0  0  0  0  0
    3.5952   -4.3259   -3.0587 H   0  0  0  0  0  0  0  0  0  0  0  0
    3.0884   -1.9346   -0.6681 C   0  0  0  0  0  3  0  0  0  0  0  0
    3.5324   -1.4926    0.2367 H   0  0  0  0  0  0  0  0  0  0  0  0
   -3.9087    1.3607   -3.0443 C   0  0  0  0  0  0  0  0  0  0  0  0
   -4.8314    1.8650   -3.3681 H   0  0  0  0  0  0  0  0  0  0  0  0
   -1.5346    0.1118   -2.1774 C   0  0  0  0  0  0  0  0  0  0  0  0
    1.2338   -2.0156   -2.1304 C   0  0  0  0  0  0  0  0  0  0  0  0
   -2.6651    1.9211   -3.3710 C   0  0  0  0  0  0  0  0  0  0  0  0
   -2.5936    2.8443   -3.9628 H   0  0  0  0  0  0  0  0  0  0  0  0
   -3.9682    0.1510   -2.3331 C   0  0  0  0  0  0  0  0  0  0  0  0
   -4.9376   -0.3127   -2.0981 H   0  0  0  0  0  0  0  0  0  0  0  0
   -1.4815    1.2837   -2.9627 C   0  0  0  0  0  0  0  0  0  0  0  0
  1 23  1  0  0  0  0
  3 13  1  0  0  0  0
  4 18  1  0  0  0  0
  4  2  1  0  0  0  0
  5  6  1  0  0  0  0
  7 11  1  0  0  0  0
  7 18  2  0  0  0  0
  8  7  1  0  0  0  0
  9 10  1  0  0  0  0
  9 13  1  0  0  0  0
 11  9  2  0  0  0  0
 12 11  1  0  0  0  0
 13 14  1  0  0  0  0
 15 21  1  0  0  0  0
 16 15  1  0  0  0  0
 17  5  1  0  0  0  0
 17  2  1  0  0  0  0
 18  3  1  0  0  0  0
 19 15  2  0  0  0  0
 19 23  1  0  0  0  0
 20 19  1  0  0  0  0
 21 22  1  0  0  0  0
 21  5  2  0  0  0  0
 23 17  2  0  0  0  0
M  END
