2,9
q = 0.0, confidence = 0.824

 23 24  0  0  0  0  0  0  0  0999 V2000
    0.0744   -3.9956    0.1094 Cl  0  0  0  0  0  0  0  0  0  0  0  0
    1.8714   -0.1373    1.7708 N   0  0  0  0  0  2  0  0  0  0  0  0
    0.0643   -1.4148    2.5621 N   0  0  0  0  0  0  0  0  0  0  0  0
    1.2557   -0.8323    2.8017 C   0  0  0  0  0  0  0  0  0  0  0  0
    3.7661    0.2970    3.2053 C   0  0  0  0  0  0  0  0  0  0  0  0
    4.7514    0.7670    3.3279 H   0  0  0  0  0  0  0  0  0  0  0  0
    1.8828   -0.9493    4.0733 C   0  0  0  0  0  0  0  0  0  0  0  0
    1.3390   -1.4897    4.8594 H   0  0  0  0  0  0  0  0  0  0  0  0
   -0.3281   -1.2066    1.2960 N   0  0  0  0  0  2  0  0  0  0  0  0
    3.1001    0.4020    1.9899 C   0  0  0  0  0  0  0  0  0  0  0  0
    3.5363    0.9675    1.1526 H   0  0  0  0  0  0  0  0  0  0  0  0
   -1.5183   -1.9486    0.9986 C   0  0  0  0  0  0  0  0  0  0  0  0
   -2.7717   -1.4292    1.3669 C   0  0  0  0  0  0  0  0  0  0  0  0
   -2.8021   -0.4723    1.9010 H   0  0  0  0  0  0  0  0  0  0  0  0
   -2.6416   -3.8967    0.0402 C   0  0  0  0  0  0  0  0  0  0  0  0
   -2.5667   -4.8725   -0.4598 H   0  0  0  0  0  0  0  0  0  0  0  0
   -3.8871   -3.3385    0.3633 C   0  0  0  0  0  0  0  0  0  0  0  0
   -4.8079   -3.8768    0.0934 H   0  0  0  0  0  0  0  0  0  0  0  0
    3.1353   -0.3919    4.2732 C   0  0  0  0  0  0  0  0  0  0  0  0
    3.6326   -0.4765    5.2511 H   0  0  0  0  0  0  0  0  0  0  0  0
   -1.4604   -3.2170    0.3817 C   0  0  0  0  0  0  0  0  0  0  0  0
   -3.9509   -2.1149    1.0501 C   0  0  0  0  0  0  0  0  0  0  0  0
   -4.9217   -1.6833    1.3350 H   0  0  0  0  0  0  0  0  0  0  0  0
  1 21  1  0  0  0  0
  2 10  1  0  0  0  0
  2  4  1  0  0  0  0
  3  4  2  0  0  0  0
  4  7  1  0  0  0  0
  5  6  1  0  0  0  0
  5 19  1  0  0  0  0
  7 19  2  0  0  0  0
  7  8  1  0  0  0  0
  9  3  1  0  0  0  0
 10  5  2  0  0  0  0
 11 10  1  0  0  0  0
 12  9  1  0  0  0  0
 12 13  1  0  0  0  0
 13 14  1  0  0  0  0
 15 17  2  0  0  0  0
 15 21  1  0  0  0  0
 16 15  1  0  0  0  0
 17 22  1  0  0  0  0
 18 17  1  0  0  0  0
 19 20  1  0  0  0  0
 21 12  2  0  0  0  0
 22 23  1  0  0  0  0
 22 13  2  0  0  0  0
M  END
