3,4
q = 0.0, confidence = 1.0

 26 27  0  0  1  0  0  0  0  0999 V2000
   -1.1115    2.2096   -0.4751 O   0  0  0  0  0  0  0  0  0  0  0  0
   -3.0528    3.2309    0.0887 O   0  0  0  0  0  0  0  0  0  0  0  0
    0.5573   -1.2244    2.1908 N   0  0  0  0  0  2  0  0  0  0  0  0
   -1.2835    0.6662    1.8478 N   0  0  0  0  0  2  0  0  0  0  0  0
    1.5677   -2.1079    2.3116 C   0  0  0  0  0  3  0  0  0  0  0  0
    2.2323   -2.2086    1.4389 H   0  0  0  0  0  0  0  0  0  0  0  0
    1.7865   -2.8495    3.4770 C   0  0  0  0  0  0  0  0  0  0  0  0
    2.6240   -3.5596    3.5278 H   0  0  0  0  0  0  0  0  0  0  0  0
    0.9206   -2.6590    4.5659 C   0  0  0  0  0  0  0  0  0  0  0  0
    1.0628   -3.2178    5.5024 H   0  0  0  0  0  0  0  0  0  0  0  0
   -0.1267   -1.7394    4.4457 C   0  0  0  0  0  0  0  0  0  0  0  0
   -0.8046   -1.5664    5.2921 H   0  0  0  0  0  0  0  0  0  0  0  0
   -0.2898   -1.0329    3.2379 C   0  0  0  0  0  0  0  0  0  0  0  0
   -1.3724   -0.0459    3.0050 C   0  0  2  0  0  3  0  0  0  0  0  0
   -2.4437    0.1438    3.8996 C   0  0  0  0  0  0  0  0  0  0  0  0
   -2.5079   -0.4472    4.8228 H   0  0  0  0  0  0  0  0  0  0  0  0
   -3.4384    1.0801    3.5967 C   0  0  0  0  0  0  0  0  0  0  0  0
   -4.2843    1.2356    4.2816 H   0  0  0  0  0  0  0  0  0  0  0  0
   -3.3380    1.8131    2.4069 C   0  0  0  0  0  0  0  0  0  0  0  0
   -4.0863    2.5633    2.1223 H   0  0  0  0  0  0  0  0  0  0  0  0
   -2.2429    1.5776    1.5597 C   0  0  0  0  0  0  0  0  0  0  0  0
   -2.0585    2.3510    0.2846 C   0  0  0  0  0  0  0  0  0  0  0  0
   -2.9577    4.0301   -1.1037 C   0  0  0  0  0  0  0  0  0  0  0  0
   -3.8133    4.7259   -1.0695 H   0  0  0  0  0  0  0  0  0  0  0  0
   -3.0184    3.3826   -2.0000 H   0  0  0  0  0  0  0  0  0  0  0  0
   -1.9998    4.5859   -1.1213 H   0  0  0  0  0  0  0  0  0  0  0  0
  1 22  2  0  0  0  0
  2 22  1  0  0  0  0
  3  5  1  0  0  0  0
  3 13  1  0  0  0  0
  4 14  1  0  0  0  0
  5  7  1  0  0  0  0
  6  5  1  0  0  0  0
  7  8  1  0  0  0  0
  7  9  2  0  0  0  0
  9 10  1  0  0  0  0
 11  9  1  0  0  0  0
 11 12  1  0  0  0  0
 13 11  2  0  0  0  0
 14 13  1  6  0  0  0
 14 15  1  0  0  0  0
 15 16  1  0  0  0  0
 17 15  2  0  0  0  0
 17 18  1  0  0  0  0
 19 17  1  0  0  0  0
 20 19  1  0  0  0  0
 21  4  1  0  0  0  0
 21 19  2  0  0  0  0
 22 21  1  0  0  0  0
 23 24  1  0  0  0  0
 23  2  1  0  0  0  0
 25 23  1  0  0  0  0
 26 23  1  0  0  0  0
M  END
