1,2
q = -1.0, confidence = 0.028

 54 56  0  0  1  0  0  0  0  0999 V2000
   -0.8743    1.8463   -0.2116 N   0  0  0  0  0  2  0  0  0  0  0  0
    1.3282    0.4914    0.1201 N   0  0  0  0  0  2  0  0  0  0  0  0
   -3.0285    1.7665   -1.3185 C   0  0  0  0  0  0  0  0  0  0  0  0
   -2.6136    0.9985   -1.9887 H   0  0  0  0  0  0  0  0  0  0  0  0
   -4.3710    2.1534   -1.4184 C   0  0  0  0  0  0  0  0  0  0  0  0
   -5.0112    1.6935   -2.1866 H   0  0  0  0  0  0  0  0  0  0  0  0
   -4.9009    3.1137   -0.5415 C   0  0  0  0  0  0  0  0  0  0  0  0
   -5.9572    3.4117   -0.6165 H   0  0  0  0  0  0  0  0  0  0  0  0
   -4.0733    3.6802    0.4419 C   0  0  0  0  0  0  0  0  0  0  0  0
   -4.4830    4.4187    1.1480 H   0  0  0  0  0  0  0  0  0  0  0  0
   -2.7284    3.3012    0.5471 C   0  0  0  0  0  0  0  0  0  0  0  0
   -2.0925    3.7234    1.3390 H   0  0  0  0  0  0  0  0  0  0  0  0
   -2.1851    2.3421   -0.3410 C   0  0  0  0  0  0  0  0  0  0  0  0
    0.2315    2.6065   -0.0943 C   0  0  0  0  0  0  0  0  0  0  0  0
    0.2023    4.0093   -0.3257 C   0  0  0  0  0  0  0  0  0  0  0  0
   -0.7772    4.3702   -0.6761 H   0  0  0  0  0  0  0  0  0  0  0  0
    1.1755    5.0037   -0.1909 C   0  0  0  0  0  0  0  0  0  0  0  0
    0.8341    6.0163   -0.4641 H   0  0  0  0  0  0  0  0  0  0  0  0
    2.5004    4.9095    0.2601 C   0  0  0  0  0  0  0  0  0  0  0  0
    3.0697    5.8484    0.3394 H   0  0  0  0  0  0  0  0  0  0  0  0
    3.1683    3.7273    0.6079 C   0  0  0  0  0  0  0  0  0  0  0  0
    4.2080    3.8478    0.9558 H   0  0  0  0  0  0  0  0  0  0  0  0
    2.7263    2.4023    0.5472 C   0  0  0  0  0  0  0  0  0  0  0  0
    3.4755    1.6464    0.8322 H   0  0  0  0  0  0  0  0  0  0  0  0
    1.4772    1.8282    0.1815 C   0  0  1  0  0  3  0  0  0  0  0  0
    2.4266   -0.3968    0.2791 C   0  0  0  0  0  0  0  0  0  0  0  0
    3.2251   -0.7363   -0.8492 C   0  0  0  0  0  0  0  0  0  0  0  0
    4.2750   -1.6559   -0.6702 C   0  0  0  0  0  0  0  0  0  0  0  0
    4.9029   -1.9276   -1.5322 H   0  0  0  0  0  0  0  0  0  0  0  0
    4.5258   -2.2407    0.5768 C   0  0  0  0  0  0  0  0  0  0  0  0
    5.3500   -2.9604    0.6937 H   0  0  0  0  0  0  0  0  0  0  0  0
    3.7141   -1.9176    1.6707 C   0  0  0  0  0  0  0  0  0  0  0  0
    3.9011   -2.3936    2.6455 H   0  0  0  0  0  0  0  0  0  0  0  0
    2.6581   -0.9965    1.5471 C   0  0  0  0  0  0  0  0  0  0  0  0
    2.9503   -0.1395   -2.2244 C   0  0  0  0  0  0  0  0  0  0  0  0
    1.9360    0.3102   -2.1810 H   0  0  0  0  0  0  0  0  0  0  0  0
    2.9400   -1.2071   -3.3305 C   0  0  0  0  0  0  0  0  0  0  0  0
    2.5933   -0.7681   -4.2881 H   0  0  0  0  0  0  0  0  0  0  0  0
    2.2683   -2.0499   -3.0759 H   0  0  0  0  0  0  0  0  0  0  0  0
    3.9532   -1.6226   -3.5094 H   0  0  0  0  0  0  0  0  0  0  0  0
    3.9420    0.9896   -2.5598 C   0  0  0  0  0  0  0  0  0  0  0  0
    4.9808    0.5996   -2.5999 H   0  0  0  0  0  0  0  0  0  0  0  0
    3.9112    1.7979   -1.8037 H   0  0  0  0  0  0  0  0  0  0  0  0
    3.7093    1.4366   -3.5483 H   0  0  0  0  0  0  0  0  0  0  0  0
    1.7455   -0.7053    2.7314 C   0  0  0  0  0  0  0  0  0  0  0  0
    1.1395    0.1866    2.4677 H   0  0  0  0  0  0  0  0  0  0  0  0
    0.7723   -1.8805    2.9427 C   0  0  0  0  0  0  0  0  0  0  0  0
    0.1709   -2.0708    2.0302 H   0  0  0  0  0  0  0  0  0  0  0  0
    0.0730   -1.6737    3.7793 H   0  0  0  0  0  0  0  0  0  0  0  0
    1.3248   -2.8127    3.1823 H   0  0  0  0  0  0  0  0  0  0  0  0
    2.5189   -0.3667    4.0139 C   0  0  0  0  0  0  0  0  0  0  0  0
    3.1122   -1.2303    4.3792 H   0  0  0  0  0  0  0  0  0  0  0  0
    1.8181   -0.0847    4.8259 H   0  0  0  0  0  0  0  0  0  0  0  0
    3.2166    0.4796    3.8529 H   0  0  0  0  0  0  0  0  0  0  0  0
  1 14  1  0  0  0  0
  2 26  1  0  0  0  0
  3 13  1  0  0  0  0
  4  3  1  0  0  0  0
  5  3  2  0  0  0  0
  5  7  1  0  0  0  0
  6  5  1  0  0  0  0
  7  9  2  0  0  0  0
  8  7  1  0  0  0  0
  9 11  1  0  0  0  0
  9 10  1  0  0  0  0
 11 12  1  0  0  0  0
 13  1  1  0  0  0  0
 13 11  2  0  0  0  0
 14 25  1  0  0  0  0
 15 17  1  0  0  0  0
 15 14  2  0  0  0  0
 16 15  1  0  0  0  0
 17 19  2  0  0  0  0
 18 17  1  0  0  0  0
 19 20  1  0  0  0  0
 19 21  1  0  0  0  0
 21 22  1  0  0  0  0
 23 21  2  0  0  0  0
 23 24  1  0  0  0  0
 25  2  1  1  0  0  0
 25 23  1  0  0  0  0
 26 34  1  0  0  0  0
 27 28  1  0  0  0  0
 27 26  2  0  0  0  0
 28 30  2  0  0  0  0
 29 28  1  0  0  0  0
 30 31  1  0  0  0  0
 30 32  1  0  0  0  0
 32 33  1  0  0  0  0
 34 32  2  0  0  0  0
 34 45  1  0  0  0  0
 35 36  1  0  0  0  0
 35 27  1  0  0  0  0
 37 39  1  0  0  0  0
 37 35  1  0  0  0  0
 38 37  1  0  0  0  0
 40 37  1  0  0  0  0
 41 35  1  0  0  0  0
 41 43  1  0  0  0  0
 42 41  1  0  0  0  0
 44 41  1  0  0  0  0
 45 47  1  0  0  0  0
 45 51  1  0  0  0  0
 46 45  1  0  0  0  0
 47 50  1  0  0  0  0
 47 49  1  0  0  0  0
 48 47  1  0  0  0  0
 51 52  1  0  0  0  0
 51 53  1  0  0  0  0
 54 51  1  0  0  0  0
M  END
