1,3
q = 0.0, confidence = 1.0

 26 25  0  0  0  0  0  0  0  0999 V2000
   -1.0834    1.5128   -0.0009 N   0  0  0  0  0  0  0  0  0  0  0  0
   -1.5611    1.4825    0.9298 H   0  0  0  0  0  0  0  0  0  0  0  0
    1.5740    0.6331    0.6116 N   0  0  0  0  0  0  0  0  0  0  0  0
    1.7555    0.1211    1.4943 H   0  0  0  0  0  0  0  0  0  0  0  0
   -3.5333    0.9677    0.8541 O   0  0  0  0  0  0  0  0  0  0  0  0
   -3.3521    0.0378    0.5610 H   0  0  0  0  0  0  0  0  0  0  0  0
    5.0917    0.7971   -0.4648 O   0  0  0  0  0  0  0  0  0  0  0  0
    5.9425    0.8157    0.0071 H   0  0  0  0  0  0  0  0  0  0  0  0
   -2.1520    1.7604   -1.0111 C   0  0  0  0  0  0  0  0  0  0  0  0
   -2.0982    0.9553   -1.7678 H   0  0  0  0  0  0  0  0  0  0  0  0
   -1.9533    2.7211   -1.5286 H   0  0  0  0  0  0  0  0  0  0  0  0
    1.1178    2.0161    0.9549 C   0  0  0  0  0  0  0  0  0  0  0  0
    0.6972    1.9666    1.9791 H   0  0  0  0  0  0  0  0  0  0  0  0
    1.9755    2.7181    0.9525 H   0  0  0  0  0  0  0  0  0  0  0  0
    0.0459    2.4704   -0.0261 C   0  0  0  0  0  0  0  0  0  0  0  0
   -0.3052    3.4940    0.2259 H   0  0  0  0  0  0  0  0  0  0  0  0
    0.4415    2.4768   -1.0623 H   0  0  0  0  0  0  0  0  0  0  0  0
   -3.5204    1.7878   -0.2918 C   0  0  0  0  0  0  0  0  0  0  0  0
   -3.7424    2.8169    0.0641 H   0  0  0  0  0  0  0  0  0  0  0  0
   -4.3096    1.5206   -1.0325 H   0  0  0  0  0  0  0  0  0  0  0  0
    4.0578    0.8139    0.4911 C   0  0  0  0  0  0  0  0  0  0  0  0
    4.1804    0.0242    1.2750 H   0  0  0  0  0  0  0  0  0  0  0  0
    3.9958    1.7955    1.0300 H   0  0  0  0  0  0  0  0  0  0  0  0
    2.7614    0.5401   -0.2687 C   0  0  0  0  0  0  0  0  0  0  0  0
    2.6406    1.2448   -1.1129 H   0  0  0  0  0  0  0  0  0  0  0  0
    2.7828   -0.4824   -0.6920 H   0  0  0  0  0  0  0  0  0  0  0  0
  1  2  1  0  0  0  0
  3 12  1  0  0  0  0
  3  4  1  0  0  0  0
  6  5  1  0  0  0  0
  7  8  1  0  0  0  0
  7 21  1  0  0  0  0
  9 18  1  0  0  0  0
  9  1  1  0  0  0  0
 10  9  1  0  0  0  0
 11  9  1  0  0  0  0
 12 13  1  0  0  0  0
 14 12  1  0  0  0  0
 15  1  1  0  0  0  0
 15 16  1  0  0  0  0
 15 12  1  0  0  0  0
 17 15  1  0  0  0  0
 18 19  1  0  0  0  0
 18  5  1  0  0  0  0
 20 18  1  0  0  0  0
 21 23  1  0  0  0  0
 21 22  1  0  0  0  0
 24 21  1  0  0  0  0
 24  3  1  0  0  0  0
 25 24  1  0  0  0  0
 26 24  1  0  0  0  0
M  END
