1,2
q = 0.0, confidence = 0.996

 73 74  0  0  1  0  0  0  0  0999 V2000
    1.4957   -0.3021    0.6794 N   0  0  0  0  0  2  0  0  0  0  0  0
   -1.5218   -0.0357    0.5844 N   0  0  0  0  0  2  0  0  0  0  0  0
    1.2347   -0.4407    1.9388 C   0  0  1  0  0  3  0  0  0  0  0  0
   -0.1330   -0.9410    2.3565 C   0  0  0  0  0  0  0  0  0  0  0  0
   -0.2154   -1.9706    1.9093 H   0  0  0  0  0  0  0  0  0  0  0  0
   -0.1758   -1.0289    3.4567 H   0  0  0  0  0  0  0  0  0  0  0  0
   -1.3647   -0.2110    1.8568 C   0  0  2  0  0  3  0  0  0  0  0  0
    2.2314   -0.2281    3.0403 C   0  0  0  0  0  0  0  0  0  0  0  0
    2.2940   -1.1452    3.6630 H   0  0  0  0  0  0  0  0  0  0  0  0
    1.8821    0.5851    3.7110 H   0  0  0  0  0  0  0  0  0  0  0  0
    3.2341    0.0240    2.6525 H   0  0  0  0  0  0  0  0  0  0  0  0
   -2.3776    0.1715    2.8958 C   0  0  0  0  0  0  0  0  0  0  0  0
   -3.2329    0.7190    2.4613 H   0  0  0  0  0  0  0  0  0  0  0  0
   -1.8933    0.7879    3.6812 H   0  0  0  0  0  0  0  0  0  0  0  0
   -2.7571   -0.7425    3.4002 H   0  0  0  0  0  0  0  0  0  0  0  0
   -2.7559    0.4372    0.0326 C   0  0  0  0  0  0  0  0  0  0  0  0
   -2.8152    1.7538   -0.4921 C   0  0  0  0  0  0  0  0  0  0  0  0
   -4.0348    2.1913   -1.0374 C   0  0  0  0  0  0  0  0  0  0  0  0
   -4.1077    3.2117   -1.4389 H   0  0  0  0  0  0  0  0  0  0  0  0
   -5.1521    1.3487   -1.0879 C   0  0  0  0  0  0  0  0  0  0  0  0
   -6.0972    1.7110   -1.5199 H   0  0  0  0  0  0  0  0  0  0  0  0
   -5.0548    0.0385   -0.6103 C   0  0  0  0  0  0  0  0  0  0  0  0
   -5.9240   -0.6330   -0.6831 H   0  0  0  0  0  0  0  0  0  0  0  0
   -3.8609   -0.4536   -0.0487 C   0  0  0  0  0  0  0  0  0  0  0  0
   -1.6012    2.6700   -0.4280 C   0  0  0  0  0  0  0  0  0  0  0  0
   -0.7085    2.0118   -0.4880 H   0  0  0  0  0  0  0  0  0  0  0  0
   -1.5245    3.6289   -1.6215 C   0  0  0  0  0  0  0  0  0  0  0  0
   -1.5411    3.0632   -2.5731 H   0  0  0  0  0  0  0  0  0  0  0  0
   -0.5818    4.2072   -1.5899 H   0  0  0  0  0  0  0  0  0  0  0  0
   -2.3567    4.3626   -1.6251 H   0  0  0  0  0  0  0  0  0  0  0  0
   -1.5554    3.4255    0.9126 C   0  0  0  0  0  0  0  0  0  0  0  0
   -2.4440    4.0806    1.0272 H   0  0  0  0  0  0  0  0  0  0  0  0
   -0.6507    4.0643    0.9781 H   0  0  0  0  0  0  0  0  0  0  0  0
   -1.5410    2.7317    1.7774 H   0  0  0  0  0  0  0  0  0  0  0  0
   -3.7851   -1.9162    0.3764 C   0  0  0  0  0  0  0  0  0  0  0  0
   -2.7798   -2.1098    0.7994 H   0  0  0  0  0  0  0  0  0  0  0  0
   -3.9039   -2.8385   -0.8501 C   0  0  0  0  0  0  0  0  0  0  0  0
   -4.8901   -2.7278   -1.3470 H   0  0  0  0  0  0  0  0  0  0  0  0
   -3.7855   -3.8984   -0.5471 H   0  0  0  0  0  0  0  0  0  0  0  0
   -3.1098   -2.6153   -1.5880 H   0  0  0  0  0  0  0  0  0  0  0  0
   -4.8357   -2.2677    1.4429 C   0  0  0  0  0  0  0  0  0  0  0  0
   -4.7645   -1.6081    2.3314 H   0  0  0  0  0  0  0  0  0  0  0  0
   -4.7083   -3.3160    1.7816 H   0  0  0  0  0  0  0  0  0  0  0  0
   -5.8676   -2.1732    1.0456 H   0  0  0  0  0  0  0  0  0  0  0  0
    2.8014    0.0797    0.2236 C   0  0  0  0  0  0  0  0  0  0  0  0
    3.6624   -0.9412   -0.2577 C   0  0  0  0  0  0  0  0  0  0  0  0
    4.9568   -0.5724   -0.6656 C   0  0  0  0  0  0  0  0  0  0  0  0
    5.6404   -1.3517   -1.0350 H   0  0  0  0  0  0  0  0  0  0  0  0
    5.3845    0.7595   -0.6171 C   0  0  0  0  0  0  0  0  0  0  0  0
    6.4037    1.0260   -0.9351 H   0  0  0  0  0  0  0  0  0  0  0  0
    4.5006    1.7538   -0.1853 C   0  0  0  0  0  0  0  0  0  0  0  0
    4.8262    2.8053   -0.1798 H   0  0  0  0  0  0  0  0  0  0  0  0
    3.1926    1.4411    0.2317 C   0  0  0  0  0  0  0  0  0  0  0  0
    3.1930   -2.3814   -0.4019 C   0  0  0  0  0  0  0  0  0  0  0  0
    2.2109   -2.4827    0.1006 H   0  0  0  0  0  0  0  0  0  0  0  0
    2.9491   -2.6985   -1.8896 C   0  0  0  0  0  0  0  0  0  0  0  0
    2.2756   -1.9474   -2.3499 H   0  0  0  0  0  0  0  0  0  0  0  0
    2.4742   -3.6939   -1.9986 H   0  0  0  0  0  0  0  0  0  0  0  0
    3.9014   -2.6947   -2.4605 H   0  0  0  0  0  0  0  0  0  0  0  0
    4.1458   -3.3921    0.2521 C   0  0  0  0  0  0  0  0  0  0  0  0
    5.1393   -3.4093   -0.2427 H   0  0  0  0  0  0  0  0  0  0  0  0
    3.7246   -4.4153    0.1801 H   0  0  0  0  0  0  0  0  0  0  0  0
    4.3096   -3.1636    1.3253 H   0  0  0  0  0  0  0  0  0  0  0  0
    2.2339    2.5649    0.6018 C   0  0  0  0  0  0  0  0  0  0  0  0
    1.2594    2.1086    0.8709 H   0  0  0  0  0  0  0  0  0  0  0  0
    1.9917    3.4580   -0.6268 C   0  0  0  0  0  0  0  0  0  0  0  0
    2.9324    3.9403   -0.9626 H   0  0  0  0  0  0  0  0  0  0  0  0
    1.2708    4.2661   -0.3893 H   0  0  0  0  0  0  0  0  0  0  0  0
    1.5915    2.8571   -1.4674 H   0  0  0  0  0  0  0  0  0  0  0  0
    2.7180    3.3808    1.8115 C   0  0  0  0  0  0  0  0  0  0  0  0
    2.8889    2.7404    2.7002 H   0  0  0  0  0  0  0  0  0  0  0  0
    1.9720    4.1552    2.0849 H   0  0  0  0  0  0  0  0  0  0  0  0
    3.6720    3.9028    1.5912 H   0  0  0  0  0  0  0  0  0  0  0  0
  3  1  1  6  0  0  0
  3  4  1  0  0  0  0
  3  8  1  0  0  0  0
  4  6  1  0  0  0  0
  5  4  1  0  0  0  0
  7  2  1  6  0  0  0
  7  4  1  0  0  0  0
  7 12  1  0  0  0  0
  8  9  1  0  0  0  0
  8 10  1  0  0  0  0
 11  8  1  0  0  0  0
 12 15  1  0  0  0  0
 12 14  1  0  0  0  0
 13 12  1  0  0  0  0
 16  2  1  0  0  0  0
 17 25  1  0  0  0  0
 17 16  2  0  0  0  0
 18 17  1  0  0  0  0
 19 18  1  0  0  0  0
 20 18  2  0  0  0  0
 20 22  1  0  0  0  0
 21 20  1  0  0  0  0
 22 24  2  0  0  0  0
 23 22  1  0  0  0  0
 24 16  1  0  0  0  0
 24 35  1  0  0  0  0
 25 31  1  0  0  0  0
 26 25  1  0  0  0  0
 27 29  1  0  0  0  0
 27 25  1  0  0  0  0
 28 27  1  0  0  0  0
 30 27  1  0  0  0  0
 31 33  1  0  0  0  0
 31 32  1  0  0  0  0
 31 34  1  0  0  0  0
 35 36  1  0  0  0  0
 35 41  1  0  0  0  0
 37 39  1  0  0  0  0
 37 35  1  0  0  0  0
 38 37  1  0  0  0  0
 40 37  1  0  0  0  0
 41 43  1  0  0  0  0
 41 42  1  0  0  0  0
 44 41  1  0  0  0  0
 45 53  1  0  0  0  0
 45  1  1  0  0  0  0
 46 45  2  0  0  0  0
 47 49  2  0  0  0  0
 47 46  1  0  0  0  0
 48 47  1  0  0  0  0
 49 51  1  0  0  0  0
 50 49  1  0  0  0  0
 51 52  1  0  0  0  0
 51 53  2  0  0  0  0
 53 64  1  0  0  0  0
 54 46  1  0  0  0  0
 54 55  1  0  0  0  0
 54 60  1  0  0  0  0
 56 54  1  0  0  0  0
 57 56  1  0  0  0  0
 58 56  1  0  0  0  0
 59 56  1  0  0  0  0
 60 63  1  0  0  0  0
 61 60  1  0  0  0  0
 62 60  1  0  0  0  0
 64 65  1  0  0  0  0
 64 70  1  0  0  0  0
 66 68  1  0  0  0  0
 66 64  1  0  0  0  0
 67 66  1  0  0  0  0
 69 66  1  0  0  0  0
 70 72  1  0  0  0  0
 70 71  1  0  0  0  0
 73 70  1  0  0  0  0
M  END
