2,3
q = -1.0, confidence = 0.012

 62 63  0  0  1  0  0  0  0  0999 V2000
    1.6448   -2.2697   -0.9145 Si  0  0  0  0  0  0  0  0  0  0  0  0
   -0.4095    0.1484   -0.2692 N   0  0  0  0  0  2  0  0  0  0  0  0
    2.4252   -0.6759   -1.4142 N   0  0  0  0  0  0  0  0  0  0  0  0
   -2.5936    0.1623   -1.4498 C   0  0  0  0  0  0  0  0  0  0  0  0
   -1.5444    2.2879   -0.7708 C   0  0  0  0  0  0  0  0  0  0  0  0
   -1.5133    0.8609   -0.8161 C   0  0  0  0  0  0  0  0  0  0  0  0
    0.5556   -1.8284    0.5491 C   0  0  0  0  0  3  0  0  0  0  0  0
    0.6331   -2.5051    1.4165 H   0  0  0  0  0  0  0  0  0  0  0  0
   -1.7386   -1.1844    1.3981 C   0  0  0  0  0  0  0  0  0  0  0  0
   -0.5675   -0.9782    0.5032 C   0  0  1  0  0  3  0  0  0  0  0  0
   -3.6973    0.8997   -1.9161 C   0  0  0  0  0  0  0  0  0  0  0  0
   -4.5312    0.3584   -2.3882 H   0  0  0  0  0  0  0  0  0  0  0  0
   -2.4886   -0.1013    1.9064 C   0  0  0  0  0  0  0  0  0  0  0  0
   -2.2020    0.9263    1.6501 H   0  0  0  0  0  0  0  0  0  0  0  0
   -2.1006   -2.4981    1.7665 C   0  0  0  0  0  0  0  0  0  0  0  0
   -1.5330   -3.3459    1.3550 H   0  0  0  0  0  0  0  0  0  0  0  0
   -2.6685    2.9722   -1.2652 C   0  0  0  0  0  0  0  0  0  0  0  0
   -2.6863    4.0711   -1.2076 H   0  0  0  0  0  0  0  0  0  0  0  0
   -2.4674   -1.5610   -3.2687 C   0  0  0  0  0  0  0  0  0  0  0  0
   -3.3571   -1.1709   -3.8039 H   0  0  0  0  0  0  0  0  0  0  0  0
   -2.3792   -2.6415   -3.5040 H   0  0  0  0  0  0  0  0  0  0  0  0
   -1.5824   -1.0399   -3.6872 H   0  0  0  0  0  0  0  0  0  0  0  0
   -2.5941   -1.3346   -1.7494 C   0  0  0  0  0  0  0  0  0  0  0  0
   -1.7074   -1.7958   -1.2739 H   0  0  0  0  0  0  0  0  0  0  0  0
    1.8171   -0.0255   -2.5954 C   0  0  0  0  0  0  0  0  0  0  0  0
    2.1913    1.0165   -2.6703 H   0  0  0  0  0  0  0  0  0  0  0  0
    0.7161    0.0123   -2.4995 H   0  0  0  0  0  0  0  0  0  0  0  0
    2.0782   -0.5607   -3.5358 H   0  0  0  0  0  0  0  0  0  0  0  0
   -0.4054    3.1255   -0.2208 C   0  0  0  0  0  0  0  0  0  0  0  0
    0.3750    2.4332    0.1650 H   0  0  0  0  0  0  0  0  0  0  0  0
   -3.8371   -2.0538   -1.1981 C   0  0  0  0  0  0  0  0  0  0  0  0
   -3.9782   -1.8587   -0.1185 H   0  0  0  0  0  0  0  0  0  0  0  0
   -3.7465   -3.1500   -1.3407 H   0  0  0  0  0  0  0  0  0  0  0  0
   -4.7578   -1.7295   -1.7254 H   0  0  0  0  0  0  0  0  0  0  0  0
   -3.9348   -1.6449    3.1088 C   0  0  0  0  0  0  0  0  0  0  0  0
   -4.7941   -1.8225    3.7732 H   0  0  0  0  0  0  0  0  0  0  0  0
    2.9358   -3.5246   -0.3840 C   0  0  0  0  0  0  0  0  0  0  0  0
    3.6370   -3.7522   -1.2118 H   0  0  0  0  0  0  0  0  0  0  0  0
    2.4174   -4.4678   -0.1133 H   0  0  0  0  0  0  0  0  0  0  0  0
    3.5090   -3.1758    0.4950 H   0  0  0  0  0  0  0  0  0  0  0  0
    0.7056   -2.9765   -2.3865 C   0  0  0  0  0  0  0  0  0  0  0  0
   -0.0460   -2.2886   -2.8093 H   0  0  0  0  0  0  0  0  0  0  0  0
    0.1831   -3.9032   -2.0729 H   0  0  0  0  0  0  0  0  0  0  0  0
    1.4205   -3.2459   -3.1915 H   0  0  0  0  0  0  0  0  0  0  0  0
    3.8938   -0.7158   -1.5815 C   0  0  0  0  0  0  0  0  0  0  0  0
    4.1831   -1.3207   -2.4709 H   0  0  0  0  0  0  0  0  0  0  0  0
    4.3718   -1.1335   -0.6777 H   0  0  0  0  0  0  0  0  0  0  0  0
    4.2733    0.3168   -1.7162 H   0  0  0  0  0  0  0  0  0  0  0  0
   -3.7571    2.2917   -1.8161 C   0  0  0  0  0  0  0  0  0  0  0  0
   -4.6356    2.8426   -2.1834 H   0  0  0  0  0  0  0  0  0  0  0  0
   -3.5775   -0.3329    2.7549 C   0  0  0  0  0  0  0  0  0  0  0  0
   -4.1491    0.5202    3.1499 H   0  0  0  0  0  0  0  0  0  0  0  0
   -3.1908   -2.7286    2.6153 C   0  0  0  0  0  0  0  0  0  0  0  0
   -3.4664   -3.7586    2.8868 H   0  0  0  0  0  0  0  0  0  0  0  0
   -0.8149    3.9888    0.9790 C   0  0  0  0  0  0  0  0  0  0  0  0
    0.0663    4.5243    1.3852 H   0  0  0  0  0  0  0  0  0  0  0  0
   -1.2364    3.3696    1.7943 H   0  0  0  0  0  0  0  0  0  0  0  0
   -1.5714    4.7463    0.6879 H   0  0  0  0  0  0  0  0  0  0  0  0
    0.2624    3.9560   -1.3257 C   0  0  0  0  0  0  0  0  0  0  0  0
   -0.4345    4.7258   -1.7165 H   0  0  0  0  0  0  0  0  0  0  0  0
    0.5742    3.3179   -2.1762 H   0  0  0  0  0  0  0  0  0  0  0  0
    1.1640    4.4676   -0.9351 H   0  0  0  0  0  0  0  0  0  0  0  0
  1 37  1  0  0  0  0
  1  7  1  0  0  0  0
  3  1  1  0  0  0  0
  4  6  1  0  0  0  0
  5 29  1  0  0  0  0
  6  5  2  0  0  0  0
  6  2  1  0  0  0  0
  7  8  1  0  0  0  0
  9 15  2  0  0  0  0
  9 13  1  0  0  0  0
 10  2  1  1  0  0  0
 10  7  1  0  0  0  0
 10  9  1  0  0  0  0
 11 49  1  0  0  0  0
 11  4  2  0  0  0  0
 12 11  1  0  0  0  0
 13 51  2  0  0  0  0
 14 13  1  0  0  0  0
 15 53  1  0  0  0  0
 16 15  1  0  0  0  0
 17 18  1  0  0  0  0
 17  5  1  0  0  0  0
 19 23  1  0  0  0  0
 20 19  1  0  0  0  0
 21 19  1  0  0  0  0
 22 19  1  0  0  0  0
 23  4  1  0  0  0  0
 23 24  1  0  0  0  0
 23 31  1  0  0  0  0
 25 27  1  0  0  0  0
 25  3  1  0  0  0  0
 26 25  1  0  0  0  0
 28 25  1  0  0  0  0
 29 30  1  0  0  0  0
 29 55  1  0  0  0  0
 31 32  1  0  0  0  0
 33 31  1  0  0  0  0
 34 31  1  0  0  0  0
 35 36  1  0  0  0  0
 37 39  1  0  0  0  0
 37 40  1  0  0  0  0
 38 37  1  0  0  0  0
 41 43  1  0  0  0  0
 41  1  1  0  0  0  0
 42 41  1  0  0  0  0
 44 41  1  0  0  0  0
 45  3  1  0  0  0  0
 45 47  1  0  0  0  0
 46 45  1  0  0  0  0
 48 45  1  0  0  0  0
 49 17  2  0  0  0  0
 50 49  1  0  0  0  0
 51 35  1  0  0  0  0
 51 52  1  0  0  0  0
 53 54  1  0  0  0  0
 53 35  2  0  0  0  0
 55 56  1  0  0  0  0
 55 57  1  0  0  0  0
 58 55  1  0  0  0  0
 59 62  1  0  0  0  0
 59 29  1  0  0  0  0
 60 59  1  0  0  0  0
 61 59  1  0  0  0  0
M  END
