1,2
q = 0.0, confidence = 0.996

 30 31  0  0  0  0  0  0  0  0999 V2000
    0.6394    0.9079   -0.1065 N   0  0  0  0  0  2  0  0  0  0  0  0
   -1.9711    0.8306   -0.0677 N   0  0  0  0  0  2  0  0  0  0  0  0
    6.3723    0.5711    0.2785 C   0  0  0  0  0  0  0  0  0  0  0  0
    6.7267    1.1656    1.1473 H   0  0  0  0  0  0  0  0  0  0  0  0
    6.8826    0.9579   -0.6234 H   0  0  0  0  0  0  0  0  0  0  0  0
    6.7073   -0.4717    0.4501 H   0  0  0  0  0  0  0  0  0  0  0  0
    4.8758    0.6544    0.1577 C   0  0  0  0  0  0  0  0  0  0  0  0
    4.2615    1.3807   -0.8842 C   0  0  0  0  0  0  0  0  0  0  0  0
    4.8888    1.8751   -1.6415 H   0  0  0  0  0  0  0  0  0  0  0  0
    2.8678    1.4777   -0.9822 C   0  0  0  0  0  0  0  0  0  0  0  0
    2.4072    2.0293   -1.8159 H   0  0  0  0  0  0  0  0  0  0  0  0
    2.0563    0.8244   -0.0330 C   0  0  0  0  0  0  0  0  0  0  0  0
    2.6467    0.0788    1.0097 C   0  0  0  0  0  0  0  0  0  0  0  0
    1.9934   -0.3959    1.7575 H   0  0  0  0  0  0  0  0  0  0  0  0
    4.0387    0.0120    1.1006 C   0  0  0  0  0  0  0  0  0  0  0  0
    4.4942   -0.5497    1.9309 H   0  0  0  0  0  0  0  0  0  0  0  0
    0.0434    2.0581   -0.2878 C   0  0  0  0  0  0  0  0  0  0  0  0
    0.6199    2.9956   -0.3613 H   0  0  0  0  0  0  0  0  0  0  0  0
   -1.3978    2.0645   -0.2708 C   0  0  0  0  0  0  0  0  0  0  0  0
   -2.1525    3.2459   -0.3448 C   0  0  0  0  0  0  0  0  0  0  0  0
   -1.6427    4.2044   -0.5156 H   0  0  0  0  0  0  0  0  0  0  0  0
   -3.5365    3.1674   -0.1689 C   0  0  0  0  0  0  0  0  0  0  0  0
   -4.1654    4.0673   -0.2292 H   0  0  0  0  0  0  0  0  0  0  0  0
   -4.0985    1.9222    0.1283 C   0  0  0  0  0  0  0  0  0  0  0  0
   -5.1760    1.8285    0.3235 H   0  0  0  0  0  0  0  0  0  0  0  0
   -3.3023    0.7576    0.1998 C   0  0  0  0  0  0  0  0  0  0  0  0
   -3.9138   -0.5461    0.6122 C   0  0  0  0  0  0  0  0  0  0  0  0
   -4.9108   -0.3745    1.0564 H   0  0  0  0  0  0  0  0  0  0  0  0
   -3.2619   -1.0398    1.3599 H   0  0  0  0  0  0  0  0  0  0  0  0
   -4.0504   -1.2292   -0.2492 H   0  0  0  0  0  0  0  0  0  0  0  0
  1 12  1  0  0  0  0
  2 26  1  0  0  0  0
  3  6  1  0  0  0  0
  3  4  1  0  0  0  0
  5  3  1  0  0  0  0
  7  3  1  0  0  0  0
  7 15  1  0  0  0  0
  8  7  2  0  0  0  0
  9  8  1  0  0  0  0
 10  8  1  0  0  0  0
 10 12  2  0  0  0  0
 11 10  1  0  0  0  0
 12 13  1  0  0  0  0
 13 15  2  0  0  0  0
 13 14  1  0  0  0  0
 15 16  1  0  0  0  0
 17 19  2  0  0  0  0
 17  1  1  0  0  0  0
 18 17  1  0  0  0  0
 19  2  1  0  0  0  0
 20 19  1  0  0  0  0
 20 22  2  0  0  0  0
 21 20  1  0  0  0  0
 22 24  1  0  0  0  0
 23 22  1  0  0  0  0
 24 26  2  0  0  0  0
 24 25  1  0  0  0  0
 26 27  1  0  0  0  0
 27 28  1  0  0  0  0
 27 29  1  0  0  0  0
 30 27  1  0  0  0  0
M  END
