1,4
q = 0.0, confidence = 1.0

 49 49  0  0  1  0  0  0  0  0999 V2000
    0.1538   -0.3240    1.0651 N   0  0  0  0  0  2  0  0  0  0  0  0
    2.3697   -0.9484    0.3833 N   0  0  0  0  0  0  0  0  0  0  0  0
    1.9644    1.2147    0.4217 N   0  0  0  0  0  0  0  0  0  0  0  0
   -2.6119   -0.1618    1.3052 N   0  0  0  0  0  0  0  0  0  0  0  0
   -0.3738    0.1466    2.3397 C   0  0  0  0  0  0  0  0  0  0  0  0
   -0.4601    1.2606    2.4248 H   0  0  0  0  0  0  0  0  0  0  0  0
    0.2664   -0.1816    3.1913 H   0  0  0  0  0  0  0  0  0  0  0  0
   -1.7521   -0.4816    2.4907 C   0  0  0  0  0  0  0  0  0  0  0  0
   -1.6342   -1.5823    2.5118 H   0  0  0  0  0  0  0  0  0  0  0  0
   -2.2636   -0.1590    3.4247 H   0  0  0  0  0  0  0  0  0  0  0  0
    1.4126   -0.0149    0.6824 C   0  0  1  0  0  3  0  0  0  0  0  0
    3.5218   -0.3107   -0.0724 C   0  0  0  0  0  0  0  0  0  0  0  0
    3.2727    1.0507   -0.0355 C   0  0  0  0  0  0  0  0  0  0  0  0
    2.0651   -2.3919    0.4586 C   0  0  0  0  0  0  0  0  0  0  0  0
    1.0030   -2.3748    0.7816 H   0  0  0  0  0  0  0  0  0  0  0  0
    2.1272   -3.0552   -0.9184 C   0  0  0  0  0  0  0  0  0  0  0  0
    1.5579   -2.4477   -1.6505 H   0  0  0  0  0  0  0  0  0  0  0  0
    1.6625   -4.0593   -0.8587 H   0  0  0  0  0  0  0  0  0  0  0  0
    3.1667   -3.1915   -1.2781 H   0  0  0  0  0  0  0  0  0  0  0  0
    2.8890   -3.0947    1.5401 C   0  0  0  0  0  0  0  0  0  0  0  0
    3.9641   -3.1673    1.2799 H   0  0  0  0  0  0  0  0  0  0  0  0
    2.5136   -4.1289    1.6718 H   0  0  0  0  0  0  0  0  0  0  0  0
    2.8010   -2.5723    2.5136 H   0  0  0  0  0  0  0  0  0  0  0  0
    4.7567   -1.0106   -0.5304 C   0  0  0  0  0  0  0  0  0  0  0  0
    5.5803   -0.2823   -0.6489 H   0  0  0  0  0  0  0  0  0  0  0  0
    4.6084   -1.5032   -1.5134 H   0  0  0  0  0  0  0  0  0  0  0  0
    5.0946   -1.7870    0.1834 H   0  0  0  0  0  0  0  0  0  0  0  0
    4.1897    2.1671   -0.4091 C   0  0  0  0  0  0  0  0  0  0  0  0
    5.2377    1.8128   -0.4073 H   0  0  0  0  0  0  0  0  0  0  0  0
    4.1230    3.0140    0.3009 H   0  0  0  0  0  0  0  0  0  0  0  0
    3.9759    2.5639   -1.4230 H   0  0  0  0  0  0  0  0  0  0  0  0
    1.1257    2.4345    0.3997 C   0  0  0  0  0  0  0  0  0  0  0  0
    0.0990    2.0213    0.5068 H   0  0  0  0  0  0  0  0  0  0  0  0
    1.4364    3.3597    1.5783 C   0  0  0  0  0  0  0  0  0  0  0  0
    1.3866    2.8179    2.5437 H   0  0  0  0  0  0  0  0  0  0  0  0
    0.6986    4.1859    1.6081 H   0  0  0  0  0  0  0  0  0  0  0  0
    2.4430    3.8175    1.4929 H   0  0  0  0  0  0  0  0  0  0  0  0
    1.1505    3.1262   -0.9645 C   0  0  0  0  0  0  0  0  0  0  0  0
    2.0879    3.6849   -1.1502 H   0  0  0  0  0  0  0  0  0  0  0  0
    0.3151    3.8525   -1.0060 H   0  0  0  0  0  0  0  0  0  0  0  0
    0.9857    2.3739   -1.7618 H   0  0  0  0  0  0  0  0  0  0  0  0
   -3.6919   -1.1710    1.1707 C   0  0  0  0  0  0  0  0  0  0  0  0
   -4.3537   -1.1463    2.0658 H   0  0  0  0  0  0  0  0  0  0  0  0
   -3.2365   -2.1720    1.0635 H   0  0  0  0  0  0  0  0  0  0  0  0
   -4.2597   -0.9426    0.2494 H   0  0  0  0  0  0  0  0  0  0  0  0
   -3.2205    1.1869    1.4249 C   0  0  0  0  0  0  0  0  0  0  0  0
   -3.7575    1.3990    0.4812 H   0  0  0  0  0  0  0  0  0  0  0  0
   -2.4265    1.9438    1.5593 H   0  0  0  0  0  0  0  0  0  0  0  0
   -3.9190    1.2187    2.2923 H   0  0  0  0  0  0  0  0  0  0  0  0
  1  5  1  0  0  0  0
  2 14  1  0  0  0  0
  2 11  1  0  0  0  0
  3 11  1  0  0  0  0
  4 46  1  0  0  0  0
  4  8  1  0  0  0  0
  5  6  1  0  0  0  0
  5  8  1  0  0  0  0
  5  7  1  0  0  0  0
  8  9  1  0  0  0  0
  8 10  1  0  0  0  0
 11  1  1  6  0  0  0
 12 13  2  0  0  0  0
 12  2  1  0  0  0  0
 13  3  1  0  0  0  0
 14 15  1  0  0  0  0
 14 20  1  0  0  0  0
 16 18  1  0  0  0  0
 16 14  1  0  0  0  0
 17 16  1  0  0  0  0
 19 16  1  0  0  0  0
 20 22  1  0  0  0  0
 20 23  1  0  0  0  0
 21 20  1  0  0  0  0
 24 12  1  0  0  0  0
 24 27  1  0  0  0  0
 25 24  1  0  0  0  0
 26 24  1  0  0  0  0
 28 29  1  0  0  0  0
 28 13  1  0  0  0  0
 28 30  1  0  0  0  0
 31 28  1  0  0  0  0
 32  3  1  0  0  0  0
 32 33  1  0  0  0  0
 32 34  1  0  0  0  0
 34 36  1  0  0  0  0
 34 35  1  0  0  0  0
 37 34  1  0  0  0  0
 38 32  1  0  0  0  0
 39 38  1  0  0  0  0
 40 38  1  0  0  0  0
 41 38  1  0  0  0  0
 42  4  1  0  0  0  0
 42 43  1  0  0  0  0
 44 42  1  0  0  0  0
 45 42  1  0  0  0  0
 46 48  1  0  0  0  0
 46 49  1  0  0  0  0
 47 46  1  0  0  0  0
M  END
