1,14
q = 0.0, confidence = 0.992

 30 32  0  0  1  0  0  0  0  0999 V2000
    0.6819   -0.0298    0.0560 N   0  0  0  0  0  2  0  0  0  0  0  0
    2.3746    1.4935    0.0511 C   0  0  0  0  0  0  0  0  0  0  0  0
   -3.5059    0.7021   -0.8781 C   0  0  0  0  0  0  0  0  0  0  0  0
   -4.1455   -0.0343   -1.3883 H   0  0  0  0  0  0  0  0  0  0  0  0
   -3.2688    2.7309    0.4375 C   0  0  0  0  0  0  0  0  0  0  0  0
   -3.7156    3.5849    0.9661 H   0  0  0  0  0  0  0  0  0  0  0  0
    1.0336    3.5752   -0.3828 C   0  0  0  0  0  0  0  0  0  0  0  0
    1.0828    4.1748    0.5497 H   0  0  0  0  0  0  0  0  0  0  0  0
    0.0721    3.7751   -0.8883 H   0  0  0  0  0  0  0  0  0  0  0  0
    1.8585    3.8926   -1.0503 H   0  0  0  0  0  0  0  0  0  0  0  0
    0.1618    1.1947   -0.0940 C   0  0  1  0  0  3  0  0  0  0  0  0
   -1.2795    1.4473   -0.2019 C   0  0  0  0  0  0  0  0  0  0  0  0
    1.1596    2.1553   -0.1131 N   0  0  0  0  0  0  0  0  0  0  0  0
   -1.5651   -0.6435   -1.4820 N   0  0  0  0  0  0  0  0  0  0  0  0
   -0.7029   -0.5100   -2.0244 H   0  0  0  0  0  0  0  0  0  0  0  0
   -2.2412   -1.1987   -2.0148 H   0  0  0  0  0  0  0  0  0  0  0  0
   -2.1129    0.5125   -0.8868 C   0  0  0  0  0  0  0  0  0  0  0  0
    2.0547    0.1108    0.1417 C   0  0  0  0  0  0  0  0  0  0  0  0
    3.6992    1.9555    0.1045 C   0  0  0  0  0  0  0  0  0  0  0  0
    3.9498    3.0243    0.0444 H   0  0  0  0  0  0  0  0  0  0  0  0
    3.0646   -0.8603    0.2716 C   0  0  0  0  0  0  0  0  0  0  0  0
    2.7967   -1.9269    0.2898 H   0  0  0  0  0  0  0  0  0  0  0  0
   -4.0804    1.7989   -0.2277 C   0  0  0  0  0  0  0  0  0  0  0  0
   -5.1737    1.9207   -0.2344 H   0  0  0  0  0  0  0  0  0  0  0  0
    4.3844   -0.4004    0.3248 C   0  0  0  0  0  0  0  0  0  0  0  0
    5.2043   -1.1272    0.4233 H   0  0  0  0  0  0  0  0  0  0  0  0
   -1.8828    2.5459    0.4506 C   0  0  0  0  0  0  0  0  0  0  0  0
   -1.2532    3.2376    1.0277 H   0  0  0  0  0  0  0  0  0  0  0  0
    4.6959    0.9803    0.2472 C   0  0  0  0  0  0  0  0  0  0  0  0
    5.7486    1.2962    0.2969 H   0  0  0  0  0  0  0  0  0  0  0  0
  1 18  1  0  0  0  0
  2 19  2  0  0  0  0
  2 18  1  0  0  0  0
  3 23  1  0  0  0  0
  4  3  1  0  0  0  0
  5 27  1  0  0  0  0
  5  6  1  0  0  0  0
  7 13  1  0  0  0  0
  7  8  1  0  0  0  0
  9  7  1  0  0  0  0
 10  7  1  0  0  0  0
 11 12  1  1  0  0  0
 11  1  1  0  0  0  0
 12 27  2  0  0  0  0
 13 11  1  0  0  0  0
 13  2  1  0  0  0  0
 14 17  1  0  0  0  0
 15 14  1  0  0  0  0
 16 14  1  0  0  0  0
 17  3  2  0  0  0  0
 17 12  1  0  0  0  0
 18 21  2  0  0  0  0
 19 29  1  0  0  0  0
 20 19  1  0  0  0  0
 21 22  1  0  0  0  0
 21 25  1  0  0  0  0
 23  5  2  0  0  0  0
 24 23  1  0  0  0  0
 25 26  1  0  0  0  0
 27 28  1  0  0  0  0
 29 30  1  0  0  0  0
 29 25  2  0  0  0  0
M  END
