1,10
q = 0.0, confidence = 0.998

 22 23  0  0  0  0  0  0  0  0999 V2000
   -0.7369    0.0596    1.5678 N   0  0  0  0  0  2  0  0  0  0  0  0
   -2.1081    0.0707    1.6931 C   0  0  0  0  0  0  0  0  0  0  0  0
   -2.7320    0.2612    2.9377 C   0  0  0  0  0  0  0  0  0  0  0  0
   -3.8255    0.2785    3.0069 H   0  0  0  0  0  0  0  0  0  0  0  0
   -1.9532    0.4214    4.0861 C   0  0  0  0  0  0  0  0  0  0  0  0
   -2.4240    0.5733    5.0676 H   0  0  0  0  0  0  0  0  0  0  0  0
   -0.5625    0.3746    3.9671 C   0  0  0  0  0  0  0  0  0  0  0  0
    0.0909    0.4809    4.8461 H   0  0  0  0  0  0  0  0  0  0  0  0
    0.0090    0.1876    2.6967 C   0  0  0  0  0  0  0  0  0  0  0  0
   -2.0828   -0.3339   -0.6772 N   0  0  0  0  0  2  0  0  0  0  0  0
   -2.8570   -0.1622    0.4520 C   0  0  0  0  0  0  0  0  0  0  0  0
   -4.2552   -0.2429    0.4271 C   0  0  0  0  0  0  0  0  0  0  0  0
   -4.8380   -0.0990    1.3441 H   0  0  0  0  0  0  0  0  0  0  0  0
   -4.9037   -0.5261   -0.7852 C   0  0  0  0  0  0  0  0  0  0  0  0
   -6.0002   -0.5945   -0.8293 H   0  0  0  0  0  0  0  0  0  0  0  0
   -4.1365   -0.7242   -1.9241 C   0  0  0  0  0  0  0  0  0  0  0  0
   -4.5746   -0.9549   -2.9042 H   0  0  0  0  0  0  0  0  0  0  0  0
   -2.7214   -0.6250   -1.8536 C   0  0  0  0  0  0  0  0  0  0  0  0
    1.3417    0.1239    2.5238 O   0  0  0  0  0  0  0  0  0  0  0  0
    1.7776    0.2212    3.3918 H   0  0  0  0  0  0  0  0  0  0  0  0
   -2.0577   -0.8329   -2.9667 O   0  0  0  0  0  0  0  0  0  0  0  0
   -1.0586   -0.6397   -2.8794 H   0  0  0  0  0  0  0  0  0  0  0  0
  1  2  1  0  0  0  0
  1  9  1  0  0  0  0
  2  3  1  0  0  0  0
  3  4  1  0  0  0  0
  3  5  2  0  0  0  0
  5  6  1  0  0  0  0
  7  5  1  0  0  0  0
  7  8  1  0  0  0  0
  9  7  2  0  0  0  0
 10 11  1  0  0  0  0
 11  2  2  0  0  0  0
 12 11  1  0  0  0  0
 12 13  1  0  0  0  0
 14 12  2  0  0  0  0
 15 14  1  0  0  0  0
 16 18  2  0  0  0  0
 16 14  1  0  0  0  0
 17 16  1  0  0  0  0
 18 10  1  0  0  0  0
 19  9  1  0  0  0  0
 19 20  1  0  0  0  0
 21 22  1  0  0  0  0
 21 18  1  0  0  0  0
M  END
