1,2
q = -1.0, confidence = 0.0

 35 34  0  0  0  0  0  0  0  0999 V2000
    1.6987   -0.4053   -0.8955 N   0  0  0  0  0  2  0  0  0  0  0  0
    1.0007   -0.6408    1.2166 N   0  0  0  0  0  2  0  0  0  0  0  0
    3.3324   -0.8620    0.8728 N   0  0  0  0  0  0  0  0  0  0  0  0
    3.3338   -0.9910    1.8873 H   0  0  0  0  0  0  0  0  0  0  0  0
    2.5667   -0.6264   -2.0567 C   0  0  0  0  0  0  0  0  0  0  0  0
    3.5187   -0.0707   -1.8962 H   0  0  0  0  0  0  0  0  0  0  0  0
    1.9502   -0.0320   -3.3268 C   0  0  0  0  0  0  0  0  0  0  0  0
    1.7906    1.0582   -3.2206 H   0  0  0  0  0  0  0  0  0  0  0  0
    0.9812   -0.5137   -3.5584 H   0  0  0  0  0  0  0  0  0  0  0  0
    2.6322   -0.1929   -4.1852 H   0  0  0  0  0  0  0  0  0  0  0  0
    2.9028   -2.1152   -2.2438 C   0  0  0  0  0  0  0  0  0  0  0  0
    3.3445   -2.5492   -1.3238 H   0  0  0  0  0  0  0  0  0  0  0  0
    3.6248   -2.2559   -3.0741 H   0  0  0  0  0  0  0  0  0  0  0  0
    1.9805   -2.6826   -2.4777 H   0  0  0  0  0  0  0  0  0  0  0  0
    1.1215   -0.8648    2.6539 C   0  0  0  0  0  0  0  0  0  0  0  0
    2.0294   -0.3152    3.0175 H   0  0  0  0  0  0  0  0  0  0  0  0
   -0.0665   -0.2604    3.4081 C   0  0  0  0  0  0  0  0  0  0  0  0
   -0.1379    0.8287    3.2260 H   0  0  0  0  0  0  0  0  0  0  0  0
    0.0495   -0.4216    4.4981 H   0  0  0  0  0  0  0  0  0  0  0  0
   -1.0117   -0.7364    3.0833 H   0  0  0  0  0  0  0  0  0  0  0  0
    1.2927   -2.3581    2.9914 C   0  0  0  0  0  0  0  0  0  0  0  0
    2.1542   -2.8033    2.4534 H   0  0  0  0  0  0  0  0  0  0  0  0
    0.3840   -2.9127    2.6870 H   0  0  0  0  0  0  0  0  0  0  0  0
    1.4514   -2.5024    4.0796 H   0  0  0  0  0  0  0  0  0  0  0  0
    4.6508   -0.4875    0.3448 C   0  0  0  0  0  0  0  0  0  0  0  0
    4.7381   -0.8875   -0.6848 H   0  0  0  0  0  0  0  0  0  0  0  0
    5.7102   -1.1840    1.2015 C   0  0  0  0  0  0  0  0  0  0  0  0
    5.5752   -2.2834    1.1891 H   0  0  0  0  0  0  0  0  0  0  0  0
    5.6570   -0.8368    2.2561 H   0  0  0  0  0  0  0  0  0  0  0  0
    6.7262   -0.9528    0.8277 H   0  0  0  0  0  0  0  0  0  0  0  0
    4.8507    1.0322    0.3059 C   0  0  0  0  0  0  0  0  0  0  0  0
    4.0658    1.5246   -0.3001 H   0  0  0  0  0  0  0  0  0  0  0  0
    5.8359    1.2871   -0.1341 H   0  0  0  0  0  0  0  0  0  0  0  0
    4.8064    1.4605    1.3285 H   0  0  0  0  0  0  0  0  0  0  0  0
    2.0714   -0.6264    0.3825 C   0  0  0  0  0  3  0  0  0  0  0  0
  1 35  1  0  0  0  0
  2 15  1  0  0  0  0
  3  4  1  0  0  0  0
  5  6  1  0  0  0  0
  5  1  1  0  0  0  0
  7  8  1  0  0  0  0
  7  5  1  0  0  0  0
  9  7  1  0  0  0  0
 10  7  1  0  0  0  0
 11  5  1  0  0  0  0
 11 12  1  0  0  0  0
 13 11  1  0  0  0  0
 14 11  1  0  0  0  0
 15 21  1  0  0  0  0
 15 16  1  0  0  0  0
 15 17  1  0  0  0  0
 17 19  1  0  0  0  0
 18 17  1  0  0  0  0
 20 17  1  0  0  0  0
 21 24  1  0  0  0  0
 22 21  1  0  0  0  0
 23 21  1  0  0  0  0
 25  3  1  0  0  0  0
 25 27  1  0  0  0  0
 26 25  1  0  0  0  0
 27 29  1  0  0  0  0
 28 27  1  0  0  0  0
 30 27  1  0  0  0  0
 31 25  1  0  0  0  0
 31 34  1  0  0  0  0
 32 31  1  0  0  0  0
 33 31  1  0  0  0  0
 35  3  1  0  0  0  0
 35  2  1  0  0  0  0
M  END
