1,3
q = -2.0, confidence = 0.576

 37 38  0  0  1  0  0  0  0  0999 V2000
   -1.4464   -2.2072   -0.1156 N   0  0  0  0  0  2  0  0  0  0  0  0
   -0.8256   -3.3627   -0.0694 N   0  0  0  0  0  2  0  0  0  0  0  0
    0.9742   -1.9262   -0.0574 N   0  0  0  0  0  2  0  0  0  0  0  0
    2.3449   -1.5726   -0.1153 C   0  0  0  0  0  0  0  0  0  0  0  0
    0.5242   -3.1900   -0.0287 C   0  0  2  0  0  3  0  0  0  0  0  0
   -3.6229   -3.1634    0.5033 C   0  0  0  0  0  0  0  0  0  0  0  0
   -3.1191   -3.7428    1.2891 H   0  0  0  0  0  0  0  0  0  0  0  0
   -2.8523   -2.3207   -0.3202 C   0  0  0  0  0  0  0  0  0  0  0  0
   -4.8396   -1.6536   -1.5358 C   0  0  0  0  0  0  0  0  0  0  0  0
   -5.3127   -1.0735   -2.3428 H   0  0  0  0  0  0  0  0  0  0  0  0
   -3.4540   -1.5630   -1.3443 C   0  0  0  0  0  0  0  0  0  0  0  0
   -2.8115   -0.9197   -1.9671 H   0  0  0  0  0  0  0  0  0  0  0  0
    4.4747   -1.1934    0.9866 C   0  0  0  0  0  0  0  0  0  0  0  0
    5.0988   -1.2665    1.8891 H   0  0  0  0  0  0  0  0  0  0  0  0
    3.1781   -1.7094    1.0148 C   0  0  0  0  0  0  0  0  0  0  0  0
    2.7762   -2.1818    1.9213 H   0  0  0  0  0  0  0  0  0  0  0  0
    4.9771   -0.5408   -0.1648 C   0  0  0  0  0  0  0  0  0  0  0  0
   -5.6224   -2.4719   -0.7033 C   0  0  0  0  0  0  0  0  0  0  0  0
   -6.7118   -2.5280   -0.8500 H   0  0  0  0  0  0  0  0  0  0  0  0
    2.5976   -4.3542   -0.1995 O   0  0  0  0  0  0  0  0  0  0  0  0
    6.4681    0.9865   -1.1852 O   0  0  0  0  0  0  0  0  0  0  0  0
    7.4024    1.2662   -1.2073 H   0  0  0  0  0  0  0  0  0  0  0  0
   -5.0108   -3.2233    0.3159 C   0  0  0  0  0  0  0  0  0  0  0  0
   -5.6208   -3.8647    0.9701 H   0  0  0  0  0  0  0  0  0  0  0  0
    2.8244   -0.9203   -1.2668 C   0  0  0  0  0  0  0  0  0  0  0  0
    2.1376   -0.7755   -2.1134 H   0  0  0  0  0  0  0  0  0  0  0  0
    4.1303   -0.4195   -1.2889 C   0  0  0  0  0  0  0  0  0  0  0  0
    4.5037    0.0958   -2.1841 H   0  0  0  0  0  0  0  0  0  0  0  0
    1.3780   -4.4212   -0.0922 C   0  0  0  0  0  0  0  0  0  0  0  0
    7.3499   -0.2832    0.6430 C   0  0  0  0  0  0  0  0  0  0  0  0
    8.3290    0.2164    0.5750 H   0  0  0  0  0  0  0  0  0  0  0  0
    7.2348   -1.0766    1.3908 H   0  0  0  0  0  0  0  0  0  0  0  0
    0.6389   -5.7427   -0.0277 C   0  0  0  0  0  0  0  0  0  0  0  0
    1.3749   -6.5653   -0.0673 H   0  0  0  0  0  0  0  0  0  0  0  0
   -0.0828   -5.8233   -0.8646 H   0  0  0  0  0  0  0  0  0  0  0  0
    0.0347   -5.8058    0.8996 H   0  0  0  0  0  0  0  0  0  0  0  0
    6.3348    0.0462   -0.1948 C   0  0  0  0  0  0  0  0  0  0  0  0
  1  2  1  0  0  0  0
  2  5  1  0  0  0  0
  3  5  1  0  0  0  0
  4  3  1  0  0  0  0
  4 15  1  0  0  0  0
  5 29  1  6  0  0  0
  6  7  1  0  0  0  0
  8  1  1  0  0  0  0
  8  6  2  0  0  0  0
  9 11  2  0  0  0  0
  9 18  1  0  0  0  0
 10  9  1  0  0  0  0
 11  8  1  0  0  0  0
 12 11  1  0  0  0  0
 13 15  2  0  0  0  0
 13 14  1  0  0  0  0
 15 16  1  0  0  0  0
 17 13  1  0  0  0  0
 18 23  2  0  0  0  0
 19 18  1  0  0  0  0
 20 29  2  0  0  0  0
 21 37  1  0  0  0  0
 22 21  1  0  0  0  0
 23  6  1  0  0  0  0
 23 24  1  0  0  0  0
 25  4  2  0  0  0  0
 26 25  1  0  0  0  0
 27 25  1  0  0  0  0
 27 17  2  0  0  0  0
 28 27  1  0  0  0  0
 29 33  1  0  0  0  0
 30 32  1  0  0  0  0
 31 30  1  0  0  0  0
 33 36  1  0  0  0  0
 34 33  1  0  0  0  0
 35 33  1  0  0  0  0
 37 17  1  0  0  0  0
 37 30  2  0  0  0  0
M  END
