1,2
q = -1.0, confidence = 0.0

 24 25  0  0  1  0  0  0  0  0999 V2000
   -0.8389   -1.1621   -0.0004 N   0  0  0  0  0  2  0  0  0  0  0  0
   -0.8337    1.3789   -0.0001 N   0  0  0  0  0  2  0  0  0  0  0  0
   -0.9965   -2.5168   -0.0001 C   0  0  1  0  0  3  0  0  0  0  0  0
   -2.3854   -2.8078    0.0002 C   0  0  0  0  0  0  0  0  0  0  0  0
   -2.8155   -3.8179    0.0005 H   0  0  0  0  0  0  0  0  0  0  0  0
   -3.1029   -1.5947    0.0001 C   0  0  0  0  0  0  0  0  0  0  0  0
   -2.1067   -0.5835   -0.0002 C   0  0  0  0  0  0  0  0  0  0  0  0
    0.1071   -3.5255   -0.0002 C   0  0  0  0  0  0  0  0  0  0  0  0
   -0.3243   -4.5449   -0.0002 H   0  0  0  0  0  0  0  0  0  0  0  0
    0.7647   -3.4191    0.8858 H   0  0  0  0  0  0  0  0  0  0  0  0
    0.7645   -3.4190   -0.8864 H   0  0  0  0  0  0  0  0  0  0  0  0
   -4.5919   -1.4251    0.0003 C   0  0  0  0  0  0  0  0  0  0  0  0
   -4.9529   -0.8700   -0.8927 H   0  0  0  0  0  0  0  0  0  0  0  0
   -4.9525   -0.8689    0.8926 H   0  0  0  0  0  0  0  0  0  0  0  0
   -5.0982   -2.4100    0.0009 H   0  0  0  0  0  0  0  0  0  0  0  0
   -2.1079    0.8387   -0.0001 C   0  0  0  0  0  0  0  0  0  0  0  0
   -3.2336    1.7040    0.0001 C   0  0  0  0  0  0  0  0  0  0  0  0
   -4.2400    1.2676   -0.0001 H   0  0  0  0  0  0  0  0  0  0  0  0
   -3.0463    3.0828    0.0004 C   0  0  0  0  0  0  0  0  0  0  0  0
   -3.9167    3.7564    0.0006 H   0  0  0  0  0  0  0  0  0  0  0  0
   -1.7367    3.6084    0.0005 C   0  0  0  0  0  0  0  0  0  0  0  0
   -1.5470    4.6903    0.0008 H   0  0  0  0  0  0  0  0  0  0  0  0
   -0.6636    2.7167    0.0002 C   0  0  0  0  0  0  0  0  0  0  0  0
    0.3840    3.0505    0.0001 H   0  0  0  0  0  0  0  0  0  0  0  0
  1  7  1  0  0  0  0
  1  3  1  0  0  0  0
  2 16  1  0  0  0  0
  2 23  1  0  0  0  0
  3  8  1  6  0  0  0
  3  4  1  0  0  0  0
  4  5  1  0  0  0  0
  6  4  2  0  0  0  0
  6 12  1  0  0  0  0
  7 16  2  0  0  0  0
  7  6  1  0  0  0  0
  8  9  1  0  0  0  0
  8 10  1  0  0  0  0
 11  8  1  0  0  0  0
 12 15  1  0  0  0  0
 12 14  1  0  0  0  0
 13 12  1  0  0  0  0
 16 17  1  0  0  0  0
 17 19  2  0  0  0  0
 18 17  1  0  0  0  0
 19 21  1  0  0  0  0
 19 20  1  0  0  0  0
 21 22  1  0  0  0  0
 23 21  2  0  0  0  0
 24 23  1  0  0  0  0
M  END
