1,9
q = 0.0, confidence = 0.998

 25 25  0  0  1  0  0  0  0  0999 V2000
    1.2803   -0.5621    0.6108 N   0  0  0  0  0  0  0  0  0  0  0  0
    0.9670    2.5663   -0.3255 C   0  0  0  0  0  0  0  0  0  0  0  0
    1.8090   -1.5871   -1.4745 C   0  0  0  0  0  0  0  0  0  0  0  0
    1.6375   -1.8857    0.0152 C   0  0  0  0  0  0  0  0  0  0  0  0
    1.3686   -0.6023    2.0797 C   0  0  0  0  0  0  0  0  0  0  0  0
    2.2482   -0.1006   -1.5198 C   0  0  0  0  0  0  0  0  0  0  0  0
    2.2943    0.3345   -0.0428 C   0  0  1  0  0  0  0  0  0  0  0  0
    2.1824    1.8358    0.2384 C   0  0  0  0  0  0  0  0  0  0  0  0
   -0.2774    2.0829    0.2843 N   0  0  0  0  0  0  0  0  0  0  0  0
    0.8853    2.4135   -1.4198 H   0  0  0  0  0  0  0  0  0  0  0  0
    1.0875    3.6604   -0.1595 H   0  0  0  0  0  0  0  0  0  0  0  0
    0.8358   -1.7279   -1.9832 H   0  0  0  0  0  0  0  0  0  0  0  0
    2.5452   -2.2692   -1.9406 H   0  0  0  0  0  0  0  0  0  0  0  0
    0.8334   -2.6125    0.2331 H   0  0  0  0  0  0  0  0  0  0  0  0
    2.5957   -2.2151    0.4811 H   0  0  0  0  0  0  0  0  0  0  0  0
    2.3970   -0.8860    2.4054 H   0  0  0  0  0  0  0  0  0  0  0  0
    1.1105    0.3814    2.5141 H   0  0  0  0  0  0  0  0  0  0  0  0
    0.6428   -1.3473    2.4541 H   0  0  0  0  0  0  0  0  0  0  0  0
    1.5094    0.5015   -2.0842 H   0  0  0  0  0  0  0  0  0  0  0  0
    3.2363    0.0527   -1.9962 H   0  0  0  0  0  0  0  0  0  0  0  0
    2.2439    2.0149    1.3346 H   0  0  0  0  0  0  0  0  0  0  0  0
    3.0946    2.3072   -0.1828 H   0  0  0  0  0  0  0  0  0  0  0  0
   -0.3299    2.3444    1.2800 H   0  0  0  0  0  0  0  0  0  0  0  0
   -1.1387    2.4561   -0.1630 H   0  0  0  0  0  0  0  0  0  0  0  0
    3.2792    0.0171    0.3796 H   0  0  0  0  0  0  0  0  0  0  0  0
  1  5  1  0  0  0  0
  2 11  1  0  0  0  0
  2  8  1  0  0  0  0
  2  9  1  0  0  0  0
  3  4  1  0  0  0  0
  4 14  1  0  0  0  0
  4 15  1  0  0  0  0
  4  1  1  0  0  0  0
  5 16  1  0  0  0  0
  5 18  1  0  0  0  0
  5 17  1  0  0  0  0
  6  3  1  0  0  0  0
  6  7  1  0  0  0  0
  7  8  1  0  0  0  0
  7 25  1  1  0  0  0
  7  1  1  0  0  0  0
  8 21  1  0  0  0  0
  9 23  1  0  0  0  0
 10  2  1  0  0  0  0
 12  3  1  0  0  0  0
 13  3  1  0  0  0  0
 19  6  1  0  0  0  0
 20  6  1  0  0  0  0
 22  8  1  0  0  0  0
 24  9  1  0  0  0  0
M  END
