4,16
q = 0.0, confidence = 0.99

 47 47  0  0  0  0  0  0  0  0999 V2000
   -2.2637    0.0428    0.7111 Si  0  0  0  0  0  0  0  0  0  0  0  0
   -3.6730   -0.8282    0.9308 O   0  0  0  0  0  0  0  0  0  0  0  0
   -1.0377   -0.9324    0.0995 O   0  0  0  0  0  0  0  0  0  0  0  0
    2.0475   -1.1561   -0.0893 N   0  0  0  0  0  2  0  0  0  0  0  0
   -1.7576    0.6660    2.4089 C   0  0  0  0  0  0  0  0  0  0  0  0
   -2.7231    0.9950    2.8486 H   0  0  0  0  0  0  0  0  0  0  0  0
   -1.4383   -0.1911    3.0424 H   0  0  0  0  0  0  0  0  0  0  0  0
   -2.6424    1.2694   -0.3510 O   0  0  0  0  0  0  0  0  0  0  0  0
   -0.7489    1.8306    2.4558 C   0  0  0  0  0  0  0  0  0  0  0  0
   -0.7511    2.4143    1.5131 H   0  0  0  0  0  0  0  0  0  0  0  0
   -1.0257    2.5461    3.2586 H   0  0  0  0  0  0  0  0  0  0  0  0
    1.8387   -1.7149    1.1440 C   0  0  0  0  0  0  0  0  0  0  0  0
    0.7087    1.4398    2.7527 C   0  0  0  0  0  0  0  0  0  0  0  0
    1.3325    2.3525    2.6728 H   0  0  0  0  0  0  0  0  0  0  0  0
    0.7926    1.0169    3.7789 H   0  0  0  0  0  0  0  0  0  0  0  0
    1.2407    0.4731    1.8031 N   0  0  0  0  0  2  0  0  0  0  0  0
    2.5373   -3.8788    0.3240 C   0  0  0  0  0  0  0  0  0  0  0  0
    2.7307   -4.9500    0.4807 H   0  0  0  0  0  0  0  0  0  0  0  0
    2.4884   -1.9218   -1.1040 C   0  0  0  0  0  0  0  0  0  0  0  0
    2.6171   -1.3871   -2.0611 H   0  0  0  0  0  0  0  0  0  0  0  0
    2.7448   -3.2893   -0.9331 C   0  0  0  0  0  0  0  0  0  0  0  0
    3.1025   -3.8795   -1.7885 H   0  0  0  0  0  0  0  0  0  0  0  0
    2.0767   -3.0796    1.3775 C   0  0  0  0  0  0  0  0  0  0  0  0
    1.8974   -3.4968    2.3786 H   0  0  0  0  0  0  0  0  0  0  0  0
    1.3731   -0.7772    2.1475 C   0  0  0  0  0  0  0  0  0  0  0  0
    1.1377   -1.1180    3.1720 H   0  0  0  0  0  0  0  0  0  0  0  0
   -4.9832   -1.9991   -0.7608 C   0  0  0  0  0  0  0  0  0  0  0  0
   -4.9248   -2.9339   -0.1672 H   0  0  0  0  0  0  0  0  0  0  0  0
   -5.9534   -1.9884   -1.2987 H   0  0  0  0  0  0  0  0  0  0  0  0
   -4.1740   -2.0237   -1.5191 H   0  0  0  0  0  0  0  0  0  0  0  0
   -4.8570   -0.7793    0.1424 C   0  0  0  0  0  0  0  0  0  0  0  0
   -5.7217   -0.7401    0.8421 H   0  0  0  0  0  0  0  0  0  0  0  0
   -4.8773    0.1539   -0.4631 H   0  0  0  0  0  0  0  0  0  0  0  0
   -1.8174    1.8852   -1.3474 C   0  0  0  0  0  0  0  0  0  0  0  0
   -1.5542    2.9098   -1.0077 H   0  0  0  0  0  0  0  0  0  0  0  0
   -0.8516    1.3455   -1.4551 H   0  0  0  0  0  0  0  0  0  0  0  0
   -2.5478    1.9315   -2.6777 C   0  0  0  0  0  0  0  0  0  0  0  0
   -3.5040    2.4861   -2.5882 H   0  0  0  0  0  0  0  0  0  0  0  0
   -1.9181    2.4354   -3.4383 H   0  0  0  0  0  0  0  0  0  0  0  0
   -2.7768    0.9092   -3.0439 H   0  0  0  0  0  0  0  0  0  0  0  0
   -1.1199   -3.0270   -1.1216 C   0  0  0  0  0  0  0  0  0  0  0  0
   -1.1371   -3.4764   -2.1356 H   0  0  0  0  0  0  0  0  0  0  0  0
   -0.2157   -3.3947   -0.5968 H   0  0  0  0  0  0  0  0  0  0  0  0
   -2.0095   -3.3830   -0.5644 H   0  0  0  0  0  0  0  0  0  0  0  0
   -1.1139   -1.5093   -1.2070 C   0  0  0  0  0  0  0  0  0  0  0  0
   -2.0242   -1.1549   -1.7434 H   0  0  0  0  0  0  0  0  0  0  0  0
   -0.2438   -1.1403   -1.7949 H   0  0  0  0  0  0  0  0  0  0  0  0
  1  2  1  0  0  0  0
  1  5  1  0  0  0  0
  3  1  1  0  0  0  0
  4 12  1  0  0  0  0
  5  9  1  0  0  0  0
  5  6  1  0  0  0  0
  5  7  1  0  0  0  0
  8  1  1  0  0  0  0
  9 13  1  0  0  0  0
  9 11  1  0  0  0  0
 10  9  1  0  0  0  0
 12 23  1  0  0  0  0
 12 25  2  0  0  0  0
 13 15  1  0  0  0  0
 14 13  1  0  0  0  0
 16 25  1  0  0  0  0
 16 13  1  0  0  0  0
 17 18  1  0  0  0  0
 17 23  2  0  0  0  0
 19 21  2  0  0  0  0
 19  4  1  0  0  0  0
 20 19  1  0  0  0  0
 21 17  1  0  0  0  0
 22 21  1  0  0  0  0
 23 24  1  0  0  0  0
 25 26  1  0  0  0  0
 27 28  1  0  0  0  0
 27 31  1  0  0  0  0
 29 27  1  0  0  0  0
 30 27  1  0  0  0  0
 31 32  1  0  0  0  0
 31  2  1  0  0  0  0
 33 31  1  0  0  0  0
 34 35  1  0  0  0  0
 34  8  1  0  0  0  0
 36 34  1  0  0  0  0
 37 38  1  0  0  0  0
 37 34  1  0  0  0  0
 39 37  1  0  0  0  0
 40 37  1  0  0  0  0
 41 43  1  0  0  0  0
 41 44  1  0  0  0  0
 42 41  1  0  0  0  0
 45 41  1  0  0  0  0
 45  3  1  0  0  0  0
 46 45  1  0  0  0  0
 47 45  1  0  0  0  0
M  END
