2,4
q = 0.0, confidence = 0.998

 39 42  0  0  1  0  0  0  0  0999 V2000
   -2.3832   -1.7151    0.6437 N   0  0  0  0  0  0  0  0  0  0  0  0
   -1.6001    0.0498   -1.5693 N   0  0  0  0  0  2  0  0  0  0  0  0
   -1.7248   -1.2995   -1.6237 N   0  0  0  0  0  0  0  0  0  0  0  0
   -2.2974   -0.4734    1.1760 N   0  0  0  0  0  2  0  0  0  0  0  0
   -1.4886   -2.1233   -0.4461 C   0  0  1  0  0  0  0  0  0  0  0  0
    0.9622   -1.4440   -0.5114 C   0  0  0  0  0  0  0  0  0  0  0  0
    0.7348   -0.7234   -1.3134 H   0  0  0  0  0  0  0  0  0  0  0  0
   -1.7410    0.5027   -2.8265 C   0  0  0  0  0  3  0  0  0  0  0  0
   -1.6606    1.5827   -2.9987 H   0  0  0  0  0  0  0  0  0  0  0  0
   -0.0505   -2.1714    0.0095 C   0  0  0  0  0  0  0  0  0  0  0  0
    0.1177   -2.8414    0.8689 H   0  0  0  0  0  0  0  0  0  0  0  0
    2.3632   -1.5139   -0.0784 C   0  0  0  0  0  0  0  0  0  0  0  0
   -1.9310   -1.7186   -2.9088 C   0  0  0  0  0  0  0  0  0  0  0  0
   -2.0385   -2.7829   -3.1444 H   0  0  0  0  0  0  0  0  0  0  0  0
   -1.9498   -0.5814   -3.7096 C   0  0  0  0  0  0  0  0  0  0  0  0
   -2.1008   -0.5385   -4.7924 H   0  0  0  0  0  0  0  0  0  0  0  0
    2.9319   -2.7302    0.3117 C   0  0  0  0  0  0  0  0  0  0  0  0
    2.3201   -3.6445    0.2735 H   0  0  0  0  0  0  0  0  0  0  0  0
    3.1698   -0.3168   -0.0696 C   0  0  0  0  0  0  0  0  0  0  0  0
    4.5557   -0.4153    0.3256 C   0  0  0  0  0  0  0  0  0  0  0  0
    4.2888   -2.8168    0.7046 C   0  0  0  0  0  0  0  0  0  0  0  0
    4.7095   -3.7915    0.9942 H   0  0  0  0  0  0  0  0  0  0  0  0
    2.6449    0.9669   -0.3963 C   0  0  0  0  0  0  0  0  0  0  0  0
    1.5843    1.1013   -0.6554 H   0  0  0  0  0  0  0  0  0  0  0  0
   -3.2125   -2.5082    1.3877 C   0  0  0  0  0  3  0  0  0  0  0  0
   -3.3853   -3.5555    1.1163 H   0  0  0  0  0  0  0  0  0  0  0  0
    3.4495    2.0967   -0.3570 C   0  0  0  0  0  0  0  0  0  0  0  0
    3.0023    3.0724   -0.5992 H   0  0  0  0  0  0  0  0  0  0  0  0
   -3.6901   -1.7270    2.4354 C   0  0  0  0  0  0  0  0  0  0  0  0
   -4.3846   -2.0319    3.2241 H   0  0  0  0  0  0  0  0  0  0  0  0
   -3.0918   -0.4577    2.2584 C   0  0  0  0  0  0  0  0  0  0  0  0
   -3.1617    0.4732    2.8343 H   0  0  0  0  0  0  0  0  0  0  0  0
    4.8170    1.9972    0.0090 C   0  0  0  0  0  0  0  0  0  0  0  0
    5.4446    2.9010    0.0372 H   0  0  0  0  0  0  0  0  0  0  0  0
    5.3566    0.7647    0.3453 C   0  0  0  0  0  0  0  0  0  0  0  0
    6.4127    0.6781    0.6453 H   0  0  0  0  0  0  0  0  0  0  0  0
    5.0867   -1.6822    0.7053 C   0  0  0  0  0  0  0  0  0  0  0  0
    6.1456   -1.7438    1.0015 H   0  0  0  0  0  0  0  0  0  0  0  0
   -1.8329   -3.1416   -0.7228 H   0  0  0  0  0  0  0  0  0  0  0  0
  1  4  1  0  0  0  0
  1 25  1  0  0  0  0
  3  2  1  0  0  0  0
  3  5  1  0  0  0  0
  4 31  1  0  0  0  0
  5 39  1  6  0  0  0
  5 10  1  0  0  0  0
  5  1  1  0  0  0  0
  6 12  1  0  0  0  0
  6 10  2  0  0  0  0
  7  6  1  0  0  0  0
  8  2  1  0  0  0  0
  9  8  1  0  0  0  0
 10 11  1  0  0  0  0
 12 19  2  0  0  0  0
 12 17  1  0  0  0  0
 13  3  1  0  0  0  0
 14 13  1  0  0  0  0
 15 13  2  0  0  0  0
 15  8  1  0  0  0  0
 16 15  1  0  0  0  0
 17 21  2  0  0  0  0
 18 17  1  0  0  0  0
 19 20  1  0  0  0  0
 20 35  1  0  0  0  0
 20 37  2  0  0  0  0
 21 37  1  0  0  0  0
 21 22  1  0  0  0  0
 23 27  2  0  0  0  0
 23 19  1  0  0  0  0
 24 23  1  0  0  0  0
 25 29  1  0  0  0  0
 26 25  1  0  0  0  0
 27 33  1  0  0  0  0
 28 27  1  0  0  0  0
 29 30  1  0  0  0  0
 31 29  2  0  0  0  0
 31 32  1  0  0  0  0
 33 34  1  0  0  0  0
 33 35  2  0  0  0  0
 35 36  1  0  0  0  0
 37 38  1  0  0  0  0
M  END
