3,4
q = -2.0, confidence = 0.65

 28 29  0  0  0  0  0  0  0  0999 V2000
    0.0525    2.4771   -0.5996 O   0  0  0  0  0  1  0  0  0  0  0  0
    0.0490   -2.5653    0.0110 O   0  0  0  0  0  1  0  0  0  0  0  0
   -0.1869    1.2054   -0.4830 N   0  0  0  0  0  2  0  0  0  0  0  0
   -0.1848   -1.2952   -0.1194 N   0  0  0  0  0  2  0  0  0  0  0  0
   -1.4017    0.6946   -0.3071 C   0  0  0  0  0  0  0  0  0  0  0  0
   -2.6025    1.5462   -0.1876 C   0  0  0  0  0  0  0  0  0  0  0  0
   -2.7900    2.6614   -1.0361 C   0  0  0  0  0  0  0  0  0  0  0  0
   -3.9346    3.4595   -0.9129 C   0  0  0  0  0  0  0  0  0  0  0  0
   -4.9021    3.1704    0.0633 C   0  0  0  0  0  0  0  0  0  0  0  0
   -4.7177    2.0729    0.9195 C   0  0  0  0  0  0  0  0  0  0  0  0
   -3.5802    1.2655    0.7951 C   0  0  0  0  0  0  0  0  0  0  0  0
   -1.4048   -0.7685   -0.1633 C   0  0  0  0  0  0  0  0  0  0  0  0
   -2.6252   -1.6004   -0.1739 C   0  0  0  0  0  0  0  0  0  0  0  0
   -3.6784   -1.2989   -1.0684 C   0  0  0  0  0  0  0  0  0  0  0  0
   -4.8377   -2.0838   -1.0932 C   0  0  0  0  0  0  0  0  0  0  0  0
   -4.9692   -3.1795   -0.2250 C   0  0  0  0  0  0  0  0  0  0  0  0
   -3.9252   -3.4925    0.6604 C   0  0  0  0  0  0  0  0  0  0  0  0
   -2.7589   -2.7165    0.6831 C   0  0  0  0  0  0  0  0  0  0  0  0
   -2.0284    2.8926   -1.7921 H   0  0  0  0  0  0  0  0  0  0  0  0
   -4.0720    4.3186   -1.5873 H   0  0  0  0  0  0  0  0  0  0  0  0
   -5.7988    3.8018    0.1583 H   0  0  0  0  0  0  0  0  0  0  0  0
   -5.4674    1.8413    1.6914 H   0  0  0  0  0  0  0  0  0  0  0  0
   -3.4427    0.4063    1.4673 H   0  0  0  0  0  0  0  0  0  0  0  0
   -3.5775   -0.4473   -1.7559 H   0  0  0  0  0  0  0  0  0  0  0  0
   -5.6446   -1.8385   -1.8004 H   0  0  0  0  0  0  0  0  0  0  0  0
   -5.8822   -3.7939   -0.2436 H   0  0  0  0  0  0  0  0  0  0  0  0
   -4.0176   -4.3546    1.3386 H   0  0  0  0  0  0  0  0  0  0  0  0
   -1.9359   -2.9728    1.3628 H   0  0  0  0  0  0  0  0  0  0  0  0
  1  3  1  0  0  0  0
  3  5  1  0  0  0  0
  4  2  1  0  0  0  0
  5  6  1  0  0  0  0
  5 12  2  0  0  0  0
  6 11  1  0  0  0  0
  7  8  1  0  0  0  0
  7  6  2  0  0  0  0
  8  9  2  0  0  0  0
  9 21  1  0  0  0  0
  9 10  1  0  0  0  0
 10 22  1  0  0  0  0
 11 10  2  0  0  0  0
 11 23  1  0  0  0  0
 12  4  1  0  0  0  0
 13 12  1  0  0  0  0
 13 18  1  0  0  0  0
 14 13  2  0  0  0  0
 15 14  1  0  0  0  0
 15 16  2  0  0  0  0
 16 17  1  0  0  0  0
 17 18  2  0  0  0  0
 17 27  1  0  0  0  0
 18 28  1  0  0  0  0
 19  7  1  0  0  0  0
 20  8  1  0  0  0  0
 24 14  1  0  0  0  0
 25 15  1  0  0  0  0
 26 16  1  0  0  0  0
M  END
