2,3
q = -1.0, confidence = 0.0

 30 32  0  0  1  0  0  0  0  0999 V2000
    1.9703    1.9162    0.9931 O   0  0  0  0  0  0  0  0  0  0  0  0
   -1.0185    1.3949   -0.9671 N   0  0  0  0  0  0  0  0  0  0  0  0
    0.5015    0.2183    0.7577 N   0  0  0  0  0  2  0  0  0  0  0  0
   -1.6652    2.1293   -1.9024 C   0  0  0  0  0  0  0  0  0  0  0  0
   -1.0569    3.4044   -2.0141 C   0  0  0  0  0  0  0  0  0  0  0  0
    0.0252    3.4310   -1.1111 C   0  0  0  0  0  0  0  0  0  0  0  0
    0.0256    2.1685   -0.4794 C   0  0  0  0  0  3  0  0  0  0  0  0
    0.8388    1.4541    0.4382 C   0  0  2  0  0  3  0  0  0  0  0  0
    2.6405    0.7579    1.5949 C   0  0  1  0  0  0  0  0  0  0  0  0
    1.5066   -0.3323    1.6724 C   0  0  2  0  0  0  0  0  0  0  0  0
    1.9451   -1.7525    1.3273 C   0  0  0  0  0  0  0  0  0  0  0  0
    3.8551    0.3976    0.7735 C   0  0  0  0  0  0  0  0  0  0  0  0
    5.1061    0.2526    1.4002 C   0  0  0  0  0  0  0  0  0  0  0  0
    6.2424   -0.1022    0.6562 C   0  0  0  0  0  0  0  0  0  0  0  0
    6.1343   -0.3086   -0.7271 C   0  0  0  0  0  0  0  0  0  0  0  0
    4.8879   -0.1626   -1.3597 C   0  0  0  0  0  0  0  0  0  0  0  0
    3.7515    0.1872   -0.6184 C   0  0  0  0  0  0  0  0  0  0  0  0
   -2.5092    1.7171   -2.4687 H   0  0  0  0  0  0  0  0  0  0  0  0
   -1.3758    4.2104   -2.6855 H   0  0  0  0  0  0  0  0  0  0  0  0
    0.7328    4.2473   -0.9296 H   0  0  0  0  0  0  0  0  0  0  0  0
    2.9579    1.0666    2.6096 H   0  0  0  0  0  0  0  0  0  0  0  0
    1.0883   -0.3283    2.7075 H   0  0  0  0  0  0  0  0  0  0  0  0
    1.1250   -2.4656    1.5327 H   0  0  0  0  0  0  0  0  0  0  0  0
    2.2042   -1.8360    0.2564 H   0  0  0  0  0  0  0  0  0  0  0  0
    2.8206   -2.0464    1.9389 H   0  0  0  0  0  0  0  0  0  0  0  0
    5.1921    0.4259    2.4852 H   0  0  0  0  0  0  0  0  0  0  0  0
    7.2159   -0.2092    1.1583 H   0  0  0  0  0  0  0  0  0  0  0  0
    7.0236   -0.5825   -1.3153 H   0  0  0  0  0  0  0  0  0  0  0  0
    4.7947   -0.3290   -2.4435 H   0  0  0  0  0  0  0  0  0  0  0  0
    2.7770    0.2690   -1.1264 H   0  0  0  0  0  0  0  0  0  0  0  0
  1  9  1  0  0  0  0
  2  7  1  0  0  0  0
  3 10  1  0  0  0  0
  4  2  2  0  0  0  0
  5  4  1  0  0  0  0
  5  6  2  0  0  0  0
  6 20  1  0  0  0  0
  6  7  1  0  0  0  0
  8  7  1  6  0  0  0
  8  3  1  0  0  0  0
  8  1  1  0  0  0  0
  9 10  1  0  0  0  0
  9 21  1  1  0  0  0
 10 22  1  1  0  0  0
 11 23  1  0  0  0  0
 11 10  1  0  0  0  0
 11 25  1  0  0  0  0
 12 13  1  0  0  0  0
 12  9  1  0  0  0  0
 13 26  1  0  0  0  0
 14 27  1  0  0  0  0
 14 13  2  0  0  0  0
 15 14  1  0  0  0  0
 16 15  2  0  0  0  0
 16 17  1  0  0  0  0
 17 12  2  0  0  0  0
 18  4  1  0  0  0  0
 19  5  1  0  0  0  0
 24 11  1  0  0  0  0
 28 15  1  0  0  0  0
 29 16  1  0  0  0  0
 30 17  1  0  0  0  0
M  END
