5,11
q = 0.0, confidence = 1.0

 28 29  0  0  0  0  0  0  0  0999 V2000
   -1.7667    1.4985   -0.7770 S   0  0  0  0  0  0  0  0  0  0  0  0
    1.1237    4.9636    0.0969 C   0  0  0  0  0  0  0  0  0  0  0  0
    1.8364    5.7731    0.3100 H   0  0  0  0  0  0  0  0  0  0  0  0
    0.6883    2.6406   -0.5186 C   0  0  0  0  0  0  0  0  0  0  0  0
    1.1338    1.3459   -0.8333 N   0  0  0  0  0  2  0  0  0  0  0  0
   -0.7167    2.8666   -0.4037 C   0  0  0  0  0  0  0  0  0  0  0  0
    2.1563    1.1624   -1.6263 C   0  0  0  0  0  0  0  0  0  0  0  0
    2.6354    2.0059   -2.1595 H   0  0  0  0  0  0  0  0  0  0  0  0
   -0.2601    5.1864    0.2040 C   0  0  0  0  0  0  0  0  0  0  0  0
   -0.6381    6.1788    0.4910 H   0  0  0  0  0  0  0  0  0  0  0  0
    2.0426   -1.1663   -1.1206 N   0  0  0  0  0  2  0  0  0  0  0  0
    1.5910    3.6973   -0.2656 C   0  0  0  0  0  0  0  0  0  0  0  0
    2.6720    3.4963   -0.3107 H   0  0  0  0  0  0  0  0  0  0  0  0
    2.6748   -0.1862   -1.8232 C   0  0  0  0  0  0  0  0  0  0  0  0
   -1.1712    4.1515   -0.0459 C   0  0  0  0  0  0  0  0  0  0  0  0
   -2.2472    4.3539    0.0351 H   0  0  0  0  0  0  0  0  0  0  0  0
    3.7621   -0.4631   -2.6775 C   0  0  0  0  0  0  0  0  0  0  0  0
    4.2488    0.3547   -3.2296 H   0  0  0  0  0  0  0  0  0  0  0  0
    3.5444   -2.7914   -2.0741 C   0  0  0  0  0  0  0  0  0  0  0  0
    3.8551   -3.8436   -2.1459 H   0  0  0  0  0  0  0  0  0  0  0  0
    4.2008   -1.7864   -2.8037 C   0  0  0  0  0  0  0  0  0  0  0  0
    5.0452   -2.0336   -3.4638 H   0  0  0  0  0  0  0  0  0  0  0  0
   -3.4043    2.0850   -0.2591 C   0  0  0  0  0  0  0  0  0  0  0  0
   -3.7651    2.9138   -0.8988 H   0  0  0  0  0  0  0  0  0  0  0  0
   -3.4049    2.3874    0.8060 H   0  0  0  0  0  0  0  0  0  0  0  0
   -4.0719    1.2119   -0.3868 H   0  0  0  0  0  0  0  0  0  0  0  0
    2.4700   -2.4316   -1.2448 C   0  0  0  0  0  0  0  0  0  0  0  0
    1.9226   -3.1906   -0.6621 H   0  0  0  0  0  0  0  0  0  0  0  0
  1  6  1  0  0  0  0
  1 23  1  0  0  0  0
  2  9  1  0  0  0  0
  2  3  1  0  0  0  0
  4  6  2  0  0  0  0
  4 12  1  0  0  0  0
  5  4  1  0  0  0  0
  6 15  1  0  0  0  0
  7  5  1  0  0  0  0
  8  7  1  0  0  0  0
  9 10  1  0  0  0  0
 12  2  2  0  0  0  0
 13 12  1  0  0  0  0
 14  7  2  0  0  0  0
 14 11  1  0  0  0  0
 15 16  1  0  0  0  0
 15  9  2  0  0  0  0
 17 14  1  0  0  0  0
 18 17  1  0  0  0  0
 19 27  2  0  0  0  0
 20 19  1  0  0  0  0
 21 17  2  0  0  0  0
 21 19  1  0  0  0  0
 22 21  1  0  0  0  0
 23 25  1  0  0  0  0
 24 23  1  0  0  0  0
 26 23  1  0  0  0  0
 27 11  1  0  0  0  0
 27 28  1  0  0  0  0
M  END
