1,3
q = 0.0, confidence = 1.0

 43 45  0  0  1  0  0  0  0  0999 V2000
    0.0514    0.2021   -0.2340 N   0  0  0  0  0  2  0  0  0  0  0  0
    1.3005   -0.3287   -0.3022 N   0  0  0  0  0  0  0  0  0  0  0  0
   -0.5874   -2.3292    1.1056 N   0  0  0  0  0  0  0  0  0  0  0  0
    0.1813    1.5365   -0.0334 C   0  0  2  0  0  3  0  0  0  0  0  0
    1.5673    1.8447    0.0315 C   0  0  0  0  0  0  0  0  0  0  0  0
    2.0202    2.8303    0.1691 H   0  0  0  0  0  0  0  0  0  0  0  0
    2.2589    0.6454   -0.1401 C   0  0  0  0  0  0  0  0  0  0  0  0
   -0.9405    2.4758    0.1212 C   0  0  0  0  0  0  0  0  0  0  0  0
   -2.2387    2.0557    0.4866 C   0  0  0  0  0  0  0  0  0  0  0  0
   -2.4518    0.9827    0.6081 H   0  0  0  0  0  0  0  0  0  0  0  0
   -3.2662    2.9895    0.6631 C   0  0  0  0  0  0  0  0  0  0  0  0
   -4.2715    2.6373    0.9386 H   0  0  0  0  0  0  0  0  0  0  0  0
   -3.0219    4.3593    0.4785 C   0  0  0  0  0  0  0  0  0  0  0  0
   -3.8334    5.0904    0.6132 H   0  0  0  0  0  0  0  0  0  0  0  0
   -1.7369    4.7901    0.1119 C   0  0  0  0  0  0  0  0  0  0  0  0
   -1.5363    5.8602   -0.0480 H   0  0  0  0  0  0  0  0  0  0  0  0
   -0.7069    3.8581   -0.0642 C   0  0  0  0  0  0  0  0  0  0  0  0
    0.2885    4.2074   -0.3754 H   0  0  0  0  0  0  0  0  0  0  0  0
    3.7082    0.3956   -0.1814 C   0  0  0  0  0  0  0  0  0  0  0  0
    4.5436    0.9788    0.7978 C   0  0  0  0  0  0  0  0  0  0  0  0
    4.0900    1.5806    1.5995 H   0  0  0  0  0  0  0  0  0  0  0  0
    5.9302    0.7808    0.7593 C   0  0  0  0  0  0  0  0  0  0  0  0
    6.5677    1.2386    1.5307 H   0  0  0  0  0  0  0  0  0  0  0  0
    6.5043   -0.0046   -0.2532 C   0  0  0  0  0  0  0  0  0  0  0  0
    7.5930   -0.1621   -0.2802 H   0  0  0  0  0  0  0  0  0  0  0  0
    5.6848   -0.5810   -1.2368 C   0  0  0  0  0  0  0  0  0  0  0  0
    6.1303   -1.1806   -2.0448 H   0  0  0  0  0  0  0  0  0  0  0  0
    4.2981   -0.3789   -1.2077 C   0  0  0  0  0  0  0  0  0  0  0  0
    3.6670   -0.7940   -2.0082 H   0  0  0  0  0  0  0  0  0  0  0  0
    1.4533   -1.7772   -0.2662 C   0  0  0  0  0  0  0  0  0  0  0  0
    2.5363   -1.9917   -0.3264 H   0  0  0  0  0  0  0  0  0  0  0  0
    0.9548   -2.2130   -1.1575 H   0  0  0  0  0  0  0  0  0  0  0  0
    0.8901   -2.3845    1.0242 C   0  0  0  0  0  0  0  0  0  0  0  0
    1.2364   -3.4377    1.1020 H   0  0  0  0  0  0  0  0  0  0  0  0
    1.3191   -1.8344    1.8851 H   0  0  0  0  0  0  0  0  0  0  0  0
   -1.1277   -2.1365    2.4771 C   0  0  0  0  0  0  0  0  0  0  0  0
   -0.6619   -2.8881    3.1566 H   0  0  0  0  0  0  0  0  0  0  0  0
   -2.2063   -2.3783    2.3993 H   0  0  0  0  0  0  0  0  0  0  0  0
   -0.9313   -0.7289    3.0211 C   0  0  0  0  0  0  0  0  0  0  0  0
    0.1367   -0.4308    3.0600 H   0  0  0  0  0  0  0  0  0  0  0  0
   -1.3277   -0.6690    4.0537 H   0  0  0  0  0  0  0  0  0  0  0  0
   -1.4667    0.0146    2.3997 H   0  0  0  0  0  0  0  0  0  0  0  0
   -1.0120   -3.1987    0.7335 H   0  0  0  0  0  0  0  0  0  0  0  0
  1  4  1  0  0  0  0
  2 30  1  0  0  0  0
  2  1  1  0  0  0  0
  2  7  1  0  0  0  0
  3 36  1  0  0  0  0
  4  5  1  0  0  0  0
  4  8  1  1  0  0  0
  5  6  1  0  0  0  0
  7  5  2  0  0  0  0
  8  9  1  0  0  0  0
  9 10  1  0  0  0  0
  9 11  2  0  0  0  0
 11 12  1  0  0  0  0
 13 14  1  0  0  0  0
 13 11  1  0  0  0  0
 15 13  2  0  0  0  0
 16 15  1  0  0  0  0
 17 15  1  0  0  0  0
 17  8  2  0  0  0  0
 18 17  1  0  0  0  0
 19  7  1  0  0  0  0
 19 20  1  0  0  0  0
 20 21  1  0  0  0  0
 22 20  2  0  0  0  0
 22 23  1  0  0  0  0
 24 22  1  0  0  0  0
 25 24  1  0  0  0  0
 26 28  1  0  0  0  0
 26 24  2  0  0  0  0
 27 26  1  0  0  0  0
 28 19  2  0  0  0  0
 29 28  1  0  0  0  0
 30 33  1  0  0  0  0
 31 30  1  0  0  0  0
 32 30  1  0  0  0  0
 33 34  1  0  0  0  0
 33  3  1  0  0  0  0
 33 35  1  0  0  0  0
 36 39  1  0  0  0  0
 36 37  1  0  0  0  0
 38 36  1  0  0  0  0
 39 40  1  0  0  0  0
 39 41  1  0  0  0  0
 42 39  1  0  0  0  0
 43  3  1  0  0  0  0
M  END
