1,2
q = 0.0, confidence = 0.998

 29 31  0  0  1  0  0  0  0  0999 V2000
    0.0345   -2.0308   -0.3481 N   0  0  0  0  0  2  0  0  0  0  0  0
    1.9032   -0.1429   -0.5021 N   0  0  0  0  0  2  0  0  0  0  0  0
    2.9848    0.6598   -0.4306 N   0  0  0  0  0  0  0  0  0  0  0  0
    6.4731   -0.4405   -0.2684 N   0  0  0  0  0  0  0  0  0  0  0  0
    3.6722   -1.4548   -0.4147 N   0  0  0  0  0  0  0  0  0  0  0  0
   -0.9960   -2.8932   -0.3367 C   0  0  0  0  0  3  0  0  0  0  0  0
   -1.9934   -2.4432   -0.1990 H   0  0  0  0  0  0  0  0  0  0  0  0
   -0.8172   -4.2741   -0.4903 C   0  0  0  0  0  0  0  0  0  0  0  0
   -1.6862   -4.9467   -0.4794 H   0  0  0  0  0  0  0  0  0  0  0  0
    0.4850   -4.7657   -0.6561 C   0  0  0  0  0  0  0  0  0  0  0  0
    0.6664   -5.8433   -0.7811 H   0  0  0  0  0  0  0  0  0  0  0  0
    1.5630   -3.8728   -0.6570 C   0  0  0  0  0  0  0  0  0  0  0  0
    2.5847   -4.2452   -0.7843 H   0  0  0  0  0  0  0  0  0  0  0  0
    1.3059   -2.4984   -0.4952 C   0  0  0  0  0  0  0  0  0  0  0  0
    2.3035   -1.4224   -0.4825 C   0  0  1  0  0  3  0  0  0  0  0  0
    4.0636   -0.1258   -0.3778 C   0  0  0  0  0  0  0  0  0  0  0  0
    5.4343    0.4170   -0.3028 C   0  0  0  0  0  0  0  0  0  0  0  0
    5.6053    1.8194   -0.2727 C   0  0  0  0  0  0  0  0  0  0  0  0
    4.7260    2.4759   -0.3063 H   0  0  0  0  0  0  0  0  0  0  0  0
    6.9048    2.3305   -0.2021 C   0  0  0  0  0  0  0  0  0  0  0  0
    7.0732    3.4174   -0.1766 H   0  0  0  0  0  0  0  0  0  0  0  0
    7.9865    1.4377   -0.1639 C   0  0  0  0  0  0  0  0  0  0  0  0
    9.0241    1.7973   -0.1075 H   0  0  0  0  0  0  0  0  0  0  0  0
    7.7135    0.0611   -0.1992 C   0  0  0  0  0  0  0  0  0  0  0  0
    8.5359   -0.6740   -0.1703 H   0  0  0  0  0  0  0  0  0  0  0  0
    4.4939   -2.6418   -0.1823 C   0  0  0  0  0  0  0  0  0  0  0  0
    5.5323   -2.2969   -0.0351 H   0  0  0  0  0  0  0  0  0  0  0  0
    4.4595   -3.3098   -1.0640 H   0  0  0  0  0  0  0  0  0  0  0  0
    4.1120   -3.1573    0.7206 H   0  0  0  0  0  0  0  0  0  0  0  0
  1  6  1  0  0  0  0
  2 15  1  0  0  0  0
  2  3  1  0  0  0  0
  3 16  2  0  0  0  0
  4 24  1  0  0  0  0
  5 16  1  0  0  0  0
  5 26  1  0  0  0  0
  6  7  1  0  0  0  0
  8  9  1  0  0  0  0
  8  6  1  0  0  0  0
 10  8  2  0  0  0  0
 11 10  1  0  0  0  0
 12 10  1  0  0  0  0
 12 14  2  0  0  0  0
 13 12  1  0  0  0  0
 14  1  1  0  0  0  0
 15 14  1  1  0  0  0
 15  5  1  0  0  0  0
 16 17  1  0  0  0  0
 17 18  1  0  0  0  0
 17  4  2  0  0  0  0
 18 20  2  0  0  0  0
 19 18  1  0  0  0  0
 20 21  1  0  0  0  0
 20 22  1  0  0  0  0
 22 23  1  0  0  0  0
 24 25  1  0  0  0  0
 24 22  2  0  0  0  0
 26 27  1  0  0  0  0
 26 29  1  0  0  0  0
 28 26  1  0  0  0  0
M  END
