1,3
q = 0.0, confidence = 0.998

 39 40  0  0  1  0  0  0  0  0999 V2000
   -1.4679    0.0076    0.0869 N   0  0  0  0  0  2  0  0  0  0  0  0
   -1.2430    1.2295    0.6361 N   0  0  0  0  0  0  0  0  0  0  0  0
    1.5853    0.0179    0.4109 N   0  0  0  0  0  2  0  0  0  0  0  0
    1.1646    1.2693    0.7422 N   0  0  0  0  0  0  0  0  0  0  0  0
   -0.0740    1.4454    1.4634 C   0  0  0  0  0  0  0  0  0  0  0  0
   -0.0935    0.7171    2.3003 H   0  0  0  0  0  0  0  0  0  0  0  0
   -0.1133    2.4753    1.8529 H   0  0  0  0  0  0  0  0  0  0  0  0
   -3.1850   -1.0334   -1.3852 C   0  0  0  0  0  0  0  0  0  0  0  0
   -2.3651   -1.5738   -1.8927 H   0  0  0  0  0  0  0  0  0  0  0  0
   -3.8839   -0.6414   -2.1467 H   0  0  0  0  0  0  0  0  0  0  0  0
   -3.7260   -1.7682   -0.7550 H   0  0  0  0  0  0  0  0  0  0  0  0
   -2.6410    0.0917   -0.5708 C   0  0  2  0  0  3  0  0  0  0  0  0
   -3.1924    1.4067   -0.4121 C   0  0  0  0  0  0  0  0  0  0  0  0
   -2.2500    2.1113    0.3578 C   0  0  0  0  0  0  0  0  0  0  0  0
   -2.2684    3.5159    0.8613 C   0  0  0  0  0  0  0  0  0  0  0  0
   -1.3603    4.0818    0.5664 H   0  0  0  0  0  0  0  0  0  0  0  0
   -2.3531    3.5638    1.9676 H   0  0  0  0  0  0  0  0  0  0  0  0
   -3.1412    4.0518    0.4466 H   0  0  0  0  0  0  0  0  0  0  0  0
   -4.4439    1.9604   -0.9214 C   0  0  0  0  0  0  0  0  0  0  0  0
   -4.4600    3.0606   -1.0234 H   0  0  0  0  0  0  0  0  0  0  0  0
   -5.5660    1.2868   -1.2588 C   0  0  0  0  0  0  0  0  0  0  0  0
   -5.6559    0.1962   -1.1503 H   0  0  0  0  0  0  0  0  0  0  0  0
   -6.4462    1.8250   -1.6410 H   0  0  0  0  0  0  0  0  0  0  0  0
    3.5754   -0.9969   -0.6771 C   0  0  0  0  0  0  0  0  0  0  0  0
    3.2078   -1.9392   -0.2347 H   0  0  0  0  0  0  0  0  0  0  0  0
    4.6467   -0.8635   -0.4302 H   0  0  0  0  0  0  0  0  0  0  0  0
    3.4853   -1.0842   -1.7803 H   0  0  0  0  0  0  0  0  0  0  0  0
    2.7859    0.1644   -0.1802 C   0  0  2  0  0  3  0  0  0  0  0  0
    3.1414    1.5541   -0.2321 C   0  0  0  0  0  0  0  0  0  0  0  0
    2.0681    2.2289    0.3760 C   0  0  0  0  0  0  0  0  0  0  0  0
    1.8499    3.6838    0.6225 C   0  0  0  0  0  0  0  0  0  0  0  0
    1.7038    3.9141    1.6988 H   0  0  0  0  0  0  0  0  0  0  0  0
    0.9681    4.0700    0.0688 H   0  0  0  0  0  0  0  0  0  0  0  0
    2.7270    4.2614    0.2793 H   0  0  0  0  0  0  0  0  0  0  0  0
    4.3360    2.1949   -0.7700 C   0  0  0  0  0  0  0  0  0  0  0  0
    4.4687    3.2487   -0.4664 H   0  0  0  0  0  0  0  0  0  0  0  0
    5.2735    1.6659   -1.5883 C   0  0  0  0  0  0  0  0  0  0  0  0
    5.2192    0.6377   -1.9710 H   0  0  0  0  0  0  0  0  0  0  0  0
    6.1305    2.2739   -1.9139 H   0  0  0  0  0  0  0  0  0  0  0  0
  1  2  1  0  0  0  0
  2  5  1  0  0  0  0
  3  4  1  0  0  0  0
  4  5  1  0  0  0  0
  5  7  1  0  0  0  0
  5  6  1  0  0  0  0
  8 11  1  0  0  0  0
  9  8  1  0  0  0  0
 10  8  1  0  0  0  0
 12  8  1  6  0  0  0
 12 13  1  0  0  0  0
 12  1  1  0  0  0  0
 13 14  2  0  0  0  0
 14  2  1  0  0  0  0
 14 15  1  0  0  0  0
 15 17  1  0  0  0  0
 16 15  1  0  0  0  0
 18 15  1  0  0  0  0
 19 13  1  0  0  0  0
 20 19  1  0  0  0  0
 21 22  1  0  0  0  0
 21 19  2  0  0  0  0
 23 21  1  0  0  0  0
 24 26  1  0  0  0  0
 24 25  1  0  0  0  0
 27 24  1  0  0  0  0
 28 24  1  1  0  0  0
 28  3  1  0  0  0  0
 29 28  1  0  0  0  0
 29 30  2  0  0  0  0
 30 31  1  0  0  0  0
 30  4  1  0  0  0  0
 31 32  1  0  0  0  0
 33 31  1  0  0  0  0
 34 31  1  0  0  0  0
 35 36  1  0  0  0  0
 35 29  1  0  0  0  0
 37 35  2  0  0  0  0
 38 37  1  0  0  0  0
 39 37  1  0  0  0  0
M  END
