1,2
q = 0.0, confidence = 0.988

 72 78  0  0  1  0  0  0  0  0999 V2000
    3.0074   -0.9368    1.9550 N   0  0  0  0  0  2  0  0  0  0  0  0
    2.9653   -2.0401   -0.6643 N   0  0  0  0  0  2  0  0  0  0  0  0
    1.0642   -1.6025    0.7208 N   0  0  0  0  0  0  0  0  0  0  0  0
   -3.0792   -3.0295   -1.2933 N   0  0  0  0  0  0  0  0  0  0  0  0
   -6.1159   -0.7473   -0.0730 N   0  0  0  0  0  0  0  0  0  0  0  0
   -3.8314   -1.2945    0.0947 N   0  0  0  0  0  0  0  0  0  0  0  0
    0.9403    2.2899   -2.1393 N   0  0  0  0  0  0  0  0  0  0  0  0
   -2.9359    3.3478    0.2013 N   0  0  0  0  0  0  0  0  0  0  0  0
   -0.8962    2.5778   -0.6895 N   0  0  0  0  0  0  0  0  0  0  0  0
    1.7161   -1.3494    1.9397 C   0  0  2  0  0  3  0  0  0  0  0  0
    0.9918   -1.4992    3.1423 C   0  0  0  0  0  0  0  0  0  0  0  0
   -0.0601   -1.8093    3.0888 H   0  0  0  0  0  0  0  0  0  0  0  0
    1.6284   -1.2612    4.3601 C   0  0  0  0  0  0  0  0  0  0  0  0
    1.0758   -1.3818    5.3038 H   0  0  0  0  0  0  0  0  0  0  0  0
    2.9834   -0.8883    4.3617 C   0  0  0  0  0  0  0  0  0  0  0  0
    3.5301   -0.7009    5.2960 H   0  0  0  0  0  0  0  0  0  0  0  0
    3.6365   -0.7312    3.1403 C   0  0  0  0  0  0  0  0  0  0  0  0
    4.6721   -0.3713    3.0609 H   0  0  0  0  0  0  0  0  0  0  0  0
    1.6521   -2.2372   -0.3910 C   0  0  1  0  0  3  0  0  0  0  0  0
    0.8547   -3.0516   -1.2262 C   0  0  0  0  0  0  0  0  0  0  0  0
   -0.2251   -3.1288   -1.0390 H   0  0  0  0  0  0  0  0  0  0  0  0
    1.4557   -3.7276   -2.2877 C   0  0  0  0  0  0  0  0  0  0  0  0
    0.8454   -4.3676   -2.9424 H   0  0  0  0  0  0  0  0  0  0  0  0
    2.8386   -3.5945   -2.4972 C   0  0  0  0  0  0  0  0  0  0  0  0
    3.3553   -4.1239   -3.3094 H   0  0  0  0  0  0  0  0  0  0  0  0
    3.5559   -2.7289   -1.6742 C   0  0  0  0  0  0  0  0  0  0  0  0
    4.6175   -2.4987   -1.8395 H   0  0  0  0  0  0  0  0  0  0  0  0
   -4.0055   -2.6044   -0.4178 C   0  0  0  0  0  0  0  0  0  0  0  0
   -5.0762   -3.4291    0.0078 C   0  0  0  0  0  0  0  0  0  0  0  0
   -5.8106   -3.0657    0.7358 H   0  0  0  0  0  0  0  0  0  0  0  0
   -5.1753   -4.7134   -0.5291 C   0  0  0  0  0  0  0  0  0  0  0  0
   -5.9975   -5.3738   -0.2137 H   0  0  0  0  0  0  0  0  0  0  0  0
   -4.2182   -5.1560   -1.4592 C   0  0  0  0  0  0  0  0  0  0  0  0
   -4.2664   -6.1598   -1.9050 H   0  0  0  0  0  0  0  0  0  0  0  0
   -3.1868   -4.2692   -1.7931 C   0  0  0  0  0  0  0  0  0  0  0  0
   -2.4015   -4.5709   -2.5103 H   0  0  0  0  0  0  0  0  0  0  0  0
   -4.9323   -0.5069    0.5125 C   0  0  0  0  0  0  0  0  0  0  0  0
   -4.7653    0.4902    1.5066 C   0  0  0  0  0  0  0  0  0  0  0  0
   -3.7861    0.6658    1.9700 H   0  0  0  0  0  0  0  0  0  0  0  0
   -5.8745    1.2602    1.8613 C   0  0  0  0  0  0  0  0  0  0  0  0
   -5.7711    2.0422    2.6292 H   0  0  0  0  0  0  0  0  0  0  0  0
   -7.1143    1.0170    1.2450 C   0  0  0  0  0  0  0  0  0  0  0  0
   -8.0098    1.6021    1.4988 H   0  0  0  0  0  0  0  0  0  0  0  0
   -7.1740   -0.0105    0.2928 C   0  0  0  0  0  0  0  0  0  0  0  0
   -8.1269   -0.2488   -0.2132 H   0  0  0  0  0  0  0  0  0  0  0  0
   -1.8611    3.5882   -0.5718 C   0  0  0  0  0  0  0  0  0  0  0  0
   -1.6826    4.8208   -1.2550 C   0  0  0  0  0  0  0  0  0  0  0  0
   -0.8107    4.9775   -1.9043 H   0  0  0  0  0  0  0  0  0  0  0  0
   -2.6491    5.8134   -1.0917 C   0  0  0  0  0  0  0  0  0  0  0  0
   -2.5347    6.7767   -1.6120 H   0  0  0  0  0  0  0  0  0  0  0  0
   -3.7714    5.5663   -0.2802 C   0  0  0  0  0  0  0  0  0  0  0  0
   -4.5569    6.3214   -0.1353 H   0  0  0  0  0  0  0  0  0  0  0  0
   -3.8620    4.3078    0.3292 C   0  0  0  0  0  0  0  0  0  0  0  0
   -4.7334    4.0529    0.9596 H   0  0  0  0  0  0  0  0  0  0  0  0
    0.4562    2.9126   -1.0592 C   0  0  0  0  0  0  0  0  0  0  0  0
    1.2283    3.7300   -0.2139 C   0  0  0  0  0  0  0  0  0  0  0  0
    0.7716    4.2091    0.6644 H   0  0  0  0  0  0  0  0  0  0  0  0
    2.5972    3.8497   -0.4918 C   0  0  0  0  0  0  0  0  0  0  0  0
    3.2530    4.4258    0.1769 H   0  0  0  0  0  0  0  0  0  0  0  0
    3.1277    3.1655   -1.5935 C   0  0  0  0  0  0  0  0  0  0  0  0
    4.2058    3.1611   -1.8021 H   0  0  0  0  0  0  0  0  0  0  0  0
    2.2523    2.4164   -2.3961 C   0  0  0  0  0  0  0  0  0  0  0  0
    2.6413    1.8595   -3.2647 H   0  0  0  0  0  0  0  0  0  0  0  0
   -0.1582   -0.8689    0.4667 C   0  0  0  0  0  0  0  0  0  0  0  0
   -1.4196   -1.4666    0.5291 C   0  0  0  0  0  0  0  0  0  0  0  0
   -1.5372   -2.5052    0.8615 H   0  0  0  0  0  0  0  0  0  0  0  0
   -2.5296   -0.7131    0.0927 C   0  0  0  0  0  0  0  0  0  0  0  0
   -2.3660    0.6085   -0.3539 C   0  0  0  0  0  0  0  0  0  0  0  0
   -3.2348    1.1606   -0.7252 H   0  0  0  0  0  0  0  0  0  0  0  0
   -1.1035    1.2373   -0.3011 C   0  0  0  0  0  0  0  0  0  0  0  0
    0.0094    0.4711    0.1016 C   0  0  0  0  0  0  0  0  0  0  0  0
    1.0250    0.8883    0.1071 H   0  0  0  0  0  0  0  0  0  0  0  0
  1 17  1  0  0  0  0
  2 19  1  0  0  0  0
  4 28  1  0  0  0  0
  5 44  2  0  0  0  0
  5 37  1  0  0  0  0
  6 37  1  0  0  0  0
  7 55  1  0  0  0  0
  8 53  1  0  0  0  0
  9 46  1  0  0  0  0
  9 70  1  0  0  0  0
 10  3  1  6  0  0  0
 10  1  1  0  0  0  0
 10 11  1  0  0  0  0
 11 13  2  0  0  0  0
 12 11  1  0  0  0  0
 13 15  1  0  0  0  0
 13 14  1  0  0  0  0
 15 16  1  0  0  0  0
 17 15  2  0  0  0  0
 18 17  1  0  0  0  0
 19  3  1  6  0  0  0
 20 21  1  0  0  0  0
 20 19  1  0  0  0  0
 22 20  2  0  0  0  0
 23 22  1  0  0  0  0
 24 22  1  0  0  0  0
 24 26  2  0  0  0  0
 25 24  1  0  0  0  0
 26  2  1  0  0  0  0
 27 26  1  0  0  0  0
 28 29  2  0  0  0  0
 28  6  1  0  0  0  0
 29 30  1  0  0  0  0
 31 32  1  0  0  0  0
 31 29  1  0  0  0  0
 33 31  2  0  0  0  0
 34 33  1  0  0  0  0
 35 33  1  0  0  0  0
 35  4  2  0  0  0  0
 36 35  1  0  0  0  0
 37 38  2  0  0  0  0
 38 40  1  0  0  0  0
 38 39  1  0  0  0  0
 40 41  1  0  0  0  0
 42 43  1  0  0  0  0
 42 40  2  0  0  0  0
 44 42  1  0  0  0  0
 45 44  1  0  0  0  0
 46  8  2  0  0  0  0
 47 49  2  0  0  0  0
 47 46  1  0  0  0  0
 48 47  1  0  0  0  0
 49 51  1  0  0  0  0
 50 49  1  0  0  0  0
 51 52  1  0  0  0  0
 51 53  2  0  0  0  0
 53 54  1  0  0  0  0
 55  9  1  0  0  0  0
 55 56  2  0  0  0  0
 56 57  1  0  0  0  0
 58 56  1  0  0  0  0
 58 59  1  0  0  0  0
 60 58  2  0  0  0  0
 61 60  1  0  0  0  0
 62  7  2  0  0  0  0
 62 60  1  0  0  0  0
 63 62  1  0  0  0  0
 64 65  1  0  0  0  0
 64  3  1  0  0  0  0
 65 66  1  0  0  0  0
 67  6  1  0  0  0  0
 67 65  2  0  0  0  0
 68 70  2  0  0  0  0
 68 67  1  0  0  0  0
 69 68  1  0  0  0  0
 70 71  1  0  0  0  0
 71 72  1  0  0  0  0
 71 64  2  0  0  0  0
M  END
