1,2
q = -1.0, confidence = 0.078

 36 37  0  0  1  0  0  0  0  0999 V2000
   -1.2223    0.5352   -0.1865 N   0  0  0  0  0  2  0  0  0  0  0  0
    1.3849    0.3217   -0.2521 N   0  0  0  0  0  2  0  0  0  0  0  0
   -2.2497    2.7468   -0.7190 C   0  0  0  0  0  0  0  0  0  0  0  0
   -3.2318    2.2104   -1.4889 F   0  0  0  0  0  0  0  0  0  0  0  0
   -2.8073    3.0167    0.4879 F   0  0  0  0  0  0  0  0  0  0  0  0
   -1.9088    3.9313   -1.2752 F   0  0  0  0  0  0  0  0  0  0  0  0
   -1.0518    1.8223   -0.6073 C   0  0  2  0  0  3  0  0  0  0  0  0
    0.2100    2.2997   -0.9818 C   0  0  0  0  0  0  0  0  0  0  0  0
    0.2797    3.3009   -1.4181 H   0  0  0  0  0  0  0  0  0  0  0  0
    1.3920    1.5793   -0.7839 C   0  0  0  0  0  0  0  0  0  0  0  0
    2.7116    2.1830   -1.2258 C   0  0  0  0  0  0  0  0  0  0  0  0
    2.5236    3.3265   -1.9230 F   0  0  0  0  0  0  0  0  0  0  0  0
    3.5384    2.4797   -0.1928 F   0  0  0  0  0  0  0  0  0  0  0  0
    3.3888    1.3216   -2.0311 F   0  0  0  0  0  0  0  0  0  0  0  0
   -2.4355    0.0722    0.3980 C   0  0  0  0  0  0  0  0  0  0  0  0
   -3.4173   -0.6488   -0.3264 C   0  0  0  0  0  0  0  0  0  0  0  0
   -3.2683   -0.8602   -2.0495 Cl  0  0  0  0  0  0  0  0  0  0  0  0
   -4.5447   -1.1970    0.3011 C   0  0  0  0  0  0  0  0  0  0  0  0
   -5.2732   -1.7533   -0.3038 H   0  0  0  0  0  0  0  0  0  0  0  0
   -4.7244   -1.0193    1.6779 C   0  0  0  0  0  0  0  0  0  0  0  0
   -5.6044   -1.4532    2.1747 H   0  0  0  0  0  0  0  0  0  0  0  0
   -3.7961   -0.2807    2.4232 C   0  0  0  0  0  0  0  0  0  0  0  0
   -3.9255   -0.1216    3.5020 H   0  0  0  0  0  0  0  0  0  0  0  0
   -2.6734    0.2649    1.7898 C   0  0  0  0  0  0  0  0  0  0  0  0
   -1.5425    1.1749    2.7294 Cl  0  0  0  0  0  0  0  0  0  0  0  0
    2.5218   -0.2149    0.4161 C   0  0  0  0  0  0  0  0  0  0  0  0
    2.8508    0.2613    1.7180 C   0  0  0  0  0  0  0  0  0  0  0  0
    1.9280    1.5576    2.4083 Cl  0  0  0  0  0  0  0  0  0  0  0  0
    3.8865   -0.3029    2.4690 C   0  0  0  0  0  0  0  0  0  0  0  0
    4.0921    0.0932    3.4724 H   0  0  0  0  0  0  0  0  0  0  0  0
    4.6285   -1.3657    1.9368 C   0  0  0  0  0  0  0  0  0  0  0  0
    5.4393   -1.8178    2.5265 H   0  0  0  0  0  0  0  0  0  0  0  0
    4.3450   -1.8517    0.6560 C   0  0  0  0  0  0  0  0  0  0  0  0
    4.9236   -2.6750    0.2161 H   0  0  0  0  0  0  0  0  0  0  0  0
    3.3075   -1.2774   -0.0928 C   0  0  0  0  0  0  0  0  0  0  0  0
    3.0323   -1.9078   -1.6937 Cl  0  0  0  0  0  0  0  0  0  0  0  0
  1 15  1  0  0  0  0
  2 26  1  0  0  0  0
  3  7  1  0  0  0  0
  3  5  1  0  0  0  0
  4  3  1  0  0  0  0
  6  3  1  0  0  0  0
  7  8  1  6  0  0  0
  7  1  1  0  0  0  0
  8 10  2  0  0  0  0
  9  8  1  0  0  0  0
 10  2  1  0  0  0  0
 11 10  1  0  0  0  0
 11 13  1  0  0  0  0
 12 11  1  0  0  0  0
 14 11  1  0  0  0  0
 15 24  1  0  0  0  0
 16 18  1  0  0  0  0
 16 15  2  0  0  0  0
 17 16  1  0  0  0  0
 18 20  2  0  0  0  0
 19 18  1  0  0  0  0
 20 21  1  0  0  0  0
 20 22  1  0  0  0  0
 22 23  1  0  0  0  0
 24 22  2  0  0  0  0
 24 25  1  0  0  0  0
 26 27  1  0  0  0  0
 27 28  1  0  0  0  0
 27 29  2  0  0  0  0
 29 30  1  0  0  0  0
 31 29  1  0  0  0  0
 31 32  1  0  0  0  0
 33 31  2  0  0  0  0
 34 33  1  0  0  0  0
 35 26  2  0  0  0  0
 35 33  1  0  0  0  0
 36 35  1  0  0  0  0
M  END
