1,6
q = -1.0, confidence = 0.0

 27 28  0  0  1  0  0  0  0  0999 V2000
    1.3100   -1.3029    0.0956 N   0  0  0  0  0  2  0  0  0  0  0  0
    1.0211   -2.2826    0.2073 H   0  0  0  0  0  0  0  0  0  0  0  0
    2.6317   -1.1662    0.0397 C   0  0  1  0  0  3  0  0  0  0  0  0
    3.2957    0.0001    0.0002 N   0  0  0  0  0  0  0  0  0  0  0  0
    2.6317    1.1662   -0.0397 C   0  0  0  0  0  0  0  0  0  0  0  0
    1.3100    1.3029   -0.0959 N   0  0  0  0  0  2  0  0  0  0  0  0
    1.0210    2.2825   -0.2082 H   0  0  0  0  0  0  0  0  0  0  0  0
    3.4862    2.3952   -0.0417 C   0  0  0  0  0  0  0  0  0  0  0  0
    3.0126    3.6499    0.3909 C   0  0  0  0  0  0  0  0  0  0  0  0
    1.9938    3.7724    0.7915 H   0  0  0  0  0  0  0  0  0  0  0  0
    3.8774    4.7543    0.3505 C   0  0  0  0  0  0  0  0  0  0  0  0
    5.1468    4.6916   -0.0800 N   0  0  0  0  0  0  0  0  0  0  0  0
    5.5984    3.4909   -0.4807 C   0  0  0  0  0  0  0  0  0  0  0  0
    6.6462    3.4541   -0.8292 H   0  0  0  0  0  0  0  0  0  0  0  0
    4.8239    2.3221   -0.4752 C   0  0  0  0  0  0  0  0  0  0  0  0
    5.2278    1.3540   -0.8026 H   0  0  0  0  0  0  0  0  0  0  0  0
    3.5225    5.7426    0.6942 H   0  0  0  0  0  0  0  0  0  0  0  0
    3.4864   -2.3951    0.0417 C   0  0  0  0  0  0  0  0  0  0  0  0
    4.8242   -2.3216    0.4748 C   0  0  0  0  0  0  0  0  0  0  0  0
    5.2279   -1.3534    0.8019 H   0  0  0  0  0  0  0  0  0  0  0  0
    5.5990   -3.4902    0.4803 C   0  0  0  0  0  0  0  0  0  0  0  0
    5.1475   -4.6911    0.0801 N   0  0  0  0  0  0  0  0  0  0  0  0
    3.8780   -4.7542   -0.3499 C   0  0  0  0  0  0  0  0  0  0  0  0
    3.5231   -5.7426   -0.6932 H   0  0  0  0  0  0  0  0  0  0  0  0
    3.0129   -3.6500   -0.3904 C   0  0  0  0  0  0  0  0  0  0  0  0
    1.9940   -3.7730   -0.7905 H   0  0  0  0  0  0  0  0  0  0  0  0
    6.6468   -3.4531    0.8285 H   0  0  0  0  0  0  0  0  0  0  0  0
  1  2  1  0  0  0  0
  3  4  1  1  0  0  0
  3 18  1  0  0  0  0
  3  1  1  0  0  0  0
  5  4  2  0  0  0  0
  6  5  1  0  0  0  0
  7  6  1  0  0  0  0
  8  5  1  0  0  0  0
  8  9  1  0  0  0  0
  9 10  1  0  0  0  0
 11  9  2  0  0  0  0
 11 17  1  0  0  0  0
 12 11  1  0  0  0  0
 13 15  1  0  0  0  0
 13 12  2  0  0  0  0
 14 13  1  0  0  0  0
 15  8  2  0  0  0  0
 16 15  1  0  0  0  0
 18 19  1  0  0  0  0
 19 21  2  0  0  0  0
 19 20  1  0  0  0  0
 21 27  1  0  0  0  0
 22 21  1  0  0  0  0
 23 22  2  0  0  0  0
 24 23  1  0  0  0  0
 25 23  1  0  0  0  0
 25 18  2  0  0  0  0
 26 25  1  0  0  0  0
M  END
