1,4
q = 0.0, confidence = 1.0

 23 23  0  0  0  0  0  0  0  0999 V2000
   -1.6733   -0.3861   -0.9137 N   0  0  0  0  0  2  0  0  0  0  0  0
   -1.9737   -1.6674    1.0774 C   0  0  0  0  0  0  0  0  0  0  0  0
   -2.5634   -2.3789    1.6893 H   0  0  0  0  0  0  0  0  0  0  0  0
   -0.8403   -1.1821    1.4792 N   0  0  0  0  0  2  0  0  0  0  0  0
   -2.4795   -1.2538   -0.2325 C   0  0  0  0  0  0  0  0  0  0  0  0
   -3.7012   -1.7071   -0.7615 C   0  0  0  0  0  0  0  0  0  0  0  0
   -4.3223   -2.4056   -0.1813 H   0  0  0  0  0  0  0  0  0  0  0  0
   -4.1026   -1.2550   -2.0248 C   0  0  0  0  0  0  0  0  0  0  0  0
   -5.0532   -1.5925   -2.4629 H   0  0  0  0  0  0  0  0  0  0  0  0
   -3.2699   -0.3632   -2.7201 C   0  0  0  0  0  0  0  0  0  0  0  0
   -3.5459    0.0179   -3.7136 H   0  0  0  0  0  0  0  0  0  0  0  0
   -2.0663    0.0437   -2.1268 C   0  0  0  0  0  0  0  0  0  0  0  0
   -1.3883    0.7441   -2.6402 H   0  0  0  0  0  0  0  0  0  0  0  0
   -0.2723   -1.5607    2.7648 C   0  0  0  0  0  0  0  0  0  0  0  0
   -0.8757   -2.3643    3.2461 H   0  0  0  0  0  0  0  0  0  0  0  0
   -0.3239   -0.6658    3.4231 H   0  0  0  0  0  0  0  0  0  0  0  0
    1.1917   -1.9897    2.6111 C   0  0  0  0  0  0  0  0  0  0  0  0
    1.7503   -1.1418    2.1568 H   0  0  0  0  0  0  0  0  0  0  0  0
    1.6138   -2.1375    3.6267 H   0  0  0  0  0  0  0  0  0  0  0  0
    1.3673   -3.2515    1.7690 C   0  0  0  0  0  0  0  0  0  0  0  0
    0.8515   -4.1208    2.2265 H   0  0  0  0  0  0  0  0  0  0  0  0
    2.4368   -3.5180    1.6598 H   0  0  0  0  0  0  0  0  0  0  0  0
    0.9482   -3.1141    0.7507 H   0  0  0  0  0  0  0  0  0  0  0  0
  1  5  1  0  0  0  0
  2  4  1  0  0  0  0
  2  3  1  0  0  0  0
  4 14  1  0  0  0  0
  5  2  2  0  0  0  0
  6  5  1  0  0  0  0
  6  7  1  0  0  0  0
  8  6  2  0  0  0  0
  9  8  1  0  0  0  0
 10 12  2  0  0  0  0
 10  8  1  0  0  0  0
 11 10  1  0  0  0  0
 12  1  1  0  0  0  0
 13 12  1  0  0  0  0
 14 15  1  0  0  0  0
 14 16  1  0  0  0  0
 17 14  1  0  0  0  0
 17 19  1  0  0  0  0
 18 17  1  0  0  0  0
 20 21  1  0  0  0  0
 20 17  1  0  0  0  0
 22 20  1  0  0  0  0
 23 20  1  0  0  0  0
M  END
