2,3
q = 0.0, confidence = 0.996

 27 28  0  0  0  0  0  0  0  0999 V2000
   -6.2889    0.2369   -0.0019 Cl  0  0  0  0  0  0  0  0  0  0  0  0
   -0.3686    0.9408    0.0883 N   0  0  0  0  0  2  0  0  0  0  0  0
    2.2436    0.8309    0.1642 N   0  0  0  0  0  2  0  0  0  0  0  0
   -0.5082    3.4120   -0.1501 C   0  0  0  0  0  0  0  0  0  0  0  0
   -1.5972    3.2530   -0.2355 H   0  0  0  0  0  0  0  0  0  0  0  0
   -0.1574    3.9451   -1.0571 H   0  0  0  0  0  0  0  0  0  0  0  0
   -0.3175    4.0767    0.7178 H   0  0  0  0  0  0  0  0  0  0  0  0
    0.2188    2.1093   -0.0046 C   0  0  0  0  0  0  0  0  0  0  0  0
    1.6875    2.0757    0.0391 C   0  0  0  0  0  0  0  0  0  0  0  0
    2.4909    3.2302   -0.0168 C   0  0  0  0  0  0  0  0  0  0  0  0
    2.0219    4.2180   -0.1161 H   0  0  0  0  0  0  0  0  0  0  0  0
    3.8820    3.1061    0.0494 C   0  0  0  0  0  0  0  0  0  0  0  0
    4.5243    3.9974    0.0019 H   0  0  0  0  0  0  0  0  0  0  0  0
    4.4390    1.8239    0.1751 C   0  0  0  0  0  0  0  0  0  0  0  0
    5.5261    1.6725    0.2278 H   0  0  0  0  0  0  0  0  0  0  0  0
    3.5863    0.7167    0.2278 C   0  0  0  0  0  0  0  0  0  0  0  0
    3.9805   -0.3058    0.3151 H   0  0  0  0  0  0  0  0  0  0  0  0
   -1.7907    0.8142    0.0711 C   0  0  0  0  0  0  0  0  0  0  0  0
   -2.4179    0.3677   -1.1082 C   0  0  0  0  0  0  0  0  0  0  0  0
   -1.7910    0.1470   -1.9864 H   0  0  0  0  0  0  0  0  0  0  0  0
   -3.8063    0.1967   -1.1313 C   0  0  0  0  0  0  0  0  0  0  0  0
   -4.3105   -0.1491   -2.0443 H   0  0  0  0  0  0  0  0  0  0  0  0
   -4.5599    0.4578    0.0265 C   0  0  0  0  0  0  0  0  0  0  0  0
   -3.9360    0.8877    1.2090 C   0  0  0  0  0  0  0  0  0  0  0  0
   -4.5390    1.0735    2.1086 H   0  0  0  0  0  0  0  0  0  0  0  0
   -2.5464    1.0680    1.2293 C   0  0  0  0  0  0  0  0  0  0  0  0
   -2.0394    1.3871    2.1517 H   0  0  0  0  0  0  0  0  0  0  0  0
  1 23  1  0  0  0  0
  3 16  1  0  0  0  0
  4  8  1  0  0  0  0
  4  7  1  0  0  0  0
  5  4  1  0  0  0  0
  6  4  1  0  0  0  0
  8  9  2  0  0  0  0
  8  2  1  0  0  0  0
  9  3  1  0  0  0  0
 10  9  1  0  0  0  0
 10 12  2  0  0  0  0
 11 10  1  0  0  0  0
 12 14  1  0  0  0  0
 13 12  1  0  0  0  0
 14 16  2  0  0  0  0
 14 15  1  0  0  0  0
 16 17  1  0  0  0  0
 18  2  1  0  0  0  0
 18 26  1  0  0  0  0
 19 18  2  0  0  0  0
 20 19  1  0  0  0  0
 21 19  1  0  0  0  0
 21 23  2  0  0  0  0
 22 21  1  0  0  0  0
 23 24  1  0  0  0  0
 24 26  2  0  0  0  0
 24 25  1  0  0  0  0
 26 27  1  0  0  0  0
M  END
