2,3
q = 0.0, confidence = 0.996

 38 41  0  0  1  0  0  0  0  0999 V2000
   -0.8541    0.4586    0.9815 N   0  0  0  0  0  0  0  0  0  0  0  0
    1.2064    1.5289    0.5224 N   0  0  0  0  0  2  0  0  0  0  0  0
    0.8014   -1.2349    1.0596 N   0  0  0  0  0  2  0  0  0  0  0  0
   -4.8045    0.7493   -0.6361 C   0  0  0  0  0  0  0  0  0  0  0  0
   -4.3413   -0.4904   -0.0650 C   0  0  0  0  0  0  0  0  0  0  0  0
   -3.0276   -0.5677    0.4745 C   0  0  0  0  0  0  0  0  0  0  0  0
   -2.6918   -1.5361    0.8682 H   0  0  0  0  0  0  0  0  0  0  0  0
   -2.1771    0.5386    0.4745 C   0  0  0  0  0  0  0  0  0  0  0  0
   -2.6250    1.7527   -0.1358 C   0  0  0  0  0  0  0  0  0  0  0  0
   -1.9435    2.6091   -0.2183 H   0  0  0  0  0  0  0  0  0  0  0  0
   -3.8995    1.8485   -0.6628 C   0  0  0  0  0  0  0  0  0  0  0  0
   -4.2202    2.7903   -1.1344 H   0  0  0  0  0  0  0  0  0  0  0  0
   -6.1228    0.8220   -1.1690 C   0  0  0  0  0  0  0  0  0  0  0  0
   -6.4656    1.7733   -1.6053 H   0  0  0  0  0  0  0  0  0  0  0  0
   -6.9590   -0.2849   -1.1454 C   0  0  0  0  0  0  0  0  0  0  0  0
   -7.9755   -0.2192   -1.5614 H   0  0  0  0  0  0  0  0  0  0  0  0
   -6.5025   -1.5105   -0.5887 C   0  0  0  0  0  0  0  0  0  0  0  0
   -7.1702   -2.3854   -0.5791 H   0  0  0  0  0  0  0  0  0  0  0  0
   -5.2233   -1.6121   -0.0622 C   0  0  0  0  0  0  0  0  0  0  0  0
   -4.8703   -2.5635    0.3654 H   0  0  0  0  0  0  0  0  0  0  0  0
   -0.0163    1.5982    1.1024 C   0  0  2  0  0  3  0  0  0  0  0  0
   -0.4173    2.7155    1.8577 C   0  0  0  0  0  0  0  0  0  0  0  0
   -1.4117    2.7178    2.3243 H   0  0  0  0  0  0  0  0  0  0  0  0
    0.4693    3.7862    2.0071 C   0  0  0  0  0  0  0  0  0  0  0  0
    0.1752    4.6717    2.5900 H   0  0  0  0  0  0  0  0  0  0  0  0
    1.7493    3.6917    1.4369 C   0  0  0  0  0  0  0  0  0  0  0  0
    2.4895    4.4956    1.5515 H   0  0  0  0  0  0  0  0  0  0  0  0
    2.0873    2.5407    0.7240 C   0  0  0  0  0  0  0  0  0  0  0  0
    3.0892    2.3823    0.3000 H   0  0  0  0  0  0  0  0  0  0  0  0
   -0.3418   -0.7258    1.5779 C   0  0  1  0  0  3  0  0  0  0  0  0
   -0.9616   -1.2906    2.7068 C   0  0  0  0  0  0  0  0  0  0  0  0
   -1.8724   -0.8252    3.1067 H   0  0  0  0  0  0  0  0  0  0  0  0
   -0.3909   -2.4215    3.2994 C   0  0  0  0  0  0  0  0  0  0  0  0
   -0.8608   -2.8820    4.1811 H   0  0  0  0  0  0  0  0  0  0  0  0
    0.8070   -2.9305    2.7730 C   0  0  0  0  0  0  0  0  0  0  0  0
    1.3054   -3.8023    3.2189 H   0  0  0  0  0  0  0  0  0  0  0  0
    1.3839   -2.2964    1.6718 C   0  0  0  0  0  0  0  0  0  0  0  0
    2.3508   -2.6089    1.2525 H   0  0  0  0  0  0  0  0  0  0  0  0
  2 28  1  0  0  0  0
  2 21  1  0  0  0  0
  3 30  1  0  0  0  0
  3 37  1  0  0  0  0
  4  5  1  0  0  0  0
  5 19  1  0  0  0  0
  5  6  2  0  0  0  0
  6  8  1  0  0  0  0
  6  7  1  0  0  0  0
  8  1  1  0  0  0  0
  9  8  2  0  0  0  0
 10  9  1  0  0  0  0
 11  4  2  0  0  0  0
 11  9  1  0  0  0  0
 12 11  1  0  0  0  0
 13 15  2  0  0  0  0
 13  4  1  0  0  0  0
 14 13  1  0  0  0  0
 15 17  1  0  0  0  0
 16 15  1  0  0  0  0
 17 18  1  0  0  0  0
 17 19  2  0  0  0  0
 19 20  1  0  0  0  0
 21  1  1  1  0  0  0
 21 22  1  0  0  0  0
 22 24  2  0  0  0  0
 22 23  1  0  0  0  0
 24 25  1  0  0  0  0
 26 27  1  0  0  0  0
 26 24  1  0  0  0  0
 28 26  2  0  0  0  0
 29 28  1  0  0  0  0
 30  1  1  1  0  0  0
 30 31  1  0  0  0  0
 31 32  1  0  0  0  0
 31 33  2  0  0  0  0
 33 34  1  0  0  0  0
 35 36  1  0  0  0  0
 35 33  1  0  0  0  0
 37 35  2  0  0  0  0
 38 37  1  0  0  0  0
M  END
