1,2
q = 0.0, confidence = 0.992

 43 45  0  0  0  0  0  0  0  0999 V2000
   -2.2222   -0.1701    0.0219 N   0  0  0  0  0  2  0  0  0  0  0  0
    0.3357    0.3813    0.0333 N   0  0  0  0  0  2  0  0  0  0  0  0
   -3.5184   -0.5306    0.0216 C   0  0  0  0  0  0  0  0  0  0  0  0
   -3.6926   -1.6198   -0.0266 H   0  0  0  0  0  0  0  0  0  0  0  0
   -4.5374    0.4304    0.0763 C   0  0  0  0  0  0  0  0  0  0  0  0
   -5.5863    0.1013    0.0692 H   0  0  0  0  0  0  0  0  0  0  0  0
   -4.2066    1.7920    0.1320 C   0  0  0  0  0  0  0  0  0  0  0  0
   -4.9959    2.5588    0.1681 H   0  0  0  0  0  0  0  0  0  0  0  0
   -2.8558    2.1803    0.1362 C   0  0  0  0  0  0  0  0  0  0  0  0
   -2.4024    3.6193    0.2076 C   0  0  0  0  0  0  0  0  0  0  0  0
   -2.3596    3.9243    1.2787 H   0  0  0  0  0  0  0  0  0  0  0  0
   -3.1629    4.2743   -0.2640 H   0  0  0  0  0  0  0  0  0  0  0  0
   -1.0250    3.8197   -0.4360 C   0  0  0  0  0  0  0  0  0  0  0  0
   -0.6880    4.8663   -0.3016 H   0  0  0  0  0  0  0  0  0  0  0  0
   -1.1035    3.6462   -1.5309 H   0  0  0  0  0  0  0  0  0  0  0  0
    0.0175    2.8589    0.1524 C   0  0  0  0  0  0  0  0  0  0  0  0
    1.0004    2.9520   -0.3499 H   0  0  0  0  0  0  0  0  0  0  0  0
    0.2028    3.1062    1.2238 H   0  0  0  0  0  0  0  0  0  0  0  0
   -0.4522    1.4317    0.0805 C   0  0  0  0  0  0  0  0  0  0  0  0
   -1.8853    1.1561    0.0792 C   0  0  0  0  0  0  0  0  0  0  0  0
    1.7557    0.5389    0.0370 C   0  0  0  0  0  0  0  0  0  0  0  0
    2.4322    0.5328    1.2792 C   0  0  0  0  0  0  0  0  0  0  0  0
    3.8278    0.7029    1.2543 C   0  0  0  0  0  0  0  0  0  0  0  0
    4.3900    0.7026    2.1985 H   0  0  0  0  0  0  0  0  0  0  0  0
    4.5130    0.8517    0.0409 C   0  0  0  0  0  0  0  0  0  0  0  0
    5.6056    0.9827    0.0430 H   0  0  0  0  0  0  0  0  0  0  0  0
    3.8202    0.8067   -1.1764 C   0  0  0  0  0  0  0  0  0  0  0  0
    4.3759    0.8882   -2.1210 H   0  0  0  0  0  0  0  0  0  0  0  0
    2.4245    0.6376   -1.2062 C   0  0  0  0  0  0  0  0  0  0  0  0
    1.6301    0.5086   -2.4883 C   0  0  0  0  0  0  0  0  0  0  0  0
    0.8377    1.2911   -2.5105 H   0  0  0  0  0  0  0  0  0  0  0  0
    1.0736   -0.4545   -2.4255 H   0  0  0  0  0  0  0  0  0  0  0  0
    2.4326    0.5594   -3.7850 C   0  0  0  0  0  0  0  0  0  0  0  0
    2.9684    1.5232   -3.9077 H   0  0  0  0  0  0  0  0  0  0  0  0
    1.7635    0.4358   -4.6589 H   0  0  0  0  0  0  0  0  0  0  0  0
    3.1854   -0.2534   -3.8269 H   0  0  0  0  0  0  0  0  0  0  0  0
    1.6505    0.2767    2.5503 C   0  0  0  0  0  0  0  0  0  0  0  0
    1.1274   -0.6973    2.4120 H   0  0  0  0  0  0  0  0  0  0  0  0
    0.8323    1.0264    2.6387 H   0  0  0  0  0  0  0  0  0  0  0  0
    2.4586    0.2504    3.8443 C   0  0  0  0  0  0  0  0  0  0  0  0
    3.2324   -0.5433    3.8233 H   0  0  0  0  0  0  0  0  0  0  0  0
    1.7977    0.0435    4.7088 H   0  0  0  0  0  0  0  0  0  0  0  0
    2.9701    1.2160    4.0372 H   0  0  0  0  0  0  0  0  0  0  0  0
  1 20  1  0  0  0  0
  2 21  1  0  0  0  0
  2 19  1  0  0  0  0
  3  1  1  0  0  0  0
  3  5  2  0  0  0  0
  4  3  1  0  0  0  0
  5  7  1  0  0  0  0
  6  5  1  0  0  0  0
  7  9  2  0  0  0  0
  7  8  1  0  0  0  0
  9 10  1  0  0  0  0
 10 11  1  0  0  0  0
 12 10  1  0  0  0  0
 13 14  1  0  0  0  0
 13 16  1  0  0  0  0
 13 10  1  0  0  0  0
 15 13  1  0  0  0  0
 16 18  1  0  0  0  0
 17 16  1  0  0  0  0
 19 16  1  0  0  0  0
 20 19  2  0  0  0  0
 20  9  1  0  0  0  0
 21 22  1  0  0  0  0
 22 37  1  0  0  0  0
 23 22  2  0  0  0  0
 23 24  1  0  0  0  0
 25 26  1  0  0  0  0
 25 23  1  0  0  0  0
 27 25  2  0  0  0  0
 28 27  1  0  0  0  0
 29 27  1  0  0  0  0
 29 21  2  0  0  0  0
 30 32  1  0  0  0  0
 30 29  1  0  0  0  0
 31 30  1  0  0  0  0
 33 30  1  0  0  0  0
 34 33  1  0  0  0  0
 35 33  1  0  0  0  0
 36 33  1  0  0  0  0
 37 39  1  0  0  0  0
 37 40  1  0  0  0  0
 38 37  1  0  0  0  0
 40 43  1  0  0  0  0
 40 42  1  0  0  0  0
 41 40  1  0  0  0  0
M  END
