2,5
q = 0.0, confidence = 0.95

 27 28  0  0  1  0  0  0  0  0999 V2000
   -6.2976   -3.6071   -0.8252 Cl  0  0  0  0  0  0  0  0  0  0  0  0
    1.1418    0.4098   -1.3860 N   0  0  0  0  0  2  0  0  0  0  0  0
    1.8730   -0.5029   -3.2928 N   0  0  0  0  0  0  0  0  0  0  0  0
   -0.2629   -1.2321   -2.3692 N   0  0  0  0  0  2  0  0  0  0  0  0
   -0.9877   -0.9509   -1.3022 N   0  0  0  0  0  2  0  0  0  0  0  0
    2.3199    1.0235   -1.7191 C   0  0  0  0  0  0  0  0  0  0  0  0
    2.7711    1.7980   -1.0902 H   0  0  0  0  0  0  0  0  0  0  0  0
    2.7879    0.4556   -2.8995 C   0  0  0  0  0  0  0  0  0  0  0  0
    3.7016    0.6466   -3.4706 H   0  0  0  0  0  0  0  0  0  0  0  0
    2.0259   -1.4929   -4.3598 C   0  0  0  0  0  0  0  0  0  0  0  0
    2.3170   -0.9559   -5.2858 H   0  0  0  0  0  0  0  0  0  0  0  0
    1.0188   -1.9225   -4.5248 H   0  0  0  0  0  0  0  0  0  0  0  0
    3.0379   -2.5765   -3.9925 C   0  0  0  0  0  0  0  0  0  0  0  0
    4.0570   -2.1557   -3.8803 H   0  0  0  0  0  0  0  0  0  0  0  0
    3.0723   -3.3472   -4.7876 H   0  0  0  0  0  0  0  0  0  0  0  0
    2.7719   -3.0646   -3.0334 H   0  0  0  0  0  0  0  0  0  0  0  0
    0.8784   -0.5128   -2.3510 C   0  0  2  0  0  3  0  0  0  0  0  0
   -2.2521   -1.5849   -1.2328 C   0  0  0  0  0  0  0  0  0  0  0  0
   -2.4530   -2.8742   -1.7687 C   0  0  0  0  0  0  0  0  0  0  0  0
   -1.6132   -3.3796   -2.2640 H   0  0  0  0  0  0  0  0  0  0  0  0
   -3.6975   -3.4981   -1.6416 C   0  0  0  0  0  0  0  0  0  0  0  0
   -3.8601   -4.5109   -2.0358 H   0  0  0  0  0  0  0  0  0  0  0  0
   -4.7497   -2.8271   -0.9922 C   0  0  0  0  0  0  0  0  0  0  0  0
   -4.5658   -1.5317   -0.4762 C   0  0  0  0  0  0  0  0  0  0  0  0
   -5.4039   -1.0122    0.0090 H   0  0  0  0  0  0  0  0  0  0  0  0
   -3.3171   -0.9158   -0.5945 C   0  0  0  0  0  0  0  0  0  0  0  0
   -3.1639    0.1044   -0.2185 H   0  0  0  0  0  0  0  0  0  0  0  0
  3  8  1  0  0  0  0
  3 17  1  0  0  0  0
  4  5  1  0  0  0  0
  5 18  1  0  0  0  0
  6  2  1  0  0  0  0
  6  7  1  0  0  0  0
  8  6  2  0  0  0  0
  9  8  1  0  0  0  0
 10 13  1  0  0  0  0
 10  3  1  0  0  0  0
 11 10  1  0  0  0  0
 12 10  1  0  0  0  0
 13 14  1  0  0  0  0
 13 16  1  0  0  0  0
 15 13  1  0  0  0  0
 17  4  1  6  0  0  0
 17  2  1  0  0  0  0
 18 26  1  0  0  0  0
 19 21  1  0  0  0  0
 19 18  2  0  0  0  0
 20 19  1  0  0  0  0
 21 23  2  0  0  0  0
 22 21  1  0  0  0  0
 23  1  1  0  0  0  0
 23 24  1  0  0  0  0
 24 25  1  0  0  0  0
 26 24  2  0  0  0  0
 26 27  1  0  0  0  0
M  END
