6,7
q = -1.0, confidence = 0.016

 23 22  0  0  0  0  0  0  0  0999 V2000
    3.2672    1.5033   -1.3726 S   0  0  0  0  0  0  0  0  0  0  0  0
    3.5858   -1.2393    0.3472 S   0  0  0  0  0  0  0  0  0  0  0  0
    0.7877   -2.1598    1.2132 O   0  0  0  0  0  0  0  0  0  0  0  0
   -0.2875   -2.3658    1.2774 H   0  0  0  0  0  0  0  0  0  0  0  0
    0.2515    1.8756   -1.9222 O   0  0  0  0  0  1  0  0  0  0  0  0
    0.8452   -1.0775    0.4352 N   0  0  0  0  0  2  0  0  0  0  0  0
    0.5945    0.8929   -1.1527 N   0  0  0  0  0  2  0  0  0  0  0  0
    1.9884   -0.5766    0.0228 C   0  0  0  0  0  0  0  0  0  0  0  0
    1.8474    0.6146   -0.8237 C   0  0  0  0  0  0  0  0  0  0  0  0
    2.7507    3.2294   -0.9924 C   0  0  0  0  0  0  0  0  0  0  0  0
    3.5802    3.8356   -1.4103 H   0  0  0  0  0  0  0  0  0  0  0  0
    1.8335    3.4347   -1.5787 H   0  0  0  0  0  0  0  0  0  0  0  0
    2.5472    3.4914    0.4937 C   0  0  0  0  0  0  0  0  0  0  0  0
    2.2617    4.5510    0.6643 H   0  0  0  0  0  0  0  0  0  0  0  0
    3.4659    3.2780    1.0755 H   0  0  0  0  0  0  0  0  0  0  0  0
    1.7331    2.8572    0.8994 H   0  0  0  0  0  0  0  0  0  0  0  0
    3.3908   -3.9024    1.2748 C   0  0  0  0  0  0  0  0  0  0  0  0
    3.2398   -4.9708    1.0134 H   0  0  0  0  0  0  0  0  0  0  0  0
    2.6108   -3.6046    2.0001 H   0  0  0  0  0  0  0  0  0  0  0  0
    4.3825   -3.8107    1.7619 H   0  0  0  0  0  0  0  0  0  0  0  0
    3.3011   -3.0451    0.0217 C   0  0  0  0  0  0  0  0  0  0  0  0
    2.3217   -3.1312   -0.4868 H   0  0  0  0  0  0  0  0  0  0  0  0
    4.0859   -3.3081   -0.7165 H   0  0  0  0  0  0  0  0  0  0  0  0
  1 10  1  0  0  0  0
  1  9  1  0  0  0  0
  3  4  1  0  0  0  0
  5  7  1  0  0  0  0
  6  3  1  0  0  0  0
  7  9  1  0  0  0  0
  8  2  1  0  0  0  0
  8  6  1  0  0  0  0
  9  8  2  0  0  0  0
 10 13  1  0  0  0  0
 11 10  1  0  0  0  0
 12 10  1  0  0  0  0
 13 14  1  0  0  0  0
 13 16  1  0  0  0  0
 13 15  1  0  0  0  0
 17 20  1  0  0  0  0
 17 19  1  0  0  0  0
 18 17  1  0  0  0  0
 21  2  1  0  0  0  0
 21 17  1  0  0  0  0
 22 21  1  0  0  0  0
 23 21  1  0  0  0  0
M  END
