1,5
q = 0.0, confidence = 0.998

 62 65  0  0  1  0  0  0  0  0999 V2000
    1.9140   -0.2341    0.4060 N   0  0  0  0  0  2  0  0  0  0  0  0
    1.6357   -0.1779    1.7476 N   0  0  0  0  0  0  0  0  0  0  0  0
   -1.1808    2.2828    1.1019 N   0  0  0  0  0  0  0  0  0  0  0  0
   -2.2957    2.2504    0.3224 N   0  0  0  0  0  0  0  0  0  0  0  0
   -0.9774   -0.3257    0.6625 N   0  0  0  0  0  0  0  0  0  0  0  0
   -0.6504    0.6759    0.7991 H   0  0  0  0  0  0  0  0  0  0  0  0
    3.0245    0.5128    0.2094 C   0  0  1  0  0  3  0  0  0  0  0  0
    3.4550    1.0591    1.4477 C   0  0  0  0  0  0  0  0  0  0  0  0
    4.3099    1.7204    1.6136 H   0  0  0  0  0  0  0  0  0  0  0  0
    2.5535    0.6028    2.3961 C   0  0  0  0  0  0  0  0  0  0  0  0
    2.4686    0.7786    3.4729 H   0  0  0  0  0  0  0  0  0  0  0  0
    0.6376   -0.9713    2.3827 C   0  0  0  0  0  0  0  0  0  0  0  0
    0.9927   -1.6714    3.5468 C   0  0  0  0  0  0  0  0  0  0  0  0
    2.0417   -1.6409    3.8764 H   0  0  0  0  0  0  0  0  0  0  0  0
    0.0501   -2.4184    4.2745 C   0  0  0  0  0  0  0  0  0  0  0  0
   -1.2711   -2.4354    3.7918 C   0  0  0  0  0  0  0  0  0  0  0  0
   -2.0426   -2.9964    4.3416 H   0  0  0  0  0  0  0  0  0  0  0  0
   -1.6325   -1.7573    2.6207 C   0  0  0  0  0  0  0  0  0  0  0  0
   -2.6750   -1.7827    2.2801 H   0  0  0  0  0  0  0  0  0  0  0  0
   -0.6881   -1.0252    1.8845 C   0  0  0  0  0  0  0  0  0  0  0  0
    0.4563   -3.2049    5.4939 C   0  0  0  0  0  0  0  0  0  0  0  0
   -0.3900   -3.3282    6.1976 H   0  0  0  0  0  0  0  0  0  0  0  0
    1.2904   -2.7191    6.0375 H   0  0  0  0  0  0  0  0  0  0  0  0
    0.7990   -4.2236    5.2116 H   0  0  0  0  0  0  0  0  0  0  0  0
   -0.7317    3.5439    1.0706 C   0  0  0  0  0  0  0  0  0  0  0  0
   -1.5842    4.3496    0.2624 C   0  0  0  0  0  0  0  0  0  0  0  0
   -1.4830    5.4146    0.0308 H   0  0  0  0  0  0  0  0  0  0  0  0
   -2.5634    3.4873   -0.2077 C   0  0  0  0  0  0  0  0  0  0  0  0
   -3.3962    3.6511   -0.8971 H   0  0  0  0  0  0  0  0  0  0  0  0
   -2.9783    1.0321    0.0734 C   0  0  0  0  0  0  0  0  0  0  0  0
   -4.3125    1.0829   -0.3798 C   0  0  0  0  0  0  0  0  0  0  0  0
   -4.8067    2.0607   -0.4656 H   0  0  0  0  0  0  0  0  0  0  0  0
   -5.0340   -0.0732   -0.7082 C   0  0  0  0  0  0  0  0  0  0  0  0
   -4.3867   -1.3185   -0.5641 C   0  0  0  0  0  0  0  0  0  0  0  0
   -4.9155   -2.2465   -0.8285 H   0  0  0  0  0  0  0  0  0  0  0  0
   -3.0718   -1.3865   -0.1038 C   0  0  0  0  0  0  0  0  0  0  0  0
   -2.5629   -2.3577   -0.0260 H   0  0  0  0  0  0  0  0  0  0  0  0
   -2.3477   -0.2278    0.2328 C   0  0  0  0  0  0  0  0  0  0  0  0
   -6.4507    0.0079   -1.2153 C   0  0  0  0  0  0  0  0  0  0  0  0
   -6.8568    1.0349   -1.1409 H   0  0  0  0  0  0  0  0  0  0  0  0
   -7.1222   -0.6694   -0.6491 H   0  0  0  0  0  0  0  0  0  0  0  0
   -6.5072   -0.3004   -2.2806 H   0  0  0  0  0  0  0  0  0  0  0  0
    3.7035    0.6208   -1.1297 C   0  0  0  0  0  0  0  0  0  0  0  0
    2.9190    0.4527   -1.8940 H   0  0  0  0  0  0  0  0  0  0  0  0
    4.7751   -0.4784   -1.2599 C   0  0  0  0  0  0  0  0  0  0  0  0
    4.3454   -1.4840   -1.0875 H   0  0  0  0  0  0  0  0  0  0  0  0
    5.5948   -0.3232   -0.5275 H   0  0  0  0  0  0  0  0  0  0  0  0
    5.2125   -0.4685   -2.2782 H   0  0  0  0  0  0  0  0  0  0  0  0
    4.2898    2.0171   -1.3703 C   0  0  0  0  0  0  0  0  0  0  0  0
    3.5026    2.7943   -1.3287 H   0  0  0  0  0  0  0  0  0  0  0  0
    4.7587    2.0608   -2.3732 H   0  0  0  0  0  0  0  0  0  0  0  0
    5.0758    2.2706   -0.6279 H   0  0  0  0  0  0  0  0  0  0  0  0
    0.5584    3.9119    1.7533 C   0  0  0  0  0  0  0  0  0  0  0  0
    0.8432    3.0256    2.3603 H   0  0  0  0  0  0  0  0  0  0  0  0
    0.3959    5.1190    2.6883 C   0  0  0  0  0  0  0  0  0  0  0  0
   -0.3759    4.9352    3.4621 H   0  0  0  0  0  0  0  0  0  0  0  0
    0.0977    6.0256    2.1214 H   0  0  0  0  0  0  0  0  0  0  0  0
    1.3521    5.3495    3.2006 H   0  0  0  0  0  0  0  0  0  0  0  0
    1.6571    4.1389    0.7000 C   0  0  0  0  0  0  0  0  0  0  0  0
    1.7227    3.2710    0.0148 H   0  0  0  0  0  0  0  0  0  0  0  0
    2.6440    4.2890    1.1837 H   0  0  0  0  0  0  0  0  0  0  0  0
    1.4367    5.0372    0.0863 H   0  0  0  0  0  0  0  0  0  0  0  0
  1  2  1  0  0  0  0
  2 12  1  0  0  0  0
  2 10  1  0  0  0  0
  4  3  1  0  0  0  0
  5  6  1  0  0  0  0
  5 20  1  0  0  0  0
  7 43  1  1  0  0  0
  7  1  1  0  0  0  0
  7  8  1  0  0  0  0
  8  9  1  0  0  0  0
  8 10  2  0  0  0  0
 10 11  1  0  0  0  0
 12 13  1  0  0  0  0
 13 14  1  0  0  0  0
 13 15  2  0  0  0  0
 15 21  1  0  0  0  0
 16 15  1  0  0  0  0
 16 17  1  0  0  0  0
 18 16  2  0  0  0  0
 19 18  1  0  0  0  0
 20 12  2  0  0  0  0
 20 18  1  0  0  0  0
 21 23  1  0  0  0  0
 21 22  1  0  0  0  0
 24 21  1  0  0  0  0
 25  3  2  0  0  0  0
 25 53  1  0  0  0  0
 26 25  1  0  0  0  0
 27 26  1  0  0  0  0
 28 26  2  0  0  0  0
 28  4  1  0  0  0  0
 29 28  1  0  0  0  0
 30 38  1  0  0  0  0
 30  4  1  0  0  0  0
 31 30  2  0  0  0  0
 32 31  1  0  0  0  0
 33 34  2  0  0  0  0
 33 31  1  0  0  0  0
 34 36  1  0  0  0  0
 35 34  1  0  0  0  0
 36 37  1  0  0  0  0
 36 38  2  0  0  0  0
 38  5  1  0  0  0  0
 39 40  1  0  0  0  0
 39 33  1  0  0  0  0
 39 41  1  0  0  0  0
 42 39  1  0  0  0  0
 44 43  1  0  0  0  0
 45 43  1  0  0  0  0
 45 46  1  0  0  0  0
 45 47  1  0  0  0  0
 48 45  1  0  0  0  0
 49 50  1  0  0  0  0
 49 43  1  0  0  0  0
 49 52  1  0  0  0  0
 51 49  1  0  0  0  0
 53 54  1  0  0  0  0
 53 55  1  0  0  0  0
 55 58  1  0  0  0  0
 55 56  1  0  0  0  0
 57 55  1  0  0  0  0
 59 61  1  0  0  0  0
 59 53  1  0  0  0  0
 60 59  1  0  0  0  0
 62 59  1  0  0  0  0
M  END
