3,4
q = 0.0, confidence = 0.996

 14 15  0  0  0  0  0  0  0  0999 V2000
   -2.3999   -3.2672   -0.0008 S   0  0  0  0  0  0  0  0  0  0  0  0
   -2.4000    3.2671    0.0007 S   0  0  0  0  0  0  0  0  0  0  0  0
   -0.7868   -1.3156   -0.0016 N   0  0  0  0  0  2  0  0  0  0  0  0
   -0.7868    1.3156    0.0007 N   0  0  0  0  0  2  0  0  0  0  0  0
   -0.7993   -2.6299   -0.0015 C   0  0  0  0  0  3  0  0  0  0  0  0
    0.1342   -3.2148   -0.0020 H   0  0  0  0  0  0  0  0  0  0  0  0
   -0.7993    2.6299    0.0007 C   0  0  0  0  0  3  0  0  0  0  0  0
    0.1341    3.2148    0.0013 H   0  0  0  0  0  0  0  0  0  0  0  0
   -3.0626   -1.6662   -0.0001 C   0  0  0  0  0  0  0  0  0  0  0  0
   -4.1454   -1.5016    0.0008 H   0  0  0  0  0  0  0  0  0  0  0  0
   -3.0626    1.6662   -0.0008 C   0  0  0  0  0  0  0  0  0  0  0  0
   -4.1454    1.5015   -0.0018 H   0  0  0  0  0  0  0  0  0  0  0  0
   -2.0483   -0.7304   -0.0007 C   0  0  0  0  0  0  0  0  0  0  0  0
   -2.0483    0.7304   -0.0002 C   0  0  0  0  0  0  0  0  0  0  0  0
  1  9  1  0  0  0  0
  3  5  1  0  0  0  0
  3 13  1  0  0  0  0
  4  7  1  0  0  0  0
  5  1  1  0  0  0  0
  6  5  1  0  0  0  0
  7  2  1  0  0  0  0
  7  8  1  0  0  0  0
  9 10  1  0  0  0  0
 11 14  2  0  0  0  0
 11  2  1  0  0  0  0
 12 11  1  0  0  0  0
 13 14  1  0  0  0  0
 13  9  2  0  0  0  0
 14  4  1  0  0  0  0
M  END
