2,3
q = 0.0, confidence = 0.996

 32 34  0  0  1  0  0  0  0  0999 V2000
    0.1622    3.4614    0.4562 O   0  0  0  0  0  0  0  0  0  0  0  0
   -2.4280    1.0141   -0.0565 N   0  0  0  0  0  2  0  0  0  0  0  0
    0.1347    1.2094    0.4130 N   0  0  0  0  0  2  0  0  0  0  0  0
   -3.7223    0.8382   -0.3763 C   0  0  0  0  0  0  0  0  0  0  0  0
   -4.0578   -0.1991   -0.5073 H   0  0  0  0  0  0  0  0  0  0  0  0
   -4.6013    1.9162   -0.5482 C   0  0  0  0  0  0  0  0  0  0  0  0
   -5.6520    1.7186   -0.8032 H   0  0  0  0  0  0  0  0  0  0  0  0
   -4.1219    3.2266   -0.4015 C   0  0  0  0  0  0  0  0  0  0  0  0
   -4.7917    4.0881   -0.5368 H   0  0  0  0  0  0  0  0  0  0  0  0
   -2.7690    3.4189   -0.0947 C   0  0  0  0  0  0  0  0  0  0  0  0
   -2.3278    4.4198    0.0100 H   0  0  0  0  0  0  0  0  0  0  0  0
   -1.9556    2.2897    0.0655 C   0  0  0  0  0  0  0  0  0  0  0  0
   -0.5236    2.3288    0.3283 C   0  0  0  0  0  0  0  0  0  0  0  0
    1.5466    3.0623    0.7370 C   0  0  0  0  0  0  0  0  0  0  0  0
    1.7748    3.3786    1.7739 H   0  0  0  0  0  0  0  0  0  0  0  0
    2.1999    3.6078    0.0304 H   0  0  0  0  0  0  0  0  0  0  0  0
    1.5705    1.5169    0.5376 C   0  0  2  0  0  0  0  0  0  0  0  0
    1.9610    1.0135    1.4446 H   0  0  0  0  0  0  0  0  0  0  0  0
    2.3487    1.0137   -0.6909 C   0  0  0  0  0  0  0  0  0  0  0  0
    1.8020    0.1448   -1.1091 H   0  0  0  0  0  0  0  0  0  0  0  0
    2.2864    1.7821   -1.4933 H   0  0  0  0  0  0  0  0  0  0  0  0
    3.7883    0.6333   -0.4210 C   0  0  0  0  0  0  0  0  0  0  0  0
    4.3937   -0.3704   -1.2071 C   0  0  0  0  0  0  0  0  0  0  0  0
    3.8084   -0.8554   -2.0049 H   0  0  0  0  0  0  0  0  0  0  0  0
    5.7285   -0.7451   -0.9969 C   0  0  0  0  0  0  0  0  0  0  0  0
    6.1814   -1.5284   -1.6233 H   0  0  0  0  0  0  0  0  0  0  0  0
    6.4845   -0.1239    0.0099 C   0  0  0  0  0  0  0  0  0  0  0  0
    7.5312   -0.4176    0.1780 H   0  0  0  0  0  0  0  0  0  0  0  0
    5.8966    0.8754    0.7992 C   0  0  0  0  0  0  0  0  0  0  0  0
    6.4822    1.3713    1.5879 H   0  0  0  0  0  0  0  0  0  0  0  0
    4.5606    1.2502    0.5843 C   0  0  0  0  0  0  0  0  0  0  0  0
    4.1287    2.0433    1.2157 H   0  0  0  0  0  0  0  0  0  0  0  0
  1 14  1  0  0  0  0
  2 12  1  0  0  0  0
  3 17  1  0  0  0  0
  4  2  1  0  0  0  0
  5  4  1  0  0  0  0
  6  8  1  0  0  0  0
  6  4  2  0  0  0  0
  7  6  1  0  0  0  0
  8 10  2  0  0  0  0
  9  8  1  0  0  0  0
 10 11  1  0  0  0  0
 10 12  1  0  0  0  0
 12 13  2  0  0  0  0
 13  3  1  0  0  0  0
 13  1  1  0  0  0  0
 14 15  1  0  0  0  0
 16 14  1  0  0  0  0
 17 14  1  0  0  0  0
 17 18  1  1  0  0  0
 19 22  1  0  0  0  0
 19 17  1  0  0  0  0
 20 19  1  0  0  0  0
 21 19  1  0  0  0  0
 22 31  1  0  0  0  0
 23 25  1  0  0  0  0
 23 22  2  0  0  0  0
 24 23  1  0  0  0  0
 25 27  2  0  0  0  0
 26 25  1  0  0  0  0
 27 28  1  0  0  0  0
 27 29  1  0  0  0  0
 29 30  1  0  0  0  0
 31 29  2  0  0  0  0
 31 32  1  0  0  0  0
M  END
