1,21
q = 0.0, confidence = 0.988

 40 41  0  0  0  0  0  0  0  0999 V2000
   -1.2856    0.1136    1.0178 N   0  0  0  0  0  2  0  0  0  0  0  0
   -0.7334    0.0528    2.2085 C   0  0  0  0  0  0  0  0  0  0  0  0
   -1.4959    0.1069    3.4976 C   0  0  0  0  0  0  0  0  0  0  0  0
   -2.7010    0.1470    0.8501 C   0  0  0  0  0  0  0  0  0  0  0  0
   -3.4764   -0.9877    1.1510 C   0  0  0  0  0  0  0  0  0  0  0  0
   -4.8589   -0.9594    0.9244 C   0  0  0  0  0  0  0  0  0  0  0  0
   -5.4956    0.1860    0.4067 C   0  0  0  0  0  0  0  0  0  0  0  0
   -4.6952    1.3122    0.1159 C   0  0  0  0  0  0  0  0  0  0  0  0
   -3.3116    1.2994    0.3194 C   0  0  0  0  0  0  0  0  0  0  0  0
   -6.9781    0.2033    0.1361 C   0  0  0  0  0  0  0  0  0  0  0  0
   -2.9817   -1.8960    1.5238 H   0  0  0  0  0  0  0  0  0  0  0  0
   -5.4572   -1.8564    1.1488 H   0  0  0  0  0  0  0  0  0  0  0  0
   -5.1668    2.2216   -0.2885 H   0  0  0  0  0  0  0  0  0  0  0  0
   -2.6859    2.1713    0.0754 H   0  0  0  0  0  0  0  0  0  0  0  0
   -7.5012   -0.6168    0.6649 H   0  0  0  0  0  0  0  0  0  0  0  0
   -7.1833    0.0823   -0.9492 H   0  0  0  0  0  0  0  0  0  0  0  0
   -7.4373    1.1640    0.4446 H   0  0  0  0  0  0  0  0  0  0  0  0
   -1.0209    0.8198    4.2003 H   0  0  0  0  0  0  0  0  0  0  0  0
   -1.5013   -0.8857    3.9958 H   0  0  0  0  0  0  0  0  0  0  0  0
   -2.5448    0.4088    3.3293 H   0  0  0  0  0  0  0  0  0  0  0  0
    1.2856   -0.1136    1.0178 N   0  0  0  0  0  2  0  0  0  0  0  0
    0.7334   -0.0528    2.2085 C   0  0  0  0  0  0  0  0  0  0  0  0
    2.7010   -0.1470    0.8501 C   0  0  0  0  0  0  0  0  0  0  0  0
    1.4959   -0.1069    3.4976 C   0  0  0  0  0  0  0  0  0  0  0  0
    3.4765    0.9877    1.1511 C   0  0  0  0  0  0  0  0  0  0  0  0
    3.3116   -1.2994    0.3194 C   0  0  0  0  0  0  0  0  0  0  0  0
    1.0209   -0.8198    4.2003 H   0  0  0  0  0  0  0  0  0  0  0  0
    1.5013    0.8856    3.9958 H   0  0  0  0  0  0  0  0  0  0  0  0
    2.5448   -0.4088    3.3293 H   0  0  0  0  0  0  0  0  0  0  0  0
    4.8590    0.9594    0.9244 C   0  0  0  0  0  0  0  0  0  0  0  0
    2.9817    1.8960    1.5239 H   0  0  0  0  0  0  0  0  0  0  0  0
    4.6952   -1.3122    0.1158 C   0  0  0  0  0  0  0  0  0  0  0  0
    2.6859   -2.1713    0.0753 H   0  0  0  0  0  0  0  0  0  0  0  0
    5.4956   -0.1861    0.4067 C   0  0  0  0  0  0  0  0  0  0  0  0
    5.4572    1.8563    1.1489 H   0  0  0  0  0  0  0  0  0  0  0  0
    5.1668   -2.2216   -0.2886 H   0  0  0  0  0  0  0  0  0  0  0  0
    6.9781   -0.2033    0.1361 C   0  0  0  0  0  0  0  0  0  0  0  0
    7.5012    0.6167    0.6649 H   0  0  0  0  0  0  0  0  0  0  0  0
    7.1833   -0.0823   -0.9492 H   0  0  0  0  0  0  0  0  0  0  0  0
    7.4373   -1.1640    0.4446 H   0  0  0  0  0  0  0  0  0  0  0  0
  1  2  1  0  0  0  0
  2  3  1  0  0  0  0
  3 19  1  0  0  0  0
  3 18  1  0  0  0  0
  4  1  1  0  0  0  0
  4  5  1  0  0  0  0
  5 11  1  0  0  0  0
  6 12  1  0  0  0  0
  6  5  2  0  0  0  0
  7  6  1  0  0  0  0
  8  9  1  0  0  0  0
  8  7  2  0  0  0  0
  9  4  2  0  0  0  0
 10  7  1  0  0  0  0
 10 17  1  0  0  0  0
 10 15  1  0  0  0  0
 13  8  1  0  0  0  0
 14  9  1  0  0  0  0
 16 10  1  0  0  0  0
 20  3  1  0  0  0  0
 21 22  1  0  0  0  0
 22  2  2  0  0  0  0
 22 24  1  0  0  0  0
 23 21  1  0  0  0  0
 23 25  1  0  0  0  0
 24 28  1  0  0  0  0
 24 27  1  0  0  0  0
 25 31  1  0  0  0  0
 26 23  2  0  0  0  0
 29 24  1  0  0  0  0
 30 35  1  0  0  0  0
 30 25  2  0  0  0  0
 32 26  1  0  0  0  0
 32 34  2  0  0  0  0
 33 26  1  0  0  0  0
 34 30  1  0  0  0  0
 36 32  1  0  0  0  0
 37 34  1  0  0  0  0
 37 40  1  0  0  0  0
 37 38  1  0  0  0  0
 39 37  1  0  0  0  0
M  END
