1,9
q = 0.0, confidence = 0.99

 41 43  0  0  1  0  0  0  0  0999 V2000
   -0.0766    1.4872   -0.7390 N   0  0  0  0  0  2  0  0  0  0  0  0
    1.2098    1.2036   -1.0885 N   0  0  0  0  0  0  0  0  0  0  0  0
   -1.6724    3.3684   -1.1498 C   0  0  0  0  0  0  0  0  0  0  0  0
   -0.3436    2.7012   -1.2713 C   0  0  2  0  0  3  0  0  0  0  0  0
    0.8013    3.1896   -1.9520 C   0  0  0  0  0  0  0  0  0  0  0  0
    1.7842    2.2138   -1.8241 C   0  0  0  0  0  0  0  0  0  0  0  0
    3.1924    2.1720   -2.3188 C   0  0  0  0  0  0  0  0  0  0  0  0
    1.2097   -1.2019   -1.0903 N   0  0  0  0  0  0  0  0  0  0  0  0
   -0.0764   -1.4864   -0.7405 N   0  0  0  0  0  2  0  0  0  0  0  0
   -1.6720   -3.3674   -1.1529 C   0  0  0  0  0  0  0  0  0  0  0  0
   -0.3434   -2.6997   -1.2742 C   0  0  1  0  0  3  0  0  0  0  0  0
    0.8012   -3.1868   -1.9562 C   0  0  0  0  0  0  0  0  0  0  0  0
    1.7840   -2.2109   -1.8276 C   0  0  0  0  0  0  0  0  0  0  0  0
    3.1919   -2.1682   -2.3229 C   0  0  0  0  0  0  0  0  0  0  0  0
    1.8801    0.0005   -0.6327 C   0  0  2  0  0  0  0  0  0  0  0  0
    2.2229   -0.0007    0.8538 C   0  0  0  0  0  0  0  0  0  0  0  0
    2.4478   -1.2179    1.5212 C   0  0  0  0  0  0  0  0  0  0  0  0
    2.8838   -1.2162    2.8532 C   0  0  0  0  0  0  0  0  0  0  0  0
    3.1046   -0.0029    3.5225 C   0  0  0  0  0  0  0  0  0  0  0  0
    2.8842    1.2115    2.8550 C   0  0  0  0  0  0  0  0  0  0  0  0
    2.4482    1.2153    1.5230 C   0  0  0  0  0  0  0  0  0  0  0  0
   -2.4826    2.7147   -1.5285 H   0  0  0  0  0  0  0  0  0  0  0  0
   -1.9192    3.6000   -0.0957 H   0  0  0  0  0  0  0  0  0  0  0  0
   -1.6767    4.3109   -1.7284 H   0  0  0  0  0  0  0  0  0  0  0  0
    0.8930    4.1435   -2.4810 H   0  0  0  0  0  0  0  0  0  0  0  0
    3.4198    3.1075   -2.8618 H   0  0  0  0  0  0  0  0  0  0  0  0
    3.9272    2.0800   -1.4911 H   0  0  0  0  0  0  0  0  0  0  0  0
    3.3679    1.3309   -3.0232 H   0  0  0  0  0  0  0  0  0  0  0  0
   -1.9188   -3.5991   -0.0988 H   0  0  0  0  0  0  0  0  0  0  0  0
   -2.4824   -2.7139   -1.5316 H   0  0  0  0  0  0  0  0  0  0  0  0
   -1.6759   -4.3098   -1.7316 H   0  0  0  0  0  0  0  0  0  0  0  0
    0.8929   -4.1400   -2.4865 H   0  0  0  0  0  0  0  0  0  0  0  0
    3.9271   -2.0778   -1.4955 H   0  0  0  0  0  0  0  0  0  0  0  0
    3.4190   -3.1026   -2.8678 H   0  0  0  0  0  0  0  0  0  0  0  0
    3.3670   -1.3258   -3.0258 H   0  0  0  0  0  0  0  0  0  0  0  0
    2.8416    0.0008   -1.1808 H   0  0  0  0  0  0  0  0  0  0  0  0
    2.2539   -2.1707    1.0060 H   0  0  0  0  0  0  0  0  0  0  0  0
    3.0377   -2.1716    3.3765 H   0  0  0  0  0  0  0  0  0  0  0  0
    3.4344   -0.0038    4.5719 H   0  0  0  0  0  0  0  0  0  0  0  0
    3.0385    2.1660    3.3797 H   0  0  0  0  0  0  0  0  0  0  0  0
    2.2546    2.1689    1.0093 H   0  0  0  0  0  0  0  0  0  0  0  0
  2  1  1  0  0  0  0
  2 15  1  0  0  0  0
  3 23  1  0  0  0  0
  4  3  1  6  0  0  0
  4  1  1  0  0  0  0
  5  6  2  0  0  0  0
  5  4  1  0  0  0  0
  6  2  1  0  0  0  0
  7  6  1  0  0  0  0
  7 27  1  0  0  0  0
  8  9  1  0  0  0  0
  8 15  1  0  0  0  0
 10 29  1  0  0  0  0
 11 10  1  6  0  0  0
 11  9  1  0  0  0  0
 12 13  2  0  0  0  0
 12 11  1  0  0  0  0
 13  8  1  0  0  0  0
 14 13  1  0  0  0  0
 14 33  1  0  0  0  0
 15 36  1  6  0  0  0
 15 16  1  0  0  0  0
 16 17  2  0  0  0  0
 16 21  1  0  0  0  0
 17 18  1  0  0  0  0
 18 38  1  0  0  0  0
 18 19  2  0  0  0  0
 19 39  1  0  0  0  0
 20 40  1  0  0  0  0
 20 19  1  0  0  0  0
 21 20  2  0  0  0  0
 22  3  1  0  0  0  0
 24  3  1  0  0  0  0
 25  5  1  0  0  0  0
 26  7  1  0  0  0  0
 28  7  1  0  0  0  0
 30 10  1  0  0  0  0
 31 10  1  0  0  0  0
 32 12  1  0  0  0  0
 34 14  1  0  0  0  0
 35 14  1  0  0  0  0
 37 17  1  0  0  0  0
 41 21  1  0  0  0  0
M  END
