1,3
q = 0.0, confidence = 0.988

 40 40  0  0  1  0  0  0  0  0999 V2000
   -1.6416    0.3419   -1.2801 N   0  0  0  0  0  2  0  0  0  0  0  0
   -0.3973    2.2255    0.7374 N   0  0  0  0  0  0  0  0  0  0  0  0
   -1.5531   -0.8366    1.2416 N   0  0  0  0  0  0  0  0  0  0  0  0
   -1.2331    1.4438   -2.1610 C   0  0  0  0  0  0  0  0  0  0  0  0
   -1.3889    2.8195   -1.4827 C   0  0  0  0  0  0  0  0  0  0  0  0
   -0.3425    3.1275   -0.4011 C   0  0  0  0  0  0  0  0  0  0  0  0
   -1.3504    2.4878    1.7924 C   0  0  0  0  0  0  0  0  0  0  0  0
   -1.5373    1.2553    2.6882 C   0  0  0  0  0  0  0  0  0  0  0  0
   -2.3440    0.1046    2.0696 C   0  0  0  0  0  0  0  0  0  0  0  0
   -2.3383   -1.9150    0.5490 C   0  0  0  0  0  0  0  0  0  0  0  0
   -3.1315   -2.7675    1.5574 C   0  0  0  0  0  0  0  0  0  0  0  0
   -1.3367   -2.8116   -0.1943 C   0  0  0  0  0  0  0  0  0  0  0  0
   -3.3210   -1.2658   -0.4473 C   0  0  0  0  0  0  0  0  0  0  0  0
   -2.8404   -0.1689   -1.3720 C   0  0  1  0  0  3  0  0  0  0  0  0
   -3.8636    0.3046   -2.3794 C   0  0  0  0  0  0  0  0  0  0  0  0
    0.5417    2.0664    1.1166 H   0  0  0  0  0  0  0  0  0  0  0  0
   -0.8452   -1.2935    1.8426 H   0  0  0  0  0  0  0  0  0  0  0  0
   -1.8123    1.4280   -3.1066 H   0  0  0  0  0  0  0  0  0  0  0  0
   -0.1659    1.2700   -2.4062 H   0  0  0  0  0  0  0  0  0  0  0  0
   -2.4184    2.9159   -1.0696 H   0  0  0  0  0  0  0  0  0  0  0  0
   -1.3042    3.5970   -2.2714 H   0  0  0  0  0  0  0  0  0  0  0  0
    0.6639    3.0043   -0.8480 H   0  0  0  0  0  0  0  0  0  0  0  0
   -0.4421    4.2030   -0.1025 H   0  0  0  0  0  0  0  0  0  0  0  0
   -2.3309    2.7512    1.3360 H   0  0  0  0  0  0  0  0  0  0  0  0
   -1.0705    3.3671    2.4315 H   0  0  0  0  0  0  0  0  0  0  0  0
   -2.0713    1.5734    3.6079 H   0  0  0  0  0  0  0  0  0  0  0  0
   -0.5432    0.8835    3.0210 H   0  0  0  0  0  0  0  0  0  0  0  0
   -2.8494   -0.4599    2.8838 H   0  0  0  0  0  0  0  0  0  0  0  0
   -3.1460    0.5270    1.4307 H   0  0  0  0  0  0  0  0  0  0  0  0
   -4.2058   -0.8643    0.1004 H   0  0  0  0  0  0  0  0  0  0  0  0
   -3.7482   -2.0809   -1.0735 H   0  0  0  0  0  0  0  0  0  0  0  0
   -3.8937   -2.1806    2.1068 H   0  0  0  0  0  0  0  0  0  0  0  0
   -3.6601   -3.5857    1.0304 H   0  0  0  0  0  0  0  0  0  0  0  0
   -2.4467   -3.2333    2.2953 H   0  0  0  0  0  0  0  0  0  0  0  0
   -1.8674   -3.6756   -0.6430 H   0  0  0  0  0  0  0  0  0  0  0  0
   -0.8073   -2.2450   -0.9840 H   0  0  0  0  0  0  0  0  0  0  0  0
   -0.5603   -3.1983    0.4952 H   0  0  0  0  0  0  0  0  0  0  0  0
   -4.0339    1.3992   -2.3199 H   0  0  0  0  0  0  0  0  0  0  0  0
   -3.5414    0.0837   -3.4197 H   0  0  0  0  0  0  0  0  0  0  0  0
   -4.8351   -0.1994   -2.2195 H   0  0  0  0  0  0  0  0  0  0  0  0
  2 16  1  0  0  0  0
  2  7  1  0  0  0  0
  3 17  1  0  0  0  0
  3  9  1  0  0  0  0
  4  5  1  0  0  0  0
  4  1  1  0  0  0  0
  5 20  1  0  0  0  0
  5  6  1  0  0  0  0
  6 23  1  0  0  0  0
  6  2  1  0  0  0  0
  7 25  1  0  0  0  0
  7  8  1  0  0  0  0
  8 27  1  0  0  0  0
  8 26  1  0  0  0  0
  9  8  1  0  0  0  0
  9 28  1  0  0  0  0
 10  3  1  0  0  0  0
 10 11  1  0  0  0  0
 11 32  1  0  0  0  0
 11 34  1  0  0  0  0
 12 37  1  0  0  0  0
 12 10  1  0  0  0  0
 13 30  1  0  0  0  0
 13 10  1  0  0  0  0
 14 15  1  1  0  0  0
 14  1  1  0  0  0  0
 14 13  1  0  0  0  0
 15 38  1  0  0  0  0
 15 40  1  0  0  0  0
 18  4  1  0  0  0  0
 19  4  1  0  0  0  0
 21  5  1  0  0  0  0
 22  6  1  0  0  0  0
 24  7  1  0  0  0  0
 29  9  1  0  0  0  0
 31 13  1  0  0  0  0
 33 11  1  0  0  0  0
 35 12  1  0  0  0  0
 36 12  1  0  0  0  0
 39 15  1  0  0  0  0
M  END
