1,2
q = -1.0, confidence = 0.004

 21 21  0  0  1  0  0  0  0  0999 V2000
   -1.6687    0.7037   -1.0867 N   0  0  0  0  0  0  0  0  0  0  0  0
   -1.2970   -1.1952    0.7985 N   0  0  0  0  0  2  0  0  0  0  0  0
   -2.1269    1.6084   -1.9830 C   0  0  0  0  0  0  0  0  0  0  0  0
   -3.5407    1.5782   -2.0419 C   0  0  0  0  0  0  0  0  0  0  0  0
   -3.9572    0.5940   -1.1244 C   0  0  0  0  0  0  0  0  0  0  0  0
   -2.7759    0.0658   -0.5427 C   0  0  0  0  0  3  0  0  0  0  0  0
   -2.5500   -0.9486    0.4527 C   0  0  1  0  0  3  0  0  0  0  0  0
   -3.7050   -1.6911    1.0650 C   0  0  0  0  0  0  0  0  0  0  0  0
   -0.9616   -2.2093    1.7847 C   0  0  0  0  0  0  0  0  0  0  0  0
    0.5432   -2.2641    2.0245 C   0  0  0  0  0  0  0  0  0  0  0  0
   -1.4332    2.2413   -2.5530 H   0  0  0  0  0  0  0  0  0  0  0  0
   -4.1782    2.2000   -2.6817 H   0  0  0  0  0  0  0  0  0  0  0  0
   -4.9893    0.2964   -0.9034 H   0  0  0  0  0  0  0  0  0  0  0  0
   -3.7154   -1.5583    2.1671 H   0  0  0  0  0  0  0  0  0  0  0  0
   -3.6081   -2.7816    0.8812 H   0  0  0  0  0  0  0  0  0  0  0  0
   -4.6745   -1.3526    0.6611 H   0  0  0  0  0  0  0  0  0  0  0  0
   -1.4918   -2.0084    2.7464 H   0  0  0  0  0  0  0  0  0  0  0  0
   -1.3263   -3.2100    1.4501 H   0  0  0  0  0  0  0  0  0  0  0  0
    0.9181   -1.2869    2.3917 H   0  0  0  0  0  0  0  0  0  0  0  0
    0.7991   -3.0386    2.7742 H   0  0  0  0  0  0  0  0  0  0  0  0
    1.0847   -2.4933    1.0846 H   0  0  0  0  0  0  0  0  0  0  0  0
  1  6  1  0  0  0  0
  2  9  1  0  0  0  0
  3  1  2  0  0  0  0
  4  3  1  0  0  0  0
  4  5  2  0  0  0  0
  5 13  1  0  0  0  0
  5  6  1  0  0  0  0
  6  7  1  0  0  0  0
  7  2  1  6  0  0  0
  7  8  1  0  0  0  0
  8 14  1  0  0  0  0
  9 10  1  0  0  0  0
  9 17  1  0  0  0  0
 10 19  1  0  0  0  0
 10 20  1  0  0  0  0
 11  3  1  0  0  0  0
 12  4  1  0  0  0  0
 15  8  1  0  0  0  0
 16  8  1  0  0  0  0
 18  9  1  0  0  0  0
 21 10  1  0  0  0  0
M  END
