1,2
q = 0.0, confidence = 0.996

 56 60  0  0  0  0  0  0  0  0999 V2000
   -2.2600    1.3241    0.2519 N   0  0  0  0  0  2  0  0  0  0  0  0
   -2.2598   -1.3238   -0.2527 N   0  0  0  0  0  2  0  0  0  0  0  0
    2.5904    1.4431    0.3250 N   0  0  0  0  0  0  0  0  0  0  0  0
    4.0024    1.0527   -1.6349 N   0  0  0  0  0  0  0  0  0  0  0  0
    4.8212    2.1272    0.1626 N   0  0  0  0  0  0  0  0  0  0  0  0
    2.5906   -1.4421   -0.3259 N   0  0  0  0  0  0  0  0  0  0  0  0
    4.8210   -2.1274   -0.1621 N   0  0  0  0  0  0  0  0  0  0  0  0
    4.0016   -1.0525    1.6349 N   0  0  0  0  0  0  0  0  0  0  0  0
   -2.3025    2.6368    0.5011 C   0  0  0  0  0  0  0  0  0  0  0  0
   -3.2984    3.0928    0.5900 H   0  0  0  0  0  0  0  0  0  0  0  0
   -1.1272    3.4038    0.6456 C   0  0  0  0  0  0  0  0  0  0  0  0
   -1.2122    4.4796    0.8549 H   0  0  0  0  0  0  0  0  0  0  0  0
    0.1147    2.7903    0.5219 C   0  0  0  0  0  0  0  0  0  0  0  0
    1.0549    3.3496    0.6286 H   0  0  0  0  0  0  0  0  0  0  0  0
    0.1843    1.3987    0.2549 C   0  0  0  0  0  0  0  0  0  0  0  0
    1.4507    0.7018    0.1063 C   0  0  0  0  0  0  0  0  0  0  0  0
    1.4507   -0.7010   -0.1074 C   0  0  0  0  0  0  0  0  0  0  0  0
    0.1845   -1.3981   -0.2559 C   0  0  0  0  0  0  0  0  0  0  0  0
    0.1151   -2.7897   -0.5230 C   0  0  0  0  0  0  0  0  0  0  0  0
    1.0553   -3.3489   -0.6298 H   0  0  0  0  0  0  0  0  0  0  0  0
   -1.1267   -3.4034   -0.6467 C   0  0  0  0  0  0  0  0  0  0  0  0
   -1.2116   -4.4791   -0.8560 H   0  0  0  0  0  0  0  0  0  0  0  0
   -2.3021   -2.6366   -0.5020 C   0  0  0  0  0  0  0  0  0  0  0  0
   -3.2980   -3.0928   -0.5908 H   0  0  0  0  0  0  0  0  0  0  0  0
   -1.0518    0.7046    0.1314 C   0  0  0  0  0  0  0  0  0  0  0  0
   -1.0517   -0.7042   -0.1323 C   0  0  0  0  0  0  0  0  0  0  0  0
    3.6926    1.4989   -0.3531 C   0  0  0  0  0  0  0  0  0  0  0  0
    2.9974    0.8505   -2.6597 C   0  0  0  0  0  0  0  0  0  0  0  0
    2.1209    0.3259   -2.2439 H   0  0  0  0  0  0  0  0  0  0  0  0
    3.4229    0.2191   -3.4644 H   0  0  0  0  0  0  0  0  0  0  0  0
    2.6605    1.8142   -3.1088 H   0  0  0  0  0  0  0  0  0  0  0  0
    5.2856    1.6173   -2.0456 C   0  0  0  0  0  0  0  0  0  0  0  0
    5.1334    2.5544   -2.6347 H   0  0  0  0  0  0  0  0  0  0  0  0
    5.8573    0.9070   -2.6773 H   0  0  0  0  0  0  0  0  0  0  0  0
    5.9630    1.9121   -0.7043 C   0  0  0  0  0  0  0  0  0  0  0  0
    6.5756    1.0414   -0.3561 H   0  0  0  0  0  0  0  0  0  0  0  0
    6.6297    2.7982   -0.7422 H   0  0  0  0  0  0  0  0  0  0  0  0
    4.9866    2.3492    1.5762 C   0  0  0  0  0  0  0  0  0  0  0  0
    3.9799    2.4052    2.0311 H   0  0  0  0  0  0  0  0  0  0  0  0
    5.5288    3.2991    1.7616 H   0  0  0  0  0  0  0  0  0  0  0  0
    5.5500    1.5197    2.0669 H   0  0  0  0  0  0  0  0  0  0  0  0
    3.6923   -1.4986    0.3530 C   0  0  0  0  0  0  0  0  0  0  0  0
    4.9871   -2.3497   -1.5755 C   0  0  0  0  0  0  0  0  0  0  0  0
    3.9807   -2.4050   -2.0310 H   0  0  0  0  0  0  0  0  0  0  0  0
    5.5289   -3.3000   -1.7604 H   0  0  0  0  0  0  0  0  0  0  0  0
    5.5514   -1.5206   -2.0659 H   0  0  0  0  0  0  0  0  0  0  0  0
    5.9622   -1.9132    0.7058 C   0  0  0  0  0  0  0  0  0  0  0  0
    6.5757   -1.0428    0.3581 H   0  0  0  0  0  0  0  0  0  0  0  0
    6.6283   -2.7997    0.7440 H   0  0  0  0  0  0  0  0  0  0  0  0
    5.2840   -1.6181    2.0465 C   0  0  0  0  0  0  0  0  0  0  0  0
    5.1306   -2.5553    2.6353 H   0  0  0  0  0  0  0  0  0  0  0  0
    5.8557   -0.9084    2.6789 H   0  0  0  0  0  0  0  0  0  0  0  0
    2.9960   -0.8497    2.6592 C   0  0  0  0  0  0  0  0  0  0  0  0
    2.1206   -0.3236    2.2431 H   0  0  0  0  0  0  0  0  0  0  0  0
    3.4218   -0.2195    3.4646 H   0  0  0  0  0  0  0  0  0  0  0  0
    2.6575   -1.8133    3.1073 H   0  0  0  0  0  0  0  0  0  0  0  0
  1  9  1  0  0  0  0
  2 26  1  0  0  0  0
  4 27  1  0  0  0  0
  5 38  1  0  0  0  0
  6 17  1  0  0  0  0
  6 42  2  0  0  0  0
  7 42  1  0  0  0  0
  7 47  1  0  0  0  0
  8 50  1  0  0  0  0
  8 53  1  0  0  0  0
  9 10  1  0  0  0  0
  9 11  2  0  0  0  0
 11 12  1  0  0  0  0
 13 14  1  0  0  0  0
 13 11  1  0  0  0  0
 15 13  2  0  0  0  0
 16 15  1  0  0  0  0
 16  3  1  0  0  0  0
 17 16  2  0  0  0  0
 18 26  1  0  0  0  0
 18 17  1  0  0  0  0
 19 18  2  0  0  0  0
 20 19  1  0  0  0  0
 21 19  1  0  0  0  0
 21 23  2  0  0  0  0
 22 21  1  0  0  0  0
 23  2  1  0  0  0  0
 24 23  1  0  0  0  0
 25  1  1  0  0  0  0
 25 15  1  0  0  0  0
 26 25  2  0  0  0  0
 27  5  1  0  0  0  0
 27  3  2  0  0  0  0
 28 29  1  0  0  0  0
 28  4  1  0  0  0  0
 30 28  1  0  0  0  0
 31 28  1  0  0  0  0
 32  4  1  0  0  0  0
 32 35  1  0  0  0  0
 33 32  1  0  0  0  0
 34 32  1  0  0  0  0
 35 36  1  0  0  0  0
 35  5  1  0  0  0  0
 37 35  1  0  0  0  0
 38 40  1  0  0  0  0
 38 39  1  0  0  0  0
 38 41  1  0  0  0  0
 42  8  1  0  0  0  0
 43  7  1  0  0  0  0
 44 43  1  0  0  0  0
 45 43  1  0  0  0  0
 46 43  1  0  0  0  0
 47 49  1  0  0  0  0
 47 50  1  0  0  0  0
 48 47  1  0  0  0  0
 50 51  1  0  0  0  0
 50 52  1  0  0  0  0
 53 56  1  0  0  0  0
 53 55  1  0  0  0  0
 54 53  1  0  0  0  0
M  END
