30,31
q = 0.0, confidence = 0.996

 32 33  0  0  0  0  0  0  0  0999 V2000
    3.1686   -0.5823    0.3503 C   0  0  0  0  0  3  0  0  0  0  0  0
    3.4873    0.3581    0.8337 H   0  0  0  0  0  0  0  0  0  0  0  0
    3.9569   -1.7336    0.2755 C   0  0  0  0  0  0  0  0  0  0  0  0
    4.9588   -1.7316    0.7275 H   0  0  0  0  0  0  0  0  0  0  0  0
    3.4485   -2.8698   -0.3713 C   0  0  0  0  0  0  0  0  0  0  0  0
    4.0431   -3.7928   -0.4399 H   0  0  0  0  0  0  0  0  0  0  0  0
    2.1636   -2.8117   -0.9282 C   0  0  0  0  0  0  0  0  0  0  0  0
    1.7277   -3.6808   -1.4425 H   0  0  0  0  0  0  0  0  0  0  0  0
    1.4233   -1.6263   -0.8259 C   0  0  0  0  0  0  0  0  0  0  0  0
    0.0625   -1.4687   -1.4595 C   0  0  0  0  0  0  0  0  0  0  0  0
   -0.5155   -2.4129   -1.3899 H   0  0  0  0  0  0  0  0  0  0  0  0
    0.2122   -1.2610   -2.5412 H   0  0  0  0  0  0  0  0  0  0  0  0
   -1.9205   -0.6816   -0.1362 C   0  0  0  0  0  0  0  0  0  0  0  0
   -3.1649   -0.2830   -0.6878 C   0  0  0  0  0  0  0  0  0  0  0  0
   -4.3401   -0.6185    0.0062 C   0  0  0  0  0  0  0  0  0  0  0  0
   -5.3102   -0.3099   -0.4122 H   0  0  0  0  0  0  0  0  0  0  0  0
   -4.2864   -1.3276    1.2122 C   0  0  0  0  0  0  0  0  0  0  0  0
   -5.2142   -1.5830    1.7451 H   0  0  0  0  0  0  0  0  0  0  0  0
   -3.0463   -1.6928    1.7471 C   0  0  0  0  0  0  0  0  0  0  0  0
   -2.9976   -2.2254    2.7094 H   0  0  0  0  0  0  0  0  0  0  0  0
   -1.8385   -1.3740    1.0957 C   0  0  0  0  0  0  0  0  0  0  0  0
   -3.2274    0.5137   -1.9678 C   0  0  0  0  0  0  0  0  0  0  0  0
   -4.2743    0.7499   -2.2342 H   0  0  0  0  0  0  0  0  0  0  0  0
   -2.7888   -0.0308   -2.8331 H   0  0  0  0  0  0  0  0  0  0  0  0
   -2.6835    1.4772   -1.8464 H   0  0  0  0  0  0  0  0  0  0  0  0
   -0.5275   -1.7165    1.7514 C   0  0  0  0  0  0  0  0  0  0  0  0
   -0.6955   -2.1038    2.7736 H   0  0  0  0  0  0  0  0  0  0  0  0
    0.1227   -0.8172    1.8215 H   0  0  0  0  0  0  0  0  0  0  0  0
    0.0479   -2.4871    1.1977 H   0  0  0  0  0  0  0  0  0  0  0  0
    1.9292   -0.5350   -0.1899 N   0  0  0  0  0  2  0  0  0  0  0  0
   -0.7255   -0.3343   -0.8898 N   0  0  0  0  0  0  0  0  0  0  0  0
   -1.0407    0.2601   -1.6670 H   0  0  0  0  0  0  0  0  0  0  0  0
  1  2  1  0  0  0  0
  3  1  1  0  0  0  0
  3  4  1  0  0  0  0
  5  3  2  0  0  0  0
  6  5  1  0  0  0  0
  7  9  2  0  0  0  0
  7  5  1  0  0  0  0
  8  7  1  0  0  0  0
  9 30  1  0  0  0  0
 10 11  1  0  0  0  0
 10 31  1  0  0  0  0
 10  9  1  0  0  0  0
 12 10  1  0  0  0  0
 13 21  1  0  0  0  0
 14 13  2  0  0  0  0
 14 15  1  0  0  0  0
 15 17  2  0  0  0  0
 16 15  1  0  0  0  0
 17 18  1  0  0  0  0
 17 19  1  0  0  0  0
 19 20  1  0  0  0  0
 21 19  2  0  0  0  0
 21 26  1  0  0  0  0
 22 25  1  0  0  0  0
 22 14  1  0  0  0  0
 23 22  1  0  0  0  0
 24 22  1  0  0  0  0
 26 28  1  0  0  0  0
 26 27  1  0  0  0  0
 29 26  1  0  0  0  0
 30  1  1  0  0  0  0
 31 13  1  0  0  0  0
 32 31  1  0  0  0  0
M  END
