1,2
q = 0.0, confidence = 1.0

 33 33  0  0  0  0  0  0  0  0999 V2000
    1.6839   -0.4222   -0.1653 N   0  0  0  0  0  2  0  0  0  0  0  0
   -1.4102   -0.5599    0.1801 N   0  0  0  0  0  0  0  0  0  0  0  0
    2.8932   -0.0065    0.2888 C   0  0  0  0  0  3  0  0  0  0  0  0
    2.9444    1.0524    0.5816 H   0  0  0  0  0  0  0  0  0  0  0  0
    4.0064   -0.8501    0.3253 C   0  0  0  0  0  0  0  0  0  0  0  0
    4.9612   -0.4617    0.7067 H   0  0  0  0  0  0  0  0  0  0  0  0
    3.8784   -2.1668   -0.1342 C   0  0  0  0  0  0  0  0  0  0  0  0
    4.7368   -2.8550   -0.1305 H   0  0  0  0  0  0  0  0  0  0  0  0
    2.6263   -2.5924   -0.5927 C   0  0  0  0  0  0  0  0  0  0  0  0
    2.4743   -3.6193   -0.9551 H   0  0  0  0  0  0  0  0  0  0  0  0
    1.5376   -1.7040   -0.5904 C   0  0  0  0  0  0  0  0  0  0  0  0
    0.1595   -2.1517   -0.9866 C   0  0  0  0  0  0  0  0  0  0  0  0
   -0.1662   -1.6134   -1.9024 H   0  0  0  0  0  0  0  0  0  0  0  0
    0.1899   -3.2280   -1.2441 H   0  0  0  0  0  0  0  0  0  0  0  0
   -0.8524   -1.9333    0.1454 C   0  0  0  0  0  0  0  0  0  0  0  0
   -0.3668   -2.1249    1.1224 H   0  0  0  0  0  0  0  0  0  0  0  0
   -1.6943   -2.6517    0.0407 H   0  0  0  0  0  0  0  0  0  0  0  0
   -2.4433   -0.3887   -0.9076 C   0  0  0  0  0  0  0  0  0  0  0  0
   -1.9278   -0.5247   -1.8785 H   0  0  0  0  0  0  0  0  0  0  0  0
   -2.7439    0.6795   -0.8558 H   0  0  0  0  0  0  0  0  0  0  0  0
   -3.6322   -1.3016   -0.8126 C   0  0  0  0  0  0  0  0  0  0  0  0
   -4.2948   -1.1723    0.0616 H   0  0  0  0  0  0  0  0  0  0  0  0
   -3.9655   -2.2066   -1.7508 C   0  0  0  0  0  0  0  0  0  0  0  0
   -4.8807   -2.8137   -1.6710 H   0  0  0  0  0  0  0  0  0  0  0  0
   -3.3431   -2.3551   -2.6499 H   0  0  0  0  0  0  0  0  0  0  0  0
   -2.0164   -0.2847    1.5281 C   0  0  0  0  0  0  0  0  0  0  0  0
   -2.5681    0.6710    1.4113 H   0  0  0  0  0  0  0  0  0  0  0  0
   -2.7293   -1.0995    1.7829 H   0  0  0  0  0  0  0  0  0  0  0  0
   -0.9887   -0.1277    2.6097 C   0  0  0  0  0  0  0  0  0  0  0  0
   -0.3575    0.7755    2.5294 H   0  0  0  0  0  0  0  0  0  0  0  0
   -0.8300   -0.9824    3.6359 C   0  0  0  0  0  0  0  0  0  0  0  0
   -1.4554   -1.8863    3.7358 H   0  0  0  0  0  0  0  0  0  0  0  0
   -0.0818   -0.8026    4.4234 H   0  0  0  0  0  0  0  0  0  0  0  0
  1  3  1  0  0  0  0
  2 26  1  0  0  0  0
  3  5  1  0  0  0  0
  3  4  1  0  0  0  0
  5  6  1  0  0  0  0
  7  8  1  0  0  0  0
  7  5  2  0  0  0  0
  9 11  2  0  0  0  0
  9  7  1  0  0  0  0
 10  9  1  0  0  0  0
 11  1  1  0  0  0  0
 12 11  1  0  0  0  0
 12 15  1  0  0  0  0
 13 12  1  0  0  0  0
 14 12  1  0  0  0  0
 15  2  1  0  0  0  0
 15 16  1  0  0  0  0
 17 15  1  0  0  0  0
 18 20  1  0  0  0  0
 18 21  1  0  0  0  0
 18  2  1  0  0  0  0
 19 18  1  0  0  0  0
 21 22  1  0  0  0  0
 23 24  1  0  0  0  0
 23 21  2  0  0  0  0
 25 23  1  0  0  0  0
 26 28  1  0  0  0  0
 26 29  1  0  0  0  0
 27 26  1  0  0  0  0
 29 31  2  0  0  0  0
 30 29  1  0  0  0  0
 31 32  1  0  0  0  0
 31 33  1  0  0  0  0
M  END
