1,3
q = -1.0, confidence = 0.0

 25 26  0  0  0  0  0  0  0  0999 V2000
   -2.5461   -0.2534    0.2227 N   0  0  0  0  0  2  0  0  0  0  0  0
   -3.3483    0.3790    0.3262 H   0  0  0  0  0  0  0  0  0  0  0  0
    0.1236   -1.1378    0.0359 N   0  0  0  0  0  2  0  0  0  0  0  0
   -0.4204   -2.3004   -0.0675 N   0  0  0  0  0  0  0  0  0  0  0  0
    6.0966   -1.4060    0.1387 Cl  0  0  0  0  0  0  0  0  0  0  0  0
   -2.8192   -1.5530    0.1078 C   0  0  0  0  0  0  0  0  0  0  0  0
   -1.7563   -2.5385   -0.0652 C   0  0  0  0  0  0  0  0  0  0  0  0
   -4.1708   -2.0398    0.1463 C   0  0  0  0  0  0  0  0  0  0  0  0
   -4.9792   -1.3044    0.2827 H   0  0  0  0  0  0  0  0  0  0  0  0
   -2.1102   -3.9205   -0.2021 C   0  0  0  0  0  3  0  0  0  0  0  0
   -1.2740   -4.6238   -0.3238 H   0  0  0  0  0  0  0  0  0  0  0  0
   -4.4599   -3.3837    0.0042 C   0  0  0  0  0  0  0  0  0  0  0  0
   -5.5102   -3.7132    0.0315 H   0  0  0  0  0  0  0  0  0  0  0  0
   -3.4238   -4.3461   -0.1764 C   0  0  0  0  0  0  0  0  0  0  0  0
   -3.6704   -5.4116   -0.2859 H   0  0  0  0  0  0  0  0  0  0  0  0
    1.5592   -1.1955    0.0566 C   0  0  0  0  0  0  0  0  0  0  0  0
    2.2439   -2.0061   -0.8677 C   0  0  0  0  0  0  0  0  0  0  0  0
    1.6635   -2.5827   -1.6010 H   0  0  0  0  0  0  0  0  0  0  0  0
    2.2803   -0.4636    1.0163 C   0  0  0  0  0  0  0  0  0  0  0  0
    1.7350    0.1479    1.7478 H   0  0  0  0  0  0  0  0  0  0  0  0
    3.6410   -2.0715   -0.8482 C   0  0  0  0  0  0  0  0  0  0  0  0
    4.1858   -2.6920   -1.5734 H   0  0  0  0  0  0  0  0  0  0  0  0
    3.6775   -0.5320    1.0485 C   0  0  0  0  0  0  0  0  0  0  0  0
    4.2497    0.0249    1.8035 H   0  0  0  0  0  0  0  0  0  0  0  0
    4.3530   -1.3299    0.1100 C   0  0  0  0  0  0  0  0  0  0  0  0
  1  2  1  0  0  0  0
  3 16  1  0  0  0  0
  4  7  2  0  0  0  0
  4  3  1  0  0  0  0
  6  8  2  0  0  0  0
  6  1  1  0  0  0  0
  7  6  1  0  0  0  0
  8  9  1  0  0  0  0
 10 14  1  0  0  0  0
 10  7  1  0  0  0  0
 11 10  1  0  0  0  0
 12 13  1  0  0  0  0
 12  8  1  0  0  0  0
 14 12  2  0  0  0  0
 15 14  1  0  0  0  0
 16 19  1  0  0  0  0
 17 21  1  0  0  0  0
 17 16  2  0  0  0  0
 18 17  1  0  0  0  0
 19 23  2  0  0  0  0
 19 20  1  0  0  0  0
 21 25  2  0  0  0  0
 22 21  1  0  0  0  0
 23 24  1  0  0  0  0
 25  5  1  0  0  0  0
 25 23  1  0  0  0  0
M  END
