1,6
q = 0.0, confidence = 0.988

 34 35  0  0  0  0  0  0  0  0999 V2000
    1.3993   -0.6798    1.7409 N   0  0  0  0  0  2  0  0  0  0  0  0
    3.6768   -0.2277    0.8766 C   0  0  0  0  0  0  0  0  0  0  0  0
    4.2882    2.9186   -1.5493 Cl  0  0  0  0  0  0  0  0  0  0  0  0
    3.5042    0.9988    0.2018 C   0  0  0  0  0  0  0  0  0  0  0  0
    2.6099    1.6179    0.3876 H   0  0  0  0  0  0  0  0  0  0  0  0
   -1.3451   -0.1312    1.9129 N   0  0  0  0  0  2  0  0  0  0  0  0
    7.2457   -1.5064   -0.4951 Cl  0  0  0  0  0  0  0  0  0  0  0  0
    4.4952    1.4188   -0.6954 C   0  0  0  0  0  0  0  0  0  0  0  0
   -6.8503    2.0724   -0.1067 Cl  0  0  0  0  0  0  0  0  0  0  0  0
    5.6492    0.6531   -0.9314 C   0  0  0  0  0  0  0  0  0  0  0  0
    6.4120    0.9940   -1.6434 H   0  0  0  0  0  0  0  0  0  0  0  0
   -4.5867   -2.4362   -2.1066 Cl  0  0  0  0  0  0  0  0  0  0  0  0
    5.8131   -0.5515   -0.2281 C   0  0  0  0  0  0  0  0  0  0  0  0
    4.8497   -0.9931    0.6876 C   0  0  0  0  0  0  0  0  0  0  0  0
    5.0038   -1.9370    1.2291 H   0  0  0  0  0  0  0  0  0  0  0  0
    2.6907   -0.7129    1.8495 C   0  0  0  0  0  3  0  0  0  0  0  0
    3.1188   -1.1627    2.7720 H   0  0  0  0  0  0  0  0  0  0  0  0
    0.6282   -1.1055    2.9176 C   0  0  0  0  0  0  0  0  0  0  0  0
    1.2669   -1.1568    3.8247 H   0  0  0  0  0  0  0  0  0  0  0  0
    0.2048   -2.1150    2.7238 H   0  0  0  0  0  0  0  0  0  0  0  0
   -0.5043   -0.1024    3.1144 C   0  0  0  0  0  0  0  0  0  0  0  0
   -1.0878   -0.3295    4.0313 H   0  0  0  0  0  0  0  0  0  0  0  0
   -0.0722    0.9204    3.1834 H   0  0  0  0  0  0  0  0  0  0  0  0
   -2.6227   -0.0079    2.0755 C   0  0  0  0  0  3  0  0  0  0  0  0
   -3.0057    0.1797    3.1021 H   0  0  0  0  0  0  0  0  0  0  0  0
   -3.6368   -0.0822    1.0126 C   0  0  0  0  0  0  0  0  0  0  0  0
   -4.6536    0.8948    0.9812 C   0  0  0  0  0  0  0  0  0  0  0  0
   -4.6799    1.7069    1.7210 H   0  0  0  0  0  0  0  0  0  0  0  0
   -5.6160    0.8474   -0.0371 C   0  0  0  0  0  0  0  0  0  0  0  0
   -5.6056   -0.1717   -1.0030 C   0  0  0  0  0  0  0  0  0  0  0  0
   -6.3634   -0.1995   -1.7965 H   0  0  0  0  0  0  0  0  0  0  0  0
   -4.6104   -1.1594   -0.9270 C   0  0  0  0  0  0  0  0  0  0  0  0
   -3.6263   -1.1298    0.0698 C   0  0  0  0  0  0  0  0  0  0  0  0
   -2.8634   -1.9159    0.1077 H   0  0  0  0  0  0  0  0  0  0  0  0
  1 16  1  0  0  0  0
  1 18  1  0  0  0  0
  2 16  1  0  0  0  0
  3  8  1  0  0  0  0
  4  5  1  0  0  0  0
  4  2  2  0  0  0  0
  6 24  1  0  0  0  0
  6 21  1  0  0  0  0
  7 13  1  0  0  0  0
  8  4  1  0  0  0  0
  9 29  1  0  0  0  0
 10  8  2  0  0  0  0
 10 13  1  0  0  0  0
 11 10  1  0  0  0  0
 12 32  1  0  0  0  0
 13 14  2  0  0  0  0
 14  2  1  0  0  0  0
 14 15  1  0  0  0  0
 16 17  1  0  0  0  0
 18 21  1  0  0  0  0
 18 19  1  0  0  0  0
 20 18  1  0  0  0  0
 21 23  1  0  0  0  0
 21 22  1  0  0  0  0
 24 25  1  0  0  0  0
 26 24  1  0  0  0  0
 27 26  1  0  0  0  0
 27 28  1  0  0  0  0
 29 27  2  0  0  0  0
 30 32  2  0  0  0  0
 30 29  1  0  0  0  0
 31 30  1  0  0  0  0
 32 33  1  0  0  0  0
 33 34  1  0  0  0  0
 33 26  2  0  0  0  0
M  END
