1,18
q = 0.0, confidence = 0.998

 28 30  0  0  0  0  0  0  0  0999 V2000
    1.8944   -0.1642    1.1209 N   0  0  0  0  0  2  0  0  0  0  0  0
    1.1630   -0.3057    2.2442 C   0  0  0  0  0  0  0  0  0  0  0  0
    0.0707   -0.2655    2.1248 H   0  0  0  0  0  0  0  0  0  0  0  0
    1.7630   -0.4940    3.5005 C   0  0  0  0  0  0  0  0  0  0  0  0
    1.1215   -0.6039    4.3862 H   0  0  0  0  0  0  0  0  0  0  0  0
    3.1527   -0.5396    3.6155 C   0  0  0  0  0  0  0  0  0  0  0  0
    3.6140   -0.6871    4.6005 H   0  0  0  0  0  0  0  0  0  0  0  0
    3.9571   -0.3938    2.4535 C   0  0  0  0  0  0  0  0  0  0  0  0
    3.2669   -0.2071    1.2251 C   0  0  0  0  0  0  0  0  0  0  0  0
    3.9939   -0.0507    0.0089 C   0  0  0  0  0  0  0  0  0  0  0  0
    5.4145   -0.0813    0.0153 C   0  0  0  0  0  0  0  0  0  0  0  0
    6.0526    0.0828   -1.2436 C   0  0  0  0  0  0  0  0  0  0  0  0
    7.1476    0.0709   -1.3217 H   0  0  0  0  0  0  0  0  0  0  0  0
    5.2767    0.2604   -2.3893 C   0  0  0  0  0  0  0  0  0  0  0  0
    5.7496    0.3892   -3.3733 H   0  0  0  0  0  0  0  0  0  0  0  0
    3.8723    0.2780   -2.3039 C   0  0  0  0  0  0  0  0  0  0  0  0
    3.2116    0.4149   -3.1760 H   0  0  0  0  0  0  0  0  0  0  0  0
    3.2352    0.1255   -1.1259 N   0  0  0  0  0  2  0  0  0  0  0  0
    5.4135   -0.4255    2.4629 C   0  0  0  0  0  0  0  0  0  0  0  0
    6.1253   -0.2730    1.2724 C   0  0  0  0  0  0  0  0  0  0  0  0
    6.0729   -0.6276    3.8027 C   0  0  0  0  0  0  0  0  0  0  0  0
    7.1732   -0.6432    3.7476 H   0  0  0  0  0  0  0  0  0  0  0  0
    5.7531   -1.5853    4.2633 H   0  0  0  0  0  0  0  0  0  0  0  0
    5.7906    0.1788    4.5110 H   0  0  0  0  0  0  0  0  0  0  0  0
    7.6300   -0.2940    1.1984 C   0  0  0  0  0  0  0  0  0  0  0  0
    8.1122   -0.4419    2.1780 H   0  0  0  0  0  0  0  0  0  0  0  0
    8.0204    0.6565    0.7792 H   0  0  0  0  0  0  0  0  0  0  0  0
    7.9837   -1.1069    0.5309 H   0  0  0  0  0  0  0  0  0  0  0  0
  1  9  1  0  0  0  0
  1  2  1  0  0  0  0
  2  4  2  0  0  0  0
  3  2  1  0  0  0  0
  4  6  1  0  0  0  0
  4  5  1  0  0  0  0
  6  7  1  0  0  0  0
  8 19  1  0  0  0  0
  8  6  2  0  0  0  0
  9  8  1  0  0  0  0
 10 11  1  0  0  0  0
 10  9  2  0  0  0  0
 11 20  1  0  0  0  0
 12 11  2  0  0  0  0
 13 12  1  0  0  0  0
 14 16  2  0  0  0  0
 14 12  1  0  0  0  0
 15 14  1  0  0  0  0
 16 18  1  0  0  0  0
 17 16  1  0  0  0  0
 18 10  1  0  0  0  0
 19 21  1  0  0  0  0
 20 19  2  0  0  0  0
 21 23  1  0  0  0  0
 21 24  1  0  0  0  0
 22 21  1  0  0  0  0
 25 20  1  0  0  0  0
 25 26  1  0  0  0  0
 27 25  1  0  0  0  0
 28 25  1  0  0  0  0
M  END
