2,12
q = -1.0, confidence = 0.0

 43 46  0  0  1  0  0  0  0  0999 V2000
   -1.3587   -0.0720    0.0229 B   0  0  0  0  0  0  0  0  0  0  0  0
    0.4835   -0.1249    1.7828 N   0  0  0  0  0  2  0  0  0  0  0  0
   -0.8691   -0.1534    1.5888 C   0  0  1  0  0  3  0  0  0  0  0  0
   -1.7039   -0.1733    2.7264 C   0  0  0  0  0  0  0  0  0  0  0  0
   -2.7927   -0.1626    2.5781 H   0  0  0  0  0  0  0  0  0  0  0  0
   -1.1635   -0.1796    4.0177 C   0  0  0  0  0  0  0  0  0  0  0  0
   -1.8242   -0.1861    4.8988 H   0  0  0  0  0  0  0  0  0  0  0  0
    0.2304   -0.1663    4.1737 C   0  0  0  0  0  0  0  0  0  0  0  0
    0.7051   -0.1683    5.1652 H   0  0  0  0  0  0  0  0  0  0  0  0
    1.0180   -0.1338    3.0206 C   0  0  0  0  0  0  0  0  0  0  0  0
    2.1168   -0.1046    3.0807 H   0  0  0  0  0  0  0  0  0  0  0  0
    0.4976   -1.6597   -0.7633 N   0  0  0  0  0  2  0  0  0  0  0  0
   -0.8530   -1.4560   -0.7060 C   0  0  2  0  0  3  0  0  0  0  0  0
   -1.6928   -2.4283   -1.2921 C   0  0  0  0  0  0  0  0  0  0  0  0
   -2.7781   -2.2562   -1.2843 H   0  0  0  0  0  0  0  0  0  0  0  0
   -1.1614   -3.5796   -1.8843 C   0  0  0  0  0  0  0  0  0  0  0  0
   -1.8268   -4.3286   -2.3417 H   0  0  0  0  0  0  0  0  0  0  0  0
    0.2296   -3.7638   -1.8941 C   0  0  0  0  0  0  0  0  0  0  0  0
    0.6960   -4.6521   -2.3433 H   0  0  0  0  0  0  0  0  0  0  0  0
    1.0247   -2.7660   -1.3270 C   0  0  0  0  0  0  0  0  0  0  0  0
    2.1234   -2.8387   -1.3262 H   0  0  0  0  0  0  0  0  0  0  0  0
   -0.5264    1.2014   -0.6173 C   0  0  0  0  0  0  0  0  0  0  0  0
   -0.4606    2.4368    0.0934 C   0  0  0  0  0  0  0  0  0  0  0  0
   -0.8365    2.4715    1.1284 H   0  0  0  0  0  0  0  0  0  0  0  0
    0.0476    3.6021   -0.4847 C   0  0  0  0  0  0  0  0  0  0  0  0
    0.0771    4.5377    0.0950 H   0  0  0  0  0  0  0  0  0  0  0  0
    0.5237    3.5818   -1.8118 C   0  0  0  0  0  0  0  0  0  0  0  0
    0.9259    4.4991   -2.2689 H   0  0  0  0  0  0  0  0  0  0  0  0
    0.4786    2.3908   -2.5433 C   0  0  0  0  0  0  0  0  0  0  0  0
    0.8414    2.3640   -3.5822 H   0  0  0  0  0  0  0  0  0  0  0  0
   -0.0368    1.2200   -1.9505 C   0  0  0  0  0  0  0  0  0  0  0  0
   -0.1008    0.3029   -2.5572 H   0  0  0  0  0  0  0  0  0  0  0  0
   -2.9688    0.1376   -0.1219 C   0  0  0  0  0  0  0  0  0  0  0  0
   -3.5339    1.2406   -0.8015 C   0  0  0  0  0  0  0  0  0  0  0  0
   -2.8668    1.9954   -1.2478 H   0  0  0  0  0  0  0  0  0  0  0  0
   -4.9230    1.4099   -0.9296 C   0  0  0  0  0  0  0  0  0  0  0  0
   -5.3203    2.2851   -1.4680 H   0  0  0  0  0  0  0  0  0  0  0  0
   -5.8041    0.4692   -0.3756 C   0  0  0  0  0  0  0  0  0  0  0  0
   -6.8933    0.5984   -0.4726 H   0  0  0  0  0  0  0  0  0  0  0  0
   -5.2779   -0.6417    0.3032 C   0  0  0  0  0  0  0  0  0  0  0  0
   -5.9551   -1.3917    0.7422 H   0  0  0  0  0  0  0  0  0  0  0  0
   -3.8872   -0.7972    0.4219 C   0  0  0  0  0  0  0  0  0  0  0  0
   -3.5044   -1.6838    0.9556 H   0  0  0  0  0  0  0  0  0  0  0  0
  2 10  1  0  0  0  0
  3  1  1  1  0  0  0
  3  2  1  0  0  0  0
  3  4  1  0  0  0  0
  4  6  2  0  0  0  0
  5  4  1  0  0  0  0
  6  8  1  0  0  0  0
  6  7  1  0  0  0  0
  8  9  1  0  0  0  0
 10 11  1  0  0  0  0
 10  8  2  0  0  0  0
 12 13  1  0  0  0  0
 13  1  1  6  0  0  0
 14 15  1  0  0  0  0
 14 13  1  0  0  0  0
 16 14  2  0  0  0  0
 17 16  1  0  0  0  0
 18 16  1  0  0  0  0
 18 20  2  0  0  0  0
 19 18  1  0  0  0  0
 20 21  1  0  0  0  0
 20 12  1  0  0  0  0
 22  1  1  0  0  0  0
 22 23  1  0  0  0  0
 23 24  1  0  0  0  0
 25 23  2  0  0  0  0
 25 26  1  0  0  0  0
 27 25  1  0  0  0  0
 28 27  1  0  0  0  0
 29 31  1  0  0  0  0
 29 27  2  0  0  0  0
 30 29  1  0  0  0  0
 31 22  2  0  0  0  0
 32 31  1  0  0  0  0
 33  1  1  0  0  0  0
 33 42  1  0  0  0  0
 34 33  2  0  0  0  0
 35 34  1  0  0  0  0
 36 34  1  0  0  0  0
 36 38  2  0  0  0  0
 37 36  1  0  0  0  0
 38 40  1  0  0  0  0
 39 38  1  0  0  0  0
 40 42  2  0  0  0  0
 40 41  1  0  0  0  0
 42 43  1  0  0  0  0
M  END
