1,2
q = 0.0, confidence = 0.996

 23 23  0  0  1  0  0  0  0  0999 V2000
   -1.4621    0.3472   -0.0672 N   0  0  0  0  0  2  0  0  0  0  0  0
    0.5321   -1.2703   -0.8529 N   0  0  0  0  0  0  0  0  0  0  0  0
    3.0310    0.0140   -0.2187 O   0  0  0  0  0  0  0  0  0  0  0  0
   -1.8138   -0.9337   -0.3001 C   0  0  1  0  0  3  0  0  0  0  0  0
   -2.3963    1.3084   -0.0155 C   0  0  0  0  0  0  0  0  0  0  0  0
   -2.0232    2.3324    0.1508 H   0  0  0  0  0  0  0  0  0  0  0  0
   -0.6664   -1.9234   -0.3196 C   0  0  0  0  0  0  0  0  0  0  0  0
   -0.4353   -2.1879    0.7391 H   0  0  0  0  0  0  0  0  0  0  0  0
   -0.9541   -2.8498   -0.8665 H   0  0  0  0  0  0  0  0  0  0  0  0
    1.8002   -1.9967   -0.7401 C   0  0  0  0  0  0  0  0  0  0  0  0
    1.8220   -2.9253   -1.3575 H   0  0  0  0  0  0  0  0  0  0  0  0
    1.9191   -2.2784    0.3277 H   0  0  0  0  0  0  0  0  0  0  0  0
    2.9502   -1.0653   -1.1298 C   0  0  0  0  0  0  0  0  0  0  0  0
    3.8987   -1.6481   -1.1152 H   0  0  0  0  0  0  0  0  0  0  0  0
    2.8060   -0.7089   -2.1774 H   0  0  0  0  0  0  0  0  0  0  0  0
   -3.1567   -1.2984   -0.4826 C   0  0  0  0  0  0  0  0  0  0  0  0
   -3.4215   -2.3475   -0.6816 H   0  0  0  0  0  0  0  0  0  0  0  0
   -4.1418   -0.3030   -0.4097 C   0  0  0  0  0  0  0  0  0  0  0  0
   -5.2026   -0.5627   -0.5454 H   0  0  0  0  0  0  0  0  0  0  0  0
   -3.7592    1.0265   -0.1754 C   0  0  0  0  0  0  0  0  0  0  0  0
   -4.5020    1.8353   -0.1243 H   0  0  0  0  0  0  0  0  0  0  0  0
    0.3747   -0.9626   -1.8234 H   0  0  0  0  0  0  0  0  0  0  0  0
    2.8414    0.8704   -0.6812 H   0  0  0  0  0  0  0  0  0  0  0  0
  1  5  1  0  0  0  0
  2 10  1  0  0  0  0
  2  7  1  0  0  0  0
  4  7  1  1  0  0  0
  4  1  1  0  0  0  0
  5  6  1  0  0  0  0
  7  8  1  0  0  0  0
  9  7  1  0  0  0  0
 10 12  1  0  0  0  0
 11 10  1  0  0  0  0
 13 14  1  0  0  0  0
 13 10  1  0  0  0  0
 13  3  1  0  0  0  0
 15 13  1  0  0  0  0
 16 18  2  0  0  0  0
 16  4  1  0  0  0  0
 17 16  1  0  0  0  0
 18 20  1  0  0  0  0
 19 18  1  0  0  0  0
 20 21  1  0  0  0  0
 20  5  2  0  0  0  0
 22  2  1  0  0  0  0
 23  3  1  0  0  0  0
M  END
