4,5
q = 0.0, confidence = 1.0

 27 30  0  0  1  0  0  0  0  0999 V2000
    2.6803    2.8929    0.3049 S   0  0  0  0  0  0  0  0  0  0  0  0
    0.0000    2.3254    1.5417 S   0  0  0  0  0  0  0  0  0  0  0  0
   -2.6799    2.8931    0.3044 S   0  0  0  0  0  0  0  0  0  0  0  0
    1.5076    0.5653    0.0524 N   0  0  0  0  0  2  0  0  0  0  0  0
   -1.5078    0.5652    0.0526 N   0  0  0  0  0  2  0  0  0  0  0  0
    1.3579    1.7760    0.5630 C   0  0  2  0  0  3  0  0  0  0  0  0
    3.5345    1.6311   -0.5560 C   0  0  0  0  0  0  0  0  0  0  0  0
    4.8101    1.6951   -1.1400 C   0  0  0  0  0  0  0  0  0  0  0  0
    5.2699    0.5620   -1.8190 C   0  0  0  0  0  0  0  0  0  0  0  0
    4.4724   -0.5998   -1.9168 C   0  0  0  0  0  0  0  0  0  0  0  0
    3.2056   -0.6679   -1.3321 C   0  0  0  0  0  0  0  0  0  0  0  0
    2.7287    0.4574   -0.6279 C   0  0  0  0  0  0  0  0  0  0  0  0
   -1.3578    1.7760    0.5629 C   0  0  2  0  0  3  0  0  0  0  0  0
   -2.7289    0.4574   -0.6276 C   0  0  0  0  0  0  0  0  0  0  0  0
   -3.2061   -0.6680   -1.3313 C   0  0  0  0  0  0  0  0  0  0  0  0
   -4.4729   -0.5999   -1.9161 C   0  0  0  0  0  0  0  0  0  0  0  0
   -5.2700    0.5621   -1.8188 C   0  0  0  0  0  0  0  0  0  0  0  0
   -4.8099    1.6955   -1.1401 C   0  0  0  0  0  0  0  0  0  0  0  0
   -3.5344    1.6313   -0.5561 C   0  0  0  0  0  0  0  0  0  0  0  0
    5.4217    2.6057   -1.0699 H   0  0  0  0  0  0  0  0  0  0  0  0
    6.2643    0.5829   -2.2893 H   0  0  0  0  0  0  0  0  0  0  0  0
    4.8514   -1.4718   -2.4696 H   0  0  0  0  0  0  0  0  0  0  0  0
    2.5505   -1.5415   -1.4526 H   0  0  0  0  0  0  0  0  0  0  0  0
   -2.5513   -1.5419   -1.4516 H   0  0  0  0  0  0  0  0  0  0  0  0
   -4.8522   -1.4720   -2.4685 H   0  0  0  0  0  0  0  0  0  0  0  0
   -6.2645    0.5832   -2.2890 H   0  0  0  0  0  0  0  0  0  0  0  0
   -5.4214    2.6062   -1.0704 H   0  0  0  0  0  0  0  0  0  0  0  0
  1  6  1  0  0  0  0
  3 13  1  0  0  0  0
  4  6  1  0  0  0  0
  5 13  1  0  0  0  0
  6  2  1  1  0  0  0
  7  1  1  0  0  0  0
  8 20  1  0  0  0  0
  8  7  2  0  0  0  0
  9  8  1  0  0  0  0
 10  9  2  0  0  0  0
 10 11  1  0  0  0  0
 11 12  2  0  0  0  0
 12  7  1  0  0  0  0
 12  4  1  0  0  0  0
 13  2  1  1  0  0  0
 14 19  1  0  0  0  0
 14  5  1  0  0  0  0
 15 14  2  0  0  0  0
 16 17  2  0  0  0  0
 16 15  1  0  0  0  0
 17 18  1  0  0  0  0
 18 27  1  0  0  0  0
 18 19  2  0  0  0  0
 19  3  1  0  0  0  0
 21  9  1  0  0  0  0
 22 10  1  0  0  0  0
 23 11  1  0  0  0  0
 24 15  1  0  0  0  0
 25 16  1  0  0  0  0
 26 17  1  0  0  0  0
M  END
