1,3
q = 0.0, confidence = 0.996

 19 19  0  0  1  0  0  0  0  0999 V2000
    1.1021   -1.3129   -0.4555 N   0  0  0  0  0  0  0  0  0  0  0  0
    0.7641   -2.1216   -0.9985 H   0  0  0  0  0  0  0  0  0  0  0  0
    1.0185    1.3942    0.1213 N   0  0  0  0  0  0  0  0  0  0  0  0
    0.9325    1.7828    1.0720 H   0  0  0  0  0  0  0  0  0  0  0  0
    1.7513   -1.6642    0.8318 C   0  0  0  0  0  0  0  0  0  0  0  0
    2.5221   -2.4512    0.6687 H   0  0  0  0  0  0  0  0  0  0  0  0
    0.9940   -2.0460    1.5398 H   0  0  0  0  0  0  0  0  0  0  0  0
    2.4105   -0.3245    1.2557 C   0  0  0  0  0  0  0  0  0  0  0  0
    1.9091    0.1213    2.1375 H   0  0  0  0  0  0  0  0  0  0  0  0
    3.4770   -0.4650    1.5152 H   0  0  0  0  0  0  0  0  0  0  0  0
    2.2734    0.5978    0.0151 C   0  0  1  0  0  0  0  0  0  0  0  0
    3.1533    1.2601   -0.1344 H   0  0  0  0  0  0  0  0  0  0  0  0
    2.0769   -0.4205   -1.1208 C   0  0  0  0  0  0  0  0  0  0  0  0
    1.6549    0.0050   -2.0499 H   0  0  0  0  0  0  0  0  0  0  0  0
    3.0332   -0.9427   -1.3557 H   0  0  0  0  0  0  0  0  0  0  0  0
    0.8771    2.4982   -0.8457 C   0  0  0  0  0  0  0  0  0  0  0  0
   -0.1166    2.9558   -0.6774 H   0  0  0  0  0  0  0  0  0  0  0  0
    0.9003    2.1010   -1.8778 H   0  0  0  0  0  0  0  0  0  0  0  0
    1.6868    3.2519   -0.7259 H   0  0  0  0  0  0  0  0  0  0  0  0
  1  5  1  0  0  0  0
  2  1  1  0  0  0  0
  3  4  1  0  0  0  0
  5  8  1  0  0  0  0
  5  7  1  0  0  0  0
  6  5  1  0  0  0  0
  8 10  1  0  0  0  0
  8  9  1  0  0  0  0
 11 12  1  6  0  0  0
 11  3  1  0  0  0  0
 11  8  1  0  0  0  0
 13  1  1  0  0  0  0
 13 11  1  0  0  0  0
 14 13  1  0  0  0  0
 15 13  1  0  0  0  0
 16 19  1  0  0  0  0
 16 17  1  0  0  0  0
 16  3  1  0  0  0  0
 18 16  1  0  0  0  0
M  END
