1,17
q = 0.0, confidence = 1.0

 32 33  0  0  1  0  0  0  0  0999 V2000
    1.8296   -0.2935   -0.0359 N   0  0  0  0  0  2  0  0  0  0  0  0
    2.9115    1.8274   -0.5709 C   0  0  0  0  0  0  0  0  0  0  0  0
    2.9915    0.3623   -0.2798 C   0  0  1  0  0  3  0  0  0  0  0  0
    4.2176   -0.3300   -0.2172 C   0  0  0  0  0  0  0  0  0  0  0  0
    4.2320   -1.6871    0.1177 C   0  0  0  0  0  0  0  0  0  0  0  0
    3.0207   -2.3352    0.3972 C   0  0  0  0  0  0  0  0  0  0  0  0
    1.8299   -1.6008    0.3133 C   0  0  0  0  0  0  0  0  0  0  0  0
    0.4748   -2.1835    0.6161 C   0  0  0  0  0  0  0  0  0  0  0  0
    3.9063    2.2549   -0.7913 H   0  0  0  0  0  0  0  0  0  0  0  0
    2.2150    2.0169   -1.4162 H   0  0  0  0  0  0  0  0  0  0  0  0
    2.4731    2.3438    0.3113 H   0  0  0  0  0  0  0  0  0  0  0  0
    5.1507    0.2121   -0.4261 H   0  0  0  0  0  0  0  0  0  0  0  0
    5.1836   -2.2377    0.1699 H   0  0  0  0  0  0  0  0  0  0  0  0
    2.9911   -3.3967    0.6814 H   0  0  0  0  0  0  0  0  0  0  0  0
    0.5780   -3.2046    1.0298 H   0  0  0  0  0  0  0  0  0  0  0  0
    0.0377   -1.5525    1.4223 H   0  0  0  0  0  0  0  0  0  0  0  0
   -1.8296   -0.2935    0.0359 N   0  0  0  0  0  2  0  0  0  0  0  0
   -0.4749   -2.1834   -0.6162 C   0  0  0  0  0  0  0  0  0  0  0  0
   -2.9914    0.3623    0.2801 C   0  0  1  0  0  3  0  0  0  0  0  0
   -1.8300   -1.6007   -0.3133 C   0  0  0  0  0  0  0  0  0  0  0  0
   -0.5782   -3.2046   -1.0298 H   0  0  0  0  0  0  0  0  0  0  0  0
   -0.0379   -1.5525   -1.4224 H   0  0  0  0  0  0  0  0  0  0  0  0
   -2.9112    1.8274    0.5714 C   0  0  0  0  0  0  0  0  0  0  0  0
   -4.2175   -0.3299    0.2177 C   0  0  0  0  0  0  0  0  0  0  0  0
   -3.0208   -2.3351   -0.3969 C   0  0  0  0  0  0  0  0  0  0  0  0
   -3.9060    2.2549    0.7921 H   0  0  0  0  0  0  0  0  0  0  0  0
   -2.2145    2.0167    1.4166 H   0  0  0  0  0  0  0  0  0  0  0  0
   -2.4730    2.3439   -0.3108 H   0  0  0  0  0  0  0  0  0  0  0  0
   -4.2321   -1.6869   -0.1172 C   0  0  0  0  0  0  0  0  0  0  0  0
   -5.1506    0.2123    0.4268 H   0  0  0  0  0  0  0  0  0  0  0  0
   -2.9913   -3.3966   -0.6812 H   0  0  0  0  0  0  0  0  0  0  0  0
   -5.1837   -2.2376   -0.1693 H   0  0  0  0  0  0  0  0  0  0  0  0
  1  7  1  0  0  0  0
  2 11  1  0  0  0  0
  3  2  1  1  0  0  0
  3  4  1  0  0  0  0
  3  1  1  0  0  0  0
  4  5  2  0  0  0  0
  5 13  1  0  0  0  0
  5  6  1  0  0  0  0
  6 14  1  0  0  0  0
  7  6  2  0  0  0  0
  7  8  1  0  0  0  0
  8 15  1  0  0  0  0
  8 16  1  0  0  0  0
  9  2  1  0  0  0  0
 10  2  1  0  0  0  0
 12  4  1  0  0  0  0
 17 19  1  0  0  0  0
 18 20  1  0  0  0  0
 18  8  1  0  0  0  0
 19 23  1  6  0  0  0
 20 17  1  0  0  0  0
 21 18  1  0  0  0  0
 22 18  1  0  0  0  0
 23 26  1  0  0  0  0
 23 27  1  0  0  0  0
 24 19  1  0  0  0  0
 24 30  1  0  0  0  0
 25 20  2  0  0  0  0
 25 29  1  0  0  0  0
 28 23  1  0  0  0  0
 29 24  2  0  0  0  0
 31 25  1  0  0  0  0
 32 29  1  0  0  0  0
M  END
