1,2
q = 0.0, confidence = 0.992

 49 51  0  0  1  0  0  0  0  0999 V2000
   -0.1318    0.4105    0.3833 N   0  0  0  0  0  2  0  0  0  0  0  0
   -2.1765    0.8409   -1.2954 N   0  0  0  0  0  0  0  0  0  0  0  0
    1.1757    0.2999    0.3529 C   0  0  1  0  0  3  0  0  0  0  0  0
    1.8593   -1.0213    0.6490 C   0  0  1  0  0  0  0  0  0  0  0  0
    1.2980   -1.8497    0.1781 H   0  0  0  0  0  0  0  0  0  0  0  0
    3.2867   -0.8856    0.0662 C   0  0  2  0  0  0  0  0  0  0  0  0
    4.0456   -1.2670    0.7840 H   0  0  0  0  0  0  0  0  0  0  0  0
    3.4468    0.6059   -0.1201 C   0  0  0  0  0  0  0  0  0  0  0  0
    4.6092    1.2952   -0.4893 C   0  0  0  0  0  0  0  0  0  0  0  0
    5.5641    0.7564   -0.5911 H   0  0  0  0  0  0  0  0  0  0  0  0
    4.5405    2.6738   -0.7418 C   0  0  0  0  0  0  0  0  0  0  0  0
    5.4487    3.2257   -1.0280 H   0  0  0  0  0  0  0  0  0  0  0  0
    3.3107    3.3545   -0.6422 C   0  0  0  0  0  0  0  0  0  0  0  0
    3.2651    4.4327   -0.8574 H   0  0  0  0  0  0  0  0  0  0  0  0
    2.1452    2.6793   -0.2625 C   0  0  0  0  0  0  0  0  0  0  0  0
    1.1999    3.2297   -0.1827 H   0  0  0  0  0  0  0  0  0  0  0  0
    2.2111    1.2943    0.0227 C   0  0  0  0  0  0  0  0  0  0  0  0
   -0.7756    1.6637    0.5031 C   0  0  0  0  0  0  0  0  0  0  0  0
   -1.8967    1.8881   -0.3305 C   0  0  0  0  0  0  0  0  0  0  0  0
   -2.6667    3.0476   -0.1688 C   0  0  0  0  0  0  0  0  0  0  0  0
   -3.5372    3.2300   -0.8126 H   0  0  0  0  0  0  0  0  0  0  0  0
   -2.3409    3.9730    0.8390 C   0  0  0  0  0  0  0  0  0  0  0  0
   -2.9608    4.8719    0.9712 H   0  0  0  0  0  0  0  0  0  0  0  0
   -1.2490    3.7370    1.6864 C   0  0  0  0  0  0  0  0  0  0  0  0
   -1.0135    4.4429    2.4966 H   0  0  0  0  0  0  0  0  0  0  0  0
   -0.4689    2.5827    1.5221 C   0  0  0  0  0  0  0  0  0  0  0  0
    0.3667    2.3628    2.2023 H   0  0  0  0  0  0  0  0  0  0  0  0
    1.8406   -1.2490    2.1822 C   0  0  0  0  0  0  0  0  0  0  0  0
    0.8006   -1.0966    2.5377 H   0  0  0  0  0  0  0  0  0  0  0  0
    2.4584   -0.4578    2.6624 H   0  0  0  0  0  0  0  0  0  0  0  0
    2.3264   -2.6375    2.5945 C   0  0  0  0  0  0  0  0  0  0  0  0
    2.3255   -2.7424    3.6978 H   0  0  0  0  0  0  0  0  0  0  0  0
    3.3588   -2.8394    2.2419 H   0  0  0  0  0  0  0  0  0  0  0  0
    1.6612   -3.4219    2.1832 H   0  0  0  0  0  0  0  0  0  0  0  0
    3.4679   -1.6467   -1.2674 C   0  0  0  0  0  0  0  0  0  0  0  0
    4.4392   -1.3480   -1.7170 H   0  0  0  0  0  0  0  0  0  0  0  0
    2.6827   -1.3043   -1.9762 H   0  0  0  0  0  0  0  0  0  0  0  0
    3.4088   -3.1664   -1.1205 C   0  0  0  0  0  0  0  0  0  0  0  0
    3.5621   -3.6658   -2.0976 H   0  0  0  0  0  0  0  0  0  0  0  0
    2.4263   -3.5045   -0.7338 H   0  0  0  0  0  0  0  0  0  0  0  0
    4.1893   -3.5367   -0.4237 H   0  0  0  0  0  0  0  0  0  0  0  0
   -3.5800    0.8067   -1.7397 C   0  0  0  0  0  0  0  0  0  0  0  0
   -4.2474    0.7418   -0.8617 H   0  0  0  0  0  0  0  0  0  0  0  0
   -3.7338   -0.0916   -2.3636 H   0  0  0  0  0  0  0  0  0  0  0  0
   -3.8457    1.7030   -2.3453 H   0  0  0  0  0  0  0  0  0  0  0  0
   -1.2864    0.9756   -2.4746 C   0  0  0  0  0  0  0  0  0  0  0  0
   -0.2293    0.9668   -2.1541 H   0  0  0  0  0  0  0  0  0  0  0  0
   -1.4942    1.9266   -3.0159 H   0  0  0  0  0  0  0  0  0  0  0  0
   -1.4551    0.1218   -3.1562 H   0  0  0  0  0  0  0  0  0  0  0  0
  1 18  1  0  0  0  0
  2 19  1  0  0  0  0
  3  1  1  6  0  0  0
  3  4  1  0  0  0  0
  4  5  1  6  0  0  0
  4 28  1  0  0  0  0
  6  4  1  0  0  0  0
  6  7  1  1  0  0  0
  8 17  1  0  0  0  0
  8  6  1  0  0  0  0
  9  8  2  0  0  0  0
 10  9  1  0  0  0  0
 11 13  2  0  0  0  0
 11  9  1  0  0  0  0
 12 11  1  0  0  0  0
 13 15  1  0  0  0  0
 14 13  1  0  0  0  0
 15 16  1  0  0  0  0
 15 17  2  0  0  0  0
 17  3  1  0  0  0  0
 18 26  1  0  0  0  0
 19 20  1  0  0  0  0
 19 18  2  0  0  0  0
 20 22  2  0  0  0  0
 21 20  1  0  0  0  0
 22 23  1  0  0  0  0
 22 24  1  0  0  0  0
 24 25  1  0  0  0  0
 26 24  2  0  0  0  0
 26 27  1  0  0  0  0
 28 29  1  0  0  0  0
 28 31  1  0  0  0  0
 28 30  1  0  0  0  0
 31 32  1  0  0  0  0
 33 31  1  0  0  0  0
 34 31  1  0  0  0  0
 35 38  1  0  0  0  0
 35  6  1  0  0  0  0
 36 35  1  0  0  0  0
 37 35  1  0  0  0  0
 38 40  1  0  0  0  0
 38 41  1  0  0  0  0
 39 38  1  0  0  0  0
 42  2  1  0  0  0  0
 42 43  1  0  0  0  0
 44 42  1  0  0  0  0
 45 42  1  0  0  0  0
 46 47  1  0  0  0  0
 46  2  1  0  0  0  0
 48 46  1  0  0  0  0
 49 46  1  0  0  0  0
M  END
