1,4
q = 0.0, confidence = 0.996

 26 27  0  0  1  0  0  0  0  0999 V2000
   -1.2687    0.7176   -1.6781 N   0  0  0  0  0  0  0  0  0  0  0  0
   -1.3582    1.7375   -1.5478 H   0  0  0  0  0  0  0  0  0  0  0  0
   -0.9184    0.5957   -2.6387 H   0  0  0  0  0  0  0  0  0  0  0  0
   -1.8327   -0.4173    0.7830 N   0  0  0  0  0  2  0  0  0  0  0  0
   -2.5892    0.0780   -1.5147 C   0  0  2  0  0  0  0  0  0  0  0  0
   -2.4973   -0.9395   -1.9569 H   0  0  0  0  0  0  0  0  0  0  0  0
   -3.7150    0.8074   -2.2541 C   0  0  0  0  0  0  0  0  0  0  0  0
   -3.4852    0.8278   -3.3393 H   0  0  0  0  0  0  0  0  0  0  0  0
   -3.7491    1.8662   -1.9107 H   0  0  0  0  0  0  0  0  0  0  0  0
   -5.0574    0.1291   -1.9839 C   0  0  0  0  0  0  0  0  0  0  0  0
   -5.0067   -0.9321   -2.3113 H   0  0  0  0  0  0  0  0  0  0  0  0
   -5.8618    0.6020   -2.5803 H   0  0  0  0  0  0  0  0  0  0  0  0
   -5.3915    0.2011   -0.4935 C   0  0  0  0  0  0  0  0  0  0  0  0
   -5.7156    1.2350   -0.2362 H   0  0  0  0  0  0  0  0  0  0  0  0
   -6.2571   -0.4477   -0.2491 H   0  0  0  0  0  0  0  0  0  0  0  0
   -4.2295   -0.1569    0.4093 C   0  0  0  0  0  0  0  0  0  0  0  0
   -4.4547   -0.4839    1.7588 C   0  0  0  0  0  0  0  0  0  0  0  0
   -5.4832   -0.5024    2.1518 H   0  0  0  0  0  0  0  0  0  0  0  0
   -3.3793   -0.7965    2.5842 C   0  0  0  0  0  0  0  0  0  0  0  0
   -3.5402   -1.0765    3.6346 H   0  0  0  0  0  0  0  0  0  0  0  0
   -2.0627   -0.7577    2.0824 C   0  0  2  0  0  3  0  0  0  0  0  0
   -2.8917   -0.1492   -0.0375 C   0  0  0  0  0  0  0  0  0  0  0  0
   -0.9148   -1.0903    2.9823 C   0  0  0  0  0  0  0  0  0  0  0  0
   -0.2280   -0.2299    3.1049 H   0  0  0  0  0  0  0  0  0  0  0  0
   -0.2957   -1.9044    2.5596 H   0  0  0  0  0  0  0  0  0  0  0  0
   -1.2790   -1.3977    3.9790 H   0  0  0  0  0  0  0  0  0  0  0  0
  1  2  1  0  0  0  0
  1  5  1  0  0  0  0
  3  1  1  0  0  0  0
  4 21  1  0  0  0  0
  5  6  1  6  0  0  0
  5 22  1  0  0  0  0
  7 10  1  0  0  0  0
  7  9  1  0  0  0  0
  7  5  1  0  0  0  0
  8  7  1  0  0  0  0
 10 13  1  0  0  0  0
 11 10  1  0  0  0  0
 12 10  1  0  0  0  0
 13 15  1  0  0  0  0
 13 14  1  0  0  0  0
 13 16  1  0  0  0  0
 16 17  1  0  0  0  0
 17 18  1  0  0  0  0
 17 19  2  0  0  0  0
 19 20  1  0  0  0  0
 21 19  1  0  0  0  0
 21 23  1  1  0  0  0
 22 16  2  0  0  0  0
 22  4  1  0  0  0  0
 23 24  1  0  0  0  0
 23 26  1  0  0  0  0
 25 23  1  0  0  0  0
M  END
