1,21
q = 0.0, confidence = 1.0

 30 32  0  0  1  0  0  0  0  0999 V2000
   -0.7968   -1.2342    0.2650 N   0  0  0  0  0  2  0  0  0  0  0  0
   -1.0154   -2.2489    1.1094 C   0  0  0  0  0  0  0  0  0  0  0  0
   -0.1305   -2.8609    1.3444 H   0  0  0  0  0  0  0  0  0  0  0  0
   -2.2903   -2.5304    1.6527 C   0  0  0  0  0  0  0  0  0  0  0  0
   -2.4005   -3.3760    2.3460 H   0  0  0  0  0  0  0  0  0  0  0  0
   -3.3607   -1.7185    1.3194 C   0  0  0  0  0  0  0  0  0  0  0  0
   -4.3599   -1.8842    1.7507 H   0  0  0  0  0  0  0  0  0  0  0  0
   -3.1762   -0.6598    0.3859 C   0  0  0  0  0  0  0  0  0  0  0  0
   -4.2434    0.1929   -0.0157 C   0  0  0  0  0  0  0  0  0  0  0  0
   -5.2378    0.0403    0.4299 H   0  0  0  0  0  0  0  0  0  0  0  0
   -4.0303    1.1849   -0.9599 C   0  0  0  0  0  0  0  0  0  0  0  0
   -4.8567    1.8403   -1.2725 H   0  0  0  0  0  0  0  0  0  0  0  0
   -2.7576    1.3361   -1.5617 C   0  0  0  0  0  0  0  0  0  0  0  0
   -2.6072    2.0793   -2.3585 H   0  0  0  0  0  0  0  0  0  0  0  0
   -1.6894    0.5210   -1.1959 C   0  0  0  0  0  0  0  0  0  0  0  0
   -1.8578   -0.4683   -0.1667 C   0  0  2  0  0  3  0  0  0  0  0  0
   -0.4944    0.5693   -1.8561 O   0  0  0  0  0  0  0  0  0  0  0  0
    0.2725    1.7672   -1.7729 C   0  0  0  0  0  0  0  0  0  0  0  0
   -0.1989    2.6019   -2.3378 H   0  0  0  0  0  0  0  0  0  0  0  0
    1.2441    1.5135   -2.2470 H   0  0  0  0  0  0  0  0  0  0  0  0
    0.8691    1.2166    0.5329 N   0  0  0  0  0  2  0  0  0  0  0  0
    0.5230    2.1894   -0.3440 C   0  0  1  0  0  3  0  0  0  0  0  0
    0.4240    3.5280    0.0630 C   0  0  0  0  0  0  0  0  0  0  0  0
    0.1288    4.2926   -0.6705 H   0  0  0  0  0  0  0  0  0  0  0  0
    0.7039    3.8701    1.3920 C   0  0  0  0  0  0  0  0  0  0  0  0
    0.6368    4.9161    1.7261 H   0  0  0  0  0  0  0  0  0  0  0  0
    1.0633    2.8527    2.2865 C   0  0  0  0  0  0  0  0  0  0  0  0
    1.2926    3.0664    3.3398 H   0  0  0  0  0  0  0  0  0  0  0  0
    1.1341    1.5375    1.8175 C   0  0  0  0  0  0  0  0  0  0  0  0
    1.4251    0.7024    2.4707 H   0  0  0  0  0  0  0  0  0  0  0  0
  1  2  1  0  0  0  0
  2  3  1  0  0  0  0
  2  4  2  0  0  0  0
  4  5  1  0  0  0  0
  6  4  1  0  0  0  0
  6  7  1  0  0  0  0
  8  6  2  0  0  0  0
  9  8  1  0  0  0  0
  9 10  1  0  0  0  0
 11  9  2  0  0  0  0
 12 11  1  0  0  0  0
 13 15  2  0  0  0  0
 13 11  1  0  0  0  0
 14 13  1  0  0  0  0
 16 15  1  6  0  0  0
 16  1  1  0  0  0  0
 16  8  1  0  0  0  0
 17 18  1  0  0  0  0
 17 15  1  0  0  0  0
 19 18  1  0  0  0  0
 20 18  1  0  0  0  0
 21 29  1  0  0  0  0
 22 18  1  6  0  0  0
 22 23  1  0  0  0  0
 22 21  1  0  0  0  0
 23 25  2  0  0  0  0
 24 23  1  0  0  0  0
 25 26  1  0  0  0  0
 25 27  1  0  0  0  0
 27 28  1  0  0  0  0
 29 27  2  0  0  0  0
 29 30  1  0  0  0  0
M  END
