1,4
q = 0.0, confidence = 0.918

 21 21  0  0  0  0  0  0  0  0999 V2000
   -1.1975   -1.4046   -0.4410 N   0  0  0  0  0  2  0  0  0  0  0  0
   -0.7176   -2.6070   -0.7035 N   0  0  0  0  0  0  0  0  0  0  0  0
    0.6377   -2.5577   -0.7167 C   0  0  0  0  0  0  0  0  0  0  0  0
    1.2081   -1.3760   -0.5188 N   0  0  0  0  0  2  0  0  0  0  0  0
    1.4397   -4.0983   -1.0243 S   0  0  0  0  0  0  0  0  0  0  0  0
   -2.6139   -1.3233   -0.4655 C   0  0  0  0  0  0  0  0  0  0  0  0
   -3.2892   -0.5140    0.4751 C   0  0  0  0  0  0  0  0  0  0  0  0
   -4.6863   -0.4066    0.4210 C   0  0  0  0  0  0  0  0  0  0  0  0
   -5.4181   -1.1007   -0.5563 C   0  0  0  0  0  0  0  0  0  0  0  0
   -4.7434   -1.9237   -1.4756 C   0  0  0  0  0  0  0  0  0  0  0  0
   -3.3501   -2.0435   -1.4318 C   0  0  0  0  0  0  0  0  0  0  0  0
    3.1791   -3.5934   -0.8808 C   0  0  0  0  0  0  0  0  0  0  0  0
    2.2335   -1.3076   -0.5169 H   0  0  0  0  0  0  0  0  0  0  0  0
   -2.7061   -0.0249    1.2703 H   0  0  0  0  0  0  0  0  0  0  0  0
   -5.2086    0.2121    1.1668 H   0  0  0  0  0  0  0  0  0  0  0  0
   -6.5141   -1.0117   -0.5948 H   0  0  0  0  0  0  0  0  0  0  0  0
   -5.3111   -2.4772   -2.2391 H   0  0  0  0  0  0  0  0  0  0  0  0
   -2.8024   -2.6815   -2.1388 H   0  0  0  0  0  0  0  0  0  0  0  0
    3.7747   -4.5128   -1.0324 H   0  0  0  0  0  0  0  0  0  0  0  0
    3.4589   -2.8559   -1.6600 H   0  0  0  0  0  0  0  0  0  0  0  0
    3.3980   -3.1872    0.1271 H   0  0  0  0  0  0  0  0  0  0  0  0
  2  1  1  0  0  0  0
  3  2  2  0  0  0  0
  3  4  1  0  0  0  0
  4 13  1  0  0  0  0
  5 12  1  0  0  0  0
  5  3  1  0  0  0  0
  6  1  1  0  0  0  0
  6  7  1  0  0  0  0
  7 14  1  0  0  0  0
  8  7  2  0  0  0  0
  8 15  1  0  0  0  0
  9  8  1  0  0  0  0
 10 11  1  0  0  0  0
 10  9  2  0  0  0  0
 11  6  2  0  0  0  0
 12 21  1  0  0  0  0
 16  9  1  0  0  0  0
 17 10  1  0  0  0  0
 18 11  1  0  0  0  0
 19 12  1  0  0  0  0
 20 12  1  0  0  0  0
M  END
