6,7
q = 0.0, confidence = 1.0

 30 32  0  0  0  0  0  0  0  0999 V2000
   -3.2944    1.9741   -1.0788 N   0  0  0  0  0  0  0  0  0  0  0  0
   -3.6556    0.7971   -0.5090 N   0  0  0  0  0  0  0  0  0  0  0  0
   -2.3760   -1.2666    0.3835 C   0  0  0  0  0  0  0  0  0  0  0  0
   -0.7492   -2.8013    1.0923 C   0  0  0  0  0  0  0  0  0  0  0  0
    0.3242   -2.9909    1.2487 H   0  0  0  0  0  0  0  0  0  0  0  0
   -1.0604   -1.5855    0.5997 N   0  0  0  0  0  2  0  0  0  0  0  0
   -1.4656    0.8125   -0.5039 N   0  0  0  0  0  2  0  0  0  0  0  0
   -2.5472    0.0783   -0.1669 C   0  0  0  0  0  0  0  0  0  0  0  0
   -5.0431    0.4989   -0.3054 C   0  0  0  0  0  0  0  0  0  0  0  0
   -3.4039   -2.1915    0.6424 C   0  0  0  0  0  0  0  0  0  0  0  0
   -4.4494   -1.9234    0.4456 H   0  0  0  0  0  0  0  0  0  0  0  0
   -3.0702   -3.4542    1.1475 C   0  0  0  0  0  0  0  0  0  0  0  0
   -3.8603   -4.1912    1.3521 H   0  0  0  0  0  0  0  0  0  0  0  0
   -1.7231   -3.7631    1.3851 C   0  0  0  0  0  0  0  0  0  0  0  0
   -1.4198   -4.7405    1.7855 H   0  0  0  0  0  0  0  0  0  0  0  0
   -6.8895    0.0538    1.1924 C   0  0  0  0  0  0  0  0  0  0  0  0
   -7.2832   -0.0681    2.2121 H   0  0  0  0  0  0  0  0  0  0  0  0
   -5.5304    0.3414    1.0031 C   0  0  0  0  0  0  0  0  0  0  0  0
   -4.8506    0.4555    1.8603 H   0  0  0  0  0  0  0  0  0  0  0  0
   -7.7477   -0.0552    0.0856 C   0  0  0  0  0  0  0  0  0  0  0  0
   -8.8147   -0.2738    0.2391 H   0  0  0  0  0  0  0  0  0  0  0  0
   -7.2505    0.1275   -1.2153 C   0  0  0  0  0  0  0  0  0  0  0  0
   -7.9255    0.0533   -2.0803 H   0  0  0  0  0  0  0  0  0  0  0  0
   -1.1184    3.0775   -1.5793 C   0  0  0  0  0  0  0  0  0  0  0  0
   -1.7632    3.8535   -2.0276 H   0  0  0  0  0  0  0  0  0  0  0  0
   -0.3950    2.7101   -2.3331 H   0  0  0  0  0  0  0  0  0  0  0  0
   -0.5206    3.5283   -0.7621 H   0  0  0  0  0  0  0  0  0  0  0  0
   -5.8918    0.4064   -1.4193 C   0  0  0  0  0  0  0  0  0  0  0  0
   -5.4840    0.5596   -2.4283 H   0  0  0  0  0  0  0  0  0  0  0  0
   -1.9582    1.9649   -1.0628 C   0  0  0  0  0  0  0  0  0  0  0  0
  1 30  2  0  0  0  0
  1  2  1  0  0  0  0
  2  9  1  0  0  0  0
  2  8  1  0  0  0  0
  3  6  1  0  0  0  0
  3 10  1  0  0  0  0
  4  5  1  0  0  0  0
  4 14  2  0  0  0  0
  6  4  1  0  0  0  0
  7  8  1  0  0  0  0
  8  3  2  0  0  0  0
  9 18  1  0  0  0  0
 10 12  2  0  0  0  0
 11 10  1  0  0  0  0
 12 13  1  0  0  0  0
 12 14  1  0  0  0  0
 14 15  1  0  0  0  0
 16 17  1  0  0  0  0
 18 16  2  0  0  0  0
 18 19  1  0  0  0  0
 20 21  1  0  0  0  0
 20 16  1  0  0  0  0
 22 20  2  0  0  0  0
 23 22  1  0  0  0  0
 24 30  1  0  0  0  0
 24 27  1  0  0  0  0
 25 24  1  0  0  0  0
 26 24  1  0  0  0  0
 28 22  1  0  0  0  0
 28  9  2  0  0  0  0
 29 28  1  0  0  0  0
 30  7  1  0  0  0  0
M  END
