20,28
q = 0.0, confidence = 0.996

 34 36  0  0  0  0  0  0  0  0999 V2000
    1.4645    0.0413    0.9230 N   0  0  0  0  0  0  0  0  0  0  0  0
    2.7831    0.0427    0.4197 C   0  0  0  0  0  0  0  0  0  0  0  0
    3.5874   -1.1255    0.4410 C   0  0  0  0  0  0  0  0  0  0  0  0
    3.2017   -2.0677    0.8490 H   0  0  0  0  0  0  0  0  0  0  0  0
    4.9081   -1.1036   -0.0246 C   0  0  0  0  0  0  0  0  0  0  0  0
    5.5011   -2.0300    0.0174 H   0  0  0  0  0  0  0  0  0  0  0  0
    5.4767    0.0734   -0.5320 C   0  0  0  0  0  0  0  0  0  0  0  0
    6.5118    0.0839   -0.9021 H   0  0  0  0  0  0  0  0  0  0  0  0
    4.6915    1.2340   -0.5619 C   0  0  0  0  0  0  0  0  0  0  0  0
    5.1060    2.1718   -0.9621 H   0  0  0  0  0  0  0  0  0  0  0  0
    3.3686    1.2227   -0.1008 C   0  0  0  0  0  0  0  0  0  0  0  0
    2.7849    2.1453   -0.1755 H   0  0  0  0  0  0  0  0  0  0  0  0
    0.8027   -1.2043    1.2373 C   0  0  0  0  0  0  0  0  0  0  0  0
   -0.0623   -0.9966    1.9037 H   0  0  0  0  0  0  0  0  0  0  0  0
    1.4817   -1.9054    1.7580 H   0  0  0  0  0  0  0  0  0  0  0  0
    0.7856    1.2765    1.2364 C   0  0  0  0  0  0  0  0  0  0  0  0
    1.4976    2.0110    1.6606 H   0  0  0  0  0  0  0  0  0  0  0  0
   -0.0142    1.0622    1.9784 H   0  0  0  0  0  0  0  0  0  0  0  0
    0.2599   -1.9219    0.0760 N   0  0  0  0  0  0  0  0  0  0  0  0
   -0.9646   -1.6025   -0.3938 N   0  0  0  0  0  2  0  0  0  0  0  0
    0.8389   -2.8807   -0.7037 C   0  0  0  0  0  3  0  0  0  0  0  0
    1.8391   -3.2657   -0.4835 H   0  0  0  0  0  0  0  0  0  0  0  0
   -0.0636   -3.1907   -1.7200 C   0  0  0  0  0  0  0  0  0  0  0  0
    0.0690   -3.9246   -2.5208 H   0  0  0  0  0  0  0  0  0  0  0  0
   -1.1789   -2.3567   -1.4812 C   0  0  0  0  0  0  0  0  0  0  0  0
   -2.1301   -2.2377   -2.0168 H   0  0  0  0  0  0  0  0  0  0  0  0
    0.1147    1.9668    0.1169 N   0  0  0  0  0  0  0  0  0  0  0  0
   -1.0329    1.4784   -0.3962 N   0  0  0  0  0  2  0  0  0  0  0  0
    0.4635    3.1288   -0.5082 C   0  0  0  0  0  3  0  0  0  0  0  0
    1.3528    3.6932   -0.2070 H   0  0  0  0  0  0  0  0  0  0  0  0
   -0.5009    3.3867   -1.4807 C   0  0  0  0  0  0  0  0  0  0  0  0
   -0.5374    4.2376   -2.1678 H   0  0  0  0  0  0  0  0  0  0  0  0
   -1.4178    2.3179   -1.3699 C   0  0  0  0  0  0  0  0  0  0  0  0
   -2.3450    2.0910   -1.9134 H   0  0  0  0  0  0  0  0  0  0  0  0
  1 16  1  0  0  0  0
  1 13  1  0  0  0  0
  2  3  1  0  0  0  0
  2  1  1  0  0  0  0
  3  4  1  0  0  0  0
  5  6  1  0  0  0  0
  5  3  2  0  0  0  0
  7  5  1  0  0  0  0
  8  7  1  0  0  0  0
  9  7  2  0  0  0  0
  9 11  1  0  0  0  0
 10  9  1  0  0  0  0
 11  2  2  0  0  0  0
 12 11  1  0  0  0  0
 13 15  1  0  0  0  0
 13 14  1  0  0  0  0
 16 17  1  0  0  0  0
 16 18  1  0  0  0  0
 19 13  1  0  0  0  0
 20 19  1  0  0  0  0
 21 22  1  0  0  0  0
 21 19  1  0  0  0  0
 23 25  2  0  0  0  0
 23 21  1  0  0  0  0
 24 23  1  0  0  0  0
 25 20  1  0  0  0  0
 26 25  1  0  0  0  0
 27 16  1  0  0  0  0
 28 27  1  0  0  0  0
 29 30  1  0  0  0  0
 29 27  1  0  0  0  0
 31 33  2  0  0  0  0
 31 29  1  0  0  0  0
 32 31  1  0  0  0  0
 33 28  1  0  0  0  0
 34 33  1  0  0  0  0
M  END
