1,4
q = -2.0, confidence = 0.834

 42 43  0  0  0  0  0  0  0  0999 V2000
    1.1473   -1.5417    0.1512 N   0  0  0  0  0  2  0  0  0  0  0  0
    0.4427   -2.7971    0.4439 C   0  0  0  0  0  0  0  0  0  0  0  0
   -0.8728   -2.7887   -0.3307 C   0  0  0  0  0  0  0  0  0  0  0  0
   -1.2859   -1.3913   -0.5256 N   0  0  0  0  0  2  0  0  0  0  0  0
    2.4561   -1.3943    0.7020 C   0  0  0  0  0  0  0  0  0  0  0  0
    3.5618   -1.4867   -0.1829 C   0  0  0  0  0  0  0  0  0  0  0  0
    4.8581   -1.3406    0.3454 C   0  0  0  0  0  0  0  0  0  0  0  0
    5.0559   -1.1046    1.7115 C   0  0  0  0  0  0  0  0  0  0  0  0
    3.9533   -1.0048    2.5705 C   0  0  0  0  0  0  0  0  0  0  0  0
    2.6393   -1.1434    2.0875 C   0  0  0  0  0  0  0  0  0  0  0  0
    3.3467   -1.7434   -1.6509 C   0  0  0  0  0  0  0  0  0  0  0  0
    1.4660   -0.9785    3.0183 C   0  0  0  0  0  0  0  0  0  0  0  0
   -2.6769   -1.0941   -0.5119 C   0  0  0  0  0  0  0  0  0  0  0  0
   -3.3365   -0.7759   -1.7263 C   0  0  0  0  0  0  0  0  0  0  0  0
   -4.7096   -0.4703   -1.6805 C   0  0  0  0  0  0  0  0  0  0  0  0
   -5.4116   -0.4742   -0.4682 C   0  0  0  0  0  0  0  0  0  0  0  0
   -4.7454   -0.7844    0.7253 C   0  0  0  0  0  0  0  0  0  0  0  0
   -3.3743   -1.0973    0.7260 C   0  0  0  0  0  0  0  0  0  0  0  0
   -2.5845   -0.7772   -3.0304 C   0  0  0  0  0  0  0  0  0  0  0  0
   -2.6485   -1.3751    2.0166 C   0  0  0  0  0  0  0  0  0  0  0  0
    1.0791   -3.6600    0.1510 H   0  0  0  0  0  0  0  0  0  0  0  0
    0.2555   -2.8897    1.5377 H   0  0  0  0  0  0  0  0  0  0  0  0
   -0.7415   -3.2639   -1.3308 H   0  0  0  0  0  0  0  0  0  0  0  0
   -1.6576   -3.3647    0.2010 H   0  0  0  0  0  0  0  0  0  0  0  0
    5.7221   -1.4162   -0.3334 H   0  0  0  0  0  0  0  0  0  0  0  0
    6.0756   -0.9897    2.1094 H   0  0  0  0  0  0  0  0  0  0  0  0
    4.1072   -0.7966    3.6411 H   0  0  0  0  0  0  0  0  0  0  0  0
    4.3107   -1.8921   -2.1735 H   0  0  0  0  0  0  0  0  0  0  0  0
    2.8097   -0.9033   -2.1402 H   0  0  0  0  0  0  0  0  0  0  0  0
    2.7176   -2.6412   -1.8203 H   0  0  0  0  0  0  0  0  0  0  0  0
    1.7753   -0.4827    3.9582 H   0  0  0  0  0  0  0  0  0  0  0  0
    0.6771   -0.3602    2.5462 H   0  0  0  0  0  0  0  0  0  0  0  0
    1.0072   -1.9510    3.2978 H   0  0  0  0  0  0  0  0  0  0  0  0
   -5.2324   -0.2281   -2.6190 H   0  0  0  0  0  0  0  0  0  0  0  0
   -6.4846   -0.2296   -0.4522 H   0  0  0  0  0  0  0  0  0  0  0  0
   -5.2907   -0.7691    1.6822 H   0  0  0  0  0  0  0  0  0  0  0  0
   -3.2748   -0.6601   -3.8873 H   0  0  0  0  0  0  0  0  0  0  0  0
   -1.8373    0.0424   -3.0732 H   0  0  0  0  0  0  0  0  0  0  0  0
   -2.0107   -1.7153   -3.1702 H   0  0  0  0  0  0  0  0  0  0  0  0
   -3.2720   -1.1045    2.8898 H   0  0  0  0  0  0  0  0  0  0  0  0
   -1.7033   -0.7977    2.0710 H   0  0  0  0  0  0  0  0  0  0  0  0
   -2.3746   -2.4463    2.1260 H   0  0  0  0  0  0  0  0  0  0  0  0
  1  2  1  0  0  0  0
  1  5  1  0  0  0  0
  2 22  1  0  0  0  0
  3 24  1  0  0  0  0
  3  2  1  0  0  0  0
  4 13  1  0  0  0  0
  4  3  1  0  0  0  0
  5 10  1  0  0  0  0
  6  7  1  0  0  0  0
  6  5  2  0  0  0  0
  7  8  2  0  0  0  0
  8 26  1  0  0  0  0
  8  9  1  0  0  0  0
  9 27  1  0  0  0  0
 10  9  2  0  0  0  0
 10 12  1  0  0  0  0
 11  6  1  0  0  0  0
 12 33  1  0  0  0  0
 12 31  1  0  0  0  0
 13 18  1  0  0  0  0
 14 15  1  0  0  0  0
 14 13  2  0  0  0  0
 15 16  2  0  0  0  0
 16 35  1  0  0  0  0
 16 17  1  0  0  0  0
 17 18  2  0  0  0  0
 17 36  1  0  0  0  0
 18 20  1  0  0  0  0
 19 14  1  0  0  0  0
 20 41  1  0  0  0  0
 20 42  1  0  0  0  0
 20 40  1  0  0  0  0
 21  2  1  0  0  0  0
 23  3  1  0  0  0  0
 25  7  1  0  0  0  0
 28 11  1  0  0  0  0
 29 11  1  0  0  0  0
 30 11  1  0  0  0  0
 32 12  1  0  0  0  0
 34 15  1  0  0  0  0
 37 19  1  0  0  0  0
 38 19  1  0  0  0  0
 39 19  1  0  0  0  0
M  END
