4,5
q = -2.0, confidence = 0.844

 47 46  0  0  0  0  0  0  0  0999 V2000
   -1.6407    2.0667   -0.4940 Si  0  0  0  0  0  0  0  0  0  0  0  0
    1.6438    2.0563   -0.5296 Si  0  0  0  0  0  0  0  0  0  0  0  0
    0.0071    2.0307    0.0223 O   0  0  0  0  0  0  0  0  0  0  0  0
   -1.9935    0.4038   -0.1799 N   0  0  0  0  0  2  0  0  0  0  0  0
    1.9848    0.3855   -0.2485 N   0  0  0  0  0  2  0  0  0  0  0  0
   -1.7275    2.6464   -2.2933 C   0  0  0  0  0  0  0  0  0  0  0  0
   -2.4621    3.3871    0.5792 C   0  0  0  0  0  0  0  0  0  0  0  0
    1.6940    2.6746   -2.3168 C   0  0  0  0  0  0  0  0  0  0  0  0
    2.5127    3.3381    0.5534 C   0  0  0  0  0  0  0  0  0  0  0  0
   -3.3357   -0.1949   -0.1926 C   0  0  0  0  0  0  0  0  0  0  0  0
    3.3263   -0.2144   -0.3034 C   0  0  0  0  0  0  0  0  0  0  0  0
   -3.2204   -1.7320   -0.0944 C   0  0  0  0  0  0  0  0  0  0  0  0
   -4.0921    0.1382   -1.4989 C   0  0  0  0  0  0  0  0  0  0  0  0
   -4.1856    0.3008    1.0018 C   0  0  0  0  0  0  0  0  0  0  0  0
    3.2072   -1.7492   -0.4194 C   0  0  0  0  0  0  0  0  0  0  0  0
    4.1262    0.2881   -1.5264 C   0  0  0  0  0  0  0  0  0  0  0  0
    4.1355    0.1076    0.9757 C   0  0  0  0  0  0  0  0  0  0  0  0
   -2.7866    2.7364   -2.6103 H   0  0  0  0  0  0  0  0  0  0  0  0
   -1.2317    1.9298   -2.9773 H   0  0  0  0  0  0  0  0  0  0  0  0
   -1.2538    3.6405   -2.4257 H   0  0  0  0  0  0  0  0  0  0  0  0
   -3.5309    3.5281    0.3175 H   0  0  0  0  0  0  0  0  0  0  0  0
   -1.9502    4.3625    0.4422 H   0  0  0  0  0  0  0  0  0  0  0  0
   -2.4033    3.1112    1.6512 H   0  0  0  0  0  0  0  0  0  0  0  0
    2.7457    2.7768   -2.6533 H   0  0  0  0  0  0  0  0  0  0  0  0
    1.1867    1.9706   -3.0053 H   0  0  0  0  0  0  0  0  0  0  0  0
    1.2131    3.6691   -2.4159 H   0  0  0  0  0  0  0  0  0  0  0  0
    2.4355    3.0580    1.6232 H   0  0  0  0  0  0  0  0  0  0  0  0
    3.5888    3.4294    0.2989 H   0  0  0  0  0  0  0  0  0  0  0  0
    2.0492    4.3380    0.4212 H   0  0  0  0  0  0  0  0  0  0  0  0
   -4.2207   -2.2072   -0.0320 H   0  0  0  0  0  0  0  0  0  0  0  0
   -2.7031   -2.1443   -0.9828 H   0  0  0  0  0  0  0  0  0  0  0  0
   -2.6477   -2.0283    0.8084 H   0  0  0  0  0  0  0  0  0  0  0  0
   -5.0734   -0.3785   -1.5489 H   0  0  0  0  0  0  0  0  0  0  0  0
   -3.4932   -0.1625   -2.3831 H   0  0  0  0  0  0  0  0  0  0  0  0
   -4.2884    1.2276   -1.5778 H   0  0  0  0  0  0  0  0  0  0  0  0
   -5.1818   -0.1889    1.0299 H   0  0  0  0  0  0  0  0  0  0  0  0
   -4.3483    1.3948    0.9437 H   0  0  0  0  0  0  0  0  0  0  0  0
   -3.6654    0.0916    1.9568 H   0  0  0  0  0  0  0  0  0  0  0  0
    4.2059   -2.2324   -0.4154 H   0  0  0  0  0  0  0  0  0  0  0  0
    2.6924   -2.0321   -1.3591 H   0  0  0  0  0  0  0  0  0  0  0  0
    2.6293   -2.1612    0.4326 H   0  0  0  0  0  0  0  0  0  0  0  0
    5.1096   -0.2200   -1.6096 H   0  0  0  0  0  0  0  0  0  0  0  0
    4.3259    1.3777   -1.4512 H   0  0  0  0  0  0  0  0  0  0  0  0
    3.5593    0.1088   -2.4627 H   0  0  0  0  0  0  0  0  0  0  0  0
    5.1466   -0.3511    0.9500 H   0  0  0  0  0  0  0  0  0  0  0  0
    4.2607    1.2017    1.0962 H   0  0  0  0  0  0  0  0  0  0  0  0
    3.6058   -0.2708    1.8713 H   0  0  0  0  0  0  0  0  0  0  0  0
  1  4  1  0  0  0  0
  1  3  1  0  0  0  0
  1  7  1  0  0  0  0
  2  5  1  0  0  0  0
  2  3  1  0  0  0  0
  2  9  1  0  0  0  0
  6  1  1  0  0  0  0
  7 23  1  0  0  0  0
  8  2  1  0  0  0  0
  9 27  1  0  0  0  0
 10  4  1  0  0  0  0
 10 12  1  0  0  0  0
 10 14  1  0  0  0  0
 11  5  1  0  0  0  0
 11 17  1  0  0  0  0
 12 30  1  0  0  0  0
 12 32  1  0  0  0  0
 13 10  1  0  0  0  0
 14 36  1  0  0  0  0
 14 38  1  0  0  0  0
 15 39  1  0  0  0  0
 15 11  1  0  0  0  0
 15 41  1  0  0  0  0
 16 43  1  0  0  0  0
 16 11  1  0  0  0  0
 17 46  1  0  0  0  0
 17 47  1  0  0  0  0
 18  6  1  0  0  0  0
 19  6  1  0  0  0  0
 20  6  1  0  0  0  0
 21  7  1  0  0  0  0
 22  7  1  0  0  0  0
 24  8  1  0  0  0  0
 25  8  1  0  0  0  0
 26  8  1  0  0  0  0
 28  9  1  0  0  0  0
 29  9  1  0  0  0  0
 31 12  1  0  0  0  0
 33 13  1  0  0  0  0
 34 13  1  0  0  0  0
 35 13  1  0  0  0  0
 37 14  1  0  0  0  0
 40 15  1  0  0  0  0
 42 16  1  0  0  0  0
 44 16  1  0  0  0  0
 45 17  1  0  0  0  0
M  END
