1,2
q = 0.0, confidence = 1.0

 30 32  0  0  0  0  0  0  0  0999 V2000
   -3.3676   -1.0560   -1.1103 N   0  0  0  0  0  2  0  0  0  0  0  0
   -1.0460   -2.0464    0.0581 N   0  0  0  0  0  2  0  0  0  0  0  0
   -4.5068   -0.5973   -1.6504 C   0  0  0  0  0  3  0  0  0  0  0  0
   -5.5214   -1.4452   -2.1246 C   0  0  0  0  0  0  0  0  0  0  0  0
   -5.3340   -2.8321   -2.0308 C   0  0  0  0  0  0  0  0  0  0  0  0
   -4.1473   -3.3153   -1.4673 C   0  0  0  0  0  0  0  0  0  0  0  0
   -3.1794   -2.3977   -1.0084 C   0  0  0  0  0  0  0  0  0  0  0  0
   -1.9263   -2.8739   -0.4143 C   0  0  0  0  0  3  0  0  0  0  0  0
    0.1698   -2.4748    0.6145 C   0  0  0  0  0  0  0  0  0  0  0  0
    0.3588   -3.7804    1.1750 C   0  0  0  0  0  0  0  0  0  0  0  0
    1.5951   -4.1505    1.6684 C   0  0  0  0  0  0  0  0  0  0  0  0
    2.7152   -3.2641    1.6167 C   0  0  0  0  0  0  0  0  0  0  0  0
    4.0031   -3.6307    2.0955 C   0  0  0  0  0  0  0  0  0  0  0  0
    5.0665   -2.7396    2.0185 C   0  0  0  0  0  0  0  0  0  0  0  0
    4.8835   -1.4447    1.4628 C   0  0  0  0  0  0  0  0  0  0  0  0
    3.6383   -1.0528    0.9950 C   0  0  0  0  0  0  0  0  0  0  0  0
    2.5267   -1.9448    1.0613 C   0  0  0  0  0  0  0  0  0  0  0  0
    1.2389   -1.5743    0.5949 C   0  0  0  0  0  0  0  0  0  0  0  0
   -1.7591   -3.9697   -0.4217 H   0  0  0  0  0  0  0  0  0  0  0  0
   -3.9605   -4.3957   -1.3749 H   0  0  0  0  0  0  0  0  0  0  0  0
   -4.6126    0.4981   -1.7148 H   0  0  0  0  0  0  0  0  0  0  0  0
   -6.4345   -1.0185   -2.5634 H   0  0  0  0  0  0  0  0  0  0  0  0
   -6.1037   -3.5290   -2.3941 H   0  0  0  0  0  0  0  0  0  0  0  0
   -0.4884   -4.4773    1.2491 H   0  0  0  0  0  0  0  0  0  0  0  0
    1.0856   -0.5726    0.1674 H   0  0  0  0  0  0  0  0  0  0  0  0
    1.7302   -5.1460    2.1185 H   0  0  0  0  0  0  0  0  0  0  0  0
    6.0594   -3.0380    2.3870 H   0  0  0  0  0  0  0  0  0  0  0  0
    4.1468   -4.6345    2.5239 H   0  0  0  0  0  0  0  0  0  0  0  0
    3.4942   -0.0539    0.5590 H   0  0  0  0  0  0  0  0  0  0  0  0
    5.7349   -0.7506    1.4003 H   0  0  0  0  0  0  0  0  0  0  0  0
  1  7  1  0  0  0  0
  2  9  1  0  0  0  0
  3  1  1  0  0  0  0
  4  5  2  0  0  0  0
  4  3  1  0  0  0  0
  5  6  1  0  0  0  0
  6 20  1  0  0  0  0
  6  7  2  0  0  0  0
  7  8  1  0  0  0  0
  8  2  1  0  0  0  0
  9 10  1  0  0  0  0
 10 24  1  0  0  0  0
 10 11  2  0  0  0  0
 11 26  1  0  0  0  0
 12 11  1  0  0  0  0
 12 13  1  0  0  0  0
 13 28  1  0  0  0  0
 14 13  2  0  0  0  0
 14 27  1  0  0  0  0
 15 14  1  0  0  0  0
 16 17  1  0  0  0  0
 16 15  2  0  0  0  0
 17 12  2  0  0  0  0
 18  9  2  0  0  0  0
 18 17  1  0  0  0  0
 19  8  1  0  0  0  0
 21  3  1  0  0  0  0
 22  4  1  0  0  0  0
 23  5  1  0  0  0  0
 25 18  1  0  0  0  0
 29 16  1  0  0  0  0
 30 15  1  0  0  0  0
M  END
