1,5
q = 0.0, confidence = 1.0

 27 28  0  0  0  0  0  0  0  0999 V2000
   -1.4079    1.1850   -0.0006 N   0  0  0  0  0  2  0  0  0  0  0  0
   -0.2034    1.8543    0.0005 C   0  0  0  0  0  0  0  0  0  0  0  0
    0.9495    0.9670    0.0006 C   0  0  0  0  0  0  0  0  0  0  0  0
    1.9790    1.3693    0.0008 H   0  0  0  0  0  0  0  0  0  0  0  0
    0.6790   -0.3090    0.0004 N   0  0  0  0  0  2  0  0  0  0  0  0
    1.7199   -1.3384    0.0003 C   0  0  0  0  0  0  0  0  0  0  0  0
    1.5156   -1.9831   -0.8814 H   0  0  0  0  0  0  0  0  0  0  0  0
    1.5161   -1.9829    0.8821 H   0  0  0  0  0  0  0  0  0  0  0  0
    3.1455   -0.8455   -0.0002 C   0  0  0  0  0  0  0  0  0  0  0  0
    3.8140   -0.5825    1.2126 C   0  0  0  0  0  0  0  0  0  0  0  0
    3.3014   -0.7858    2.1665 H   0  0  0  0  0  0  0  0  0  0  0  0
    5.1207   -0.0719    1.2140 C   0  0  0  0  0  0  0  0  0  0  0  0
    5.6326    0.1218    2.1688 H   0  0  0  0  0  0  0  0  0  0  0  0
    5.7762    0.1850   -0.0009 C   0  0  0  0  0  0  0  0  0  0  0  0
    6.8027    0.5818   -0.0012 H   0  0  0  0  0  0  0  0  0  0  0  0
    5.1200   -0.0719   -1.2154 C   0  0  0  0  0  0  0  0  0  0  0  0
    5.6313    0.1218   -2.1706 H   0  0  0  0  0  0  0  0  0  0  0  0
    3.8133   -0.5825   -1.2133 C   0  0  0  0  0  0  0  0  0  0  0  0
    3.3001   -0.7857   -2.1669 H   0  0  0  0  0  0  0  0  0  0  0  0
   -0.1343    3.2570    0.0014 C   0  0  0  0  0  0  0  0  0  0  0  0
    0.8497    3.7489    0.0022 H   0  0  0  0  0  0  0  0  0  0  0  0
   -1.3229    3.9982    0.0012 C   0  0  0  0  0  0  0  0  0  0  0  0
   -1.2973    5.0976    0.0019 H   0  0  0  0  0  0  0  0  0  0  0  0
   -2.5470    3.3050    0.0000 C   0  0  0  0  0  0  0  0  0  0  0  0
   -3.5057    3.8437   -0.0002 H   0  0  0  0  0  0  0  0  0  0  0  0
   -2.5508    1.9054   -0.0008 C   0  0  0  0  0  0  0  0  0  0  0  0
   -3.4842    1.3072   -0.0018 H   0  0  0  0  0  0  0  0  0  0  0  0
  1  2  1  0  0  0  0
  2  3  2  0  0  0  0
  2 20  1  0  0  0  0
  3  4  1  0  0  0  0
  5  3  1  0  0  0  0
  6  5  1  0  0  0  0
  6  8  1  0  0  0  0
  7  6  1  0  0  0  0
  9  6  1  0  0  0  0
  9 10  1  0  0  0  0
 10 12  2  0  0  0  0
 10 11  1  0  0  0  0
 12 13  1  0  0  0  0
 14 12  1  0  0  0  0
 15 14  1  0  0  0  0
 16 18  1  0  0  0  0
 16 14  2  0  0  0  0
 17 16  1  0  0  0  0
 18  9  2  0  0  0  0
 19 18  1  0  0  0  0
 20 21  1  0  0  0  0
 22 20  2  0  0  0  0
 22 23  1  0  0  0  0
 24 22  1  0  0  0  0
 25 24  1  0  0  0  0
 26  1  1  0  0  0  0
 26 24  2  0  0  0  0
 27 26  1  0  0  0  0
M  END
