3,4
q = 0.0, confidence = 0.966

 56 59  0  0  0  0  0  0  0  0999 V2000
    6.8076   -1.2009   -0.0056 O   0  0  0  0  0  0  0  0  0  0  0  0
   -6.8940   -0.5290   -0.2925 O   0  0  0  0  0  0  0  0  0  0  0  0
    1.2797   -0.3726   -0.1042 N   0  0  0  0  0  2  0  0  0  0  0  0
   -1.3179   -0.2545   -0.0075 N   0  0  0  0  0  2  0  0  0  0  0  0
    0.7650    0.8538   -0.0689 C   0  0  0  0  0  0  0  0  0  0  0  0
   -0.6934    0.9206   -0.0284 C   0  0  0  0  0  0  0  0  0  0  0  0
    1.5955    2.0883   -0.1004 C   0  0  0  0  0  0  0  0  0  0  0  0
    2.5211    2.2943   -1.1468 C   0  0  0  0  0  0  0  0  0  0  0  0
    2.6389    1.5268   -1.9254 H   0  0  0  0  0  0  0  0  0  0  0  0
    3.2855    3.4664   -1.1935 C   0  0  0  0  0  0  0  0  0  0  0  0
    3.9982    3.6183   -2.0179 H   0  0  0  0  0  0  0  0  0  0  0  0
    3.1459    4.4423   -0.1924 C   0  0  0  0  0  0  0  0  0  0  0  0
    3.7508    5.3609   -0.2291 H   0  0  0  0  0  0  0  0  0  0  0  0
    2.2324    4.2418    0.8541 C   0  0  0  0  0  0  0  0  0  0  0  0
    2.1189    5.0009    1.6425 H   0  0  0  0  0  0  0  0  0  0  0  0
    1.4563    3.0757    0.8980 C   0  0  0  0  0  0  0  0  0  0  0  0
    0.7365    2.9248    1.7157 H   0  0  0  0  0  0  0  0  0  0  0  0
   -1.4056    2.2258    0.0267 C   0  0  0  0  0  0  0  0  0  0  0  0
   -2.3061    2.4977    1.0800 C   0  0  0  0  0  0  0  0  0  0  0  0
   -2.4934    1.7297    1.8445 H   0  0  0  0  0  0  0  0  0  0  0  0
   -2.9576    3.7349    1.1510 C   0  0  0  0  0  0  0  0  0  0  0  0
   -3.6522    3.9374    1.9800 H   0  0  0  0  0  0  0  0  0  0  0  0
   -2.7294    4.7118    0.1674 C   0  0  0  0  0  0  0  0  0  0  0  0
   -3.2468    5.6815    0.2223 H   0  0  0  0  0  0  0  0  0  0  0  0
   -1.8403    4.4466   -0.8857 C   0  0  0  0  0  0  0  0  0  0  0  0
   -1.6586    5.2061   -1.6609 H   0  0  0  0  0  0  0  0  0  0  0  0
   -1.1764    3.2143   -0.9538 C   0  0  0  0  0  0  0  0  0  0  0  0
   -0.4755    3.0121   -1.7767 H   0  0  0  0  0  0  0  0  0  0  0  0
    2.6802   -0.5775   -0.0446 C   0  0  0  0  0  0  0  0  0  0  0  0
    3.4406   -0.0473    1.0143 C   0  0  0  0  0  0  0  0  0  0  0  0
    2.9367    0.5123    1.8145 H   0  0  0  0  0  0  0  0  0  0  0  0
    4.8246   -0.2446    1.0713 C   0  0  0  0  0  0  0  0  0  0  0  0
    5.3875    0.1629    1.9210 H   0  0  0  0  0  0  0  0  0  0  0  0
    5.4710   -0.9674    0.0445 C   0  0  0  0  0  0  0  0  0  0  0  0
    4.7065   -1.5048   -1.0153 C   0  0  0  0  0  0  0  0  0  0  0  0
    5.2272   -2.0755   -1.7971 H   0  0  0  0  0  0  0  0  0  0  0  0
    3.3247   -1.3361   -1.0486 C   0  0  0  0  0  0  0  0  0  0  0  0
    2.7256   -1.7702   -1.8587 H   0  0  0  0  0  0  0  0  0  0  0  0
    7.6214   -0.7026    1.0400 C   0  0  0  0  0  0  0  0  0  0  0  0
    7.5765    0.4077    1.1070 H   0  0  0  0  0  0  0  0  0  0  0  0
    8.6573   -1.0070    0.8022 H   0  0  0  0  0  0  0  0  0  0  0  0
    7.3360   -1.1316    2.0265 H   0  0  0  0  0  0  0  0  0  0  0  0
   -2.7297   -0.3353   -0.0672 C   0  0  0  0  0  0  0  0  0  0  0  0
   -3.4299   -1.0827    0.8997 C   0  0  0  0  0  0  0  0  0  0  0  0
   -2.8667   -1.5960    1.6887 H   0  0  0  0  0  0  0  0  0  0  0  0
   -4.8281   -1.1497    0.8703 C   0  0  0  0  0  0  0  0  0  0  0  0
   -5.3475   -1.7257    1.6470 H   0  0  0  0  0  0  0  0  0  0  0  0
   -5.5432   -0.5072   -0.1619 C   0  0  0  0  0  0  0  0  0  0  0  0
   -4.8377    0.2145   -1.1534 C   0  0  0  0  0  0  0  0  0  0  0  0
   -5.4107    0.6880   -1.9631 H   0  0  0  0  0  0  0  0  0  0  0  0
   -3.4507    0.3059   -1.1010 C   0  0  0  0  0  0  0  0  0  0  0  0
   -2.9068    0.8594   -1.8787 H   0  0  0  0  0  0  0  0  0  0  0  0
   -7.6518   -1.2732    0.6450 C   0  0  0  0  0  0  0  0  0  0  0  0
   -7.3763   -2.3510    0.6354 H   0  0  0  0  0  0  0  0  0  0  0  0
   -8.7105   -1.1682    0.3443 H   0  0  0  0  0  0  0  0  0  0  0  0
   -7.5290   -0.8821    1.6798 H   0  0  0  0  0  0  0  0  0  0  0  0
  1 34  1  0  0  0  0
  1 39  1  0  0  0  0
  2 48  1  0  0  0  0
  2 53  1  0  0  0  0
  3  5  1  0  0  0  0
  3 29  1  0  0  0  0
  5  6  2  0  0  0  0
  6  4  1  0  0  0  0
  6 18  1  0  0  0  0
  7  5  1  0  0  0  0
  7 16  1  0  0  0  0
  8  7  2  0  0  0  0
  9  8  1  0  0  0  0
 10  8  1  0  0  0  0
 10 12  2  0  0  0  0
 11 10  1  0  0  0  0
 12 14  1  0  0  0  0
 13 12  1  0  0  0  0
 14 16  2  0  0  0  0
 14 15  1  0  0  0  0
 16 17  1  0  0  0  0
 18 19  1  0  0  0  0
 19 21  2  0  0  0  0
 19 20  1  0  0  0  0
 21 22  1  0  0  0  0
 23 24  1  0  0  0  0
 23 21  1  0  0  0  0
 25 23  2  0  0  0  0
 26 25  1  0  0  0  0
 27 25  1  0  0  0  0
 27 18  2  0  0  0  0
 28 27  1  0  0  0  0
 29 30  1  0  0  0  0
 30 32  2  0  0  0  0
 30 31  1  0  0  0  0
 32 33  1  0  0  0  0
 34 32  1  0  0  0  0
 35 34  2  0  0  0  0
 36 35  1  0  0  0  0
 37 35  1  0  0  0  0
 37 29  2  0  0  0  0
 38 37  1  0  0  0  0
 39 40  1  0  0  0  0
 39 42  1  0  0  0  0
 41 39  1  0  0  0  0
 43  4  1  0  0  0  0
 43 44  1  0  0  0  0
 44 45  1  0  0  0  0
 46 44  2  0  0  0  0
 46 47  1  0  0  0  0
 48 46  1  0  0  0  0
 49 51  1  0  0  0  0
 49 48  2  0  0  0  0
 50 49  1  0  0  0  0
 51 43  2  0  0  0  0
 52 51  1  0  0  0  0
 53 56  1  0  0  0  0
 54 53  1  0  0  0  0
 55 53  1  0  0  0  0
M  END
