3,11
q = 0.0, confidence = 0.546

 32 33  0  0  0  0  0  0  0  0999 V2000
    4.4690   -1.2172   -0.7879 S   0  0  0  0  0  0  0  0  0  0  0  0
   -2.2500   -1.5284   -1.7336 S   0  0  0  0  0  0  0  0  0  0  0  0
   -0.4368   -0.4136    0.2868 N   0  0  0  0  0  2  0  0  0  0  0  0
    0.4981   -1.3918    0.3084 C   0  0  0  0  0  0  0  0  0  0  0  0
   -4.0478   -1.3566    0.4472 C   0  0  0  0  0  0  0  0  0  0  0  0
   -4.8433   -1.7647   -0.1907 H   0  0  0  0  0  0  0  0  0  0  0  0
   -3.7693   -2.2061   -2.4569 C   0  0  0  0  0  0  0  0  0  0  0  0
   -3.5104   -2.4557   -3.5034 H   0  0  0  0  0  0  0  0  0  0  0  0
   -4.5943   -1.4663   -2.4604 H   0  0  0  0  0  0  0  0  0  0  0  0
   -4.0925   -3.1310   -1.9393 H   0  0  0  0  0  0  0  0  0  0  0  0
    1.7427    0.3045   -0.6987 N   0  0  0  0  0  2  0  0  0  0  0  0
    1.4350   -3.5945    0.6708 C   0  0  0  0  0  0  0  0  0  0  0  0
    1.3309   -4.6359    1.0108 H   0  0  0  0  0  0  0  0  0  0  0  0
   -2.0521   -0.2949    2.1174 C   0  0  0  0  0  0  0  0  0  0  0  0
   -1.2464    0.1397    2.7283 H   0  0  0  0  0  0  0  0  0  0  0  0
    2.8885   -1.8445   -0.2438 C   0  0  0  0  0  0  0  0  0  0  0  0
    1.7652   -0.9527   -0.2389 C   0  0  0  0  0  0  0  0  0  0  0  0
   -3.3493   -0.4839    2.6137 C   0  0  0  0  0  0  0  0  0  0  0  0
   -3.5838   -0.2131    3.6538 H   0  0  0  0  0  0  0  0  0  0  0  0
   -2.7478   -1.1699   -0.0663 C   0  0  0  0  0  0  0  0  0  0  0  0
   -1.7460   -0.6400    0.7902 C   0  0  0  0  0  0  0  0  0  0  0  0
    0.3474   -2.7357    0.7526 C   0  0  0  0  0  0  0  0  0  0  0  0
   -0.6200   -3.0689    1.1536 H   0  0  0  0  0  0  0  0  0  0  0  0
    2.7055   -3.1514    0.1929 C   0  0  0  0  0  0  0  0  0  0  0  0
    3.5645   -3.8384    0.1928 H   0  0  0  0  0  0  0  0  0  0  0  0
   -4.3420   -1.0174    1.7766 C   0  0  0  0  0  0  0  0  0  0  0  0
   -5.3636   -1.1701    2.1562 H   0  0  0  0  0  0  0  0  0  0  0  0
    4.9066   -0.2197    0.6919 C   0  0  0  0  0  0  0  0  0  0  0  0
    5.7917    0.3854    0.4162 H   0  0  0  0  0  0  0  0  0  0  0  0
    5.1618   -0.8818    1.5413 H   0  0  0  0  0  0  0  0  0  0  0  0
    4.0723    0.4509    0.9797 H   0  0  0  0  0  0  0  0  0  0  0  0
    2.6360    0.6074   -1.1167 H   0  0  0  0  0  0  0  0  0  0  0  0
  1 16  1  0  0  0  0
  1 28  1  0  0  0  0
  2 20  1  0  0  0  0
  3  4  1  0  0  0  0
  3 21  1  0  0  0  0
  4 22  1  0  0  0  0
  5 26  1  0  0  0  0
  6  5  1  0  0  0  0
  7 10  1  0  0  0  0
  7  2  1  0  0  0  0
  8  7  1  0  0  0  0
  9  7  1  0  0  0  0
 11 17  1  0  0  0  0
 12 22  2  0  0  0  0
 12 13  1  0  0  0  0
 14 18  1  0  0  0  0
 14 15  1  0  0  0  0
 16 17  1  0  0  0  0
 16 24  2  0  0  0  0
 17  4  2  0  0  0  0
 18 19  1  0  0  0  0
 20  5  2  0  0  0  0
 20 21  1  0  0  0  0
 21 14  2  0  0  0  0
 22 23  1  0  0  0  0
 24 12  1  0  0  0  0
 25 24  1  0  0  0  0
 26 27  1  0  0  0  0
 26 18  2  0  0  0  0
 28 31  1  0  0  0  0
 28 30  1  0  0  0  0
 29 28  1  0  0  0  0
 32 11  1  0  0  0  0
M  END
