1,3
q = 0.0, confidence = 0.996

 35 36  0  0  1  0  0  0  0  0999 V2000
   -2.3004    0.0301    0.2569 N   0  0  0  0  0  0  0  0  0  0  0  0
   -2.7197    0.3970    1.1205 H   0  0  0  0  0  0  0  0  0  0  0  0
    0.4683   -0.6494    0.6297 N   0  0  0  0  0  0  0  0  0  0  0  0
   -3.3059    0.0569   -0.8385 C   0  0  0  0  0  0  0  0  0  0  0  0
   -2.7515    0.1441   -1.7974 H   0  0  0  0  0  0  0  0  0  0  0  0
   -3.9469    0.9538   -0.7381 H   0  0  0  0  0  0  0  0  0  0  0  0
   -4.0419   -1.2789   -0.7182 C   0  0  0  0  0  0  0  0  0  0  0  0
   -4.7850   -1.2378    0.1072 H   0  0  0  0  0  0  0  0  0  0  0  0
   -4.5843   -1.5599   -1.6421 H   0  0  0  0  0  0  0  0  0  0  0  0
   -2.9013   -2.2514   -0.3736 C   0  0  0  0  0  0  0  0  0  0  0  0
   -2.4053   -2.5970   -1.3043 H   0  0  0  0  0  0  0  0  0  0  0  0
   -3.2448   -3.1519    0.1707 H   0  0  0  0  0  0  0  0  0  0  0  0
   -1.9055   -1.4049    0.4636 C   0  0  1  0  0  0  0  0  0  0  0  0
   -2.0125   -1.6373    1.5423 H   0  0  0  0  0  0  0  0  0  0  0  0
   -0.4506   -1.6315    0.0287 C   0  0  0  0  0  0  0  0  0  0  0  0
   -0.1712   -2.6857    0.2558 H   0  0  0  0  0  0  0  0  0  0  0  0
   -0.3819   -1.4836   -1.0696 H   0  0  0  0  0  0  0  0  0  0  0  0
    0.4981   -0.6485    2.1200 C   0  0  0  0  0  0  0  0  0  0  0  0
   -0.5185   -0.3963    2.4824 H   0  0  0  0  0  0  0  0  0  0  0  0
    1.1176    0.2146    2.4254 H   0  0  0  0  0  0  0  0  0  0  0  0
    1.0085   -1.9441    2.7413 C   0  0  0  0  0  0  0  0  0  0  0  0
    2.0225   -2.1928    2.3676 H   0  0  0  0  0  0  0  0  0  0  0  0
    0.3444   -2.8076    2.5319 H   0  0  0  0  0  0  0  0  0  0  0  0
    1.0700   -1.8352    3.8422 H   0  0  0  0  0  0  0  0  0  0  0  0
    1.7959   -0.6036    0.0478 C   0  0  0  0  0  0  0  0  0  0  0  0
    2.5694    0.5575    0.2594 C   0  0  0  0  0  0  0  0  0  0  0  0
    2.1365    1.4014    0.8218 H   0  0  0  0  0  0  0  0  0  0  0  0
    3.8558    0.6522   -0.2814 C   0  0  0  0  0  0  0  0  0  0  0  0
    4.4422    1.5689   -0.1182 H   0  0  0  0  0  0  0  0  0  0  0  0
    4.3857   -0.3995   -1.0482 C   0  0  0  0  0  0  0  0  0  0  0  0
    5.3939   -0.3181   -1.4808 H   0  0  0  0  0  0  0  0  0  0  0  0
    3.6128   -1.5466   -1.2688 C   0  0  0  0  0  0  0  0  0  0  0  0
    4.0121   -2.3743   -1.8745 H   0  0  0  0  0  0  0  0  0  0  0  0
    2.3234   -1.6550   -0.7213 C   0  0  0  0  0  0  0  0  0  0  0  0
    1.7383   -2.5661   -0.9036 H   0  0  0  0  0  0  0  0  0  0  0  0
  1 13  1  0  0  0  0
  1  2  1  0  0  0  0
  3 18  1  0  0  0  0
  4  6  1  0  0  0  0
  4  7  1  0  0  0  0
  4  1  1  0  0  0  0
  5  4  1  0  0  0  0
  7 10  1  0  0  0  0
  7  8  1  0  0  0  0
  9  7  1  0  0  0  0
 10 12  1  0  0  0  0
 10 13  1  0  0  0  0
 11 10  1  0  0  0  0
 13 14  1  1  0  0  0
 15 16  1  0  0  0  0
 15 13  1  0  0  0  0
 15  3  1  0  0  0  0
 17 15  1  0  0  0  0
 18 20  1  0  0  0  0
 18 19  1  0  0  0  0
 18 21  1  0  0  0  0
 21 24  1  0  0  0  0
 22 21  1  0  0  0  0
 23 21  1  0  0  0  0
 25 26  1  0  0  0  0
 25  3  1  0  0  0  0
 26 27  1  0  0  0  0
 28 29  1  0  0  0  0
 28 26  2  0  0  0  0
 30 28  1  0  0  0  0
 31 30  1  0  0  0  0
 32 30  2  0  0  0  0
 32 34  1  0  0  0  0
 33 32  1  0  0  0  0
 34 25  2  0  0  0  0
 35 34  1  0  0  0  0
M  END
