2,3
q = 0.0, confidence = 0.998

 44 48  0  0  1  0  0  0  0  0999 V2000
   -2.5039    0.8973   -1.3673 N   0  0  0  0  0  0  0  0  0  0  0  0
    1.4342   -0.2714    0.2207 N   0  0  0  0  0  2  0  0  0  0  0  0
   -1.4338   -0.2721    0.2205 N   0  0  0  0  0  2  0  0  0  0  0  0
    2.5034    0.8984   -1.3673 N   0  0  0  0  0  0  0  0  0  0  0  0
    0.7119    2.1030   -0.0666 C   0  0  0  0  0  0  0  0  0  0  0  0
    2.3827   -1.0996   -0.3552 C   0  0  0  0  0  0  0  0  0  0  0  0
   -1.5151    0.9071   -0.3952 C   0  0  2  0  0  3  0  0  0  0  0  0
    1.5147    0.9078   -0.3952 C   0  0  2  0  0  3  0  0  0  0  0  0
   -0.7129    2.1027   -0.0667 C   0  0  0  0  0  0  0  0  0  0  0  0
    2.8516    1.9516   -2.3002 C   0  0  0  0  0  0  0  0  0  0  0  0
    2.0961    2.7556   -2.2496 H   0  0  0  0  0  0  0  0  0  0  0  0
    2.8767    1.5450   -3.3313 H   0  0  0  0  0  0  0  0  0  0  0  0
    3.8474    2.3818   -2.0663 H   0  0  0  0  0  0  0  0  0  0  0  0
   -2.3819   -1.1008   -0.3555 C   0  0  0  0  0  0  0  0  0  0  0  0
    3.0749   -0.3699   -1.3610 C   0  0  0  0  0  0  0  0  0  0  0  0
    1.3938    3.2860    0.2865 C   0  0  0  0  0  0  0  0  0  0  0  0
    2.4930    3.2737    0.3257 H   0  0  0  0  0  0  0  0  0  0  0  0
   -3.0747   -0.3712   -1.3610 C   0  0  0  0  0  0  0  0  0  0  0  0
   -1.3953    3.2855    0.2862 C   0  0  0  0  0  0  0  0  0  0  0  0
   -2.4944    3.2728    0.3253 H   0  0  0  0  0  0  0  0  0  0  0  0
    2.6973   -2.4456   -0.0903 C   0  0  0  0  0  0  0  0  0  0  0  0
    2.1296   -2.9924    0.6794 H   0  0  0  0  0  0  0  0  0  0  0  0
    3.7176   -3.0195   -0.8560 C   0  0  0  0  0  0  0  0  0  0  0  0
    3.9937   -4.0702   -0.6824 H   0  0  0  0  0  0  0  0  0  0  0  0
   -2.8533    1.9509   -2.2992 C   0  0  0  0  0  0  0  0  0  0  0  0
   -3.8474    2.3833   -2.0622 H   0  0  0  0  0  0  0  0  0  0  0  0
   -2.8827    1.5438   -3.3300 H   0  0  0  0  0  0  0  0  0  0  0  0
   -2.0960    2.7534   -2.2517 H   0  0  0  0  0  0  0  0  0  0  0  0
   -2.6956   -2.4470   -0.0907 C   0  0  0  0  0  0  0  0  0  0  0  0
   -2.1275   -2.9936    0.6788 H   0  0  0  0  0  0  0  0  0  0  0  0
    4.0989   -0.9458   -2.1300 C   0  0  0  0  0  0  0  0  0  0  0  0
    4.6376   -0.3815   -2.9048 H   0  0  0  0  0  0  0  0  0  0  0  0
    0.7000    4.4485    0.6387 C   0  0  0  0  0  0  0  0  0  0  0  0
    1.2564    5.3496    0.9359 H   0  0  0  0  0  0  0  0  0  0  0  0
    4.4065   -2.2850   -1.8542 C   0  0  0  0  0  0  0  0  0  0  0  0
    5.2045   -2.7789   -2.4288 H   0  0  0  0  0  0  0  0  0  0  0  0
   -4.0986   -0.9476   -2.1298 C   0  0  0  0  0  0  0  0  0  0  0  0
   -4.6380   -0.3835   -2.9043 H   0  0  0  0  0  0  0  0  0  0  0  0
   -4.4054   -2.2870   -1.8542 C   0  0  0  0  0  0  0  0  0  0  0  0
   -5.2032   -2.7813   -2.4287 H   0  0  0  0  0  0  0  0  0  0  0  0
   -3.7159   -3.0213   -0.8563 C   0  0  0  0  0  0  0  0  0  0  0  0
   -3.9913   -4.0723   -0.6828 H   0  0  0  0  0  0  0  0  0  0  0  0
   -0.7019    4.4483    0.6386 C   0  0  0  0  0  0  0  0  0  0  0  0
   -1.2587    5.3491    0.9357 H   0  0  0  0  0  0  0  0  0  0  0  0
  1 18  1  0  0  0  0
  1  7  1  0  0  0  0
  4 15  1  0  0  0  0
  4  8  1  0  0  0  0
  5 16  1  0  0  0  0
  6 21  1  0  0  0  0
  6  2  1  0  0  0  0
  7  9  1  1  0  0  0
  7  3  1  0  0  0  0
  8  5  1  1  0  0  0
  8  2  1  0  0  0  0
  9  5  2  0  0  0  0
  9 19  1  0  0  0  0
 10 11  1  0  0  0  0
 10 13  1  0  0  0  0
 10  4  1  0  0  0  0
 12 10  1  0  0  0  0
 14 29  1  0  0  0  0
 14  3  1  0  0  0  0
 15  6  2  0  0  0  0
 16 17  1  0  0  0  0
 16 33  2  0  0  0  0
 18 14  2  0  0  0  0
 19 20  1  0  0  0  0
 19 43  2  0  0  0  0
 21 22  1  0  0  0  0
 23 24  1  0  0  0  0
 23 21  2  0  0  0  0
 25 28  1  0  0  0  0
 25 26  1  0  0  0  0
 25  1  1  0  0  0  0
 27 25  1  0  0  0  0
 29 30  1  0  0  0  0
 31 35  2  0  0  0  0
 31 15  1  0  0  0  0
 32 31  1  0  0  0  0
 33 34  1  0  0  0  0
 35 23  1  0  0  0  0
 36 35  1  0  0  0  0
 37 39  2  0  0  0  0
 37 18  1  0  0  0  0
 38 37  1  0  0  0  0
 39 41  1  0  0  0  0
 40 39  1  0  0  0  0
 41 42  1  0  0  0  0
 41 29  2  0  0  0  0
 43 33  1  0  0  0  0
 43 44  1  0  0  0  0
M  END
