2,3
q = 0.0, confidence = 1.0

 21 23  0  0  0  0  0  0  0  0999 V2000
    2.1052    3.9261    0.0007 S   0  0  0  0  0  0  0  0  0  0  0  0
    1.0655    1.5885   -0.0000 N   0  0  0  0  0  2  0  0  0  0  0  0
   -1.3081    0.4706    0.0001 N   0  0  0  0  0  2  0  0  0  0  0  0
   -2.5521    2.3383   -0.0004 N   0  0  0  0  0  0  0  0  0  0  0  0
    2.2368    2.2033    0.0003 C   0  0  0  0  0  3  0  0  0  0  0  0
    0.3766    3.8137    0.0003 C   0  0  0  0  0  3  0  0  0  0  0  0
   -0.0076    2.4859   -0.0000 C   0  0  0  0  0  0  0  0  0  0  0  0
   -1.2856    1.8189   -0.0002 C   0  0  0  0  0  0  0  0  0  0  0  0
   -3.4470    1.2777   -0.0004 C   0  0  0  0  0  0  0  0  0  0  0  0
   -2.6486    0.0930   -0.0001 C   0  0  0  0  0  0  0  0  0  0  0  0
   -3.2563   -1.1764    0.0001 C   0  0  0  0  0  0  0  0  0  0  0  0
   -4.6530   -1.2163   -0.0001 C   0  0  0  0  0  0  0  0  0  0  0  0
   -5.4368   -0.0352   -0.0004 C   0  0  0  0  0  0  0  0  0  0  0  0
   -4.8493    1.2349   -0.0006 C   0  0  0  0  0  0  0  0  0  0  0  0
    3.1817    1.6356    0.0003 H   0  0  0  0  0  0  0  0  0  0  0  0
   -0.2487    4.7130    0.0003 H   0  0  0  0  0  0  0  0  0  0  0  0
   -2.7910    3.3284   -0.0007 H   0  0  0  0  0  0  0  0  0  0  0  0
   -2.6239   -2.0765    0.0003 H   0  0  0  0  0  0  0  0  0  0  0  0
   -5.1597   -2.1925    0.0000 H   0  0  0  0  0  0  0  0  0  0  0  0
   -6.5338   -0.1170   -0.0006 H   0  0  0  0  0  0  0  0  0  0  0  0
   -5.4569    2.1512   -0.0008 H   0  0  0  0  0  0  0  0  0  0  0  0
  2  7  1  0  0  0  0
  2  5  1  0  0  0  0
  4  9  1  0  0  0  0
  4  8  1  0  0  0  0
  5  1  1  0  0  0  0
  6 16  1  0  0  0  0
  6  1  1  0  0  0  0
  7  6  1  0  0  0  0
  8  7  2  0  0  0  0
  8  3  1  0  0  0  0
  9 10  1  0  0  0  0
 10  3  1  0  0  0  0
 10 11  2  0  0  0  0
 11 18  1  0  0  0  0
 12 19  1  0  0  0  0
 12 11  1  0  0  0  0
 13 12  2  0  0  0  0
 14 13  1  0  0  0  0
 14  9  2  0  0  0  0
 15  5  1  0  0  0  0
 17  4  1  0  0  0  0
 20 13  1  0  0  0  0
 21 14  1  0  0  0  0
M  END
