1,2
q = -1.0, confidence = 0.0

 28 29  0  0  1  0  0  0  0  0999 V2000
    2.7876    0.6144   -1.1030 N   0  0  0  0  0  0  0  0  0  0  0  0
    0.4405    1.8904   -0.8236 N   0  0  0  0  0  2  0  0  0  0  0  0
    4.0811    0.2356   -1.2910 C   0  0  0  0  0  3  0  0  0  0  0  0
    4.3927   -0.8012   -1.1106 H   0  0  0  0  0  0  0  0  0  0  0  0
    4.8608    1.3268   -1.7303 C   0  0  0  0  0  0  0  0  0  0  0  0
    5.9312    1.3067   -1.9669 H   0  0  0  0  0  0  0  0  0  0  0  0
    3.9901    2.4343   -1.8111 C   0  0  0  0  0  0  0  0  0  0  0  0
    4.2500    3.4551   -2.1155 H   0  0  0  0  0  0  0  0  0  0  0  0
    2.7133    1.9693   -1.4159 C   0  0  0  0  0  0  0  0  0  0  0  0
    1.4485    2.6269   -1.2607 C   0  0  2  0  0  3  0  0  0  0  0  0
    1.2973    4.0938   -1.5569 C   0  0  0  0  0  0  0  0  0  0  0  0
    0.4194    4.2705   -2.2093 H   0  0  0  0  0  0  0  0  0  0  0  0
    2.1980    4.5119   -2.0386 H   0  0  0  0  0  0  0  0  0  0  0  0
    1.1059    4.6502   -0.6164 H   0  0  0  0  0  0  0  0  0  0  0  0
   -0.8422    2.4517   -0.6074 C   0  0  0  0  0  0  0  0  0  0  0  0
   -1.1788    3.0145    0.6426 C   0  0  0  0  0  0  0  0  0  0  0  0
   -0.4131    3.0627    1.4309 H   0  0  0  0  0  0  0  0  0  0  0  0
   -2.4784    3.4812    0.8784 C   0  0  0  0  0  0  0  0  0  0  0  0
   -2.7229    3.9107    1.8635 H   0  0  0  0  0  0  0  0  0  0  0  0
   -3.4792    3.4145   -0.1144 C   0  0  0  0  0  0  0  0  0  0  0  0
   -3.1225    2.8734   -1.3662 C   0  0  0  0  0  0  0  0  0  0  0  0
   -3.8786    2.8158   -2.1655 H   0  0  0  0  0  0  0  0  0  0  0  0
   -1.8285    2.3922   -1.6124 C   0  0  0  0  0  0  0  0  0  0  0  0
   -1.5708    1.9475   -2.5834 H   0  0  0  0  0  0  0  0  0  0  0  0
   -4.8872    3.8755    0.1676 C   0  0  0  0  0  0  0  0  0  0  0  0
   -4.9021    4.7630    0.8315 H   0  0  0  0  0  0  0  0  0  0  0  0
   -5.4736    3.0806    0.6776 H   0  0  0  0  0  0  0  0  0  0  0  0
   -5.4277    4.1333   -0.7642 H   0  0  0  0  0  0  0  0  0  0  0  0
  2 15  1  0  0  0  0
  3  4  1  0  0  0  0
  3  1  1  0  0  0  0
  5  3  1  0  0  0  0
  6  5  1  0  0  0  0
  7  5  2  0  0  0  0
  7  9  1  0  0  0  0
  8  7  1  0  0  0  0
  9 10  1  0  0  0  0
  9  1  2  0  0  0  0
 10  2  1  1  0  0  0
 11 10  1  0  0  0  0
 11 14  1  0  0  0  0
 12 11  1  0  0  0  0
 13 11  1  0  0  0  0
 15 16  1  0  0  0  0
 16 18  2  0  0  0  0
 16 17  1  0  0  0  0
 18 19  1  0  0  0  0
 20 25  1  0  0  0  0
 20 18  1  0  0  0  0
 21 20  2  0  0  0  0
 22 21  1  0  0  0  0
 23 21  1  0  0  0  0
 23 15  2  0  0  0  0
 24 23  1  0  0  0  0
 25 27  1  0  0  0  0
 25 26  1  0  0  0  0
 28 25  1  0  0  0  0
M  END
