1,2
q = 0.0, confidence = 0.992

 27 28  0  0  0  0  0  0  0  0999 V2000
   -2.3501   -0.3433   -0.7763 N   0  0  0  0  0  2  0  0  0  0  0  0
    0.1229   -0.8797   -0.2944 N   0  0  0  0  0  2  0  0  0  0  0  0
    4.6356    0.8953   -1.9744 O   0  0  0  0  0  0  0  0  0  0  0  0
    6.1261   -0.0178   -0.5380 O   0  0  0  0  0  0  0  0  0  0  0  0
    6.7104    0.5122   -1.1216 H   0  0  0  0  0  0  0  0  0  0  0  0
    4.8696    0.1868   -1.0110 C   0  0  0  0  0  0  0  0  0  0  0  0
   -3.6236    0.0032   -1.0490 C   0  0  0  0  0  3  0  0  0  0  0  0
   -3.8712    1.0706   -0.9585 H   0  0  0  0  0  0  0  0  0  0  0  0
   -4.5988   -0.9327   -1.4130 C   0  0  0  0  0  0  0  0  0  0  0  0
   -5.6228   -0.5901   -1.6184 H   0  0  0  0  0  0  0  0  0  0  0  0
   -4.2514   -2.2910   -1.5037 C   0  0  0  0  0  0  0  0  0  0  0  0
   -4.9995   -3.0463   -1.7850 H   0  0  0  0  0  0  0  0  0  0  0  0
   -2.9328   -2.6610   -1.2266 C   0  0  0  0  0  0  0  0  0  0  0  0
   -2.6060   -3.7095   -1.2813 H   0  0  0  0  0  0  0  0  0  0  0  0
   -2.0054   -1.6666   -0.8636 C   0  0  0  0  0  0  0  0  0  0  0  0
   -0.6147   -1.9218   -0.5695 C   0  0  0  0  0  3  0  0  0  0  0  0
   -0.1959   -2.9435   -0.5974 H   0  0  0  0  0  0  0  0  0  0  0  0
    1.4790   -1.0613    0.0794 C   0  0  0  0  0  0  0  0  0  0  0  0
    2.4923   -0.3799   -0.6129 C   0  0  0  0  0  0  0  0  0  0  0  0
    2.2592    0.2774   -1.4626 H   0  0  0  0  0  0  0  0  0  0  0  0
    3.8317   -0.5469   -0.2246 C   0  0  0  0  0  0  0  0  0  0  0  0
    4.1567   -1.3715    0.8728 C   0  0  0  0  0  0  0  0  0  0  0  0
    5.2075   -1.4795    1.1735 H   0  0  0  0  0  0  0  0  0  0  0  0
    3.1366   -2.0286    1.5728 C   0  0  0  0  0  0  0  0  0  0  0  0
    3.3812   -2.6543    2.4439 H   0  0  0  0  0  0  0  0  0  0  0  0
    1.7980   -1.8821    1.1814 C   0  0  0  0  0  0  0  0  0  0  0  0
    0.9812   -2.3487    1.7509 H   0  0  0  0  0  0  0  0  0  0  0  0
  2 18  1  0  0  0  0
  3  6  2  0  0  0  0
  5  4  1  0  0  0  0
  6  4  1  0  0  0  0
  6 21  1  0  0  0  0
  7  8  1  0  0  0  0
  7  1  1  0  0  0  0
  9  7  1  0  0  0  0
 10  9  1  0  0  0  0
 11  9  2  0  0  0  0
 11 13  1  0  0  0  0
 12 11  1  0  0  0  0
 13 15  2  0  0  0  0
 14 13  1  0  0  0  0
 15  1  1  0  0  0  0
 15 16  1  0  0  0  0
 16  2  1  0  0  0  0
 17 16  1  0  0  0  0
 18 26  1  0  0  0  0
 19 21  1  0  0  0  0
 19 18  2  0  0  0  0
 20 19  1  0  0  0  0
 21 22  2  0  0  0  0
 22 23  1  0  0  0  0
 22 24  1  0  0  0  0
 24 25  1  0  0  0  0
 26 24  2  0  0  0  0
 26 27  1  0  0  0  0
M  END
