1,2
q = 0.0, confidence = 0.962

 66 71  0  0  0  0  0  0  0  0999 V2000
   -1.2746   -0.4294    0.1721 N   0  0  0  0  0  2  0  0  0  0  0  0
    1.2746   -0.4293    0.1722 N   0  0  0  0  0  2  0  0  0  0  0  0
    0.7409    0.7883    0.2541 C   0  0  0  0  0  0  0  0  0  0  0  0
   -1.4743    2.0628    0.2699 C   0  0  0  0  0  0  0  0  0  0  0  0
   -0.7410    0.7882    0.2541 C   0  0  0  0  0  0  0  0  0  0  0  0
    1.4742    2.0629    0.2698 C   0  0  0  0  0  0  0  0  0  0  0  0
    1.4205    4.5314    0.0276 C   0  0  0  0  0  0  0  0  0  0  0  0
   -3.2002   -0.6209   -1.3077 C   0  0  0  0  0  0  0  0  0  0  0  0
    4.8037   -1.3330    0.8996 C   0  0  0  0  0  0  0  0  0  0  0  0
    5.4241   -1.6273    1.7614 H   0  0  0  0  0  0  0  0  0  0  0  0
   -3.4385   -1.0847    1.1129 C   0  0  0  0  0  0  0  0  0  0  0  0
   -0.7212    3.2799    0.1234 C   0  0  0  0  0  0  0  0  0  0  0  0
   -5.3927   -1.2373   -0.3757 C   0  0  0  0  0  0  0  0  0  0  0  0
   -3.5464    3.3854    0.3356 C   0  0  0  0  0  0  0  0  0  0  0  0
   -4.6406    3.4065    0.4437 H   0  0  0  0  0  0  0  0  0  0  0  0
   -4.8037   -1.3333    0.8994 C   0  0  0  0  0  0  0  0  0  0  0  0
   -5.4241   -1.6277    1.7612 H   0  0  0  0  0  0  0  0  0  0  0  0
   -2.6610   -0.6939   -0.0022 C   0  0  0  0  0  0  0  0  0  0  0  0
    2.6610   -0.6938   -0.0021 C   0  0  0  0  0  0  0  0  0  0  0  0
    3.2002   -0.6210   -1.3076 C   0  0  0  0  0  0  0  0  0  0  0  0
    4.5695   -0.8897   -1.4630 C   0  0  0  0  0  0  0  0  0  0  0  0
    5.0036   -0.8360   -2.4745 H   0  0  0  0  0  0  0  0  0  0  0  0
   -1.4207    4.5314    0.0277 C   0  0  0  0  0  0  0  0  0  0  0  0
    3.5463    3.3855    0.3353 C   0  0  0  0  0  0  0  0  0  0  0  0
    4.6405    3.4066    0.4433 H   0  0  0  0  0  0  0  0  0  0  0  0
   -2.8759    2.1533    0.4123 C   0  0  0  0  0  0  0  0  0  0  0  0
   -3.4695    1.2523    0.5857 H   0  0  0  0  0  0  0  0  0  0  0  0
   -2.3189   -0.2793   -2.4777 C   0  0  0  0  0  0  0  0  0  0  0  0
   -2.8790   -0.3382   -3.4295 H   0  0  0  0  0  0  0  0  0  0  0  0
   -1.4593   -0.9815   -2.5331 H   0  0  0  0  0  0  0  0  0  0  0  0
   -1.8946    0.7440   -2.3949 H   0  0  0  0  0  0  0  0  0  0  0  0
    2.8758    2.1534    0.4121 C   0  0  0  0  0  0  0  0  0  0  0  0
    3.4694    1.2523    0.5854 H   0  0  0  0  0  0  0  0  0  0  0  0
    2.8343    4.5588    0.1180 C   0  0  0  0  0  0  0  0  0  0  0  0
    3.3523    5.5268    0.0379 H   0  0  0  0  0  0  0  0  0  0  0  0
   -2.8345    4.5587    0.1182 C   0  0  0  0  0  0  0  0  0  0  0  0
   -3.3524    5.5268    0.0381 H   0  0  0  0  0  0  0  0  0  0  0  0
   -4.5695   -0.8897   -1.4631 C   0  0  0  0  0  0  0  0  0  0  0  0
   -5.0036   -0.8360   -2.4746 H   0  0  0  0  0  0  0  0  0  0  0  0
    0.6846    5.7539   -0.1311 C   0  0  0  0  0  0  0  0  0  0  0  0
    1.2488    6.6936   -0.2308 H   0  0  0  0  0  0  0  0  0  0  0  0
   -2.8039   -1.2304    2.4673 C   0  0  0  0  0  0  0  0  0  0  0  0
   -2.0832   -2.0760    2.4445 H   0  0  0  0  0  0  0  0  0  0  0  0
   -3.5615   -1.4365    3.2463 H   0  0  0  0  0  0  0  0  0  0  0  0
   -2.2366   -0.3236    2.7634 H   0  0  0  0  0  0  0  0  0  0  0  0
    0.7211    3.2800    0.1233 C   0  0  0  0  0  0  0  0  0  0  0  0
    2.8039   -1.2300    2.4674 C   0  0  0  0  0  0  0  0  0  0  0  0
    2.0830   -2.0755    2.4447 H   0  0  0  0  0  0  0  0  0  0  0  0
    2.2368   -0.3231    2.7635 H   0  0  0  0  0  0  0  0  0  0  0  0
    3.5615   -1.4363    3.2464 H   0  0  0  0  0  0  0  0  0  0  0  0
    5.3928   -1.2371   -0.3755 C   0  0  0  0  0  0  0  0  0  0  0  0
   -6.8519   -1.5570   -0.5796 C   0  0  0  0  0  0  0  0  0  0  0  0
   -7.2734   -1.0142   -1.4485 H   0  0  0  0  0  0  0  0  0  0  0  0
   -7.4557   -1.3043    0.3144 H   0  0  0  0  0  0  0  0  0  0  0  0
   -6.9942   -2.6424   -0.7721 H   0  0  0  0  0  0  0  0  0  0  0  0
   -0.6848    5.7539   -0.1311 C   0  0  0  0  0  0  0  0  0  0  0  0
   -1.2490    6.6935   -0.2308 H   0  0  0  0  0  0  0  0  0  0  0  0
    3.4385   -1.0845    1.1130 C   0  0  0  0  0  0  0  0  0  0  0  0
    2.3189   -0.2796   -2.4777 C   0  0  0  0  0  0  0  0  0  0  0  0
    1.4596   -0.9822   -2.5332 H   0  0  0  0  0  0  0  0  0  0  0  0
    2.8791   -0.3382   -3.4294 H   0  0  0  0  0  0  0  0  0  0  0  0
    1.8941    0.7435   -2.3949 H   0  0  0  0  0  0  0  0  0  0  0  0
    6.8520   -1.5569   -0.5796 C   0  0  0  0  0  0  0  0  0  0  0  0
    7.2747   -1.0099   -1.4454 H   0  0  0  0  0  0  0  0  0  0  0  0
    6.9937   -2.6414   -0.7776 H   0  0  0  0  0  0  0  0  0  0  0  0
    7.4550   -1.3091    0.3162 H   0  0  0  0  0  0  0  0  0  0  0  0
  1  5  1  0  0  0  0
  2  3  1  0  0  0  0
  3  5  2  0  0  0  0
  3  6  1  0  0  0  0
  4 26  1  0  0  0  0
  5  4  1  0  0  0  0
  6 32  1  0  0  0  0
  7 34  2  0  0  0  0
  7 46  1  0  0  0  0
  8 18  1  0  0  0  0
  9 58  1  0  0  0  0
  9 10  1  0  0  0  0
 11 42  1  0  0  0  0
 12  4  2  0  0  0  0
 13 16  2  0  0  0  0
 14 26  2  0  0  0  0
 14 15  1  0  0  0  0
 16 11  1  0  0  0  0
 16 17  1  0  0  0  0
 18  1  1  0  0  0  0
 18 11  2  0  0  0  0
 19  2  1  0  0  0  0
 19 58  2  0  0  0  0
 20 19  1  0  0  0  0
 21 20  2  0  0  0  0
 21 51  1  0  0  0  0
 22 21  1  0  0  0  0
 23 36  2  0  0  0  0
 23 12  1  0  0  0  0
 24 32  2  0  0  0  0
 24 25  1  0  0  0  0
 26 27  1  0  0  0  0
 28 31  1  0  0  0  0
 28  8  1  0  0  0  0
 29 28  1  0  0  0  0
 30 28  1  0  0  0  0
 32 33  1  0  0  0  0
 34 24  1  0  0  0  0
 35 34  1  0  0  0  0
 36 14  1  0  0  0  0
 37 36  1  0  0  0  0
 38  8  2  0  0  0  0
 38 13  1  0  0  0  0
 39 38  1  0  0  0  0
 40 56  2  0  0  0  0
 40  7  1  0  0  0  0
 41 40  1  0  0  0  0
 42 45  1  0  0  0  0
 42 44  1  0  0  0  0
 43 42  1  0  0  0  0
 46 12  1  0  0  0  0
 46  6  2  0  0  0  0
 47 49  1  0  0  0  0
 47 50  1  0  0  0  0
 48 47  1  0  0  0  0
 51  9  2  0  0  0  0
 52 13  1  0  0  0  0
 52 54  1  0  0  0  0
 53 52  1  0  0  0  0
 55 52  1  0  0  0  0
 56 23  1  0  0  0  0
 57 56  1  0  0  0  0
 58 47  1  0  0  0  0
 59 62  1  0  0  0  0
 59 20  1  0  0  0  0
 60 59  1  0  0  0  0
 61 59  1  0  0  0  0
 63 51  1  0  0  0  0
 63 66  1  0  0  0  0
 64 63  1  0  0  0  0
 65 63  1  0  0  0  0
M  END
