1,2
q = -1.0, confidence = 0.0

 31 32  0  0  0  0  0  0  0  0999 V2000
    1.2648    1.2825   -0.6473 N   0  0  0  0  0  2  0  0  0  0  0  0
   -1.2650    1.2826    0.6473 N   0  0  0  0  0  2  0  0  0  0  0  0
   -0.0005    5.8699   -0.0012 N   0  0  0  0  0  0  0  0  0  0  0  0
    1.0895    2.5967   -0.6130 C   0  0  0  0  0  0  0  0  0  0  0  0
   -0.0004    3.2650   -0.0005 C   0  0  0  0  0  0  0  0  0  0  0  0
   -1.0901    2.5968    0.6123 C   0  0  0  0  0  3  0  0  0  0  0  0
   -0.0005    4.6934   -0.0009 C   0  0  0  0  0  0  0  0  0  0  0  0
   -2.4567    0.7901    1.2461 C   0  0  0  0  0  0  0  0  0  0  0  0
   -3.7127    1.3745    0.9798 C   0  0  0  0  0  0  0  0  0  0  0  0
   -4.8696    0.8574    1.5771 C   0  0  0  0  0  0  0  0  0  0  0  0
   -4.7903   -0.2499    2.4360 C   0  0  0  0  0  0  0  0  0  0  0  0
   -3.5408   -0.8374    2.6992 C   0  0  0  0  0  0  0  0  0  0  0  0
   -2.3795   -0.3214    2.1122 C   0  0  0  0  0  0  0  0  0  0  0  0
    2.4566    0.7901   -1.2460 C   0  0  0  0  0  0  0  0  0  0  0  0
    3.7125    1.3747   -0.9795 C   0  0  0  0  0  0  0  0  0  0  0  0
    4.8695    0.8578   -1.5766 C   0  0  0  0  0  0  0  0  0  0  0  0
    4.7904   -0.2496   -2.4356 C   0  0  0  0  0  0  0  0  0  0  0  0
    3.5411   -0.8374   -2.6988 C   0  0  0  0  0  0  0  0  0  0  0  0
    2.3796   -0.3215   -2.1119 C   0  0  0  0  0  0  0  0  0  0  0  0
    1.8434    3.2292   -1.1161 H   0  0  0  0  0  0  0  0  0  0  0  0
   -1.8442    3.2293    1.1150 H   0  0  0  0  0  0  0  0  0  0  0  0
   -3.7821    2.2062    0.2638 H   0  0  0  0  0  0  0  0  0  0  0  0
   -5.8455    1.3120    1.3491 H   0  0  0  0  0  0  0  0  0  0  0  0
   -5.7015   -0.6586    2.8977 H   0  0  0  0  0  0  0  0  0  0  0  0
   -3.4681   -1.7025    3.3755 H   0  0  0  0  0  0  0  0  0  0  0  0
   -1.3962   -0.7701    2.3166 H   0  0  0  0  0  0  0  0  0  0  0  0
    3.7816    2.2064   -0.2636 H   0  0  0  0  0  0  0  0  0  0  0  0
    5.8453    1.3125   -1.3486 H   0  0  0  0  0  0  0  0  0  0  0  0
    5.7018   -0.6582   -2.8971 H   0  0  0  0  0  0  0  0  0  0  0  0
    3.4686   -1.7025   -3.3751 H   0  0  0  0  0  0  0  0  0  0  0  0
    1.3964   -0.7704   -2.3164 H   0  0  0  0  0  0  0  0  0  0  0  0
  1  4  1  0  0  0  0
  2  8  1  0  0  0  0
  3  7  3  0  0  0  0
  4  5  2  0  0  0  0
  5  6  1  0  0  0  0
  6  2  1  0  0  0  0
  6 21  1  0  0  0  0
  7  5  1  0  0  0  0
  8 13  1  0  0  0  0
  9  8  2  0  0  0  0
  9 10  1  0  0  0  0
 10 11  2  0  0  0  0
 11 12  1  0  0  0  0
 11 24  1  0  0  0  0
 12 25  1  0  0  0  0
 13 26  1  0  0  0  0
 13 12  2  0  0  0  0
 14 15  1  0  0  0  0
 14  1  1  0  0  0  0
 15 27  1  0  0  0  0
 16 28  1  0  0  0  0
 16 15  2  0  0  0  0
 17 16  1  0  0  0  0
 18 17  2  0  0  0  0
 18 19  1  0  0  0  0
 19 14  2  0  0  0  0
 20  4  1  0  0  0  0
 22  9  1  0  0  0  0
 23 10  1  0  0  0  0
 29 17  1  0  0  0  0
 30 18  1  0  0  0  0
 31 19  1  0  0  0  0
M  END
