1,2
q = -1.0, confidence = 0.0

 33 34  0  0  0  0  0  0  0  0999 V2000
   -1.2564   -1.2819   -0.6588 N   0  0  0  0  0  2  0  0  0  0  0  0
    1.2574   -1.2891    0.6437 N   0  0  0  0  0  2  0  0  0  0  0  0
   -1.0812   -2.6063   -0.6011 C   0  0  0  0  0  3  0  0  0  0  0  0
   -0.0016   -3.2894   -0.0138 C   0  0  0  0  0  0  0  0  0  0  0  0
    1.0793   -2.6112    0.5815 C   0  0  0  0  0  0  0  0  0  0  0  0
    0.0087   -4.8028   -0.0138 C   0  0  0  0  0  0  0  0  0  0  0  0
    2.4539   -0.8094    1.2326 C   0  0  0  0  0  0  0  0  0  0  0  0
    3.7080   -1.4030    0.9697 C   0  0  0  0  0  0  0  0  0  0  0  0
    4.8710   -0.8931    1.5615 C   0  0  0  0  0  0  0  0  0  0  0  0
    4.8047    0.2187    2.4159 C   0  0  0  0  0  0  0  0  0  0  0  0
    3.5598    0.8177    2.6759 C   0  0  0  0  0  0  0  0  0  0  0  0
    2.3931    0.3089    2.0937 C   0  0  0  0  0  0  0  0  0  0  0  0
   -2.4552   -0.7984   -1.2379 C   0  0  0  0  0  0  0  0  0  0  0  0
   -3.7083   -1.3959   -0.9776 C   0  0  0  0  0  0  0  0  0  0  0  0
   -4.8735   -0.8829   -1.5624 C   0  0  0  0  0  0  0  0  0  0  0  0
   -4.8115    0.2367   -2.4068 C   0  0  0  0  0  0  0  0  0  0  0  0
   -3.5682    0.8405   -2.6636 C   0  0  0  0  0  0  0  0  0  0  0  0
   -2.3993    0.3281   -2.0892 C   0  0  0  0  0  0  0  0  0  0  0  0
   -1.8571   -3.2281   -1.0884 H   0  0  0  0  0  0  0  0  0  0  0  0
    1.8519   -3.2367    1.0704 H   0  0  0  0  0  0  0  0  0  0  0  0
   -0.8993   -5.2071   -0.5028 H   0  0  0  0  0  0  0  0  0  0  0  0
    0.8847   -5.2194   -0.5554 H   0  0  0  0  0  0  0  0  0  0  0  0
    0.0377   -5.2207    1.0156 H   0  0  0  0  0  0  0  0  0  0  0  0
    3.7705   -2.2367    0.2555 H   0  0  0  0  0  0  0  0  0  0  0  0
    5.8429   -1.3555    1.3309 H   0  0  0  0  0  0  0  0  0  0  0  0
    5.7206    0.6218    2.8736 H   0  0  0  0  0  0  0  0  0  0  0  0
    3.4952    1.6877    3.3473 H   0  0  0  0  0  0  0  0  0  0  0  0
    1.4135    0.7684    2.2918 H   0  0  0  0  0  0  0  0  0  0  0  0
   -3.7683   -2.2361   -0.2710 H   0  0  0  0  0  0  0  0  0  0  0  0
   -5.8440   -1.3493   -1.3338 H   0  0  0  0  0  0  0  0  0  0  0  0
   -5.7291    0.6422   -2.8589 H   0  0  0  0  0  0  0  0  0  0  0  0
   -3.5066    1.7169   -3.3269 H   0  0  0  0  0  0  0  0  0  0  0  0
   -1.4211    0.7912   -2.2857 H   0  0  0  0  0  0  0  0  0  0  0  0
  1  3  1  0  0  0  0
  2  7  1  0  0  0  0
  3  4  1  0  0  0  0
  4  6  1  0  0  0  0
  4  5  2  0  0  0  0
  5  2  1  0  0  0  0
  5 20  1  0  0  0  0
  6 23  1  0  0  0  0
  7 12  1  0  0  0  0
  8  7  2  0  0  0  0
  8  9  1  0  0  0  0
  9 10  2  0  0  0  0
 10 11  1  0  0  0  0
 10 26  1  0  0  0  0
 11 27  1  0  0  0  0
 12 28  1  0  0  0  0
 12 11  2  0  0  0  0
 13 14  1  0  0  0  0
 13  1  1  0  0  0  0
 14 29  1  0  0  0  0
 15 30  1  0  0  0  0
 15 14  2  0  0  0  0
 16 15  1  0  0  0  0
 17 16  2  0  0  0  0
 17 18  1  0  0  0  0
 18 13  2  0  0  0  0
 19  3  1  0  0  0  0
 21  6  1  0  0  0  0
 22  6  1  0  0  0  0
 24  8  1  0  0  0  0
 25  9  1  0  0  0  0
 31 16  1  0  0  0  0
 32 17  1  0  0  0  0
 33 18  1  0  0  0  0
M  END
