1,2
q = -1.0, confidence = 0.0

 30 31  0  0  0  0  0  0  0  0999 V2000
   -1.2687   -0.6513   -1.2811 N   0  0  0  0  0  2  0  0  0  0  0  0
    1.2685    0.6556   -1.2791 N   0  0  0  0  0  2  0  0  0  0  0  0
   -1.0874   -0.5942   -2.6030 C   0  0  0  0  0  3  0  0  0  0  0  0
   -0.0008    0.0062   -3.2550 C   0  0  0  0  0  0  0  0  0  0  0  0
    1.0863    0.6039   -2.6012 C   0  0  0  0  0  0  0  0  0  0  0  0
    2.4641    1.2406   -0.7938 C   0  0  0  0  0  0  0  0  0  0  0  0
    3.7178    0.9832   -1.3905 C   0  0  0  0  0  0  0  0  0  0  0  0
    4.8808    1.5716   -0.8766 C   0  0  0  0  0  0  0  0  0  0  0  0
    4.8149    2.4157    0.2429 C   0  0  0  0  0  0  0  0  0  0  0  0
    3.5705    2.6695    0.8455 C   0  0  0  0  0  0  0  0  0  0  0  0
    2.4036    2.0915    0.3322 C   0  0  0  0  0  0  0  0  0  0  0  0
   -2.4638   -1.2385   -0.7972 C   0  0  0  0  0  0  0  0  0  0  0  0
   -3.7180   -0.9798   -1.3925 C   0  0  0  0  0  0  0  0  0  0  0  0
   -4.8804   -1.5705   -0.8800 C   0  0  0  0  0  0  0  0  0  0  0  0
   -4.8136   -2.4182    0.2368 C   0  0  0  0  0  0  0  0  0  0  0  0
   -3.5687   -2.6732    0.8380 C   0  0  0  0  0  0  0  0  0  0  0  0
   -2.4024   -2.0930    0.3260 C   0  0  0  0  0  0  0  0  0  0  0  0
   -1.8535   -1.0843   -3.2335 H   0  0  0  0  0  0  0  0  0  0  0  0
   -0.0010    0.0085   -4.3527 H   0  0  0  0  0  0  0  0  0  0  0  0
    1.8522    1.0963   -3.2301 H   0  0  0  0  0  0  0  0  0  0  0  0
    3.7800    0.2765   -2.2306 H   0  0  0  0  0  0  0  0  0  0  0  0
    5.8524    1.3460   -1.3422 H   0  0  0  0  0  0  0  0  0  0  0  0
    5.7309    2.8703    0.6494 H   0  0  0  0  0  0  0  0  0  0  0  0
    3.5063    3.3326    1.7219 H   0  0  0  0  0  0  0  0  0  0  0  0
    1.4246    2.2851    0.7949 H   0  0  0  0  0  0  0  0  0  0  0  0
   -3.7810   -0.2704   -2.2301 H   0  0  0  0  0  0  0  0  0  0  0  0
   -5.8523   -1.3439   -1.3444 H   0  0  0  0  0  0  0  0  0  0  0  0
   -5.7292   -2.8746    0.6423 H   0  0  0  0  0  0  0  0  0  0  0  0
   -3.5038   -3.3391    1.7122 H   0  0  0  0  0  0  0  0  0  0  0  0
   -1.4231   -2.2876    0.7876 H   0  0  0  0  0  0  0  0  0  0  0  0
  1 12  1  0  0  0  0
  2  6  1  0  0  0  0
  3  1  1  0  0  0  0
  4  3  1  0  0  0  0
  4  5  2  0  0  0  0
  5  2  1  0  0  0  0
  6 11  1  0  0  0  0
  7  8  1  0  0  0  0
  7  6  2  0  0  0  0
  8  9  2  0  0  0  0
  9 23  1  0  0  0  0
  9 10  1  0  0  0  0
 10 24  1  0  0  0  0
 11 25  1  0  0  0  0
 11 10  2  0  0  0  0
 12 17  1  0  0  0  0
 13 14  1  0  0  0  0
 13 12  2  0  0  0  0
 14 15  2  0  0  0  0
 15 28  1  0  0  0  0
 15 16  1  0  0  0  0
 16 29  1  0  0  0  0
 17 30  1  0  0  0  0
 17 16  2  0  0  0  0
 18  3  1  0  0  0  0
 19  4  1  0  0  0  0
 20  5  1  0  0  0  0
 21  7  1  0  0  0  0
 22  8  1  0  0  0  0
 26 13  1  0  0  0  0
 27 14  1  0  0  0  0
M  END
