1,4
q = 0.0, confidence = 0.944

 36 39  0  0  0  0  0  0  0  0999 V2000
    1.7216   -1.4449    0.6640 N   0  0  0  0  0  2  0  0  0  0  0  0
   -1.7304   -1.4077    0.6873 N   0  0  0  0  0  0  0  0  0  0  0  0
   -1.7304    1.4078    0.6872 N   0  0  0  0  0  0  0  0  0  0  0  0
    1.7217    1.4448    0.6641 N   0  0  0  0  0  2  0  0  0  0  0  0
   -7.3862   -2.0453   -0.8478 N   0  0  0  0  0  0  0  0  0  0  0  0
   -7.3862    2.0453   -0.8478 N   0  0  0  0  0  0  0  0  0  0  0  0
    2.7340   -2.3138    0.9116 C   0  0  0  0  0  0  0  0  0  0  0  0
    3.6334   -2.1774    0.2958 H   0  0  0  0  0  0  0  0  0  0  0  0
    2.6156   -3.3309    1.8607 C   0  0  0  0  0  0  0  0  0  0  0  0
    3.4656   -4.0056    2.0339 H   0  0  0  0  0  0  0  0  0  0  0  0
    1.4075   -3.4785    2.5583 C   0  0  0  0  0  0  0  0  0  0  0  0
    1.2823   -4.2749    3.3065 H   0  0  0  0  0  0  0  0  0  0  0  0
    0.3527   -2.6074    2.2655 C   0  0  0  0  0  0  0  0  0  0  0  0
   -0.6315   -2.7077    2.7418 H   0  0  0  0  0  0  0  0  0  0  0  0
    0.5390   -1.5889    1.3154 C   0  0  0  0  0  0  0  0  0  0  0  0
   -0.6180   -0.7271    0.9257 C   0  0  0  0  0  0  0  0  0  0  0  0
   -2.8587   -0.7177    0.3625 C   0  0  0  0  0  0  0  0  0  0  0  0
   -4.0482   -1.4212    0.0429 C   0  0  0  0  0  0  0  0  0  0  0  0
   -4.0271   -2.5194    0.0473 H   0  0  0  0  0  0  0  0  0  0  0  0
   -5.2146   -0.7229   -0.2744 C   0  0  0  0  0  0  0  0  0  0  0  0
   -5.2146    0.7229   -0.2744 C   0  0  0  0  0  0  0  0  0  0  0  0
   -4.0482    1.4212    0.0429 C   0  0  0  0  0  0  0  0  0  0  0  0
   -4.0271    2.5194    0.0473 H   0  0  0  0  0  0  0  0  0  0  0  0
   -2.8587    0.7178    0.3625 C   0  0  0  0  0  0  0  0  0  0  0  0
   -0.6180    0.7272    0.9256 C   0  0  0  0  0  0  0  0  0  0  0  0
    0.5390    1.5891    1.3153 C   0  0  0  0  0  0  0  0  0  0  0  0
    0.3527    2.6078    2.2650 C   0  0  0  0  0  0  0  0  0  0  0  0
   -0.6316    2.7083    2.7411 H   0  0  0  0  0  0  0  0  0  0  0  0
    1.4075    3.4789    2.5578 C   0  0  0  0  0  0  0  0  0  0  0  0
    1.2822    4.2755    3.3058 H   0  0  0  0  0  0  0  0  0  0  0  0
    2.6157    3.3308    1.8607 C   0  0  0  0  0  0  0  0  0  0  0  0
    3.4658    4.0054    2.0339 H   0  0  0  0  0  0  0  0  0  0  0  0
    2.7342    2.3135    0.9118 C   0  0  0  0  0  0  0  0  0  0  0  0
    3.6338    2.1768    0.2963 H   0  0  0  0  0  0  0  0  0  0  0  0
   -6.4127   -1.4411   -0.5938 C   0  0  0  0  0  0  0  0  0  0  0  0
   -6.4127    1.4410   -0.5938 C   0  0  0  0  0  0  0  0  0  0  0  0
  1  7  1  0  0  0  0
  1 15  1  0  0  0  0
  2 16  1  0  0  0  0
  3 25  1  0  0  0  0
  4 33  1  0  0  0  0
  4 26  1  0  0  0  0
  5 35  3  0  0  0  0
  6 36  3  0  0  0  0
  7  9  2  0  0  0  0
  8  7  1  0  0  0  0
  9 10  1  0  0  0  0
  9 11  1  0  0  0  0
 11 12  1  0  0  0  0
 13 11  2  0  0  0  0
 13 14  1  0  0  0  0
 15 13  1  0  0  0  0
 16 15  2  0  0  0  0
 17  2  2  0  0  0  0
 18 19  1  0  0  0  0
 18 17  1  0  0  0  0
 20 18  2  0  0  0  0
 21 20  1  0  0  0  0
 21 22  2  0  0  0  0
 22 23  1  0  0  0  0
 22 24  1  0  0  0  0
 24 17  1  0  0  0  0
 24  3  2  0  0  0  0
 25 16  1  0  0  0  0
 25 26  2  0  0  0  0
 26 27  1  0  0  0  0
 27 29  2  0  0  0  0
 27 28  1  0  0  0  0
 29 30  1  0  0  0  0
 31 32  1  0  0  0  0
 31 29  1  0  0  0  0
 33 31  2  0  0  0  0
 34 33  1  0  0  0  0
 35 20  1  0  0  0  0
 36 21  1  0  0  0  0
M  END
