1,2
q = 0.0, confidence = 1.0

 27 29  0  0  0  0  0  0  0  0999 V2000
    1.3875    1.6040   -0.2901 N   0  0  0  0  0  2  0  0  0  0  0  0
   -0.6582   -0.0459   -0.3479 N   0  0  0  0  0  2  0  0  0  0  0  0
   -1.8537   -0.6529   -0.3048 N   0  0  0  0  0  0  0  0  0  0  0  0
   -1.9015   -1.6737   -0.3051 H   0  0  0  0  0  0  0  0  0  0  0  0
   -2.2863    1.5077   -0.1727 N   0  0  0  0  0  0  0  0  0  0  0  0
    0.1583    2.1996   -0.2370 C   0  0  0  0  0  0  0  0  0  0  0  0
   -0.0039    3.5908   -0.1610 C   0  0  0  0  0  0  0  0  0  0  0  0
   -1.0222    4.0012   -0.1187 H   0  0  0  0  0  0  0  0  0  0  0  0
    1.1371    4.3986   -0.1339 C   0  0  0  0  0  0  0  0  0  0  0  0
    1.0453    5.4928   -0.0703 H   0  0  0  0  0  0  0  0  0  0  0  0
    2.4005    3.7872   -0.1853 C   0  0  0  0  0  0  0  0  0  0  0  0
    3.3250    4.3808   -0.1619 H   0  0  0  0  0  0  0  0  0  0  0  0
    2.4820    2.3927   -0.2620 C   0  0  0  0  0  0  0  0  0  0  0  0
    3.4517    1.8756   -0.2955 H   0  0  0  0  0  0  0  0  0  0  0  0
   -0.9578    1.2658   -0.2576 C   0  0  0  0  0  0  0  0  0  0  0  0
   -2.8456    0.2902   -0.1966 C   0  0  0  0  0  0  0  0  0  0  0  0
   -4.2754   -0.0063   -0.1241 C   0  0  0  0  0  0  0  0  0  0  0  0
   -5.1809    1.0699    0.0115 C   0  0  0  0  0  0  0  0  0  0  0  0
   -4.7774    2.0913    0.0570 H   0  0  0  0  0  0  0  0  0  0  0  0
   -6.5560    0.8253    0.0872 C   0  0  0  0  0  0  0  0  0  0  0  0
   -7.2545    1.6687    0.1937 H   0  0  0  0  0  0  0  0  0  0  0  0
   -7.0454   -0.4906    0.0293 C   0  0  0  0  0  0  0  0  0  0  0  0
   -8.1274   -0.6807    0.0899 H   0  0  0  0  0  0  0  0  0  0  0  0
   -6.1508   -1.5648   -0.1057 C   0  0  0  0  0  0  0  0  0  0  0  0
   -6.5285   -2.5968   -0.1515 H   0  0  0  0  0  0  0  0  0  0  0  0
   -4.7732   -1.3271   -0.1828 C   0  0  0  0  0  0  0  0  0  0  0  0
   -4.0912   -2.1847   -0.2906 H   0  0  0  0  0  0  0  0  0  0  0  0
  1 13  1  0  0  0  0
  1  6  1  0  0  0  0
  2  3  1  0  0  0  0
  2 15  1  0  0  0  0
  3 16  1  0  0  0  0
  4  3  1  0  0  0  0
  6  7  1  0  0  0  0
  7  9  2  0  0  0  0
  7  8  1  0  0  0  0
  9 10  1  0  0  0  0
 11 12  1  0  0  0  0
 11  9  1  0  0  0  0
 13 11  2  0  0  0  0
 14 13  1  0  0  0  0
 15  6  2  0  0  0  0
 15  5  1  0  0  0  0
 16  5  2  0  0  0  0
 16 17  1  0  0  0  0
 17 18  1  0  0  0  0
 18 19  1  0  0  0  0
 18 20  2  0  0  0  0
 20 21  1  0  0  0  0
 22 20  1  0  0  0  0
 22 23  1  0  0  0  0
 24 22  2  0  0  0  0
 25 24  1  0  0  0  0
 26 17  2  0  0  0  0
 26 24  1  0  0  0  0
 27 26  1  0  0  0  0
M  END
