1,3
q = 0.0, confidence = 0.998

 34 36  0  0  0  0  0  0  0  0999 V2000
   -2.2952   -0.0257    0.5918 N   0  0  0  0  0  2  0  0  0  0  0  0
   -0.8579    2.2153   -0.7693 N   0  0  0  0  0  0  0  0  0  0  0  0
    0.0491    1.2620   -0.4270 N   0  0  0  0  0  2  0  0  0  0  0  0
   -2.8005   -0.7296    1.6280 C   0  0  0  0  0  3  0  0  0  0  0  0
   -2.3026   -1.6837    1.8569 H   0  0  0  0  0  0  0  0  0  0  0  0
   -3.9207   -0.2731    2.3298 C   0  0  0  0  0  0  0  0  0  0  0  0
   -4.3099   -0.8678    3.1680 H   0  0  0  0  0  0  0  0  0  0  0  0
   -4.5219    0.9299    1.9395 C   0  0  0  0  0  0  0  0  0  0  0  0
   -5.4061    1.3126    2.4706 H   0  0  0  0  0  0  0  0  0  0  0  0
   -3.9848    1.6441    0.8572 C   0  0  0  0  0  0  0  0  0  0  0  0
   -4.4393    2.5871    0.5213 H   0  0  0  0  0  0  0  0  0  0  0  0
   -2.8606    1.1436    0.1897 C   0  0  0  0  0  0  0  0  0  0  0  0
   -2.2444    1.8441   -1.0069 C   0  0  0  0  0  0  0  0  0  0  0  0
   -2.3015    1.1829   -1.9014 H   0  0  0  0  0  0  0  0  0  0  0  0
   -2.8020    2.7682   -1.2387 H   0  0  0  0  0  0  0  0  0  0  0  0
   -0.2606    3.4383   -0.7846 C   0  0  0  0  0  3  0  0  0  0  0  0
   -0.8309    4.3418   -1.0279 H   0  0  0  0  0  0  0  0  0  0  0  0
    1.0735    3.2568   -0.4412 C   0  0  0  0  0  0  0  0  0  0  0  0
    1.8366    4.0318   -0.3224 H   0  0  0  0  0  0  0  0  0  0  0  0
    1.2458    1.8671   -0.1978 C   0  0  0  0  0  0  0  0  0  0  0  0
    2.4412    1.1635    0.2661 C   0  0  0  0  0  0  0  0  0  0  0  0
    3.7115    1.5546   -0.2120 C   0  0  0  0  0  0  0  0  0  0  0  0
    3.7921    2.3639   -0.9532 H   0  0  0  0  0  0  0  0  0  0  0  0
    4.8629    0.8932    0.2219 C   0  0  0  0  0  0  0  0  0  0  0  0
    5.8431    1.2029   -0.1717 H   0  0  0  0  0  0  0  0  0  0  0  0
    4.7936   -0.1697    1.1494 C   0  0  0  0  0  0  0  0  0  0  0  0
    3.5219   -0.5367    1.6402 C   0  0  0  0  0  0  0  0  0  0  0  0
    3.4426   -1.3457    2.3822 H   0  0  0  0  0  0  0  0  0  0  0  0
    2.3640    0.1153    1.2102 C   0  0  0  0  0  0  0  0  0  0  0  0
    1.3918   -0.1756    1.6377 H   0  0  0  0  0  0  0  0  0  0  0  0
    6.0351   -0.8989    1.5830 C   0  0  0  0  0  0  0  0  0  0  0  0
    5.9005   -1.3946    2.5633 H   0  0  0  0  0  0  0  0  0  0  0  0
    6.9071   -0.2192    1.6476 H   0  0  0  0  0  0  0  0  0  0  0  0
    6.2953   -1.6899    0.8470 H   0  0  0  0  0  0  0  0  0  0  0  0
  1  4  1  0  0  0  0
  2  3  1  0  0  0  0
  3 20  1  0  0  0  0
  4  5  1  0  0  0  0
  4  6  1  0  0  0  0
  6  7  1  0  0  0  0
  8  6  2  0  0  0  0
  8  9  1  0  0  0  0
 10  8  1  0  0  0  0
 11 10  1  0  0  0  0
 12  1  1  0  0  0  0
 12 10  2  0  0  0  0
 13  2  1  0  0  0  0
 13 12  1  0  0  0  0
 14 13  1  0  0  0  0
 15 13  1  0  0  0  0
 16  2  1  0  0  0  0
 16 18  1  0  0  0  0
 17 16  1  0  0  0  0
 18 19  1  0  0  0  0
 18 20  2  0  0  0  0
 20 21  1  0  0  0  0
 21 29  1  0  0  0  0
 22 24  1  0  0  0  0
 22 21  2  0  0  0  0
 23 22  1  0  0  0  0
 24 26  2  0  0  0  0
 25 24  1  0  0  0  0
 26 31  1  0  0  0  0
 26 27  1  0  0  0  0
 27 28  1  0  0  0  0
 29 30  1  0  0  0  0
 29 27  2  0  0  0  0
 31 33  1  0  0  0  0
 31 32  1  0  0  0  0
 34 31  1  0  0  0  0
M  END
