1,12
q = -1.0, confidence = 0.004

 19 20  0  0  0  0  0  0  0  0999 V2000
    0.9021    1.3575   -0.0947 N   0  0  0  0  0  2  0  0  0  0  0  0
    0.5992    2.6772   -0.1239 C   0  0  0  0  0  0  0  0  0  0  0  0
    1.6769    3.5505   -0.1779 C   0  0  0  0  0  3  0  0  0  0  0  0
    3.0028    3.1572   -0.2137 C   0  0  0  0  0  0  0  0  0  0  0  0
    3.2789    1.7783   -0.2038 C   0  0  0  0  0  0  0  0  0  0  0  0
    2.1839    0.8955   -0.1384 C   0  0  0  0  0  0  0  0  0  0  0  0
    2.3144   -0.5745   -0.1182 C   0  0  0  0  0  0  0  0  0  0  0  0
    3.5404   -1.2647   -0.1544 C   0  0  0  0  0  0  0  0  0  0  0  0
    3.5435   -2.6640   -0.1306 C   0  0  0  0  0  0  0  0  0  0  0  0
    2.3226   -3.3519   -0.0690 C   0  0  0  0  0  0  0  0  0  0  0  0
    1.1410   -2.6050   -0.0356 C   0  0  0  0  0  0  0  0  0  0  0  0
    1.1348   -1.2593   -0.0620 N   0  0  0  0  0  2  0  0  0  0  0  0
   -0.4704    2.9363   -0.1119 H   0  0  0  0  0  0  0  0  0  0  0  0
    3.8285    3.8890   -0.2503 H   0  0  0  0  0  0  0  0  0  0  0  0
    4.3120    1.4020   -0.2430 H   0  0  0  0  0  0  0  0  0  0  0  0
    4.4883   -0.7139   -0.2015 H   0  0  0  0  0  0  0  0  0  0  0  0
    4.4954   -3.2143   -0.1599 H   0  0  0  0  0  0  0  0  0  0  0  0
    2.2798   -4.4497   -0.0475 H   0  0  0  0  0  0  0  0  0  0  0  0
    0.1612   -3.1041    0.0124 H   0  0  0  0  0  0  0  0  0  0  0  0
  2 13  1  0  0  0  0
  2  1  1  0  0  0  0
  3  2  2  0  0  0  0
  4  5  2  0  0  0  0
  4  3  1  0  0  0  0
  5  6  1  0  0  0  0
  6  7  2  0  0  0  0
  6  1  1  0  0  0  0
  7 12  1  0  0  0  0
  8  9  2  0  0  0  0
  8  7  1  0  0  0  0
  9 10  1  0  0  0  0
 10 18  1  0  0  0  0
 10 11  2  0  0  0  0
 11 19  1  0  0  0  0
 12 11  1  0  0  0  0
 14  4  1  0  0  0  0
 15  5  1  0  0  0  0
 16  8  1  0  0  0  0
 17  9  1  0  0  0  0
M  END
