2,3
q = 0.0, confidence = 1.0

 18 18  0  0  0  0  0  0  0  0999 V2000
   -0.5648    2.1453   -2.1413 O   0  0  0  0  0  0  0  0  0  0  0  0
   -0.9557    1.3641   -1.1215 N   0  0  0  0  0  2  0  0  0  0  0  0
   -1.5175   -0.2749    0.6600 N   0  0  0  0  0  2  0  0  0  0  0  0
   -2.5190    3.1861   -0.5093 C   0  0  0  0  0  0  0  0  0  0  0  0
   -2.8360    3.6225    0.4569 H   0  0  0  0  0  0  0  0  0  0  0  0
   -3.4123    3.1298   -1.1684 H   0  0  0  0  0  0  0  0  0  0  0  0
   -1.7976    3.8680   -0.9969 H   0  0  0  0  0  0  0  0  0  0  0  0
   -1.8992    1.8408   -0.3211 C   0  0  0  0  0  0  0  0  0  0  0  0
   -2.2584    0.8823    0.7005 C   0  0  0  0  0  0  0  0  0  0  0  0
   -3.2891    1.0388    1.6502 C   0  0  0  0  0  0  0  0  0  0  0  0
   -3.8818    1.9638    1.6577 H   0  0  0  0  0  0  0  0  0  0  0  0
   -3.5494    0.0072    2.5547 C   0  0  0  0  0  0  0  0  0  0  0  0
   -4.3457    0.1162    3.3055 H   0  0  0  0  0  0  0  0  0  0  0  0
   -2.7949   -1.1778    2.4776 C   0  0  0  0  0  0  0  0  0  0  0  0
   -2.9769   -2.0207    3.1581 H   0  0  0  0  0  0  0  0  0  0  0  0
   -1.7999   -1.2866    1.5026 C   0  0  0  0  0  0  0  0  0  0  0  0
   -1.2123   -2.2054    1.3714 H   0  0  0  0  0  0  0  0  0  0  0  0
    0.2015    1.5886   -2.5236 H   0  0  0  0  0  0  0  0  0  0  0  0
  1  2  1  0  0  0  0
  2  8  1  0  0  0  0
  3  9  1  0  0  0  0
  3 16  1  0  0  0  0
  4  8  1  0  0  0  0
  4  5  1  0  0  0  0
  6  4  1  0  0  0  0
  7  4  1  0  0  0  0
  8  9  2  0  0  0  0
  9 10  1  0  0  0  0
 10 11  1  0  0  0  0
 10 12  2  0  0  0  0
 12 13  1  0  0  0  0
 14 12  1  0  0  0  0
 14 15  1  0  0  0  0
 16 14  2  0  0  0  0
 17 16  1  0  0  0  0
 18  1  1  0  0  0  0
M  END
