4,7
q = 0.0, confidence = 0.994

 20 20  0  0  1  0  0  0  0  0999 V2000
    3.8281   -2.2528    0.4958 O   0  0  0  0  0  0  0  0  0  0  0  0
    4.9587   -0.5916   -0.5553 O   0  0  0  0  0  0  0  0  0  0  0  0
    5.7022   -1.2034   -0.3580 H   0  0  0  0  0  0  0  0  0  0  0  0
    1.3968   -1.0773    0.0114 N   0  0  0  0  0  0  0  0  0  0  0  0
    1.5119   -1.5462    0.9270 H   0  0  0  0  0  0  0  0  0  0  0  0
    1.2760   -1.8663   -0.6482 H   0  0  0  0  0  0  0  0  0  0  0  0
    0.3497    1.7474    0.0269 N   0  0  0  0  0  2  0  0  0  0  0  0
    0.6547    3.9086   -0.2360 N   0  0  0  0  0  0  0  0  0  0  0  0
    0.4481    4.8903   -0.4211 H   0  0  0  0  0  0  0  0  0  0  0  0
    2.6084   -0.2998   -0.2841 C   0  0  1  0  0  0  0  0  0  0  0  0
    2.5806    0.0103   -1.3491 H   0  0  0  0  0  0  0  0  0  0  0  0
    2.6877    0.9639    0.6015 C   0  0  0  0  0  0  0  0  0  0  0  0
    2.5451    0.6475    1.6594 H   0  0  0  0  0  0  0  0  0  0  0  0
    3.7067    1.3878    0.5253 H   0  0  0  0  0  0  0  0  0  0  0  0
    1.6957    2.0205    0.2371 C   0  0  0  0  0  0  0  0  0  0  0  0
    1.8937    3.3805    0.0685 C   0  0  0  0  0  0  0  0  0  0  0  0
    2.7954    3.9941    0.1503 H   0  0  0  0  0  0  0  0  0  0  0  0
   -0.2584    2.9029   -0.2601 C   0  0  0  0  0  3  0  0  0  0  0  0
   -1.3349    2.9914   -0.4582 H   0  0  0  0  0  0  0  0  0  0  0  0
    3.8443   -1.1761   -0.0661 C   0  0  0  0  0  0  0  0  0  0  0  0
  2  3  1  0  0  0  0
  2 20  1  0  0  0  0
  4  5  1  0  0  0  0
  6  4  1  0  0  0  0
  7 15  1  0  0  0  0
  8 16  1  0  0  0  0
  9  8  1  0  0  0  0
 10 11  1  6  0  0  0
 10 20  1  0  0  0  0
 10  4  1  0  0  0  0
 10 12  1  0  0  0  0
 12 13  1  0  0  0  0
 14 12  1  0  0  0  0
 15 12  1  0  0  0  0
 16 17  1  0  0  0  0
 16 15  2  0  0  0  0
 18  8  1  0  0  0  0
 18  7  1  0  0  0  0
 19 18  1  0  0  0  0
 20  1  2  0  0  0  0
M  END
