1,9
q = 0.0, confidence = 0.984

 16 17  0  0  0  0  0  0  0  0999 V2000
   -2.4375    1.3010    0.1201 N   0  0  0  0  0  2  0  0  0  0  0  0
   -3.6401    0.6842    0.0403 N   0  0  0  0  0  0  0  0  0  0  0  0
   -2.7135    2.6162    0.1674 C   0  0  0  0  0  3  0  0  0  0  0  0
   -4.1103    2.8282    0.1183 C   0  0  0  0  0  0  0  0  0  0  0  0
   -4.6879    1.5623    0.0314 C   0  0  0  0  0  0  0  0  0  0  0  0
   -1.8863    3.3311    0.2252 H   0  0  0  0  0  0  0  0  0  0  0  0
   -4.6417    3.7843    0.1396 H   0  0  0  0  0  0  0  0  0  0  0  0
   -5.7273    1.2290   -0.0349 H   0  0  0  0  0  0  0  0  0  0  0  0
   -2.4377   -1.3007   -0.1201 N   0  0  0  0  0  2  0  0  0  0  0  0
   -3.6402   -0.6836   -0.0406 N   0  0  0  0  0  0  0  0  0  0  0  0
   -2.7140   -2.6159   -0.1670 C   0  0  0  0  0  3  0  0  0  0  0  0
   -4.6882   -1.5615   -0.0317 C   0  0  0  0  0  0  0  0  0  0  0  0
   -4.1109   -2.8276   -0.1180 C   0  0  0  0  0  0  0  0  0  0  0  0
   -1.8871   -3.3310   -0.2243 H   0  0  0  0  0  0  0  0  0  0  0  0
   -5.7276   -1.2279    0.0342 H   0  0  0  0  0  0  0  0  0  0  0  0
   -4.6425   -3.7835   -0.1391 H   0  0  0  0  0  0  0  0  0  0  0  0
  1  3  1  0  0  0  0
  2  1  1  0  0  0  0
  3  6  1  0  0  0  0
  4  7  1  0  0  0  0
  4  3  1  0  0  0  0
  5  2  1  0  0  0  0
  5  4  2  0  0  0  0
  8  5  1  0  0  0  0
  9 10  1  0  0  0  0
 10 12  1  0  0  0  0
 10  2  1  0  0  0  0
 11  9  1  0  0  0  0
 11 13  1  0  0  0  0
 12 15  1  0  0  0  0
 13 12  2  0  0  0  0
 14 11  1  0  0  0  0
 16 13  1  0  0  0  0
M  END
