4,6
q = -1.0, confidence = 0.0

 29 31  0  0  1  0  0  0  0  0999 V2000
    1.8909    2.4872    1.5520 S   0  0  0  0  0  0  0  0  0  0  0  0
    3.1895    2.9074    2.1383 O   0  0  0  0  0  0  0  0  0  0  0  0
    0.8113    3.4809    1.3428 O   0  0  0  0  0  0  0  0  0  0  0  0
   -0.8635    1.2687    0.1490 N   0  0  0  0  0  2  0  0  0  0  0  0
   -1.0059    2.5219   -1.6861 N   0  0  0  0  0  0  0  0  0  0  0  0
    1.3486    1.1646    2.3451 N   0  0  0  0  0  2  0  0  0  0  0  0
   -0.1721    1.8275   -0.8443 C   0  0  2  0  0  3  0  0  0  0  0  0
   -2.3003    2.4349   -1.1943 C   0  0  0  0  0  0  0  0  0  0  0  0
   -3.5282    2.9516   -1.6334 C   0  0  0  0  0  0  0  0  0  0  0  0
   -4.6540    2.6366   -0.8606 C   0  0  0  0  0  0  0  0  0  0  0  0
   -4.5564    1.8365    0.3042 C   0  0  0  0  0  0  0  0  0  0  0  0
   -3.3311    1.3211    0.7381 C   0  0  0  0  0  0  0  0  0  0  0  0
   -2.1911    1.6305   -0.0240 C   0  0  0  0  0  0  0  0  0  0  0  0
    1.2658    1.6624   -1.1155 C   0  0  0  0  0  0  0  0  0  0  0  0
    1.6565    1.2365   -2.4051 C   0  0  0  0  0  0  0  0  0  0  0  0
    3.0066    1.0268   -2.7164 C   0  0  0  0  0  0  0  0  0  0  0  0
    3.9895    1.2605   -1.7430 C   0  0  0  0  0  0  0  0  0  0  0  0
    3.6180    1.6978   -0.4639 C   0  0  0  0  0  0  0  0  0  0  0  0
    2.2683    1.8894   -0.1400 C   0  0  0  0  0  0  0  0  0  0  0  0
   -0.6845    3.1052   -2.4585 H   0  0  0  0  0  0  0  0  0  0  0  0
    2.0332    0.9221    3.0699 H   0  0  0  0  0  0  0  0  0  0  0  0
   -3.6075    3.5758   -2.5351 H   0  0  0  0  0  0  0  0  0  0  0  0
   -5.6376    3.0234   -1.1657 H   0  0  0  0  0  0  0  0  0  0  0  0
   -5.4679    1.6131    0.8779 H   0  0  0  0  0  0  0  0  0  0  0  0
   -3.2409    0.6767    1.6224 H   0  0  0  0  0  0  0  0  0  0  0  0
    0.8789    1.0408   -3.1600 H   0  0  0  0  0  0  0  0  0  0  0  0
    3.2898    0.6784   -3.7206 H   0  0  0  0  0  0  0  0  0  0  0  0
    5.0519    1.1005   -1.9797 H   0  0  0  0  0  0  0  0  0  0  0  0
    4.3650    1.9131    0.3143 H   0  0  0  0  0  0  0  0  0  0  0  0
  1  2  2  0  0  0  0
  1  6  1  0  0  0  0
  3  1  2  0  0  0  0
  5  8  1  0  0  0  0
  5  7  1  0  0  0  0
  6 21  1  0  0  0  0
  7 14  1  6  0  0  0
  7  4  1  0  0  0  0
  8 13  1  0  0  0  0
  9  8  2  0  0  0  0
  9 10  1  0  0  0  0
 10 11  2  0  0  0  0
 11 12  1  0  0  0  0
 11 24  1  0  0  0  0
 12 25  1  0  0  0  0
 13  4  1  0  0  0  0
 13 12  2  0  0  0  0
 14 19  1  0  0  0  0
 15 14  2  0  0  0  0
 16 15  1  0  0  0  0
 16 17  2  0  0  0  0
 17 18  1  0  0  0  0
 18 19  2  0  0  0  0
 18 29  1  0  0  0  0
 19  1  1  0  0  0  0
 20  5  1  0  0  0  0
 22  9  1  0  0  0  0
 23 10  1  0  0  0  0
 26 15  1  0  0  0  0
 27 16  1  0  0  0  0
 28 17  1  0  0  0  0
M  END
