2,4
q = 0.0, confidence = 0.984

 28 29  0  0  0  0  0  0  0  0999 V2000
    1.0678   -1.8830   -0.4086 O   0  0  0  0  0  0  0  0  0  0  0  0
   -2.6352    0.4219    1.0103 N   0  0  0  0  0  2  0  0  0  0  0  0
    1.0081   -1.0430    1.7244 N   0  0  0  0  0  0  0  0  0  0  0  0
   -0.2376   -0.6069    1.5843 N   0  0  0  0  0  2  0  0  0  0  0  0
   -3.8894    0.8063    0.7034 C   0  0  0  0  0  3  0  0  0  0  0  0
   -4.1740    0.7380   -0.3579 H   0  0  0  0  0  0  0  0  0  0  0  0
   -4.7793    1.2866    1.6708 C   0  0  0  0  0  0  0  0  0  0  0  0
   -5.7915    1.5959    1.3756 H   0  0  0  0  0  0  0  0  0  0  0  0
   -4.3420    1.3790    3.0025 C   0  0  0  0  0  0  0  0  0  0  0  0
   -5.0114    1.7652    3.7851 H   0  0  0  0  0  0  0  0  0  0  0  0
   -3.0437    0.9696    3.3230 C   0  0  0  0  0  0  0  0  0  0  0  0
   -2.6709    1.0159    4.3565 H   0  0  0  0  0  0  0  0  0  0  0  0
   -2.2035    0.4787    2.3039 C   0  0  0  0  0  0  0  0  0  0  0  0
   -0.8551   -0.0104    2.5613 C   0  0  0  0  0  3  0  0  0  0  0  0
   -0.4096    0.1350    3.5657 H   0  0  0  0  0  0  0  0  0  0  0  0
    1.6508   -1.7031    0.6510 C   0  0  0  0  0  0  0  0  0  0  0  0
    3.0574   -2.1129    0.9211 C   0  0  0  0  0  0  0  0  0  0  0  0
    3.5905   -2.2840    2.2185 C   0  0  0  0  0  0  0  0  0  0  0  0
    2.9641   -2.1526    3.1152 H   0  0  0  0  0  0  0  0  0  0  0  0
    4.9236   -2.6812    2.3851 C   0  0  0  0  0  0  0  0  0  0  0  0
    5.3298   -2.8239    3.3972 H   0  0  0  0  0  0  0  0  0  0  0  0
    5.7343   -2.9089    1.2612 C   0  0  0  0  0  0  0  0  0  0  0  0
    6.7820   -3.2175    1.3949 H   0  0  0  0  0  0  0  0  0  0  0  0
    5.2068   -2.7528   -0.0321 C   0  0  0  0  0  0  0  0  0  0  0  0
    5.8410   -2.9375   -0.9117 H   0  0  0  0  0  0  0  0  0  0  0  0
    3.8739   -2.3647   -0.2026 C   0  0  0  0  0  0  0  0  0  0  0  0
    3.4358   -2.2426   -1.2036 H   0  0  0  0  0  0  0  0  0  0  0  0
    1.5454   -0.8113    2.5721 H   0  0  0  0  0  0  0  0  0  0  0  0
  1 16  2  0  0  0  0
  2 13  1  0  0  0  0
  3 28  1  0  0  0  0
  4  3  1  0  0  0  0
  4 14  1  0  0  0  0
  5  2  1  0  0  0  0
  5  7  1  0  0  0  0
  6  5  1  0  0  0  0
  7  9  2  0  0  0  0
  8  7  1  0  0  0  0
  9 11  1  0  0  0  0
  9 10  1  0  0  0  0
 11 12  1  0  0  0  0
 13 14  1  0  0  0  0
 13 11  2  0  0  0  0
 14 15  1  0  0  0  0
 16 17  1  0  0  0  0
 16  3  1  0  0  0  0
 17 18  1  0  0  0  0
 18 20  2  0  0  0  0
 18 19  1  0  0  0  0
 20 21  1  0  0  0  0
 22 23  1  0  0  0  0
 22 20  1  0  0  0  0
 24 22  2  0  0  0  0
 25 24  1  0  0  0  0
 26 24  1  0  0  0  0
 26 17  2  0  0  0  0
 27 26  1  0  0  0  0
M  END
