1,2
q = 0.0, confidence = 1.0

 23 24  0  0  0  0  0  0  0  0999 V2000
    0.9464    1.5311   -0.1125 N   0  0  0  0  0  2  0  0  0  0  0  0
    1.8276   -1.0044    0.0445 N   0  0  0  0  0  2  0  0  0  0  0  0
    0.4146    2.7692   -0.2099 C   0  0  0  0  0  0  0  0  0  0  0  0
    1.1988    3.9190   -0.1009 C   0  0  0  0  0  0  0  0  0  0  0  0
    2.5775    3.7727    0.1143 C   0  0  0  0  0  0  0  0  0  0  0  0
    3.1203    2.4874    0.2118 C   0  0  0  0  0  0  0  0  0  0  0  0
    2.2857    1.3608    0.0952 C   0  0  0  0  0  0  0  0  0  0  0  0
    2.7723   -0.0351    0.1811 C   0  0  0  0  0  0  0  0  0  0  0  0
    4.1209   -0.3631    0.3889 C   0  0  0  0  0  0  0  0  0  0  0  0
    4.4817   -1.7151    0.4535 C   0  0  0  0  0  0  0  0  0  0  0  0
    3.4958   -2.6945    0.3104 C   0  0  0  0  0  0  0  0  0  0  0  0
    2.1505   -2.3194    0.1031 C   0  0  0  0  0  0  0  0  0  0  0  0
    1.0641   -3.3344   -0.0546 C   0  0  0  0  0  0  0  0  0  0  0  0
   -0.6706    2.8208   -0.3799 H   0  0  0  0  0  0  0  0  0  0  0  0
    0.7289    4.9085   -0.1855 H   0  0  0  0  0  0  0  0  0  0  0  0
    3.2279    4.6549    0.2049 H   0  0  0  0  0  0  0  0  0  0  0  0
    4.1970    2.3577    0.3785 H   0  0  0  0  0  0  0  0  0  0  0  0
    4.8834    0.4181    0.4993 H   0  0  0  0  0  0  0  0  0  0  0  0
    5.5316   -1.9998    0.6153 H   0  0  0  0  0  0  0  0  0  0  0  0
    3.7508   -3.7625    0.3569 H   0  0  0  0  0  0  0  0  0  0  0  0
    1.4661   -4.3600    0.0189 H   0  0  0  0  0  0  0  0  0  0  0  0
    0.2755   -3.1971    0.7127 H   0  0  0  0  0  0  0  0  0  0  0  0
    0.5467   -3.2157   -1.0283 H   0  0  0  0  0  0  0  0  0  0  0  0
  1  7  1  0  0  0  0
  2 12  1  0  0  0  0
  2  8  1  0  0  0  0
  3  1  1  0  0  0  0
  3  4  2  0  0  0  0
  4  5  1  0  0  0  0
  5 16  1  0  0  0  0
  5  6  2  0  0  0  0
  6 17  1  0  0  0  0
  7  8  2  0  0  0  0
  7  6  1  0  0  0  0
  8  9  1  0  0  0  0
  9 10  2  0  0  0  0
  9 18  1  0  0  0  0
 10 19  1  0  0  0  0
 11 20  1  0  0  0  0
 11 10  1  0  0  0  0
 12 11  2  0  0  0  0
 13 21  1  0  0  0  0
 13 12  1  0  0  0  0
 13 22  1  0  0  0  0
 14  3  1  0  0  0  0
 15  4  1  0  0  0  0
 23 13  1  0  0  0  0
M  END
