1,7
q = 0.0, confidence = 1.0

 18 19  0  0  0  0  0  0  0  0999 V2000
   -1.0169    1.4673   -0.9794 N   0  0  0  0  0  2  0  0  0  0  0  0
   -0.5642    1.7444   -2.2493 C   0  0  0  0  0  0  0  0  0  0  0  0
   -2.1206    2.1073   -0.5357 C   0  0  0  0  0  0  0  0  0  0  0  0
   -2.4577    1.8439    0.4763 H   0  0  0  0  0  0  0  0  0  0  0  0
    2.1305   -0.4733   -2.0582 N   0  0  0  0  0  0  0  0  0  0  0  0
    2.6364   -1.1678   -1.4592 H   0  0  0  0  0  0  0  0  0  0  0  0
    1.0506    0.1703   -1.5996 N   0  0  0  0  0  2  0  0  0  0  0  0
    0.6188    0.9825   -2.5986 C   0  0  0  0  0  0  0  0  0  0  0  0
    1.4686    0.8440   -3.7269 C   0  0  0  0  0  0  0  0  0  0  0  0
    1.3971    1.3498   -4.6941 H   0  0  0  0  0  0  0  0  0  0  0  0
   -1.2144    2.6737   -3.0775 C   0  0  0  0  0  0  0  0  0  0  0  0
   -0.8198    2.8633   -4.0856 H   0  0  0  0  0  0  0  0  0  0  0  0
   -2.8138    3.0413   -1.3101 C   0  0  0  0  0  0  0  0  0  0  0  0
   -3.7100    3.5253   -0.8975 H   0  0  0  0  0  0  0  0  0  0  0  0
    2.4194   -0.0980   -3.3368 C   0  0  0  0  0  0  0  0  0  0  0  0
    3.2732   -0.5323   -3.8666 H   0  0  0  0  0  0  0  0  0  0  0  0
   -2.3541    3.3332   -2.6058 C   0  0  0  0  0  0  0  0  0  0  0  0
   -2.8810    4.0608   -3.2399 H   0  0  0  0  0  0  0  0  0  0  0  0
  1  3  1  0  0  0  0
  2  1  1  0  0  0  0
  3  4  1  0  0  0  0
  5  7  1  0  0  0  0
  5  6  1  0  0  0  0
  8  2  2  0  0  0  0
  8  7  1  0  0  0  0
  9 15  2  0  0  0  0
  9  8  1  0  0  0  0
 10  9  1  0  0  0  0
 11 17  2  0  0  0  0
 11  2  1  0  0  0  0
 12 11  1  0  0  0  0
 13 14  1  0  0  0  0
 13  3  2  0  0  0  0
 15  5  1  0  0  0  0
 16 15  1  0  0  0  0
 17 13  1  0  0  0  0
 18 17  1  0  0  0  0
M  END
