1,2
q = 0.0, confidence = 0.998

 27 29  0  0  1  0  0  0  0  0999 V2000
    0.3633    2.4702   -0.8932 N   0  0  0  0  0  2  0  0  0  0  0  0
   -1.6480    0.7188   -1.2388 N   0  0  0  0  0  2  0  0  0  0  0  0
   -3.0917    1.7877    0.1199 N   0  0  0  0  0  0  0  0  0  0  0  0
   -3.3890    2.4230    0.8597 H   0  0  0  0  0  0  0  0  0  0  0  0
    2.7253    2.7947   -1.3429 C   0  0  0  0  0  0  0  0  0  0  0  0
    2.5605    2.1451   -2.2291 H   0  0  0  0  0  0  0  0  0  0  0  0
    3.1966    2.1436   -0.5750 H   0  0  0  0  0  0  0  0  0  0  0  0
    3.4306    3.6135   -1.5795 H   0  0  0  0  0  0  0  0  0  0  0  0
    1.4176    3.3161   -0.8285 C   0  0  2  0  0  3  0  0  0  0  0  0
    1.2746    4.6015   -0.2689 C   0  0  0  0  0  0  0  0  0  0  0  0
    2.1437    5.2739   -0.2297 H   0  0  0  0  0  0  0  0  0  0  0  0
    0.0272    5.0103    0.2314 C   0  0  0  0  0  0  0  0  0  0  0  0
   -0.0973    6.0143    0.6637 H   0  0  0  0  0  0  0  0  0  0  0  0
   -1.0569    4.1300    0.1652 C   0  0  0  0  0  0  0  0  0  0  0  0
   -2.0504    4.4287    0.5305 H   0  0  0  0  0  0  0  0  0  0  0  0
   -0.8492    2.8599   -0.4062 C   0  0  0  0  0  0  0  0  0  0  0  0
   -1.8666    1.8260   -0.5185 C   0  0  1  0  0  3  0  0  0  0  0  0
   -3.6713    0.5623   -0.1649 C   0  0  0  0  0  0  0  0  0  0  0  0
   -4.8602   -0.0509    0.2585 C   0  0  0  0  0  0  0  0  0  0  0  0
   -5.5656    0.4533    0.9349 H   0  0  0  0  0  0  0  0  0  0  0  0
   -5.0993   -1.3504   -0.2089 C   0  0  0  0  0  0  0  0  0  0  0  0
   -6.0178   -1.8701    0.1028 H   0  0  0  0  0  0  0  0  0  0  0  0
   -4.1880   -2.0147   -1.0682 C   0  0  0  0  0  0  0  0  0  0  0  0
   -4.4168   -3.0374   -1.4026 H   0  0  0  0  0  0  0  0  0  0  0  0
   -3.0055   -1.4004   -1.4937 C   0  0  0  0  0  0  0  0  0  0  0  0
   -2.2816   -1.9086   -2.1460 H   0  0  0  0  0  0  0  0  0  0  0  0
   -2.7462   -0.0969   -1.0319 C   0  0  0  0  0  0  0  0  0  0  0  0
  1  9  1  0  0  0  0
  1 16  1  0  0  0  0
  2 27  1  0  0  0  0
  2 17  1  0  0  0  0
  3  4  1  0  0  0  0
  5  7  1  0  0  0  0
  6  5  1  0  0  0  0
  8  5  1  0  0  0  0
  9  5  1  1  0  0  0
  9 10  1  0  0  0  0
 10 11  1  0  0  0  0
 10 12  2  0  0  0  0
 12 13  1  0  0  0  0
 14 12  1  0  0  0  0
 14 15  1  0  0  0  0
 16 14  2  0  0  0  0
 17 16  1  1  0  0  0
 17  3  1  0  0  0  0
 18  3  1  0  0  0  0
 18 19  1  0  0  0  0
 19 20  1  0  0  0  0
 21 22  1  0  0  0  0
 21 19  2  0  0  0  0
 23 21  1  0  0  0  0
 24 23  1  0  0  0  0
 25 23  2  0  0  0  0
 25 27  1  0  0  0  0
 26 25  1  0  0  0  0
 27 18  2  0  0  0  0
M  END
