2,17
q = 0.0, confidence = 0.966

 58 61  0  0  0  0  0  0  0  0999 V2000
   -2.9282   -1.6927   -0.0344 N   0  0  0  0  0  2  0  0  0  0  0  0
   -2.4536   -0.4589   -0.0306 N   0  0  0  0  0  2  0  0  0  0  0  0
   -3.2967    0.5874   -0.0140 C   0  0  0  0  0  0  0  0  0  0  0  0
   -4.6366    0.4703   -0.0067 N   0  0  0  0  0  0  0  0  0  0  0  0
   -5.1393   -0.7654   -0.0113 C   0  0  0  0  0  0  0  0  0  0  0  0
   -4.2509   -1.8899   -0.0232 C   0  0  0  0  0  0  0  0  0  0  0  0
   -2.6929    1.9466   -0.0063 C   0  0  0  0  0  0  0  0  0  0  0  0
   -1.3466    2.0313    0.0011 N   0  0  0  0  0  0  0  0  0  0  0  0
   -0.7469    3.2390   -0.0014 C   0  0  0  0  0  0  0  0  0  0  0  0
   -1.5069    4.4285   -0.0065 C   0  0  0  0  0  0  0  0  0  0  0  0
   -1.0165    5.4102   -0.0086 H   0  0  0  0  0  0  0  0  0  0  0  0
   -2.9038    4.3458   -0.0096 C   0  0  0  0  0  0  0  0  0  0  0  0
   -3.5121    5.2622   -0.0129 H   0  0  0  0  0  0  0  0  0  0  0  0
   -3.5152    3.0879   -0.0102 C   0  0  0  0  0  0  0  0  0  0  0  0
   -4.6051    2.9562   -0.0146 H   0  0  0  0  0  0  0  0  0  0  0  0
    2.9281   -1.6927    0.0350 N   0  0  0  0  0  2  0  0  0  0  0  0
    2.4538   -0.4589    0.0311 N   0  0  0  0  0  2  0  0  0  0  0  0
    3.2969    0.5873    0.0139 C   0  0  0  0  0  0  0  0  0  0  0  0
    4.6368    0.4700    0.0059 N   0  0  0  0  0  0  0  0  0  0  0  0
    5.1393   -0.7657    0.0105 C   0  0  0  0  0  0  0  0  0  0  0  0
    4.2508   -1.8901    0.0231 C   0  0  0  0  0  0  0  0  0  0  0  0
    2.6933    1.9465    0.0061 C   0  0  0  0  0  0  0  0  0  0  0  0
    1.3469    2.0313   -0.0012 N   0  0  0  0  0  0  0  0  0  0  0  0
    0.7472    3.2390    0.0011 C   0  0  0  0  0  0  0  0  0  0  0  0
    1.5073    4.4284    0.0061 C   0  0  0  0  0  0  0  0  0  0  0  0
    1.0169    5.4102    0.0082 H   0  0  0  0  0  0  0  0  0  0  0  0
    2.9042    4.3457    0.0091 C   0  0  0  0  0  0  0  0  0  0  0  0
    3.5125    5.2621    0.0122 H   0  0  0  0  0  0  0  0  0  0  0  0
    3.5155    3.0878    0.0098 C   0  0  0  0  0  0  0  0  0  0  0  0
    4.6054    2.9561    0.0141 H   0  0  0  0  0  0  0  0  0  0  0  0
   -6.6338   -0.9453   -0.0031 C   0  0  0  0  0  0  0  0  0  0  0  0
   -6.8926   -1.5820    0.8732 H   0  0  0  0  0  0  0  0  0  0  0  0
   -6.9036   -1.5749   -0.8812 H   0  0  0  0  0  0  0  0  0  0  0  0
   -7.4383    0.3497    0.0074 C   0  0  0  0  0  0  0  0  0  0  0  0
   -7.1993    0.9609    0.8994 H   0  0  0  0  0  0  0  0  0  0  0  0
   -8.5238    0.1324    0.0134 H   0  0  0  0  0  0  0  0  0  0  0  0
   -7.2107    0.9684   -0.8824 H   0  0  0  0  0  0  0  0  0  0  0  0
   -4.7286   -3.3168   -0.0238 C   0  0  0  0  0  0  0  0  0  0  0  0
   -5.3934   -3.4552    0.8596 H   0  0  0  0  0  0  0  0  0  0  0  0
   -5.4044   -3.4514   -0.8995 H   0  0  0  0  0  0  0  0  0  0  0  0
   -3.6124   -4.3591   -0.0330 C   0  0  0  0  0  0  0  0  0  0  0  0
   -2.9624   -4.2493   -0.9218 H   0  0  0  0  0  0  0  0  0  0  0  0
   -4.0422   -5.3794   -0.0321 H   0  0  0  0  0  0  0  0  0  0  0  0
   -2.9508   -4.2527    0.8478 H   0  0  0  0  0  0  0  0  0  0  0  0
    6.6339   -0.9458    0.0017 C   0  0  0  0  0  0  0  0  0  0  0  0
    6.9039   -1.5753    0.8798 H   0  0  0  0  0  0  0  0  0  0  0  0
    6.8922   -1.5828   -0.8746 H   0  0  0  0  0  0  0  0  0  0  0  0
    7.4384    0.3491   -0.0095 C   0  0  0  0  0  0  0  0  0  0  0  0
    7.1991    0.9601   -0.9015 H   0  0  0  0  0  0  0  0  0  0  0  0
    8.5239    0.1317   -0.0160 H   0  0  0  0  0  0  0  0  0  0  0  0
    7.2114    0.9680    0.8803 H   0  0  0  0  0  0  0  0  0  0  0  0
    4.7284   -3.3171    0.0237 C   0  0  0  0  0  0  0  0  0  0  0  0
    5.3923   -3.4559   -0.8602 H   0  0  0  0  0  0  0  0  0  0  0  0
    5.4049   -3.4516    0.8988 H   0  0  0  0  0  0  0  0  0  0  0  0
    3.6120   -4.3593    0.0341 C   0  0  0  0  0  0  0  0  0  0  0  0
    2.9626   -4.2490    0.9234 H   0  0  0  0  0  0  0  0  0  0  0  0
    4.0417   -5.3796    0.0333 H   0  0  0  0  0  0  0  0  0  0  0  0
    2.9497   -4.2531   -0.8462 H   0  0  0  0  0  0  0  0  0  0  0  0
  1  2  1  0  0  0  0
  1  6  1  0  0  0  0
  2  3  1  0  0  0  0
  3  4  2  0  0  0  0
  3  7  1  0  0  0  0
  5  4  1  0  0  0  0
  5 31  1  0  0  0  0
  6  5  2  0  0  0  0
  7  8  1  0  0  0  0
  9  8  2  0  0  0  0
  9 24  1  0  0  0  0
 10  9  1  0  0  0  0
 11 10  1  0  0  0  0
 12 10  2  0  0  0  0
 13 12  1  0  0  0  0
 14 12  1  0  0  0  0
 14  7  2  0  0  0  0
 15 14  1  0  0  0  0
 17 16  1  0  0  0  0
 18 17  1  0  0  0  0
 19 20  1  0  0  0  0
 19 18  2  0  0  0  0
 20 21  2  0  0  0  0
 21 52  1  0  0  0  0
 21 16  1  0  0  0  0
 22 29  1  0  0  0  0
 22 18  1  0  0  0  0
 23 24  1  0  0  0  0
 23 22  2  0  0  0  0
 24 25  2  0  0  0  0
 25 26  1  0  0  0  0
 25 27  1  0  0  0  0
 27 29  2  0  0  0  0
 27 28  1  0  0  0  0
 29 30  1  0  0  0  0
 31 34  1  0  0  0  0
 31 32  1  0  0  0  0
 33 31  1  0  0  0  0
 34 36  1  0  0  0  0
 34 35  1  0  0  0  0
 37 34  1  0  0  0  0
 38  6  1  0  0  0  0
 38 39  1  0  0  0  0
 40 38  1  0  0  0  0
 41 43  1  0  0  0  0
 41 38  1  0  0  0  0
 41 44  1  0  0  0  0
 42 41  1  0  0  0  0
 45 20  1  0  0  0  0
 45 46  1  0  0  0  0
 47 45  1  0  0  0  0
 48 45  1  0  0  0  0
 48 51  1  0  0  0  0
 49 48  1  0  0  0  0
 50 48  1  0  0  0  0
 52 55  1  0  0  0  0
 52 54  1  0  0  0  0
 53 52  1  0  0  0  0
 55 56  1  0  0  0  0
 57 55  1  0  0  0  0
 58 55  1  0  0  0  0
M  END
