2,7
q = 0.0, confidence = 0.992

 29 31  0  0  1  0  0  0  0  0999 V2000
   -2.0593   -0.5289   -1.1923 N   0  0  0  0  0  0  0  0  0  0  0  0
   -0.7984   -0.9619   -1.4434 N   0  0  0  0  0  2  0  0  0  0  0  0
   -0.8513   -1.6039   -2.6242 C   0  0  0  0  0  3  0  0  0  0  0  0
   -2.1651   -1.5757   -3.1429 C   0  0  0  0  0  0  0  0  0  0  0  0
   -2.9128   -0.8760   -2.1997 C   0  0  0  0  0  0  0  0  0  0  0  0
   -2.0597   -0.5289    1.1919 N   0  0  0  0  0  0  0  0  0  0  0  0
   -0.7987   -0.9617    1.4434 N   0  0  0  0  0  2  0  0  0  0  0  0
   -0.8521   -1.6041    2.6241 C   0  0  0  0  0  3  0  0  0  0  0  0
   -2.1662   -1.5763    3.1421 C   0  0  0  0  0  0  0  0  0  0  0  0
   -2.9136   -0.8765    2.1987 C   0  0  0  0  0  0  0  0  0  0  0  0
   -2.3126    0.2740   -0.0002 C   0  0  1  0  0  0  0  0  0  0  0  0
   -1.5042    1.5721   -0.0001 C   0  0  0  0  0  0  0  0  0  0  0  0
   -1.1687    2.1952    1.2175 C   0  0  0  0  0  0  0  0  0  0  0  0
   -0.4733    3.4124    1.2148 C   0  0  0  0  0  0  0  0  0  0  0  0
   -0.1175    4.0201    0.0002 C   0  0  0  0  0  0  0  0  0  0  0  0
   -0.4724    3.4122   -1.2146 C   0  0  0  0  0  0  0  0  0  0  0  0
   -1.1678    2.1950   -1.2176 C   0  0  0  0  0  0  0  0  0  0  0  0
    0.0525   -2.0623   -3.0413 H   0  0  0  0  0  0  0  0  0  0  0  0
   -2.5233   -2.0095   -4.0815 H   0  0  0  0  0  0  0  0  0  0  0  0
   -3.9712   -0.5932   -2.1737 H   0  0  0  0  0  0  0  0  0  0  0  0
    0.0516   -2.0623    3.0415 H   0  0  0  0  0  0  0  0  0  0  0  0
   -2.5247   -2.0105    4.0804 H   0  0  0  0  0  0  0  0  0  0  0  0
   -3.9721   -0.5940    2.1722 H   0  0  0  0  0  0  0  0  0  0  0  0
   -3.4003    0.4891   -0.0004 H   0  0  0  0  0  0  0  0  0  0  0  0
   -1.4391    1.7256    2.1751 H   0  0  0  0  0  0  0  0  0  0  0  0
   -0.2102    3.8904    2.1700 H   0  0  0  0  0  0  0  0  0  0  0  0
    0.4284    4.9752    0.0003 H   0  0  0  0  0  0  0  0  0  0  0  0
   -0.2086    3.8900   -2.1697 H   0  0  0  0  0  0  0  0  0  0  0  0
   -1.4375    1.7252   -2.1753 H   0  0  0  0  0  0  0  0  0  0  0  0
  1 11  1  0  0  0  0
  2  1  1  0  0  0  0
  3  2  1  0  0  0  0
  4  3  1  0  0  0  0
  4  5  2  0  0  0  0
  5 20  1  0  0  0  0
  5  1  1  0  0  0  0
  6  7  1  0  0  0  0
  6 10  1  0  0  0  0
  7  8  1  0  0  0  0
  8 21  1  0  0  0  0
  8  9  1  0  0  0  0
  9 22  1  0  0  0  0
 10  9  2  0  0  0  0
 11 24  1  6  0  0  0
 11 12  1  0  0  0  0
 11  6  1  0  0  0  0
 12 13  1  0  0  0  0
 13 25  1  0  0  0  0
 14 13  2  0  0  0  0
 14 26  1  0  0  0  0
 15 27  1  0  0  0  0
 15 14  1  0  0  0  0
 16 15  2  0  0  0  0
 17 16  1  0  0  0  0
 17 12  2  0  0  0  0
 18  3  1  0  0  0  0
 19  4  1  0  0  0  0
 23 10  1  0  0  0  0
 28 16  1  0  0  0  0
 29 17  1  0  0  0  0
M  END
