1,3
q = 0.0, confidence = 0.998

 23 23  0  0  1  0  0  0  0  0999 V2000
    0.9435    0.4842    0.0805 N   0  0  0  0  0  2  0  0  0  0  0  0
    1.8326   -0.4633   -0.3286 N   0  0  0  0  0  0  0  0  0  0  0  0
   -0.5074   -1.8855    0.8855 N   0  0  0  0  0  0  0  0  0  0  0  0
    1.6543    1.5459    0.5133 C   0  0  2  0  0  3  0  0  0  0  0  0
    3.0345    1.2570    0.3627 C   0  0  0  0  0  0  0  0  0  0  0  0
    3.8717    1.9168    0.6120 H   0  0  0  0  0  0  0  0  0  0  0  0
    3.1233   -0.0296   -0.1709 C   0  0  0  0  0  0  0  0  0  0  0  0
    1.3381   -1.7411   -0.8079 C   0  0  0  0  0  0  0  0  0  0  0  0
    2.1962   -2.3030   -1.2234 H   0  0  0  0  0  0  0  0  0  0  0  0
    0.6137   -1.5503   -1.6278 H   0  0  0  0  0  0  0  0  0  0  0  0
    0.6673   -2.5703    0.2987 C   0  0  0  0  0  0  0  0  0  0  0  0
    0.3582   -3.5419   -0.1380 H   0  0  0  0  0  0  0  0  0  0  0  0
    1.4100   -2.7849    1.0938 H   0  0  0  0  0  0  0  0  0  0  0  0
    4.3126   -0.8468   -0.5547 C   0  0  0  0  0  0  0  0  0  0  0  0
    4.3659   -1.8051    0.0034 H   0  0  0  0  0  0  0  0  0  0  0  0
    5.2362   -0.2815   -0.3339 H   0  0  0  0  0  0  0  0  0  0  0  0
    4.3205   -1.0886   -1.6384 H   0  0  0  0  0  0  0  0  0  0  0  0
    0.9979    2.7607    1.0767 C   0  0  0  0  0  0  0  0  0  0  0  0
    0.1024    3.0147    0.4736 H   0  0  0  0  0  0  0  0  0  0  0  0
    1.7047    3.6108    1.0946 H   0  0  0  0  0  0  0  0  0  0  0  0
    0.6524    2.5745    2.1154 H   0  0  0  0  0  0  0  0  0  0  0  0
   -1.4147   -2.3616    0.7169 H   0  0  0  0  0  0  0  0  0  0  0  0
   -0.4153   -1.7677    1.9022 H   0  0  0  0  0  0  0  0  0  0  0  0
  1  4  1  0  0  0  0
  2  7  1  0  0  0  0
  2  1  1  0  0  0  0
  3 23  1  0  0  0  0
  4 18  1  1  0  0  0
  5  4  1  0  0  0  0
  5  6  1  0  0  0  0
  7  5  2  0  0  0  0
  8  2  1  0  0  0  0
  8 11  1  0  0  0  0
  9  8  1  0  0  0  0
 10  8  1  0  0  0  0
 11  3  1  0  0  0  0
 11 13  1  0  0  0  0
 12 11  1  0  0  0  0
 14 16  1  0  0  0  0
 14  7  1  0  0  0  0
 14 15  1  0  0  0  0
 17 14  1  0  0  0  0
 18 20  1  0  0  0  0
 18 21  1  0  0  0  0
 19 18  1  0  0  0  0
 22  3  1  0  0  0  0
M  END
