1,26
q = 0.0, confidence = 0.998

 28 28  0  0  1  0  0  0  0  0999 V2000
    0.8860    0.6479   -0.1161 N   0  0  0  0  0  2  0  0  0  0  0  0
    1.2603    1.7035   -0.8750 C   0  0  2  0  0  3  0  0  0  0  0  0
    0.2996    2.7480   -1.3358 C   0  0  0  0  0  0  0  0  0  0  0  0
   -0.3701    2.3460   -2.1247 H   0  0  0  0  0  0  0  0  0  0  0  0
    0.8471    3.6143   -1.7513 H   0  0  0  0  0  0  0  0  0  0  0  0
   -0.3506    3.0683   -0.4971 H   0  0  0  0  0  0  0  0  0  0  0  0
    2.6380    1.5859   -1.1736 C   0  0  0  0  0  0  0  0  0  0  0  0
    3.2404    2.2804   -1.7675 H   0  0  0  0  0  0  0  0  0  0  0  0
    3.0749    0.4036   -0.5795 C   0  0  0  0  0  0  0  0  0  0  0  0
    4.4370   -0.2072   -0.5405 C   0  0  0  0  0  0  0  0  0  0  0  0
    4.8493   -0.2538    0.4894 H   0  0  0  0  0  0  0  0  0  0  0  0
    5.1296    0.4022   -1.1493 H   0  0  0  0  0  0  0  0  0  0  0  0
    4.4469   -1.2379   -0.9525 H   0  0  0  0  0  0  0  0  0  0  0  0
    1.9803   -0.1505    0.0356 N   0  0  0  0  0  0  0  0  0  0  0  0
    2.0215   -1.2671    0.9849 C   0  0  1  0  0  0  0  0  0  0  0  0
    2.9460   -1.8124    0.7114 H   0  0  0  0  0  0  0  0  0  0  0  0
    2.1325   -0.7483    2.4221 C   0  0  0  0  0  0  0  0  0  0  0  0
    3.0402   -0.1273    2.5524 H   0  0  0  0  0  0  0  0  0  0  0  0
    2.1800   -1.5929    3.1374 H   0  0  0  0  0  0  0  0  0  0  0  0
    1.2455   -0.1281    2.6641 H   0  0  0  0  0  0  0  0  0  0  0  0
    0.8286   -2.2470    0.8485 C   0  0  0  0  0  0  0  0  0  0  0  0
    0.0092   -1.8856    1.5080 H   0  0  0  0  0  0  0  0  0  0  0  0
    1.1614   -3.2251    1.2512 H   0  0  0  0  0  0  0  0  0  0  0  0
    0.2241   -2.4570   -0.5086 C   0  0  0  0  0  3  0  0  0  0  0  0
    0.4376   -3.3348   -1.1436 H   0  0  0  0  0  0  0  0  0  0  0  0
   -0.6963   -1.6249   -0.8799 N   0  0  0  0  0  2  0  0  0  0  0  0
   -2.2449   -1.3849   -1.8202 H   0  0  0  0  0  0  0  0  0  0  0  0
   -1.3789   -1.8696   -2.0217 O   0  0  0  0  0  0  0  0  0  0  0  0
  1 14  1  0  0  0  0
  2  3  1  6  0  0  0
  2  1  1  0  0  0  0
  3  6  1  0  0  0  0
  4  3  1  0  0  0  0
  5  3  1  0  0  0  0
  7  2  1  0  0  0  0
  7  9  2  0  0  0  0
  8  7  1  0  0  0  0
  9 10  1  0  0  0  0
  9 14  1  0  0  0  0
 10 11  1  0  0  0  0
 12 10  1  0  0  0  0
 13 10  1  0  0  0  0
 14 15  1  0  0  0  0
 15 16  1  6  0  0  0
 15 17  1  0  0  0  0
 17 18  1  0  0  0  0
 17 20  1  0  0  0  0
 17 19  1  0  0  0  0
 21 15  1  0  0  0  0
 21 23  1  0  0  0  0
 21 22  1  0  0  0  0
 24 21  1  0  0  0  0
 25 24  1  0  0  0  0
 26 24  1  0  0  0  0
 28 27  1  0  0  0  0
 28 26  1  0  0  0  0
M  END
