1,2
q = -1.0, confidence = 0.0

 31 32  0  0  0  0  0  0  0  0999 V2000
    1.4830    1.2063    0.1009 N   0  0  0  0  0  2  0  0  0  0  0  0
   -1.0084    1.6029    0.5138 N   0  0  0  0  0  0  0  0  0  0  0  0
    1.1323    2.4858    0.1599 C   0  0  0  0  0  3  0  0  0  0  0  0
    1.8822    3.2786   -0.0088 H   0  0  0  0  0  0  0  0  0  0  0  0
   -0.2251    2.7519    0.4189 C   0  0  0  0  0  0  0  0  0  0  0  0
   -1.0157    3.9000    0.6781 C   0  0  0  0  0  0  0  0  0  0  0  0
   -0.6711    4.9409    0.6763 H   0  0  0  0  0  0  0  0  0  0  0  0
   -2.3065    3.4196    0.9548 C   0  0  0  0  0  0  0  0  0  0  0  0
   -3.1968    4.0088    1.2040 H   0  0  0  0  0  0  0  0  0  0  0  0
   -2.2592    2.0050    0.8434 C   0  0  0  0  0  3  0  0  0  0  0  0
   -3.0825    1.2941    0.9711 H   0  0  0  0  0  0  0  0  0  0  0  0
    2.8285    0.8641   -0.1877 C   0  0  0  0  0  0  0  0  0  0  0  0
    3.8341    1.0797    0.7878 C   0  0  0  0  0  0  0  0  0  0  0  0
    5.1515    0.6869    0.4850 C   0  0  0  0  0  0  0  0  0  0  0  0
    5.9360    0.8405    1.2438 H   0  0  0  0  0  0  0  0  0  0  0  0
    5.4890    0.0875   -0.7415 C   0  0  0  0  0  0  0  0  0  0  0  0
    4.4611   -0.1230   -1.6816 C   0  0  0  0  0  0  0  0  0  0  0  0
    4.7004   -0.6035   -2.6444 H   0  0  0  0  0  0  0  0  0  0  0  0
    3.1322    0.2512   -1.4303 C   0  0  0  0  0  0  0  0  0  0  0  0
    3.4857    1.6554    2.1370 C   0  0  0  0  0  0  0  0  0  0  0  0
    4.3189    1.5202    2.8526 H   0  0  0  0  0  0  0  0  0  0  0  0
    2.5780    1.1702    2.5512 H   0  0  0  0  0  0  0  0  0  0  0  0
    3.2618    2.7415    2.0877 H   0  0  0  0  0  0  0  0  0  0  0  0
    6.9093   -0.3132   -1.0522 C   0  0  0  0  0  0  0  0  0  0  0  0
    7.3715    0.3848   -1.7829 H   0  0  0  0  0  0  0  0  0  0  0  0
    6.9566   -1.3255   -1.5025 H   0  0  0  0  0  0  0  0  0  0  0  0
    7.5433   -0.3106   -0.1444 H   0  0  0  0  0  0  0  0  0  0  0  0
    2.0388   -0.0119   -2.4287 C   0  0  0  0  0  0  0  0  0  0  0  0
    1.4868    0.9162   -2.6839 H   0  0  0  0  0  0  0  0  0  0  0  0
    1.2892   -0.7129   -2.0025 H   0  0  0  0  0  0  0  0  0  0  0  0
    2.4410   -0.4497   -3.3618 H   0  0  0  0  0  0  0  0  0  0  0  0
  1  3  1  0  0  0  0
  2 10  1  0  0  0  0
  3  5  1  0  0  0  0
  4  3  1  0  0  0  0
  5  2  2  0  0  0  0
  5  6  1  0  0  0  0
  6  8  2  0  0  0  0
  7  6  1  0  0  0  0
  8  9  1  0  0  0  0
 10  8  1  0  0  0  0
 10 11  1  0  0  0  0
 12  1  1  0  0  0  0
 12 13  1  0  0  0  0
 13 20  1  0  0  0  0
 14 13  2  0  0  0  0
 14 15  1  0  0  0  0
 16 14  1  0  0  0  0
 17 19  1  0  0  0  0
 17 16  2  0  0  0  0
 18 17  1  0  0  0  0
 19 12  2  0  0  0  0
 20 22  1  0  0  0  0
 20 21  1  0  0  0  0
 23 20  1  0  0  0  0
 24 16  1  0  0  0  0
 24 27  1  0  0  0  0
 25 24  1  0  0  0  0
 26 24  1  0  0  0  0
 28 30  1  0  0  0  0
 28 19  1  0  0  0  0
 29 28  1  0  0  0  0
 31 28  1  0  0  0  0
M  END
