3,5
q = 0.0, confidence = 0.998

 41 42  0  0  1  0  0  0  0  0999 V2000
    2.2434   -1.0646   -1.5599 S   0  0  0  0  0  0  0  0  0  0  0  0
    2.4381    1.6012    0.5247 N   0  0  0  0  0  0  0  0  0  0  0  0
    1.3024    1.1380    1.1129 N   0  0  0  0  0  2  0  0  0  0  0  0
    0.6261   -2.7378    0.5669 N   0  0  0  0  0  0  0  0  0  0  0  0
   -0.4150   -1.9790    0.1323 N   0  0  0  0  0  2  0  0  0  0  0  0
    3.3948    1.9151    1.4517 C   0  0  2  0  0  3  0  0  0  0  0  0
    2.8346    1.6356    2.7000 C   0  0  0  0  0  0  0  0  0  0  0  0
    3.3068    1.7809    3.6771 H   0  0  0  0  0  0  0  0  0  0  0  0
    1.5268    1.1572    2.4481 C   0  0  0  0  0  0  0  0  0  0  0  0
    4.7272    2.4810    1.0852 C   0  0  0  0  0  0  0  0  0  0  0  0
    5.3050    1.8079    0.4187 H   0  0  0  0  0  0  0  0  0  0  0  0
    5.3267    2.6482    1.9984 H   0  0  0  0  0  0  0  0  0  0  0  0
    4.6301    3.4564    0.5633 H   0  0  0  0  0  0  0  0  0  0  0  0
    0.5103    0.7032    3.4441 C   0  0  0  0  0  0  0  0  0  0  0  0
    0.2803   -0.3775    3.3343 H   0  0  0  0  0  0  0  0  0  0  0  0
   -0.4560    1.2313    3.3111 H   0  0  0  0  0  0  0  0  0  0  0  0
    0.8820    0.8722    4.4715 H   0  0  0  0  0  0  0  0  0  0  0  0
    0.3765   -4.0750    0.3979 C   0  0  2  0  0  3  0  0  0  0  0  0
   -0.8961   -4.1641   -0.1675 C   0  0  0  0  0  0  0  0  0  0  0  0
   -1.4316   -5.0821   -0.4306 H   0  0  0  0  0  0  0  0  0  0  0  0
   -1.3560   -2.8323   -0.3200 C   0  0  0  0  0  0  0  0  0  0  0  0
    1.3439   -5.1389    0.8012 C   0  0  0  0  0  0  0  0  0  0  0  0
    1.5924   -5.0860    1.8823 H   0  0  0  0  0  0  0  0  0  0  0  0
    2.2985   -5.0781    0.2381 H   0  0  0  0  0  0  0  0  0  0  0  0
    0.9052   -6.1346    0.6074 H   0  0  0  0  0  0  0  0  0  0  0  0
   -2.6500   -2.3451   -0.8863 C   0  0  0  0  0  0  0  0  0  0  0  0
   -2.4764   -1.7096   -1.7804 H   0  0  0  0  0  0  0  0  0  0  0  0
   -3.2001   -1.7234   -0.1490 H   0  0  0  0  0  0  0  0  0  0  0  0
   -3.2887   -3.1977   -1.1813 H   0  0  0  0  0  0  0  0  0  0  0  0
    3.2030    0.4931   -1.6027 C   0  0  0  0  0  0  0  0  0  0  0  0
    4.2293    0.2972   -1.2280 H   0  0  0  0  0  0  0  0  0  0  0  0
    3.2913    0.7309   -2.6822 H   0  0  0  0  0  0  0  0  0  0  0  0
    2.5615    1.7048   -0.9186 C   0  0  0  0  0  0  0  0  0  0  0  0
    3.1670    2.6077   -1.1398 H   0  0  0  0  0  0  0  0  0  0  0  0
    1.5500    1.8758   -1.3435 H   0  0  0  0  0  0  0  0  0  0  0  0
    2.9044   -1.9306   -0.0795 C   0  0  0  0  0  0  0  0  0  0  0  0
    3.2818   -2.9158   -0.4234 H   0  0  0  0  0  0  0  0  0  0  0  0
    3.7697   -1.3688    0.3271 H   0  0  0  0  0  0  0  0  0  0  0  0
    1.8575   -2.1206    1.0277 C   0  0  0  0  0  0  0  0  0  0  0  0
    2.2794   -2.7529    1.8360 H   0  0  0  0  0  0  0  0  0  0  0  0
    1.5909   -1.1445    1.4666 H   0  0  0  0  0  0  0  0  0  0  0  0
  1 36  1  0  0  0  0
  2  3  1  0  0  0  0
  2  6  1  0  0  0  0
  3  9  1  0  0  0  0
  4 39  1  0  0  0  0
  5  4  1  0  0  0  0
  6 10  1  1  0  0  0
  6  7  1  0  0  0  0
  7  8  1  0  0  0  0
  9  7  2  0  0  0  0
  9 14  1  0  0  0  0
 10 12  1  0  0  0  0
 11 10  1  0  0  0  0
 13 10  1  0  0  0  0
 14 17  1  0  0  0  0
 15 14  1  0  0  0  0
 16 14  1  0  0  0  0
 18  4  1  0  0  0  0
 18 22  1  1  0  0  0
 19 18  1  0  0  0  0
 20 19  1  0  0  0  0
 21 19  2  0  0  0  0
 21  5  1  0  0  0  0
 22 23  1  0  0  0  0
 24 22  1  0  0  0  0
 25 22  1  0  0  0  0
 26 21  1  0  0  0  0
 26 28  1  0  0  0  0
 27 26  1  0  0  0  0
 29 26  1  0  0  0  0
 30  1  1  0  0  0  0
 30 31  1  0  0  0  0
 30 33  1  0  0  0  0
 32 30  1  0  0  0  0
 33  2  1  0  0  0  0
 34 33  1  0  0  0  0
 35 33  1  0  0  0  0
 36 38  1  0  0  0  0
 36 39  1  0  0  0  0
 37 36  1  0  0  0  0
 39 41  1  0  0  0  0
 39 40  1  0  0  0  0
M  END
