1,2
q = 0.0, confidence = 0.988

 73 77  0  0  1  0  0  0  0  0999 V2000
   -1.3249   -0.6950   -0.0769 N   0  0  0  0  0  2  0  0  0  0  0  0
    1.1915    0.7172   -0.3623 N   0  0  0  0  0  2  0  0  0  0  0  0
   -1.2904   -0.1219    1.0798 C   0  0  0  0  0  3  0  0  0  0  0  0
   -2.2235   -0.1381    1.6763 H   0  0  0  0  0  0  0  0  0  0  0  0
    0.9628    1.0417    0.8680 C   0  0  0  0  0  3  0  0  0  0  0  0
    1.5928    1.8412    1.3063 H   0  0  0  0  0  0  0  0  0  0  0  0
   -0.1270    0.5307    1.7661 C   0  0  0  0  0  0  0  0  0  0  0  0
   -0.6802    1.7770    2.5960 C   0  0  2  0  0  0  0  0  0  0  0  0
    0.1903    2.4560    2.7181 H   0  0  0  0  0  0  0  0  0  0  0  0
   -0.9778    1.2094    3.9882 C   0  0  0  0  0  0  0  0  0  0  0  0
   -1.1083    2.0092    4.7434 H   0  0  0  0  0  0  0  0  0  0  0  0
   -1.9083    0.6023    3.9890 H   0  0  0  0  0  0  0  0  0  0  0  0
    0.2346    0.3114    4.2307 C   0  0  0  0  0  0  0  0  0  0  0  0
    0.1381   -0.3551    5.1101 H   0  0  0  0  0  0  0  0  0  0  0  0
    1.1314    0.9451    4.3933 H   0  0  0  0  0  0  0  0  0  0  0  0
    0.3644   -0.4875    2.9244 C   0  0  2  0  0  0  0  0  0  0  0  0
   -0.4264   -1.2688    2.9541 H   0  0  0  0  0  0  0  0  0  0  0  0
   -1.7522    2.5577    1.8638 C   0  0  0  0  0  0  0  0  0  0  0  0
   -1.3683    3.4824    0.8686 C   0  0  0  0  0  0  0  0  0  0  0  0
   -0.2981    3.6674    0.6840 H   0  0  0  0  0  0  0  0  0  0  0  0
   -2.3269    4.1705    0.1120 C   0  0  0  0  0  0  0  0  0  0  0  0
   -2.0026    4.8821   -0.6621 H   0  0  0  0  0  0  0  0  0  0  0  0
   -3.6946    3.9495    0.3409 C   0  0  0  0  0  0  0  0  0  0  0  0
   -4.4494    4.4847   -0.2543 H   0  0  0  0  0  0  0  0  0  0  0  0
   -4.0915    3.0463    1.3379 C   0  0  0  0  0  0  0  0  0  0  0  0
   -5.1606    2.8713    1.5308 H   0  0  0  0  0  0  0  0  0  0  0  0
   -3.1286    2.3591    2.0939 C   0  0  0  0  0  0  0  0  0  0  0  0
   -3.4618    1.6599    2.8757 H   0  0  0  0  0  0  0  0  0  0  0  0
    1.6654   -1.2159    2.6514 C   0  0  0  0  0  0  0  0  0  0  0  0
    1.7206   -2.1578    1.6014 C   0  0  0  0  0  0  0  0  0  0  0  0
    0.8347   -2.3391    0.9739 H   0  0  0  0  0  0  0  0  0  0  0  0
    2.8992   -2.8603    1.3228 C   0  0  0  0  0  0  0  0  0  0  0  0
    2.9177   -3.5627    0.4764 H   0  0  0  0  0  0  0  0  0  0  0  0
    4.0443   -2.6510    2.1081 C   0  0  0  0  0  0  0  0  0  0  0  0
    4.9713   -3.2039    1.8938 H   0  0  0  0  0  0  0  0  0  0  0  0
    3.9999   -1.7301    3.1647 C   0  0  0  0  0  0  0  0  0  0  0  0
    4.8906   -1.5615    3.7890 H   0  0  0  0  0  0  0  0  0  0  0  0
    2.8213   -1.0130    3.4308 C   0  0  0  0  0  0  0  0  0  0  0  0
    2.8094   -0.2971    4.2656 H   0  0  0  0  0  0  0  0  0  0  0  0
   -2.5975   -1.2763   -0.4432 C   0  0  0  0  0  0  0  0  0  0  0  0
   -3.4359   -0.5447   -1.3129 C   0  0  0  0  0  0  0  0  0  0  0  0
   -4.6945   -1.0925   -1.6209 C   0  0  0  0  0  0  0  0  0  0  0  0
   -5.3621   -0.5362   -2.2969 H   0  0  0  0  0  0  0  0  0  0  0  0
   -5.0968   -2.3237   -1.0882 C   0  0  0  0  0  0  0  0  0  0  0  0
   -6.0834   -2.7386   -1.3438 H   0  0  0  0  0  0  0  0  0  0  0  0
   -4.2368   -3.0333   -0.2406 C   0  0  0  0  0  0  0  0  0  0  0  0
   -4.5405   -4.0123    0.1611 H   0  0  0  0  0  0  0  0  0  0  0  0
   -2.9677   -2.5292    0.0985 C   0  0  0  0  0  0  0  0  0  0  0  0
   -2.9806    0.7615   -1.9001 C   0  0  0  0  0  0  0  0  0  0  0  0
   -3.7651    1.2052   -2.5412 H   0  0  0  0  0  0  0  0  0  0  0  0
   -2.0703    0.6074   -2.5163 H   0  0  0  0  0  0  0  0  0  0  0  0
   -2.7183    1.5023   -1.1170 H   0  0  0  0  0  0  0  0  0  0  0  0
   -2.0098   -3.3342    0.9348 C   0  0  0  0  0  0  0  0  0  0  0  0
   -2.4740   -4.2810    1.2681 H   0  0  0  0  0  0  0  0  0  0  0  0
   -1.6601   -2.7949    1.8397 H   0  0  0  0  0  0  0  0  0  0  0  0
   -1.1158   -3.5763    0.3206 H   0  0  0  0  0  0  0  0  0  0  0  0
    2.1797    1.5090   -1.0639 C   0  0  0  0  0  0  0  0  0  0  0  0
    1.7069    2.4008   -2.0554 C   0  0  0  0  0  0  0  0  0  0  0  0
    2.6455    3.2352   -2.6893 C   0  0  0  0  0  0  0  0  0  0  0  0
    2.2916    3.9388   -3.4586 H   0  0  0  0  0  0  0  0  0  0  0  0
    4.0061    3.1688   -2.3664 C   0  0  0  0  0  0  0  0  0  0  0  0
    4.7268    3.8263   -2.8754 H   0  0  0  0  0  0  0  0  0  0  0  0
    4.4501    2.2469   -1.4109 C   0  0  0  0  0  0  0  0  0  0  0  0
    5.5235    2.1639   -1.1807 H   0  0  0  0  0  0  0  0  0  0  0  0
    3.5529    1.3928   -0.7422 C   0  0  0  0  0  0  0  0  0  0  0  0
    0.2599    2.4172   -2.4628 C   0  0  0  0  0  0  0  0  0  0  0  0
    0.0495    3.2560   -3.1532 H   0  0  0  0  0  0  0  0  0  0  0  0
   -0.4283    2.4939   -1.5985 H   0  0  0  0  0  0  0  0  0  0  0  0
    0.0074    1.4674   -2.9836 H   0  0  0  0  0  0  0  0  0  0  0  0
    4.0549    0.3305    0.1946 C   0  0  0  0  0  0  0  0  0  0  0  0
    3.7788   -0.6646   -0.2116 H   0  0  0  0  0  0  0  0  0  0  0  0
    3.6238    0.3919    1.2125 H   0  0  0  0  0  0  0  0  0  0  0  0
    5.1554    0.3787    0.2915 H   0  0  0  0  0  0  0  0  0  0  0  0
  1  3  1  0  0  0  0
  2  5  1  0  0  0  0
  3  4  1  0  0  0  0
  3  7  1  0  0  0  0
  5  6  1  0  0  0  0
  5  7  1  0  0  0  0
  7  8  1  0  0  0  0
  7 16  1  0  0  0  0
  8  9  1  1  0  0  0
  8 10  1  0  0  0  0
 10 12  1  0  0  0  0
 10 13  1  0  0  0  0
 10 11  1  0  0  0  0
 13 15  1  0  0  0  0
 13 14  1  0  0  0  0
 16 17  1  1  0  0  0
 16 13  1  0  0  0  0
 18 27  1  0  0  0  0
 18  8  1  0  0  0  0
 19 18  2  0  0  0  0
 20 19  1  0  0  0  0
 21 23  2  0  0  0  0
 21 19  1  0  0  0  0
 22 21  1  0  0  0  0
 23 25  1  0  0  0  0
 24 23  1  0  0  0  0
 25 26  1  0  0  0  0
 25 27  2  0  0  0  0
 27 28  1  0  0  0  0
 29 16  1  0  0  0  0
 29 38  1  0  0  0  0
 30 29  2  0  0  0  0
 31 30  1  0  0  0  0
 32 30  1  0  0  0  0
 32 34  2  0  0  0  0
 33 32  1  0  0  0  0
 34 36  1  0  0  0  0
 35 34  1  0  0  0  0
 36 38  2  0  0  0  0
 36 37  1  0  0  0  0
 38 39  1  0  0  0  0
 40  1  1  0  0  0  0
 40 48  1  0  0  0  0
 41 40  2  0  0  0  0
 42 41  1  0  0  0  0
 42 44  2  0  0  0  0
 43 42  1  0  0  0  0
 44 46  1  0  0  0  0
 45 44  1  0  0  0  0
 46 48  2  0  0  0  0
 46 47  1  0  0  0  0
 48 53  1  0  0  0  0
 49 41  1  0  0  0  0
 49 52  1  0  0  0  0
 50 49  1  0  0  0  0
 51 49  1  0  0  0  0
 53 54  1  0  0  0  0
 53 55  1  0  0  0  0
 56 53  1  0  0  0  0
 57 65  1  0  0  0  0
 57  2  1  0  0  0  0
 58 57  2  0  0  0  0
 59 61  2  0  0  0  0
 59 58  1  0  0  0  0
 60 59  1  0  0  0  0
 61 63  1  0  0  0  0
 62 61  1  0  0  0  0
 63 64  1  0  0  0  0
 63 65  2  0  0  0  0
 65 70  1  0  0  0  0
 66 58  1  0  0  0  0
 66 68  1  0  0  0  0
 67 66  1  0  0  0  0
 69 66  1  0  0  0  0
 70 73  1  0  0  0  0
 70 72  1  0  0  0  0
 71 70  1  0  0  0  0
M  END
