1,3
q = 0.0, confidence = 0.968

 50 51  0  0  1  0  0  0  0  0999 V2000
    1.4182    0.5521   -0.5568 N   0  0  0  0  0  0  0  0  0  0  0  0
    1.5279    0.3244   -1.5559 H   0  0  0  0  0  0  0  0  0  0  0  0
   -1.2830    0.7228    0.1321 N   0  0  0  0  0  0  0  0  0  0  0  0
   -1.0799    1.0027    1.1025 H   0  0  0  0  0  0  0  0  0  0  0  0
    0.7845    1.9108   -0.4639 C   0  0  2  0  0  0  0  0  0  0  0  0
    0.8981    2.2334    0.5910 H   0  0  0  0  0  0  0  0  0  0  0  0
   -0.7201    1.7951   -0.7576 C   0  0  2  0  0  0  0  0  0  0  0  0
   -0.8401    1.4375   -1.7994 H   0  0  0  0  0  0  0  0  0  0  0  0
    1.5035    2.9163   -1.3619 C   0  0  0  0  0  0  0  0  0  0  0  0
    2.5940    2.8831   -1.1712 H   0  0  0  0  0  0  0  0  0  0  0  0
    1.1605    3.9500   -1.1671 H   0  0  0  0  0  0  0  0  0  0  0  0
    1.3260    2.6933   -2.4351 H   0  0  0  0  0  0  0  0  0  0  0  0
   -1.4613    3.1210   -0.5899 C   0  0  0  0  0  0  0  0  0  0  0  0
   -2.5506    2.9701   -0.7144 H   0  0  0  0  0  0  0  0  0  0  0  0
   -1.1326    3.8601   -1.3447 H   0  0  0  0  0  0  0  0  0  0  0  0
   -1.2846    3.5551    0.4169 H   0  0  0  0  0  0  0  0  0  0  0  0
    2.7329    0.4591    0.0550 C   0  0  0  0  0  0  0  0  0  0  0  0
    3.8431    0.2276   -0.7950 C   0  0  0  0  0  0  0  0  0  0  0  0
    5.1267    0.1857   -0.2239 C   0  0  0  0  0  0  0  0  0  0  0  0
    5.9935    0.0046   -0.8777 H   0  0  0  0  0  0  0  0  0  0  0  0
    5.3065    0.3524    1.1543 C   0  0  0  0  0  0  0  0  0  0  0  0
    6.3165    0.3176    1.5888 H   0  0  0  0  0  0  0  0  0  0  0  0
    4.1914    0.5239    1.9819 C   0  0  0  0  0  0  0  0  0  0  0  0
    4.3237    0.6010    3.0721 H   0  0  0  0  0  0  0  0  0  0  0  0
    2.8838    0.5668    1.4604 C   0  0  0  0  0  0  0  0  0  0  0  0
    3.6460   -0.0463   -2.2653 C   0  0  0  0  0  0  0  0  0  0  0  0
    3.0146   -0.9536   -2.3936 H   0  0  0  0  0  0  0  0  0  0  0  0
    4.6141   -0.2384   -2.7641 H   0  0  0  0  0  0  0  0  0  0  0  0
    3.1642    0.7971   -2.8059 H   0  0  0  0  0  0  0  0  0  0  0  0
    1.7132    0.6227    2.4095 C   0  0  0  0  0  0  0  0  0  0  0  0
    1.2142    1.6158    2.4457 H   0  0  0  0  0  0  0  0  0  0  0  0
    2.0416    0.3928    3.4404 H   0  0  0  0  0  0  0  0  0  0  0  0
    0.9451   -0.1310    2.1157 H   0  0  0  0  0  0  0  0  0  0  0  0
   -2.7125    0.4988    0.0558 C   0  0  0  0  0  0  0  0  0  0  0  0
   -3.3231    0.0562   -1.1421 C   0  0  0  0  0  0  0  0  0  0  0  0
   -4.7215   -0.1089   -1.1377 C   0  0  0  0  0  0  0  0  0  0  0  0
   -5.2099   -0.4585   -2.0603 H   0  0  0  0  0  0  0  0  0  0  0  0
   -5.4861    0.1237    0.0109 C   0  0  0  0  0  0  0  0  0  0  0  0
   -6.5765   -0.0201   -0.0128 H   0  0  0  0  0  0  0  0  0  0  0  0
   -4.8518    0.5043    1.1995 C   0  0  0  0  0  0  0  0  0  0  0  0
   -5.4388    0.6510    2.1192 H   0  0  0  0  0  0  0  0  0  0  0  0
   -3.4602    0.6915    1.2435 C   0  0  0  0  0  0  0  0  0  0  0  0
   -2.7705    1.0345    2.5414 C   0  0  0  0  0  0  0  0  0  0  0  0
   -2.0395    0.2440    2.8219 H   0  0  0  0  0  0  0  0  0  0  0  0
   -3.5010    1.1108    3.3680 H   0  0  0  0  0  0  0  0  0  0  0  0
   -2.2278    2.0051    2.5020 H   0  0  0  0  0  0  0  0  0  0  0  0
   -2.5350   -0.3079   -2.3733 C   0  0  0  0  0  0  0  0  0  0  0  0
   -2.2732    0.5752   -2.9956 H   0  0  0  0  0  0  0  0  0  0  0  0
   -3.1223   -0.9912   -3.0151 H   0  0  0  0  0  0  0  0  0  0  0  0
   -1.5938   -0.8318   -2.0941 H   0  0  0  0  0  0  0  0  0  0  0  0
  1  5  1  0  0  0  0
  1 17  1  0  0  0  0
  2  1  1  0  0  0  0
  3  4  1  0  0  0  0
  5  6  1  1  0  0  0
  7  8  1  6  0  0  0
  7 13  1  0  0  0  0
  7  5  1  0  0  0  0
  7  3  1  0  0  0  0
  9 10  1  0  0  0  0
  9 11  1  0  0  0  0
  9  5  1  0  0  0  0
 12  9  1  0  0  0  0
 13 16  1  0  0  0  0
 14 13  1  0  0  0  0
 15 13  1  0  0  0  0
 17 25  1  0  0  0  0
 18 19  1  0  0  0  0
 18 17  2  0  0  0  0
 19 21  2  0  0  0  0
 20 19  1  0  0  0  0
 21 22  1  0  0  0  0
 21 23  1  0  0  0  0
 23 24  1  0  0  0  0
 25 23  2  0  0  0  0
 25 30  1  0  0  0  0
 26 18  1  0  0  0  0
 27 26  1  0  0  0  0
 28 26  1  0  0  0  0
 29 26  1  0  0  0  0
 30 31  1  0  0  0  0
 30 32  1  0  0  0  0
 33 30  1  0  0  0  0
 34  3  1  0  0  0  0
 34 42  1  0  0  0  0
 35 36  1  0  0  0  0
 35 34  2  0  0  0  0
 36 38  2  0  0  0  0
 37 36  1  0  0  0  0
 38 40  1  0  0  0  0
 39 38  1  0  0  0  0
 40 42  2  0  0  0  0
 40 41  1  0  0  0  0
 42 43  1  0  0  0  0
 43 44  1  0  0  0  0
 43 45  1  0  0  0  0
 46 43  1  0  0  0  0
 47 50  1  0  0  0  0
 47 35  1  0  0  0  0
 48 47  1  0  0  0  0
 49 47  1  0  0  0  0
M  END
