2,3
q = 0.0, confidence = 0.998

 30 33  0  0  0  0  0  0  0  0999 V2000
    3.4423    1.0792    0.5497 N   0  0  0  0  0  0  0  0  0  0  0  0
   -1.0635    1.6624    0.5029 N   0  0  0  0  0  2  0  0  0  0  0  0
    0.1926   -0.2827   -0.6556 N   0  0  0  0  0  2  0  0  0  0  0  0
    2.9564   -0.6741   -0.8267 C   0  0  0  0  0  0  0  0  0  0  0  0
   -1.8305    2.7038    0.8919 C   0  0  0  0  0  3  0  0  0  0  0  0
   -2.9152    2.5655    0.7971 H   0  0  0  0  0  0  0  0  0  0  0  0
    0.3018    1.7788    0.5218 C   0  0  0  0  0  0  0  0  0  0  0  0
    0.7060   -1.2844   -1.4078 C   0  0  0  0  0  0  0  0  0  0  0  0
   -0.0229   -1.9089   -1.9379 H   0  0  0  0  0  0  0  0  0  0  0  0
    4.6552    0.4680    0.2223 C   0  0  0  0  0  0  0  0  0  0  0  0
    4.3905   -0.6262   -0.6554 C   0  0  0  0  0  0  0  0  0  0  0  0
    2.0796   -1.5065   -1.5340 C   0  0  0  0  0  0  0  0  0  0  0  0
    2.4428   -2.3283   -2.1663 H   0  0  0  0  0  0  0  0  0  0  0  0
    1.0083    0.6292   -0.0375 C   0  0  0  0  0  0  0  0  0  0  0  0
    2.4033    0.4105   -0.0588 C   0  0  0  0  0  0  0  0  0  0  0  0
    6.7586   -1.0792   -0.7434 C   0  0  0  0  0  0  0  0  0  0  0  0
    7.6081   -1.6710   -1.1131 H   0  0  0  0  0  0  0  0  0  0  0  0
    5.4597   -1.4045   -1.1436 C   0  0  0  0  0  3  0  0  0  0  0  0
    5.2757   -2.2487   -1.8242 H   0  0  0  0  0  0  0  0  0  0  0  0
    5.9553    0.7960    0.6314 C   0  0  0  0  0  0  0  0  0  0  0  0
    6.1533    1.6387    1.3094 H   0  0  0  0  0  0  0  0  0  0  0  0
    0.9039    2.9770    0.9550 C   0  0  0  0  0  0  0  0  0  0  0  0
    1.9904    3.1061    0.8866 H   0  0  0  0  0  0  0  0  0  0  0  0
   -1.2861    3.8998    1.3642 C   0  0  0  0  0  0  0  0  0  0  0  0
   -1.9541    4.7135    1.6779 H   0  0  0  0  0  0  0  0  0  0  0  0
    6.9993    0.0052    0.1336 C   0  0  0  0  0  0  0  0  0  0  0  0
    8.0328    0.2365    0.4311 H   0  0  0  0  0  0  0  0  0  0  0  0
    0.1090    4.0406    1.3911 C   0  0  0  0  0  0  0  0  0  0  0  0
    0.5737    4.9805    1.7221 H   0  0  0  0  0  0  0  0  0  0  0  0
    3.3468    1.7897    1.2725 H   0  0  0  0  0  0  0  0  0  0  0  0
  1 30  1  0  0  0  0
  2  7  1  0  0  0  0
  2  5  1  0  0  0  0
  3 14  1  0  0  0  0
  4 11  2  0  0  0  0
  4 15  1  0  0  0  0
  5 24  1  0  0  0  0
  6  5  1  0  0  0  0
  7 22  2  0  0  0  0
  8  3  1  0  0  0  0
  9  8  1  0  0  0  0
 10  1  1  0  0  0  0
 10 20  2  0  0  0  0
 11 10  1  0  0  0  0
 12  8  2  0  0  0  0
 12  4  1  0  0  0  0
 13 12  1  0  0  0  0
 14  7  1  0  0  0  0
 15 14  2  0  0  0  0
 15  1  1  0  0  0  0
 16 26  2  0  0  0  0
 17 16  1  0  0  0  0
 18 16  1  0  0  0  0
 18 11  1  0  0  0  0
 19 18  1  0  0  0  0
 20 21  1  0  0  0  0
 22 28  1  0  0  0  0
 23 22  1  0  0  0  0
 24 28  2  0  0  0  0
 24 25  1  0  0  0  0
 26 27  1  0  0  0  0
 26 20  1  0  0  0  0
 28 29  1  0  0  0  0
M  END
