1,6
q = 0.0, confidence = 1.0

 36 36  0  0  1  0  0  0  0  0999 V2000
    0.4901   -0.7550    0.0999 N   0  0  0  0  0  2  0  0  0  0  0  0
    0.7967   -2.1421    0.0284 N   0  0  0  0  0  0  0  0  0  0  0  0
    1.5768    1.3738    0.1012 N   0  0  0  0  0  0  0  0  0  0  0  0
    2.5136    1.7618    0.2056 H   0  0  0  0  0  0  0  0  0  0  0  0
    0.9010    3.6220    0.1909 N   0  0  0  0  0  0  0  0  0  0  0  0
   -0.6990    1.8698    0.1151 N   0  0  0  0  0  2  0  0  0  0  0  0
   -1.4608    2.5608    0.0785 H   0  0  0  0  0  0  0  0  0  0  0  0
    0.4900   -2.6923   -1.2884 C   0  0  0  0  0  0  0  0  0  0  0  0
   -0.5956   -2.6446   -1.5277 H   0  0  0  0  0  0  0  0  0  0  0  0
    0.8262   -3.7479   -1.2981 H   0  0  0  0  0  0  0  0  0  0  0  0
    1.0688   -2.1402   -2.0565 H   0  0  0  0  0  0  0  0  0  0  0  0
    0.2626   -2.8826    1.1669 C   0  0  0  0  0  0  0  0  0  0  0  0
    0.6242   -2.4184    2.1071 H   0  0  0  0  0  0  0  0  0  0  0  0
    0.6662   -3.9136    1.1113 H   0  0  0  0  0  0  0  0  0  0  0  0
   -0.8490   -2.9104    1.1800 H   0  0  0  0  0  0  0  0  0  0  0  0
    1.5826   -0.0142    0.0917 C   0  0  2  0  0  3  0  0  0  0  0  0
    2.9696   -0.5627    0.0335 C   0  0  0  0  0  0  0  0  0  0  0  0
    3.8435   -0.0861   -0.9683 C   0  0  0  0  0  0  0  0  0  0  0  0
    3.4691    0.6161   -1.7298 H   0  0  0  0  0  0  0  0  0  0  0  0
    5.1715   -0.5396   -1.0302 C   0  0  0  0  0  0  0  0  0  0  0  0
    5.8350   -0.1766   -1.8294 H   0  0  0  0  0  0  0  0  0  0  0  0
    5.6417   -1.4597   -0.0840 C   0  0  0  0  0  0  0  0  0  0  0  0
    6.6817   -1.8164   -0.1294 H   0  0  0  0  0  0  0  0  0  0  0  0
    4.7794   -1.9271    0.9247 C   0  0  0  0  0  0  0  0  0  0  0  0
    5.1465   -2.6448    1.6735 H   0  0  0  0  0  0  0  0  0  0  0  0
    3.4524   -1.4883    0.9842 C   0  0  0  0  0  0  0  0  0  0  0  0
    2.7855   -1.8518    1.7767 H   0  0  0  0  0  0  0  0  0  0  0  0
    0.5334    2.2915    0.1279 C   0  0  2  0  0  3  0  0  0  0  0  0
    2.2323    4.0446   -0.2159 C   0  0  0  0  0  0  0  0  0  0  0  0
    3.0272    3.6027    0.4254 H   0  0  0  0  0  0  0  0  0  0  0  0
    2.3107    5.1386   -0.0844 H   0  0  0  0  0  0  0  0  0  0  0  0
    2.4634    3.8104   -1.2806 H   0  0  0  0  0  0  0  0  0  0  0  0
   -0.1668    4.6102    0.2242 C   0  0  0  0  0  0  0  0  0  0  0  0
   -0.7079    4.7001   -0.7465 H   0  0  0  0  0  0  0  0  0  0  0  0
    0.2623    5.5962    0.4788 H   0  0  0  0  0  0  0  0  0  0  0  0
   -0.9046    4.3528    1.0111 H   0  0  0  0  0  0  0  0  0  0  0  0
  2  1  1  0  0  0  0
  2 12  1  0  0  0  0
  3 28  1  0  0  0  0
  3  4  1  0  0  0  0
  5 33  1  0  0  0  0
  7  6  1  0  0  0  0
  8  2  1  0  0  0  0
  9  8  1  0  0  0  0
 10  8  1  0  0  0  0
 11  8  1  0  0  0  0
 12 15  1  0  0  0  0
 12 13  1  0  0  0  0
 14 12  1  0  0  0  0
 16  1  1  6  0  0  0
 16  3  1  0  0  0  0
 17 16  1  0  0  0  0
 17 26  1  0  0  0  0
 18 17  2  0  0  0  0
 19 18  1  0  0  0  0
 20 18  1  0  0  0  0
 20 22  2  0  0  0  0
 21 20  1  0  0  0  0
 22 24  1  0  0  0  0
 23 22  1  0  0  0  0
 24 26  2  0  0  0  0
 24 25  1  0  0  0  0
 26 27  1  0  0  0  0
 28  6  1  1  0  0  0
 28  5  1  0  0  0  0
 29 31  1  0  0  0  0
 29  5  1  0  0  0  0
 29 30  1  0  0  0  0
 32 29  1  0  0  0  0
 33 35  1  0  0  0  0
 33 36  1  0  0  0  0
 34 33  1  0  0  0  0
M  END
