1,2
q = -1.0, confidence = 0.0

 43 47  0  0  1  0  0  0  0  0999 V2000
    0.7539    1.5766   -0.0093 N   0  0  0  0  0  2  0  0  0  0  0  0
   -0.5915   -0.6206   -0.0674 N   0  0  0  0  0  2  0  0  0  0  0  0
   -1.3298   -1.7373   -0.0835 N   0  0  0  0  0  2  0  0  0  0  0  0
    1.5899    2.6134    0.0165 C   0  0  0  0  0  0  0  0  0  0  0  0
    2.6636    2.3621    0.0351 H   0  0  0  0  0  0  0  0  0  0  0  0
    1.1311    3.9555    0.0215 C   0  0  0  0  0  0  0  0  0  0  0  0
    2.0307    5.0590    0.0494 C   0  0  0  0  0  0  0  0  0  0  0  0
    3.1137    4.8631    0.0674 H   0  0  0  0  0  0  0  0  0  0  0  0
    1.5400    6.3559    0.0540 C   0  0  0  0  0  0  0  0  0  0  0  0
    2.2336    7.2092    0.0757 H   0  0  0  0  0  0  0  0  0  0  0  0
    0.1361    6.5891    0.0307 C   0  0  0  0  0  0  0  0  0  0  0  0
   -0.2389    7.6238    0.0346 H   0  0  0  0  0  0  0  0  0  0  0  0
   -0.7626    5.5325    0.0033 C   0  0  0  0  0  0  0  0  0  0  0  0
   -1.8472    5.7186   -0.0146 H   0  0  0  0  0  0  0  0  0  0  0  0
   -0.2931    4.1862   -0.0021 C   0  0  0  0  0  0  0  0  0  0  0  0
   -1.1530    3.0582   -0.0296 C   0  0  0  0  0  0  0  0  0  0  0  0
   -2.2439    3.1924   -0.0482 H   0  0  0  0  0  0  0  0  0  0  0  0
   -0.6317    1.7675   -0.0331 C   0  0  0  0  0  0  0  0  0  0  0  0
   -1.3733    0.5307   -0.0584 C   0  0  0  0  0  0  0  0  0  0  0  0
   -2.7100    0.1014   -0.0466 C   0  0  0  0  0  0  0  0  0  0  0  0
   -2.6073   -1.3023   -0.0660 C   0  0  0  0  0  0  0  0  0  0  0  0
   -4.1782    0.4191   -0.1662 C   0  0  2  0  0  0  0  0  0  0  0  0
   -4.5181    1.4241    0.1519 H   0  0  0  0  0  0  0  0  0  0  0  0
   -4.7927   -0.7905    0.6432 C   0  0  0  0  0  0  0  0  0  0  0  0
   -3.9940   -1.8904   -0.1888 C   0  0  1  0  0  0  0  0  0  0  0  0
   -4.4283   -1.5163   -1.6512 C   0  0  0  0  0  0  0  0  0  0  0  0
   -3.6790   -1.8790   -2.3811 H   0  0  0  0  0  0  0  0  0  0  0  0
   -5.3923   -2.0050   -1.9015 H   0  0  0  0  0  0  0  0  0  0  0  0
   -4.5587    0.0366   -1.6351 C   0  0  0  0  0  0  0  0  0  0  0  0
   -5.5911    0.3628   -1.8731 H   0  0  0  0  0  0  0  0  0  0  0  0
   -3.8829    0.5297   -2.3597 H   0  0  0  0  0  0  0  0  0  0  0  0
   -6.3188   -0.9016    0.5270 C   0  0  0  0  0  0  0  0  0  0  0  0
   -6.6804   -1.8108    1.0493 H   0  0  0  0  0  0  0  0  0  0  0  0
   -6.6895   -0.9471   -0.5135 H   0  0  0  0  0  0  0  0  0  0  0  0
   -6.8024   -0.0310    1.0164 H   0  0  0  0  0  0  0  0  0  0  0  0
   -4.4341   -0.7699    2.1348 C   0  0  0  0  0  0  0  0  0  0  0  0
   -4.8062   -1.6857    2.6385 H   0  0  0  0  0  0  0  0  0  0  0  0
   -4.9128    0.0969    2.6356 H   0  0  0  0  0  0  0  0  0  0  0  0
   -3.3430   -0.7044    2.3055 H   0  0  0  0  0  0  0  0  0  0  0  0
   -4.1723   -3.3487    0.1893 C   0  0  0  0  0  0  0  0  0  0  0  0
   -3.8572   -3.5347    1.2356 H   0  0  0  0  0  0  0  0  0  0  0  0
   -3.5527   -3.9974   -0.4628 H   0  0  0  0  0  0  0  0  0  0  0  0
   -5.2282   -3.6700    0.0798 H   0  0  0  0  0  0  0  0  0  0  0  0
  1  4  1  0  0  0  0
  2 19  1  0  0  0  0
  3  2  1  0  0  0  0
  3 21  1  0  0  0  0
  4  6  2  0  0  0  0
  4  5  1  0  0  0  0
  6  7  1  0  0  0  0
  7  9  2  0  0  0  0
  7  8  1  0  0  0  0
  9 10  1  0  0  0  0
 11 12  1  0  0  0  0
 11  9  1  0  0  0  0
 13 11  2  0  0  0  0
 14 13  1  0  0  0  0
 15 13  1  0  0  0  0
 15  6  1  0  0  0  0
 16 15  2  0  0  0  0
 17 16  1  0  0  0  0
 18 16  1  0  0  0  0
 18  1  1  0  0  0  0
 19 20  1  0  0  0  0
 19 18  2  0  0  0  0
 21 20  2  0  0  0  0
 22 20  1  0  0  0  0
 22 23  1  1  0  0  0
 22 24  1  0  0  0  0
 24 36  1  0  0  0  0
 25 21  1  0  0  0  0
 25 40  1  1  0  0  0
 25 24  1  0  0  0  0
 26 29  1  0  0  0  0
 26 25  1  0  0  0  0
 27 26  1  0  0  0  0
 28 26  1  0  0  0  0
 29 22  1  0  0  0  0
 30 29  1  0  0  0  0
 31 29  1  0  0  0  0
 32 24  1  0  0  0  0
 32 35  1  0  0  0  0
 32 33  1  0  0  0  0
 34 32  1  0  0  0  0
 36 39  1  0  0  0  0
 36 38  1  0  0  0  0
 36 37  1  0  0  0  0
 40 41  1  0  0  0  0
 42 40  1  0  0  0  0
 43 40  1  0  0  0  0
M  END
