1,2
q = -1.0, confidence = 0.002

 42 43  0  0  1  0  0  0  0  0999 V2000
   -1.3541   -0.6947    0.5769 N   0  0  0  0  0  2  0  0  0  0  0  0
    1.3570   -0.7718    0.5426 N   0  0  0  0  0  2  0  0  0  0  0  0
   -2.4940   -2.0248    2.3137 C   0  0  0  0  0  0  0  0  0  0  0  0
   -3.3336   -2.2609    1.6299 H   0  0  0  0  0  0  0  0  0  0  0  0
   -2.8386   -1.1861    2.9512 H   0  0  0  0  0  0  0  0  0  0  0  0
   -2.2883   -2.8977    2.9589 H   0  0  0  0  0  0  0  0  0  0  0  0
   -1.2703   -1.6309    1.5218 C   0  0  2  0  0  3  0  0  0  0  0  0
   -0.0305   -2.2453    1.8463 C   0  0  0  0  0  3  0  0  0  0  0  0
   -0.0502   -3.0461    2.5963 H   0  0  0  0  0  0  0  0  0  0  0  0
    1.2234   -1.7205    1.5035 C   0  0  2  0  0  3  0  0  0  0  0  0
    2.4359   -2.1575    2.2884 C   0  0  0  0  0  0  0  0  0  0  0  0
    3.2176   -2.5771    1.6247 H   0  0  0  0  0  0  0  0  0  0  0  0
    2.1614   -2.9152    3.0435 H   0  0  0  0  0  0  0  0  0  0  0  0
    2.8957   -1.2894    2.8034 H   0  0  0  0  0  0  0  0  0  0  0  0
   -2.5480    0.0842    0.4754 C   0  0  0  0  0  0  0  0  0  0  0  0
   -3.5236   -0.2041   -0.4964 C   0  0  0  0  0  0  0  0  0  0  0  0
   -3.3622   -1.0512   -1.1778 H   0  0  0  0  0  0  0  0  0  0  0  0
   -4.6723    0.5930   -0.5902 C   0  0  0  0  0  0  0  0  0  0  0  0
   -5.4291    0.3532   -1.3539 H   0  0  0  0  0  0  0  0  0  0  0  0
   -4.8778    1.6953    0.2630 C   0  0  0  0  0  0  0  0  0  0  0  0
   -3.8877    1.9713    1.2297 C   0  0  0  0  0  0  0  0  0  0  0  0
   -4.0193    2.8284    1.9093 H   0  0  0  0  0  0  0  0  0  0  0  0
   -2.7372    1.1822    1.3372 C   0  0  0  0  0  0  0  0  0  0  0  0
   -1.9628    1.4158    2.0833 H   0  0  0  0  0  0  0  0  0  0  0  0
   -6.0948    2.5747    0.1261 C   0  0  0  0  0  0  0  0  0  0  0  0
   -6.9380    2.0352   -0.3480 H   0  0  0  0  0  0  0  0  0  0  0  0
   -5.8754    3.4611   -0.5076 H   0  0  0  0  0  0  0  0  0  0  0  0
   -6.4367    2.9566    1.1087 H   0  0  0  0  0  0  0  0  0  0  0  0
    2.5177    0.0679    0.5111 C   0  0  0  0  0  0  0  0  0  0  0  0
    2.4052    1.3895    0.9775 C   0  0  0  0  0  0  0  0  0  0  0  0
    1.4323    1.7425    1.3491 H   0  0  0  0  0  0  0  0  0  0  0  0
    3.5184    2.2421    0.9513 C   0  0  0  0  0  0  0  0  0  0  0  0
    3.4148    3.2750    1.3188 H   0  0  0  0  0  0  0  0  0  0  0  0
    4.7624    1.8035    0.4602 C   0  0  0  0  0  0  0  0  0  0  0  0
    4.8545    0.4761   -0.0150 C   0  0  0  0  0  0  0  0  0  0  0  0
    5.8125    0.1120   -0.4186 H   0  0  0  0  0  0  0  0  0  0  0  0
    3.7507   -0.3806   -0.0036 C   0  0  0  0  0  0  0  0  0  0  0  0
    3.8244   -1.3945   -0.4205 H   0  0  0  0  0  0  0  0  0  0  0  0
    5.9568    2.7215    0.4099 C   0  0  0  0  0  0  0  0  0  0  0  0
    5.7691    3.6680    0.9525 H   0  0  0  0  0  0  0  0  0  0  0  0
    6.2152    2.9817   -0.6386 H   0  0  0  0  0  0  0  0  0  0  0  0
    6.8553    2.2436    0.8515 H   0  0  0  0  0  0  0  0  0  0  0  0
  3  5  1  0  0  0  0
  3  6  1  0  0  0  0
  4  3  1  0  0  0  0
  7  1  1  1  0  0  0
  7  8  1  0  0  0  0
  7  3  1  0  0  0  0
  8  9  1  0  0  0  0
 10  2  1  1  0  0  0
 10  8  1  0  0  0  0
 10 11  1  0  0  0  0
 11 14  1  0  0  0  0
 11 13  1  0  0  0  0
 12 11  1  0  0  0  0
 15  1  1  0  0  0  0
 15 23  1  0  0  0  0
 16 15  2  0  0  0  0
 17 16  1  0  0  0  0
 18 16  1  0  0  0  0
 18 20  2  0  0  0  0
 19 18  1  0  0  0  0
 20 21  1  0  0  0  0
 21 23  2  0  0  0  0
 21 22  1  0  0  0  0
 23 24  1  0  0  0  0
 25 20  1  0  0  0  0
 25 28  1  0  0  0  0
 26 25  1  0  0  0  0
 27 25  1  0  0  0  0
 29  2  1  0  0  0  0
 29 30  1  0  0  0  0
 30 31  1  0  0  0  0
 32 30  2  0  0  0  0
 32 33  1  0  0  0  0
 34 32  1  0  0  0  0
 35 37  1  0  0  0  0
 35 34  2  0  0  0  0
 36 35  1  0  0  0  0
 37 29  2  0  0  0  0
 38 37  1  0  0  0  0
 39 34  1  0  0  0  0
 39 42  1  0  0  0  0
 39 40  1  0  0  0  0
 41 39  1  0  0  0  0
M  END
