1,2
q = 0.0, confidence = 0.998

 39 42  0  0  0  0  0  0  0  0999 V2000
    1.1078   -2.1666   -0.5341 N   0  0  0  0  0  2  0  0  0  0  0  0
   -0.4679   -0.0498   -0.4587 N   0  0  0  0  0  2  0  0  0  0  0  0
   -1.3223    3.4513   -0.1711 N   0  0  0  0  0  0  0  0  0  0  0  0
    2.0151   -3.1181   -0.8297 C   0  0  0  0  0  0  0  0  0  0  0  0
    1.6328   -4.4236   -1.1500 C   0  0  0  0  0  0  0  0  0  0  0  0
    0.2653   -4.7368   -1.1824 C   0  0  0  0  0  0  0  0  0  0  0  0
   -0.6704   -3.7296   -0.9244 C   0  0  0  0  0  0  0  0  0  0  0  0
   -0.2229   -2.4330   -0.6102 C   0  0  0  0  0  0  0  0  0  0  0  0
   -1.1023   -1.2639   -0.4289 C   0  0  0  0  0  0  0  0  0  0  0  0
   -2.4861   -1.3846   -0.2683 C   0  0  0  0  0  0  0  0  0  0  0  0
   -3.2930   -0.2339   -0.1350 C   0  0  0  0  0  0  0  0  0  0  0  0
   -4.7493   -0.3185    0.0982 C   0  0  0  0  0  0  0  0  0  0  0  0
   -5.4969   -1.4301   -0.3560 C   0  0  0  0  0  0  0  0  0  0  0  0
   -6.8771   -1.5020   -0.1333 C   0  0  0  0  0  0  0  0  0  0  0  0
   -7.5346   -0.4692    0.5546 C   0  0  0  0  0  0  0  0  0  0  0  0
   -6.8045    0.6394    1.0134 C   0  0  0  0  0  0  0  0  0  0  0  0
   -5.4259    0.7178    0.7836 C   0  0  0  0  0  0  0  0  0  0  0  0
   -2.6288    0.9998   -0.2635 C   0  0  0  0  0  0  0  0  0  0  0  0
   -1.2377    1.0726   -0.4602 C   0  0  0  0  0  0  0  0  0  0  0  0
   -0.6569    2.4185   -0.7339 C   0  0  0  0  0  0  0  0  0  0  0  0
    0.4413    2.5975   -1.5976 C   0  0  0  0  0  0  0  0  0  0  0  0
    0.8776    3.9066   -1.8498 C   0  0  0  0  0  0  0  0  0  0  0  0
    0.2117    4.9794   -1.2418 C   0  0  0  0  0  0  0  0  0  0  0  0
   -0.8921    4.6943   -0.4162 C   0  0  0  0  0  0  0  0  0  0  0  0
    3.0673   -2.8011   -0.8234 H   0  0  0  0  0  0  0  0  0  0  0  0
    2.4010   -5.1743   -1.3814 H   0  0  0  0  0  0  0  0  0  0  0  0
   -0.0710   -5.7535   -1.4323 H   0  0  0  0  0  0  0  0  0  0  0  0
   -1.7457   -3.9388   -0.9961 H   0  0  0  0  0  0  0  0  0  0  0  0
   -2.9357   -2.3833   -0.1992 H   0  0  0  0  0  0  0  0  0  0  0  0
   -5.0022   -2.2320   -0.9244 H   0  0  0  0  0  0  0  0  0  0  0  0
   -7.4465   -2.3659   -0.5070 H   0  0  0  0  0  0  0  0  0  0  0  0
   -8.6189   -0.5273    0.7313 H   0  0  0  0  0  0  0  0  0  0  0  0
   -7.3135    1.4480    1.5585 H   0  0  0  0  0  0  0  0  0  0  0  0
   -4.8615    1.5813    1.1658 H   0  0  0  0  0  0  0  0  0  0  0  0
   -3.1703    1.9545   -0.2496 H   0  0  0  0  0  0  0  0  0  0  0  0
    0.9419    1.7379   -2.0691 H   0  0  0  0  0  0  0  0  0  0  0  0
    1.7270    4.0800   -2.5279 H   0  0  0  0  0  0  0  0  0  0  0  0
    0.5219    6.0204   -1.4145 H   0  0  0  0  0  0  0  0  0  0  0  0
   -1.4557    5.5121    0.0655 H   0  0  0  0  0  0  0  0  0  0  0  0
  2  9  1  0  0  0  0
  4 25  1  0  0  0  0
  4  1  1  0  0  0  0
  5  4  2  0  0  0  0
  6  5  1  0  0  0  0
  6  7  2  0  0  0  0
  7  8  1  0  0  0  0
  8  1  1  0  0  0  0
  8  9  2  0  0  0  0
  9 10  1  0  0  0  0
 10 29  1  0  0  0  0
 10 11  2  0  0  0  0
 11 12  1  0  0  0  0
 12 17  1  0  0  0  0
 13 14  1  0  0  0  0
 13 12  2  0  0  0  0
 14 15  2  0  0  0  0
 15 32  1  0  0  0  0
 15 16  1  0  0  0  0
 16 33  1  0  0  0  0
 17 16  2  0  0  0  0
 17 34  1  0  0  0  0
 18 35  1  0  0  0  0
 18 11  1  0  0  0  0
 19  2  1  0  0  0  0
 19 18  2  0  0  0  0
 20 19  1  0  0  0  0
 20  3  2  0  0  0  0
 21 20  1  0  0  0  0
 22 21  2  0  0  0  0
 22 23  1  0  0  0  0
 23 24  2  0  0  0  0
 24  3  1  0  0  0  0
 24 39  1  0  0  0  0
 26  5  1  0  0  0  0
 27  6  1  0  0  0  0
 28  7  1  0  0  0  0
 30 13  1  0  0  0  0
 31 14  1  0  0  0  0
 36 21  1  0  0  0  0
 37 22  1  0  0  0  0
 38 23  1  0  0  0  0
M  END
