1,13
q = -1.0, confidence = 0.0

 40 40  0  0  0  0  0  0  0  0999 V2000
   -0.7375    1.4462   -1.1978 N   0  0  0  0  0  2  0  0  0  0  0  0
   -0.2116    1.9335   -2.3450 C   0  0  0  0  0  3  0  0  0  0  0  0
   -0.5102    3.2095   -2.8185 C   0  0  0  0  0  0  0  0  0  0  0  0
   -1.3776    4.0209   -2.0570 C   0  0  0  0  0  0  0  0  0  0  0  0
   -1.9576    3.5032   -0.9014 C   0  0  0  0  0  0  0  0  0  0  0  0
   -1.6681    2.1731   -0.5011 C   0  0  0  0  0  0  0  0  0  0  0  0
   -2.3400    1.5431    0.6103 C   0  0  0  0  0  0  0  0  0  0  0  0
   -2.7082    0.1887    0.6552 C   0  0  0  0  0  0  0  0  0  0  0  0
   -3.6909   -0.2286    1.8006 C   0  0  0  0  0  0  0  0  0  0  0  0
   -5.0686    0.4387    1.5903 C   0  0  0  0  0  0  0  0  0  0  0  0
   -3.1286    0.2516    3.1610 C   0  0  0  0  0  0  0  0  0  0  0  0
   -3.8435   -1.7570    1.8828 C   0  0  0  0  0  0  0  0  0  0  0  0
   -2.2001   -0.7041   -0.2476 N   0  0  0  0  0  2  0  0  0  0  0  0
   -3.1079   -1.6038   -1.5069 Si  0  0  0  0  0  0  0  0  0  0  0  0
   -5.0000   -1.4078   -1.4154 C   0  0  0  0  0  0  0  0  0  0  0  0
   -2.6794   -3.4369   -1.4353 C   0  0  0  0  0  0  0  0  0  0  0  0
   -2.7450   -0.8083   -3.1896 C   0  0  0  0  0  0  0  0  0  0  0  0
    0.4873    1.2678   -2.8703 H   0  0  0  0  0  0  0  0  0  0  0  0
   -0.0543    3.5690   -3.7511 H   0  0  0  0  0  0  0  0  0  0  0  0
   -1.6097    5.0465   -2.3821 H   0  0  0  0  0  0  0  0  0  0  0  0
   -2.6685    4.0935   -0.3057 H   0  0  0  0  0  0  0  0  0  0  0  0
   -2.7721    2.2254    1.3553 H   0  0  0  0  0  0  0  0  0  0  0  0
   -5.5331    0.1367    0.6343 H   0  0  0  0  0  0  0  0  0  0  0  0
   -4.9883    1.5443    1.5959 H   0  0  0  0  0  0  0  0  0  0  0  0
   -5.7571    0.1465    2.4102 H   0  0  0  0  0  0  0  0  0  0  0  0
   -3.0350    1.3543    3.2177 H   0  0  0  0  0  0  0  0  0  0  0  0
   -2.1403   -0.2051    3.3625 H   0  0  0  0  0  0  0  0  0  0  0  0
   -3.8196   -0.0591    3.9715 H   0  0  0  0  0  0  0  0  0  0  0  0
   -4.3298   -2.1811    0.9880 H   0  0  0  0  0  0  0  0  0  0  0  0
   -4.4746   -2.0176    2.7564 H   0  0  0  0  0  0  0  0  0  0  0  0
   -2.8572   -2.2428    2.0024 H   0  0  0  0  0  0  0  0  0  0  0  0
   -5.2952   -0.3392   -1.4451 H   0  0  0  0  0  0  0  0  0  0  0  0
   -5.5058   -1.8889   -0.5577 H   0  0  0  0  0  0  0  0  0  0  0  0
   -5.3994   -1.8771   -2.3396 H   0  0  0  0  0  0  0  0  0  0  0  0
   -1.5902   -3.5916   -1.5556 H   0  0  0  0  0  0  0  0  0  0  0  0
   -3.2033   -3.9902   -2.2418 H   0  0  0  0  0  0  0  0  0  0  0  0
   -2.9871   -3.8680   -0.4612 H   0  0  0  0  0  0  0  0  0  0  0  0
   -3.0627    0.2552   -3.1683 H   0  0  0  0  0  0  0  0  0  0  0  0
   -3.3365   -1.3218   -3.9762 H   0  0  0  0  0  0  0  0  0  0  0  0
   -1.6766   -0.8517   -3.4646 H   0  0  0  0  0  0  0  0  0  0  0  0
  1  6  1  0  0  0  0
  2  1  1  0  0  0  0
  3  2  1  0  0  0  0
  3  4  2  0  0  0  0
  4  5  1  0  0  0  0
  5  6  2  0  0  0  0
  5 21  1  0  0  0  0
  6  7  1  0  0  0  0
  7  8  2  0  0  0  0
  7 22  1  0  0  0  0
  8  9  1  0  0  0  0
  9 12  1  0  0  0  0
  9 11  1  0  0  0  0
 10 24  1  0  0  0  0
 10  9  1  0  0  0  0
 10 25  1  0  0  0  0
 11 26  1  0  0  0  0
 11 27  1  0  0  0  0
 11 28  1  0  0  0  0
 12 31  1  0  0  0  0
 12 30  1  0  0  0  0
 13  8  1  0  0  0  0
 14 16  1  0  0  0  0
 14 15  1  0  0  0  0
 14 13  1  0  0  0  0
 15 33  1  0  0  0  0
 16 37  1  0  0  0  0
 17 38  1  0  0  0  0
 17 14  1  0  0  0  0
 18  2  1  0  0  0  0
 19  3  1  0  0  0  0
 20  4  1  0  0  0  0
 23 10  1  0  0  0  0
 29 12  1  0  0  0  0
 32 15  1  0  0  0  0
 34 15  1  0  0  0  0
 35 16  1  0  0  0  0
 36 16  1  0  0  0  0
 39 17  1  0  0  0  0
 40 17  1  0  0  0  0
M  END
