1,5
q = -1.0, confidence = 0.016

 24 26  0  0  0  0  0  0  0  0999 V2000
    0.1236    2.1965    0.0133 N   0  0  0  0  0  2  0  0  0  0  0  0
    0.7089    4.9261    0.0545 N   0  0  0  0  0  0  0  0  0  0  0  0
    3.7625    1.6937   -0.0287 N   0  0  0  0  0  0  0  0  0  0  0  0
    3.1178   -0.4928   -0.0215 N   0  0  0  0  0  2  0  0  0  0  0  0
    2.0190    0.2762   -0.0307 N   0  0  0  0  0  2  0  0  0  0  0  0
    7.1951   -1.8299   -0.0068 N   0  0  0  0  0  0  0  0  0  0  0  0
   -0.8630    3.1048    0.0556 C   0  0  0  0  0  0  0  0  0  0  0  0
   -1.8942    2.7063    0.0724 H   0  0  0  0  0  0  0  0  0  0  0  0
   -0.5595    4.4765    0.0759 C   0  0  0  0  0  0  0  0  0  0  0  0
   -1.3655    5.2288    0.1112 H   0  0  0  0  0  0  0  0  0  0  0  0
    1.6860    4.0148    0.0176 C   0  0  0  0  0  0  0  0  0  0  0  0
    2.7325    4.3625    0.0037 H   0  0  0  0  0  0  0  0  0  0  0  0
    1.4127    2.6266   -0.0019 C   0  0  0  0  0  0  0  0  0  0  0  0
    2.4245    1.5787   -0.0295 C   0  0  0  0  0  0  0  0  0  0  0  0
    4.1564    0.3900   -0.0226 C   0  0  0  0  0  0  0  0  0  0  0  0
    5.5615   -0.0301   -0.0145 C   0  0  0  0  0  0  0  0  0  0  0  0
    6.5998    0.9237   -0.0034 C   0  0  0  0  0  0  0  0  0  0  0  0
    6.3410    1.9929   -0.0018 H   0  0  0  0  0  0  0  0  0  0  0  0
    7.9255    0.4781    0.0056 C   0  0  0  0  0  0  0  0  0  0  0  0
    8.7633    1.1915    0.0142 H   0  0  0  0  0  0  0  0  0  0  0  0
    8.1708   -0.9060    0.0041 C   0  0  0  0  0  0  0  0  0  0  0  0
    9.2081   -1.2870    0.0119 H   0  0  0  0  0  0  0  0  0  0  0  0
    5.9282   -1.3961   -0.0164 C   0  0  0  0  0  0  0  0  0  0  0  0
    5.1350   -2.1637   -0.0273 H   0  0  0  0  0  0  0  0  0  0  0  0
  1  7  1  0  0  0  0
  2  9  1  0  0  0  0
  3 15  2  0  0  0  0
  5 14  1  0  0  0  0
  5  4  1  0  0  0  0
  6 21  1  0  0  0  0
  7  8  1  0  0  0  0
  7  9  2  0  0  0  0
  9 10  1  0  0  0  0
 11  2  2  0  0  0  0
 12 11  1  0  0  0  0
 13  1  1  0  0  0  0
 13 11  1  0  0  0  0
 14  3  1  0  0  0  0
 14 13  2  0  0  0  0
 15  4  1  0  0  0  0
 15 16  1  0  0  0  0
 16 17  2  0  0  0  0
 17 18  1  0  0  0  0
 17 19  1  0  0  0  0
 19 20  1  0  0  0  0
 21 19  2  0  0  0  0
 21 22  1  0  0  0  0
 23 16  1  0  0  0  0
 23  6  2  0  0  0  0
 24 23  1  0  0  0  0
M  END
