3,4
q = -1.0, confidence = 0.0

 35 37  0  0  0  0  0  0  0  0999 V2000
   -1.8404    0.3280   -1.9963 S   0  0  0  0  0  0  0  0  0  0  0  0
    0.0308    3.0146    2.2402 O   0  0  0  0  0  0  0  0  0  0  0  0
    1.3843   -0.2440    1.7743 N   0  0  0  0  0  2  0  0  0  0  0  0
   -0.1906    1.5339    0.4308 N   0  0  0  0  0  2  0  0  0  0  0  0
    2.0470   -1.2108    2.4290 C   0  0  0  0  0  3  0  0  0  0  0  0
    2.3291   -2.0964    1.8337 H   0  0  0  0  0  0  0  0  0  0  0  0
    2.3709   -1.1102    3.7889 C   0  0  0  0  0  0  0  0  0  0  0  0
    2.9190   -1.9236    4.2868 H   0  0  0  0  0  0  0  0  0  0  0  0
    1.9897    0.0485    4.4873 C   0  0  0  0  0  0  0  0  0  0  0  0
    2.2333    0.1635    5.5544 H   0  0  0  0  0  0  0  0  0  0  0  0
    1.2908    1.0512    3.8041 C   0  0  0  0  0  0  0  0  0  0  0  0
    0.9591    1.9860    4.2777 H   0  0  0  0  0  0  0  0  0  0  0  0
    0.9949    0.8580    2.4444 C   0  0  0  0  0  0  0  0  0  0  0  0
    0.2328    1.9227    1.6870 C   0  0  0  0  0  0  0  0  0  0  0  0
   -0.7094    2.4552   -0.4904 C   0  0  0  0  0  0  0  0  0  0  0  0
   -0.4915    3.8596   -0.3598 C   0  0  0  0  0  0  0  0  0  0  0  0
    0.0178    4.2166    0.5413 H   0  0  0  0  0  0  0  0  0  0  0  0
   -0.9269    4.7693   -1.3267 C   0  0  0  0  0  0  0  0  0  0  0  0
   -0.7225    5.8408   -1.1760 H   0  0  0  0  0  0  0  0  0  0  0  0
   -1.6115    4.3366   -2.4732 C   0  0  0  0  0  0  0  0  0  0  0  0
   -1.9534    5.0507   -3.2364 H   0  0  0  0  0  0  0  0  0  0  0  0
   -1.8557    2.9678   -2.6217 C   0  0  0  0  0  0  0  0  0  0  0  0
   -2.3964    2.5851   -3.5000 H   0  0  0  0  0  0  0  0  0  0  0  0
   -1.4318    2.0342   -1.6553 C   0  0  0  0  0  0  0  0  0  0  0  0
   -3.4032    0.1184   -1.1757 C   0  0  0  0  0  0  0  0  0  0  0  0
   -4.1069    1.1656   -0.5449 C   0  0  0  0  0  0  0  0  0  0  0  0
   -3.6995    2.1866   -0.5633 H   0  0  0  0  0  0  0  0  0  0  0  0
   -5.3186    0.8958    0.1078 C   0  0  0  0  0  0  0  0  0  0  0  0
   -5.8594    1.7214    0.5962 H   0  0  0  0  0  0  0  0  0  0  0  0
   -5.8419   -0.4067    0.1439 C   0  0  0  0  0  0  0  0  0  0  0  0
   -6.7916   -0.6112    0.6601 H   0  0  0  0  0  0  0  0  0  0  0  0
   -5.1404   -1.4467   -0.4915 C   0  0  0  0  0  0  0  0  0  0  0  0
   -5.5351   -2.4741   -0.4699 H   0  0  0  0  0  0  0  0  0  0  0  0
   -3.9307   -1.1925   -1.1481 C   0  0  0  0  0  0  0  0  0  0  0  0
   -3.3767   -2.0141   -1.6284 H   0  0  0  0  0  0  0  0  0  0  0  0
  1 24  1  0  0  0  0
  1 25  1  0  0  0  0
  3  5  1  0  0  0  0
  3 13  1  0  0  0  0
  4 14  1  0  0  0  0
  5  7  1  0  0  0  0
  6  5  1  0  0  0  0
  7  8  1  0  0  0  0
  7  9  2  0  0  0  0
  9 10  1  0  0  0  0
 11 12  1  0  0  0  0
 11  9  1  0  0  0  0
 13 11  2  0  0  0  0
 14  2  2  0  0  0  0
 14 13  1  0  0  0  0
 15 16  1  0  0  0  0
 15  4  1  0  0  0  0
 16 17  1  0  0  0  0
 18 19  1  0  0  0  0
 18 16  2  0  0  0  0
 20 18  1  0  0  0  0
 21 20  1  0  0  0  0
 22 20  2  0  0  0  0
 22 24  1  0  0  0  0
 23 22  1  0  0  0  0
 24 15  2  0  0  0  0
 25 34  2  0  0  0  0
 25 26  1  0  0  0  0
 26 28  2  0  0  0  0
 27 26  1  0  0  0  0
 28 30  1  0  0  0  0
 28 29  1  0  0  0  0
 30 31  1  0  0  0  0
 32 33  1  0  0  0  0
 32 30  2  0  0  0  0
 34 32  1  0  0  0  0
 35 34  1  0  0  0  0
M  END
