3,4
q = 0.0, confidence = 0.88

 24 23  0  0  0  0  0  0  0  0999 V2000
   -0.5915    2.6233   -0.1254 O   0  0  0  0  0  0  0  0  0  0  0  0
   -0.6285   -2.4696   -0.5666 O   0  0  0  0  0  1  0  0  0  0  0  0
   -0.7897    1.3073    0.3458 N   0  0  0  0  0  0  0  0  0  0  0  0
   -0.6510   -1.3405   -0.1328 N   0  0  0  0  0  2  0  0  0  0  0  0
   -2.0560    0.7147   -0.2290 C   0  0  0  0  0  0  0  0  0  0  0  0
   -1.9819    0.8029   -1.7580 C   0  0  0  0  0  0  0  0  0  0  0  0
   -1.7555    1.8446   -2.0481 H   0  0  0  0  0  0  0  0  0  0  0  0
   -2.9508    0.5150   -2.2050 H   0  0  0  0  0  0  0  0  0  0  0  0
   -1.1865    0.1527   -2.1716 H   0  0  0  0  0  0  0  0  0  0  0  0
   -3.2531    1.5179    0.2957 C   0  0  0  0  0  0  0  0  0  0  0  0
   -3.1629    2.5658   -0.0477 H   0  0  0  0  0  0  0  0  0  0  0  0
   -3.3026    1.5224    1.4027 H   0  0  0  0  0  0  0  0  0  0  0  0
   -4.2048    1.1079   -0.0922 H   0  0  0  0  0  0  0  0  0  0  0  0
   -2.0543   -0.7730    0.2690 C   0  0  0  0  0  0  0  0  0  0  0  0
   -3.1373   -1.6213   -0.3873 C   0  0  0  0  0  0  0  0  0  0  0  0
   -3.1009   -2.6545    0.0032 H   0  0  0  0  0  0  0  0  0  0  0  0
   -3.0156   -1.6735   -1.4843 H   0  0  0  0  0  0  0  0  0  0  0  0
   -4.1345   -1.1995   -0.1571 H   0  0  0  0  0  0  0  0  0  0  0  0
   -2.1050   -0.9259    1.7994 C   0  0  0  0  0  0  0  0  0  0  0  0
   -3.0920   -0.6073    2.1859 H   0  0  0  0  0  0  0  0  0  0  0  0
   -1.3095   -0.3572    2.3204 H   0  0  0  0  0  0  0  0  0  0  0  0
   -1.9628   -1.9916    2.0642 H   0  0  0  0  0  0  0  0  0  0  0  0
   -0.9291    1.3989    1.3676 H   0  0  0  0  0  0  0  0  0  0  0  0
    0.4137    2.6705   -0.1703 H   0  0  0  0  0  0  0  0  0  0  0  0
  1  3  1  0  0  0  0
  2  4  1  0  0  0  0
  3 23  1  0  0  0  0
  4 14  1  0  0  0  0
  5 14  1  0  0  0  0
  5 10  1  0  0  0  0
  5  3  1  0  0  0  0
  6  5  1  0  0  0  0
  7  6  1  0  0  0  0
  8  6  1  0  0  0  0
  9  6  1  0  0  0  0
 10 12  1  0  0  0  0
 11 10  1  0  0  0  0
 13 10  1  0  0  0  0
 14 19  1  0  0  0  0
 15 18  1  0  0  0  0
 15 16  1  0  0  0  0
 15 14  1  0  0  0  0
 17 15  1  0  0  0  0
 19 22  1  0  0  0  0
 19 20  1  0  0  0  0
 19 21  1  0  0  0  0
 24  1  1  0  0  0  0
M  END
