1,28
q = 0.0, confidence = 0.996

 54 60  0  0  0  0  0  0  0  0999 V2000
    1.3001    1.3748   -0.1026 N   0  0  0  0  0  2  0  0  0  0  0  0
    3.2144   -0.0041   -0.7512 C   0  0  0  0  0  0  0  0  0  0  0  0
    2.5768   -0.7317   -1.7587 C   0  0  0  0  0  0  0  0  0  0  0  0
    1.6365   -0.3547   -2.1878 H   0  0  0  0  0  0  0  0  0  0  0  0
    3.1134   -1.9513   -2.2286 C   0  0  0  0  0  0  0  0  0  0  0  0
    2.5776   -2.5068   -3.0119 H   0  0  0  0  0  0  0  0  0  0  0  0
    4.2960   -2.4396   -1.6966 C   0  0  0  0  0  0  0  0  0  0  0  0
    4.7232   -3.3879   -2.0582 H   0  0  0  0  0  0  0  0  0  0  0  0
    6.1787   -2.2432   -0.0840 C   0  0  0  0  0  0  0  0  0  0  0  0
    6.5923   -3.1850   -0.4773 H   0  0  0  0  0  0  0  0  0  0  0  0
    6.8069   -1.5809    0.9595 C   0  0  0  0  0  0  0  0  0  0  0  0
    7.7307   -1.9876    1.3977 H   0  0  0  0  0  0  0  0  0  0  0  0
    6.2420   -0.3880    1.4815 C   0  0  0  0  0  0  0  0  0  0  0  0
    6.7220    0.1162    2.3340 H   0  0  0  0  0  0  0  0  0  0  0  0
    5.0774    0.1359    0.9376 C   0  0  0  0  0  0  0  0  0  0  0  0
    4.6293    1.0372    1.3801 H   0  0  0  0  0  0  0  0  0  0  0  0
    4.4275   -0.4989   -0.1609 C   0  0  0  0  0  0  0  0  0  0  0  0
    4.9778   -1.7361   -0.6610 C   0  0  0  0  0  0  0  0  0  0  0  0
    2.6271    1.3016   -0.3837 C   0  0  0  0  0  0  0  0  0  0  0  0
    3.4059    2.4895   -0.4735 C   0  0  0  0  0  0  0  0  0  0  0  0
    4.4777    2.3839   -0.6905 H   0  0  0  0  0  0  0  0  0  0  0  0
    2.8288    3.7458   -0.3372 C   0  0  0  0  0  0  0  0  0  0  0  0
    3.4388    4.6586   -0.4121 H   0  0  0  0  0  0  0  0  0  0  0  0
    1.4249    3.8417   -0.1558 C   0  0  0  0  0  0  0  0  0  0  0  0
    0.7098    2.6163   -0.0622 C   0  0  0  0  0  0  0  0  0  0  0  0
    0.6850    5.0710   -0.0775 C   0  0  0  0  0  0  0  0  0  0  0  0
    1.2379    6.0201   -0.1446 H   0  0  0  0  0  0  0  0  0  0  0  0
   -1.3001    1.3749    0.1031 N   0  0  0  0  0  2  0  0  0  0  0  0
   -3.2143   -0.0042    0.7514 C   0  0  0  0  0  0  0  0  0  0  0  0
   -2.5765   -0.7318    1.7587 C   0  0  0  0  0  0  0  0  0  0  0  0
   -1.6362   -0.3548    2.1879 H   0  0  0  0  0  0  0  0  0  0  0  0
   -3.1129   -1.9515    2.2287 C   0  0  0  0  0  0  0  0  0  0  0  0
   -2.5769   -2.5070    3.0118 H   0  0  0  0  0  0  0  0  0  0  0  0
   -4.2956   -2.4399    1.6968 C   0  0  0  0  0  0  0  0  0  0  0  0
   -4.7227   -3.3882    2.0585 H   0  0  0  0  0  0  0  0  0  0  0  0
   -6.1785   -2.2435    0.0844 C   0  0  0  0  0  0  0  0  0  0  0  0
   -6.5920   -3.1853    0.4778 H   0  0  0  0  0  0  0  0  0  0  0  0
   -6.8068   -1.5812   -0.9589 C   0  0  0  0  0  0  0  0  0  0  0  0
   -7.7307   -1.9880   -1.3971 H   0  0  0  0  0  0  0  0  0  0  0  0
   -6.2422   -0.3883   -1.4810 C   0  0  0  0  0  0  0  0  0  0  0  0
   -6.7222    0.1159   -2.3335 H   0  0  0  0  0  0  0  0  0  0  0  0
   -5.0775    0.1357   -0.9372 C   0  0  0  0  0  0  0  0  0  0  0  0
   -4.6295    1.0370   -1.3797 H   0  0  0  0  0  0  0  0  0  0  0  0
   -4.4275   -0.4990    0.1612 C   0  0  0  0  0  0  0  0  0  0  0  0
   -4.9775   -1.7364    0.6613 C   0  0  0  0  0  0  0  0  0  0  0  0
   -2.6272    1.3016    0.3840 C   0  0  0  0  0  0  0  0  0  0  0  0
   -3.4060    2.4895    0.4736 C   0  0  0  0  0  0  0  0  0  0  0  0
   -4.4778    2.3840    0.6905 H   0  0  0  0  0  0  0  0  0  0  0  0
   -2.8288    3.7458    0.3373 C   0  0  0  0  0  0  0  0  0  0  0  0
   -3.4388    4.6586    0.4121 H   0  0  0  0  0  0  0  0  0  0  0  0
   -1.4249    3.8417    0.1560 C   0  0  0  0  0  0  0  0  0  0  0  0
   -0.7098    2.6163    0.0626 C   0  0  0  0  0  0  0  0  0  0  0  0
   -0.6851    5.0710    0.0776 C   0  0  0  0  0  0  0  0  0  0  0  0
   -1.2379    6.0202    0.1445 H   0  0  0  0  0  0  0  0  0  0  0  0
  1 25  1  0  0  0  0
  2 19  1  0  0  0  0
  2 17  1  0  0  0  0
  3  2  2  0  0  0  0
  4  3  1  0  0  0  0
  5  3  1  0  0  0  0
  5  7  2  0  0  0  0
  6  5  1  0  0  0  0
  7 18  1  0  0  0  0
  8  7  1  0  0  0  0
  9 11  1  0  0  0  0
 10  9  1  0  0  0  0
 11 12  1  0  0  0  0
 11 13  2  0  0  0  0
 13 14  1  0  0  0  0
 15 16  1  0  0  0  0
 15 13  1  0  0  0  0
 17 15  2  0  0  0  0
 18 17  1  0  0  0  0
 18  9  2  0  0  0  0
 19  1  1  0  0  0  0
 20 19  2  0  0  0  0
 20 22  1  0  0  0  0
 21 20  1  0  0  0  0
 22 24  2  0  0  0  0
 23 22  1  0  0  0  0
 24 26  1  0  0  0  0
 24 25  1  0  0  0  0
 25 52  2  0  0  0  0
 26 53  2  0  0  0  0
 27 26  1  0  0  0  0
 28 46  1  0  0  0  0
 29 30  1  0  0  0  0
 30 31  1  0  0  0  0
 30 32  2  0  0  0  0
 32 33  1  0  0  0  0
 34 35  1  0  0  0  0
 34 32  1  0  0  0  0
 36 37  1  0  0  0  0
 36 45  1  0  0  0  0
 38 36  2  0  0  0  0
 39 38  1  0  0  0  0
 40 38  1  0  0  0  0
 40 42  2  0  0  0  0
 41 40  1  0  0  0  0
 42 44  1  0  0  0  0
 43 42  1  0  0  0  0
 44 45  1  0  0  0  0
 44 29  2  0  0  0  0
 45 34  2  0  0  0  0
 46 47  2  0  0  0  0
 46 29  1  0  0  0  0
 47 48  1  0  0  0  0
 49 50  1  0  0  0  0
 49 47  1  0  0  0  0
 51 49  2  0  0  0  0
 52 28  1  0  0  0  0
 52 51  1  0  0  0  0
 53 54  1  0  0  0  0
 53 51  1  0  0  0  0
M  END
