2,4
q = 0.0, confidence = 0.988

 37 38  0  0  1  0  0  0  0  0999 V2000
   -2.6300   -0.0003    0.7821 Si  0  0  0  0  0  0  0  0  0  0  0  0
   -0.5810   -1.5796    0.0205 N   0  0  0  0  0  2  0  0  0  0  0  0
   -1.9471   -1.4462   -0.0718 N   0  0  0  0  0  0  0  0  0  0  0  0
   -0.5805    1.5798    0.0239 N   0  0  0  0  0  2  0  0  0  0  0  0
   -1.9465    1.4467   -0.0694 N   0  0  0  0  0  0  0  0  0  0  0  0
    1.1545   -3.2947   -0.3953 C   0  0  0  0  0  0  0  0  0  0  0  0
    1.7275   -2.8846    0.4607 H   0  0  0  0  0  0  0  0  0  0  0  0
    1.6523   -2.9297   -1.3195 H   0  0  0  0  0  0  0  0  0  0  0  0
    1.2038   -4.3992   -0.3734 H   0  0  0  0  0  0  0  0  0  0  0  0
   -0.2615   -2.8289   -0.3548 C   0  0  2  0  0  3  0  0  0  0  0  0
   -1.4470   -3.5235   -0.7046 C   0  0  0  0  0  0  0  0  0  0  0  0
   -1.5257   -4.5554   -1.0621 H   0  0  0  0  0  0  0  0  0  0  0  0
   -2.4992   -2.6323   -0.5172 C   0  0  0  0  0  0  0  0  0  0  0  0
   -3.9581   -2.8615   -0.7465 C   0  0  0  0  0  0  0  0  0  0  0  0
   -4.4076   -2.0811   -1.3916 H   0  0  0  0  0  0  0  0  0  0  0  0
   -4.5396   -2.8944    0.1977 H   0  0  0  0  0  0  0  0  0  0  0  0
   -4.0965   -3.8350   -1.2512 H   0  0  0  0  0  0  0  0  0  0  0  0
    1.1554    3.2955   -0.3882 C   0  0  0  0  0  0  0  0  0  0  0  0
    1.7282    2.8833    0.4670 H   0  0  0  0  0  0  0  0  0  0  0  0
    1.2048    4.3999   -0.3637 H   0  0  0  0  0  0  0  0  0  0  0  0
    1.6534    2.9326   -1.3131 H   0  0  0  0  0  0  0  0  0  0  0  0
   -0.2607    2.8298   -0.3492 C   0  0  1  0  0  3  0  0  0  0  0  0
   -1.4459    3.5250   -0.6986 C   0  0  0  0  0  0  0  0  0  0  0  0
   -1.5243    4.5575   -1.0545 H   0  0  0  0  0  0  0  0  0  0  0  0
   -2.4983    2.6335   -0.5133 C   0  0  0  0  0  0  0  0  0  0  0  0
   -3.9570    2.8631   -0.7434 C   0  0  0  0  0  0  0  0  0  0  0  0
   -4.0949    3.8372   -1.2473 H   0  0  0  0  0  0  0  0  0  0  0  0
   -4.5391    2.8952    0.2004 H   0  0  0  0  0  0  0  0  0  0  0  0
   -4.4061    2.0834   -1.3897 H   0  0  0  0  0  0  0  0  0  0  0  0
   -4.4945    0.0001    0.6822 C   0  0  0  0  0  0  0  0  0  0  0  0
   -4.8998    0.0006   -0.3461 H   0  0  0  0  0  0  0  0  0  0  0  0
   -4.8824    0.8906    1.2146 H   0  0  0  0  0  0  0  0  0  0  0  0
   -4.8827   -0.8907    1.2138 H   0  0  0  0  0  0  0  0  0  0  0  0
   -1.9724   -0.0019    2.5182 C   0  0  0  0  0  0  0  0  0  0  0  0
   -0.8600   -0.0025    2.5278 H   0  0  0  0  0  0  0  0  0  0  0  0
   -2.3239   -0.9034    3.0600 H   0  0  0  0  0  0  0  0  0  0  0  0
   -2.3229    0.8992    3.0614 H   0  0  0  0  0  0  0  0  0  0  0  0
  1 34  1  0  0  0  0
  3  2  1  0  0  0  0
  3  1  1  0  0  0  0
  5  4  1  0  0  0  0
  5  1  1  0  0  0  0
  6  9  1  0  0  0  0
  6  7  1  0  0  0  0
  8  6  1  0  0  0  0
 10  6  1  6  0  0  0
 10  2  1  0  0  0  0
 11 13  2  0  0  0  0
 11 10  1  0  0  0  0
 12 11  1  0  0  0  0
 13  3  1  0  0  0  0
 14 13  1  0  0  0  0
 14 16  1  0  0  0  0
 15 14  1  0  0  0  0
 17 14  1  0  0  0  0
 18 20  1  0  0  0  0
 18 19  1  0  0  0  0
 21 18  1  0  0  0  0
 22 18  1  6  0  0  0
 22  4  1  0  0  0  0
 23 25  2  0  0  0  0
 23 22  1  0  0  0  0
 24 23  1  0  0  0  0
 25  5  1  0  0  0  0
 26 25  1  0  0  0  0
 26 28  1  0  0  0  0
 27 26  1  0  0  0  0
 29 26  1  0  0  0  0
 30  1  1  0  0  0  0
 30 33  1  0  0  0  0
 30 32  1  0  0  0  0
 31 30  1  0  0  0  0
 34 35  1  0  0  0  0
 34 36  1  0  0  0  0
 34 37  1  0  0  0  0
M  END
