1,3
q = 0.0, confidence = 0.998

 30 31  0  0  1  0  0  0  0  0999 V2000
   -0.3498    1.4058   -0.0337 N   0  0  0  0  0  2  0  0  0  0  0  0
   -0.7112    2.3691   -0.1100 H   0  0  0  0  0  0  0  0  0  0  0  0
   -0.3497   -1.4059   -0.0338 N   0  0  0  0  0  2  0  0  0  0  0  0
   -0.7109   -2.3692   -0.1101 H   0  0  0  0  0  0  0  0  0  0  0  0
    1.5303    0.0000    0.0584 N   0  0  0  0  0  0  0  0  0  0  0  0
    2.5265    0.0001    0.2807 H   0  0  0  0  0  0  0  0  0  0  0  0
    0.9475    1.2621    0.0189 C   0  0  2  0  0  3  0  0  0  0  0  0
    0.9476   -1.2620    0.0188 C   0  0  1  0  0  3  0  0  0  0  0  0
    1.8779    2.4124    0.0517 C   0  0  0  0  0  0  0  0  0  0  0  0
    3.1610    2.3340   -0.5372 C   0  0  0  0  0  0  0  0  0  0  0  0
    3.4742    1.4190   -1.0638 H   0  0  0  0  0  0  0  0  0  0  0  0
    4.0246    3.4369   -0.5073 C   0  0  0  0  0  0  0  0  0  0  0  0
    5.0152    3.3656   -0.9805 H   0  0  0  0  0  0  0  0  0  0  0  0
    3.6209    4.6327    0.1070 C   0  0  0  0  0  0  0  0  0  0  0  0
    4.2998    5.4980    0.1296 H   0  0  0  0  0  0  0  0  0  0  0  0
    2.3468    4.7206    0.6924 C   0  0  0  0  0  0  0  0  0  0  0  0
    2.0275    5.6518    1.1833 H   0  0  0  0  0  0  0  0  0  0  0  0
    1.4815    3.6209    0.6692 C   0  0  0  0  0  0  0  0  0  0  0  0
    0.4984    3.6877    1.1597 H   0  0  0  0  0  0  0  0  0  0  0  0
    1.8780   -2.4123    0.0516 C   0  0  0  0  0  0  0  0  0  0  0  0
    3.1611   -2.3338   -0.5375 C   0  0  0  0  0  0  0  0  0  0  0  0
    3.4741   -1.4188   -1.0641 H   0  0  0  0  0  0  0  0  0  0  0  0
    4.0247   -3.4367   -0.5076 C   0  0  0  0  0  0  0  0  0  0  0  0
    5.0153   -3.3653   -0.9810 H   0  0  0  0  0  0  0  0  0  0  0  0
    3.6213   -4.6324    0.1068 C   0  0  0  0  0  0  0  0  0  0  0  0
    4.3002   -5.4977    0.1294 H   0  0  0  0  0  0  0  0  0  0  0  0
    2.3472   -4.7203    0.6924 C   0  0  0  0  0  0  0  0  0  0  0  0
    2.0281   -5.6515    1.1835 H   0  0  0  0  0  0  0  0  0  0  0  0
    1.4818   -3.6208    0.6693 C   0  0  0  0  0  0  0  0  0  0  0  0
    0.4988   -3.6875    1.1599 H   0  0  0  0  0  0  0  0  0  0  0  0
  2  1  1  0  0  0  0
  4  3  1  0  0  0  0
  5  6  1  0  0  0  0
  7  1  1  1  0  0  0
  7  9  1  0  0  0  0
  7  5  1  0  0  0  0
  8  3  1  1  0  0  0
  8 20  1  0  0  0  0
  8  5  1  0  0  0  0
  9 18  1  0  0  0  0
 10 12  1  0  0  0  0
 10  9  2  0  0  0  0
 11 10  1  0  0  0  0
 12 14  2  0  0  0  0
 13 12  1  0  0  0  0
 14 15  1  0  0  0  0
 14 16  1  0  0  0  0
 16 17  1  0  0  0  0
 18 16  2  0  0  0  0
 18 19  1  0  0  0  0
 20 29  1  0  0  0  0
 21 23  1  0  0  0  0
 21 20  2  0  0  0  0
 22 21  1  0  0  0  0
 23 25  2  0  0  0  0
 24 23  1  0  0  0  0
 25 26  1  0  0  0  0
 25 27  1  0  0  0  0
 27 28  1  0  0  0  0
 29 27  2  0  0  0  0
 29 30  1  0  0  0  0
M  END
