2,3
q = 0.0, confidence = 0.998

 46 48  0  0  1  0  0  0  0  0999 V2000
   -1.0257    3.1708   -1.1086 O   0  0  0  0  0  0  0  0  0  0  0  0
    0.5960   -0.3958    1.3592 N   0  0  0  0  0  2  0  0  0  0  0  0
    2.3228    1.3304   -0.1058 N   0  0  0  0  0  2  0  0  0  0  0  0
    0.0008    1.6173    0.2511 N   0  0  0  0  0  0  0  0  0  0  0  0
   -1.1198    2.1381   -0.4592 C   0  0  0  0  0  0  0  0  0  0  0  0
   -6.2599   -0.7193   -0.3169 C   0  0  0  0  0  0  0  0  0  0  0  0
   -6.3629   -1.5115    1.0069 C   0  0  0  0  0  0  0  0  0  0  0  0
   -7.3205   -2.0704    1.0466 H   0  0  0  0  0  0  0  0  0  0  0  0
   -6.3256   -0.8303    1.8811 H   0  0  0  0  0  0  0  0  0  0  0  0
   -5.5403   -2.2461    1.1139 H   0  0  0  0  0  0  0  0  0  0  0  0
   -7.4650    0.2320   -0.4110 C   0  0  0  0  0  0  0  0  0  0  0  0
   -7.4618    0.8107   -1.3565 H   0  0  0  0  0  0  0  0  0  0  0  0
   -7.4934    0.9488    0.4344 H   0  0  0  0  0  0  0  0  0  0  0  0
   -8.4060   -0.3529   -0.3830 H   0  0  0  0  0  0  0  0  0  0  0  0
   -6.3136   -1.6986   -1.5124 C   0  0  0  0  0  0  0  0  0  0  0  0
   -7.2727   -2.2563   -1.5082 H   0  0  0  0  0  0  0  0  0  0  0  0
   -5.4924   -2.4413   -1.4766 H   0  0  0  0  0  0  0  0  0  0  0  0
   -6.2350   -1.1543   -2.4748 H   0  0  0  0  0  0  0  0  0  0  0  0
   -0.1450    0.7357    1.3591 C   0  0  2  0  0  3  0  0  0  0  0  0
   -1.0014    1.0690    2.4223 C   0  0  0  0  0  0  0  0  0  0  0  0
   -1.5699    2.0074    2.3811 H   0  0  0  0  0  0  0  0  0  0  0  0
   -1.1072    0.1910    3.5047 C   0  0  0  0  0  0  0  0  0  0  0  0
   -1.7813    0.4226    4.3424 H   0  0  0  0  0  0  0  0  0  0  0  0
   -0.3178   -0.9698    3.5143 C   0  0  0  0  0  0  0  0  0  0  0  0
   -0.3485   -1.6780    4.3538 H   0  0  0  0  0  0  0  0  0  0  0  0
    0.5365   -1.2160    2.4381 C   0  0  0  0  0  0  0  0  0  0  0  0
    1.2188   -2.0773    2.4122 H   0  0  0  0  0  0  0  0  0  0  0  0
    1.2950    2.1934    0.0669 C   0  0  1  0  0  3  0  0  0  0  0  0
    1.4874    3.5841    0.1114 C   0  0  0  0  0  0  0  0  0  0  0  0
    0.6218    4.2436    0.2356 H   0  0  0  0  0  0  0  0  0  0  0  0
    2.7875    4.0842   -0.0176 C   0  0  0  0  0  0  0  0  0  0  0  0
    2.9635    5.1699    0.0042 H   0  0  0  0  0  0  0  0  0  0  0  0
    3.8573    3.1855   -0.1433 C   0  0  0  0  0  0  0  0  0  0  0  0
    4.8965    3.5343   -0.2194 H   0  0  0  0  0  0  0  0  0  0  0  0
    3.5863    1.8167   -0.1657 C   0  0  0  0  0  0  0  0  0  0  0  0
    4.3800    1.0580   -0.2205 H   0  0  0  0  0  0  0  0  0  0  0  0
   -2.3945    1.3602   -0.3761 C   0  0  0  0  0  0  0  0  0  0  0  0
   -3.5941    2.0882   -0.4906 C   0  0  0  0  0  0  0  0  0  0  0  0
   -3.5374    3.1805   -0.6069 H   0  0  0  0  0  0  0  0  0  0  0  0
   -4.8330    1.4370   -0.4609 C   0  0  0  0  0  0  0  0  0  0  0  0
   -5.7458    2.0424   -0.5381 H   0  0  0  0  0  0  0  0  0  0  0  0
   -4.9206    0.0339   -0.3460 C   0  0  0  0  0  0  0  0  0  0  0  0
   -3.7071   -0.6874   -0.2680 C   0  0  0  0  0  0  0  0  0  0  0  0
   -3.7263   -1.7857   -0.2075 H   0  0  0  0  0  0  0  0  0  0  0  0
   -2.4664   -0.0464   -0.2778 C   0  0  0  0  0  0  0  0  0  0  0  0
   -1.5523   -0.6541   -0.2433 H   0  0  0  0  0  0  0  0  0  0  0  0
  1  5  2  0  0  0  0
  2 26  1  0  0  0  0
  3 28  1  0  0  0  0
  5 37  1  0  0  0  0
  5  4  1  0  0  0  0
  6  7  1  0  0  0  0
  7  8  1  0  0  0  0
  7 10  1  0  0  0  0
  7  9  1  0  0  0  0
 11 14  1  0  0  0  0
 11  6  1  0  0  0  0
 11 13  1  0  0  0  0
 12 11  1  0  0  0  0
 15 16  1  0  0  0  0
 15 17  1  0  0  0  0
 15  6  1  0  0  0  0
 18 15  1  0  0  0  0
 19  4  1  1  0  0  0
 19  2  1  0  0  0  0
 19 20  1  0  0  0  0
 20 22  2  0  0  0  0
 21 20  1  0  0  0  0
 22 24  1  0  0  0  0
 22 23  1  0  0  0  0
 24 25  1  0  0  0  0
 26 24  2  0  0  0  0
 27 26  1  0  0  0  0
 28 29  1  0  0  0  0
 28  4  1  1  0  0  0
 29 30  1  0  0  0  0
 31 32  1  0  0  0  0
 31 29  2  0  0  0  0
 33 31  1  0  0  0  0
 34 33  1  0  0  0  0
 35 33  2  0  0  0  0
 35  3  1  0  0  0  0
 36 35  1  0  0  0  0
 37 45  1  0  0  0  0
 38 40  1  0  0  0  0
 38 37  2  0  0  0  0
 39 38  1  0  0  0  0
 40 42  2  0  0  0  0
 41 40  1  0  0  0  0
 42  6  1  0  0  0  0
 42 43  1  0  0  0  0
 43 44  1  0  0  0  0
 45 43  2  0  0  0  0
 45 46  1  0  0  0  0
M  END
