1,2
q = 0.0, confidence = 0.998

 32 32  0  0  0  0  0  0  0  0999 V2000
   -0.7639    0.5695   -0.0126 N   0  0  0  0  0  2  0  0  0  0  0  0
    1.9266    0.8801    0.4568 N   0  0  0  0  0  0  0  0  0  0  0  0
   -0.2935    1.7813    0.0285 C   0  0  0  0  0  3  0  0  0  0  0  0
   -0.9805    2.6419    0.1501 H   0  0  0  0  0  0  0  0  0  0  0  0
    1.1892    2.0412   -0.1609 C   0  0  0  0  0  0  0  0  0  0  0  0
    1.5714    3.4057    0.4430 C   0  0  0  0  0  0  0  0  0  0  0  0
    1.2962    3.4849    1.5122 H   0  0  0  0  0  0  0  0  0  0  0  0
    1.0530    4.2203   -0.1001 H   0  0  0  0  0  0  0  0  0  0  0  0
    2.6604    3.5838    0.3480 H   0  0  0  0  0  0  0  0  0  0  0  0
    1.4167    2.0672   -1.6897 C   0  0  0  0  0  0  0  0  0  0  0  0
    2.4354    2.4207   -1.9408 H   0  0  0  0  0  0  0  0  0  0  0  0
    0.6954    2.7628   -2.1619 H   0  0  0  0  0  0  0  0  0  0  0  0
    1.2597    1.0545   -2.1137 H   0  0  0  0  0  0  0  0  0  0  0  0
    1.8605    0.8764    1.9283 C   0  0  0  0  0  0  0  0  0  0  0  0
    2.4907    1.6751    2.3846 H   0  0  0  0  0  0  0  0  0  0  0  0
    2.2202   -0.1066    2.2871 H   0  0  0  0  0  0  0  0  0  0  0  0
    0.8146    1.0053    2.2665 H   0  0  0  0  0  0  0  0  0  0  0  0
    3.3248    0.7369    0.0307 C   0  0  0  0  0  0  0  0  0  0  0  0
    3.9604    1.5867    0.3750 H   0  0  0  0  0  0  0  0  0  0  0  0
    3.3928    0.6422   -1.0661 H   0  0  0  0  0  0  0  0  0  0  0  0
    3.7073   -0.2127    0.4510 H   0  0  0  0  0  0  0  0  0  0  0  0
   -2.1759    0.3798    0.0615 C   0  0  0  0  0  0  0  0  0  0  0  0
   -3.0358    1.0547   -0.8265 C   0  0  0  0  0  0  0  0  0  0  0  0
   -2.6082    1.7091   -1.6008 H   0  0  0  0  0  0  0  0  0  0  0  0
   -4.4215    0.8551   -0.7408 C   0  0  0  0  0  0  0  0  0  0  0  0
   -5.0894    1.3731   -1.4454 H   0  0  0  0  0  0  0  0  0  0  0  0
   -4.9520   -0.0080    0.2301 C   0  0  0  0  0  0  0  0  0  0  0  0
   -6.0389   -0.1653    0.2939 H   0  0  0  0  0  0  0  0  0  0  0  0
   -4.0890   -0.6828    1.1105 C   0  0  0  0  0  0  0  0  0  0  0  0
   -4.4991   -1.3658    1.8695 H   0  0  0  0  0  0  0  0  0  0  0  0
   -2.7034   -0.5033    1.0222 C   0  0  0  0  0  0  0  0  0  0  0  0
   -2.0106   -1.0370    1.6883 H   0  0  0  0  0  0  0  0  0  0  0  0
  1  3  1  0  0  0  0
  1 22  1  0  0  0  0
  2 14  1  0  0  0  0
  3  4  1  0  0  0  0
  5  3  1  0  0  0  0
  5  6  1  0  0  0  0
  5  2  1  0  0  0  0
  6  7  1  0  0  0  0
  8  6  1  0  0  0  0
  9  6  1  0  0  0  0
 10  5  1  0  0  0  0
 11 10  1  0  0  0  0
 12 10  1  0  0  0  0
 13 10  1  0  0  0  0
 14 17  1  0  0  0  0
 14 16  1  0  0  0  0
 14 15  1  0  0  0  0
 18 19  1  0  0  0  0
 18 21  1  0  0  0  0
 18  2  1  0  0  0  0
 20 18  1  0  0  0  0
 22 31  1  0  0  0  0
 23 25  1  0  0  0  0
 23 22  2  0  0  0  0
 24 23  1  0  0  0  0
 25 27  2  0  0  0  0
 26 25  1  0  0  0  0
 27 28  1  0  0  0  0
 27 29  1  0  0  0  0
 29 30  1  0  0  0  0
 31 29  2  0  0  0  0
 31 32  1  0  0  0  0
M  END
