1,2
q = 0.0, confidence = 1.0

 31 31  0  0  1  0  0  0  0  0999 V2000
   -1.3526   -0.3399   -0.1037 N   0  0  0  0  0  2  0  0  0  0  0  0
    0.8787    1.1350    0.4784 N   0  0  0  0  0  0  0  0  0  0  0  0
    1.6092    1.2069    1.2018 H   0  0  0  0  0  0  0  0  0  0  0  0
   -2.3501   -1.0374   -0.6816 C   0  0  0  0  0  3  0  0  0  0  0  0
   -2.0623   -2.0478   -1.0228 H   0  0  0  0  0  0  0  0  0  0  0  0
   -3.6407   -0.5088   -0.8040 C   0  0  0  0  0  0  0  0  0  0  0  0
   -4.4326   -1.1031   -1.2822 H   0  0  0  0  0  0  0  0  0  0  0  0
   -3.8951    0.7796   -0.3092 C   0  0  0  0  0  0  0  0  0  0  0  0
   -4.8976    1.2253   -0.3937 H   0  0  0  0  0  0  0  0  0  0  0  0
   -2.8510    1.4942    0.2977 C   0  0  0  0  0  0  0  0  0  0  0  0
   -3.0133    2.5054    0.7003 H   0  0  0  0  0  0  0  0  0  0  0  0
   -1.5846    0.8994    0.3862 C   0  0  0  0  0  0  0  0  0  0  0  0
   -0.4132    1.5495    1.1052 C   0  0  1  0  0  0  0  0  0  0  0  0
   -0.5340    2.6530    1.0468 H   0  0  0  0  0  0  0  0  0  0  0  0
   -0.4158    1.1396    2.5852 C   0  0  0  0  0  0  0  0  0  0  0  0
    0.4117    1.6376    3.1315 H   0  0  0  0  0  0  0  0  0  0  0  0
   -0.2937    0.0404    2.6722 H   0  0  0  0  0  0  0  0  0  0  0  0
   -1.3698    1.4313    3.0645 H   0  0  0  0  0  0  0  0  0  0  0  0
    1.3553    1.9817   -0.6886 C   0  0  0  0  0  0  0  0  0  0  0  0
    1.6192    3.4245   -0.2161 C   0  0  0  0  0  0  0  0  0  0  0  0
    0.6988    3.9398    0.1243 H   0  0  0  0  0  0  0  0  0  0  0  0
    2.0359    4.0236   -1.0491 H   0  0  0  0  0  0  0  0  0  0  0  0
    2.3583    3.4457    0.6118 H   0  0  0  0  0  0  0  0  0  0  0  0
    2.6678    1.3698   -1.1945 C   0  0  0  0  0  0  0  0  0  0  0  0
    2.4991    0.3398   -1.5628 H   0  0  0  0  0  0  0  0  0  0  0  0
    3.4313    1.3227   -0.3920 H   0  0  0  0  0  0  0  0  0  0  0  0
    3.0751    1.9888   -2.0179 H   0  0  0  0  0  0  0  0  0  0  0  0
    0.3168    1.9635   -1.8173 C   0  0  0  0  0  0  0  0  0  0  0  0
    0.0968    0.9221   -2.1231 H   0  0  0  0  0  0  0  0  0  0  0  0
    0.7199    2.5096   -2.6924 H   0  0  0  0  0  0  0  0  0  0  0  0
   -0.6337    2.4531   -1.5279 H   0  0  0  0  0  0  0  0  0  0  0  0
  1 12  1  0  0  0  0
  2 13  1  0  0  0  0
  2  3  1  0  0  0  0
  4  1  1  0  0  0  0
  5  4  1  0  0  0  0
  6  4  1  0  0  0  0
  6  8  2  0  0  0  0
  7  6  1  0  0  0  0
  8 10  1  0  0  0  0
  9  8  1  0  0  0  0
 10 12  2  0  0  0  0
 10 11  1  0  0  0  0
 12 13  1  0  0  0  0
 13 14  1  6  0  0  0
 13 15  1  0  0  0  0
 15 17  1  0  0  0  0
 15 18  1  0  0  0  0
 15 16  1  0  0  0  0
 19 20  1  0  0  0  0
 19  2  1  0  0  0  0
 20 21  1  0  0  0  0
 20 23  1  0  0  0  0
 22 20  1  0  0  0  0
 24 19  1  0  0  0  0
 24 26  1  0  0  0  0
 25 24  1  0  0  0  0
 27 24  1  0  0  0  0
 28 31  1  0  0  0  0
 28 19  1  0  0  0  0
 29 28  1  0  0  0  0
 30 28  1  0  0  0  0
M  END
