1,7
q = -1.0, confidence = 0.0

 22 23  0  0  1  0  0  0  0  0999 V2000
    1.5061    0.1105   -1.3317 N   0  0  0  0  0  2  0  0  0  0  0  0
    1.2188   -1.0233   -2.0101 C   0  0  1  0  0  3  0  0  0  0  0  0
    1.9852   -1.4552   -3.0964 C   0  0  0  0  0  0  0  0  0  0  0  0
    3.0770   -0.6816   -3.5015 C   0  0  0  0  0  0  0  0  0  0  0  0
    3.3612    0.4999   -2.7991 C   0  0  0  0  0  0  0  0  0  0  0  0
    2.5545    0.8649   -1.7173 C   0  0  0  0  0  0  0  0  0  0  0  0
   -0.5730   -1.1478   -0.4851 N   0  0  0  0  0  2  0  0  0  0  0  0
   -0.2835   -2.8886   -2.0127 O   0  0  0  0  0  0  0  0  0  0  0  0
    0.0362   -1.8067   -1.5212 C   0  0  0  0  0  0  0  0  0  0  0  0
   -1.7178   -1.6983    0.0606 C   0  0  0  0  0  0  0  0  0  0  0  0
   -3.7117   -2.9694    2.6180 C   0  0  0  0  0  0  0  0  0  0  0  0
   -2.9003   -1.8761   -0.6146 N   0  0  0  0  0  0  0  0  0  0  0  0
   -3.7544   -2.3744    0.2439 N   0  0  0  0  0  2  0  0  0  0  0  0
   -3.0921   -2.4812    1.4061 N   0  0  0  0  0  0  0  0  0  0  0  0
   -1.8263   -2.0875    1.3453 N   0  0  0  0  0  2  0  0  0  0  0  0
    1.6763   -2.3899   -3.5860 H   0  0  0  0  0  0  0  0  0  0  0  0
    3.6994   -0.9879   -4.3554 H   0  0  0  0  0  0  0  0  0  0  0  0
    4.2085    1.1425   -3.0756 H   0  0  0  0  0  0  0  0  0  0  0  0
    2.7587    1.7730   -1.1372 H   0  0  0  0  0  0  0  0  0  0  0  0
   -3.7008   -2.1774    3.3924 H   0  0  0  0  0  0  0  0  0  0  0  0
   -3.1617   -3.8529    2.9946 H   0  0  0  0  0  0  0  0  0  0  0  0
   -4.7512   -3.2445    2.3673 H   0  0  0  0  0  0  0  0  0  0  0  0
  2  9  1  1  0  0  0
  2  1  1  0  0  0  0
  3  2  1  0  0  0  0
  4  3  2  0  0  0  0
  4  5  1  0  0  0  0
  5  6  2  0  0  0  0
  6  1  1  0  0  0  0
  6 19  1  0  0  0  0
  7 10  1  0  0  0  0
  8  9  2  0  0  0  0
  9  7  1  0  0  0  0
 10 15  1  0  0  0  0
 11 21  1  0  0  0  0
 11 20  1  0  0  0  0
 12 10  2  0  0  0  0
 12 13  1  0  0  0  0
 13 14  1  0  0  0  0
 14 11  1  0  0  0  0
 15 14  1  0  0  0  0
 16  3  1  0  0  0  0
 17  4  1  0  0  0  0
 18  5  1  0  0  0  0
 22 11  1  0  0  0  0
M  END
