9,12
q = -1.0, confidence = 0.0

 35 38  0  0  0  0  0  0  0  0999 V2000
    3.5519    0.3403   -0.9631 N   0  0  0  0  0  0  0  0  0  0  0  0
    4.9676    0.1876   -0.7872 C   0  0  0  0  0  0  0  0  0  0  0  0
    2.7684    3.8997   -0.1512 C   0  0  0  0  0  0  0  0  0  0  0  0
    3.2882    4.8361    0.0996 H   0  0  0  0  0  0  0  0  0  0  0  0
    2.9165   -0.7734   -1.3715 N   0  0  0  0  0  0  0  0  0  0  0  0
    7.7151   -0.1851   -0.4246 C   0  0  0  0  0  0  0  0  0  0  0  0
    8.7962   -0.3300   -0.2809 H   0  0  0  0  0  0  0  0  0  0  0  0
    2.8673    1.5332   -0.6895 C   0  0  0  0  0  0  0  0  0  0  0  0
    0.8041    0.2555   -0.8541 N   0  0  0  0  0  2  0  0  0  0  0  0
    5.4211   -0.7423    0.1646 C   0  0  0  0  0  0  0  0  0  0  0  0
    4.6844   -1.3049    0.7564 H   0  0  0  0  0  0  0  0  0  0  0  0
   -0.4999   -1.8003   -1.5991 N   0  0  0  0  0  2  0  0  0  0  0  0
    3.5214    2.7409   -0.3736 C   0  0  0  0  0  0  0  0  0  0  0  0
    4.6156    2.7668   -0.2973 H   0  0  0  0  0  0  0  0  0  0  0  0
    7.2518    0.7363   -1.3775 C   0  0  0  0  0  0  0  0  0  0  0  0
    7.9673    1.3063   -1.9889 H   0  0  0  0  0  0  0  0  0  0  0  0
    0.6992    2.6793   -0.5285 C   0  0  0  0  0  0  0  0  0  0  0  0
   -0.3932    2.6338   -0.5945 H   0  0  0  0  0  0  0  0  0  0  0  0
    1.3650    3.8759   -0.2515 C   0  0  0  0  0  0  0  0  0  0  0  0
    0.7825    4.7946   -0.0935 H   0  0  0  0  0  0  0  0  0  0  0  0
    1.4334    1.4886   -0.7103 C   0  0  0  0  0  0  0  0  0  0  0  0
    1.3831   -3.0196   -2.5204 C   0  0  0  0  0  0  0  0  0  0  0  0
    2.4710   -3.0643   -2.6677 H   0  0  0  0  0  0  0  0  0  0  0  0
   -1.3344   -2.7655   -2.0416 C   0  0  0  0  0  3  0  0  0  0  0  0
   -2.3960   -2.6488   -1.7792 H   0  0  0  0  0  0  0  0  0  0  0  0
    0.8404   -1.9227   -1.8371 C   0  0  0  0  0  0  0  0  0  0  0  0
    0.5149   -4.0126   -2.9873 C   0  0  0  0  0  0  0  0  0  0  0  0
    0.9061   -4.8869   -3.5276 H   0  0  0  0  0  0  0  0  0  0  0  0
   -0.8655   -3.8778   -2.7457 C   0  0  0  0  0  0  0  0  0  0  0  0
   -1.5804   -4.6404   -3.0857 H   0  0  0  0  0  0  0  0  0  0  0  0
    1.6041   -0.7757   -1.3354 C   0  0  0  0  0  0  0  0  0  0  0  0
    5.8748    0.9230   -1.5687 C   0  0  0  0  0  0  0  0  0  0  0  0
    5.5005    1.6214   -2.3310 H   0  0  0  0  0  0  0  0  0  0  0  0
    6.7991   -0.9261    0.3404 C   0  0  0  0  0  0  0  0  0  0  0  0
    7.1594   -1.6506    1.0859 H   0  0  0  0  0  0  0  0  0  0  0  0
  1  2  1  0  0  0  0
  1  8  1  0  0  0  0
  2 10  1  0  0  0  0
  3  4  1  0  0  0  0
  5 31  2  0  0  0  0
  5  1  1  0  0  0  0
  6  7  1  0  0  0  0
  6 34  1  0  0  0  0
  8 13  1  0  0  0  0
  9 21  1  0  0  0  0
 10 34  2  0  0  0  0
 10 11  1  0  0  0  0
 13 14  1  0  0  0  0
 13  3  2  0  0  0  0
 15  6  2  0  0  0  0
 16 15  1  0  0  0  0
 17 19  2  0  0  0  0
 18 17  1  0  0  0  0
 19  3  1  0  0  0  0
 19 20  1  0  0  0  0
 21  8  2  0  0  0  0
 21 17  1  0  0  0  0
 22 26  2  0  0  0  0
 23 22  1  0  0  0  0
 24 25  1  0  0  0  0
 24 12  1  0  0  0  0
 26 12  1  0  0  0  0
 26 31  1  0  0  0  0
 27 29  2  0  0  0  0
 27 22  1  0  0  0  0
 28 27  1  0  0  0  0
 29 24  1  0  0  0  0
 30 29  1  0  0  0  0
 31  9  1  0  0  0  0
 32 15  1  0  0  0  0
 32  2  2  0  0  0  0
 33 32  1  0  0  0  0
 34 35  1  0  0  0  0
M  END
