1,2
q = 0.0, confidence = 0.996

 63 65  0  0  1  0  0  0  0  0999 V2000
    1.5270   -1.7573   -0.6028 N   0  0  0  0  0  2  0  0  0  0  0  0
   -0.0367    0.2705   -0.0214 N   0  0  0  0  0  0  0  0  0  0  0  0
   -0.2828    0.0630    0.9787 H   0  0  0  0  0  0  0  0  0  0  0  0
    2.4025   -2.7951   -0.6741 C   0  0  0  0  0  3  0  0  0  0  0  0
    3.4152   -2.5843   -0.3016 H   0  0  0  0  0  0  0  0  0  0  0  0
    2.0400   -4.0337   -1.2040 C   0  0  0  0  0  0  0  0  0  0  0  0
    2.7882   -4.8380   -1.2394 H   0  0  0  0  0  0  0  0  0  0  0  0
    0.7335   -4.2250   -1.6781 C   0  0  0  0  0  0  0  0  0  0  0  0
    0.4218   -5.1896   -2.1051 H   0  0  0  0  0  0  0  0  0  0  0  0
   -0.1721   -3.1621   -1.5842 C   0  0  0  0  0  0  0  0  0  0  0  0
   -1.2166   -3.2577   -1.9138 H   0  0  0  0  0  0  0  0  0  0  0  0
    0.2465   -1.9460   -1.0312 C   0  0  0  0  0  0  0  0  0  0  0  0
   -0.6488   -0.7359   -0.9620 C   0  0  1  0  0  0  0  0  0  0  0  0
   -0.5672   -0.2602   -1.9588 H   0  0  0  0  0  0  0  0  0  0  0  0
   -2.1212   -1.0226   -0.7117 C   0  0  0  0  0  0  0  0  0  0  0  0
   -3.0913   -0.4870   -1.6039 C   0  0  0  0  0  0  0  0  0  0  0  0
   -2.7147    0.3680   -2.7915 C   0  0  0  0  0  0  0  0  0  0  0  0
   -3.6167    0.6601   -3.3613 H   0  0  0  0  0  0  0  0  0  0  0  0
   -2.0424   -0.1640   -3.4979 H   0  0  0  0  0  0  0  0  0  0  0  0
   -2.1965    1.2994   -2.4849 H   0  0  0  0  0  0  0  0  0  0  0  0
   -4.4530   -0.7545   -1.3750 C   0  0  0  0  0  0  0  0  0  0  0  0
   -5.1976   -0.3371   -2.0716 H   0  0  0  0  0  0  0  0  0  0  0  0
   -4.8897   -1.5209   -0.2810 C   0  0  0  0  0  0  0  0  0  0  0  0
   -6.3573   -1.7408   -0.0206 C   0  0  0  0  0  0  0  0  0  0  0  0
   -6.5422   -2.7025    0.4970 H   0  0  0  0  0  0  0  0  0  0  0  0
   -6.9469   -1.7289   -0.9583 H   0  0  0  0  0  0  0  0  0  0  0  0
   -6.7629   -0.9369    0.6310 H   0  0  0  0  0  0  0  0  0  0  0  0
   -3.9133   -2.0389    0.5852 C   0  0  0  0  0  0  0  0  0  0  0  0
   -4.2289   -2.6454    1.4493 H   0  0  0  0  0  0  0  0  0  0  0  0
   -2.5362   -1.8168    0.3946 C   0  0  0  0  0  0  0  0  0  0  0  0
   -1.5721   -2.4613    1.3595 C   0  0  0  0  0  0  0  0  0  0  0  0
   -2.1022   -2.7798    2.2770 H   0  0  0  0  0  0  0  0  0  0  0  0
   -0.7450   -1.7999    1.6965 H   0  0  0  0  0  0  0  0  0  0  0  0
   -1.1042   -3.3666    0.9196 H   0  0  0  0  0  0  0  0  0  0  0  0
   -0.4292    1.6304   -0.3682 C   0  0  0  0  0  0  0  0  0  0  0  0
    0.1780    2.2483   -1.4988 C   0  0  0  0  0  0  0  0  0  0  0  0
    1.3600    1.6480   -2.2537 C   0  0  0  0  0  0  0  0  0  0  0  0
    1.6213    0.6735   -1.7766 H   0  0  0  0  0  0  0  0  0  0  0  0
    2.6075    2.5349   -2.1066 C   0  0  0  0  0  0  0  0  0  0  0  0
    2.8128    2.7446   -1.0400 H   0  0  0  0  0  0  0  0  0  0  0  0
    2.4806    3.5036   -2.6326 H   0  0  0  0  0  0  0  0  0  0  0  0
    3.4958    2.0237   -2.5288 H   0  0  0  0  0  0  0  0  0  0  0  0
    1.0447    1.3621   -3.7299 C   0  0  0  0  0  0  0  0  0  0  0  0
    0.1757    0.6832   -3.8487 H   0  0  0  0  0  0  0  0  0  0  0  0
    1.9163    0.8887   -4.2258 H   0  0  0  0  0  0  0  0  0  0  0  0
    0.8106    2.2943   -4.2847 H   0  0  0  0  0  0  0  0  0  0  0  0
   -0.3033    3.5030   -1.9098 C   0  0  0  0  0  0  0  0  0  0  0  0
    0.1584    3.9929   -2.7804 H   0  0  0  0  0  0  0  0  0  0  0  0
   -1.3432    4.1428   -1.2257 C   0  0  0  0  0  0  0  0  0  0  0  0
   -1.7097    5.1232   -1.5658 H   0  0  0  0  0  0  0  0  0  0  0  0
   -1.8982    3.5375   -0.0962 C   0  0  0  0  0  0  0  0  0  0  0  0
   -2.6999    4.0509    0.4552 H   0  0  0  0  0  0  0  0  0  0  0  0
   -1.4624    2.2770    0.3617 C   0  0  0  0  0  0  0  0  0  0  0  0
   -2.1057    1.7179    1.6265 C   0  0  0  0  0  0  0  0  0  0  0  0
   -1.7018    0.7060    1.8307 H   0  0  0  0  0  0  0  0  0  0  0  0
   -3.6306    1.5818    1.4939 C   0  0  0  0  0  0  0  0  0  0  0  0
   -3.9095    0.9610    0.6215 H   0  0  0  0  0  0  0  0  0  0  0  0
   -4.1231    2.5704    1.3844 H   0  0  0  0  0  0  0  0  0  0  0  0
   -4.0481    1.1036    2.4029 H   0  0  0  0  0  0  0  0  0  0  0  0
   -1.7183    2.5778    2.8423 C   0  0  0  0  0  0  0  0  0  0  0  0
   -0.6189    2.6195    2.9602 H   0  0  0  0  0  0  0  0  0  0  0  0
   -2.1314    2.1339    3.7700 H   0  0  0  0  0  0  0  0  0  0  0  0
   -2.1094    3.6122    2.7467 H   0  0  0  0  0  0  0  0  0  0  0  0
  2  3  1  0  0  0  0
  4  1  1  0  0  0  0
  4  5  1  0  0  0  0
  6  4  1  0  0  0  0
  7  6  1  0  0  0  0
  8 10  1  0  0  0  0
  8  6  2  0  0  0  0
  9  8  1  0  0  0  0
 10 12  2  0  0  0  0
 11 10  1  0  0  0  0
 12 13  1  0  0  0  0
 12  1  1  0  0  0  0
 13 14  1  6  0  0  0
 13 15  1  0  0  0  0
 13  2  1  0  0  0  0
 15 30  1  0  0  0  0
 16 21  1  0  0  0  0
 16 15  2  0  0  0  0
 17 20  1  0  0  0  0
 17 16  1  0  0  0  0
 18 17  1  0  0  0  0
 19 17  1  0  0  0  0
 21 23  2  0  0  0  0
 22 21  1  0  0  0  0
 23 24  1  0  0  0  0
 23 28  1  0  0  0  0
 24 25  1  0  0  0  0
 24 27  1  0  0  0  0
 26 24  1  0  0  0  0
 28 29  1  0  0  0  0
 30 28  2  0  0  0  0
 30 31  1  0  0  0  0
 31 33  1  0  0  0  0
 31 32  1  0  0  0  0
 34 31  1  0  0  0  0
 35  2  1  0  0  0  0
 35 53  1  0  0  0  0
 36 35  2  0  0  0  0
 37 39  1  0  0  0  0
 37 38  1  0  0  0  0
 37 36  1  0  0  0  0
 39 40  1  0  0  0  0
 41 39  1  0  0  0  0
 42 39  1  0  0  0  0
 43 37  1  0  0  0  0
 44 43  1  0  0  0  0
 45 43  1  0  0  0  0
 46 43  1  0  0  0  0
 47 36  1  0  0  0  0
 47 49  2  0  0  0  0
 48 47  1  0  0  0  0
 49 51  1  0  0  0  0
 50 49  1  0  0  0  0
 51 53  2  0  0  0  0
 51 52  1  0  0  0  0
 53 54  1  0  0  0  0
 54 55  1  0  0  0  0
 54 60  1  0  0  0  0
 56 54  1  0  0  0  0
 56 59  1  0  0  0  0
 57 56  1  0  0  0  0
 58 56  1  0  0  0  0
 60 61  1  0  0  0  0
 60 62  1  0  0  0  0
 63 60  1  0  0  0  0
M  END
