1,2
q = -2.0, confidence = 0.636

 40 40  0  0  0  0  0  0  0  0999 V2000
   -0.3745    0.3122    1.1452 N   0  0  0  0  0  2  0  0  0  0  0  0
   -0.4886   -1.5489   -0.3968 N   0  0  0  0  0  2  0  0  0  0  0  0
   -1.2607   -0.5626    0.3740 B   0  0  0  0  0  0  0  0  0  0  0  0
   -0.6652    1.4108    2.0739 C   0  0  0  0  0  0  0  0  0  0  0  0
   -1.4753    0.8792    3.2718 C   0  0  0  0  0  0  0  0  0  0  0  0
   -2.4710    0.5191    2.9494 H   0  0  0  0  0  0  0  0  0  0  0  0
   -1.6266    1.6821    4.0216 H   0  0  0  0  0  0  0  0  0  0  0  0
   -0.9399    0.0403    3.7608 H   0  0  0  0  0  0  0  0  0  0  0  0
    0.6907    1.9474    2.5706 C   0  0  0  0  0  0  0  0  0  0  0  0
    1.2483    1.1531    3.1081 H   0  0  0  0  0  0  0  0  0  0  0  0
    0.5479    2.7968    3.2679 H   0  0  0  0  0  0  0  0  0  0  0  0
    1.3014    2.3008    1.7154 H   0  0  0  0  0  0  0  0  0  0  0  0
   -1.4316    2.5437    1.3663 C   0  0  0  0  0  0  0  0  0  0  0  0
   -0.8778    2.8939    0.4747 H   0  0  0  0  0  0  0  0  0  0  0  0
   -1.5613    3.4016    2.0571 H   0  0  0  0  0  0  0  0  0  0  0  0
   -2.4358    2.2077    1.0471 H   0  0  0  0  0  0  0  0  0  0  0  0
   -0.9054   -2.6082   -1.3204 C   0  0  0  0  0  0  0  0  0  0  0  0
   -1.8703   -3.5856   -0.6222 C   0  0  0  0  0  0  0  0  0  0  0  0
   -1.4123   -3.9811    0.3066 H   0  0  0  0  0  0  0  0  0  0  0  0
   -2.1008   -4.4410   -1.2891 H   0  0  0  0  0  0  0  0  0  0  0  0
   -2.8225   -3.0887   -0.3580 H   0  0  0  0  0  0  0  0  0  0  0  0
    0.3680   -3.3688   -1.7400 C   0  0  0  0  0  0  0  0  0  0  0  0
    1.0949   -2.6817   -2.2195 H   0  0  0  0  0  0  0  0  0  0  0  0
    0.1288   -4.1756   -2.4612 H   0  0  0  0  0  0  0  0  0  0  0  0
    0.8521   -3.8302   -0.8553 H   0  0  0  0  0  0  0  0  0  0  0  0
   -1.5727   -2.0011   -2.5694 C   0  0  0  0  0  0  0  0  0  0  0  0
   -2.4884   -1.4422   -2.2981 H   0  0  0  0  0  0  0  0  0  0  0  0
   -1.8538   -2.7998   -3.2852 H   0  0  0  0  0  0  0  0  0  0  0  0
   -0.8769   -1.3074   -3.0825 H   0  0  0  0  0  0  0  0  0  0  0  0
   -2.8363   -0.4238    0.3196 C   0  0  0  0  0  0  0  0  0  0  0  0
   -3.6835   -1.1369    1.1960 C   0  0  0  0  0  0  0  0  0  0  0  0
   -3.2455   -1.8143    1.9464 H   0  0  0  0  0  0  0  0  0  0  0  0
   -5.0794   -0.9996    1.1288 C   0  0  0  0  0  0  0  0  0  0  0  0
   -5.7195   -1.5651    1.8237 H   0  0  0  0  0  0  0  0  0  0  0  0
   -5.6578   -0.1440    0.1781 C   0  0  0  0  0  0  0  0  0  0  0  0
   -6.7518   -0.0358    0.1233 H   0  0  0  0  0  0  0  0  0  0  0  0
   -4.8314    0.5748   -0.7003 C   0  0  0  0  0  0  0  0  0  0  0  0
   -5.2759    1.2520   -1.4460 H   0  0  0  0  0  0  0  0  0  0  0  0
   -3.4362    0.4368   -0.6276 C   0  0  0  0  0  0  0  0  0  0  0  0
   -2.7978    1.0182   -1.3116 H   0  0  0  0  0  0  0  0  0  0  0  0
  1  4  1  0  0  0  0
  2  3  1  0  0  0  0
  3  1  1  0  0  0  0
  4  9  1  0  0  0  0
  4  5  1  0  0  0  0
  5  8  1  0  0  0  0
  5  7  1  0  0  0  0
  6  5  1  0  0  0  0
  9 10  1  0  0  0  0
  9 11  1  0  0  0  0
 12  9  1  0  0  0  0
 13 15  1  0  0  0  0
 13  4  1  0  0  0  0
 14 13  1  0  0  0  0
 16 13  1  0  0  0  0
 17 18  1  0  0  0  0
 17  2  1  0  0  0  0
 18 21  1  0  0  0  0
 18 19  1  0  0  0  0
 20 18  1  0  0  0  0
 22 17  1  0  0  0  0
 22 25  1  0  0  0  0
 23 22  1  0  0  0  0
 24 22  1  0  0  0  0
 26 27  1  0  0  0  0
 26 17  1  0  0  0  0
 28 26  1  0  0  0  0
 29 26  1  0  0  0  0
 30  3  1  0  0  0  0
 30 31  1  0  0  0  0
 31 32  1  0  0  0  0
 33 31  2  0  0  0  0
 33 34  1  0  0  0  0
 35 33  1  0  0  0  0
 36 35  1  0  0  0  0
 37 39  1  0  0  0  0
 37 35  2  0  0  0  0
 38 37  1  0  0  0  0
 39 30  2  0  0  0  0
 40 39  1  0  0  0  0
M  END
