1,3
q = 0.0, confidence = 0.728

 22 23  0  0  0  0  0  0  0  0999 V2000
    3.1762    0.5038   -0.0303 N   0  0  0  0  0  2  0  0  0  0  0  0
    1.6571    2.2770    0.0599 N   0  0  0  0  0  0  0  0  0  0  0  0
    0.8305    1.2705    0.2156 N   0  0  0  0  0  2  0  0  0  0  0  0
    3.9150    2.7893   -0.2108 N   0  0  0  0  0  0  0  0  0  0  0  0
   -4.9780    2.5556    0.3629 Cl  0  0  0  0  0  0  0  0  0  0  0  0
    2.9479    1.8623   -0.0689 C   0  0  0  0  0  0  0  0  0  0  0  0
    4.4502    0.0660   -0.1236 C   0  0  0  0  0  0  0  0  0  0  0  0
    4.5842   -1.0268   -0.0989 H   0  0  0  0  0  0  0  0  0  0  0  0
    5.5000    0.9707   -0.2557 C   0  0  0  0  0  0  0  0  0  0  0  0
    6.5392    0.6238   -0.3277 H   0  0  0  0  0  0  0  0  0  0  0  0
    5.1642    2.3430   -0.3032 C   0  0  0  0  0  0  0  0  0  0  0  0
    5.9528    3.1076   -0.4232 H   0  0  0  0  0  0  0  0  0  0  0  0
   -0.5409    1.6772    0.3108 C   0  0  0  0  0  0  0  0  0  0  0  0
   -1.1075    2.4330   -0.7303 C   0  0  0  0  0  0  0  0  0  0  0  0
   -0.4707    2.7496   -1.5677 H   0  0  0  0  0  0  0  0  0  0  0  0
   -2.4761    2.7240   -0.7052 C   0  0  0  0  0  0  0  0  0  0  0  0
   -2.9479    3.2800   -1.5272 H   0  0  0  0  0  0  0  0  0  0  0  0
   -3.2589    2.2731    0.3723 C   0  0  0  0  0  0  0  0  0  0  0  0
   -2.6805    1.5729    1.4444 C   0  0  0  0  0  0  0  0  0  0  0  0
   -3.3064    1.2510    2.2878 H   0  0  0  0  0  0  0  0  0  0  0  0
   -1.3153    1.2679    1.4092 C   0  0  0  0  0  0  0  0  0  0  0  0
   -0.8392    0.7004    2.2223 H   0  0  0  0  0  0  0  0  0  0  0  0
  2  3  1  0  0  0  0
  3 13  1  0  0  0  0
  4  6  1  0  0  0  0
  5 18  1  0  0  0  0
  6  1  1  0  0  0  0
  6  2  2  0  0  0  0
  7  8  1  0  0  0  0
  7  1  1  0  0  0  0
  9  7  2  0  0  0  0
 10  9  1  0  0  0  0
 11  9  1  0  0  0  0
 11  4  2  0  0  0  0
 12 11  1  0  0  0  0
 13 21  1  0  0  0  0
 14 16  1  0  0  0  0
 14 13  2  0  0  0  0
 15 14  1  0  0  0  0
 16 18  2  0  0  0  0
 17 16  1  0  0  0  0
 18 19  1  0  0  0  0
 19 20  1  0  0  0  0
 21 19  2  0  0  0  0
 21 22  1  0  0  0  0
M  END
