25,37
q = 0.0, confidence = 0.956

 45 47  0  0  0  0  0  0  0  0999 V2000
   -1.4149    0.0007   -1.0822 N   0  0  0  0  0  0  0  0  0  0  0  0
   -3.8296   -2.4871    0.3120 C   0  0  0  0  0  0  0  0  0  0  0  0
   -4.7784   -2.5116    0.8696 H   0  0  0  0  0  0  0  0  0  0  0  0
   -3.1858   -3.6543   -0.0472 C   0  0  0  0  0  0  0  0  0  0  0  0
   -3.6169   -4.6313    0.2162 H   0  0  0  0  0  0  0  0  0  0  0  0
   -1.9541   -3.6018   -0.7628 C   0  0  0  0  0  0  0  0  0  0  0  0
   -1.4596   -4.5440   -1.0482 H   0  0  0  0  0  0  0  0  0  0  0  0
   -1.3567   -2.3995   -1.1120 C   0  0  0  0  0  0  0  0  0  0  0  0
   -1.3560    2.4010   -1.1108 C   0  0  0  0  0  0  0  0  0  0  0  0
   -1.9530    3.6032   -0.7609 C   0  0  0  0  0  0  0  0  0  0  0  0
   -1.4583    4.5454   -1.0459 H   0  0  0  0  0  0  0  0  0  0  0  0
   -3.1847    3.6557   -0.0454 C   0  0  0  0  0  0  0  0  0  0  0  0
   -3.6155    4.6327    0.2186 H   0  0  0  0  0  0  0  0  0  0  0  0
   -3.8684    0.0007    0.3173 C   0  0  0  0  0  0  0  0  0  0  0  0
   -4.8182    0.0007    0.8758 H   0  0  0  0  0  0  0  0  0  0  0  0
   -3.8288    2.4885    0.3133 C   0  0  0  0  0  0  0  0  0  0  0  0
   -4.7777    2.5131    0.8709 H   0  0  0  0  0  0  0  0  0  0  0  0
   -3.2648   -1.2192   -0.0292 C   0  0  0  0  0  0  0  0  0  0  0  0
   -2.0060   -1.1651   -0.7489 C   0  0  0  0  0  0  0  0  0  0  0  0
   -2.0057    1.1666   -0.7482 C   0  0  0  0  0  0  0  0  0  0  0  0
   -3.2644    1.2206   -0.0285 C   0  0  0  0  0  0  0  0  0  0  0  0
   -0.0642   -2.3565   -1.8823 C   0  0  0  0  0  0  0  0  0  0  0  0
    0.0832   -3.3330   -2.4047 H   0  0  0  0  0  0  0  0  0  0  0  0
   -0.1325   -1.5644   -2.6543 H   0  0  0  0  0  0  0  0  0  0  0  0
    1.1430   -2.0611   -1.0728 N   0  0  0  0  0  0  0  0  0  0  0  0
    2.3115   -1.9860   -1.9645 C   0  0  0  0  0  0  0  0  0  0  0  0
    3.1999   -1.6764   -1.3797 H   0  0  0  0  0  0  0  0  0  0  0  0
    2.1284   -1.2305   -2.7536 H   0  0  0  0  0  0  0  0  0  0  0  0
    2.5039   -2.9688   -2.4577 H   0  0  0  0  0  0  0  0  0  0  0  0
    1.3682   -3.0738   -0.0263 C   0  0  0  0  0  0  0  0  0  0  0  0
    0.5161   -3.0850    0.6795 H   0  0  0  0  0  0  0  0  0  0  0  0
    2.2850   -2.8061    0.5342 H   0  0  0  0  0  0  0  0  0  0  0  0
    1.4928   -4.0918   -0.4686 H   0  0  0  0  0  0  0  0  0  0  0  0
   -0.0636    2.3579   -1.8811 C   0  0  0  0  0  0  0  0  0  0  0  0
   -0.1321    1.5663   -2.6535 H   0  0  0  0  0  0  0  0  0  0  0  0
    0.0842    3.3346   -2.4030 H   0  0  0  0  0  0  0  0  0  0  0  0
    1.1436    2.0617   -1.0717 N   0  0  0  0  0  0  0  0  0  0  0  0
    2.3120    1.9866   -1.9636 C   0  0  0  0  0  0  0  0  0  0  0  0
    3.2004    1.6765   -1.3789 H   0  0  0  0  0  0  0  0  0  0  0  0
    2.5046    2.9696   -2.4564 H   0  0  0  0  0  0  0  0  0  0  0  0
    2.1286    1.2316   -2.7530 H   0  0  0  0  0  0  0  0  0  0  0  0
    1.3692    3.0739   -0.0248 C   0  0  0  0  0  0  0  0  0  0  0  0
    0.5170    3.0852    0.6809 H   0  0  0  0  0  0  0  0  0  0  0  0
    1.4943    4.0920   -0.4667 H   0  0  0  0  0  0  0  0  0  0  0  0
    2.2858    2.8055    0.5356 H   0  0  0  0  0  0  0  0  0  0  0  0
  1 19  2  0  0  0  0
  1 20  1  0  0  0  0
  2  3  1  0  0  0  0
  4  5  1  0  0  0  0
  4  2  2  0  0  0  0
  6  4  1  0  0  0  0
  7  6  1  0  0  0  0
  8  6  2  0  0  0  0
  8 19  1  0  0  0  0
  9 10  2  0  0  0  0
  9 20  1  0  0  0  0
 10 12  1  0  0  0  0
 11 10  1  0  0  0  0
 12 13  1  0  0  0  0
 12 16  2  0  0  0  0
 14 15  1  0  0  0  0
 16 17  1  0  0  0  0
 18  2  1  0  0  0  0
 18 14  2  0  0  0  0
 19 18  1  0  0  0  0
 20 21  2  0  0  0  0
 21 16  1  0  0  0  0
 21 14  1  0  0  0  0
 22  8  1  0  0  0  0
 22 25  1  0  0  0  0
 23 22  1  0  0  0  0
 24 22  1  0  0  0  0
 25 30  1  0  0  0  0
 26 27  1  0  0  0  0
 26 25  1  0  0  0  0
 28 26  1  0  0  0  0
 29 26  1  0  0  0  0
 30 32  1  0  0  0  0
 30 31  1  0  0  0  0
 33 30  1  0  0  0  0
 34  9  1  0  0  0  0
 34 37  1  0  0  0  0
 35 34  1  0  0  0  0
 36 34  1  0  0  0  0
 37 42  1  0  0  0  0
 38 39  1  0  0  0  0
 38 37  1  0  0  0  0
 40 38  1  0  0  0  0
 41 38  1  0  0  0  0
 42 45  1  0  0  0  0
 42 43  1  0  0  0  0
 44 42  1  0  0  0  0
M  END
