1,2
q = 0.0, confidence = 0.54

 30 31  0  0  1  0  0  0  0  0999 V2000
   -1.3677    1.3804    0.0389 N   0  0  0  0  0  2  0  0  0  0  0  0
    0.8190   -0.8790    0.0519 N   0  0  0  0  0  1  0  0  0  0  0  0
    2.3348    3.0137    1.0014 C   0  0  0  0  0  0  0  0  0  0  0  0
    3.0192    3.4837    0.2647 H   0  0  0  0  0  0  0  0  0  0  0  0
    2.9065    2.8402    1.9346 H   0  0  0  0  0  0  0  0  0  0  0  0
    1.5360    3.7492    1.2276 H   0  0  0  0  0  0  0  0  0  0  0  0
   -1.0158    3.6888   -0.5267 C   0  0  0  0  0  0  0  0  0  0  0  0
   -0.3351    4.4628   -0.9092 H   0  0  0  0  0  0  0  0  0  0  0  0
    4.4415   -1.5909   -0.3049 C   0  0  0  0  0  0  0  0  0  0  0  0
    5.1094   -2.4435   -0.5028 H   0  0  0  0  0  0  0  0  0  0  0  0
    4.9755   -0.3071   -0.1108 C   0  0  0  0  0  0  0  0  0  0  0  0
    6.0628   -0.1445   -0.1524 H   0  0  0  0  0  0  0  0  0  0  0  0
    0.8517    1.9854   -0.8009 C   0  0  0  0  0  0  0  0  0  0  0  0
    0.8065    1.0752   -1.4306 H   0  0  0  0  0  0  0  0  0  0  0  0
    1.3150    2.7888   -1.4076 H   0  0  0  0  0  0  0  0  0  0  0  0
    1.7322    1.7151    0.4669 C   0  0  1  0  0  0  0  0  0  0  0  0
    1.0379    1.3097    1.2376 H   0  0  0  0  0  0  0  0  0  0  0  0
   -2.3228    4.0056   -0.1412 C   0  0  0  0  0  0  0  0  0  0  0  0
   -2.6917    5.0400   -0.2152 H   0  0  0  0  0  0  0  0  0  0  0  0
   -0.5530    2.3620   -0.4358 C   0  0  1  0  0  3  0  0  0  0  0  0
    4.1118    0.7740    0.1387 C   0  0  0  0  0  0  0  0  0  0  0  0
    4.5380    1.7768    0.2932 H   0  0  0  0  0  0  0  0  0  0  0  0
    3.0579   -1.7945   -0.2498 C   0  0  0  0  0  0  0  0  0  0  0  0
    2.6300   -2.7954   -0.4096 H   0  0  0  0  0  0  0  0  0  0  0  0
   -3.1490    2.9821    0.3428 C   0  0  0  0  0  0  0  0  0  0  0  0
   -4.1823    3.1748    0.6632 H   0  0  0  0  0  0  0  0  0  0  0  0
   -2.6267    1.6884    0.4184 C   0  0  0  0  0  0  0  0  0  0  0  0
   -3.2223    0.8520    0.8174 H   0  0  0  0  0  0  0  0  0  0  0  0
    2.7220    0.6006    0.1986 C   0  0  0  0  0  0  0  0  0  0  0  0
    2.1755   -0.7123    0.0019 C   0  0  0  0  0  0  0  0  0  0  0  0
  1 27  1  0  0  0  0
  3  6  1  0  0  0  0
  3  5  1  0  0  0  0
  4  3  1  0  0  0  0
  7 20  1  0  0  0  0
  7 18  2  0  0  0  0
  8  7  1  0  0  0  0
  9 23  2  0  0  0  0
  9 11  1  0  0  0  0
 10  9  1  0  0  0  0
 11 21  2  0  0  0  0
 12 11  1  0  0  0  0
 13 16  1  0  0  0  0
 14 13  1  0  0  0  0
 15 13  1  0  0  0  0
 16  3  1  0  0  0  0
 16 17  1  1  0  0  0
 18 25  1  0  0  0  0
 19 18  1  0  0  0  0
 20 13  1  1  0  0  0
 20  1  1  0  0  0  0
 21 29  1  0  0  0  0
 21 22  1  0  0  0  0
 23 30  1  0  0  0  0
 24 23  1  0  0  0  0
 25 27  2  0  0  0  0
 25 26  1  0  0  0  0
 27 28  1  0  0  0  0
 29 16  1  0  0  0  0
 30  2  1  0  0  0  0
 30 29  2  0  0  0  0
M  END
