7,8
q = 0.0, confidence = 1.0

 38 42  0  0  0  0  0  0  0  0999 V2000
    2.1082   -0.5512   -0.0016 S   0  0  0  0  0  0  0  0  0  0  0  0
    2.8682    2.1648    0.9613 S   0  0  0  0  0  0  0  0  0  0  0  0
    5.2760   -1.3278   -0.2786 S   0  0  0  0  0  0  0  0  0  0  0  0
    6.0461    1.3359    0.7550 S   0  0  0  0  0  0  0  0  0  0  0  0
    8.0684   -1.9386   -1.3012 S   0  0  0  0  0  0  0  0  0  0  0  0
    8.8583    1.2129   -0.2345 S   0  0  0  0  0  0  0  0  0  0  0  0
   -5.4475    0.4615   -0.7377 N   0  0  0  0  0  2  0  0  0  0  0  0
   -2.8486    1.0685   -0.3551 N   0  0  0  0  0  2  0  0  0  0  0  0
   -6.7367    0.1187   -0.9468 C   0  0  0  0  0  3  0  0  0  0  0  0
   -7.0446   -0.8737   -0.5865 H   0  0  0  0  0  0  0  0  0  0  0  0
   -7.6478    0.9675   -1.5829 C   0  0  0  0  0  0  0  0  0  0  0  0
   -8.6857    0.6372   -1.7251 H   0  0  0  0  0  0  0  0  0  0  0  0
   -7.2096    2.2311   -2.0259 C   0  0  0  0  0  0  0  0  0  0  0  0
   -7.9044    2.9200   -2.5278 H   0  0  0  0  0  0  0  0  0  0  0  0
   -5.8797    2.5944   -1.8194 C   0  0  0  0  0  0  0  0  0  0  0  0
   -5.4957    3.5691   -2.1526 H   0  0  0  0  0  0  0  0  0  0  0  0
   -5.0035    1.6931   -1.1701 C   0  0  0  0  0  0  0  0  0  0  0  0
   -3.6165    1.9786   -0.9398 C   0  0  0  0  0  3  0  0  0  0  0  0
   -3.1908    2.9343   -1.2885 H   0  0  0  0  0  0  0  0  0  0  0  0
   -1.5058    1.3617   -0.0567 C   0  0  0  0  0  0  0  0  0  0  0  0
   -1.1281    2.6443    0.4143 C   0  0  0  0  0  0  0  0  0  0  0  0
   -1.8961    3.4120    0.5849 H   0  0  0  0  0  0  0  0  0  0  0  0
    0.2019    2.9273    0.7283 C   0  0  0  0  0  0  0  0  0  0  0  0
    0.4776    3.9187    1.1157 H   0  0  0  0  0  0  0  0  0  0  0  0
    1.1835    1.9298    0.5693 C   0  0  0  0  0  0  0  0  0  0  0  0
    0.8117    0.6394    0.1006 C   0  0  0  0  0  0  0  0  0  0  0  0
   -0.5198    0.3580   -0.2118 C   0  0  0  0  0  0  0  0  0  0  0  0
   -0.8005   -0.6239   -0.6136 H   0  0  0  0  0  0  0  0  0  0  0  0
    3.4054    0.5857    0.3955 C   0  0  0  0  0  0  0  0  0  0  0  0
    4.7357    0.2495    0.2894 C   0  0  0  0  0  0  0  0  0  0  0  0
    7.2976    0.4339   -0.1188 C   0  0  0  0  0  0  0  0  0  0  0  0
    6.9378   -0.8042   -0.5957 C   0  0  0  0  0  0  0  0  0  0  0  0
    9.4513   -1.5866   -0.1337 C   0  0  0  0  0  0  0  0  0  0  0  0
    9.0707   -1.7404    0.8953 H   0  0  0  0  0  0  0  0  0  0  0  0
   10.2191   -2.3587   -0.3433 H   0  0  0  0  0  0  0  0  0  0  0  0
   10.0525   -0.2079   -0.3282 C   0  0  0  0  0  0  0  0  0  0  0  0
   10.5387   -0.1259   -1.3193 H   0  0  0  0  0  0  0  0  0  0  0  0
   10.8098   -0.0074    0.4584 H   0  0  0  0  0  0  0  0  0  0  0  0
  1 26  1  0  0  0  0
  1 29  1  0  0  0  0
  3 30  1  0  0  0  0
  5 32  1  0  0  0  0
  5 33  1  0  0  0  0
  6 31  1  0  0  0  0
  8 20  1  0  0  0  0
  9  7  1  0  0  0  0
  9 10  1  0  0  0  0
 11  9  1  0  0  0  0
 12 11  1  0  0  0  0
 13 15  1  0  0  0  0
 13 11  2  0  0  0  0
 14 13  1  0  0  0  0
 15 17  2  0  0  0  0
 16 15  1  0  0  0  0
 17 18  1  0  0  0  0
 17  7  1  0  0  0  0
 18  8  1  0  0  0  0
 19 18  1  0  0  0  0
 20 21  1  0  0  0  0
 21 22  1  0  0  0  0
 21 23  2  0  0  0  0
 23 24  1  0  0  0  0
 25 23  1  0  0  0  0
 25  2  1  0  0  0  0
 26 25  2  0  0  0  0
 27 20  2  0  0  0  0
 27 26  1  0  0  0  0
 28 27  1  0  0  0  0
 29  2  1  0  0  0  0
 30 29  2  0  0  0  0
 30  4  1  0  0  0  0
 31  4  1  0  0  0  0
 32  3  1  0  0  0  0
 32 31  2  0  0  0  0
 33 34  1  0  0  0  0
 35 33  1  0  0  0  0
 36  6  1  0  0  0  0
 36 33  1  0  0  0  0
 36 38  1  0  0  0  0
 37 36  1  0  0  0  0
M  END
