2,5
q = 0.0, confidence = 1.0

 40 43  0  0  1  0  0  0  0  0999 V2000
   -3.7786    0.8539    0.2328 S   0  0  0  0  0  0  0  0  0  0  0  0
    0.9658    3.0527   -0.0557 N   0  0  0  0  0  2  0  0  0  0  0  0
   -0.2141    3.6184   -0.4112 N   0  0  0  0  0  0  0  0  0  0  0  0
   -1.5767    2.5230    1.1913 N   0  0  0  0  0  0  0  0  0  0  0  0
   -0.7980    1.5438    1.7099 N   0  0  0  0  0  2  0  0  0  0  0  0
   -2.3580    3.1085    2.1453 C   0  0  0  0  0  3  0  0  0  0  0  0
   -3.0677    3.9048    1.8955 H   0  0  0  0  0  0  0  0  0  0  0  0
   -1.4360   -0.7250   -2.7372 C   0  0  0  0  0  0  0  0  0  0  0  0
   -1.4343   -1.6327   -3.3586 H   0  0  0  0  0  0  0  0  0  0  0  0
   -0.0473    4.8930   -0.8683 C   0  0  0  0  0  3  0  0  0  0  0  0
   -0.8984    5.4983   -1.2002 H   0  0  0  0  0  0  0  0  0  0  0  0
   -1.4404    1.5709   -1.0920 C   0  0  0  0  0  0  0  0  0  0  0  0
   -0.4573    1.3872   -2.0901 C   0  0  0  0  0  0  0  0  0  0  0  0
    0.3159    2.1512   -2.2421 H   0  0  0  0  0  0  0  0  0  0  0  0
   -1.4368    2.8371   -0.2305 C   0  0  2  0  0  0  0  0  0  0  0  0
   -2.2881    3.4991   -0.4930 H   0  0  0  0  0  0  0  0  0  0  0  0
   -2.4417   -0.5502   -1.7798 C   0  0  0  0  0  0  0  0  0  0  0  0
   -3.2252   -1.3117   -1.6662 H   0  0  0  0  0  0  0  0  0  0  0  0
   -2.4721    0.5941   -0.9558 C   0  0  0  0  0  0  0  0  0  0  0  0
   -6.5398   -1.9655   -0.8099 C   0  0  0  0  0  0  0  0  0  0  0  0
   -7.3703   -2.0659   -1.5245 H   0  0  0  0  0  0  0  0  0  0  0  0
   -1.1024    1.4887    3.0161 C   0  0  0  0  0  0  0  0  0  0  0  0
   -0.6024    0.7568    3.6615 H   0  0  0  0  0  0  0  0  0  0  0  0
    1.3172    5.1657   -0.8075 C   0  0  0  0  0  0  0  0  0  0  0  0
    1.8186    6.0950   -1.0951 H   0  0  0  0  0  0  0  0  0  0  0  0
   -4.4274   -1.7044    1.0304 C   0  0  0  0  0  0  0  0  0  0  0  0
   -3.6048   -1.5813    1.7506 H   0  0  0  0  0  0  0  0  0  0  0  0
    1.9034    3.9860   -0.2917 C   0  0  0  0  0  0  0  0  0  0  0  0
    2.9564    3.7671   -0.0782 H   0  0  0  0  0  0  0  0  0  0  0  0
   -4.7243   -0.6598    0.1336 C   0  0  0  0  0  0  0  0  0  0  0  0
   -5.7867   -0.7817   -0.7816 C   0  0  0  0  0  0  0  0  0  0  0  0
   -6.0145    0.0481   -1.4666 H   0  0  0  0  0  0  0  0  0  0  0  0
   -2.0828    2.4566    3.3424 C   0  0  0  0  0  0  0  0  0  0  0  0
   -2.5416    2.6455    4.3178 H   0  0  0  0  0  0  0  0  0  0  0  0
   -0.4457    0.2502   -2.9080 C   0  0  0  0  0  0  0  0  0  0  0  0
    0.3441    0.1280   -3.6620 H   0  0  0  0  0  0  0  0  0  0  0  0
   -6.2397   -3.0150    0.0739 C   0  0  0  0  0  0  0  0  0  0  0  0
   -6.8363   -3.9391    0.0506 H   0  0  0  0  0  0  0  0  0  0  0  0
   -5.1869   -2.8835    0.9947 C   0  0  0  0  0  0  0  0  0  0  0  0
   -4.9608   -3.7006    1.6964 H   0  0  0  0  0  0  0  0  0  0  0  0
  3 15  1  0  0  0  0
  3  2  1  0  0  0  0
  4  5  1  0  0  0  0
  4  6  1  0  0  0  0
  5 22  1  0  0  0  0
  6 33  1  0  0  0  0
  7  6  1  0  0  0  0
  8 17  1  0  0  0  0
  9  8  1  0  0  0  0
 10 24  1  0  0  0  0
 10  3  1  0  0  0  0
 11 10  1  0  0  0  0
 12 19  1  0  0  0  0
 12 15  1  0  0  0  0
 13 12  2  0  0  0  0
 14 13  1  0  0  0  0
 15 16  1  6  0  0  0
 15  4  1  0  0  0  0
 17 18  1  0  0  0  0
 17 19  2  0  0  0  0
 19  1  1  0  0  0  0
 20 31  2  0  0  0  0
 20 37  1  0  0  0  0
 21 20  1  0  0  0  0
 22 33  2  0  0  0  0
 22 23  1  0  0  0  0
 24 28  2  0  0  0  0
 25 24  1  0  0  0  0
 26 27  1  0  0  0  0
 28 29  1  0  0  0  0
 28  2  1  0  0  0  0
 30  1  1  0  0  0  0
 30 26  2  0  0  0  0
 31 30  1  0  0  0  0
 32 31  1  0  0  0  0
 33 34  1  0  0  0  0
 35  8  2  0  0  0  0
 35 13  1  0  0  0  0
 36 35  1  0  0  0  0
 37 39  2  0  0  0  0
 38 37  1  0  0  0  0
 39 26  1  0  0  0  0
 39 40  1  0  0  0  0
M  END
