3,4
q = -1.0, confidence = 0.002

 15 14  0  0  0  0  0  0  0  0999 V2000
   -0.5439   -2.7164   -0.0371 O   0  0  0  0  0  1  0  0  0  0  0  0
   -2.3443   -1.4498   -0.0348 N   0  0  0  0  0  0  0  0  0  0  0  0
   -1.0308   -1.5856   -0.0253 N   0  0  0  0  0  2  0  0  0  0  0  0
   -1.6683    0.7838   -0.0077 N   0  0  0  0  0  2  0  0  0  0  0  0
   -1.8430    1.7916    0.0326 H   0  0  0  0  0  0  0  0  0  0  0  0
   -3.9808    0.2279   -0.0490 N   0  0  0  0  0  0  0  0  0  0  0  0
   -2.6567   -0.1011   -0.0248 C   0  0  0  0  0  0  0  0  0  0  0  0
   -5.0227   -0.7781    0.0882 C   0  0  0  0  0  0  0  0  0  0  0  0
   -5.5569   -0.6723    1.0586 H   0  0  0  0  0  0  0  0  0  0  0  0
   -5.7655   -0.6801   -0.7318 H   0  0  0  0  0  0  0  0  0  0  0  0
   -4.5536   -1.7761    0.0423 H   0  0  0  0  0  0  0  0  0  0  0  0
   -4.3669    1.6249   -0.0430 C   0  0  0  0  0  0  0  0  0  0  0  0
   -3.7748    2.2004   -0.7849 H   0  0  0  0  0  0  0  0  0  0  0  0
   -5.4331    1.7077   -0.3242 H   0  0  0  0  0  0  0  0  0  0  0  0
   -4.2328    2.1013    0.9556 H   0  0  0  0  0  0  0  0  0  0  0  0
  1  3  1  0  0  0  0
  2  3  1  0  0  0  0
  2  7  2  0  0  0  0
  4  5  1  0  0  0  0
  6 12  1  0  0  0  0
  6  7  1  0  0  0  0
  6  8  1  0  0  0  0
  7  4  1  0  0  0  0
  8  9  1  0  0  0  0
 10  8  1  0  0  0  0
 11  8  1  0  0  0  0
 12 15  1  0  0  0  0
 13 12  1  0  0  0  0
 14 12  1  0  0  0  0
M  END
