1,3
q = 0.0, confidence = 0.98

 28 27  0  0  0  0  0  0  0  0999 V2000
    1.5588    0.0064   -0.1707 N   0  0  0  0  0  0  0  0  0  0  0  0
   -0.0192   -2.4339   -0.6428 N   0  0  0  0  0  0  0  0  0  0  0  0
   -0.0006   -0.3363    2.0417 N   0  0  0  0  0  0  0  0  0  0  0  0
    0.3216    2.5329    0.7814 N   0  0  0  0  0  0  0  0  0  0  0  0
    1.8670   -0.9780   -1.2457 C   0  0  0  0  0  0  0  0  0  0  0  0
    1.3921   -2.4082   -0.9851 C   0  0  0  0  0  0  0  0  0  0  0  0
    2.2217   -0.3502    1.1197 C   0  0  0  0  0  0  0  0  0  0  0  0
    1.2592   -1.0786    2.0554 C   0  0  0  0  0  0  0  0  0  0  0  0
    1.9802    1.3548   -0.6494 C   0  0  0  0  0  0  0  0  0  0  0  0
    1.6912    2.5323    0.2871 C   0  0  0  0  0  0  0  0  0  0  0  0
    1.3800   -0.6041   -2.1675 H   0  0  0  0  0  0  0  0  0  0  0  0
    2.9678   -0.9866   -1.4309 H   0  0  0  0  0  0  0  0  0  0  0  0
    1.9814   -2.8595   -0.1554 H   0  0  0  0  0  0  0  0  0  0  0  0
    1.6750   -2.9894   -1.8993 H   0  0  0  0  0  0  0  0  0  0  0  0
   -0.5878   -2.0378   -1.4137 H   0  0  0  0  0  0  0  0  0  0  0  0
   -0.3504   -3.3850   -0.4474 H   0  0  0  0  0  0  0  0  0  0  0  0
    2.5400    0.5918    1.6072 H   0  0  0  0  0  0  0  0  0  0  0  0
    3.1453   -0.9430    0.9372 H   0  0  0  0  0  0  0  0  0  0  0  0
    1.0383   -2.0977    1.6874 H   0  0  0  0  0  0  0  0  0  0  0  0
    1.7119   -1.1671    3.0693 H   0  0  0  0  0  0  0  0  0  0  0  0
   -0.8340   -0.8325    2.4166 H   0  0  0  0  0  0  0  0  0  0  0  0
    0.0776    0.6099    2.4468 H   0  0  0  0  0  0  0  0  0  0  0  0
    3.0733    1.3435   -0.8765 H   0  0  0  0  0  0  0  0  0  0  0  0
    1.4482    1.5241   -1.6051 H   0  0  0  0  0  0  0  0  0  0  0  0
    1.9825    3.4388   -0.3021 H   0  0  0  0  0  0  0  0  0  0  0  0
    2.3905    2.5179    1.1544 H   0  0  0  0  0  0  0  0  0  0  0  0
    0.1229    3.4064    1.2846 H   0  0  0  0  0  0  0  0  0  0  0  0
   -0.3352    2.4853   -0.0208 H   0  0  0  0  0  0  0  0  0  0  0  0
  1  7  1  0  0  0  0
  2 16  1  0  0  0  0
  3  8  1  0  0  0  0
  3 21  1  0  0  0  0
  3 22  1  0  0  0  0
  4 27  1  0  0  0  0
  5  6  1  0  0  0  0
  5  1  1  0  0  0  0
  6  2  1  0  0  0  0
  6 13  1  0  0  0  0
  7 17  1  0  0  0  0
  7  8  1  0  0  0  0
  8 20  1  0  0  0  0
  9  1  1  0  0  0  0
  9 10  1  0  0  0  0
 10  4  1  0  0  0  0
 10 26  1  0  0  0  0
 11  5  1  0  0  0  0
 12  5  1  0  0  0  0
 14  6  1  0  0  0  0
 15  2  1  0  0  0  0
 18  7  1  0  0  0  0
 19  8  1  0  0  0  0
 23  9  1  0  0  0  0
 24  9  1  0  0  0  0
 25 10  1  0  0  0  0
 28  4  1  0  0  0  0
M  END
