1,3
q = 0.0, confidence = 0.984

 18 18  0  0  1  0  0  0  0  0999 V2000
   -0.9166   -1.2025   -0.0003 N   0  0  0  0  0  2  0  0  0  0  0  0
   -0.9252   -2.2316   -0.0005 H   0  0  0  0  0  0  0  0  0  0  0  0
   -0.6477    1.3160    0.0003 N   0  0  0  0  0  2  0  0  0  0  0  0
   -1.9304    0.8178    0.0002 N   0  0  0  0  0  0  0  0  0  0  0  0
   -2.0615   -0.5750   -0.0001 C   0  0  1  0  0  3  0  0  0  0  0  0
   -3.4336   -1.1770   -0.0007 C   0  0  0  0  0  0  0  0  0  0  0  0
   -3.9817   -0.7867   -0.8876 H   0  0  0  0  0  0  0  0  0  0  0  0
   -3.9835   -0.7844    0.8841 H   0  0  0  0  0  0  0  0  0  0  0  0
   -3.4426   -2.7046    0.0012 C   0  0  0  0  0  0  0  0  0  0  0  0
   -2.9404   -3.1170   -0.8969 H   0  0  0  0  0  0  0  0  0  0  0  0
   -4.4830   -3.0799    0.0009 H   0  0  0  0  0  0  0  0  0  0  0  0
   -2.9415   -3.1147    0.9011 H   0  0  0  0  0  0  0  0  0  0  0  0
   -2.8435    1.8507   -0.0002 C   0  0  0  0  0  3  0  0  0  0  0  0
   -3.9206    1.6604   -0.0004 H   0  0  0  0  0  0  0  0  0  0  0  0
   -2.1125    3.0309   -0.0005 C   0  0  0  0  0  0  0  0  0  0  0  0
   -2.5149    4.0487   -0.0009 H   0  0  0  0  0  0  0  0  0  0  0  0
   -0.7442    2.6506    0.0000 C   0  0  0  0  0  0  0  0  0  0  0  0
    0.1810    3.2393    0.0002 H   0  0  0  0  0  0  0  0  0  0  0  0
  2  1  1  0  0  0  0
  4  3  1  0  0  0  0
  5  1  1  6  0  0  0
  5  4  1  0  0  0  0
  6  5  1  0  0  0  0
  6  9  1  0  0  0  0
  6  8  1  0  0  0  0
  7  6  1  0  0  0  0
  9 12  1  0  0  0  0
 10  9  1  0  0  0  0
 11  9  1  0  0  0  0
 13  4  1  0  0  0  0
 14 13  1  0  0  0  0
 15 13  1  0  0  0  0
 15 17  2  0  0  0  0
 16 15  1  0  0  0  0
 17 18  1  0  0  0  0
 17  3  1  0  0  0  0
M  END
