3
q = 0.0, confidence = 0.998

 40 41  0  0  1  0  0  0  0  0999 V2000
   -1.3174   -1.2218    1.5825 O   0  0  0  0  0  0  0  0  0  0  0  0
    3.5733    0.9675   -0.8520 O   0  0  0  0  0  0  0  0  0  0  0  0
   -1.3264    1.3057   -0.0013 N   0  0  0  0  0  2  0  0  0  0  0  0
    1.0070    0.1578    0.7385 N   0  0  0  0  0  0  0  0  0  0  0  0
   -2.1583   -2.3926    1.6441 C   0  0  0  0  0  0  0  0  0  0  0  0
   -0.1214   -1.3410    2.3643 C   0  0  0  0  0  0  0  0  0  0  0  0
    0.6747   -0.0561    2.1999 C   0  0  1  0  0  0  0  0  0  0  0  0
    2.0313   -0.0952    2.9547 C   0  0  0  0  0  0  0  0  0  0  0  0
    3.1114   -0.1356    1.8523 C   0  0  0  0  0  0  0  0  0  0  0  0
    2.3425   -0.5364    0.5890 C   0  0  2  0  0  0  0  0  0  0  0  0
    3.0532   -0.3478   -0.7355 C   0  0  0  0  0  0  0  0  0  0  0  0
    4.0777    1.2255   -2.1461 C   0  0  0  0  0  0  0  0  0  0  0  0
    1.0358    1.6170    0.4279 C   0  0  0  0  0  0  0  0  0  0  0  0
   -0.3618    2.1680    0.4216 C   0  0  1  0  0  3  0  0  0  0  0  0
   -0.6817    3.4879    0.7652 C   0  0  0  0  0  0  0  0  0  0  0  0
   -2.0086    3.9260    0.6476 C   0  0  0  0  0  0  0  0  0  0  0  0
   -2.9835    3.0237    0.1977 C   0  0  0  0  0  0  0  0  0  0  0  0
   -2.6080    1.7139   -0.1162 C   0  0  0  0  0  0  0  0  0  0  0  0
   -2.9917   -2.2007    0.9450 H   0  0  0  0  0  0  0  0  0  0  0  0
   -2.5136   -2.5174    2.6885 H   0  0  0  0  0  0  0  0  0  0  0  0
   -1.5901   -3.2790    1.2959 H   0  0  0  0  0  0  0  0  0  0  0  0
   -0.3966   -1.4811    3.4332 H   0  0  0  0  0  0  0  0  0  0  0  0
    0.4547   -2.2262    2.0110 H   0  0  0  0  0  0  0  0  0  0  0  0
    0.0322    0.7880    2.5209 H   0  0  0  0  0  0  0  0  0  0  0  0
    2.1452    0.7784    3.6242 H   0  0  0  0  0  0  0  0  0  0  0  0
    2.0785   -0.9971    3.5978 H   0  0  0  0  0  0  0  0  0  0  0  0
    3.5904    0.8523    1.7015 H   0  0  0  0  0  0  0  0  0  0  0  0
    3.9207   -0.8588    2.0702 H   0  0  0  0  0  0  0  0  0  0  0  0
    2.0781   -1.6152    0.6133 H   0  0  0  0  0  0  0  0  0  0  0  0
    2.3453   -0.5799   -1.5628 H   0  0  0  0  0  0  0  0  0  0  0  0
    3.8813   -1.0992   -0.7762 H   0  0  0  0  0  0  0  0  0  0  0  0
    3.2854    1.1113   -2.9222 H   0  0  0  0  0  0  0  0  0  0  0  0
    4.4530    2.2674   -2.1594 H   0  0  0  0  0  0  0  0  0  0  0  0
    4.9210    0.5405   -2.4056 H   0  0  0  0  0  0  0  0  0  0  0  0
    1.6889    2.1791    1.1274 H   0  0  0  0  0  0  0  0  0  0  0  0
    1.4634    1.7158   -0.5895 H   0  0  0  0  0  0  0  0  0  0  0  0
    0.1130    4.1632    1.1138 H   0  0  0  0  0  0  0  0  0  0  0  0
   -2.2771    4.9609    0.9065 H   0  0  0  0  0  0  0  0  0  0  0  0
   -4.0348    3.3243    0.0860 H   0  0  0  0  0  0  0  0  0  0  0  0
   -3.3005    0.9404   -0.4910 H   0  0  0  0  0  0  0  0  0  0  0  0
  1  5  1  0  0  0  0
  1  6  1  0  0  0  0
  2 11  1  0  0  0  0
  3 14  1  0  0  0  0
  4  7  1  0  0  0  0
  5 20  1  0  0  0  0
  6 22  1  0  0  0  0
  7  6  1  0  0  0  0
  7 24  1  1  0  0  0
  7  8  1  0  0  0  0
  8 26  1  0  0  0  0
  8 25  1  0  0  0  0
  9 28  1  0  0  0  0
  9  8  1  0  0  0  0
 10 29  1  1  0  0  0
 10  4  1  0  0  0  0
 10  9  1  0  0  0  0
 11 10  1  0  0  0  0
 12  2  1  0  0  0  0
 13  4  1  0  0  0  0
 13 35  1  0  0  0  0
 14 13  1  6  0  0  0
 14 15  1  0  0  0  0
 15 37  1  0  0  0  0
 16 15  2  0  0  0  0
 16 38  1  0  0  0  0
 17 16  1  0  0  0  0
 18  3  1  0  0  0  0
 18 17  2  0  0  0  0
 19  5  1  0  0  0  0
 21  5  1  0  0  0  0
 23  6  1  0  0  0  0
 27  9  1  0  0  0  0
 30 11  1  0  0  0  0
 31 11  1  0  0  0  0
 32 12  1  0  0  0  0
 33 12  1  0  0  0  0
 34 12  1  0  0  0  0
 36 13  1  0  0  0  0
 39 17  1  0  0  0  0
 40 18  1  0  0  0  0
M  END
