1,2
q = -1.0, confidence = 0.0

 23 22  0  0  0  0  0  0  0  0999 V2000
   -1.9397    0.2739    0.8150 N   0  0  0  0  0  0  0  0  0  0  0  0
   -0.6336    1.4468   -1.2605 N   0  0  0  0  0  2  0  0  0  0  0  0
   -0.1749    1.8279   -2.0995 H   0  0  0  0  0  0  0  0  0  0  0  0
   -1.6914   -2.9808   -0.0916 N   0  0  0  0  0  0  0  0  0  0  0  0
   -0.8015   -2.8175    0.4053 H   0  0  0  0  0  0  0  0  0  0  0  0
   -1.6713   -3.5859   -0.9153 H   0  0  0  0  0  0  0  0  0  0  0  0
   -2.4807    2.6753   -1.9225 O   0  0  0  0  0  0  0  0  0  0  0  0
   -3.5307   -1.8949   -0.9278 O   0  0  0  0  0  0  0  0  0  0  0  0
   -1.9410    1.8324   -1.2057 C   0  0  0  0  0  0  0  0  0  0  0  0
   -2.7604    1.0334   -0.1834 C   0  0  0  0  0  0  0  0  0  0  0  0
   -3.3517    0.2986   -0.7677 H   0  0  0  0  0  0  0  0  0  0  0  0
   -3.4806    1.6988    0.3358 H   0  0  0  0  0  0  0  0  0  0  0  0
   -2.5646   -1.0461    1.1190 C   0  0  0  0  0  0  0  0  0  0  0  0
   -3.6101   -0.8805    1.4605 H   0  0  0  0  0  0  0  0  0  0  0  0
   -2.0005   -1.5024    1.9531 H   0  0  0  0  0  0  0  0  0  0  0  0
   -2.6395   -1.9991   -0.0869 C   0  0  0  0  0  0  0  0  0  0  0  0
   -1.8366    1.0253    2.1086 C   0  0  0  0  0  0  0  0  0  0  0  0
   -2.8659    1.0872    2.5338 H   0  0  0  0  0  0  0  0  0  0  0  0
   -1.2314    0.3980    2.7930 H   0  0  0  0  0  0  0  0  0  0  0  0
   -1.2274    2.4114    1.9997 C   0  0  0  0  0  0  0  0  0  0  0  0
   -0.1868    2.3480    1.6314 H   0  0  0  0  0  0  0  0  0  0  0  0
   -1.2168    2.8782    3.0042 H   0  0  0  0  0  0  0  0  0  0  0  0
   -1.8013    3.0755    1.3241 H   0  0  0  0  0  0  0  0  0  0  0  0
  1 13  1  0  0  0  0
  1 17  1  0  0  0  0
  2  9  1  0  0  0  0
  3  2  1  0  0  0  0
  4 16  1  0  0  0  0
  4  5  1  0  0  0  0
  6  4  1  0  0  0  0
  7  9  2  0  0  0  0
  8 16  2  0  0  0  0
  9 10  1  0  0  0  0
 10 12  1  0  0  0  0
 10  1  1  0  0  0  0
 11 10  1  0  0  0  0
 13 14  1  0  0  0  0
 13 15  1  0  0  0  0
 16 13  1  0  0  0  0
 17 18  1  0  0  0  0
 17 19  1  0  0  0  0
 20 17  1  0  0  0  0
 20 22  1  0  0  0  0
 21 20  1  0  0  0  0
 23 20  1  0  0  0  0
M  END
