2,3
q = -1.0, confidence = 0.0

 22 23  0  0  0  0  0  0  0  0999 V2000
   -3.5707    0.6073   -0.8950 O   0  0  0  0  0  0  0  0  0  0  0  0
    2.0028   -0.7060   -0.5194 N   0  0  0  0  0  0  0  0  0  0  0  0
   -0.2602   -0.1671   -1.6332 N   0  0  0  0  0  2  0  0  0  0  0  0
    3.2356   -1.0756   -0.1111 C   0  0  0  0  0  3  0  0  0  0  0  0
    3.7007   -0.6344    0.7791 H   0  0  0  0  0  0  0  0  0  0  0  0
    3.7708   -2.0378   -1.0095 C   0  0  0  0  0  0  0  0  0  0  0  0
    4.7514   -2.5201   -0.9210 H   0  0  0  0  0  0  0  0  0  0  0  0
    2.8122   -2.2420   -2.0165 C   0  0  0  0  0  0  0  0  0  0  0  0
    2.8846   -2.9077   -2.8843 H   0  0  0  0  0  0  0  0  0  0  0  0
    1.7204   -1.3949   -1.6940 C   0  0  0  0  0  0  0  0  0  0  0  0
    0.4852   -1.0439   -2.2797 C   0  0  0  0  0  3  0  0  0  0  0  0
    0.1494   -1.4586   -3.2475 H   0  0  0  0  0  0  0  0  0  0  0  0
   -1.5177    0.2889   -2.2066 C   0  0  0  0  0  0  0  0  0  0  0  0
   -1.5532    0.0083   -3.2831 H   0  0  0  0  0  0  0  0  0  0  0  0
   -1.5549    1.3961   -2.1556 H   0  0  0  0  0  0  0  0  0  0  0  0
   -2.7127   -0.2751   -1.5000 C   0  0  0  0  0  0  0  0  0  0  0  0
   -3.1413   -1.5648   -1.2663 C   0  0  0  0  0  0  0  0  0  0  0  0
   -2.6493   -2.4792   -1.6152 H   0  0  0  0  0  0  0  0  0  0  0  0
   -4.3289   -1.4648   -0.4669 C   0  0  0  0  0  0  0  0  0  0  0  0
   -4.9488   -2.2855   -0.0895 H   0  0  0  0  0  0  0  0  0  0  0  0
   -4.5443   -0.1201   -0.2721 C   0  0  0  0  0  0  0  0  0  0  0  0
   -5.3147    0.4575    0.2482 H   0  0  0  0  0  0  0  0  0  0  0  0
  1 21  1  0  0  0  0
  2  4  1  0  0  0  0
  4  5  1  0  0  0  0
  6  7  1  0  0  0  0
  6  4  1  0  0  0  0
  8 10  1  0  0  0  0
  8  6  2  0  0  0  0
  9  8  1  0  0  0  0
 10  2  2  0  0  0  0
 11 10  1  0  0  0  0
 11  3  1  0  0  0  0
 12 11  1  0  0  0  0
 13 15  1  0  0  0  0
 13  3  1  0  0  0  0
 13 16  1  0  0  0  0
 14 13  1  0  0  0  0
 16 17  2  0  0  0  0
 16  1  1  0  0  0  0
 17 19  1  0  0  0  0
 18 17  1  0  0  0  0
 19 21  2  0  0  0  0
 19 20  1  0  0  0  0
 21 22  1  0  0  0  0
M  END
