3,4
q = -1.0, confidence = 0.0

 24 25  0  0  0  0  0  0  0  0999 V2000
   -6.3386   -0.7461    0.6616 O   0  0  0  0  0  0  0  0  0  0  0  0
   -4.9043   -2.3902    0.5356 O   0  0  0  0  0  0  0  0  0  0  0  0
    1.9305   -0.8867   -1.2360 N   0  0  0  0  0  0  0  0  0  0  0  0
   -0.5672   -0.3013   -0.9256 N   0  0  0  0  0  2  0  0  0  0  0  0
   -5.2203   -1.2047    0.4323 N   0  0  0  0  0  0  0  0  0  0  0  0
    3.1696   -1.2941   -1.5733 C   0  0  0  0  0  3  0  0  0  0  0  0
    4.0632   -0.7823   -1.1949 H   0  0  0  0  0  0  0  0  0  0  0  0
    3.0883   -2.4019   -2.4647 C   0  0  0  0  0  0  0  0  0  0  0  0
    3.9412   -2.9392   -2.8958 H   0  0  0  0  0  0  0  0  0  0  0  0
    1.7272   -2.6597   -2.6806 C   0  0  0  0  0  0  0  0  0  0  0  0
    1.2845   -3.4328   -3.3188 H   0  0  0  0  0  0  0  0  0  0  0  0
    1.0185   -1.6978   -1.9097 C   0  0  0  0  0  0  0  0  0  0  0  0
   -0.3281   -1.3395   -1.7191 C   0  0  0  0  0  3  0  0  0  0  0  0
   -1.1613   -1.8560   -2.2263 H   0  0  0  0  0  0  0  0  0  0  0  0
   -1.8765    0.1445   -0.6680 C   0  0  0  0  0  0  0  0  0  0  0  0
   -2.8859   -0.7535   -0.2702 C   0  0  0  0  0  0  0  0  0  0  0  0
   -2.6904   -1.8258   -0.1387 H   0  0  0  0  0  0  0  0  0  0  0  0
   -4.1663   -0.2522   -0.0042 C   0  0  0  0  0  0  0  0  0  0  0  0
   -4.4832    1.1064   -0.1148 C   0  0  0  0  0  0  0  0  0  0  0  0
   -5.5047    1.4380    0.1108 H   0  0  0  0  0  0  0  0  0  0  0  0
   -3.4675    1.9905   -0.5144 C   0  0  0  0  0  0  0  0  0  0  0  0
   -3.6919    3.0620   -0.6250 H   0  0  0  0  0  0  0  0  0  0  0  0
   -2.1761    1.5233   -0.7880 C   0  0  0  0  0  0  0  0  0  0  0  0
   -1.3702    2.1917   -1.1300 H   0  0  0  0  0  0  0  0  0  0  0  0
  4 15  1  0  0  0  0
  5  2  2  0  0  0  0
  5  1  2  0  0  0  0
  6  3  1  0  0  0  0
  6  7  1  0  0  0  0
  8  6  1  0  0  0  0
  9  8  1  0  0  0  0
 10  8  2  0  0  0  0
 10 12  1  0  0  0  0
 11 10  1  0  0  0  0
 12 13  1  0  0  0  0
 12  3  2  0  0  0  0
 13  4  1  0  0  0  0
 14 13  1  0  0  0  0
 15 16  1  0  0  0  0
 16 17  1  0  0  0  0
 16 18  2  0  0  0  0
 18  5  1  0  0  0  0
 19 18  1  0  0  0  0
 19 20  1  0  0  0  0
 21 19  2  0  0  0  0
 22 21  1  0  0  0  0
 23 15  2  0  0  0  0
 23 21  1  0  0  0  0
 24 23  1  0  0  0  0
M  END
