2,4
q = -1.0, confidence = 0.0

 41 44  0  0  0  0  0  0  0  0999 V2000
   -6.3996    2.6886   -1.8556 Cl  0  0  0  0  0  0  0  0  0  0  0  0
   -0.6414    1.8496   -0.5559 N   0  0  0  0  0  2  0  0  0  0  0  0
    0.1092    2.8897   -0.4501 N   0  0  0  0  0  0  0  0  0  0  0  0
    1.6577    0.4845   -1.1170 N   0  0  0  0  0  2  0  0  0  0  0  0
    1.4570    2.8284   -0.4563 C   0  0  0  0  0  0  0  0  0  0  0  0
    2.2046    1.7074   -1.0232 C   0  0  0  0  0  0  0  0  0  0  0  0
    3.4986    2.0401   -1.5850 C   0  0  0  0  0  0  0  0  0  0  0  0
    4.0049    1.2922   -2.2069 H   0  0  0  0  0  0  0  0  0  0  0  0
    4.1128    3.2426   -1.3386 C   0  0  0  0  0  0  0  0  0  0  0  0
    5.1134    3.4330   -1.7584 H   0  0  0  0  0  0  0  0  0  0  0  0
    3.4946    4.2724   -0.5495 C   0  0  0  0  0  0  0  0  0  0  0  0
    2.1424    4.0731   -0.1286 C   0  0  0  0  0  0  0  0  0  0  0  0
    4.1589    5.4826   -0.2278 C   0  0  0  0  0  3  0  0  0  0  0  0
    5.2001    5.6196   -0.5597 H   0  0  0  0  0  0  0  0  0  0  0  0
    3.5069    6.4845    0.4886 C   0  0  0  0  0  0  0  0  0  0  0  0
    4.0307    7.4197    0.7365 H   0  0  0  0  0  0  0  0  0  0  0  0
    2.1668    6.2925    0.8942 C   0  0  0  0  0  0  0  0  0  0  0  0
    1.6486    7.0818    1.4600 H   0  0  0  0  0  0  0  0  0  0  0  0
    1.4960    5.1069    0.5925 C   0  0  0  0  0  0  0  0  0  0  0  0
    0.4597    4.9472    0.9229 H   0  0  0  0  0  0  0  0  0  0  0  0
   -1.9951    2.0927   -0.8872 C   0  0  0  0  0  0  0  0  0  0  0  0
   -2.7453    1.0443   -1.4604 C   0  0  0  0  0  0  0  0  0  0  0  0
   -2.2527    0.0794   -1.6525 H   0  0  0  0  0  0  0  0  0  0  0  0
   -4.0968    1.2252   -1.7718 C   0  0  0  0  0  0  0  0  0  0  0  0
   -4.6844    0.4098   -2.2158 H   0  0  0  0  0  0  0  0  0  0  0  0
   -4.7044    2.4640   -1.5077 C   0  0  0  0  0  0  0  0  0  0  0  0
   -3.9598    3.5269   -0.9628 C   0  0  0  0  0  0  0  0  0  0  0  0
   -4.4525    4.4894   -0.7661 H   0  0  0  0  0  0  0  0  0  0  0  0
   -2.6086    3.3454   -0.6653 C   0  0  0  0  0  0  0  0  0  0  0  0
   -2.0099    4.1583   -0.2349 H   0  0  0  0  0  0  0  0  0  0  0  0
    2.2237   -0.5936   -1.8408 C   0  0  0  0  0  0  0  0  0  0  0  0
    3.5666   -1.0121   -1.6900 C   0  0  0  0  0  0  0  0  0  0  0  0
    4.2283   -0.4831   -0.9927 H   0  0  0  0  0  0  0  0  0  0  0  0
    4.0362   -2.1466   -2.3650 C   0  0  0  0  0  0  0  0  0  0  0  0
    5.0781   -2.4664   -2.2123 H   0  0  0  0  0  0  0  0  0  0  0  0
    3.1828   -2.8888   -3.1956 C   0  0  0  0  0  0  0  0  0  0  0  0
    3.5547   -3.7836   -3.7166 H   0  0  0  0  0  0  0  0  0  0  0  0
    1.8448   -2.4863   -3.3435 C   0  0  0  0  0  0  0  0  0  0  0  0
    1.3693   -1.3530   -2.6734 C   0  0  0  0  0  0  0  0  0  0  0  0
    0.3204   -1.0364   -2.7734 H   0  0  0  0  0  0  0  0  0  0  0  0
    1.1613   -3.0613   -3.9865 H   0  0  0  0  0  0  0  0  0  0  0  0
  1 26  1  0  0  0  0
  2  3  1  0  0  0  0
  4  6  1  0  0  0  0
  5  3  2  0  0  0  0
  5 12  1  0  0  0  0
  6  5  1  0  0  0  0
  7  9  1  0  0  0  0
  7  6  2  0  0  0  0
  8  7  1  0  0  0  0
  9 11  2  0  0  0  0
 10  9  1  0  0  0  0
 11 13  1  0  0  0  0
 11 12  1  0  0  0  0
 12 19  2  0  0  0  0
 13 15  1  0  0  0  0
 14 13  1  0  0  0  0
 15 16  1  0  0  0  0
 15 17  2  0  0  0  0
 17 18  1  0  0  0  0
 19 17  1  0  0  0  0
 19 20  1  0  0  0  0
 21 29  1  0  0  0  0
 21  2  1  0  0  0  0
 22 21  2  0  0  0  0
 23 22  1  0  0  0  0
 24 26  2  0  0  0  0
 24 22  1  0  0  0  0
 25 24  1  0  0  0  0
 26 27  1  0  0  0  0
 27 28  1  0  0  0  0
 27 29  2  0  0  0  0
 29 30  1  0  0  0  0
 31 32  1  0  0  0  0
 31  4  1  0  0  0  0
 32 33  1  0  0  0  0
 34 35  1  0  0  0  0
 34 32  2  0  0  0  0
 36 34  1  0  0  0  0
 37 36  1  0  0  0  0
 38 36  2  0  0  0  0
 38 39  1  0  0  0  0
 39 31  2  0  0  0  0
 40 39  1  0  0  0  0
 41 38  1  0  0  0  0
M  END
