4,9
q = 0.0, confidence = 0.996

 12 13  0  0  0  0  0  0  0  0999 V2000
    2.2670    2.8308    0.0007 O   0  0  0  0  0  0  0  0  0  0  0  0
    2.9408    1.6081    0.0007 N   0  0  0  0  0  0  0  0  0  0  0  0
    1.9608    0.7292   -0.0001 C   0  0  0  0  0  0  0  0  0  0  0  0
    0.6947    1.3070   -0.0007 N   0  0  0  0  0  2  0  0  0  0  0  0
    0.9469    2.5937   -0.0001 C   0  0  0  0  0  3  0  0  0  0  0  0
    0.2273    3.4217   -0.0003 H   0  0  0  0  0  0  0  0  0  0  0  0
    2.2673   -2.8306    0.0001 O   0  0  0  0  0  0  0  0  0  0  0  0
    2.9410   -1.6078    0.0001 N   0  0  0  0  0  0  0  0  0  0  0  0
    0.6948   -1.3069   -0.0003 N   0  0  0  0  0  2  0  0  0  0  0  0
    1.9609   -0.7290   -0.0002 C   0  0  0  0  0  0  0  0  0  0  0  0
    0.9472   -2.5937   -0.0001 C   0  0  0  0  0  3  0  0  0  0  0  0
    0.2276   -3.4217   -0.0001 H   0  0  0  0  0  0  0  0  0  0  0  0
  1  2  1  0  0  0  0
  3  2  2  0  0  0  0
  4  3  1  0  0  0  0
  4  5  1  0  0  0  0
  5  1  1  0  0  0  0
  6  5  1  0  0  0  0
  8  7  1  0  0  0  0
  9 10  1  0  0  0  0
  9 11  1  0  0  0  0
 10  3  1  0  0  0  0
 10  8  2  0  0  0  0
 11  7  1  0  0  0  0
 12 11  1  0  0  0  0
M  END
