1,3
q = 0.0, confidence = 0.996

 24 25  0  0  1  0  0  0  0  0999 V2000
   -1.3959    0.7622    0.8498 N   0  0  0  0  0  2  0  0  0  0  0  0
   -1.3779    1.9023    1.6168 C   0  0  2  0  0  3  0  0  0  0  0  0
   -1.1536   -1.4623   -0.3975 N   0  0  0  0  0  2  0  0  0  0  0  0
   -2.6005    2.5312    1.9742 C   0  0  0  0  0  0  0  0  0  0  0  0
   -2.5636    3.4558    2.5679 H   0  0  0  0  0  0  0  0  0  0  0  0
   -3.8146    1.9717    1.5855 C   0  0  0  0  0  0  0  0  0  0  0  0
   -4.7601    2.4597    1.8634 H   0  0  0  0  0  0  0  0  0  0  0  0
   -0.1757    2.4098    1.9770 N   0  0  0  0  0  0  0  0  0  0  0  0
    0.6626    1.7921    1.9385 H   0  0  0  0  0  0  0  0  0  0  0  0
   -0.1742    3.1677    2.6567 H   0  0  0  0  0  0  0  0  0  0  0  0
    0.4172   -3.0558   -1.0794 N   0  0  0  0  0  0  0  0  0  0  0  0
    1.1150   -2.5976   -0.4585 H   0  0  0  0  0  0  0  0  0  0  0  0
    0.6008   -4.0173   -1.3598 H   0  0  0  0  0  0  0  0  0  0  0  0
   -3.8229    0.7724    0.8585 C   0  0  0  0  0  0  0  0  0  0  0  0
   -4.7648    0.2919    0.5682 H   0  0  0  0  0  0  0  0  0  0  0  0
   -2.5973    0.1863    0.5163 C   0  0  0  0  0  0  0  0  0  0  0  0
   -2.4604   -1.0841   -0.1977 C   0  0  2  0  0  3  0  0  0  0  0  0
   -3.5369   -1.8677   -0.6341 C   0  0  0  0  0  0  0  0  0  0  0  0
   -4.5673   -1.5329   -0.4652 H   0  0  0  0  0  0  0  0  0  0  0  0
   -3.2661   -3.0796   -1.2855 C   0  0  0  0  0  0  0  0  0  0  0  0
   -4.0892   -3.7108   -1.6506 H   0  0  0  0  0  0  0  0  0  0  0  0
   -1.9455   -3.4918   -1.4475 C   0  0  0  0  0  0  0  0  0  0  0  0
   -1.7034   -4.4505   -1.9282 H   0  0  0  0  0  0  0  0  0  0  0  0
   -0.8819   -2.6826   -0.9690 C   0  0  0  0  0  0  0  0  0  0  0  0
  1  2  1  0  0  0  0
  2  4  1  0  0  0  0
  2  8  1  6  0  0  0
  3 17  1  0  0  0  0
  4  5  1  0  0  0  0
  6  7  1  0  0  0  0
  6  4  2  0  0  0  0
  8 10  1  0  0  0  0
  9  8  1  0  0  0  0
 11 24  1  0  0  0  0
 11 12  1  0  0  0  0
 13 11  1  0  0  0  0
 14  6  1  0  0  0  0
 15 14  1  0  0  0  0
 16  1  1  0  0  0  0
 16 14  2  0  0  0  0
 17 16  1  1  0  0  0
 18 19  1  0  0  0  0
 18 17  1  0  0  0  0
 20 18  2  0  0  0  0
 21 20  1  0  0  0  0
 22 20  1  0  0  0  0
 22 24  2  0  0  0  0
 23 22  1  0  0  0  0
 24  3  1  0  0  0  0
M  END
