4,5
q = -1.0, confidence = 0.0

 26 28  0  0  1  0  0  0  0  0999 V2000
    3.9630   -2.5102    0.5396 Br  0  0  0  0  0  0  0  0  0  0  0  0
    5.3073    0.1653   -0.5540 N   0  0  0  0  0  0  0  0  0  0  0  0
    1.7040    0.7926   -0.3993 N   0  0  0  0  0  0  0  0  0  0  0  0
    0.7690   -0.0605   -0.0107 N   0  0  0  0  0  2  0  0  0  0  0  0
   -0.9692   -1.8367    0.7386 N   0  0  0  0  0  2  0  0  0  0  0  0
    6.4479    0.7857   -0.8799 C   0  0  0  0  0  0  0  0  0  0  0  0
    7.3721    0.1878   -0.7831 H   0  0  0  0  0  0  0  0  0  0  0  0
    6.5114    2.1169   -1.3236 C   0  0  0  0  0  0  0  0  0  0  0  0
    7.4779    2.5759   -1.5784 H   0  0  0  0  0  0  0  0  0  0  0  0
    5.3089    2.8342   -1.4294 C   0  0  0  0  0  0  0  0  0  0  0  0
    5.3093    3.8802   -1.7726 H   0  0  0  0  0  0  0  0  0  0  0  0
    4.1094    2.2011   -1.0918 C   0  0  0  0  0  0  0  0  0  0  0  0
    3.1412    2.7167   -1.1558 H   0  0  0  0  0  0  0  0  0  0  0  0
    4.1527    0.8547   -0.6553 C   0  0  0  0  0  0  0  0  0  0  0  0
    2.9113    0.1542   -0.2925 C   0  0  0  0  0  0  0  0  0  0  0  0
    2.7041   -1.1668    0.1898 C   0  0  0  0  0  0  0  0  0  0  0  0
    1.3022   -1.2728    0.3638 C   0  0  0  0  0  0  0  0  0  0  0  0
    0.3446   -2.2701    0.7783 C   0  0  2  0  0  3  0  0  0  0  0  0
    0.6484   -3.5845    1.1954 C   0  0  0  0  0  0  0  0  0  0  0  0
    1.7024   -3.8936    1.2173 H   0  0  0  0  0  0  0  0  0  0  0  0
   -0.3818   -4.4506    1.5636 C   0  0  0  0  0  0  0  0  0  0  0  0
   -0.1509   -5.4755    1.8894 H   0  0  0  0  0  0  0  0  0  0  0  0
   -1.7134   -3.9992    1.5118 C   0  0  0  0  0  0  0  0  0  0  0  0
   -2.5547   -4.6482    1.7907 H   0  0  0  0  0  0  0  0  0  0  0  0
   -1.9580   -2.6902    1.0931 C   0  0  0  0  0  0  0  0  0  0  0  0
   -2.9816   -2.2914    1.0394 H   0  0  0  0  0  0  0  0  0  0  0  0
  3 15  2  0  0  0  0
  3  4  1  0  0  0  0
  4 17  1  0  0  0  0
  5 18  1  0  0  0  0
  5 25  1  0  0  0  0
  6  7  1  0  0  0  0
  6  2  2  0  0  0  0
  8  6  1  0  0  0  0
  9  8  1  0  0  0  0
 10  8  2  0  0  0  0
 10 12  1  0  0  0  0
 11 10  1  0  0  0  0
 12 14  2  0  0  0  0
 13 12  1  0  0  0  0
 14  2  1  0  0  0  0
 14 15  1  0  0  0  0
 15 16  1  0  0  0  0
 16 17  2  0  0  0  0
 16  1  1  0  0  0  0
 18 17  1  6  0  0  0
 18 19  1  0  0  0  0
 19 20  1  0  0  0  0
 19 21  2  0  0  0  0
 21 22  1  0  0  0  0
 23 21  1  0  0  0  0
 23 24  1  0  0  0  0
 25 23  2  0  0  0  0
 26 25  1  0  0  0  0
M  END
