2,3
q = -1.0, confidence = 0.018

 26 28  0  0  0  0  0  0  0  0999 V2000
   -3.6708    2.9886    0.9038 Cl  0  0  0  0  0  0  0  0  0  0  0  0
    1.0255    1.7779    0.9145 N   0  0  0  0  0  2  0  0  0  0  0  0
   -0.9494    0.3139    0.0609 N   0  0  0  0  0  0  0  0  0  0  0  0
   -2.0006   -0.3660   -0.3706 N   0  0  0  0  0  0  0  0  0  0  0  0
   -5.4863    0.7617   -0.3293 N   0  0  0  0  0  0  0  0  0  0  0  0
    2.1212    2.4657    1.3124 C   0  0  0  0  0  3  0  0  0  0  0  0
    3.0850    1.9494    1.1928 H   0  0  0  0  0  0  0  0  0  0  0  0
    2.0522    3.7515    1.8516 C   0  0  0  0  0  0  0  0  0  0  0  0
    2.9742    4.2624    2.1607 H   0  0  0  0  0  0  0  0  0  0  0  0
    0.7900    4.3601    1.9838 C   0  0  0  0  0  0  0  0  0  0  0  0
    0.6987    5.3720    2.4052 H   0  0  0  0  0  0  0  0  0  0  0  0
   -0.3488    3.6669    1.5725 C   0  0  0  0  0  0  0  0  0  0  0  0
   -1.3550    4.0998    1.6518 H   0  0  0  0  0  0  0  0  0  0  0  0
   -0.2201    2.3683    1.0328 C   0  0  0  0  0  0  0  0  0  0  0  0
   -1.3048    1.5445    0.5622 C   0  0  0  0  0  3  0  0  0  0  0  0
   -2.7106    1.6441    0.4288 C   0  0  0  0  0  0  0  0  0  0  0  0
   -3.1078    0.4147   -0.1641 C   0  0  0  0  0  0  0  0  0  0  0  0
   -4.4441   -0.0684   -0.5415 C   0  0  0  0  0  0  0  0  0  0  0  0
   -4.6021   -1.3583   -1.1038 C   0  0  0  0  0  0  0  0  0  0  0  0
   -3.7181   -1.9933   -1.2543 H   0  0  0  0  0  0  0  0  0  0  0  0
   -5.8874   -1.7841   -1.4511 C   0  0  0  0  0  0  0  0  0  0  0  0
   -6.0442   -2.7813   -1.8907 H   0  0  0  0  0  0  0  0  0  0  0  0
   -6.9732   -0.9218   -1.2305 C   0  0  0  0  0  0  0  0  0  0  0  0
   -8.0012   -1.2158   -1.4883 H   0  0  0  0  0  0  0  0  0  0  0  0
   -6.7108    0.3379   -0.6668 C   0  0  0  0  0  0  0  0  0  0  0  0
   -7.5393    1.0443   -0.4780 H   0  0  0  0  0  0  0  0  0  0  0  0
  2 14  1  0  0  0  0
  2  6  1  0  0  0  0
  3 15  1  0  0  0  0
  4 17  1  0  0  0  0
  4  3  2  0  0  0  0
  6  8  1  0  0  0  0
  7  6  1  0  0  0  0
  8 10  2  0  0  0  0
  8  9  1  0  0  0  0
 10 11  1  0  0  0  0
 12 13  1  0  0  0  0
 12 10  1  0  0  0  0
 14 12  2  0  0  0  0
 15 14  1  0  0  0  0
 16 15  1  0  0  0  0
 16  1  1  0  0  0  0
 17 16  2  0  0  0  0
 18  5  1  0  0  0  0
 18 17  1  0  0  0  0
 19 18  2  0  0  0  0
 20 19  1  0  0  0  0
 21 23  2  0  0  0  0
 21 19  1  0  0  0  0
 22 21  1  0  0  0  0
 23 25  1  0  0  0  0
 24 23  1  0  0  0  0
 25 26  1  0  0  0  0
 25  5  2  0  0  0  0
M  END
