50,51
q = 0.0, confidence = 0.944

 51 55  0  0  1  0  0  0  0  0999 V2000
   -1.5600    5.6727    0.4003 C   0  0  0  0  0  0  0  0  0  0  0  0
   -2.6587    5.6528    0.4499 H   0  0  0  0  0  0  0  0  0  0  0  0
    0.5570    6.8236    0.4318 C   0  0  0  0  0  0  0  0  0  0  0  0
    1.1464    7.7551    0.5109 H   0  0  0  0  0  0  0  0  0  0  0  0
    1.2559    5.6880    0.2684 N   0  0  0  0  0  0  0  0  0  0  0  0
    0.5792    4.5388    0.1675 C   0  0  0  0  0  0  0  0  0  0  0  0
    1.1639    3.6102    0.0337 H   0  0  0  0  0  0  0  0  0  0  0  0
   -0.8427    4.4633    0.2275 C   0  0  0  0  0  0  0  0  0  0  0  0
   -1.5089    3.2133    0.1168 C   0  0  0  0  0  0  0  0  0  0  0  0
   -2.0831    2.1289    0.0185 C   0  0  0  0  0  0  0  0  0  0  0  0
   -2.6681    0.8322   -0.1107 C   0  0  0  0  0  0  0  0  0  0  0  0
   -1.8113   -0.2890   -0.2891 C   0  0  0  0  0  0  0  0  0  0  0  0
   -0.7223   -0.1174   -0.3169 H   0  0  0  0  0  0  0  0  0  0  0  0
   -2.3895   -1.5593   -0.4161 C   0  0  0  0  0  0  0  0  0  0  0  0
   -3.7869   -1.6719   -0.3602 C   0  0  0  0  0  0  0  0  0  0  0  0
   -4.2901   -2.6461   -0.4490 H   0  0  0  0  0  0  0  0  0  0  0  0
   -4.5606   -0.4965   -0.1828 C   0  0  0  0  0  0  0  0  0  0  0  0
   -5.9878   -0.5950   -0.1224 C   0  0  0  0  0  0  0  0  0  0  0  0
   -7.2134   -0.7011   -0.0745 C   0  0  0  0  0  0  0  0  0  0  0  0
   -8.6289   -0.8156   -0.0187 C   0  0  0  0  0  0  0  0  0  0  0  0
   -9.2657   -2.0846   -0.1116 C   0  0  0  0  0  0  0  0  0  0  0  0
   -8.6431   -2.9892   -0.2293 H   0  0  0  0  0  0  0  0  0  0  0  0
  -10.5886   -2.2587   -0.0654 N   0  0  0  0  0  0  0  0  0  0  0  0
  -11.3618   -1.1686    0.0765 C   0  0  0  0  0  0  0  0  0  0  0  0
  -12.4523   -1.3414    0.1113 H   0  0  0  0  0  0  0  0  0  0  0  0
   -9.4638    0.3197    0.1307 C   0  0  0  0  0  0  0  0  0  0  0  0
   -9.0138    1.3204    0.2058 H   0  0  0  0  0  0  0  0  0  0  0  0
   -1.5477   -2.8042   -0.6451 C   0  0  0  0  0  0  0  0  0  0  0  0
   -1.9986   -3.6869   -0.1508 H   0  0  0  0  0  0  0  0  0  0  0  0
   -1.4636   -3.0259   -1.7280 H   0  0  0  0  0  0  0  0  0  0  0  0
    0.2549   -2.6369    1.1291 C   0  0  0  0  0  0  0  0  0  0  0  0
   -0.3798   -2.9341    1.9684 H   0  0  0  0  0  0  0  0  0  0  0  0
    1.5515   -2.1425    1.0506 C   0  0  0  0  0  0  0  0  0  0  0  0
    2.5923   -1.7952    2.0078 C   0  0  2  0  0  3  0  0  0  0  0  0
    2.5440   -2.1122    3.3755 C   0  0  0  0  0  0  0  0  0  0  0  0
    1.6829   -2.6645    3.7774 H   0  0  0  0  0  0  0  0  0  0  0  0
    3.5989   -1.7164    4.2034 C   0  0  0  0  0  0  0  0  0  0  0  0
    3.5811   -1.9490    5.2780 H   0  0  0  0  0  0  0  0  0  0  0  0
    4.6775   -1.0188    3.6368 C   0  0  0  0  0  0  0  0  0  0  0  0
    5.5278   -0.6843    4.2470 H   0  0  0  0  0  0  0  0  0  0  0  0
    4.6619   -0.7414    2.2667 C   0  0  0  0  0  0  0  0  0  0  0  0
    5.4812   -0.1903    1.7831 H   0  0  0  0  0  0  0  0  0  0  0  0
   -0.8462    6.8692    0.5031 C   0  0  0  0  0  0  0  0  0  0  0  0
   -1.3669    7.8293    0.6368 H   0  0  0  0  0  0  0  0  0  0  0  0
   -4.0148    0.7322   -0.0582 N   0  0  0  0  0  0  0  0  0  0  0  0
  -10.8481    0.1360    0.1781 C   0  0  0  0  0  0  0  0  0  0  0  0
  -11.5274    0.9939    0.2926 H   0  0  0  0  0  0  0  0  0  0  0  0
   -0.1849   -2.6394   -0.1625 N   0  0  0  0  0  0  0  0  0  0  0  0
    0.7490   -2.1779   -1.0129 N   0  0  0  0  0  2  0  0  0  0  0  0
    1.7909   -1.8825   -0.2814 N   0  0  0  0  0  2  0  0  0  0  0  0
    3.6459   -1.1165    1.4606 N   0  0  0  0  0  2  0  0  0  0  0  0
  1  2  1  0  0  0  0
  1 43  1  0  0  0  0
  3 43  2  0  0  0  0
  3  4  1  0  0  0  0
  5  3  1  0  0  0  0
  6  8  1  0  0  0  0
  6  5  2  0  0  0  0
  7  6  1  0  0  0  0
  8  1  2  0  0  0  0
  9  8  1  0  0  0  0
 10  9  3  0  0  0  0
 11 45  1  0  0  0  0
 11 10  1  0  0  0  0
 12 11  2  0  0  0  0
 13 12  1  0  0  0  0
 14 15  2  0  0  0  0
 14 12  1  0  0  0  0
 15 17  1  0  0  0  0
 16 15  1  0  0  0  0
 17 18  1  0  0  0  0
 17 45  2  0  0  0  0
 18 19  3  0  0  0  0
 19 20  1  0  0  0  0
 20 26  1  0  0  0  0
 21 23  1  0  0  0  0
 21 20  2  0  0  0  0
 22 21  1  0  0  0  0
 23 24  2  0  0  0  0
 24 25  1  0  0  0  0
 24 46  1  0  0  0  0
 26 46  2  0  0  0  0
 26 27  1  0  0  0  0
 28 14  1  0  0  0  0
 28 48  1  0  0  0  0
 28 29  1  0  0  0  0
 30 28  1  0  0  0  0
 31 32  1  0  0  0  0
 33 31  2  0  0  0  0
 34 33  1  1  0  0  0
 34 35  1  0  0  0  0
 35 36  1  0  0  0  0
 35 37  2  0  0  0  0
 37 38  1  0  0  0  0
 39 37  1  0  0  0  0
 39 40  1  0  0  0  0
 41 39  2  0  0  0  0
 42 41  1  0  0  0  0
 43 44  1  0  0  0  0
 46 47  1  0  0  0  0
 48 31  1  0  0  0  0
 49 50  1  0  0  0  0
 49 48  1  0  0  0  0
 50 33  1  0  0  0  0
 51 34  1  0  0  0  0
 51 41  1  0  0  0  0
M  END
