1,2
q = 0.0, confidence = 1.0

 46 49  0  0  0  0  0  0  0  0999 V2000
   -1.2146    0.8721   -0.1918 N   0  0  0  0  0  2  0  0  0  0  0  0
    1.2895    0.3134   -0.6862 N   0  0  0  0  0  2  0  0  0  0  0  0
   -1.1495    3.0807   -1.3542 C   0  0  0  0  0  0  0  0  0  0  0  0
   -0.7769    3.9488   -0.7701 H   0  0  0  0  0  0  0  0  0  0  0  0
   -2.2511    3.0670   -1.2711 H   0  0  0  0  0  0  0  0  0  0  0  0
   -0.8655    3.2621   -2.4098 H   0  0  0  0  0  0  0  0  0  0  0  0
   -0.5559    1.7929   -0.8555 C   0  0  0  0  0  0  0  0  0  0  0  0
    0.8566    1.4799   -1.1332 C   0  0  0  0  0  0  0  0  0  0  0  0
    1.7169    2.4585   -1.8780 C   0  0  0  0  0  0  0  0  0  0  0  0
    2.7751    2.1436   -1.8847 H   0  0  0  0  0  0  0  0  0  0  0  0
    1.6478    3.4681   -1.4248 H   0  0  0  0  0  0  0  0  0  0  0  0
    1.3809    2.5590   -2.9320 H   0  0  0  0  0  0  0  0  0  0  0  0
   -2.5543    1.0391    0.2138 C   0  0  0  0  0  0  0  0  0  0  0  0
   -2.8920    2.0145    1.1527 C   0  0  0  0  0  0  0  0  0  0  0  0
   -2.1019    2.6672    1.5522 H   0  0  0  0  0  0  0  0  0  0  0  0
   -4.2217    2.1286    1.6253 C   0  0  0  0  0  0  0  0  0  0  0  0
   -4.4605    2.8918    2.3811 H   0  0  0  0  0  0  0  0  0  0  0  0
   -5.2115    1.2836    1.1465 C   0  0  0  0  0  0  0  0  0  0  0  0
   -6.2468    1.3717    1.5097 H   0  0  0  0  0  0  0  0  0  0  0  0
   -4.9062    0.2806    0.1807 C   0  0  0  0  0  0  0  0  0  0  0  0
   -5.9063   -0.5947   -0.3365 C   0  0  0  0  0  0  0  0  0  0  0  0
   -6.9396   -0.4859    0.0283 H   0  0  0  0  0  0  0  0  0  0  0  0
   -5.5895   -1.5626   -1.2772 C   0  0  0  0  0  0  0  0  0  0  0  0
   -6.3725   -2.2324   -1.6640 H   0  0  0  0  0  0  0  0  0  0  0  0
   -4.2539   -1.6983   -1.7402 C   0  0  0  0  0  0  0  0  0  0  0  0
   -4.0074   -2.4787   -2.4757 H   0  0  0  0  0  0  0  0  0  0  0  0
   -3.2556   -0.8647   -1.2588 C   0  0  0  0  0  0  0  0  0  0  0  0
   -2.2171   -0.9823   -1.5997 H   0  0  0  0  0  0  0  0  0  0  0  0
   -3.5522    0.1382   -0.2932 C   0  0  0  0  0  0  0  0  0  0  0  0
    2.6404   -0.0798   -0.9127 C   0  0  0  0  0  0  0  0  0  0  0  0
    2.9731   -0.7826   -2.0651 C   0  0  0  0  0  0  0  0  0  0  0  0
    2.1833   -1.0152   -2.7939 H   0  0  0  0  0  0  0  0  0  0  0  0
    4.3095   -1.2026   -2.2859 C   0  0  0  0  0  0  0  0  0  0  0  0
    4.5532   -1.7572   -3.2042 H   0  0  0  0  0  0  0  0  0  0  0  0
    5.2980   -0.9209   -1.3558 C   0  0  0  0  0  0  0  0  0  0  0  0
    6.3360   -1.2450   -1.5257 H   0  0  0  0  0  0  0  0  0  0  0  0
    4.9869   -0.2138   -0.1577 C   0  0  0  0  0  0  0  0  0  0  0  0
    5.9788    0.0855    0.8227 C   0  0  0  0  0  0  0  0  0  0  0  0
    7.0144   -0.2400    0.6383 H   0  0  0  0  0  0  0  0  0  0  0  0
    5.6515    0.7653    1.9858 C   0  0  0  0  0  0  0  0  0  0  0  0
    6.4286    0.9838    2.7337 H   0  0  0  0  0  0  0  0  0  0  0  0
    4.3111    1.1727    2.2227 C   0  0  0  0  0  0  0  0  0  0  0  0
    4.0564    1.6949    3.1571 H   0  0  0  0  0  0  0  0  0  0  0  0
    3.3200    0.9047    1.2901 C   0  0  0  0  0  0  0  0  0  0  0  0
    2.2777    1.1963    1.4855 H   0  0  0  0  0  0  0  0  0  0  0  0
    3.6302    0.2146    0.0821 C   0  0  0  0  0  0  0  0  0  0  0  0
  1 13  1  0  0  0  0
  3  5  1  0  0  0  0
  3  7  1  0  0  0  0
  3  4  1  0  0  0  0
  6  3  1  0  0  0  0
  7  1  1  0  0  0  0
  8  7  2  0  0  0  0
  8  2  1  0  0  0  0
  9 11  1  0  0  0  0
  9  8  1  0  0  0  0
 10  9  1  0  0  0  0
 12  9  1  0  0  0  0
 13 14  1  0  0  0  0
 14 15  1  0  0  0  0
 14 16  2  0  0  0  0
 16 17  1  0  0  0  0
 18 19  1  0  0  0  0
 18 16  1  0  0  0  0
 20 18  2  0  0  0  0
 21 22  1  0  0  0  0
 21 20  1  0  0  0  0
 23 21  2  0  0  0  0
 24 23  1  0  0  0  0
 25 23  1  0  0  0  0
 25 27  2  0  0  0  0
 26 25  1  0  0  0  0
 27 29  1  0  0  0  0
 28 27  1  0  0  0  0
 29 20  1  0  0  0  0
 29 13  2  0  0  0  0
 30  2  1  0  0  0  0
 30 46  1  0  0  0  0
 31 30  2  0  0  0  0
 32 31  1  0  0  0  0
 33 31  1  0  0  0  0
 33 35  2  0  0  0  0
 34 33  1  0  0  0  0
 35 37  1  0  0  0  0
 36 35  1  0  0  0  0
 37 46  2  0  0  0  0
 37 38  1  0  0  0  0
 38 40  2  0  0  0  0
 39 38  1  0  0  0  0
 40 42  1  0  0  0  0
 40 41  1  0  0  0  0
 42 43  1  0  0  0  0
 44 45  1  0  0  0  0
 44 42  2  0  0  0  0
 46 44  1  0  0  0  0
M  END
