1,2
q = -1.0, confidence = 0.0

 25 27  0  0  0  0  0  0  0  0999 V2000
    1.7070   -0.5854   -1.2261 N   0  0  0  0  0  0  0  0  0  0  0  0
    1.7284    0.4374    1.3883 N   0  0  0  0  0  0  0  0  0  0  0  0
    1.4296   -1.2172   -2.3840 C   0  0  0  0  0  0  0  0  0  0  0  0
    0.4001   -1.3142   -2.7418 H   0  0  0  0  0  0  0  0  0  0  0  0
    2.6145   -1.7148   -2.9944 C   0  0  0  0  0  0  0  0  0  0  0  0
    2.6654   -2.2683   -3.9389 H   0  0  0  0  0  0  0  0  0  0  0  0
    3.6646   -1.3755   -2.1484 C   0  0  0  0  0  0  0  0  0  0  0  0
    4.7259   -1.6144   -2.2686 H   0  0  0  0  0  0  0  0  0  0  0  0
    3.0902   -0.6639   -1.0378 C   0  0  0  0  0  3  0  0  0  0  0  0
    3.7684   -0.1449    0.0906 C   0  0  0  0  0  3  0  0  0  0  0  0
    3.1154    0.4211    1.2117 C   0  0  0  0  0  0  0  0  0  0  0  0
    3.7293    1.0796    2.3336 C   0  0  0  0  0  0  0  0  0  0  0  0
    4.8039    1.2455    2.4573 H   0  0  0  0  0  0  0  0  0  0  0  0
    2.6990    1.4796    3.1775 C   0  0  0  0  0  0  0  0  0  0  0  0
    2.7801    2.0175    4.1289 H   0  0  0  0  0  0  0  0  0  0  0  0
    1.4869    1.0733    2.5521 C   0  0  0  0  0  3  0  0  0  0  0  0
    0.4641    1.2411    2.9026 H   0  0  0  0  0  0  0  0  0  0  0  0
    6.1885    0.4680   -1.2018 S   0  0  0  0  0  0  0  0  0  0  0  0
    5.2402   -0.1871    0.1174 C   0  0  0  0  0  0  0  0  0  0  0  0
    6.0767   -0.6643    1.1216 C   0  0  0  0  0  0  0  0  0  0  0  0
    5.6848   -1.1320    2.0344 H   0  0  0  0  0  0  0  0  0  0  0  0
    7.4609   -0.5117    0.8214 C   0  0  0  0  0  0  0  0  0  0  0  0
    8.2748   -0.8413    1.4816 H   0  0  0  0  0  0  0  0  0  0  0  0
    7.6741    0.0987   -0.4022 C   0  0  0  0  0  0  0  0  0  0  0  0
    8.6291    0.3503   -0.8797 H   0  0  0  0  0  0  0  0  0  0  0  0
  1  9  1  0  0  0  0
  2 16  1  0  0  0  0
  3  1  2  0  0  0  0
  4  3  1  0  0  0  0
  5  3  1  0  0  0  0
  5  7  2  0  0  0  0
  6  5  1  0  0  0  0
  7  9  1  0  0  0  0
  8  7  1  0  0  0  0
  9 10  1  0  0  0  0
 10 19  1  0  0  0  0
 10 11  1  0  0  0  0
 11  2  2  0  0  0  0
 11 12  1  0  0  0  0
 12 13  1  0  0  0  0
 12 14  2  0  0  0  0
 14 15  1  0  0  0  0
 16 17  1  0  0  0  0
 16 14  1  0  0  0  0
 18 24  1  0  0  0  0
 18 19  1  0  0  0  0
 19 20  2  0  0  0  0
 20 21  1  0  0  0  0
 22 20  1  0  0  0  0
 22 23  1  0  0  0  0
 24 22  2  0  0  0  0
 25 24  1  0  0  0  0
M  END
