1,2
q = 0.0, confidence = 1.0

 44 44  0  0  0  0  0  0  0  0999 V2000
   -0.7536    0.8551    0.2692 N   0  0  0  0  0  2  0  0  0  0  0  0
    1.8546    1.0697   -0.0559 N   0  0  0  0  0  0  0  0  0  0  0  0
   -0.2195    1.8633    0.8994 C   0  0  0  0  0  3  0  0  0  0  0  0
   -0.8511    2.6347    1.3794 H   0  0  0  0  0  0  0  0  0  0  0  0
    1.2774    1.8880    1.0887 C   0  0  0  0  0  0  0  0  0  0  0  0
    1.7753    3.3426    1.1910 C   0  0  0  0  0  0  0  0  0  0  0  0
    1.3822    3.9826    0.3806 H   0  0  0  0  0  0  0  0  0  0  0  0
    2.8809    3.3933    1.1815 H   0  0  0  0  0  0  0  0  0  0  0  0
    1.4329    3.7739    2.1522 H   0  0  0  0  0  0  0  0  0  0  0  0
    1.5610    1.1632    2.4276 C   0  0  0  0  0  0  0  0  0  0  0  0
    0.9167    1.5903    3.2206 H   0  0  0  0  0  0  0  0  0  0  0  0
    2.6134    1.2975    2.7434 H   0  0  0  0  0  0  0  0  0  0  0  0
    1.3446    0.0799    2.3322 H   0  0  0  0  0  0  0  0  0  0  0  0
    1.6455    1.6697   -1.4155 C   0  0  0  0  0  0  0  0  0  0  0  0
    0.5838    1.9618   -1.4864 H   0  0  0  0  0  0  0  0  0  0  0  0
    1.7716    0.8307   -2.1274 H   0  0  0  0  0  0  0  0  0  0  0  0
    3.2794    0.6881    0.1727 C   0  0  0  0  0  0  0  0  0  0  0  0
    3.2874   -0.0127    1.0273 H   0  0  0  0  0  0  0  0  0  0  0  0
    3.8567    1.5960    0.4615 H   0  0  0  0  0  0  0  0  0  0  0  0
    2.5354    2.8390   -1.8575 C   0  0  0  0  0  0  0  0  0  0  0  0
    2.2629    3.8015   -1.3895 H   0  0  0  0  0  0  0  0  0  0  0  0
    2.4167    2.9638   -2.9525 H   0  0  0  0  0  0  0  0  0  0  0  0
    3.6107    2.6624   -1.6667 H   0  0  0  0  0  0  0  0  0  0  0  0
    3.9561   -0.0124   -1.0005 C   0  0  0  0  0  0  0  0  0  0  0  0
    3.3679   -0.8964   -1.3126 H   0  0  0  0  0  0  0  0  0  0  0  0
    4.9420   -0.3838   -0.6582 H   0  0  0  0  0  0  0  0  0  0  0  0
    4.1329    0.6441   -1.8733 H   0  0  0  0  0  0  0  0  0  0  0  0
   -2.1883    0.7730    0.2295 C   0  0  0  0  0  0  0  0  0  0  0  0
   -2.8660    1.2203   -0.9257 C   0  0  0  0  0  0  0  0  0  0  0  0
   -4.2702    1.1471   -0.9315 C   0  0  0  0  0  0  0  0  0  0  0  0
   -4.8166    1.4923   -1.8229 H   0  0  0  0  0  0  0  0  0  0  0  0
   -4.9690    0.6266    0.1656 C   0  0  0  0  0  0  0  0  0  0  0  0
   -6.0677    0.5709    0.1418 H   0  0  0  0  0  0  0  0  0  0  0  0
   -4.2680    0.1536    1.2830 C   0  0  0  0  0  0  0  0  0  0  0  0
   -4.8137   -0.2870    2.1317 H   0  0  0  0  0  0  0  0  0  0  0  0
   -2.8637    0.2098    1.3377 C   0  0  0  0  0  0  0  0  0  0  0  0
   -2.0924    1.7090   -2.1194 C   0  0  0  0  0  0  0  0  0  0  0  0
   -1.5207    2.6356   -1.8969 H   0  0  0  0  0  0  0  0  0  0  0  0
   -2.7631    1.9237   -2.9722 H   0  0  0  0  0  0  0  0  0  0  0  0
   -1.3620    0.9318   -2.4303 H   0  0  0  0  0  0  0  0  0  0  0  0
   -2.0935   -0.3777    2.4900 C   0  0  0  0  0  0  0  0  0  0  0  0
   -1.3819   -1.1453    2.1155 H   0  0  0  0  0  0  0  0  0  0  0  0
   -2.7737   -0.8556    3.2194 H   0  0  0  0  0  0  0  0  0  0  0  0
   -1.4932    0.3816    3.0333 H   0  0  0  0  0  0  0  0  0  0  0  0
  1  3  1  0  0  0  0
  2 17  1  0  0  0  0
  2  5  1  0  0  0  0
  3  5  1  0  0  0  0
  3  4  1  0  0  0  0
  5  6  1  0  0  0  0
  5 10  1  0  0  0  0
  6  9  1  0  0  0  0
  7  6  1  0  0  0  0
  8  6  1  0  0  0  0
 10 12  1  0  0  0  0
 10 11  1  0  0  0  0
 13 10  1  0  0  0  0
 14  2  1  0  0  0  0
 15 14  1  0  0  0  0
 16 14  1  0  0  0  0
 17 19  1  0  0  0  0
 17 18  1  0  0  0  0
 20 23  1  0  0  0  0
 20 14  1  0  0  0  0
 20 21  1  0  0  0  0
 22 20  1  0  0  0  0
 24 26  1  0  0  0  0
 24 17  1  0  0  0  0
 25 24  1  0  0  0  0
 27 24  1  0  0  0  0
 28  1  1  0  0  0  0
 28 36  1  0  0  0  0
 29 28  2  0  0  0  0
 30 29  1  0  0  0  0
 30 32  2  0  0  0  0
 31 30  1  0  0  0  0
 32 34  1  0  0  0  0
 33 32  1  0  0  0  0
 34 36  2  0  0  0  0
 34 35  1  0  0  0  0
 36 41  1  0  0  0  0
 37 38  1  0  0  0  0
 37 29  1  0  0  0  0
 39 37  1  0  0  0  0
 40 37  1  0  0  0  0
 41 44  1  0  0  0  0
 41 43  1  0  0  0  0
 42 41  1  0  0  0  0
M  END
