4,10
q = 0.0, confidence = 0.98

 21 22  0  0  1  0  0  0  0  0999 V2000
    2.3458   -1.8574    2.1716 N   0  0  0  0  0  0  0  0  0  0  0  0
    2.9000   -2.5831    2.6246 H   0  0  0  0  0  0  0  0  0  0  0  0
    1.3224   -1.9862    2.0412 H   0  0  0  0  0  0  0  0  0  0  0  0
    2.1862   -0.2285    0.5428 N   0  0  0  0  0  2  0  0  0  0  0  0
    6.1942   -0.3175    0.0841 N   0  0  0  0  0  0  0  0  0  0  0  0
    6.7494   -0.9448    0.6614 H   0  0  0  0  0  0  0  0  0  0  0  0
    6.6134    0.1913   -0.6907 H   0  0  0  0  0  0  0  0  0  0  0  0
    4.1411    0.4250   -0.6764 N   0  0  0  0  0  0  0  0  0  0  0  0
    4.3167   -1.1216    1.1655 N   0  0  0  0  0  0  0  0  0  0  0  0
    0.6120    0.9014   -1.3077 N   0  0  0  0  0  2  0  0  0  0  0  0
    1.6080    2.9243   -2.9956 N   0  0  0  0  0  0  0  0  0  0  0  0
    2.4101    2.2382   -2.1765 C   0  0  0  0  0  0  0  0  0  0  0  0
    3.4867    2.4755   -2.1658 H   0  0  0  0  0  0  0  0  0  0  0  0
    1.9395    1.2201   -1.3209 C   0  0  2  0  0  3  0  0  0  0  0  0
    2.8227    0.4326   -0.4433 C   0  0  1  0  0  3  0  0  0  0  0  0
    4.8435   -0.3387    0.2006 C   0  0  0  0  0  0  0  0  0  0  0  0
    2.9778   -1.0731    1.2766 C   0  0  0  0  0  0  0  0  0  0  0  0
   -0.2039    1.5935   -2.1238 C   0  0  0  0  0  0  0  0  0  0  0  0
   -1.2684    1.3130   -2.0918 H   0  0  0  0  0  0  0  0  0  0  0  0
    0.3014    2.5899   -2.9690 C   0  0  0  0  0  0  0  0  0  0  0  0
   -0.3750    3.1262   -3.6558 H   0  0  0  0  0  0  0  0  0  0  0  0
  1  2  1  0  0  0  0
  3  1  1  0  0  0  0
  4 17  1  0  0  0  0
  5 16  1  0  0  0  0
  5  6  1  0  0  0  0
  7  5  1  0  0  0  0
  8 16  2  0  0  0  0
  9 17  2  0  0  0  0
 11 20  1  0  0  0  0
 11 12  2  0  0  0  0
 12 13  1  0  0  0  0
 14 12  1  6  0  0  0
 14 10  1  0  0  0  0
 14 15  1  0  0  0  0
 15  8  1  6  0  0  0
 15  4  1  0  0  0  0
 16  9  1  0  0  0  0
 17  1  1  0  0  0  0
 18 19  1  0  0  0  0
 18 10  1  0  0  0  0
 20 18  2  0  0  0  0
 21 20  1  0  0  0  0
M  END
