1,2
q = 0.0, confidence = 0.996

 40 42  0  0  1  0  0  0  0  0999 V2000
    0.2059   -1.2858    0.9007 N   0  0  0  0  0  2  0  0  0  0  0  0
   -0.7521    1.3076    0.5898 N   0  0  0  0  0  2  0  0  0  0  0  0
   -1.1194   -2.6651    2.0769 O   0  0  0  0  0  0  0  0  0  0  0  0
   -2.8299    2.1031    0.8731 O   0  0  0  0  0  0  0  0  0  0  0  0
    3.3709   -2.9806    2.3345 C   0  0  0  0  0  0  0  0  0  0  0  0
    3.7091   -2.1340    2.9658 H   0  0  0  0  0  0  0  0  0  0  0  0
    4.2679   -3.4245    1.8612 H   0  0  0  0  0  0  0  0  0  0  0  0
    2.9393   -3.7532    3.0045 H   0  0  0  0  0  0  0  0  0  0  0  0
    2.3738   -2.5042    1.2783 C   0  0  0  0  0  0  0  0  0  0  0  0
    2.8448   -1.7289    0.6421 H   0  0  0  0  0  0  0  0  0  0  0  0
    2.0661   -3.3437    0.6177 H   0  0  0  0  0  0  0  0  0  0  0  0
    1.1248   -1.8825    1.9027 C   0  0  2  0  0  0  0  0  0  0  0  0
    1.4511   -1.0516    2.5640 H   0  0  0  0  0  0  0  0  0  0  0  0
    0.2085   -2.8922    2.6359 C   0  0  0  0  0  0  0  0  0  0  0  0
    0.4806   -3.9485    2.4317 H   0  0  0  0  0  0  0  0  0  0  0  0
    0.1412   -2.7397    3.7291 H   0  0  0  0  0  0  0  0  0  0  0  0
   -0.9909   -1.7526    1.1012 C   0  0  0  0  0  0  0  0  0  0  0  0
   -2.2365   -1.4586    0.3564 C   0  0  0  0  0  0  0  0  0  0  0  0
   -3.0189   -2.5696   -0.0191 C   0  0  0  0  0  0  0  0  0  0  0  0
   -2.6614   -3.5779    0.2332 H   0  0  0  0  0  0  0  0  0  0  0  0
   -4.2349   -2.4032   -0.6951 C   0  0  0  0  0  0  0  0  0  0  0  0
   -4.8200   -3.2862   -0.9913 H   0  0  0  0  0  0  0  0  0  0  0  0
   -4.7110   -1.1126   -0.9679 C   0  0  0  0  0  0  0  0  0  0  0  0
   -5.6738   -0.9715   -1.4803 H   0  0  0  0  0  0  0  0  0  0  0  0
   -3.9665    0.0020   -0.5637 C   0  0  0  0  0  0  0  0  0  0  0  0
   -4.3491    1.0175   -0.7369 H   0  0  0  0  0  0  0  0  0  0  0  0
   -2.7196   -0.1491    0.0808 C   0  0  0  0  0  0  0  0  0  0  0  0
   -2.0331    1.0783    0.5164 C   0  0  0  0  0  0  0  0  0  0  0  0
   -1.9480    3.2535    1.0640 C   0  0  0  0  0  0  0  0  0  0  0  0
   -2.3291    3.8321    1.9248 H   0  0  0  0  0  0  0  0  0  0  0  0
   -2.0038    3.8723    0.1436 H   0  0  0  0  0  0  0  0  0  0  0  0
   -0.5748    2.6046    1.2991 C   0  0  1  0  0  0  0  0  0  0  0  0
    0.2568    3.1646    0.8294 H   0  0  0  0  0  0  0  0  0  0  0  0
   -0.2698    2.3670    2.7877 C   0  0  0  0  0  0  0  0  0  0  0  0
    0.5497    1.6248    2.8406 H   0  0  0  0  0  0  0  0  0  0  0  0
   -1.1683    1.9121    3.2606 H   0  0  0  0  0  0  0  0  0  0  0  0
    0.1422    3.6484    3.5096 C   0  0  0  0  0  0  0  0  0  0  0  0
    1.0841    4.0522    3.0857 H   0  0  0  0  0  0  0  0  0  0  0  0
    0.3175    3.4546    4.5855 H   0  0  0  0  0  0  0  0  0  0  0  0
   -0.6294    4.4438    3.4431 H   0  0  0  0  0  0  0  0  0  0  0  0
  1 17  1  0  0  0  0
  1 12  1  0  0  0  0
  2 32  1  0  0  0  0
  3 14  1  0  0  0  0
  4 29  1  0  0  0  0
  5  6  1  0  0  0  0
  5  8  1  0  0  0  0
  7  5  1  0  0  0  0
  9 12  1  0  0  0  0
  9  5  1  0  0  0  0
 10  9  1  0  0  0  0
 11  9  1  0  0  0  0
 12 13  1  1  0  0  0
 12 14  1  0  0  0  0
 14 16  1  0  0  0  0
 15 14  1  0  0  0  0
 17  3  1  0  0  0  0
 18 17  2  0  0  0  0
 19 20  1  0  0  0  0
 19 18  1  0  0  0  0
 21 19  2  0  0  0  0
 22 21  1  0  0  0  0
 23 21  1  0  0  0  0
 23 25  2  0  0  0  0
 24 23  1  0  0  0  0
 25 27  1  0  0  0  0
 26 25  1  0  0  0  0
 27 18  1  0  0  0  0
 27 28  2  0  0  0  0
 28  2  1  0  0  0  0
 28  4  1  0  0  0  0
 29 32  1  0  0  0  0
 29 30  1  0  0  0  0
 31 29  1  0  0  0  0
 32 33  1  6  0  0  0
 32 34  1  0  0  0  0
 34 35  1  0  0  0  0
 34 36  1  0  0  0  0
 34 37  1  0  0  0  0
 37 39  1  0  0  0  0
 38 37  1  0  0  0  0
 40 37  1  0  0  0  0
M  END
