4,6
q = 0.0, confidence = 0.968

 22 22  0  0  0  0  0  0  0  0999 V2000
   -4.1296   -0.5033   -1.6094 O   0  0  0  0  0  0  0  0  0  0  0  0
   -4.5539   -2.5265    0.8202 O   0  0  0  0  0  0  0  0  0  0  0  0
   -2.4955   -2.7197    1.7966 O   0  0  0  0  0  0  0  0  0  0  0  0
   -1.8558    0.2086   -1.5424 N   0  0  0  0  0  2  0  0  0  0  0  0
   -1.9583    0.7673   -2.3967 H   0  0  0  0  0  0  0  0  0  0  0  0
   -1.3215   -1.1929    0.4828 N   0  0  0  0  0  2  0  0  0  0  0  0
   -4.3820    0.2722   -2.7763 C   0  0  0  0  0  0  0  0  0  0  0  0
   -5.4462    0.1161   -3.0254 H   0  0  0  0  0  0  0  0  0  0  0  0
   -3.7520   -0.0643   -3.6286 H   0  0  0  0  0  0  0  0  0  0  0  0
   -4.2026    1.3538   -2.5892 H   0  0  0  0  0  0  0  0  0  0  0  0
   -2.8926   -0.4697   -1.0988 C   0  0  0  0  0  0  0  0  0  0  0  0
   -2.5965   -1.2676    0.0644 C   0  0  0  0  0  0  0  0  0  0  0  0
   -3.3891   -2.2056    0.8676 C   0  0  0  0  0  0  0  0  0  0  0  0
   -1.1706   -2.1824    1.5837 C   0  0  0  0  0  0  0  0  0  0  0  0
   -0.2571   -3.3199    1.1252 C   0  0  0  0  0  0  0  0  0  0  0  0
   -0.5971   -3.7128    0.1488 H   0  0  0  0  0  0  0  0  0  0  0  0
   -0.2904   -4.1317    1.8762 H   0  0  0  0  0  0  0  0  0  0  0  0
    0.7840   -2.9651    1.0174 H   0  0  0  0  0  0  0  0  0  0  0  0
   -0.7106   -1.5280    2.8817 C   0  0  0  0  0  0  0  0  0  0  0  0
   -1.4295   -0.7496    3.1989 H   0  0  0  0  0  0  0  0  0  0  0  0
    0.2869   -1.0722    2.7487 H   0  0  0  0  0  0  0  0  0  0  0  0
   -0.6560   -2.2965    3.6758 H   0  0  0  0  0  0  0  0  0  0  0  0
  1 11  1  0  0  0  0
  2 13  2  0  0  0  0
  4 11  1  0  0  0  0
  5  4  1  0  0  0  0
  6 14  1  0  0  0  0
  7 10  1  0  0  0  0
  7  1  1  0  0  0  0
  8  7  1  0  0  0  0
  9  7  1  0  0  0  0
 11 12  2  0  0  0  0
 12  6  1  0  0  0  0
 12 13  1  0  0  0  0
 13  3  1  0  0  0  0
 14  3  1  0  0  0  0
 14 19  1  0  0  0  0
 15 14  1  0  0  0  0
 15 17  1  0  0  0  0
 16 15  1  0  0  0  0
 18 15  1  0  0  0  0
 19 20  1  0  0  0  0
 19 22  1  0  0  0  0
 21 19  1  0  0  0  0
M  END
