2,3
q = 0.0, confidence = 0.998

 27 29  0  0  0  0  0  0  0  0999 V2000
   -3.5946    0.0003    1.1030 N   0  0  0  0  0  0  0  0  0  0  0  0
   -1.7120   -0.0003   -0.1459 N   0  0  0  0  0  2  0  0  0  0  0  0
    0.0417    0.0004    1.7653 N   0  0  0  0  0  2  0  0  0  0  0  0
   -4.4973    0.0009    2.2402 C   0  0  0  0  0  0  0  0  0  0  0  0
   -2.7970   -0.0007   -1.0119 C   0  0  0  0  0  0  0  0  0  0  0  0
   -2.8546   -0.0013   -2.4206 C   0  0  0  0  0  0  0  0  0  0  0  0
   -4.1215   -0.0016   -3.0066 C   0  0  0  0  0  0  0  0  0  0  0  0
   -5.3054   -0.0012   -2.2244 C   0  0  0  0  0  0  0  0  0  0  0  0
   -5.2647   -0.0006   -0.8265 C   0  0  0  0  0  0  0  0  0  0  0  0
   -3.9917   -0.0003   -0.2310 C   0  0  0  0  0  0  0  0  0  0  0  0
   -2.2128    0.0003    1.1107 C   0  0  0  0  0  0  0  0  0  0  0  0
   -1.2688    0.0006    2.2103 C   0  0  0  0  0  0  0  0  0  0  0  0
   -1.5631    0.0011    3.5886 C   0  0  0  0  0  0  0  0  0  0  0  0
   -0.5241    0.0012    4.5233 C   0  0  0  0  0  0  0  0  0  0  0  0
    0.8021    0.0009    4.0600 C   0  0  0  0  0  0  0  0  0  0  0  0
    1.0381    0.0005    2.6853 C   0  0  0  0  0  0  0  0  0  0  0  0
    2.0611    0.0003    2.2832 H   0  0  0  0  0  0  0  0  0  0  0  0
   -1.9205   -0.0016   -3.0006 H   0  0  0  0  0  0  0  0  0  0  0  0
   -2.6033    0.0013    3.9310 H   0  0  0  0  0  0  0  0  0  0  0  0
    1.6535    0.0010    4.7546 H   0  0  0  0  0  0  0  0  0  0  0  0
   -4.3581   -0.9042    2.8644 H   0  0  0  0  0  0  0  0  0  0  0  0
   -6.1908   -0.0003   -0.2345 H   0  0  0  0  0  0  0  0  0  0  0  0
   -4.2067   -0.0021   -4.1030 H   0  0  0  0  0  0  0  0  0  0  0  0
   -6.2828   -0.0015   -2.7290 H   0  0  0  0  0  0  0  0  0  0  0  0
   -0.7468    0.0016    5.5997 H   0  0  0  0  0  0  0  0  0  0  0  0
   -5.5358    0.0011    1.8666 H   0  0  0  0  0  0  0  0  0  0  0  0
   -4.3575    0.9062    2.8639 H   0  0  0  0  0  0  0  0  0  0  0  0
  1 11  1  0  0  0  0
  1  4  1  0  0  0  0
  2 11  1  0  0  0  0
  3 12  1  0  0  0  0
  3 16  1  0  0  0  0
  4 27  1  0  0  0  0
  4 21  1  0  0  0  0
  5 10  1  0  0  0  0
  5  2  1  0  0  0  0
  6  5  2  0  0  0  0
  7  6  1  0  0  0  0
  7  8  2  0  0  0  0
  8  9  1  0  0  0  0
  9 22  1  0  0  0  0
  9 10  2  0  0  0  0
 10  1  1  0  0  0  0
 11 12  2  0  0  0  0
 12 13  1  0  0  0  0
 13 19  1  0  0  0  0
 13 14  2  0  0  0  0
 14 25  1  0  0  0  0
 15 14  1  0  0  0  0
 15 20  1  0  0  0  0
 16 15  2  0  0  0  0
 17 16  1  0  0  0  0
 18  6  1  0  0  0  0
 23  7  1  0  0  0  0
 24  8  1  0  0  0  0
 26  4  1  0  0  0  0
M  END
