3,6
q = 0.0, confidence = 0.996

 55 54  0  0  0  0  0  0  0  0999 V2000
   -0.0243    1.4329   -0.1593 P   0  0  0  0  0  0  0  0  0  0  0  0
   -0.0065    2.3711   -1.3504 O   0  0  0  0  0  0  0  0  0  0  0  0
    1.2130    0.2625    0.0281 N   0  0  0  0  0  2  0  0  0  0  0  0
    3.4001   -0.2726    0.6572 N   0  0  0  0  0  0  0  0  0  0  0  0
    3.0607    1.1177   -1.1936 N   0  0  0  0  0  0  0  0  0  0  0  0
   -1.2219    0.2055   -0.0440 N   0  0  0  0  0  2  0  0  0  0  0  0
   -3.3629   -0.4924    0.6068 N   0  0  0  0  0  0  0  0  0  0  0  0
   -3.1528    1.1482   -1.0472 N   0  0  0  0  0  0  0  0  0  0  0  0
   -0.0567    2.4606    1.4106 C   0  0  0  0  0  0  0  0  0  0  0  0
    1.3129    3.1661    1.4704 C   0  0  0  0  0  0  0  0  0  0  0  0
    1.5321    3.6895    0.5186 H   0  0  0  0  0  0  0  0  0  0  0  0
    2.1339    2.4493    1.6753 H   0  0  0  0  0  0  0  0  0  0  0  0
    1.3121    3.9164    2.2889 H   0  0  0  0  0  0  0  0  0  0  0  0
   -1.1767    3.5013    1.2268 C   0  0  0  0  0  0  0  0  0  0  0  0
   -1.0139    4.0984    0.3093 H   0  0  0  0  0  0  0  0  0  0  0  0
   -1.2031    4.1844    2.1020 H   0  0  0  0  0  0  0  0  0  0  0  0
   -2.1720    3.0166    1.1498 H   0  0  0  0  0  0  0  0  0  0  0  0
   -0.2952    1.6265    2.6731 C   0  0  0  0  0  0  0  0  0  0  0  0
   -1.3344    1.2494    2.7165 H   0  0  0  0  0  0  0  0  0  0  0  0
   -0.1301    2.2517    3.5760 H   0  0  0  0  0  0  0  0  0  0  0  0
    0.3823    0.7523    2.7280 H   0  0  0  0  0  0  0  0  0  0  0  0
    2.5303    0.3757   -0.1680 C   0  0  0  0  0  3  0  0  0  0  0  0
    2.9747   -0.7313    1.9726 C   0  0  0  0  0  0  0  0  0  0  0  0
    3.8475   -0.7119    2.6565 H   0  0  0  0  0  0  0  0  0  0  0  0
    2.5648   -1.7628    1.9016 H   0  0  0  0  0  0  0  0  0  0  0  0
    2.1887   -0.0630    2.3639 H   0  0  0  0  0  0  0  0  0  0  0  0
    4.5936   -0.9315    0.1376 C   0  0  0  0  0  0  0  0  0  0  0  0
    4.4827   -2.0256    0.2864 H   0  0  0  0  0  0  0  0  0  0  0  0
    5.5130   -0.5746    0.6492 H   0  0  0  0  0  0  0  0  0  0  0  0
    4.6853   -0.7519   -0.9471 H   0  0  0  0  0  0  0  0  0  0  0  0
    2.4166    1.1857   -2.5003 C   0  0  0  0  0  0  0  0  0  0  0  0
    3.1791    0.9856   -3.2841 H   0  0  0  0  0  0  0  0  0  0  0  0
    1.9377    2.1694   -2.6736 H   0  0  0  0  0  0  0  0  0  0  0  0
    1.6293    0.4133   -2.5596 H   0  0  0  0  0  0  0  0  0  0  0  0
    4.2873    1.8795   -1.0412 C   0  0  0  0  0  0  0  0  0  0  0  0
    4.1128    2.9279   -1.3673 H   0  0  0  0  0  0  0  0  0  0  0  0
    5.1241    1.4689   -1.6496 H   0  0  0  0  0  0  0  0  0  0  0  0
    4.5948    1.8875    0.0203 H   0  0  0  0  0  0  0  0  0  0  0  0
   -2.5490    0.2908   -0.1572 C   0  0  0  0  0  3  0  0  0  0  0  0
   -2.9036   -1.0846    1.8557 C   0  0  0  0  0  0  0  0  0  0  0  0
   -2.6128   -2.1438    1.6879 H   0  0  0  0  0  0  0  0  0  0  0  0
   -3.7187   -1.0199    2.6072 H   0  0  0  0  0  0  0  0  0  0  0  0
   -2.0147   -0.5444    2.2195 H   0  0  0  0  0  0  0  0  0  0  0  0
   -4.5525   -1.1206    0.0442 C   0  0  0  0  0  0  0  0  0  0  0  0
   -5.4603   -0.8825    0.6388 H   0  0  0  0  0  0  0  0  0  0  0  0
   -4.3928   -2.2194    0.0321 H   0  0  0  0  0  0  0  0  0  0  0  0
   -4.7027   -0.7919   -0.9983 H   0  0  0  0  0  0  0  0  0  0  0  0
   -2.5908    1.4088   -2.3666 C   0  0  0  0  0  0  0  0  0  0  0  0
   -2.1773    2.4337   -2.4459 H   0  0  0  0  0  0  0  0  0  0  0  0
   -3.3851    1.2608   -3.1308 H   0  0  0  0  0  0  0  0  0  0  0  0
   -1.7640    0.7038   -2.5597 H   0  0  0  0  0  0  0  0  0  0  0  0
   -4.3918    1.8366   -0.7323 C   0  0  0  0  0  0  0  0  0  0  0  0
   -5.2471    1.4817   -1.3503 H   0  0  0  0  0  0  0  0  0  0  0  0
   -4.2673    2.9255   -0.9194 H   0  0  0  0  0  0  0  0  0  0  0  0
   -4.6434    1.6883    0.3336 H   0  0  0  0  0  0  0  0  0  0  0  0
  1  6  1  0  0  0  0
  1  3  1  0  0  0  0
  1  9  1  0  0  0  0
  2  1  2  0  0  0  0
  4 23  1  0  0  0  0
  5 35  1  0  0  0  0
  5 22  1  0  0  0  0
  7 40  1  0  0  0  0
  8 52  1  0  0  0  0
  8 39  1  0  0  0  0
  9 10  1  0  0  0  0
  9 18  1  0  0  0  0
 10 12  1  0  0  0  0
 10 13  1  0  0  0  0
 11 10  1  0  0  0  0
 14  9  1  0  0  0  0
 14 16  1  0  0  0  0
 15 14  1  0  0  0  0
 17 14  1  0  0  0  0
 18 19  1  0  0  0  0
 18 21  1  0  0  0  0
 18 20  1  0  0  0  0
 22  3  1  0  0  0  0
 22  4  1  0  0  0  0
 23 26  1  0  0  0  0
 23 24  1  0  0  0  0
 25 23  1  0  0  0  0
 27 28  1  0  0  0  0
 27 29  1  0  0  0  0
 27  4  1  0  0  0  0
 30 27  1  0  0  0  0
 31  5  1  0  0  0  0
 32 31  1  0  0  0  0
 33 31  1  0  0  0  0
 34 31  1  0  0  0  0
 35 38  1  0  0  0  0
 36 35  1  0  0  0  0
 37 35  1  0  0  0  0
 39  6  1  0  0  0  0
 39  7  1  0  0  0  0
 40 43  1  0  0  0  0
 40 42  1  0  0  0  0
 41 40  1  0  0  0  0
 44  7  1  0  0  0  0
 44 45  1  0  0  0  0
 46 44  1  0  0  0  0
 47 44  1  0  0  0  0
 48  8  1  0  0  0  0
 49 48  1  0  0  0  0
 50 48  1  0  0  0  0
 51 48  1  0  0  0  0
 52 55  1  0  0  0  0
 53 52  1  0  0  0  0
 54 52  1  0  0  0  0
M  END
