1,2
q = 0.0, confidence = 0.994

 49 50  0  0  0  0  0  0  0  0999 V2000
   -1.3677    0.8990    0.2568 N   0  0  0  0  0  2  0  0  0  0  0  0
    1.4121    0.8374    0.3405 N   0  0  0  0  0  2  0  0  0  0  0  0
   -1.1905    2.1848    0.2092 C   0  0  0  0  0  3  0  0  0  0  0  0
   -2.0672    2.8455    0.3650 H   0  0  0  0  0  0  0  0  0  0  0  0
    0.1131    2.8661   -0.1470 C   0  0  0  0  0  0  0  0  0  0  0  0
    1.2832    2.1220    0.4440 C   0  0  0  0  0  3  0  0  0  0  0  0
    2.0768    2.7067    0.9496 H   0  0  0  0  0  0  0  0  0  0  0  0
    0.2486    2.8420   -1.6992 C   0  0  0  0  0  0  0  0  0  0  0  0
    0.2976    1.7936   -2.0570 H   0  0  0  0  0  0  0  0  0  0  0  0
    1.1739    3.3677   -2.0079 H   0  0  0  0  0  0  0  0  0  0  0  0
   -0.6179    3.3481   -2.1699 H   0  0  0  0  0  0  0  0  0  0  0  0
    0.0954    4.3143    0.3709 C   0  0  0  0  0  0  0  0  0  0  0  0
   -0.0072    4.3497    1.4742 H   0  0  0  0  0  0  0  0  0  0  0  0
   -0.7491    4.8777   -0.0726 H   0  0  0  0  0  0  0  0  0  0  0  0
    1.0320    4.8368    0.0933 H   0  0  0  0  0  0  0  0  0  0  0  0
   -2.7440    0.4975    0.4654 C   0  0  0  0  0  0  0  0  0  0  0  0
   -3.6317    0.5484   -0.6357 C   0  0  0  0  0  0  0  0  0  0  0  0
   -4.9738    0.1949   -0.4088 C   0  0  0  0  0  0  0  0  0  0  0  0
   -5.6765    0.2138   -1.2562 H   0  0  0  0  0  0  0  0  0  0  0  0
   -5.4157   -0.1917    0.8631 C   0  0  0  0  0  0  0  0  0  0  0  0
   -6.4700   -0.4644    1.0206 H   0  0  0  0  0  0  0  0  0  0  0  0
   -4.5102   -0.2479    1.9300 C   0  0  0  0  0  0  0  0  0  0  0  0
   -4.8489   -0.5687    2.9273 H   0  0  0  0  0  0  0  0  0  0  0  0
   -3.1553    0.0862    1.7511 C   0  0  0  0  0  0  0  0  0  0  0  0
   -3.1358    0.8997   -2.0135 C   0  0  0  0  0  0  0  0  0  0  0  0
   -3.9178    0.7136   -2.7730 H   0  0  0  0  0  0  0  0  0  0  0  0
   -2.2477    0.2820   -2.2654 H   0  0  0  0  0  0  0  0  0  0  0  0
   -2.8321    1.9644   -2.0998 H   0  0  0  0  0  0  0  0  0  0  0  0
   -2.1614   -0.0465    2.8702 C   0  0  0  0  0  0  0  0  0  0  0  0
   -1.5713    0.8805    3.0246 H   0  0  0  0  0  0  0  0  0  0  0  0
   -1.4404   -0.8534    2.6255 H   0  0  0  0  0  0  0  0  0  0  0  0
   -2.6609   -0.3018    3.8235 H   0  0  0  0  0  0  0  0  0  0  0  0
    2.6597    0.2614    0.7798 C   0  0  0  0  0  0  0  0  0  0  0  0
    3.8555    0.6194    0.1050 C   0  0  0  0  0  0  0  0  0  0  0  0
    5.0590    0.0563    0.5685 C   0  0  0  0  0  0  0  0  0  0  0  0
    5.9949    0.3102    0.0473 H   0  0  0  0  0  0  0  0  0  0  0  0
    5.0791   -0.8281    1.6536 C   0  0  0  0  0  0  0  0  0  0  0  0
    6.0322   -1.2573    1.9973 H   0  0  0  0  0  0  0  0  0  0  0  0
    3.8810   -1.1822    2.2862 C   0  0  0  0  0  0  0  0  0  0  0  0
    3.8878   -1.8910    3.1285 H   0  0  0  0  0  0  0  0  0  0  0  0
    2.6499   -0.6566    1.8565 C   0  0  0  0  0  0  0  0  0  0  0  0
    3.8521    1.5074   -1.1150 C   0  0  0  0  0  0  0  0  0  0  0  0
    4.8200    1.4323   -1.6456 H   0  0  0  0  0  0  0  0  0  0  0  0
    3.6954    2.5794   -0.8734 H   0  0  0  0  0  0  0  0  0  0  0  0
    3.0508    1.1887   -1.8128 H   0  0  0  0  0  0  0  0  0  0  0  0
    1.3604   -1.0758    2.5036 C   0  0  0  0  0  0  0  0  0  0  0  0
    1.5448   -1.7346    3.3731 H   0  0  0  0  0  0  0  0  0  0  0  0
    0.7237   -1.6309    1.7781 H   0  0  0  0  0  0  0  0  0  0  0  0
    0.7702   -0.2036    2.8478 H   0  0  0  0  0  0  0  0  0  0  0  0
  1 16  1  0  0  0  0
  2  6  1  0  0  0  0
  2 33  1  0  0  0  0
  3  1  1  0  0  0  0
  3  4  1  0  0  0  0
  5  3  1  0  0  0  0
  5 12  1  0  0  0  0
  5  6  1  0  0  0  0
  6  7  1  0  0  0  0
  8  5  1  0  0  0  0
  9  8  1  0  0  0  0
 10  8  1  0  0  0  0
 11  8  1  0  0  0  0
 12 13  1  0  0  0  0
 14 12  1  0  0  0  0
 15 12  1  0  0  0  0
 16 24  1  0  0  0  0
 17 18  1  0  0  0  0
 17 16  2  0  0  0  0
 18 20  2  0  0  0  0
 19 18  1  0  0  0  0
 20 21  1  0  0  0  0
 20 22  1  0  0  0  0
 22 23  1  0  0  0  0
 24 22  2  0  0  0  0
 24 29  1  0  0  0  0
 25 17  1  0  0  0  0
 26 25  1  0  0  0  0
 27 25  1  0  0  0  0
 28 25  1  0  0  0  0
 29 30  1  0  0  0  0
 29 32  1  0  0  0  0
 31 29  1  0  0  0  0
 33 41  1  0  0  0  0
 34 35  1  0  0  0  0
 34 33  2  0  0  0  0
 35 37  2  0  0  0  0
 36 35  1  0  0  0  0
 37 38  1  0  0  0  0
 37 39  1  0  0  0  0
 39 40  1  0  0  0  0
 41 39  2  0  0  0  0
 41 46  1  0  0  0  0
 42 44  1  0  0  0  0
 42 34  1  0  0  0  0
 43 42  1  0  0  0  0
 45 42  1  0  0  0  0
 46 49  1  0  0  0  0
 46 47  1  0  0  0  0
 48 46  1  0  0  0  0
M  END
