1,2
q = 0.0, confidence = 0.998

 42 44  0  0  1  0  0  0  0  0999 V2000
   -2.0341   -0.9838    0.0374 N   0  0  0  0  0  2  0  0  0  0  0  0
    2.0369   -0.9778    0.0379 N   0  0  0  0  0  2  0  0  0  0  0  0
   -2.9586   -1.5956    0.7951 C   0  0  0  0  0  3  0  0  0  0  0  0
   -2.5746   -2.4259    1.4136 H   0  0  0  0  0  0  0  0  0  0  0  0
   -2.3692    0.0684   -0.7354 C   0  0  0  0  0  0  0  0  0  0  0  0
    2.3692    0.0752   -0.7348 C   0  0  1  0  0  3  0  0  0  0  0  0
   -3.6859    0.5508   -0.7721 C   0  0  0  0  0  0  0  0  0  0  0  0
   -3.9320    1.4206   -1.3992 H   0  0  0  0  0  0  0  0  0  0  0  0
    3.6845    0.5613   -0.7715 C   0  0  0  0  0  0  0  0  0  0  0  0
    3.9283    1.4317   -1.3986 H   0  0  0  0  0  0  0  0  0  0  0  0
    2.9630   -1.5872    0.7956 C   0  0  0  0  0  0  0  0  0  0  0  0
    2.5813   -2.4184    1.4141 H   0  0  0  0  0  0  0  0  0  0  0  0
   -4.2965   -1.1799    0.8044 C   0  0  0  0  0  0  0  0  0  0  0  0
   -5.0311   -1.6999    1.4358 H   0  0  0  0  0  0  0  0  0  0  0  0
   -4.6636   -0.0883    0.0038 C   0  0  0  0  0  0  0  0  0  0  0  0
   -5.7038    0.2717   -0.0080 H   0  0  0  0  0  0  0  0  0  0  0  0
    4.2999   -1.1678    0.8049 C   0  0  0  0  0  0  0  0  0  0  0  0
    5.0358   -1.6858    1.4364 H   0  0  0  0  0  0  0  0  0  0  0  0
    4.6640   -0.0752    0.0043 C   0  0  0  0  0  0  0  0  0  0  0  0
    5.7031    0.2876   -0.0074 H   0  0  0  0  0  0  0  0  0  0  0  0
   -1.2443    0.6536   -1.5579 C   0  0  0  0  0  0  0  0  0  0  0  0
   -1.0755   -0.0405   -2.4138 H   0  0  0  0  0  0  0  0  0  0  0  0
   -1.5185    1.6586   -1.9450 H   0  0  0  0  0  0  0  0  0  0  0  0
    1.2428    0.6574   -1.5575 C   0  0  0  0  0  0  0  0  0  0  0  0
    1.5141    1.6633   -1.9442 H   0  0  0  0  0  0  0  0  0  0  0  0
    1.0763   -0.0369   -2.4137 H   0  0  0  0  0  0  0  0  0  0  0  0
   -0.0009    0.6505   -0.7760 N   0  0  0  0  0  0  0  0  0  0  0  0
   -0.0024    1.5568    0.3509 C   0  0  0  0  0  0  0  0  0  0  0  0
   -0.0045    2.9664    0.1487 C   0  0  0  0  0  0  0  0  0  0  0  0
   -0.0019    1.0566    1.6628 C   0  0  0  0  0  0  0  0  0  0  0  0
   -0.0004   -0.0342    1.8231 H   0  0  0  0  0  0  0  0  0  0  0  0
   -0.0060    3.8357    1.2557 C   0  0  0  0  0  0  0  0  0  0  0  0
   -0.0076    4.9242    1.1107 H   0  0  0  0  0  0  0  0  0  0  0  0
   -0.0055    3.3096    2.5581 C   0  0  0  0  0  0  0  0  0  0  0  0
   -0.0067    4.0004    3.4150 H   0  0  0  0  0  0  0  0  0  0  0  0
   -0.0034    1.9254    2.7661 C   0  0  0  0  0  0  0  0  0  0  0  0
   -0.0030    1.5114    3.7847 H   0  0  0  0  0  0  0  0  0  0  0  0
   -0.0065    4.7790   -1.4151 C   0  0  0  0  0  0  0  0  0  0  0  0
   -0.9115    5.2762   -1.0008 H   0  0  0  0  0  0  0  0  0  0  0  0
   -0.0063    4.8880   -2.5153 H   0  0  0  0  0  0  0  0  0  0  0  0
    0.8970    5.2785   -1.0002 H   0  0  0  0  0  0  0  0  0  0  0  0
   -0.0048    3.3869   -1.1521 O   0  0  0  0  0  0  0  0  0  0  0  0
  1  3  1  0  0  0  0
  2 11  1  0  0  0  0
  3 13  1  0  0  0  0
  3  4  1  0  0  0  0
  5  1  1  0  0  0  0
  6 24  1  6  0  0  0
  6  2  1  0  0  0  0
  7  5  2  0  0  0  0
  7 15  1  0  0  0  0
  8  7  1  0  0  0  0
  9  6  1  0  0  0  0
  9 19  2  0  0  0  0
 10  9  1  0  0  0  0
 11 17  2  0  0  0  0
 11 12  1  0  0  0  0
 13 14  1  0  0  0  0
 15 13  2  0  0  0  0
 16 15  1  0  0  0  0
 17 18  1  0  0  0  0
 19 17  1  0  0  0  0
 20 19  1  0  0  0  0
 21 27  1  0  0  0  0
 21  5  1  0  0  0  0
 22 21  1  0  0  0  0
 23 21  1  0  0  0  0
 24 27  1  0  0  0  0
 25 24  1  0  0  0  0
 26 24  1  0  0  0  0
 27 28  1  0  0  0  0
 28 30  1  0  0  0  0
 29 28  2  0  0  0  0
 29 32  1  0  0  0  0
 30 31  1  0  0  0  0
 30 36  2  0  0  0  0
 32 34  2  0  0  0  0
 33 32  1  0  0  0  0
 34 36  1  0  0  0  0
 34 35  1  0  0  0  0
 36 37  1  0  0  0  0
 38 42  1  0  0  0  0
 38 39  1  0  0  0  0
 38 41  1  0  0  0  0
 40 38  1  0  0  0  0
 42 29  1  0  0  0  0
M  END
