1,23
q = -1.0, confidence = 0.0

 40 43  0  0  1  0  0  0  0  0999 V2000
   -0.9815    1.3750   -1.1716 N   0  0  0  0  0  2  0  0  0  0  0  0
   -1.5489    1.6823   -2.3445 C   0  0  0  0  0  0  0  0  0  0  0  0
   -1.8855    0.7977   -2.9166 H   0  0  0  0  0  0  0  0  0  0  0  0
   -1.6980    3.0063   -2.7909 C   0  0  0  0  0  0  0  0  0  0  0  0
   -2.1715    3.2022   -3.7628 H   0  0  0  0  0  0  0  0  0  0  0  0
   -1.2885    4.0299   -1.9494 C   0  0  0  0  0  0  0  0  0  0  0  0
   -1.4448    5.0857   -2.2186 H   0  0  0  0  0  0  0  0  0  0  0  0
   -0.4332    2.3417   -0.3661 C   0  0  0  0  0  0  0  0  0  0  0  0
   -0.6463    3.7228   -0.7240 C   0  0  0  0  0  0  0  0  0  0  0  0
   -0.2073    4.7685    0.1506 C   0  0  0  0  0  0  0  0  0  0  0  0
   -0.4089    5.8112   -0.1358 H   0  0  0  0  0  0  0  0  0  0  0  0
    0.4531    4.4680    1.3113 C   0  0  0  0  0  0  0  0  0  0  0  0
    0.7860    5.2675    1.9896 H   0  0  0  0  0  0  0  0  0  0  0  0
    0.7865    3.1127    1.6467 C   0  0  0  0  0  0  0  0  0  0  0  0
    0.3589    2.0240    0.8059 C   0  0  0  0  0  0  0  0  0  0  0  0
    1.5926    2.8730    2.7897 C   0  0  0  0  0  0  0  0  0  0  0  0
    1.8911    3.7262    3.4158 H   0  0  0  0  0  0  0  0  0  0  0  0
    2.0148    1.5844    3.0906 C   0  0  0  0  0  0  0  0  0  0  0  0
    2.6458    1.3952    3.9716 H   0  0  0  0  0  0  0  0  0  0  0  0
    1.6373    0.5084    2.2732 C   0  0  0  0  0  0  0  0  0  0  0  0
    1.9669   -0.5057    2.5270 H   0  0  0  0  0  0  0  0  0  0  0  0
    0.8205    0.6924    1.1330 C   0  0  2  0  0  3  0  0  0  0  0  0
    0.4803   -0.3749    0.3118 N   0  0  0  0  0  2  0  0  0  0  0  0
    1.3890   -1.8731    0.3057 S   0  0  0  0  0  0  0  0  0  0  0  0
    0.6845   -2.6636   -0.7263 O   0  0  0  0  0  0  0  0  0  0  0  0
    1.5632   -2.4535    1.6656 O   0  0  0  0  0  0  0  0  0  0  0  0
    2.9594   -1.3195   -0.3095 C   0  0  0  0  0  0  0  0  0  0  0  0
    3.0147   -0.7862   -1.6105 C   0  0  0  0  0  0  0  0  0  0  0  0
    2.1022   -0.7083   -2.2196 H   0  0  0  0  0  0  0  0  0  0  0  0
    4.2518   -0.3679   -2.1063 C   0  0  0  0  0  0  0  0  0  0  0  0
    4.3108    0.0525   -3.1220 H   0  0  0  0  0  0  0  0  0  0  0  0
    5.4316   -0.4837   -1.3339 C   0  0  0  0  0  0  0  0  0  0  0  0
    5.3353   -1.0314   -0.0363 C   0  0  0  0  0  0  0  0  0  0  0  0
    6.2443   -1.1346    0.5757 H   0  0  0  0  0  0  0  0  0  0  0  0
    4.1064   -1.4515    0.4869 C   0  0  0  0  0  0  0  0  0  0  0  0
    4.0308   -1.8894    1.4922 H   0  0  0  0  0  0  0  0  0  0  0  0
    6.7591   -0.0614   -1.9002 C   0  0  0  0  0  0  0  0  0  0  0  0
    7.5131    0.1025   -1.1072 H   0  0  0  0  0  0  0  0  0  0  0  0
    6.6699    0.8652   -2.5009 H   0  0  0  0  0  0  0  0  0  0  0  0
    7.1567   -0.8469   -2.5784 H   0  0  0  0  0  0  0  0  0  0  0  0
  1  8  1  0  0  0  0
  2  1  1  0  0  0  0
  3  2  1  0  0  0  0
  4  2  2  0  0  0  0
  4  6  1  0  0  0  0
  5  4  1  0  0  0  0
  6  9  2  0  0  0  0
  7  6  1  0  0  0  0
  8 15  2  0  0  0  0
  9  8  1  0  0  0  0
  9 10  1  0  0  0  0
 10 12  2  0  0  0  0
 11 10  1  0  0  0  0
 12 14  1  0  0  0  0
 12 13  1  0  0  0  0
 14 16  2  0  0  0  0
 15 22  1  0  0  0  0
 15 14  1  0  0  0  0
 16 18  1  0  0  0  0
 16 17  1  0  0  0  0
 18 19  1  0  0  0  0
 20 21  1  0  0  0  0
 20 18  2  0  0  0  0
 22 23  1  6  0  0  0
 22 20  1  0  0  0  0
 24 23  1  0  0  0  0
 24 26  2  0  0  0  0
 25 24  2  0  0  0  0
 27 24  1  0  0  0  0
 27 35  1  0  0  0  0
 28 27  2  0  0  0  0
 29 28  1  0  0  0  0
 30 28  1  0  0  0  0
 30 32  2  0  0  0  0
 31 30  1  0  0  0  0
 32 33  1  0  0  0  0
 33 35  2  0  0  0  0
 33 34  1  0  0  0  0
 35 36  1  0  0  0  0
 37 32  1  0  0  0  0
 37 38  1  0  0  0  0
 39 37  1  0  0  0  0
 40 37  1  0  0  0  0
M  END
