1,2
q = -1.0, confidence = 0.002

 36 37  0  0  1  0  0  0  0  0999 V2000
    0.8709   -1.2429   -1.2375 N   0  0  0  0  0  2  0  0  0  0  0  0
   -1.6657    0.0408   -1.2392 N   0  0  0  0  0  2  0  0  0  0  0  0
    2.2674   -1.1975   -1.5593 C   0  0  0  0  0  0  0  0  0  0  0  0
    3.2250   -1.9608   -0.8614 C   0  0  0  0  0  0  0  0  0  0  0  0
    2.8890   -2.6213   -0.0520 H   0  0  0  0  0  0  0  0  0  0  0  0
    4.5850   -1.8786   -1.1958 C   0  0  0  0  0  0  0  0  0  0  0  0
    5.3175   -2.4789   -0.6344 H   0  0  0  0  0  0  0  0  0  0  0  0
    5.0108   -1.0384   -2.2363 C   0  0  0  0  0  0  0  0  0  0  0  0
    6.0786   -0.9677   -2.4922 H   0  0  0  0  0  0  0  0  0  0  0  0
    4.0581   -0.2982   -2.9549 C   0  0  0  0  0  0  0  0  0  0  0  0
    4.3749    0.3548   -3.7823 H   0  0  0  0  0  0  0  0  0  0  0  0
    2.6977   -0.3793   -2.6248 C   0  0  0  0  0  0  0  0  0  0  0  0
    1.9499    0.2090   -3.1716 H   0  0  0  0  0  0  0  0  0  0  0  0
    0.1701   -2.2657   -1.7503 C   0  0  1  0  0  3  0  0  0  0  0  0
   -1.2365   -2.2467   -1.8816 C   0  0  0  0  0  3  0  0  0  0  0  0
   -1.6927   -3.1449   -2.3181 H   0  0  0  0  0  0  0  0  0  0  0  0
   -2.0576   -1.1000   -1.8231 C   0  0  2  0  0  3  0  0  0  0  0  0
   -2.4817    1.2048   -1.4500 C   0  0  0  0  0  0  0  0  0  0  0  0
   -3.5611    1.4862   -0.5896 C   0  0  0  0  0  0  0  0  0  0  0  0
   -3.7583    0.8239    0.2642 H   0  0  0  0  0  0  0  0  0  0  0  0
   -4.3626    2.6112   -0.8224 C   0  0  0  0  0  0  0  0  0  0  0  0
   -5.2036    2.8240   -0.1450 H   0  0  0  0  0  0  0  0  0  0  0  0
   -4.0907    3.4676   -1.9021 C   0  0  0  0  0  0  0  0  0  0  0  0
   -4.7175    4.3553   -2.0756 H   0  0  0  0  0  0  0  0  0  0  0  0
   -3.0090    3.1909   -2.7526 C   0  0  0  0  0  0  0  0  0  0  0  0
   -2.7819    3.8616   -3.5952 H   0  0  0  0  0  0  0  0  0  0  0  0
   -2.2048    2.0637   -2.5292 C   0  0  0  0  0  0  0  0  0  0  0  0
   -1.3398    1.8465   -3.1713 H   0  0  0  0  0  0  0  0  0  0  0  0
    0.8866   -3.4682   -2.3287 C   0  0  0  0  0  0  0  0  0  0  0  0
    1.5446   -3.1646   -3.1681 H   0  0  0  0  0  0  0  0  0  0  0  0
    0.1649   -4.2181   -2.6988 H   0  0  0  0  0  0  0  0  0  0  0  0
    1.5447   -3.9440   -1.5754 H   0  0  0  0  0  0  0  0  0  0  0  0
   -3.4108   -1.1733   -2.4924 C   0  0  0  0  0  0  0  0  0  0  0  0
   -4.2153   -0.8821   -1.7884 H   0  0  0  0  0  0  0  0  0  0  0  0
   -3.6088   -2.1901   -2.8767 H   0  0  0  0  0  0  0  0  0  0  0  0
   -3.4634   -0.4573   -3.3373 H   0  0  0  0  0  0  0  0  0  0  0  0
  3  1  1  0  0  0  0
  3  4  1  0  0  0  0
  4  5  1  0  0  0  0
  6  4  2  0  0  0  0
  6  7  1  0  0  0  0
  8  6  1  0  0  0  0
  9  8  1  0  0  0  0
 10 12  1  0  0  0  0
 10  8  2  0  0  0  0
 11 10  1  0  0  0  0
 12  3  2  0  0  0  0
 13 12  1  0  0  0  0
 14 15  1  6  0  0  0
 14  1  1  0  0  0  0
 16 15  1  0  0  0  0
 17 15  1  6  0  0  0
 17  2  1  0  0  0  0
 18  2  1  0  0  0  0
 18 19  1  0  0  0  0
 19 20  1  0  0  0  0
 21 19  2  0  0  0  0
 21 22  1  0  0  0  0
 23 21  1  0  0  0  0
 24 23  1  0  0  0  0
 25 27  1  0  0  0  0
 25 23  2  0  0  0  0
 26 25  1  0  0  0  0
 27 18  2  0  0  0  0
 28 27  1  0  0  0  0
 29 14  1  0  0  0  0
 29 32  1  0  0  0  0
 30 29  1  0  0  0  0
 31 29  1  0  0  0  0
 33 17  1  0  0  0  0
 33 34  1  0  0  0  0
 35 33  1  0  0  0  0
 36 33  1  0  0  0  0
M  END
