11,29
q = 0.0, confidence = 1.0

 45 48  0  0  1  0  0  0  0  0999 V2000
    3.0484    1.1778   -0.2776 C   0  0  0  0  0  0  0  0  0  0  0  0
    4.3299    0.8899    0.2683 C   0  0  0  0  0  0  0  0  0  0  0  0
    5.5059    1.4661   -0.2355 C   0  0  0  0  0  0  0  0  0  0  0  0
    6.4944    1.2419    0.1898 H   0  0  0  0  0  0  0  0  0  0  0  0
    5.3563    2.3479   -1.3125 C   0  0  0  0  0  0  0  0  0  0  0  0
    6.2497    2.8256   -1.7404 H   0  0  0  0  0  0  0  0  0  0  0  0
    4.0849    2.6419   -1.8652 C   0  0  0  0  0  0  0  0  0  0  0  0
    4.0199    3.3430   -2.7099 H   0  0  0  0  0  0  0  0  0  0  0  0
    2.9157    2.0642   -1.3605 C   0  0  0  0  0  0  0  0  0  0  0  0
    1.9253    2.2899   -1.7827 H   0  0  0  0  0  0  0  0  0  0  0  0
    2.0887    0.4575    0.4309 N   0  0  0  0  0  2  0  0  0  0  0  0
    2.7353   -0.2405    1.3643 C   0  0  1  0  0  3  0  0  0  0  0  0
    4.0841   -0.0129    1.2968 N   0  0  0  0  0  0  0  0  0  0  0  0
    4.7840   -0.4254    1.9152 H   0  0  0  0  0  0  0  0  0  0  0  0
    2.1140   -1.1238    2.4053 C   0  0  0  0  0  0  0  0  0  0  0  0
    1.8466   -0.5255    3.3033 H   0  0  0  0  0  0  0  0  0  0  0  0
    2.8405   -1.8940    2.7385 H   0  0  0  0  0  0  0  0  0  0  0  0
    0.5480   -1.9230    1.9163 S   0  0  0  0  0  0  0  0  0  0  0  0
    1.1553   -3.0454    0.5932 C   0  0  0  0  0  0  0  0  0  0  0  0
    1.6569   -2.4332   -0.1863 H   0  0  0  0  0  0  0  0  0  0  0  0
    1.9065   -3.7309    1.0356 H   0  0  0  0  0  0  0  0  0  0  0  0
    0.0002   -3.8575   -0.0001 C   0  0  0  0  0  0  0  0  0  0  0  0
    0.4254   -4.5239   -0.7803 H   0  0  0  0  0  0  0  0  0  0  0  0
   -0.4250   -4.5240    0.7800 H   0  0  0  0  0  0  0  0  0  0  0  0
   -1.1551   -3.0455   -0.5933 C   0  0  0  0  0  0  0  0  0  0  0  0
   -0.5479   -1.9228   -1.9163 S   0  0  0  0  0  0  0  0  0  0  0  0
   -2.1140   -1.1239   -2.4052 C   0  0  0  0  0  0  0  0  0  0  0  0
   -2.7353   -0.2405   -1.3643 C   0  0  1  0  0  3  0  0  0  0  0  0
   -2.0888    0.4574   -0.4309 N   0  0  0  0  0  2  0  0  0  0  0  0
   -3.0485    1.1778    0.2776 C   0  0  0  0  0  0  0  0  0  0  0  0
   -4.3300    0.8898   -0.2683 C   0  0  0  0  0  0  0  0  0  0  0  0
   -5.5060    1.4660    0.2356 C   0  0  0  0  0  0  0  0  0  0  0  0
   -6.4945    1.2418   -0.1897 H   0  0  0  0  0  0  0  0  0  0  0  0
   -5.3564    2.3478    1.3125 C   0  0  0  0  0  0  0  0  0  0  0  0
   -6.2498    2.8255    1.7405 H   0  0  0  0  0  0  0  0  0  0  0  0
   -4.0850    2.6419    1.8652 C   0  0  0  0  0  0  0  0  0  0  0  0
   -4.0200    3.3430    2.7099 H   0  0  0  0  0  0  0  0  0  0  0  0
   -2.9158    2.0642    1.3605 C   0  0  0  0  0  0  0  0  0  0  0  0
   -1.9254    2.2900    1.7827 H   0  0  0  0  0  0  0  0  0  0  0  0
   -4.0841   -0.0130   -1.2967 N   0  0  0  0  0  0  0  0  0  0  0  0
   -4.7841   -0.4256   -1.9151 H   0  0  0  0  0  0  0  0  0  0  0  0
   -1.8466   -0.5255   -3.3033 H   0  0  0  0  0  0  0  0  0  0  0  0
   -2.8404   -1.8942   -2.7384 H   0  0  0  0  0  0  0  0  0  0  0  0
   -1.6568   -2.4335    0.1863 H   0  0  0  0  0  0  0  0  0  0  0  0
   -1.9062   -3.7311   -1.0358 H   0  0  0  0  0  0  0  0  0  0  0  0
  1  2  1  0  0  0  0
  1 11  1  0  0  0  0
  2 13  1  0  0  0  0
  3  4  1  0  0  0  0
  3  2  2  0  0  0  0
  5  3  1  0  0  0  0
  6  5  1  0  0  0  0
  7  9  1  0  0  0  0
  7  5  2  0  0  0  0
  8  7  1  0  0  0  0
  9  1  2  0  0  0  0
 10  9  1  0  0  0  0
 11 12  1  0  0  0  0
 12 15  1  1  0  0  0
 13 12  1  0  0  0  0
 13 14  1  0  0  0  0
 15 17  1  0  0  0  0
 15 16  1  0  0  0  0
 18 15  1  0  0  0  0
 19 21  1  0  0  0  0
 19 18  1  0  0  0  0
 20 19  1  0  0  0  0
 22 19  1  0  0  0  0
 22 24  1  0  0  0  0
 23 22  1  0  0  0  0
 25 22  1  0  0  0  0
 25 44  1  0  0  0  0
 26 25  1  0  0  0  0
 27 26  1  0  0  0  0
 28 27  1  6  0  0  0
 28 40  1  0  0  0  0
 28 29  1  0  0  0  0
 29 30  1  0  0  0  0
 30 38  1  0  0  0  0
 31 32  1  0  0  0  0
 31 30  2  0  0  0  0
 32 34  2  0  0  0  0
 33 32  1  0  0  0  0
 34 35  1  0  0  0  0
 34 36  1  0  0  0  0
 36 37  1  0  0  0  0
 38 39  1  0  0  0  0
 38 36  2  0  0  0  0
 40 31  1  0  0  0  0
 41 40  1  0  0  0  0
 42 27  1  0  0  0  0
 43 27  1  0  0  0  0
 45 25  1  0  0  0  0
M  END
