1,14
q = 0.0, confidence = 0.998

 26 27  0  0  0  0  0  0  0  0999 V2000
   -0.1709   -1.2765   -0.2024 N   0  0  0  0  0  2  0  0  0  0  0  0
   -0.3398   -2.6117   -0.3624 C   0  0  0  0  0  0  0  0  0  0  0  0
    0.7304   -3.4960   -0.2725 C   0  0  0  0  0  0  0  0  0  0  0  0
    1.9867   -2.9954    0.0904 C   0  0  0  0  0  0  0  0  0  0  0  0
    2.1700   -1.6135    0.2663 C   0  0  0  0  0  0  0  0  0  0  0  0
    1.0793   -0.7383    0.0085 C   0  0  0  0  0  0  0  0  0  0  0  0
    3.4462   -1.1490    0.8994 C   0  0  0  0  0  0  0  0  0  0  0  0
    4.4360   -2.0630    0.7755 O   0  0  0  0  0  0  0  0  0  0  0  0
    3.5900   -0.1123    1.5252 O   0  0  0  0  0  0  0  0  0  0  0  0
   -1.3859   -2.9187   -0.5359 H   0  0  0  0  0  0  0  0  0  0  0  0
    0.5638   -4.5706   -0.4298 H   0  0  0  0  0  0  0  0  0  0  0  0
    2.8342   -3.6685    0.2735 H   0  0  0  0  0  0  0  0  0  0  0  0
    5.1942   -1.6935    1.2779 H   0  0  0  0  0  0  0  0  0  0  0  0
   -0.1709    1.2764    0.2025 N   0  0  0  0  0  2  0  0  0  0  0  0
   -0.3397    2.6116    0.3624 C   0  0  0  0  0  0  0  0  0  0  0  0
    0.7305    3.4959    0.2725 C   0  0  0  0  0  0  0  0  0  0  0  0
    1.9868    2.9953   -0.0904 C   0  0  0  0  0  0  0  0  0  0  0  0
    2.1701    1.6133   -0.2661 C   0  0  0  0  0  0  0  0  0  0  0  0
    1.0793    0.7382   -0.0084 C   0  0  0  0  0  0  0  0  0  0  0  0
    3.4464    1.1488   -0.8991 C   0  0  0  0  0  0  0  0  0  0  0  0
    4.4359    2.0630   -0.7756 O   0  0  0  0  0  0  0  0  0  0  0  0
    3.5900    0.1124   -1.5255 O   0  0  0  0  0  0  0  0  0  0  0  0
   -1.3858    2.9187    0.5359 H   0  0  0  0  0  0  0  0  0  0  0  0
    0.5639    4.5706    0.4296 H   0  0  0  0  0  0  0  0  0  0  0  0
    2.8344    3.6684   -0.2735 H   0  0  0  0  0  0  0  0  0  0  0  0
    5.1940    1.6938   -1.2784 H   0  0  0  0  0  0  0  0  0  0  0  0
  1  6  1  0  0  0  0
  2  3  2  0  0  0  0
  2  1  1  0  0  0  0
  3  4  1  0  0  0  0
  4  5  2  0  0  0  0
  4 12  1  0  0  0  0
  5  7  1  0  0  0  0
  6  5  1  0  0  0  0
  7  9  2  0  0  0  0
  8  7  1  0  0  0  0
  8 13  1  0  0  0  0
 10  2  1  0  0  0  0
 11  3  1  0  0  0  0
 14 15  1  0  0  0  0
 15 23  1  0  0  0  0
 16 15  2  0  0  0  0
 16 24  1  0  0  0  0
 17 16  1  0  0  0  0
 18 17  2  0  0  0  0
 18 19  1  0  0  0  0
 19  6  2  0  0  0  0
 19 14  1  0  0  0  0
 20 21  1  0  0  0  0
 20 18  1  0  0  0  0
 22 20  2  0  0  0  0
 25 17  1  0  0  0  0
 26 21  1  0  0  0  0
M  END
