1,2
q = 0.0, confidence = 0.988

 38 38  0  0  0  0  0  0  0  0999 V2000
    2.2618    0.2396    0.2181 N   0  0  0  0  0  2  0  0  0  0  0  0
   -0.0140    0.2524   -0.6908 N   0  0  0  0  0  2  0  0  0  0  0  0
    3.4858    0.0721    0.7742 C   0  0  0  0  0  3  0  0  0  0  0  0
    3.6622   -0.8927    1.2719 H   0  0  0  0  0  0  0  0  0  0  0  0
    4.4589    1.0676    0.7078 C   0  0  0  0  0  0  0  0  0  0  0  0
    5.4389    0.8915    1.1725 H   0  0  0  0  0  0  0  0  0  0  0  0
    4.1698    2.2802    0.0422 C   0  0  0  0  0  0  0  0  0  0  0  0
    4.9268    3.0752   -0.0207 H   0  0  0  0  0  0  0  0  0  0  0  0
    2.9127    2.4543   -0.5364 C   0  0  0  0  0  0  0  0  0  0  0  0
    2.6469    3.3807   -1.0658 H   0  0  0  0  0  0  0  0  0  0  0  0
    1.9554    1.4219   -0.4432 C   0  0  0  0  0  0  0  0  0  0  0  0
    0.6237    1.3934   -0.9547 C   0  0  0  0  0  3  0  0  0  0  0  0
    0.1567    2.2234   -1.5028 H   0  0  0  0  0  0  0  0  0  0  0  0
   -1.4532    0.0155   -1.0104 C   0  0  0  0  0  0  0  0  0  0  0  0
   -1.7320    0.4675   -2.4541 C   0  0  0  0  0  0  0  0  0  0  0  0
   -1.6664    1.5676   -2.5659 H   0  0  0  0  0  0  0  0  0  0  0  0
   -2.7500    0.1661   -2.7607 H   0  0  0  0  0  0  0  0  0  0  0  0
   -1.0075   -0.0035   -3.1477 H   0  0  0  0  0  0  0  0  0  0  0  0
   -1.6529   -1.5040   -0.8997 C   0  0  0  0  0  0  0  0  0  0  0  0
   -0.9860   -2.0335   -1.6069 H   0  0  0  0  0  0  0  0  0  0  0  0
   -2.6981   -1.7806   -1.1307 H   0  0  0  0  0  0  0  0  0  0  0  0
   -1.4375   -1.8587    0.1315 H   0  0  0  0  0  0  0  0  0  0  0  0
   -2.2243    0.8476    0.0605 C   0  0  0  0  0  0  0  0  0  0  0  0
   -2.1002    1.9118   -0.2371 H   0  0  0  0  0  0  0  0  0  0  0  0
   -1.6589    0.7283    1.0084 H   0  0  0  0  0  0  0  0  0  0  0  0
   -3.7246    0.6204    0.4036 C   0  0  0  0  0  0  0  0  0  0  0  0
   -4.1277    1.8214    1.2881 C   0  0  0  0  0  0  0  0  0  0  0  0
   -5.1815    1.7278    1.6216 H   0  0  0  0  0  0  0  0  0  0  0  0
   -4.0286    2.7799    0.7377 H   0  0  0  0  0  0  0  0  0  0  0  0
   -3.4891    1.8819    2.1931 H   0  0  0  0  0  0  0  0  0  0  0  0
   -3.9372   -0.6627    1.2352 C   0  0  0  0  0  0  0  0  0  0  0  0
   -3.8296   -1.5845    0.6341 H   0  0  0  0  0  0  0  0  0  0  0  0
   -4.9592   -0.6731    1.6668 H   0  0  0  0  0  0  0  0  0  0  0  0
   -3.2093   -0.7210    2.0699 H   0  0  0  0  0  0  0  0  0  0  0  0
   -4.6393    0.6007   -0.8336 C   0  0  0  0  0  0  0  0  0  0  0  0
   -4.4606   -0.2872   -1.4728 H   0  0  0  0  0  0  0  0  0  0  0  0
   -4.5015    1.5073   -1.4583 H   0  0  0  0  0  0  0  0  0  0  0  0
   -5.7042    0.5672   -0.5232 H   0  0  0  0  0  0  0  0  0  0  0  0
  1  3  1  0  0  0  0
  3  4  1  0  0  0  0
  5  3  1  0  0  0  0
  5  6  1  0  0  0  0
  7  5  2  0  0  0  0
  8  7  1  0  0  0  0
  9 11  2  0  0  0  0
  9  7  1  0  0  0  0
 10  9  1  0  0  0  0
 11  1  1  0  0  0  0
 12  2  1  0  0  0  0
 12 11  1  0  0  0  0
 13 12  1  0  0  0  0
 14 19  1  0  0  0  0
 14  2  1  0  0  0  0
 14 23  1  0  0  0  0
 15 14  1  0  0  0  0
 16 15  1  0  0  0  0
 17 15  1  0  0  0  0
 18 15  1  0  0  0  0
 19 22  1  0  0  0  0
 20 19  1  0  0  0  0
 21 19  1  0  0  0  0
 23 26  1  0  0  0  0
 23 25  1  0  0  0  0
 24 23  1  0  0  0  0
 26 31  1  0  0  0  0
 26 27  1  0  0  0  0
 27 28  1  0  0  0  0
 27 30  1  0  0  0  0
 29 27  1  0  0  0  0
 31 33  1  0  0  0  0
 31 34  1  0  0  0  0
 32 31  1  0  0  0  0
 35 38  1  0  0  0  0
 35 26  1  0  0  0  0
 36 35  1  0  0  0  0
 37 35  1  0  0  0  0
M  END
