1,2
q = 0.0, confidence = 0.912

 38 37  0  0  0  0  0  0  0  0999 V2000
    1.6680   -1.0593   -0.8568 N   0  0  0  0  0  2  0  0  0  0  0  0
    1.0117    1.6851   -0.6135 N   0  0  0  0  0  2  0  0  0  0  0  0
    2.6330   -0.1379   -0.4305 C   0  0  0  0  0  0  0  0  0  0  0  0
    2.3075    1.2398   -0.3195 C   0  0  0  0  0  0  0  0  0  0  0  0
    3.9986   -0.5870    0.0767 C   0  0  0  0  0  0  0  0  0  0  0  0
    3.3247    2.1875    0.2889 C   0  0  0  0  0  0  0  0  0  0  0  0
    1.9917   -2.3696   -1.4665 C   0  0  0  0  0  0  0  0  0  0  0  0
    0.7160   -2.8812   -2.1570 C   0  0  0  0  0  0  0  0  0  0  0  0
    2.3648   -3.4514   -0.4223 C   0  0  0  0  0  0  0  0  0  0  0  0
    3.0847   -2.2218   -2.5449 C   0  0  0  0  0  0  0  0  0  0  0  0
    0.6846    3.0122   -1.1784 C   0  0  0  0  0  0  0  0  0  0  0  0
   -0.8484    3.1483   -1.1623 C   0  0  0  0  0  0  0  0  0  0  0  0
    1.2282    4.2362   -0.3992 C   0  0  0  0  0  0  0  0  0  0  0  0
    1.2146    3.0598   -2.6264 C   0  0  0  0  0  0  0  0  0  0  0  0
    4.8191   -0.0715   -0.4619 H   0  0  0  0  0  0  0  0  0  0  0  0
    4.1536   -1.6670   -0.0553 H   0  0  0  0  0  0  0  0  0  0  0  0
    4.1403   -0.3747    1.1579 H   0  0  0  0  0  0  0  0  0  0  0  0
    4.1523    1.6587    0.7901 H   0  0  0  0  0  0  0  0  0  0  0  0
    2.8612    2.8542    1.0379 H   0  0  0  0  0  0  0  0  0  0  0  0
    3.7837    2.8360   -0.4873 H   0  0  0  0  0  0  0  0  0  0  0  0
    0.4322   -2.2404   -3.0114 H   0  0  0  0  0  0  0  0  0  0  0  0
   -0.1276   -2.8945   -1.4384 H   0  0  0  0  0  0  0  0  0  0  0  0
    0.8617   -3.9132   -2.5330 H   0  0  0  0  0  0  0  0  0  0  0  0
    1.5207   -3.5936    0.2805 H   0  0  0  0  0  0  0  0  0  0  0  0
    3.2601   -3.2085    0.1777 H   0  0  0  0  0  0  0  0  0  0  0  0
    2.5543   -4.4200   -0.9285 H   0  0  0  0  0  0  0  0  0  0  0  0
    2.7952   -1.4305   -3.2650 H   0  0  0  0  0  0  0  0  0  0  0  0
    3.2055   -3.1723   -3.1028 H   0  0  0  0  0  0  0  0  0  0  0  0
    4.0716   -1.9533   -2.1248 H   0  0  0  0  0  0  0  0  0  0  0  0
   -1.1661    4.0422   -1.7350 H   0  0  0  0  0  0  0  0  0  0  0  0
   -1.2136    3.2586   -0.1223 H   0  0  0  0  0  0  0  0  0  0  0  0
   -1.3371    2.2569   -1.5892 H   0  0  0  0  0  0  0  0  0  0  0  0
    1.0127    4.1448    0.6842 H   0  0  0  0  0  0  0  0  0  0  0  0
    0.7155    5.1487   -0.7655 H   0  0  0  0  0  0  0  0  0  0  0  0
    2.3122    4.3974   -0.5328 H   0  0  0  0  0  0  0  0  0  0  0  0
    0.7647    2.2496   -3.2322 H   0  0  0  0  0  0  0  0  0  0  0  0
    2.3145    2.9189   -2.6406 H   0  0  0  0  0  0  0  0  0  0  0  0
    0.9850    4.0331   -3.1068 H   0  0  0  0  0  0  0  0  0  0  0  0
  1  3  1  0  0  0  0
  2  4  1  0  0  0  0
  3  4  2  0  0  0  0
  3  5  1  0  0  0  0
  4  6  1  0  0  0  0
  5 17  1  0  0  0  0
  6 18  1  0  0  0  0
  6 19  1  0  0  0  0
  7  1  1  0  0  0  0
  7  9  1  0  0  0  0
  8  7  1  0  0  0  0
  8 22  1  0  0  0  0
  9 25  1  0  0  0  0
  9 24  1  0  0  0  0
 10 29  1  0  0  0  0
 10  7  1  0  0  0  0
 11 12  1  0  0  0  0
 11  2  1  0  0  0  0
 11 13  1  0  0  0  0
 12 31  1  0  0  0  0
 13 33  1  0  0  0  0
 14 11  1  0  0  0  0
 15  5  1  0  0  0  0
 16  5  1  0  0  0  0
 20  6  1  0  0  0  0
 21  8  1  0  0  0  0
 23  8  1  0  0  0  0
 26  9  1  0  0  0  0
 27 10  1  0  0  0  0
 28 10  1  0  0  0  0
 30 12  1  0  0  0  0
 32 12  1  0  0  0  0
 34 13  1  0  0  0  0
 35 13  1  0  0  0  0
 36 14  1  0  0  0  0
 37 14  1  0  0  0  0
 38 14  1  0  0  0  0
M  END
