19,20
q = 0.0, confidence = 1.0

 20 21  0  0  0  0  0  0  0  0999 V2000
    0.9443    2.6648   -0.0003 C   0  0  0  0  0  0  0  0  0  0  0  0
    1.9288    2.1708   -0.0003 H   0  0  0  0  0  0  0  0  0  0  0  0
    0.8219    4.0613   -0.0004 C   0  0  0  0  0  0  0  0  0  0  0  0
   -0.4485    4.6526   -0.0004 C   0  0  0  0  0  0  0  0  0  0  0  0
   -0.5454    5.7480   -0.0006 H   0  0  0  0  0  0  0  0  0  0  0  0
   -1.5667    3.8152   -0.0002 C   0  0  0  0  0  0  0  0  0  0  0  0
   -2.5707    4.2587   -0.0002 H   0  0  0  0  0  0  0  0  0  0  0  0
   -1.4076    2.4155   -0.0000 C   0  0  0  0  0  0  0  0  0  0  0  0
   -2.5354    1.4586    0.0002 C   0  0  0  0  0  0  0  0  0  0  0  0
   -3.8892    1.8466    0.0008 C   0  0  0  0  0  0  0  0  0  0  0  0
   -4.1685    2.9081    0.0011 H   0  0  0  0  0  0  0  0  0  0  0  0
   -4.8941    0.8751    0.0009 C   0  0  0  0  0  0  0  0  0  0  0  0
   -5.9601    1.1447    0.0013 H   0  0  0  0  0  0  0  0  0  0  0  0
   -4.5122   -0.4728    0.0004 C   0  0  0  0  0  0  0  0  0  0  0  0
   -3.1512   -0.8155   -0.0001 C   0  0  0  0  0  0  0  0  0  0  0  0
   -2.8188   -1.8680   -0.0003 H   0  0  0  0  0  0  0  0  0  0  0  0
    1.9173    4.8041   -0.0006 F   0  0  0  0  0  0  0  0  0  0  0  0
   -5.4209   -1.4347    0.0005 F   0  0  0  0  0  0  0  0  0  0  0  0
   -0.1504    1.8868   -0.0001 N   0  0  0  0  0  2  0  0  0  0  0  0
   -2.2081    0.1368   -0.0002 N   0  0  0  0  0  2  0  0  0  0  0  0
  1 19  1  0  0  0  0
  2  1  1  0  0  0  0
  3  4  1  0  0  0  0
  3  1  2  0  0  0  0
  4  6  2  0  0  0  0
  5  4  1  0  0  0  0
  6  8  1  0  0  0  0
  7  6  1  0  0  0  0
  8  9  2  0  0  0  0
  9 10  1  0  0  0  0
 10 12  2  0  0  0  0
 10 11  1  0  0  0  0
 12 13  1  0  0  0  0
 14 18  1  0  0  0  0
 14 12  1  0  0  0  0
 15 14  2  0  0  0  0
 16 15  1  0  0  0  0
 17  3  1  0  0  0  0
 19  8  1  0  0  0  0
 20 15  1  0  0  0  0
 20  9  1  0  0  0  0
M  END
