4,5
q = -1.0, confidence = 0.008

 50 52  0  0  1  0  0  0  0  0999 V2000
   -0.5948   -1.5229   -1.5121 S   0  0  0  0  0  0  0  0  0  0  0  0
    0.3601   -2.6595   -1.5392 O   0  0  0  0  0  0  0  0  0  0  0  0
   -0.9413   -0.8215   -2.7845 O   0  0  0  0  0  0  0  0  0  0  0  0
    1.4414    1.7871   -0.0173 N   0  0  0  0  0  0  0  0  0  0  0  0
   -0.1032   -0.4351   -0.3236 N   0  0  0  0  0  2  0  0  0  0  0  0
    0.0051    1.8978    0.3643 C   0  0  2  0  0  0  0  0  0  0  0  0
   -0.7760    0.8637   -0.4724 C   0  0  2  0  0  0  0  0  0  0  0  0
    2.3077    2.7443    0.6906 C   0  0  0  0  0  0  0  0  0  0  0  0
   -0.5648    3.2944    0.2024 C   0  0  0  0  0  0  0  0  0  0  0  0
   -0.4669    3.9757   -1.0279 C   0  0  0  0  0  0  0  0  0  0  0  0
   -1.0337    5.2482   -1.1875 C   0  0  0  0  0  0  0  0  0  0  0  0
   -1.7172    5.8531   -0.1201 C   0  0  0  0  0  0  0  0  0  0  0  0
   -1.8259    5.1800    1.1063 C   0  0  0  0  0  0  0  0  0  0  0  0
   -1.2494    3.9110    1.2649 C   0  0  0  0  0  0  0  0  0  0  0  0
   -2.2386    0.8708   -0.0416 C   0  0  0  0  0  0  0  0  0  0  0  0
   -3.2107    1.5121   -0.8288 C   0  0  0  0  0  0  0  0  0  0  0  0
   -4.5531    1.5447   -0.4218 C   0  0  0  0  0  0  0  0  0  0  0  0
   -4.9384    0.9289    0.7788 C   0  0  0  0  0  0  0  0  0  0  0  0
   -3.9720    0.2877    1.5722 C   0  0  0  0  0  0  0  0  0  0  0  0
   -2.6314    0.2647    1.1662 C   0  0  0  0  0  0  0  0  0  0  0  0
   -2.1475   -2.1951   -0.8775 C   0  0  0  0  0  0  0  0  0  0  0  0
   -3.3577   -1.7948   -1.4584 C   0  0  0  0  0  0  0  0  0  0  0  0
   -4.5637   -2.2437   -0.9072 C   0  0  0  0  0  0  0  0  0  0  0  0
   -4.5817   -3.0955    0.2166 C   0  0  0  0  0  0  0  0  0  0  0  0
   -3.3471   -3.5171    0.7540 C   0  0  0  0  0  0  0  0  0  0  0  0
   -2.1328   -3.0753    0.2132 C   0  0  0  0  0  0  0  0  0  0  0  0
   -5.8886   -3.5156    0.8386 C   0  0  0  0  0  0  0  0  0  0  0  0
   -0.7441    1.2103   -1.5336 H   0  0  0  0  0  0  0  0  0  0  0  0
   -0.0530    1.5985    1.4319 H   0  0  0  0  0  0  0  0  0  0  0  0
    1.5150    1.9716   -1.0309 H   0  0  0  0  0  0  0  0  0  0  0  0
    3.3417    2.6389    0.3155 H   0  0  0  0  0  0  0  0  0  0  0  0
    1.9654    3.7905    0.5475 H   0  0  0  0  0  0  0  0  0  0  0  0
    2.2971    2.5142    1.7727 H   0  0  0  0  0  0  0  0  0  0  0  0
    0.0497    3.5052   -1.8806 H   0  0  0  0  0  0  0  0  0  0  0  0
   -0.9484    5.7677   -2.1540 H   0  0  0  0  0  0  0  0  0  0  0  0
   -2.1676    6.8493   -0.2466 H   0  0  0  0  0  0  0  0  0  0  0  0
   -2.3656    5.6446    1.9454 H   0  0  0  0  0  0  0  0  0  0  0  0
   -1.3457    3.3766    2.2229 H   0  0  0  0  0  0  0  0  0  0  0  0
   -2.9076    1.9811   -1.7778 H   0  0  0  0  0  0  0  0  0  0  0  0
   -5.3041    2.0462   -1.0513 H   0  0  0  0  0  0  0  0  0  0  0  0
   -5.9929    0.9432    1.0948 H   0  0  0  0  0  0  0  0  0  0  0  0
   -4.2683   -0.2075    2.5098 H   0  0  0  0  0  0  0  0  0  0  0  0
   -1.8745   -0.2580    1.7689 H   0  0  0  0  0  0  0  0  0  0  0  0
   -3.3326   -1.1218   -2.3262 H   0  0  0  0  0  0  0  0  0  0  0  0
   -5.5159   -1.9139   -1.3519 H   0  0  0  0  0  0  0  0  0  0  0  0
   -3.3399   -4.2046    1.6149 H   0  0  0  0  0  0  0  0  0  0  0  0
   -1.1743   -3.4137    0.6312 H   0  0  0  0  0  0  0  0  0  0  0  0
   -6.3335   -2.6776    1.4182 H   0  0  0  0  0  0  0  0  0  0  0  0
   -5.7599   -4.3689    1.5325 H   0  0  0  0  0  0  0  0  0  0  0  0
   -6.6336   -3.8039    0.0696 H   0  0  0  0  0  0  0  0  0  0  0  0
  1 21  1  0  0  0  0
  1  5  1  0  0  0  0
  2  1  2  0  0  0  0
  3  1  2  0  0  0  0
  4  6  1  0  0  0  0
  4  8  1  0  0  0  0
  6 29  1  1  0  0  0
  7 28  1  6  0  0  0
  7  5  1  0  0  0  0
  7 15  1  0  0  0  0
  7  6  1  0  0  0  0
  8 33  1  0  0  0  0
  9  6  1  0  0  0  0
  9 14  1  0  0  0  0
 10  9  2  0  0  0  0
 11 10  1  0  0  0  0
 11 12  2  0  0  0  0
 12 13  1  0  0  0  0
 13 14  2  0  0  0  0
 13 37  1  0  0  0  0
 14 38  1  0  0  0  0
 15 20  1  0  0  0  0
 16 17  1  0  0  0  0
 16 15  2  0  0  0  0
 17 18  2  0  0  0  0
 18 41  1  0  0  0  0
 18 19  1  0  0  0  0
 19 42  1  0  0  0  0
 20 19  2  0  0  0  0
 20 43  1  0  0  0  0
 21 26  1  0  0  0  0
 22 23  1  0  0  0  0
 22 21  2  0  0  0  0
 23 24  2  0  0  0  0
 24 25  1  0  0  0  0
 24 27  1  0  0  0  0
 25 46  1  0  0  0  0
 26 47  1  0  0  0  0
 26 25  2  0  0  0  0
 27 48  1  0  0  0  0
 27 49  1  0  0  0  0
 30  4  1  0  0  0  0
 31  8  1  0  0  0  0
 32  8  1  0  0  0  0
 34 10  1  0  0  0  0
 35 11  1  0  0  0  0
 36 12  1  0  0  0  0
 39 16  1  0  0  0  0
 40 17  1  0  0  0  0
 44 22  1  0  0  0  0
 45 23  1  0  0  0  0
 50 27  1  0  0  0  0
M  END
