1,2
q = -1.0, confidence = 0.312

 39 40  0  0  0  0  0  0  0  0999 V2000
    2.4307    0.2776   -0.2233 N   0  0  0  0  0  2  0  0  0  0  0  0
    0.2811    1.1188    1.0322 N   0  0  0  0  0  2  0  0  0  0  0  0
   -3.7239    0.3339   -0.9457 N   0  3  0  0  0  0  0  0  0  0  0  0
   -0.6839    1.7503    1.7415 N   0  0  0  0  0  0  0  0  0  0  0  0
    3.5161   -0.2240   -0.8519 C   0  0  0  0  0  3  0  0  0  0  0  0
    3.5664   -1.3212   -0.9115 H   0  0  0  0  0  0  0  0  0  0  0  0
    2.3071    1.6396   -0.1294 C   0  0  0  0  0  0  0  0  0  0  0  0
    4.5153    0.5815   -1.4049 C   0  0  0  0  0  0  0  0  0  0  0  0
    5.3755    0.1139   -1.9041 H   0  0  0  0  0  0  0  0  0  0  0  0
   -2.7188    0.9679    0.0145 C   0  0  0  0  0  0  0  0  0  0  0  0
   -1.7349    0.5578   -0.3082 H   0  0  0  0  0  0  0  0  0  0  0  0
   -2.7209    2.0513   -0.2174 H   0  0  0  0  0  0  0  0  0  0  0  0
   -0.4819    3.1090    1.7537 C   0  0  0  0  0  3  0  0  0  0  0  0
   -1.1572    3.7741    2.3023 H   0  0  0  0  0  0  0  0  0  0  0  0
    1.1271    2.0884    0.5902 C   0  0  0  0  0  0  0  0  0  0  0  0
   -2.9950    0.7269    1.4952 C   0  0  0  0  0  0  0  0  0  0  0  0
   -3.2857   -0.3282    1.6687 H   0  0  0  0  0  0  0  0  0  0  0  0
   -3.8284    1.3717    1.8420 H   0  0  0  0  0  0  0  0  0  0  0  0
   -3.4835   -1.1546   -1.0374 C   0  0  0  0  0  0  0  0  0  0  0  0
   -3.5342   -1.6055   -0.0311 H   0  0  0  0  0  0  0  0  0  0  0  0
   -2.4597   -1.2979   -1.4477 H   0  0  0  0  0  0  0  0  0  0  0  0
   -4.2513   -1.5838   -1.7063 H   0  0  0  0  0  0  0  0  0  0  0  0
    3.2722    2.5117   -0.6678 C   0  0  0  0  0  0  0  0  0  0  0  0
    3.1334    3.5984   -0.5762 H   0  0  0  0  0  0  0  0  0  0  0  0
   -5.1324    0.6022   -0.5262 C   0  0  0  0  0  0  0  0  0  0  0  0
   -5.8140    0.2231   -1.3091 H   0  0  0  0  0  0  0  0  0  0  0  0
   -5.2735    1.6918   -0.4017 H   0  0  0  0  0  0  0  0  0  0  0  0
   -5.3376    0.0820    0.4251 H   0  0  0  0  0  0  0  0  0  0  0  0
    4.3904    1.9798   -1.3146 C   0  0  0  0  0  0  0  0  0  0  0  0
    5.1552    2.6432   -1.7447 H   0  0  0  0  0  0  0  0  0  0  0  0
   -1.7367    0.9779    2.3744 C   0  0  0  0  0  0  0  0  0  0  0  0
   -2.0174    1.4967    3.3104 H   0  0  0  0  0  0  0  0  0  0  0  0
   -1.2692    0.0096    2.6387 H   0  0  0  0  0  0  0  0  0  0  0  0
    0.6720    3.3645    1.0238 C   0  0  0  0  0  0  0  0  0  0  0  0
    1.1388    4.3387    0.8506 H   0  0  0  0  0  0  0  0  0  0  0  0
   -3.4785    0.9310   -2.3055 C   0  0  0  0  0  0  0  0  0  0  0  0
   -2.4071    0.7561   -2.5510 H   0  0  0  0  0  0  0  0  0  0  0  0
   -3.7088    2.0112   -2.2666 H   0  0  0  0  0  0  0  0  0  0  0  0
   -4.1344    0.4238   -3.0361 H   0  0  0  0  0  0  0  0  0  0  0  0
  1  7  1  0  0  0  0
  2  4  1  0  0  0  0
  3 25  1  0  0  0  0
  3 10  1  0  0  0  0
  4 13  1  0  0  0  0
  4 31  1  0  0  0  0
  5  1  1  0  0  0  0
  6  5  1  0  0  0  0
  7 15  1  0  0  0  0
  8 29  2  0  0  0  0
  8  5  1  0  0  0  0
  9  8  1  0  0  0  0
 10 16  1  0  0  0  0
 11 10  1  0  0  0  0
 12 10  1  0  0  0  0
 13 14  1  0  0  0  0
 15 34  2  0  0  0  0
 15  2  1  0  0  0  0
 16 17  1  0  0  0  0
 16 18  1  0  0  0  0
 16 31  1  0  0  0  0
 19  3  1  0  0  0  0
 19 20  1  0  0  0  0
 21 19  1  0  0  0  0
 22 19  1  0  0  0  0
 23 24  1  0  0  0  0
 23  7  2  0  0  0  0
 25 27  1  0  0  0  0
 25 28  1  0  0  0  0
 26 25  1  0  0  0  0
 29 23  1  0  0  0  0
 30 29  1  0  0  0  0
 31 33  1  0  0  0  0
 31 32  1  0  0  0  0
 34 13  1  0  0  0  0
 35 34  1  0  0  0  0
 36 38  1  0  0  0  0
 36  3  1  0  0  0  0
 37 36  1  0  0  0  0
 39 36  1  0  0  0  0
M  CHG  1   3   1
M  END
