1,2
q = 0.0, confidence = 0.964

 38 39  0  0  1  0  0  0  0  0999 V2000
    0.4630    0.3317   -0.2336 N   0  0  0  0  0  2  0  0  0  0  0  0
   -2.1272    0.3211   -0.1167 N   0  0  0  0  0  2  0  0  0  0  0  0
   -0.0619    1.5073   -0.1466 N   0  0  0  0  0  2  0  0  0  0  0  0
    2.6028   -0.2081   -1.2384 C   0  0  0  0  0  0  0  0  0  0  0  0
    4.0020   -0.2898   -1.1402 C   0  0  0  0  0  0  0  0  0  0  0  0
    4.5736   -0.6667   -2.0030 H   0  0  0  0  0  0  0  0  0  0  0  0
    4.6659    0.0878    0.0354 C   0  0  0  0  0  0  0  0  0  0  0  0
    5.7610    0.0021    0.1018 H   0  0  0  0  0  0  0  0  0  0  0  0
    3.9322    0.5580    1.1322 C   0  0  0  0  0  0  0  0  0  0  0  0
    4.4510    0.8301    2.0652 H   0  0  0  0  0  0  0  0  0  0  0  0
    2.5308    0.6802    1.0801 C   0  0  0  0  0  0  0  0  0  0  0  0
    1.8868    0.3022   -0.1247 C   0  0  0  0  0  0  0  0  0  0  0  0
   -1.4511    1.5041   -0.2051 C   0  0  1  0  0  3  0  0  0  0  0  0
   -2.1036    2.7440   -0.3621 C   0  0  0  0  0  0  0  0  0  0  0  0
   -1.4936    3.6560   -0.4059 H   0  0  0  0  0  0  0  0  0  0  0  0
   -3.4939    2.7511   -0.4741 C   0  0  0  0  0  0  0  0  0  0  0  0
   -4.0413    3.6965   -0.6035 H   0  0  0  0  0  0  0  0  0  0  0  0
   -4.1826    1.5289   -0.4331 C   0  0  0  0  0  0  0  0  0  0  0  0
   -5.2769    1.4968   -0.5329 H   0  0  0  0  0  0  0  0  0  0  0  0
   -3.4754    0.3222   -0.2546 C   0  0  0  0  0  0  0  0  0  0  0  0
   -4.1910   -0.9964   -0.2147 C   0  0  0  0  0  0  0  0  0  0  0  0
   -3.6383   -1.7540   -0.8026 H   0  0  0  0  0  0  0  0  0  0  0  0
   -5.2204   -0.9020   -0.6075 H   0  0  0  0  0  0  0  0  0  0  0  0
   -4.2471   -1.3822    0.8227 H   0  0  0  0  0  0  0  0  0  0  0  0
    1.7695    1.1741    2.2904 C   0  0  0  0  0  0  0  0  0  0  0  0
    2.2744    0.7808    3.1979 H   0  0  0  0  0  0  0  0  0  0  0  0
    0.7480    0.7404    2.2936 H   0  0  0  0  0  0  0  0  0  0  0  0
    1.6889    2.7059    2.3755 C   0  0  0  0  0  0  0  0  0  0  0  0
    1.1507    3.0244    3.2915 H   0  0  0  0  0  0  0  0  0  0  0  0
    1.1558    3.1092    1.4928 H   0  0  0  0  0  0  0  0  0  0  0  0
    2.7016    3.1581    2.3999 H   0  0  0  0  0  0  0  0  0  0  0  0
    1.8833   -0.5763   -2.5147 C   0  0  0  0  0  0  0  0  0  0  0  0
    0.9484   -1.1198   -2.2570 H   0  0  0  0  0  0  0  0  0  0  0  0
    2.5177   -1.2790   -3.0934 H   0  0  0  0  0  0  0  0  0  0  0  0
    1.5368    0.6439   -3.3822 C   0  0  0  0  0  0  0  0  0  0  0  0
    0.8927    1.3569   -2.8293 H   0  0  0  0  0  0  0  0  0  0  0  0
    0.9983    0.3379   -4.3020 H   0  0  0  0  0  0  0  0  0  0  0  0
    2.4522    1.1913   -3.6859 H   0  0  0  0  0  0  0  0  0  0  0  0
  1  3  1  0  0  0  0
  1 12  1  0  0  0  0
  4  5  2  0  0  0  0
  4 12  1  0  0  0  0
  5  7  1  0  0  0  0
  6  5  1  0  0  0  0
  7  8  1  0  0  0  0
  7  9  2  0  0  0  0
  9 10  1  0  0  0  0
 11  9  1  0  0  0  0
 11 25  1  0  0  0  0
 12 11  2  0  0  0  0
 13  3  1  6  0  0  0
 13  2  1  0  0  0  0
 14 13  1  0  0  0  0
 15 14  1  0  0  0  0
 16 18  1  0  0  0  0
 16 14  2  0  0  0  0
 17 16  1  0  0  0  0
 18 20  2  0  0  0  0
 19 18  1  0  0  0  0
 20 21  1  0  0  0  0
 20  2  1  0  0  0  0
 21 24  1  0  0  0  0
 22 21  1  0  0  0  0
 23 21  1  0  0  0  0
 25 27  1  0  0  0  0
 25 28  1  0  0  0  0
 25 26  1  0  0  0  0
 28 31  1  0  0  0  0
 28 29  1  0  0  0  0
 30 28  1  0  0  0  0
 32 33  1  0  0  0  0
 32  4  1  0  0  0  0
 34 32  1  0  0  0  0
 35 36  1  0  0  0  0
 35 32  1  0  0  0  0
 37 35  1  0  0  0  0
 38 35  1  0  0  0  0
M  END
