1,3
q = 0.0, confidence = 0.968

 26 27  0  0  1  0  0  0  0  0999 V2000
   -1.8263    0.4116   -0.1138 N   0  0  0  0  0  2  0  0  0  0  0  0
    0.1762    1.6853    0.1005 N   0  0  0  0  0  2  0  0  0  0  0  0
    0.7724    0.5773   -0.1918 N   0  0  0  0  0  2  0  0  0  0  0  0
   -1.2082    1.6184    0.0499 C   0  0  1  0  0  3  0  0  0  0  0  0
   -1.9236    2.8302    0.1473 C   0  0  0  0  0  0  0  0  0  0  0  0
   -1.3582    3.7591    0.2994 H   0  0  0  0  0  0  0  0  0  0  0  0
   -3.3124    2.7930    0.0219 C   0  0  0  0  0  0  0  0  0  0  0  0
   -3.9065    3.7166    0.0877 H   0  0  0  0  0  0  0  0  0  0  0  0
   -3.9372    1.5590   -0.2127 C   0  0  0  0  0  0  0  0  0  0  0  0
   -5.0271    1.4963   -0.3432 H   0  0  0  0  0  0  0  0  0  0  0  0
   -3.1697    0.3772   -0.2816 C   0  0  0  0  0  0  0  0  0  0  0  0
    2.1907    0.6644   -0.1276 C   0  0  0  0  0  0  0  0  0  0  0  0
    2.8415    1.5058    0.7994 C   0  0  0  0  0  0  0  0  0  0  0  0
    2.2288    2.0991    1.4919 H   0  0  0  0  0  0  0  0  0  0  0  0
    4.2389    1.5564    0.8227 C   0  0  0  0  0  0  0  0  0  0  0  0
    4.7500    2.1985    1.5561 H   0  0  0  0  0  0  0  0  0  0  0  0
    4.9913    0.7883   -0.0846 C   0  0  0  0  0  0  0  0  0  0  0  0
    6.0907    0.8318   -0.0624 H   0  0  0  0  0  0  0  0  0  0  0  0
    4.3395   -0.0376   -1.0154 C   0  0  0  0  0  0  0  0  0  0  0  0
    4.9254   -0.6339   -1.7306 H   0  0  0  0  0  0  0  0  0  0  0  0
    2.9415   -0.1121   -1.0322 C   0  0  0  0  0  0  0  0  0  0  0  0
    2.4095   -0.7508   -1.7498 H   0  0  0  0  0  0  0  0  0  0  0  0
   -3.8197   -0.9487   -0.5535 C   0  0  0  0  0  0  0  0  0  0  0  0
   -3.1631   -1.5780   -1.1831 H   0  0  0  0  0  0  0  0  0  0  0  0
   -4.7972   -0.8128   -1.0534 H   0  0  0  0  0  0  0  0  0  0  0  0
   -3.9901   -1.5080    0.3883 H   0  0  0  0  0  0  0  0  0  0  0  0
  1  4  1  0  0  0  0
  3 12  1  0  0  0  0
  3  2  1  0  0  0  0
  4  2  1  6  0  0  0
  4  5  1  0  0  0  0
  5  6  1  0  0  0  0
  7  8  1  0  0  0  0
  7  5  2  0  0  0  0
  9  7  1  0  0  0  0
 10  9  1  0  0  0  0
 11  9  2  0  0  0  0
 11  1  1  0  0  0  0
 12 13  1  0  0  0  0
 13 15  2  0  0  0  0
 13 14  1  0  0  0  0
 15 16  1  0  0  0  0
 17 18  1  0  0  0  0
 17 15  1  0  0  0  0
 19 17  2  0  0  0  0
 20 19  1  0  0  0  0
 21 19  1  0  0  0  0
 21 12  2  0  0  0  0
 22 21  1  0  0  0  0
 23 11  1  0  0  0  0
 23 26  1  0  0  0  0
 24 23  1  0  0  0  0
 25 23  1  0  0  0  0
M  END
