1,4
q = -1.0, confidence = 0.0

 28 30  0  0  0  0  0  0  0  0999 V2000
    1.7916   -0.8545   -0.8153 N   0  0  0  0  0  0  0  0  0  0  0  0
    3.5515    2.1893   -2.6546 Cl  0  0  0  0  0  0  0  0  0  0  0  0
    3.1221   -1.1828   -0.6121 C   0  0  0  0  0  0  0  0  0  0  0  0
   -0.5468    0.3022   -1.4161 N   0  0  0  0  0  2  0  0  0  0  0  0
   -2.5535   -1.0241   -2.8516 F   0  0  0  0  0  0  0  0  0  0  0  0
   -1.2564    2.8271   -0.4239 F   0  0  0  0  0  0  0  0  0  0  0  0
    1.7822    0.3307   -1.5539 C   0  0  0  0  0  0  0  0  0  0  0  0
   -1.8297    0.8587   -1.6116 C   0  0  0  0  0  0  0  0  0  0  0  0
    3.0957    0.7571   -1.8185 C   0  0  0  0  0  0  0  0  0  0  0  0
    3.6910   -2.2790    0.0695 C   0  0  0  0  0  0  0  0  0  0  0  0
    3.0462   -3.0336    0.5385 H   0  0  0  0  0  0  0  0  0  0  0  0
    3.9769   -0.1928   -1.2257 C   0  0  0  0  0  0  0  0  0  0  0  0
   -2.8538    0.1449   -2.2768 C   0  0  0  0  0  0  0  0  0  0  0  0
    5.0832   -2.3532    0.1475 C   0  0  0  0  0  0  0  0  0  0  0  0
    5.5419   -3.1990    0.6818 H   0  0  0  0  0  0  0  0  0  0  0  0
   -2.1981    2.1112   -1.0668 C   0  0  0  0  0  0  0  0  0  0  0  0
   -4.4831    1.8631   -1.7927 C   0  0  0  0  0  0  0  0  0  0  0  0
   -5.5136    2.2419   -1.8492 H   0  0  0  0  0  0  0  0  0  0  0  0
    5.9248   -1.3733   -0.4456 C   0  0  0  0  0  0  0  0  0  0  0  0
    7.0167   -1.4770   -0.3593 H   0  0  0  0  0  0  0  0  0  0  0  0
    5.3828   -0.2925   -1.1382 C   0  0  0  0  0  3  0  0  0  0  0  0
    6.0186    0.4723   -1.6083 H   0  0  0  0  0  0  0  0  0  0  0  0
   -4.1624    0.6287   -2.3718 C   0  0  0  0  0  0  0  0  0  0  0  0
   -4.9098    0.0146   -2.8917 H   0  0  0  0  0  0  0  0  0  0  0  0
   -3.4974    2.6175   -1.1408 C   0  0  0  0  0  0  0  0  0  0  0  0
   -3.7152    3.5823   -0.6634 H   0  0  0  0  0  0  0  0  0  0  0  0
    0.5245    0.9158   -1.8587 C   0  0  0  0  0  3  0  0  0  0  0  0
    0.4731    1.8504   -2.4463 H   0  0  0  0  0  0  0  0  0  0  0  0
  1  3  1  0  0  0  0
  2  9  1  0  0  0  0
  3 10  2  0  0  0  0
  5 13  1  0  0  0  0
  7  1  2  0  0  0  0
  8  4  1  0  0  0  0
  8 16  1  0  0  0  0
  9  7  1  0  0  0  0
  9 12  2  0  0  0  0
 10 14  1  0  0  0  0
 10 11  1  0  0  0  0
 12 21  1  0  0  0  0
 12  3  1  0  0  0  0
 13  8  2  0  0  0  0
 14 15  1  0  0  0  0
 16  6  1  0  0  0  0
 17 25  1  0  0  0  0
 18 17  1  0  0  0  0
 19 20  1  0  0  0  0
 19 14  2  0  0  0  0
 21 19  1  0  0  0  0
 22 21  1  0  0  0  0
 23 13  1  0  0  0  0
 23 17  2  0  0  0  0
 24 23  1  0  0  0  0
 25 16  2  0  0  0  0
 25 26  1  0  0  0  0
 27  7  1  0  0  0  0
 27  4  1  0  0  0  0
 28 27  1  0  0  0  0
M  END
