1,4
q = 0.0, confidence = 0.998

 33 36  0  0  1  0  0  0  0  0999 V2000
    1.2690    0.1329   -1.8570 N   0  0  0  0  0  2  0  0  0  0  0  0
    0.1926    2.2956   -1.5042 N   0  0  0  0  0  0  0  0  0  0  0  0
   -1.5381    0.6933   -1.1250 N   0  0  0  0  0  0  0  0  0  0  0  0
   -2.3755   -1.8564   -0.3202 N   0  0  0  0  0  2  0  0  0  0  0  0
    2.3843   -0.4545   -2.3447 C   0  0  0  0  0  3  0  0  0  0  0  0
    2.3353   -1.5525   -2.4072 H   0  0  0  0  0  0  0  0  0  0  0  0
    3.5322    0.2640   -2.7303 C   0  0  0  0  0  0  0  0  0  0  0  0
    4.4049   -0.2874   -3.1071 H   0  0  0  0  0  0  0  0  0  0  0  0
    3.5613    1.6592   -2.6079 C   0  0  0  0  0  0  0  0  0  0  0  0
    4.4603    2.2375   -2.8683 H   0  0  0  0  0  0  0  0  0  0  0  0
    2.3894    2.2988   -2.1656 C   0  0  0  0  0  0  0  0  0  0  0  0
    1.9769    3.6604   -1.9488 C   0  0  0  0  0  0  0  0  0  0  0  0
    2.5845    4.5642   -2.0654 H   0  0  0  0  0  0  0  0  0  0  0  0
    0.6586    3.6237   -1.5656 C   0  0  0  0  0  0  0  0  0  0  0  0
   -0.0070    4.4516   -1.3097 H   0  0  0  0  0  0  0  0  0  0  0  0
    1.2708    1.4675   -1.8472 C   0  0  0  0  0  0  0  0  0  0  0  0
   -1.1794    1.9538   -1.4536 C   0  0  0  0  0  0  0  0  0  0  0  0
   -2.1225    2.9553   -1.7775 C   0  0  0  0  0  0  0  0  0  0  0  0
   -1.7980    3.9503   -2.1010 H   0  0  0  0  0  0  0  0  0  0  0  0
   -3.4779    2.6434   -1.7161 C   0  0  0  0  0  0  0  0  0  0  0  0
   -4.2340    3.4116   -1.9338 H   0  0  0  0  0  0  0  0  0  0  0  0
   -3.8579    1.3342   -1.4127 C   0  0  0  0  0  0  0  0  0  0  0  0
   -4.9187    1.0615   -1.3649 H   0  0  0  0  0  0  0  0  0  0  0  0
   -2.8643    0.3690   -1.1669 C   0  0  0  0  0  0  0  0  0  0  0  0
   -3.2583   -1.0488   -0.9485 C   0  0  1  0  0  3  0  0  0  0  0  0
   -4.5027   -1.5383   -1.3983 C   0  0  0  0  0  0  0  0  0  0  0  0
   -5.1911   -0.8917   -1.9573 H   0  0  0  0  0  0  0  0  0  0  0  0
   -4.8398   -2.8752   -1.1602 C   0  0  0  0  0  0  0  0  0  0  0  0
   -5.8025   -3.2741   -1.5127 H   0  0  0  0  0  0  0  0  0  0  0  0
   -3.9287   -3.6922   -0.4788 C   0  0  0  0  0  0  0  0  0  0  0  0
   -4.1484   -4.7474   -0.2649 H   0  0  0  0  0  0  0  0  0  0  0  0
   -2.7024   -3.1427   -0.0863 C   0  0  0  0  0  0  0  0  0  0  0  0
   -1.9393   -3.7338    0.4450 H   0  0  0  0  0  0  0  0  0  0  0  0
  1 16  1  0  0  0  0
  2 17  1  0  0  0  0
  4 32  1  0  0  0  0
  5  1  1  0  0  0  0
  6  5  1  0  0  0  0
  7  9  2  0  0  0  0
  7  5  1  0  0  0  0
  8  7  1  0  0  0  0
  9 11  1  0  0  0  0
 10  9  1  0  0  0  0
 11 12  1  0  0  0  0
 11 16  2  0  0  0  0
 12 14  2  0  0  0  0
 13 12  1  0  0  0  0
 14  2  1  0  0  0  0
 14 15  1  0  0  0  0
 16  2  1  0  0  0  0
 17  3  2  0  0  0  0
 18 20  2  0  0  0  0
 18 17  1  0  0  0  0
 19 18  1  0  0  0  0
 20 22  1  0  0  0  0
 21 20  1  0  0  0  0
 22 23  1  0  0  0  0
 22 24  2  0  0  0  0
 24  3  1  0  0  0  0
 25 24  1  6  0  0  0
 25  4  1  0  0  0  0
 26 28  2  0  0  0  0
 26 25  1  0  0  0  0
 27 26  1  0  0  0  0
 28 30  1  0  0  0  0
 29 28  1  0  0  0  0
 30 31  1  0  0  0  0
 30 32  2  0  0  0  0
 32 33  1  0  0  0  0
M  END
