4,5
q = -1.0, confidence = 0.0

 24 25  0  0  0  0  0  0  0  0999 V2000
   -2.2345    1.9575    2.1124 Cl  0  0  0  0  0  0  0  0  0  0  0  0
   -6.2858   -0.3684   -0.6311 Cl  0  0  0  0  0  0  0  0  0  0  0  0
   -0.8021    3.3669   -0.3814 O   0  0  0  0  0  0  0  0  0  0  0  0
    2.0915    1.2804   -0.2753 N   0  0  0  0  0  2  0  0  0  0  0  0
   -0.4944    1.0556   -0.2457 N   0  0  0  0  0  2  0  0  0  0  0  0
    3.4349    1.2911   -0.4228 C   0  0  0  0  0  3  0  0  0  0  0  0
    3.9299    0.3111   -0.4313 H   0  0  0  0  0  0  0  0  0  0  0  0
    4.1495    2.4824   -0.5711 C   0  0  0  0  0  0  0  0  0  0  0  0
    5.2424    2.4440   -0.6819 H   0  0  0  0  0  0  0  0  0  0  0  0
    3.4523    3.7031   -0.5894 C   0  0  0  0  0  0  0  0  0  0  0  0
    3.9929    4.6543   -0.7055 H   0  0  0  0  0  0  0  0  0  0  0  0
    2.0588    3.6799   -0.4809 C   0  0  0  0  0  0  0  0  0  0  0  0
    1.4237    4.5769   -0.5197 H   0  0  0  0  0  0  0  0  0  0  0  0
    1.4066    2.4498   -0.3325 C   0  0  0  0  0  0  0  0  0  0  0  0
   -0.0913    2.3602   -0.3035 C   0  0  0  0  0  0  0  0  0  0  0  0
   -1.8644    0.7566   -0.3277 C   0  0  0  0  0  0  0  0  0  0  0  0
   -2.3527    0.0043   -1.4189 C   0  0  0  0  0  0  0  0  0  0  0  0
   -1.6219   -0.2893   -2.1891 H   0  0  0  0  0  0  0  0  0  0  0  0
   -3.7012   -0.3507   -1.5214 C   0  0  0  0  0  0  0  0  0  0  0  0
   -4.0689   -0.9313   -2.3788 H   0  0  0  0  0  0  0  0  0  0  0  0
   -4.5959    0.0591   -0.5172 C   0  0  0  0  0  0  0  0  0  0  0  0
   -4.1498    0.8051    0.5830 C   0  0  0  0  0  0  0  0  0  0  0  0
   -4.8466    1.1092    1.3746 H   0  0  0  0  0  0  0  0  0  0  0  0
   -2.7898    1.1375    0.6741 C   0  0  0  0  0  0  0  0  0  0  0  0
  2 21  1  0  0  0  0
  3 15  2  0  0  0  0
  6  4  1  0  0  0  0
  7  6  1  0  0  0  0
  8  6  1  0  0  0  0
  9  8  1  0  0  0  0
 10  8  2  0  0  0  0
 10 12  1  0  0  0  0
 11 10  1  0  0  0  0
 12 14  2  0  0  0  0
 13 12  1  0  0  0  0
 14 15  1  0  0  0  0
 14  4  1  0  0  0  0
 15  5  1  0  0  0  0
 16  5  1  0  0  0  0
 16 24  1  0  0  0  0
 17 16  2  0  0  0  0
 18 17  1  0  0  0  0
 19 17  1  0  0  0  0
 19 21  2  0  0  0  0
 20 19  1  0  0  0  0
 21 22  1  0  0  0  0
 22 24  2  0  0  0  0
 22 23  1  0  0  0  0
 24  1  1  0  0  0  0
M  END
