1,2
q = 0.0, confidence = 0.972

 25 27  0  0  0  0  0  0  0  0999 V2000
    1.8594    0.7047    0.1886 N   0  0  0  0  0  2  0  0  0  0  0  0
   -0.7656    0.4226    0.0205 N   0  0  0  0  0  2  0  0  0  0  0  0
   -2.4971    2.6349   -0.4084 N   0  0  0  0  0  0  0  0  0  0  0  0
    3.1935    0.7523    0.3825 C   0  0  0  0  0  0  0  0  0  0  0  0
    3.9016    1.9567    0.3276 C   0  0  0  0  0  0  0  0  0  0  0  0
    3.2086    3.1447    0.0486 C   0  0  0  0  0  0  0  0  0  0  0  0
    1.8250    3.0916   -0.1473 C   0  0  0  0  0  0  0  0  0  0  0  0
    1.1604    1.8534   -0.0613 C   0  0  0  0  0  0  0  0  0  0  0  0
   -0.2912    1.6800   -0.1590 C   0  0  0  0  0  0  0  0  0  0  0  0
   -1.1869    2.7662   -0.3877 C   0  0  0  0  0  0  0  0  0  0  0  0
   -2.9964    1.3993   -0.1166 C   0  0  0  0  0  0  0  0  0  0  0  0
   -4.4057    1.2328   -0.0400 C   0  0  0  0  0  0  0  0  0  0  0  0
   -4.9455    0.0045    0.3110 C   0  0  0  0  0  0  0  0  0  0  0  0
   -4.0917   -1.0908    0.6056 C   0  0  0  0  0  0  0  0  0  0  0  0
   -2.7107   -0.9744    0.5191 C   0  0  0  0  0  0  0  0  0  0  0  0
   -2.1311    0.2631    0.1309 C   0  0  0  0  0  0  0  0  0  0  0  0
    3.6659   -0.2302    0.5545 H   0  0  0  0  0  0  0  0  0  0  0  0
    4.9877    1.9513    0.4955 H   0  0  0  0  0  0  0  0  0  0  0  0
    3.7395    4.1058   -0.0140 H   0  0  0  0  0  0  0  0  0  0  0  0
    1.2590    4.0075   -0.3608 H   0  0  0  0  0  0  0  0  0  0  0  0
   -0.7811    3.7736   -0.5804 H   0  0  0  0  0  0  0  0  0  0  0  0
   -5.0272    2.1153   -0.2470 H   0  0  0  0  0  0  0  0  0  0  0  0
   -6.0367   -0.1189    0.3807 H   0  0  0  0  0  0  0  0  0  0  0  0
   -4.5281   -2.0526    0.9141 H   0  0  0  0  0  0  0  0  0  0  0  0
   -2.0471   -1.8259    0.7223 H   0  0  0  0  0  0  0  0  0  0  0  0
  1  4  1  0  0  0  0
  2 16  1  0  0  0  0
  3 10  2  0  0  0  0
  3 11  1  0  0  0  0
  4 17  1  0  0  0  0
  5  4  2  0  0  0  0
  5 18  1  0  0  0  0
  6  5  1  0  0  0  0
  7  8  1  0  0  0  0
  7  6  2  0  0  0  0
  8  1  1  0  0  0  0
  9  8  2  0  0  0  0
  9  2  1  0  0  0  0
 10  9  1  0  0  0  0
 11 12  2  0  0  0  0
 11 16  1  0  0  0  0
 12 13  1  0  0  0  0
 13 23  1  0  0  0  0
 13 14  2  0  0  0  0
 14 24  1  0  0  0  0
 15 14  1  0  0  0  0
 15 25  1  0  0  0  0
 16 15  2  0  0  0  0
 19  6  1  0  0  0  0
 20  7  1  0  0  0  0
 21 10  1  0  0  0  0
 22 12  1  0  0  0  0
M  END
