2,3
q = -1.0, confidence = 0.0

 14 14  0  0  0  0  0  0  0  0999 V2000
    0.1936    1.9740    2.5011 O   0  0  0  0  0  1  0  0  0  0  0  0
   -0.4900    1.5234    1.5731 N   0  0  0  0  0  2  0  0  0  0  0  0
   -1.6311    0.4317   -0.5025 N   0  0  0  0  0  2  0  0  0  0  0  0
   -1.6518    2.0816    1.1868 C   0  0  0  0  0  0  0  0  0  0  0  0
   -2.0424    2.9423    1.7473 H   0  0  0  0  0  0  0  0  0  0  0  0
   -2.3045    1.4854    0.0708 C   0  0  0  0  0  0  0  0  0  0  0  0
   -3.5487    1.9050   -0.4684 C   0  0  0  0  0  0  0  0  0  0  0  0
   -4.0784    2.7459    0.0008 H   0  0  0  0  0  0  0  0  0  0  0  0
   -4.0775    1.2405   -1.5721 C   0  0  0  0  0  0  0  0  0  0  0  0
   -5.0427    1.5569   -1.9957 H   0  0  0  0  0  0  0  0  0  0  0  0
   -3.3732    0.1566   -2.1371 C   0  0  0  0  0  0  0  0  0  0  0  0
   -3.7610   -0.3957   -3.0037 H   0  0  0  0  0  0  0  0  0  0  0  0
   -2.1559   -0.2140   -1.5602 C   0  0  0  0  0  0  0  0  0  0  0  0
   -1.5655   -1.0566   -1.9515 H   0  0  0  0  0  0  0  0  0  0  0  0
  2  1  1  0  0  0  0
  3  6  1  0  0  0  0
  4  2  1  0  0  0  0
  4  5  1  0  0  0  0
  6  4  2  0  0  0  0
  7  8  1  0  0  0  0
  7  6  1  0  0  0  0
  9  7  2  0  0  0  0
 10  9  1  0  0  0  0
 11  9  1  0  0  0  0
 11 13  2  0  0  0  0
 12 11  1  0  0  0  0
 13  3  1  0  0  0  0
 14 13  1  0  0  0  0
M  END
