3,4
q = -1.0, confidence = 0.002

 36 37  0  0  1  0  0  0  0  0999 V2000
   -5.0254    4.8484    0.0182 F   0  0  0  0  0  0  0  0  0  0  0  0
    5.6518   -2.9764   -1.0195 F   0  0  0  0  0  0  0  0  0  0  0  0
    0.3037   -1.4465   -1.4504 N   0  0  0  0  0  2  0  0  0  0  0  0
   -1.9971    0.3041   -1.1519 N   0  0  0  0  0  2  0  0  0  0  0  0
   -0.4664   -2.0205   -2.3896 C   0  0  0  0  0  0  0  0  0  0  0  0
   -1.7890   -1.6183   -2.6421 C   0  0  0  0  0  0  0  0  0  0  0  0
   -2.3251   -2.1929   -3.4074 H   0  0  0  0  0  0  0  0  0  0  0  0
   -2.4845   -0.5112   -2.1067 C   0  0  2  0  0  3  0  0  0  0  0  0
   -3.8535   -0.2431   -2.6969 C   0  0  0  0  0  0  0  0  0  0  0  0
   -4.6421   -0.3139   -1.9219 H   0  0  0  0  0  0  0  0  0  0  0  0
   -4.0843   -0.9601   -3.5044 H   0  0  0  0  0  0  0  0  0  0  0  0
   -3.9134    0.7871   -3.1012 H   0  0  0  0  0  0  0  0  0  0  0  0
    0.0945   -3.1564   -3.2154 C   0  0  0  0  0  0  0  0  0  0  0  0
    0.9527   -2.8111   -3.8265 H   0  0  0  0  0  0  0  0  0  0  0  0
   -0.6721   -3.5759   -3.8907 H   0  0  0  0  0  0  0  0  0  0  0  0
    0.4886   -3.9654   -2.5671 H   0  0  0  0  0  0  0  0  0  0  0  0
   -2.7974    1.4651   -0.8580 C   0  0  0  0  0  0  0  0  0  0  0  0
   -3.8925    1.3878    0.0240 C   0  0  0  0  0  0  0  0  0  0  0  0
   -4.1322    0.4250    0.4954 H   0  0  0  0  0  0  0  0  0  0  0  0
   -4.6496    2.5271    0.3211 C   0  0  0  0  0  0  0  0  0  0  0  0
   -5.5023    2.4862    1.0139 H   0  0  0  0  0  0  0  0  0  0  0  0
   -4.3016    3.7484   -0.2695 C   0  0  0  0  0  0  0  0  0  0  0  0
   -3.2186    3.8498   -1.1494 C   0  0  0  0  0  0  0  0  0  0  0  0
   -2.9689    4.8259   -1.5892 H   0  0  0  0  0  0  0  0  0  0  0  0
   -2.4679    2.7030   -1.4432 C   0  0  0  0  0  0  0  0  0  0  0  0
   -1.5968    2.7624   -2.1107 H   0  0  0  0  0  0  0  0  0  0  0  0
    1.6710   -1.8594   -1.3477 C   0  0  0  0  0  0  0  0  0  0  0  0
    2.6538   -1.2568   -2.1653 C   0  0  0  0  0  0  0  0  0  0  0  0
    2.3494   -0.4632   -2.8619 H   0  0  0  0  0  0  0  0  0  0  0  0
    3.9968   -1.6408   -2.0665 C   0  0  0  0  0  0  0  0  0  0  0  0
    4.7727   -1.1818   -2.6960 H   0  0  0  0  0  0  0  0  0  0  0  0
    4.3591   -2.6197   -1.1311 C   0  0  0  0  0  0  0  0  0  0  0  0
    3.4057   -3.2343   -0.3105 C   0  0  0  0  0  0  0  0  0  0  0  0
    3.7252   -3.9993    0.4111 H   0  0  0  0  0  0  0  0  0  0  0  0
    2.0626   -2.8550   -0.4271 C   0  0  0  0  0  0  0  0  0  0  0  0
    1.3012   -3.3311    0.2036 H   0  0  0  0  0  0  0  0  0  0  0  0
  3 27  1  0  0  0  0
  4 17  1  0  0  0  0
  5  3  1  0  0  0  0
  6  5  2  0  0  0  0
  7  6  1  0  0  0  0
  8  6  1  6  0  0  0
  8  4  1  0  0  0  0
  9  8  1  0  0  0  0
  9 10  1  0  0  0  0
 11  9  1  0  0  0  0
 12  9  1  0  0  0  0
 13 16  1  0  0  0  0
 13  5  1  0  0  0  0
 14 13  1  0  0  0  0
 15 13  1  0  0  0  0
 17 18  1  0  0  0  0
 18 20  2  0  0  0  0
 18 19  1  0  0  0  0
 20 21  1  0  0  0  0
 22  1  1  0  0  0  0
 22 20  1  0  0  0  0
 23 22  2  0  0  0  0
 24 23  1  0  0  0  0
 25 23  1  0  0  0  0
 25 17  2  0  0  0  0
 26 25  1  0  0  0  0
 27 35  1  0  0  0  0
 28 30  1  0  0  0  0
 28 27  2  0  0  0  0
 29 28  1  0  0  0  0
 30 32  2  0  0  0  0
 31 30  1  0  0  0  0
 32  2  1  0  0  0  0
 32 33  1  0  0  0  0
 33 34  1  0  0  0  0
 35 33  2  0  0  0  0
 35 36  1  0  0  0  0
M  END
