1,2
q = -1.0, confidence = 0.0

 28 29  0  0  0  0  0  0  0  0999 V2000
    0.9486   -1.6386   -0.4414 N   0  0  0  0  0  2  0  0  0  0  0  0
   -1.5265   -1.1502   -0.0306 N   0  0  0  0  0  2  0  0  0  0  0  0
    2.1837   -2.0873   -0.7699 C   0  0  0  0  0  3  0  0  0  0  0  0
    2.1794   -3.5031   -0.8762 C   0  0  0  0  0  0  0  0  0  0  0  0
    0.8724   -3.9353   -0.5974 C   0  0  0  0  0  0  0  0  0  0  0  0
    0.4902   -4.9629   -0.5916 H   0  0  0  0  0  0  0  0  0  0  0  0
    0.1240   -2.7582   -0.3421 C   0  0  0  0  0  0  0  0  0  0  0  0
   -1.2225   -2.4421   -0.0847 C   0  0  0  0  0  0  0  0  0  0  0  0
   -2.8589   -0.7603    0.2597 C   0  0  0  0  0  0  0  0  0  0  0  0
   -3.1356   -0.1446    1.5072 C   0  0  0  0  0  0  0  0  0  0  0  0
   -4.4539    0.2701    1.7654 C   0  0  0  0  0  0  0  0  0  0  0  0
   -4.6814    0.7507    2.7296 H   0  0  0  0  0  0  0  0  0  0  0  0
   -5.4689    0.0860    0.8159 C   0  0  0  0  0  0  0  0  0  0  0  0
   -6.4939    0.4219    1.0337 H   0  0  0  0  0  0  0  0  0  0  0  0
   -5.1754   -0.5146   -0.4158 C   0  0  0  0  0  0  0  0  0  0  0  0
   -5.9676   -0.6426   -1.1699 H   0  0  0  0  0  0  0  0  0  0  0  0
   -3.8694   -0.9444   -0.7202 C   0  0  0  0  0  0  0  0  0  0  0  0
   -3.5342   -1.5286   -2.0688 C   0  0  0  0  0  0  0  0  0  0  0  0
   -4.3625   -1.3705   -2.7854 H   0  0  0  0  0  0  0  0  0  0  0  0
   -3.3397   -2.6204   -2.0203 H   0  0  0  0  0  0  0  0  0  0  0  0
   -2.6130   -1.0679   -2.4812 H   0  0  0  0  0  0  0  0  0  0  0  0
   -2.0303    0.0748    2.5028 C   0  0  0  0  0  0  0  0  0  0  0  0
   -1.2564    0.7490    2.0767 H   0  0  0  0  0  0  0  0  0  0  0  0
   -1.5125   -0.8737    2.7544 H   0  0  0  0  0  0  0  0  0  0  0  0
   -2.4140    0.5245    3.4380 H   0  0  0  0  0  0  0  0  0  0  0  0
   -2.0007   -3.2065    0.0864 H   0  0  0  0  0  0  0  0  0  0  0  0
    3.0478   -4.1250   -1.1236 H   0  0  0  0  0  0  0  0  0  0  0  0
    3.0323   -1.4078   -0.9014 H   0  0  0  0  0  0  0  0  0  0  0  0
  1  7  1  0  0  0  0
  2  9  1  0  0  0  0
  3  1  1  0  0  0  0
  4  3  1  0  0  0  0
  4  5  2  0  0  0  0
  5  6  1  0  0  0  0
  5  7  1  0  0  0  0
  7  8  2  0  0  0  0
  8  2  1  0  0  0  0
  8 26  1  0  0  0  0
  9 10  1  0  0  0  0
 10 11  2  0  0  0  0
 10 22  1  0  0  0  0
 11 12  1  0  0  0  0
 13 14  1  0  0  0  0
 13 11  1  0  0  0  0
 15 13  2  0  0  0  0
 16 15  1  0  0  0  0
 17 15  1  0  0  0  0
 17  9  2  0  0  0  0
 18 20  1  0  0  0  0
 18 17  1  0  0  0  0
 19 18  1  0  0  0  0
 21 18  1  0  0  0  0
 22 24  1  0  0  0  0
 22 25  1  0  0  0  0
 23 22  1  0  0  0  0
 27  4  1  0  0  0  0
 28  3  1  0  0  0  0
M  END
