3,5
q = 0.0, confidence = 0.602

 38 46  0  0  1  0  0  0  0  0999 V2000
    0.6609    1.9225    1.6234 O   0  0  0  0  0  0  0  0  0  0  0  0
   -0.6595   -1.9270    1.6194 O   0  0  0  0  0  0  0  0  0  0  0  0
   -0.1730    1.3861   -0.4812 N   0  0  0  0  0  2  0  0  0  0  0  0
   -1.4547    1.6114    0.0165 N   0  0  0  0  0  0  0  0  0  0  0  0
    0.1733   -1.3847   -0.4840 N   0  0  0  0  0  2  0  0  0  0  0  0
    1.4552   -1.6111    0.0127 N   0  0  0  0  0  0  0  0  0  0  0  0
   -2.3622    0.5862    0.2783 C   0  0  0  0  0  0  0  0  0  0  0  0
   -3.5808    1.1610    0.7358 C   0  0  0  0  0  0  0  0  0  0  0  0
   -3.3580    2.5782    0.7717 C   0  0  2  0  0  3  0  0  0  0  0  0
   -2.8904    3.9291    0.6758 C   0  0  0  0  0  2  0  0  0  0  0  0
   -2.0445    2.7944    0.3341 C   0  0  2  0  0  3  0  0  0  0  0  0
    0.7775    1.4777    0.4909 C   0  0  0  0  0  0  0  0  0  0  0  0
    2.1780    0.8570    0.0591 C   0  0  1  0  0  0  0  0  0  0  0  0
    3.3193    1.6556    0.4534 C   0  0  0  0  0  3  0  0  0  0  0  0
    4.5480    1.1566    0.8897 C   0  0  0  0  0  0  0  0  0  0  0  0
    5.6906    1.9337    1.2278 C   0  0  0  0  0  3  0  0  0  0  0  0
    6.7726    1.3885    1.6369 C   0  0  0  0  0  3  0  0  0  0  0  0
    6.8814    0.0530    1.7904 C   0  0  0  0  0  3  0  0  0  0  0  0
    5.9624   -0.7997    1.5242 C   0  0  0  0  0  3  0  0  0  0  0  0
    4.7130   -0.3652    1.0595 C   0  0  0  0  0  0  0  0  0  0  0  0
    2.3629   -0.5866    0.2759 C   0  0  0  0  0  0  0  0  0  0  0  0
    3.5812   -1.1622    0.7332 C   0  0  0  0  0  0  0  0  0  0  0  0
    3.3581   -2.5794    0.7672 C   0  0  2  0  0  3  0  0  0  0  0  0
    2.8901   -3.9301    0.6694 C   0  0  0  0  0  2  0  0  0  0  0  0
    2.0447   -2.7947    0.3290 C   0  0  2  0  0  3  0  0  0  0  0  0
   -0.7768   -1.4788    0.4882 C   0  0  0  0  0  0  0  0  0  0  0  0
   -2.1772   -0.8569    0.0595 C   0  0  1  0  0  0  0  0  0  0  0  0
   -3.3183   -1.6562    0.4523 C   0  0  0  0  0  3  0  0  0  0  0  0
   -4.5475   -1.1580    0.8883 C   0  0  0  0  0  0  0  0  0  0  0  0
   -5.6902   -1.9358    1.2247 C   0  0  0  0  0  3  0  0  0  0  0  0
   -6.7725   -1.3913    1.6338 C   0  0  0  0  0  3  0  0  0  0  0  0
   -6.8816   -0.0560    1.7891 C   0  0  0  0  0  3  0  0  0  0  0  0
   -5.9625    0.7972    1.5248 C   0  0  0  0  0  3  0  0  0  0  0  0
   -4.7128    0.3634    1.0603 C   0  0  0  0  0  0  0  0  0  0  0  0
    2.1858    0.9411   -1.1570 H   0  0  0  0  0  0  0  0  0  0  0  0
    3.2091    2.7475    0.3819 H   0  0  0  0  0  0  0  0  0  0  0  0
   -2.1867   -0.9381   -1.1582 H   0  0  0  0  0  0  0  0  0  0  0  0
   -3.2077   -2.7480    0.3799 H   0  0  0  0  0  0  0  0  0  0  0  0
  3  4  1  0  0  0  0
  3 12  1  0  0  0  0
  4  7  1  0  0  0  0
  4 11  1  0  0  0  0
  5  6  1  0  0  0  0
  5 26  1  0  0  0  0
  6 21  1  0  0  0  0
  6 25  1  0  0  0  0
  7  8  2  0  0  0  0
  8  9  1  0  0  0  0
  8 34  1  0  0  0  0
  9 10  1  6  0  0  0
 11 10  1  6  0  0  0
 11  9  1  0  0  0  0
 12  1  2  0  0  0  0
 13 35  1  6  0  0  0
 13 21  1  0  0  0  0
 13 14  1  0  0  0  0
 13 12  1  0  0  0  0
 14 15  1  0  0  0  0
 15 20  2  0  0  0  0
 15 16  1  0  0  0  0
 16 17  2  0  0  0  0
 17 18  1  0  0  0  0
 19 18  2  0  0  0  0
 20 19  1  0  0  0  0
 21 22  2  0  0  0  0
 22 23  1  0  0  0  0
 22 20  1  0  0  0  0
 23 24  1  6  0  0  0
 25 24  1  6  0  0  0
 25 23  1  0  0  0  0
 26  2  2  0  0  0  0
 27 37  1  6  0  0  0
 27  7  1  0  0  0  0
 27 28  1  0  0  0  0
 27 26  1  0  0  0  0
 28 29  1  0  0  0  0
 29 34  2  0  0  0  0
 29 30  1  0  0  0  0
 30 31  2  0  0  0  0
 31 32  1  0  0  0  0
 33 32  2  0  0  0  0
 34 33  1  0  0  0  0
 36 14  1  0  0  0  0
 38 28  1  0  0  0  0
M  END
