1,2
q = 0.0, confidence = 1.0

 22 22  0  0  1  0  0  0  0  0999 V2000
   -1.3198    0.1626   -0.3807 N   0  0  0  0  0  2  0  0  0  0  0  0
    1.1906    1.5086   -1.0565 N   0  0  0  0  0  2  0  0  0  0  0  0
    2.1406    1.7190   -1.3793 H   0  0  0  0  0  0  0  0  0  0  0  0
   -0.8869    2.4961   -0.6225 N   0  0  0  0  0  0  0  0  0  0  0  0
   -1.3374    3.4046   -0.5181 H   0  0  0  0  0  0  0  0  0  0  0  0
   -3.5994   -0.5192    0.0280 N   0  0  0  0  0  0  0  0  0  0  0  0
   -1.7370    1.4350   -0.3700 C   0  0  0  0  0  0  0  0  0  0  0  0
   -3.9952    0.7750    0.0985 C   0  0  0  0  0  3  0  0  0  0  0  0
   -5.0548    0.9590    0.3280 H   0  0  0  0  0  0  0  0  0  0  0  0
   -3.1001    1.7909   -0.1240 C   0  0  0  0  0  0  0  0  0  0  0  0
   -3.4225    2.8388   -0.0929 H   0  0  0  0  0  0  0  0  0  0  0  0
    0.4423    2.5635   -1.0069 C   0  0  1  0  0  3  0  0  0  0  0  0
   -2.2491   -0.8819   -0.2674 C   0  0  0  0  0  0  0  0  0  0  0  0
   -1.9755   -2.0638   -0.3882 O   0  0  0  0  0  0  0  0  0  0  0  0
   -4.5210   -1.6325    0.2336 C   0  0  0  0  0  0  0  0  0  0  0  0
   -5.5205   -1.2333    0.4829 H   0  0  0  0  0  0  0  0  0  0  0  0
   -4.1514   -2.2781    1.0532 H   0  0  0  0  0  0  0  0  0  0  0  0
   -4.5725   -2.2550   -0.6805 H   0  0  0  0  0  0  0  0  0  0  0  0
    0.9250    3.9542   -1.3149 C   0  0  0  0  0  0  0  0  0  0  0  0
    0.2640    4.4674   -2.0433 H   0  0  0  0  0  0  0  0  0  0  0  0
    1.9494    3.9274   -1.7275 H   0  0  0  0  0  0  0  0  0  0  0  0
    0.9493    4.5570   -0.3821 H   0  0  0  0  0  0  0  0  0  0  0  0
  1  7  1  0  0  0  0
  1 13  1  0  0  0  0
  3  2  1  0  0  0  0
  4  5  1  0  0  0  0
  4  7  1  0  0  0  0
  6  8  1  0  0  0  0
  6 15  1  0  0  0  0
  7 10  2  0  0  0  0
  8  9  1  0  0  0  0
 10 11  1  0  0  0  0
 10  8  1  0  0  0  0
 12  2  1  1  0  0  0
 12  4  1  0  0  0  0
 13  6  1  0  0  0  0
 14 13  2  0  0  0  0
 15 16  1  0  0  0  0
 15 17  1  0  0  0  0
 18 15  1  0  0  0  0
 19 12  1  0  0  0  0
 19 22  1  0  0  0  0
 20 19  1  0  0  0  0
 21 19  1  0  0  0  0
M  END
