1,26
q = 0.0, confidence = 0.992

 26 28  0  0  0  0  0  0  0  0999 V2000
    0.3913    1.4892    0.0495 N   0  0  0  0  0  2  0  0  0  0  0  0
   -0.4778    2.5108    0.2469 C   0  0  0  0  0  0  0  0  0  0  0  0
    0.2182    3.6940    0.5860 C   0  0  0  0  0  0  0  0  0  0  0  0
   -0.2134    4.6772    0.7938 H   0  0  0  0  0  0  0  0  0  0  0  0
    1.5573    3.3279    0.5694 C   0  0  0  0  0  0  0  0  0  0  0  0
    2.4826    3.8865    0.7422 H   0  0  0  0  0  0  0  0  0  0  0  0
    1.6242    1.9981    0.2257 N   0  0  0  0  0  0  0  0  0  0  0  0
    2.8306    1.2894   -0.0922 C   0  0  0  0  0  0  0  0  0  0  0  0
    3.8597    1.5840    0.7025 N   0  0  0  0  0  0  0  0  0  0  0  0
    5.0325    0.9888    0.4355 C   0  0  0  0  0  0  0  0  0  0  0  0
    5.8748    1.2485    1.0986 H   0  0  0  0  0  0  0  0  0  0  0  0
    5.2039    0.0809   -0.6243 C   0  0  0  0  0  0  0  0  0  0  0  0
    6.1842   -0.3845   -0.8016 H   0  0  0  0  0  0  0  0  0  0  0  0
    4.1070   -0.1918   -1.4560 C   0  0  0  0  0  0  0  0  0  0  0  0
    4.2084   -0.8711   -2.3158 H   0  0  0  0  0  0  0  0  0  0  0  0
    2.8749    0.4289   -1.2007 C   0  0  0  0  0  0  0  0  0  0  0  0
    1.9911    0.2669   -1.8399 H   0  0  0  0  0  0  0  0  0  0  0  0
   -1.8725    2.1934    0.0039 C   0  0  0  0  0  0  0  0  0  0  0  0
   -2.8142    3.1380    0.0087 N   0  0  0  0  0  0  0  0  0  0  0  0
   -4.0520    2.7723   -0.3515 C   0  0  0  0  0  0  0  0  0  0  0  0
   -4.8282    3.5559   -0.3258 H   0  0  0  0  0  0  0  0  0  0  0  0
   -4.3541    1.4629   -0.7659 C   0  0  0  0  0  0  0  0  0  0  0  0
   -5.3578    1.1801   -1.1111 H   0  0  0  0  0  0  0  0  0  0  0  0
   -3.3219    0.5230   -0.7203 C   0  0  0  0  0  0  0  0  0  0  0  0
   -3.4570   -0.5222   -1.0321 H   0  0  0  0  0  0  0  0  0  0  0  0
   -2.0914    0.8701   -0.2889 N   0  0  0  0  0  2  0  0  0  0  0  0
  1  7  1  0  0  0  0
  1  2  1  0  0  0  0
  2  3  1  0  0  0  0
  3  4  1  0  0  0  0
  5  3  2  0  0  0  0
  5  6  1  0  0  0  0
  7  5  1  0  0  0  0
  8  7  1  0  0  0  0
  8  9  1  0  0  0  0
 10  9  2  0  0  0  0
 10 11  1  0  0  0  0
 12 10  1  0  0  0  0
 13 12  1  0  0  0  0
 14 16  1  0  0  0  0
 14 12  2  0  0  0  0
 15 14  1  0  0  0  0
 16  8  2  0  0  0  0
 17 16  1  0  0  0  0
 18 19  1  0  0  0  0
 18  2  2  0  0  0  0
 20 21  1  0  0  0  0
 20 19  2  0  0  0  0
 22 24  2  0  0  0  0
 22 20  1  0  0  0  0
 23 22  1  0  0  0  0
 24 26  1  0  0  0  0
 25 24  1  0  0  0  0
 26 18  1  0  0  0  0
M  END
