4,5
q = 0.0, confidence = 0.996

 30 31  0  0  1  0  0  0  0  0999 V2000
    3.9342    2.7320   -0.8153 Cl  0  0  0  0  0  0  0  0  0  0  0  0
   -3.2628    2.3681   -0.4154 O   0  0  0  0  0  0  0  0  0  0  0  0
   -1.3036    3.0086    0.5578 O   0  0  0  0  0  0  0  0  0  0  0  0
    1.8902   -1.5118    0.4322 N   0  0  0  0  0  2  0  0  0  0  0  0
    0.6401    0.5836   -0.5989 N   0  0  0  0  0  2  0  0  0  0  0  0
    0.2138    1.6967   -1.1959 N   0  0  0  0  0  0  0  0  0  0  0  0
    2.4432   -2.6174    0.9560 C   0  0  0  0  0  3  0  0  0  0  0  0
    1.7560   -3.4643    1.1051 H   0  0  0  0  0  0  0  0  0  0  0  0
    3.8004   -2.6908    1.2928 C   0  0  0  0  0  0  0  0  0  0  0  0
    4.2086   -3.6190    1.7168 H   0  0  0  0  0  0  0  0  0  0  0  0
    4.6064   -1.5642    1.0782 C   0  0  0  0  0  0  0  0  0  0  0  0
    5.6765   -1.5813    1.3330 H   0  0  0  0  0  0  0  0  0  0  0  0
    4.0330   -0.4104    0.5330 C   0  0  0  0  0  0  0  0  0  0  0  0
    4.6288    0.4923    0.3482 H   0  0  0  0  0  0  0  0  0  0  0  0
    2.6613   -0.4140    0.2153 C   0  0  0  0  0  0  0  0  0  0  0  0
    1.9591    0.7254   -0.3725 C   0  0  1  0  0  3  0  0  0  0  0  0
    2.3687    2.0115   -0.8370 C   0  0  0  0  0  0  0  0  0  0  0  0
    1.2195    2.6060   -1.3549 C   0  0  0  0  0  0  0  0  0  0  0  0
    1.0599    3.5880   -1.8092 H   0  0  0  0  0  0  0  0  0  0  0  0
   -1.1890    1.8490   -1.5172 C   0  0  0  0  0  0  0  0  0  0  0  0
   -1.5895    0.8489   -1.7684 H   0  0  0  0  0  0  0  0  0  0  0  0
   -1.2888    2.5044   -2.4048 H   0  0  0  0  0  0  0  0  0  0  0  0
   -2.0477    2.4232   -0.3898 C   0  0  0  0  0  0  0  0  0  0  0  0
   -2.0048    3.5678    1.7022 C   0  0  0  0  0  0  0  0  0  0  0  0
   -1.4098    4.4603    1.9784 H   0  0  0  0  0  0  0  0  0  0  0  0
   -3.0133    3.8859    1.3700 H   0  0  0  0  0  0  0  0  0  0  0  0
   -2.0742    2.5646    2.8375 C   0  0  0  0  0  0  0  0  0  0  0  0
   -2.5322    3.0429    3.7268 H   0  0  0  0  0  0  0  0  0  0  0  0
   -1.0657    2.1956    3.1042 H   0  0  0  0  0  0  0  0  0  0  0  0
   -2.6852    1.6850    2.5580 H   0  0  0  0  0  0  0  0  0  0  0  0
  2 23  2  0  0  0  0
  3 24  1  0  0  0  0
  4  7  1  0  0  0  0
  5 16  1  0  0  0  0
  6  5  1  0  0  0  0
  7  8  1  0  0  0  0
  7  9  1  0  0  0  0
  9 10  1  0  0  0  0
 11  9  2  0  0  0  0
 11 12  1  0  0  0  0
 13 11  1  0  0  0  0
 14 13  1  0  0  0  0
 15  4  1  0  0  0  0
 15 13  2  0  0  0  0
 16 15  1  6  0  0  0
 17  1  1  0  0  0  0
 17 16  1  0  0  0  0
 18  6  1  0  0  0  0
 18 17  2  0  0  0  0
 19 18  1  0  0  0  0
 20  6  1  0  0  0  0
 20 23  1  0  0  0  0
 21 20  1  0  0  0  0
 22 20  1  0  0  0  0
 23  3  1  0  0  0  0
 24 25  1  0  0  0  0
 24 27  1  0  0  0  0
 26 24  1  0  0  0  0
 27 29  1  0  0  0  0
 27 28  1  0  0  0  0
 30 27  1  0  0  0  0
M  END
