2,3
q = -2.0, confidence = 0.834

 41 41  0  0  0  0  0  0  0  0999 V2000
    0.1942    1.2057   -0.0007 Si  0  0  0  0  0  0  0  0  0  0  0  0
   -1.2518    0.1577    0.1462 N   0  0  0  0  0  2  0  0  0  0  0  0
    1.2350   -0.2450   -0.1502 N   0  0  0  0  0  2  0  0  0  0  0  0
    0.5517    2.4343    1.4091 C   0  0  0  0  0  0  0  0  0  0  0  0
   -0.3965    2.6294    1.9527 H   0  0  0  0  0  0  0  0  0  0  0  0
    1.2765    2.0590    2.1566 H   0  0  0  0  0  0  0  0  0  0  0  0
    1.0230    3.6990    0.6594 C   0  0  0  0  0  0  0  0  0  0  0  0
    0.9330    4.6133    1.2823 H   0  0  0  0  0  0  0  0  0  0  0  0
    2.1026    3.6008    0.4057 H   0  0  0  0  0  0  0  0  0  0  0  0
    0.2142    3.8365   -0.6516 C   0  0  0  0  0  0  0  0  0  0  0  0
    0.5977    4.6730   -1.2722 H   0  0  0  0  0  0  0  0  0  0  0  0
   -0.8381    4.0954   -0.3968 H   0  0  0  0  0  0  0  0  0  0  0  0
    0.2455    2.4896   -1.4060 C   0  0  0  0  0  0  0  0  0  0  0  0
    1.2013    2.3681   -1.9576 H   0  0  0  0  0  0  0  0  0  0  0  0
   -0.5673    2.3726   -2.1480 H   0  0  0  0  0  0  0  0  0  0  0  0
   -2.6972    0.4335    0.1267 C   0  0  0  0  0  0  0  0  0  0  0  0
   -3.0311    1.5880    1.0872 C   0  0  0  0  0  0  0  0  0  0  0  0
   -2.5482    2.5320    0.7606 H   0  0  0  0  0  0  0  0  0  0  0  0
   -2.6872    1.3552    2.1147 H   0  0  0  0  0  0  0  0  0  0  0  0
   -4.1251    1.7646    1.1164 H   0  0  0  0  0  0  0  0  0  0  0  0
   -3.1298    0.7871   -1.3097 C   0  0  0  0  0  0  0  0  0  0  0  0
   -2.6634    1.7350   -1.6441 H   0  0  0  0  0  0  0  0  0  0  0  0
   -4.2303    0.9099   -1.3681 H   0  0  0  0  0  0  0  0  0  0  0  0
   -2.8236   -0.0176   -2.0071 H   0  0  0  0  0  0  0  0  0  0  0  0
   -3.4147   -0.8528    0.5816 C   0  0  0  0  0  0  0  0  0  0  0  0
   -4.5132   -0.7077    0.6033 H   0  0  0  0  0  0  0  0  0  0  0  0
   -3.0756   -1.1513    1.5935 H   0  0  0  0  0  0  0  0  0  0  0  0
   -3.1949   -1.6839   -0.1212 H   0  0  0  0  0  0  0  0  0  0  0  0
    2.6933   -0.4413   -0.1383 C   0  0  0  0  0  0  0  0  0  0  0  0
    3.3674    0.5283   -1.1246 C   0  0  0  0  0  0  0  0  0  0  0  0
    2.9561    0.3976   -2.1453 H   0  0  0  0  0  0  0  0  0  0  0  0
    4.4603    0.3468   -1.1619 H   0  0  0  0  0  0  0  0  0  0  0  0
    3.2133    1.5830   -0.8166 H   0  0  0  0  0  0  0  0  0  0  0  0
    2.9625   -1.8975   -0.5669 C   0  0  0  0  0  0  0  0  0  0  0  0
    4.0502   -2.1088   -0.5927 H   0  0  0  0  0  0  0  0  0  0  0  0
    2.5392   -2.0925   -1.5725 H   0  0  0  0  0  0  0  0  0  0  0  0
    2.4956   -2.6023    0.1529 H   0  0  0  0  0  0  0  0  0  0  0  0
    3.2282   -0.2147    1.2891 C   0  0  0  0  0  0  0  0  0  0  0  0
    3.0909    0.8390    1.6036 H   0  0  0  0  0  0  0  0  0  0  0  0
    4.3110   -0.4475    1.3427 H   0  0  0  0  0  0  0  0  0  0  0  0
    2.6881   -0.8660    2.0045 H   0  0  0  0  0  0  0  0  0  0  0  0
  1  2  1  0  0  0  0
  1  4  1  0  0  0  0
  3 29  1  0  0  0  0
  3  1  1  0  0  0  0
  4  5  1  0  0  0  0
  4  6  1  0  0  0  0
  7  8  1  0  0  0  0
  7  4  1  0  0  0  0
  9  7  1  0  0  0  0
 10 12  1  0  0  0  0
 10  7  1  0  0  0  0
 11 10  1  0  0  0  0
 13 10  1  0  0  0  0
 13  1  1  0  0  0  0
 14 13  1  0  0  0  0
 15 13  1  0  0  0  0
 16  2  1  0  0  0  0
 16 25  1  0  0  0  0
 16 17  1  0  0  0  0
 17 20  1  0  0  0  0
 17 19  1  0  0  0  0
 18 17  1  0  0  0  0
 21 16  1  0  0  0  0
 22 21  1  0  0  0  0
 23 21  1  0  0  0  0
 24 21  1  0  0  0  0
 25 26  1  0  0  0  0
 25 27  1  0  0  0  0
 28 25  1  0  0  0  0
 29 38  1  0  0  0  0
 30 33  1  0  0  0  0
 30 29  1  0  0  0  0
 31 30  1  0  0  0  0
 32 30  1  0  0  0  0
 34 29  1  0  0  0  0
 34 37  1  0  0  0  0
 35 34  1  0  0  0  0
 36 34  1  0  0  0  0
 38 40  1  0  0  0  0
 38 39  1  0  0  0  0
 38 41  1  0  0  0  0
M  END
