1,8
q = -1.0, confidence = 0.008

  9  8  0  0  0  0  0  0  0  0999 V2000
   -1.3514   -1.3025    0.0001 N   0  0  0  0  0  2  0  0  0  0  0  0
   -1.0775   -2.2936    0.0013 H   0  0  0  0  0  0  0  0  0  0  0  0
   -2.6687   -1.1443   -0.0015 C   0  0  0  0  0  3  0  0  0  0  0  0
   -3.2781   -2.0714   -0.0022 H   0  0  0  0  0  0  0  0  0  0  0  0
   -3.3515    0.0000   -0.0022 N   0  0  0  0  0  0  0  0  0  0  0  0
   -2.6687    1.1443    0.0005 C   0  0  0  0  0  0  0  0  0  0  0  0
   -3.2781    2.0714    0.0012 H   0  0  0  0  0  0  0  0  0  0  0  0
   -1.3514    1.3025    0.0030 N   0  0  0  0  0  2  0  0  0  0  0  0
   -1.0775    2.2936    0.0063 H   0  0  0  0  0  0  0  0  0  0  0  0
  1  2  1  0  0  0  0
  3  1  1  0  0  0  0
  4  3  1  0  0  0  0
  5  3  1  0  0  0  0
  5  6  2  0  0  0  0
  6  7  1  0  0  0  0
  6  8  1  0  0  0  0
  8  9  1  0  0  0  0
M  END
