1,11
q = 0.0, confidence = 0.998

 30 32  0  0  0  0  0  0  0  0999 V2000
   -2.2360    0.8218    0.0001 N   0  0  0  0  0  2  0  0  0  0  0  0
   -3.5738    0.9865    0.0003 C   0  0  0  0  0  0  0  0  0  0  0  0
   -4.1443    0.0401    0.0005 H   0  0  0  0  0  0  0  0  0  0  0  0
   -4.1623    2.2569    0.0002 C   0  0  0  0  0  0  0  0  0  0  0  0
   -5.2580    2.3420    0.0003 H   0  0  0  0  0  0  0  0  0  0  0  0
   -3.3415    3.3965   -0.0002 C   0  0  0  0  0  0  0  0  0  0  0  0
   -3.7787    4.4057   -0.0003 H   0  0  0  0  0  0  0  0  0  0  0  0
   -1.9522    3.2294   -0.0004 C   0  0  0  0  0  0  0  0  0  0  0  0
   -1.2823    4.1016   -0.0008 H   0  0  0  0  0  0  0  0  0  0  0  0
   -1.4221    1.9270   -0.0002 C   0  0  0  0  0  0  0  0  0  0  0  0
    0.3463    0.2869   -0.0006 N   0  0  0  0  0  2  0  0  0  0  0  0
   -0.0171    1.5811   -0.0004 C   0  0  0  0  0  0  0  0  0  0  0  0
    1.0843    2.4007    0.0001 N   0  0  0  0  0  0  0  0  0  0  0  0
    1.0730    3.4192   -0.0002 H   0  0  0  0  0  0  0  0  0  0  0  0
    2.2130    1.5940    0.0001 C   0  0  0  0  0  0  0  0  0  0  0  0
    3.5847    1.8827    0.0004 C   0  0  0  0  0  0  0  0  0  0  0  0
    3.9540    2.9192    0.0008 H   0  0  0  0  0  0  0  0  0  0  0  0
    4.4855    0.8066    0.0003 C   0  0  0  0  0  0  0  0  0  0  0  0
    4.0069   -0.5513   -0.0001 C   0  0  0  0  0  0  0  0  0  0  0  0
    2.6345   -0.8260   -0.0004 C   0  0  0  0  0  0  0  0  0  0  0  0
    2.2300   -1.8495   -0.0008 H   0  0  0  0  0  0  0  0  0  0  0  0
    1.7319    0.2524   -0.0003 C   0  0  0  0  0  0  0  0  0  0  0  0
    5.9676    1.0747    0.0007 C   0  0  0  0  0  0  0  0  0  0  0  0
    6.1875    2.1591    0.0012 H   0  0  0  0  0  0  0  0  0  0  0  0
    6.4617    0.6262   -0.8869 H   0  0  0  0  0  0  0  0  0  0  0  0
    6.4613    0.6254    0.8881 H   0  0  0  0  0  0  0  0  0  0  0  0
    4.9948   -1.6898   -0.0001 C   0  0  0  0  0  0  0  0  0  0  0  0
    4.4768   -2.6666   -0.0013 H   0  0  0  0  0  0  0  0  0  0  0  0
    5.6588   -1.6561    0.8895 H   0  0  0  0  0  0  0  0  0  0  0  0
    5.6604   -1.6548   -0.8885 H   0  0  0  0  0  0  0  0  0  0  0  0
  1  2  1  0  0  0  0
  2  3  1  0  0  0  0
  4  2  2  0  0  0  0
  4  5  1  0  0  0  0
  6  4  1  0  0  0  0
  7  6  1  0  0  0  0
  8 10  1  0  0  0  0
  8  6  2  0  0  0  0
  9  8  1  0  0  0  0
 10  1  1  0  0  0  0
 11 12  1  0  0  0  0
 11 22  1  0  0  0  0
 12 10  2  0  0  0  0
 12 13  1  0  0  0  0
 13 15  1  0  0  0  0
 14 13  1  0  0  0  0
 15 16  1  0  0  0  0
 16 17  1  0  0  0  0
 18 16  2  0  0  0  0
 18 23  1  0  0  0  0
 19 18  1  0  0  0  0
 20 22  1  0  0  0  0
 20 19  2  0  0  0  0
 21 20  1  0  0  0  0
 22 15  2  0  0  0  0
 23 24  1  0  0  0  0
 23 26  1  0  0  0  0
 25 23  1  0  0  0  0
 27 19  1  0  0  0  0
 27 29  1  0  0  0  0
 28 27  1  0  0  0  0
 30 27  1  0  0  0  0
M  END
