1,11
q = 0.0, confidence = 0.982

 25 27  0  0  1  0  0  0  0  0999 V2000
    0.4815    1.2985    0.2852 N   0  0  0  0  0  2  0  0  0  0  0  0
   -0.4529    2.2737    0.1932 C   0  0  1  0  0  3  0  0  0  0  0  0
   -0.1594    3.5989   -0.1494 C   0  0  0  0  0  0  0  0  0  0  0  0
   -0.9558    4.3458   -0.2510 H   0  0  0  0  0  0  0  0  0  0  0  0
    1.1769    3.9209   -0.4185 C   0  0  0  0  0  0  0  0  0  0  0  0
    1.4460    4.9437   -0.7191 H   0  0  0  0  0  0  0  0  0  0  0  0
    2.1637    2.9431   -0.2907 C   0  0  0  0  0  0  0  0  0  0  0  0
    3.2287    3.1346   -0.4683 H   0  0  0  0  0  0  0  0  0  0  0  0
    1.7719    1.6468    0.0909 C   0  0  0  0  0  0  0  0  0  0  0  0
   -1.7802    1.8732    0.4560 N   0  0  0  0  0  0  0  0  0  0  0  0
   -2.0889    0.5498    0.4795 N   0  0  0  0  0  2  0  0  0  0  0  0
   -3.4006    0.4680    0.7338 C   0  0  0  0  0  3  0  0  0  0  0  0
   -3.8789   -0.5164    0.7842 H   0  0  0  0  0  0  0  0  0  0  0  0
   -3.9545    1.7633    0.8843 C   0  0  0  0  0  0  0  0  0  0  0  0
   -4.9936    2.0249    1.1052 H   0  0  0  0  0  0  0  0  0  0  0  0
   -2.8937    2.6386    0.7005 C   0  0  0  0  0  0  0  0  0  0  0  0
   -2.8410    3.7295    0.7504 H   0  0  0  0  0  0  0  0  0  0  0  0
    2.7622    0.6730    0.2959 N   0  0  0  0  0  0  0  0  0  0  0  0
    2.7935   -0.3268    1.2490 C   0  0  0  0  0  0  0  0  0  0  0  0
    1.9608   -0.4980    1.9357 H   0  0  0  0  0  0  0  0  0  0  0  0
    4.0222   -0.9469    1.1136 C   0  0  0  0  0  0  0  0  0  0  0  0
    4.3998   -1.7908    1.6995 H   0  0  0  0  0  0  0  0  0  0  0  0
    4.6701   -0.2428    0.0564 C   0  0  0  0  0  0  0  0  0  0  0  0
    5.6623   -0.4232   -0.3769 H   0  0  0  0  0  0  0  0  0  0  0  0
    3.9151    0.7435   -0.4248 N   0  0  0  0  0  0  0  0  0  0  0  0
  2  1  1  0  0  0  0
  2 10  1  6  0  0  0
  3  2  1  0  0  0  0
  4  3  1  0  0  0  0
  5  7  1  0  0  0  0
  5  3  2  0  0  0  0
  6  5  1  0  0  0  0
  7  9  2  0  0  0  0
  8  7  1  0  0  0  0
  9  1  1  0  0  0  0
  9 18  1  0  0  0  0
 10 11  1  0  0  0  0
 10 16  1  0  0  0  0
 11 12  1  0  0  0  0
 12 13  1  0  0  0  0
 12 14  1  0  0  0  0
 14 15  1  0  0  0  0
 16 17  1  0  0  0  0
 16 14  2  0  0  0  0
 18 19  1  0  0  0  0
 19 20  1  0  0  0  0
 21 19  2  0  0  0  0
 21 22  1  0  0  0  0
 23 21  1  0  0  0  0
 24 23  1  0  0  0  0
 25 23  2  0  0  0  0
 25 18  1  0  0  0  0
M  END
