30,31
q = -1.0, confidence = 0.018

 41 44  0  0  0  0  0  0  0  0999 V2000
   -0.5084    1.3315   -0.3820 C   0  0  0  0  0  0  0  0  0  0  0  0
    0.1481    0.0812   -0.4990 C   0  0  0  0  0  3  0  0  0  0  0  0
   -2.1564    2.8048   -0.5719 C   0  0  0  0  0  0  0  0  0  0  0  0
   -3.1872    3.1557   -0.7087 H   0  0  0  0  0  0  0  0  0  0  0  0
   -0.5106   -1.1197   -0.8614 C   0  0  0  0  0  0  0  0  0  0  0  0
    0.0711    2.6395   -0.2307 C   0  0  0  0  0  3  0  0  0  0  0  0
    1.1333    2.8512   -0.0710 H   0  0  0  0  0  0  0  0  0  0  0  0
   -0.9650    3.5626   -0.3771 C   0  0  0  0  0  0  0  0  0  0  0  0
   -0.8916    4.6562   -0.3586 H   0  0  0  0  0  0  0  0  0  0  0  0
    0.0933   -2.3367   -1.3356 C   0  0  0  0  0  0  0  0  0  0  0  0
    1.1706   -2.5269   -1.3893 H   0  0  0  0  0  0  0  0  0  0  0  0
   -2.1516   -2.4334   -1.5630 C   0  0  0  0  0  0  0  0  0  0  0  0
   -3.1839   -2.7283   -1.7899 H   0  0  0  0  0  0  0  0  0  0  0  0
   -0.9417   -3.1557   -1.7843 C   0  0  0  0  0  0  0  0  0  0  0  0
   -0.8579   -4.1457   -2.2475 H   0  0  0  0  0  0  0  0  0  0  0  0
    3.5694   -0.9353    0.8121 C   0  0  0  0  0  0  0  0  0  0  0  0
    4.0107   -1.6079    1.5616 H   0  0  0  0  0  0  0  0  0  0  0  0
    4.4336   -0.1389    0.0295 C   0  0  0  0  0  0  0  0  0  0  0  0
    3.8887    0.7316   -0.9369 C   0  0  0  0  0  0  0  0  0  0  0  0
    4.5364    1.3465   -1.5752 H   0  0  0  0  0  0  0  0  0  0  0  0
    1.6224    0.0216   -0.3223 C   0  0  0  0  0  0  0  0  0  0  0  0
    2.1886   -0.8599    0.6298 C   0  0  0  0  0  0  0  0  0  0  0  0
    1.5212   -1.4831    1.2432 H   0  0  0  0  0  0  0  0  0  0  0  0
    2.4978    0.8062   -1.0997 C   0  0  0  0  0  0  0  0  0  0  0  0
    2.0810    1.4687   -1.8720 H   0  0  0  0  0  0  0  0  0  0  0  0
    5.7646   -0.2821    0.2724 O   0  0  0  0  0  0  0  0  0  0  0  0
    6.6825    0.4927   -0.4776 C   0  0  0  0  0  0  0  0  0  0  0  0
    6.4941    1.5834   -0.3422 H   0  0  0  0  0  0  0  0  0  0  0  0
    6.5874    0.2849   -1.5692 H   0  0  0  0  0  0  0  0  0  0  0  0
   -1.8860    1.4893   -0.5549 N   0  0  0  0  0  0  0  0  0  0  0  0
   -1.8936   -1.2378   -1.0087 N   0  0  0  0  0  2  0  0  0  0  0  0
    8.0976    0.1847   -0.0449 C   0  0  0  0  0  0  0  0  0  0  0  0
   10.3229    0.6678   -0.3734 C   0  0  0  0  0  0  0  0  0  0  0  0
   11.0755    1.2576   -0.9274 H   0  0  0  0  0  0  0  0  0  0  0  0
   10.7284   -0.2494    0.6111 C   0  0  0  0  0  0  0  0  0  0  0  0
   11.7957   -0.3882    0.8383 H   0  0  0  0  0  0  0  0  0  0  0  0
    8.3919   -0.7572    0.9566 C   0  0  0  0  0  0  0  0  0  0  0  0
    7.5757   -1.2976    1.4540 H   0  0  0  0  0  0  0  0  0  0  0  0
    9.7373   -0.9743    1.2870 C   0  0  0  0  0  0  0  0  0  0  0  0
   10.0079   -1.7039    2.0658 H   0  0  0  0  0  0  0  0  0  0  0  0
    9.0414    0.8854   -0.6990 N   0  0  0  0  0  0  0  0  0  0  0  0
  1  6  1  0  0  0  0
  2  1  1  0  0  0  0
  2 21  1  0  0  0  0
  3 30  1  0  0  0  0
  3  8  2  0  0  0  0
  4  3  1  0  0  0  0
  5  2  1  0  0  0  0
  6  7  1  0  0  0  0
  8  9  1  0  0  0  0
  8  6  1  0  0  0  0
 10  5  2  0  0  0  0
 11 10  1  0  0  0  0
 12 31  1  0  0  0  0
 13 12  1  0  0  0  0
 14 12  2  0  0  0  0
 14 10  1  0  0  0  0
 15 14  1  0  0  0  0
 16 17  1  0  0  0  0
 18 26  1  0  0  0  0
 18 16  2  0  0  0  0
 19 18  1  0  0  0  0
 20 19  1  0  0  0  0
 21 22  2  0  0  0  0
 22 16  1  0  0  0  0
 22 23  1  0  0  0  0
 24 19  2  0  0  0  0
 24 21  1  0  0  0  0
 25 24  1  0  0  0  0
 27 28  1  0  0  0  0
 27 32  1  0  0  0  0
 27 26  1  0  0  0  0
 29 27  1  0  0  0  0
 30  1  2  0  0  0  0
 31  5  1  0  0  0  0
 32 37  1  0  0  0  0
 33 35  2  0  0  0  0
 34 33  1  0  0  0  0
 35 36  1  0  0  0  0
 35 39  1  0  0  0  0
 37 39  2  0  0  0  0
 37 38  1  0  0  0  0
 39 40  1  0  0  0  0
 41 33  1  0  0  0  0
 41 32  2  0  0  0  0
M  END
