10,16
q = 0.0, confidence = 0.994

 20 19  0  0  1  0  0  0  0  0999 V2000
    5.0431   -0.5408   -0.3970 C   0  0  0  0  0  0  0  0  0  0  0  0
    5.5428   -1.1802   -1.1544 H   0  0  0  0  0  0  0  0  0  0  0  0
    5.6718   -0.5387    0.5193 H   0  0  0  0  0  0  0  0  0  0  0  0
    4.9929    0.4830   -0.8075 H   0  0  0  0  0  0  0  0  0  0  0  0
    3.7027   -1.0508   -0.1253 N   0  0  0  0  0  0  0  0  0  0  0  0
    3.5857   -2.4871    0.0889 C   0  0  0  0  0  0  0  0  0  0  0  0
    4.4818   -2.8431    0.6330 H   0  0  0  0  0  0  0  0  0  0  0  0
    3.5160   -3.0576   -0.8647 H   0  0  0  0  0  0  0  0  0  0  0  0
    2.6991   -2.7035    0.7159 H   0  0  0  0  0  0  0  0  0  0  0  0
    1.3828   -0.7875   -0.4569 N   0  0  0  0  0  2  0  0  0  0  0  0
    1.3907   -1.7649   -0.7607 H   0  0  0  0  0  0  0  0  0  0  0  0
    2.5733   -0.2918   -0.2177 C   0  0  1  0  0  3  0  0  0  0  0  0
    2.7543    1.0756   -0.0119 N   0  0  0  0  0  0  0  0  0  0  0  0
    3.4799    1.3240    0.6649 H   0  0  0  0  0  0  0  0  0  0  0  0
    1.8311    2.0853   -0.2650 C   0  0  1  0  0  3  0  0  0  0  0  0
    0.5664    1.8328   -0.4687 N   0  0  0  0  0  2  0  0  0  0  0  0
    0.0216    2.6442   -0.7784 H   0  0  0  0  0  0  0  0  0  0  0  0
    2.3699    3.3363   -0.2408 N   0  0  0  0  0  0  0  0  0  0  0  0
    1.7584    4.1515   -0.2566 H   0  0  0  0  0  0  0  0  0  0  0  0
    3.3460    3.4854   -0.4968 H   0  0  0  0  0  0  0  0  0  0  0  0
  1  5  1  0  0  0  0
  1  3  1  0  0  0  0
  2  1  1  0  0  0  0
  4  1  1  0  0  0  0
  5  6  1  0  0  0  0
  6  7  1  0  0  0  0
  6  9  1  0  0  0  0
  8  6  1  0  0  0  0
 11 10  1  0  0  0  0
 12 10  1  1  0  0  0
 12  5  1  0  0  0  0
 12 13  1  0  0  0  0
 13 14  1  0  0  0  0
 15 16  1  1  0  0  0
 15 18  1  0  0  0  0
 15 13  1  0  0  0  0
 17 16  1  0  0  0  0
 19 18  1  0  0  0  0
 20 18  1  0  0  0  0
M  END
