1,2
q = 0.0, confidence = 0.992

 54 58  0  0  0  0  0  0  0  0999 V2000
    0.5290   -0.1313   -0.0333 N   0  0  0  0  0  2  0  0  0  0  0  0
   -2.1405   -0.4739    0.0996 N   0  0  0  0  0  2  0  0  0  0  0  0
   -0.2121    0.9355   -0.1987 C   0  0  0  0  0  0  0  0  0  0  0  0
   -1.6842    0.7382   -0.1339 C   0  0  0  0  0  0  0  0  0  0  0  0
   -2.3357    2.0222   -0.4072 C   0  0  0  0  0  0  0  0  0  0  0  0
   -3.6536    2.4695   -0.4995 C   0  0  0  0  0  0  0  0  0  0  0  0
   -4.5008    1.7919   -0.3279 H   0  0  0  0  0  0  0  0  0  0  0  0
   -3.8849    3.8360   -0.8254 C   0  0  0  0  0  0  0  0  0  0  0  0
   -4.9248    4.1887   -0.8969 H   0  0  0  0  0  0  0  0  0  0  0  0
   -2.8463    4.7369   -1.0600 C   0  0  0  0  0  0  0  0  0  0  0  0
   -3.0700    5.7845   -1.3137 H   0  0  0  0  0  0  0  0  0  0  0  0
   -1.4858    4.3086   -0.9780 C   0  0  0  0  0  0  0  0  0  0  0  0
   -0.3190    5.0984   -1.2058 C   0  0  0  0  0  0  0  0  0  0  0  0
   -0.4255    6.1626   -1.4668 H   0  0  0  0  0  0  0  0  0  0  0  0
    0.9491    4.5276   -1.0988 C   0  0  0  0  0  0  0  0  0  0  0  0
    1.8361    5.1535   -1.2773 H   0  0  0  0  0  0  0  0  0  0  0  0
    1.1461    3.1604   -0.7560 C   0  0  0  0  0  0  0  0  0  0  0  0
    2.1693    2.7725   -0.6673 H   0  0  0  0  0  0  0  0  0  0  0  0
    0.0283    2.3573   -0.5245 C   0  0  0  0  0  0  0  0  0  0  0  0
   -1.2705    2.9487   -0.6425 C   0  0  0  0  0  0  0  0  0  0  0  0
    1.9309   -0.1080    0.0084 C   0  0  0  0  0  0  0  0  0  0  0  0
    2.6246    0.7856    0.8461 C   0  0  0  0  0  0  0  0  0  0  0  0
    2.0644    1.4797    1.4880 H   0  0  0  0  0  0  0  0  0  0  0  0
    4.0266    0.7799    0.8684 C   0  0  0  0  0  0  0  0  0  0  0  0
    4.7493   -0.1341    0.0880 C   0  0  0  0  0  0  0  0  0  0  0  0
    5.8471   -0.1314    0.1055 H   0  0  0  0  0  0  0  0  0  0  0  0
    4.0511   -1.0547   -0.7109 C   0  0  0  0  0  0  0  0  0  0  0  0
    2.6515   -1.0565   -0.7506 C   0  0  0  0  0  0  0  0  0  0  0  0
    2.1043   -1.7793   -1.3673 H   0  0  0  0  0  0  0  0  0  0  0  0
   -3.5513   -0.6764    0.1704 C   0  0  0  0  0  0  0  0  0  0  0  0
   -4.2259   -0.4368    1.3792 C   0  0  0  0  0  0  0  0  0  0  0  0
   -3.6512   -0.1051    2.2568 H   0  0  0  0  0  0  0  0  0  0  0  0
   -5.6194   -0.6157    1.4556 C   0  0  0  0  0  0  0  0  0  0  0  0
   -6.3079   -1.0364    0.2998 C   0  0  0  0  0  0  0  0  0  0  0  0
   -7.4003   -1.1726    0.3486 H   0  0  0  0  0  0  0  0  0  0  0  0
   -5.6410   -1.3005   -0.9121 C   0  0  0  0  0  0  0  0  0  0  0  0
   -4.2455   -1.1202   -0.9654 C   0  0  0  0  0  0  0  0  0  0  0  0
   -3.6858   -1.3132   -1.8927 H   0  0  0  0  0  0  0  0  0  0  0  0
    4.7385    1.8385    1.6757 C   0  0  0  0  0  0  0  0  0  0  0  0
    4.8240   -2.0980   -1.4887 C   0  0  0  0  0  0  0  0  0  0  0  0
   -6.3491   -0.3919    2.7563 C   0  0  0  0  0  0  0  0  0  0  0  0
   -7.4186   -0.1578    2.5899 H   0  0  0  0  0  0  0  0  0  0  0  0
   -5.8985    0.4333    3.3423 H   0  0  0  0  0  0  0  0  0  0  0  0
   -6.3063   -1.3022    3.3921 H   0  0  0  0  0  0  0  0  0  0  0  0
   -6.3901   -1.7931   -2.1247 C   0  0  0  0  0  0  0  0  0  0  0  0
   -6.0476   -1.2869   -3.0494 H   0  0  0  0  0  0  0  0  0  0  0  0
   -7.4809   -1.6328   -2.0248 H   0  0  0  0  0  0  0  0  0  0  0  0
   -6.2249   -2.8814   -2.2735 H   0  0  0  0  0  0  0  0  0  0  0  0
    6.0129   -1.6075   -1.9221 F   0  0  0  0  0  0  0  0  0  0  0  0
    5.0956   -3.1793   -0.7235 F   0  0  0  0  0  0  0  0  0  0  0  0
    4.1382   -2.5272   -2.5713 F   0  0  0  0  0  0  0  0  0  0  0  0
    4.6809    3.0425    1.0371 F   0  0  0  0  0  0  0  0  0  0  0  0
    6.0429    1.5508    1.8679 F   0  0  0  0  0  0  0  0  0  0  0  0
    4.1662    2.0150    2.8892 F   0  0  0  0  0  0  0  0  0  0  0  0
  1 21  1  0  0  0  0
  2 30  1  0  0  0  0
  3  4  2  0  0  0  0
  3  1  1  0  0  0  0
  4  2  1  0  0  0  0
  5  4  1  0  0  0  0
  6  5  1  0  0  0  0
  6  7  1  0  0  0  0
  8  6  2  0  0  0  0
  9  8  1  0  0  0  0
 10 12  2  0  0  0  0
 10  8  1  0  0  0  0
 11 10  1  0  0  0  0
 12 20  1  0  0  0  0
 13 15  2  0  0  0  0
 13 12  1  0  0  0  0
 14 13  1  0  0  0  0
 15 17  1  0  0  0  0
 16 15  1  0  0  0  0
 17 18  1  0  0  0  0
 17 19  2  0  0  0  0
 19  3  1  0  0  0  0
 20 19  1  0  0  0  0
 20  5  2  0  0  0  0
 21 22  1  0  0  0  0
 22 24  2  0  0  0  0
 22 23  1  0  0  0  0
 24 39  1  0  0  0  0
 25 26  1  0  0  0  0
 25 24  1  0  0  0  0
 27 25  2  0  0  0  0
 28 27  1  0  0  0  0
 28 21  2  0  0  0  0
 29 28  1  0  0  0  0
 30 31  1  0  0  0  0
 31 33  2  0  0  0  0
 31 32  1  0  0  0  0
 33 41  1  0  0  0  0
 34 35  1  0  0  0  0
 34 33  1  0  0  0  0
 36 34  2  0  0  0  0
 37 36  1  0  0  0  0
 37 30  2  0  0  0  0
 38 37  1  0  0  0  0
 39 53  1  0  0  0  0
 39 54  1  0  0  0  0
 40 50  1  0  0  0  0
 40 27  1  0  0  0  0
 41 43  1  0  0  0  0
 41 44  1  0  0  0  0
 42 41  1  0  0  0  0
 45 47  1  0  0  0  0
 45 36  1  0  0  0  0
 46 45  1  0  0  0  0
 48 45  1  0  0  0  0
 49 40  1  0  0  0  0
 51 40  1  0  0  0  0
 52 39  1  0  0  0  0
M  END
