4,5
q = -1.0, confidence = 0.002

 38 40  0  0  0  0  0  0  0  0999 V2000
    2.4288   -0.5332    1.8708 F   0  0  0  0  0  0  0  0  0  0  0  0
    0.1618    3.1513    1.8575 F   0  0  0  0  0  0  0  0  0  0  0  0
    3.8825    2.4416    1.2699 F   0  0  0  0  0  0  0  0  0  0  0  0
    0.4860   -0.5702   -0.1544 N   0  0  0  0  0  2  0  0  0  0  0  0
   -0.7739    1.1780    0.0799 N   0  0  0  0  0  2  0  0  0  0  0  0
    1.6085    1.5747    0.0767 N   0  0  0  0  0  0  0  0  0  0  0  0
    1.5736    2.3442    0.7517 H   0  0  0  0  0  0  0  0  0  0  0  0
    0.5047    0.7580    0.0360 C   0  0  0  0  0  3  0  0  0  0  0  0
    1.5014   -1.5099   -0.0939 C   0  0  0  0  0  0  0  0  0  0  0  0
    1.5504   -2.5659   -1.0338 C   0  0  0  0  0  0  0  0  0  0  0  0
    0.7872   -2.5655   -1.8265 H   0  0  0  0  0  0  0  0  0  0  0  0
    2.5547   -3.5392   -0.9719 C   0  0  0  0  0  0  0  0  0  0  0  0
    2.5781   -4.3439   -1.7219 H   0  0  0  0  0  0  0  0  0  0  0  0
    3.5389   -3.4816    0.0300 C   0  0  0  0  0  0  0  0  0  0  0  0
    4.3356   -4.2384    0.0754 H   0  0  0  0  0  0  0  0  0  0  0  0
    3.5012   -2.4524    0.9843 C   0  0  0  0  0  0  0  0  0  0  0  0
    4.2435   -2.3795    1.7921 H   0  0  0  0  0  0  0  0  0  0  0  0
    2.4866   -1.4968    0.9236 C   0  0  0  0  0  0  0  0  0  0  0  0
   -1.2799    2.4679    0.0773 C   0  0  0  0  0  0  0  0  0  0  0  0
   -2.3494    2.8174   -0.7826 C   0  0  0  0  0  0  0  0  0  0  0  0
   -2.6861    2.0491   -1.4947 H   0  0  0  0  0  0  0  0  0  0  0  0
   -2.9149    4.0969   -0.7505 C   0  0  0  0  0  0  0  0  0  0  0  0
   -3.7362    4.3424   -1.4403 H   0  0  0  0  0  0  0  0  0  0  0  0
   -2.4326    5.0702    0.1423 C   0  0  0  0  0  0  0  0  0  0  0  0
   -2.8730    6.0775    0.1660 H   0  0  0  0  0  0  0  0  0  0  0  0
   -1.3786    4.7491    1.0119 C   0  0  0  0  0  0  0  0  0  0  0  0
   -0.9779    5.4726    1.7366 H   0  0  0  0  0  0  0  0  0  0  0  0
   -0.8323    3.4667    0.9739 C   0  0  0  0  0  0  0  0  0  0  0  0
    2.8443    1.2880   -0.5149 C   0  0  0  0  0  0  0  0  0  0  0  0
    2.9709    0.5772   -1.7260 C   0  0  0  0  0  0  0  0  0  0  0  0
    2.0579    0.2500   -2.2457 H   0  0  0  0  0  0  0  0  0  0  0  0
    4.2415    0.3033   -2.2498 C   0  0  0  0  0  0  0  0  0  0  0  0
    4.3230   -0.2617   -3.1898 H   0  0  0  0  0  0  0  0  0  0  0  0
    5.3995    0.7490   -1.5923 C   0  0  0  0  0  0  0  0  0  0  0  0
    6.3947    0.5345   -2.0080 H   0  0  0  0  0  0  0  0  0  0  0  0
    5.2871    1.4837   -0.4000 C   0  0  0  0  0  0  0  0  0  0  0  0
    6.1679    1.8574    0.1416 H   0  0  0  0  0  0  0  0  0  0  0  0
    4.0198    1.7373    0.1222 C   0  0  0  0  0  0  0  0  0  0  0  0
  4  9  1  0  0  0  0
  4  8  1  0  0  0  0
  6  7  1  0  0  0  0
  8  6  1  0  0  0  0
  8  5  1  0  0  0  0
  9 18  1  0  0  0  0
 10 12  1  0  0  0  0
 10  9  2  0  0  0  0
 11 10  1  0  0  0  0
 12 14  2  0  0  0  0
 13 12  1  0  0  0  0
 14 15  1  0  0  0  0
 14 16  1  0  0  0  0
 16 17  1  0  0  0  0
 18 16  2  0  0  0  0
 18  1  1  0  0  0  0
 19  5  1  0  0  0  0
 19 28  1  0  0  0  0
 20 22  1  0  0  0  0
 20 19  2  0  0  0  0
 21 20  1  0  0  0  0
 22 24  2  0  0  0  0
 23 22  1  0  0  0  0
 24 25  1  0  0  0  0
 24 26  1  0  0  0  0
 26 27  1  0  0  0  0
 28 26  2  0  0  0  0
 28  2  1  0  0  0  0
 29  6  1  0  0  0  0
 29 38  1  0  0  0  0
 30 29  2  0  0  0  0
 31 30  1  0  0  0  0
 32 30  1  0  0  0  0
 32 34  2  0  0  0  0
 33 32  1  0  0  0  0
 34 36  1  0  0  0  0
 35 34  1  0  0  0  0
 36 38  2  0  0  0  0
 36 37  1  0  0  0  0
 38  3  1  0  0  0  0
M  END
