1,2
q = 0.0, confidence = 0.99

 32 33  0  0  1  0  0  0  0  0999 V2000
    0.7275    1.9085   -0.6492 N   0  0  0  0  0  2  0  0  0  0  0  0
   -1.7380    2.1947    0.2839 N   0  0  0  0  0  0  0  0  0  0  0  0
    1.9439    0.5483   -2.2524 C   0  0  0  0  0  0  0  0  0  0  0  0
    1.9092    1.6817   -1.2684 C   0  0  2  0  0  3  0  0  0  0  0  0
    3.0395    2.4725   -0.9888 C   0  0  0  0  0  0  0  0  0  0  0  0
    2.9077    3.5473   -0.0990 C   0  0  0  0  0  0  0  0  0  0  0  0
    1.6673    3.8010    0.5016 C   0  0  0  0  0  0  0  0  0  0  0  0
    0.6031    2.9315    0.2165 C   0  0  0  0  0  0  0  0  0  0  0  0
   -0.7352    3.0523    0.9233 C   0  0  0  0  0  0  0  0  0  0  0  0
   -3.0047    2.0197    1.0278 C   0  0  0  0  0  0  0  0  0  0  0  0
   -3.7841    0.8934    0.3875 C   0  0  0  0  0  0  0  0  0  0  0  0
   -4.5979    1.1279   -0.7381 C   0  0  0  0  0  0  0  0  0  0  0  0
   -5.1736    0.0539   -1.4401 C   0  0  0  0  0  0  0  0  0  0  0  0
   -4.9410   -1.2664   -1.0169 C   0  0  0  0  0  0  0  0  0  0  0  0
   -4.1470   -1.5084    0.1174 C   0  0  0  0  0  0  0  0  0  0  0  0
   -3.5716   -0.4352    0.8143 C   0  0  0  0  0  0  0  0  0  0  0  0
    1.6333   -0.3899   -1.7486 H   0  0  0  0  0  0  0  0  0  0  0  0
    1.2369    0.7440   -3.0873 H   0  0  0  0  0  0  0  0  0  0  0  0
    2.9563    0.4044   -2.6688 H   0  0  0  0  0  0  0  0  0  0  0  0
    4.0101    2.2014   -1.4319 H   0  0  0  0  0  0  0  0  0  0  0  0
    3.7766    4.1821    0.1327 H   0  0  0  0  0  0  0  0  0  0  0  0
    1.5302    4.6384    1.2022 H   0  0  0  0  0  0  0  0  0  0  0  0
   -1.0549    4.1191    0.9768 H   0  0  0  0  0  0  0  0  0  0  0  0
   -0.6109    2.6780    1.9613 H   0  0  0  0  0  0  0  0  0  0  0  0
   -1.9340    2.5347   -0.6679 H   0  0  0  0  0  0  0  0  0  0  0  0
   -3.5982    2.9626    1.0527 H   0  0  0  0  0  0  0  0  0  0  0  0
   -2.7295    1.7553    2.0671 H   0  0  0  0  0  0  0  0  0  0  0  0
   -4.7814    2.1625   -1.0722 H   0  0  0  0  0  0  0  0  0  0  0  0
   -5.8083    0.2487   -2.3179 H   0  0  0  0  0  0  0  0  0  0  0  0
   -5.3863   -2.1084   -1.5679 H   0  0  0  0  0  0  0  0  0  0  0  0
   -3.9561   -2.5400    0.4489 H   0  0  0  0  0  0  0  0  0  0  0  0
   -2.9270   -0.6199    1.6862 H   0  0  0  0  0  0  0  0  0  0  0  0
  1  8  1  0  0  0  0
  2  9  1  0  0  0  0
  2 10  1  0  0  0  0
  3 17  1  0  0  0  0
  4  3  1  1  0  0  0
  4  5  1  0  0  0  0
  4  1  1  0  0  0  0
  5  6  2  0  0  0  0
  6 21  1  0  0  0  0
  6  7  1  0  0  0  0
  7 22  1  0  0  0  0
  8  7  2  0  0  0  0
  8  9  1  0  0  0  0
  9 23  1  0  0  0  0
  9 24  1  0  0  0  0
 10 26  1  0  0  0  0
 10 27  1  0  0  0  0
 11 16  1  0  0  0  0
 11 10  1  0  0  0  0
 12 11  2  0  0  0  0
 13 14  2  0  0  0  0
 13 12  1  0  0  0  0
 14 15  1  0  0  0  0
 15 31  1  0  0  0  0
 15 16  2  0  0  0  0
 16 32  1  0  0  0  0
 18  3  1  0  0  0  0
 19  3  1  0  0  0  0
 20  5  1  0  0  0  0
 25  2  1  0  0  0  0
 28 12  1  0  0  0  0
 29 13  1  0  0  0  0
 30 14  1  0  0  0  0
M  END
