1,2
q = -2.0, confidence = 0.896

 12 13  0  0  0  0  0  0  0  0999 V2000
   -0.8714   -1.3808   -1.0191 N   0  0  0  0  0  0  0  0  0  0  0  0
    0.8717   -1.3619    1.0441 N   0  0  0  0  0  0  0  0  0  0  0  0
    1.6969   -1.1268    2.1129 N   0  0  0  0  0  2  0  0  0  0  0  0
   -1.6976   -1.1652   -2.0913 N   0  0  0  0  0  0  0  0  0  0  0  0
   -1.4708   -3.3394   -1.8736 N   0  0  0  0  0  0  0  0  0  0  0  0
   -0.7597   -2.7258   -0.9190 C   0  0  0  0  0  3  0  0  0  0  0  0
    0.0023   -3.3672    0.0290 N   0  0  0  0  0  0  0  0  0  0  0  0
    2.0392   -2.2826    2.6197 N   0  0  0  0  0  0  0  0  0  0  0  0
    1.4745   -3.3048    1.9315 N   0  0  0  0  0  0  0  0  0  0  0  0
   -2.0379   -2.3299   -2.5785 N   0  0  0  0  0  0  0  0  0  0  0  0
    0.7627   -2.7086    0.9665 C   0  0  0  0  0  0  0  0  0  0  0  0
    0.0030   -4.3863    0.0378 H   0  0  0  0  0  0  0  0  0  0  0  0
  1  6  1  0  0  0  0
  2  3  1  0  0  0  0
  3  8  1  0  0  0  0
  4  1  2  0  0  0  0
  5  6  1  0  0  0  0
  6  7  1  0  0  0  0
  7 12  1  0  0  0  0
  7 11  1  0  0  0  0
  9  8  2  0  0  0  0
 10  4  1  0  0  0  0
 10  5  2  0  0  0  0
 11  2  2  0  0  0  0
 11  9  1  0  0  0  0
M  END
