1,3
q = -1.0, confidence = 0.0

 40 41  0  0  1  0  0  0  0  0999 V2000
    1.3270   -0.1900   -1.3279 N   0  0  0  0  0  2  0  0  0  0  0  0
    3.2878   -0.1593   -2.2955 N   0  0  0  0  0  0  0  0  0  0  0  0
    0.6963    1.7075    0.4043 N   0  0  0  0  0  2  0  0  0  0  0  0
    2.1413    3.2959    0.8174 N   0  0  0  0  0  0  0  0  0  0  0  0
    2.6250    0.1400   -1.1286 C   0  0  1  0  0  3  0  0  0  0  0  0
    1.1598   -0.6815   -2.6063 C   0  0  0  0  0  0  0  0  0  0  0  0
    0.1840   -1.0021   -2.9834 H   0  0  0  0  0  0  0  0  0  0  0  0
    2.3886   -0.6685   -3.2255 C   0  0  0  0  0  0  0  0  0  0  0  0
    2.7017   -0.9674   -4.2306 H   0  0  0  0  0  0  0  0  0  0  0  0
    4.7121   -0.0170   -2.5508 C   0  0  0  0  0  0  0  0  0  0  0  0
    5.0367    1.0313   -2.4187 H   0  0  0  0  0  0  0  0  0  0  0  0
    4.9171   -0.3266   -3.5920 H   0  0  0  0  0  0  0  0  0  0  0  0
    5.3032   -0.6542   -1.8660 H   0  0  0  0  0  0  0  0  0  0  0  0
    2.0214    1.9560    0.5309 C   0  0  2  0  0  3  0  0  0  0  0  0
   -0.0196    2.8721    0.5928 C   0  0  0  0  0  0  0  0  0  0  0  0
   -1.1119    2.9027    0.5338 H   0  0  0  0  0  0  0  0  0  0  0  0
    0.8803    3.8798    0.8550 C   0  0  0  0  0  0  0  0  0  0  0  0
    0.7408    4.9451    1.0627 H   0  0  0  0  0  0  0  0  0  0  0  0
    3.3723    4.0328    1.0532 C   0  0  0  0  0  0  0  0  0  0  0  0
    3.1151    5.0740    1.3211 H   0  0  0  0  0  0  0  0  0  0  0  0
    4.0114    4.0436    0.1502 H   0  0  0  0  0  0  0  0  0  0  0  0
    3.9501    3.5838    1.8819 H   0  0  0  0  0  0  0  0  0  0  0  0
    4.6927    1.2459    0.3513 C   0  0  0  0  0  0  0  0  0  0  0  0
    4.9492    1.6342    1.3602 H   0  0  0  0  0  0  0  0  0  0  0  0
    4.9886    2.0312   -0.3777 H   0  0  0  0  0  0  0  0  0  0  0  0
    5.3812    0.3904    0.1886 H   0  0  0  0  0  0  0  0  0  0  0  0
    2.8393   -0.3903    1.4542 C   0  0  0  0  0  0  0  0  0  0  0  0
    3.1000    0.0123    2.4609 H   0  0  0  0  0  0  0  0  0  0  0  0
    1.7393   -0.5882    1.4909 H   0  0  0  0  0  0  0  0  0  0  0  0
    3.5534   -1.7258    1.2348 C   0  0  0  0  0  0  0  0  0  0  0  0
    3.3669   -2.0743    0.1905 H   0  0  0  0  0  0  0  0  0  0  0  0
    4.6569   -1.5872    1.2984 H   0  0  0  0  0  0  0  0  0  0  0  0
    3.1332   -2.8398    2.2012 C   0  0  0  0  0  0  0  0  0  0  0  0
    3.3273   -2.5071    3.2456 H   0  0  0  0  0  0  0  0  0  0  0  0
    2.0297   -2.9721    2.1331 H   0  0  0  0  0  0  0  0  0  0  0  0
    3.8297   -4.1769    1.9453 C   0  0  0  0  0  0  0  0  0  0  0  0
    3.6182   -4.5499    0.9202 H   0  0  0  0  0  0  0  0  0  0  0  0
    3.5031   -4.9615    2.6584 H   0  0  0  0  0  0  0  0  0  0  0  0
    4.9327   -4.0820    2.0352 H   0  0  0  0  0  0  0  0  0  0  0  0
    3.1293    0.7674    0.3020 B   0  0  2  0  0  0  0  0  0  0  0  0
  1  5  1  0  0  0  0
  2  5  1  0  0  0  0
  3 14  1  0  0  0  0
  3 15  1  0  0  0  0
  4 17  1  0  0  0  0
  4 19  1  0  0  0  0
  5 40  1  6  0  0  0
  6  1  1  0  0  0  0
  7  6  1  0  0  0  0
  8  6  2  0  0  0  0
  8  2  1  0  0  0  0
  9  8  1  0  0  0  0
 10 11  1  0  0  0  0
 10  2  1  0  0  0  0
 10 13  1  0  0  0  0
 12 10  1  0  0  0  0
 14 40  1  6  0  0  0
 14  4  1  0  0  0  0
 15 17  2  0  0  0  0
 16 15  1  0  0  0  0
 17 18  1  0  0  0  0
 19 20  1  0  0  0  0
 19 22  1  0  0  0  0
 21 19  1  0  0  0  0
 23 24  1  0  0  0  0
 25 23  1  0  0  0  0
 26 23  1  0  0  0  0
 27 29  1  0  0  0  0
 27 28  1  0  0  0  0
 30 32  1  0  0  0  0
 30 27  1  0  0  0  0
 30 33  1  0  0  0  0
 31 30  1  0  0  0  0
 33 34  1  0  0  0  0
 35 33  1  0  0  0  0
 36 39  1  0  0  0  0
 36 33  1  0  0  0  0
 36 38  1  0  0  0  0
 37 36  1  0  0  0  0
 40 23  1  6  0  0  0
 40 27  1  0  0  0  0
M  END
