5,6
q = 0.0, confidence = 0.994

 49 50  0  0  1  0  0  0  0  0999 V2000
   -4.0860    0.4375    0.1946 O   0  0  0  0  0  0  0  0  0  0  0  0
   -1.1702    3.4563    1.0738 O   0  0  0  0  0  0  0  0  0  0  0  0
   -0.6180   -0.5773    2.0365 O   0  0  0  0  0  0  0  0  0  0  0  0
   -0.9882   -1.4808    2.0433 H   0  0  0  0  0  0  0  0  0  0  0  0
   -2.0623   -0.2727   -0.4985 N   0  0  0  0  0  2  0  0  0  0  0  0
   -0.1092    1.7103    0.1132 N   0  0  0  0  0  2  0  0  0  0  0  0
   -2.9964   -0.9509   -1.4270 C   0  0  1  0  0  0  0  0  0  0  0  0
   -2.7464   -0.6173   -2.4555 H   0  0  0  0  0  0  0  0  0  0  0  0
   -2.8639   -2.4885   -1.3831 C   0  0  0  0  0  0  0  0  0  0  0  0
   -1.8129   -2.6929   -1.6800 H   0  0  0  0  0  0  0  0  0  0  0  0
   -3.0696   -3.0614    0.0212 C   0  0  0  0  0  0  0  0  0  0  0  0
   -2.3328   -2.6387    0.7341 H   0  0  0  0  0  0  0  0  0  0  0  0
   -2.9303   -4.1601    0.0182 H   0  0  0  0  0  0  0  0  0  0  0  0
   -4.0892   -2.8654    0.4161 H   0  0  0  0  0  0  0  0  0  0  0  0
   -3.7967   -3.1327   -2.4149 C   0  0  0  0  0  0  0  0  0  0  0  0
   -4.8672   -2.9722   -2.1659 H   0  0  0  0  0  0  0  0  0  0  0  0
   -3.6358   -4.2278   -2.4555 H   0  0  0  0  0  0  0  0  0  0  0  0
   -3.6213   -2.7298   -3.4330 H   0  0  0  0  0  0  0  0  0  0  0  0
   -4.3751   -0.3856   -0.9811 C   0  0  0  0  0  0  0  0  0  0  0  0
   -4.8511    0.2711   -1.7340 H   0  0  0  0  0  0  0  0  0  0  0  0
   -5.0998   -1.1631   -0.6717 H   0  0  0  0  0  0  0  0  0  0  0  0
   -2.7558    0.4406    0.3343 C   0  0  2  0  0  3  0  0  0  0  0  0
   -2.1515    1.2564    1.4438 C   0  0  2  0  0  0  0  0  0  0  0  0
   -2.9365    1.9075    1.8698 H   0  0  0  0  0  0  0  0  0  0  0  0
    0.5833    2.8992   -0.4352 C   0  0  1  0  0  0  0  0  0  0  0  0
    1.6745    2.7874   -0.2749 H   0  0  0  0  0  0  0  0  0  0  0  0
    0.3261    3.0311   -1.9542 C   0  0  0  0  0  0  0  0  0  0  0  0
    0.6791    2.0704   -2.3853 H   0  0  0  0  0  0  0  0  0  0  0  0
   -1.1600    3.1746   -2.2966 C   0  0  0  0  0  0  0  0  0  0  0  0
   -1.7464    2.3110   -1.9231 H   0  0  0  0  0  0  0  0  0  0  0  0
   -1.2988    3.2183   -3.3948 H   0  0  0  0  0  0  0  0  0  0  0  0
   -1.6019    4.1031   -1.8782 H   0  0  0  0  0  0  0  0  0  0  0  0
    1.1748    4.1626   -2.5432 C   0  0  0  0  0  0  0  0  0  0  0  0
    0.8782    5.1553   -2.1430 H   0  0  0  0  0  0  0  0  0  0  0  0
    1.0552    4.2090   -3.6434 H   0  0  0  0  0  0  0  0  0  0  0  0
    2.2535    4.0195   -2.3277 H   0  0  0  0  0  0  0  0  0  0  0  0
    0.0108    4.0426    0.4401 C   0  0  0  0  0  0  0  0  0  0  0  0
    0.6972    4.3605    1.2503 H   0  0  0  0  0  0  0  0  0  0  0  0
   -0.3187    4.9325   -0.1278 H   0  0  0  0  0  0  0  0  0  0  0  0
   -1.0850    2.1372    0.8516 C   0  0  2  0  0  3  0  0  0  0  0  0
   -2.7416   -0.4536    3.2286 C   0  0  0  0  0  0  0  0  0  0  0  0
   -3.2804   -1.0631    2.4751 H   0  0  0  0  0  0  0  0  0  0  0  0
   -3.4775    0.2255    3.7004 H   0  0  0  0  0  0  0  0  0  0  0  0
   -2.3496   -1.1255    4.0180 H   0  0  0  0  0  0  0  0  0  0  0  0
   -1.5957    0.3408    2.6027 C   0  0  0  0  0  0  0  0  0  0  0  0
   -0.8633    1.1947    3.6363 C   0  0  0  0  0  0  0  0  0  0  0  0
   -0.5234    0.5565    4.4743 H   0  0  0  0  0  0  0  0  0  0  0  0
   -1.5248    1.9855    4.0396 H   0  0  0  0  0  0  0  0  0  0  0  0
    0.0293    1.6731    3.1911 H   0  0  0  0  0  0  0  0  0  0  0  0
  1 22  1  0  0  0  0
  3  4  1  0  0  0  0
  3 45  1  0  0  0  0
  5 22  1  0  0  0  0
  6 40  1  0  0  0  0
  7  8  1  6  0  0  0
  7  9  1  0  0  0  0
  7 19  1  0  0  0  0
  7  5  1  0  0  0  0
  9 11  1  0  0  0  0
 10  9  1  0  0  0  0
 11 14  1  0  0  0  0
 11 12  1  0  0  0  0
 13 11  1  0  0  0  0
 15 16  1  0  0  0  0
 15  9  1  0  0  0  0
 17 15  1  0  0  0  0
 18 15  1  0  0  0  0
 19 21  1  0  0  0  0
 19  1  1  0  0  0  0
 20 19  1  0  0  0  0
 22 23  1  1  0  0  0
 23 24  1  1  0  0  0
 23 45  1  0  0  0  0
 25 26  1  1  0  0  0
 25  6  1  0  0  0  0
 25 37  1  0  0  0  0
 27 25  1  0  0  0  0
 28 27  1  0  0  0  0
 29 27  1  0  0  0  0
 29 30  1  0  0  0  0
 29 32  1  0  0  0  0
 31 29  1  0  0  0  0
 33 36  1  0  0  0  0
 33 34  1  0  0  0  0
 33 27  1  0  0  0  0
 35 33  1  0  0  0  0
 37  2  1  0  0  0  0
 37 38  1  0  0  0  0
 39 37  1  0  0  0  0
 40  2  1  0  0  0  0
 40 23  1  6  0  0  0
 41 43  1  0  0  0  0
 41 44  1  0  0  0  0
 42 41  1  0  0  0  0
 45 41  1  0  0  0  0
 45 46  1  0  0  0  0
 46 48  1  0  0  0  0
 46 47  1  0  0  0  0
 49 46  1  0  0  0  0
M  END
