5,7
q = 0.0, confidence = 0.998

 54 57  0  0  1  0  0  0  0  0999 V2000
    4.4135    2.9431   -0.3500 O   0  0  0  0  0  0  0  0  0  0  0  0
    3.6670    0.8288   -0.5268 O   0  0  0  0  0  0  0  0  0  0  0  0
    2.1300   -3.7067   -0.5618 O   0  0  0  0  0  0  0  0  0  0  0  0
    0.0071   -3.0804   -1.8928 O   0  0  0  0  0  0  0  0  0  0  0  0
   -3.0600   -0.0343   -0.1955 N   0  0  0  0  0  2  0  0  0  0  0  0
   -1.1131    1.9766   -1.1009 N   0  0  0  0  0  0  0  0  0  0  0  0
    0.3435    1.3940    1.3889 N   0  0  0  0  0  2  0  0  0  0  0  0
   -3.4381    1.1551   -0.7132 C   0  0  2  0  0  3  0  0  0  0  0  0
   -4.7021    1.7063   -0.4435 C   0  0  0  0  0  0  0  0  0  0  0  0
   -4.9753    2.6830   -0.8714 H   0  0  0  0  0  0  0  0  0  0  0  0
   -5.6007    0.9953    0.3666 C   0  0  0  0  0  0  0  0  0  0  0  0
   -6.5959    1.4084    0.5905 H   0  0  0  0  0  0  0  0  0  0  0  0
   -5.2052   -0.2446    0.8870 C   0  0  0  0  0  0  0  0  0  0  0  0
   -5.8752   -0.8398    1.5240 H   0  0  0  0  0  0  0  0  0  0  0  0
   -3.9203   -0.7189    0.5837 C   0  0  0  0  0  0  0  0  0  0  0  0
   -3.5421   -1.6780    0.9782 H   0  0  0  0  0  0  0  0  0  0  0  0
   -2.4584    1.8444   -1.6488 C   0  0  0  0  0  0  0  0  0  0  0  0
   -2.3809    1.2208   -2.5654 H   0  0  0  0  0  0  0  0  0  0  0  0
   -2.8966    2.8243   -1.9702 H   0  0  0  0  0  0  0  0  0  0  0  0
   -1.0505    2.8885    0.0386 C   0  0  0  0  0  0  0  0  0  0  0  0
   -1.9777    2.7351    0.6329 H   0  0  0  0  0  0  0  0  0  0  0  0
   -1.0502    3.9603   -0.2863 H   0  0  0  0  0  0  0  0  0  0  0  0
    0.1293    2.6574    0.9684 C   0  0  1  0  0  3  0  0  0  0  0  0
    0.9541    3.7150    1.3856 C   0  0  0  0  0  0  0  0  0  0  0  0
    0.7549    4.7361    1.0274 H   0  0  0  0  0  0  0  0  0  0  0  0
    2.0521    3.4430    2.2115 C   0  0  0  0  0  0  0  0  0  0  0  0
    2.7347    4.2497    2.5158 H   0  0  0  0  0  0  0  0  0  0  0  0
    2.2842    2.1198    2.6124 C   0  0  0  0  0  0  0  0  0  0  0  0
    3.1486    1.8544    3.2369 H   0  0  0  0  0  0  0  0  0  0  0  0
    1.3963    1.1237    2.1869 C   0  0  0  0  0  0  0  0  0  0  0  0
    1.5174    0.0644    2.4678 H   0  0  0  0  0  0  0  0  0  0  0  0
   -0.0845    2.2183   -2.1228 C   0  0  0  0  0  0  0  0  0  0  0  0
   -0.0180    3.3023   -2.3908 H   0  0  0  0  0  0  0  0  0  0  0  0
   -0.3984    1.6827   -3.0420 H   0  0  0  0  0  0  0  0  0  0  0  0
    1.2815    1.7243   -1.6929 C   0  0  0  0  0  0  0  0  0  0  0  0
    2.2730    2.6158   -1.3605 C   0  0  0  0  0  0  0  0  0  0  0  0
    2.1282    3.6999   -1.4661 H   0  0  0  0  0  0  0  0  0  0  0  0
    3.5232    2.2125   -0.7405 C   0  0  0  0  0  0  0  0  0  0  0  0
    2.7219   -0.0814   -0.8970 C   0  0  0  0  0  0  0  0  0  0  0  0
    2.9734   -1.4248   -0.5727 C   0  0  0  0  0  0  0  0  0  0  0  0
    3.8914   -1.6647   -0.0236 H   0  0  0  0  0  0  0  0  0  0  0  0
    2.0337   -2.4113   -0.8932 C   0  0  0  0  0  0  0  0  0  0  0  0
    0.8358   -2.0532   -1.6083 C   0  0  0  0  0  0  0  0  0  0  0  0
    0.5791   -0.7076   -1.8783 C   0  0  0  0  0  0  0  0  0  0  0  0
   -0.3431   -0.4298   -2.4016 H   0  0  0  0  0  0  0  0  0  0  0  0
    1.5154    0.3117   -1.5257 C   0  0  0  0  0  0  0  0  0  0  0  0
    3.0189   -4.0688    0.4919 C   0  0  0  0  0  0  0  0  0  0  0  0
    2.7655   -3.4875    1.4032 H   0  0  0  0  0  0  0  0  0  0  0  0
    4.0823   -3.9163    0.2040 H   0  0  0  0  0  0  0  0  0  0  0  0
    2.8415   -5.1423    0.6814 H   0  0  0  0  0  0  0  0  0  0  0  0
   -1.2952   -2.7698   -2.3539 C   0  0  0  0  0  0  0  0  0  0  0  0
   -1.8187   -2.0944   -1.6414 H   0  0  0  0  0  0  0  0  0  0  0  0
   -1.8400   -3.7292   -2.4153 H   0  0  0  0  0  0  0  0  0  0  0  0
   -1.2728   -2.2988   -3.3636 H   0  0  0  0  0  0  0  0  0  0  0  0
  3 47  1  0  0  0  0
  4 43  1  0  0  0  0
  5 15  1  0  0  0  0
  6 20  1  0  0  0  0
  7 30  1  0  0  0  0
  8 17  1  6  0  0  0
  8  9  1  0  0  0  0
  8  5  1  0  0  0  0
  9 11  2  0  0  0  0
 10  9  1  0  0  0  0
 11 12  1  0  0  0  0
 11 13  1  0  0  0  0
 13 14  1  0  0  0  0
 15 13  2  0  0  0  0
 15 16  1  0  0  0  0
 17  6  1  0  0  0  0
 18 17  1  0  0  0  0
 19 17  1  0  0  0  0
 20 21  1  0  0  0  0
 22 20  1  0  0  0  0
 23 20  1  1  0  0  0
 23 24  1  0  0  0  0
 23  7  1  0  0  0  0
 24 26  2  0  0  0  0
 25 24  1  0  0  0  0
 26 27  1  0  0  0  0
 26 28  1  0  0  0  0
 28 29  1  0  0  0  0
 30 31  1  0  0  0  0
 30 28  2  0  0  0  0
 32 35  1  0  0  0  0
 32  6  1  0  0  0  0
 33 32  1  0  0  0  0
 34 32  1  0  0  0  0
 35 46  1  0  0  0  0
 35 36  2  0  0  0  0
 36 38  1  0  0  0  0
 37 36  1  0  0  0  0
 38  2  1  0  0  0  0
 38  1  2  0  0  0  0
 39 40  1  0  0  0  0
 39  2  1  0  0  0  0
 40 41  1  0  0  0  0
 42 40  2  0  0  0  0
 42  3  1  0  0  0  0
 43 42  1  0  0  0  0
 44 43  2  0  0  0  0
 44 46  1  0  0  0  0
 45 44  1  0  0  0  0
 46 39  2  0  0  0  0
 47 50  1  0  0  0  0
 47 48  1  0  0  0  0
 49 47  1  0  0  0  0
 51  4  1  0  0  0  0
 51 52  1  0  0  0  0
 53 51  1  0  0  0  0
 54 51  1  0  0  0  0
M  END
