1,3
q = 0.0, confidence = 0.996

 56 57  0  0  0  0  0  0  0  0999 V2000
   -1.3422    0.1674   -0.0924 N   0  0  0  0  0  0  0  0  0  0  0  0
   -1.5589    1.1573   -0.2871 H   0  0  0  0  0  0  0  0  0  0  0  0
    0.9462   -0.4122   -1.4792 N   0  0  0  0  0  0  0  0  0  0  0  0
    1.0582   -1.4279   -1.3386 H   0  0  0  0  0  0  0  0  0  0  0  0
   -3.7441   -0.1405    0.5852 C   0  0  0  0  0  0  0  0  0  0  0  0
   -1.4695   -0.5750   -1.3700 C   0  0  0  0  0  0  0  0  0  0  0  0
   -2.4438   -0.3787   -1.8653 H   0  0  0  0  0  0  0  0  0  0  0  0
   -1.4379   -1.6596   -1.1333 H   0  0  0  0  0  0  0  0  0  0  0  0
    3.3883   -0.0439   -1.2153 C   0  0  0  0  0  0  0  0  0  0  0  0
   -4.3080    1.1540    0.4272 C   0  0  0  0  0  0  0  0  0  0  0  0
    4.0948    1.1224   -0.8142 C   0  0  0  0  0  0  0  0  0  0  0  0
   -4.5455   -1.2931    0.3613 C   0  0  0  0  0  0  0  0  0  0  0  0
    3.7921   -1.3158   -0.7324 C   0  0  0  0  0  0  0  0  0  0  0  0
    5.5410   -0.2538    0.6307 C   0  0  0  0  0  0  0  0  0  0  0  0
    5.1488    0.9922    0.1061 C   0  0  0  0  0  0  0  0  0  0  0  0
    5.6906    1.8988    0.4200 H   0  0  0  0  0  0  0  0  0  0  0  0
   -5.6552    1.2741    0.0437 C   0  0  0  0  0  0  0  0  0  0  0  0
   -6.0879    2.2808   -0.0716 H   0  0  0  0  0  0  0  0  0  0  0  0
    2.1973    0.0698   -2.1361 C   0  0  0  0  0  0  0  0  0  0  0  0
    2.0222    1.1197   -2.4325 H   0  0  0  0  0  0  0  0  0  0  0  0
    2.3492   -0.5096   -3.0762 H   0  0  0  0  0  0  0  0  0  0  0  0
    4.8527   -1.3961    0.1875 C   0  0  0  0  0  0  0  0  0  0  0  0
    5.1580   -2.3861    0.5626 H   0  0  0  0  0  0  0  0  0  0  0  0
   -5.8867   -1.1228   -0.0226 C   0  0  0  0  0  0  0  0  0  0  0  0
   -6.5057   -2.0182   -0.1923 H   0  0  0  0  0  0  0  0  0  0  0  0
   -6.4659    0.1493   -0.1885 C   0  0  0  0  0  0  0  0  0  0  0  0
   -2.2913   -0.2759    0.9788 C   0  0  0  0  0  0  0  0  0  0  0  0
   -2.0269   -1.3190    1.2299 H   0  0  0  0  0  0  0  0  0  0  0  0
   -2.0514    0.3371    1.8706 H   0  0  0  0  0  0  0  0  0  0  0  0
   -7.9164    0.2952   -0.5657 C   0  0  0  0  0  0  0  0  0  0  0  0
   -8.1304    1.2896   -1.0020 H   0  0  0  0  0  0  0  0  0  0  0  0
   -8.5658    0.1804    0.3285 H   0  0  0  0  0  0  0  0  0  0  0  0
   -8.2292   -0.4807   -1.2918 H   0  0  0  0  0  0  0  0  0  0  0  0
   -0.2942   -0.1933   -2.2551 C   0  0  0  0  0  0  0  0  0  0  0  0
   -0.2988   -0.7716   -3.2050 H   0  0  0  0  0  0  0  0  0  0  0  0
   -0.3400    0.8824   -2.5284 H   0  0  0  0  0  0  0  0  0  0  0  0
    6.6911   -0.3576    1.5973 C   0  0  0  0  0  0  0  0  0  0  0  0
    6.6751    0.4657    2.3387 H   0  0  0  0  0  0  0  0  0  0  0  0
    7.6613   -0.2878    1.0609 H   0  0  0  0  0  0  0  0  0  0  0  0
    6.6843   -1.3199    2.1438 H   0  0  0  0  0  0  0  0  0  0  0  0
   -4.0079   -2.6944    0.5455 C   0  0  0  0  0  0  0  0  0  0  0  0
   -4.7931   -3.4453    0.3388 H   0  0  0  0  0  0  0  0  0  0  0  0
   -3.6514   -2.8723    1.5816 H   0  0  0  0  0  0  0  0  0  0  0  0
   -3.1586   -2.9200   -0.1336 H   0  0  0  0  0  0  0  0  0  0  0  0
    3.1109   -2.5954   -1.1666 C   0  0  0  0  0  0  0  0  0  0  0  0
    2.2241   -2.8405   -0.5367 H   0  0  0  0  0  0  0  0  0  0  0  0
    3.7927   -3.4608   -1.0621 H   0  0  0  0  0  0  0  0  0  0  0  0
    2.7841   -2.5714   -2.2269 H   0  0  0  0  0  0  0  0  0  0  0  0
   -3.4970    2.4119    0.6479 C   0  0  0  0  0  0  0  0  0  0  0  0
   -2.8007    2.3319    1.5080 H   0  0  0  0  0  0  0  0  0  0  0  0
   -4.1559    3.2792    0.8427 H   0  0  0  0  0  0  0  0  0  0  0  0
   -2.8945    2.6911   -0.2475 H   0  0  0  0  0  0  0  0  0  0  0  0
    3.7737    2.4900   -1.3727 C   0  0  0  0  0  0  0  0  0  0  0  0
    3.9853    2.5455   -2.4613 H   0  0  0  0  0  0  0  0  0  0  0  0
    4.3871    3.2682   -0.8817 H   0  0  0  0  0  0  0  0  0  0  0  0
    2.7117    2.7795   -1.2366 H   0  0  0  0  0  0  0  0  0  0  0  0
  1 27  1  0  0  0  0
  2  1  1  0  0  0  0
  3  4  1  0  0  0  0
  5 27  1  0  0  0  0
  6  8  1  0  0  0  0
  6  1  1  0  0  0  0
  7  6  1  0  0  0  0
  9 11  2  0  0  0  0
  9 13  1  0  0  0  0
 10  5  1  0  0  0  0
 10 49  1  0  0  0  0
 11 15  1  0  0  0  0
 12 41  1  0  0  0  0
 12  5  2  0  0  0  0
 13 22  2  0  0  0  0
 14 37  1  0  0  0  0
 15 16  1  0  0  0  0
 15 14  2  0  0  0  0
 17 10  2  0  0  0  0
 18 17  1  0  0  0  0
 19  3  1  0  0  0  0
 19  9  1  0  0  0  0
 20 19  1  0  0  0  0
 21 19  1  0  0  0  0
 22 23  1  0  0  0  0
 22 14  1  0  0  0  0
 24 12  1  0  0  0  0
 25 24  1  0  0  0  0
 26 24  2  0  0  0  0
 26 17  1  0  0  0  0
 27 28  1  0  0  0  0
 27 29  1  0  0  0  0
 30 26  1  0  0  0  0
 30 32  1  0  0  0  0
 31 30  1  0  0  0  0
 33 30  1  0  0  0  0
 34  3  1  0  0  0  0
 34  6  1  0  0  0  0
 35 34  1  0  0  0  0
 36 34  1  0  0  0  0
 37 40  1  0  0  0  0
 37 38  1  0  0  0  0
 39 37  1  0  0  0  0
 41 43  1  0  0  0  0
 42 41  1  0  0  0  0
 44 41  1  0  0  0  0
 45 47  1  0  0  0  0
 45 13  1  0  0  0  0
 45 46  1  0  0  0  0
 48 45  1  0  0  0  0
 49 51  1  0  0  0  0
 49 50  1  0  0  0  0
 52 49  1  0  0  0  0
 53 56  1  0  0  0  0
 53 55  1  0  0  0  0
 53 11  1  0  0  0  0
 54 53  1  0  0  0  0
M  END
