1,4
q = 0.0, confidence = 0.99

 30 32  0  0  1  0  0  0  0  0999 V2000
   -1.8818   -0.8405   -1.0891 N   0  0  0  0  0  2  0  0  0  0  0  0
   -4.2397   -1.0692   -0.8937 N   0  0  1  0  0  0  0  0  0  0  0  0
   -4.2071    1.0968    0.8976 N   0  0  2  0  0  0  0  0  0  0  0  0
   -1.8531    0.8139    1.0714 N   0  0  0  0  0  2  0  0  0  0  0  0
   -1.8614   -1.8674   -2.1208 C   0  0  0  0  0  0  0  0  0  0  0  0
   -0.8620   -2.3463   -2.1206 H   0  0  0  0  0  0  0  0  0  0  0  0
   -1.9681   -1.3800   -3.1181 H   0  0  0  0  0  0  0  0  0  0  0  0
   -2.9645   -2.9076   -1.9221 C   0  0  0  0  0  0  0  0  0  0  0  0
   -2.9820   -3.6376   -2.7549 H   0  0  0  0  0  0  0  0  0  0  0  0
   -2.7658   -3.4757   -0.9890 H   0  0  0  0  0  0  0  0  0  0  0  0
   -4.3138   -2.2059   -1.8178 C   0  0  0  0  0  0  0  0  0  0  0  0
   -4.6558   -1.8511   -2.8165 H   0  0  0  0  0  0  0  0  0  0  0  0
   -5.0893   -2.9053   -1.4414 H   0  0  0  0  0  0  0  0  0  0  0  0
   -5.4486   -0.7095   -0.1685 C   0  0  0  0  0  0  0  0  0  0  0  0
   -5.5608   -1.3261    0.7552 H   0  0  0  0  0  0  0  0  0  0  0  0
   -6.3232   -0.9200   -0.8158 H   0  0  0  0  0  0  0  0  0  0  0  0
   -5.4301    0.7654    0.1829 C   0  0  0  0  0  0  0  0  0  0  0  0
   -5.5362    1.3845   -0.7399 H   0  0  0  0  0  0  0  0  0  0  0  0
   -6.2942    0.9957    0.8377 H   0  0  0  0  0  0  0  0  0  0  0  0
   -4.2463    2.2347    1.8224 C   0  0  0  0  0  0  0  0  0  0  0  0
   -4.5864    1.8875    2.8245 H   0  0  0  0  0  0  0  0  0  0  0  0
   -5.0094    2.9516    1.4538 H   0  0  0  0  0  0  0  0  0  0  0  0
   -2.8804    2.9056    1.9136 C   0  0  0  0  0  0  0  0  0  0  0  0
   -2.6782    3.4690    0.9783 H   0  0  0  0  0  0  0  0  0  0  0  0
   -2.8734    3.6360    2.7461 H   0  0  0  0  0  0  0  0  0  0  0  0
   -1.7993    1.8404    2.1017 C   0  0  0  0  0  0  0  0  0  0  0  0
   -0.7891    2.2963    2.0918 H   0  0  0  0  0  0  0  0  0  0  0  0
   -1.9071    1.3565    3.1006 H   0  0  0  0  0  0  0  0  0  0  0  0
   -3.0102    0.5265    0.5420 C   0  0  1  0  0  3  0  0  0  0  0  0
   -3.0272   -0.5264   -0.5486 C   0  0  2  0  0  3  0  0  0  0  0  0
  2 11  1  1  0  0  0
  2 30  1  0  0  0  0
  2 14  1  0  0  0  0
  3 17  1  6  0  0  0
  3 20  1  0  0  0  0
  4 26  1  0  0  0  0
  5  6  1  0  0  0  0
  5  8  1  0  0  0  0
  5  1  1  0  0  0  0
  7  5  1  0  0  0  0
  8 11  1  0  0  0  0
  8 10  1  0  0  0  0
  9  8  1  0  0  0  0
 11 13  1  0  0  0  0
 12 11  1  0  0  0  0
 14 17  1  0  0  0  0
 14 15  1  0  0  0  0
 16 14  1  0  0  0  0
 17 19  1  0  0  0  0
 18 17  1  0  0  0  0
 20 23  1  0  0  0  0
 20 21  1  0  0  0  0
 22 20  1  0  0  0  0
 23 26  1  0  0  0  0
 23 25  1  0  0  0  0
 24 23  1  0  0  0  0
 26 28  1  0  0  0  0
 27 26  1  0  0  0  0
 29  3  1  0  0  0  0
 29  4  1  1  0  0  0
 30  1  1  6  0  0  0
 30 29  1  0  0  0  0
M  END
