2,3
q = 0.0, confidence = 0.998

 24 25  0  0  0  0  0  0  0  0999 V2000
    1.1410    3.5799    1.0385 F   0  0  0  0  0  0  0  0  0  0  0  0
   -0.8821    0.3708   -1.7230 N   0  0  0  0  0  2  0  0  0  0  0  0
    1.1725    1.5401   -0.8562 N   0  0  0  0  0  2  0  0  0  0  0  0
   -2.0230   -0.2615   -2.0624 C   0  0  0  0  0  3  0  0  0  0  0  0
   -2.4931   -0.8482   -1.2608 H   0  0  0  0  0  0  0  0  0  0  0  0
   -2.5433   -0.1888   -3.3578 C   0  0  0  0  0  0  0  0  0  0  0  0
   -3.4739   -0.7244   -3.5911 H   0  0  0  0  0  0  0  0  0  0  0  0
   -1.8595    0.5458   -4.3422 C   0  0  0  0  0  0  0  0  0  0  0  0
   -2.2462    0.6012   -5.3701 H   0  0  0  0  0  0  0  0  0  0  0  0
   -0.6711    1.1948   -3.9956 C   0  0  0  0  0  0  0  0  0  0  0  0
   -0.0903    1.7700   -4.7303 H   0  0  0  0  0  0  0  0  0  0  0  0
   -0.2087    1.0969   -2.6730 C   0  0  0  0  0  0  0  0  0  0  0  0
    0.9784    1.7165   -2.1414 C   0  0  0  0  0  3  0  0  0  0  0  0
    1.6781    2.2990   -2.7611 H   0  0  0  0  0  0  0  0  0  0  0  0
    2.3657    1.9932   -0.2383 C   0  0  0  0  0  0  0  0  0  0  0  0
    3.5981    1.3790   -0.5339 C   0  0  0  0  0  0  0  0  0  0  0  0
    3.5995    0.5724   -1.2846 H   0  0  0  0  0  0  0  0  0  0  0  0
    4.7539    1.7619    0.1624 C   0  0  0  0  0  0  0  0  0  0  0  0
    5.7109    1.2714   -0.0683 H   0  0  0  0  0  0  0  0  0  0  0  0
    4.6884    2.7512    1.1563 C   0  0  0  0  0  0  0  0  0  0  0  0
    5.5940    3.0480    1.7058 H   0  0  0  0  0  0  0  0  0  0  0  0
    3.4644    3.3708    1.4563 C   0  0  0  0  0  0  0  0  0  0  0  0
    3.3794    4.1540    2.2230 H   0  0  0  0  0  0  0  0  0  0  0  0
    2.3170    2.9865    0.7595 C   0  0  0  0  0  0  0  0  0  0  0  0
  3 15  1  0  0  0  0
  4  2  1  0  0  0  0
  4  5  1  0  0  0  0
  6  4  1  0  0  0  0
  7  6  1  0  0  0  0
  8 10  1  0  0  0  0
  8  6  2  0  0  0  0
  9  8  1  0  0  0  0
 10 12  2  0  0  0  0
 11 10  1  0  0  0  0
 12 13  1  0  0  0  0
 12  2  1  0  0  0  0
 13  3  1  0  0  0  0
 14 13  1  0  0  0  0
 15 24  1  0  0  0  0
 16 15  2  0  0  0  0
 16 18  1  0  0  0  0
 17 16  1  0  0  0  0
 18 20  2  0  0  0  0
 19 18  1  0  0  0  0
 20 22  1  0  0  0  0
 20 21  1  0  0  0  0
 22 23  1  0  0  0  0
 24  1  1  0  0  0  0
 24 22  2  0  0  0  0
M  END
