2,3
q = 0.0, confidence = 0.784

 27 28  0  0  0  0  0  0  0  0999 V2000
   -1.7396    1.0054    1.1196 O   0  0  0  0  0  0  0  0  0  0  0  0
    1.7117   -1.8570   -0.1587 N   0  0  0  0  0  2  0  0  0  0  0  0
   -0.4864   -0.7913    0.2868 N   0  0  0  0  0  2  0  0  0  0  0  0
   -2.8314   -0.7580    0.0768 N   0  0  0  0  0  0  0  0  0  0  0  0
   -2.6054   -1.6806   -0.3155 H   0  0  0  0  0  0  0  0  0  0  0  0
    2.9134   -2.3993   -0.4575 C   0  0  0  0  0  3  0  0  0  0  0  0
    3.7708   -1.7141   -0.4716 H   0  0  0  0  0  0  0  0  0  0  0  0
   -0.6030   -2.0555    0.0527 N   0  0  0  0  0  2  0  0  0  0  0  0
   -4.1882   -0.3853    0.1056 C   0  0  0  0  0  0  0  0  0  0  0  0
    3.0590   -3.7581   -0.7503 C   0  0  0  0  0  0  0  0  0  0  0  0
    4.0605   -4.1531   -0.9710 H   0  0  0  0  0  0  0  0  0  0  0  0
   -1.7622   -0.0746    0.5506 C   0  0  0  0  0  0  0  0  0  0  0  0
   -6.4697   -0.9590   -0.5211 C   0  0  0  0  0  0  0  0  0  0  0  0
   -7.1784   -1.6513   -0.9988 H   0  0  0  0  0  0  0  0  0  0  0  0
    0.5953   -2.6610   -0.2026 C   0  0  0  0  0  0  0  0  0  0  0  0
    0.6762   -4.0385   -0.4950 C   0  0  0  0  0  0  0  0  0  0  0  0
   -0.2518   -4.6256   -0.5127 H   0  0  0  0  0  0  0  0  0  0  0  0
    1.9253   -4.5941   -0.7656 C   0  0  0  0  0  0  0  0  0  0  0  0
    2.0226   -5.6641   -0.9985 H   0  0  0  0  0  0  0  0  0  0  0  0
   -6.9298    0.2307    0.0695 C   0  0  0  0  0  0  0  0  0  0  0  0
   -8.0022    0.4739    0.0575 H   0  0  0  0  0  0  0  0  0  0  0  0
   -5.1072   -1.2682   -0.5068 C   0  0  0  0  0  0  0  0  0  0  0  0
   -4.7446   -2.1975   -0.9742 H   0  0  0  0  0  0  0  0  0  0  0  0
   -6.0134    1.1053    0.6759 C   0  0  0  0  0  0  0  0  0  0  0  0
   -6.3690    2.0365    1.1413 H   0  0  0  0  0  0  0  0  0  0  0  0
   -4.6445    0.8108    0.7036 C   0  0  0  0  0  0  0  0  0  0  0  0
   -3.9277    1.4892    1.1797 H   0  0  0  0  0  0  0  0  0  0  0  0
  3 12  1  0  0  0  0
  4  9  1  0  0  0  0
  4 12  1  0  0  0  0
  5  4  1  0  0  0  0
  6  2  1  0  0  0  0
  7  6  1  0  0  0  0
  8  3  1  0  0  0  0
  9 26  1  0  0  0  0
 10  6  1  0  0  0  0
 11 10  1  0  0  0  0
 12  1  2  0  0  0  0
 13 22  1  0  0  0  0
 13 20  2  0  0  0  0
 14 13  1  0  0  0  0
 15  2  1  0  0  0  0
 15  8  1  0  0  0  0
 16 15  2  0  0  0  0
 17 16  1  0  0  0  0
 18 10  2  0  0  0  0
 18 16  1  0  0  0  0
 19 18  1  0  0  0  0
 20 24  1  0  0  0  0
 21 20  1  0  0  0  0
 22  9  2  0  0  0  0
 23 22  1  0  0  0  0
 24 26  2  0  0  0  0
 24 25  1  0  0  0  0
 26 27  1  0  0  0  0
M  END
