1,3
q = -1.0, confidence = 0.0

 25 27  0  0  1  0  0  0  0  0999 V2000
    0.2618    1.0921   -0.3149 N   0  0  0  0  0  0  0  0  0  0  0  0
    0.6078    2.1550    0.3858 N   0  0  0  0  0  2  0  0  0  0  0  0
   -0.3582   -0.8537   -1.8225 N   0  0  0  0  0  2  0  0  0  0  0  0
    0.7381    2.6366   -1.8476 N   0  0  0  0  0  0  0  0  0  0  0  0
    0.8968    3.0873   -0.5708 C   0  0  0  0  0  0  0  0  0  0  0  0
    1.3343    4.4433   -0.2330 C   0  0  0  0  0  0  0  0  0  0  0  0
   -0.0287    0.2845   -2.5116 C   0  0  2  0  0  3  0  0  0  0  0  0
    0.3392    1.3747   -1.6446 C   0  0  0  0  0  0  0  0  0  0  0  0
    1.4745    4.8591    1.1119 C   0  0  0  0  0  0  0  0  0  0  0  0
    1.2466    4.1409    1.9187 H   0  0  0  0  0  0  0  0  0  0  0  0
    2.1515    6.9654    0.5001 C   0  0  0  0  0  0  0  0  0  0  0  0
    2.4777    7.9705    0.8238 H   0  0  0  0  0  0  0  0  0  0  0  0
   -0.7592   -1.9468   -2.4941 C   0  0  0  0  0  0  0  0  0  0  0  0
   -1.0254   -2.8257   -1.8918 H   0  0  0  0  0  0  0  0  0  0  0  0
    1.8714    6.0850    1.4762 N   0  0  0  0  0  0  0  0  0  0  0  0
   -0.0807    0.3259   -3.9165 C   0  0  0  0  0  0  0  0  0  0  0  0
    0.1982    1.2617   -4.4195 H   0  0  0  0  0  0  0  0  0  0  0  0
   -0.4894   -0.8140   -4.6105 C   0  0  0  0  0  0  0  0  0  0  0  0
   -0.5416   -0.8061   -5.7093 H   0  0  0  0  0  0  0  0  0  0  0  0
    1.6325    5.3807   -1.2425 C   0  0  0  0  0  0  0  0  0  0  0  0
    1.5322    5.0810   -2.2962 H   0  0  0  0  0  0  0  0  0  0  0  0
   -0.8393   -1.9698   -3.8897 C   0  0  0  0  0  0  0  0  0  0  0  0
   -1.1739   -2.8851   -4.3965 H   0  0  0  0  0  0  0  0  0  0  0  0
    2.0481    6.6628   -0.8686 C   0  0  0  0  0  0  0  0  0  0  0  0
    2.2912    7.4230   -1.6263 H   0  0  0  0  0  0  0  0  0  0  0  0
  1  2  1  0  0  0  0
  4  8  1  0  0  0  0
  4  5  2  0  0  0  0
  5  6  1  0  0  0  0
  5  2  1  0  0  0  0
  6  9  1  0  0  0  0
  7  3  1  0  0  0  0
  7  8  1  1  0  0  0
  8  1  2  0  0  0  0
  9 15  2  0  0  0  0
  9 10  1  0  0  0  0
 11 12  1  0  0  0  0
 11 15  1  0  0  0  0
 13 14  1  0  0  0  0
 13  3  1  0  0  0  0
 16  7  1  0  0  0  0
 17 16  1  0  0  0  0
 18 16  2  0  0  0  0
 18 22  1  0  0  0  0
 19 18  1  0  0  0  0
 20 24  1  0  0  0  0
 20  6  2  0  0  0  0
 21 20  1  0  0  0  0
 22 13  2  0  0  0  0
 23 22  1  0  0  0  0
 24 11  2  0  0  0  0
 25 24  1  0  0  0  0
M  END
