1,3
q = 0.0, confidence = 0.57

 34 34  0  0  1  0  0  0  0  0999 V2000
   -2.0591    0.3212   -0.3439 N   0  0  0  0  0  2  0  0  0  0  0  0
   -2.2567    2.6211    0.3469 N   0  0  0  0  0  0  0  0  0  0  0  0
   -0.0350    1.8211    0.3405 N   0  0  0  0  0  1  0  0  0  0  0  0
   -4.0328    1.5895   -0.6864 N   0  0  0  0  0  0  0  0  0  0  0  0
   -0.5703    3.8277    1.4132 N   0  0  0  0  0  0  0  0  0  0  0  0
   -2.7592   -0.9015   -0.3112 C   0  0  0  0  0  0  0  0  0  0  0  0
   -2.3711   -1.9614   -1.1682 C   0  0  0  0  0  0  0  0  0  0  0  0
   -1.5923   -1.7666   -1.9221 H   0  0  0  0  0  0  0  0  0  0  0  0
   -2.9698   -3.2231   -1.0637 C   0  0  0  0  0  0  0  0  0  0  0  0
   -2.6465   -4.0297   -1.7397 H   0  0  0  0  0  0  0  0  0  0  0  0
   -3.9786   -3.4621   -0.1145 C   0  0  0  0  0  0  0  0  0  0  0  0
   -4.4506   -4.4530   -0.0380 H   0  0  0  0  0  0  0  0  0  0  0  0
   -4.3786   -2.4155    0.7343 C   0  0  0  0  0  0  0  0  0  0  0  0
   -5.1645   -2.5866    1.4868 H   0  0  0  0  0  0  0  0  0  0  0  0
   -3.7750   -1.1530    0.6459 C   0  0  0  0  0  0  0  0  0  0  0  0
   -4.0815   -0.3439    1.3256 H   0  0  0  0  0  0  0  0  0  0  0  0
   -2.7370    1.5035   -0.2082 C   0  0  1  0  0  3  0  0  0  0  0  0
   -0.9528    2.7165    0.6966 C   0  0  0  0  0  0  0  0  0  0  0  0
   -4.4776    0.8145   -1.8342 C   0  0  0  0  0  0  0  0  0  0  0  0
   -3.6112    0.3575   -2.3445 H   0  0  0  0  0  0  0  0  0  0  0  0
   -4.9799    1.4938   -2.5554 H   0  0  0  0  0  0  0  0  0  0  0  0
   -5.1873    0.0038   -1.5583 H   0  0  0  0  0  0  0  0  0  0  0  0
   -4.8733    2.7107   -0.3111 C   0  0  0  0  0  0  0  0  0  0  0  0
   -4.6213    3.0440    0.7108 H   0  0  0  0  0  0  0  0  0  0  0  0
   -5.9361    2.3926   -0.3415 H   0  0  0  0  0  0  0  0  0  0  0  0
   -4.7474    3.5831   -0.9932 H   0  0  0  0  0  0  0  0  0  0  0  0
   -1.5196    4.8278    1.8488 C   0  0  0  0  0  0  0  0  0  0  0  0
   -2.4982    4.6122    1.3855 H   0  0  0  0  0  0  0  0  0  0  0  0
   -1.1804    5.8422    1.5435 H   0  0  0  0  0  0  0  0  0  0  0  0
   -1.6310    4.8272    2.9574 H   0  0  0  0  0  0  0  0  0  0  0  0
    0.8160    4.0200    1.7860 C   0  0  0  0  0  0  0  0  0  0  0  0
    1.4285    3.2196    1.3313 H   0  0  0  0  0  0  0  0  0  0  0  0
    0.9426    3.9905    2.8918 H   0  0  0  0  0  0  0  0  0  0  0  0
    1.1833    5.0067    1.4271 H   0  0  0  0  0  0  0  0  0  0  0  0
  1  6  1  0  0  0  0
  2 18  2  0  0  0  0
  3 18  1  0  0  0  0
  4 23  1  0  0  0  0
  4 17  1  0  0  0  0
  5 31  1  0  0  0  0
  5 27  1  0  0  0  0
  6 15  1  0  0  0  0
  7  9  1  0  0  0  0
  7  6  2  0  0  0  0
  8  7  1  0  0  0  0
  9 11  2  0  0  0  0
 10  9  1  0  0  0  0
 11 12  1  0  0  0  0
 11 13  1  0  0  0  0
 13 14  1  0  0  0  0
 15 13  2  0  0  0  0
 15 16  1  0  0  0  0
 17  1  1  6  0  0  0
 17  2  1  0  0  0  0
 18  5  1  0  0  0  0
 19 22  1  0  0  0  0
 19  4  1  0  0  0  0
 20 19  1  0  0  0  0
 21 19  1  0  0  0  0
 23 24  1  0  0  0  0
 25 23  1  0  0  0  0
 26 23  1  0  0  0  0
 27 30  1  0  0  0  0
 28 27  1  0  0  0  0
 29 27  1  0  0  0  0
 31 33  1  0  0  0  0
 32 31  1  0  0  0  0
 34 31  1  0  0  0  0
M  END
