3,9
q = -1.0, confidence = 0.118

 33 35  0  0  1  0  0  0  0  0999 V2000
    0.8299    0.7586    1.5245 C   0  0  2  0  0  0  0  0  0  0  0  0
    0.3414    1.9632    0.7285 C   0  0  2  0  0  3  0  0  0  0  0  0
   -0.2325    1.6641   -0.4669 N   0  0  0  0  0  2  0  0  0  0  0  0
   -0.7096    2.6459   -1.2615 C   0  0  0  0  0  0  0  0  0  0  0  0
   -0.5981    3.9931   -0.8947 C   0  0  0  0  0  0  0  0  0  0  0  0
    0.0001    4.3210    0.3297 C   0  0  0  0  0  0  0  0  0  0  0  0
    0.4706    3.2892    1.1595 C   0  0  0  0  0  0  0  0  0  0  0  0
    1.9841    0.0983    0.7763 C   0  0  1  0  0  3  0  0  0  0  0  0
    1.6569   -0.4675   -0.4134 N   0  0  0  0  0  2  0  0  0  0  0  0
    2.5921   -1.1002   -1.1516 C   0  0  0  0  0  0  0  0  0  0  0  0
    3.9272   -1.1591   -0.7321 C   0  0  0  0  0  0  0  0  0  0  0  0
    4.2872   -0.5638    0.4841 C   0  0  0  0  0  0  0  0  0  0  0  0
    3.2985    0.0704    1.2548 C   0  0  0  0  0  0  0  0  0  0  0  0
   -0.2986   -0.2560    1.7503 C   0  0  2  0  0  3  0  0  0  0  0  0
   -1.5783    0.2073    1.8696 N   0  0  0  0  0  0  0  0  0  0  0  0
   -2.6632   -0.6014    1.9837 C   0  0  0  0  0  0  0  0  0  0  0  0
   -2.4838   -1.9688    2.1410 C   0  0  0  0  0  0  0  0  0  0  0  0
   -1.1725   -2.4787    2.1770 C   0  0  0  0  0  0  0  0  0  0  0  0
   -0.0830   -1.6227    1.9912 C   0  0  0  0  0  0  0  0  0  0  0  0
    1.2022    1.1087    2.5100 H   0  0  0  0  0  0  0  0  0  0  0  0
   -1.1984    2.3171   -2.1904 H   0  0  0  0  0  0  0  0  0  0  0  0
   -0.9851    4.7704   -1.5686 H   0  0  0  0  0  0  0  0  0  0  0  0
    0.0954    5.3709    0.6435 H   0  0  0  0  0  0  0  0  0  0  0  0
    0.9319    3.5096    2.1332 H   0  0  0  0  0  0  0  0  0  0  0  0
    2.2327   -1.5762   -2.0759 H   0  0  0  0  0  0  0  0  0  0  0  0
    4.6684   -1.6741   -1.3593 H   0  0  0  0  0  0  0  0  0  0  0  0
    5.3276   -0.5991    0.8392 H   0  0  0  0  0  0  0  0  0  0  0  0
    3.5423    0.5298    2.2235 H   0  0  0  0  0  0  0  0  0  0  0  0
   -1.7450    1.2001    1.6651 H   0  0  0  0  0  0  0  0  0  0  0  0
   -3.6453   -0.1122    1.9493 H   0  0  0  0  0  0  0  0  0  0  0  0
   -3.3599   -2.6246    2.2286 H   0  0  0  0  0  0  0  0  0  0  0  0
   -1.0019   -3.5561    2.3137 H   0  0  0  0  0  0  0  0  0  0  0  0
    0.9406   -2.0170    1.9509 H   0  0  0  0  0  0  0  0  0  0  0  0
  1 20  1  1  0  0  0
  2  7  1  0  0  0  0
  2  1  1  6  0  0  0
  3  2  1  0  0  0  0
  4  5  2  0  0  0  0
  4  3  1  0  0  0  0
  5  6  1  0  0  0  0
  6 23  1  0  0  0  0
  6  7  2  0  0  0  0
  7 24  1  0  0  0  0
  8 13  1  0  0  0  0
  8  1  1  6  0  0  0
  9  8  1  0  0  0  0
 10 11  2  0  0  0  0
 10  9  1  0  0  0  0
 11 12  1  0  0  0  0
 12 27  1  0  0  0  0
 12 13  2  0  0  0  0
 13 28  1  0  0  0  0
 14  1  1  1  0  0  0
 14 15  1  0  0  0  0
 14 19  1  0  0  0  0
 15 16  1  0  0  0  0
 16 17  2  0  0  0  0
 17 18  1  0  0  0  0
 17 31  1  0  0  0  0
 18 32  1  0  0  0  0
 19 18  2  0  0  0  0
 21  4  1  0  0  0  0
 22  5  1  0  0  0  0
 25 10  1  0  0  0  0
 26 11  1  0  0  0  0
 29 15  1  0  0  0  0
 30 16  1  0  0  0  0
 33 19  1  0  0  0  0
M  END
