1,2
q = 0.0, confidence = 0.998

 53 57  0  0  1  0  0  0  0  0999 V2000
    0.2948    0.0816   -0.0065 N   0  0  0  0  0  2  0  0  0  0  0  0
    1.9002   -1.5052    1.3187 N   0  0  0  0  0  2  0  0  0  0  0  0
   -1.6648   -0.7613    0.7440 N   0  0  0  0  0  0  0  0  0  0  0  0
    2.8153   -2.1846    2.0335 C   0  0  0  0  0  3  0  0  0  0  0  0
    3.8614   -2.0865    1.7075 H   0  0  0  0  0  0  0  0  0  0  0  0
    2.4813   -2.9688    3.1459 C   0  0  0  0  0  0  0  0  0  0  0  0
    3.2700   -3.5035    3.6934 H   0  0  0  0  0  0  0  0  0  0  0  0
    1.1422   -3.0269    3.5443 C   0  0  0  0  0  0  0  0  0  0  0  0
    0.8408   -3.6023    4.4316 H   0  0  0  0  0  0  0  0  0  0  0  0
    0.1804   -2.3316    2.7956 C   0  0  0  0  0  0  0  0  0  0  0  0
   -0.8680   -2.3439    3.1138 H   0  0  0  0  0  0  0  0  0  0  0  0
    0.5774   -1.5987    1.6672 C   0  0  0  0  0  0  0  0  0  0  0  0
   -0.3060   -0.7856    0.7968 C   0  0  2  0  0  3  0  0  0  0  0  0
   -2.0499    0.1284   -0.3835 C   0  0  2  0  0  0  0  0  0  0  0  0
   -2.2176   -0.5248   -1.2688 H   0  0  0  0  0  0  0  0  0  0  0  0
   -0.7256    0.9429   -0.6200 C   0  0  1  0  0  0  0  0  0  0  0  0
   -0.5450    1.0287   -1.7094 H   0  0  0  0  0  0  0  0  0  0  0  0
   -0.7253    2.3403   -0.0205 C   0  0  0  0  0  0  0  0  0  0  0  0
   -1.2769    3.3985   -0.7680 C   0  0  0  0  0  0  0  0  0  0  0  0
   -1.6549    3.2089   -1.7848 H   0  0  0  0  0  0  0  0  0  0  0  0
   -1.3620    4.6863   -0.2219 C   0  0  0  0  0  0  0  0  0  0  0  0
   -1.7990    5.5035   -0.8148 H   0  0  0  0  0  0  0  0  0  0  0  0
   -0.8874    4.9329    1.0765 C   0  0  0  0  0  0  0  0  0  0  0  0
   -0.9504    5.9445    1.5044 H   0  0  0  0  0  0  0  0  0  0  0  0
   -0.3254    3.8857    1.8229 C   0  0  0  0  0  0  0  0  0  0  0  0
    0.0559    4.0748    2.8376 H   0  0  0  0  0  0  0  0  0  0  0  0
   -0.2462    2.5947    1.2782 C   0  0  0  0  0  0  0  0  0  0  0  0
    0.2061    1.7805    1.8640 H   0  0  0  0  0  0  0  0  0  0  0  0
   -3.3067    0.9199   -0.1267 C   0  0  0  0  0  0  0  0  0  0  0  0
   -4.2350    1.0968   -1.1696 C   0  0  0  0  0  0  0  0  0  0  0  0
   -4.0593    0.6089   -2.1417 H   0  0  0  0  0  0  0  0  0  0  0  0
   -5.3796    1.8850   -0.9760 C   0  0  0  0  0  0  0  0  0  0  0  0
   -6.0979    2.0196   -1.7985 H   0  0  0  0  0  0  0  0  0  0  0  0
   -5.6101    2.4930    0.2677 C   0  0  0  0  0  0  0  0  0  0  0  0
   -6.5088    3.1085    0.4221 H   0  0  0  0  0  0  0  0  0  0  0  0
   -4.6951    2.3076    1.3174 C   0  0  0  0  0  0  0  0  0  0  0  0
   -4.8748    2.7795    2.2949 H   0  0  0  0  0  0  0  0  0  0  0  0
   -3.5481    1.5272    1.1217 C   0  0  0  0  0  0  0  0  0  0  0  0
   -2.8259    1.3923    1.9406 H   0  0  0  0  0  0  0  0  0  0  0  0
   -2.6187   -1.8277    1.0798 C   0  0  0  0  0  0  0  0  0  0  0  0
   -3.5522   -1.3349    1.4160 H   0  0  0  0  0  0  0  0  0  0  0  0
   -2.2338   -2.4108    1.9325 H   0  0  0  0  0  0  0  0  0  0  0  0
   -2.8988   -2.7378   -0.1011 C   0  0  0  0  0  0  0  0  0  0  0  0
   -4.1440   -2.6970   -0.7554 C   0  0  0  0  0  0  0  0  0  0  0  0
   -4.9279   -2.0154   -0.3890 H   0  0  0  0  0  0  0  0  0  0  0  0
   -4.3869   -3.5150   -1.8704 C   0  0  0  0  0  0  0  0  0  0  0  0
   -5.3656   -3.4797   -2.3718 H   0  0  0  0  0  0  0  0  0  0  0  0
   -3.3839   -4.3744   -2.3435 C   0  0  0  0  0  0  0  0  0  0  0  0
   -3.5741   -5.0158   -3.2169 H   0  0  0  0  0  0  0  0  0  0  0  0
   -2.1366   -4.4181   -1.6978 C   0  0  0  0  0  0  0  0  0  0  0  0
   -1.3508   -5.0967   -2.0622 H   0  0  0  0  0  0  0  0  0  0  0  0
   -1.8960   -3.6035   -0.5826 C   0  0  0  0  0  0  0  0  0  0  0  0
   -0.9173   -3.6480   -0.0767 H   0  0  0  0  0  0  0  0  0  0  0  0
  1 13  1  0  0  0  0
  2 12  1  0  0  0  0
  2  4  1  0  0  0  0
  3 13  1  0  0  0  0
  3 40  1  0  0  0  0
  4  6  1  0  0  0  0
  5  4  1  0  0  0  0
  6  8  2  0  0  0  0
  6  7  1  0  0  0  0
  8  9  1  0  0  0  0
 10 11  1  0  0  0  0
 10  8  1  0  0  0  0
 12 10  2  0  0  0  0
 13 12  1  1  0  0  0
 14 15  1  6  0  0  0
 14 29  1  0  0  0  0
 14  3  1  0  0  0  0
 16 17  1  6  0  0  0
 16 14  1  0  0  0  0
 16 18  1  0  0  0  0
 16  1  1  0  0  0  0
 18 27  1  0  0  0  0
 19 21  1  0  0  0  0
 19 18  2  0  0  0  0
 20 19  1  0  0  0  0
 21 23  2  0  0  0  0
 22 21  1  0  0  0  0
 23 24  1  0  0  0  0
 23 25  1  0  0  0  0
 25 26  1  0  0  0  0
 27 25  2  0  0  0  0
 27 28  1  0  0  0  0
 29 38  1  0  0  0  0
 30 32  1  0  0  0  0
 30 29  2  0  0  0  0
 31 30  1  0  0  0  0
 32 34  2  0  0  0  0
 33 32  1  0  0  0  0
 34 35  1  0  0  0  0
 34 36  1  0  0  0  0
 36 37  1  0  0  0  0
 38 36  2  0  0  0  0
 38 39  1  0  0  0  0
 40 41  1  0  0  0  0
 40 42  1  0  0  0  0
 43 40  1  0  0  0  0
 44 45  1  0  0  0  0
 44 43  2  0  0  0  0
 46 44  1  0  0  0  0
 47 46  1  0  0  0  0
 48 46  2  0  0  0  0
 48 50  1  0  0  0  0
 49 48  1  0  0  0  0
 50 52  2  0  0  0  0
 51 50  1  0  0  0  0
 52 43  1  0  0  0  0
 52 53  1  0  0  0  0
M  END
