1,2
q = 0.0, confidence = 0.996

 39 41  0  0  1  0  0  0  0  0999 V2000
   -0.6646    1.3347   -0.1508 N   0  0  0  0  0  2  0  0  0  0  0  0
    1.7851    0.6352   -0.0280 N   0  0  0  0  0  2  0  0  0  0  0  0
   -2.7347    1.6194    1.1059 C   0  0  0  0  0  0  0  0  0  0  0  0
   -2.7836    1.2953   -1.3564 C   0  0  0  0  0  0  0  0  0  0  0  0
   -2.0326    1.1058   -2.6449 C   0  0  0  0  0  0  0  0  0  0  0  0
   -1.2885    0.2839   -2.5585 H   0  0  0  0  0  0  0  0  0  0  0  0
   -1.4537    2.0154   -2.9133 H   0  0  0  0  0  0  0  0  0  0  0  0
   -2.7207    0.8837   -3.4825 H   0  0  0  0  0  0  0  0  0  0  0  0
    0.1587    2.3633   -0.1501 C   0  0  2  0  0  3  0  0  0  0  0  0
    3.0755    0.1554    0.0831 C   0  0  1  0  0  3  0  0  0  0  0  0
   -2.0706    1.4655   -0.1405 C   0  0  0  0  0  0  0  0  0  0  0  0
    1.5581    1.9787   -0.0812 C   0  0  0  0  0  0  0  0  0  0  0  0
    2.6264    2.9162   -0.0497 C   0  0  0  0  0  0  0  0  0  0  0  0
    2.3962    3.9885   -0.1001 H   0  0  0  0  0  0  0  0  0  0  0  0
    4.1883    1.0706    0.1210 C   0  0  0  0  0  0  0  0  0  0  0  0
    4.6287   -1.7071    0.2815 C   0  0  0  0  0  0  0  0  0  0  0  0
    4.8050   -2.7910    0.3471 H   0  0  0  0  0  0  0  0  0  0  0  0
    3.3277   -1.2410    0.1665 C   0  0  0  0  0  0  0  0  0  0  0  0
    2.4734   -1.9274    0.1376 H   0  0  0  0  0  0  0  0  0  0  0  0
   -4.1890    1.2948   -1.2992 C   0  0  0  0  0  0  0  0  0  0  0  0
   -4.7557    1.1710   -2.2357 H   0  0  0  0  0  0  0  0  0  0  0  0
    5.7298   -0.8119    0.3134 C   0  0  0  0  0  0  0  0  0  0  0  0
    6.7540   -1.2040    0.4017 H   0  0  0  0  0  0  0  0  0  0  0  0
   -1.9381    1.7750    2.3746 C   0  0  0  0  0  0  0  0  0  0  0  0
   -1.1416    1.0028    2.4514 H   0  0  0  0  0  0  0  0  0  0  0  0
   -2.5897    1.7062    3.2665 H   0  0  0  0  0  0  0  0  0  0  0  0
   -1.4254    2.7603    2.4134 H   0  0  0  0  0  0  0  0  0  0  0  0
    5.5102    0.5543    0.2342 C   0  0  0  0  0  0  0  0  0  0  0  0
    6.3501    1.2654    0.2595 H   0  0  0  0  0  0  0  0  0  0  0  0
    3.9272    2.4684    0.0460 C   0  0  0  0  0  0  0  0  0  0  0  0
    4.7695    3.1762    0.0702 H   0  0  0  0  0  0  0  0  0  0  0  0
   -4.8686    1.4451   -0.0803 C   0  0  0  0  0  0  0  0  0  0  0  0
   -5.9691    1.4397   -0.0582 H   0  0  0  0  0  0  0  0  0  0  0  0
   -4.1426    1.6071    1.1088 C   0  0  0  0  0  0  0  0  0  0  0  0
   -4.6712    1.7271    2.0677 H   0  0  0  0  0  0  0  0  0  0  0  0
   -0.2733    3.7989   -0.2051 C   0  0  0  0  0  0  0  0  0  0  0  0
   -1.3743    3.8695   -0.2754 H   0  0  0  0  0  0  0  0  0  0  0  0
    0.1679    4.3153   -1.0828 H   0  0  0  0  0  0  0  0  0  0  0  0
    0.0560    4.3533    0.6988 H   0  0  0  0  0  0  0  0  0  0  0  0
  1 11  1  0  0  0  0
  3 34  1  0  0  0  0
  3 24  1  0  0  0  0
  4 20  2  0  0  0  0
  4 11  1  0  0  0  0
  5  6  1  0  0  0  0
  5  4  1  0  0  0  0
  7  5  1  0  0  0  0
  8  5  1  0  0  0  0
  9  1  1  1  0  0  0
  9 12  1  0  0  0  0
 10  2  1  1  0  0  0
 10 15  1  0  0  0  0
 10 18  1  0  0  0  0
 11  3  2  0  0  0  0
 12 13  2  0  0  0  0
 12  2  1  0  0  0  0
 13 30  1  0  0  0  0
 14 13  1  0  0  0  0
 15 28  1  0  0  0  0
 16 22  1  0  0  0  0
 16 17  1  0  0  0  0
 18 16  2  0  0  0  0
 19 18  1  0  0  0  0
 20 32  1  0  0  0  0
 21 20  1  0  0  0  0
 22 23  1  0  0  0  0
 24 27  1  0  0  0  0
 24 25  1  0  0  0  0
 24 26  1  0  0  0  0
 28 29  1  0  0  0  0
 28 22  2  0  0  0  0
 30 31  1  0  0  0  0
 30 15  2  0  0  0  0
 32 33  1  0  0  0  0
 32 34  2  0  0  0  0
 34 35  1  0  0  0  0
 36  9  1  0  0  0  0
 36 39  1  0  0  0  0
 37 36  1  0  0  0  0
 38 36  1  0  0  0  0
M  END
