2,15
q = 0.0, confidence = 0.992

 23 24  0  0  1  0  0  0  0  0999 V2000
    1.0956    1.5052    2.0452 Cl  0  0  0  0  0  0  0  0  0  0  0  0
   -0.9688    1.4965    0.4059 N   0  0  0  0  0  2  0  0  0  0  0  0
   -0.5355    1.9237    1.5988 C   0  0  2  0  0  3  0  0  0  0  0  0
   -1.3106    2.6916    2.4803 C   0  0  0  0  0  0  0  0  0  0  0  0
   -0.8980    3.0125    3.4458 H   0  0  0  0  0  0  0  0  0  0  0  0
   -2.6076    3.0252    2.0745 C   0  0  0  0  0  0  0  0  0  0  0  0
   -3.2541    3.6236    2.7333 H   0  0  0  0  0  0  0  0  0  0  0  0
   -3.0671    2.6014    0.8178 C   0  0  0  0  0  0  0  0  0  0  0  0
   -4.0748    2.8653    0.4670 H   0  0  0  0  0  0  0  0  0  0  0  0
   -2.2176    1.8433   -0.0000 C   0  0  0  0  0  0  0  0  0  0  0  0
   -2.6321    1.3713   -1.3798 C   0  0  0  0  0  0  0  0  0  0  0  0
   -3.5665    1.8797   -1.6795 H   0  0  0  0  0  0  0  0  0  0  0  0
   -1.8337    1.6667   -2.0957 H   0  0  0  0  0  0  0  0  0  0  0  0
   -2.8074   -0.1278   -1.4728 C   0  0  1  0  0  3  0  0  0  0  0  0
   -1.6760   -0.8749   -1.3857 N   0  0  0  0  0  2  0  0  0  0  0  0
   -4.0703   -0.7222   -1.6253 C   0  0  0  0  0  0  0  0  0  0  0  0
   -4.9663   -0.0877   -1.6873 H   0  0  0  0  0  0  0  0  0  0  0  0
   -4.1709   -2.1169   -1.7095 C   0  0  0  0  0  0  0  0  0  0  0  0
   -5.1506   -2.5995   -1.8400 H   0  0  0  0  0  0  0  0  0  0  0  0
   -2.9977   -2.8822   -1.6266 C   0  0  0  0  0  0  0  0  0  0  0  0
   -3.0231   -3.9791   -1.6915 H   0  0  0  0  0  0  0  0  0  0  0  0
   -1.7786   -2.2223   -1.4585 C   0  0  0  0  0  0  0  0  0  0  0  0
   -0.8354   -2.7838   -1.3726 H   0  0  0  0  0  0  0  0  0  0  0  0
  2  3  1  0  0  0  0
  3  1  1  6  0  0  0
  3  4  1  0  0  0  0
  4  5  1  0  0  0  0
  6  4  2  0  0  0  0
  6  7  1  0  0  0  0
  8  6  1  0  0  0  0
  9  8  1  0  0  0  0
 10  2  1  0  0  0  0
 10  8  2  0  0  0  0
 11 10  1  0  0  0  0
 12 11  1  0  0  0  0
 13 11  1  0  0  0  0
 14 15  1  0  0  0  0
 14 11  1  1  0  0  0
 16 14  1  0  0  0  0
 17 16  1  0  0  0  0
 18 20  1  0  0  0  0
 18 16  2  0  0  0  0
 19 18  1  0  0  0  0
 20 22  2  0  0  0  0
 21 20  1  0  0  0  0
 22 15  1  0  0  0  0
 22 23  1  0  0  0  0
M  END
