1,2
q = 0.0, confidence = 1.0

 34 37  0  0  1  0  0  0  0  0999 V2000
   -2.5122    1.1565   -0.6064 N   0  0  0  0  0  2  0  0  0  0  0  0
   -0.4213   -0.3057   -0.4733 N   0  0  0  0  0  2  0  0  0  0  0  0
    0.7600   -0.9183   -0.3923 N   0  0  0  0  0  0  0  0  0  0  0  0
   -3.6708    1.8448   -0.6447 C   0  0  0  0  0  3  0  0  0  0  0  0
   -4.5845    1.2732   -0.4280 H   0  0  0  0  0  0  0  0  0  0  0  0
   -3.7285    3.2130   -0.9296 C   0  0  0  0  0  0  0  0  0  0  0  0
   -4.7025    3.7217   -0.9430 H   0  0  0  0  0  0  0  0  0  0  0  0
   -2.5358    3.9066   -1.1886 C   0  0  0  0  0  0  0  0  0  0  0  0
   -2.5479    4.9828   -1.4151 H   0  0  0  0  0  0  0  0  0  0  0  0
   -1.3285    3.2030   -1.1494 C   0  0  0  0  0  0  0  0  0  0  0  0
   -0.3685    3.7031   -1.3398 H   0  0  0  0  0  0  0  0  0  0  0  0
   -1.3462    1.8296   -0.8531 C   0  0  0  0  0  0  0  0  0  0  0  0
   -0.1645    0.9902   -0.7598 C   0  0  1  0  0  3  0  0  0  0  0  0
    1.2349    1.1931   -0.8565 C   0  0  0  0  0  0  0  0  0  0  0  0
    1.7676    2.1138   -1.1095 H   0  0  0  0  0  0  0  0  0  0  0  0
    1.8134   -0.0601   -0.6061 C   0  0  0  0  0  0  0  0  0  0  0  0
    3.1998   -0.5450   -0.6209 C   0  0  0  0  0  0  0  0  0  0  0  0
    3.4840   -1.7504   -1.2708 C   0  0  0  0  0  0  0  0  0  0  0  0
    2.6706   -2.2984   -1.7710 H   0  0  0  0  0  0  0  0  0  0  0  0
    4.8049   -2.2535   -1.3464 C   0  0  0  0  0  0  0  0  0  0  0  0
    4.9945   -3.2005   -1.8729 H   0  0  0  0  0  0  0  0  0  0  0  0
    5.8518   -1.5404   -0.7848 C   0  0  0  0  0  0  0  0  0  0  0  0
    6.8853   -1.9129   -0.8572 H   0  0  0  0  0  0  0  0  0  0  0  0
    5.6138   -0.3140   -0.0986 C   0  0  0  0  0  0  0  0  0  0  0  0
    6.6813    0.4162    0.5024 C   0  0  0  0  0  0  0  0  0  0  0  0
    7.7053    0.0236    0.4046 H   0  0  0  0  0  0  0  0  0  0  0  0
    6.4401    1.5865    1.2042 C   0  0  0  0  0  0  0  0  0  0  0  0
    7.2735    2.1375    1.6653 H   0  0  0  0  0  0  0  0  0  0  0  0
    5.1112    2.0642    1.3477 C   0  0  0  0  0  0  0  0  0  0  0  0
    4.9186    2.9749    1.9346 H   0  0  0  0  0  0  0  0  0  0  0  0
    4.0503    1.3838    0.7669 C   0  0  0  0  0  0  0  0  0  0  0  0
    3.0244    1.7492    0.9117 H   0  0  0  0  0  0  0  0  0  0  0  0
    4.2655    0.1939    0.0106 C   0  0  0  0  0  0  0  0  0  0  0  0
    0.8051   -1.8911   -0.0798 H   0  0  0  0  0  0  0  0  0  0  0  0
  2  3  1  0  0  0  0
  3 34  1  0  0  0  0
  4  1  1  0  0  0  0
  4  5  1  0  0  0  0
  6  4  1  0  0  0  0
  7  6  1  0  0  0  0
  8 10  1  0  0  0  0
  8  6  2  0  0  0  0
  9  8  1  0  0  0  0
 10 12  2  0  0  0  0
 11 10  1  0  0  0  0
 12  1  1  0  0  0  0
 13 12  1  1  0  0  0
 13  2  1  0  0  0  0
 14 13  1  0  0  0  0
 14 16  2  0  0  0  0
 15 14  1  0  0  0  0
 16  3  1  0  0  0  0
 17 16  1  0  0  0  0
 17 33  1  0  0  0  0
 18 17  2  0  0  0  0
 19 18  1  0  0  0  0
 20 18  1  0  0  0  0
 20 22  2  0  0  0  0
 21 20  1  0  0  0  0
 22 24  1  0  0  0  0
 23 22  1  0  0  0  0
 24 33  2  0  0  0  0
 24 25  1  0  0  0  0
 25 27  2  0  0  0  0
 26 25  1  0  0  0  0
 27 29  1  0  0  0  0
 27 28  1  0  0  0  0
 29 30  1  0  0  0  0
 31 32  1  0  0  0  0
 31 29  2  0  0  0  0
 33 31  1  0  0  0  0
M  END
