4,5
q = 0.0, confidence = 1.0

 25 25  0  0  1  0  0  0  0  0999 V2000
    3.6992    2.3587    0.4231 O   0  0  0  0  0  0  0  0  0  0  0  0
    3.5264   -3.1492    0.1374 O   0  0  0  0  0  0  0  0  0  0  0  0
    4.7213    0.3153    0.6492 O   0  0  0  0  0  0  0  0  0  0  0  0
    1.1918    1.1325   -0.3370 N   0  0  0  0  0  0  0  0  0  0  0  0
    0.9782   -1.5959    0.2554 N   0  0  0  0  0  0  0  0  0  0  0  0
    3.7034    1.0539   -0.0173 C   0  0  1  0  0  0  0  0  0  0  0  0
    2.3344    0.4445    0.3070 C   0  0  2  0  0  0  0  0  0  0  0  0
    2.3105   -1.0392   -0.0791 C   0  0  1  0  0  0  0  0  0  0  0  0
    3.4925   -1.7970    0.5409 C   0  0  2  0  0  0  0  0  0  0  0  0
    4.7930   -1.0339    0.2244 C   0  0  0  0  0  0  0  0  0  0  0  0
    4.8491    3.1145    0.0490 C   0  0  0  0  0  0  0  0  0  0  0  0
    3.8936    0.9963   -1.1304 H   0  0  0  0  0  0  0  0  0  0  0  0
    2.2006    0.5403    1.4050 H   0  0  0  0  0  0  0  0  0  0  0  0
    1.4061    1.3634   -1.3219 H   0  0  0  0  0  0  0  0  0  0  0  0
    1.0066    2.0345    0.1277 H   0  0  0  0  0  0  0  0  0  0  0  0
    2.4037   -1.1066   -1.1878 H   0  0  0  0  0  0  0  0  0  0  0  0
    0.9084   -1.7757    1.2710 H   0  0  0  0  0  0  0  0  0  0  0  0
    0.8386   -2.5123   -0.1991 H   0  0  0  0  0  0  0  0  0  0  0  0
    3.3635   -1.8118    1.6460 H   0  0  0  0  0  0  0  0  0  0  0  0
    3.7493   -3.1771   -0.8136 H   0  0  0  0  0  0  0  0  0  0  0  0
    5.6483   -1.5010    0.7489 H   0  0  0  0  0  0  0  0  0  0  0  0
    4.9889   -1.0981   -0.8784 H   0  0  0  0  0  0  0  0  0  0  0  0
    4.6939    4.1417    0.4258 H   0  0  0  0  0  0  0  0  0  0  0  0
    4.9643    3.1449   -1.0591 H   0  0  0  0  0  0  0  0  0  0  0  0
    5.7715    2.6900    0.4961 H   0  0  0  0  0  0  0  0  0  0  0  0
  2  9  1  0  0  0  0
  4 15  1  0  0  0  0
  4  7  1  0  0  0  0
  5 17  1  0  0  0  0
  6 12  1  6  0  0  0
  6  7  1  0  0  0  0
  6  1  1  0  0  0  0
  6  3  1  0  0  0  0
  7 13  1  1  0  0  0
  8 16  1  6  0  0  0
  8  5  1  0  0  0  0
  8  7  1  0  0  0  0
  8  9  1  0  0  0  0
  9 19  1  1  0  0  0
 10  9  1  0  0  0  0
 10  3  1  0  0  0  0
 10 21  1  0  0  0  0
 11  1  1  0  0  0  0
 11 23  1  0  0  0  0
 11 25  1  0  0  0  0
 14  4  1  0  0  0  0
 18  5  1  0  0  0  0
 20  2  1  0  0  0  0
 22 10  1  0  0  0  0
 24 11  1  0  0  0  0
M  END
