1,3
q = 0.0, confidence = 0.992

 79 81  0  0  1  0  0  0  0  0999 V2000
   -2.6258   -0.1565    0.4187 N   0  0  0  0  0  2  0  0  0  0  0  0
   -3.1537    0.4236   -0.7000 N   0  0  0  0  0  0  0  0  0  0  0  0
   -0.3025   -0.1710   -1.0952 N   0  0  0  0  0  2  0  0  0  0  0  0
    3.1338    0.0268    0.2592 N   0  0  0  0  0  0  0  0  0  0  0  0
    3.3250    1.2666    0.7753 N   0  0  0  0  0  0  0  0  0  0  0  0
   -3.7718   -0.9480    3.4436 C   0  0  0  0  0  0  0  0  0  0  0  0
   -4.8278   -0.6231    3.3464 H   0  0  0  0  0  0  0  0  0  0  0  0
   -3.5729   -1.1594    4.5146 H   0  0  0  0  0  0  0  0  0  0  0  0
   -3.6282   -1.8797    2.8624 H   0  0  0  0  0  0  0  0  0  0  0  0
   -1.3478   -0.3124    3.1016 C   0  0  0  0  0  0  0  0  0  0  0  0
   -1.1642   -1.2664    2.5686 H   0  0  0  0  0  0  0  0  0  0  0  0
   -1.1305   -0.4802    4.1755 H   0  0  0  0  0  0  0  0  0  0  0  0
   -0.6377    0.4525    2.7247 H   0  0  0  0  0  0  0  0  0  0  0  0
   -3.0137    1.4284    3.7895 C   0  0  0  0  0  0  0  0  0  0  0  0
   -2.3840    2.2669    3.4285 H   0  0  0  0  0  0  0  0  0  0  0  0
   -2.7360    1.2194    4.8417 H   0  0  0  0  0  0  0  0  0  0  0  0
   -4.0711    1.7616    3.7911 H   0  0  0  0  0  0  0  0  0  0  0  0
   -2.8084    0.1542    2.9425 C   0  0  0  0  0  0  0  0  0  0  0  0
   -3.1383    0.4777    1.4923 C   0  0  2  0  0  3  0  0  0  0  0  0
   -4.0330    1.4751    1.0264 C   0  0  0  0  0  0  0  0  0  0  0  0
   -4.6240    2.1502    1.6477 H   0  0  0  0  0  0  0  0  0  0  0  0
   -4.0232    1.4368   -0.3687 C   0  0  0  0  0  0  0  0  0  0  0  0
   -4.8236    2.2819   -1.3502 C   0  0  0  0  0  0  0  0  0  0  0  0
   -5.7080    1.3830   -2.2456 C   0  0  0  0  0  0  0  0  0  0  0  0
   -5.1203    0.7024   -2.8922 H   0  0  0  0  0  0  0  0  0  0  0  0
   -6.3333    2.0120   -2.9112 H   0  0  0  0  0  0  0  0  0  0  0  0
   -6.3820    0.7567   -1.6285 H   0  0  0  0  0  0  0  0  0  0  0  0
   -5.7528    3.2125   -0.5438 C   0  0  0  0  0  0  0  0  0  0  0  0
   -6.4504    2.6354    0.0942 H   0  0  0  0  0  0  0  0  0  0  0  0
   -6.3571    3.8279   -1.2390 H   0  0  0  0  0  0  0  0  0  0  0  0
   -5.1760    3.9017    0.1039 H   0  0  0  0  0  0  0  0  0  0  0  0
   -3.8971    3.1727   -2.2108 C   0  0  0  0  0  0  0  0  0  0  0  0
   -3.2442    3.7982   -1.5703 H   0  0  0  0  0  0  0  0  0  0  0  0
   -4.5067    3.8465   -2.8461 H   0  0  0  0  0  0  0  0  0  0  0  0
   -3.2441    2.5884   -2.8863 H   0  0  0  0  0  0  0  0  0  0  0  0
   -2.5622    0.0451   -1.9841 C   0  0  0  0  0  0  0  0  0  0  0  0
   -3.1176    0.5537   -2.7873 H   0  0  0  0  0  0  0  0  0  0  0  0
   -2.6756   -1.0538   -2.1081 H   0  0  0  0  0  0  0  0  0  0  0  0
   -1.0928    0.4202   -2.0291 C   0  0  1  0  0  3  0  0  0  0  0  0
   -0.5711    1.3463   -2.9376 C   0  0  0  0  0  0  0  0  0  0  0  0
   -1.2250    1.7984   -3.6964 H   0  0  0  0  0  0  0  0  0  0  0  0
    0.7887    1.6830   -2.8569 C   0  0  0  0  0  0  0  0  0  0  0  0
    1.2269    2.4028   -3.5639 H   0  0  0  0  0  0  0  0  0  0  0  0
    1.5729    1.1150   -1.8500 C   0  0  0  0  0  0  0  0  0  0  0  0
    2.6279    1.3888   -1.7195 H   0  0  0  0  0  0  0  0  0  0  0  0
    0.9976    0.1846   -0.9661 C   0  0  0  0  0  0  0  0  0  0  0  0
    1.7708   -0.4364    0.1734 C   0  0  0  0  0  0  0  0  0  0  0  0
    1.2548   -0.1867    1.1239 H   0  0  0  0  0  0  0  0  0  0  0  0
    1.7158   -1.5394    0.0715 H   0  0  0  0  0  0  0  0  0  0  0  0
    4.0307   -3.0285    0.1463 C   0  0  0  0  0  0  0  0  0  0  0  0
    4.6156   -2.9345    1.0830 H   0  0  0  0  0  0  0  0  0  0  0  0
    4.2435   -4.0232   -0.2958 H   0  0  0  0  0  0  0  0  0  0  0  0
    2.9523   -3.0221    0.3984 H   0  0  0  0  0  0  0  0  0  0  0  0
    3.5508   -2.0304   -2.1355 C   0  0  0  0  0  0  0  0  0  0  0  0
    2.4657   -2.0431   -1.9150 H   0  0  0  0  0  0  0  0  0  0  0  0
    3.7738   -2.9853   -2.6540 H   0  0  0  0  0  0  0  0  0  0  0  0
    3.7696   -1.2011   -2.8386 H   0  0  0  0  0  0  0  0  0  0  0  0
    5.8947   -2.1297   -1.2626 C   0  0  0  0  0  0  0  0  0  0  0  0
    6.2293   -1.3681   -1.9952 H   0  0  0  0  0  0  0  0  0  0  0  0
    6.0143   -3.1273   -1.7298 H   0  0  0  0  0  0  0  0  0  0  0  0
    6.5671   -2.0843   -0.3829 H   0  0  0  0  0  0  0  0  0  0  0  0
    4.4208   -1.9193   -0.8604 C   0  0  0  0  0  0  0  0  0  0  0  0
    4.2960   -0.5411   -0.2242 C   0  0  0  0  0  0  0  0  0  0  0  0
    5.2891    0.4138    0.0256 C   0  0  0  0  0  0  0  0  0  0  0  0
    6.3531    0.3145   -0.2015 H   0  0  0  0  0  0  0  0  0  0  0  0
    4.6368    1.5144    0.6454 C   0  0  0  0  0  0  0  0  0  0  0  0
    5.2135    2.8311    1.1433 C   0  0  0  0  0  0  0  0  0  0  0  0
    4.9726    2.9376    2.6650 C   0  0  0  0  0  0  0  0  0  0  0  0
    3.8912    2.8597    2.8905 H   0  0  0  0  0  0  0  0  0  0  0  0
    5.3493    3.9058    3.0557 H   0  0  0  0  0  0  0  0  0  0  0  0
    5.4915    2.1202    3.2056 H   0  0  0  0  0  0  0  0  0  0  0  0
    4.4914    3.9932    0.4272 C   0  0  0  0  0  0  0  0  0  0  0  0
    4.6644    3.9512   -0.6680 H   0  0  0  0  0  0  0  0  0  0  0  0
    4.8593    4.9728    0.7970 H   0  0  0  0  0  0  0  0  0  0  0  0
    3.3994    3.9350    0.6029 H   0  0  0  0  0  0  0  0  0  0  0  0
    6.7209    2.8987    0.8508 C   0  0  0  0  0  0  0  0  0  0  0  0
    7.2699    2.0821    1.3620 H   0  0  0  0  0  0  0  0  0  0  0  0
    7.1392    3.8615    1.2080 H   0  0  0  0  0  0  0  0  0  0  0  0
    6.9271    2.8222   -0.2363 H   0  0  0  0  0  0  0  0  0  0  0  0
  1 19  1  0  0  0  0
  2 22  1  0  0  0  0
  2  1  1  0  0  0  0
  3 46  1  0  0  0  0
  4  5  1  0  0  0  0
  6  8  1  0  0  0  0
  7  6  1  0  0  0  0
  9  6  1  0  0  0  0
 10 12  1  0  0  0  0
 11 10  1  0  0  0  0
 13 10  1  0  0  0  0
 14 17  1  0  0  0  0
 14 16  1  0  0  0  0
 15 14  1  0  0  0  0
 18 10  1  0  0  0  0
 18  6  1  0  0  0  0
 18 14  1  0  0  0  0
 19 18  1  1  0  0  0
 20 19  1  0  0  0  0
 20 21  1  0  0  0  0
 22 20  2  0  0  0  0
 23 28  1  0  0  0  0
 23 22  1  0  0  0  0
 24 27  1  0  0  0  0
 24 23  1  0  0  0  0
 25 24  1  0  0  0  0
 26 24  1  0  0  0  0
 28 29  1  0  0  0  0
 28 31  1  0  0  0  0
 30 28  1  0  0  0  0
 32 33  1  0  0  0  0
 32 23  1  0  0  0  0
 34 32  1  0  0  0  0
 35 32  1  0  0  0  0
 36  2  1  0  0  0  0
 37 36  1  0  0  0  0
 38 36  1  0  0  0  0
 39 36  1  1  0  0  0
 39  3  1  0  0  0  0
 40 42  2  0  0  0  0
 40 39  1  0  0  0  0
 41 40  1  0  0  0  0
 42 44  1  0  0  0  0
 43 42  1  0  0  0  0
 44 45  1  0  0  0  0
 44 46  2  0  0  0  0
 46 47  1  0  0  0  0
 47  4  1  0  0  0  0
 47 48  1  0  0  0  0
 49 47  1  0  0  0  0
 50 53  1  0  0  0  0
 50 51  1  0  0  0  0
 52 50  1  0  0  0  0
 54 55  1  0  0  0  0
 54 62  1  0  0  0  0
 56 54  1  0  0  0  0
 57 54  1  0  0  0  0
 58 62  1  0  0  0  0
 58 61  1  0  0  0  0
 59 58  1  0  0  0  0
 60 58  1  0  0  0  0
 62 63  1  0  0  0  0
 62 50  1  0  0  0  0
 63 64  2  0  0  0  0
 63  4  1  0  0  0  0
 64 66  1  0  0  0  0
 65 64  1  0  0  0  0
 66  5  2  0  0  0  0
 66 67  1  0  0  0  0
 67 68  1  0  0  0  0
 68 69  1  0  0  0  0
 68 70  1  0  0  0  0
 68 71  1  0  0  0  0
 72 75  1  0  0  0  0
 72 74  1  0  0  0  0
 72 67  1  0  0  0  0
 73 72  1  0  0  0  0
 76 67  1  0  0  0  0
 76 78  1  0  0  0  0
 76 77  1  0  0  0  0
 79 76  1  0  0  0  0
M  END
