1,2
q = 0.0, confidence = 1.0

 33 32  0  0  1  0  0  0  0  0999 V2000
    1.4814   -0.8077    0.0861 N   0  0  0  0  0  0  0  0  0  0  0  0
   -0.2415    1.7151    0.3260 N   0  0  0  0  0  0  0  0  0  0  0  0
    3.8109   -0.3162   -0.7561 C   0  0  0  0  0  0  0  0  0  0  0  0
    2.3414    0.1213   -0.7186 C   0  0  2  0  0  0  0  0  0  0  0  0
    2.2087    1.5841   -0.2570 C   0  0  0  0  0  0  0  0  0  0  0  0
    0.8653    2.3067   -0.4862 C   0  0  1  0  0  0  0  0  0  0  0  0
    0.4505    2.3654   -1.9564 C   0  0  0  0  0  0  0  0  0  0  0  0
    1.9367   -1.0631    1.4807 C   0  0  0  0  0  0  0  0  0  0  0  0
    1.0269   -2.0345    2.2198 C   0  0  0  0  0  0  0  0  0  0  0  0
   -0.1729    2.0536    1.7729 C   0  0  0  0  0  0  0  0  0  0  0  0
   -1.3696    1.5316    2.5536 C   0  0  0  0  0  0  0  0  0  0  0  0
    1.4474   -1.7289   -0.4001 H   0  0  0  0  0  0  0  0  0  0  0  0
   -1.1500    2.0796   -0.0313 H   0  0  0  0  0  0  0  0  0  0  0  0
    4.3492    0.2491   -1.5420 H   0  0  0  0  0  0  0  0  0  0  0  0
    3.9023   -1.3942   -0.9989 H   0  0  0  0  0  0  0  0  0  0  0  0
    4.3328   -0.1294    0.2039 H   0  0  0  0  0  0  0  0  0  0  0  0
    1.9300    0.0391   -1.7450 H   0  0  0  0  0  0  0  0  0  0  0  0
    2.9748    2.1680   -0.8075 H   0  0  0  0  0  0  0  0  0  0  0  0
    2.5057    1.6638    0.8104 H   0  0  0  0  0  0  0  0  0  0  0  0
    1.0103    3.3516   -0.1231 H   0  0  0  0  0  0  0  0  0  0  0  0
    1.2558    2.8205   -2.5658 H   0  0  0  0  0  0  0  0  0  0  0  0
   -0.4644    2.9781   -2.0827 H   0  0  0  0  0  0  0  0  0  0  0  0
    0.2186    1.3531   -2.3448 H   0  0  0  0  0  0  0  0  0  0  0  0
    1.9802   -0.0908    2.0113 H   0  0  0  0  0  0  0  0  0  0  0  0
    2.9746   -1.4597    1.4511 H   0  0  0  0  0  0  0  0  0  0  0  0
    1.4517   -2.2601    3.2180 H   0  0  0  0  0  0  0  0  0  0  0  0
    0.9092   -2.9814    1.6570 H   0  0  0  0  0  0  0  0  0  0  0  0
    0.0113   -1.6098    2.3405 H   0  0  0  0  0  0  0  0  0  0  0  0
    0.7692    1.6350    2.1802 H   0  0  0  0  0  0  0  0  0  0  0  0
   -0.0954    3.1618    1.8633 H   0  0  0  0  0  0  0  0  0  0  0  0
   -1.3086    1.8696    3.6068 H   0  0  0  0  0  0  0  0  0  0  0  0
   -1.4026    0.4250    2.5257 H   0  0  0  0  0  0  0  0  0  0  0  0
   -2.3230    1.8899    2.1176 H   0  0  0  0  0  0  0  0  0  0  0  0
  1  8  1  0  0  0  0
  2 10  1  0  0  0  0
  3  4  1  0  0  0  0
  3 16  1  0  0  0  0
  4 17  1  6  0  0  0
  4  5  1  0  0  0  0
  4  1  1  0  0  0  0
  5 19  1  0  0  0  0
  6  5  1  0  0  0  0
  6 20  1  1  0  0  0
  6  2  1  0  0  0  0
  7  6  1  0  0  0  0
  8 24  1  0  0  0  0
  8  9  1  0  0  0  0
  9 28  1  0  0  0  0
  9 26  1  0  0  0  0
 10 30  1  0  0  0  0
 10 29  1  0  0  0  0
 10 11  1  0  0  0  0
 11 31  1  0  0  0  0
 12  1  1  0  0  0  0
 13  2  1  0  0  0  0
 14  3  1  0  0  0  0
 15  3  1  0  0  0  0
 18  5  1  0  0  0  0
 21  7  1  0  0  0  0
 22  7  1  0  0  0  0
 23  7  1  0  0  0  0
 25  8  1  0  0  0  0
 27  9  1  0  0  0  0
 32 11  1  0  0  0  0
 33 11  1  0  0  0  0
M  END
