1,2
q = -1.0, confidence = 0.002

 50 52  0  0  1  0  0  0  0  0999 V2000
    0.7042   -0.8598   -0.5645 N   0  0  0  0  0  2  0  0  0  0  0  0
   -1.4830   -0.3440   -0.4580 N   0  0  0  0  0  2  0  0  0  0  0  0
   -0.5695   -1.2948   -0.8073 C   0  0  1  0  0  3  0  0  0  0  0  0
   -3.8440   -0.0568   -1.0631 C   0  0  0  0  0  0  0  0  0  0  0  0
   -5.1958   -0.3198   -0.7880 C   0  0  0  0  0  0  0  0  0  0  0  0
   -5.9646    0.1455   -1.4271 H   0  0  0  0  0  0  0  0  0  0  0  0
   -5.5957   -1.1592    0.2695 C   0  0  0  0  0  0  0  0  0  0  0  0
   -4.5898   -1.7306    1.0675 C   0  0  0  0  0  0  0  0  0  0  0  0
   -4.8764   -2.3753    1.9149 H   0  0  0  0  0  0  0  0  0  0  0  0
   -0.8176   -2.5786   -1.3652 C   0  0  0  0  0  0  0  0  0  0  0  0
   -1.8513   -2.9023   -1.5500 H   0  0  0  0  0  0  0  0  0  0  0  0
    3.0473    0.4641   -2.3949 C   0  0  0  0  0  0  0  0  0  0  0  0
    3.6847    1.2104   -2.9067 H   0  0  0  0  0  0  0  0  0  0  0  0
    2.0980    0.9488   -2.0941 H   0  0  0  0  0  0  0  0  0  0  0  0
    2.7852   -0.3296   -3.1247 H   0  0  0  0  0  0  0  0  0  0  0  0
   -3.2229   -1.4912    0.8360 C   0  0  0  0  0  0  0  0  0  0  0  0
    3.1212   -1.1558   -0.4471 C   0  0  0  0  0  0  0  0  0  0  0  0
    1.7634   -1.6517   -0.8329 C   0  0  0  0  0  0  0  0  0  0  0  0
    0.2828   -3.3794   -1.6682 C   0  0  0  0  0  0  0  0  0  0  0  0
    0.1275   -4.3749   -2.1134 H   0  0  0  0  0  0  0  0  0  0  0  0
    3.2008   -2.8930    1.4300 C   0  0  0  0  0  0  0  0  0  0  0  0
    2.1024   -2.8089    1.5412 H   0  0  0  0  0  0  0  0  0  0  0  0
    3.6482   -2.9648    2.4405 H   0  0  0  0  0  0  0  0  0  0  0  0
    3.3890   -3.8590    0.9153 H   0  0  0  0  0  0  0  0  0  0  0  0
    3.7912   -1.7365    0.6578 C   0  0  0  0  0  0  0  0  0  0  0  0
    5.0480   -1.2232    1.0344 C   0  0  0  0  0  0  0  0  0  0  0  0
    5.5605   -1.6631    1.9057 H   0  0  0  0  0  0  0  0  0  0  0  0
   -2.8451   -0.6514   -0.2478 C   0  0  0  0  0  0  0  0  0  0  0  0
    1.5903   -2.9270   -1.4032 C   0  0  0  0  0  0  0  0  0  0  0  0
    2.4684   -3.5501   -1.6194 H   0  0  0  0  0  0  0  0  0  0  0  0
    3.7344   -0.1113   -1.1854 C   0  0  0  0  0  0  0  0  0  0  0  0
   -3.4491    0.8468   -2.1996 C   0  0  0  0  0  0  0  0  0  0  0  0
   -2.9313    1.7515   -1.8225 H   0  0  0  0  0  0  0  0  0  0  0  0
   -4.3319    1.1698   -2.7839 H   0  0  0  0  0  0  0  0  0  0  0  0
   -2.7405    0.3413   -2.8880 H   0  0  0  0  0  0  0  0  0  0  0  0
    4.9923    0.3623   -0.7797 C   0  0  0  0  0  0  0  0  0  0  0  0
    5.4649    1.1731   -1.3584 H   0  0  0  0  0  0  0  0  0  0  0  0
   -7.0556   -1.4441    0.5218 C   0  0  0  0  0  0  0  0  0  0  0  0
   -7.4620   -2.1599   -0.2251 H   0  0  0  0  0  0  0  0  0  0  0  0
   -7.6699   -0.5234    0.4496 H   0  0  0  0  0  0  0  0  0  0  0  0
   -7.2182   -1.8863    1.5242 H   0  0  0  0  0  0  0  0  0  0  0  0
   -2.1786   -2.0796    1.7491 C   0  0  0  0  0  0  0  0  0  0  0  0
   -2.6381   -2.5027    2.6626 H   0  0  0  0  0  0  0  0  0  0  0  0
   -1.4338   -1.3138    2.0512 H   0  0  0  0  0  0  0  0  0  0  0  0
   -1.6003   -2.8884    1.2535 H   0  0  0  0  0  0  0  0  0  0  0  0
    5.6636   -0.1711    0.3372 C   0  0  0  0  0  0  0  0  0  0  0  0
    6.9984    0.3827    0.7694 C   0  0  0  0  0  0  0  0  0  0  0  0
    7.7018    0.4603   -0.0850 H   0  0  0  0  0  0  0  0  0  0  0  0
    7.4716   -0.2482    1.5467 H   0  0  0  0  0  0  0  0  0  0  0  0
    6.8907    1.4060    1.1885 H   0  0  0  0  0  0  0  0  0  0  0  0
  2 28  1  0  0  0  0
  3  1  1  0  0  0  0
  3  2  1  6  0  0  0
  4  5  2  0  0  0  0
  4 28  1  0  0  0  0
  5  7  1  0  0  0  0
  6  5  1  0  0  0  0
  7 38  1  0  0  0  0
  7  8  2  0  0  0  0
  8  9  1  0  0  0  0
 10  3  1  0  0  0  0
 11 10  1  0  0  0  0
 12 14  1  0  0  0  0
 12 31  1  0  0  0  0
 13 12  1  0  0  0  0
 15 12  1  0  0  0  0
 16  8  1  0  0  0  0
 16 42  1  0  0  0  0
 17 25  1  0  0  0  0
 18  1  1  0  0  0  0
 18 17  1  0  0  0  0
 19 29  1  0  0  0  0
 19 10  2  0  0  0  0
 20 19  1  0  0  0  0
 21 22  1  0  0  0  0
 21 23  1  0  0  0  0
 24 21  1  0  0  0  0
 25 26  2  0  0  0  0
 25 21  1  0  0  0  0
 26 27  1  0  0  0  0
 28 16  2  0  0  0  0
 29 18  2  0  0  0  0
 30 29  1  0  0  0  0
 31 36  1  0  0  0  0
 31 17  2  0  0  0  0
 32 33  1  0  0  0  0
 32  4  1  0  0  0  0
 34 32  1  0  0  0  0
 35 32  1  0  0  0  0
 36 46  2  0  0  0  0
 37 36  1  0  0  0  0
 38 41  1  0  0  0  0
 39 38  1  0  0  0  0
 40 38  1  0  0  0  0
 42 44  1  0  0  0  0
 42 43  1  0  0  0  0
 45 42  1  0  0  0  0
 46 47  1  0  0  0  0
 46 26  1  0  0  0  0
 47 50  1  0  0  0  0
 47 49  1  0  0  0  0
 48 47  1  0  0  0  0
M  END
