2,3
q = 0.0, confidence = 1.0

 32 33  0  0  1  0  0  0  0  0999 V2000
    1.2082    0.9362   -0.8837 O   0  0  0  0  0  0  0  0  0  0  0  0
   -2.8065   -0.0150   -0.0326 N   0  0  0  0  0  2  0  0  0  0  0  0
   -0.4443   -1.0088   -0.5369 N   0  0  0  0  0  2  0  0  0  0  0  0
    0.8787   -1.2957   -0.4989 N   0  0  0  0  0  0  0  0  0  0  0  0
    1.1965   -1.9869    0.1959 H   0  0  0  0  0  0  0  0  0  0  0  0
   -1.1178   -3.2193    0.0635 N   0  0  0  0  0  0  0  0  0  0  0  0
   -0.1808   -3.6022   -0.0504 H   0  0  0  0  0  0  0  0  0  0  0  0
   -1.7102   -3.6946    0.7441 H   0  0  0  0  0  0  0  0  0  0  0  0
    3.5195    1.9896   -0.0622 N   0  0  0  0  0  0  0  0  0  0  0  0
    4.0915    2.7401    0.3170 H   0  0  0  0  0  0  0  0  0  0  0  0
    2.5295    2.1415   -0.2884 H   0  0  0  0  0  0  0  0  0  0  0  0
   -3.9987    0.5907   -0.0016 C   0  0  0  0  0  3  0  0  0  0  0  0
   -3.9529    1.6943    0.0246 H   0  0  0  0  0  0  0  0  0  0  0  0
   -5.1986   -0.1393   -0.0185 C   0  0  0  0  0  0  0  0  0  0  0  0
   -6.1641    0.3844    0.0258 H   0  0  0  0  0  0  0  0  0  0  0  0
   -5.1313   -1.5378   -0.0994 C   0  0  0  0  0  0  0  0  0  0  0  0
   -6.0514   -2.1408   -0.1295 H   0  0  0  0  0  0  0  0  0  0  0  0
   -3.8779   -2.1645   -0.1653 C   0  0  0  0  0  0  0  0  0  0  0  0
   -3.7951   -3.2546   -0.2828 H   0  0  0  0  0  0  0  0  0  0  0  0
   -2.7258   -1.3592   -0.1260 C   0  0  0  0  0  0  0  0  0  0  0  0
   -1.3411   -1.8907   -0.1989 C   0  0  2  0  0  3  0  0  0  0  0  0
    1.7170   -0.1712   -0.6267 C   0  0  0  0  0  0  0  0  0  0  0  0
    3.1473   -0.3984   -0.4140 C   0  0  0  0  0  0  0  0  0  0  0  0
    3.9920    0.7206   -0.0794 C   0  0  0  0  0  0  0  0  0  0  0  0
    5.3545    0.4458    0.2395 C   0  0  0  0  0  0  0  0  0  0  0  0
    6.0065    1.2874    0.5204 H   0  0  0  0  0  0  0  0  0  0  0  0
    5.8660   -0.8455    0.1830 C   0  0  0  0  0  0  0  0  0  0  0  0
    6.9268   -1.0129    0.4251 H   0  0  0  0  0  0  0  0  0  0  0  0
    5.0504   -1.9361   -0.1947 C   0  0  0  0  0  0  0  0  0  0  0  0
    5.4687   -2.9497   -0.2694 H   0  0  0  0  0  0  0  0  0  0  0  0
    3.7096   -1.6980   -0.4833 C   0  0  0  0  0  0  0  0  0  0  0  0
    3.0691   -2.5330   -0.8064 H   0  0  0  0  0  0  0  0  0  0  0  0
  1 22  2  0  0  0  0
  2 12  1  0  0  0  0
  3  4  1  0  0  0  0
  4  5  1  0  0  0  0
  6  8  1  0  0  0  0
  7  6  1  0  0  0  0
  9 10  1  0  0  0  0
 11  9  1  0  0  0  0
 12 13  1  0  0  0  0
 14 12  1  0  0  0  0
 14 15  1  0  0  0  0
 16 14  2  0  0  0  0
 17 16  1  0  0  0  0
 18 20  2  0  0  0  0
 18 16  1  0  0  0  0
 19 18  1  0  0  0  0
 20  2  1  0  0  0  0
 21  3  1  6  0  0  0
 21 20  1  0  0  0  0
 21  6  1  0  0  0  0
 22  4  1  0  0  0  0
 22 23  1  0  0  0  0
 23 24  1  0  0  0  0
 24  9  1  0  0  0  0
 24 25  2  0  0  0  0
 25 26  1  0  0  0  0
 27 25  1  0  0  0  0
 27 28  1  0  0  0  0
 29 27  2  0  0  0  0
 30 29  1  0  0  0  0
 31 23  2  0  0  0  0
 31 29  1  0  0  0  0
 32 31  1  0  0  0  0
M  END
