2,5
q = 0.0, confidence = 1.0

 35 38  0  0  1  0  0  0  0  0999 V2000
    0.3844   -1.6332   -1.8264 O   0  0  0  0  0  0  0  0  0  0  0  0
    2.1500   -0.0069   -0.4333 N   0  0  0  0  0  2  0  0  0  0  0  0
    3.9140   -0.6154   -1.6466 N   0  0  0  0  0  0  0  0  0  0  0  0
    4.4816   -1.1572   -2.2978 H   0  0  0  0  0  0  0  0  0  0  0  0
   -0.4544    1.0086   -0.5253 N   0  0  0  0  0  2  0  0  0  0  0  0
   -1.8645    1.1879   -2.2445 N   0  0  0  0  0  0  0  0  0  0  0  0
   -2.4141    0.8598   -3.0393 H   0  0  0  0  0  0  0  0  0  0  0  0
   -0.7923    0.5136   -1.7231 C   0  0  1  0  0  3  0  0  0  0  0  0
    2.6009   -0.8623   -1.3428 C   0  0  2  0  0  3  0  0  0  0  0  0
   -2.2640    2.1526   -1.3348 C   0  0  0  0  0  0  0  0  0  0  0  0
   -1.3609    2.0365   -0.2423 C   0  0  0  0  0  0  0  0  0  0  0  0
    3.2077    0.8397   -0.1090 C   0  0  0  0  0  0  0  0  0  0  0  0
   -0.0674   -0.5066   -2.5583 C   0  0  0  0  0  0  0  0  0  0  0  0
   -0.7658   -0.8465   -3.3563 H   0  0  0  0  0  0  0  0  0  0  0  0
    0.7878    0.0016   -3.0630 H   0  0  0  0  0  0  0  0  0  0  0  0
    5.5736    1.1243   -0.7631 C   0  0  0  0  0  0  0  0  0  0  0  0
    6.4529    0.8254   -1.3517 H   0  0  0  0  0  0  0  0  0  0  0  0
   -2.5312    3.8167    0.8564 C   0  0  0  0  0  0  0  0  0  0  0  0
   -2.6650    4.4832    1.7211 H   0  0  0  0  0  0  0  0  0  0  0  0
   -1.4916    2.8817    0.8758 C   0  0  0  0  0  0  0  0  0  0  0  0
   -0.8296    2.7616    1.7412 H   0  0  0  0  0  0  0  0  0  0  0  0
    1.7550   -1.9413   -1.9514 C   0  0  0  0  0  0  0  0  0  0  0  0
    2.0591   -2.1159   -3.0126 H   0  0  0  0  0  0  0  0  0  0  0  0
    1.9122   -2.8834   -1.3815 H   0  0  0  0  0  0  0  0  0  0  0  0
    4.3447    0.4575   -0.8733 C   0  0  0  0  0  0  0  0  0  0  0  0
    5.6278    2.1922    0.1424 C   0  0  0  0  0  0  0  0  0  0  0  0
    6.5726    2.7425    0.2636 H   0  0  0  0  0  0  0  0  0  0  0  0
   -3.3129    3.0839   -1.3532 C   0  0  0  0  0  0  0  0  0  0  0  0
   -4.0112    3.1506   -2.1998 H   0  0  0  0  0  0  0  0  0  0  0  0
    3.2758    1.9106    0.7975 C   0  0  0  0  0  0  0  0  0  0  0  0
    2.3954    2.1913    1.3927 H   0  0  0  0  0  0  0  0  0  0  0  0
   -3.4293    3.9166   -0.2349 C   0  0  0  0  0  0  0  0  0  0  0  0
   -4.2386    4.6611   -0.2006 H   0  0  0  0  0  0  0  0  0  0  0  0
    4.5005    2.5777    0.9085 C   0  0  0  0  0  0  0  0  0  0  0  0
    4.5942    3.4184    1.6114 H   0  0  0  0  0  0  0  0  0  0  0  0
  2 12  1  0  0  0  0
  3  9  1  0  0  0  0
  3 25  1  0  0  0  0
  4  3  1  0  0  0  0
  5 11  1  0  0  0  0
  6  8  1  0  0  0  0
  6 10  1  0  0  0  0
  7  6  1  0  0  0  0
  8 13  1  6  0  0  0
  8  5  1  0  0  0  0
  9 22  1  6  0  0  0
  9  2  1  0  0  0  0
 10 11  1  0  0  0  0
 11 20  2  0  0  0  0
 12 30  1  0  0  0  0
 13  1  1  0  0  0  0
 14 13  1  0  0  0  0
 15 13  1  0  0  0  0
 16 26  2  0  0  0  0
 17 16  1  0  0  0  0
 18 20  1  0  0  0  0
 18 19  1  0  0  0  0
 20 21  1  0  0  0  0
 22  1  1  0  0  0  0
 22 24  1  0  0  0  0
 23 22  1  0  0  0  0
 25 16  1  0  0  0  0
 25 12  2  0  0  0  0
 26 27  1  0  0  0  0
 26 34  1  0  0  0  0
 28 10  2  0  0  0  0
 28 32  1  0  0  0  0
 29 28  1  0  0  0  0
 30 34  2  0  0  0  0
 30 31  1  0  0  0  0
 32 33  1  0  0  0  0
 32 18  2  0  0  0  0
 34 35  1  0  0  0  0
M  END
