1,27
q = 0.0, confidence = 0.99

 52 55  0  0  0  0  0  0  0  0999 V2000
   -0.5661    1.2662   -0.2411 N   0  0  0  0  0  2  0  0  0  0  0  0
    1.7855    1.4889   -0.0133 N   0  0  0  0  0  0  0  0  0  0  0  0
    0.6336    0.7347   -0.0522 C   0  0  0  0  0  0  0  0  0  0  0  0
    2.9255    1.2652    0.7832 C   0  0  0  0  0  0  0  0  0  0  0  0
    4.1719    1.7572    0.3439 C   0  0  0  0  0  0  0  0  0  0  0  0
    5.3220    1.5376    1.1104 C   0  0  0  0  0  0  0  0  0  0  0  0
    5.2483    0.8139    2.3119 C   0  0  0  0  0  0  0  0  0  0  0  0
    4.0047    0.3343    2.7546 C   0  0  0  0  0  0  0  0  0  0  0  0
    2.8432    0.5679    2.0070 C   0  0  0  0  0  0  0  0  0  0  0  0
   -0.7079    2.6807   -0.2973 C   0  0  0  0  0  0  0  0  0  0  0  0
   -1.1783    3.2806   -1.4826 C   0  0  0  0  0  0  0  0  0  0  0  0
   -1.3679    4.6680   -1.5366 C   0  0  0  0  0  0  0  0  0  0  0  0
   -1.1001    5.4658   -0.4124 C   0  0  0  0  0  0  0  0  0  0  0  0
   -0.6375    4.8676    0.7711 C   0  0  0  0  0  0  0  0  0  0  0  0
   -0.4355    3.4822    0.8335 C   0  0  0  0  0  0  0  0  0  0  0  0
    1.6957    2.4227   -0.4259 H   0  0  0  0  0  0  0  0  0  0  0  0
    4.2337    2.2846   -0.6196 H   0  0  0  0  0  0  0  0  0  0  0  0
    6.2900    1.9205    0.7540 H   0  0  0  0  0  0  0  0  0  0  0  0
    6.1556    0.6322    2.9066 H   0  0  0  0  0  0  0  0  0  0  0  0
    3.9319   -0.2132    3.7067 H   0  0  0  0  0  0  0  0  0  0  0  0
    1.8652    0.2210    2.3718 H   0  0  0  0  0  0  0  0  0  0  0  0
   -1.4091    2.6387   -2.3450 H   0  0  0  0  0  0  0  0  0  0  0  0
   -1.7421    5.1274   -2.4638 H   0  0  0  0  0  0  0  0  0  0  0  0
   -1.2629    6.5529   -0.4545 H   0  0  0  0  0  0  0  0  0  0  0  0
   -0.4413    5.4835    1.6617 H   0  0  0  0  0  0  0  0  0  0  0  0
   -0.0963    3.0042    1.7644 H   0  0  0  0  0  0  0  0  0  0  0  0
   -0.5660   -1.2662    0.2410 N   0  0  0  0  0  2  0  0  0  0  0  0
    0.6336   -0.7347    0.0522 C   0  0  0  0  0  0  0  0  0  0  0  0
   -0.7078   -2.6807    0.2973 C   0  0  0  0  0  0  0  0  0  0  0  0
    1.7856   -1.4888    0.0133 N   0  0  0  0  0  0  0  0  0  0  0  0
   -1.1781   -3.2806    1.4826 C   0  0  0  0  0  0  0  0  0  0  0  0
   -0.4354   -3.4822   -0.8335 C   0  0  0  0  0  0  0  0  0  0  0  0
    2.9256   -1.2651   -0.7832 C   0  0  0  0  0  0  0  0  0  0  0  0
    1.6957   -2.4226    0.4260 H   0  0  0  0  0  0  0  0  0  0  0  0
   -1.3677   -4.6680    1.5366 C   0  0  0  0  0  0  0  0  0  0  0  0
   -1.4090   -2.6387    2.3450 H   0  0  0  0  0  0  0  0  0  0  0  0
   -0.6374   -4.8676   -0.7711 C   0  0  0  0  0  0  0  0  0  0  0  0
   -0.0963   -3.0042   -1.7644 H   0  0  0  0  0  0  0  0  0  0  0  0
    4.1720   -1.7570   -0.3439 C   0  0  0  0  0  0  0  0  0  0  0  0
    2.8432   -0.5679   -2.0070 C   0  0  0  0  0  0  0  0  0  0  0  0
   -1.1000   -5.4658    0.4125 C   0  0  0  0  0  0  0  0  0  0  0  0
   -1.7419   -5.1274    2.4638 H   0  0  0  0  0  0  0  0  0  0  0  0
   -0.4412   -5.4835   -1.6617 H   0  0  0  0  0  0  0  0  0  0  0  0
    5.3220   -1.5375   -1.1104 C   0  0  0  0  0  0  0  0  0  0  0  0
    4.2337   -2.2844    0.6197 H   0  0  0  0  0  0  0  0  0  0  0  0
    4.0047   -0.3342   -2.7546 C   0  0  0  0  0  0  0  0  0  0  0  0
    1.8652   -0.2210   -2.3718 H   0  0  0  0  0  0  0  0  0  0  0  0
   -1.2627   -6.5530    0.4546 H   0  0  0  0  0  0  0  0  0  0  0  0
    5.2484   -0.8138   -2.3120 C   0  0  0  0  0  0  0  0  0  0  0  0
    6.2901   -1.9203   -0.7540 H   0  0  0  0  0  0  0  0  0  0  0  0
    3.9319    0.2132   -3.7067 H   0  0  0  0  0  0  0  0  0  0  0  0
    6.1556   -0.6322   -2.9067 H   0  0  0  0  0  0  0  0  0  0  0  0
  1  3  1  0  0  0  0
  2  4  1  0  0  0  0
  3  2  1  0  0  0  0
  3 28  2  0  0  0  0
  4  9  1  0  0  0  0
  5  4  2  0  0  0  0
  5  6  1  0  0  0  0
  6  7  2  0  0  0  0
  7  8  1  0  0  0  0
  7 19  1  0  0  0  0
  8 20  1  0  0  0  0
  9 21  1  0  0  0  0
  9  8  2  0  0  0  0
 10  1  1  0  0  0  0
 10 15  1  0  0  0  0
 11 10  2  0  0  0  0
 12 11  1  0  0  0  0
 12 13  2  0  0  0  0
 13 14  1  0  0  0  0
 14 15  2  0  0  0  0
 14 25  1  0  0  0  0
 15 26  1  0  0  0  0
 16  2  1  0  0  0  0
 17  5  1  0  0  0  0
 18  6  1  0  0  0  0
 22 11  1  0  0  0  0
 23 12  1  0  0  0  0
 24 13  1  0  0  0  0
 27 29  1  0  0  0  0
 28 27  1  0  0  0  0
 29 31  1  0  0  0  0
 30 28  1  0  0  0  0
 30 34  1  0  0  0  0
 31 35  2  0  0  0  0
 31 36  1  0  0  0  0
 32 37  1  0  0  0  0
 32 29  2  0  0  0  0
 33 39  1  0  0  0  0
 33 30  1  0  0  0  0
 35 42  1  0  0  0  0
 37 41  2  0  0  0  0
 38 32  1  0  0  0  0
 39 45  1  0  0  0  0
 40 33  2  0  0  0  0
 41 48  1  0  0  0  0
 41 35  1  0  0  0  0
 43 37  1  0  0  0  0
 44 50  1  0  0  0  0
 44 39  2  0  0  0  0
 46 49  2  0  0  0  0
 46 40  1  0  0  0  0
 47 40  1  0  0  0  0
 49 44  1  0  0  0  0
 51 46  1  0  0  0  0
 52 49  1  0  0  0  0
M  END
