2,3
q = 0.0, confidence = 1.0

 32 32  0  0  0  0  0  0  0  0999 V2000
   -5.7935   -0.8924    1.7335 F   0  0  0  0  0  0  0  0  0  0  0  0
   -0.3048    1.4246   -0.9730 N   0  0  0  0  0  2  0  0  0  0  0  0
    1.8842    1.4269    1.0311 N   0  0  0  0  0  0  0  0  0  0  0  0
   -2.3966   -0.0723    0.7393 C   0  0  0  0  0  0  0  0  0  0  0  0
   -1.3565   -0.3653    0.9643 H   0  0  0  0  0  0  0  0  0  0  0  0
   -3.4580   -0.6738    1.4149 C   0  0  0  0  0  0  0  0  0  0  0  0
   -3.2846   -1.4375    2.1861 H   0  0  0  0  0  0  0  0  0  0  0  0
   -4.7730   -0.3079    1.0893 C   0  0  0  0  0  0  0  0  0  0  0  0
   -5.0495    0.6577    0.1111 C   0  0  0  0  0  0  0  0  0  0  0  0
   -6.0933    0.9180   -0.1132 H   0  0  0  0  0  0  0  0  0  0  0  0
   -3.9785    1.2618   -0.5509 C   0  0  0  0  0  0  0  0  0  0  0  0
   -4.1808    2.0240   -1.3199 H   0  0  0  0  0  0  0  0  0  0  0  0
   -2.6365    0.9061   -0.2599 C   0  0  0  0  0  0  0  0  0  0  0  0
   -1.5956    1.6152   -0.9871 C   0  0  0  0  0  3  0  0  0  0  0  0
   -1.9563    2.4516   -1.6207 H   0  0  0  0  0  0  0  0  0  0  0  0
    0.5548    2.3907   -1.6589 C   0  0  0  0  0  0  0  0  0  0  0  0
   -0.0468    3.0154   -2.3548 H   0  0  0  0  0  0  0  0  0  0  0  0
    1.2797    1.8128   -2.2644 H   0  0  0  0  0  0  0  0  0  0  0  0
    1.2875    3.2929   -0.6322 C   0  0  0  0  0  0  0  0  0  0  0  0
    0.7829    4.2800   -0.5862 H   0  0  0  0  0  0  0  0  0  0  0  0
    2.3182    3.4966   -0.9849 H   0  0  0  0  0  0  0  0  0  0  0  0
    1.2946    2.7774    0.8080 C   0  0  0  0  0  0  0  0  0  0  0  0
    1.8475    3.5057    1.4450 H   0  0  0  0  0  0  0  0  0  0  0  0
    0.2563    2.7309    1.1915 H   0  0  0  0  0  0  0  0  0  0  0  0
    1.7528    1.0942    2.4728 C   0  0  0  0  0  0  0  0  0  0  0  0
    2.3128    1.8348    3.0874 H   0  0  0  0  0  0  0  0  0  0  0  0
    2.1490    0.0748    2.6359 H   0  0  0  0  0  0  0  0  0  0  0  0
    0.6837    1.1112    2.7538 H   0  0  0  0  0  0  0  0  0  0  0  0
    3.3191    1.4096    0.6531 C   0  0  0  0  0  0  0  0  0  0  0  0
    3.4284    1.6133   -0.4268 H   0  0  0  0  0  0  0  0  0  0  0  0
    3.7178    0.3980    0.8538 H   0  0  0  0  0  0  0  0  0  0  0  0
    3.8772    2.1741    1.2400 H   0  0  0  0  0  0  0  0  0  0  0  0
  3 25  1  0  0  0  0
  4  5  1  0  0  0  0
  4  6  1  0  0  0  0
  6  7  1  0  0  0  0
  8  6  2  0  0  0  0
  8  1  1  0  0  0  0
  9  8  1  0  0  0  0
 10  9  1  0  0  0  0
 11 13  1  0  0  0  0
 11  9  2  0  0  0  0
 12 11  1  0  0  0  0
 13  4  2  0  0  0  0
 14  2  1  0  0  0  0
 14 13  1  0  0  0  0
 15 14  1  0  0  0  0
 16  2  1  0  0  0  0
 16 19  1  0  0  0  0
 17 16  1  0  0  0  0
 18 16  1  0  0  0  0
 19 20  1  0  0  0  0
 19 22  1  0  0  0  0
 21 19  1  0  0  0  0
 22  3  1  0  0  0  0
 22 24  1  0  0  0  0
 22 23  1  0  0  0  0
 25 27  1  0  0  0  0
 25 28  1  0  0  0  0
 25 26  1  0  0  0  0
 29 31  1  0  0  0  0
 29  3  1  0  0  0  0
 29 32  1  0  0  0  0
 30 29  1  0  0  0  0
M  END
