1,2
q = -1.0, confidence = 0.016

 65 70  0  0  0  0  0  0  0  0999 V2000
    0.8871   -1.4237   -0.3014 N   0  0  0  0  0  0  0  0  0  0  0  0
    0.8708    1.4007   -0.3557 N   0  0  0  0  0  0  0  0  0  0  0  0
   -1.0859   -0.0197   -0.0751 N   0  0  0  0  0  2  0  0  0  0  0  0
   -0.4838   -1.2008   -0.1222 C   0  0  0  0  0  3  0  0  0  0  0  0
   -1.1910   -2.4797   -0.1488 C   0  0  0  0  0  0  0  0  0  0  0  0
   -0.2052   -3.4388   -0.4010 C   0  0  0  0  0  0  0  0  0  0  0  0
   -0.3506   -4.5160   -0.5413 H   0  0  0  0  0  0  0  0  0  0  0  0
    1.0497   -2.7579   -0.5009 C   0  0  0  0  0  0  0  0  0  0  0  0
    2.6433   -4.6913   -0.5161 C   0  0  0  0  0  0  0  0  0  0  0  0
    1.9159   -5.2770    0.0657 H   0  0  0  0  0  0  0  0  0  0  0  0
    2.3373   -3.3539   -0.8619 C   0  0  0  0  0  0  0  0  0  0  0  0
   -2.6330   -2.6848   -0.0199 C   0  0  0  0  0  0  0  0  0  0  0  0
   -4.8390   -1.9714    0.7815 C   0  0  0  0  0  0  0  0  0  0  0  0
   -5.4800   -1.2565    1.3179 H   0  0  0  0  0  0  0  0  0  0  0  0
   -5.4403   -3.1128    0.2065 C   0  0  0  0  0  0  0  0  0  0  0  0
    3.2906   -2.6105   -1.6002 C   0  0  0  0  0  0  0  0  0  0  0  0
    3.0480   -1.5761   -1.8872 H   0  0  0  0  0  0  0  0  0  0  0  0
   -3.2537   -3.8238   -0.5839 C   0  0  0  0  0  0  0  0  0  0  0  0
   -2.6442   -4.5452   -1.1484 H   0  0  0  0  0  0  0  0  0  0  0  0
    4.8157   -4.5061   -1.5957 C   0  0  0  0  0  0  0  0  0  0  0  0
    5.7806   -4.9538   -1.8783 H   0  0  0  0  0  0  0  0  0  0  0  0
   -3.4655   -1.7650    0.6736 C   0  0  0  0  0  0  0  0  0  0  0  0
   -3.0115   -0.8757    1.1287 H   0  0  0  0  0  0  0  0  0  0  0  0
    4.5169   -3.1818   -1.9600 C   0  0  0  0  0  0  0  0  0  0  0  0
    5.2455   -2.5909   -2.5359 H   0  0  0  0  0  0  0  0  0  0  0  0
    3.8728   -5.2583   -0.8746 C   0  0  0  0  0  0  0  0  0  0  0  0
    4.1013   -6.2950   -0.5839 H   0  0  0  0  0  0  0  0  0  0  0  0
   -4.6322   -4.0461   -0.4779 C   0  0  0  0  0  0  0  0  0  0  0  0
   -5.0692   -4.9395   -0.9435 H   0  0  0  0  0  0  0  0  0  0  0  0
   -7.4367   -4.3553   -0.1876 C   0  0  0  0  0  0  0  0  0  0  0  0
   -7.3204   -4.4042   -1.2938 H   0  0  0  0  0  0  0  0  0  0  0  0
   -8.5103   -4.2496    0.0555 H   0  0  0  0  0  0  0  0  0  0  0  0
   -7.0590   -5.3066    0.2507 H   0  0  0  0  0  0  0  0  0  0  0  0
   -1.2273    2.4276   -0.3385 C   0  0  0  0  0  0  0  0  0  0  0  0
   -2.6743    2.6317   -0.2672 C   0  0  0  0  0  0  0  0  0  0  0  0
   -0.5040    1.1629   -0.2269 C   0  0  0  0  0  3  0  0  0  0  0  0
   -0.2427    3.3975   -0.5557 C   0  0  0  0  0  0  0  0  0  0  0  0
   -0.4015    4.4575   -0.7852 H   0  0  0  0  0  0  0  0  0  0  0  0
    1.0230    2.7317   -0.5859 C   0  0  0  0  0  0  0  0  0  0  0  0
    2.3098    3.3334   -0.9398 C   0  0  0  0  0  0  0  0  0  0  0  0
    3.2742    2.5920   -1.6655 C   0  0  0  0  0  0  0  0  0  0  0  0
    3.0415    1.5538   -1.9467 H   0  0  0  0  0  0  0  0  0  0  0  0
   -3.1983    3.8918    0.1049 C   0  0  0  0  0  0  0  0  0  0  0  0
   -2.5058    4.7058    0.3675 H   0  0  0  0  0  0  0  0  0  0  0  0
    2.6016    4.6763   -0.6034 C   0  0  0  0  0  0  0  0  0  0  0  0
    1.8632    5.2600   -0.0333 H   0  0  0  0  0  0  0  0  0  0  0  0
   -3.6059    1.6017   -0.5681 C   0  0  0  0  0  0  0  0  0  0  0  0
   -3.2285    0.6163   -0.8682 H   0  0  0  0  0  0  0  0  0  0  0  0
   -5.4822    3.0872   -0.1119 C   0  0  0  0  0  0  0  0  0  0  0  0
   -4.5763    4.1283    0.1842 C   0  0  0  0  0  0  0  0  0  0  0  0
   -4.9340    5.1208    0.4894 H   0  0  0  0  0  0  0  0  0  0  0  0
   -7.3911    4.4559    0.2960 C   0  0  0  0  0  0  0  0  0  0  0  0
   -7.0899    4.7661    1.3223 H   0  0  0  0  0  0  0  0  0  0  0  0
   -8.4898    4.3331    0.2672 H   0  0  0  0  0  0  0  0  0  0  0  0
   -7.0988    5.2601   -0.4166 H   0  0  0  0  0  0  0  0  0  0  0  0
   -4.9788    1.8227   -0.4893 C   0  0  0  0  0  0  0  0  0  0  0  0
   -5.6950    1.0214   -0.7238 H   0  0  0  0  0  0  0  0  0  0  0  0
    4.7832    4.5003   -1.6654 C   0  0  0  0  0  0  0  0  0  0  0  0
    5.7462    4.9539   -1.9450 H   0  0  0  0  0  0  0  0  0  0  0  0
    4.4982    3.1708   -2.0213 C   0  0  0  0  0  0  0  0  0  0  0  0
    5.2358    2.5818   -2.5877 H   0  0  0  0  0  0  0  0  0  0  0  0
    3.8288    5.2507   -0.9574 C   0  0  0  0  0  0  0  0  0  0  0  0
    4.0466    6.2918   -0.6742 H   0  0  0  0  0  0  0  0  0  0  0  0
   -6.8374    3.2053   -0.0624 O   0  0  0  0  0  0  0  0  0  0  0  0
   -6.7874   -3.2257    0.3625 O   0  0  0  0  0  0  0  0  0  0  0  0
  1  4  1  0  0  0  0
  2 36  1  0  0  0  0
  4  3  1  0  0  0  0
  5  4  1  0  0  0  0
  5 12  1  0  0  0  0
  6  5  2  0  0  0  0
  7  6  1  0  0  0  0
  8  6  1  0  0  0  0
  8  1  2  0  0  0  0
  9 10  1  0  0  0  0
 11  9  1  0  0  0  0
 11  8  1  0  0  0  0
 12 22  1  0  0  0  0
 13 14  1  0  0  0  0
 15 65  1  0  0  0  0
 15 13  1  0  0  0  0
 16 11  2  0  0  0  0
 17 16  1  0  0  0  0
 18 28  1  0  0  0  0
 18 12  2  0  0  0  0
 19 18  1  0  0  0  0
 20 26  1  0  0  0  0
 21 20  1  0  0  0  0
 22 13  2  0  0  0  0
 22 23  1  0  0  0  0
 24 16  1  0  0  0  0
 24 20  2  0  0  0  0
 25 24  1  0  0  0  0
 26 27  1  0  0  0  0
 26  9  2  0  0  0  0
 28 15  2  0  0  0  0
 29 28  1  0  0  0  0
 30 32  1  0  0  0  0
 30 33  1  0  0  0  0
 30 65  1  0  0  0  0
 31 30  1  0  0  0  0
 34 35  1  0  0  0  0
 34 36  1  0  0  0  0
 35 43  1  0  0  0  0
 36  3  1  0  0  0  0
 37 34  2  0  0  0  0
 38 37  1  0  0  0  0
 39 37  1  0  0  0  0
 39  2  2  0  0  0  0
 40 45  1  0  0  0  0
 40 39  1  0  0  0  0
 41 40  2  0  0  0  0
 42 41  1  0  0  0  0
 43 50  2  0  0  0  0
 43 44  1  0  0  0  0
 45 46  1  0  0  0  0
 47 56  1  0  0  0  0
 47 35  2  0  0  0  0
 48 47  1  0  0  0  0
 49 64  1  0  0  0  0
 49 50  1  0  0  0  0
 50 51  1  0  0  0  0
 52 53  1  0  0  0  0
 54 52  1  0  0  0  0
 55 52  1  0  0  0  0
 56 49  2  0  0  0  0
 57 56  1  0  0  0  0
 58 62  1  0  0  0  0
 59 58  1  0  0  0  0
 60 41  1  0  0  0  0
 60 58  2  0  0  0  0
 61 60  1  0  0  0  0
 62 63  1  0  0  0  0
 62 45  2  0  0  0  0
 64 52  1  0  0  0  0
M  END
