2,3
q = -1.0, confidence = 0.0

 23 24  0  0  1  0  0  0  0  0999 V2000
   -0.8210    2.8042   -1.0924 O   0  0  0  0  0  0  0  0  0  0  0  0
    0.8260    1.5633   -0.0242 N   0  0  0  0  0  2  0  0  0  0  0  0
    1.3816   -1.2408   -0.2057 N   0  0  0  0  0  2  0  0  0  0  0  0
    0.3426    2.7398   -0.6629 C   0  0  0  0  0  0  0  0  0  0  0  0
    1.2926    3.8369   -0.7447 C   0  0  0  0  0  0  0  0  0  0  0  0
    0.9470    4.7246   -1.2929 H   0  0  0  0  0  0  0  0  0  0  0  0
    2.5284    3.7824   -0.1364 C   0  0  0  0  0  0  0  0  0  0  0  0
    3.2150    4.6424   -0.1951 H   0  0  0  0  0  0  0  0  0  0  0  0
    2.9119    2.6212    0.5818 C   0  0  0  0  0  0  0  0  0  0  0  0
    3.8703    2.5598    1.1145 H   0  0  0  0  0  0  0  0  0  0  0  0
    2.0279    1.5462    0.6131 C   0  0  0  0  0  0  0  0  0  0  0  0
    2.3690    0.2989    1.4042 C   0  0  0  0  0  0  0  0  0  0  0  0
    3.3164    0.4498    1.9524 H   0  0  0  0  0  0  0  0  0  0  0  0
    1.5615    0.1276    2.1492 H   0  0  0  0  0  0  0  0  0  0  0  0
    2.4720   -0.9234    0.5392 C   0  0  2  0  0  3  0  0  0  0  0  0
    3.6392   -1.7029    0.4682 C   0  0  0  0  0  0  0  0  0  0  0  0
    4.5088   -1.4136    1.0752 H   0  0  0  0  0  0  0  0  0  0  0  0
    3.6800   -2.8255   -0.3664 C   0  0  0  0  0  0  0  0  0  0  0  0
    4.5855   -3.4480   -0.4222 H   0  0  0  0  0  0  0  0  0  0  0  0
    2.5499   -3.1292   -1.1385 C   0  0  0  0  0  0  0  0  0  0  0  0
    2.5339   -3.9877   -1.8245 H   0  0  0  0  0  0  0  0  0  0  0  0
    1.4264   -2.3053   -1.0448 C   0  0  0  0  0  0  0  0  0  0  0  0
    0.5360   -2.4421   -1.6747 H   0  0  0  0  0  0  0  0  0  0  0  0
  1  4  2  0  0  0  0
  2 11  1  0  0  0  0
  3 15  1  0  0  0  0
  4  2  1  0  0  0  0
  5  4  1  0  0  0  0
  5  7  2  0  0  0  0
  6  5  1  0  0  0  0
  7  9  1  0  0  0  0
  8  7  1  0  0  0  0
  9 11  2  0  0  0  0
  9 10  1  0  0  0  0
 11 12  1  0  0  0  0
 12 13  1  0  0  0  0
 12 14  1  0  0  0  0
 15 12  1  6  0  0  0
 16 15  1  0  0  0  0
 16 17  1  0  0  0  0
 18 16  2  0  0  0  0
 19 18  1  0  0  0  0
 20 22  2  0  0  0  0
 20 18  1  0  0  0  0
 21 20  1  0  0  0  0
 22  3  1  0  0  0  0
 23 22  1  0  0  0  0
M  END
