2,4
q = -1.0, confidence = 0.006

 62 70  0  0  0  0  0  0  0  0999 V2000
   -1.0152   -0.0616    0.5405 B   0  0  1  0  0  0  0  0  0  0  0  0
    0.8829   -1.4845   -0.0449 N   0  0  0  0  0  2  0  0  0  0  0  0
   -0.4490   -1.2671   -0.2377 N   0  0  0  0  0  0  0  0  0  0  0  0
    0.8104    1.4147   -0.1182 N   0  0  0  0  0  2  0  0  0  0  0  0
   -0.5380    1.2208   -0.1747 N   0  0  0  0  0  0  0  0  0  0  0  0
   -3.3404   -0.0414   -0.3198 N   0  0  0  0  0  0  0  0  0  0  0  0
   -2.5107   -0.1202    0.7548 N   0  0  0  0  0  0  0  0  0  0  0  0
    1.2147   -2.5514   -0.8320 C   0  0  0  0  0  0  0  0  0  0  0  0
    0.0438   -2.9916   -1.5381 C   0  0  0  0  0  0  0  0  0  0  0  0
   -0.9880   -2.1309   -1.1185 C   0  0  0  0  0  0  0  0  0  0  0  0
    0.0884   -4.0999   -2.4393 C   0  0  0  0  0  3  0  0  0  0  0  0
    1.2861   -4.7500   -2.6168 C   0  0  0  0  0  0  0  0  0  0  0  0
    2.4854   -4.3445   -1.9238 C   0  0  0  0  0  0  0  0  0  0  0  0
    3.7059   -5.0429   -2.1276 C   0  0  0  0  0  0  0  0  0  0  0  0
    4.8728   -4.6676   -1.4690 C   0  0  0  0  0  0  0  0  0  0  0  0
    4.8574   -3.5707   -0.5782 C   0  0  0  0  0  0  0  0  0  0  0  0
    3.6779   -2.8655   -0.3572 C   0  0  0  0  0  0  0  0  0  0  0  0
    2.4770   -3.2271   -1.0120 C   0  0  0  0  0  0  0  0  0  0  0  0
    1.0674    2.5192   -0.8726 C   0  0  0  0  0  0  0  0  0  0  0  0
   -0.1683    3.0409   -1.3860 C   0  0  0  0  0  0  0  0  0  0  0  0
   -1.1614    2.1593   -0.9170 C   0  0  0  0  0  0  0  0  0  0  0  0
   -0.1941    4.2268   -2.1848 C   0  0  0  0  0  3  0  0  0  0  0  0
    0.9959    4.8613   -2.4539 C   0  0  0  0  0  0  0  0  0  0  0  0
    2.2622    4.3481   -1.9854 C   0  0  0  0  0  0  0  0  0  0  0  0
    3.4786    5.0048   -2.3133 C   0  0  0  0  0  0  0  0  0  0  0  0
    4.7078    4.4965   -1.9024 C   0  0  0  0  0  0  0  0  0  0  0  0
    4.7635    3.2978   -1.1554 C   0  0  0  0  0  0  0  0  0  0  0  0
    3.5894    2.6317   -0.8131 C   0  0  0  0  0  0  0  0  0  0  0  0
    2.3264    3.1442   -1.1959 C   0  0  0  0  0  0  0  0  0  0  0  0
   -4.5841   -0.1491    0.1927 C   0  0  0  0  0  0  0  0  0  0  0  0
   -4.5518   -0.3019    1.6228 C   0  0  0  0  0  0  0  0  0  0  0  0
   -3.1839   -0.2783    1.9337 C   0  0  0  0  0  0  0  0  0  0  0  0
   -5.7677   -0.4332    2.3684 C   0  0  0  0  0  0  0  0  0  0  0  0
   -6.9625   -0.4094    1.6857 C   0  0  0  0  0  0  0  0  0  0  0  0
   -7.0330   -0.2575    0.2480 C   0  0  0  0  0  0  0  0  0  0  0  0
   -8.2793   -0.2366   -0.4332 C   0  0  0  0  0  0  0  0  0  0  0  0
   -8.3407   -0.0908   -1.8174 C   0  0  0  0  0  0  0  0  0  0  0  0
   -7.1524    0.0397   -2.5729 C   0  0  0  0  0  0  0  0  0  0  0  0
   -5.9131    0.0233   -1.9352 C   0  0  0  0  0  0  0  0  0  0  0  0
   -5.8324   -0.1236   -0.5304 C   0  0  0  0  0  0  0  0  0  0  0  0
   -0.4783   -0.1103    1.6789 H   0  0  0  0  0  0  0  0  0  0  0  0
   -2.0501   -2.0603   -1.3780 H   0  0  0  0  0  0  0  0  0  0  0  0
   -0.8204   -4.4173   -2.9708 H   0  0  0  0  0  0  0  0  0  0  0  0
    1.3550   -5.6083   -3.3024 H   0  0  0  0  0  0  0  0  0  0  0  0
    3.7119   -5.8958   -2.8240 H   0  0  0  0  0  0  0  0  0  0  0  0
    5.8068   -5.2231   -1.6433 H   0  0  0  0  0  0  0  0  0  0  0  0
    5.7769   -3.2651   -0.0572 H   0  0  0  0  0  0  0  0  0  0  0  0
    3.6745   -2.0128    0.3272 H   0  0  0  0  0  0  0  0  0  0  0  0
   -2.2451    2.1099   -1.0675 H   0  0  0  0  0  0  0  0  0  0  0  0
   -1.1487    4.6178   -2.5660 H   0  0  0  0  0  0  0  0  0  0  0  0
    1.0081    5.7809   -3.0586 H   0  0  0  0  0  0  0  0  0  0  0  0
    3.4328    5.9282   -2.9115 H   0  0  0  0  0  0  0  0  0  0  0  0
    5.6373    5.0213   -2.1704 H   0  0  0  0  0  0  0  0  0  0  0  0
    5.7335    2.8804   -0.8467 H   0  0  0  0  0  0  0  0  0  0  0  0
    3.6347    1.6919   -0.2517 H   0  0  0  0  0  0  0  0  0  0  0  0
   -2.6493   -0.3692    2.8855 H   0  0  0  0  0  0  0  0  0  0  0  0
   -5.7446   -0.5509    3.4621 H   0  0  0  0  0  0  0  0  0  0  0  0
   -7.9115   -0.5088    2.2351 H   0  0  0  0  0  0  0  0  0  0  0  0
   -9.2054   -0.3387    0.1543 H   0  0  0  0  0  0  0  0  0  0  0  0
   -9.3172   -0.0775   -2.3251 H   0  0  0  0  0  0  0  0  0  0  0  0
   -7.2074    0.1540   -3.6662 H   0  0  0  0  0  0  0  0  0  0  0  0
   -4.9785    0.1227   -2.5068 H   0  0  0  0  0  0  0  0  0  0  0  0
  1  7  1  0  0  0  0
  1 41  1  1  0  0  0
  3  2  1  0  0  0  0
  3  1  1  0  0  0  0
  5  4  1  0  0  0  0
  5  1  1  0  0  0  0
  6 30  2  0  0  0  0
  6  7  1  0  0  0  0
  7 32  1  0  0  0  0
  8  2  1  0  0  0  0
  9 10  2  0  0  0  0
  9  8  1  0  0  0  0
 10  3  1  0  0  0  0
 11  9  1  0  0  0  0
 12 11  1  0  0  0  0
 12 13  2  0  0  0  0
 13 18  1  0  0  0  0
 14 13  1  0  0  0  0
 14 15  2  0  0  0  0
 15 16  1  0  0  0  0
 16 17  2  0  0  0  0
 16 47  1  0  0  0  0
 17 48  1  0  0  0  0
 18  8  2  0  0  0  0
 18 17  1  0  0  0  0
 19  4  1  0  0  0  0
 20 21  2  0  0  0  0
 20 19  1  0  0  0  0
 21  5  1  0  0  0  0
 22 20  1  0  0  0  0
 23 22  1  0  0  0  0
 23 24  2  0  0  0  0
 24 29  1  0  0  0  0
 25 24  1  0  0  0  0
 25 26  2  0  0  0  0
 26 27  1  0  0  0  0
 27 54  1  0  0  0  0
 27 28  2  0  0  0  0
 28 55  1  0  0  0  0
 29 19  2  0  0  0  0
 29 28  1  0  0  0  0
 30 31  1  0  0  0  0
 31 32  2  0  0  0  0
 31 33  1  0  0  0  0
 32 56  1  0  0  0  0
 33 57  1  0  0  0  0
 34 58  1  0  0  0  0
 34 33  2  0  0  0  0
 35 34  1  0  0  0  0
 36 59  1  0  0  0  0
 36 35  1  0  0  0  0
 37 36  2  0  0  0  0
 38 39  2  0  0  0  0
 38 37  1  0  0  0  0
 39 40  1  0  0  0  0
 40 30  1  0  0  0  0
 40 35  2  0  0  0  0
 42 10  1  0  0  0  0
 43 11  1  0  0  0  0
 44 12  1  0  0  0  0
 45 14  1  0  0  0  0
 46 15  1  0  0  0  0
 49 21  1  0  0  0  0
 50 22  1  0  0  0  0
 51 23  1  0  0  0  0
 52 25  1  0  0  0  0
 53 26  1  0  0  0  0
 60 37  1  0  0  0  0
 61 38  1  0  0  0  0
 62 39  1  0  0  0  0
M  END
