1,2
q = 0.0, confidence = 0.996

 26 27  0  0  0  0  0  0  0  0999 V2000
   -1.5001    1.0350   -0.0914 N   0  0  0  0  0  2  0  0  0  0  0  0
    0.4893   -0.1182    1.3370 N   0  0  0  0  0  0  0  0  0  0  0  0
    0.5888   -0.8946    2.0087 H   0  0  0  0  0  0  0  0  0  0  0  0
   -2.2682    1.5898   -1.0536 C   0  0  0  0  0  3  0  0  0  0  0  0
   -2.6717    0.8705   -1.7867 H   0  0  0  0  0  0  0  0  0  0  0  0
   -2.5343    2.9630   -1.0701 C   0  0  0  0  0  0  0  0  0  0  0  0
   -3.1642    3.3815   -1.8677 H   0  0  0  0  0  0  0  0  0  0  0  0
   -1.9897    3.7780   -0.0673 C   0  0  0  0  0  0  0  0  0  0  0  0
   -2.1802    4.8614   -0.0585 H   0  0  0  0  0  0  0  0  0  0  0  0
   -1.1923    3.1912    0.9277 C   0  0  0  0  0  0  0  0  0  0  0  0
   -0.7466    3.7970    1.7303 H   0  0  0  0  0  0  0  0  0  0  0  0
   -0.9663    1.8107    0.8936 C   0  0  0  0  0  0  0  0  0  0  0  0
   -0.1761    1.0571    1.9403 C   0  0  0  0  0  0  0  0  0  0  0  0
   -0.8860    0.6635    2.6978 H   0  0  0  0  0  0  0  0  0  0  0  0
    0.5458    1.7234    2.4600 H   0  0  0  0  0  0  0  0  0  0  0  0
    1.7414    0.0977    0.6436 C   0  0  0  0  0  0  0  0  0  0  0  0
    2.1640    1.3790    0.2476 C   0  0  0  0  0  0  0  0  0  0  0  0
    1.5541    2.2693    0.4490 H   0  0  0  0  0  0  0  0  0  0  0  0
    3.3791    1.5367   -0.4373 C   0  0  0  0  0  0  0  0  0  0  0  0
    3.7266    2.5287   -0.7582 H   0  0  0  0  0  0  0  0  0  0  0  0
    4.1595    0.4112   -0.7160 C   0  0  0  0  0  0  0  0  0  0  0  0
    5.3252    0.5621   -1.3676 F   0  0  0  0  0  0  0  0  0  0  0  0
    3.7461   -0.8731   -0.3334 C   0  0  0  0  0  0  0  0  0  0  0  0
    4.3741   -1.7405   -0.5812 H   0  0  0  0  0  0  0  0  0  0  0  0
    2.5342   -1.0294    0.3430 C   0  0  0  0  0  0  0  0  0  0  0  0
    2.1557   -2.0307    0.6031 H   0  0  0  0  0  0  0  0  0  0  0  0
  1 12  1  0  0  0  0
  2 13  1  0  0  0  0
  2  3  1  0  0  0  0
  4  1  1  0  0  0  0
  5  4  1  0  0  0  0
  6  4  1  0  0  0  0
  6  8  2  0  0  0  0
  7  6  1  0  0  0  0
  8  9  1  0  0  0  0
  8 10  1  0  0  0  0
 10 11  1  0  0  0  0
 12 10  2  0  0  0  0
 12 13  1  0  0  0  0
 13 15  1  0  0  0  0
 13 14  1  0  0  0  0
 16  2  1  0  0  0  0
 17 18  1  0  0  0  0
 17 16  2  0  0  0  0
 19 17  1  0  0  0  0
 20 19  1  0  0  0  0
 21 19  2  0  0  0  0
 21 23  1  0  0  0  0
 22 21  1  0  0  0  0
 23 25  2  0  0  0  0
 24 23  1  0  0  0  0
 25 26  1  0  0  0  0
 25 16  1  0  0  0  0
M  END
