1,2
q = 0.0, confidence = 0.988

 35 36  0  0  0  0  0  0  0  0999 V2000
    2.1057   -0.6955    0.1237 N   0  0  0  0  0  2  0  0  0  0  0  0
   -0.4368   -0.1527    1.0254 N   0  0  0  0  0  0  0  0  0  0  0  0
   -0.6217    0.5146    1.7851 H   0  0  0  0  0  0  0  0  0  0  0  0
    3.2765   -0.9162   -0.5171 C   0  0  0  0  0  3  0  0  0  0  0  0
    3.6532   -0.0457   -1.0826 H   0  0  0  0  0  0  0  0  0  0  0  0
    3.9332   -2.1471   -0.4397 C   0  0  0  0  0  0  0  0  0  0  0  0
    4.8828   -2.2865   -0.9754 H   0  0  0  0  0  0  0  0  0  0  0  0
    3.3619   -3.1810    0.3171 C   0  0  0  0  0  0  0  0  0  0  0  0
    3.8522   -4.1629    0.3909 H   0  0  0  0  0  0  0  0  0  0  0  0
    2.1488   -2.9432    0.9779 C   0  0  0  0  0  0  0  0  0  0  0  0
    1.6670   -3.7274    1.5802 H   0  0  0  0  0  0  0  0  0  0  0  0
    1.5408   -1.6856    0.8669 C   0  0  0  0  0  0  0  0  0  0  0  0
    0.2715   -1.3344    1.6039 C   0  0  0  0  0  0  0  0  0  0  0  0
    0.5451   -1.0794    2.6507 H   0  0  0  0  0  0  0  0  0  0  0  0
   -0.4108   -2.2077    1.6518 H   0  0  0  0  0  0  0  0  0  0  0  0
   -1.7201   -0.4060    0.3887 C   0  0  0  0  0  0  0  0  0  0  0  0
   -1.8218   -1.1638   -0.8001 C   0  0  0  0  0  0  0  0  0  0  0  0
   -0.6188   -1.6893   -1.5371 C   0  0  0  0  0  0  0  0  0  0  0  0
   -0.0854   -2.4897   -0.9836 H   0  0  0  0  0  0  0  0  0  0  0  0
    0.1175   -0.8757   -1.7161 H   0  0  0  0  0  0  0  0  0  0  0  0
   -0.9165   -2.1092   -2.5160 H   0  0  0  0  0  0  0  0  0  0  0  0
   -3.1075   -1.3774   -1.3335 C   0  0  0  0  0  0  0  0  0  0  0  0
   -3.1935   -1.9636   -2.2624 H   0  0  0  0  0  0  0  0  0  0  0  0
   -4.2696   -0.8550   -0.7437 C   0  0  0  0  0  0  0  0  0  0  0  0
   -5.6289   -1.0732   -1.3579 C   0  0  0  0  0  0  0  0  0  0  0  0
   -6.0044   -0.1413   -1.8317 H   0  0  0  0  0  0  0  0  0  0  0  0
   -6.3773   -1.3690   -0.5948 H   0  0  0  0  0  0  0  0  0  0  0  0
   -5.6046   -1.8572   -2.1390 H   0  0  0  0  0  0  0  0  0  0  0  0
   -4.1229   -0.0861    0.4254 C   0  0  0  0  0  0  0  0  0  0  0  0
   -5.0151    0.3495    0.9031 H   0  0  0  0  0  0  0  0  0  0  0  0
   -2.8685    0.1522    1.0062 C   0  0  0  0  0  0  0  0  0  0  0  0
   -2.7443    1.0138    2.2392 C   0  0  0  0  0  0  0  0  0  0  0  0
   -2.2946    0.4691    3.0987 H   0  0  0  0  0  0  0  0  0  0  0  0
   -3.7357    1.3746    2.5703 H   0  0  0  0  0  0  0  0  0  0  0  0
   -2.1149    1.9056    2.0214 H   0  0  0  0  0  0  0  0  0  0  0  0
  1 12  1  0  0  0  0
  2 13  1  0  0  0  0
  2  3  1  0  0  0  0
  4  6  1  0  0  0  0
  4  1  1  0  0  0  0
  5  4  1  0  0  0  0
  6  8  2  0  0  0  0
  7  6  1  0  0  0  0
  8  9  1  0  0  0  0
  8 10  1  0  0  0  0
 10 11  1  0  0  0  0
 12 10  2  0  0  0  0
 12 13  1  0  0  0  0
 13 15  1  0  0  0  0
 13 14  1  0  0  0  0
 16 31  1  0  0  0  0
 16  2  1  0  0  0  0
 17 16  2  0  0  0  0
 18 19  1  0  0  0  0
 18 17  1  0  0  0  0
 20 18  1  0  0  0  0
 21 18  1  0  0  0  0
 22 17  1  0  0  0  0
 22 24  2  0  0  0  0
 23 22  1  0  0  0  0
 24 29  1  0  0  0  0
 25 24  1  0  0  0  0
 25 27  1  0  0  0  0
 26 25  1  0  0  0  0
 28 25  1  0  0  0  0
 29 30  1  0  0  0  0
 29 31  2  0  0  0  0
 31 32  1  0  0  0  0
 32 34  1  0  0  0  0
 32 33  1  0  0  0  0
 35 32  1  0  0  0  0
M  END
