1,12
q = 0.0, confidence = 0.996

 28 30  0  0  1  0  0  0  0  0999 V2000
    0.0274   -1.9576    0.3427 N   0  0  0  0  0  2  0  0  0  0  0  0
   -1.0140   -2.7856    0.5708 C   0  0  0  0  0  3  0  0  0  0  0  0
   -1.9721   -2.2938    0.7932 H   0  0  0  0  0  0  0  0  0  0  0  0
   -0.8987   -4.1774    0.4861 C   0  0  0  0  0  0  0  0  0  0  0  0
   -1.7860   -4.7981    0.6763 H   0  0  0  0  0  0  0  0  0  0  0  0
    0.3363   -4.7591    0.1504 C   0  0  0  0  0  0  0  0  0  0  0  0
    0.4427   -5.8496    0.0564 H   0  0  0  0  0  0  0  0  0  0  0  0
    1.4347   -3.9178   -0.0524 C   0  0  0  0  0  0  0  0  0  0  0  0
    2.4299   -4.3016   -0.3137 H   0  0  0  0  0  0  0  0  0  0  0  0
    1.2490   -2.5306    0.0723 C   0  0  0  0  0  0  0  0  0  0  0  0
    2.2614   -1.5151   -0.0142 C   0  0  1  0  0  3  0  0  0  0  0  0
    1.8897   -0.2332    0.1823 N   0  0  0  0  0  2  0  0  0  0  0  0
    2.9658    0.5652    0.0905 N   0  0  0  0  0  0  0  0  0  0  0  0
    4.0258   -0.2193   -0.1411 C   0  0  0  0  0  0  0  0  0  0  0  0
    3.6119   -1.5425   -0.2060 N   0  0  0  0  0  0  0  0  0  0  0  0
    4.3837   -2.6875   -0.4249 N   0  0  0  0  0  0  0  0  0  0  0  0
    5.3130   -2.3098   -0.7174 H   0  0  0  0  0  0  0  0  0  0  0  0
    4.5295   -3.1340    0.4954 H   0  0  0  0  0  0  0  0  0  0  0  0
    5.3928    0.2433   -0.3387 C   0  0  0  0  0  0  0  0  0  0  0  0
    5.7010    1.6181   -0.1977 C   0  0  0  0  0  0  0  0  0  0  0  0
    4.8977    2.3214    0.0606 H   0  0  0  0  0  0  0  0  0  0  0  0
    7.0188    2.0281   -0.4000 C   0  0  0  0  0  0  0  0  0  0  0  0
    7.2900    3.0899   -0.2991 H   0  0  0  0  0  0  0  0  0  0  0  0
    7.9937    1.0697   -0.7353 C   0  0  0  0  0  0  0  0  0  0  0  0
    9.0425    1.3529   -0.9033 H   0  0  0  0  0  0  0  0  0  0  0  0
    7.5931   -0.2686   -0.8566 C   0  0  0  0  0  0  0  0  0  0  0  0
    8.3250   -1.0503   -1.1239 H   0  0  0  0  0  0  0  0  0  0  0  0
    6.3312   -0.6808   -0.6677 N   0  0  0  0  0  0  0  0  0  0  0  0
  1  2  1  0  0  0  0
  2  3  1  0  0  0  0
  4  2  1  0  0  0  0
  4  5  1  0  0  0  0
  6  4  2  0  0  0  0
  7  6  1  0  0  0  0
  8 10  2  0  0  0  0
  8  6  1  0  0  0  0
  9  8  1  0  0  0  0
 10  1  1  0  0  0  0
 11 10  1  1  0  0  0
 11 12  1  0  0  0  0
 13 12  1  0  0  0  0
 14 13  2  0  0  0  0
 15 14  1  0  0  0  0
 15 11  1  0  0  0  0
 16 15  1  0  0  0  0
 16 18  1  0  0  0  0
 17 16  1  0  0  0  0
 19 20  1  0  0  0  0
 19 14  1  0  0  0  0
 20 21  1  0  0  0  0
 22 23  1  0  0  0  0
 22 20  2  0  0  0  0
 24 22  1  0  0  0  0
 25 24  1  0  0  0  0
 26 24  2  0  0  0  0
 26 28  1  0  0  0  0
 27 26  1  0  0  0  0
 28 19  2  0  0  0  0
M  END
