3,4
q = -2.0, confidence = 0.894

 41 40  0  0  0  0  0  0  0  0999 V2000
   -2.2230    1.6760    0.2265 Si  0  0  0  0  0  0  0  0  0  0  0  0
   -2.1246   -0.2238   -2.2480 Si  0  0  0  0  0  0  0  0  0  0  0  0
   -0.1876    0.8139    1.9681 N   0  0  0  0  0  2  0  0  0  0  0  0
   -1.3945    0.4567   -0.7661 N   0  0  0  0  0  2  0  0  0  0  0  0
    0.7213    0.7223    3.1497 C   0  0  0  0  0  0  0  0  0  0  0  0
    1.5584    2.0078    3.3082 C   0  0  0  0  0  0  0  0  0  0  0  0
    1.6984   -0.4387    2.8965 C   0  0  0  0  0  0  0  0  0  0  0  0
   -0.0763    0.4119    4.4345 C   0  0  0  0  0  0  0  0  0  0  0  0
   -1.2085    1.7650    1.8584 C   0  0  0  0  0  0  0  0  0  0  0  0
   -1.5825    2.7375    2.7422 C   0  0  0  0  0  0  0  0  0  0  0  0
   -3.9802    1.1352    0.6738 C   0  0  0  0  0  0  0  0  0  0  0  0
   -2.2935    3.3842   -0.5838 C   0  0  0  0  0  0  0  0  0  0  0  0
   -2.9525    1.1545   -3.2556 C   0  0  0  0  0  0  0  0  0  0  0  0
   -0.7798   -1.0325   -3.3225 C   0  0  0  0  0  0  0  0  0  0  0  0
   -3.4799   -1.4813   -1.8368 C   0  0  0  0  0  0  0  0  0  0  0  0
   -3.8175    1.5966   -2.7209 H   0  0  0  0  0  0  0  0  0  0  0  0
   -2.2493    1.9717   -3.5122 H   0  0  0  0  0  0  0  0  0  0  0  0
   -3.3343    0.7246   -4.2053 H   0  0  0  0  0  0  0  0  0  0  0  0
   -3.9053   -1.8889   -2.7784 H   0  0  0  0  0  0  0  0  0  0  0  0
   -3.0919   -2.3276   -1.2377 H   0  0  0  0  0  0  0  0  0  0  0  0
   -4.3052   -1.0094   -1.2685 H   0  0  0  0  0  0  0  0  0  0  0  0
    0.2079   -0.9825   -2.8231 H   0  0  0  0  0  0  0  0  0  0  0  0
   -1.0174   -2.0930   -3.5424 H   0  0  0  0  0  0  0  0  0  0  0  0
   -0.6825   -0.5003   -4.2897 H   0  0  0  0  0  0  0  0  0  0  0  0
   -2.4178    3.4064    2.4811 H   0  0  0  0  0  0  0  0  0  0  0  0
   -1.1154    2.9204    3.7195 H   0  0  0  0  0  0  0  0  0  0  0  0
    2.2431   -0.2771    1.9462 H   0  0  0  0  0  0  0  0  0  0  0  0
    2.4464   -0.4935    3.7117 H   0  0  0  0  0  0  0  0  0  0  0  0
    1.1808   -1.4171    2.8515 H   0  0  0  0  0  0  0  0  0  0  0  0
    0.9356    2.9189    3.3580 H   0  0  0  0  0  0  0  0  0  0  0  0
    2.1664    1.9497    4.2333 H   0  0  0  0  0  0  0  0  0  0  0  0
    2.2494    2.1166    2.4509 H   0  0  0  0  0  0  0  0  0  0  0  0
   -0.6537   -0.5272    4.3218 H   0  0  0  0  0  0  0  0  0  0  0  0
    0.6245    0.2755    5.2825 H   0  0  0  0  0  0  0  0  0  0  0  0
   -0.7899    1.2107    4.7022 H   0  0  0  0  0  0  0  0  0  0  0  0
   -4.6452    1.1177   -0.2136 H   0  0  0  0  0  0  0  0  0  0  0  0
   -3.9716    0.1227    1.1250 H   0  0  0  0  0  0  0  0  0  0  0  0
   -4.4152    1.8394    1.4118 H   0  0  0  0  0  0  0  0  0  0  0  0
   -2.5744    4.1558    0.1613 H   0  0  0  0  0  0  0  0  0  0  0  0
   -1.3139    3.6656   -1.0155 H   0  0  0  0  0  0  0  0  0  0  0  0
   -3.0473    3.4027   -1.3951 H   0  0  0  0  0  0  0  0  0  0  0  0
  1 11  1  0  0  0  0
  1  9  1  0  0  0  0
  2 15  1  0  0  0  0
  2  4  1  0  0  0  0
  3  5  1  0  0  0  0
  4  1  1  0  0  0  0
  5  6  1  0  0  0  0
  5  8  1  0  0  0  0
  6 30  1  0  0  0  0
  6 31  1  0  0  0  0
  7  5  1  0  0  0  0
  7 28  1  0  0  0  0
  8 35  1  0  0  0  0
  8 34  1  0  0  0  0
  9  3  1  0  0  0  0
  9 10  2  0  0  0  0
 10 26  1  0  0  0  0
 11 37  1  0  0  0  0
 11 38  1  0  0  0  0
 12 39  1  0  0  0  0
 12  1  1  0  0  0  0
 13 16  1  0  0  0  0
 13  2  1  0  0  0  0
 14 22  1  0  0  0  0
 14  2  1  0  0  0  0
 15 21  1  0  0  0  0
 15 20  1  0  0  0  0
 17 13  1  0  0  0  0
 18 13  1  0  0  0  0
 19 15  1  0  0  0  0
 23 14  1  0  0  0  0
 24 14  1  0  0  0  0
 25 10  1  0  0  0  0
 27  7  1  0  0  0  0
 29  7  1  0  0  0  0
 32  6  1  0  0  0  0
 33  8  1  0  0  0  0
 36 11  1  0  0  0  0
 40 12  1  0  0  0  0
 41 12  1  0  0  0  0
M  END
