3,4
q = 0.0, confidence = 0.986

 20 21  0  0  1  0  0  0  0  0999 V2000
   -3.4168   -4.1360    0.0960 Br  0  0  0  0  0  0  0  0  0  0  0  0
   -3.8917    3.7430    0.1410 Br  0  0  0  0  0  0  0  0  0  0  0  0
    0.2457   -1.3026   -0.5541 N   0  0  0  0  0  2  0  0  0  0  0  0
    0.0973    1.3785   -0.4753 N   0  0  0  0  0  2  0  0  0  0  0  0
    0.4049   -2.6371   -0.5652 C   0  0  0  0  0  3  0  0  0  0  0  0
    1.4321   -2.9980   -0.7230 H   0  0  0  0  0  0  0  0  0  0  0  0
   -0.6534   -3.5302   -0.3761 C   0  0  0  0  0  0  0  0  0  0  0  0
   -0.4792   -4.6141   -0.3881 H   0  0  0  0  0  0  0  0  0  0  0  0
   -1.9336   -2.9939   -0.1660 C   0  0  0  0  0  0  0  0  0  0  0  0
   -2.1087   -1.6051   -0.1471 C   0  0  0  0  0  0  0  0  0  0  0  0
   -3.1056   -1.1830    0.0277 H   0  0  0  0  0  0  0  0  0  0  0  0
   -0.9891   -0.7754   -0.3421 C   0  0  0  0  0  0  0  0  0  0  0  0
   -1.0733    0.7047   -0.3164 C   0  0  1  0  0  3  0  0  0  0  0  0
   -2.2874    1.3918   -0.1323 C   0  0  0  0  0  0  0  0  0  0  0  0
   -3.2324    0.8503   -0.0047 H   0  0  0  0  0  0  0  0  0  0  0  0
   -2.2779    2.7915   -0.1094 C   0  0  0  0  0  0  0  0  0  0  0  0
   -1.0657    3.4796   -0.2728 C   0  0  0  0  0  0  0  0  0  0  0  0
   -1.0202    4.5765   -0.2569 H   0  0  0  0  0  0  0  0  0  0  0  0
    0.0944    2.7212   -0.4544 C   0  0  0  0  0  0  0  0  0  0  0  0
    1.0742    3.2072   -0.5789 H   0  0  0  0  0  0  0  0  0  0  0  0
  3 12  1  0  0  0  0
  4 19  1  0  0  0  0
  4 13  1  0  0  0  0
  5  3  1  0  0  0  0
  5  7  1  0  0  0  0
  6  5  1  0  0  0  0
  7  9  2  0  0  0  0
  8  7  1  0  0  0  0
  9 10  1  0  0  0  0
  9  1  1  0  0  0  0
 10 11  1  0  0  0  0
 12 10  2  0  0  0  0
 13 12  1  1  0  0  0
 13 14  1  0  0  0  0
 14 16  2  0  0  0  0
 14 15  1  0  0  0  0
 16  2  1  0  0  0  0
 17 18  1  0  0  0  0
 17 16  1  0  0  0  0
 19 17  2  0  0  0  0
 20 19  1  0  0  0  0
M  END
