1,25
q = 0.0, confidence = 0.974

 46 50  0  0  0  0  0  0  0  0999 V2000
   -1.2573    1.3189    0.1297 N   0  0  0  0  0  2  0  0  0  0  0  0
   -0.1400    3.1201    1.3368 C   0  0  0  0  0  0  0  0  0  0  0  0
    0.0405    4.4884    1.5786 C   0  0  0  0  0  0  0  0  0  0  0  0
   -0.6949    5.4422    0.8555 C   0  0  0  0  0  0  0  0  0  0  0  0
   -1.6118    5.0184   -0.1222 C   0  0  0  0  0  0  0  0  0  0  0  0
   -1.8112    3.6547   -0.3627 C   0  0  0  0  0  0  0  0  0  0  0  0
   -1.0877    2.7004    0.3824 C   0  0  0  0  0  0  0  0  0  0  0  0
   -2.4174    0.7083    0.2294 C   0  0  0  0  0  0  0  0  0  0  0  0
   -3.6666    1.2048    0.8329 C   0  0  0  0  0  0  0  0  0  0  0  0
   -3.6757    2.2278    1.8118 C   0  0  0  0  0  0  0  0  0  0  0  0
   -4.8640    2.6126    2.4361 C   0  0  0  0  0  0  0  0  0  0  0  0
   -6.0716    1.9830    2.0906 C   0  0  0  0  0  0  0  0  0  0  0  0
   -6.0763    0.9586    1.1389 C   0  0  0  0  0  0  0  0  0  0  0  0
   -4.8885    0.5450    0.4980 C   0  0  0  0  0  0  0  0  0  0  0  0
    0.4472    2.3614    1.8750 H   0  0  0  0  0  0  0  0  0  0  0  0
    0.7774    4.8093    2.3298 H   0  0  0  0  0  0  0  0  0  0  0  0
   -0.5407    6.5156    1.0406 H   0  0  0  0  0  0  0  0  0  0  0  0
   -2.1711    5.7592   -0.7132 H   0  0  0  0  0  0  0  0  0  0  0  0
   -2.5111    3.3125   -1.1378 H   0  0  0  0  0  0  0  0  0  0  0  0
   -2.7351    2.7099    2.1034 H   0  0  0  0  0  0  0  0  0  0  0  0
   -4.8452    3.3995    3.2043 H   0  0  0  0  0  0  0  0  0  0  0  0
   -7.0117    2.2783    2.5801 H   0  0  0  0  0  0  0  0  0  0  0  0
   -7.0218    0.4480    0.9099 H   0  0  0  0  0  0  0  0  0  0  0  0
   -2.4174   -0.7082   -0.2294 C   0  0  0  0  0  0  0  0  0  0  0  0
   -1.2573   -1.3188   -0.1296 N   0  0  0  0  0  2  0  0  0  0  0  0
   -1.0877   -2.7003   -0.3824 C   0  0  0  0  0  0  0  0  0  0  0  0
   -0.1399   -3.1200   -1.3368 C   0  0  0  0  0  0  0  0  0  0  0  0
    0.0405   -4.4882   -1.5786 C   0  0  0  0  0  0  0  0  0  0  0  0
   -0.6950   -5.4420   -0.8557 C   0  0  0  0  0  0  0  0  0  0  0  0
   -1.6119   -5.0183    0.1219 C   0  0  0  0  0  0  0  0  0  0  0  0
   -1.8113   -3.6546    0.3626 C   0  0  0  0  0  0  0  0  0  0  0  0
   -2.5113   -3.3125    1.1376 H   0  0  0  0  0  0  0  0  0  0  0  0
   -2.1714   -5.7591    0.7128 H   0  0  0  0  0  0  0  0  0  0  0  0
   -0.5407   -6.5155   -1.0408 H   0  0  0  0  0  0  0  0  0  0  0  0
    0.7776   -4.8091   -2.3297 H   0  0  0  0  0  0  0  0  0  0  0  0
    0.4474   -2.3613   -1.8748 H   0  0  0  0  0  0  0  0  0  0  0  0
   -3.6665   -1.2047   -0.8329 C   0  0  0  0  0  0  0  0  0  0  0  0
   -3.6755   -2.2278   -1.8116 C   0  0  0  0  0  0  0  0  0  0  0  0
   -4.8637   -2.6128   -2.4361 C   0  0  0  0  0  0  0  0  0  0  0  0
   -6.0714   -1.9831   -2.0907 C   0  0  0  0  0  0  0  0  0  0  0  0
   -6.0762   -0.9587   -1.1391 C   0  0  0  0  0  0  0  0  0  0  0  0
   -4.8885   -0.5450   -0.4981 C   0  0  0  0  0  0  0  0  0  0  0  0
   -7.0218   -0.4481   -0.9102 H   0  0  0  0  0  0  0  0  0  0  0  0
   -7.0114   -2.2785   -2.5803 H   0  0  0  0  0  0  0  0  0  0  0  0
   -4.8449   -3.3997   -3.2041 H   0  0  0  0  0  0  0  0  0  0  0  0
   -2.7349   -2.7100   -2.1031 H   0  0  0  0  0  0  0  0  0  0  0  0
  1  8  1  0  0  0  0
  1  7  1  0  0  0  0
  2  3  1  0  0  0  0
  2 15  1  0  0  0  0
  3 16  1  0  0  0  0
  4 17  1  0  0  0  0
  4  3  2  0  0  0  0
  5  4  1  0  0  0  0
  6  5  2  0  0  0  0
  6  7  1  0  0  0  0
  7  2  2  0  0  0  0
  8  9  1  0  0  0  0
  9 10  1  0  0  0  0
 10 20  1  0  0  0  0
 10 11  2  0  0  0  0
 11 21  1  0  0  0  0
 12 11  1  0  0  0  0
 12 22  1  0  0  0  0
 13 12  2  0  0  0  0
 14  9  2  0  0  0  0
 14 13  1  0  0  0  0
 18  5  1  0  0  0  0
 19  6  1  0  0  0  0
 23 13  1  0  0  0  0
 24 25  1  0  0  0  0
 24  8  2  0  0  0  0
 26 25  1  0  0  0  0
 26 31  1  0  0  0  0
 27 26  2  0  0  0  0
 28 27  1  0  0  0  0
 28 29  2  0  0  0  0
 29 30  1  0  0  0  0
 30 31  2  0  0  0  0
 30 33  1  0  0  0  0
 31 32  1  0  0  0  0
 34 29  1  0  0  0  0
 35 28  1  0  0  0  0
 36 27  1  0  0  0  0
 37 42  1  0  0  0  0
 37 24  1  0  0  0  0
 38 37  2  0  0  0  0
 39 40  2  0  0  0  0
 39 38  1  0  0  0  0
 40 41  1  0  0  0  0
 41 43  1  0  0  0  0
 41 42  2  0  0  0  0
 42 14  1  0  0  0  0
 44 40  1  0  0  0  0
 45 39  1  0  0  0  0
 46 38  1  0  0  0  0
M  END
