5,7
q = 0.0, confidence = 0.996

 35 36  0  0  1  0  0  0  0  0999 V2000
    4.5193    0.5006   -1.4760 O   0  0  0  0  0  0  0  0  0  0  0  0
    2.9832    0.8575    2.8249 O   0  0  0  0  0  0  0  0  0  0  0  0
   -4.3216    0.6827    2.4183 O   0  0  0  0  0  0  0  0  0  0  0  0
   -4.4817    0.6214   -2.1580 O   0  0  0  0  0  0  0  0  0  0  0  0
    1.1195    1.1873   -0.2555 N   0  0  0  0  0  0  0  0  0  0  0  0
    3.7727    0.6972    0.6803 N   0  0  0  0  0  0  0  0  0  0  0  0
   -1.6150    0.2467    0.0418 N   0  0  0  0  0  0  0  0  0  0  0  0
   -4.3795    0.6713    0.1292 N   0  0  0  0  0  0  0  0  0  0  0  0
    2.2606    1.2378   -1.2147 C   0  0  0  0  0  0  0  0  0  0  0  0
    3.6089    0.7326   -0.7053 C   0  0  0  0  0  0  0  0  0  0  0  0
    2.8133    1.0039    1.6284 C   0  0  0  0  0  0  0  0  0  0  0  0
    1.5615    1.6816    1.0769 C   0  0  0  0  0  0  0  0  0  0  0  0
   -0.0442    2.0054   -0.8000 C   0  0  1  0  0  0  0  0  0  0  0  0
   -1.2954    1.7037    0.0223 C   0  0  0  0  0  0  0  0  0  0  0  0
   -2.3570   -0.1354    1.2764 C   0  0  0  0  0  0  0  0  0  0  0  0
   -3.7588    0.4479    1.3647 C   0  0  0  0  0  0  0  0  0  0  0  0
   -3.8466    0.4190   -1.1386 C   0  0  0  0  0  0  0  0  0  0  0  0
   -2.4331   -0.1496   -1.1413 C   0  0  0  0  0  0  0  0  0  0  0  0
    0.1813    3.5191   -0.8740 C   0  0  0  0  0  0  0  0  0  0  0  0
    4.6387    0.2644    1.0212 H   0  0  0  0  0  0  0  0  0  0  0  0
   -5.3395    1.0373    0.1588 H   0  0  0  0  0  0  0  0  0  0  0  0
    2.4357    2.2885   -1.5361 H   0  0  0  0  0  0  0  0  0  0  0  0
    2.0117    0.6336   -2.1051 H   0  0  0  0  0  0  0  0  0  0  0  0
    0.7683    1.5232    1.8267 H   0  0  0  0  0  0  0  0  0  0  0  0
    1.7895    2.7718    1.0260 H   0  0  0  0  0  0  0  0  0  0  0  0
   -0.1853    1.6115   -1.8276 H   0  0  0  0  0  0  0  0  0  0  0  0
   -1.1481    2.0339    1.0692 H   0  0  0  0  0  0  0  0  0  0  0  0
   -2.1487    2.2916   -0.3774 H   0  0  0  0  0  0  0  0  0  0  0  0
   -1.7845    0.1687    2.1709 H   0  0  0  0  0  0  0  0  0  0  0  0
   -2.4051   -1.2488    1.2810 H   0  0  0  0  0  0  0  0  0  0  0  0
   -2.4694   -1.2624   -1.1436 H   0  0  0  0  0  0  0  0  0  0  0  0
   -1.9333    0.1609   -2.0760 H   0  0  0  0  0  0  0  0  0  0  0  0
    0.1897    3.9962    0.1259 H   0  0  0  0  0  0  0  0  0  0  0  0
   -0.6452    3.9768   -1.4515 H   0  0  0  0  0  0  0  0  0  0  0  0
    1.1203    3.7843   -1.3953 H   0  0  0  0  0  0  0  0  0  0  0  0
  1 10  2  0  0  0  0
  4 17  2  0  0  0  0
  5 12  1  0  0  0  0
  6 20  1  0  0  0  0
  6 11  1  0  0  0  0
  7 15  1  0  0  0  0
  8 21  1  0  0  0  0
  8 16  1  0  0  0  0
  9 10  1  0  0  0  0
  9  5  1  0  0  0  0
 10  6  1  0  0  0  0
 11  2  2  0  0  0  0
 12 11  1  0  0  0  0
 12 24  1  0  0  0  0
 13 26  1  6  0  0  0
 13  5  1  0  0  0  0
 13 14  1  0  0  0  0
 14  7  1  0  0  0  0
 14 27  1  0  0  0  0
 15 30  1  0  0  0  0
 15 16  1  0  0  0  0
 15 29  1  0  0  0  0
 16  3  2  0  0  0  0
 17  8  1  0  0  0  0
 18 17  1  0  0  0  0
 18  7  1  0  0  0  0
 19 13  1  0  0  0  0
 19 33  1  0  0  0  0
 22  9  1  0  0  0  0
 23  9  1  0  0  0  0
 25 12  1  0  0  0  0
 28 14  1  0  0  0  0
 31 18  1  0  0  0  0
 32 18  1  0  0  0  0
 34 19  1  0  0  0  0
 35 19  1  0  0  0  0
M  END
