2,3
q = 0.0, confidence = 0.93

 41 41  0  0  0  0  0  0  0  0999 V2000
   -1.5569    1.4616   -0.1228 Si  0  0  0  0  0  0  0  0  0  0  0  0
    2.3700   -0.1689   -0.0146 N   0  0  0  0  0  2  0  0  0  0  0  0
    0.1139    0.7647   -0.3997 N   0  0  0  0  0  2  0  0  0  0  0  0
    3.5265   -0.7780    0.3254 C   0  0  0  0  0  3  0  0  0  0  0  0
    3.4382   -1.6352    1.0081 H   0  0  0  0  0  0  0  0  0  0  0  0
    4.7548   -0.3441   -0.1759 C   0  0  0  0  0  0  0  0  0  0  0  0
    5.6731   -0.8681    0.1233 H   0  0  0  0  0  0  0  0  0  0  0  0
    4.7927    0.7540   -1.0623 C   0  0  0  0  0  0  0  0  0  0  0  0
    5.7509    1.1066   -1.4709 H   0  0  0  0  0  0  0  0  0  0  0  0
    3.6001    1.3869   -1.4130 C   0  0  0  0  0  0  0  0  0  0  0  0
    3.5846    2.2472   -2.0977 H   0  0  0  0  0  0  0  0  0  0  0  0
    2.3828    0.9164   -0.8739 C   0  0  0  0  0  0  0  0  0  0  0  0
    1.0646    1.4298   -1.0638 C   0  0  0  0  0  3  0  0  0  0  0  0
    0.8433    2.3151   -1.6814 H   0  0  0  0  0  0  0  0  0  0  0  0
   -2.0724    2.4552   -1.6444 C   0  0  0  0  0  0  0  0  0  0  0  0
   -1.4174    3.3390   -1.7845 H   0  0  0  0  0  0  0  0  0  0  0  0
   -3.1049    2.8344   -1.4966 H   0  0  0  0  0  0  0  0  0  0  0  0
   -2.0599    1.8540   -2.5740 H   0  0  0  0  0  0  0  0  0  0  0  0
   -1.3095    2.6177    1.3408 C   0  0  0  0  0  0  0  0  0  0  0  0
   -0.5739    3.4007    1.0655 H   0  0  0  0  0  0  0  0  0  0  0  0
   -0.8962    2.0624    2.2069 H   0  0  0  0  0  0  0  0  0  0  0  0
   -2.2533    3.1177    1.6363 H   0  0  0  0  0  0  0  0  0  0  0  0
   -2.7325   -0.0019    0.2745 C   0  0  0  0  0  0  0  0  0  0  0  0
   -1.9321   -1.0165    1.1086 C   0  0  0  0  0  0  0  0  0  0  0  0
   -2.5398   -1.9033    1.3912 H   0  0  0  0  0  0  0  0  0  0  0  0
   -1.5367   -0.5805    2.0455 H   0  0  0  0  0  0  0  0  0  0  0  0
   -1.0988   -1.4790    0.5071 H   0  0  0  0  0  0  0  0  0  0  0  0
   -3.8739    0.5679    1.1449 C   0  0  0  0  0  0  0  0  0  0  0  0
   -4.5628   -0.2367    1.4757 H   0  0  0  0  0  0  0  0  0  0  0  0
   -4.4826    1.3162    0.5936 H   0  0  0  0  0  0  0  0  0  0  0  0
   -3.4856    1.0527    2.0623 H   0  0  0  0  0  0  0  0  0  0  0  0
   -3.3103   -0.6216   -1.0449 C   0  0  0  0  0  0  0  0  0  0  0  0
   -3.8504    0.2086   -1.5563 H   0  0  0  0  0  0  0  0  0  0  0  0
   -4.3436   -1.7342   -0.7996 C   0  0  0  0  0  0  0  0  0  0  0  0
   -4.7459   -2.0972   -1.7670 H   0  0  0  0  0  0  0  0  0  0  0  0
   -5.2053   -1.3964   -0.1916 H   0  0  0  0  0  0  0  0  0  0  0  0
   -3.8876   -2.6091   -0.2921 H   0  0  0  0  0  0  0  0  0  0  0  0
   -2.2321   -1.1385   -2.0082 C   0  0  0  0  0  0  0  0  0  0  0  0
   -2.6899   -1.4367   -2.9732 H   0  0  0  0  0  0  0  0  0  0  0  0
   -1.7014   -2.0236   -1.6036 H   0  0  0  0  0  0  0  0  0  0  0  0
   -1.4504   -0.3849   -2.2303 H   0  0  0  0  0  0  0  0  0  0  0  0
  1 23  1  0  0  0  0
  1 19  1  0  0  0  0
  2  4  1  0  0  0  0
  3  1  1  0  0  0  0
  4  5  1  0  0  0  0
  6  7  1  0  0  0  0
  6  4  1  0  0  0  0
  8  6  2  0  0  0  0
  9  8  1  0  0  0  0
 10  8  1  0  0  0  0
 10 12  2  0  0  0  0
 11 10  1  0  0  0  0
 12  2  1  0  0  0  0
 13 12  1  0  0  0  0
 13  3  1  0  0  0  0
 14 13  1  0  0  0  0
 15 17  1  0  0  0  0
 15  1  1  0  0  0  0
 16 15  1  0  0  0  0
 18 15  1  0  0  0  0
 19 22  1  0  0  0  0
 19 21  1  0  0  0  0
 20 19  1  0  0  0  0
 23 24  1  0  0  0  0
 23 28  1  0  0  0  0
 24 25  1  0  0  0  0
 24 26  1  0  0  0  0
 27 24  1  0  0  0  0
 28 29  1  0  0  0  0
 28 31  1  0  0  0  0
 30 28  1  0  0  0  0
 32 34  1  0  0  0  0
 32 23  1  0  0  0  0
 33 32  1  0  0  0  0
 34 37  1  0  0  0  0
 34 36  1  0  0  0  0
 35 34  1  0  0  0  0
 38 40  1  0  0  0  0
 38 32  1  0  0  0  0
 39 38  1  0  0  0  0
 41 38  1  0  0  0  0
M  END
