6,7
q = 0.0, confidence = 0.99

 31 32  0  0  0  0  0  0  0  0999 V2000
   -2.6640   -2.2679    3.1588 O   0  0  0  0  0  0  0  0  0  0  0  0
   -2.7755    1.7391   -1.7283 F   0  0  0  0  0  0  0  0  0  0  0  0
   -4.8854    1.1564   -1.7122 F   0  0  0  0  0  0  0  0  0  0  0  0
   -4.1670    2.7116   -0.3630 F   0  0  0  0  0  0  0  0  0  0  0  0
   -3.5587    0.4744    0.1286 C   0  0  0  0  0  0  0  0  0  0  0  0
   -0.5694   -0.7140    1.9232 N   0  0  0  0  0  2  0  0  0  0  0  0
    2.1049   -0.7532    2.1136 N   0  0  0  0  0  2  0  0  0  0  0  0
   -2.2523    0.2847    0.5764 C   0  0  0  0  0  0  0  0  0  0  0  0
   -1.4211    0.8456    0.1323 H   0  0  0  0  0  0  0  0  0  0  0  0
   -1.9298   -0.6186    1.6087 C   0  0  0  0  0  0  0  0  0  0  0  0
   -4.3111   -1.2018    1.7195 C   0  0  0  0  0  0  0  0  0  0  0  0
   -5.1327   -1.7879    2.1500 H   0  0  0  0  0  0  0  0  0  0  0  0
   -2.9942   -1.3816    2.1918 C   0  0  0  0  0  0  0  0  0  0  0  0
    3.3957   -1.6430    4.4495 C   0  0  0  0  0  0  0  0  0  0  0  0
    3.9043   -1.9932    5.3596 H   0  0  0  0  0  0  0  0  0  0  0  0
    4.1314   -1.1173    3.3729 C   0  0  0  0  0  0  0  0  0  0  0  0
    5.2270   -1.0396    3.4132 H   0  0  0  0  0  0  0  0  0  0  0  0
    1.3795   -1.2448    3.1652 C   0  0  0  0  0  0  0  0  0  0  0  0
   -3.8513    1.5185   -0.9197 C   0  0  0  0  0  0  0  0  0  0  0  0
    3.4457   -0.6866    2.2304 C   0  0  0  0  0  0  0  0  0  0  0  0
    3.9891   -0.2602    1.3726 H   0  0  0  0  0  0  0  0  0  0  0  0
    2.0035   -1.7039    4.3442 C   0  0  0  0  0  0  0  0  0  0  0  0
    1.3853   -2.0956    5.1654 H   0  0  0  0  0  0  0  0  0  0  0  0
   -3.6711   -3.1206    3.6989 C   0  0  0  0  0  0  0  0  0  0  0  0
   -3.1610   -3.7717    4.4309 H   0  0  0  0  0  0  0  0  0  0  0  0
   -4.1340   -3.7486    2.9083 H   0  0  0  0  0  0  0  0  0  0  0  0
   -4.4613   -2.5365    4.2165 H   0  0  0  0  0  0  0  0  0  0  0  0
   -0.0680   -1.2483    3.0092 C   0  0  0  0  0  0  0  0  0  0  0  0
   -0.6918   -1.6715    3.8119 H   0  0  0  0  0  0  0  0  0  0  0  0
   -4.5941   -0.2828    0.7031 C   0  0  0  0  0  0  0  0  0  0  0  0
   -5.6283   -0.1598    0.3512 H   0  0  0  0  0  0  0  0  0  0  0  0
  1 24  1  0  0  0  0
  2 19  1  0  0  0  0
  3 19  1  0  0  0  0
  5  8  2  0  0  0  0
  5 30  1  0  0  0  0
  6 28  1  0  0  0  0
  7 20  1  0  0  0  0
  7 18  1  0  0  0  0
  8 10  1  0  0  0  0
  9  8  1  0  0  0  0
 10  6  1  0  0  0  0
 10 13  2  0  0  0  0
 11 12  1  0  0  0  0
 11 13  1  0  0  0  0
 13  1  1  0  0  0  0
 14 15  1  0  0  0  0
 16 17  1  0  0  0  0
 16 14  1  0  0  0  0
 18 22  1  0  0  0  0
 19  4  1  0  0  0  0
 19  5  1  0  0  0  0
 20 16  2  0  0  0  0
 21 20  1  0  0  0  0
 22 14  2  0  0  0  0
 22 23  1  0  0  0  0
 24 27  1  0  0  0  0
 24 25  1  0  0  0  0
 26 24  1  0  0  0  0
 28 18  2  0  0  0  0
 28 29  1  0  0  0  0
 30 11  2  0  0  0  0
 31 30  1  0  0  0  0
M  END
