11,12
q = -2.0, confidence = 0.864

 30 31  0  0  0  0  0  0  0  0999 V2000
    7.3983   -0.4917    0.1397 Br  0  0  0  0  0  0  0  0  0  0  0  0
   -7.3980   -0.4918   -0.1373 Br  0  0  0  0  0  0  0  0  0  0  0  0
    3.0572   -2.5778   -1.8729 F   0  0  0  0  0  0  0  0  0  0  0  0
    5.7159   -2.2452   -1.7574 F   0  0  0  0  0  0  0  0  0  0  0  0
    5.2102    0.6579    1.9859 F   0  0  0  0  0  0  0  0  0  0  0  0
    2.5725    0.2073    1.9880 F   0  0  0  0  0  0  0  0  0  0  0  0
   -2.5734    0.2073   -1.9888 F   0  0  0  0  0  0  0  0  0  0  0  0
   -5.2111    0.6581   -1.9848 F   0  0  0  0  0  0  0  0  0  0  0  0
   -5.7144   -2.2459    1.7582 F   0  0  0  0  0  0  0  0  0  0  0  0
   -3.0558   -2.5788    1.8718 F   0  0  0  0  0  0  0  0  0  0  0  0
    1.3164   -1.3107   -0.0026 N   0  0  0  0  0  2  0  0  0  0  0  0
   -1.3161   -1.3111    0.0005 N   0  0  0  0  0  2  0  0  0  0  0  0
    2.6780   -1.1866    0.0390 C   0  0  0  0  0  0  0  0  0  0  0  0
    3.5656   -1.8254   -0.8769 C   0  0  0  0  0  0  0  0  0  0  0  0
    4.9536   -1.6388   -0.8385 C   0  0  0  0  0  0  0  0  0  0  0  0
    5.5372   -0.7814    0.1132 C   0  0  0  0  0  0  0  0  0  0  0  0
    4.6947   -0.1439    1.0434 C   0  0  0  0  0  0  0  0  0  0  0  0
    3.3167   -0.3786    1.0299 C   0  0  0  0  0  0  0  0  0  0  0  0
    0.6772   -2.5783   -0.3548 C   0  0  0  0  0  0  0  0  0  0  0  0
   -0.6765   -2.5787    0.3522 C   0  0  0  0  0  0  0  0  0  0  0  0
   -2.6777   -1.1871   -0.0401 C   0  0  0  0  0  0  0  0  0  0  0  0
   -3.3171   -0.3789   -1.0304 C   0  0  0  0  0  0  0  0  0  0  0  0
   -4.6950   -0.1440   -1.0429 C   0  0  0  0  0  0  0  0  0  0  0  0
   -5.5369   -0.7817   -0.1122 C   0  0  0  0  0  0  0  0  0  0  0  0
   -4.9528   -1.6393    0.8389 C   0  0  0  0  0  0  0  0  0  0  0  0
   -3.5648   -1.8261    0.8763 C   0  0  0  0  0  0  0  0  0  0  0  0
    0.5196   -2.6938   -1.4523 H   0  0  0  0  0  0  0  0  0  0  0  0
    1.3012   -3.4294   -0.0082 H   0  0  0  0  0  0  0  0  0  0  0  0
   -0.5189   -2.6946    1.4497 H   0  0  0  0  0  0  0  0  0  0  0  0
   -1.3002   -3.4298    0.0052 H   0  0  0  0  0  0  0  0  0  0  0  0
  2 24  1  0  0  0  0
  3 14  1  0  0  0  0
  4 15  1  0  0  0  0
  7 22  1  0  0  0  0
  8 23  1  0  0  0  0
 11 13  1  0  0  0  0
 12 20  1  0  0  0  0
 13 18  1  0  0  0  0
 14 15  1  0  0  0  0
 14 13  2  0  0  0  0
 15 16  2  0  0  0  0
 16  1  1  0  0  0  0
 16 17  1  0  0  0  0
 17  5  1  0  0  0  0
 18 17  2  0  0  0  0
 18  6  1  0  0  0  0
 19 28  1  0  0  0  0
 19 11  1  0  0  0  0
 19 20  1  0  0  0  0
 20 29  1  0  0  0  0
 21 12  1  0  0  0  0
 21 26  1  0  0  0  0
 22 21  2  0  0  0  0
 23 22  1  0  0  0  0
 23 24  2  0  0  0  0
 24 25  1  0  0  0  0
 25 26  2  0  0  0  0
 25  9  1  0  0  0  0
 26 10  1  0  0  0  0
 27 19  1  0  0  0  0
 30 20  1  0  0  0  0
M  END
