1,4
q = 0.0, confidence = 0.994

 42 45  0  0  1  0  0  0  0  0999 V2000
    2.0989    0.0037    0.1298 N   0  0  0  0  0  2  0  0  0  0  0  0
    4.2433   -0.5677    0.2939 N   0  0  0  0  0  0  0  0  0  0  0  0
    5.0689   -1.1573    0.4098 H   0  0  0  0  0  0  0  0  0  0  0  0
   -2.0989    0.0036   -0.1298 N   0  0  0  0  0  2  0  0  0  0  0  0
   -4.2433   -0.5677   -0.2939 N   0  0  0  0  0  0  0  0  0  0  0  0
   -5.0689   -1.1573   -0.4100 H   0  0  0  0  0  0  0  0  0  0  0  0
    1.3936   -2.7110   -0.0987 O   0  0  0  0  0  0  0  0  0  0  0  0
   -1.3936   -2.7110    0.0986 O   0  0  0  0  0  0  0  0  0  0  0  0
    2.8676    1.1506   -0.0671 C   0  0  0  0  0  0  0  0  0  0  0  0
    2.4889    2.4773   -0.3362 C   0  0  0  0  0  0  0  0  0  0  0  0
    1.4274    2.7514   -0.4270 H   0  0  0  0  0  0  0  0  0  0  0  0
    3.5102    3.4208   -0.4834 C   0  0  0  0  0  0  0  0  0  0  0  0
    3.2511    4.4687   -0.6931 H   0  0  0  0  0  0  0  0  0  0  0  0
    4.8758    3.0598   -0.3699 C   0  0  0  0  0  0  0  0  0  0  0  0
    5.6466    3.8343   -0.4938 H   0  0  0  0  0  0  0  0  0  0  0  0
    5.2700    1.7431   -0.1056 C   0  0  0  0  0  0  0  0  0  0  0  0
    6.3305    1.4671   -0.0209 H   0  0  0  0  0  0  0  0  0  0  0  0
    4.2415    0.8003    0.0425 C   0  0  0  0  0  0  0  0  0  0  0  0
    2.9499   -1.0014    0.3388 C   0  0  1  0  0  3  0  0  0  0  0  0
    2.5498   -2.4140    0.6425 C   0  0  0  0  0  0  0  0  0  0  0  0
    3.3964   -3.1052    0.4075 H   0  0  0  0  0  0  0  0  0  0  0  0
    2.3538   -2.5084    1.7412 H   0  0  0  0  0  0  0  0  0  0  0  0
    0.6726   -3.8503    0.3471 C   0  0  0  0  0  0  0  0  0  0  0  0
    0.5251   -3.8116    1.4526 H   0  0  0  0  0  0  0  0  0  0  0  0
    1.2153   -4.7943    0.1055 H   0  0  0  0  0  0  0  0  0  0  0  0
   -0.6726   -3.8503   -0.3471 C   0  0  0  0  0  0  0  0  0  0  0  0
   -0.5250   -3.8116   -1.4526 H   0  0  0  0  0  0  0  0  0  0  0  0
   -1.2152   -4.7943   -0.1054 H   0  0  0  0  0  0  0  0  0  0  0  0
   -2.5497   -2.4141   -0.6425 C   0  0  0  0  0  0  0  0  0  0  0  0
   -3.3963   -3.1052   -0.4076 H   0  0  0  0  0  0  0  0  0  0  0  0
   -2.3538   -2.5084   -1.7412 H   0  0  0  0  0  0  0  0  0  0  0  0
   -2.9499   -1.0014   -0.3388 C   0  0  1  0  0  3  0  0  0  0  0  0
   -4.2415    0.8003   -0.0425 C   0  0  0  0  0  0  0  0  0  0  0  0
   -5.2700    1.7430    0.1055 C   0  0  0  0  0  0  0  0  0  0  0  0
   -6.3306    1.4670    0.0207 H   0  0  0  0  0  0  0  0  0  0  0  0
   -4.8759    3.0598    0.3698 C   0  0  0  0  0  0  0  0  0  0  0  0
   -5.6467    3.8342    0.4937 H   0  0  0  0  0  0  0  0  0  0  0  0
   -3.5102    3.4207    0.4834 C   0  0  0  0  0  0  0  0  0  0  0  0
   -3.2513    4.4687    0.6932 H   0  0  0  0  0  0  0  0  0  0  0  0
   -2.4889    2.4772    0.3363 C   0  0  0  0  0  0  0  0  0  0  0  0
   -1.4275    2.7514    0.4271 H   0  0  0  0  0  0  0  0  0  0  0  0
   -2.8676    1.1506    0.0671 C   0  0  0  0  0  0  0  0  0  0  0  0
  1 19  1  0  0  0  0
  2 19  1  0  0  0  0
  2  3  1  0  0  0  0
  4 42  1  0  0  0  0
  5 33  1  0  0  0  0
  6  5  1  0  0  0  0
  7 23  1  0  0  0  0
  7 20  1  0  0  0  0
  9 18  1  0  0  0  0
  9  1  1  0  0  0  0
 10  9  2  0  0  0  0
 11 10  1  0  0  0  0
 12 14  2  0  0  0  0
 12 10  1  0  0  0  0
 13 12  1  0  0  0  0
 14 16  1  0  0  0  0
 15 14  1  0  0  0  0
 16 17  1  0  0  0  0
 16 18  2  0  0  0  0
 18  2  1  0  0  0  0
 19 20  1  1  0  0  0
 20 22  1  0  0  0  0
 21 20  1  0  0  0  0
 23 24  1  0  0  0  0
 25 23  1  0  0  0  0
 26 28  1  0  0  0  0
 26  8  1  0  0  0  0
 26 23  1  0  0  0  0
 27 26  1  0  0  0  0
 29 30  1  0  0  0  0
 29  8  1  0  0  0  0
 31 29  1  0  0  0  0
 32 29  1  6  0  0  0
 32  5  1  0  0  0  0
 32  4  1  0  0  0  0
 33 42  2  0  0  0  0
 33 34  1  0  0  0  0
 34 36  2  0  0  0  0
 35 34  1  0  0  0  0
 36 38  1  0  0  0  0
 36 37  1  0  0  0  0
 38 39  1  0  0  0  0
 40 41  1  0  0  0  0
 40 38  2  0  0  0  0
 42 40  1  0  0  0  0
M  END
