1,2
q = 0.0, confidence = 1.0

 26 27  0  0  0  0  0  0  0  0999 V2000
   -1.6643   -0.3055   -0.1461 N   0  0  0  0  0  2  0  0  0  0  0  0
    0.5236    1.2411    0.0270 N   0  0  0  0  0  2  0  0  0  0  0  0
   -2.7330   -1.1079   -0.4006 C   0  0  0  0  0  0  0  0  0  0  0  0
   -4.0374   -0.6261   -0.4820 C   0  0  0  0  0  0  0  0  0  0  0  0
   -4.2749    0.7452   -0.2960 C   0  0  0  0  0  0  0  0  0  0  0  0
   -3.1796    1.5768   -0.0532 C   0  0  0  0  0  0  0  0  0  0  0  0
   -1.8788    1.0438    0.0114 C   0  0  0  0  0  0  0  0  0  0  0  0
   -0.6755    1.8767    0.1898 C   0  0  0  0  0  0  0  0  0  0  0  0
   -0.7584    3.2518    0.4743 C   0  0  0  0  0  0  0  0  0  0  0  0
    0.4182    3.9991    0.5645 C   0  0  0  0  0  0  0  0  0  0  0  0
    1.6346    3.3576    0.3200 C   0  0  0  0  0  0  0  0  0  0  0  0
    1.6695    1.9762    0.0354 C   0  0  0  0  0  0  0  0  0  0  0  0
    2.9677    1.3156   -0.3209 C   0  0  0  0  0  0  0  0  0  0  0  0
    3.0090    0.8483   -1.7840 C   0  0  0  0  0  0  0  0  0  0  0  0
   -2.5062   -2.1738   -0.5279 H   0  0  0  0  0  0  0  0  0  0  0  0
   -4.8557   -1.3296   -0.6910 H   0  0  0  0  0  0  0  0  0  0  0  0
   -5.2916    1.1598   -0.3502 H   0  0  0  0  0  0  0  0  0  0  0  0
   -3.3286    2.6567    0.0719 H   0  0  0  0  0  0  0  0  0  0  0  0
   -1.7328    3.7305    0.6330 H   0  0  0  0  0  0  0  0  0  0  0  0
    0.3827    5.0721    0.8036 H   0  0  0  0  0  0  0  0  0  0  0  0
    2.5821    3.9147    0.3401 H   0  0  0  0  0  0  0  0  0  0  0  0
    3.1075    0.4231    0.3269 H   0  0  0  0  0  0  0  0  0  0  0  0
    3.7918    2.0284   -0.1176 H   0  0  0  0  0  0  0  0  0  0  0  0
    3.9642    0.3275   -1.9900 H   0  0  0  0  0  0  0  0  0  0  0  0
    2.1908    0.1276   -1.9812 H   0  0  0  0  0  0  0  0  0  0  0  0
    2.9121    1.6988   -2.4899 H   0  0  0  0  0  0  0  0  0  0  0  0
  1  7  1  0  0  0  0
  2 12  1  0  0  0  0
  2  8  1  0  0  0  0
  3  1  1  0  0  0  0
  4  3  2  0  0  0  0
  4  5  1  0  0  0  0
  5  6  2  0  0  0  0
  6  7  1  0  0  0  0
  6 18  1  0  0  0  0
  7  8  2  0  0  0  0
  8  9  1  0  0  0  0
  9 10  2  0  0  0  0
  9 19  1  0  0  0  0
 10 20  1  0  0  0  0
 11 21  1  0  0  0  0
 11 10  1  0  0  0  0
 12 11  2  0  0  0  0
 13 23  1  0  0  0  0
 13 12  1  0  0  0  0
 13 22  1  0  0  0  0
 14 13  1  0  0  0  0
 15  3  1  0  0  0  0
 16  4  1  0  0  0  0
 17  5  1  0  0  0  0
 24 14  1  0  0  0  0
 25 14  1  0  0  0  0
 26 14  1  0  0  0  0
M  END
