2,3
q = 0.0, confidence = 1.0

 30 33  0  0  1  0  0  0  0  0999 V2000
   -1.6568    2.4873    1.0868 O   0  0  0  0  0  0  0  0  0  0  0  0
   -0.6114    0.5038    0.7944 N   0  0  0  0  0  2  0  0  0  0  0  0
    1.4935    1.5120   -0.3329 N   0  0  0  0  0  2  0  0  0  0  0  0
   -3.9675    1.5833    1.1060 C   0  0  0  0  0  0  0  0  0  0  0  0
   -4.7370    1.4866    1.9011 H   0  0  0  0  0  0  0  0  0  0  0  0
   -4.1321    2.5692    0.6255 H   0  0  0  0  0  0  0  0  0  0  0  0
   -4.0191    0.4215    0.1405 C   0  0  0  0  0  0  0  0  0  0  0  0
   -5.0309    0.1048   -0.7772 C   0  0  0  0  0  0  0  0  0  0  0  0
   -5.9141    0.7529   -0.8829 H   0  0  0  0  0  0  0  0  0  0  0  0
   -4.9015   -1.0528   -1.5606 C   0  0  0  0  0  0  0  0  0  0  0  0
   -5.6872   -1.3094   -2.2867 H   0  0  0  0  0  0  0  0  0  0  0  0
   -3.7765   -1.8866   -1.4287 C   0  0  0  0  0  0  0  0  0  0  0  0
   -3.6851   -2.7848   -2.0568 H   0  0  0  0  0  0  0  0  0  0  0  0
   -2.7630   -1.5716   -0.5117 C   0  0  0  0  0  0  0  0  0  0  0  0
   -1.8692   -2.2045   -0.4330 H   0  0  0  0  0  0  0  0  0  0  0  0
   -2.8942   -0.4162    0.2705 C   0  0  0  0  0  0  0  0  0  0  0  0
   -1.9428    0.1274    1.3204 C   0  0  2  0  0  0  0  0  0  0  0  0
   -1.8184   -0.5550    2.1834 H   0  0  0  0  0  0  0  0  0  0  0  0
   -2.5654    1.5082    1.7184 C   0  0  1  0  0  0  0  0  0  0  0  0
   -2.5363    1.7298    2.8027 H   0  0  0  0  0  0  0  0  0  0  0  0
   -0.6053    1.8027    0.6521 C   0  0  0  0  0  0  0  0  0  0  0  0
    0.5385    2.4274    0.0143 C   0  0  0  0  0  0  0  0  0  0  0  0
    0.6569    3.7949   -0.2667 C   0  0  0  0  0  0  0  0  0  0  0  0
   -0.1489    4.4765    0.0388 H   0  0  0  0  0  0  0  0  0  0  0  0
    1.7954    4.2400   -0.9479 C   0  0  0  0  0  0  0  0  0  0  0  0
    1.9234    5.3052   -1.1881 H   0  0  0  0  0  0  0  0  0  0  0  0
    2.7591    3.2959   -1.3367 C   0  0  0  0  0  0  0  0  0  0  0  0
    3.6585    3.5952   -1.8927 H   0  0  0  0  0  0  0  0  0  0  0  0
    2.5688    1.9449   -1.0229 C   0  0  0  0  0  0  0  0  0  0  0  0
    3.2841    1.1765   -1.3441 H   0  0  0  0  0  0  0  0  0  0  0  0
  1 19  1  0  0  0  0
  2 17  1  0  0  0  0
  3 22  1  0  0  0  0
  4 19  1  0  0  0  0
  4  5  1  0  0  0  0
  6  4  1  0  0  0  0
  7 16  1  0  0  0  0
  7  4  1  0  0  0  0
  8  7  2  0  0  0  0
  9  8  1  0  0  0  0
 10 12  2  0  0  0  0
 10  8  1  0  0  0  0
 11 10  1  0  0  0  0
 12 14  1  0  0  0  0
 13 12  1  0  0  0  0
 14 15  1  0  0  0  0
 14 16  2  0  0  0  0
 16 17  1  0  0  0  0
 17 19  1  0  0  0  0
 17 18  1  1  0  0  0
 19 20  1  1  0  0  0
 21  2  1  0  0  0  0
 21  1  1  0  0  0  0
 22 21  2  0  0  0  0
 23 22  1  0  0  0  0
 23 24  1  0  0  0  0
 25 23  2  0  0  0  0
 26 25  1  0  0  0  0
 27 29  2  0  0  0  0
 27 25  1  0  0  0  0
 28 27  1  0  0  0  0
 29  3  1  0  0  0  0
 30 29  1  0  0  0  0
M  END
