1,2
q = 0.0, confidence = 0.952

 28 31  0  0  0  0  0  0  0  0999 V2000
    0.0973    1.5220   -1.6771 N   0  0  0  0  0  2  0  0  0  0  0  0
    0.0791   -1.1400   -1.9896 N   0  0  0  0  0  2  0  0  0  0  0  0
   -4.4519    1.4450   -0.0170 N   0  0  0  0  0  0  0  0  0  0  0  0
   -4.4518   -1.3579   -0.2736 N   0  0  0  0  0  0  0  0  0  0  0  0
   -7.5815    1.9657    1.3439 N   0  0  0  0  0  0  0  0  0  0  0  0
   -7.5752   -2.1216    0.9774 N   0  0  0  0  0  0  0  0  0  0  0  0
    0.1636    2.8525   -1.5085 C   0  0  0  0  0  0  0  0  0  0  0  0
    1.1272    3.3196   -1.7697 H   0  0  0  0  0  0  0  0  0  0  0  0
   -0.9215    3.6134   -1.0341 C   0  0  0  0  0  0  0  0  0  0  0  0
   -0.8136    4.7011   -0.9154 H   0  0  0  0  0  0  0  0  0  0  0  0
   -2.1237    2.9710   -0.7247 C   0  0  0  0  0  0  0  0  0  0  0  0
   -2.9997    3.5137   -0.3427 H   0  0  0  0  0  0  0  0  0  0  0  0
   -2.2072    1.5715   -0.8934 C   0  0  0  0  0  0  0  0  0  0  0  0
   -1.0653    0.8829   -1.3824 C   0  0  0  0  0  0  0  0  0  0  0  0
   -1.0699   -0.5657   -1.5313 C   0  0  0  0  0  0  0  0  0  0  0  0
   -2.2112   -1.3260   -1.1663 C   0  0  0  0  0  0  0  0  0  0  0  0
   -2.1464   -2.7329   -1.2745 C   0  0  0  0  0  0  0  0  0  0  0  0
   -3.0227   -3.3304   -0.9883 H   0  0  0  0  0  0  0  0  0  0  0  0
   -0.9601   -3.3100   -1.7326 C   0  0  0  0  0  0  0  0  0  0  0  0
   -0.8634   -4.4004   -1.8353 H   0  0  0  0  0  0  0  0  0  0  0  0
    0.1218   -2.4814   -2.0830 C   0  0  0  0  0  0  0  0  0  0  0  0
    1.0637   -2.9060   -2.4663 H   0  0  0  0  0  0  0  0  0  0  0  0
   -3.3846    0.7997   -0.5232 C   0  0  0  0  0  0  0  0  0  0  0  0
   -3.3832   -0.6320   -0.6535 C   0  0  0  0  0  0  0  0  0  0  0  0
   -6.6489    1.4115    0.8974 C   0  0  0  0  0  0  0  0  0  0  0  0
   -5.5097    0.7190    0.3548 C   0  0  0  0  0  0  0  0  0  0  0  0
   -5.5085   -0.7117    0.2241 C   0  0  0  0  0  0  0  0  0  0  0  0
   -6.6458   -1.4929    0.6353 C   0  0  0  0  0  0  0  0  0  0  0  0
  1  7  1  0  0  0  0
  1 14  1  0  0  0  0
  2 15  1  0  0  0  0
  3 26  1  0  0  0  0
  4 27  1  0  0  0  0
  7  9  2  0  0  0  0
  8  7  1  0  0  0  0
  9 10  1  0  0  0  0
  9 11  1  0  0  0  0
 11 12  1  0  0  0  0
 13 11  2  0  0  0  0
 13 23  1  0  0  0  0
 14 13  1  0  0  0  0
 15 14  2  0  0  0  0
 15 16  1  0  0  0  0
 16 24  1  0  0  0  0
 17 16  2  0  0  0  0
 17 18  1  0  0  0  0
 19 17  1  0  0  0  0
 20 19  1  0  0  0  0
 21  2  1  0  0  0  0
 21 19  2  0  0  0  0
 22 21  1  0  0  0  0
 23  3  2  0  0  0  0
 24 23  1  0  0  0  0
 24  4  2  0  0  0  0
 25  5  3  0  0  0  0
 26 25  1  0  0  0  0
 27 26  2  0  0  0  0
 27 28  1  0  0  0  0
 28  6  3  0  0  0  0
M  END
