1,2
q = -1.0, confidence = 0.006

 38 37  0  0  0  0  0  0  0  0999 V2000
   -1.5299   -0.5081   -1.0213 N   0  0  0  0  0  2  0  0  0  0  0  0
   -1.5714    0.4073    1.0056 N   0  0  0  0  0  2  0  0  0  0  0  0
   -3.7050   -0.1093   -0.0421 N   0  0  0  0  0  0  0  0  0  0  0  0
   -2.3021   -0.0688   -0.0150 C   0  0  0  0  0  3  0  0  0  0  0  0
   -1.9530   -1.4772   -2.0197 C   0  0  0  0  0  0  0  0  0  0  0  0
   -3.0655   -1.5453   -2.0012 H   0  0  0  0  0  0  0  0  0  0  0  0
   -1.4069   -2.8798   -1.7083 C   0  0  0  0  0  0  0  0  0  0  0  0
   -0.3007   -2.8877   -1.7678 H   0  0  0  0  0  0  0  0  0  0  0  0
   -1.7950   -3.6233   -2.4345 H   0  0  0  0  0  0  0  0  0  0  0  0
   -1.7001   -3.2022   -0.6893 H   0  0  0  0  0  0  0  0  0  0  0  0
   -1.5075   -1.0204   -3.4150 C   0  0  0  0  0  0  0  0  0  0  0  0
   -0.4061   -0.8847   -3.4326 H   0  0  0  0  0  0  0  0  0  0  0  0
   -1.9767   -0.0535   -3.6920 H   0  0  0  0  0  0  0  0  0  0  0  0
   -1.7788   -1.7648   -4.1908 H   0  0  0  0  0  0  0  0  0  0  0  0
   -2.0531    1.3489    2.0040 C   0  0  0  0  0  0  0  0  0  0  0  0
   -3.1638    1.4118    1.9351 H   0  0  0  0  0  0  0  0  0  0  0  0
   -1.5000    2.7613    1.7578 C   0  0  0  0  0  0  0  0  0  0  0  0
   -0.3977    2.7689    1.8682 H   0  0  0  0  0  0  0  0  0  0  0  0
   -1.9240    3.4818    2.4869 H   0  0  0  0  0  0  0  0  0  0  0  0
   -1.7460    3.1140    0.7368 H   0  0  0  0  0  0  0  0  0  0  0  0
   -1.6740    0.8633    3.4100 C   0  0  0  0  0  0  0  0  0  0  0  0
   -2.1468   -0.1137    3.6417 H   0  0  0  0  0  0  0  0  0  0  0  0
   -1.9895    1.5871    4.1885 H   0  0  0  0  0  0  0  0  0  0  0  0
   -0.5735    0.7371    3.4783 H   0  0  0  0  0  0  0  0  0  0  0  0
   -4.4592   -0.6695    1.0707 C   0  0  0  0  0  0  0  0  0  0  0  0
   -5.2594    0.0379    1.3903 H   0  0  0  0  0  0  0  0  0  0  0  0
   -3.7742   -0.7658    1.9363 H   0  0  0  0  0  0  0  0  0  0  0  0
   -5.0662   -2.0400    0.7496 C   0  0  0  0  0  0  0  0  0  0  0  0
   -5.7520   -1.9875   -0.1206 H   0  0  0  0  0  0  0  0  0  0  0  0
   -5.6475   -2.4294    1.6109 H   0  0  0  0  0  0  0  0  0  0  0  0
   -4.2686   -2.7712    0.5067 H   0  0  0  0  0  0  0  0  0  0  0  0
   -4.4293    0.5688   -1.1098 C   0  0  0  0  0  0  0  0  0  0  0  0
   -5.3801    0.0244   -1.3008 H   0  0  0  0  0  0  0  0  0  0  0  0
   -3.8418    0.4876   -2.0472 H   0  0  0  0  0  0  0  0  0  0  0  0
   -4.7126    2.0458   -0.8115 C   0  0  0  0  0  0  0  0  0  0  0  0
   -5.2977    2.1661    0.1233 H   0  0  0  0  0  0  0  0  0  0  0  0
   -5.2904    2.5157   -1.6342 H   0  0  0  0  0  0  0  0  0  0  0  0
   -3.7642    2.6082   -0.6913 H   0  0  0  0  0  0  0  0  0  0  0  0
  1  4  1  0  0  0  0
  2 15  1  0  0  0  0
  3  4  1  0  0  0  0
  3 25  1  0  0  0  0
  4  2  1  0  0  0  0
  5  6  1  0  0  0  0
  5  7  1  0  0  0  0
  5  1  1  0  0  0  0
  7 10  1  0  0  0  0
  8  7  1  0  0  0  0
  9  7  1  0  0  0  0
 11  5  1  0  0  0  0
 12 11  1  0  0  0  0
 13 11  1  0  0  0  0
 14 11  1  0  0  0  0
 15 21  1  0  0  0  0
 16 15  1  0  0  0  0
 17 18  1  0  0  0  0
 17 15  1  0  0  0  0
 17 19  1  0  0  0  0
 20 17  1  0  0  0  0
 21 24  1  0  0  0  0
 21 22  1  0  0  0  0
 21 23  1  0  0  0  0
 25 26  1  0  0  0  0
 25 27  1  0  0  0  0
 28 25  1  0  0  0  0
 28 30  1  0  0  0  0
 29 28  1  0  0  0  0
 31 28  1  0  0  0  0
 32 35  1  0  0  0  0
 32  3  1  0  0  0  0
 33 32  1  0  0  0  0
 34 32  1  0  0  0  0
 35 38  1  0  0  0  0
 35 36  1  0  0  0  0
 37 35  1  0  0  0  0
M  END
