3,4
q = 0.0, confidence = 0.996

 13 13  0  0  0  0  0  0  0  0999 V2000
   -0.2382    2.8545    0.1462 O   0  0  0  0  0  0  0  0  0  0  0  0
   -1.2326    2.4336    0.0841 H   0  0  0  0  0  0  0  0  0  0  0  0
    0.5335    1.7862    0.1272 N   0  0  0  0  0  2  0  0  0  0  0  0
    1.9689   -0.4709    0.1143 N   0  0  0  0  0  2  0  0  0  0  0  0
    3.9273    0.5275   -0.1368 N   0  0  0  0  0  0  0  0  0  0  0  0
    4.6267    1.2611   -0.2506 H   0  0  0  0  0  0  0  0  0  0  0  0
    1.8315    1.9480    0.0422 C   0  0  0  0  0  0  0  0  0  0  0  0
    2.2765    2.9524   -0.0285 H   0  0  0  0  0  0  0  0  0  0  0  0
    2.5829    0.7212    0.0146 C   0  0  0  0  0  0  0  0  0  0  0  0
    4.1696   -0.8340   -0.1398 C   0  0  0  0  0  0  0  0  0  0  0  0
    5.1758   -1.2478   -0.2511 H   0  0  0  0  0  0  0  0  0  0  0  0
    2.9324   -1.4398    0.0174 C   0  0  0  0  0  0  0  0  0  0  0  0
    2.6869   -2.5060    0.0587 H   0  0  0  0  0  0  0  0  0  0  0  0
  2  1  1  0  0  0  0
  3  1  1  0  0  0  0
  5  9  1  0  0  0  0
  6  5  1  0  0  0  0
  7  3  1  0  0  0  0
  8  7  1  0  0  0  0
  9  7  2  0  0  0  0
  9  4  1  0  0  0  0
 10  5  1  0  0  0  0
 10 12  2  0  0  0  0
 11 10  1  0  0  0  0
 12 13  1  0  0  0  0
 12  4  1  0  0  0  0
M  END
