1,26
q = 0.0, confidence = 1.0

 26 27  0  0  1  0  0  0  0  0999 V2000
    1.2914   -1.4469   -0.1775 N   0  0  0  0  0  2  0  0  0  0  0  0
    1.2456   -2.2479   -1.2741 C   0  0  0  0  0  3  0  0  0  0  0  0
    0.3328   -2.1638   -1.8805 H   0  0  0  0  0  0  0  0  0  0  0  0
    2.2780   -3.1253   -1.6074 C   0  0  0  0  0  0  0  0  0  0  0  0
    2.1888   -3.7458   -2.5099 H   0  0  0  0  0  0  0  0  0  0  0  0
    3.4041   -3.1849   -0.7762 C   0  0  0  0  0  0  0  0  0  0  0  0
    4.2456   -3.8544   -1.0083 H   0  0  0  0  0  0  0  0  0  0  0  0
    3.4313   -2.3791    0.3665 C   0  0  0  0  0  0  0  0  0  0  0  0
    4.2864   -2.4161    1.0568 H   0  0  0  0  0  0  0  0  0  0  0  0
    2.3563   -1.5203    0.6687 C   0  0  0  0  0  0  0  0  0  0  0  0
    2.3652   -0.7757    1.9870 C   0  0  0  0  0  0  0  0  0  0  0  0
    3.3928   -0.8666    2.3899 H   0  0  0  0  0  0  0  0  0  0  0  0
    1.7103   -1.3468    2.6816 H   0  0  0  0  0  0  0  0  0  0  0  0
    1.9245    0.7083    2.0471 C   0  0  0  0  0  0  0  0  0  0  0  0
    0.8262    0.7597    2.2076 H   0  0  0  0  0  0  0  0  0  0  0  0
    2.4190    1.1767    2.9213 H   0  0  0  0  0  0  0  0  0  0  0  0
    2.2104    1.5233    0.8170 C   0  0  2  0  0  3  0  0  0  0  0  0
    3.3107    2.3872    0.6964 C   0  0  0  0  0  0  0  0  0  0  0  0
    4.0224    2.4648    1.5311 H   0  0  0  0  0  0  0  0  0  0  0  0
    3.4773    3.1489   -0.4675 C   0  0  0  0  0  0  0  0  0  0  0  0
    4.3354    3.8296   -0.5705 H   0  0  0  0  0  0  0  0  0  0  0  0
    2.5225    3.0404   -1.4883 C   0  0  0  0  0  0  0  0  0  0  0  0
    2.5969    3.6306   -2.4123 H   0  0  0  0  0  0  0  0  0  0  0  0
    1.4463    2.1660   -1.3153 C   0  0  0  0  0  0  0  0  0  0  0  0
    0.6505    2.0524   -2.0652 H   0  0  0  0  0  0  0  0  0  0  0  0
    1.3097    1.4141   -0.1986 N   0  0  0  0  0  2  0  0  0  0  0  0
  1 10  1  0  0  0  0
  2  1  1  0  0  0  0
  3  2  1  0  0  0  0
  4  2  1  0  0  0  0
  4  6  2  0  0  0  0
  5  4  1  0  0  0  0
  6  8  1  0  0  0  0
  7  6  1  0  0  0  0
  8 10  2  0  0  0  0
  8  9  1  0  0  0  0
 10 11  1  0  0  0  0
 11 14  1  0  0  0  0
 11 12  1  0  0  0  0
 11 13  1  0  0  0  0
 14 15  1  0  0  0  0
 14 16  1  0  0  0  0
 17 14  1  1  0  0  0
 18 17  1  0  0  0  0
 18 19  1  0  0  0  0
 20 18  2  0  0  0  0
 21 20  1  0  0  0  0
 22 24  2  0  0  0  0
 22 20  1  0  0  0  0
 23 22  1  0  0  0  0
 24 26  1  0  0  0  0
 25 24  1  0  0  0  0
 26 17  1  0  0  0  0
M  END
