3,18
q = 0.0, confidence = 0.972

 23 22  0  0  1  0  0  0  0  0999 V2000
   -0.0478    2.7037   -0.3635 H   0  0  0  0  0  0  0  0  0  0  0  0
   -1.2205    2.5715   -0.2721 O   0  0  0  0  0  0  0  0  0  0  0  0
   -1.3855    1.2874   -0.0873 N   0  0  0  0  0  2  0  0  0  0  0  0
   -2.5673    0.8125    0.2395 C   0  0  2  0  0  3  0  0  0  0  0  0
   -3.7423    1.6977    0.4767 C   0  0  0  0  0  0  0  0  0  0  0  0
   -3.3995    2.7277    0.6840 H   0  0  0  0  0  0  0  0  0  0  0  0
   -4.4044    1.7387   -0.4155 H   0  0  0  0  0  0  0  0  0  0  0  0
   -4.3585    1.3324    1.3219 H   0  0  0  0  0  0  0  0  0  0  0  0
   -2.5945   -0.6951    0.4261 C   0  0  0  0  0  0  0  0  0  0  0  0
   -3.9591   -1.3064    0.0781 C   0  0  0  0  0  0  0  0  0  0  0  0
   -4.3284   -0.9922   -0.9162 H   0  0  0  0  0  0  0  0  0  0  0  0
   -3.9088   -2.4137    0.1069 H   0  0  0  0  0  0  0  0  0  0  0  0
   -4.7131   -0.9966    0.8258 H   0  0  0  0  0  0  0  0  0  0  0  0
   -2.2086   -1.0580    1.8731 C   0  0  0  0  0  0  0  0  0  0  0  0
   -2.9079   -0.5847    2.5880 H   0  0  0  0  0  0  0  0  0  0  0  0
   -1.1876   -0.6921    2.1043 H   0  0  0  0  0  0  0  0  0  0  0  0
   -2.2522   -2.1554    2.0367 H   0  0  0  0  0  0  0  0  0  0  0  0
   -1.4833   -1.2209   -0.4651 N   0  0  0  0  0  0  0  0  0  0  0  0
   -1.2475   -2.1634   -0.1210 H   0  0  0  0  0  0  0  0  0  0  0  0
   -1.8165   -1.3231   -1.9060 C   0  0  0  0  0  0  0  0  0  0  0  0
   -2.6143   -2.0673   -2.1015 H   0  0  0  0  0  0  0  0  0  0  0  0
   -2.1438   -0.3357   -2.2804 H   0  0  0  0  0  0  0  0  0  0  0  0
   -0.9126   -1.6235   -2.4697 H   0  0  0  0  0  0  0  0  0  0  0  0
  1  2  1  0  0  0  0
  2  3  1  0  0  0  0
  4  3  1  1  0  0  0
  4  9  1  0  0  0  0
  4  5  1  0  0  0  0
  5  6  1  0  0  0  0
  5  8  1  0  0  0  0
  7  5  1  0  0  0  0
  9 14  1  0  0  0  0
 10 12  1  0  0  0  0
 10  9  1  0  0  0  0
 10 13  1  0  0  0  0
 11 10  1  0  0  0  0
 14 17  1  0  0  0  0
 14 16  1  0  0  0  0
 14 15  1  0  0  0  0
 18 19  1  0  0  0  0
 18  9  1  0  0  0  0
 20 18  1  0  0  0  0
 21 20  1  0  0  0  0
 22 20  1  0  0  0  0
 23 20  1  0  0  0  0
M  END
