1,3
q = -1.0, confidence = 0.024

 53 54  0  0  1  0  0  0  0  0999 V2000
    1.4634   -0.7324    0.2831 N   0  0  0  0  0  2  0  0  0  0  0  0
    0.0000    0.9248   -0.6060 N   0  0  0  0  0  0  0  0  0  0  0  0
   -1.4634   -0.7323    0.2829 N   0  0  0  0  0  2  0  0  0  0  0  0
    1.1977    0.4086   -0.3323 C   0  0  1  0  0  3  0  0  0  0  0  0
   -1.1977    0.4087   -0.3323 C   0  0  0  0  0  0  0  0  0  0  0  0
    2.3082    1.3676   -0.8369 C   0  0  0  0  0  0  0  0  0  0  0  0
    2.3409    2.6842    0.0185 C   0  0  0  0  0  0  0  0  0  0  0  0
    3.7148    3.4270    0.0001 C   0  0  0  0  0  0  0  0  0  0  0  0
   -2.3081    1.3679   -0.8368 C   0  0  0  0  0  0  0  0  0  0  0  0
   -2.3407    2.6844    0.0187 C   0  0  0  0  0  0  0  0  0  0  0  0
   -3.7146    3.4272    0.0005 C   0  0  0  0  0  0  0  0  0  0  0  0
    2.7485   -1.2578    0.5464 C   0  0  0  0  0  0  0  0  0  0  0  0
    3.3596   -2.2109   -0.3023 C   0  0  0  0  0  0  0  0  0  0  0  0
    4.5918   -2.7878    0.0454 C   0  0  0  0  0  0  0  0  0  0  0  0
    5.0494   -3.5170   -0.6362 H   0  0  0  0  0  0  0  0  0  0  0  0
    5.2267   -2.4341    1.2440 C   0  0  0  0  0  0  0  0  0  0  0  0
    6.1933   -2.8848    1.5103 H   0  0  0  0  0  0  0  0  0  0  0  0
    4.6274   -1.5045    2.1066 C   0  0  0  0  0  0  0  0  0  0  0  0
    5.0933   -1.2054    3.0564 H   0  0  0  0  0  0  0  0  0  0  0  0
    3.4029   -0.9351    1.7530 C   0  0  0  0  0  0  0  0  0  0  0  0
    2.6580   -2.6147   -1.5783 C   0  0  0  0  0  0  0  0  0  0  0  0
   -2.7486   -1.2577    0.5461 C   0  0  0  0  0  0  0  0  0  0  0  0
   -3.3598   -2.2108   -0.3026 C   0  0  0  0  0  0  0  0  0  0  0  0
   -4.5920   -2.7877    0.0451 C   0  0  0  0  0  0  0  0  0  0  0  0
   -5.0495   -3.5168   -0.6367 H   0  0  0  0  0  0  0  0  0  0  0  0
   -5.2269   -2.4340    1.2436 C   0  0  0  0  0  0  0  0  0  0  0  0
   -6.1935   -2.8847    1.5099 H   0  0  0  0  0  0  0  0  0  0  0  0
   -4.6276   -1.5045    2.1063 C   0  0  0  0  0  0  0  0  0  0  0  0
   -5.0936   -1.2054    3.0561 H   0  0  0  0  0  0  0  0  0  0  0  0
   -3.4030   -0.9351    1.7528 C   0  0  0  0  0  0  0  0  0  0  0  0
   -2.6581   -2.6145   -1.5787 C   0  0  0  0  0  0  0  0  0  0  0  0
    3.5477    0.7969   -0.7632 F   0  0  0  0  0  0  0  0  0  0  0  0
    2.0823    1.6927   -2.1280 F   0  0  0  0  0  0  0  0  0  0  0  0
    2.0703    2.3670    1.3148 F   0  0  0  0  0  0  0  0  0  0  0  0
    1.4045    3.5415   -0.4326 F   0  0  0  0  0  0  0  0  0  0  0  0
    3.5644    4.6453    0.5455 F   0  0  0  0  0  0  0  0  0  0  0  0
    4.1520    3.5713   -1.2624 F   0  0  0  0  0  0  0  0  0  0  0  0
    4.6322    2.7524    0.7110 F   0  0  0  0  0  0  0  0  0  0  0  0
   -2.0822    1.6931   -2.1278 F   0  0  0  0  0  0  0  0  0  0  0  0
   -3.5477    0.7973   -0.7631 F   0  0  0  0  0  0  0  0  0  0  0  0
   -1.4043    3.5416   -0.4323 F   0  0  0  0  0  0  0  0  0  0  0  0
   -2.0700    2.3669    1.3150 F   0  0  0  0  0  0  0  0  0  0  0  0
   -3.5640    4.6455    0.5461 F   0  0  0  0  0  0  0  0  0  0  0  0
   -4.1518    3.5718   -1.2620 F   0  0  0  0  0  0  0  0  0  0  0  0
   -4.6320    2.7526    0.7114 F   0  0  0  0  0  0  0  0  0  0  0  0
    2.3669   -1.5491   -2.3627 F   0  0  0  0  0  0  0  0  0  0  0  0
    1.4730   -3.2431   -1.3146 F   0  0  0  0  0  0  0  0  0  0  0  0
    3.3982   -3.4698   -2.3145 F   0  0  0  0  0  0  0  0  0  0  0  0
    2.8101   -0.0583    2.5803 F   0  0  0  0  0  0  0  0  0  0  0  0
   -1.4731   -3.2429   -1.3150 F   0  0  0  0  0  0  0  0  0  0  0  0
   -3.3983   -3.4696   -2.3148 F   0  0  0  0  0  0  0  0  0  0  0  0
   -2.3670   -1.5488   -2.3629 F   0  0  0  0  0  0  0  0  0  0  0  0
   -2.8102   -0.0584    2.5801 F   0  0  0  0  0  0  0  0  0  0  0  0
  1 12  1  0  0  0  0
  2  5  2  0  0  0  0
  3 22  1  0  0  0  0
  4  2  1  1  0  0  0
  4  1  1  0  0  0  0
  5  3  1  0  0  0  0
  6 32  1  0  0  0  0
  6  4  1  0  0  0  0
  6  7  1  0  0  0  0
  7 34  1  0  0  0  0
  8  7  1  0  0  0  0
  8 36  1  0  0  0  0
  8 38  1  0  0  0  0
  9 40  1  0  0  0  0
  9  5  1  0  0  0  0
  9 10  1  0  0  0  0
 10 42  1  0  0  0  0
 11 10  1  0  0  0  0
 11 43  1  0  0  0  0
 11 45  1  0  0  0  0
 12 20  1  0  0  0  0
 13 14  1  0  0  0  0
 13 12  2  0  0  0  0
 14 16  2  0  0  0  0
 15 14  1  0  0  0  0
 16 17  1  0  0  0  0
 16 18  1  0  0  0  0
 18 19  1  0  0  0  0
 20 18  2  0  0  0  0
 20 49  1  0  0  0  0
 21 47  1  0  0  0  0
 21 13  1  0  0  0  0
 22 30  1  0  0  0  0
 23 24  1  0  0  0  0
 23 22  2  0  0  0  0
 24 26  2  0  0  0  0
 25 24  1  0  0  0  0
 26 27  1  0  0  0  0
 26 28  1  0  0  0  0
 28 29  1  0  0  0  0
 30 28  2  0  0  0  0
 30 53  1  0  0  0  0
 31 50  1  0  0  0  0
 31 23  1  0  0  0  0
 33  6  1  0  0  0  0
 35  7  1  0  0  0  0
 37  8  1  0  0  0  0
 39  9  1  0  0  0  0
 41 10  1  0  0  0  0
 44 11  1  0  0  0  0
 46 21  1  0  0  0  0
 48 21  1  0  0  0  0
 51 31  1  0  0  0  0
 52 31  1  0  0  0  0
M  END
