1,6
q = 0.0, confidence = 0.998

 55 57  0  0  1  0  0  0  0  0999 V2000
    1.1230   -1.4092   -1.5416 N   0  0  0  0  0  2  0  0  0  0  0  0
    2.0502    0.7063   -1.4281 N   0  0  0  0  0  0  0  0  0  0  0  0
    1.1892    3.0786   -0.1521 N   0  0  0  0  0  0  0  0  0  0  0  0
    1.2742    0.6366    1.7341 N   0  0  0  0  0  0  0  0  0  0  0  0
   -1.5033    2.2148   -0.3957 N   0  0  0  0  0  0  0  0  0  0  0  0
   -2.5872    0.2140   -0.7936 N   0  0  0  0  0  2  0  0  0  0  0  0
    3.5118    0.8553    2.3717 N   0  0  0  0  0  0  0  0  0  0  0  0
    1.0848    0.9228   -1.1149 H   0  0  0  0  0  0  0  0  0  0  0  0
   -0.6833    1.6285   -0.6542 H   0  0  0  0  0  0  0  0  0  0  0  0
    0.5139   -0.0022    1.4122 H   0  0  0  0  0  0  0  0  0  0  0  0
    2.2548   -0.6277   -1.5530 C   0  0  2  0  0  3  0  0  0  0  0  0
    3.0328    1.7142   -1.1111 C   0  0  0  0  0  0  0  0  0  0  0  0
    3.8285    1.7528   -1.8871 H   0  0  0  0  0  0  0  0  0  0  0  0
    3.5336    1.5083   -0.1359 H   0  0  0  0  0  0  0  0  0  0  0  0
    2.3231    3.0759   -1.0740 C   0  0  0  0  0  0  0  0  0  0  0  0
    3.0781    3.8663   -0.8343 H   0  0  0  0  0  0  0  0  0  0  0  0
    1.9351    3.2931   -2.0908 H   0  0  0  0  0  0  0  0  0  0  0  0
    1.5752    3.0888    1.2640 C   0  0  0  0  0  0  0  0  0  0  0  0
    1.3328    4.0792    1.7223 H   0  0  0  0  0  0  0  0  0  0  0  0
    2.6730    2.9640    1.3481 H   0  0  0  0  0  0  0  0  0  0  0  0
    0.9558    1.9829    2.1400 C   0  0  0  0  0  0  0  0  0  0  0  0
    1.3165    2.1679    3.1779 H   0  0  0  0  0  0  0  0  0  0  0  0
   -0.1491    2.0707    2.1541 H   0  0  0  0  0  0  0  0  0  0  0  0
    2.4986    0.0652    1.9375 C   0  0  0  0  0  0  0  0  0  0  0  0
    4.7187    0.2907    2.5536 C   0  0  0  0  0  0  0  0  0  0  0  0
    5.5151    0.9687    2.9125 H   0  0  0  0  0  0  0  0  0  0  0  0
    5.0035   -1.0579    2.3134 C   0  0  0  0  0  0  0  0  0  0  0  0
    6.0143   -1.4579    2.4767 H   0  0  0  0  0  0  0  0  0  0  0  0
    3.9428   -1.8764    1.8669 C   0  0  0  0  0  0  0  0  0  0  0  0
    4.1071   -2.9470    1.6676 H   0  0  0  0  0  0  0  0  0  0  0  0
    2.6805   -1.3278    1.6773 C   0  0  0  0  0  0  0  0  0  0  0  0
    1.8206   -1.9255    1.3408 H   0  0  0  0  0  0  0  0  0  0  0  0
    0.1198    4.0071   -0.4918 C   0  0  0  0  0  0  0  0  0  0  0  0
    0.0564    4.0631   -1.5981 H   0  0  0  0  0  0  0  0  0  0  0  0
    0.3174    5.0455   -0.1183 H   0  0  0  0  0  0  0  0  0  0  0  0
   -1.2550    3.5635    0.0362 C   0  0  0  0  0  0  0  0  0  0  0  0
   -1.2971    3.6620    1.1481 H   0  0  0  0  0  0  0  0  0  0  0  0
   -2.0236    4.2599   -0.3676 H   0  0  0  0  0  0  0  0  0  0  0  0
   -2.6650    1.5171   -0.3602 C   0  0  1  0  0  3  0  0  0  0  0  0
   -3.7026   -0.5502   -0.7830 C   0  0  0  0  0  0  0  0  0  0  0  0
   -3.5627   -1.5882   -1.1170 H   0  0  0  0  0  0  0  0  0  0  0  0
   -4.9444   -0.0849   -0.3519 C   0  0  0  0  0  0  0  0  0  0  0  0
   -5.8113   -0.7579   -0.3497 H   0  0  0  0  0  0  0  0  0  0  0  0
   -5.0320    1.2452    0.0971 C   0  0  0  0  0  0  0  0  0  0  0  0
   -5.9889    1.6490    0.4611 H   0  0  0  0  0  0  0  0  0  0  0  0
   -3.8972    2.0537    0.0939 C   0  0  0  0  0  0  0  0  0  0  0  0
   -3.9367    3.0898    0.4558 H   0  0  0  0  0  0  0  0  0  0  0  0
    3.5375   -1.2183   -1.6972 C   0  0  0  0  0  0  0  0  0  0  0  0
    4.4300   -0.5795   -1.6784 H   0  0  0  0  0  0  0  0  0  0  0  0
    3.6432   -2.6001   -1.8202 C   0  0  0  0  0  0  0  0  0  0  0  0
    4.6354   -3.0653   -1.9208 H   0  0  0  0  0  0  0  0  0  0  0  0
    2.4802   -3.3943   -1.7953 C   0  0  0  0  0  0  0  0  0  0  0  0
    2.5217   -4.4884   -1.8790 H   0  0  0  0  0  0  0  0  0  0  0  0
    1.2507   -2.7511   -1.6528 C   0  0  0  0  0  0  0  0  0  0  0  0
    0.3054   -3.3132   -1.6158 H   0  0  0  0  0  0  0  0  0  0  0  0
  2  8  1  0  0  0  0
  2 12  1  0  0  0  0
  3 18  1  0  0  0  0
  4 24  1  0  0  0  0
  4 21  1  0  0  0  0
  5 36  1  0  0  0  0
  6 40  1  0  0  0  0
  6 39  1  0  0  0  0
  7 25  1  0  0  0  0
  9  5  1  0  0  0  0
 10  4  1  0  0  0  0
 11  1  1  0  0  0  0
 11  2  1  6  0  0  0
 12 15  1  0  0  0  0
 12 14  1  0  0  0  0
 13 12  1  0  0  0  0
 15 16  1  0  0  0  0
 15  3  1  0  0  0  0
 17 15  1  0  0  0  0
 18 20  1  0  0  0  0
 18 19  1  0  0  0  0
 18 21  1  0  0  0  0
 21 23  1  0  0  0  0
 21 22  1  0  0  0  0
 24  7  2  0  0  0  0
 25 26  1  0  0  0  0
 27 28  1  0  0  0  0
 27 25  2  0  0  0  0
 29 27  1  0  0  0  0
 30 29  1  0  0  0  0
 31 29  2  0  0  0  0
 31 24  1  0  0  0  0
 32 31  1  0  0  0  0
 33  3  1  0  0  0  0
 33 35  1  0  0  0  0
 33 36  1  0  0  0  0
 34 33  1  0  0  0  0
 36 37  1  0  0  0  0
 38 36  1  0  0  0  0
 39  5  1  1  0  0  0
 39 46  1  0  0  0  0
 40 42  2  0  0  0  0
 41 40  1  0  0  0  0
 42 43  1  0  0  0  0
 42 44  1  0  0  0  0
 44 45  1  0  0  0  0
 46 44  2  0  0  0  0
 46 47  1  0  0  0  0
 48 49  1  0  0  0  0
 48 11  1  0  0  0  0
 50 52  1  0  0  0  0
 50 48  2  0  0  0  0
 51 50  1  0  0  0  0
 52 54  2  0  0  0  0
 53 52  1  0  0  0  0
 54 55  1  0  0  0  0
 54  1  1  0  0  0  0
M  END
