1,3
q = -1.0, confidence = 0.01

 57 62  0  0  1  0  0  0  0  0999 V2000
    0.0081    1.5743    0.2863 N   0  0  0  0  0  2  0  0  0  0  0  0
    1.8038   -0.0805    0.2734 N   0  0  0  0  0  0  0  0  0  0  0  0
   -0.2447   -1.4015    0.3972 N   0  0  0  0  0  0  0  0  0  0  0  0
   -0.0142    2.9103    0.0436 C   0  0  1  0  0  3  0  0  0  0  0  0
    1.3143    3.3992   -0.1827 C   0  0  0  0  0  0  0  0  0  0  0  0
    1.5771    4.4396   -0.4031 H   0  0  0  0  0  0  0  0  0  0  0  0
    2.1893    2.3189   -0.0807 C   0  0  0  0  0  0  0  0  0  0  0  0
    1.3420    1.1584    0.1964 C   0  0  0  0  0  0  0  0  0  0  0  0
    1.1425   -1.2289    0.3497 C   0  0  0  0  0  3  0  0  0  0  0  0
    1.7843   -2.5333    0.2083 C   0  0  0  0  0  0  0  0  0  0  0  0
    0.7373   -3.4536    0.1076 C   0  0  0  0  0  0  0  0  0  0  0  0
    0.8204   -4.5427    0.0198 H   0  0  0  0  0  0  0  0  0  0  0  0
   -0.4889   -2.7305    0.2408 C   0  0  0  0  0  0  0  0  0  0  0  0
   -1.2409    3.7111   -0.0250 C   0  0  0  0  0  0  0  0  0  0  0  0
   -1.2777    4.8647   -0.8475 C   0  0  0  0  0  0  0  0  0  0  0  0
   -0.3886    5.1402   -1.4336 H   0  0  0  0  0  0  0  0  0  0  0  0
   -2.4425    5.6339   -0.9524 C   0  0  0  0  0  0  0  0  0  0  0  0
   -2.4538    6.5192   -1.6063 H   0  0  0  0  0  0  0  0  0  0  0  0
   -3.5940    5.2749   -0.2318 C   0  0  0  0  0  0  0  0  0  0  0  0
   -4.5088    5.8818   -0.3123 H   0  0  0  0  0  0  0  0  0  0  0  0
   -3.5645    4.1427    0.5993 C   0  0  0  0  0  0  0  0  0  0  0  0
   -4.4512    3.8621    1.1886 H   0  0  0  0  0  0  0  0  0  0  0  0
   -2.4032    3.3675    0.7051 C   0  0  0  0  0  0  0  0  0  0  0  0
   -2.3981    2.5084    1.3937 H   0  0  0  0  0  0  0  0  0  0  0  0
    3.6487    2.3419   -0.2201 C   0  0  0  0  0  0  0  0  0  0  0  0
    4.3688    3.5199    0.1012 C   0  0  0  0  0  0  0  0  0  0  0  0
    3.8241    4.3943    0.4880 H   0  0  0  0  0  0  0  0  0  0  0  0
    5.7610    3.5725   -0.0313 C   0  0  0  0  0  0  0  0  0  0  0  0
    6.2995    4.4955    0.2332 H   0  0  0  0  0  0  0  0  0  0  0  0
    6.4710    2.4482   -0.4864 C   0  0  0  0  0  0  0  0  0  0  0  0
    7.5663    2.4888   -0.5873 H   0  0  0  0  0  0  0  0  0  0  0  0
    5.7720    1.2743   -0.8103 C   0  0  0  0  0  0  0  0  0  0  0  0
    6.3146    0.3862   -1.1694 H   0  0  0  0  0  0  0  0  0  0  0  0
    4.3782    1.2186   -0.6833 C   0  0  0  0  0  0  0  0  0  0  0  0
    3.8350    0.3018   -0.9434 H   0  0  0  0  0  0  0  0  0  0  0  0
    3.2227   -2.8012    0.1431 C   0  0  0  0  0  0  0  0  0  0  0  0
    4.1680   -1.9489    0.7666 C   0  0  0  0  0  0  0  0  0  0  0  0
    3.8121   -1.0663    1.3131 H   0  0  0  0  0  0  0  0  0  0  0  0
    5.5393   -2.2249    0.6899 C   0  0  0  0  0  0  0  0  0  0  0  0
    6.2542   -1.5464    1.1798 H   0  0  0  0  0  0  0  0  0  0  0  0
    6.0002   -3.3575   -0.0004 C   0  0  0  0  0  0  0  0  0  0  0  0
    7.0782   -3.5726   -0.0572 H   0  0  0  0  0  0  0  0  0  0  0  0
    5.0745   -4.2172   -0.6165 C   0  0  0  0  0  0  0  0  0  0  0  0
    5.4258   -5.1052   -1.1640 H   0  0  0  0  0  0  0  0  0  0  0  0
    3.7043   -3.9420   -0.5468 C   0  0  0  0  0  0  0  0  0  0  0  0
    2.9882   -4.6047   -1.0556 H   0  0  0  0  0  0  0  0  0  0  0  0
   -1.8400   -3.2999    0.1760 C   0  0  0  0  0  0  0  0  0  0  0  0
   -2.0938   -4.4063   -0.6715 C   0  0  0  0  0  0  0  0  0  0  0  0
   -1.2707   -4.8291   -1.2670 H   0  0  0  0  0  0  0  0  0  0  0  0
   -3.3849   -4.9367   -0.7883 C   0  0  0  0  0  0  0  0  0  0  0  0
   -3.5662   -5.7870   -1.4632 H   0  0  0  0  0  0  0  0  0  0  0  0
   -4.4464   -4.3819   -0.0527 C   0  0  0  0  0  0  0  0  0  0  0  0
   -5.4604   -4.8003   -0.1439 H   0  0  0  0  0  0  0  0  0  0  0  0
   -4.2007   -3.2982    0.8071 C   0  0  0  0  0  0  0  0  0  0  0  0
   -5.0184   -2.8686    1.4063 H   0  0  0  0  0  0  0  0  0  0  0  0
   -2.9125   -2.7602    0.9242 C   0  0  0  0  0  0  0  0  0  0  0  0
   -2.7397   -1.9251    1.6212 H   0  0  0  0  0  0  0  0  0  0  0  0
  2  9  1  0  0  0  0
  4 14  1  6  0  0  0
  4  1  1  0  0  0  0
  5  7  2  0  0  0  0
  5  4  1  0  0  0  0
  6  5  1  0  0  0  0
  7  8  1  0  0  0  0
  8  2  2  0  0  0  0
  8  1  1  0  0  0  0
  9  3  1  0  0  0  0
 10  9  1  0  0  0  0
 11 10  2  0  0  0  0
 11 13  1  0  0  0  0
 12 11  1  0  0  0  0
 13  3  2  0  0  0  0
 14 23  1  0  0  0  0
 15 14  2  0  0  0  0
 16 15  1  0  0  0  0
 17 15  1  0  0  0  0
 17 19  2  0  0  0  0
 18 17  1  0  0  0  0
 19 21  1  0  0  0  0
 20 19  1  0  0  0  0
 21 23  2  0  0  0  0
 21 22  1  0  0  0  0
 23 24  1  0  0  0  0
 25  7  1  0  0  0  0
 25 26  1  0  0  0  0
 26 27  1  0  0  0  0
 28 26  2  0  0  0  0
 28 29  1  0  0  0  0
 30 28  1  0  0  0  0
 31 30  1  0  0  0  0
 32 34  1  0  0  0  0
 32 30  2  0  0  0  0
 33 32  1  0  0  0  0
 34 25  2  0  0  0  0
 35 34  1  0  0  0  0
 36 10  1  0  0  0  0
 36 37  1  0  0  0  0
 37 38  1  0  0  0  0
 39 37  2  0  0  0  0
 39 40  1  0  0  0  0
 41 39  1  0  0  0  0
 42 41  1  0  0  0  0
 43 45  1  0  0  0  0
 43 41  2  0  0  0  0
 44 43  1  0  0  0  0
 45 36  2  0  0  0  0
 46 45  1  0  0  0  0
 47 13  1  0  0  0  0
 47 56  1  0  0  0  0
 48 47  2  0  0  0  0
 49 48  1  0  0  0  0
 50 48  1  0  0  0  0
 50 52  2  0  0  0  0
 51 50  1  0  0  0  0
 52 54  1  0  0  0  0
 53 52  1  0  0  0  0
 54 56  2  0  0  0  0
 54 55  1  0  0  0  0
 56 57  1  0  0  0  0
M  END
