2,5
q = -1.0, confidence = 0.0

 28 27  0  0  1  0  0  0  0  0999 V2000
    1.1734   -1.0287    2.6076 O   0  0  0  0  0  1  0  0  0  0  0  0
    1.3913   -0.6990    1.3663 N   0  0  0  0  0  2  0  0  0  0  0  0
    2.5714   -0.9097    0.8203 C   0  0  2  0  0  3  0  0  0  0  0  0
    2.6632   -0.5360   -0.6483 C   0  0  0  0  0  0  0  0  0  0  0  0
    1.6150    0.5480   -0.8464 N   0  0  0  0  0  0  0  0  0  0  0  0
    1.3930    0.5703   -1.8549 H   0  0  0  0  0  0  0  0  0  0  0  0
    3.6757   -1.5698    1.5737 C   0  0  0  0  0  0  0  0  0  0  0  0
    4.3653   -0.8206    2.0206 H   0  0  0  0  0  0  0  0  0  0  0  0
    4.2832   -2.2225    0.9168 H   0  0  0  0  0  0  0  0  0  0  0  0
    3.2536   -2.1642    2.4051 H   0  0  0  0  0  0  0  0  0  0  0  0
    2.2539   -1.7366   -1.5235 C   0  0  0  0  0  0  0  0  0  0  0  0
    2.9207   -2.5970   -1.3257 H   0  0  0  0  0  0  0  0  0  0  0  0
    2.3352   -1.4921   -2.6037 H   0  0  0  0  0  0  0  0  0  0  0  0
    1.2187   -2.0537   -1.2949 H   0  0  0  0  0  0  0  0  0  0  0  0
    4.0744   -0.0756   -1.0479 C   0  0  0  0  0  0  0  0  0  0  0  0
    4.4787    0.7053   -0.3777 H   0  0  0  0  0  0  0  0  0  0  0  0
    4.0817    0.3068   -2.0887 H   0  0  0  0  0  0  0  0  0  0  0  0
    4.7699   -0.9349   -1.0143 H   0  0  0  0  0  0  0  0  0  0  0  0
    2.0643    1.9163   -0.4590 C   0  0  0  0  0  0  0  0  0  0  0  0
    2.9294    2.2164   -1.0869 H   0  0  0  0  0  0  0  0  0  0  0  0
    2.4219    1.8637    0.5892 H   0  0  0  0  0  0  0  0  0  0  0  0
    0.9582    2.9561   -0.5888 C   0  0  0  0  0  0  0  0  0  0  0  0
    0.1278    2.6729    0.0910 H   0  0  0  0  0  0  0  0  0  0  0  0
    0.5452    2.9294   -1.6246 H   0  0  0  0  0  0  0  0  0  0  0  0
    1.4446    4.3688   -0.2676 C   0  0  0  0  0  0  0  0  0  0  0  0
    1.8408    4.4307    0.7662 H   0  0  0  0  0  0  0  0  0  0  0  0
    0.6213    5.1036   -0.3545 H   0  0  0  0  0  0  0  0  0  0  0  0
    2.2521    4.6874   -0.9574 H   0  0  0  0  0  0  0  0  0  0  0  0
  2  1  1  0  0  0  0
  3  2  1  6  0  0  0
  3  7  1  0  0  0  0
  4  3  1  0  0  0  0
  5  4  1  0  0  0  0
  5 19  1  0  0  0  0
  6  5  1  0  0  0  0
  7  8  1  0  0  0  0
  7 10  1  0  0  0  0
  9  7  1  0  0  0  0
 11 12  1  0  0  0  0
 11 14  1  0  0  0  0
 11  4  1  0  0  0  0
 13 11  1  0  0  0  0
 15 18  1  0  0  0  0
 15  4  1  0  0  0  0
 15 16  1  0  0  0  0
 17 15  1  0  0  0  0
 19 21  1  0  0  0  0
 20 19  1  0  0  0  0
 22 19  1  0  0  0  0
 22 25  1  0  0  0  0
 22 23  1  0  0  0  0
 24 22  1  0  0  0  0
 25 26  1  0  0  0  0
 27 25  1  0  0  0  0
 28 25  1  0  0  0  0
M  END
