3,4
q = 0.0, confidence = 1.0

 46 48  0  0  1  0  0  0  0  0999 V2000
   -1.6079    1.7452   -1.8893 O   0  0  0  0  0  0  0  0  0  0  0  0
    3.2458    0.8647   -0.7012 O   0  0  0  0  0  0  0  0  0  0  0  0
   -1.1569    0.0950   -0.4336 N   0  0  0  0  0  2  0  0  0  0  0  0
    1.6041   -0.3886    0.1723 N   0  0  0  0  0  2  0  0  0  0  0  0
   -0.0243    2.3200   -0.2079 C   0  0  0  0  0  0  0  0  0  0  0  0
   -0.5621    3.6082   -0.0112 C   0  0  0  0  0  0  0  0  0  0  0  0
   -1.6136    3.7907   -0.2740 H   0  0  0  0  0  0  0  0  0  0  0  0
    0.2250    4.6446    0.5061 C   0  0  0  0  0  0  0  0  0  0  0  0
   -0.2196    5.6370    0.6702 H   0  0  0  0  0  0  0  0  0  0  0  0
    1.5798    4.4190    0.7899 C   0  0  0  0  0  0  0  0  0  0  0  0
    2.2094    5.2326    1.1785 H   0  0  0  0  0  0  0  0  0  0  0  0
    2.1386    3.1561    0.5607 C   0  0  0  0  0  0  0  0  0  0  0  0
    3.2065    2.9794    0.7510 H   0  0  0  0  0  0  0  0  0  0  0  0
    1.3476    2.0894    0.0855 C   0  0  0  0  0  0  0  0  0  0  0  0
   -0.9193    1.3146   -0.8221 C   0  0  0  0  0  0  0  0  0  0  0  0
   -2.3668    0.6117   -2.3961 C   0  0  0  0  0  0  0  0  0  0  0  0
   -1.9261    0.3286   -3.3722 H   0  0  0  0  0  0  0  0  0  0  0  0
   -3.4096    0.9457   -2.5546 H   0  0  0  0  0  0  0  0  0  0  0  0
   -2.2099   -0.4795   -1.3072 C   0  0  2  0  0  0  0  0  0  0  0  0
   -1.8211   -1.4215   -1.7474 H   0  0  0  0  0  0  0  0  0  0  0  0
   -3.5047   -0.8092   -0.5301 C   0  0  0  0  0  0  0  0  0  0  0  0
   -3.2073   -1.5582    0.2330 H   0  0  0  0  0  0  0  0  0  0  0  0
   -4.0820    0.4096    0.1956 C   0  0  0  0  0  0  0  0  0  0  0  0
   -3.3404    0.8713    0.8786 H   0  0  0  0  0  0  0  0  0  0  0  0
   -4.9627    0.1193    0.8018 H   0  0  0  0  0  0  0  0  0  0  0  0
   -4.4271    1.1910   -0.5137 H   0  0  0  0  0  0  0  0  0  0  0  0
   -4.5283   -1.4728   -1.4593 C   0  0  0  0  0  0  0  0  0  0  0  0
   -4.1098   -2.3694   -1.9604 H   0  0  0  0  0  0  0  0  0  0  0  0
   -4.8838   -0.7776   -2.2485 H   0  0  0  0  0  0  0  0  0  0  0  0
   -5.4210   -1.7934   -0.8876 H   0  0  0  0  0  0  0  0  0  0  0  0
    2.0270    0.7999   -0.1453 C   0  0  0  0  0  0  0  0  0  0  0  0
    3.7791   -0.4914   -0.7327 C   0  0  0  0  0  0  0  0  0  0  0  0
    4.6469   -0.5265   -0.0455 H   0  0  0  0  0  0  0  0  0  0  0  0
    4.1280   -0.6894   -1.7641 H   0  0  0  0  0  0  0  0  0  0  0  0
    2.5957   -1.3853   -0.2820 C   0  0  2  0  0  0  0  0  0  0  0  0
    2.8833   -2.0108    0.5885 H   0  0  0  0  0  0  0  0  0  0  0  0
    2.0026   -2.3204   -1.3631 C   0  0  0  0  0  0  0  0  0  0  0  0
    1.1190   -2.7951   -0.8770 H   0  0  0  0  0  0  0  0  0  0  0  0
    1.5106   -1.5614   -2.5995 C   0  0  0  0  0  0  0  0  0  0  0  0
    0.7661   -0.7849   -2.3325 H   0  0  0  0  0  0  0  0  0  0  0  0
    1.0319   -2.2581   -3.3156 H   0  0  0  0  0  0  0  0  0  0  0  0
    2.3419   -1.0652   -3.1423 H   0  0  0  0  0  0  0  0  0  0  0  0
    3.0019   -3.4259   -1.7211 C   0  0  0  0  0  0  0  0  0  0  0  0
    3.3278   -3.9925   -0.8252 H   0  0  0  0  0  0  0  0  0  0  0  0
    3.9095   -3.0147   -2.2111 H   0  0  0  0  0  0  0  0  0  0  0  0
    2.5509   -4.1470   -2.4304 H   0  0  0  0  0  0  0  0  0  0  0  0
  1 15  1  0  0  0  0
  2 31  1  0  0  0  0
  5  6  1  0  0  0  0
  5 14  1  0  0  0  0
  6  8  2  0  0  0  0
  7  6  1  0  0  0  0
  8  9  1  0  0  0  0
  8 10  1  0  0  0  0
 10 11  1  0  0  0  0
 12 13  1  0  0  0  0
 12 10  2  0  0  0  0
 14 12  1  0  0  0  0
 15  3  1  0  0  0  0
 15  5  2  0  0  0  0
 16  1  1  0  0  0  0
 16 19  1  0  0  0  0
 17 16  1  0  0  0  0
 18 16  1  0  0  0  0
 19 20  1  6  0  0  0
 19 21  1  0  0  0  0
 19  3  1  0  0  0  0
 21 23  1  0  0  0  0
 21 22  1  0  0  0  0
 23 25  1  0  0  0  0
 23 24  1  0  0  0  0
 26 23  1  0  0  0  0
 27 30  1  0  0  0  0
 27 21  1  0  0  0  0
 28 27  1  0  0  0  0
 29 27  1  0  0  0  0
 31 14  2  0  0  0  0
 31  4  1  0  0  0  0
 32  2  1  0  0  0  0
 32 35  1  0  0  0  0
 32 33  1  0  0  0  0
 34 32  1  0  0  0  0
 35  4  1  0  0  0  0
 35 36  1  1  0  0  0
 37 38  1  0  0  0  0
 37 35  1  0  0  0  0
 39 40  1  0  0  0  0
 39 37  1  0  0  0  0
 41 39  1  0  0  0  0
 42 39  1  0  0  0  0
 43 37  1  0  0  0  0
 43 44  1  0  0  0  0
 45 43  1  0  0  0  0
 46 43  1  0  0  0  0
M  END
