2,3
q = 0.0, confidence = 0.994

 43 44  0  0  0  0  0  0  0  0999 V2000
   -5.2007    2.2428    0.0694 Cl  0  0  0  0  0  0  0  0  0  0  0  0
   -1.2385    1.2898    0.9256 N   0  0  0  0  0  2  0  0  0  0  0  0
    1.2382    1.2890   -0.9272 N   0  0  0  0  0  2  0  0  0  0  0  0
   -0.0001    3.2729   -0.0017 C   0  0  0  0  0  0  0  0  0  0  0  0
    0.3576    2.4000   -1.2403 C   0  0  0  0  0  0  0  0  0  0  0  0
   -0.5739    1.9682   -1.6642 H   0  0  0  0  0  0  0  0  0  0  0  0
    0.8027    3.0655   -2.0143 H   0  0  0  0  0  0  0  0  0  0  0  0
   -0.3579    2.4011    1.2377 C   0  0  0  0  0  0  0  0  0  0  0  0
    0.5736    1.9697    1.6621 H   0  0  0  0  0  0  0  0  0  0  0  0
   -0.8031    3.0674    2.0111 H   0  0  0  0  0  0  0  0  0  0  0  0
    2.4991    1.3882   -1.1674 C   0  0  0  0  0  3  0  0  0  0  0  0
    2.9144    2.3342   -1.5812 H   0  0  0  0  0  0  0  0  0  0  0  0
   -2.4994    1.3893    1.1657 C   0  0  0  0  0  3  0  0  0  0  0  0
   -2.9147    2.3357    1.5786 H   0  0  0  0  0  0  0  0  0  0  0  0
    3.4570    0.3033   -0.9202 C   0  0  0  0  0  0  0  0  0  0  0  0
   -3.4573    0.3043    0.9195 C   0  0  0  0  0  0  0  0  0  0  0  0
    3.1222   -1.0446   -1.1792 C   0  0  0  0  0  0  0  0  0  0  0  0
    2.1345   -1.2760   -1.6100 H   0  0  0  0  0  0  0  0  0  0  0  0
   -1.1981    4.1525   -0.3956 C   0  0  0  0  0  0  0  0  0  0  0  0
   -1.4416    4.8709    0.4132 H   0  0  0  0  0  0  0  0  0  0  0  0
   -2.1046    3.5486   -0.6050 H   0  0  0  0  0  0  0  0  0  0  0  0
   -0.9714    4.7392   -1.3092 H   0  0  0  0  0  0  0  0  0  0  0  0
   -3.1226   -1.0435    1.1794 C   0  0  0  0  0  0  0  0  0  0  0  0
   -2.1348   -1.2746    1.6101 H   0  0  0  0  0  0  0  0  0  0  0  0
    4.7543    0.5880   -0.4317 C   0  0  0  0  0  0  0  0  0  0  0  0
   -4.7547    0.5886    0.4309 C   0  0  0  0  0  0  0  0  0  0  0  0
    1.1979    4.1528    0.3915 C   0  0  0  0  0  0  0  0  0  0  0  0
    1.4414    4.8705   -0.4180 H   0  0  0  0  0  0  0  0  0  0  0  0
    2.1044    3.5491    0.6015 H   0  0  0  0  0  0  0  0  0  0  0  0
    0.9712    4.7403    1.3045 H   0  0  0  0  0  0  0  0  0  0  0  0
    5.2003    2.2425   -0.0714 Cl  0  0  0  0  0  0  0  0  0  0  0  0
   -4.0423   -2.0702    0.9437 C   0  0  0  0  0  0  0  0  0  0  0  0
   -3.7602   -3.1122    1.1511 H   0  0  0  0  0  0  0  0  0  0  0  0
   -5.3174   -1.7640    0.4430 C   0  0  0  0  0  0  0  0  0  0  0  0
   -6.0437   -2.5672    0.2481 H   0  0  0  0  0  0  0  0  0  0  0  0
    4.0419   -2.0711   -0.9425 C   0  0  0  0  0  0  0  0  0  0  0  0
    3.7598   -3.1133   -1.1492 H   0  0  0  0  0  0  0  0  0  0  0  0
    5.6798   -0.4337   -0.1854 C   0  0  0  0  0  0  0  0  0  0  0  0
    6.6711   -0.1799    0.2148 H   0  0  0  0  0  0  0  0  0  0  0  0
   -5.6803   -0.4333    0.1856 C   0  0  0  0  0  0  0  0  0  0  0  0
   -6.6717   -0.1797   -0.2146 H   0  0  0  0  0  0  0  0  0  0  0  0
    5.3169   -1.7646   -0.4418 C   0  0  0  0  0  0  0  0  0  0  0  0
    6.0431   -2.5677   -0.2462 H   0  0  0  0  0  0  0  0  0  0  0  0
  1 26  1  0  0  0  0
  2 13  1  0  0  0  0
  2  8  1  0  0  0  0
  4 27  1  0  0  0  0
  4  8  1  0  0  0  0
  5  3  1  0  0  0  0
  5  4  1  0  0  0  0
  6  5  1  0  0  0  0
  7  5  1  0  0  0  0
  8  9  1  0  0  0  0
  8 10  1  0  0  0  0
 11  3  1  0  0  0  0
 11 15  1  0  0  0  0
 12 11  1  0  0  0  0
 13 14  1  0  0  0  0
 15 25  1  0  0  0  0
 16 13  1  0  0  0  0
 16 23  1  0  0  0  0
 17 36  1  0  0  0  0
 17 15  2  0  0  0  0
 18 17  1  0  0  0  0
 19  4  1  0  0  0  0
 19 20  1  0  0  0  0
 21 19  1  0  0  0  0
 22 19  1  0  0  0  0
 23 24  1  0  0  0  0
 25 38  2  0  0  0  0
 25 31  1  0  0  0  0
 26 16  2  0  0  0  0
 27 29  1  0  0  0  0
 27 30  1  0  0  0  0
 28 27  1  0  0  0  0
 32 33  1  0  0  0  0
 32 23  2  0  0  0  0
 34 32  1  0  0  0  0
 35 34  1  0  0  0  0
 36 42  2  0  0  0  0
 37 36  1  0  0  0  0
 38 39  1  0  0  0  0
 40 26  1  0  0  0  0
 40 34  2  0  0  0  0
 41 40  1  0  0  0  0
 42 43  1  0  0  0  0
 42 38  1  0  0  0  0
M  END
