3,4
q = -2.0, confidence = 0.848

 40 42  0  0  0  0  0  0  0  0999 V2000
    0.6466    2.8134   -0.4974 S   0  0  0  0  0  0  0  0  0  0  0  0
   -1.2875   -2.2400    0.3072 S   0  0  0  0  0  0  0  0  0  0  0  0
    0.7203    1.2621   -1.1855 N   0  0  0  0  0  2  0  0  0  0  0  0
   -0.4856   -0.9417   -0.4096 N   0  0  0  0  0  2  0  0  0  0  0  0
    0.1035    3.7604   -1.4948 O   0  0  0  0  0  0  0  0  0  0  0  0
    1.9588    3.0890    0.1335 O   0  0  0  0  0  0  0  0  0  0  0  0
   -1.2796   -3.4398   -0.5685 O   0  0  0  0  0  0  0  0  0  0  0  0
   -0.7642   -2.3747    1.6900 O   0  0  0  0  0  0  0  0  0  0  0  0
   -0.4021    0.8590   -1.9731 C   0  0  0  0  0  0  0  0  0  0  0  0
   -1.0140   -0.3654   -1.5937 C   0  0  0  0  0  0  0  0  0  0  0  0
   -2.0356   -0.9073   -2.3997 C   0  0  0  0  0  0  0  0  0  0  0  0
   -2.4542   -1.8935   -2.1673 H   0  0  0  0  0  0  0  0  0  0  0  0
   -2.4858   -0.1987   -3.5244 C   0  0  0  0  0  0  0  0  0  0  0  0
   -3.2845   -0.6330   -4.1444 H   0  0  0  0  0  0  0  0  0  0  0  0
   -1.9057    1.0285   -3.8761 C   0  0  0  0  0  0  0  0  0  0  0  0
   -2.2492    1.5715   -4.7691 H   0  0  0  0  0  0  0  0  0  0  0  0
   -0.8478    1.5483   -3.1141 C   0  0  0  0  0  0  0  0  0  0  0  0
   -0.3523    2.4869   -3.3896 H   0  0  0  0  0  0  0  0  0  0  0  0
   -0.5676    2.7037    0.8362 C   0  0  0  0  0  0  0  0  0  0  0  0
   -0.2147    2.0789    2.0433 C   0  0  0  0  0  0  0  0  0  0  0  0
    0.7975    1.6653    2.1677 H   0  0  0  0  0  0  0  0  0  0  0  0
   -1.1631    1.9998    3.0712 C   0  0  0  0  0  0  0  0  0  0  0  0
   -0.9017    1.5077    4.0197 H   0  0  0  0  0  0  0  0  0  0  0  0
   -2.4447    2.5524    2.8918 C   0  0  0  0  0  0  0  0  0  0  0  0
   -3.1849    2.4910    3.7036 H   0  0  0  0  0  0  0  0  0  0  0  0
   -2.7810    3.1765    1.6802 C   0  0  0  0  0  0  0  0  0  0  0  0
   -3.7820    3.6129    1.5417 H   0  0  0  0  0  0  0  0  0  0  0  0
   -1.8421    3.2525    0.6380 C   0  0  0  0  0  0  0  0  0  0  0  0
   -2.0721    3.7422   -0.3187 H   0  0  0  0  0  0  0  0  0  0  0  0
   -2.9898   -1.6675    0.4573 C   0  0  0  0  0  0  0  0  0  0  0  0
   -4.0193   -2.5703    0.1575 C   0  0  0  0  0  0  0  0  0  0  0  0
   -3.7659   -3.5675   -0.2306 H   0  0  0  0  0  0  0  0  0  0  0  0
   -5.3484   -2.1661    0.3521 C   0  0  0  0  0  0  0  0  0  0  0  0
   -6.1692   -2.8620    0.1220 H   0  0  0  0  0  0  0  0  0  0  0  0
   -5.6291   -0.8760    0.8306 C   0  0  0  0  0  0  0  0  0  0  0  0
   -6.6735   -0.5596    0.9732 H   0  0  0  0  0  0  0  0  0  0  0  0
   -4.5819    0.0143    1.1227 C   0  0  0  0  0  0  0  0  0  0  0  0
   -4.7994    1.0278    1.4903 H   0  0  0  0  0  0  0  0  0  0  0  0
   -3.2488   -0.3785    0.9436 C   0  0  0  0  0  0  0  0  0  0  0  0
   -2.4202    0.3097    1.1610 H   0  0  0  0  0  0  0  0  0  0  0  0
  1  6  2  0  0  0  0
  1 19  1  0  0  0  0
  2 30  1  0  0  0  0
  2  8  2  0  0  0  0
  3  1  1  0  0  0  0
  4  2  1  0  0  0  0
  5  1  2  0  0  0  0
  7  2  2  0  0  0  0
  9 10  1  0  0  0  0
  9  3  1  0  0  0  0
 10  4  1  0  0  0  0
 11 12  1  0  0  0  0
 11 10  2  0  0  0  0
 13 11  1  0  0  0  0
 14 13  1  0  0  0  0
 15 13  2  0  0  0  0
 15 17  1  0  0  0  0
 16 15  1  0  0  0  0
 17  9  2  0  0  0  0
 18 17  1  0  0  0  0
 19 20  1  0  0  0  0
 20 21  1  0  0  0  0
 20 22  2  0  0  0  0
 22 23  1  0  0  0  0
 24 22  1  0  0  0  0
 24 25  1  0  0  0  0
 26 24  2  0  0  0  0
 27 26  1  0  0  0  0
 28 19  2  0  0  0  0
 28 26  1  0  0  0  0
 29 28  1  0  0  0  0
 30 39  1  0  0  0  0
 31 33  1  0  0  0  0
 31 30  2  0  0  0  0
 32 31  1  0  0  0  0
 33 35  2  0  0  0  0
 34 33  1  0  0  0  0
 35 36  1  0  0  0  0
 35 37  1  0  0  0  0
 37 38  1  0  0  0  0
 39 37  2  0  0  0  0
 39 40  1  0  0  0  0
M  END
