1,2
q = 0.0, confidence = 1.0

 33 32  0  0  0  0  0  0  0  0999 V2000
    1.4967   -0.7732   -1.0342 N   0  0  0  0  0  0  0  0  0  0  0  0
   -0.3760   -2.3458    0.4657 N   0  0  0  0  0  0  0  0  0  0  0  0
   -0.1123   -2.3218    1.9270 C   0  0  0  0  0  0  0  0  0  0  0  0
   -0.9226   -1.7588    2.4242 H   0  0  0  0  0  0  0  0  0  0  0  0
    0.8486   -1.8192    2.1392 H   0  0  0  0  0  0  0  0  0  0  0  0
   -0.0822   -3.3583    2.3288 H   0  0  0  0  0  0  0  0  0  0  0  0
    2.6026    0.7012    0.7386 C   0  0  0  0  0  0  0  0  0  0  0  0
    3.0644   -0.1208    1.3284 H   0  0  0  0  0  0  0  0  0  0  0  0
    1.5851    0.8650    1.1595 H   0  0  0  0  0  0  0  0  0  0  0  0
    0.7300   -3.0084   -0.2915 C   0  0  0  0  0  0  0  0  0  0  0  0
    0.3283   -3.2841   -1.2859 H   0  0  0  0  0  0  0  0  0  0  0  0
    1.0290   -3.9542    0.2121 H   0  0  0  0  0  0  0  0  0  0  0  0
    1.9188   -2.0744   -0.4310 C   0  0  0  0  0  0  0  0  0  0  0  0
    2.3614   -1.8607    0.5591 H   0  0  0  0  0  0  0  0  0  0  0  0
    2.7151   -2.5439   -1.0490 H   0  0  0  0  0  0  0  0  0  0  0  0
   -1.6678   -3.0271    0.2070 C   0  0  0  0  0  0  0  0  0  0  0  0
   -1.6333   -4.0712    0.5861 H   0  0  0  0  0  0  0  0  0  0  0  0
   -1.8713   -3.0360   -0.8796 H   0  0  0  0  0  0  0  0  0  0  0  0
   -2.4722   -2.4681    0.7169 H   0  0  0  0  0  0  0  0  0  0  0  0
    1.3423   -0.8888   -2.5071 C   0  0  0  0  0  0  0  0  0  0  0  0
    2.3268   -1.0911   -2.9823 H   0  0  0  0  0  0  0  0  0  0  0  0
    0.9343    0.0605   -2.8983 H   0  0  0  0  0  0  0  0  0  0  0  0
    0.6432   -1.7063   -2.7601 H   0  0  0  0  0  0  0  0  0  0  0  0
    2.4734    0.3229   -0.7333 C   0  0  0  0  0  0  0  0  0  0  0  0
    2.1177    1.2026   -1.3031 H   0  0  0  0  0  0  0  0  0  0  0  0
    3.4600    0.0250   -1.1559 H   0  0  0  0  0  0  0  0  0  0  0  0
    3.4420    1.9719    0.9264 C   0  0  0  0  0  0  0  0  0  0  0  0
    4.4425    1.8247    0.4636 H   0  0  0  0  0  0  0  0  0  0  0  0
    2.9659    2.8030    0.3610 H   0  0  0  0  0  0  0  0  0  0  0  0
    3.6024    2.3662    2.3941 C   0  0  0  0  0  0  0  0  0  0  0  0
    2.6184    2.5506    2.8728 H   0  0  0  0  0  0  0  0  0  0  0  0
    4.2036    3.2900    2.4999 H   0  0  0  0  0  0  0  0  0  0  0  0
    4.1119    1.5696    2.9745 H   0  0  0  0  0  0  0  0  0  0  0  0
  1 24  1  0  0  0  0
  1 13  1  0  0  0  0
  2  3  1  0  0  0  0
  3  5  1  0  0  0  0
  3  6  1  0  0  0  0
  3  4  1  0  0  0  0
  7 27  1  0  0  0  0
  7  9  1  0  0  0  0
  7  8  1  0  0  0  0
 10 12  1  0  0  0  0
 10  2  1  0  0  0  0
 11 10  1  0  0  0  0
 13 10  1  0  0  0  0
 13 14  1  0  0  0  0
 15 13  1  0  0  0  0
 16  2  1  0  0  0  0
 16 17  1  0  0  0  0
 16 19  1  0  0  0  0
 18 16  1  0  0  0  0
 20  1  1  0  0  0  0
 21 20  1  0  0  0  0
 22 20  1  0  0  0  0
 23 20  1  0  0  0  0
 24  7  1  0  0  0  0
 25 24  1  0  0  0  0
 26 24  1  0  0  0  0
 27 30  1  0  0  0  0
 28 27  1  0  0  0  0
 29 27  1  0  0  0  0
 30 32  1  0  0  0  0
 30 31  1  0  0  0  0
 30 33  1  0  0  0  0
M  END
