1,2
q = 0.0, confidence = 0.998

 33 34  0  0  0  0  0  0  0  0999 V2000
   -1.2969    1.4158   -0.1273 N   0  0  0  0  0  2  0  0  0  0  0  0
   -0.0122   -0.3827    1.4779 N   0  0  0  0  0  0  0  0  0  0  0  0
    4.9465   -0.6695   -1.2149 O   0  0  0  0  0  0  0  0  0  0  0  0
   -1.6540    2.2212   -1.1512 C   0  0  0  0  0  3  0  0  0  0  0  0
   -2.1645    1.7047   -1.9820 H   0  0  0  0  0  0  0  0  0  0  0  0
   -1.4063    3.5973   -1.1149 C   0  0  0  0  0  0  0  0  0  0  0  0
   -1.7126    4.2225   -1.9655 H   0  0  0  0  0  0  0  0  0  0  0  0
   -0.7702    4.1506    0.0056 C   0  0  0  0  0  0  0  0  0  0  0  0
   -0.5604    5.2292    0.0579 H   0  0  0  0  0  0  0  0  0  0  0  0
   -0.3992    3.3038    1.0610 C   0  0  0  0  0  0  0  0  0  0  0  0
    0.1037    3.6965    1.9568 H   0  0  0  0  0  0  0  0  0  0  0  0
   -0.6793    1.9363    0.9665 C   0  0  0  0  0  0  0  0  0  0  0  0
   -0.3942    0.9338    2.0513 C   0  0  0  0  0  0  0  0  0  0  0  0
   -1.3306    0.7596    2.6207 H   0  0  0  0  0  0  0  0  0  0  0  0
    0.3654    1.3066    2.7732 H   0  0  0  0  0  0  0  0  0  0  0  0
   -0.0659   -1.4252    2.5349 C   0  0  0  0  0  0  0  0  0  0  0  0
    0.0557   -2.4182    2.0693 H   0  0  0  0  0  0  0  0  0  0  0  0
   -1.0641   -1.4013    3.0098 H   0  0  0  0  0  0  0  0  0  0  0  0
    0.7284   -1.2392    3.2898 H   0  0  0  0  0  0  0  0  0  0  0  0
    1.2897   -0.3894    0.7982 C   0  0  0  0  0  0  0  0  0  0  0  0
    2.2087    0.6634    0.9071 C   0  0  0  0  0  0  0  0  0  0  0  0
    1.9886    1.5574    1.5041 H   0  0  0  0  0  0  0  0  0  0  0  0
    3.4476    0.6100    0.2413 C   0  0  0  0  0  0  0  0  0  0  0  0
    4.1380    1.4577    0.3395 H   0  0  0  0  0  0  0  0  0  0  0  0
    3.7816   -0.5158   -0.5332 C   0  0  0  0  0  0  0  0  0  0  0  0
    2.8541   -1.5789   -0.6363 C   0  0  0  0  0  0  0  0  0  0  0  0
    3.1189   -2.4466   -1.2571 H   0  0  0  0  0  0  0  0  0  0  0  0
    1.6258   -1.5161    0.0135 C   0  0  0  0  0  0  0  0  0  0  0  0
    0.8872   -2.3259   -0.1066 H   0  0  0  0  0  0  0  0  0  0  0  0
    5.9032    0.3709   -1.1544 C   0  0  0  0  0  0  0  0  0  0  0  0
    5.5037    1.3256   -1.5650 H   0  0  0  0  0  0  0  0  0  0  0  0
    6.7605    0.0454   -1.7719 H   0  0  0  0  0  0  0  0  0  0  0  0
    6.2553    0.5507   -0.1134 H   0  0  0  0  0  0  0  0  0  0  0  0
  1 12  1  0  0  0  0
  2 13  1  0  0  0  0
  2 16  1  0  0  0  0
  3 30  1  0  0  0  0
  3 25  1  0  0  0  0
  4  6  1  0  0  0  0
  4  1  1  0  0  0  0
  5  4  1  0  0  0  0
  6  8  2  0  0  0  0
  7  6  1  0  0  0  0
  8  9  1  0  0  0  0
  8 10  1  0  0  0  0
 10 11  1  0  0  0  0
 12 10  2  0  0  0  0
 12 13  1  0  0  0  0
 13 14  1  0  0  0  0
 13 15  1  0  0  0  0
 16 18  1  0  0  0  0
 16 19  1  0  0  0  0
 17 16  1  0  0  0  0
 20 21  1  0  0  0  0
 20  2  1  0  0  0  0
 21 22  1  0  0  0  0
 23 24  1  0  0  0  0
 23 21  2  0  0  0  0
 25 23  1  0  0  0  0
 26 25  2  0  0  0  0
 26 28  1  0  0  0  0
 27 26  1  0  0  0  0
 28 20  2  0  0  0  0
 29 28  1  0  0  0  0
 30 33  1  0  0  0  0
 31 30  1  0  0  0  0
 32 30  1  0  0  0  0
M  END
