1,2
q = 0.0, confidence = 0.998

 38 42  0  0  1  0  0  0  0  0999 V2000
    2.5621    0.9467   -1.1304 N   0  0  0  0  0  2  0  0  0  0  0  0
    0.0838   -0.0022   -0.7624 N   0  0  0  0  0  2  0  0  0  0  0  0
    3.8382    1.3052   -1.4070 C   0  0  0  0  0  3  0  0  0  0  0  0
    4.6193    0.5949   -1.0999 H   0  0  0  0  0  0  0  0  0  0  0  0
    4.1602    2.5052   -2.0448 C   0  0  0  0  0  0  0  0  0  0  0  0
    5.2120    2.7456   -2.2525 H   0  0  0  0  0  0  0  0  0  0  0  0
    3.1204    3.3768   -2.4032 C   0  0  0  0  0  0  0  0  0  0  0  0
    3.3343    4.3340   -2.9004 H   0  0  0  0  0  0  0  0  0  0  0  0
    1.8013    3.0049   -2.1283 C   0  0  0  0  0  0  0  0  0  0  0  0
    0.9748    3.6668   -2.4153 H   0  0  0  0  0  0  0  0  0  0  0  0
    1.5378    1.7724   -1.4991 C   0  0  0  0  0  0  0  0  0  0  0  0
    0.1782    1.2633   -1.2421 C   0  0  0  0  0  0  0  0  0  0  0  0
   -0.9787    2.0178   -1.5424 C   0  0  0  0  0  0  0  0  0  0  0  0
   -0.8934    3.0066   -2.0088 H   0  0  0  0  0  0  0  0  0  0  0  0
   -2.2307    1.5039   -1.2448 C   0  0  0  0  0  0  0  0  0  0  0  0
   -3.1236    2.0889   -1.4961 H   0  0  0  0  0  0  0  0  0  0  0  0
   -2.3704    0.2000   -0.7004 C   0  0  0  0  0  0  0  0  0  0  0  0
   -3.6490   -0.4059   -0.3785 C   0  0  0  0  0  0  0  0  0  0  0  0
   -4.8709    0.3459   -0.1427 C   0  0  0  0  0  0  0  0  0  0  0  0
   -4.9062    1.7372    0.1647 C   0  0  0  0  0  0  0  0  0  0  0  0
   -3.9693    2.2884    0.3153 H   0  0  0  0  0  0  0  0  0  0  0  0
   -6.1086    2.4110    0.3555 C   0  0  0  0  0  0  0  0  0  0  0  0
   -6.0974    3.4822    0.6062 H   0  0  0  0  0  0  0  0  0  0  0  0
   -7.3415    1.7246    0.2565 C   0  0  0  0  0  0  0  0  0  0  0  0
   -8.2884    2.2671    0.3933 H   0  0  0  0  0  0  0  0  0  0  0  0
   -7.3433    0.3534    0.0388 C   0  0  0  0  0  0  0  0  0  0  0  0
   -8.2903   -0.2072    0.0215 H   0  0  0  0  0  0  0  0  0  0  0  0
   -6.1275   -0.3646   -0.1295 C   0  0  2  0  0  3  0  0  0  0  0  0
   -6.1393   -1.7935   -0.2188 C   0  0  0  0  0  0  0  0  0  0  0  0
   -7.1092   -2.3135   -0.2109 H   0  0  0  0  0  0  0  0  0  0  0  0
   -4.9645   -2.5071   -0.2509 C   0  0  0  0  0  0  0  0  0  0  0  0
   -4.9738   -3.6072   -0.2472 H   0  0  0  0  0  0  0  0  0  0  0  0
   -3.7043   -1.8332   -0.3210 C   0  0  0  0  0  0  0  0  0  0  0  0
   -2.4916   -2.5930   -0.3544 C   0  0  0  0  0  0  0  0  0  0  0  0
   -2.5618   -3.6901   -0.3028 H   0  0  0  0  0  0  0  0  0  0  0  0
   -1.2554   -1.9944   -0.4288 C   0  0  0  0  0  0  0  0  0  0  0  0
   -0.3389   -2.5945   -0.4395 H   0  0  0  0  0  0  0  0  0  0  0  0
   -1.1578   -0.5827   -0.6088 C   0  0  0  0  0  0  0  0  0  0  0  0
  2 38  1  0  0  0  0
  3  1  1  0  0  0  0
  3  4  1  0  0  0  0
  5  3  1  0  0  0  0
  6  5  1  0  0  0  0
  7  9  1  0  0  0  0
  7  5  2  0  0  0  0
  8  7  1  0  0  0  0
  9 11  2  0  0  0  0
 10  9  1  0  0  0  0
 11 12  1  0  0  0  0
 11  1  1  0  0  0  0
 12  2  1  0  0  0  0
 13 15  1  0  0  0  0
 13 12  2  0  0  0  0
 14 13  1  0  0  0  0
 15 17  2  0  0  0  0
 16 15  1  0  0  0  0
 17 38  1  0  0  0  0
 17 18  1  0  0  0  0
 18 33  1  0  0  0  0
 18 19  2  0  0  0  0
 19 28  1  0  0  0  0
 19 20  1  0  0  0  0
 20 21  1  0  0  0  0
 20 22  2  0  0  0  0
 22 23  1  0  0  0  0
 24 22  1  0  0  0  0
 24 25  1  0  0  0  0
 26 24  2  0  0  0  0
 27 26  1  0  0  0  0
 28 29  1  1  0  0  0
 28 26  1  0  0  0  0
 29 30  1  0  0  0  0
 31 32  1  0  0  0  0
 31 29  2  0  0  0  0
 33 31  1  0  0  0  0
 34 33  2  0  0  0  0
 34 35  1  0  0  0  0
 36 34  1  0  0  0  0
 37 36  1  0  0  0  0
 38 36  2  0  0  0  0
M  END
