3,4
q = 0.0, confidence = 0.978

 29 29  0  0  0  0  0  0  0  0999 V2000
   -4.4712   -0.4092   -1.3330 Cl  0  0  0  0  0  0  0  0  0  0  0  0
   -1.0997   -2.1747    2.5755 Cl  0  0  0  0  0  0  0  0  0  0  0  0
   -1.0631   -2.1969   -0.6882 N   0  0  0  0  0  2  0  0  0  0  0  0
    1.6935   -2.7833   -0.6052 N   0  0  0  0  0  0  0  0  0  0  0  0
   -3.8450   -0.2922    0.2915 C   0  0  0  0  0  0  0  0  0  0  0  0
   -4.3473    0.6837    1.1598 C   0  0  0  0  0  0  0  0  0  0  0  0
   -5.1252    1.3747    0.8083 H   0  0  0  0  0  0  0  0  0  0  0  0
   -3.8191    0.7740    2.4558 C   0  0  0  0  0  0  0  0  0  0  0  0
   -4.1892    1.5511    3.1399 H   0  0  0  0  0  0  0  0  0  0  0  0
   -2.8167   -0.1050    2.8854 C   0  0  0  0  0  0  0  0  0  0  0  0
   -2.4003   -0.0432    3.8992 H   0  0  0  0  0  0  0  0  0  0  0  0
   -2.3180   -1.0685    1.9983 C   0  0  0  0  0  0  0  0  0  0  0  0
   -2.8000   -1.1651    0.6703 C   0  0  0  0  0  0  0  0  0  0  0  0
   -2.2890   -2.1731   -0.2797 C   0  0  0  0  0  3  0  0  0  0  0  0
   -2.9951   -2.9530   -0.6360 H   0  0  0  0  0  0  0  0  0  0  0  0
   -0.5771   -3.3364   -1.4675 C   0  0  0  0  0  0  0  0  0  0  0  0
   -0.3328   -2.9827   -2.4908 H   0  0  0  0  0  0  0  0  0  0  0  0
   -1.3393   -4.1418   -1.5479 H   0  0  0  0  0  0  0  0  0  0  0  0
    0.6707   -3.8558   -0.7510 C   0  0  0  0  0  0  0  0  0  0  0  0
    1.0988   -4.7362   -1.2820 H   0  0  0  0  0  0  0  0  0  0  0  0
    0.3774   -4.1772    0.2677 H   0  0  0  0  0  0  0  0  0  0  0  0
    2.5893   -3.0772    0.5328 C   0  0  0  0  0  0  0  0  0  0  0  0
    2.0054   -3.0815    1.4707 H   0  0  0  0  0  0  0  0  0  0  0  0
    3.3518   -2.2812    0.6037 H   0  0  0  0  0  0  0  0  0  0  0  0
    3.0981   -4.0585    0.3942 H   0  0  0  0  0  0  0  0  0  0  0  0
    2.4882   -2.6376   -1.8453 C   0  0  0  0  0  0  0  0  0  0  0  0
    3.1818   -1.7855   -1.7282 H   0  0  0  0  0  0  0  0  0  0  0  0
    1.8233   -2.4147   -2.6996 H   0  0  0  0  0  0  0  0  0  0  0  0
    3.0668   -3.5672   -2.0533 H   0  0  0  0  0  0  0  0  0  0  0  0
  1  5  1  0  0  0  0
  3 14  1  0  0  0  0
  4 22  1  0  0  0  0
  5 13  2  0  0  0  0
  5  6  1  0  0  0  0
  6  8  2  0  0  0  0
  7  6  1  0  0  0  0
  8 10  1  0  0  0  0
  8  9  1  0  0  0  0
 10 11  1  0  0  0  0
 12  2  1  0  0  0  0
 12 10  2  0  0  0  0
 13 12  1  0  0  0  0
 14 13  1  0  0  0  0
 15 14  1  0  0  0  0
 16 19  1  0  0  0  0
 16  3  1  0  0  0  0
 17 16  1  0  0  0  0
 18 16  1  0  0  0  0
 19  4  1  0  0  0  0
 19 21  1  0  0  0  0
 20 19  1  0  0  0  0
 22 24  1  0  0  0  0
 22 23  1  0  0  0  0
 25 22  1  0  0  0  0
 26 27  1  0  0  0  0
 26  4  1  0  0  0  0
 28 26  1  0  0  0  0
 29 26  1  0  0  0  0
M  END
