3,4
q = 0.0, confidence = 0.56

 42 43  0  0  0  0  0  0  0  0999 V2000
   -5.2516   -3.7659   -1.0146 O   0  0  0  0  0  0  0  0  0  0  0  0
    7.0220   -1.6615   -0.4230 O   0  0  0  0  0  0  0  0  0  0  0  0
   -0.8847   -0.5667    0.4214 N   0  0  0  0  0  2  0  0  0  0  0  0
    1.7700    0.0223    0.5617 N   0  0  0  0  0  2  0  0  0  0  0  0
   -1.9710   -1.3839    0.0919 C   0  0  0  0  0  0  0  0  0  0  0  0
   -2.0095   -2.7412    0.4792 C   0  0  0  0  0  0  0  0  0  0  0  0
   -3.0877   -3.5691    0.1333 C   0  0  0  0  0  0  0  0  0  0  0  0
   -4.1595   -3.0498   -0.6217 C   0  0  0  0  0  0  0  0  0  0  0  0
   -4.1328   -1.6917   -1.0087 C   0  0  0  0  0  0  0  0  0  0  0  0
   -3.0623   -0.8720   -0.6530 C   0  0  0  0  0  0  0  0  0  0  0  0
   -5.3251   -5.1279   -0.6466 C   0  0  0  0  0  0  0  0  0  0  0  0
   -0.2668   -0.6170    1.6704 C   0  0  0  0  0  0  0  0  0  0  0  0
   -1.1083   -0.7136    2.9232 C   0  0  0  0  0  0  0  0  0  0  0  0
    1.1038   -0.3173    1.7429 C   0  0  0  0  0  0  0  0  0  0  0  0
    1.7908   -0.0706    3.0634 C   0  0  0  0  0  0  0  0  0  0  0  0
    3.0992   -0.3601    0.3301 C   0  0  0  0  0  0  0  0  0  0  0  0
    4.0532    0.5543   -0.1572 C   0  0  0  0  0  0  0  0  0  0  0  0
    5.3718    0.1586   -0.4297 C   0  0  0  0  0  0  0  0  0  0  0  0
    5.7692   -1.1739   -0.1972 C   0  0  0  0  0  0  0  0  0  0  0  0
    4.8265   -2.0933    0.3149 C   0  0  0  0  0  0  0  0  0  0  0  0
    3.5161   -1.6933    0.5724 C   0  0  0  0  0  0  0  0  0  0  0  0
    7.9998   -0.7797   -0.9364 C   0  0  0  0  0  0  0  0  0  0  0  0
   -1.1646   -3.1547    1.0507 H   0  0  0  0  0  0  0  0  0  0  0  0
   -3.0759   -4.6208    0.4500 H   0  0  0  0  0  0  0  0  0  0  0  0
   -4.9840   -1.2963   -1.5818 H   0  0  0  0  0  0  0  0  0  0  0  0
   -3.0686    0.1932   -0.9207 H   0  0  0  0  0  0  0  0  0  0  0  0
    3.7548    1.6023   -0.2982 H   0  0  0  0  0  0  0  0  0  0  0  0
    6.0850    0.9040   -0.8063 H   0  0  0  0  0  0  0  0  0  0  0  0
    5.1534   -3.1280    0.4943 H   0  0  0  0  0  0  0  0  0  0  0  0
    2.7800   -2.4155    0.9570 H   0  0  0  0  0  0  0  0  0  0  0  0
   -6.2759   -5.5149   -1.0583 H   0  0  0  0  0  0  0  0  0  0  0  0
   -5.3305   -5.2619    0.4593 H   0  0  0  0  0  0  0  0  0  0  0  0
   -4.4820   -5.7207   -1.0692 H   0  0  0  0  0  0  0  0  0  0  0  0
   -2.1392   -1.0255    2.6740 H   0  0  0  0  0  0  0  0  0  0  0  0
   -1.1638    0.2641    3.4486 H   0  0  0  0  0  0  0  0  0  0  0  0
   -0.6940   -1.4466    3.6438 H   0  0  0  0  0  0  0  0  0  0  0  0
    1.5761    0.9540    3.4407 H   0  0  0  0  0  0  0  0  0  0  0  0
    1.4671   -0.7854    3.8435 H   0  0  0  0  0  0  0  0  0  0  0  0
    2.8877   -0.1577    2.9457 H   0  0  0  0  0  0  0  0  0  0  0  0
    8.9274   -1.3707   -1.0519 H   0  0  0  0  0  0  0  0  0  0  0  0
    8.1987    0.0709   -0.2454 H   0  0  0  0  0  0  0  0  0  0  0  0
    7.7090   -0.3673   -1.9294 H   0  0  0  0  0  0  0  0  0  0  0  0
  1 11  1  0  0  0  0
  1  8  1  0  0  0  0
  2 19  1  0  0  0  0
  3 12  1  0  0  0  0
  4 14  1  0  0  0  0
  5  3  1  0  0  0  0
  5  6  1  0  0  0  0
  6 23  1  0  0  0  0
  7 24  1  0  0  0  0
  7  6  2  0  0  0  0
  8  7  1  0  0  0  0
  9 10  1  0  0  0  0
  9  8  2  0  0  0  0
 10  5  2  0  0  0  0
 11 32  1  0  0  0  0
 12 14  2  0  0  0  0
 12 13  1  0  0  0  0
 13 35  1  0  0  0  0
 13 36  1  0  0  0  0
 14 15  1  0  0  0  0
 15 37  1  0  0  0  0
 15 38  1  0  0  0  0
 16  4  1  0  0  0  0
 16 21  1  0  0  0  0
 17 16  2  0  0  0  0
 18 19  2  0  0  0  0
 18 17  1  0  0  0  0
 19 20  1  0  0  0  0
 20 29  1  0  0  0  0
 20 21  2  0  0  0  0
 21 30  1  0  0  0  0
 22  2  1  0  0  0  0
 22 41  1  0  0  0  0
 25  9  1  0  0  0  0
 26 10  1  0  0  0  0
 27 17  1  0  0  0  0
 28 18  1  0  0  0  0
 31 11  1  0  0  0  0
 33 11  1  0  0  0  0
 34 13  1  0  0  0  0
 39 15  1  0  0  0  0
 40 22  1  0  0  0  0
 42 22  1  0  0  0  0
M  END
