2,3
q = 0.0, confidence = 0.998

 23 26  0  0  0  0  0  0  0  0999 V2000
    7.0544    0.0980   -1.5340 S   0  0  0  0  0  0  0  0  0  0  0  0
    1.4785    1.2460    0.6900 N   0  0  0  0  0  2  0  0  0  0  0  0
    1.0887   -0.9156   -0.6554 N   0  0  0  0  0  2  0  0  0  0  0  0
    6.2107    1.1727   -0.5921 N   0  0  0  0  0  0  0  0  0  0  0  0
    5.8203   -0.9322   -1.9458 N   0  0  0  0  0  0  0  0  0  0  0  0
    2.5889    0.7704    0.0506 C   0  0  0  0  0  0  0  0  0  0  0  0
    1.5921    2.3683    1.4269 C   0  0  0  0  0  0  0  0  0  0  0  0
    2.8131    3.0551    1.5470 C   0  0  0  0  0  0  0  0  0  0  0  0
    3.9610    2.5724    0.9077 C   0  0  0  0  0  0  0  0  0  0  0  0
    3.8556    1.3962    0.1402 C   0  0  0  0  0  0  0  0  0  0  0  0
    4.9448    0.7466   -0.5713 C   0  0  0  0  0  0  0  0  0  0  0  0
    4.7209   -0.4633   -1.3496 C   0  0  0  0  0  0  0  0  0  0  0  0
    3.4015   -1.0703   -1.4390 C   0  0  0  0  0  0  0  0  0  0  0  0
    3.0808   -2.2248   -2.1786 C   0  0  0  0  0  0  0  0  0  0  0  0
    1.7569   -2.6820   -2.1535 C   0  0  0  0  0  0  0  0  0  0  0  0
    0.7937   -2.0125   -1.3820 C   0  0  0  0  0  0  0  0  0  0  0  0
    2.3693   -0.4335   -0.7089 C   0  0  0  0  0  0  0  0  0  0  0  0
    0.6744    2.6765    1.9506 H   0  0  0  0  0  0  0  0  0  0  0  0
    2.8534    3.9616    2.1674 H   0  0  0  0  0  0  0  0  0  0  0  0
    4.9343    3.0745    1.0006 H   0  0  0  0  0  0  0  0  0  0  0  0
    3.8654   -2.7408   -2.7494 H   0  0  0  0  0  0  0  0  0  0  0  0
    1.4593   -3.5774   -2.7174 H   0  0  0  0  0  0  0  0  0  0  0  0
   -0.2425   -2.3745   -1.3167 H   0  0  0  0  0  0  0  0  0  0  0  0
  1  4  1  0  0  0  0
  2  7  1  0  0  0  0
  4 11  2  0  0  0  0
  5  1  1  0  0  0  0
  5 12  2  0  0  0  0
  6 10  1  0  0  0  0
  6  2  1  0  0  0  0
  7  8  2  0  0  0  0
  7 18  1  0  0  0  0
  8 19  1  0  0  0  0
  9 20  1  0  0  0  0
  9  8  1  0  0  0  0
 10  9  2  0  0  0  0
 11 10  1  0  0  0  0
 12 11  1  0  0  0  0
 13 12  1  0  0  0  0
 13 17  1  0  0  0  0
 14 15  1  0  0  0  0
 14 13  2  0  0  0  0
 15 16  2  0  0  0  0
 16 23  1  0  0  0  0
 16  3  1  0  0  0  0
 17  3  1  0  0  0  0
 17  6  2  0  0  0  0
 21 14  1  0  0  0  0
 22 15  1  0  0  0  0
M  END
