1,2
q = 0.0, confidence = 0.988

 33 34  0  0  0  0  0  0  0  0999 V2000
   -1.5881    1.1069   -1.1335 N   0  0  0  0  0  2  0  0  0  0  0  0
    0.5798   -0.2136   -1.2142 N   0  0  0  0  0  2  0  0  0  0  0  0
   -2.6706    1.9090   -1.0758 C   0  0  0  0  0  3  0  0  0  0  0  0
   -3.7667    1.7439   -1.9314 C   0  0  0  0  0  0  0  0  0  0  0  0
   -3.7546    0.7152   -2.8893 C   0  0  0  0  0  0  0  0  0  0  0  0
   -2.6237   -0.1014   -2.9755 C   0  0  0  0  0  0  0  0  0  0  0  0
   -1.5496    0.1249   -2.0950 C   0  0  0  0  0  0  0  0  0  0  0  0
   -0.3097   -0.6085   -2.0944 C   0  0  0  0  0  3  0  0  0  0  0  0
    1.8284   -0.8770   -1.0861 C   0  0  0  0  0  0  0  0  0  0  0  0
    3.0248   -0.1706   -1.3223 C   0  0  0  0  0  0  0  0  0  0  0  0
    4.2504   -0.8056   -1.0994 C   0  0  0  0  0  0  0  0  0  0  0  0
    4.3291   -2.1326   -0.6268 C   0  0  0  0  0  0  0  0  0  0  0  0
    3.1226   -2.8316   -0.4264 C   0  0  0  0  0  0  0  0  0  0  0  0
    1.8844   -2.2175   -0.6582 C   0  0  0  0  0  0  0  0  0  0  0  0
    5.6781   -2.7452   -0.2821 C   0  0  0  0  0  0  0  0  0  0  0  0
    5.9300   -2.6388    1.2344 C   0  0  0  0  0  0  0  0  0  0  0  0
    5.8375   -4.1900   -0.7754 C   0  0  0  0  0  0  0  0  0  0  0  0
   -2.6537    2.6943   -0.3079 H   0  0  0  0  0  0  0  0  0  0  0  0
   -4.6229    2.4261   -1.8354 H   0  0  0  0  0  0  0  0  0  0  0  0
   -4.6090    0.5627   -3.5648 H   0  0  0  0  0  0  0  0  0  0  0  0
   -2.5506   -0.9091   -3.7179 H   0  0  0  0  0  0  0  0  0  0  0  0
   -0.1049   -1.4294   -2.8023 H   0  0  0  0  0  0  0  0  0  0  0  0
    2.9901    0.8638   -1.6951 H   0  0  0  0  0  0  0  0  0  0  0  0
    5.1801   -0.2462   -1.2906 H   0  0  0  0  0  0  0  0  0  0  0  0
    3.1418   -3.8731   -0.0713 H   0  0  0  0  0  0  0  0  0  0  0  0
    0.9476   -2.7668   -0.4855 H   0  0  0  0  0  0  0  0  0  0  0  0
    6.4482   -2.1266   -0.7926 H   0  0  0  0  0  0  0  0  0  0  0  0
    5.1827   -3.2362    1.7979 H   0  0  0  0  0  0  0  0  0  0  0  0
    6.9389   -3.0171    1.4990 H   0  0  0  0  0  0  0  0  0  0  0  0
    5.8486   -1.5894    1.5823 H   0  0  0  0  0  0  0  0  0  0  0  0
    5.6441   -4.2713   -1.8636 H   0  0  0  0  0  0  0  0  0  0  0  0
    6.8654   -4.5569   -0.5798 H   0  0  0  0  0  0  0  0  0  0  0  0
    5.1421   -4.8806   -0.2546 H   0  0  0  0  0  0  0  0  0  0  0  0
  1  3  1  0  0  0  0
  2  9  1  0  0  0  0
  3 18  1  0  0  0  0
  4 19  1  0  0  0  0
  4  3  1  0  0  0  0
  5  4  2  0  0  0  0
  6  5  1  0  0  0  0
  6  7  2  0  0  0  0
  7  8  1  0  0  0  0
  7  1  1  0  0  0  0
  8  2  1  0  0  0  0
  9 14  1  0  0  0  0
 10 11  1  0  0  0  0
 10  9  2  0  0  0  0
 11 12  2  0  0  0  0
 12 13  1  0  0  0  0
 12 15  1  0  0  0  0
 13 25  1  0  0  0  0
 14 26  1  0  0  0  0
 14 13  2  0  0  0  0
 15 16  1  0  0  0  0
 16 29  1  0  0  0  0
 16 30  1  0  0  0  0
 16 28  1  0  0  0  0
 17 32  1  0  0  0  0
 17 15  1  0  0  0  0
 17 33  1  0  0  0  0
 20  5  1  0  0  0  0
 21  6  1  0  0  0  0
 22  8  1  0  0  0  0
 23 10  1  0  0  0  0
 24 11  1  0  0  0  0
 27 15  1  0  0  0  0
 31 17  1  0  0  0  0
M  END
