7,25
q = 0.0, confidence = 0.978

 46 47  0  0  0  0  0  0  0  0999 V2000
   -5.3109    2.4246    2.0463 F   0  0  0  0  0  0  0  0  0  0  0  0
   -5.1799    3.8023    0.3600 F   0  0  0  0  0  0  0  0  0  0  0  0
   -6.8834    2.4416    0.5355 F   0  0  0  0  0  0  0  0  0  0  0  0
   -6.0780   -2.4925   -0.3191 F   0  0  0  0  0  0  0  0  0  0  0  0
   -6.0884   -1.9062   -2.4165 F   0  0  0  0  0  0  0  0  0  0  0  0
   -4.3939   -3.0192   -1.6123 F   0  0  0  0  0  0  0  0  0  0  0  0
   -1.2960    0.8788   -1.1988 N   0  0  0  0  0  2  0  0  0  0  0  0
   -0.7375    1.7727   -1.9890 C   0  0  0  0  0  0  0  0  0  0  0  0
   -1.4973    2.7155   -2.8749 C   0  0  0  0  0  0  0  0  0  0  0  0
   -1.1232    2.6647   -3.9173 H   0  0  0  0  0  0  0  0  0  0  0  0
   -1.3679    3.7678   -2.5440 H   0  0  0  0  0  0  0  0  0  0  0  0
   -2.5780    2.4868   -2.8762 H   0  0  0  0  0  0  0  0  0  0  0  0
   -2.6921    0.7342   -1.0267 C   0  0  0  0  0  0  0  0  0  0  0  0
   -3.2821   -0.5175   -1.3002 C   0  0  0  0  0  0  0  0  0  0  0  0
   -2.6748   -1.3166   -1.7426 H   0  0  0  0  0  0  0  0  0  0  0  0
   -4.6244   -0.7370   -0.9775 C   0  0  0  0  0  0  0  0  0  0  0  0
   -5.3810    0.2624   -0.3424 C   0  0  0  0  0  0  0  0  0  0  0  0
   -6.4226    0.0711   -0.0518 H   0  0  0  0  0  0  0  0  0  0  0  0
   -4.7883    1.5018   -0.0703 C   0  0  0  0  0  0  0  0  0  0  0  0
   -3.4533    1.7512   -0.4262 C   0  0  0  0  0  0  0  0  0  0  0  0
   -2.9870    2.7140   -0.1774 H   0  0  0  0  0  0  0  0  0  0  0  0
   -5.2899   -2.0500   -1.3262 C   0  0  0  0  0  0  0  0  0  0  0  0
   -5.5480    2.5464    0.7121 C   0  0  0  0  0  0  0  0  0  0  0  0
    0.7374    1.7728   -1.9889 C   0  0  0  0  0  0  0  0  0  0  0  0
    1.2959    0.8788   -1.1989 N   0  0  0  0  0  2  0  0  0  0  0  0
    2.6920    0.7343   -1.0267 C   0  0  0  0  0  0  0  0  0  0  0  0
    3.2822   -0.5172   -1.3005 C   0  0  0  0  0  0  0  0  0  0  0  0
    2.6751   -1.3163   -1.7431 H   0  0  0  0  0  0  0  0  0  0  0  0
    4.6245   -0.7366   -0.9777 C   0  0  0  0  0  0  0  0  0  0  0  0
    5.3809    0.2627   -0.3423 C   0  0  0  0  0  0  0  0  0  0  0  0
    6.4225    0.0715   -0.0517 H   0  0  0  0  0  0  0  0  0  0  0  0
    4.7880    1.5019   -0.0699 C   0  0  0  0  0  0  0  0  0  0  0  0
    3.4531    1.7513   -0.4259 C   0  0  0  0  0  0  0  0  0  0  0  0
    2.9866    2.7140   -0.1769 H   0  0  0  0  0  0  0  0  0  0  0  0
    5.5476    2.5464    0.7128 C   0  0  0  0  0  0  0  0  0  0  0  0
    5.3114    2.4234    2.0471 F   0  0  0  0  0  0  0  0  0  0  0  0
    5.1786    3.8023    0.3619 F   0  0  0  0  0  0  0  0  0  0  0  0
    6.8829    2.4425    0.5354 F   0  0  0  0  0  0  0  0  0  0  0  0
    5.2903   -2.0494   -1.3267 C   0  0  0  0  0  0  0  0  0  0  0  0
    6.0784   -2.4920   -0.3197 F   0  0  0  0  0  0  0  0  0  0  0  0
    6.0887   -1.9052   -2.4169 F   0  0  0  0  0  0  0  0  0  0  0  0
    4.3944   -3.0188   -1.6130 F   0  0  0  0  0  0  0  0  0  0  0  0
    1.4972    2.7159   -2.8746 C   0  0  0  0  0  0  0  0  0  0  0  0
    1.1227    2.6658   -3.9169 H   0  0  0  0  0  0  0  0  0  0  0  0
    1.3682    3.7680   -2.5431 H   0  0  0  0  0  0  0  0  0  0  0  0
    2.5778    2.4869   -2.8764 H   0  0  0  0  0  0  0  0  0  0  0  0
  2 23  1  0  0  0  0
  3 23  1  0  0  0  0
  5 22  1  0  0  0  0
  6 22  1  0  0  0  0
  7 13  1  0  0  0  0
  8 24  2  0  0  0  0
  8  7  1  0  0  0  0
  9 11  1  0  0  0  0
  9  8  1  0  0  0  0
 10  9  1  0  0  0  0
 12  9  1  0  0  0  0
 13 20  1  0  0  0  0
 14 13  2  0  0  0  0
 14 16  1  0  0  0  0
 15 14  1  0  0  0  0
 16 17  2  0  0  0  0
 17 19  1  0  0  0  0
 17 18  1  0  0  0  0
 19 23  1  0  0  0  0
 20 21  1  0  0  0  0
 20 19  2  0  0  0  0
 22 16  1  0  0  0  0
 22  4  1  0  0  0  0
 23  1  1  0  0  0  0
 24 25  1  0  0  0  0
 25 26  1  0  0  0  0
 26 33  1  0  0  0  0
 27 26  2  0  0  0  0
 27 29  1  0  0  0  0
 28 27  1  0  0  0  0
 29 30  2  0  0  0  0
 30 32  1  0  0  0  0
 30 31  1  0  0  0  0
 32 35  1  0  0  0  0
 33 34  1  0  0  0  0
 33 32  2  0  0  0  0
 35 36  1  0  0  0  0
 37 35  1  0  0  0  0
 38 35  1  0  0  0  0
 39 29  1  0  0  0  0
 39 40  1  0  0  0  0
 41 39  1  0  0  0  0
 42 39  1  0  0  0  0
 43 45  1  0  0  0  0
 43 24  1  0  0  0  0
 44 43  1  0  0  0  0
 46 43  1  0  0  0  0
M  END
