2,3
q = 0.0, confidence = 1.0

 23 24  0  0  1  0  0  0  0  0999 V2000
    3.8397    1.5260   -1.8431 S   0  0  0  0  0  0  0  0  0  0  0  0
    1.8350   -1.5404   -0.1482 N   0  0  0  0  0  2  0  0  0  0  0  0
    1.4568    1.0622   -0.8116 N   0  0  0  0  0  2  0  0  0  0  0  0
    2.8463   -0.8217   -0.7298 N   0  0  1  0  0  0  0  0  0  0  0  0
    1.5288   -3.8332    0.7416 C   0  0  0  0  0  0  0  0  0  0  0  0
    0.6462   -3.4172    1.2663 H   0  0  0  0  0  0  0  0  0  0  0  0
    2.1462   -4.4006    1.4652 H   0  0  0  0  0  0  0  0  0  0  0  0
    1.1840   -4.5582   -0.0267 H   0  0  0  0  0  0  0  0  0  0  0  0
    1.4542    2.4918   -1.0869 C   0  0  0  0  0  0  0  0  0  0  0  0
    1.6601    3.0264   -0.1326 H   0  0  0  0  0  0  0  0  0  0  0  0
    0.4497    2.8073   -1.4318 H   0  0  0  0  0  0  0  0  0  0  0  0
    2.5930    0.5109   -1.0629 C   0  0  2  0  0  3  0  0  0  0  0  0
    3.7055   -2.8114   -0.3053 C   0  0  0  0  0  0  0  0  0  0  0  0
    4.3898   -3.6613   -0.2117 H   0  0  0  0  0  0  0  0  0  0  0  0
    2.5366    2.7925   -2.1364 C   0  0  0  0  0  0  0  0  0  0  0  0
    2.9851    3.7969   -2.0212 H   0  0  0  0  0  0  0  0  0  0  0  0
    2.1692    2.6724   -3.1760 H   0  0  0  0  0  0  0  0  0  0  0  0
    4.0165   -1.5713   -0.8343 C   0  0  2  0  0  3  0  0  0  0  0  0
    5.3159   -1.0819   -1.3775 C   0  0  0  0  0  0  0  0  0  0  0  0
    6.0599   -1.8969   -1.3098 H   0  0  0  0  0  0  0  0  0  0  0  0
    5.7056   -0.2174   -0.8011 H   0  0  0  0  0  0  0  0  0  0  0  0
    5.2402   -0.7707   -2.4393 H   0  0  0  0  0  0  0  0  0  0  0  0
    2.3406   -2.7487    0.1125 C   0  0  0  0  0  0  0  0  0  0  0  0
  2 23  1  0  0  0  0
  4  2  1  1  0  0  0
  5  6  1  0  0  0  0
  5  7  1  0  0  0  0
  8  5  1  0  0  0  0
  9  3  1  0  0  0  0
  9 10  1  0  0  0  0
 11  9  1  0  0  0  0
 12  1  1  1  0  0  0
 12  3  1  0  0  0  0
 12  4  1  0  0  0  0
 13 14  1  0  0  0  0
 13 23  2  0  0  0  0
 15 16  1  0  0  0  0
 15  1  1  0  0  0  0
 15  9  1  0  0  0  0
 17 15  1  0  0  0  0
 18 19  1  1  0  0  0
 18  4  1  0  0  0  0
 18 13  1  0  0  0  0
 19 20  1  0  0  0  0
 19 21  1  0  0  0  0
 22 19  1  0  0  0  0
 23  5  1  0  0  0  0
M  END
