3,5
q = -1.0, confidence = 0.014

 14 14  0  0  1  0  0  0  0  0999 V2000
   -3.7887   -1.3441   -0.7053 N   0  0  0  0  0  0  0  0  0  0  0  0
   -3.7857   -2.3688   -0.6802 H   0  0  0  0  0  0  0  0  0  0  0  0
   -1.4675   -1.2626   -0.0515 N   0  0  0  0  0  2  0  0  0  0  0  0
   -1.4106   -2.2849   -0.1312 H   0  0  0  0  0  0  0  0  0  0  0  0
   -1.4163    1.2649   -0.0619 N   0  0  0  0  0  2  0  0  0  0  0  0
   -1.3193    2.2797   -0.1827 H   0  0  0  0  0  0  0  0  0  0  0  0
   -2.6448   -0.6884   -0.3808 C   0  0  1  0  0  3  0  0  0  0  0  0
   -2.6444    0.7527   -0.4000 C   0  0  0  0  0  0  0  0  0  0  0  0
   -3.8169    1.4201   -0.7659 C   0  0  0  0  0  0  0  0  0  0  0  0
   -3.8358    2.5194   -0.7995 H   0  0  0  0  0  0  0  0  0  0  0  0
   -4.9794    0.6779   -1.0898 C   0  0  0  0  0  0  0  0  0  0  0  0
   -5.9090    1.1905   -1.3701 H   0  0  0  0  0  0  0  0  0  0  0  0
   -4.9562   -0.7023   -1.0553 C   0  0  0  0  0  0  0  0  0  0  0  0
   -5.8138   -1.3448   -1.2889 H   0  0  0  0  0  0  0  0  0  0  0  0
  1  2  1  0  0  0  0
  1  7  1  0  0  0  0
  4  3  1  0  0  0  0
  6  5  1  0  0  0  0
  7  3  1  6  0  0  0
  8  7  1  0  0  0  0
  8  5  1  0  0  0  0
  9  8  2  0  0  0  0
 10  9  1  0  0  0  0
 11 13  2  0  0  0  0
 11  9  1  0  0  0  0
 12 11  1  0  0  0  0
 13  1  1  0  0  0  0
 14 13  1  0  0  0  0
M  END
