2,8
q = 0.0, confidence = 0.986

 27 30  0  0  1  0  0  0  0  0999 V2000
   -6.7495    0.2873    0.1275 Br  0  0  0  0  0  0  0  0  0  0  0  0
   -0.4585   -0.8251   -0.1971 N   0  0  0  0  0  2  0  0  0  0  0  0
   -1.2526   -1.8993   -0.3421 N   0  0  0  0  0  0  0  0  0  0  0  0
   -0.8607   -2.8110   -0.5851 H   0  0  0  0  0  0  0  0  0  0  0  0
   -3.6182   -2.3668   -0.3643 N   0  0  0  0  0  0  0  0  0  0  0  0
   -0.8046    2.7819    0.1967 N   0  0  0  0  0  0  0  0  0  0  0  0
   -1.7515    3.1499    0.2852 H   0  0  0  0  0  0  0  0  0  0  0  0
    0.8739    1.3215   -0.0384 N   0  0  0  0  0  2  0  0  0  0  0  0
   -2.5790   -1.5411   -0.2561 C   0  0  1  0  0  3  0  0  0  0  0  0
   -4.8143   -1.7877   -0.2473 C   0  0  0  0  0  0  0  0  0  0  0  0
   -5.7011   -2.4375   -0.3336 H   0  0  0  0  0  0  0  0  0  0  0  0
   -4.9939   -0.3888   -0.0189 C   0  0  0  0  0  0  0  0  0  0  0  0
   -3.8924    0.4661    0.0953 C   0  0  0  0  0  0  0  0  0  0  0  0
   -4.0367    1.5410    0.2715 H   0  0  0  0  0  0  0  0  0  0  0  0
   -2.6191   -0.1278   -0.0292 C   0  0  0  0  0  0  0  0  0  0  0  0
   -1.2459    0.2709   -0.0117 C   0  0  0  0  0  0  0  0  0  0  0  0
   -0.4648    1.4665    0.0740 C   0  0  2  0  0  3  0  0  0  0  0  0
    0.3627    3.5354    0.1300 C   0  0  0  0  0  0  0  0  0  0  0  0
    0.5900    4.9180    0.1841 C   0  0  0  0  0  0  0  0  0  0  0  0
   -0.2320    5.6360    0.3134 H   0  0  0  0  0  0  0  0  0  0  0  0
    1.9170    5.3422    0.0517 C   0  0  0  0  0  0  0  0  0  0  0  0
    2.1407    6.4183    0.0834 H   0  0  0  0  0  0  0  0  0  0  0  0
    2.9766    4.4212   -0.1391 C   0  0  0  0  0  0  0  0  0  0  0  0
    4.0003    4.8032   -0.2621 H   0  0  0  0  0  0  0  0  0  0  0  0
    2.7502    3.0427   -0.1881 C   0  0  0  0  0  0  0  0  0  0  0  0
    3.5678    2.3340   -0.3703 H   0  0  0  0  0  0  0  0  0  0  0  0
    1.4253    2.5961   -0.0351 C   0  0  0  0  0  0  0  0  0  0  0  0
  2 16  1  0  0  0  0
  3  9  1  0  0  0  0
  3  2  1  0  0  0  0
  4  3  1  0  0  0  0
  5 10  2  0  0  0  0
  6  7  1  0  0  0  0
  8 27  1  0  0  0  0
  8 17  1  0  0  0  0
  9  5  1  1  0  0  0
  9 15  1  0  0  0  0
 10 12  1  0  0  0  0
 11 10  1  0  0  0  0
 12 13  2  0  0  0  0
 12  1  1  0  0  0  0
 13 14  1  0  0  0  0
 15 16  2  0  0  0  0
 15 13  1  0  0  0  0
 17 16  1  6  0  0  0
 17  6  1  0  0  0  0
 18 19  1  0  0  0  0
 18  6  1  0  0  0  0
 19 20  1  0  0  0  0
 21 22  1  0  0  0  0
 21 19  2  0  0  0  0
 23 21  1  0  0  0  0
 24 23  1  0  0  0  0
 25 23  2  0  0  0  0
 25 27  1  0  0  0  0
 26 25  1  0  0  0  0
 27 18  2  0  0  0  0
M  END
