1,7
q = 0.0, confidence = 0.996

 27 30  0  0  1  0  0  0  0  0999 V2000
    1.3687   -0.2839   -0.2199 N   0  0  0  0  0  0  0  0  0  0  0  0
    2.4044   -1.1318   -0.4113 N   0  0  0  0  0  0  0  0  0  0  0  0
    4.7847   -0.7657   -0.4396 N   0  0  0  0  0  0  0  0  0  0  0  0
    4.9652   -1.7557   -0.6438 H   0  0  0  0  0  0  0  0  0  0  0  0
    0.5563    3.2336    0.4231 N   0  0  0  0  0  0  0  0  0  0  0  0
    1.3322    3.8901    0.4945 H   0  0  0  0  0  0  0  0  0  0  0  0
   -0.5646    1.3168    0.1487 N   0  0  0  0  0  2  0  0  0  0  0  0
    3.4880   -0.3601   -0.3080 C   0  0  0  0  0  0  0  0  0  0  0  0
    5.8115    0.1153   -0.3227 C   0  0  0  0  0  3  0  0  0  0  0  0
    6.8231   -0.2929   -0.4493 H   0  0  0  0  0  0  0  0  0  0  0  0
    5.5666    1.4649   -0.0580 C   0  0  0  0  0  0  0  0  0  0  0  0
    6.4235    2.1456    0.0291 H   0  0  0  0  0  0  0  0  0  0  0  0
    4.2477    1.9435    0.0902 C   0  0  0  0  0  0  0  0  0  0  0  0
    4.0770    3.0105    0.2957 H   0  0  0  0  0  0  0  0  0  0  0  0
    3.1901    1.0337   -0.0359 C   0  0  0  0  0  0  0  0  0  0  0  0
    1.7679    1.0121    0.0082 C   0  0  0  0  0  3  0  0  0  0  0  0
    0.6586    1.8895    0.2016 C   0  0  1  0  0  3  0  0  0  0  0  0
   -0.7959    3.5569    0.4954 C   0  0  0  0  0  0  0  0  0  0  0  0
   -1.4610    4.7739    0.6982 C   0  0  0  0  0  0  0  0  0  0  0  0
   -0.9146    5.7168    0.8417 H   0  0  0  0  0  0  0  0  0  0  0  0
   -2.8609    4.7336    0.7007 C   0  0  0  0  0  0  0  0  0  0  0  0
   -3.4228    5.6665    0.8527 H   0  0  0  0  0  0  0  0  0  0  0  0
   -3.5697    3.5237    0.5023 C   0  0  0  0  0  0  0  0  0  0  0  0
   -4.6691    3.5433    0.4984 H   0  0  0  0  0  0  0  0  0  0  0  0
   -2.9051    2.3096    0.3026 C   0  0  0  0  0  0  0  0  0  0  0  0
   -3.4518    1.3746    0.1270 H   0  0  0  0  0  0  0  0  0  0  0  0
   -1.4998    2.3297    0.3085 C   0  0  0  0  0  0  0  0  0  0  0  0
  1 16  1  0  0  0  0
  2  8  1  0  0  0  0
  2  1  2  0  0  0  0
  3  9  1  0  0  0  0
  3  8  1  0  0  0  0
  4  3  1  0  0  0  0
  5  6  1  0  0  0  0
  5 18  1  0  0  0  0
  7 17  1  0  0  0  0
  7 27  1  0  0  0  0
  8 15  2  0  0  0  0
  9 11  1  0  0  0  0
 10  9  1  0  0  0  0
 11 12  1  0  0  0  0
 11 13  2  0  0  0  0
 13 14  1  0  0  0  0
 15 16  1  0  0  0  0
 15 13  1  0  0  0  0
 17 16  1  6  0  0  0
 17  5  1  0  0  0  0
 18 19  1  0  0  0  0
 19 21  2  0  0  0  0
 19 20  1  0  0  0  0
 21 22  1  0  0  0  0
 23 21  1  0  0  0  0
 24 23  1  0  0  0  0
 25 27  1  0  0  0  0
 25 23  2  0  0  0  0
 26 25  1  0  0  0  0
 27 18  2  0  0  0  0
M  END
