1,6
q = 0.0, confidence = 0.99

 78 84  0  0  1  0  0  0  0  0999 V2000
   -1.9564   -2.2329   -0.8061 N   0  0  0  0  0  2  0  0  0  0  0  0
   -2.8312   -1.1917   -0.8396 N   0  0  0  0  0  0  0  0  0  0  0  0
   -1.2388    0.3540    0.0329 N   0  0  0  0  0  0  0  0  0  0  0  0
    1.1049    0.1352    0.1282 N   0  0  0  0  0  0  0  0  0  0  0  0
    2.7441   -1.3609   -0.7550 N   0  0  0  0  0  0  0  0  0  0  0  0
    1.8223   -2.3289   -1.0020 N   0  0  0  0  0  2  0  0  0  0  0  0
   -2.0634   -4.7136   -0.7288 C   0  0  0  0  0  0  0  0  0  0  0  0
   -1.0570   -4.6567   -0.2706 H   0  0  0  0  0  0  0  0  0  0  0  0
   -1.9520   -5.1388   -1.7484 H   0  0  0  0  0  0  0  0  0  0  0  0
   -2.6768   -5.4212   -0.1397 H   0  0  0  0  0  0  0  0  0  0  0  0
   -2.7001   -3.3638   -0.7700 C   0  0  2  0  0  3  0  0  0  0  0  0
   -4.0703   -3.0227   -0.7891 C   0  0  0  0  0  0  0  0  0  0  0  0
   -4.9241   -3.7073   -0.7617 H   0  0  0  0  0  0  0  0  0  0  0  0
   -4.1280   -1.6270   -0.8306 C   0  0  0  0  0  0  0  0  0  0  0  0
   -5.3037   -0.7081   -0.8604 C   0  0  0  0  0  0  0  0  0  0  0  0
   -5.3284   -0.0323    0.0204 H   0  0  0  0  0  0  0  0  0  0  0  0
   -6.2363   -1.3004   -0.8498 H   0  0  0  0  0  0  0  0  0  0  0  0
   -5.3166   -0.0729   -1.7695 H   0  0  0  0  0  0  0  0  0  0  0  0
   -2.3350    0.1892   -0.8688 C   0  0  0  0  0  0  0  0  0  0  0  0
   -1.9889    0.4485   -1.8896 H   0  0  0  0  0  0  0  0  0  0  0  0
   -3.2036    0.8459   -0.6461 H   0  0  0  0  0  0  0  0  0  0  0  0
   -1.3909    0.1678    1.4173 C   0  0  0  0  0  0  0  0  0  0  0  0
   -2.6309    0.1384    2.0569 C   0  0  0  0  0  0  0  0  0  0  0  0
   -3.5571    0.2957    1.4893 H   0  0  0  0  0  0  0  0  0  0  0  0
   -2.7023   -0.0799    3.4549 C   0  0  0  0  0  0  0  0  0  0  0  0
   -3.6888   -0.0894    3.9417 H   0  0  0  0  0  0  0  0  0  0  0  0
   -1.5558   -0.2763    4.2095 C   0  0  0  0  0  0  0  0  0  0  0  0
   -1.6210   -0.4495    5.2936 H   0  0  0  0  0  0  0  0  0  0  0  0
   -0.2725   -0.2783    3.5881 C   0  0  0  0  0  0  0  0  0  0  0  0
   -0.1885   -0.0467    2.1716 C   0  0  0  0  0  0  0  0  0  0  0  0
    1.0905   -0.0905    1.5203 C   0  0  0  0  0  0  0  0  0  0  0  0
    2.2377   -0.3847    2.2594 C   0  0  0  0  0  0  0  0  0  0  0  0
    3.2197   -0.4455    1.7736 H   0  0  0  0  0  0  0  0  0  0  0  0
    2.1450   -0.6020    3.6569 C   0  0  0  0  0  0  0  0  0  0  0  0
    3.0634   -0.8212    4.2214 H   0  0  0  0  0  0  0  0  0  0  0  0
    0.9261   -0.5406    4.3143 C   0  0  0  0  0  0  0  0  0  0  0  0
    0.8644   -0.7115    5.3989 H   0  0  0  0  0  0  0  0  0  0  0  0
    2.3248    0.0379   -0.6164 C   0  0  0  0  0  0  0  0  0  0  0  0
    3.1701    0.5893   -0.1530 H   0  0  0  0  0  0  0  0  0  0  0  0
    2.1590    0.4826   -1.6187 H   0  0  0  0  0  0  0  0  0  0  0  0
    5.2303   -0.9987   -0.6404 C   0  0  0  0  0  0  0  0  0  0  0  0
    5.2864   -0.1690   -1.3746 H   0  0  0  0  0  0  0  0  0  0  0  0
    6.1397   -1.6154   -0.7558 H   0  0  0  0  0  0  0  0  0  0  0  0
    5.2579   -0.5461    0.3731 H   0  0  0  0  0  0  0  0  0  0  0  0
    4.0188   -1.8477   -0.8401 C   0  0  2  0  0  3  0  0  0  0  0  0
    3.8966   -3.2070   -1.1435 C   0  0  0  0  0  0  0  0  0  0  0  0
    4.7172   -3.9192   -1.2769 H   0  0  0  0  0  0  0  0  0  0  0  0
    2.5116   -3.4710   -1.2341 C   0  0  0  0  0  0  0  0  0  0  0  0
    1.8083   -4.7587   -1.5083 C   0  0  0  0  0  0  0  0  0  0  0  0
    0.8022   -4.5679   -1.9294 H   0  0  0  0  0  0  0  0  0  0  0  0
    1.6833   -5.3564   -0.5810 H   0  0  0  0  0  0  0  0  0  0  0  0
    2.3804   -5.3770   -2.2258 H   0  0  0  0  0  0  0  0  0  0  0  0
    0.0117    0.9554   -0.3991 C   0  0  2  0  0  0  0  0  0  0  0  0
    0.0596    0.8893   -1.5043 H   0  0  0  0  0  0  0  0  0  0  0  0
    0.0994    2.4575    0.0286 C   0  0  0  0  0  0  0  0  0  0  0  0
   -0.0278    2.4573    1.1293 H   0  0  0  0  0  0  0  0  0  0  0  0
    1.4918    3.0085   -0.2440 C   0  0  0  0  0  0  0  0  0  0  0  0
    1.9258    3.4025   -1.5263 C   0  0  0  0  0  0  0  0  0  0  0  0
    1.2181    3.4277   -2.3670 H   0  0  0  0  0  0  0  0  0  0  0  0
    3.2576    3.7878   -1.7469 C   0  0  0  0  0  0  0  0  0  0  0  0
    3.5741    4.0988   -2.7540 H   0  0  0  0  0  0  0  0  0  0  0  0
    4.1798    3.7909   -0.6881 C   0  0  0  0  0  0  0  0  0  0  0  0
    5.2214    4.1000   -0.8618 H   0  0  0  0  0  0  0  0  0  0  0  0
    3.7557    3.4208    0.5983 C   0  0  0  0  0  0  0  0  0  0  0  0
    4.4625    3.4420    1.4417 H   0  0  0  0  0  0  0  0  0  0  0  0
    2.4239    3.0356    0.8157 C   0  0  0  0  0  0  0  0  0  0  0  0
    2.0995    2.7431    1.8267 H   0  0  0  0  0  0  0  0  0  0  0  0
   -1.0831    3.2171   -0.5496 C   0  0  0  0  0  0  0  0  0  0  0  0
   -1.9597    3.8926    0.3235 C   0  0  0  0  0  0  0  0  0  0  0  0
   -1.7479    3.8887    1.4042 H   0  0  0  0  0  0  0  0  0  0  0  0
   -3.0912    4.5654   -0.1621 C   0  0  0  0  0  0  0  0  0  0  0  0
   -3.7565    5.0909    0.5394 H   0  0  0  0  0  0  0  0  0  0  0  0
   -3.3719    4.5700   -1.5372 C   0  0  0  0  0  0  0  0  0  0  0  0
   -4.2562    5.0999   -1.9214 H   0  0  0  0  0  0  0  0  0  0  0  0
   -2.5136    3.8961   -2.4201 C   0  0  0  0  0  0  0  0  0  0  0  0
   -2.7229    3.8958   -3.5005 H   0  0  0  0  0  0  0  0  0  0  0  0
   -1.3830    3.2242   -1.9297 C   0  0  0  0  0  0  0  0  0  0  0  0
   -0.7345    2.6959   -2.6461 H   0  0  0  0  0  0  0  0  0  0  0  0
  1 11  1  0  0  0  0
  2 14  1  0  0  0  0
  2  1  1  0  0  0  0
  3 22  1  0  0  0  0
  4 31  1  0  0  0  0
  5 38  1  0  0  0  0
  6  5  1  0  0  0  0
  7  8  1  0  0  0  0
  7 10  1  0  0  0  0
  9  7  1  0  0  0  0
 11  7  1  6  0  0  0
 12 11  1  0  0  0  0
 12 13  1  0  0  0  0
 14 12  2  0  0  0  0
 15 17  1  0  0  0  0
 15 14  1  0  0  0  0
 15 16  1  0  0  0  0
 18 15  1  0  0  0  0
 19  2  1  0  0  0  0
 19 21  1  0  0  0  0
 19  3  1  0  0  0  0
 20 19  1  0  0  0  0
 22 23  2  0  0  0  0
 22 30  1  0  0  0  0
 23 25  1  0  0  0  0
 24 23  1  0  0  0  0
 25 26  1  0  0  0  0
 25 27  2  0  0  0  0
 27 28  1  0  0  0  0
 29 27  1  0  0  0  0
 29 36  1  0  0  0  0
 30 29  2  0  0  0  0
 31 30  1  0  0  0  0
 31 32  2  0  0  0  0
 32 34  1  0  0  0  0
 33 32  1  0  0  0  0
 34 35  1  0  0  0  0
 34 36  2  0  0  0  0
 36 37  1  0  0  0  0
 38 39  1  0  0  0  0
 38  4  1  0  0  0  0
 40 38  1  0  0  0  0
 41 44  1  0  0  0  0
 42 41  1  0  0  0  0
 43 41  1  0  0  0  0
 45  5  1  0  0  0  0
 45 41  1  6  0  0  0
 46 45  1  0  0  0  0
 47 46  1  0  0  0  0
 48 46  2  0  0  0  0
 48  6  1  0  0  0  0
 49 48  1  0  0  0  0
 49 51  1  0  0  0  0
 50 49  1  0  0  0  0
 52 49  1  0  0  0  0
 53 54  1  6  0  0  0
 53 55  1  0  0  0  0
 53  3  1  0  0  0  0
 53  4  1  0  0  0  0
 55 56  1  0  0  0  0
 57 55  1  0  0  0  0
 57 66  1  0  0  0  0
 58 57  2  0  0  0  0
 59 58  1  0  0  0  0
 60 58  1  0  0  0  0
 60 62  2  0  0  0  0
 61 60  1  0  0  0  0
 62 64  1  0  0  0  0
 63 62  1  0  0  0  0
 64 66  2  0  0  0  0
 64 65  1  0  0  0  0
 66 67  1  0  0  0  0
 68 55  1  0  0  0  0
 68 69  1  0  0  0  0
 69 70  1  0  0  0  0
 71 69  2  0  0  0  0
 71 72  1  0  0  0  0
 73 71  1  0  0  0  0
 74 73  1  0  0  0  0
 75 77  1  0  0  0  0
 75 73  2  0  0  0  0
 76 75  1  0  0  0  0
 77 68  2  0  0  0  0
 78 77  1  0  0  0  0
M  END
