4,5
q = -1.0, confidence = 0.0

 48 49  0  0  1  0  0  0  0  0999 V2000
   -4.3826    2.6502   -1.1844 F   0  0  0  0  0  0  0  0  0  0  0  0
   -3.5739    4.5865   -0.6276 F   0  0  0  0  0  0  0  0  0  0  0  0
   -4.1871    3.1941    0.9246 F   0  0  0  0  0  0  0  0  0  0  0  0
   -2.0739    1.3326   -0.1194 N   0  0  0  0  0  2  0  0  0  0  0  0
    0.8744    2.1843   -0.1883 N   0  0  0  0  0  2  0  0  0  0  0  0
   -4.6430   -1.2982   -0.8127 C   0  0  0  0  0  0  0  0  0  0  0  0
   -3.6320   -0.3437   -1.0006 C   0  0  0  0  0  0  0  0  0  0  0  0
   -3.1580   -0.2191   -1.9857 H   0  0  0  0  0  0  0  0  0  0  0  0
   -3.5863    3.2769   -0.2893 C   0  0  0  0  0  0  0  0  0  0  0  0
   -5.0654   -2.2053   -1.9409 C   0  0  0  0  0  0  0  0  0  0  0  0
   -4.8653   -1.7499   -2.9303 H   0  0  0  0  0  0  0  0  0  0  0  0
   -6.1437   -2.4546   -1.8849 H   0  0  0  0  0  0  0  0  0  0  0  0
   -4.5035   -3.1643   -1.8994 H   0  0  0  0  0  0  0  0  0  0  0  0
   -5.2172   -1.4317    0.4698 C   0  0  0  0  0  0  0  0  0  0  0  0
   -6.0168   -2.1742    0.6275 H   0  0  0  0  0  0  0  0  0  0  0  0
   -2.1733    2.6552   -0.2541 C   0  0  1  0  0  3  0  0  0  0  0  0
   -3.1878    0.4620    0.0687 C   0  0  0  0  0  0  0  0  0  0  0  0
    0.4506    5.6950   -0.8844 F   0  0  0  0  0  0  0  0  0  0  0  0
    1.5764    5.0124    0.8479 F   0  0  0  0  0  0  0  0  0  0  0  0
    2.2214    4.4710   -1.1701 F   0  0  0  0  0  0  0  0  0  0  0  0
    2.8958    2.3537    1.2066 C   0  0  0  0  0  0  0  0  0  0  0  0
    2.3205    2.8913    1.9733 H   0  0  0  0  0  0  0  0  0  0  0  0
    2.9863    1.2519   -0.9611 C   0  0  0  0  0  0  0  0  0  0  0  0
    2.4732    0.9422   -1.8836 H   0  0  0  0  0  0  0  0  0  0  0  0
    2.2569    1.9815    0.0071 C   0  0  0  0  0  0  0  0  0  0  0  0
   -3.7682    0.3042    1.3403 C   0  0  0  0  0  0  0  0  0  0  0  0
   -3.4064    0.9267    2.1714 H   0  0  0  0  0  0  0  0  0  0  0  0
    0.2797    3.3578   -0.3057 C   0  0  0  0  0  0  0  0  0  0  0  0
    4.9478    1.2993    0.4585 C   0  0  0  0  0  0  0  0  0  0  0  0
    5.9993    1.0239    0.6403 H   0  0  0  0  0  0  0  0  0  0  0  0
    1.1377    4.6414   -0.3837 C   0  0  0  0  0  0  0  0  0  0  0  0
   -4.7919   -0.6408    1.5524 C   0  0  0  0  0  0  0  0  0  0  0  0
    4.2444    2.0166    1.4415 C   0  0  0  0  0  0  0  0  0  0  0  0
    4.3300    0.9114   -0.7517 C   0  0  0  0  0  0  0  0  0  0  0  0
    5.1026    0.1419   -1.7935 C   0  0  0  0  0  0  0  0  0  0  0  0
    4.4378   -0.2505   -2.5863 H   0  0  0  0  0  0  0  0  0  0  0  0
    5.6364   -0.7200   -1.3434 H   0  0  0  0  0  0  0  0  0  0  0  0
    5.8708    0.7826   -2.2766 H   0  0  0  0  0  0  0  0  0  0  0  0
    4.9007    2.4134    2.7414 C   0  0  0  0  0  0  0  0  0  0  0  0
    4.3370    2.0216    3.6140 H   0  0  0  0  0  0  0  0  0  0  0  0
    4.9322    3.5173    2.8541 H   0  0  0  0  0  0  0  0  0  0  0  0
    5.9400    2.0368    2.8072 H   0  0  0  0  0  0  0  0  0  0  0  0
   -5.4233   -0.7770    2.9161 C   0  0  0  0  0  0  0  0  0  0  0  0
   -4.6562   -0.8380    3.7147 H   0  0  0  0  0  0  0  0  0  0  0  0
   -6.0635   -1.6781    2.9833 H   0  0  0  0  0  0  0  0  0  0  0  0
   -6.0587    0.1038    3.1492 H   0  0  0  0  0  0  0  0  0  0  0  0
   -1.1176    3.5787   -0.3706 C   0  0  0  0  0  0  0  0  0  0  0  0
   -1.4207    4.6171   -0.5227 H   0  0  0  0  0  0  0  0  0  0  0  0
  1  9  1  0  0  0  0
  2  9  1  0  0  0  0
  4 17  1  0  0  0  0
  5 25  1  0  0  0  0
  6 14  1  0  0  0  0
  7  6  2  0  0  0  0
  7 17  1  0  0  0  0
  8  7  1  0  0  0  0
  9 16  1  0  0  0  0
  9  3  1  0  0  0  0
 10 13  1  0  0  0  0
 10 12  1  0  0  0  0
 10  6  1  0  0  0  0
 11 10  1  0  0  0  0
 14 15  1  0  0  0  0
 14 32  2  0  0  0  0
 16 47  1  1  0  0  0
 16  4  1  0  0  0  0
 17 26  2  0  0  0  0
 18 31  1  0  0  0  0
 20 31  1  0  0  0  0
 21 33  1  0  0  0  0
 21 22  1  0  0  0  0
 23 34  2  0  0  0  0
 23 25  1  0  0  0  0
 24 23  1  0  0  0  0
 25 21  2  0  0  0  0
 26 32  1  0  0  0  0
 26 27  1  0  0  0  0
 28  5  1  0  0  0  0
 29 30  1  0  0  0  0
 29 33  2  0  0  0  0
 31 28  1  0  0  0  0
 31 19  1  0  0  0  0
 32 43  1  0  0  0  0
 33 39  1  0  0  0  0
 34 29  1  0  0  0  0
 35 37  1  0  0  0  0
 35 34  1  0  0  0  0
 36 35  1  0  0  0  0
 38 35  1  0  0  0  0
 39 42  1  0  0  0  0
 39 41  1  0  0  0  0
 39 40  1  0  0  0  0
 43 45  1  0  0  0  0
 43 46  1  0  0  0  0
 43 44  1  0  0  0  0
 47 28  2  0  0  0  0
 48 47  1  0  0  0  0
M  END
