2,33
q = 0.0, confidence = 0.992

 62 66  0  0  1  0  0  0  0  0999 V2000
    3.2196    2.5099    0.9627 O   0  0  0  0  0  0  0  0  0  0  0  0
   -0.3700    1.8278    0.8954 N   0  0  0  0  0  2  0  0  0  0  0  0
   -7.5503    0.6443    0.2949 C   0  0  0  0  0  0  0  0  0  0  0  0
   -6.3413    1.2819    0.5892 C   0  0  0  0  0  0  0  0  0  0  0  0
   -5.1046    0.6563    0.3014 C   0  0  0  0  0  0  0  0  0  0  0  0
   -3.8738    1.2915    0.5979 C   0  0  0  0  0  0  0  0  0  0  0  0
   -2.7696    1.7843    0.8324 C   0  0  0  0  0  0  0  0  0  0  0  0
   -1.5605    2.4489    1.1599 C   0  0  1  0  0  3  0  0  0  0  0  0
   -1.5875    3.7322    1.7518 C   0  0  0  0  0  0  0  0  0  0  0  0
   -0.3850    4.3615    2.0765 C   0  0  0  0  0  0  0  0  0  0  0  0
    0.8208    3.7029    1.8110 C   0  0  0  0  0  0  0  0  0  0  0  0
    0.7949    2.4322    1.2161 C   0  0  0  0  0  0  0  0  0  0  0  0
    2.0800    1.6776    0.9430 C   0  0  0  0  0  0  0  0  0  0  0  0
    3.4417    3.3167   -0.1310 C   0  0  0  0  0  0  0  0  0  0  0  0
    4.5703    4.1565   -0.0433 C   0  0  0  0  0  0  0  0  0  0  0  0
    4.8848    5.0144   -1.1028 C   0  0  0  0  0  0  0  0  0  0  0  0
    4.0815    5.0457   -2.2568 C   0  0  0  0  0  0  0  0  0  0  0  0
    2.9615    4.2065   -2.3340 C   0  0  0  0  0  0  0  0  0  0  0  0
    2.6266    3.3388   -1.2800 C   0  0  0  0  0  0  0  0  0  0  0  0
   -8.5017    1.1458    0.5258 H   0  0  0  0  0  0  0  0  0  0  0  0
   -6.3325    2.2800    1.0496 H   0  0  0  0  0  0  0  0  0  0  0  0
   -2.5604    4.2040    1.9411 H   0  0  0  0  0  0  0  0  0  0  0  0
   -0.3864    5.3608    2.5364 H   0  0  0  0  0  0  0  0  0  0  0  0
    1.7956    4.1486    2.0480 H   0  0  0  0  0  0  0  0  0  0  0  0
    2.2186    0.9199    1.7434 H   0  0  0  0  0  0  0  0  0  0  0  0
    1.9737    1.1256   -0.0163 H   0  0  0  0  0  0  0  0  0  0  0  0
    5.1873    4.1115    0.8661 H   0  0  0  0  0  0  0  0  0  0  0  0
    5.7697    5.6648   -1.0267 H   0  0  0  0  0  0  0  0  0  0  0  0
    4.3302    5.7207   -3.0890 H   0  0  0  0  0  0  0  0  0  0  0  0
    2.3215    4.2155   -3.2297 H   0  0  0  0  0  0  0  0  0  0  0  0
    1.7391    2.6948   -1.3873 H   0  0  0  0  0  0  0  0  0  0  0  0
    3.2157   -2.5149   -0.9629 O   0  0  0  0  0  0  0  0  0  0  0  0
   -0.3728   -1.8277   -0.8961 N   0  0  0  0  0  2  0  0  0  0  0  0
   -7.5512   -0.6339   -0.2941 C   0  0  0  0  0  0  0  0  0  0  0  0
   -6.3433   -1.2733   -0.5888 C   0  0  0  0  0  0  0  0  0  0  0  0
   -5.1057   -0.6494   -0.3012 C   0  0  0  0  0  0  0  0  0  0  0  0
   -3.8758   -1.2864   -0.5980 C   0  0  0  0  0  0  0  0  0  0  0  0
   -2.7723   -1.7809   -0.8327 C   0  0  0  0  0  0  0  0  0  0  0  0
   -1.5642   -2.4471   -1.1604 C   0  0  1  0  0  3  0  0  0  0  0  0
   -1.5931   -3.7304   -1.7521 C   0  0  0  0  0  0  0  0  0  0  0  0
   -0.3916   -4.3615   -2.0769 C   0  0  0  0  0  0  0  0  0  0  0  0
    0.8152   -3.7046   -1.8118 C   0  0  0  0  0  0  0  0  0  0  0  0
    0.7912   -2.4337   -1.2171 C   0  0  0  0  0  0  0  0  0  0  0  0
    2.0774   -1.6809   -0.9443 C   0  0  0  0  0  0  0  0  0  0  0  0
    3.4361   -3.3211    0.1316 C   0  0  0  0  0  0  0  0  0  0  0  0
    4.5637   -4.1625    0.0451 C   0  0  0  0  0  0  0  0  0  0  0  0
    4.8765   -5.0199    1.1056 C   0  0  0  0  0  0  0  0  0  0  0  0
    4.0724   -5.0492    2.2591 C   0  0  0  0  0  0  0  0  0  0  0  0
    2.9534   -4.2085    2.3350 C   0  0  0  0  0  0  0  0  0  0  0  0
    2.6203   -3.3413    1.2800 C   0  0  0  0  0  0  0  0  0  0  0  0
   -8.5035   -1.1341   -0.5247 H   0  0  0  0  0  0  0  0  0  0  0  0
   -6.3360   -2.2714   -1.0492 H   0  0  0  0  0  0  0  0  0  0  0  0
   -2.5667   -4.2009   -1.9411 H   0  0  0  0  0  0  0  0  0  0  0  0
   -0.3944   -5.3608   -2.5367 H   0  0  0  0  0  0  0  0  0  0  0  0
    1.7894   -4.1516   -2.0489 H   0  0  0  0  0  0  0  0  0  0  0  0
    2.2173   -0.9241   -1.7453 H   0  0  0  0  0  0  0  0  0  0  0  0
    1.9717   -1.1279    0.0145 H   0  0  0  0  0  0  0  0  0  0  0  0
    5.1812   -4.1191   -0.8639 H   0  0  0  0  0  0  0  0  0  0  0  0
    5.7606   -5.6715    1.0306 H   0  0  0  0  0  0  0  0  0  0  0  0
    4.3198   -5.7238    3.0920 H   0  0  0  0  0  0  0  0  0  0  0  0
    2.3130   -4.2160    3.2303 H   0  0  0  0  0  0  0  0  0  0  0  0
    1.7335   -2.6961    1.3863 H   0  0  0  0  0  0  0  0  0  0  0  0
  2  8  1  0  0  0  0
  2 12  1  0  0  0  0
  3 20  1  0  0  0  0
  3  4  1  0  0  0  0
  4 21  1  0  0  0  0
  5  4  2  0  0  0  0
  5  6  1  0  0  0  0
  6  7  3  0  0  0  0
  8  7  1  1  0  0  0
  8  9  1  0  0  0  0
  9 22  1  0  0  0  0
  9 10  2  0  0  0  0
 10 23  1  0  0  0  0
 11 24  1  0  0  0  0
 11 10  1  0  0  0  0
 12 11  2  0  0  0  0
 13  1  1  0  0  0  0
 13 12  1  0  0  0  0
 13 25  1  0  0  0  0
 14 15  1  0  0  0  0
 14  1  1  0  0  0  0
 15 27  1  0  0  0  0
 16 28  1  0  0  0  0
 16 15  2  0  0  0  0
 17 16  1  0  0  0  0
 18 17  2  0  0  0  0
 18 19  1  0  0  0  0
 19 14  2  0  0  0  0
 26 13  1  0  0  0  0
 29 17  1  0  0  0  0
 30 18  1  0  0  0  0
 31 19  1  0  0  0  0
 32 44  1  0  0  0  0
 32 45  1  0  0  0  0
 34  3  2  0  0  0  0
 35 36  2  0  0  0  0
 35 34  1  0  0  0  0
 36  5  1  0  0  0  0
 37 36  1  0  0  0  0
 38 37  3  0  0  0  0
 39 33  1  0  0  0  0
 39 38  1  6  0  0  0
 40 39  1  0  0  0  0
 41 42  1  0  0  0  0
 41 40  2  0  0  0  0
 42 43  2  0  0  0  0
 43 44  1  0  0  0  0
 43 33  1  0  0  0  0
 44 57  1  0  0  0  0
 45 50  1  0  0  0  0
 46 45  2  0  0  0  0
 46 47  1  0  0  0  0
 47 48  2  0  0  0  0
 48 49  1  0  0  0  0
 48 60  1  0  0  0  0
 49 61  1  0  0  0  0
 50 62  1  0  0  0  0
 50 49  2  0  0  0  0
 51 34  1  0  0  0  0
 52 35  1  0  0  0  0
 53 40  1  0  0  0  0
 54 41  1  0  0  0  0
 55 42  1  0  0  0  0
 56 44  1  0  0  0  0
 58 46  1  0  0  0  0
 59 47  1  0  0  0  0
M  END
