1,2
q = 0.0, confidence = 0.998

 35 36  0  0  0  0  0  0  0  0999 V2000
    2.2195   -0.1014    0.1140 N   0  0  0  0  0  2  0  0  0  0  0  0
   -0.4004   -0.6972   -0.4904 N   0  0  0  0  0  0  0  0  0  0  0  0
    3.5051    0.2696    0.0080 C   0  0  0  0  0  3  0  0  0  0  0  0
    3.6901    1.3551   -0.0402 H   0  0  0  0  0  0  0  0  0  0  0  0
    4.5410   -0.6705   -0.0552 C   0  0  0  0  0  0  0  0  0  0  0  0
    5.5855   -0.3380   -0.1368 H   0  0  0  0  0  0  0  0  0  0  0  0
    4.2072   -2.0330   -0.0244 C   0  0  0  0  0  0  0  0  0  0  0  0
    4.9936   -2.8009   -0.0788 H   0  0  0  0  0  0  0  0  0  0  0  0
    2.8586   -2.4089    0.0576 C   0  0  0  0  0  0  0  0  0  0  0  0
    2.5620   -3.4681    0.0602 H   0  0  0  0  0  0  0  0  0  0  0  0
    1.8788   -1.4069    0.1290 C   0  0  0  0  0  0  0  0  0  0  0  0
    0.3951   -1.6914    0.2498 C   0  0  0  0  0  0  0  0  0  0  0  0
    0.1869   -2.7394   -0.0640 H   0  0  0  0  0  0  0  0  0  0  0  0
    0.1187   -1.5835    1.3232 H   0  0  0  0  0  0  0  0  0  0  0  0
   -0.2123   -0.8011   -1.9452 C   0  0  0  0  0  0  0  0  0  0  0  0
   -0.6594    0.0795   -2.4403 H   0  0  0  0  0  0  0  0  0  0  0  0
   -0.6442   -1.7373   -2.3649 H   0  0  0  0  0  0  0  0  0  0  0  0
    0.8696   -0.7747   -2.1764 H   0  0  0  0  0  0  0  0  0  0  0  0
   -1.8244   -0.6533   -0.0371 C   0  0  0  0  0  0  0  0  0  0  0  0
   -1.7465   -0.4925    1.0615 H   0  0  0  0  0  0  0  0  0  0  0  0
   -2.5614    0.5672   -0.6028 C   0  0  0  0  0  0  0  0  0  0  0  0
   -2.6783    0.4667   -1.7042 H   0  0  0  0  0  0  0  0  0  0  0  0
   -1.9627    1.4874   -0.4337 H   0  0  0  0  0  0  0  0  0  0  0  0
   -3.9475    0.6949    0.0407 C   0  0  0  0  0  0  0  0  0  0  0  0
   -3.8187    0.8905    1.1281 H   0  0  0  0  0  0  0  0  0  0  0  0
   -4.4773    1.5759   -0.3762 H   0  0  0  0  0  0  0  0  0  0  0  0
   -4.7755   -0.5801   -0.1643 C   0  0  0  0  0  0  0  0  0  0  0  0
   -4.9943   -0.7022   -1.2493 H   0  0  0  0  0  0  0  0  0  0  0  0
   -5.7584   -0.4924    0.3440 H   0  0  0  0  0  0  0  0  0  0  0  0
   -4.0268   -1.8207    0.3394 C   0  0  0  0  0  0  0  0  0  0  0  0
   -4.6135   -2.7410    0.1373 H   0  0  0  0  0  0  0  0  0  0  0  0
   -3.9163   -1.7557    1.4448 H   0  0  0  0  0  0  0  0  0  0  0  0
   -2.6296   -1.9378   -0.2904 C   0  0  0  0  0  0  0  0  0  0  0  0
   -2.1043   -2.8223    0.1276 H   0  0  0  0  0  0  0  0  0  0  0  0
   -2.7328   -2.1115   -1.3849 H   0  0  0  0  0  0  0  0  0  0  0  0
  1 11  1  0  0  0  0
  2 19  1  0  0  0  0
  2 12  1  0  0  0  0
  3  1  1  0  0  0  0
  4  3  1  0  0  0  0
  5  7  2  0  0  0  0
  5  3  1  0  0  0  0
  6  5  1  0  0  0  0
  7  9  1  0  0  0  0
  8  7  1  0  0  0  0
  9 10  1  0  0  0  0
  9 11  2  0  0  0  0
 11 12  1  0  0  0  0
 12 14  1  0  0  0  0
 13 12  1  0  0  0  0
 15  2  1  0  0  0  0
 16 15  1  0  0  0  0
 17 15  1  0  0  0  0
 18 15  1  0  0  0  0
 19 20  1  0  0  0  0
 21 23  1  0  0  0  0
 21 19  1  0  0  0  0
 21 24  1  0  0  0  0
 22 21  1  0  0  0  0
 24 25  1  0  0  0  0
 26 24  1  0  0  0  0
 27 24  1  0  0  0  0
 27 30  1  0  0  0  0
 27 29  1  0  0  0  0
 28 27  1  0  0  0  0
 30 32  1  0  0  0  0
 31 30  1  0  0  0  0
 33 19  1  0  0  0  0
 33 34  1  0  0  0  0
 33 30  1  0  0  0  0
 35 33  1  0  0  0  0
M  END
