4,5
q = 0.0, confidence = 0.996

 33 35  0  0  0  0  0  0  0  0999 V2000
    6.9976    0.4181   -1.4088 O   0  0  0  0  0  0  0  0  0  0  0  0
    6.5152   -1.5455   -2.4255 O   0  0  0  0  0  0  0  0  0  0  0  0
    7.4963   -1.5803   -2.4124 H   0  0  0  0  0  0  0  0  0  0  0  0
   -3.9980    1.9546    0.2206 N   0  0  0  0  0  2  0  0  0  0  0  0
   -1.3657    1.7866   -0.6819 N   0  0  0  0  0  2  0  0  0  0  0  0
   -5.2948    2.0395    0.5585 C   0  0  0  0  0  3  0  0  0  0  0  0
   -5.7614    1.1191    0.9464 H   0  0  0  0  0  0  0  0  0  0  0  0
   -6.0336    3.2288    0.4515 C   0  0  0  0  0  0  0  0  0  0  0  0
   -7.0904    3.2480    0.7535 H   0  0  0  0  0  0  0  0  0  0  0  0
   -5.3900    4.3789   -0.0294 C   0  0  0  0  0  0  0  0  0  0  0  0
   -5.9349    5.3296   -0.1250 H   0  0  0  0  0  0  0  0  0  0  0  0
   -4.0383    4.2956   -0.3829 C   0  0  0  0  0  0  0  0  0  0  0  0
   -3.4953    5.1734   -0.7642 H   0  0  0  0  0  0  0  0  0  0  0  0
   -3.3676    3.0618   -0.2536 C   0  0  0  0  0  0  0  0  0  0  0  0
   -1.9508    2.9429   -0.6088 C   0  0  0  0  0  3  0  0  0  0  0  0
   -1.4116    3.8887   -0.8186 H   0  0  0  0  0  0  0  0  0  0  0  0
    0.0199    1.6628   -0.8748 C   0  0  0  0  0  0  0  0  0  0  0  0
    0.5065    0.4590   -1.3945 C   0  0  0  0  0  0  0  0  0  0  0  0
   -0.2092   -0.3321   -1.6656 H   0  0  0  0  0  0  0  0  0  0  0  0
    1.8979    0.2425   -1.5721 C   0  0  0  0  0  0  0  0  0  0  0  0
    2.4158   -0.9789   -2.0981 C   0  0  0  0  0  0  0  0  0  0  0  0
    1.7105   -1.7658   -2.4047 H   0  0  0  0  0  0  0  0  0  0  0  0
    3.7809   -1.1802   -2.2112 C   0  0  0  0  0  0  0  0  0  0  0  0
    4.1785   -2.1214   -2.6143 H   0  0  0  0  0  0  0  0  0  0  0  0
    4.6944   -0.1674   -1.7933 C   0  0  0  0  0  0  0  0  0  0  0  0
    4.2170    1.0418   -1.2916 C   0  0  0  0  0  0  0  0  0  0  0  0
    4.9405    1.8054   -0.9675 H   0  0  0  0  0  0  0  0  0  0  0  0
    2.8232    1.2779   -1.1761 C   0  0  0  0  0  0  0  0  0  0  0  0
    2.3035    2.4962   -0.6419 C   0  0  0  0  0  0  0  0  0  0  0  0
    3.0117    3.2737   -0.3181 H   0  0  0  0  0  0  0  0  0  0  0  0
    0.9444    2.6915   -0.4966 C   0  0  0  0  0  0  0  0  0  0  0  0
    0.5753    3.6209   -0.0399 H   0  0  0  0  0  0  0  0  0  0  0  0
    6.1752   -0.3703   -1.8465 C   0  0  0  0  0  0  0  0  0  0  0  0
  2  3  1  0  0  0  0
  2 33  1  0  0  0  0
  4  6  1  0  0  0  0
  5 15  1  0  0  0  0
  6  7  1  0  0  0  0
  8  6  1  0  0  0  0
  8  9  1  0  0  0  0
 10  8  2  0  0  0  0
 11 10  1  0  0  0  0
 12 14  2  0  0  0  0
 12 10  1  0  0  0  0
 13 12  1  0  0  0  0
 14  4  1  0  0  0  0
 15 14  1  0  0  0  0
 16 15  1  0  0  0  0
 17  5  1  0  0  0  0
 17 31  1  0  0  0  0
 18 17  2  0  0  0  0
 19 18  1  0  0  0  0
 20 18  1  0  0  0  0
 20 28  1  0  0  0  0
 21 20  2  0  0  0  0
 22 21  1  0  0  0  0
 23 21  1  0  0  0  0
 23 25  2  0  0  0  0
 24 23  1  0  0  0  0
 25 26  1  0  0  0  0
 26 28  2  0  0  0  0
 26 27  1  0  0  0  0
 28 29  1  0  0  0  0
 29 31  2  0  0  0  0
 29 30  1  0  0  0  0
 31 32  1  0  0  0  0
 33 25  1  0  0  0  0
 33  1  2  0  0  0  0
M  END
