1,3
q = 0.0, confidence = 0.988

 38 39  0  0  0  0  0  0  0  0999 V2000
    1.5007    0.2744   -0.2785 N   0  0  0  0  0  0  0  0  0  0  0  0
    1.6935    0.8891   -1.0833 H   0  0  0  0  0  0  0  0  0  0  0  0
   -1.0736   -0.8918   -0.8899 N   0  0  0  0  0  0  0  0  0  0  0  0
   -1.2920   -1.6024   -0.1745 H   0  0  0  0  0  0  0  0  0  0  0  0
    3.8975    0.0664    0.4361 C   0  0  0  0  0  0  0  0  0  0  0  0
    4.6812    0.8226   -0.4600 C   0  0  0  0  0  0  0  0  0  0  0  0
    4.2874    1.7732   -0.8569 H   0  0  0  0  0  0  0  0  0  0  0  0
    5.9578    0.3859   -0.8414 C   0  0  0  0  0  0  0  0  0  0  0  0
    6.5599    0.9907   -1.5365 H   0  0  0  0  0  0  0  0  0  0  0  0
    6.4715   -0.8167   -0.3281 C   0  0  0  0  0  0  0  0  0  0  0  0
    7.4750   -1.1587   -0.6234 H   0  0  0  0  0  0  0  0  0  0  0  0
    5.7035   -1.5756    0.5683 C   0  0  0  0  0  0  0  0  0  0  0  0
    6.1035   -2.5152    0.9792 H   0  0  0  0  0  0  0  0  0  0  0  0
    4.4250   -1.1359    0.9460 C   0  0  0  0  0  0  0  0  0  0  0  0
    3.8247   -1.7291    1.6543 H   0  0  0  0  0  0  0  0  0  0  0  0
    2.4969    0.5128    0.7915 C   0  0  0  0  0  0  0  0  0  0  0  0
    2.1164    0.0013    1.6996 H   0  0  0  0  0  0  0  0  0  0  0  0
    2.4728    1.6011    1.0044 H   0  0  0  0  0  0  0  0  0  0  0  0
    1.3762   -1.1206   -0.7283 C   0  0  0  0  0  0  0  0  0  0  0  0
    1.2514   -1.7442    0.1834 H   0  0  0  0  0  0  0  0  0  0  0  0
    2.2847   -1.4860   -1.2566 H   0  0  0  0  0  0  0  0  0  0  0  0
    0.1460   -1.2617   -1.6249 C   0  0  0  0  0  0  0  0  0  0  0  0
    0.2334   -0.5694   -2.4901 H   0  0  0  0  0  0  0  0  0  0  0  0
    0.0905   -2.2928   -2.0432 H   0  0  0  0  0  0  0  0  0  0  0  0
   -2.2654   -0.6609   -1.7401 C   0  0  0  0  0  0  0  0  0  0  0  0
   -2.3577   -1.4644   -2.5065 H   0  0  0  0  0  0  0  0  0  0  0  0
   -2.1042    0.3069   -2.2603 H   0  0  0  0  0  0  0  0  0  0  0  0
   -3.5132   -0.6139   -0.8908 C   0  0  0  0  0  0  0  0  0  0  0  0
   -4.3172   -1.7614   -0.7463 C   0  0  0  0  0  0  0  0  0  0  0  0
   -4.0642   -2.6762   -1.3071 H   0  0  0  0  0  0  0  0  0  0  0  0
   -5.4388   -1.7466    0.0967 C   0  0  0  0  0  0  0  0  0  0  0  0
   -6.0619   -2.6483    0.1974 H   0  0  0  0  0  0  0  0  0  0  0  0
   -5.7635   -0.5814    0.8084 C   0  0  0  0  0  0  0  0  0  0  0  0
   -6.6413   -0.5678    1.4723 H   0  0  0  0  0  0  0  0  0  0  0  0
   -4.9673    0.5668    0.6695 C   0  0  0  0  0  0  0  0  0  0  0  0
   -5.2188    1.4834    1.2240 H   0  0  0  0  0  0  0  0  0  0  0  0
   -3.8480    0.5541   -0.1749 C   0  0  0  0  0  0  0  0  0  0  0  0
   -3.2259    1.4572   -0.2919 H   0  0  0  0  0  0  0  0  0  0  0  0
  1 16  1  0  0  0  0
  2  1  1  0  0  0  0
  3  4  1  0  0  0  0
  5 16  1  0  0  0  0
  5 14  1  0  0  0  0
  6  5  2  0  0  0  0
  7  6  1  0  0  0  0
  8  6  1  0  0  0  0
  8 10  2  0  0  0  0
  9  8  1  0  0  0  0
 10 12  1  0  0  0  0
 11 10  1  0  0  0  0
 12 14  2  0  0  0  0
 12 13  1  0  0  0  0
 14 15  1  0  0  0  0
 16 18  1  0  0  0  0
 16 17  1  0  0  0  0
 19  1  1  0  0  0  0
 19 20  1  0  0  0  0
 21 19  1  0  0  0  0
 22  3  1  0  0  0  0
 22 19  1  0  0  0  0
 23 22  1  0  0  0  0
 24 22  1  0  0  0  0
 25 28  1  0  0  0  0
 25  3  1  0  0  0  0
 26 25  1  0  0  0  0
 27 25  1  0  0  0  0
 28 29  2  0  0  0  0
 28 37  1  0  0  0  0
 29 31  1  0  0  0  0
 30 29  1  0  0  0  0
 31 32  1  0  0  0  0
 31 33  2  0  0  0  0
 33 34  1  0  0  0  0
 35 33  1  0  0  0  0
 35 36  1  0  0  0  0
 37 35  2  0  0  0  0
 38 37  1  0  0  0  0
M  END
