1,2
q = 0.0, confidence = 0.99

 34 36  0  0  1  0  0  0  0  0999 V2000
    0.4399   -2.8891   -0.1383 N   0  0  0  0  0  2  0  0  0  0  0  0
    2.2251   -0.9878    0.4754 N   0  0  0  0  0  2  0  0  0  0  0  0
   -0.5247   -3.8255   -0.2587 C   0  0  0  0  0  3  0  0  0  0  0  0
   -1.5593   -3.4557   -0.1876 H   0  0  0  0  0  0  0  0  0  0  0  0
   -0.2303   -5.1747   -0.4759 C   0  0  0  0  0  0  0  0  0  0  0  0
   -1.0464   -5.9051   -0.5660 H   0  0  0  0  0  0  0  0  0  0  0  0
    1.1147   -5.5625   -0.5771 C   0  0  0  0  0  0  0  0  0  0  0  0
    1.3849   -6.6152   -0.7454 H   0  0  0  0  0  0  0  0  0  0  0  0
    2.1130   -4.5903   -0.4527 C   0  0  0  0  0  0  0  0  0  0  0  0
    3.1716   -4.8765   -0.5078 H   0  0  0  0  0  0  0  0  0  0  0  0
    1.7504   -3.2487   -0.2307 C   0  0  0  0  0  0  0  0  0  0  0  0
    2.7302   -2.1525   -0.0426 C   0  0  1  0  0  3  0  0  0  0  0  0
    4.0792   -2.2940   -0.3752 C   0  0  0  0  0  0  0  0  0  0  0  0
    4.4472   -3.2313   -0.8141 H   0  0  0  0  0  0  0  0  0  0  0  0
    4.9714   -1.2125   -0.1764 C   0  0  0  0  0  0  0  0  0  0  0  0
    4.4534   -0.0546    0.4393 C   0  0  0  0  0  0  0  0  0  0  0  0
    5.0952    0.7934    0.7085 H   0  0  0  0  0  0  0  0  0  0  0  0
    3.0917    0.0141    0.7830 C   0  0  0  0  0  0  0  0  0  0  0  0
    2.5978    1.1640    1.5795 C   0  0  0  0  0  0  0  0  0  0  0  0
    2.0275    0.9203    2.8469 C   0  0  0  0  0  0  0  0  0  0  0  0
    1.9197   -0.1149    3.2022 H   0  0  0  0  0  0  0  0  0  0  0  0
    1.6235    1.9916    3.6537 C   0  0  0  0  0  0  0  0  0  0  0  0
    1.1939    1.7927    4.6470 H   0  0  0  0  0  0  0  0  0  0  0  0
    1.7674    3.3113    3.1971 C   0  0  0  0  0  0  0  0  0  0  0  0
    1.4406    4.1519    3.8271 H   0  0  0  0  0  0  0  0  0  0  0  0
    2.3368    3.5588    1.9379 C   0  0  0  0  0  0  0  0  0  0  0  0
    2.4493    4.5921    1.5781 H   0  0  0  0  0  0  0  0  0  0  0  0
    2.7649    2.4916    1.1370 C   0  0  0  0  0  0  0  0  0  0  0  0
    3.2047    2.6832    0.1462 H   0  0  0  0  0  0  0  0  0  0  0  0
    6.6309   -1.4416   -0.6782 S   0  0  0  0  0  0  0  0  0  0  0  0
    7.4276    0.1275   -0.2398 C   0  0  0  0  0  0  0  0  0  0  0  0
    6.9758    0.9781   -0.7858 H   0  0  0  0  0  0  0  0  0  0  0  0
    8.4809    0.0160   -0.5590 H   0  0  0  0  0  0  0  0  0  0  0  0
    7.4021    0.3031    0.8532 H   0  0  0  0  0  0  0  0  0  0  0  0
  2 18  1  0  0  0  0
  3  4  1  0  0  0  0
  3  1  1  0  0  0  0
  5  3  1  0  0  0  0
  6  5  1  0  0  0  0
  7  5  2  0  0  0  0
  7  9  1  0  0  0  0
  8  7  1  0  0  0  0
  9 11  2  0  0  0  0
 10  9  1  0  0  0  0
 11  1  1  0  0  0  0
 12 11  1  6  0  0  0
 12  2  1  0  0  0  0
 13 15  2  0  0  0  0
 13 12  1  0  0  0  0
 14 13  1  0  0  0  0
 15 16  1  0  0  0  0
 16 17  1  0  0  0  0
 16 18  2  0  0  0  0
 18 19  1  0  0  0  0
 19 20  1  0  0  0  0
 20 21  1  0  0  0  0
 20 22  2  0  0  0  0
 22 23  1  0  0  0  0
 24 22  1  0  0  0  0
 24 25  1  0  0  0  0
 26 24  2  0  0  0  0
 27 26  1  0  0  0  0
 28 19  2  0  0  0  0
 28 26  1  0  0  0  0
 29 28  1  0  0  0  0
 30 31  1  0  0  0  0
 30 15  1  0  0  0  0
 31 34  1  0  0  0  0
 32 31  1  0  0  0  0
 33 31  1  0  0  0  0
M  END
