1,13
q = 0.0, confidence = 1.0

 27 27  0  0  0  0  0  0  0  0999 V2000
    0.5826    1.7367   -0.2857 N   0  0  0  0  0  2  0  0  0  0  0  0
    1.3228    2.7504    0.2081 C   0  0  0  0  0  3  0  0  0  0  0  0
    2.3037    2.4782    0.6234 H   0  0  0  0  0  0  0  0  0  0  0  0
    0.8746    4.0762    0.2072 C   0  0  0  0  0  0  0  0  0  0  0  0
    1.5187    4.8632    0.6236 H   0  0  0  0  0  0  0  0  0  0  0  0
   -0.3928    4.3722   -0.3210 C   0  0  0  0  0  0  0  0  0  0  0  0
   -0.7708    5.4048   -0.3297 H   0  0  0  0  0  0  0  0  0  0  0  0
   -1.1659    3.3268   -0.8348 C   0  0  0  0  0  0  0  0  0  0  0  0
   -2.1656    3.5035   -1.2569 H   0  0  0  0  0  0  0  0  0  0  0  0
   -0.6549    2.0165   -0.8032 C   0  0  0  0  0  0  0  0  0  0  0  0
   -1.3781    0.8694   -1.3193 C   0  0  0  0  0  3  0  0  0  0  0  0
   -2.3725    0.9954   -1.7855 H   0  0  0  0  0  0  0  0  0  0  0  0
   -0.8161   -0.3049   -1.2343 N   0  0  0  0  0  2  0  0  0  0  0  0
   -1.5745   -1.4545   -1.7062 C   0  0  0  0  0  0  0  0  0  0  0  0
   -0.8793   -2.1667   -2.1922 H   0  0  0  0  0  0  0  0  0  0  0  0
   -2.3490   -1.1285   -2.4288 H   0  0  0  0  0  0  0  0  0  0  0  0
   -2.2875   -2.1703   -0.5249 C   0  0  0  0  0  0  0  0  0  0  0  0
   -3.0082   -2.8825   -0.9780 H   0  0  0  0  0  0  0  0  0  0  0  0
   -1.5551   -2.7449    0.0723 H   0  0  0  0  0  0  0  0  0  0  0  0
   -2.9700   -1.2667    0.3679 N   0  0  0  0  0  0  0  0  0  0  0  0
   -2.4297   -0.9848    1.2026 H   0  0  0  0  0  0  0  0  0  0  0  0
   -4.0073   -0.4755   -0.0516 C   0  0  0  0  0  0  0  0  0  0  0  0
   -4.5233    0.4960    1.0000 C   0  0  0  0  0  0  0  0  0  0  0  0
   -3.7032    0.9026    1.6258 H   0  0  0  0  0  0  0  0  0  0  0  0
   -5.2364   -0.0229    1.6729 H   0  0  0  0  0  0  0  0  0  0  0  0
   -5.0637    1.3166    0.4948 H   0  0  0  0  0  0  0  0  0  0  0  0
   -4.4874   -0.5585   -1.1872 O   0  0  0  0  0  0  0  0  0  0  0  0
  1  2  1  0  0  0  0
  2  3  1  0  0  0  0
  4  2  1  0  0  0  0
  4  5  1  0  0  0  0
  6  4  2  0  0  0  0
  7  6  1  0  0  0  0
  8 10  2  0  0  0  0
  8  6  1  0  0  0  0
  9  8  1  0  0  0  0
 10  1  1  0  0  0  0
 11 13  1  0  0  0  0
 11 10  1  0  0  0  0
 12 11  1  0  0  0  0
 14 13  1  0  0  0  0
 14 17  1  0  0  0  0
 15 14  1  0  0  0  0
 16 14  1  0  0  0  0
 17 19  1  0  0  0  0
 17 20  1  0  0  0  0
 18 17  1  0  0  0  0
 20 21  1  0  0  0  0
 22 20  1  0  0  0  0
 22 23  1  0  0  0  0
 23 24  1  0  0  0  0
 23 25  1  0  0  0  0
 26 23  1  0  0  0  0
 27 22  2  0  0  0  0
M  END
