1,3
q = -2.0, confidence = 0.838

 12 13  0  0  0  0  0  0  0  0999 V2000
    1.1974    0.4059    1.5261 N   0  0  0  0  0  0  0  0  0  0  0  0
    1.3940    1.7316    1.7840 N   0  0  0  0  0  0  0  0  0  0  0  0
    0.8097   -2.3210    0.3672 N   0  0  0  0  0  0  0  0  0  0  0  0
    2.5797    1.8820    2.3236 N   0  0  0  0  0  0  0  0  0  0  0  0
    2.6041   -1.5560    1.8382 N   0  0  0  0  0  0  0  0  0  0  0  0
    2.5449   -3.6648    0.7093 N   0  0  0  0  0  0  0  0  0  0  0  0
    1.6833   -4.2398   -0.1611 N   0  0  0  0  0  0  0  0  0  0  0  0
    3.2100    0.6903    2.4256 N   0  0  0  0  0  0  0  0  0  0  0  0
    0.6596   -3.4535   -0.3825 N   0  0  0  0  0  0  0  0  0  0  0  0
    2.3375   -0.2028    1.9237 C   0  0  0  0  0  3  0  0  0  0  0  0
    1.9897   -2.4796    1.0109 C   0  0  0  0  0  3  0  0  0  0  0  0
    3.5242   -1.8367    2.1802 H   0  0  0  0  0  0  0  0  0  0  0  0
  1  2  2  0  0  0  0
  1 10  1  0  0  0  0
  2  4  1  0  0  0  0
  3 11  1  0  0  0  0
  4  8  2  0  0  0  0
  5 10  1  0  0  0  0
  5 12  1  0  0  0  0
  6 11  1  0  0  0  0
  7  6  2  0  0  0  0
  9  7  1  0  0  0  0
  9  3  2  0  0  0  0
 10  8  1  0  0  0  0
 11  5  1  0  0  0  0
M  END
