1,2
q = 0.0, confidence = 0.98

 37 40  0  0  1  0  0  0  0  0999 V2000
    1.2308   -2.1496   -0.3668 N   0  0  0  0  0  2  0  0  0  0  0  0
   -0.3253    0.0293   -0.3958 N   0  0  0  0  0  2  0  0  0  0  0  0
   -0.8713    3.4740    0.2796 N   0  0  0  0  0  0  0  0  0  0  0  0
    0.2243   -4.7304   -0.8319 N   0  0  0  0  0  0  0  0  0  0  0  0
    1.1309    3.9256   -1.6498 N   0  0  0  0  0  0  0  0  0  0  0  0
    2.0548   -3.2126   -0.4906 C   0  0  0  0  0  3  0  0  0  0  0  0
    3.1327   -3.0206   -0.3907 H   0  0  0  0  0  0  0  0  0  0  0  0
    1.5438   -4.4938   -0.7157 C   0  0  0  0  0  0  0  0  0  0  0  0
    2.2268   -5.3552   -0.8018 H   0  0  0  0  0  0  0  0  0  0  0  0
   -0.5831   -3.6742   -0.7177 C   0  0  0  0  0  0  0  0  0  0  0  0
   -1.6632   -3.8633   -0.8315 H   0  0  0  0  0  0  0  0  0  0  0  0
   -0.1114   -2.3651   -0.4747 C   0  0  0  0  0  0  0  0  0  0  0  0
   -0.9735   -1.1757   -0.3820 C   0  0  2  0  0  3  0  0  0  0  0  0
   -2.3691   -1.2711   -0.2899 C   0  0  0  0  0  0  0  0  0  0  0  0
   -2.8421   -2.2598   -0.2398 H   0  0  0  0  0  0  0  0  0  0  0  0
   -3.1576   -0.1113   -0.1674 C   0  0  0  0  0  0  0  0  0  0  0  0
   -2.4737    1.1184   -0.2161 C   0  0  0  0  0  0  0  0  0  0  0  0
   -3.0064    2.0767   -0.1636 H   0  0  0  0  0  0  0  0  0  0  0  0
   -1.0799    1.1585   -0.3661 C   0  0  0  0  0  0  0  0  0  0  0  0
   -0.4298    2.4860   -0.5206 C   0  0  0  0  0  0  0  0  0  0  0  0
    0.5391    2.7323   -1.5223 C   0  0  0  0  0  0  0  0  0  0  0  0
    0.8194    1.9474   -2.2430 H   0  0  0  0  0  0  0  0  0  0  0  0
    0.7543    4.8791   -0.7853 C   0  0  0  0  0  0  0  0  0  0  0  0
    1.2668    5.8549   -0.8509 H   0  0  0  0  0  0  0  0  0  0  0  0
   -0.2714    4.6639    0.1530 C   0  0  0  0  0  0  0  0  0  0  0  0
   -0.6174    5.4774    0.8143 H   0  0  0  0  0  0  0  0  0  0  0  0
   -4.6265   -0.1804   -0.0012 C   0  0  0  0  0  0  0  0  0  0  0  0
   -5.3766   -1.2261   -0.5860 C   0  0  0  0  0  0  0  0  0  0  0  0
   -4.8694   -1.9841   -1.2018 H   0  0  0  0  0  0  0  0  0  0  0  0
   -6.7664   -1.2869   -0.4239 C   0  0  0  0  0  0  0  0  0  0  0  0
   -7.3356   -2.1015   -0.8964 H   0  0  0  0  0  0  0  0  0  0  0  0
   -7.4320   -0.3078    0.3310 C   0  0  0  0  0  0  0  0  0  0  0  0
   -8.5235   -0.3576    0.4608 H   0  0  0  0  0  0  0  0  0  0  0  0
   -6.6984    0.7349    0.9196 C   0  0  0  0  0  0  0  0  0  0  0  0
   -7.2116    1.5001    1.5210 H   0  0  0  0  0  0  0  0  0  0  0  0
   -5.3095    0.8015    0.7525 C   0  0  0  0  0  0  0  0  0  0  0  0
   -4.7403    1.6072    1.2396 H   0  0  0  0  0  0  0  0  0  0  0  0
  2 13  1  0  0  0  0
  2 19  1  0  0  0  0
  4 10  1  0  0  0  0
  4  8  2  0  0  0  0
  5 21  2  0  0  0  0
  5 23  1  0  0  0  0
  6  7  1  0  0  0  0
  6  1  1  0  0  0  0
  8  6  1  0  0  0  0
  9  8  1  0  0  0  0
 10 12  2  0  0  0  0
 11 10  1  0  0  0  0
 12  1  1  0  0  0  0
 13 12  1  6  0  0  0
 13 14  1  0  0  0  0
 14 15  1  0  0  0  0
 14 16  2  0  0  0  0
 16 27  1  0  0  0  0
 17 16  1  0  0  0  0
 17 18  1  0  0  0  0
 19 17  2  0  0  0  0
 20 19  1  0  0  0  0
 20  3  2  0  0  0  0
 21 20  1  0  0  0  0
 22 21  1  0  0  0  0
 23 25  2  0  0  0  0
 24 23  1  0  0  0  0
 25  3  1  0  0  0  0
 25 26  1  0  0  0  0
 27 36  1  0  0  0  0
 28 30  1  0  0  0  0
 28 27  2  0  0  0  0
 29 28  1  0  0  0  0
 30 32  2  0  0  0  0
 31 30  1  0  0  0  0
 32 33  1  0  0  0  0
 32 34  1  0  0  0  0
 34 35  1  0  0  0  0
 36 34  2  0  0  0  0
 36 37  1  0  0  0  0
M  END
