1,2
q = 0.0, confidence = 0.964

 30 31  0  0  1  0  0  0  0  0999 V2000
   -0.7687    1.3287   -0.0679 N   0  0  0  0  0  2  0  0  0  0  0  0
   -0.7672   -1.3296   -0.0676 N   0  0  0  0  0  2  0  0  0  0  0  0
   -0.8635    2.6711   -0.0961 C   0  0  0  0  0  3  0  0  0  0  0  0
   -1.8780    3.0919   -0.1164 H   0  0  0  0  0  0  0  0  0  0  0  0
    0.2617    3.5009   -0.0979 C   0  0  0  0  0  0  0  0  0  0  0  0
    0.1584    4.5952   -0.1240 H   0  0  0  0  0  0  0  0  0  0  0  0
    1.5345    2.9089   -0.0689 C   0  0  0  0  0  0  0  0  0  0  0  0
    1.6324    1.5104   -0.0511 C   0  0  0  0  0  0  0  0  0  0  0  0
    2.6185    1.0282   -0.0403 H   0  0  0  0  0  0  0  0  0  0  0  0
    0.4595    0.7381   -0.0537 C   0  0  0  0  0  0  0  0  0  0  0  0
    0.4603   -0.7376   -0.0536 C   0  0  2  0  0  3  0  0  0  0  0  0
    1.6341   -1.5086   -0.0509 C   0  0  0  0  0  0  0  0  0  0  0  0
    2.6196   -1.0252   -0.0401 H   0  0  0  0  0  0  0  0  0  0  0  0
    1.5378   -2.9072   -0.0685 C   0  0  0  0  0  0  0  0  0  0  0  0
    0.2656   -3.5006   -0.0973 C   0  0  0  0  0  0  0  0  0  0  0  0
    0.1636   -4.5951   -0.1231 H   0  0  0  0  0  0  0  0  0  0  0  0
   -0.8605   -2.6721   -0.0956 C   0  0  0  0  0  0  0  0  0  0  0  0
   -1.8745   -3.0940   -0.1157 H   0  0  0  0  0  0  0  0  0  0  0  0
    2.9917    3.9928   -0.0174 P   0  0  0  0  0  0  0  0  0  0  0  0
    2.6766    5.4536   -0.1072 O   0  0  0  0  0  0  0  0  0  0  0  0
    3.8185    3.5495    1.3325 O   0  0  0  0  0  0  0  0  0  0  0  0
    3.8965    3.2855   -1.1753 O   0  0  0  0  0  0  0  0  0  0  0  0
    2.9962   -3.9894   -0.0171 P   0  0  0  0  0  0  0  0  0  0  0  0
    2.6827   -5.4507   -0.1046 O   0  0  0  0  0  0  0  0  0  0  0  0
    3.8989   -3.2829   -1.1771 O   0  0  0  0  0  0  0  0  0  0  0  0
    3.8237   -3.5433    1.3314 O   0  0  0  0  0  0  0  0  0  0  0  0
    3.6733    4.2181    2.0317 H   0  0  0  0  0  0  0  0  0  0  0  0
    4.7452    3.7582   -1.2958 H   0  0  0  0  0  0  0  0  0  0  0  0
    4.7470   -3.7562   -1.2993 H   0  0  0  0  0  0  0  0  0  0  0  0
    3.6810   -4.2118    2.0312 H   0  0  0  0  0  0  0  0  0  0  0  0
  1 10  1  0  0  0  0
  2 11  1  0  0  0  0
  3  1  1  0  0  0  0
  4  3  1  0  0  0  0
  5  3  1  0  0  0  0
  5  7  2  0  0  0  0
  6  5  1  0  0  0  0
  7  8  1  0  0  0  0
  7 19  1  0  0  0  0
  8  9  1  0  0  0  0
 10  8  2  0  0  0  0
 11 10  1  6  0  0  0
 11 12  1  0  0  0  0
 12 13  1  0  0  0  0
 14 12  2  0  0  0  0
 14 23  1  0  0  0  0
 15 17  2  0  0  0  0
 15 14  1  0  0  0  0
 16 15  1  0  0  0  0
 17  2  1  0  0  0  0
 18 17  1  0  0  0  0
 19 21  1  0  0  0  0
 20 19  2  0  0  0  0
 21 27  1  0  0  0  0
 22 19  1  0  0  0  0
 23 26  1  0  0  0  0
 24 23  2  0  0  0  0
 25 23  1  0  0  0  0
 26 30  1  0  0  0  0
 28 22  1  0  0  0  0
 29 25  1  0  0  0  0
M  END
