1,2
q = -1.0, confidence = 0.0

 29 31  0  0  1  0  0  0  0  0999 V2000
   -0.5243    1.3704   -0.1244 N   0  0  0  0  0  2  0  0  0  0  0  0
   -0.4739   -1.2106   -0.5362 N   0  0  0  0  0  2  0  0  0  0  0  0
   -0.0109   -3.0437    0.9229 O   0  0  0  0  0  0  0  0  0  0  0  0
    2.4765   -1.1198    0.6635 O   0  0  0  0  0  0  0  0  0  0  0  0
   -0.6501    2.6525    0.2976 C   0  0  0  0  0  3  0  0  0  0  0  0
   -1.6428    2.9523    0.6608 H   0  0  0  0  0  0  0  0  0  0  0  0
    0.4157    3.5527    0.2805 C   0  0  0  0  0  0  0  0  0  0  0  0
    0.2632    4.5789    0.6425 H   0  0  0  0  0  0  0  0  0  0  0  0
    1.6595    3.1185   -0.2018 C   0  0  0  0  0  0  0  0  0  0  0  0
    2.5230    3.7998   -0.2249 H   0  0  0  0  0  0  0  0  0  0  0  0
    1.7884    1.8001   -0.6510 C   0  0  0  0  0  0  0  0  0  0  0  0
    2.7467    1.4213   -1.0329 H   0  0  0  0  0  0  0  0  0  0  0  0
    0.6855    0.9350   -0.5906 C   0  0  0  0  0  0  0  0  0  0  0  0
    0.6996   -0.4915   -1.0593 C   0  0  1  0  0  0  0  0  0  0  0  0
    0.7786   -0.4995   -2.1730 H   0  0  0  0  0  0  0  0  0  0  0  0
    1.6265   -1.5542   -0.3640 C   0  0  2  0  0  0  0  0  0  0  0  0
    2.1504   -2.2224   -1.0818 H   0  0  0  0  0  0  0  0  0  0  0  0
    0.2751   -2.1374    0.1719 C   0  0  0  0  0  0  0  0  0  0  0  0
    3.7557   -0.7375    0.3605 C   0  0  0  0  0  0  0  0  0  0  0  0
    4.5643   -0.3817    1.4598 C   0  0  0  0  0  0  0  0  0  0  0  0
    4.1305   -0.4508    2.4676 H   0  0  0  0  0  0  0  0  0  0  0  0
    5.8805    0.0412    1.2502 C   0  0  0  0  0  0  0  0  0  0  0  0
    6.5031    0.3139    2.1160 H   0  0  0  0  0  0  0  0  0  0  0  0
    6.4114    0.1157   -0.0508 C   0  0  0  0  0  0  0  0  0  0  0  0
    7.4476    0.4471   -0.2111 H   0  0  0  0  0  0  0  0  0  0  0  0
    5.6049   -0.2404   -1.1399 C   0  0  0  0  0  0  0  0  0  0  0  0
    6.0059   -0.1895   -2.1638 H   0  0  0  0  0  0  0  0  0  0  0  0
    4.2779   -0.6646   -0.9472 C   0  0  0  0  0  0  0  0  0  0  0  0
    3.6620   -0.9336   -1.8168 H   0  0  0  0  0  0  0  0  0  0  0  0
  1  5  1  0  0  0  0
  2 18  1  0  0  0  0
  5  6  1  0  0  0  0
  7  5  1  0  0  0  0
  7  8  1  0  0  0  0
  9  7  2  0  0  0  0
 10  9  1  0  0  0  0
 11 13  2  0  0  0  0
 11  9  1  0  0  0  0
 12 11  1  0  0  0  0
 13  1  1  0  0  0  0
 14 15  1  6  0  0  0
 14 13  1  0  0  0  0
 14  2  1  0  0  0  0
 14 16  1  0  0  0  0
 16 17  1  6  0  0  0
 16 18  1  0  0  0  0
 16  4  1  0  0  0  0
 18  3  2  0  0  0  0
 19  4  1  0  0  0  0
 19 20  1  0  0  0  0
 20 21  1  0  0  0  0
 22 20  2  0  0  0  0
 22 23  1  0  0  0  0
 24 22  1  0  0  0  0
 25 24  1  0  0  0  0
 26 28  1  0  0  0  0
 26 24  2  0  0  0  0
 27 26  1  0  0  0  0
 28 19  2  0  0  0  0
 29 28  1  0  0  0  0
M  END
