1,18
q = 0.0, confidence = 0.998

 46 48  0  0  0  0  0  0  0  0999 V2000
    0.0783    1.4972   -0.0289 N   0  0  0  0  0  2  0  0  0  0  0  0
   -0.6443    2.5927    0.2902 C   0  0  0  0  0  0  0  0  0  0  0  0
    0.0252    3.8158    0.5804 C   0  0  0  0  0  0  0  0  0  0  0  0
   -0.5901    4.7000    0.7993 H   0  0  0  0  0  0  0  0  0  0  0  0
    1.4084    3.8939    0.5944 C   0  0  0  0  0  0  0  0  0  0  0  0
    1.9201    4.8457    0.8032 H   0  0  0  0  0  0  0  0  0  0  0  0
    2.1704    2.7126    0.3974 C   0  0  0  0  0  0  0  0  0  0  0  0
    3.5987    2.6442    0.5303 C   0  0  0  0  0  0  0  0  0  0  0  0
    4.1538    3.5768    0.7119 H   0  0  0  0  0  0  0  0  0  0  0  0
    4.2559    1.4364    0.4769 C   0  0  0  0  0  0  0  0  0  0  0  0
    5.3463    1.3847    0.6154 H   0  0  0  0  0  0  0  0  0  0  0  0
    3.5316    0.2106    0.2874 C   0  0  0  0  0  0  0  0  0  0  0  0
    4.1155   -1.0796    0.3799 C   0  0  0  0  0  0  0  0  0  0  0  0
    5.1997   -1.1793    0.5413 H   0  0  0  0  0  0  0  0  0  0  0  0
    3.2957   -2.1947    0.3238 C   0  0  0  0  0  0  0  0  0  0  0  0
    3.7097   -3.2031    0.4652 H   0  0  0  0  0  0  0  0  0  0  0  0
    1.8957   -2.0772    0.0850 C   0  0  0  0  0  0  0  0  0  0  0  0
    1.3587   -0.8588   -0.1427 N   0  0  0  0  0  2  0  0  0  0  0  0
    2.1305    0.2633    0.0416 C   0  0  0  0  0  0  0  0  0  0  0  0
    1.4441    1.5249    0.1003 C   0  0  0  0  0  0  0  0  0  0  0  0
   -2.1353    2.4941    0.3661 C   0  0  0  0  0  0  0  0  0  0  0  0
   -2.5044    2.2946   -0.6665 H   0  0  0  0  0  0  0  0  0  0  0  0
   -2.5454    3.4677    0.7017 H   0  0  0  0  0  0  0  0  0  0  0  0
   -2.6328    1.3462    1.2629 C   0  0  0  0  0  0  0  0  0  0  0  0
   -2.3718    1.5535    2.3252 H   0  0  0  0  0  0  0  0  0  0  0  0
   -2.0886    0.4185    0.9808 H   0  0  0  0  0  0  0  0  0  0  0  0
   -4.1329    1.0881    1.1166 C   0  0  0  0  0  0  0  0  0  0  0  0
   -4.7018    2.0084    1.3784 H   0  0  0  0  0  0  0  0  0  0  0  0
   -4.3390    0.8848    0.0436 H   0  0  0  0  0  0  0  0  0  0  0  0
   -4.6148   -0.0872    1.9668 C   0  0  0  0  0  0  0  0  0  0  0  0
   -5.7035   -0.2596    1.8491 H   0  0  0  0  0  0  0  0  0  0  0  0
   -4.4173    0.0806    3.0470 H   0  0  0  0  0  0  0  0  0  0  0  0
   -4.0958   -1.0241    1.6755 H   0  0  0  0  0  0  0  0  0  0  0  0
    1.0167   -3.2871    0.1853 C   0  0  0  0  0  0  0  0  0  0  0  0
    0.2506   -3.2422   -0.6167 H   0  0  0  0  0  0  0  0  0  0  0  0
    1.6413   -4.1855    0.0107 H   0  0  0  0  0  0  0  0  0  0  0  0
    0.3256   -3.4156    1.5649 C   0  0  0  0  0  0  0  0  0  0  0  0
    1.0924   -3.4279    2.3731 H   0  0  0  0  0  0  0  0  0  0  0  0
   -0.1565   -4.4172    1.5905 H   0  0  0  0  0  0  0  0  0  0  0  0
   -0.7303   -2.3488    1.8716 C   0  0  0  0  0  0  0  0  0  0  0  0
   -0.2577   -1.3432    1.8906 H   0  0  0  0  0  0  0  0  0  0  0  0
   -1.4600   -2.3118    1.0331 H   0  0  0  0  0  0  0  0  0  0  0  0
   -1.4590   -2.5910    3.1936 C   0  0  0  0  0  0  0  0  0  0  0  0
   -2.2171   -1.8052    3.3851 H   0  0  0  0  0  0  0  0  0  0  0  0
   -0.7547   -2.5958    4.0522 H   0  0  0  0  0  0  0  0  0  0  0  0
   -1.9852   -3.5686    3.1931 H   0  0  0  0  0  0  0  0  0  0  0  0
  1 20  1  0  0  0  0
  1  2  1  0  0  0  0
  2 21  1  0  0  0  0
  2  3  2  0  0  0  0
  3  5  1  0  0  0  0
  3  4  1  0  0  0  0
  5  6  1  0  0  0  0
  7  8  1  0  0  0  0
  7  5  2  0  0  0  0
  8  9  1  0  0  0  0
 10  8  2  0  0  0  0
 10 11  1  0  0  0  0
 12 13  2  0  0  0  0
 12 10  1  0  0  0  0
 13 14  1  0  0  0  0
 15 13  1  0  0  0  0
 15 16  1  0  0  0  0
 17 34  1  0  0  0  0
 17 15  2  0  0  0  0
 18 19  1  0  0  0  0
 18 17  1  0  0  0  0
 19 20  2  0  0  0  0
 19 12  1  0  0  0  0
 20  7  1  0  0  0  0
 21 23  1  0  0  0  0
 21 24  1  0  0  0  0
 22 21  1  0  0  0  0
 24 25  1  0  0  0  0
 26 24  1  0  0  0  0
 27 24  1  0  0  0  0
 27 28  1  0  0  0  0
 27 30  1  0  0  0  0
 29 27  1  0  0  0  0
 30 32  1  0  0  0  0
 31 30  1  0  0  0  0
 33 30  1  0  0  0  0
 34 37  1  0  0  0  0
 35 34  1  0  0  0  0
 36 34  1  0  0  0  0
 37 39  1  0  0  0  0
 37 40  1  0  0  0  0
 37 38  1  0  0  0  0
 40 41  1  0  0  0  0
 40 43  1  0  0  0  0
 42 40  1  0  0  0  0
 43 44  1  0  0  0  0
 43 45  1  0  0  0  0
 46 43  1  0  0  0  0
M  END
