1,18
q = 0.0, confidence = 0.994

 46 48  0  0  1  0  0  0  0  0999 V2000
    1.3396    0.4373   -0.1335 N   0  0  0  0  0  2  0  0  0  0  0  0
    2.6592    0.4211    0.1406 C   0  0  0  0  0  0  0  0  0  0  0  0
    3.4263    1.6081   -0.0353 C   0  0  0  0  0  0  0  0  0  0  0  0
    4.5064    1.5622    0.1617 H   0  0  0  0  0  0  0  0  0  0  0  0
    2.8364    2.7966   -0.4348 C   0  0  0  0  0  0  0  0  0  0  0  0
    3.4387    3.7055   -0.5858 H   0  0  0  0  0  0  0  0  0  0  0  0
    1.4265    2.8506   -0.5940 C   0  0  0  0  0  0  0  0  0  0  0  0
    0.6880    4.0510   -0.8720 C   0  0  0  0  0  0  0  0  0  0  0  0
    1.2477    4.9810   -1.0526 H   0  0  0  0  0  0  0  0  0  0  0  0
   -0.6887    4.0509   -0.8720 C   0  0  0  0  0  0  0  0  0  0  0  0
   -1.2485    4.9808   -1.0527 H   0  0  0  0  0  0  0  0  0  0  0  0
   -1.4270    2.8504   -0.5940 C   0  0  0  0  0  0  0  0  0  0  0  0
   -2.8370    2.7962   -0.4349 C   0  0  0  0  0  0  0  0  0  0  0  0
   -3.4393    3.7050   -0.5858 H   0  0  0  0  0  0  0  0  0  0  0  0
   -3.4267    1.6076   -0.0354 C   0  0  0  0  0  0  0  0  0  0  0  0
   -4.5068    1.5615    0.1616 H   0  0  0  0  0  0  0  0  0  0  0  0
   -2.6594    0.4208    0.1406 C   0  0  0  0  0  0  0  0  0  0  0  0
   -1.3397    0.4371   -0.1336 N   0  0  0  0  0  2  0  0  0  0  0  0
   -0.7182    1.6304   -0.4152 C   0  0  0  0  0  0  0  0  0  0  0  0
    0.7178    1.6305   -0.4152 C   0  0  0  0  0  0  0  0  0  0  0  0
    3.2823   -0.8071    0.7606 C   0  0  1  0  0  0  0  0  0  0  0  0
    2.5523   -1.6297    0.6298 H   0  0  0  0  0  0  0  0  0  0  0  0
    4.5813   -1.2359    0.0700 C   0  0  0  0  0  0  0  0  0  0  0  0
    4.3921   -1.4525   -0.9988 H   0  0  0  0  0  0  0  0  0  0  0  0
    4.9627   -2.1644    0.5396 H   0  0  0  0  0  0  0  0  0  0  0  0
    5.3836   -0.4725    0.1503 H   0  0  0  0  0  0  0  0  0  0  0  0
    3.4737   -0.5644    2.2790 C   0  0  0  0  0  0  0  0  0  0  0  0
    3.9637   -1.4736    2.6894 H   0  0  0  0  0  0  0  0  0  0  0  0
    4.1966    0.2677    2.4389 H   0  0  0  0  0  0  0  0  0  0  0  0
    2.1745   -0.2916    3.0378 C   0  0  0  0  0  0  0  0  0  0  0  0
    2.3552   -0.2111    4.1283 H   0  0  0  0  0  0  0  0  0  0  0  0
    1.4385   -1.1053    2.8720 H   0  0  0  0  0  0  0  0  0  0  0  0
    1.6922    0.6528    2.7111 H   0  0  0  0  0  0  0  0  0  0  0  0
   -3.2820   -0.8074    0.7610 C   0  0  2  0  0  0  0  0  0  0  0  0
   -2.5519   -1.6299    0.6300 H   0  0  0  0  0  0  0  0  0  0  0  0
   -4.5813   -1.2367    0.0712 C   0  0  0  0  0  0  0  0  0  0  0  0
   -4.3925   -1.4537   -0.9976 H   0  0  0  0  0  0  0  0  0  0  0  0
   -5.3837   -0.4733    0.1515 H   0  0  0  0  0  0  0  0  0  0  0  0
   -4.9625   -2.1649    0.5415 H   0  0  0  0  0  0  0  0  0  0  0  0
   -3.4727   -0.5646    2.2795 C   0  0  0  0  0  0  0  0  0  0  0  0
   -4.1960    0.2671    2.4396 H   0  0  0  0  0  0  0  0  0  0  0  0
   -3.9619   -1.4740    2.6903 H   0  0  0  0  0  0  0  0  0  0  0  0
   -2.1733   -0.2908    3.0376 C   0  0  0  0  0  0  0  0  0  0  0  0
   -2.3532   -0.2116    4.1283 H   0  0  0  0  0  0  0  0  0  0  0  0
   -1.6926    0.6547    2.7116 H   0  0  0  0  0  0  0  0  0  0  0  0
   -1.4362   -1.1032    2.8703 H   0  0  0  0  0  0  0  0  0  0  0  0
  1  2  1  0  0  0  0
  2 21  1  0  0  0  0
  3  2  2  0  0  0  0
  3  4  1  0  0  0  0
  5  3  1  0  0  0  0
  6  5  1  0  0  0  0
  7  5  2  0  0  0  0
  7 20  1  0  0  0  0
  8  7  1  0  0  0  0
  9  8  1  0  0  0  0
 10  8  2  0  0  0  0
 10 12  1  0  0  0  0
 11 10  1  0  0  0  0
 12 13  2  0  0  0  0
 12 19  1  0  0  0  0
 13 15  1  0  0  0  0
 14 13  1  0  0  0  0
 15 17  2  0  0  0  0
 15 16  1  0  0  0  0
 17 34  1  0  0  0  0
 18 17  1  0  0  0  0
 19 20  2  0  0  0  0
 19 18  1  0  0  0  0
 20  1  1  0  0  0  0
 21 22  1  6  0  0  0
 21 27  1  0  0  0  0
 23 26  1  0  0  0  0
 23 25  1  0  0  0  0
 23 21  1  0  0  0  0
 24 23  1  0  0  0  0
 27 29  1  0  0  0  0
 27 28  1  0  0  0  0
 27 30  1  0  0  0  0
 30 31  1  0  0  0  0
 32 30  1  0  0  0  0
 33 30  1  0  0  0  0
 34 35  1  6  0  0  0
 34 40  1  0  0  0  0
 36 38  1  0  0  0  0
 36 39  1  0  0  0  0
 36 34  1  0  0  0  0
 37 36  1  0  0  0  0
 40 41  1  0  0  0  0
 40 42  1  0  0  0  0
 40 43  1  0  0  0  0
 43 44  1  0  0  0  0
 45 43  1  0  0  0  0
 46 43  1  0  0  0  0
M  END
