2,3
q = -1.0, confidence = 0.0

 28 30  0  0  1  0  0  0  0  0999 V2000
    3.2334    2.1060   -1.4908 S   0  0  0  0  0  0  0  0  0  0  0  0
    1.7528    0.1538   -0.5741 N   0  0  0  0  0  2  0  0  0  0  0  0
   -0.5293    1.2990   -0.8279 N   0  0  0  0  0  2  0  0  0  0  0  0
   -6.8224   -0.4053   -0.4627 F   0  0  0  0  0  0  0  0  0  0  0  0
    0.5315    2.0795   -1.1892 N   0  0  0  0  0  2  0  0  0  0  0  0
    3.0346   -0.3591   -0.5979 C   0  0  0  0  0  0  0  0  0  0  0  0
    3.4456   -1.6593   -0.2458 C   0  0  0  0  0  0  0  0  0  0  0  0
    2.6905   -2.4019    0.0432 H   0  0  0  0  0  0  0  0  0  0  0  0
    1.6651    1.4147   -1.0589 C   0  0  1  0  0  3  0  0  0  0  0  0
   -3.2712   -0.1304   -1.2305 C   0  0  0  0  0  0  0  0  0  0  0  0
   -2.4506   -0.7408   -1.6418 H   0  0  0  0  0  0  0  0  0  0  0  0
   -3.0161    1.2152   -0.8600 C   0  0  0  0  0  0  0  0  0  0  0  0
    4.0080    0.5808   -1.0507 C   0  0  0  0  0  0  0  0  0  0  0  0
    4.8067   -1.9863   -0.3172 C   0  0  0  0  0  0  0  0  0  0  0  0
    5.1297   -3.0032   -0.0483 H   0  0  0  0  0  0  0  0  0  0  0  0
    5.3660    0.2508   -1.1209 C   0  0  0  0  0  0  0  0  0  0  0  0
    6.1048    0.9865   -1.4710 H   0  0  0  0  0  0  0  0  0  0  0  0
    5.7624   -1.0426   -0.7412 C   0  0  0  0  0  0  0  0  0  0  0  0
    6.8256   -1.3198   -0.7904 H   0  0  0  0  0  0  0  0  0  0  0  0
   -4.5528   -0.6755   -1.0964 C   0  0  0  0  0  0  0  0  0  0  0  0
   -4.7650   -1.7129   -1.3940 H   0  0  0  0  0  0  0  0  0  0  0  0
   -1.7124    1.8474   -1.0189 C   0  0  0  0  0  3  0  0  0  0  0  0
   -1.6816    2.8998   -1.3563 H   0  0  0  0  0  0  0  0  0  0  0  0
   -5.5916    0.1216   -0.5954 C   0  0  0  0  0  0  0  0  0  0  0  0
   -4.1001    2.0049   -0.3984 C   0  0  0  0  0  0  0  0  0  0  0  0
   -3.9262    3.0603   -0.1369 H   0  0  0  0  0  0  0  0  0  0  0  0
   -5.3817    1.4636   -0.2496 C   0  0  0  0  0  0  0  0  0  0  0  0
   -6.2241    2.0638    0.1225 H   0  0  0  0  0  0  0  0  0  0  0  0
  1  9  1  0  0  0  0
  1 13  1  0  0  0  0
  5  3  1  0  0  0  0
  6  2  1  0  0  0  0
  6  7  1  0  0  0  0
  7  8  1  0  0  0  0
  9  5  1  1  0  0  0
  9  2  1  0  0  0  0
 10 20  2  0  0  0  0
 10 12  1  0  0  0  0
 11 10  1  0  0  0  0
 12 25  2  0  0  0  0
 13  6  2  0  0  0  0
 14  7  2  0  0  0  0
 14 15  1  0  0  0  0
 16 13  1  0  0  0  0
 16 18  2  0  0  0  0
 17 16  1  0  0  0  0
 18 14  1  0  0  0  0
 19 18  1  0  0  0  0
 20 24  1  0  0  0  0
 21 20  1  0  0  0  0
 22 12  1  0  0  0  0
 22  3  1  0  0  0  0
 23 22  1  0  0  0  0
 24  4  1  0  0  0  0
 24 27  2  0  0  0  0
 25 27  1  0  0  0  0
 25 26  1  0  0  0  0
 27 28  1  0  0  0  0
M  END
