5,6
q = -2.0, confidence = 0.906

 24 25  0  0  0  0  0  0  0  0999 V2000
   -3.5798    4.8884   -0.7551 O   0  5  0  0  0  0  0  0  0  0  0  0
   -4.5972    3.4654    0.7269 O   0  0  0  0  0  0  0  0  0  0  0  0
   -4.5967   -3.4654    0.7283 O   0  5  0  0  0  0  0  0  0  0  0  0
   -3.5808   -4.8879   -0.7553 O   0  0  0  0  0  0  0  0  0  0  0  0
   -0.2004    1.2890   -0.0025 N   0  0  0  0  0  2  0  0  0  0  0  0
   -0.2005   -1.2890   -0.0031 N   0  0  0  0  0  2  0  0  0  0  0  0
   -1.4656    0.7294   -0.0073 C   0  0  0  0  0  0  0  0  0  0  0  0
   -2.5951    1.5530    0.0122 C   0  0  0  0  0  0  0  0  0  0  0  0
   -3.6070    1.1305    0.0996 H   0  0  0  0  0  0  0  0  0  0  0  0
   -2.4596    2.9523   -0.0417 C   0  0  0  0  0  0  0  0  0  0  0  0
   -1.1527    3.4930   -0.0816 C   0  0  0  0  0  0  0  0  0  0  0  0
   -1.0357    4.5822   -0.1810 H   0  0  0  0  0  0  0  0  0  0  0  0
   -0.0599    2.6437   -0.0240 C   0  0  0  0  0  0  0  0  0  0  0  0
    0.9713    3.0302   -0.0167 H   0  0  0  0  0  0  0  0  0  0  0  0
   -1.4657   -0.7293   -0.0075 C   0  0  0  0  0  0  0  0  0  0  0  0
   -2.5952   -1.5529    0.0122 C   0  0  0  0  0  0  0  0  0  0  0  0
   -3.6070   -1.1303    0.1000 H   0  0  0  0  0  0  0  0  0  0  0  0
   -2.4598   -2.9522   -0.0418 C   0  0  0  0  0  0  0  0  0  0  0  0
   -1.1529   -3.4929   -0.0823 C   0  0  0  0  0  0  0  0  0  0  0  0
   -1.0359   -4.5821   -0.1819 H   0  0  0  0  0  0  0  0  0  0  0  0
   -0.0601   -2.6437   -0.0249 C   0  0  0  0  0  0  0  0  0  0  0  0
    0.9711   -3.0303   -0.0182 H   0  0  0  0  0  0  0  0  0  0  0  0
   -3.6825    3.8737   -0.0307 C   0  0  0  0  0  0  0  0  0  0  0  0
   -3.6828   -3.8735   -0.0303 C   0  0  0  0  0  0  0  0  0  0  0  0
  1 23  1  0  0  0  0
  4 24  2  0  0  0  0
  7  5  1  0  0  0  0
  7  8  1  0  0  0  0
  8  9  1  0  0  0  0
 10 23  1  0  0  0  0
 10  8  2  0  0  0  0
 11 10  1  0  0  0  0
 11 13  2  0  0  0  0
 12 11  1  0  0  0  0
 13 14  1  0  0  0  0
 13  5  1  0  0  0  0
 15  7  2  0  0  0  0
 15  6  1  0  0  0  0
 15 16  1  0  0  0  0
 16 17  1  0  0  0  0
 18 24  1  0  0  0  0
 18 16  2  0  0  0  0
 19 18  1  0  0  0  0
 19 21  2  0  0  0  0
 20 19  1  0  0  0  0
 21 22  1  0  0  0  0
 21  6  1  0  0  0  0
 23  2  2  0  0  0  0
 24  3  1  0  0  0  0
M  CHG  2   1  -1   3  -1
M  END
