1,2
q = 0.0, confidence = 0.996

 48 49  0  0  1  0  0  0  0  0999 V2000
   -2.2505   -0.1950    0.0850 N   0  0  0  0  0  2  0  0  0  0  0  0
    0.3044   -0.8516    0.1394 N   0  0  0  0  0  2  0  0  0  0  0  0
   -3.5468    0.1738    0.0766 C   0  0  0  0  0  3  0  0  0  0  0  0
   -3.7526    1.2521    0.0061 H   0  0  0  0  0  0  0  0  0  0  0  0
   -4.5995   -0.7428    0.1496 C   0  0  0  0  0  0  0  0  0  0  0  0
   -5.6345   -0.3707    0.1366 H   0  0  0  0  0  0  0  0  0  0  0  0
   -4.3308   -2.1234    0.2362 C   0  0  0  0  0  0  0  0  0  0  0  0
   -2.9723   -2.4964    0.2678 C   0  0  0  0  0  0  0  0  0  0  0  0
   -2.7037   -3.5587    0.3482 H   0  0  0  0  0  0  0  0  0  0  0  0
   -1.9587   -1.5289    0.1982 C   0  0  0  0  0  0  0  0  0  0  0  0
   -0.5224   -1.8600    0.2762 C   0  0  2  0  0  3  0  0  0  0  0  0
   -0.0928   -3.2693    0.5386 C   0  0  0  0  0  0  0  0  0  0  0  0
   -0.3052   -3.9080   -0.3442 H   0  0  0  0  0  0  0  0  0  0  0  0
   -0.6512   -3.6984    1.3939 H   0  0  0  0  0  0  0  0  0  0  0  0
    0.9893   -3.3222    0.7502 H   0  0  0  0  0  0  0  0  0  0  0  0
    1.7217   -1.0163    0.2643 C   0  0  0  0  0  0  0  0  0  0  0  0
    2.3205   -0.5304    1.4618 C   0  0  0  0  0  0  0  0  0  0  0  0
    3.7178   -0.6205    1.5775 C   0  0  0  0  0  0  0  0  0  0  0  0
    4.2083   -0.2619    2.4933 H   0  0  0  0  0  0  0  0  0  0  0  0
    4.4953   -1.1597    0.5433 C   0  0  0  0  0  0  0  0  0  0  0  0
    5.5882   -1.2197    0.6521 H   0  0  0  0  0  0  0  0  0  0  0  0
    3.8835   -1.6191   -0.6272 C   0  0  0  0  0  0  0  0  0  0  0  0
    4.5052   -2.0338   -1.4350 H   0  0  0  0  0  0  0  0  0  0  0  0
    2.4860   -1.5630   -0.8002 C   0  0  0  0  0  0  0  0  0  0  0  0
    1.4521    0.0166    2.5899 C   0  0  0  0  0  0  0  0  0  0  0  0
    0.5670    0.5005    2.1021 H   0  0  0  0  0  0  0  0  0  0  0  0
    0.9165   -1.1189    3.4814 C   0  0  0  0  0  0  0  0  0  0  0  0
    0.3422   -1.8700    2.9050 H   0  0  0  0  0  0  0  0  0  0  0  0
    0.2502   -0.7165    4.2709 H   0  0  0  0  0  0  0  0  0  0  0  0
    1.7526   -1.6516    3.9787 H   0  0  0  0  0  0  0  0  0  0  0  0
    2.1442    1.0902    3.4380 C   0  0  0  0  0  0  0  0  0  0  0  0
    2.9662    0.6680    4.0510 H   0  0  0  0  0  0  0  0  0  0  0  0
    1.4198    1.5456    4.1420 H   0  0  0  0  0  0  0  0  0  0  0  0
    2.5716    1.9011    2.8144 H   0  0  0  0  0  0  0  0  0  0  0  0
    1.8661   -2.0737   -2.0990 C   0  0  0  0  0  0  0  0  0  0  0  0
    0.7668   -1.9351   -2.0346 H   0  0  0  0  0  0  0  0  0  0  0  0
    2.3518   -1.2754   -3.3232 C   0  0  0  0  0  0  0  0  0  0  0  0
    2.1229   -0.1954   -3.2349 H   0  0  0  0  0  0  0  0  0  0  0  0
    1.8659   -1.6500   -4.2463 H   0  0  0  0  0  0  0  0  0  0  0  0
    3.4475   -1.3748   -3.4605 H   0  0  0  0  0  0  0  0  0  0  0  0
    2.1458   -3.5751   -2.3033 C   0  0  0  0  0  0  0  0  0  0  0  0
    3.2277   -3.7611   -2.4594 H   0  0  0  0  0  0  0  0  0  0  0  0
    1.6142   -3.9515   -3.2003 H   0  0  0  0  0  0  0  0  0  0  0  0
    1.8311   -4.1848   -1.4343 H   0  0  0  0  0  0  0  0  0  0  0  0
   -5.4328   -3.1399    0.2780 C   0  0  0  0  0  0  0  0  0  0  0  0
   -5.8675   -3.2748   -0.7356 H   0  0  0  0  0  0  0  0  0  0  0  0
   -6.2592   -2.8109    0.9382 H   0  0  0  0  0  0  0  0  0  0  0  0
   -5.0734   -4.1274    0.6226 H   0  0  0  0  0  0  0  0  0  0  0  0
  1 10  1  0  0  0  0
  2 16  1  0  0  0  0
  3  1  1  0  0  0  0
  3  5  1  0  0  0  0
  4  3  1  0  0  0  0
  5  7  2  0  0  0  0
  6  5  1  0  0  0  0
  7  8  1  0  0  0  0
  7 45  1  0  0  0  0
  8  9  1  0  0  0  0
 10  8  2  0  0  0  0
 10 11  1  0  0  0  0
 11  2  1  1  0  0  0
 11 12  1  0  0  0  0
 12 15  1  0  0  0  0
 12 14  1  0  0  0  0
 13 12  1  0  0  0  0
 16 17  1  0  0  0  0
 17 18  2  0  0  0  0
 17 25  1  0  0  0  0
 18 19  1  0  0  0  0
 20 21  1  0  0  0  0
 20 18  1  0  0  0  0
 22 20  2  0  0  0  0
 23 22  1  0  0  0  0
 24 22  1  0  0  0  0
 24 16  2  0  0  0  0
 25 31  1  0  0  0  0
 25 27  1  0  0  0  0
 26 25  1  0  0  0  0
 27 30  1  0  0  0  0
 27 29  1  0  0  0  0
 28 27  1  0  0  0  0
 31 32  1  0  0  0  0
 31 33  1  0  0  0  0
 34 31  1  0  0  0  0
 35 36  1  0  0  0  0
 35 24  1  0  0  0  0
 37 38  1  0  0  0  0
 37 35  1  0  0  0  0
 39 37  1  0  0  0  0
 40 37  1  0  0  0  0
 41 35  1  0  0  0  0
 41 44  1  0  0  0  0
 42 41  1  0  0  0  0
 43 41  1  0  0  0  0
 45 48  1  0  0  0  0
 45 47  1  0  0  0  0
 46 45  1  0  0  0  0
M  END
