2,4
q = -1.0, confidence = 0.0

 23 24  0  0  1  0  0  0  0  0999 V2000
   -0.8976    2.0972    0.4175 O   0  0  0  0  0  1  0  0  0  0  0  0
   -0.6053   -1.3660   -1.0047 N   0  0  0  0  0  2  0  0  0  0  0  0
   -4.3677   -0.1651    0.6455 N   0  0  0  0  0  0  0  0  0  0  0  0
   -0.9598    0.9416   -0.0523 N   0  0  0  0  0  2  0  0  0  0  0  0
   -0.2257   -2.5159   -1.5885 C   0  0  0  0  0  3  0  0  0  0  0  0
   -1.1569   -3.5110   -1.8948 C   0  0  0  0  0  0  0  0  0  0  0  0
   -2.5075   -3.2810   -1.5802 C   0  0  0  0  0  0  0  0  0  0  0  0
   -2.8923   -2.0806   -0.9782 C   0  0  0  0  0  0  0  0  0  0  0  0
   -1.9120   -1.1010   -0.6976 C   0  0  0  0  0  0  0  0  0  0  0  0
   -2.1188    0.2253   -0.1266 C   0  0  1  0  0  3  0  0  0  0  0  0
   -3.4117    0.7517    0.3493 C   0  0  0  0  0  0  0  0  0  0  0  0
   -5.5561    0.2541    1.0942 C   0  0  0  0  0  0  0  0  0  0  0  0
   -5.8864    1.6047    1.2822 C   0  0  0  0  0  0  0  0  0  0  0  0
   -4.9109    2.5608    0.9624 C   0  0  0  0  0  0  0  0  0  0  0  0
   -3.6613    2.1427    0.4959 C   0  0  0  0  0  0  0  0  0  0  0  0
    0.8548   -2.5975   -1.7783 H   0  0  0  0  0  0  0  0  0  0  0  0
   -0.8229   -4.4439   -2.3694 H   0  0  0  0  0  0  0  0  0  0  0  0
   -3.2684   -4.0438   -1.8051 H   0  0  0  0  0  0  0  0  0  0  0  0
   -3.9269   -1.8654   -0.6879 H   0  0  0  0  0  0  0  0  0  0  0  0
   -6.2959   -0.5359    1.3194 H   0  0  0  0  0  0  0  0  0  0  0  0
   -6.8787    1.8934    1.6589 H   0  0  0  0  0  0  0  0  0  0  0  0
   -5.1214    3.6358    1.0734 H   0  0  0  0  0  0  0  0  0  0  0  0
   -2.8754    2.8626    0.2447 H   0  0  0  0  0  0  0  0  0  0  0  0
  2  9  1  0  0  0  0
  3 12  1  0  0  0  0
  4  1  1  0  0  0  0
  5  2  1  0  0  0  0
  6  5  1  0  0  0  0
  6  7  2  0  0  0  0
  7  8  1  0  0  0  0
  8  9  2  0  0  0  0
  8 19  1  0  0  0  0
  9 10  1  0  0  0  0
 10  4  1  1  0  0  0
 10 11  1  0  0  0  0
 11 15  1  0  0  0  0
 11  3  2  0  0  0  0
 12 13  2  0  0  0  0
 12 20  1  0  0  0  0
 13 21  1  0  0  0  0
 14 22  1  0  0  0  0
 14 13  1  0  0  0  0
 15 14  2  0  0  0  0
 16  5  1  0  0  0  0
 17  6  1  0  0  0  0
 18  7  1  0  0  0  0
 23 15  1  0  0  0  0
M  END
