1,10
q = 0.0, confidence = 1.0

 32 33  0  0  1  0  0  0  0  0999 V2000
    0.1140    1.7018   -1.3297 N   0  0  0  0  0  0  0  0  0  0  0  0
    0.2645    1.6274   -2.3433 H   0  0  0  0  0  0  0  0  0  0  0  0
   -1.1852    2.3098   -1.0066 C   0  0  2  0  0  0  0  0  0  0  0  0
   -1.1812    3.4057   -1.2785 H   0  0  0  0  0  0  0  0  0  0  0  0
   -1.3624    2.0960    0.4140 N   0  0  0  0  0  0  0  0  0  0  0  0
   -2.3249    2.2031    0.7435 H   0  0  0  0  0  0  0  0  0  0  0  0
   -0.3701    2.7333    1.2576 C   0  0  0  0  0  0  0  0  0  0  0  0
   -0.5832    2.4816    2.3172 H   0  0  0  0  0  0  0  0  0  0  0  0
   -0.3698    3.8503    1.1705 H   0  0  0  0  0  0  0  0  0  0  0  0
    1.2402    0.8264    1.2267 N   0  0  0  0  0  0  0  0  0  0  0  0
    1.0746    0.6516    2.2308 H   0  0  0  0  0  0  0  0  0  0  0  0
    2.6471    0.4268    0.9143 C   0  0  2  0  0  0  0  0  0  0  0  0
    3.3223    1.1649    1.4284 H   0  0  0  0  0  0  0  0  0  0  0  0
    2.9212    0.4894   -0.4891 N   0  0  0  0  0  0  0  0  0  0  0  0
    2.4550   -0.2901   -0.9898 H   0  0  0  0  0  0  0  0  0  0  0  0
    2.6083    1.7858   -1.0617 C   0  0  0  0  0  0  0  0  0  0  0  0
    2.6836    1.7241   -2.1678 H   0  0  0  0  0  0  0  0  0  0  0  0
    3.3758    2.5249   -0.7347 H   0  0  0  0  0  0  0  0  0  0  0  0
    1.2356    2.3741   -0.6601 C   0  0  2  0  0  0  0  0  0  0  0  0
    1.2399    3.4671   -0.9011 H   0  0  0  0  0  0  0  0  0  0  0  0
    1.0262    2.2359    0.8690 C   0  0  1  0  0  0  0  0  0  0  0  0
    1.7842    2.8836    1.3734 H   0  0  0  0  0  0  0  0  0  0  0  0
   -2.3215    1.6369   -1.7959 C   0  0  0  0  0  0  0  0  0  0  0  0
   -3.2770    2.1399   -1.5147 H   0  0  0  0  0  0  0  0  0  0  0  0
   -2.1600    1.8437   -2.8762 H   0  0  0  0  0  0  0  0  0  0  0  0
    2.9053   -0.9562    1.5177 C   0  0  0  0  0  0  0  0  0  0  0  0
    2.2739   -1.7052    0.9947 H   0  0  0  0  0  0  0  0  0  0  0  0
    3.9673   -1.2322    1.3352 H   0  0  0  0  0  0  0  0  0  0  0  0
   -2.3833    0.2399   -1.6370 O   0  0  0  0  0  0  0  0  0  0  0  0
   -2.8310   -0.0032   -0.7817 H   0  0  0  0  0  0  0  0  0  0  0  0
    2.5438   -0.9805    2.8917 O   0  0  0  0  0  0  0  0  0  0  0  0
    3.2561   -0.5415    3.3916 H   0  0  0  0  0  0  0  0  0  0  0  0
  1  3  1  0  0  0  0
  1 19  1  0  0  0  0
  2  1  1  0  0  0  0
  3  4  1  6  0  0  0
  3  5  1  0  0  0  0
  5  6  1  0  0  0  0
  5  7  1  0  0  0  0
  7  8  1  0  0  0  0
  9  7  1  0  0  0  0
 10 11  1  0  0  0  0
 12 10  1  0  0  0  0
 12 13  1  1  0  0  0
 12 26  1  0  0  0  0
 14 12  1  0  0  0  0
 15 14  1  0  0  0  0
 16 18  1  0  0  0  0
 16 19  1  0  0  0  0
 16 14  1  0  0  0  0
 17 16  1  0  0  0  0
 19 20  1  6  0  0  0
 19 21  1  0  0  0  0
 21 10  1  0  0  0  0
 21  7  1  0  0  0  0
 21 22  1  1  0  0  0
 23 29  1  0  0  0  0
 23 24  1  0  0  0  0
 23  3  1  0  0  0  0
 25 23  1  0  0  0  0
 26 31  1  0  0  0  0
 27 26  1  0  0  0  0
 28 26  1  0  0  0  0
 29 30  1  0  0  0  0
 31 32  1  0  0  0  0
M  END
