1,2
q = -1.0, confidence = 0.0

 37 39  0  0  0  0  0  0  0  0999 V2000
   -0.4805   -1.0983   -1.0303 N   0  0  0  0  0  0  0  0  0  0  0  0
   -0.5023    0.8528    1.2180 N   0  0  0  0  0  0  0  0  0  0  0  0
   -0.2895   -1.9838   -2.0268 C   0  0  0  0  0  0  0  0  0  0  0  0
    0.7267   -2.2724   -2.3252 H   0  0  0  0  0  0  0  0  0  0  0  0
   -1.5319   -2.4221   -2.5749 C   0  0  0  0  0  0  0  0  0  0  0  0
   -1.6576   -3.1421   -3.3921 H   0  0  0  0  0  0  0  0  0  0  0  0
   -2.5274   -1.7579   -1.8637 C   0  0  0  0  0  0  0  0  0  0  0  0
   -3.6140   -1.8320   -1.9860 H   0  0  0  0  0  0  0  0  0  0  0  0
   -1.8628   -0.9294   -0.8920 C   0  0  0  0  0  3  0  0  0  0  0  0
   -2.4992   -0.0961    0.0533 C   0  0  0  0  0  3  0  0  0  0  0  0
   -1.8813    0.7110    1.0331 C   0  0  0  0  0  0  0  0  0  0  0  0
   -2.5624    1.4972    2.0279 C   0  0  0  0  0  0  0  0  0  0  0  0
   -3.6509    1.5758    2.1277 H   0  0  0  0  0  0  0  0  0  0  0  0
   -1.5791    2.0992    2.8081 C   0  0  0  0  0  0  0  0  0  0  0  0
   -1.7188    2.7687    3.6649 H   0  0  0  0  0  0  0  0  0  0  0  0
   -0.3273    1.6765    2.2691 C   0  0  0  0  0  3  0  0  0  0  0  0
    0.6845    1.9447    2.6001 H   0  0  0  0  0  0  0  0  0  0  0  0
   -3.9986   -0.0737    0.0213 C   0  0  0  0  0  0  0  0  0  0  0  0
   -4.6662    0.8687   -0.7976 C   0  0  0  0  0  0  0  0  0  0  0  0
   -6.0733    0.8735   -0.8138 C   0  0  0  0  0  0  0  0  0  0  0  0
   -6.5934    1.6058   -1.4530 H   0  0  0  0  0  0  0  0  0  0  0  0
   -6.8298   -0.0270   -0.0430 C   0  0  0  0  0  0  0  0  0  0  0  0
   -6.1385   -0.9557    0.7571 C   0  0  0  0  0  0  0  0  0  0  0  0
   -6.7105   -1.6758    1.3652 H   0  0  0  0  0  0  0  0  0  0  0  0
   -4.7339   -0.9967    0.8055 C   0  0  0  0  0  0  0  0  0  0  0  0
   -3.8802    1.8367   -1.6466 C   0  0  0  0  0  0  0  0  0  0  0  0
   -4.5471    2.5453   -2.1740 H   0  0  0  0  0  0  0  0  0  0  0  0
   -3.2780    1.2969   -2.4071 H   0  0  0  0  0  0  0  0  0  0  0  0
   -3.1615    2.4196   -1.0349 H   0  0  0  0  0  0  0  0  0  0  0  0
   -8.3379    0.0161   -0.0493 C   0  0  0  0  0  0  0  0  0  0  0  0
   -8.7255    0.5783    0.8277 H   0  0  0  0  0  0  0  0  0  0  0  0
   -8.7754   -1.0012    0.0018 H   0  0  0  0  0  0  0  0  0  0  0  0
   -8.7292    0.5148   -0.9576 H   0  0  0  0  0  0  0  0  0  0  0  0
   -4.0180   -2.0027    1.6719 C   0  0  0  0  0  0  0  0  0  0  0  0
   -4.7328   -2.6561    2.2075 H   0  0  0  0  0  0  0  0  0  0  0  0
   -3.3778   -1.4962    2.4237 H   0  0  0  0  0  0  0  0  0  0  0  0
   -3.3431   -2.6432    1.0675 H   0  0  0  0  0  0  0  0  0  0  0  0
  1  9  1  0  0  0  0
  2 16  1  0  0  0  0
  3  1  2  0  0  0  0
  4  3  1  0  0  0  0
  5  3  1  0  0  0  0
  5  7  2  0  0  0  0
  6  5  1  0  0  0  0
  7  9  1  0  0  0  0
  8  7  1  0  0  0  0
  9 10  1  0  0  0  0
 10 11  1  0  0  0  0
 11  2  2  0  0  0  0
 11 12  1  0  0  0  0
 12 13  1  0  0  0  0
 12 14  2  0  0  0  0
 14 15  1  0  0  0  0
 16 17  1  0  0  0  0
 16 14  1  0  0  0  0
 18 10  1  0  0  0  0
 18 25  1  0  0  0  0
 19 18  2  0  0  0  0
 20 19  1  0  0  0  0
 20 22  2  0  0  0  0
 21 20  1  0  0  0  0
 22 23  1  0  0  0  0
 23 25  2  0  0  0  0
 23 24  1  0  0  0  0
 25 34  1  0  0  0  0
 26 29  1  0  0  0  0
 26 19  1  0  0  0  0
 27 26  1  0  0  0  0
 28 26  1  0  0  0  0
 30 22  1  0  0  0  0
 30 32  1  0  0  0  0
 30 31  1  0  0  0  0
 33 30  1  0  0  0  0
 34 35  1  0  0  0  0
 34 36  1  0  0  0  0
 37 34  1  0  0  0  0
M  END
