1,19
q = -1.0, confidence = 0.0

 27 28  0  0  1  0  0  0  0  0999 V2000
   -0.8294   -1.5291   -0.6748 N   0  0  0  0  0  2  0  0  0  0  0  0
   -1.7625   -1.4067   -1.0798 H   0  0  0  0  0  0  0  0  0  0  0  0
   -0.5136   -2.7868   -0.3783 C   0  0  2  0  0  3  0  0  0  0  0  0
   -1.4505   -3.7939   -0.5363 N   0  0  0  0  0  0  0  0  0  0  0  0
   -1.0623   -4.7365   -0.5786 H   0  0  0  0  0  0  0  0  0  0  0  0
   -2.2566   -3.6139   -1.1337 H   0  0  0  0  0  0  0  0  0  0  0  0
    0.6791   -3.1940    0.1011 N   0  0  0  0  0  0  0  0  0  0  0  0
    1.6611   -2.2986    0.1533 C   0  0  0  0  0  0  0  0  0  0  0  0
    2.9680   -2.7045    0.3702 N   0  0  0  0  0  0  0  0  0  0  0  0
    3.2209   -3.6848    0.4774 H   0  0  0  0  0  0  0  0  0  0  0  0
    3.8166   -1.6203    0.2307 C   0  0  0  0  0  0  0  0  0  0  0  0
    5.2077   -1.4955    0.2871 C   0  0  0  0  0  0  0  0  0  0  0  0
    5.8445   -2.3654    0.5101 H   0  0  0  0  0  0  0  0  0  0  0  0
    5.7909   -0.2371    0.0360 C   0  0  0  0  0  0  0  0  0  0  0  0
    4.9613    0.8744   -0.2961 C   0  0  0  0  0  0  0  0  0  0  0  0
    3.5608    0.7311   -0.3517 C   0  0  0  0  0  0  0  0  0  0  0  0
    2.9405    1.5825   -0.6620 H   0  0  0  0  0  0  0  0  0  0  0  0
    2.9699   -0.5103   -0.0541 C   0  0  0  0  0  0  0  0  0  0  0  0
    1.6419   -0.9441   -0.0400 N   0  0  0  0  0  2  0  0  0  0  0  0
    5.5797    2.2154   -0.6082 C   0  0  0  0  0  0  0  0  0  0  0  0
    4.8016    2.9752   -0.8178 H   0  0  0  0  0  0  0  0  0  0  0  0
    6.2027    2.5906    0.2322 H   0  0  0  0  0  0  0  0  0  0  0  0
    6.2515    2.1678   -1.4923 H   0  0  0  0  0  0  0  0  0  0  0  0
    7.2891   -0.0754    0.0937 C   0  0  0  0  0  0  0  0  0  0  0  0
    7.7901   -1.0273    0.3557 H   0  0  0  0  0  0  0  0  0  0  0  0
    7.7063    0.2685   -0.8772 H   0  0  0  0  0  0  0  0  0  0  0  0
    7.5944    0.6830    0.8467 H   0  0  0  0  0  0  0  0  0  0  0  0
  2  1  1  0  0  0  0
  3  1  1  1  0  0  0
  3  7  1  0  0  0  0
  4  3  1  0  0  0  0
  5  4  1  0  0  0  0
  6  4  1  0  0  0  0
  7  8  2  0  0  0  0
  8  9  1  0  0  0  0
  9 10  1  0  0  0  0
 11 12  1  0  0  0  0
 11  9  1  0  0  0  0
 12 13  1  0  0  0  0
 14 24  1  0  0  0  0
 14 12  2  0  0  0  0
 15 14  1  0  0  0  0
 16 15  2  0  0  0  0
 16 18  1  0  0  0  0
 17 16  1  0  0  0  0
 18 19  1  0  0  0  0
 18 11  2  0  0  0  0
 19  8  1  0  0  0  0
 20 15  1  0  0  0  0
 20 22  1  0  0  0  0
 21 20  1  0  0  0  0
 23 20  1  0  0  0  0
 24 25  1  0  0  0  0
 24 27  1  0  0  0  0
 26 24  1  0  0  0  0
M  END
