2,3
q = 0.0, confidence = 0.94

 29 28  0  0  0  0  0  0  0  0999 V2000
   -0.0002    2.0870   -0.0001 Se  0  0  0  0  0  0  0  0  0  0  0  0
   -1.2080    0.7662    0.0029 N   0  0  0  0  0  2  0  0  0  0  0  0
    1.2079    0.7664   -0.0004 N   0  0  0  0  0  2  0  0  0  0  0  0
   -2.6607    1.0154   -0.0010 C   0  0  0  0  0  0  0  0  0  0  0  0
   -3.2475    0.3639   -1.2713 C   0  0  0  0  0  0  0  0  0  0  0  0
   -2.7997    0.8134   -2.1798 H   0  0  0  0  0  0  0  0  0  0  0  0
   -4.3445    0.5214   -1.2989 H   0  0  0  0  0  0  0  0  0  0  0  0
   -3.0366   -0.7223   -1.2683 H   0  0  0  0  0  0  0  0  0  0  0  0
   -2.9432    2.5252   -0.0011 C   0  0  0  0  0  0  0  0  0  0  0  0
   -2.5274    3.0168   -0.9070 H   0  0  0  0  0  0  0  0  0  0  0  0
   -2.5302    3.0163    0.9063 H   0  0  0  0  0  0  0  0  0  0  0  0
   -4.0354    2.7081   -0.0029 H   0  0  0  0  0  0  0  0  0  0  0  0
   -3.2536    0.3632    1.2661 C   0  0  0  0  0  0  0  0  0  0  0  0
   -2.8109    0.8129    2.1770 H   0  0  0  0  0  0  0  0  0  0  0  0
   -3.0418   -0.7229    1.2640 H   0  0  0  0  0  0  0  0  0  0  0  0
   -4.3509    0.5198    1.2880 H   0  0  0  0  0  0  0  0  0  0  0  0
    2.6606    1.0157    0.0007 C   0  0  0  0  0  0  0  0  0  0  0  0
    2.9430    2.5255    0.0025 C   0  0  0  0  0  0  0  0  0  0  0  0
    2.5288    3.0179   -0.9037 H   0  0  0  0  0  0  0  0  0  0  0  0
    4.0352    2.7085    0.0029 H   0  0  0  0  0  0  0  0  0  0  0  0
    2.5283    3.0158    0.9097 H   0  0  0  0  0  0  0  0  0  0  0  0
    3.2511    0.3653   -1.2684 C   0  0  0  0  0  0  0  0  0  0  0  0
    2.8065    0.8162   -2.1779 H   0  0  0  0  0  0  0  0  0  0  0  0
    3.0394   -0.7208   -1.2674 H   0  0  0  0  0  0  0  0  0  0  0  0
    4.3482    0.5220   -1.2923 H   0  0  0  0  0  0  0  0  0  0  0  0
    3.2498    0.3624    1.2689 C   0  0  0  0  0  0  0  0  0  0  0  0
    3.0388   -0.7238    1.2649 H   0  0  0  0  0  0  0  0  0  0  0  0
    2.8039    0.8108    2.1789 H   0  0  0  0  0  0  0  0  0  0  0  0
    4.3469    0.5197    1.2945 H   0  0  0  0  0  0  0  0  0  0  0  0
  1  2  1  0  0  0  0
  3  1  1  0  0  0  0
  3 17  1  0  0  0  0
  4  2  1  0  0  0  0
  4 13  1  0  0  0  0
  5  8  1  0  0  0  0
  5  4  1  0  0  0  0
  6  5  1  0  0  0  0
  7  5  1  0  0  0  0
  9  4  1  0  0  0  0
  9 11  1  0  0  0  0
 10  9  1  0  0  0  0
 12  9  1  0  0  0  0
 13 16  1  0  0  0  0
 13 14  1  0  0  0  0
 15 13  1  0  0  0  0
 17 18  1  0  0  0  0
 17 26  1  0  0  0  0
 18 20  1  0  0  0  0
 18 21  1  0  0  0  0
 19 18  1  0  0  0  0
 22 24  1  0  0  0  0
 22 17  1  0  0  0  0
 23 22  1  0  0  0  0
 25 22  1  0  0  0  0
 26 29  1  0  0  0  0
 26 28  1  0  0  0  0
 27 26  1  0  0  0  0
M  END
