1,2
q = 0.0, confidence = 0.996

 27 27  0  0  0  0  0  0  0  0999 V2000
    1.9397    0.7149    0.7121 N   0  0  0  0  0  2  0  0  0  0  0  0
    0.2344    0.7711   -1.2227 N   0  0  0  0  0  2  0  0  0  0  0  0
   -0.8534    0.7967   -2.1810 C   0  0  0  0  0  0  0  0  0  0  0  0
   -1.0811   -0.2339   -2.5101 H   0  0  0  0  0  0  0  0  0  0  0  0
   -0.5993    1.4155   -3.0657 H   0  0  0  0  0  0  0  0  0  0  0  0
   -2.0534    1.4796   -1.4822 C   0  0  0  0  0  0  0  0  0  0  0  0
   -2.0378    2.6873   -1.2641 O   0  0  0  0  0  0  0  0  0  0  0  0
   -3.0577    0.6442   -1.0982 N   0  0  0  0  0  0  0  0  0  0  0  0
   -2.9430   -0.3740   -1.1652 H   0  0  0  0  0  0  0  0  0  0  0  0
   -4.0920    1.0960   -0.1993 C   0  0  0  0  0  0  0  0  0  0  0  0
   -5.0158    1.4206   -0.7304 H   0  0  0  0  0  0  0  0  0  0  0  0
   -3.7304    1.9822    0.3630 H   0  0  0  0  0  0  0  0  0  0  0  0
   -4.4559   -0.0240    0.7580 C   0  0  0  0  0  0  0  0  0  0  0  0
   -4.0106   -1.1538    0.6915 O   0  0  0  0  0  0  0  0  0  0  0  0
   -5.3553    0.3823    1.6747 O   0  0  0  0  0  0  0  0  0  0  0  0
   -5.5329   -0.3985    2.2437 H   0  0  0  0  0  0  0  0  0  0  0  0
    2.8166    0.6206    1.7306 C   0  0  0  0  0  3  0  0  0  0  0  0
    2.6809   -0.2269    2.4175 H   0  0  0  0  0  0  0  0  0  0  0  0
    3.8585    1.5372    1.9154 C   0  0  0  0  0  0  0  0  0  0  0  0
    4.5442    1.4083    2.7646 H   0  0  0  0  0  0  0  0  0  0  0  0
    4.0085    2.6008    1.0106 C   0  0  0  0  0  0  0  0  0  0  0  0
    4.8188    3.3342    1.1327 H   0  0  0  0  0  0  0  0  0  0  0  0
    3.1063    2.7046   -0.0518 C   0  0  0  0  0  0  0  0  0  0  0  0
    3.1793    3.5146   -0.7917 H   0  0  0  0  0  0  0  0  0  0  0  0
    2.0850    1.7455   -0.1772 C   0  0  0  0  0  0  0  0  0  0  0  0
    1.0942    1.7483   -1.2312 C   0  0  0  0  0  3  0  0  0  0  0  0
    1.0689    2.5479   -1.9922 H   0  0  0  0  0  0  0  0  0  0  0  0
  1 17  1  0  0  0  0
  3  6  1  0  0  0  0
  3  2  1  0  0  0  0
  4  3  1  0  0  0  0
  5  3  1  0  0  0  0
  6  7  2  0  0  0  0
  6  8  1  0  0  0  0
  8 10  1  0  0  0  0
  9  8  1  0  0  0  0
 10 12  1  0  0  0  0
 10 13  1  0  0  0  0
 11 10  1  0  0  0  0
 13 15  1  0  0  0  0
 14 13  2  0  0  0  0
 15 16  1  0  0  0  0
 17 19  1  0  0  0  0
 17 18  1  0  0  0  0
 19 20  1  0  0  0  0
 21 22  1  0  0  0  0
 21 19  2  0  0  0  0
 23 21  1  0  0  0  0
 24 23  1  0  0  0  0
 25 23  2  0  0  0  0
 25  1  1  0  0  0  0
 26  2  1  0  0  0  0
 26 25  1  0  0  0  0
 27 26  1  0  0  0  0
M  END
