2,3
q = 0.0, confidence = 0.996

 34 36  0  0  0  0  0  0  0  0999 V2000
    6.4457   -1.1521   -0.3730 O   0  0  0  0  0  0  0  0  0  0  0  0
   -1.6784   -1.1216   -0.1062 N   0  0  0  0  0  2  0  0  0  0  0  0
    0.8861   -1.2382    0.0768 N   0  0  0  0  0  2  0  0  0  0  0  0
   -2.9997   -1.0316   -0.4906 C   0  0  0  0  0  0  0  0  0  0  0  0
   -3.4935    0.1391   -1.1261 C   0  0  0  0  0  0  0  0  0  0  0  0
   -2.7807    0.9385   -1.3591 H   0  0  0  0  0  0  0  0  0  0  0  0
   -4.8273    0.2219   -1.4995 C   0  0  0  0  0  0  0  0  0  0  0  0
   -5.1900    1.1237   -2.0150 H   0  0  0  0  0  0  0  0  0  0  0  0
   -5.7260   -0.8459   -1.2395 C   0  0  0  0  0  0  0  0  0  0  0  0
   -6.7833   -0.7544   -1.5277 H   0  0  0  0  0  0  0  0  0  0  0  0
   -5.2615   -2.0147   -0.6545 C   0  0  0  0  0  3  0  0  0  0  0  0
   -5.9381   -2.8655   -0.4836 H   0  0  0  0  0  0  0  0  0  0  0  0
   -3.8915   -2.1524   -0.2955 C   0  0  0  0  0  0  0  0  0  0  0  0
   -3.3564   -3.3750    0.2023 C   0  0  0  0  0  0  0  0  0  0  0  0
   -4.0263   -4.2329    0.3626 H   0  0  0  0  0  0  0  0  0  0  0  0
   -1.9975   -3.4836    0.4200 C   0  0  0  0  0  0  0  0  0  0  0  0
   -1.5343   -4.4312    0.7282 H   0  0  0  0  0  0  0  0  0  0  0  0
   -1.1746   -2.3390    0.2387 C   0  0  0  0  0  0  0  0  0  0  0  0
    0.2593   -2.3749    0.3042 C   0  0  0  0  0  3  0  0  0  0  0  0
    0.8105   -3.3231    0.4127 H   0  0  0  0  0  0  0  0  0  0  0  0
    2.2964   -1.2055   -0.0354 C   0  0  0  0  0  0  0  0  0  0  0  0
    3.1232   -1.9238    0.8614 C   0  0  0  0  0  0  0  0  0  0  0  0
    2.6754   -2.4913    1.6907 H   0  0  0  0  0  0  0  0  0  0  0  0
    4.5083   -1.8746    0.7270 C   0  0  0  0  0  0  0  0  0  0  0  0
    5.1695   -2.4037    1.4278 H   0  0  0  0  0  0  0  0  0  0  0  0
    5.1015   -1.1290   -0.3226 C   0  0  0  0  0  0  0  0  0  0  0  0
    4.2715   -0.4214   -1.2258 C   0  0  0  0  0  0  0  0  0  0  0  0
    4.7030    0.1488   -2.0589 H   0  0  0  0  0  0  0  0  0  0  0  0
    2.8831   -0.4503   -1.0712 C   0  0  0  0  0  0  0  0  0  0  0  0
    2.2207    0.0773   -1.7748 H   0  0  0  0  0  0  0  0  0  0  0  0
    7.1158   -0.4330   -1.4032 C   0  0  0  0  0  0  0  0  0  0  0  0
    6.8310   -0.8067   -2.4103 H   0  0  0  0  0  0  0  0  0  0  0  0
    8.1955   -0.6031   -1.2445 H   0  0  0  0  0  0  0  0  0  0  0  0
    6.9044    0.6565   -1.3419 H   0  0  0  0  0  0  0  0  0  0  0  0
  1 26  1  0  0  0  0
  2 18  1  0  0  0  0
  3 19  1  0  0  0  0
  4 13  1  0  0  0  0
  4  2  1  0  0  0  0
  5  4  2  0  0  0  0
  6  5  1  0  0  0  0
  7  9  2  0  0  0  0
  7  5  1  0  0  0  0
  8  7  1  0  0  0  0
  9 11  1  0  0  0  0
 10  9  1  0  0  0  0
 11 12  1  0  0  0  0
 11 13  1  0  0  0  0
 13 14  2  0  0  0  0
 14 15  1  0  0  0  0
 14 16  1  0  0  0  0
 16 17  1  0  0  0  0
 18 19  1  0  0  0  0
 18 16  2  0  0  0  0
 19 20  1  0  0  0  0
 21  3  1  0  0  0  0
 21 22  1  0  0  0  0
 22 23  1  0  0  0  0
 24 22  2  0  0  0  0
 24 25  1  0  0  0  0
 26 24  1  0  0  0  0
 27 29  1  0  0  0  0
 27 26  2  0  0  0  0
 28 27  1  0  0  0  0
 29 21  2  0  0  0  0
 30 29  1  0  0  0  0
 31 34  1  0  0  0  0
 31 33  1  0  0  0  0
 31  1  1  0  0  0  0
 32 31  1  0  0  0  0
M  END
