7,8
q = -1.0, confidence = 0.01

 72 73  0  0  1  0  0  0  0  0999 V2000
    2.8717   -2.9511   -0.1779 F   0  0  0  0  0  0  0  0  0  0  0  0
    2.9402   -2.2890    1.9002 F   0  0  0  0  0  0  0  0  0  0  0  0
    1.6208   -3.9154    1.3177 F   0  0  0  0  0  0  0  0  0  0  0  0
   -2.5692   -3.4216    1.4676 F   0  0  0  0  0  0  0  0  0  0  0  0
   -3.5508   -1.5217    1.8540 F   0  0  0  0  0  0  0  0  0  0  0  0
   -3.5999   -2.3980   -0.1476 F   0  0  0  0  0  0  0  0  0  0  0  0
    1.3532   -0.4894    0.1687 N   0  0  0  0  0  2  0  0  0  0  0  0
   -1.6305   -0.1989    0.0947 N   0  0  0  0  0  2  0  0  0  0  0  0
    2.1094   -2.7208    0.9193 C   0  0  0  0  0  0  0  0  0  0  0  0
    1.0035   -1.6930    0.6121 C   0  0  2  0  0  3  0  0  0  0  0  0
   -0.3219   -2.1355    0.8212 C   0  0  0  0  0  0  0  0  0  0  0  0
   -0.4298   -3.1508    1.2093 H   0  0  0  0  0  0  0  0  0  0  0  0
   -1.5262   -1.4353    0.5845 C   0  0  0  0  0  0  0  0  0  0  0  0
   -2.8166   -2.2013    0.9402 C   0  0  0  0  0  0  0  0  0  0  0  0
    2.6759   -0.0092    0.0035 C   0  0  0  0  0  0  0  0  0  0  0  0
    3.2763   -0.0353   -1.2872 C   0  0  0  0  0  0  0  0  0  0  0  0
    4.5173    0.6031   -1.4639 C   0  0  0  0  0  0  0  0  0  0  0  0
    4.9950    0.5787   -2.4560 H   0  0  0  0  0  0  0  0  0  0  0  0
    5.1582    1.2591   -0.4040 C   0  0  0  0  0  0  0  0  0  0  0  0
    6.1366    1.7395   -0.5581 H   0  0  0  0  0  0  0  0  0  0  0  0
    4.5544    1.2764    0.8627 C   0  0  0  0  0  0  0  0  0  0  0  0
    5.0636    1.7822    1.6965 H   0  0  0  0  0  0  0  0  0  0  0  0
    3.3155    0.6533    1.0932 C   0  0  0  0  0  0  0  0  0  0  0  0
    2.5932   -0.7156   -2.4688 C   0  0  0  0  0  0  0  0  0  0  0  0
    1.6894   -1.2243   -2.0771 H   0  0  0  0  0  0  0  0  0  0  0  0
    3.4881   -1.7820   -3.1210 C   0  0  0  0  0  0  0  0  0  0  0  0
    2.9369   -2.3108   -3.9255 H   0  0  0  0  0  0  0  0  0  0  0  0
    3.8241   -2.5324   -2.3809 H   0  0  0  0  0  0  0  0  0  0  0  0
    4.3904   -1.3299   -3.5828 H   0  0  0  0  0  0  0  0  0  0  0  0
    2.1208    0.3171   -3.5074 C   0  0  0  0  0  0  0  0  0  0  0  0
    1.4128    1.0401   -3.0594 H   0  0  0  0  0  0  0  0  0  0  0  0
    1.6053   -0.1822   -4.3534 H   0  0  0  0  0  0  0  0  0  0  0  0
    2.9776    0.8869   -3.9249 H   0  0  0  0  0  0  0  0  0  0  0  0
    2.6429    0.7282    2.4604 C   0  0  0  0  0  0  0  0  0  0  0  0
    1.9863   -0.1587    2.5509 H   0  0  0  0  0  0  0  0  0  0  0  0
    1.7349    1.9667    2.5521 C   0  0  0  0  0  0  0  0  0  0  0  0
    0.9523    1.9416    1.7679 H   0  0  0  0  0  0  0  0  0  0  0  0
    2.3191    2.9018    2.4199 H   0  0  0  0  0  0  0  0  0  0  0  0
    1.2249    2.0151    3.5362 H   0  0  0  0  0  0  0  0  0  0  0  0
    3.6341    0.6710    3.6294 C   0  0  0  0  0  0  0  0  0  0  0  0
    4.2999   -0.2110    3.5480 H   0  0  0  0  0  0  0  0  0  0  0  0
    3.0873    0.6023    4.5916 H   0  0  0  0  0  0  0  0  0  0  0  0
    4.2710    1.5783    3.6847 H   0  0  0  0  0  0  0  0  0  0  0  0
   -2.8725    0.4471   -0.1939 C   0  0  0  0  0  0  0  0  0  0  0  0
   -3.4502    0.2879   -1.4838 C   0  0  0  0  0  0  0  0  0  0  0  0
   -4.6262    0.9997   -1.7771 C   0  0  0  0  0  0  0  0  0  0  0  0
   -5.0918    0.8853   -2.7671 H   0  0  0  0  0  0  0  0  0  0  0  0
   -5.2157    1.8505   -0.8324 C   0  0  0  0  0  0  0  0  0  0  0  0
   -6.1398    2.3942   -1.0802 H   0  0  0  0  0  0  0  0  0  0  0  0
   -4.6230    2.0077    0.4261 C   0  0  0  0  0  0  0  0  0  0  0  0
   -5.0835    2.6834    1.1630 H   0  0  0  0  0  0  0  0  0  0  0  0
   -3.4474    1.3165    0.7697 C   0  0  0  0  0  0  0  0  0  0  0  0
   -2.7545   -0.5661   -2.5374 C   0  0  0  0  0  0  0  0  0  0  0  0
   -2.1911   -1.3566   -2.0029 H   0  0  0  0  0  0  0  0  0  0  0  0
   -3.7184   -1.2717   -3.4977 C   0  0  0  0  0  0  0  0  0  0  0  0
   -3.1604   -1.9555   -4.1691 H   0  0  0  0  0  0  0  0  0  0  0  0
   -4.2624   -0.5542   -4.1464 H   0  0  0  0  0  0  0  0  0  0  0  0
   -4.4689   -1.8693   -2.9433 H   0  0  0  0  0  0  0  0  0  0  0  0
   -1.7243    0.2886   -3.2976 C   0  0  0  0  0  0  0  0  0  0  0  0
   -1.0065    0.7604   -2.5920 H   0  0  0  0  0  0  0  0  0  0  0  0
   -2.2238    1.1050   -3.8592 H   0  0  0  0  0  0  0  0  0  0  0  0
   -1.1409   -0.3239   -4.0156 H   0  0  0  0  0  0  0  0  0  0  0  0
   -2.7632    1.5578    2.1093 C   0  0  0  0  0  0  0  0  0  0  0  0
   -2.0285    0.7408    2.2561 H   0  0  0  0  0  0  0  0  0  0  0  0
   -3.7306    1.5250    3.2997 C   0  0  0  0  0  0  0  0  0  0  0  0
   -3.1743    1.6309    4.2536 H   0  0  0  0  0  0  0  0  0  0  0  0
   -4.2912    0.5704    3.3306 H   0  0  0  0  0  0  0  0  0  0  0  0
   -4.4676    2.3535    3.2586 H   0  0  0  0  0  0  0  0  0  0  0  0
   -1.9719    2.8775    2.0540 C   0  0  0  0  0  0  0  0  0  0  0  0
   -1.4029    3.0445    2.9919 H   0  0  0  0  0  0  0  0  0  0  0  0
   -2.6521    3.7414    1.9026 H   0  0  0  0  0  0  0  0  0  0  0  0
   -1.2497    2.8678    1.2115 H   0  0  0  0  0  0  0  0  0  0  0  0
  1  9  1  0  0  0  0
  6 14  1  0  0  0  0
  8 13  1  0  0  0  0
  9  3  1  0  0  0  0
  9  2  1  0  0  0  0
 10  7  1  6  0  0  0
 10 11  1  0  0  0  0
 10  9  1  0  0  0  0
 11 12  1  0  0  0  0
 13 11  2  0  0  0  0
 13 14  1  0  0  0  0
 14  4  1  0  0  0  0
 14  5  1  0  0  0  0
 15  7  1  0  0  0  0
 15 23  1  0  0  0  0
 16 15  2  0  0  0  0
 17 16  1  0  0  0  0
 17 19  2  0  0  0  0
 18 17  1  0  0  0  0
 19 21  1  0  0  0  0
 20 19  1  0  0  0  0
 21 23  2  0  0  0  0
 21 22  1  0  0  0  0
 23 34  1  0  0  0  0
 24 25  1  0  0  0  0
 24 16  1  0  0  0  0
 26 24  1  0  0  0  0
 26 28  1  0  0  0  0
 27 26  1  0  0  0  0
 29 26  1  0  0  0  0
 30 31  1  0  0  0  0
 30 24  1  0  0  0  0
 32 30  1  0  0  0  0
 33 30  1  0  0  0  0
 34 35  1  0  0  0  0
 34 36  1  0  0  0  0
 34 40  1  0  0  0  0
 36 39  1  0  0  0  0
 37 36  1  0  0  0  0
 38 36  1  0  0  0  0
 40 43  1  0  0  0  0
 40 42  1  0  0  0  0
 41 40  1  0  0  0  0
 44  8  1  0  0  0  0
 44 52  1  0  0  0  0
 45 44  2  0  0  0  0
 46 45  1  0  0  0  0
 46 48  2  0  0  0  0
 47 46  1  0  0  0  0
 48 50  1  0  0  0  0
 49 48  1  0  0  0  0
 50 52  2  0  0  0  0
 50 51  1  0  0  0  0
 52 63  1  0  0  0  0
 53 54  1  0  0  0  0
 53 45  1  0  0  0  0
 55 58  1  0  0  0  0
 55 53  1  0  0  0  0
 56 55  1  0  0  0  0
 57 55  1  0  0  0  0
 59 60  1  0  0  0  0
 59 53  1  0  0  0  0
 61 59  1  0  0  0  0
 62 59  1  0  0  0  0
 63 64  1  0  0  0  0
 63 65  1  0  0  0  0
 65 67  1  0  0  0  0
 65 66  1  0  0  0  0
 68 65  1  0  0  0  0
 69 63  1  0  0  0  0
 69 70  1  0  0  0  0
 71 69  1  0  0  0  0
 72 69  1  0  0  0  0
M  END
