2,3
q = 0.0, confidence = 0.998

 37 39  0  0  1  0  0  0  0  0999 V2000
    1.6908    0.4716    1.6066 O   0  0  0  0  0  0  0  0  0  0  0  0
   -0.1649   -0.8375    0.9956 N   0  0  0  0  0  0  0  0  0  0  0  0
   -1.4414    1.4625    0.1651 N   0  0  0  0  0  2  0  0  0  0  0  0
    0.2772    0.4624    1.5851 C   0  0  2  0  0  0  0  0  0  0  0  0
   -0.1147    0.5089    2.6276 H   0  0  0  0  0  0  0  0  0  0  0  0
    1.0028   -1.2372    0.1269 C   0  0  2  0  0  0  0  0  0  0  0  0
    0.9992   -2.3424    0.0742 H   0  0  0  0  0  0  0  0  0  0  0  0
    2.2000   -0.7164    0.9767 C   0  0  1  0  0  0  0  0  0  0  0  0
    2.4364   -1.4676    1.7663 H   0  0  0  0  0  0  0  0  0  0  0  0
   -0.3986   -1.8454    2.0659 C   0  0  0  0  0  0  0  0  0  0  0  0
    0.5229   -2.0321    2.6573 H   0  0  0  0  0  0  0  0  0  0  0  0
   -0.7614   -2.7699    1.5795 H   0  0  0  0  0  0  0  0  0  0  0  0
   -1.1975   -1.4742    2.7335 H   0  0  0  0  0  0  0  0  0  0  0  0
    0.9283   -0.6713   -1.2846 C   0  0  0  0  0  0  0  0  0  0  0  0
    0.0111   -1.0414   -1.7823 H   0  0  0  0  0  0  0  0  0  0  0  0
    1.8118   -1.0075   -1.8609 H   0  0  0  0  0  0  0  0  0  0  0  0
    0.9202    0.4359   -1.2997 H   0  0  0  0  0  0  0  0  0  0  0  0
    3.4634   -0.4294    0.2041 C   0  0  0  0  0  0  0  0  0  0  0  0
    4.3601   -1.4819   -0.0625 C   0  0  0  0  0  0  0  0  0  0  0  0
    4.1572   -2.4868    0.3418 H   0  0  0  0  0  0  0  0  0  0  0  0
    5.5073   -1.2596   -0.8374 C   0  0  0  0  0  0  0  0  0  0  0  0
    6.1992   -2.0907   -1.0413 H   0  0  0  0  0  0  0  0  0  0  0  0
    5.7770    0.0225   -1.3425 C   0  0  0  0  0  0  0  0  0  0  0  0
    6.6802    0.1997   -1.9455 H   0  0  0  0  0  0  0  0  0  0  0  0
    4.8935    1.0781   -1.0676 C   0  0  0  0  0  0  0  0  0  0  0  0
    5.1037    2.0868   -1.4544 H   0  0  0  0  0  0  0  0  0  0  0  0
    3.7409    0.8541   -0.3002 C   0  0  0  0  0  0  0  0  0  0  0  0
    3.0463    1.6767   -0.0790 H   0  0  0  0  0  0  0  0  0  0  0  0
   -0.2754    1.6588    0.8314 C   0  0  2  0  0  3  0  0  0  0  0  0
    0.3452    2.9113    0.8818 C   0  0  0  0  0  0  0  0  0  0  0  0
    1.2938    3.0124    1.4276 H   0  0  0  0  0  0  0  0  0  0  0  0
   -0.2646    3.9963    0.2360 C   0  0  0  0  0  0  0  0  0  0  0  0
    0.2026    4.9921    0.2568 H   0  0  0  0  0  0  0  0  0  0  0  0
   -1.4803    3.7872   -0.4325 C   0  0  0  0  0  0  0  0  0  0  0  0
   -1.9978    4.6081   -0.9491 H   0  0  0  0  0  0  0  0  0  0  0  0
   -2.0403    2.5062   -0.4544 C   0  0  0  0  0  0  0  0  0  0  0  0
   -2.9790    2.2476   -0.9750 H   0  0  0  0  0  0  0  0  0  0  0  0
  2  4  1  0  0  0  0
  2 10  1  0  0  0  0
  4  1  1  0  0  0  0
  4  5  1  1  0  0  0
  6  7  1  6  0  0  0
  6  8  1  0  0  0  0
  6  2  1  0  0  0  0
  8  1  1  0  0  0  0
  8  9  1  1  0  0  0
 10 11  1  0  0  0  0
 10 13  1  0  0  0  0
 12 10  1  0  0  0  0
 14  6  1  0  0  0  0
 15 14  1  0  0  0  0
 16 14  1  0  0  0  0
 17 14  1  0  0  0  0
 18  8  1  0  0  0  0
 19 18  1  0  0  0  0
 19 20  1  0  0  0  0
 21 19  2  0  0  0  0
 22 21  1  0  0  0  0
 23 25  2  0  0  0  0
 23 21  1  0  0  0  0
 24 23  1  0  0  0  0
 25 27  1  0  0  0  0
 26 25  1  0  0  0  0
 27 28  1  0  0  0  0
 27 18  2  0  0  0  0
 29  3  1  1  0  0  0
 29 30  1  0  0  0  0
 29  4  1  0  0  0  0
 30 31  1  0  0  0  0
 32 33  1  0  0  0  0
 32 30  2  0  0  0  0
 34 32  1  0  0  0  0
 35 34  1  0  0  0  0
 36 34  2  0  0  0  0
 36  3  1  0  0  0  0
 37 36  1  0  0  0  0
M  END
