1,2
q = 0.0, confidence = 0.998

 32 33  0  0  1  0  0  0  0  0999 V2000
   -1.2956    0.3092    0.1586 N   0  0  0  0  0  2  0  0  0  0  0  0
    1.3492    0.2096    0.1601 N   0  0  0  0  0  2  0  0  0  0  0  0
   -2.6353    0.2381    0.1520 C   0  0  0  0  0  3  0  0  0  0  0  0
   -3.4578    1.3736    0.0875 C   0  0  0  0  0  0  0  0  0  0  0  0
   -2.8310    2.6468    0.0283 C   0  0  0  0  0  0  0  0  0  0  0  0
   -1.4285    2.6949    0.0348 C   0  0  0  0  0  0  0  0  0  0  0  0
   -0.6716    1.5133    0.0953 C   0  0  0  0  0  0  0  0  0  0  0  0
    0.7997    1.4588    0.1010 C   0  0  1  0  0  3  0  0  0  0  0  0
    1.6260    2.5936    0.0588 C   0  0  0  0  0  0  0  0  0  0  0  0
    3.0222    2.4791    0.0637 C   0  0  0  0  0  0  0  0  0  0  0  0
    3.5758    1.1720    0.1212 C   0  0  0  0  0  0  0  0  0  0  0  0
    2.6922    0.0865    0.1690 C   0  0  0  0  0  0  0  0  0  0  0  0
   -3.6499    3.9040   -0.0482 C   0  0  0  0  0  0  0  0  0  0  0  0
    3.9068    3.6914    0.0051 C   0  0  0  0  0  0  0  0  0  0  0  0
   -4.9522    1.2255    0.0717 C   0  0  0  0  0  0  0  0  0  0  0  0
    5.0601    0.9419    0.1233 C   0  0  0  0  0  0  0  0  0  0  0  0
   -3.0365   -0.7921    0.1723 H   0  0  0  0  0  0  0  0  0  0  0  0
   -0.9240    3.6697   -0.0172 H   0  0  0  0  0  0  0  0  0  0  0  0
    1.1689    3.5917    0.0131 H   0  0  0  0  0  0  0  0  0  0  0  0
    3.0803   -0.9411    0.2071 H   0  0  0  0  0  0  0  0  0  0  0  0
   -4.3319    3.9915    0.8234 H   0  0  0  0  0  0  0  0  0  0  0  0
   -4.2976    3.9021   -0.9499 H   0  0  0  0  0  0  0  0  0  0  0  0
   -3.0144    4.8087   -0.0826 H   0  0  0  0  0  0  0  0  0  0  0  0
    4.5650    3.6622   -0.8886 H   0  0  0  0  0  0  0  0  0  0  0  0
    4.5805    3.7406    0.8862 H   0  0  0  0  0  0  0  0  0  0  0  0
    3.3186    4.6273   -0.0320 H   0  0  0  0  0  0  0  0  0  0  0  0
    5.5471    1.4480    0.9831 H   0  0  0  0  0  0  0  0  0  0  0  0
    5.5314    1.3534   -0.7939 H   0  0  0  0  0  0  0  0  0  0  0  0
    5.3044   -0.1356    0.1766 H   0  0  0  0  0  0  0  0  0  0  0  0
   -5.3902    1.6607   -0.8513 H   0  0  0  0  0  0  0  0  0  0  0  0
   -5.4224    1.7578    0.9255 H   0  0  0  0  0  0  0  0  0  0  0  0
   -5.2507    0.1619    0.1223 H   0  0  0  0  0  0  0  0  0  0  0  0
  2 12  1  0  0  0  0
  3  1  1  0  0  0  0
  3 17  1  0  0  0  0
  4  3  1  0  0  0  0
  5  6  1  0  0  0  0
  5  4  2  0  0  0  0
  6  7  2  0  0  0  0
  7  1  1  0  0  0  0
  8  7  1  1  0  0  0
  8  2  1  0  0  0  0
  9 10  2  0  0  0  0
  9  8  1  0  0  0  0
 10 11  1  0  0  0  0
 11 16  1  0  0  0  0
 11 12  2  0  0  0  0
 12 20  1  0  0  0  0
 13  5  1  0  0  0  0
 13 21  1  0  0  0  0
 14 10  1  0  0  0  0
 14 25  1  0  0  0  0
 15  4  1  0  0  0  0
 15 32  1  0  0  0  0
 15 31  1  0  0  0  0
 16 29  1  0  0  0  0
 16 27  1  0  0  0  0
 18  6  1  0  0  0  0
 19  9  1  0  0  0  0
 22 13  1  0  0  0  0
 23 13  1  0  0  0  0
 24 14  1  0  0  0  0
 26 14  1  0  0  0  0
 28 16  1  0  0  0  0
 30 15  1  0  0  0  0
M  END
