1,4
q = 0.0, confidence = 0.996

 17 18  0  0  1  0  0  0  0  0999 V2000
   -1.9807   -0.9936   -0.0506 N   0  0  0  0  0  2  0  0  0  0  0  0
   -2.7158    3.4068   -0.2283 N   0  0  0  0  0  0  0  0  0  0  0  0
   -1.4745    2.9767   -0.5335 N   0  0  0  0  0  2  0  0  0  0  0  0
   -1.5201    1.6783   -0.5067 N   0  0  0  0  0  2  0  0  0  0  0  0
   -3.0670   -0.1928   -0.0731 C   0  0  2  0  0  3  0  0  0  0  0  0
   -3.5750    2.3737   -0.0079 C   0  0  0  0  0  0  0  0  0  0  0  0
   -4.6230    2.5195    0.2676 H   0  0  0  0  0  0  0  0  0  0  0  0
   -3.3896   -2.9300    0.0858 C   0  0  0  0  0  0  0  0  0  0  0  0
   -3.4742   -4.0245    0.1457 H   0  0  0  0  0  0  0  0  0  0  0  0
   -2.1282   -2.3224    0.0087 C   0  0  0  0  0  0  0  0  0  0  0  0
   -1.1937   -2.9082   -0.0068 H   0  0  0  0  0  0  0  0  0  0  0  0
   -4.3706   -0.7217   -0.0118 C   0  0  0  0  0  0  0  0  0  0  0  0
   -5.2448   -0.0554   -0.0484 H   0  0  0  0  0  0  0  0  0  0  0  0
   -4.5286   -2.1099    0.0792 C   0  0  0  0  0  0  0  0  0  0  0  0
   -5.5359   -2.5496    0.1331 H   0  0  0  0  0  0  0  0  0  0  0  0
   -2.7837    1.2426   -0.1868 C   0  0  0  0  0  0  0  0  0  0  0  0
   -2.9021    4.4106   -0.1804 H   0  0  0  0  0  0  0  0  0  0  0  0
  1 10  1  0  0  0  0
  2 17  1  0  0  0  0
  2  6  1  0  0  0  0
  3  4  1  0  0  0  0
  3  2  1  0  0  0  0
  4 16  1  0  0  0  0
  5 16  1  6  0  0  0
  5  1  1  0  0  0  0
  5 12  1  0  0  0  0
  6  7  1  0  0  0  0
  8  9  1  0  0  0  0
 10  8  2  0  0  0  0
 11 10  1  0  0  0  0
 12 14  2  0  0  0  0
 13 12  1  0  0  0  0
 14  8  1  0  0  0  0
 14 15  1  0  0  0  0
 16  6  2  0  0  0  0
M  END
