3,4
q = 0.0, confidence = 0.934

 62 67  0  0  1  0  0  0  0  0999 V2000
   -7.3911   -0.3916    0.0007 Br  0  0  0  0  0  0  0  0  0  0  0  0
    7.3909   -0.3919    0.0019 Br  0  0  0  0  0  0  0  0  0  0  0  0
   -1.2901   -0.1771   -0.0006 N   0  0  0  0  0  2  0  0  0  0  0  0
    1.2900   -0.1774   -0.0017 N   0  0  0  0  0  2  0  0  0  0  0  0
   -1.4148    3.6059   -2.3145 C   0  0  0  0  0  0  0  0  0  0  0  0
   -2.5155    3.5983   -2.3146 H   0  0  0  0  0  0  0  0  0  0  0  0
   -0.7017    4.1557   -3.3957 C   0  0  0  0  0  0  0  0  0  0  0  0
   -1.2497    4.5858   -4.2473 H   0  0  0  0  0  0  0  0  0  0  0  0
    0.7023    4.1554   -3.3958 C   0  0  0  0  0  0  0  0  0  0  0  0
    1.2503    4.5854   -4.2474 H   0  0  0  0  0  0  0  0  0  0  0  0
    1.4154    3.6055   -2.3146 C   0  0  0  0  0  0  0  0  0  0  0  0
    2.5161    3.5975   -2.3149 H   0  0  0  0  0  0  0  0  0  0  0  0
    0.7083    3.0662   -1.2340 C   0  0  0  0  0  0  0  0  0  0  0  0
   -0.7077    3.0664   -1.2339 C   0  0  0  0  0  0  0  0  0  0  0  0
   -1.3214    2.4036   -0.0000 C   0  0  2  0  0  0  0  0  0  0  0  0
   -2.4247    2.4003    0.0001 H   0  0  0  0  0  0  0  0  0  0  0  0
   -0.7076    3.0648    1.2347 C   0  0  0  0  0  0  0  0  0  0  0  0
    0.7084    3.0647    1.2346 C   0  0  0  0  0  0  0  0  0  0  0  0
    1.3219    2.4032   -0.0001 C   0  0  1  0  0  0  0  0  0  0  0  0
    2.4252    2.3997   -0.0001 H   0  0  0  0  0  0  0  0  0  0  0  0
   -1.4146    3.6029    2.3160 C   0  0  0  0  0  0  0  0  0  0  0  0
   -2.5153    3.5952    2.3163 H   0  0  0  0  0  0  0  0  0  0  0  0
   -0.7015    4.1513    3.3979 C   0  0  0  0  0  0  0  0  0  0  0  0
   -1.2494    4.5803    4.2501 H   0  0  0  0  0  0  0  0  0  0  0  0
    0.7026    4.1512    3.3979 C   0  0  0  0  0  0  0  0  0  0  0  0
    1.2507    4.5801    4.2500 H   0  0  0  0  0  0  0  0  0  0  0  0
    1.4155    3.6026    2.3159 C   0  0  0  0  0  0  0  0  0  0  0  0
    2.5163    3.5947    2.3161 H   0  0  0  0  0  0  0  0  0  0  0  0
   -0.7239    1.0073   -0.0008 C   0  0  0  0  0  0  0  0  0  0  0  0
    0.7241    1.0071   -0.0010 C   0  0  0  0  0  0  0  0  0  0  0  0
   -2.7162   -0.2530   -0.0003 C   0  0  0  0  0  0  0  0  0  0  0  0
   -3.3952   -0.2903    1.2390 C   0  0  0  0  0  0  0  0  0  0  0  0
   -4.8004   -0.3315    1.2223 C   0  0  0  0  0  0  0  0  0  0  0  0
   -5.3571   -0.3652    2.1696 H   0  0  0  0  0  0  0  0  0  0  0  0
   -5.4870   -0.3439    0.0003 C   0  0  0  0  0  0  0  0  0  0  0  0
   -4.8009   -0.3315   -1.2220 C   0  0  0  0  0  0  0  0  0  0  0  0
   -5.3581   -0.3652   -2.1691 H   0  0  0  0  0  0  0  0  0  0  0  0
   -3.3957   -0.2902   -1.2393 C   0  0  0  0  0  0  0  0  0  0  0  0
   -2.6167   -0.3203    2.5260 C   0  0  0  0  0  0  0  0  0  0  0  0
   -1.9046   -1.1727    2.5097 H   0  0  0  0  0  0  0  0  0  0  0  0
   -3.2855   -0.4337    3.3992 H   0  0  0  0  0  0  0  0  0  0  0  0
   -2.0150    0.6024    2.6700 H   0  0  0  0  0  0  0  0  0  0  0  0
   -2.6177   -0.3201   -2.5266 C   0  0  0  0  0  0  0  0  0  0  0  0
   -1.9041   -1.1711   -2.5098 H   0  0  0  0  0  0  0  0  0  0  0  0
   -2.0178    0.6036   -2.6717 H   0  0  0  0  0  0  0  0  0  0  0  0
   -3.2867   -0.4355   -3.3994 H   0  0  0  0  0  0  0  0  0  0  0  0
    2.7161   -0.2535   -0.0008 C   0  0  0  0  0  0  0  0  0  0  0  0
    3.3946   -0.2912    1.2388 C   0  0  0  0  0  0  0  0  0  0  0  0
    4.7998   -0.3325    1.2225 C   0  0  0  0  0  0  0  0  0  0  0  0
    5.3562   -0.3665    2.1700 H   0  0  0  0  0  0  0  0  0  0  0  0
    5.4869   -0.3444    0.0008 C   0  0  0  0  0  0  0  0  0  0  0  0
    4.8012   -0.3314   -1.2218 C   0  0  0  0  0  0  0  0  0  0  0  0
    5.3588   -0.3646   -2.1686 H   0  0  0  0  0  0  0  0  0  0  0  0
    3.3961   -0.2901   -1.2396 C   0  0  0  0  0  0  0  0  0  0  0  0
    2.6157   -0.3217    2.5254 C   0  0  0  0  0  0  0  0  0  0  0  0
    3.2841   -0.4364    3.3988 H   0  0  0  0  0  0  0  0  0  0  0  0
    1.9028   -1.1734    2.5081 H   0  0  0  0  0  0  0  0  0  0  0  0
    2.0147    0.6015    2.6701 H   0  0  0  0  0  0  0  0  0  0  0  0
    2.6186   -0.3192   -2.5272 C   0  0  0  0  0  0  0  0  0  0  0  0
    3.2879   -0.4341   -3.3998 H   0  0  0  0  0  0  0  0  0  0  0  0
    2.0187    0.6047   -2.6719 H   0  0  0  0  0  0  0  0  0  0  0  0
    1.9048   -1.1701   -2.5112 H   0  0  0  0  0  0  0  0  0  0  0  0
  3 31  1  0  0  0  0
  4 30  1  0  0  0  0
  4 47  1  0  0  0  0
  5 14  1  0  0  0  0
  6  5  1  0  0  0  0
  7  5  2  0  0  0  0
  8  7  1  0  0  0  0
  9  7  1  0  0  0  0
  9 11  2  0  0  0  0
 10  9  1  0  0  0  0
 11 13  1  0  0  0  0
 12 11  1  0  0  0  0
 13 14  2  0  0  0  0
 13 19  1  0  0  0  0
 14 15  1  0  0  0  0
 15 16  1  1  0  0  0
 15 17  1  0  0  0  0
 17 21  1  0  0  0  0
 18 17  2  0  0  0  0
 18 27  1  0  0  0  0
 19 20  1  6  0  0  0
 19 18  1  0  0  0  0
 21 22  1  0  0  0  0
 21 23  2  0  0  0  0
 23 24  1  0  0  0  0
 25 23  1  0  0  0  0
 25 26  1  0  0  0  0
 27 28  1  0  0  0  0
 27 25  2  0  0  0  0
 29  3  1  0  0  0  0
 29 15  1  0  0  0  0
 30 29  2  0  0  0  0
 30 19  1  0  0  0  0
 31 32  1  0  0  0  0
 32 39  1  0  0  0  0
 33 32  2  0  0  0  0
 33 34  1  0  0  0  0
 35  1  1  0  0  0  0
 35 33  1  0  0  0  0
 36 35  2  0  0  0  0
 37 36  1  0  0  0  0
 38 36  1  0  0  0  0
 38 31  2  0  0  0  0
 39 42  1  0  0  0  0
 39 41  1  0  0  0  0
 40 39  1  0  0  0  0
 43 44  1  0  0  0  0
 43 38  1  0  0  0  0
 45 43  1  0  0  0  0
 46 43  1  0  0  0  0
 47 48  1  0  0  0  0
 48 55  1  0  0  0  0
 49 48  2  0  0  0  0
 49 50  1  0  0  0  0
 51  2  1  0  0  0  0
 51 49  1  0  0  0  0
 52 51  2  0  0  0  0
 53 52  1  0  0  0  0
 54 52  1  0  0  0  0
 54 47  2  0  0  0  0
 55 58  1  0  0  0  0
 55 56  1  0  0  0  0
 57 55  1  0  0  0  0
 59 62  1  0  0  0  0
 59 54  1  0  0  0  0
 60 59  1  0  0  0  0
 61 59  1  0  0  0  0
M  END
