1,2
q = -1.0, confidence = 0.0

 57 58  0  0  0  0  0  0  0  0999 V2000
   -1.8381   -0.0263   -0.5694 N   0  0  0  0  0  2  0  0  0  0  0  0
    0.6769    0.2202   -0.1496 N   0  0  0  0  0  2  0  0  0  0  0  0
   -1.3142    1.1753   -0.9834 C   0  0  0  0  0  0  0  0  0  0  0  0
   -1.9558    2.2274   -1.6048 C   0  0  0  0  0  3  0  0  0  0  0  0
   -3.0427    2.1707   -1.7661 H   0  0  0  0  0  0  0  0  0  0  0  0
   -1.2536    3.4775   -2.0507 C   0  0  0  0  0  0  0  0  0  0  0  0
   -1.4306    4.2962   -1.3084 H   0  0  0  0  0  0  0  0  0  0  0  0
   -1.7042    3.8496   -2.9957 H   0  0  0  0  0  0  0  0  0  0  0  0
    0.2523    3.2675   -2.2238 C   0  0  0  0  0  0  0  0  0  0  0  0
    0.7703    4.2333   -2.3920 H   0  0  0  0  0  0  0  0  0  0  0  0
    0.4316    2.6425   -3.1257 H   0  0  0  0  0  0  0  0  0  0  0  0
    0.8490    2.5612   -1.0033 C   0  0  0  0  0  0  0  0  0  0  0  0
    1.9345    2.3690   -1.1134 H   0  0  0  0  0  0  0  0  0  0  0  0
    0.7468    3.2175   -0.1070 H   0  0  0  0  0  0  0  0  0  0  0  0
    0.1269    1.2749   -0.7022 C   0  0  0  0  0  0  0  0  0  0  0  0
   -3.2520   -0.2912   -0.7746 C   0  0  0  0  0  0  0  0  0  0  0  0
   -3.4128   -1.3926   -0.6865 H   0  0  0  0  0  0  0  0  0  0  0  0
   -3.5485   -0.0402   -1.8235 H   0  0  0  0  0  0  0  0  0  0  0  0
   -4.1914    0.4110    0.2184 C   0  0  0  0  0  0  0  0  0  0  0  0
   -3.8949    0.1142    1.2473 H   0  0  0  0  0  0  0  0  0  0  0  0
   -4.0399    1.5109    0.1645 H   0  0  0  0  0  0  0  0  0  0  0  0
   -5.6673    0.0801   -0.0153 C   0  0  0  0  0  0  0  0  0  0  0  0
   -5.9513    0.3720   -1.0514 H   0  0  0  0  0  0  0  0  0  0  0  0
   -5.8043   -1.0238    0.0305 H   0  0  0  0  0  0  0  0  0  0  0  0
   -6.6054    0.7557    0.9854 C   0  0  0  0  0  0  0  0  0  0  0  0
   -6.3676    0.4515    2.0261 H   0  0  0  0  0  0  0  0  0  0  0  0
   -7.6667    0.4977    0.7952 H   0  0  0  0  0  0  0  0  0  0  0  0
   -6.5157    1.8613    0.9383 H   0  0  0  0  0  0  0  0  0  0  0  0
    2.0618    0.2504    0.1983 C   0  0  0  0  0  0  0  0  0  0  0  0
    2.9837   -0.4231   -0.6468 C   0  0  0  0  0  0  0  0  0  0  0  0
    4.3415   -0.4176   -0.2846 C   0  0  0  0  0  0  0  0  0  0  0  0
    5.0737   -0.9296   -0.9258 H   0  0  0  0  0  0  0  0  0  0  0  0
    4.7753    0.2189    0.8862 C   0  0  0  0  0  0  0  0  0  0  0  0
    5.8419    0.2080    1.1567 H   0  0  0  0  0  0  0  0  0  0  0  0
    3.8475    0.8578    1.7164 C   0  0  0  0  0  0  0  0  0  0  0  0
    4.1928    1.3419    2.6427 H   0  0  0  0  0  0  0  0  0  0  0  0
    2.4774    0.8924    1.3933 C   0  0  0  0  0  0  0  0  0  0  0  0
    2.4971   -1.1141   -1.9157 C   0  0  0  0  0  0  0  0  0  0  0  0
    1.4464   -1.4274   -1.7235 H   0  0  0  0  0  0  0  0  0  0  0  0
    2.4667   -0.1416   -3.1087 C   0  0  0  0  0  0  0  0  0  0  0  0
    1.8160    0.7324   -2.9124 H   0  0  0  0  0  0  0  0  0  0  0  0
    2.0853   -0.6471   -4.0195 H   0  0  0  0  0  0  0  0  0  0  0  0
    3.4854    0.2398   -3.3284 H   0  0  0  0  0  0  0  0  0  0  0  0
    3.2883   -2.3809   -2.2642 C   0  0  0  0  0  0  0  0  0  0  0  0
    4.3252   -2.1478   -2.5833 H   0  0  0  0  0  0  0  0  0  0  0  0
    2.8022   -2.9158   -3.1047 H   0  0  0  0  0  0  0  0  0  0  0  0
    3.3446   -3.0747   -1.4018 H   0  0  0  0  0  0  0  0  0  0  0  0
    1.4825    1.5531    2.3437 C   0  0  0  0  0  0  0  0  0  0  0  0
    0.5127    1.6417    1.8136 H   0  0  0  0  0  0  0  0  0  0  0  0
    1.9134    2.9709    2.7522 C   0  0  0  0  0  0  0  0  0  0  0  0
    2.8359    2.9583    3.3684 H   0  0  0  0  0  0  0  0  0  0  0  0
    1.1225    3.4585    3.3577 H   0  0  0  0  0  0  0  0  0  0  0  0
    2.1137    3.6091    1.8677 H   0  0  0  0  0  0  0  0  0  0  0  0
    1.2314    0.6692    3.5794 C   0  0  0  0  0  0  0  0  0  0  0  0
    2.1683    0.5130    4.1532 H   0  0  0  0  0  0  0  0  0  0  0  0
    0.8450   -0.3270    3.2881 H   0  0  0  0  0  0  0  0  0  0  0  0
    0.4905    1.1417    4.2568 H   0  0  0  0  0  0  0  0  0  0  0  0
  2 29  1  0  0  0  0
  3 15  2  0  0  0  0
  3  1  1  0  0  0  0
  4  3  1  0  0  0  0
  5  4  1  0  0  0  0
  6  4  1  0  0  0  0
  6  7  1  0  0  0  0
  8  6  1  0  0  0  0
  9  6  1  0  0  0  0
  9 12  1  0  0  0  0
 10  9  1  0  0  0  0
 11  9  1  0  0  0  0
 12 15  1  0  0  0  0
 12 14  1  0  0  0  0
 13 12  1  0  0  0  0
 15  2  1  0  0  0  0
 16 17  1  0  0  0  0
 16  1  1  0  0  0  0
 16 19  1  0  0  0  0
 18 16  1  0  0  0  0
 19 20  1  0  0  0  0
 21 19  1  0  0  0  0
 22 24  1  0  0  0  0
 22 19  1  0  0  0  0
 22 25  1  0  0  0  0
 23 22  1  0  0  0  0
 25 26  1  0  0  0  0
 27 25  1  0  0  0  0
 28 25  1  0  0  0  0
 29 37  1  0  0  0  0
 30 31  1  0  0  0  0
 30 29  2  0  0  0  0
 31 33  2  0  0  0  0
 32 31  1  0  0  0  0
 33 34  1  0  0  0  0
 33 35  1  0  0  0  0
 35 36  1  0  0  0  0
 37 35  2  0  0  0  0
 37 48  1  0  0  0  0
 38 39  1  0  0  0  0
 38 30  1  0  0  0  0
 40 41  1  0  0  0  0
 40 38  1  0  0  0  0
 42 40  1  0  0  0  0
 43 40  1  0  0  0  0
 44 38  1  0  0  0  0
 44 47  1  0  0  0  0
 45 44  1  0  0  0  0
 46 44  1  0  0  0  0
 48 50  1  0  0  0  0
 48 54  1  0  0  0  0
 49 48  1  0  0  0  0
 50 52  1  0  0  0  0
 50 51  1  0  0  0  0
 53 50  1  0  0  0  0
 54 55  1  0  0  0  0
 54 57  1  0  0  0  0
 56 54  1  0  0  0  0
M  END
