1,2
q = 0.0, confidence = 0.998

 56 61  0  0  0  0  0  0  0  0999 V2000
   -2.7215    1.8690    0.7666 N   0  0  0  0  0  2  0  0  0  0  0  0
   -2.7220   -1.8691   -0.7668 N   0  0  0  0  0  2  0  0  0  0  0  0
   -3.7834    2.6861    0.6299 C   0  0  0  0  0  3  0  0  0  0  0  0
   -4.6397    2.2662    0.0839 H   0  0  0  0  0  0  0  0  0  0  0  0
   -3.7879    3.9900    1.1358 C   0  0  0  0  0  0  0  0  0  0  0  0
   -4.6799    4.6182    1.0063 H   0  0  0  0  0  0  0  0  0  0  0  0
   -2.6420    4.4649    1.7913 C   0  0  0  0  0  0  0  0  0  0  0  0
   -2.6110    5.4868    2.1977 H   0  0  0  0  0  0  0  0  0  0  0  0
   -1.5327    3.6246    1.9152 C   0  0  0  0  0  0  0  0  0  0  0  0
   -0.6084    3.9547    2.4078 H   0  0  0  0  0  0  0  0  0  0  0  0
   -1.5890    2.3139    1.3915 C   0  0  0  0  0  0  0  0  0  0  0  0
   -0.4895    1.4159    1.4682 C   0  0  0  0  0  0  0  0  0  0  0  0
    0.4314    0.6008    1.4955 C   0  0  0  0  0  0  0  0  0  0  0  0
    1.4121   -0.4299    1.5329 C   0  0  0  0  0  0  0  0  0  0  0  0
    1.3242   -1.4244    2.5603 C   0  0  0  0  0  0  0  0  0  0  0  0
    0.4924   -1.3603    3.2756 H   0  0  0  0  0  0  0  0  0  0  0  0
    2.2497   -2.4472    2.6171 C   0  0  0  0  0  0  0  0  0  0  0  0
    2.1810   -3.2118    3.4063 H   0  0  0  0  0  0  0  0  0  0  0  0
    3.2984   -2.5457    1.6550 C   0  0  0  0  0  0  0  0  0  0  0  0
    3.3781   -1.5662    0.5968 C   0  0  0  0  0  0  0  0  0  0  0  0
    2.4203   -0.5020    0.5513 C   0  0  0  0  0  0  0  0  0  0  0  0
    4.2588   -3.5972    1.6965 C   0  0  0  0  0  0  0  0  0  0  0  0
    4.1917   -4.3386    2.5080 H   0  0  0  0  0  0  0  0  0  0  0  0
    5.2552   -3.6924    0.7361 C   0  0  0  0  0  0  0  0  0  0  0  0
    5.9899   -4.5104    0.7818 H   0  0  0  0  0  0  0  0  0  0  0  0
    5.3260   -2.7374   -0.3133 C   0  0  0  0  0  0  0  0  0  0  0  0
    6.1137   -2.8232   -1.0770 H   0  0  0  0  0  0  0  0  0  0  0  0
    4.4080   -1.7004   -0.3832 C   0  0  0  0  0  0  0  0  0  0  0  0
    4.4626   -0.9647   -1.1985 H   0  0  0  0  0  0  0  0  0  0  0  0
   -3.7841   -2.6859   -0.6301 C   0  0  0  0  0  3  0  0  0  0  0  0
   -4.6406   -2.2655   -0.0850 H   0  0  0  0  0  0  0  0  0  0  0  0
   -3.7886   -3.9901   -1.1352 C   0  0  0  0  0  0  0  0  0  0  0  0
   -4.6808   -4.6181   -1.0059 H   0  0  0  0  0  0  0  0  0  0  0  0
   -2.6423   -4.4656   -1.7897 C   0  0  0  0  0  0  0  0  0  0  0  0
   -2.6113   -5.4878   -2.1955 H   0  0  0  0  0  0  0  0  0  0  0  0
   -1.5328   -3.6256   -1.9136 C   0  0  0  0  0  0  0  0  0  0  0  0
   -0.6084   -3.9562   -2.4055 H   0  0  0  0  0  0  0  0  0  0  0  0
   -1.5893   -2.3146   -1.3908 C   0  0  0  0  0  0  0  0  0  0  0  0
   -0.4896   -1.4168   -1.4676 C   0  0  0  0  0  0  0  0  0  0  0  0
    0.4311   -0.6014   -1.4950 C   0  0  0  0  0  0  0  0  0  0  0  0
    1.4114    0.4296   -1.5326 C   0  0  0  0  0  0  0  0  0  0  0  0
    1.3227    1.4244   -2.5597 C   0  0  0  0  0  0  0  0  0  0  0  0
    0.4904    1.3601   -3.2746 H   0  0  0  0  0  0  0  0  0  0  0  0
    2.2478    2.4474   -2.6168 C   0  0  0  0  0  0  0  0  0  0  0  0
    2.1785    3.2122   -3.4058 H   0  0  0  0  0  0  0  0  0  0  0  0
    3.2970    2.5460   -1.6552 C   0  0  0  0  0  0  0  0  0  0  0  0
    3.3774    1.5664   -0.5972 C   0  0  0  0  0  0  0  0  0  0  0  0
    2.4199    0.5019   -0.5514 C   0  0  0  0  0  0  0  0  0  0  0  0
    4.2571    3.5978   -1.6969 C   0  0  0  0  0  0  0  0  0  0  0  0
    4.1893    4.3394   -2.5082 H   0  0  0  0  0  0  0  0  0  0  0  0
    5.2538    3.6932   -0.7369 C   0  0  0  0  0  0  0  0  0  0  0  0
    5.9883    4.5115   -0.7828 H   0  0  0  0  0  0  0  0  0  0  0  0
    5.3254    2.7381    0.3122 C   0  0  0  0  0  0  0  0  0  0  0  0
    6.1133    2.8240    1.0757 H   0  0  0  0  0  0  0  0  0  0  0  0
    4.4077    1.7007    0.3824 C   0  0  0  0  0  0  0  0  0  0  0  0
    4.4628    0.9650    1.1976 H   0  0  0  0  0  0  0  0  0  0  0  0
  1 11  1  0  0  0  0
  2 30  1  0  0  0  0
  3  1  1  0  0  0  0
  3  5  1  0  0  0  0
  4  3  1  0  0  0  0
  5  7  2  0  0  0  0
  6  5  1  0  0  0  0
  7  9  1  0  0  0  0
  7  8  1  0  0  0  0
  9 10  1  0  0  0  0
 11 12  1  0  0  0  0
 11  9  2  0  0  0  0
 12 13  3  0  0  0  0
 13 14  1  0  0  0  0
 14 15  1  0  0  0  0
 15 17  2  0  0  0  0
 15 16  1  0  0  0  0
 17 18  1  0  0  0  0
 19 22  1  0  0  0  0
 19 17  1  0  0  0  0
 20 19  2  0  0  0  0
 21 20  1  0  0  0  0
 21 14  2  0  0  0  0
 22 23  1  0  0  0  0
 24 25  1  0  0  0  0
 24 22  2  0  0  0  0
 26 24  1  0  0  0  0
 27 26  1  0  0  0  0
 28 26  2  0  0  0  0
 28 20  1  0  0  0  0
 29 28  1  0  0  0  0
 30 31  1  0  0  0  0
 32 33  1  0  0  0  0
 32 30  1  0  0  0  0
 34 32  2  0  0  0  0
 35 34  1  0  0  0  0
 36 34  1  0  0  0  0
 36 38  2  0  0  0  0
 37 36  1  0  0  0  0
 38  2  1  0  0  0  0
 39 38  1  0  0  0  0
 40 39  3  0  0  0  0
 41 40  1  0  0  0  0
 41 48  1  0  0  0  0
 42 41  2  0  0  0  0
 43 42  1  0  0  0  0
 44 42  1  0  0  0  0
 44 46  2  0  0  0  0
 45 44  1  0  0  0  0
 46 47  1  0  0  0  0
 47 48  2  0  0  0  0
 47 55  1  0  0  0  0
 48 21  1  0  0  0  0
 49 46  1  0  0  0  0
 49 51  2  0  0  0  0
 50 49  1  0  0  0  0
 51 53  1  0  0  0  0
 52 51  1  0  0  0  0
 53 55  2  0  0  0  0
 53 54  1  0  0  0  0
 55 56  1  0  0  0  0
M  END
