22,24
q = 0.0, confidence = 0.996

 24 26  0  0  1  0  0  0  0  0999 V2000
   -4.4681    0.4046    0.5672 C   0  0  0  0  0  0  0  0  0  0  0  0
   -4.9531    1.2423    1.0765 H   0  0  0  0  0  0  0  0  0  0  0  0
   -4.9787   -0.8293    0.2455 C   0  0  0  0  0  0  0  0  0  0  0  0
   -5.9939   -1.1776    0.4632 H   0  0  0  0  0  0  0  0  0  0  0  0
   -3.7986   -2.8320   -1.0200 C   0  0  0  0  0  0  0  0  0  0  0  0
   -4.6421   -3.5367   -1.0546 H   0  0  0  0  0  0  0  0  0  0  0  0
   -2.5613   -3.1558   -1.5949 C   0  0  0  0  0  0  0  0  0  0  0  0
   -2.4159   -4.1139   -2.1129 H   0  0  0  0  0  0  0  0  0  0  0  0
   -1.4725   -2.2713   -1.4952 C   0  0  0  0  0  3  0  0  0  0  0  0
   -0.4811   -2.5010   -1.9113 H   0  0  0  0  0  0  0  0  0  0  0  0
   -2.7842   -0.7218   -0.4150 C   0  0  0  0  0  0  0  0  0  0  0  0
   -2.4372    1.7183   -0.0663 C   0  0  1  0  0  3  0  0  0  0  0  0
   -3.1270    2.9461   -0.0431 C   0  0  0  0  0  0  0  0  0  0  0  0
   -4.2038    2.9749    0.1618 H   0  0  0  0  0  0  0  0  0  0  0  0
   -2.4344    4.1234   -0.3379 C   0  0  0  0  0  0  0  0  0  0  0  0
   -2.9627    5.0878   -0.3206 H   0  0  0  0  0  0  0  0  0  0  0  0
   -1.0807    4.0500   -0.6970 C   0  0  0  0  0  0  0  0  0  0  0  0
   -0.5064    4.9437   -0.9763 H   0  0  0  0  0  0  0  0  0  0  0  0
   -0.4662    2.7987   -0.7129 C   0  0  0  0  0  0  0  0  0  0  0  0
    0.5780    2.6602   -1.0257 H   0  0  0  0  0  0  0  0  0  0  0  0
   -3.9294   -1.5674   -0.4149 C   0  0  0  0  0  0  0  0  0  0  0  0
   -1.5719   -1.0790   -0.8616 N   0  0  0  0  0  2  0  0  0  0  0  0
   -3.1218    0.5044    0.1598 N   0  0  0  0  0  0  0  0  0  0  0  0
   -1.1145    1.6604   -0.3603 N   0  0  0  0  0  2  0  0  0  0  0  0
  1  2  1  0  0  0  0
  3  4  1  0  0  0  0
  3  1  2  0  0  0  0
  5 21  1  0  0  0  0
  6  5  1  0  0  0  0
  7  9  1  0  0  0  0
  7  5  2  0  0  0  0
  8  7  1  0  0  0  0
  9 22  1  0  0  0  0
 10  9  1  0  0  0  0
 11 21  2  0  0  0  0
 11 23  1  0  0  0  0
 12 13  1  0  0  0  0
 12 23  1  6  0  0  0
 13 14  1  0  0  0  0
 15 16  1  0  0  0  0
 15 13  2  0  0  0  0
 17 15  1  0  0  0  0
 18 17  1  0  0  0  0
 19 17  2  0  0  0  0
 19 24  1  0  0  0  0
 20 19  1  0  0  0  0
 21  3  1  0  0  0  0
 22 11  1  0  0  0  0
 23  1  1  0  0  0  0
 24 12  1  0  0  0  0
M  END
