39,78
q = 0.0, confidence = 0.972

 78 83  0  0  1  0  0  0  0  0999 V2000
   -2.6411   -0.3480   -0.2106 C   0  0  0  0  0  0  0  0  0  0  0  0
   -3.5913    0.6265   -0.6637 C   0  0  0  0  0  0  0  0  0  0  0  0
   -3.2056    1.8647   -1.2540 C   0  0  0  0  0  0  0  0  0  0  0  0
   -2.1390    2.1145   -1.3320 H   0  0  0  0  0  0  0  0  0  0  0  0
   -4.1597    2.7684   -1.6978 C   0  0  0  0  0  0  0  0  0  0  0  0
   -3.8392    3.7196   -2.1500 H   0  0  0  0  0  0  0  0  0  0  0  0
   -5.5447    2.4827   -1.5633 C   0  0  0  0  0  0  0  0  0  0  0  0
   -6.2917    3.2076   -1.9199 H   0  0  0  0  0  0  0  0  0  0  0  0
   -5.9500    1.2984   -0.9685 C   0  0  0  0  0  0  0  0  0  0  0  0
   -7.0203    1.0734   -0.8408 H   0  0  0  0  0  0  0  0  0  0  0  0
   -4.9964    0.3466   -0.5004 C   0  0  0  0  0  0  0  0  0  0  0  0
   -5.3871   -0.8657    0.1314 C   0  0  0  0  0  0  0  0  0  0  0  0
   -6.4598   -1.0776    0.2587 H   0  0  0  0  0  0  0  0  0  0  0  0
   -4.4372   -1.7629    0.5934 C   0  0  0  0  0  0  0  0  0  0  0  0
   -4.7640   -2.6846    1.0942 H   0  0  0  0  0  0  0  0  0  0  0  0
   -3.0453   -1.5266    0.4350 C   0  0  0  0  0  0  0  0  0  0  0  0
   -1.9950   -2.5080    0.9224 C   0  0  2  0  0  0  0  0  0  0  0  0
   -1.2101   -1.8855    1.4151 H   0  0  0  0  0  0  0  0  0  0  0  0
   -1.3105   -3.2463   -0.2226 C   0  0  0  0  0  0  0  0  0  0  0  0
   -2.0226   -3.6620   -1.3655 C   0  0  0  0  0  0  0  0  0  0  0  0
   -3.0910   -3.4101   -1.4567 H   0  0  0  0  0  0  0  0  0  0  0  0
   -1.3863   -4.3891   -2.3841 C   0  0  0  0  0  0  0  0  0  0  0  0
   -1.9583   -4.7034   -3.2709 H   0  0  0  0  0  0  0  0  0  0  0  0
   -0.0277   -4.7234   -2.2679 C   0  0  0  0  0  0  0  0  0  0  0  0
    0.4707   -5.3028   -3.0602 H   0  0  0  0  0  0  0  0  0  0  0  0
    0.6886   -4.3184   -1.1295 C   0  0  0  0  0  0  0  0  0  0  0  0
    1.7519   -4.5822   -1.0227 H   0  0  0  0  0  0  0  0  0  0  0  0
    0.0565   -3.5756   -0.1201 C   0  0  0  0  0  0  0  0  0  0  0  0
    0.6292   -3.2361    0.7588 H   0  0  0  0  0  0  0  0  0  0  0  0
   -2.4935   -3.4943    1.9879 C   0  0  0  0  0  0  0  0  0  0  0  0
   -2.9522   -2.9528    2.8391 H   0  0  0  0  0  0  0  0  0  0  0  0
   -1.6403   -4.0837    2.3754 H   0  0  0  0  0  0  0  0  0  0  0  0
   -3.2312   -4.2132    1.5767 H   0  0  0  0  0  0  0  0  0  0  0  0
   -0.7165   -0.1283   -1.6132 C   0  0  0  0  0  0  0  0  0  0  0  0
   -1.4680   -0.4104   -2.8748 C   0  0  0  0  0  0  0  0  0  0  0  0
   -2.4048   -0.9542   -2.6582 H   0  0  0  0  0  0  0  0  0  0  0  0
   -0.8519   -1.0150   -3.5678 H   0  0  0  0  0  0  0  0  0  0  0  0
   -1.7419    0.5334   -3.3939 H   0  0  0  0  0  0  0  0  0  0  0  0
   -1.2521   -0.1054   -0.4013 N   0  0  0  0  0  2  0  0  0  0  0  0
    2.6411    0.3481   -0.2106 C   0  0  0  0  0  0  0  0  0  0  0  0
    3.5914   -0.6265   -0.6637 C   0  0  0  0  0  0  0  0  0  0  0  0
    3.2057   -1.8646   -1.2540 C   0  0  0  0  0  0  0  0  0  0  0  0
    2.1391   -2.1145   -1.3320 H   0  0  0  0  0  0  0  0  0  0  0  0
    4.1598   -2.7684   -1.6978 C   0  0  0  0  0  0  0  0  0  0  0  0
    3.8393   -3.7196   -2.1500 H   0  0  0  0  0  0  0  0  0  0  0  0
    5.5448   -2.4827   -1.5633 C   0  0  0  0  0  0  0  0  0  0  0  0
    6.2918   -3.2076   -1.9199 H   0  0  0  0  0  0  0  0  0  0  0  0
    5.9501   -1.2983   -0.9685 C   0  0  0  0  0  0  0  0  0  0  0  0
    7.0204   -1.0734   -0.8408 H   0  0  0  0  0  0  0  0  0  0  0  0
    4.9964   -0.3465   -0.5004 C   0  0  0  0  0  0  0  0  0  0  0  0
    5.3871    0.8658    0.1314 C   0  0  0  0  0  0  0  0  0  0  0  0
    6.4598    1.0777    0.2587 H   0  0  0  0  0  0  0  0  0  0  0  0
    4.4372    1.7630    0.5933 C   0  0  0  0  0  0  0  0  0  0  0  0
    4.7640    2.6846    1.0941 H   0  0  0  0  0  0  0  0  0  0  0  0
    3.0453    1.5267    0.4350 C   0  0  0  0  0  0  0  0  0  0  0  0
    1.9950    2.5080    0.9223 C   0  0  2  0  0  0  0  0  0  0  0  0
    1.2102    1.8856    1.4151 H   0  0  0  0  0  0  0  0  0  0  0  0
    1.3105    3.2462   -0.2227 C   0  0  0  0  0  0  0  0  0  0  0  0
    2.0224    3.6617   -1.3657 C   0  0  0  0  0  0  0  0  0  0  0  0
    3.0908    3.4097   -1.4571 H   0  0  0  0  0  0  0  0  0  0  0  0
    1.3861    4.3887   -2.3843 C   0  0  0  0  0  0  0  0  0  0  0  0
    1.9580    4.7029   -3.2713 H   0  0  0  0  0  0  0  0  0  0  0  0
    0.0275    4.7232   -2.2681 C   0  0  0  0  0  0  0  0  0  0  0  0
   -0.4709    5.3025   -3.0603 H   0  0  0  0  0  0  0  0  0  0  0  0
   -0.6886    4.3184   -1.1295 C   0  0  0  0  0  0  0  0  0  0  0  0
   -1.7519    4.5823   -1.0226 H   0  0  0  0  0  0  0  0  0  0  0  0
   -0.0565    3.5756   -0.1201 C   0  0  0  0  0  0  0  0  0  0  0  0
   -0.6292    3.2364    0.7590 H   0  0  0  0  0  0  0  0  0  0  0  0
    2.4935    3.4944    1.9878 C   0  0  0  0  0  0  0  0  0  0  0  0
    2.9522    2.9529    2.8390 H   0  0  0  0  0  0  0  0  0  0  0  0
    1.6402    4.0838    2.3753 H   0  0  0  0  0  0  0  0  0  0  0  0
    3.2311    4.2133    1.5765 H   0  0  0  0  0  0  0  0  0  0  0  0
    0.7165    0.1282   -1.6132 C   0  0  0  0  0  0  0  0  0  0  0  0
    1.4679    0.4103   -2.8748 C   0  0  0  0  0  0  0  0  0  0  0  0
    2.4051    0.9536   -2.6583 H   0  0  0  0  0  0  0  0  0  0  0  0
    0.8521    1.0155   -3.5675 H   0  0  0  0  0  0  0  0  0  0  0  0
    1.7411   -0.5335   -3.3943 H   0  0  0  0  0  0  0  0  0  0  0  0
    1.2521    0.1054   -0.4013 N   0  0  0  0  0  2  0  0  0  0  0  0
  1 16  1  0  0  0  0
  2 11  1  0  0  0  0
  2  1  2  0  0  0  0
  3  2  1  0  0  0  0
  4  3  1  0  0  0  0
  5  7  1  0  0  0  0
  5  3  2  0  0  0  0
  6  5  1  0  0  0  0
  7  9  2  0  0  0  0
  8  7  1  0  0  0  0
  9 10  1  0  0  0  0
  9 11  1  0  0  0  0
 11 12  2  0  0  0  0
 12 13  1  0  0  0  0
 12 14  1  0  0  0  0
 14 15  1  0  0  0  0
 16 14  2  0  0  0  0
 16 17  1  0  0  0  0
 17 18  1  1  0  0  0
 17 30  1  0  0  0  0
 19 28  1  0  0  0  0
 19 17  1  0  0  0  0
 20 19  2  0  0  0  0
 21 20  1  0  0  0  0
 22 24  2  0  0  0  0
 22 20  1  0  0  0  0
 23 22  1  0  0  0  0
 24 26  1  0  0  0  0
 25 24  1  0  0  0  0
 26 27  1  0  0  0  0
 26 28  2  0  0  0  0
 28 29  1  0  0  0  0
 30 32  1  0  0  0  0
 30 31  1  0  0  0  0
 33 30  1  0  0  0  0
 34 39  1  0  0  0  0
 35 36  1  0  0  0  0
 35 34  1  0  0  0  0
 37 35  1  0  0  0  0
 38 35  1  0  0  0  0
 39  1  1  0  0  0  0
 40 55  1  0  0  0  0
 41 50  1  0  0  0  0
 41 40  2  0  0  0  0
 42 41  1  0  0  0  0
 43 42  1  0  0  0  0
 44 46  1  0  0  0  0
 44 42  2  0  0  0  0
 45 44  1  0  0  0  0
 46 48  2  0  0  0  0
 47 46  1  0  0  0  0
 48 49  1  0  0  0  0
 48 50  1  0  0  0  0
 50 51  2  0  0  0  0
 51 52  1  0  0  0  0
 51 53  1  0  0  0  0
 53 54  1  0  0  0  0
 55 53  2  0  0  0  0
 55 56  1  0  0  0  0
 56 57  1  1  0  0  0
 56 69  1  0  0  0  0
 58 67  1  0  0  0  0
 58 56  1  0  0  0  0
 59 58  2  0  0  0  0
 60 59  1  0  0  0  0
 61 63  2  0  0  0  0
 61 59  1  0  0  0  0
 62 61  1  0  0  0  0
 63 65  1  0  0  0  0
 64 63  1  0  0  0  0
 65 66  1  0  0  0  0
 65 67  2  0  0  0  0
 67 68  1  0  0  0  0
 69 71  1  0  0  0  0
 69 70  1  0  0  0  0
 72 69  1  0  0  0  0
 73 34  2  0  0  0  0
 73 78  1  0  0  0  0
 74 75  1  0  0  0  0
 74 73  1  0  0  0  0
 76 74  1  0  0  0  0
 77 74  1  0  0  0  0
 78 40  1  0  0  0  0
M  END
