1,22
q = 0.0, confidence = 0.856

 48 51  0  0  0  0  0  0  0  0999 V2000
    1.3472   -0.4105   -0.3403 N   0  0  0  0  0  2  0  0  0  0  0  0
    2.5653   -0.6213   -0.9938 C   0  0  0  0  0  0  0  0  0  0  0  0
    3.4498   -1.6237   -0.5271 C   0  0  0  0  0  0  0  0  0  0  0  0
    4.6522   -1.8895   -1.1949 C   0  0  0  0  0  0  0  0  0  0  0  0
    5.0124   -1.1503   -2.3336 C   0  0  0  0  0  0  0  0  0  0  0  0
    4.1468   -0.1450   -2.7979 C   0  0  0  0  0  0  0  0  0  0  0  0
    2.9371    0.1174   -2.1440 C   0  0  0  0  0  0  0  0  0  0  0  0
    0.7826    0.8642   -0.2490 C   0  0  0  0  0  0  0  0  0  0  0  0
    1.6779    2.0315   -0.0157 C   0  0  0  0  0  0  0  0  0  0  0  0
    2.8149    1.8859    0.8131 C   0  0  0  0  0  0  0  0  0  0  0  0
    3.6789    2.9633    1.0482 C   0  0  0  0  0  0  0  0  0  0  0  0
    3.4335    4.2093    0.4499 C   0  0  0  0  0  0  0  0  0  0  0  0
    2.3199    4.3627   -0.3922 C   0  0  0  0  0  0  0  0  0  0  0  0
    1.4533    3.2872   -0.6248 C   0  0  0  0  0  0  0  0  0  0  0  0
   -0.6271    0.9784   -0.2511 C   0  0  0  0  0  0  0  0  0  0  0  0
   -1.3320    2.2656    0.0521 C   0  0  0  0  0  0  0  0  0  0  0  0
   -1.1554    2.8963    1.3043 C   0  0  0  0  0  0  0  0  0  0  0  0
   -1.8238    4.0876    1.6170 C   0  0  0  0  0  0  0  0  0  0  0  0
   -2.6896    4.6779    0.6834 C   0  0  0  0  0  0  0  0  0  0  0  0
   -2.8740    4.0660   -0.5655 C   0  0  0  0  0  0  0  0  0  0  0  0
   -2.2025    2.8750   -0.8792 C   0  0  0  0  0  0  0  0  0  0  0  0
   -1.3737   -0.1959   -0.3307 N   0  0  0  0  0  2  0  0  0  0  0  0
   -2.6496   -0.2673   -0.9141 C   0  0  0  0  0  0  0  0  0  0  0  0
   -3.7658   -0.6790   -0.1541 C   0  0  0  0  0  0  0  0  0  0  0  0
   -5.0228   -0.8339   -0.7572 C   0  0  0  0  0  0  0  0  0  0  0  0
   -5.1899   -0.5780   -2.1273 C   0  0  0  0  0  0  0  0  0  0  0  0
   -4.0843   -0.1696   -2.8931 C   0  0  0  0  0  0  0  0  0  0  0  0
   -2.8262   -0.0179   -2.2959 C   0  0  0  0  0  0  0  0  0  0  0  0
    3.1765   -2.1804    0.3828 H   0  0  0  0  0  0  0  0  0  0  0  0
    5.3225   -2.6746   -0.8119 H   0  0  0  0  0  0  0  0  0  0  0  0
    5.9606   -1.3532   -2.8532 H   0  0  0  0  0  0  0  0  0  0  0  0
    4.4142    0.4408   -3.6911 H   0  0  0  0  0  0  0  0  0  0  0  0
    2.2559    0.8935   -2.5212 H   0  0  0  0  0  0  0  0  0  0  0  0
    3.0208    0.9074    1.2706 H   0  0  0  0  0  0  0  0  0  0  0  0
    4.5540    2.8268    1.7018 H   0  0  0  0  0  0  0  0  0  0  0  0
    4.1131    5.0557    0.6311 H   0  0  0  0  0  0  0  0  0  0  0  0
    2.1263    5.3303   -0.8799 H   0  0  0  0  0  0  0  0  0  0  0  0
    0.5937    3.4159   -1.2969 H   0  0  0  0  0  0  0  0  0  0  0  0
   -0.4720    2.4532    2.0406 H   0  0  0  0  0  0  0  0  0  0  0  0
   -1.6639    4.5582    2.5991 H   0  0  0  0  0  0  0  0  0  0  0  0
   -3.2152    5.6137    0.9269 H   0  0  0  0  0  0  0  0  0  0  0  0
   -3.5435    4.5220   -1.3108 H   0  0  0  0  0  0  0  0  0  0  0  0
   -2.3445    2.4216   -1.8682 H   0  0  0  0  0  0  0  0  0  0  0  0
   -3.6266   -0.8657    0.9214 H   0  0  0  0  0  0  0  0  0  0  0  0
   -5.8828   -1.1506   -0.1471 H   0  0  0  0  0  0  0  0  0  0  0  0
   -6.1765   -0.6995   -2.5987 H   0  0  0  0  0  0  0  0  0  0  0  0
   -4.2011    0.0213   -3.9712 H   0  0  0  0  0  0  0  0  0  0  0  0
   -1.9493    0.2763   -2.8933 H   0  0  0  0  0  0  0  0  0  0  0  0
  1  8  1  0  0  0  0
  2  3  1  0  0  0  0
  2  1  1  0  0  0  0
  3 29  1  0  0  0  0
  4 30  1  0  0  0  0
  4  3  2  0  0  0  0
  5  4  1  0  0  0  0
  6  5  2  0  0  0  0
  6  7  1  0  0  0  0
  7  2  2  0  0  0  0
  8  9  1  0  0  0  0
  9 10  1  0  0  0  0
 10 11  2  0  0  0  0
 10 34  1  0  0  0  0
 11 35  1  0  0  0  0
 12 36  1  0  0  0  0
 12 11  1  0  0  0  0
 13 12  2  0  0  0  0
 14 13  1  0  0  0  0
 14  9  2  0  0  0  0
 15  8  2  0  0  0  0
 15 16  1  0  0  0  0
 16 17  1  0  0  0  0
 17 18  2  0  0  0  0
 17 39  1  0  0  0  0
 18 40  1  0  0  0  0
 19 41  1  0  0  0  0
 19 18  1  0  0  0  0
 20 19  2  0  0  0  0
 21 20  1  0  0  0  0
 21 16  2  0  0  0  0
 22 15  1  0  0  0  0
 23 22  1  0  0  0  0
 23 24  1  0  0  0  0
 24 44  1  0  0  0  0
 25 24  2  0  0  0  0
 25 45  1  0  0  0  0
 26 25  1  0  0  0  0
 27 28  1  0  0  0  0
 27 26  2  0  0  0  0
 28 23  2  0  0  0  0
 31  5  1  0  0  0  0
 32  6  1  0  0  0  0
 33  7  1  0  0  0  0
 37 13  1  0  0  0  0
 38 14  1  0  0  0  0
 42 20  1  0  0  0  0
 43 21  1  0  0  0  0
 46 26  1  0  0  0  0
 47 27  1  0  0  0  0
 48 28  1  0  0  0  0
M  END
