1,13
q = 0.0, confidence = 0.986

 42 44  0  0  1  0  0  0  0  0999 V2000
    0.3100    0.2286   -1.2436 N   0  0  0  0  0  2  0  0  0  0  0  0
   -0.1401    1.3324   -0.5916 C   0  0  1  0  0  3  0  0  0  0  0  0
    0.0615    2.6154   -1.1146 C   0  0  0  0  0  0  0  0  0  0  0  0
   -0.3053    3.4888   -0.5575 H   0  0  0  0  0  0  0  0  0  0  0  0
    0.7289    2.7593   -2.3369 C   0  0  0  0  0  0  0  0  0  0  0  0
    0.9053    3.7594   -2.7596 H   0  0  0  0  0  0  0  0  0  0  0  0
    1.1681    1.6082   -3.0084 C   0  0  0  0  0  0  0  0  0  0  0  0
    1.6923    1.6717   -3.9723 H   0  0  0  0  0  0  0  0  0  0  0  0
    0.9470    0.3564   -2.4297 C   0  0  0  0  0  0  0  0  0  0  0  0
    1.2741   -0.5992   -2.8747 H   0  0  0  0  0  0  0  0  0  0  0  0
   -0.9574    1.0770    0.6561 C   0  0  2  0  0  0  0  0  0  0  0  0
   -0.8495    1.9453    1.3414 H   0  0  0  0  0  0  0  0  0  0  0  0
   -0.4469   -0.1539    1.3779 N   0  0  0  0  0  0  0  0  0  0  0  0
   -2.4306    0.9917    0.2705 C   0  0  0  0  0  0  0  0  0  0  0  0
   -2.8862    0.0930   -0.7173 C   0  0  0  0  0  0  0  0  0  0  0  0
   -2.1723   -0.5828   -1.2149 H   0  0  0  0  0  0  0  0  0  0  0  0
   -4.2468    0.0400   -1.0477 C   0  0  0  0  0  0  0  0  0  0  0  0
   -4.5907   -0.6736   -1.8114 H   0  0  0  0  0  0  0  0  0  0  0  0
   -5.1659    0.8916   -0.4119 C   0  0  0  0  0  0  0  0  0  0  0  0
   -6.2331    0.8494   -0.6774 H   0  0  0  0  0  0  0  0  0  0  0  0
   -4.7178    1.7971    0.5611 C   0  0  0  0  0  0  0  0  0  0  0  0
   -5.4300    2.4695    1.0626 H   0  0  0  0  0  0  0  0  0  0  0  0
   -3.3566    1.8444    0.8997 C   0  0  0  0  0  0  0  0  0  0  0  0
   -3.0071    2.5514    1.6692 H   0  0  0  0  0  0  0  0  0  0  0  0
    0.7144    0.1801    2.2836 C   0  0  0  0  0  0  0  0  0  0  0  0
    0.3099    0.7668    3.1400 H   0  0  0  0  0  0  0  0  0  0  0  0
    1.0632   -0.8013    2.6627 H   0  0  0  0  0  0  0  0  0  0  0  0
    1.8429    0.9431    1.6374 C   0  0  0  0  0  0  0  0  0  0  0  0
    2.7983    0.2770    0.8412 C   0  0  0  0  0  0  0  0  0  0  0  0
    2.7324   -0.8165    0.7225 H   0  0  0  0  0  0  0  0  0  0  0  0
    3.8071    1.0005    0.1905 C   0  0  0  0  0  0  0  0  0  0  0  0
    4.5379    0.4685   -0.4369 H   0  0  0  0  0  0  0  0  0  0  0  0
    3.8890    2.3949    0.3434 C   0  0  0  0  0  0  0  0  0  0  0  0
    4.6826    2.9605   -0.1684 H   0  0  0  0  0  0  0  0  0  0  0  0
    2.9685    3.0621    1.1662 C   0  0  0  0  0  0  0  0  0  0  0  0
    3.0411    4.1511    1.3090 H   0  0  0  0  0  0  0  0  0  0  0  0
    1.9543    2.3370    1.8096 C   0  0  0  0  0  0  0  0  0  0  0  0
    1.2341    2.8619    2.4586 H   0  0  0  0  0  0  0  0  0  0  0  0
   -1.4947   -0.7720    2.2279 C   0  0  0  0  0  0  0  0  0  0  0  0
   -1.8600   -0.0422    2.9840 H   0  0  0  0  0  0  0  0  0  0  0  0
   -1.0467   -1.6568    2.7146 H   0  0  0  0  0  0  0  0  0  0  0  0
   -2.3388   -1.1098    1.6050 H   0  0  0  0  0  0  0  0  0  0  0  0
  1  2  1  0  0  0  0
  2 11  1  6  0  0  0
  3  2  1  0  0  0  0
  3  4  1  0  0  0  0
  5  3  2  0  0  0  0
  6  5  1  0  0  0  0
  7  9  2  0  0  0  0
  7  5  1  0  0  0  0
  8  7  1  0  0  0  0
  9  1  1  0  0  0  0
 10  9  1  0  0  0  0
 11 12  1  1  0  0  0
 11 13  1  0  0  0  0
 13 39  1  0  0  0  0
 13 25  1  0  0  0  0
 14 11  1  0  0  0  0
 14 23  1  0  0  0  0
 15 14  2  0  0  0  0
 16 15  1  0  0  0  0
 17 15  1  0  0  0  0
 17 19  2  0  0  0  0
 18 17  1  0  0  0  0
 19 21  1  0  0  0  0
 20 19  1  0  0  0  0
 21 23  2  0  0  0  0
 21 22  1  0  0  0  0
 23 24  1  0  0  0  0
 25 27  1  0  0  0  0
 25 26  1  0  0  0  0
 28 37  1  0  0  0  0
 28 25  1  0  0  0  0
 29 28  2  0  0  0  0
 30 29  1  0  0  0  0
 31 33  2  0  0  0  0
 31 29  1  0  0  0  0
 32 31  1  0  0  0  0
 33 35  1  0  0  0  0
 34 33  1  0  0  0  0
 35 36  1  0  0  0  0
 35 37  2  0  0  0  0
 37 38  1  0  0  0  0
 39 41  1  0  0  0  0
 39 40  1  0  0  0  0
 42 39  1  0  0  0  0
M  END
