1,3
q = 0.0, confidence = 0.99

 28 29  0  0  1  0  0  0  0  0999 V2000
    1.5140    0.7589   -1.0763 N   0  0  0  0  0  2  0  0  0  0  0  0
    1.7702    2.9359   -1.3814 N   0  0  0  0  0  0  0  0  0  0  0  0
   -0.2554    0.0199    1.2820 N   0  0  0  0  0  2  0  0  0  0  0  0
   -1.0585    1.7674    2.3818 N   0  0  0  0  0  0  0  0  0  0  0  0
    1.3405    1.9565   -0.5172 C   0  0  2  0  0  3  0  0  0  0  0  0
    1.7221    4.3693   -1.1549 C   0  0  0  0  0  0  0  0  0  0  0  0
    0.6752    4.7166   -1.0373 H   0  0  0  0  0  0  0  0  0  0  0  0
    2.1652    4.8850   -2.0253 H   0  0  0  0  0  0  0  0  0  0  0  0
    2.2986    4.6506   -0.2515 H   0  0  0  0  0  0  0  0  0  0  0  0
    2.2212    2.3117   -2.5337 C   0  0  0  0  0  0  0  0  0  0  0  0
    2.6178    2.8804   -3.3801 H   0  0  0  0  0  0  0  0  0  0  0  0
    2.0567    0.9575   -2.3257 C   0  0  0  0  0  0  0  0  0  0  0  0
    2.2910    0.1177   -2.9860 H   0  0  0  0  0  0  0  0  0  0  0  0
    0.8915    2.2667    0.8808 C   0  0  2  0  0  0  0  0  0  0  0  0
    0.4346    3.2778    0.8455 H   0  0  0  0  0  0  0  0  0  0  0  0
    2.1165    2.3037    1.8377 C   0  0  0  0  0  0  0  0  0  0  0  0
    1.8056    2.5967    2.8606 H   0  0  0  0  0  0  0  0  0  0  0  0
    2.8748    3.0293    1.4802 H   0  0  0  0  0  0  0  0  0  0  0  0
    2.5734    1.2913    1.8744 H   0  0  0  0  0  0  0  0  0  0  0  0
   -0.1588    1.3431    1.4330 C   0  0  1  0  0  3  0  0  0  0  0  0
   -1.2247   -0.4232    2.1538 C   0  0  0  0  0  0  0  0  0  0  0  0
   -1.5065   -1.4763    2.2111 H   0  0  0  0  0  0  0  0  0  0  0  0
   -1.7382    0.6532    2.8437 C   0  0  0  0  0  0  0  0  0  0  0  0
   -2.5268    0.7292    3.5980 H   0  0  0  0  0  0  0  0  0  0  0  0
   -1.3202    3.1406    2.7710 C   0  0  0  0  0  0  0  0  0  0  0  0
   -0.3992    3.6382    3.1340 H   0  0  0  0  0  0  0  0  0  0  0  0
   -2.0608    3.1445    3.5906 H   0  0  0  0  0  0  0  0  0  0  0  0
   -1.7380    3.7146    1.9183 H   0  0  0  0  0  0  0  0  0  0  0  0
  1  5  1  0  0  0  0
  2  6  1  0  0  0  0
  2  5  1  0  0  0  0
  3 20  1  0  0  0  0
  3 21  1  0  0  0  0
  4 25  1  0  0  0  0
  4 23  1  0  0  0  0
  5 14  1  1  0  0  0
  6  7  1  0  0  0  0
  6  9  1  0  0  0  0
  8  6  1  0  0  0  0
 10 12  2  0  0  0  0
 10  2  1  0  0  0  0
 11 10  1  0  0  0  0
 12  1  1  0  0  0  0
 13 12  1  0  0  0  0
 14 15  1  6  0  0  0
 14 16  1  0  0  0  0
 16 19  1  0  0  0  0
 16 17  1  0  0  0  0
 18 16  1  0  0  0  0
 20 14  1  1  0  0  0
 20  4  1  0  0  0  0
 21 22  1  0  0  0  0
 21 23  2  0  0  0  0
 23 24  1  0  0  0  0
 25 26  1  0  0  0  0
 25 27  1  0  0  0  0
 28 25  1  0  0  0  0
M  END
