4,6
q = -1.0, confidence = 0.0

 37 38  0  0  1  0  0  0  0  0999 V2000
    0.8594    0.6808   -1.6287 B   0  0  0  0  0  0  0  0  0  0  0  0
   -0.0571   -0.1382   -1.9574 H   0  0  0  0  0  0  0  0  0  0  0  0
    1.4128    1.0701   -2.6436 H   0  0  0  0  0  0  0  0  0  0  0  0
   -0.7893    1.3038    0.0323 N   0  0  0  0  0  2  0  0  0  0  0  0
    0.1375    1.7927   -0.8290 N   0  0  0  0  0  0  0  0  0  0  0  0
    1.1438   -0.7340    0.3288 N   0  0  0  0  0  2  0  0  0  0  0  0
    1.7992   -0.0496   -0.6451 N   0  0  0  0  0  0  0  0  0  0  0  0
   -1.2845    2.3355    0.7551 C   0  0  1  0  0  3  0  0  0  0  0  0
   -0.6373    3.5289    0.3446 C   0  0  0  0  0  0  0  0  0  0  0  0
    0.2661    3.1338   -0.6669 C   0  0  0  0  0  0  0  0  0  0  0  0
   -2.3468    2.1334    1.7848 C   0  0  0  0  0  0  0  0  0  0  0  0
   -1.9664    1.5662    2.6587 H   0  0  0  0  0  0  0  0  0  0  0  0
   -3.1972    1.5557    1.3708 H   0  0  0  0  0  0  0  0  0  0  0  0
   -2.7304    3.1044    2.1497 H   0  0  0  0  0  0  0  0  0  0  0  0
   -0.8475    4.9161    0.8681 C   0  0  0  0  0  0  0  0  0  0  0  0
   -0.1306    5.1748    1.6774 H   0  0  0  0  0  0  0  0  0  0  0  0
   -1.8664    5.0435    1.2842 H   0  0  0  0  0  0  0  0  0  0  0  0
   -0.7200    5.6749    0.0695 H   0  0  0  0  0  0  0  0  0  0  0  0
    1.2327    3.9507   -1.4575 C   0  0  0  0  0  0  0  0  0  0  0  0
    1.4765    3.4594   -2.4186 H   0  0  0  0  0  0  0  0  0  0  0  0
    2.1858    4.1006   -0.9059 H   0  0  0  0  0  0  0  0  0  0  0  0
    0.8191    4.9563   -1.6698 H   0  0  0  0  0  0  0  0  0  0  0  0
    2.0525   -1.1120    1.2511 C   0  0  1  0  0  3  0  0  0  0  0  0
    3.3402   -0.6605    0.8493 C   0  0  0  0  0  0  0  0  0  0  0  0
    3.1295    0.0242   -0.3627 C   0  0  0  0  0  0  0  0  0  0  0  0
    1.6852   -1.8662    2.4865 C   0  0  0  0  0  0  0  0  0  0  0  0
    0.5898   -1.8697    2.6363 H   0  0  0  0  0  0  0  0  0  0  0  0
    2.1566   -1.4068    3.3793 H   0  0  0  0  0  0  0  0  0  0  0  0
    2.0355   -2.9199    2.4468 H   0  0  0  0  0  0  0  0  0  0  0  0
    4.6243   -0.8763    1.5880 C   0  0  0  0  0  0  0  0  0  0  0  0
    5.4807   -0.4087    1.0645 H   0  0  0  0  0  0  0  0  0  0  0  0
    4.8586   -1.9556    1.7064 H   0  0  0  0  0  0  0  0  0  0  0  0
    4.5881   -0.4438    2.6108 H   0  0  0  0  0  0  0  0  0  0  0  0
    4.0884    0.7485   -1.2495 C   0  0  0  0  0  0  0  0  0  0  0  0
    4.0046    0.4089   -2.3013 H   0  0  0  0  0  0  0  0  0  0  0  0
    5.1294    0.5822   -0.9152 H   0  0  0  0  0  0  0  0  0  0  0  0
    3.9025    1.8430   -1.2465 H   0  0  0  0  0  0  0  0  0  0  0  0
  1  5  1  0  0  0  0
  1  7  1  0  0  0  0
  2  1  1  0  0  0  0
  3  1  1  0  0  0  0
  4  8  1  0  0  0  0
  5 10  1  0  0  0  0
  5  4  1  0  0  0  0
  6 23  1  0  0  0  0
  7 25  1  0  0  0  0
  7  6  1  0  0  0  0
  8 11  1  6  0  0  0
  9  8  1  0  0  0  0
  9 15  1  0  0  0  0
 10  9  2  0  0  0  0
 11 14  1  0  0  0  0
 11 12  1  0  0  0  0
 13 11  1  0  0  0  0
 15 17  1  0  0  0  0
 15 16  1  0  0  0  0
 18 15  1  0  0  0  0
 19 21  1  0  0  0  0
 19 10  1  0  0  0  0
 20 19  1  0  0  0  0
 22 19  1  0  0  0  0
 23 26  1  1  0  0  0
 24 23  1  0  0  0  0
 24 30  1  0  0  0  0
 25 24  2  0  0  0  0
 26 27  1  0  0  0  0
 26 28  1  0  0  0  0
 29 26  1  0  0  0  0
 30 32  1  0  0  0  0
 30 33  1  0  0  0  0
 31 30  1  0  0  0  0
 34 37  1  0  0  0  0
 34 36  1  0  0  0  0
 34 25  1  0  0  0  0
 35 34  1  0  0  0  0
M  END
