1,2
q = -1.0, confidence = 0.074

 55 57  0  0  0  0  0  0  0  0999 V2000
   -1.7135    1.2922   -0.1095 N   0  0  0  0  0  2  0  0  0  0  0  0
    0.4753   -0.1480    0.0462 N   0  0  0  0  0  2  0  0  0  0  0  0
    1.6442   -0.7532    0.1049 N   0  0  0  0  0  2  0  0  0  0  0  0
    4.9566    0.7091   -0.0910 N   0  0  0  0  0  0  0  0  0  0  0  0
   -0.5832    1.9791   -0.1882 C   0  0  0  0  0  0  0  0  0  0  0  0
    0.6355    1.2124   -0.1135 C   0  0  0  0  0  0  0  0  0  0  0  0
    2.6168    0.2132   -0.0143 C   0  0  0  0  0  0  0  0  0  0  0  0
    2.0233    1.4994   -0.1579 C   0  0  0  0  0  0  0  0  0  0  0  0
    2.7006    2.8246   -0.3157 C   0  0  0  0  0  0  0  0  0  0  0  0
    2.4328    3.3088   -1.2790 H   0  0  0  0  0  0  0  0  0  0  0  0
    3.7961    2.6852   -0.2876 H   0  0  0  0  0  0  0  0  0  0  0  0
    2.4107    3.5317    0.4899 H   0  0  0  0  0  0  0  0  0  0  0  0
   -0.5541    3.4691   -0.3482 C   0  0  0  0  0  0  0  0  0  0  0  0
   -1.5725    3.8896   -0.4289 H   0  0  0  0  0  0  0  0  0  0  0  0
    0.0282    3.7416   -1.2511 H   0  0  0  0  0  0  0  0  0  0  0  0
   -0.0345    3.9379    0.5122 H   0  0  0  0  0  0  0  0  0  0  0  0
    4.0297   -0.1892    0.0213 C   0  0  0  0  0  0  0  0  0  0  0  0
    4.3058   -1.6675    0.1906 C   0  0  0  0  0  0  0  0  0  0  0  0
    5.3931   -1.8659    0.2087 H   0  0  0  0  0  0  0  0  0  0  0  0
    3.8354   -2.2424   -0.6321 H   0  0  0  0  0  0  0  0  0  0  0  0
    3.8422   -2.0402    1.1257 H   0  0  0  0  0  0  0  0  0  0  0  0
    6.3247    0.4106   -0.0685 C   0  0  0  0  0  0  0  0  0  0  0  0
    7.0096    0.1743   -1.2916 C   0  0  0  0  0  0  0  0  0  0  0  0
    8.4012   -0.0226   -1.2572 C   0  0  0  0  0  0  0  0  0  0  0  0
    8.9340   -0.2056   -2.2042 H   0  0  0  0  0  0  0  0  0  0  0  0
    9.1108    0.0134   -0.0482 C   0  0  0  0  0  0  0  0  0  0  0  0
   10.2004   -0.1393   -0.0406 H   0  0  0  0  0  0  0  0  0  0  0  0
    8.4228    0.2512    1.1503 C   0  0  0  0  0  0  0  0  0  0  0  0
    8.9726    0.2844    2.1046 H   0  0  0  0  0  0  0  0  0  0  0  0
    7.0315    0.4535    1.1642 C   0  0  0  0  0  0  0  0  0  0  0  0
    6.2770    0.7121    2.4416 C   0  0  0  0  0  0  0  0  0  0  0  0
    6.9656    0.8476    3.2976 H   0  0  0  0  0  0  0  0  0  0  0  0
    5.5889   -0.1248    2.6899 H   0  0  0  0  0  0  0  0  0  0  0  0
    5.6386    1.6158    2.3502 H   0  0  0  0  0  0  0  0  0  0  0  0
    6.2319    0.1410   -2.5807 C   0  0  0  0  0  0  0  0  0  0  0  0
    6.9048    0.0814   -3.4577 H   0  0  0  0  0  0  0  0  0  0  0  0
    5.5916    1.0424   -2.6819 H   0  0  0  0  0  0  0  0  0  0  0  0
    5.5426   -0.7301   -2.6231 H   0  0  0  0  0  0  0  0  0  0  0  0
   -2.9933    1.9242   -0.0909 C   0  0  0  0  0  0  0  0  0  0  0  0
   -3.4936    2.4117    1.1400 C   0  0  0  0  0  0  0  0  0  0  0  0
   -4.7979    2.9384    1.1585 C   0  0  0  0  0  0  0  0  0  0  0  0
   -5.2072    3.3137    2.1094 H   0  0  0  0  0  0  0  0  0  0  0  0
   -5.5786    2.9696   -0.0044 C   0  0  0  0  0  0  0  0  0  0  0  0
   -6.6020    3.3720    0.0313 H   0  0  0  0  0  0  0  0  0  0  0  0
   -5.0603    2.4810   -1.2113 C   0  0  0  0  0  0  0  0  0  0  0  0
   -5.6751    2.4994   -2.1244 H   0  0  0  0  0  0  0  0  0  0  0  0
   -3.7597    1.9515   -1.2799 C   0  0  0  0  0  0  0  0  0  0  0  0
   -3.1834    1.4169   -2.5614 C   0  0  0  0  0  0  0  0  0  0  0  0
   -3.9237    1.4576   -3.3822 H   0  0  0  0  0  0  0  0  0  0  0  0
   -2.8583    0.3633   -2.4304 H   0  0  0  0  0  0  0  0  0  0  0  0
   -2.2847    1.9882   -2.8763 H   0  0  0  0  0  0  0  0  0  0  0  0
   -2.6544    2.3321    2.3880 C   0  0  0  0  0  0  0  0  0  0  0  0
   -3.2498    2.5832    3.2861 H   0  0  0  0  0  0  0  0  0  0  0  0
   -1.7906    3.0298    2.3535 H   0  0  0  0  0  0  0  0  0  0  0  0
   -2.2275    1.3149    2.5167 H   0  0  0  0  0  0  0  0  0  0  0  0
  1 39  1  0  0  0  0
  2  3  1  0  0  0  0
  4 22  1  0  0  0  0
  4 17  2  0  0  0  0
  5  6  2  0  0  0  0
  5  1  1  0  0  0  0
  6  2  1  0  0  0  0
  7 17  1  0  0  0  0
  7  3  1  0  0  0  0
  8  6  1  0  0  0  0
  8  7  2  0  0  0  0
  9 11  1  0  0  0  0
  9  8  1  0  0  0  0
  9 12  1  0  0  0  0
 10  9  1  0  0  0  0
 13  5  1  0  0  0  0
 13 16  1  0  0  0  0
 14 13  1  0  0  0  0
 15 13  1  0  0  0  0
 17 18  1  0  0  0  0
 18 19  1  0  0  0  0
 18 21  1  0  0  0  0
 20 18  1  0  0  0  0
 22 30  1  0  0  0  0
 23 24  1  0  0  0  0
 23 22  2  0  0  0  0
 24 26  2  0  0  0  0
 25 24  1  0  0  0  0
 26 27  1  0  0  0  0
 26 28  1  0  0  0  0
 28 30  2  0  0  0  0
 28 29  1  0  0  0  0
 30 31  1  0  0  0  0
 31 33  1  0  0  0  0
 31 32  1  0  0  0  0
 34 31  1  0  0  0  0
 35 23  1  0  0  0  0
 36 35  1  0  0  0  0
 37 35  1  0  0  0  0
 38 35  1  0  0  0  0
 39 40  1  0  0  0  0
 40 41  2  0  0  0  0
 40 52  1  0  0  0  0
 41 42  1  0  0  0  0
 43 44  1  0  0  0  0
 43 41  1  0  0  0  0
 45 43  2  0  0  0  0
 46 45  1  0  0  0  0
 47 45  1  0  0  0  0
 47 39  2  0  0  0  0
 48 50  1  0  0  0  0
 48 47  1  0  0  0  0
 49 48  1  0  0  0  0
 51 48  1  0  0  0  0
 52 55  1  0  0  0  0
 52 53  1  0  0  0  0
 54 52  1  0  0  0  0
M  END
