21,22
q = 0.0, confidence = 1.0

 22 24  0  0  0  0  0  0  0  0999 V2000
   -5.2843   -2.2086   -2.5015 Br  0  0  0  0  0  0  0  0  0  0  0  0
   -3.2537   -0.7846   -1.0823 C   0  0  0  0  0  0  0  0  0  0  0  0
   -2.6008   -0.9830   -1.9485 H   0  0  0  0  0  0  0  0  0  0  0  0
   -4.5994   -1.2342   -1.0418 C   0  0  0  0  0  0  0  0  0  0  0  0
   -5.3829   -0.9458    0.0733 C   0  0  0  0  0  0  0  0  0  0  0  0
   -6.4287   -1.2826    0.1268 H   0  0  0  0  0  0  0  0  0  0  0  0
   -4.8217   -0.2013    1.1428 C   0  0  0  0  0  0  0  0  0  0  0  0
   -5.5691    0.1493    2.3205 C   0  0  0  0  0  0  0  0  0  0  0  0
   -6.6153   -0.1817    2.3988 H   0  0  0  0  0  0  0  0  0  0  0  0
   -4.9939    0.8910    3.3236 C   0  0  0  0  0  0  0  0  0  0  0  0
   -5.5741    1.1628    4.2181 H   0  0  0  0  0  0  0  0  0  0  0  0
   -3.6310    1.3403    3.2284 C   0  0  0  0  0  0  0  0  0  0  0  0
   -3.0093    2.1331    4.2285 C   0  0  0  0  0  0  0  0  0  0  0  0
   -3.5803    2.4165    5.1259 H   0  0  0  0  0  0  0  0  0  0  0  0
   -1.6947    2.5519    4.0585 C   0  0  0  0  0  0  0  0  0  0  0  0
   -1.1911    3.1765    4.8094 H   0  0  0  0  0  0  0  0  0  0  0  0
   -1.0042    2.1659    2.8885 C   0  0  0  0  0  0  0  0  0  0  0  0
    0.0336    2.4914    2.7114 H   0  0  0  0  0  0  0  0  0  0  0  0
   -2.8502    0.9991    2.0794 C   0  0  0  0  0  0  0  0  0  0  0  0
   -3.4587    0.2139    1.0194 C   0  0  0  0  0  0  0  0  0  0  0  0
   -1.5621    1.4090    1.9418 N   0  0  0  0  0  2  0  0  0  0  0  0
   -2.7207   -0.0946   -0.0771 N   0  0  0  0  0  2  0  0  0  0  0  0
  1  4  1  0  0  0  0
  2  4  2  0  0  0  0
  2 22  1  0  0  0  0
  3  2  1  0  0  0  0
  4  5  1  0  0  0  0
  5  6  1  0  0  0  0
  5  7  2  0  0  0  0
  7  8  1  0  0  0  0
  8  9  1  0  0  0  0
  8 10  2  0  0  0  0
 10 11  1  0  0  0  0
 12 10  1  0  0  0  0
 12 13  2  0  0  0  0
 13 14  1  0  0  0  0
 15 13  1  0  0  0  0
 15 16  1  0  0  0  0
 17 15  2  0  0  0  0
 18 17  1  0  0  0  0
 19 12  1  0  0  0  0
 20  7  1  0  0  0  0
 20 19  2  0  0  0  0
 21 19  1  0  0  0  0
 21 17  1  0  0  0  0
 22 20  1  0  0  0  0
M  END
