1,3
q = 0.0, confidence = 1.0

 30 33  0  0  0  0  0  0  0  0999 V2000
    1.0284   -1.3983    0.5111 N   0  0  0  0  0  2  0  0  0  0  0  0
    3.1075   -2.1705    0.3257 N   0  0  0  0  0  0  0  0  0  0  0  0
    1.0940    0.4480   -1.3940 N   0  0  0  0  0  2  0  0  0  0  0  0
    3.2251    0.2499   -2.0068 N   0  0  0  0  0  0  0  0  0  0  0  0
    2.1997   -1.2581   -0.1517 C   0  0  0  0  0  0  0  0  0  0  0  0
    2.4775   -2.8975    1.3208 C   0  0  0  0  0  0  0  0  0  0  0  0
    1.1848   -2.4105    1.4208 C   0  0  0  0  0  0  0  0  0  0  0  0
    2.2438   -0.2316   -1.1753 C   0  0  0  0  0  0  0  0  0  0  0  0
    1.3408    1.3795   -2.3673 C   0  0  0  0  0  0  0  0  0  0  0  0
    2.6643    1.2676   -2.7591 C   0  0  0  0  0  0  0  0  0  0  0  0
    4.6351   -0.1647   -2.0950 C   0  0  0  0  0  0  0  0  0  0  0  0
    5.3675   -0.0374   -0.7787 C   0  0  0  0  0  0  0  0  0  0  0  0
    6.0829    1.1407   -0.4930 C   0  0  0  0  0  0  0  0  0  0  0  0
    6.7491    1.2984    0.7295 C   0  0  0  0  0  0  0  0  0  0  0  0
    6.7058    0.2715    1.6850 C   0  0  0  0  0  0  0  0  0  0  0  0
    5.9946   -0.9044    1.4114 C   0  0  0  0  0  0  0  0  0  0  0  0
    5.3220   -1.0726    0.1864 C   0  0  0  0  0  0  0  0  0  0  0  0
    4.5194   -2.3303   -0.0575 C   0  0  0  0  0  0  0  0  0  0  0  0
    2.9986   -3.6938    1.8612 H   0  0  0  0  0  0  0  0  0  0  0  0
    0.3676   -2.7194    2.0813 H   0  0  0  0  0  0  0  0  0  0  0  0
    0.5606    2.0637   -2.7177 H   0  0  0  0  0  0  0  0  0  0  0  0
    3.2513    1.8158   -3.5026 H   0  0  0  0  0  0  0  0  0  0  0  0
    5.1014    0.4892   -2.8540 H   0  0  0  0  0  0  0  0  0  0  0  0
    4.6759   -1.1963   -2.4977 H   0  0  0  0  0  0  0  0  0  0  0  0
    6.1249    1.9433   -1.2458 H   0  0  0  0  0  0  0  0  0  0  0  0
    7.3114    2.2216    0.9331 H   0  0  0  0  0  0  0  0  0  0  0  0
    7.2344    0.3831    2.6431 H   0  0  0  0  0  0  0  0  0  0  0  0
    5.9662   -1.7128    2.1588 H   0  0  0  0  0  0  0  0  0  0  0  0
    4.5631   -2.6595   -1.1145 H   0  0  0  0  0  0  0  0  0  0  0  0
    4.9147   -3.1635    0.5511 H   0  0  0  0  0  0  0  0  0  0  0  0
  1  7  1  0  0  0  0
  2  6  1  0  0  0  0
  3  8  1  0  0  0  0
  4  8  1  0  0  0  0
  5  2  1  0  0  0  0
  5  1  1  0  0  0  0
  6  7  2  0  0  0  0
  6 19  1  0  0  0  0
  7 20  1  0  0  0  0
  8  5  2  0  0  0  0
  9  3  1  0  0  0  0
 10  9  2  0  0  0  0
 10  4  1  0  0  0  0
 11  4  1  0  0  0  0
 11 12  1  0  0  0  0
 12 13  2  0  0  0  0
 12 17  1  0  0  0  0
 13 14  1  0  0  0  0
 14 26  1  0  0  0  0
 14 15  2  0  0  0  0
 15 27  1  0  0  0  0
 16 15  1  0  0  0  0
 16 28  1  0  0  0  0
 17 16  2  0  0  0  0
 18 17  1  0  0  0  0
 18  2  1  0  0  0  0
 18 30  1  0  0  0  0
 21  9  1  0  0  0  0
 22 10  1  0  0  0  0
 23 11  1  0  0  0  0
 24 11  1  0  0  0  0
 25 13  1  0  0  0  0
 29 18  1  0  0  0  0
M  END
