2,3
q = 0.0, confidence = 1.0

 43 44  0  0  1  0  0  0  0  0999 V2000
   -2.1994    2.3331   -0.9120 O   0  0  0  0  0  0  0  0  0  0  0  0
    1.1311    0.9727   -0.4693 N   0  0  0  0  0  2  0  0  0  0  0  0
   -1.4140    0.2858   -0.3987 N   0  0  0  0  0  2  0  0  0  0  0  0
    2.4360    1.3041   -0.2880 C   0  0  0  0  0  0  0  0  0  0  0  0
    2.8600    2.6383   -0.4989 C   0  0  0  0  0  0  0  0  0  0  0  0
    3.9251    2.8695   -0.3570 H   0  0  0  0  0  0  0  0  0  0  0  0
    1.9541    3.6378   -0.8617 C   0  0  0  0  0  0  0  0  0  0  0  0
    2.2949    4.6693   -1.0341 H   0  0  0  0  0  0  0  0  0  0  0  0
    0.5973    3.3054   -0.9653 C   0  0  0  0  0  0  0  0  0  0  0  0
   -0.1807    4.0454   -1.1969 H   0  0  0  0  0  0  0  0  0  0  0  0
    0.2325    1.9731   -0.7460 C   0  0  0  0  0  0  0  0  0  0  0  0
   -1.1525    1.5242   -0.7054 C   0  0  0  0  0  0  0  0  0  0  0  0
   -3.3659    1.4390   -0.9014 C   0  0  0  0  0  0  0  0  0  0  0  0
   -3.6606    1.2743   -1.9580 H   0  0  0  0  0  0  0  0  0  0  0  0
   -4.1792    1.9607   -0.3664 H   0  0  0  0  0  0  0  0  0  0  0  0
   -2.8661    0.1463   -0.2109 C   0  0  2  0  0  0  0  0  0  0  0  0
   -3.1918   -0.7729   -0.7382 H   0  0  0  0  0  0  0  0  0  0  0  0
   -3.2541    0.0147    1.3009 C   0  0  0  0  0  0  0  0  0  0  0  0
   -2.5389   -1.1965    1.9248 C   0  0  0  0  0  0  0  0  0  0  0  0
   -2.7023   -2.1191    1.3353 H   0  0  0  0  0  0  0  0  0  0  0  0
   -2.9075   -1.3558    2.9586 H   0  0  0  0  0  0  0  0  0  0  0  0
   -1.4429   -1.0399    1.9700 H   0  0  0  0  0  0  0  0  0  0  0  0
   -4.7763   -0.2101    1.3639 C   0  0  0  0  0  0  0  0  0  0  0  0
   -5.3503    0.6358    0.9311 H   0  0  0  0  0  0  0  0  0  0  0  0
   -5.1019   -0.3206    2.4176 H   0  0  0  0  0  0  0  0  0  0  0  0
   -5.0653   -1.1339    0.8225 H   0  0  0  0  0  0  0  0  0  0  0  0
   -2.8704    1.2828    2.0851 C   0  0  0  0  0  0  0  0  0  0  0  0
   -1.7767    1.4636    2.0459 H   0  0  0  0  0  0  0  0  0  0  0  0
   -3.1424    1.1606    3.1528 H   0  0  0  0  0  0  0  0  0  0  0  0
   -3.3872    2.1927    1.7174 H   0  0  0  0  0  0  0  0  0  0  0  0
    3.3886    0.2624    0.2015 C   0  0  0  0  0  0  0  0  0  0  0  0
    4.4148    0.6840    0.2105 H   0  0  0  0  0  0  0  0  0  0  0  0
    3.3571   -0.5981   -0.5030 H   0  0  0  0  0  0  0  0  0  0  0  0
    3.0307   -0.2774    1.6100 C   0  0  0  0  0  0  0  0  0  0  0  0
    1.9830   -0.6509    1.5484 H   0  0  0  0  0  0  0  0  0  0  0  0
    3.0967    0.8191    2.6776 C   0  0  0  0  0  0  0  0  0  0  0  0
    4.1251    1.2320    2.7646 H   0  0  0  0  0  0  0  0  0  0  0  0
    2.8135    0.4216    3.6734 H   0  0  0  0  0  0  0  0  0  0  0  0
    2.4145    1.6650    2.4502 H   0  0  0  0  0  0  0  0  0  0  0  0
    3.9232   -1.4737    1.9470 C   0  0  0  0  0  0  0  0  0  0  0  0
    3.7792   -2.2794    1.2004 H   0  0  0  0  0  0  0  0  0  0  0  0
    3.6767   -1.8819    2.9482 H   0  0  0  0  0  0  0  0  0  0  0  0
    4.9965   -1.1858    1.9554 H   0  0  0  0  0  0  0  0  0  0  0  0
  1 13  1  0  0  0  0
  1 12  1  0  0  0  0
  2  4  1  0  0  0  0
  3 16  1  0  0  0  0
  4 31  1  0  0  0  0
  5  6  1  0  0  0  0
  5  4  2  0  0  0  0
  7  5  1  0  0  0  0
  8  7  1  0  0  0  0
  9  7  2  0  0  0  0
  9 11  1  0  0  0  0
 10  9  1  0  0  0  0
 11 12  2  0  0  0  0
 11  2  1  0  0  0  0
 12  3  1  0  0  0  0
 13 15  1  0  0  0  0
 13 16  1  0  0  0  0
 14 13  1  0  0  0  0
 16 17  1  6  0  0  0
 16 18  1  0  0  0  0
 18 23  1  0  0  0  0
 18 19  1  0  0  0  0
 18 27  1  0  0  0  0
 19 22  1  0  0  0  0
 19 21  1  0  0  0  0
 20 19  1  0  0  0  0
 23 25  1  0  0  0  0
 24 23  1  0  0  0  0
 26 23  1  0  0  0  0
 27 29  1  0  0  0  0
 28 27  1  0  0  0  0
 30 27  1  0  0  0  0
 31 32  1  0  0  0  0
 31 34  1  0  0  0  0
 33 31  1  0  0  0  0
 34 40  1  0  0  0  0
 34 36  1  0  0  0  0
 35 34  1  0  0  0  0
 36 37  1  0  0  0  0
 36 38  1  0  0  0  0
 39 36  1  0  0  0  0
 40 43  1  0  0  0  0
 40 42  1  0  0  0  0
 41 40  1  0  0  0  0
M  END
