19,20
q = 0.0, confidence = 0.968

 58 59  0  0  0  0  0  0  0  0999 V2000
   -8.3036   -3.7366   -0.3190 F   0  0  0  0  0  0  0  0  0  0  0  0
   -7.5909   -2.3422   -1.8800 F   0  0  0  0  0  0  0  0  0  0  0  0
   -7.3068   -1.7139    1.5666 F   0  0  0  0  0  0  0  0  0  0  0  0
   -7.2461   -0.3716   -0.1888 F   0  0  0  0  0  0  0  0  0  0  0  0
   -9.8588   -2.1786    1.3188 F   0  0  0  0  0  0  0  0  0  0  0  0
   -9.9421   -1.4092   -0.7522 F   0  0  0  0  0  0  0  0  0  0  0  0
   -9.0322    0.4166    2.1231 F   0  0  0  0  0  0  0  0  0  0  0  0
   -9.5229    1.0962    0.0760 F   0  0  0  0  0  0  0  0  0  0  0  0
    7.5708   -1.8040   -1.9322 F   0  0  0  0  0  0  0  0  0  0  0  0
    8.3900   -3.2028   -0.4285 F   0  0  0  0  0  0  0  0  0  0  0  0
    7.1210    0.0835   -0.1065 F   0  0  0  0  0  0  0  0  0  0  0  0
    7.4883   -1.3198    1.5567 F   0  0  0  0  0  0  0  0  0  0  0  0
    9.6650   -0.2335   -1.0152 F   0  0  0  0  0  0  0  0  0  0  0  0
    9.4231    0.5500    1.0381 F   0  0  0  0  0  0  0  0  0  0  0  0
   11.5783   -0.9261    0.8823 F   0  0  0  0  0  0  0  0  0  0  0  0
   10.0398   -2.0779    1.9723 F   0  0  0  0  0  0  0  0  0  0  0  0
   -5.1120   -2.2010   -0.5503 O   0  0  0  0  0  0  0  0  0  0  0  0
    5.1183   -1.8211   -0.5417 O   0  0  0  0  0  0  0  0  0  0  0  0
   -1.4188    1.1067   -0.1775 N   0  0  0  0  0  2  0  0  0  0  0  0
    1.1896    1.2025   -0.1734 N   0  0  0  0  0  2  0  0  0  0  0  0
   -0.8021   -0.1217   -0.1928 C   0  0  0  0  0  0  0  0  0  0  0  0
   -1.5601   -1.3018   -0.2118 C   0  0  0  0  0  0  0  0  0  0  0  0
   -1.0481   -2.2747   -0.2316 H   0  0  0  0  0  0  0  0  0  0  0  0
   -2.9609   -1.2418   -0.2084 C   0  0  0  0  0  0  0  0  0  0  0  0
   -3.5684    0.0285   -0.1981 C   0  0  0  0  0  0  0  0  0  0  0  0
   -4.6629    0.1163   -0.2063 H   0  0  0  0  0  0  0  0  0  0  0  0
   -2.7718    1.1727   -0.1837 C   0  0  0  0  0  0  0  0  0  0  0  0
   -3.1760    2.1993   -0.1745 H   0  0  0  0  0  0  0  0  0  0  0  0
    0.6645   -0.0678   -0.1918 C   0  0  0  0  0  0  0  0  0  0  0  0
    1.5071   -1.1890   -0.2127 C   0  0  0  0  0  0  0  0  0  0  0  0
    1.0675   -2.1967   -0.2364 H   0  0  0  0  0  0  0  0  0  0  0  0
    2.8996   -1.0263   -0.2073 C   0  0  0  0  0  0  0  0  0  0  0  0
    3.4125    0.2849   -0.1907 C   0  0  0  0  0  0  0  0  0  0  0  0
    4.4977    0.4523   -0.1949 H   0  0  0  0  0  0  0  0  0  0  0  0
    2.5342    1.3676   -0.1755 C   0  0  0  0  0  0  0  0  0  0  0  0
    2.8617    2.4212   -0.1630 H   0  0  0  0  0  0  0  0  0  0  0  0
   -3.7876   -2.5027   -0.1844 C   0  0  0  0  0  0  0  0  0  0  0  0
   -6.0248   -3.2427   -0.3431 C   0  0  0  0  0  0  0  0  0  0  0  0
   -7.4366   -2.7127   -0.5838 C   0  0  0  0  0  0  0  0  0  0  0  0
   -7.8143   -1.4942    0.3232 C   0  0  0  0  0  0  0  0  0  0  0  0
   -9.3511   -1.2545    0.4608 C   0  0  0  0  0  0  0  0  0  0  0  0
   -9.7506    0.1414    1.0051 C   0  0  0  0  0  0  0  0  0  0  0  0
    3.8158   -2.2237   -0.1904 C   0  0  0  0  0  0  0  0  0  0  0  0
    6.0942   -2.8077   -0.3658 C   0  0  0  0  0  0  0  0  0  0  0  0
    7.4674   -2.2006   -0.6414 C   0  0  0  0  0  0  0  0  0  0  0  0
    7.8408   -1.0006    0.2819 C   0  0  0  0  0  0  0  0  0  0  0  0
    9.3432   -0.5619    0.2670 C   0  0  0  0  0  0  0  0  0  0  0  0
   10.3998   -1.5850    0.7593 C   0  0  0  0  0  0  0  0  0  0  0  0
   -3.3403   -3.2686   -0.8664 H   0  0  0  0  0  0  0  0  0  0  0  0
   -3.7558   -2.9422    0.8462 H   0  0  0  0  0  0  0  0  0  0  0  0
   -5.9780   -3.6440    0.6962 H   0  0  0  0  0  0  0  0  0  0  0  0
   -5.8776   -4.0933   -1.0523 H   0  0  0  0  0  0  0  0  0  0  0  0
  -10.8367    0.1153    1.2583 H   0  0  0  0  0  0  0  0  0  0  0  0
    3.8089   -2.6786    0.8338 H   0  0  0  0  0  0  0  0  0  0  0  0
    3.4323   -3.0110   -0.8867 H   0  0  0  0  0  0  0  0  0  0  0  0
    5.9779   -3.6617   -1.0773 H   0  0  0  0  0  0  0  0  0  0  0  0
    6.0998   -3.2184    0.6712 H   0  0  0  0  0  0  0  0  0  0  0  0
   10.5151   -2.4179    0.0342 H   0  0  0  0  0  0  0  0  0  0  0  0
  2 39  1  0  0  0  0
  4 40  1  0  0  0  0
  6 41  1  0  0  0  0
  8 42  1  0  0  0  0
  9 45  1  0  0  0  0
 11 46  1  0  0  0  0
 13 47  1  0  0  0  0
 17 38  1  0  0  0  0
 17 37  1  0  0  0  0
 18 44  1  0  0  0  0
 18 43  1  0  0  0  0
 21 29  2  0  0  0  0
 21 19  1  0  0  0  0
 22 24  2  0  0  0  0
 22 21  1  0  0  0  0
 23 22  1  0  0  0  0
 24 25  1  0  0  0  0
 24 37  1  0  0  0  0
 25 27  2  0  0  0  0
 26 25  1  0  0  0  0
 27 19  1  0  0  0  0
 27 28  1  0  0  0  0
 29 20  1  0  0  0  0
 30 32  2  0  0  0  0
 30 29  1  0  0  0  0
 31 30  1  0  0  0  0
 32 33  1  0  0  0  0
 32 43  1  0  0  0  0
 33 35  2  0  0  0  0
 34 33  1  0  0  0  0
 35 20  1  0  0  0  0
 35 36  1  0  0  0  0
 37 50  1  0  0  0  0
 38 51  1  0  0  0  0
 39 38  1  0  0  0  0
 39  1  1  0  0  0  0
 39 40  1  0  0  0  0
 40 41  1  0  0  0  0
 40  3  1  0  0  0  0
 41 42  1  0  0  0  0
 41  5  1  0  0  0  0
 42 53  1  0  0  0  0
 42  7  1  0  0  0  0
 43 54  1  0  0  0  0
 44 57  1  0  0  0  0
 45 10  1  0  0  0  0
 45 44  1  0  0  0  0
 45 46  1  0  0  0  0
 46 12  1  0  0  0  0
 47 46  1  0  0  0  0
 47 48  1  0  0  0  0
 47 14  1  0  0  0  0
 48 15  1  0  0  0  0
 48 16  1  0  0  0  0
 49 37  1  0  0  0  0
 52 38  1  0  0  0  0
 55 43  1  0  0  0  0
 56 44  1  0  0  0  0
 58 48  1  0  0  0  0
M  END
