1,3
q = 0.0, confidence = 0.998

 36 38  0  0  1  0  0  0  0  0999 V2000
   -1.6657    1.4149   -0.1303 N   0  0  0  0  0  2  0  0  0  0  0  0
   -0.3215    1.7081   -0.1915 N   0  0  0  0  0  0  0  0  0  0  0  0
   -0.0799   -0.5871   -0.0533 N   0  0  0  0  0  2  0  0  0  0  0  0
    2.0245   -1.6877    0.1151 N   0  0  0  0  0  0  0  0  0  0  0  0
    4.0348   -0.4782   -0.0279 N   0  0  0  0  0  0  0  0  0  0  0  0
    4.6492    0.7413   -0.1792 N   0  0  0  0  0  0  0  0  0  0  0  0
   -2.3219    2.5785   -0.0046 C   0  0  2  0  0  3  0  0  0  0  0  0
   -1.3793    3.6418   -0.0241 C   0  0  0  0  0  0  0  0  0  0  0  0
   -1.6043    4.7108    0.0464 H   0  0  0  0  0  0  0  0  0  0  0  0
   -0.1157    3.0814   -0.1358 C   0  0  0  0  0  0  0  0  0  0  0  0
    0.5520    0.6233   -0.1363 C   0  0  2  0  0  3  0  0  0  0  0  0
    1.9394    0.7151   -0.1434 C   0  0  0  0  0  0  0  0  0  0  0  0
    2.5038    1.6460   -0.2262 H   0  0  0  0  0  0  0  0  0  0  0  0
    2.6519   -0.5015   -0.0209 C   0  0  0  0  0  0  0  0  0  0  0  0
    0.7043   -1.6797    0.0993 C   0  0  0  0  0  0  0  0  0  0  0  0
    0.1770   -2.6370    0.2324 H   0  0  0  0  0  0  0  0  0  0  0  0
    4.9587   -1.5304    0.1062 C   0  0  0  0  0  0  0  0  0  0  0  0
    6.1945   -0.9200    0.0312 C   0  0  0  0  0  0  0  0  0  0  0  0
    7.1648   -1.4242    0.0975 H   0  0  0  0  0  0  0  0  0  0  0  0
    5.9525    0.4863   -0.1454 C   0  0  0  0  0  0  0  0  0  0  0  0
   -3.7974    2.6626    0.1856 C   0  0  0  0  0  0  0  0  0  0  0  0
   -4.1116    1.9847    1.0040 H   0  0  0  0  0  0  0  0  0  0  0  0
   -4.3541    2.3870   -0.7324 H   0  0  0  0  0  0  0  0  0  0  0  0
   -4.0865    3.6948    0.4525 H   0  0  0  0  0  0  0  0  0  0  0  0
    1.2093    3.7600   -0.1801 C   0  0  0  0  0  0  0  0  0  0  0  0
    1.7780    3.5171   -1.1005 H   0  0  0  0  0  0  0  0  0  0  0  0
    1.8412    3.4977    0.6932 H   0  0  0  0  0  0  0  0  0  0  0  0
    1.0487    4.8528   -0.1605 H   0  0  0  0  0  0  0  0  0  0  0  0
    4.6220   -2.9704    0.2922 C   0  0  0  0  0  0  0  0  0  0  0  0
    5.5613   -3.5480    0.3724 H   0  0  0  0  0  0  0  0  0  0  0  0
    4.0280   -3.3692   -0.5529 H   0  0  0  0  0  0  0  0  0  0  0  0
    4.0191   -3.1386    1.2056 H   0  0  0  0  0  0  0  0  0  0  0  0
    6.9602    1.5780   -0.2802 C   0  0  0  0  0  0  0  0  0  0  0  0
    6.4584    2.5548   -0.4041 H   0  0  0  0  0  0  0  0  0  0  0  0
    7.6196    1.4013   -1.1544 H   0  0  0  0  0  0  0  0  0  0  0  0
    7.6149    1.6233    0.6139 H   0  0  0  0  0  0  0  0  0  0  0  0
  1  7  1  0  0  0  0
  2 10  1  0  0  0  0
  2  1  1  0  0  0  0
  3 15  1  0  0  0  0
  5 14  1  0  0  0  0
  5 17  1  0  0  0  0
  6 20  2  0  0  0  0
  6  5  1  0  0  0  0
  7 21  1  1  0  0  0
  8  7  1  0  0  0  0
  8  9  1  0  0  0  0
 10  8  2  0  0  0  0
 11  2  1  1  0  0  0
 11  3  1  0  0  0  0
 12 11  1  0  0  0  0
 12 14  2  0  0  0  0
 13 12  1  0  0  0  0
 14  4  1  0  0  0  0
 15  4  2  0  0  0  0
 15 16  1  0  0  0  0
 17 29  1  0  0  0  0
 18 19  1  0  0  0  0
 18 17  2  0  0  0  0
 20 18  1  0  0  0  0
 21 24  1  0  0  0  0
 21 22  1  0  0  0  0
 23 21  1  0  0  0  0
 25 28  1  0  0  0  0
 25 10  1  0  0  0  0
 25 27  1  0  0  0  0
 26 25  1  0  0  0  0
 29 30  1  0  0  0  0
 29 32  1  0  0  0  0
 31 29  1  0  0  0  0
 33 20  1  0  0  0  0
 33 36  1  0  0  0  0
 34 33  1  0  0  0  0
 35 33  1  0  0  0  0
M  END
