1,2
q = 0.0, confidence = 0.996

 33 34  0  0  1  0  0  0  0  0999 V2000
   -1.5546    1.4220    0.2171 N   0  0  0  0  0  2  0  0  0  0  0  0
    0.7257    0.5315   -0.5302 N   0  0  0  0  0  2  0  0  0  0  0  0
   -2.8234    1.8166    0.4653 C   0  0  0  0  0  3  0  0  0  0  0  0
   -3.1679    3.1610    0.6289 C   0  0  0  0  0  0  0  0  0  0  0  0
   -2.1723    4.1429    0.5081 C   0  0  0  0  0  0  0  0  0  0  0  0
   -0.8696    3.7409    0.1993 C   0  0  0  0  0  0  0  0  0  0  0  0
   -0.5827    2.3724    0.0448 C   0  0  0  0  0  0  0  0  0  0  0  0
    0.7081    1.8373   -0.3840 C   0  0  2  0  0  3  0  0  0  0  0  0
    1.8440    2.7753   -0.6579 C   0  0  0  0  0  0  0  0  0  0  0  0
    1.8864   -0.1673   -1.1379 C   0  0  1  0  0  0  0  0  0  0  0  0
    2.0285    0.2004   -2.6224 C   0  0  0  0  0  0  0  0  0  0  0  0
    3.1495   -0.0536   -0.2837 C   0  0  0  0  0  0  0  0  0  0  0  0
    4.4257   -0.1758   -0.8680 C   0  0  0  0  0  0  0  0  0  0  0  0
    5.5827   -0.1484   -0.0728 C   0  0  0  0  0  0  0  0  0  0  0  0
    5.4855    0.0062    1.3176 C   0  0  0  0  0  0  0  0  0  0  0  0
    4.2195    0.1345    1.9104 C   0  0  0  0  0  0  0  0  0  0  0  0
    3.0637    0.1028    1.1170 C   0  0  0  0  0  0  0  0  0  0  0  0
   -3.5785    1.0221    0.5171 H   0  0  0  0  0  0  0  0  0  0  0  0
   -4.2132    3.4264    0.8400 H   0  0  0  0  0  0  0  0  0  0  0  0
   -2.4137    5.2083    0.6321 H   0  0  0  0  0  0  0  0  0  0  0  0
   -0.0730    4.4832    0.0583 H   0  0  0  0  0  0  0  0  0  0  0  0
    2.7951    2.2503   -0.8378 H   0  0  0  0  0  0  0  0  0  0  0  0
    1.6134    3.4113   -1.5378 H   0  0  0  0  0  0  0  0  0  0  0  0
    1.9911    3.4512    0.2087 H   0  0  0  0  0  0  0  0  0  0  0  0
    1.5886   -1.2311   -1.1215 H   0  0  0  0  0  0  0  0  0  0  0  0
    1.0297    0.1671   -3.0982 H   0  0  0  0  0  0  0  0  0  0  0  0
    2.4724    1.2016   -2.7774 H   0  0  0  0  0  0  0  0  0  0  0  0
    2.6723   -0.5421   -3.1309 H   0  0  0  0  0  0  0  0  0  0  0  0
    4.5276   -0.2944   -1.9558 H   0  0  0  0  0  0  0  0  0  0  0  0
    6.5696   -0.2453   -0.5495 H   0  0  0  0  0  0  0  0  0  0  0  0
    6.3935    0.0316    1.9379 H   0  0  0  0  0  0  0  0  0  0  0  0
    4.1312    0.2641    2.9996 H   0  0  0  0  0  0  0  0  0  0  0  0
    2.0778    0.2209    1.5920 H   0  0  0  0  0  0  0  0  0  0  0  0
  1  3  1  0  0  0  0
  3 18  1  0  0  0  0
  3  4  1  0  0  0  0
  4 19  1  0  0  0  0
  5  4  2  0  0  0  0
  5 20  1  0  0  0  0
  6  5  1  0  0  0  0
  7  6  2  0  0  0  0
  7  1  1  0  0  0  0
  8  2  1  6  0  0  0
  8  7  1  0  0  0  0
  9  8  1  0  0  0  0
  9 24  1  0  0  0  0
 10 25  1  1  0  0  0
 10  2  1  0  0  0  0
 10 12  1  0  0  0  0
 11 10  1  0  0  0  0
 12 17  1  0  0  0  0
 13 12  2  0  0  0  0
 13 14  1  0  0  0  0
 14 15  2  0  0  0  0
 15 16  1  0  0  0  0
 15 31  1  0  0  0  0
 16 32  1  0  0  0  0
 17 33  1  0  0  0  0
 17 16  2  0  0  0  0
 21  6  1  0  0  0  0
 22  9  1  0  0  0  0
 23  9  1  0  0  0  0
 26 11  1  0  0  0  0
 27 11  1  0  0  0  0
 28 11  1  0  0  0  0
 29 13  1  0  0  0  0
 30 14  1  0  0  0  0
M  END
