1,2
q = 0.0, confidence = 0.998

 27 28  0  0  0  0  0  0  0  0999 V2000
   -0.4697   -0.9755    0.0679 N   0  0  0  0  0  2  0  0  0  0  0  0
    0.3794    1.5015   -0.0319 N   0  0  0  0  0  2  0  0  0  0  0  0
   -0.7841   -2.3919    0.1849 C   0  0  0  0  0  0  0  0  0  0  0  0
   -0.1782   -2.8187    1.0079 H   0  0  0  0  0  0  0  0  0  0  0  0
   -0.4641   -2.9116   -0.7413 H   0  0  0  0  0  0  0  0  0  0  0  0
   -1.8589   -2.5925    0.3657 H   0  0  0  0  0  0  0  0  0  0  0  0
   -1.4257   -0.0714    0.0226 C   0  0  0  0  0  0  0  0  0  0  0  0
   -0.9820    1.3220   -0.0485 C   0  0  0  0  0  0  0  0  0  0  0  0
   -1.8677    2.4159   -0.1467 C   0  0  0  0  0  0  0  0  0  0  0  0
   -2.9492    2.2272   -0.1802 H   0  0  0  0  0  0  0  0  0  0  0  0
   -1.3566    3.7139   -0.2059 C   0  0  0  0  0  0  0  0  0  0  0  0
   -2.0326    4.5779   -0.2828 H   0  0  0  0  0  0  0  0  0  0  0  0
    0.0387    3.8898   -0.1696 C   0  0  0  0  0  0  0  0  0  0  0  0
    0.4922    4.8901   -0.2115 H   0  0  0  0  0  0  0  0  0  0  0  0
    0.8624    2.7653   -0.0877 C   0  0  0  0  0  0  0  0  0  0  0  0
    1.9580    2.8593   -0.0696 H   0  0  0  0  0  0  0  0  0  0  0  0
   -2.8833   -0.3878    0.0246 C   0  0  0  0  0  0  0  0  0  0  0  0
   -3.6891   -0.0429    1.1309 C   0  0  0  0  0  0  0  0  0  0  0  0
   -3.2302    0.4495    2.0019 H   0  0  0  0  0  0  0  0  0  0  0  0
   -5.0605   -0.3372    1.1278 C   0  0  0  0  0  0  0  0  0  0  0  0
   -5.6777   -0.0716    1.9992 H   0  0  0  0  0  0  0  0  0  0  0  0
   -5.6428   -0.9716    0.0189 C   0  0  0  0  0  0  0  0  0  0  0  0
   -6.7191   -1.2004    0.0170 H   0  0  0  0  0  0  0  0  0  0  0  0
   -4.8489   -1.3137   -1.0877 C   0  0  0  0  0  0  0  0  0  0  0  0
   -5.3017   -1.8078   -1.9604 H   0  0  0  0  0  0  0  0  0  0  0  0
   -3.4770   -1.0249   -1.0862 C   0  0  0  0  0  0  0  0  0  0  0  0
   -2.8541   -1.2877   -1.9548 H   0  0  0  0  0  0  0  0  0  0  0  0
  1  3  1  0  0  0  0
  3  6  1  0  0  0  0
  3  4  1  0  0  0  0
  5  3  1  0  0  0  0
  7 17  1  0  0  0  0
  7  1  1  0  0  0  0
  8  2  1  0  0  0  0
  8  7  2  0  0  0  0
  9  8  1  0  0  0  0
 10  9  1  0  0  0  0
 11 13  1  0  0  0  0
 11  9  2  0  0  0  0
 12 11  1  0  0  0  0
 13 15  2  0  0  0  0
 14 13  1  0  0  0  0
 15 16  1  0  0  0  0
 15  2  1  0  0  0  0
 17 18  1  0  0  0  0
 18 19  1  0  0  0  0
 20 18  2  0  0  0  0
 20 21  1  0  0  0  0
 22 20  1  0  0  0  0
 23 22  1  0  0  0  0
 24 26  1  0  0  0  0
 24 22  2  0  0  0  0
 25 24  1  0  0  0  0
 26 17  2  0  0  0  0
 27 26  1  0  0  0  0
M  END
