1,2
q = 0.0, confidence = 0.998

 36 39  0  0  1  0  0  0  0  0999 V2000
   -1.3411   -2.1032   -0.4658 N   0  0  0  0  0  2  0  0  0  0  0  0
    0.3369   -0.0355   -0.2936 N   0  0  0  0  0  2  0  0  0  0  0  0
   -0.3041    2.5818   -1.4069 N   0  0  0  0  0  0  0  0  0  0  0  0
    5.6836    0.8627   -0.1138 S   0  0  0  0  0  0  0  0  0  0  0  0
   -2.2538   -3.0751   -0.6846 C   0  0  0  0  0  3  0  0  0  0  0  0
   -3.3068   -2.7618   -0.6465 H   0  0  0  0  0  0  0  0  0  0  0  0
   -1.8953   -4.4020   -0.9263 C   0  0  0  0  0  0  0  0  0  0  0  0
   -2.6777   -5.1553   -1.0928 H   0  0  0  0  0  0  0  0  0  0  0  0
   -0.5323   -4.7388   -0.9440 C   0  0  0  0  0  0  0  0  0  0  0  0
   -0.2097   -5.7737   -1.1296 H   0  0  0  0  0  0  0  0  0  0  0  0
    0.4129   -3.7337   -0.7285 C   0  0  0  0  0  0  0  0  0  0  0  0
    1.4838   -3.9722   -0.7557 H   0  0  0  0  0  0  0  0  0  0  0  0
   -0.0131   -2.4131   -0.4874 C   0  0  0  0  0  0  0  0  0  0  0  0
    0.9131   -1.2754   -0.3123 C   0  0  1  0  0  3  0  0  0  0  0  0
    2.2998   -1.4519   -0.2229 C   0  0  0  0  0  0  0  0  0  0  0  0
    2.7192   -2.4643   -0.2445 H   0  0  0  0  0  0  0  0  0  0  0  0
    3.1563   -0.3406   -0.0964 C   0  0  0  0  0  0  0  0  0  0  0  0
    2.5404    0.9295   -0.1336 C   0  0  0  0  0  0  0  0  0  0  0  0
    3.1437    1.8472   -0.0833 H   0  0  0  0  0  0  0  0  0  0  0  0
    1.1508    1.0509   -0.2535 C   0  0  0  0  0  0  0  0  0  0  0  0
    0.5481    2.4097   -0.3797 C   0  0  0  0  0  0  0  0  0  0  0  0
    0.8928    3.4435    0.5131 C   0  0  0  0  0  0  0  0  0  0  0  0
    1.5758    3.2507    1.3533 H   0  0  0  0  0  0  0  0  0  0  0  0
    0.3041    4.7021    0.3313 C   0  0  0  0  0  0  0  0  0  0  0  0
    0.5294    5.5270    1.0238 H   0  0  0  0  0  0  0  0  0  0  0  0
   -0.5909    4.8823   -0.7313 C   0  0  0  0  0  0  0  0  0  0  0  0
   -1.0842    5.8501   -0.9039 H   0  0  0  0  0  0  0  0  0  0  0  0
   -0.8582    3.7882   -1.5729 C   0  0  0  0  0  0  0  0  0  0  0  0
   -1.5633    3.8847   -2.4173 H   0  0  0  0  0  0  0  0  0  0  0  0
    4.5995   -0.5043    0.0450 C   0  0  0  0  0  0  0  0  0  0  0  0
    5.3251   -1.6638    0.3143 C   0  0  0  0  0  0  0  0  0  0  0  0
    4.8528   -2.6422    0.4744 H   0  0  0  0  0  0  0  0  0  0  0  0
    6.7277   -1.4453    0.3935 C   0  0  0  0  0  0  0  0  0  0  0  0
    7.4640   -2.2326    0.6036 H   0  0  0  0  0  0  0  0  0  0  0  0
    7.0703   -0.1208    0.1812 C   0  0  0  0  0  0  0  0  0  0  0  0
    8.0690    0.3328    0.1795 H   0  0  0  0  0  0  0  0  0  0  0  0
  2 20  1  0  0  0  0
  3 21  1  0  0  0  0
  4 30  1  0  0  0  0
  4 35  1  0  0  0  0
  5  6  1  0  0  0  0
  5  1  1  0  0  0  0
  7  5  1  0  0  0  0
  8  7  1  0  0  0  0
  9  7  2  0  0  0  0
  9 11  1  0  0  0  0
 10  9  1  0  0  0  0
 11 13  2  0  0  0  0
 12 11  1  0  0  0  0
 13  1  1  0  0  0  0
 14 13  1  6  0  0  0
 14  2  1  0  0  0  0
 14 15  1  0  0  0  0
 15 17  2  0  0  0  0
 16 15  1  0  0  0  0
 17 30  1  0  0  0  0
 18 17  1  0  0  0  0
 18 19  1  0  0  0  0
 20 18  2  0  0  0  0
 21 20  1  0  0  0  0
 21 22  2  0  0  0  0
 22 23  1  0  0  0  0
 24 22  1  0  0  0  0
 24 25  1  0  0  0  0
 26 24  2  0  0  0  0
 27 26  1  0  0  0  0
 28  3  2  0  0  0  0
 28 26  1  0  0  0  0
 29 28  1  0  0  0  0
 30 31  2  0  0  0  0
 31 33  1  0  0  0  0
 31 32  1  0  0  0  0
 33 34  1  0  0  0  0
 35 33  2  0  0  0  0
 36 35  1  0  0  0  0
M  END
