1,2
q = 0.0, confidence = 0.996

 35 37  0  0  1  0  0  0  0  0999 V2000
   -1.9308    0.8055    0.1011 N   0  0  0  0  0  2  0  0  0  0  0  0
    0.5391   -0.2697   -0.2839 N   0  0  0  0  0  0  0  0  0  0  0  0
    0.9455   -0.7015   -1.1286 H   0  0  0  0  0  0  0  0  0  0  0  0
   -0.9095    1.6928   -0.1779 C   0  0  0  0  0  0  0  0  0  0  0  0
    0.3821    1.1637   -0.4621 C   0  0  0  0  0  0  0  0  0  0  0  0
    1.4058    2.0157   -0.8623 C   0  0  0  0  0  0  0  0  0  0  0  0
    1.1754    3.4152   -0.9376 C   0  0  0  0  0  0  0  0  0  0  0  0
   -0.0606    3.9542   -0.6097 C   0  0  0  0  0  3  0  0  0  0  0  0
   -1.1400    3.1060   -0.2290 C   0  0  0  0  0  0  0  0  0  0  0  0
    2.3938    1.6059   -1.1112 H   0  0  0  0  0  0  0  0  0  0  0  0
    1.9968    4.0747   -1.2542 H   0  0  0  0  0  0  0  0  0  0  0  0
   -0.2304    5.0404   -0.6580 H   0  0  0  0  0  0  0  0  0  0  0  0
   -2.4513    3.5699    0.0808 C   0  0  0  0  0  0  0  0  0  0  0  0
   -2.6612    4.6502    0.0593 H   0  0  0  0  0  0  0  0  0  0  0  0
   -3.4439    2.6523    0.3909 C   0  0  0  0  0  0  0  0  0  0  0  0
   -4.4664    2.9767    0.6305 H   0  0  0  0  0  0  0  0  0  0  0  0
   -3.1527    1.2666    0.3783 C   0  0  0  0  0  0  0  0  0  0  0  0
   -3.9077    0.4819    0.5634 H   0  0  0  0  0  0  0  0  0  0  0  0
    1.4198   -0.6963    0.8935 C   0  0  2  0  0  0  0  0  0  0  0  0
    1.2210   -1.7876    0.9389 H   0  0  0  0  0  0  0  0  0  0  0  0
    0.9447   -0.0451    2.1826 C   0  0  0  0  0  0  0  0  0  0  0  0
    1.5580   -0.4093    3.0288 H   0  0  0  0  0  0  0  0  0  0  0  0
   -0.1114   -0.3190    2.3758 H   0  0  0  0  0  0  0  0  0  0  0  0
    1.0179    1.0608    2.1557 H   0  0  0  0  0  0  0  0  0  0  0  0
    2.8846   -0.5048    0.5415 C   0  0  0  0  0  0  0  0  0  0  0  0
    3.6852    0.5147    1.0908 C   0  0  0  0  0  0  0  0  0  0  0  0
    5.0188    0.6730    0.6793 C   0  0  0  0  0  0  0  0  0  0  0  0
    5.5675   -0.1860   -0.2851 C   0  0  0  0  0  0  0  0  0  0  0  0
    4.7807   -1.2157   -0.8293 C   0  0  0  0  0  0  0  0  0  0  0  0
    3.4519   -1.3758   -0.4146 C   0  0  0  0  0  0  0  0  0  0  0  0
    3.2667    1.1958    1.8459 H   0  0  0  0  0  0  0  0  0  0  0  0
    5.6341    1.4733    1.1181 H   0  0  0  0  0  0  0  0  0  0  0  0
    6.6125   -0.0605   -0.6065 H   0  0  0  0  0  0  0  0  0  0  0  0
    5.2094   -1.9046   -1.5728 H   0  0  0  0  0  0  0  0  0  0  0  0
    2.8351   -2.1941   -0.8244 H   0  0  0  0  0  0  0  0  0  0  0  0
  1 17  1  0  0  0  0
  2 19  1  0  0  0  0
  3  2  1  0  0  0  0
  4  1  1  0  0  0  0
  5  2  1  0  0  0  0
  5  4  2  0  0  0  0
  6  5  1  0  0  0  0
  7  6  2  0  0  0  0
  7  8  1  0  0  0  0
  8  9  1  0  0  0  0
  9  4  1  0  0  0  0
  9 13  2  0  0  0  0
 10  6  1  0  0  0  0
 11  7  1  0  0  0  0
 12  8  1  0  0  0  0
 13 15  1  0  0  0  0
 14 13  1  0  0  0  0
 15 16  1  0  0  0  0
 17 15  2  0  0  0  0
 17 18  1  0  0  0  0
 19 20  1  1  0  0  0
 19 21  1  0  0  0  0
 21 23  1  0  0  0  0
 21 22  1  0  0  0  0
 24 21  1  0  0  0  0
 25 19  1  0  0  0  0
 25 26  1  0  0  0  0
 26 31  1  0  0  0  0
 27 26  2  0  0  0  0
 27 32  1  0  0  0  0
 28 27  1  0  0  0  0
 29 30  1  0  0  0  0
 29 28  2  0  0  0  0
 30 25  2  0  0  0  0
 33 28  1  0  0  0  0
 34 29  1  0  0  0  0
 35 30  1  0  0  0  0
M  END
