1,4
q = 0.0, confidence = 1.0

 31 33  0  0  1  0  0  0  0  0999 V2000
   -0.2175    1.1649   -0.3898 N   0  0  0  0  0  2  0  0  0  0  0  0
   -1.6040    3.1143   -0.0658 C   0  0  0  0  0  0  0  0  0  0  0  0
   -2.6200    3.5250    0.0309 H   0  0  0  0  0  0  0  0  0  0  0  0
    2.1603   -0.0466   -0.6228 N   0  0  0  0  0  2  0  0  0  0  0  0
   -1.4470    1.7332   -0.2650 C   0  0  1  0  0  3  0  0  0  0  0  0
   -2.8905    0.1009   -1.5151 C   0  0  0  0  0  0  0  0  0  0  0  0
   -2.1479    0.0906   -2.3247 H   0  0  0  0  0  0  0  0  0  0  0  0
   -2.6646    0.8905   -0.3677 C   0  0  0  0  0  0  0  0  0  0  0  0
    3.3068   -0.7254   -0.8519 C   0  0  0  0  0  3  0  0  0  0  0  0
    3.2262   -1.8214   -0.8431 H   0  0  0  0  0  0  0  0  0  0  0  0
    2.1839    1.3166   -0.6076 C   0  0  0  0  0  0  0  0  0  0  0  0
    0.8818    1.9813   -0.3941 C   0  0  0  0  0  0  0  0  0  0  0  0
   -4.0576   -0.6653   -1.6218 C   0  0  0  0  0  0  0  0  0  0  0  0
   -4.2208   -1.2825   -2.5178 H   0  0  0  0  0  0  0  0  0  0  0  0
   -3.6304    0.9143    0.6587 C   0  0  0  0  0  0  0  0  0  0  0  0
   -3.4431    1.5109    1.5643 H   0  0  0  0  0  0  0  0  0  0  0  0
   -4.7924    0.1379    0.5513 C   0  0  0  0  0  0  0  0  0  0  0  0
   -5.5268    0.1386    1.3704 H   0  0  0  0  0  0  0  0  0  0  0  0
   -5.0071   -0.6533   -0.5874 C   0  0  0  0  0  0  0  0  0  0  0  0
   -5.9159   -1.2685   -0.6669 H   0  0  0  0  0  0  0  0  0  0  0  0
   -0.5387    5.2840    0.1577 O   0  0  0  0  0  0  0  0  0  0  0  0
   -1.4697    5.5461    0.2908 H   0  0  0  0  0  0  0  0  0  0  0  0
   -0.4757    3.9505   -0.0307 C   0  0  0  0  0  0  0  0  0  0  0  0
    0.7857    3.3674   -0.2281 C   0  0  0  0  0  0  0  0  0  0  0  0
    1.6728    4.0112   -0.2158 H   0  0  0  0  0  0  0  0  0  0  0  0
    4.5683    1.3161   -1.0564 C   0  0  0  0  0  0  0  0  0  0  0  0
    5.5114    1.8558   -1.2254 H   0  0  0  0  0  0  0  0  0  0  0  0
    4.5283   -0.0871   -1.0711 C   0  0  0  0  0  0  0  0  0  0  0  0
    5.4312   -0.6881   -1.2466 H   0  0  0  0  0  0  0  0  0  0  0  0
    3.3841    2.0198   -0.8272 C   0  0  0  0  0  0  0  0  0  0  0  0
    3.3880    3.1170   -0.8248 H   0  0  0  0  0  0  0  0  0  0  0  0
  1  5  1  0  0  0  0
  2 23  2  0  0  0  0
  2  3  1  0  0  0  0
  4 11  1  0  0  0  0
  5  8  1  6  0  0  0
  5  2  1  0  0  0  0
  6  8  1  0  0  0  0
  7  6  1  0  0  0  0
  8 15  2  0  0  0  0
  9 10  1  0  0  0  0
  9  4  1  0  0  0  0
 11 12  1  0  0  0  0
 12  1  1  0  0  0  0
 12 24  2  0  0  0  0
 13  6  2  0  0  0  0
 13 19  1  0  0  0  0
 14 13  1  0  0  0  0
 15 16  1  0  0  0  0
 17 15  1  0  0  0  0
 17 18  1  0  0  0  0
 19 17  2  0  0  0  0
 20 19  1  0  0  0  0
 21 22  1  0  0  0  0
 23 21  1  0  0  0  0
 24 25  1  0  0  0  0
 24 23  1  0  0  0  0
 26 30  1  0  0  0  0
 27 26  1  0  0  0  0
 28 26  2  0  0  0  0
 28  9  1  0  0  0  0
 29 28  1  0  0  0  0
 30 31  1  0  0  0  0
 30 11  2  0  0  0  0
M  END
