9,13
q = 0.0, confidence = 0.994

 36 39  0  0  0  0  0  0  0  0999 V2000
    5.4888    2.4240   -0.2153 O   0  0  0  0  0  0  0  0  0  0  0  0
    3.9897    0.6959    0.0203 N   0  0  0  0  0  0  0  0  0  0  0  0
    3.8940   -0.3212    0.1665 H   0  0  0  0  0  0  0  0  0  0  0  0
    5.2942    1.2283   -0.0777 C   0  0  0  0  0  0  0  0  0  0  0  0
    5.0843   -1.7299    0.4627 O   0  0  0  0  0  0  0  0  0  0  0  0
    5.1976   -2.6733    0.6843 H   0  0  0  0  0  0  0  0  0  0  0  0
    2.9487    1.5143    0.0277 N   0  0  0  0  0  2  0  0  0  0  0  0
    6.4154    0.2241   -0.0307 C   0  0  0  0  0  0  0  0  0  0  0  0
   -1.1374   -1.2099    0.0810 N   0  0  0  0  0  2  0  0  0  0  0  0
    6.3164   -1.1684    0.2271 C   0  0  0  0  0  0  0  0  0  0  0  0
    7.4706   -1.9715    0.2530 C   0  0  0  0  0  0  0  0  0  0  0  0
    7.3701   -3.0505    0.4565 H   0  0  0  0  0  0  0  0  0  0  0  0
   -1.8658    1.5507    0.2498 N   0  0  0  0  0  0  0  0  0  0  0  0
    8.7317   -1.4110    0.0223 C   0  0  0  0  0  0  0  0  0  0  0  0
    9.6228   -2.0559    0.0454 H   0  0  0  0  0  0  0  0  0  0  0  0
    8.8515   -0.0352   -0.2353 C   0  0  0  0  0  0  0  0  0  0  0  0
    9.8385    0.4133   -0.4173 H   0  0  0  0  0  0  0  0  0  0  0  0
    7.7036    0.7593   -0.2566 C   0  0  0  0  0  0  0  0  0  0  0  0
    7.7542    1.8414   -0.4472 H   0  0  0  0  0  0  0  0  0  0  0  0
    1.7357    1.0353    0.0543 C   0  0  0  0  0  0  0  0  0  0  0  0
    1.1901   -0.3602    0.0116 C   0  0  0  0  0  0  0  0  0  0  0  0
    1.6744   -1.6719   -0.1334 C   0  0  0  0  0  0  0  0  0  0  0  0
    2.7416   -1.9093   -0.2478 H   0  0  0  0  0  0  0  0  0  0  0  0
    0.7255   -2.7183   -0.1528 C   0  0  0  0  0  0  0  0  0  0  0  0
    1.0598   -3.7589   -0.2694 H   0  0  0  0  0  0  0  0  0  0  0  0
   -0.6535   -2.4669   -0.0382 C   0  0  0  0  0  3  0  0  0  0  0  0
   -1.3945   -3.2794   -0.0595 H   0  0  0  0  0  0  0  0  0  0  0  0
   -0.2188   -0.2336    0.0910 C   0  0  0  0  0  0  0  0  0  0  0  0
    0.5671    1.9494    0.1408 C   0  0  0  0  0  0  0  0  0  0  0  0
    0.3768    3.3364    0.1997 C   0  0  0  0  0  0  0  0  0  0  0  0
    1.2246    4.0362    0.1781 H   0  0  0  0  0  0  0  0  0  0  0  0
   -0.9577    3.7877    0.2800 C   0  0  0  0  0  0  0  0  0  0  0  0
   -1.1718    4.8652    0.3205 H   0  0  0  0  0  0  0  0  0  0  0  0
   -2.0452    2.8894    0.3025 C   0  0  0  0  0  3  0  0  0  0  0  0
   -3.0850    3.2443    0.3533 H   0  0  0  0  0  0  0  0  0  0  0  0
   -0.5887    1.1491    0.1701 C   0  0  0  0  0  0  0  0  0  0  0  0
  1  4  2  0  0  0  0
  2  7  1  0  0  0  0
  2  3  1  0  0  0  0
  4  8  1  0  0  0  0
  4  2  1  0  0  0  0
  5  6  1  0  0  0  0
  7 20  1  0  0  0  0
  8 10  1  0  0  0  0
  9 28  1  0  0  0  0
 10 11  2  0  0  0  0
 10  5  1  0  0  0  0
 11 12  1  0  0  0  0
 13 34  1  0  0  0  0
 14 15  1  0  0  0  0
 14 11  1  0  0  0  0
 16 14  2  0  0  0  0
 17 16  1  0  0  0  0
 18 16  1  0  0  0  0
 18  8  2  0  0  0  0
 19 18  1  0  0  0  0
 20 29  2  0  0  0  0
 21 20  1  0  0  0  0
 21 28  2  0  0  0  0
 22 21  1  0  0  0  0
 23 22  1  0  0  0  0
 24 22  2  0  0  0  0
 24 26  1  0  0  0  0
 25 24  1  0  0  0  0
 26  9  1  0  0  0  0
 27 26  1  0  0  0  0
 28 36  1  0  0  0  0
 29 36  1  0  0  0  0
 29 30  1  0  0  0  0
 30 32  2  0  0  0  0
 31 30  1  0  0  0  0
 32 34  1  0  0  0  0
 32 33  1  0  0  0  0
 34 35  1  0  0  0  0
 36 13  2  0  0  0  0
M  END
