7,10
q = 0.0, confidence = 0.994

 35 38  0  0  0  0  0  0  0  0999 V2000
    5.7192    2.3595    0.1398 O   0  0  0  0  0  0  0  0  0  0  0  0
    4.1427    0.6768    0.0516 N   0  0  0  0  0  0  0  0  0  0  0  0
    4.0080   -0.3400    0.1255 H   0  0  0  0  0  0  0  0  0  0  0  0
    5.4711    1.1715    0.0506 C   0  0  0  0  0  0  0  0  0  0  0  0
    3.1103    1.5035    0.0309 N   0  0  0  0  0  2  0  0  0  0  0  0
    6.5105    0.0948   -0.0359 C   0  0  0  0  0  0  0  0  0  0  0  0
   -0.9809   -1.1957    0.3136 N   0  0  0  0  0  2  0  0  0  0  0  0
    6.2713   -1.1830   -0.5882 C   0  0  0  0  0  0  0  0  0  0  0  0
    5.2903   -1.4363   -1.0213 H   0  0  0  0  0  0  0  0  0  0  0  0
   -1.7094    1.5577    0.0843 N   0  0  0  0  0  0  0  0  0  0  0  0
    7.3026   -2.1310   -0.6486 C   0  0  0  0  0  0  0  0  0  0  0  0
    7.1119   -3.1196   -1.0922 H   0  0  0  0  0  0  0  0  0  0  0  0
    8.5790   -1.8117   -0.1590 C   0  0  0  0  0  0  0  0  0  0  0  0
    9.3868   -2.5577   -0.2048 H   0  0  0  0  0  0  0  0  0  0  0  0
    8.8278   -0.5365    0.3769 C   0  0  0  0  0  0  0  0  0  0  0  0
    9.8307   -0.2827    0.7518 H   0  0  0  0  0  0  0  0  0  0  0  0
    7.8025    0.4142    0.4307 C   0  0  0  0  0  0  0  0  0  0  0  0
    7.9734    1.4236    0.8328 H   0  0  0  0  0  0  0  0  0  0  0  0
    1.8949    1.0350    0.0933 C   0  0  0  0  0  0  0  0  0  0  0  0
    1.3508   -0.3571    0.2146 C   0  0  0  0  0  0  0  0  0  0  0  0
    1.8343   -1.6722    0.3358 C   0  0  0  0  0  0  0  0  0  0  0  0
    2.9031   -1.9340    0.3611 H   0  0  0  0  0  0  0  0  0  0  0  0
    0.8849   -2.7136    0.4380 C   0  0  0  0  0  0  0  0  0  0  0  0
    1.2235   -3.7551    0.5296 H   0  0  0  0  0  0  0  0  0  0  0  0
   -0.4968   -2.4537    0.4246 C   0  0  0  0  0  3  0  0  0  0  0  0
   -1.2387   -3.2625    0.4965 H   0  0  0  0  0  0  0  0  0  0  0  0
   -0.0604   -0.2267    0.2083 C   0  0  0  0  0  0  0  0  0  0  0  0
   -0.4305    1.1541    0.0989 C   0  0  0  0  0  3  0  0  0  0  0  0
   -1.8892    2.8939   -0.0162 C   0  0  0  0  0  0  0  0  0  0  0  0
   -2.9298    3.2489   -0.0438 H   0  0  0  0  0  0  0  0  0  0  0  0
   -0.8008    3.7878   -0.0939 C   0  0  0  0  0  0  0  0  0  0  0  0
   -1.0149    4.8627   -0.1788 H   0  0  0  0  0  0  0  0  0  0  0  0
    0.5356    3.3347   -0.0698 C   0  0  0  0  0  0  0  0  0  0  0  0
    1.3837    4.0317   -0.1317 H   0  0  0  0  0  0  0  0  0  0  0  0
    0.7260    1.9507    0.0352 C   0  0  0  0  0  0  0  0  0  0  0  0
  2  3  1  0  0  0  0
  4  2  1  0  0  0  0
  4  1  2  0  0  0  0
  5  2  1  0  0  0  0
  5 19  1  0  0  0  0
  6  4  1  0  0  0  0
  6 17  1  0  0  0  0
  7 25  1  0  0  0  0
  8  6  2  0  0  0  0
  9  8  1  0  0  0  0
 10 28  1  0  0  0  0
 11  8  1  0  0  0  0
 11 13  2  0  0  0  0
 12 11  1  0  0  0  0
 13 15  1  0  0  0  0
 14 13  1  0  0  0  0
 15 17  2  0  0  0  0
 15 16  1  0  0  0  0
 17 18  1  0  0  0  0
 19 20  1  0  0  0  0
 20 21  1  0  0  0  0
 21 22  1  0  0  0  0
 21 23  2  0  0  0  0
 23 24  1  0  0  0  0
 25 23  1  0  0  0  0
 25 26  1  0  0  0  0
 27 20  2  0  0  0  0
 27  7  1  0  0  0  0
 28 27  1  0  0  0  0
 29 10  2  0  0  0  0
 30 29  1  0  0  0  0
 31 33  2  0  0  0  0
 31 29  1  0  0  0  0
 32 31  1  0  0  0  0
 33 35  1  0  0  0  0
 34 33  1  0  0  0  0
 35 19  2  0  0  0  0
 35 28  1  0  0  0  0
M  END
