12,15
q = 0.0, confidence = 0.996

 38 41  0  0  0  0  0  0  0  0999 V2000
    5.4000   -2.4389    0.0675 O   0  0  0  0  0  0  0  0  0  0  0  0
    4.2962   -0.4181    0.0540 N   0  0  0  0  0  0  0  0  0  0  0  0
    4.3239    0.6285    0.0378 H   0  0  0  0  0  0  0  0  0  0  0  0
    7.9342   -1.3176   -0.0231 C   0  0  0  0  0  0  0  0  0  0  0  0
    7.7592   -2.4027    0.0135 H   0  0  0  0  0  0  0  0  0  0  0  0
    5.4779   -1.2221    0.0371 C   0  0  0  0  0  0  0  0  0  0  0  0
    5.8836    1.7262   -0.0609 O   0  0  0  0  0  0  0  0  0  0  0  0
    6.1519    2.6629   -0.0972 H   0  0  0  0  0  0  0  0  0  0  0  0
    3.1451   -1.0366    0.0902 N   0  0  0  0  0  0  0  0  0  0  0  0
    2.9181    1.8331    0.0851 O   0  0  0  0  0  0  0  0  0  0  0  0
    6.9746    0.9154   -0.0651 C   0  0  0  0  0  0  0  0  0  0  0  0
   -1.8645    1.3947    0.2327 N   0  0  0  0  0  0  0  0  0  0  0  0
    8.2764    1.4509   -0.1162 C   0  0  0  0  0  0  0  0  0  0  0  0
    8.4032    2.5453   -0.1534 H   0  0  0  0  0  0  0  0  0  0  0  0
   -1.6522   -1.2819    0.1986 N   0  0  0  0  0  0  0  0  0  0  0  0
    9.3922    0.6082   -0.1203 C   0  0  0  0  0  0  0  0  0  0  0  0
   10.4006    1.0470   -0.1608 H   0  0  0  0  0  0  0  0  0  0  0  0
    9.2237   -0.7872   -0.0734 C   0  0  0  0  0  0  0  0  0  0  0  0
   10.0976   -1.4540   -0.0766 H   0  0  0  0  0  0  0  0  0  0  0  0
    6.7848   -0.4933   -0.0172 C   0  0  0  0  0  0  0  0  0  0  0  0
    2.0013   -0.3700    0.1137 C   0  0  0  0  0  0  0  0  0  0  0  0
    1.9052    1.1084    0.1151 C   0  0  0  0  0  0  0  0  0  0  0  0
    0.5441    1.7003    0.1642 C   0  0  0  0  0  0  0  0  0  0  0  0
   -0.6040    0.8749    0.1771 C   0  0  0  0  0  0  0  0  0  0  0  0
   -0.4877   -0.5730    0.1645 C   0  0  0  0  0  0  0  0  0  0  0  0
    0.7840   -1.1938    0.1460 C   0  0  0  0  0  0  0  0  0  0  0  0
   -2.0120    2.7329    0.2714 C   0  0  0  0  0  0  0  0  0  0  0  0
   -3.0475    3.1015    0.3071 H   0  0  0  0  0  0  0  0  0  0  0  0
   -0.9215    3.6163    0.2537 C   0  0  0  0  0  0  0  0  0  0  0  0
   -1.1050    4.6994    0.2804 H   0  0  0  0  0  0  0  0  0  0  0  0
    0.3739    3.0959    0.1972 C   0  0  0  0  0  0  0  0  0  0  0  0
    1.2700    3.7333    0.1790 H   0  0  0  0  0  0  0  0  0  0  0  0
   -1.5936   -2.6252    0.2138 C   0  0  0  0  0  0  0  0  0  0  0  0
   -2.5571   -3.1540    0.2311 H   0  0  0  0  0  0  0  0  0  0  0  0
   -0.3719   -3.3179    0.1938 C   0  0  0  0  0  0  0  0  0  0  0  0
   -0.3766   -4.4169    0.2015 H   0  0  0  0  0  0  0  0  0  0  0  0
    0.8271   -2.6045    0.1575 C   0  0  0  0  0  0  0  0  0  0  0  0
    1.8077   -3.1011    0.1377 H   0  0  0  0  0  0  0  0  0  0  0  0
  2  9  1  0  0  0  0
  3  2  1  0  0  0  0
  4 20  1  0  0  0  0
  4  5  1  0  0  0  0
  6  2  1  0  0  0  0
  6  1  2  0  0  0  0
  8  7  1  0  0  0  0
  9 21  2  0  0  0  0
 10 22  2  0  0  0  0
 11  7  1  0  0  0  0
 11 20  2  0  0  0  0
 12 27  1  0  0  0  0
 13 11  1  0  0  0  0
 14 13  1  0  0  0  0
 15 33  1  0  0  0  0
 16 13  2  0  0  0  0
 16 18  1  0  0  0  0
 17 16  1  0  0  0  0
 18  4  2  0  0  0  0
 19 18  1  0  0  0  0
 20  6  1  0  0  0  0
 21 22  1  0  0  0  0
 21 26  1  0  0  0  0
 22 23  1  0  0  0  0
 23 24  1  0  0  0  0
 23 31  2  0  0  0  0
 24 12  2  0  0  0  0
 25 24  1  0  0  0  0
 25 15  2  0  0  0  0
 26 37  2  0  0  0  0
 26 25  1  0  0  0  0
 27 28  1  0  0  0  0
 29 27  2  0  0  0  0
 29 30  1  0  0  0  0
 31 29  1  0  0  0  0
 32 31  1  0  0  0  0
 33 34  1  0  0  0  0
 35 36  1  0  0  0  0
 35 33  2  0  0  0  0
 37 35  1  0  0  0  0
 38 37  1  0  0  0  0
M  END
