2,4
q = 0.0, confidence = 0.99

 65 66  0  0  1  0  0  0  0  0999 V2000
   -0.0000    2.1071    0.0000 O   0  0  0  0  0  0  0  0  0  0  0  0
   -2.0595   -0.0123   -0.1266 N   0  0  0  0  0  2  0  0  0  0  0  0
   -2.7000    1.0575    0.4162 N   0  0  0  0  0  0  0  0  0  0  0  0
    2.0595   -0.0122    0.1266 N   0  0  0  0  0  2  0  0  0  0  0  0
    2.7001    1.0576   -0.4161 N   0  0  0  0  0  0  0  0  0  0  0  0
   -2.9692   -0.6882   -0.8531 C   0  0  2  0  0  3  0  0  0  0  0  0
   -4.2164   -0.0194   -0.7833 C   0  0  0  0  0  0  0  0  0  0  0  0
   -4.0173    1.0937    0.0359 C   0  0  0  0  0  0  0  0  0  0  0  0
   -2.6283   -1.9690   -1.5665 C   0  0  0  0  0  0  0  0  0  0  0  0
   -4.9949    2.1271    0.5351 C   0  0  0  0  0  0  0  0  0  0  0  0
   -2.7289   -1.8018   -3.0919 C   0  0  0  0  0  0  0  0  0  0  0  0
   -3.4953   -3.1245   -1.0403 C   0  0  0  0  0  0  0  0  0  0  0  0
   -6.1585    2.3099   -0.4483 C   0  0  0  0  0  0  0  0  0  0  0  0
   -5.5100    1.7641    1.9429 C   0  0  0  0  0  0  0  0  0  0  0  0
    2.9692   -0.6882    0.8530 C   0  0  2  0  0  3  0  0  0  0  0  0
    4.2165   -0.0195    0.7832 C   0  0  0  0  0  0  0  0  0  0  0  0
    4.0174    1.0937   -0.0359 C   0  0  0  0  0  0  0  0  0  0  0  0
    2.6283   -1.9692    1.5662 C   0  0  0  0  0  0  0  0  0  0  0  0
    4.9950    2.1271   -0.5352 C   0  0  0  0  0  0  0  0  0  0  0  0
    2.7289   -1.8022    3.0916 C   0  0  0  0  0  0  0  0  0  0  0  0
    3.4953   -3.1246    1.0399 C   0  0  0  0  0  0  0  0  0  0  0  0
    6.1587    2.3098    0.4482 C   0  0  0  0  0  0  0  0  0  0  0  0
    5.5101    1.7641   -1.9430 C   0  0  0  0  0  0  0  0  0  0  0  0
   -1.9926    1.9574    1.3124 C   0  0  0  0  0  0  0  0  0  0  0  0
   -1.0202    2.8817    0.5974 C   0  0  0  0  0  0  0  0  0  0  0  0
    1.0202    2.8817   -0.5972 C   0  0  0  0  0  0  0  0  0  0  0  0
    1.9926    1.9575   -1.3123 C   0  0  0  0  0  0  0  0  0  0  0  0
   -5.1526   -0.3186   -1.2636 H   0  0  0  0  0  0  0  0  0  0  0  0
   -1.5774   -2.2119   -1.3126 H   0  0  0  0  0  0  0  0  0  0  0  0
   -4.4587    3.1003    0.6027 H   0  0  0  0  0  0  0  0  0  0  0  0
   -2.0575   -0.9932   -3.4410 H   0  0  0  0  0  0  0  0  0  0  0  0
   -2.4306   -2.7395   -3.6027 H   0  0  0  0  0  0  0  0  0  0  0  0
   -3.7666   -1.5594   -3.4041 H   0  0  0  0  0  0  0  0  0  0  0  0
   -3.3456   -3.2579    0.0492 H   0  0  0  0  0  0  0  0  0  0  0  0
   -4.5747   -2.9450   -1.2286 H   0  0  0  0  0  0  0  0  0  0  0  0
   -3.2174   -4.0723   -1.5439 H   0  0  0  0  0  0  0  0  0  0  0  0
   -6.8351    3.1161   -0.1021 H   0  0  0  0  0  0  0  0  0  0  0  0
   -5.7983    2.5679   -1.4634 H   0  0  0  0  0  0  0  0  0  0  0  0
   -6.7616    1.3823   -0.5261 H   0  0  0  0  0  0  0  0  0  0  0  0
   -4.6847    1.6455    2.6733 H   0  0  0  0  0  0  0  0  0  0  0  0
   -6.1968    2.5468    2.3241 H   0  0  0  0  0  0  0  0  0  0  0  0
   -6.0622    0.8032    1.9122 H   0  0  0  0  0  0  0  0  0  0  0  0
    5.1527   -0.3186    1.2635 H   0  0  0  0  0  0  0  0  0  0  0  0
    1.5774   -2.2120    1.3123 H   0  0  0  0  0  0  0  0  0  0  0  0
    4.4588    3.1003   -0.6026 H   0  0  0  0  0  0  0  0  0  0  0  0
    2.0575   -0.9936    3.4409 H   0  0  0  0  0  0  0  0  0  0  0  0
    2.4307   -2.7399    3.6023 H   0  0  0  0  0  0  0  0  0  0  0  0
    3.7666   -1.5597    3.4039 H   0  0  0  0  0  0  0  0  0  0  0  0
    3.3456   -3.2578   -0.0497 H   0  0  0  0  0  0  0  0  0  0  0  0
    4.5747   -2.9451    1.2281 H   0  0  0  0  0  0  0  0  0  0  0  0
    3.2174   -4.0724    1.5433 H   0  0  0  0  0  0  0  0  0  0  0  0
    5.7985    2.5677    1.4633 H   0  0  0  0  0  0  0  0  0  0  0  0
    6.7617    1.3822    0.5260 H   0  0  0  0  0  0  0  0  0  0  0  0
    6.8353    3.1160    0.1020 H   0  0  0  0  0  0  0  0  0  0  0  0
    4.6847    1.6456   -2.6733 H   0  0  0  0  0  0  0  0  0  0  0  0
    6.1968    2.5468   -2.3241 H   0  0  0  0  0  0  0  0  0  0  0  0
    6.0622    0.8031   -1.9124 H   0  0  0  0  0  0  0  0  0  0  0  0
   -1.4387    1.3384    2.0504 H   0  0  0  0  0  0  0  0  0  0  0  0
   -2.7410    2.5661    1.8506 H   0  0  0  0  0  0  0  0  0  0  0  0
   -1.5476    3.4912   -0.1780 H   0  0  0  0  0  0  0  0  0  0  0  0
   -0.5892    3.5898    1.3467 H   0  0  0  0  0  0  0  0  0  0  0  0
    1.5475    3.4912    0.1782 H   0  0  0  0  0  0  0  0  0  0  0  0
    0.5892    3.5900   -1.3465 H   0  0  0  0  0  0  0  0  0  0  0  0
    1.4387    1.3387   -2.0504 H   0  0  0  0  0  0  0  0  0  0  0  0
    2.7410    2.5664   -1.8504 H   0  0  0  0  0  0  0  0  0  0  0  0
  1 25  1  0  0  0  0
  2  3  1  0  0  0  0
  3 24  1  0  0  0  0
  4 15  1  0  0  0  0
  5 17  1  0  0  0  0
  5  4  1  0  0  0  0
  6  9  1  1  0  0  0
  6  7  1  0  0  0  0
  6  2  1  0  0  0  0
  7  8  2  0  0  0  0
  8  3  1  0  0  0  0
  8 10  1  0  0  0  0
  9 29  1  0  0  0  0
  9 12  1  0  0  0  0
 10 30  1  0  0  0  0
 10 14  1  0  0  0  0
 11  9  1  0  0  0  0
 12 34  1  0  0  0  0
 13 37  1  0  0  0  0
 13 10  1  0  0  0  0
 14 41  1  0  0  0  0
 14 40  1  0  0  0  0
 15 18  1  6  0  0  0
 16 15  1  0  0  0  0
 16 43  1  0  0  0  0
 17 16  2  0  0  0  0
 18 20  1  0  0  0  0
 19 17  1  0  0  0  0
 19 22  1  0  0  0  0
 20 48  1  0  0  0  0
 20 46  1  0  0  0  0
 20 47  1  0  0  0  0
 21 50  1  0  0  0  0
 21 51  1  0  0  0  0
 21 18  1  0  0  0  0
 22 53  1  0  0  0  0
 22 52  1  0  0  0  0
 23 57  1  0  0  0  0
 23 19  1  0  0  0  0
 24 59  1  0  0  0  0
 24 58  1  0  0  0  0
 25 24  1  0  0  0  0
 25 61  1  0  0  0  0
 26  1  1  0  0  0  0
 26 62  1  0  0  0  0
 27 26  1  0  0  0  0
 27  5  1  0  0  0  0
 28  7  1  0  0  0  0
 31 11  1  0  0  0  0
 32 11  1  0  0  0  0
 33 11  1  0  0  0  0
 35 12  1  0  0  0  0
 36 12  1  0  0  0  0
 38 13  1  0  0  0  0
 39 13  1  0  0  0  0
 42 14  1  0  0  0  0
 44 18  1  0  0  0  0
 45 19  1  0  0  0  0
 49 21  1  0  0  0  0
 54 22  1  0  0  0  0
 55 23  1  0  0  0  0
 56 23  1  0  0  0  0
 60 25  1  0  0  0  0
 63 26  1  0  0  0  0
 64 27  1  0  0  0  0
 65 27  1  0  0  0  0
M  END
