8,9
q = -1.0, confidence = 0.0

 33 35  0  0  1  0  0  0  0  0999 V2000
    2.7893   -1.4766    0.2807 S   0  0  0  0  0  0  0  0  0  0  0  0
    2.7894    1.4764    0.2809 S   0  0  0  0  0  0  0  0  0  0  0  0
    5.0592   -2.8811   -0.4499 O   0  0  0  0  0  0  0  0  0  0  0  0
    6.4991   -1.2094   -0.9626 O   0  0  0  0  0  0  0  0  0  0  0  0
    6.5165   -0.0012   -0.9753 H   0  0  0  0  0  0  0  0  0  0  0  0
    6.4990    1.2095   -0.9624 O   0  5  0  0  0  0  0  0  0  0  0  0
    5.0588    2.8810   -0.4491 O   0  0  0  0  0  0  0  0  0  0  0  0
   -1.4344    1.4283    0.8261 N   0  0  0  0  0  2  0  0  0  0  0  0
   -1.4345   -1.4284    0.8260 N   0  0  0  0  0  2  0  0  0  0  0  0
    0.5483   -0.0001    1.0207 C   0  0  0  0  0  0  0  0  0  0  0  0
    0.3983   -2.2472    2.1509 C   0  0  0  0  0  0  0  0  0  0  0  0
    1.4103   -2.0903    2.5483 H   0  0  0  0  0  0  0  0  0  0  0  0
    5.3635    1.6880   -0.5739 C   0  0  0  0  0  0  0  0  0  0  0  0
    4.2750    0.6827   -0.2235 C   0  0  0  0  0  0  0  0  0  0  0  0
   -0.1702    1.2593    1.3128 C   0  0  2  0  0  3  0  0  0  0  0  0
    5.3634   -1.6880   -0.5742 C   0  0  0  0  0  0  0  0  0  0  0  0
    4.2749   -0.6829   -0.2236 C   0  0  0  0  0  0  0  0  0  0  0  0
   -0.1704   -1.2593    1.3129 C   0  0  1  0  0  3  0  0  0  0  0  0
    0.3987    2.2473    2.1504 C   0  0  0  0  0  0  0  0  0  0  0  0
    1.4108    2.0905    2.5476 H   0  0  0  0  0  0  0  0  0  0  0  0
   -2.1635    2.5069    1.2006 C   0  0  0  0  0  0  0  0  0  0  0  0
   -3.1987    2.5210    0.8288 H   0  0  0  0  0  0  0  0  0  0  0  0
   -2.1637   -2.5068    1.2006 C   0  0  0  0  0  0  0  0  0  0  0  0
   -3.1988   -2.5209    0.8286 H   0  0  0  0  0  0  0  0  0  0  0  0
    1.8861   -0.0001    0.6227 C   0  0  0  0  0  0  0  0  0  0  0  0
   -0.3313    3.3883    2.4861 C   0  0  0  0  0  0  0  0  0  0  0  0
    0.1130    4.1571    3.1364 H   0  0  0  0  0  0  0  0  0  0  0  0
   -1.6478    3.5171    2.0117 C   0  0  0  0  0  0  0  0  0  0  0  0
   -2.2732    4.3839    2.2676 H   0  0  0  0  0  0  0  0  0  0  0  0
   -0.3319   -3.3881    2.4867 C   0  0  0  0  0  0  0  0  0  0  0  0
    0.1122   -4.1568    3.1373 H   0  0  0  0  0  0  0  0  0  0  0  0
   -1.6483   -3.5170    2.0120 C   0  0  0  0  0  0  0  0  0  0  0  0
   -2.2737   -4.3837    2.2679 H   0  0  0  0  0  0  0  0  0  0  0  0
  1 25  1  0  0  0  0
  2 25  1  0  0  0  0
  4 16  1  0  0  0  0
  5  4  1  0  0  0  0
  6 13  1  0  0  0  0
  8 21  1  0  0  0  0
  8 15  1  0  0  0  0
  9 23  1  0  0  0  0
  9 18  1  0  0  0  0
 11 30  2  0  0  0  0
 11 12  1  0  0  0  0
 13  7  2  0  0  0  0
 13 14  1  0  0  0  0
 14  2  1  0  0  0  0
 15 10  1  1  0  0  0
 15 19  1  0  0  0  0
 16  3  2  0  0  0  0
 16 17  1  0  0  0  0
 17 14  2  0  0  0  0
 17  1  1  0  0  0  0
 18 10  1  1  0  0  0
 18 11  1  0  0  0  0
 19 26  2  0  0  0  0
 19 20  1  0  0  0  0
 21 28  2  0  0  0  0
 22 21  1  0  0  0  0
 23 32  2  0  0  0  0
 24 23  1  0  0  0  0
 25 10  2  0  0  0  0
 26 27  1  0  0  0  0
 28 29  1  0  0  0  0
 28 26  1  0  0  0  0
 30 31  1  0  0  0  0
 32 33  1  0  0  0  0
 32 30  1  0  0  0  0
M  CHG  1   6  -1
M  END
