19,39
q = 0.0, confidence = 0.99

 58 62  0  0  1  0  0  0  0  0999 V2000
    3.3194    0.0296    1.2194 C   0  0  0  0  0  0  0  0  0  0  0  0
    2.6319    0.0020   -0.0034 C   0  0  0  0  0  0  0  0  0  0  0  0
    1.5333   -0.0012   -0.0016 H   0  0  0  0  0  0  0  0  0  0  0  0
    3.3153   -0.0211   -1.2286 C   0  0  0  0  0  0  0  0  0  0  0  0
    4.7219   -0.0050   -1.2246 C   0  0  0  0  0  0  0  0  0  0  0  0
    5.2757   -0.0188   -2.1772 H   0  0  0  0  0  0  0  0  0  0  0  0
    5.4212    0.0111   -0.0083 C   0  0  0  0  0  0  0  0  0  0  0  0
    6.5219    0.0148   -0.0102 H   0  0  0  0  0  0  0  0  0  0  0  0
    4.7261    0.0226    1.2105 C   0  0  0  0  0  0  0  0  0  0  0  0
    5.2831    0.0402    2.1611 H   0  0  0  0  0  0  0  0  0  0  0  0
    1.1187   -0.1085    2.4011 N   0  0  0  0  0  0  0  0  0  0  0  0
    2.5571    0.1358    2.5266 C   0  0  0  0  0  0  0  0  0  0  0  0
    2.9918   -0.5349    3.2962 H   0  0  0  0  0  0  0  0  0  0  0  0
    2.6580    1.1723    2.9011 H   0  0  0  0  0  0  0  0  0  0  0  0
    1.1102    0.1081   -2.4026 N   0  0  0  0  0  0  0  0  0  0  0  0
    2.5487   -0.1328   -2.5328 C   0  0  0  0  0  0  0  0  0  0  0  0
    2.9791    0.5366   -3.3060 H   0  0  0  0  0  0  0  0  0  0  0  0
    2.6506   -1.1702   -2.9045 H   0  0  0  0  0  0  0  0  0  0  0  0
   -0.4776   -1.5593    1.4225 N   0  0  0  0  0  2  0  0  0  0  0  0
    0.6778   -1.4058    2.1144 C   0  0  1  0  0  3  0  0  0  0  0  0
    1.4324   -2.5403    2.5079 C   0  0  0  0  0  0  0  0  0  0  0  0
    2.3872   -2.4251    3.0345 H   0  0  0  0  0  0  0  0  0  0  0  0
    0.9365   -3.8146    2.2310 C   0  0  0  0  0  0  0  0  0  0  0  0
    1.5129   -4.6992    2.5415 H   0  0  0  0  0  0  0  0  0  0  0  0
   -0.2980   -3.9586    1.5757 C   0  0  0  0  0  0  0  0  0  0  0  0
   -0.7293   -4.9454    1.3596 H   0  0  0  0  0  0  0  0  0  0  0  0
   -0.9662   -2.7950    1.1886 C   0  0  0  0  0  0  0  0  0  0  0  0
   -1.9312   -2.8224    0.6564 H   0  0  0  0  0  0  0  0  0  0  0  0
    0.8828    2.1873    2.0447 N   0  0  0  0  0  0  0  0  0  0  0  0
    0.2745    1.0304    2.3543 C   0  0  0  0  0  0  0  0  0  0  0  0
   -1.1070    0.9665    2.6740 C   0  0  0  0  0  0  0  0  0  0  0  0
   -1.5786    0.0242    2.9765 H   0  0  0  0  0  0  0  0  0  0  0  0
   -1.8538    2.1489    2.6209 C   0  0  0  0  0  0  0  0  0  0  0  0
   -2.9324    2.1166    2.8284 H   0  0  0  0  0  0  0  0  0  0  0  0
   -1.2200    3.3532    2.2763 C   0  0  0  0  0  0  0  0  0  0  0  0
   -1.7785    4.2980    2.2156 H   0  0  0  0  0  0  0  0  0  0  0  0
    0.1558    3.3135    2.0145 C   0  0  0  0  0  0  0  0  0  0  0  0
    0.7059    4.2355    1.7559 H   0  0  0  0  0  0  0  0  0  0  0  0
   -0.4862    1.5558   -1.4199 N   0  0  0  0  0  2  0  0  0  0  0  0
    0.6672    1.4047   -2.1156 C   0  0  1  0  0  3  0  0  0  0  0  0
    1.4178    2.5406   -2.5127 C   0  0  0  0  0  0  0  0  0  0  0  0
    2.3710    2.4272   -3.0424 H   0  0  0  0  0  0  0  0  0  0  0  0
    0.9196    3.8139   -2.2353 C   0  0  0  0  0  0  0  0  0  0  0  0
    1.4927    4.6997   -2.5484 H   0  0  0  0  0  0  0  0  0  0  0  0
   -0.3132    3.9553   -1.5761 C   0  0  0  0  0  0  0  0  0  0  0  0
   -0.7463    4.9413   -1.3596 H   0  0  0  0  0  0  0  0  0  0  0  0
   -0.9773    2.7904   -1.1857 C   0  0  0  0  0  0  0  0  0  0  0  0
   -1.9409    2.8156   -0.6509 H   0  0  0  0  0  0  0  0  0  0  0  0
    0.8806   -2.1885   -2.0473 N   0  0  0  0  0  0  0  0  0  0  0  0
    0.2686   -1.0325   -2.3533 C   0  0  0  0  0  0  0  0  0  0  0  0
   -1.1144   -0.9714   -2.6671 C   0  0  0  0  0  0  0  0  0  0  0  0
   -1.5896   -0.0297   -2.9659 H   0  0  0  0  0  0  0  0  0  0  0  0
   -1.8583   -2.1554   -2.6121 C   0  0  0  0  0  0  0  0  0  0  0  0
   -2.9379   -2.1251   -2.8148 H   0  0  0  0  0  0  0  0  0  0  0  0
   -1.2205   -3.3588   -2.2717 C   0  0  0  0  0  0  0  0  0  0  0  0
   -1.7766   -4.3050   -2.2100 H   0  0  0  0  0  0  0  0  0  0  0  0
    0.1563   -3.3163   -2.0154 C   0  0  0  0  0  0  0  0  0  0  0  0
    0.7095   -4.2373   -1.7600 H   0  0  0  0  0  0  0  0  0  0  0  0
  1 12  1  0  0  0  0
  2  3  1  0  0  0  0
  2  1  2  0  0  0  0
  4  5  2  0  0  0  0
  4  2  1  0  0  0  0
  5  7  1  0  0  0  0
  6  5  1  0  0  0  0
  7  9  2  0  0  0  0
  8  7  1  0  0  0  0
  9  1  1  0  0  0  0
  9 10  1  0  0  0  0
 11 12  1  0  0  0  0
 12 14  1  0  0  0  0
 12 13  1  0  0  0  0
 15 50  1  0  0  0  0
 16 15  1  0  0  0  0
 16  4  1  0  0  0  0
 17 16  1  0  0  0  0
 18 16  1  0  0  0  0
 19 20  1  0  0  0  0
 20 11  1  6  0  0  0
 20 21  1  0  0  0  0
 21 22  1  0  0  0  0
 23 21  2  0  0  0  0
 23 24  1  0  0  0  0
 25 23  1  0  0  0  0
 26 25  1  0  0  0  0
 27 19  1  0  0  0  0
 27 25  2  0  0  0  0
 28 27  1  0  0  0  0
 29 30  1  0  0  0  0
 30 11  1  0  0  0  0
 30 31  2  0  0  0  0
 31 32  1  0  0  0  0
 33 31  1  0  0  0  0
 33 34  1  0  0  0  0
 35 33  2  0  0  0  0
 36 35  1  0  0  0  0
 37 29  2  0  0  0  0
 37 35  1  0  0  0  0
 38 37  1  0  0  0  0
 39 47  1  0  0  0  0
 40 15  1  1  0  0  0
 40 39  1  0  0  0  0
 41 43  2  0  0  0  0
 41 40  1  0  0  0  0
 42 41  1  0  0  0  0
 43 45  1  0  0  0  0
 44 43  1  0  0  0  0
 45 46  1  0  0  0  0
 45 47  2  0  0  0  0
 47 48  1  0  0  0  0
 49 57  1  0  0  0  0
 50 49  2  0  0  0  0
 51 53  2  0  0  0  0
 51 50  1  0  0  0  0
 52 51  1  0  0  0  0
 53 55  1  0  0  0  0
 54 53  1  0  0  0  0
 55 56  1  0  0  0  0
 55 57  2  0  0  0  0
 57 58  1  0  0  0  0
M  END
