1,2
q = 0.0, confidence = 0.996

 27 29  0  0  1  0  0  0  0  0999 V2000
    0.8589    0.1037    0.1208 N   0  0  0  0  0  2  0  0  0  0  0  0
   -1.0703    1.7931    0.3456 N   0  0  0  0  0  2  0  0  0  0  0  0
    1.9422   -0.6880    0.0151 N   0  0  0  0  0  0  0  0  0  0  0  0
    2.5639    1.4415   -0.0647 N   0  0  0  0  0  0  0  0  0  0  0  0
    1.2070    1.3973    0.0764 C   0  0  2  0  0  3  0  0  0  0  0  0
   -2.1583    2.5874    0.4167 C   0  0  0  0  0  3  0  0  0  0  0  0
    2.9980    0.1280   -0.1023 C   0  0  0  0  0  0  0  0  0  0  0  0
    0.1611    2.3833    0.1835 C   0  0  0  0  0  0  0  0  0  0  0  0
    0.3165    3.7782    0.1248 C   0  0  0  0  0  0  0  0  0  0  0  0
    4.3867   -0.2946   -0.2451 C   0  0  0  0  0  0  0  0  0  0  0  0
    6.7751    0.1896   -0.3149 C   0  0  0  0  0  0  0  0  0  0  0  0
   -0.8169    4.5902    0.2242 C   0  0  0  0  0  0  0  0  0  0  0  0
   -2.0744    3.9825    0.3705 C   0  0  0  0  0  0  0  0  0  0  0  0
    4.6638   -1.6636   -0.4671 C   0  0  0  0  0  0  0  0  0  0  0  0
    7.0434   -1.1710   -0.5381 C   0  0  0  0  0  0  0  0  0  0  0  0
    5.4544    0.6282   -0.1669 C   0  0  0  0  0  0  0  0  0  0  0  0
    5.9862   -2.0941   -0.6117 C   0  0  0  0  0  0  0  0  0  0  0  0
    3.1460    2.2736   -0.1690 H   0  0  0  0  0  0  0  0  0  0  0  0
   -3.1262    2.0759    0.5020 H   0  0  0  0  0  0  0  0  0  0  0  0
    1.3147    4.2185   -0.0105 H   0  0  0  0  0  0  0  0  0  0  0  0
    7.6011    0.9127   -0.2510 H   0  0  0  0  0  0  0  0  0  0  0  0
   -0.7234    5.6846    0.1780 H   0  0  0  0  0  0  0  0  0  0  0  0
   -2.9934    4.5803    0.4427 H   0  0  0  0  0  0  0  0  0  0  0  0
    3.8274   -2.3735   -0.5319 H   0  0  0  0  0  0  0  0  0  0  0  0
    8.0824   -1.5131   -0.6544 H   0  0  0  0  0  0  0  0  0  0  0  0
    5.2698    1.6968    0.0270 H   0  0  0  0  0  0  0  0  0  0  0  0
    6.1963   -3.1591   -0.7885 H   0  0  0  0  0  0  0  0  0  0  0  0
  2  6  1  0  0  0  0
  3  1  1  0  0  0  0
  4  5  1  0  0  0  0
  5  1  1  0  0  0  0
  5  8  1  1  0  0  0
  6 19  1  0  0  0  0
  7  4  1  0  0  0  0
  7  3  2  0  0  0  0
  8  2  1  0  0  0  0
  9  8  2  0  0  0  0
  9 12  1  0  0  0  0
 10 16  1  0  0  0  0
 10  7  1  0  0  0  0
 11 21  1  0  0  0  0
 11 16  2  0  0  0  0
 12 13  2  0  0  0  0
 13  6  1  0  0  0  0
 13 23  1  0  0  0  0
 14 10  2  0  0  0  0
 15 11  1  0  0  0  0
 16 26  1  0  0  0  0
 17 15  2  0  0  0  0
 17 14  1  0  0  0  0
 18  4  1  0  0  0  0
 20  9  1  0  0  0  0
 22 12  1  0  0  0  0
 24 14  1  0  0  0  0
 25 15  1  0  0  0  0
 27 17  1  0  0  0  0
M  END
