1,2
q = 0.0, confidence = 0.988

 24 25  0  0  0  0  0  0  0  0999 V2000
   -0.7735   -1.2696   -0.5465 N   0  0  0  0  0  2  0  0  0  0  0  0
   -0.2107    1.5641   -0.4491 N   0  0  0  0  0  2  0  0  0  0  0  0
   -2.9399    0.6910    1.5237 N   0  0  0  0  0  0  0  0  0  0  0  0
   -3.5746   -0.4231    2.0156 O   0  0  0  0  0  0  0  0  0  0  0  0
   -4.0218   -0.0773    2.8121 H   0  0  0  0  0  0  0  0  0  0  0  0
   -0.6290   -2.3700   -1.3200 C   0  0  0  0  0  3  0  0  0  0  0  0
    0.4032   -2.6002   -1.6220 H   0  0  0  0  0  0  0  0  0  0  0  0
   -1.7197   -3.1443   -1.7254 C   0  0  0  0  0  0  0  0  0  0  0  0
   -1.5504   -4.0370   -2.3436 H   0  0  0  0  0  0  0  0  0  0  0  0
   -3.0081   -2.7595   -1.3284 C   0  0  0  0  0  0  0  0  0  0  0  0
   -3.8884   -3.3506   -1.6220 H   0  0  0  0  0  0  0  0  0  0  0  0
   -3.1609   -1.5983   -0.5625 C   0  0  0  0  0  0  0  0  0  0  0  0
   -4.1508   -1.2493   -0.2433 H   0  0  0  0  0  0  0  0  0  0  0  0
   -2.0199   -0.8619   -0.1935 C   0  0  0  0  0  0  0  0  0  0  0  0
   -2.1610    0.4494    0.5095 C   0  0  0  0  0  0  0  0  0  0  0  0
    0.3647    2.5950   -1.1095 C   0  0  0  0  0  3  0  0  0  0  0  0
    1.4010    2.4229   -1.4359 H   0  0  0  0  0  0  0  0  0  0  0  0
   -0.3165    3.7884   -1.3654 C   0  0  0  0  0  0  0  0  0  0  0  0
    0.1979    4.6033   -1.8937 H   0  0  0  0  0  0  0  0  0  0  0  0
   -1.6445    3.9177   -0.9323 C   0  0  0  0  0  0  0  0  0  0  0  0
   -2.2041    4.8496   -1.1026 H   0  0  0  0  0  0  0  0  0  0  0  0
   -2.2576    2.8293   -0.3016 C   0  0  0  0  0  0  0  0  0  0  0  0
   -3.3050    2.8602    0.0263 H   0  0  0  0  0  0  0  0  0  0  0  0
   -1.5159    1.6535   -0.0872 C   0  0  0  0  0  0  0  0  0  0  0  0
  1 14  1  0  0  0  0
  2 24  1  0  0  0  0
  3  4  1  0  0  0  0
  4  5  1  0  0  0  0
  6  1  1  0  0  0  0
  7  6  1  0  0  0  0
  8 10  2  0  0  0  0
  8  6  1  0  0  0  0
  9  8  1  0  0  0  0
 10 12  1  0  0  0  0
 11 10  1  0  0  0  0
 12 13  1  0  0  0  0
 12 14  2  0  0  0  0
 14 15  1  0  0  0  0
 15  3  2  0  0  0  0
 16  2  1  0  0  0  0
 17 16  1  0  0  0  0
 18 16  1  0  0  0  0
 18 20  2  0  0  0  0
 19 18  1  0  0  0  0
 20 22  1  0  0  0  0
 21 20  1  0  0  0  0
 22 24  2  0  0  0  0
 22 23  1  0  0  0  0
 24 15  1  0  0  0  0
M  END
