1,3
q = 0.0, confidence = 0.992

 19 20  0  0  0  0  0  0  0  0999 V2000
   -0.8541   -1.0983    0.0000 N   0  0  0  0  0  2  0  0  0  0  0  0
   -3.0837   -1.0988   -0.0010 N   0  0  0  0  0  0  0  0  0  0  0  0
   -0.3972    1.4451   -0.0004 N   0  0  0  0  0  2  0  0  0  0  0  0
   -2.4698    2.2340    0.0005 N   0  0  0  0  0  0  0  0  0  0  0  0
   -3.4872    2.2794    0.0015 H   0  0  0  0  0  0  0  0  0  0  0  0
   -1.2701   -2.4059    0.0003 C   0  0  0  0  0  0  0  0  0  0  0  0
   -0.5334   -3.2170    0.0005 H   0  0  0  0  0  0  0  0  0  0  0  0
   -2.6549   -2.4202   -0.0001 C   0  0  0  0  0  0  0  0  0  0  0  0
   -3.3700   -3.2485   -0.0004 H   0  0  0  0  0  0  0  0  0  0  0  0
   -1.9605   -0.3141   -0.0005 C   0  0  0  0  0  0  0  0  0  0  0  0
   -1.7075    1.0969   -0.0003 C   0  0  0  0  0  0  0  0  0  0  0  0
   -0.3233    2.8170    0.0002 C   0  0  0  0  0  0  0  0  0  0  0  0
    0.6543    3.3120    0.0002 H   0  0  0  0  0  0  0  0  0  0  0  0
   -1.6115    3.3240    0.0009 C   0  0  0  0  0  0  0  0  0  0  0  0
   -1.9855    4.3517    0.0015 H   0  0  0  0  0  0  0  0  0  0  0  0
   -4.4542   -0.6268    0.0002 C   0  0  0  0  0  0  0  0  0  0  0  0
   -4.6694   -0.0320    0.9124 H   0  0  0  0  0  0  0  0  0  0  0  0
   -5.1368   -1.4950   -0.0122 H   0  0  0  0  0  0  0  0  0  0  0  0
   -4.6629   -0.0124   -0.9004 H   0  0  0  0  0  0  0  0  0  0  0  0
  1  6  1  0  0  0  0
  2 10  1  0  0  0  0
  2  8  1  0  0  0  0
  2 16  1  0  0  0  0
  3 11  1  0  0  0  0
  3 12  1  0  0  0  0
  4 14  1  0  0  0  0
  4  5  1  0  0  0  0
  6  7  1  0  0  0  0
  8  6  2  0  0  0  0
  9  8  1  0  0  0  0
 10 11  2  0  0  0  0
 10  1  1  0  0  0  0
 11  4  1  0  0  0  0
 12 14  2  0  0  0  0
 13 12  1  0  0  0  0
 14 15  1  0  0  0  0
 16 17  1  0  0  0  0
 18 16  1  0  0  0  0
 19 16  1  0  0  0  0
M  END
