1,2
q = 0.0, confidence = 1.0

 32 32  0  0  0  0  0  0  0  0999 V2000
    1.9673    1.1975    0.0022 N   0  0  0  0  0  2  0  0  0  0  0  0
   -0.4878    0.3455    0.1449 N   0  0  0  0  0  2  0  0  0  0  0  0
    0.9946    2.1724    0.0384 C   0  0  0  0  0  0  0  0  0  0  0  0
    1.3317    3.5373    0.0091 C   0  0  0  0  0  0  0  0  0  0  0  0
    0.5300    4.2892    0.0372 H   0  0  0  0  0  0  0  0  0  0  0  0
    2.6790    3.9077   -0.0544 C   0  0  0  0  0  0  0  0  0  0  0  0
    2.9653    4.9692   -0.0783 H   0  0  0  0  0  0  0  0  0  0  0  0
    3.6576    2.8987   -0.0873 C   0  0  0  0  0  0  0  0  0  0  0  0
    4.7279    3.1440   -0.1371 H   0  0  0  0  0  0  0  0  0  0  0  0
    3.2693    1.5557   -0.0583 C   0  0  0  0  0  0  0  0  0  0  0  0
    3.9757    0.7088   -0.0875 H   0  0  0  0  0  0  0  0  0  0  0  0
   -0.3510    1.6515    0.1204 C   0  0  0  0  0  0  0  0  0  0  0  0
   -1.2158    2.3296    0.1780 H   0  0  0  0  0  0  0  0  0  0  0  0
   -1.8011   -0.2895    0.2838 C   0  0  0  0  0  0  0  0  0  0  0  0
   -1.8200   -0.7424    1.2993 H   0  0  0  0  0  0  0  0  0  0  0  0
   -1.7901   -1.1684   -0.3936 H   0  0  0  0  0  0  0  0  0  0  0  0
   -3.0228    0.5926    0.0553 C   0  0  0  0  0  0  0  0  0  0  0  0
   -2.9506    1.0816   -0.9418 H   0  0  0  0  0  0  0  0  0  0  0  0
   -3.0661    1.4120    0.8072 H   0  0  0  0  0  0  0  0  0  0  0  0
   -4.3217   -0.2176    0.1321 C   0  0  0  0  0  0  0  0  0  0  0  0
   -4.2868   -1.0366   -0.6200 H   0  0  0  0  0  0  0  0  0  0  0  0
   -4.3827   -0.7228    1.1218 H   0  0  0  0  0  0  0  0  0  0  0  0
   -5.5803    0.6251   -0.0879 C   0  0  0  0  0  0  0  0  0  0  0  0
   -5.6126    1.4450    0.6655 H   0  0  0  0  0  0  0  0  0  0  0  0
   -5.5162    1.1317   -1.0778 H   0  0  0  0  0  0  0  0  0  0  0  0
   -6.8813   -0.1801   -0.0150 C   0  0  0  0  0  0  0  0  0  0  0  0
   -6.9402   -0.6865    0.9741 H   0  0  0  0  0  0  0  0  0  0  0  0
   -6.8439   -0.9992   -0.7671 H   0  0  0  0  0  0  0  0  0  0  0  0
   -8.1343    0.6674   -0.2364 C   0  0  0  0  0  0  0  0  0  0  0  0
   -8.2168    1.4724    0.5237 H   0  0  0  0  0  0  0  0  0  0  0  0
   -9.0579    0.0575   -0.1778 H   0  0  0  0  0  0  0  0  0  0  0  0
   -8.1197    1.1564   -1.2330 H   0  0  0  0  0  0  0  0  0  0  0  0
  1  3  1  0  0  0  0
  2 14  1  0  0  0  0
  3 12  2  0  0  0  0
  4  5  1  0  0  0  0
  4  3  1  0  0  0  0
  6  4  2  0  0  0  0
  7  6  1  0  0  0  0
  8 10  2  0  0  0  0
  8  6  1  0  0  0  0
  9  8  1  0  0  0  0
 10  1  1  0  0  0  0
 11 10  1  0  0  0  0
 12  2  1  0  0  0  0
 12 13  1  0  0  0  0
 14 15  1  0  0  0  0
 16 14  1  0  0  0  0
 17 20  1  0  0  0  0
 17 14  1  0  0  0  0
 17 19  1  0  0  0  0
 18 17  1  0  0  0  0
 20 22  1  0  0  0  0
 21 20  1  0  0  0  0
 23 26  1  0  0  0  0
 23 20  1  0  0  0  0
 23 24  1  0  0  0  0
 25 23  1  0  0  0  0
 26 27  1  0  0  0  0
 28 26  1  0  0  0  0
 29 31  1  0  0  0  0
 29 26  1  0  0  0  0
 29 30  1  0  0  0  0
 32 29  1  0  0  0  0
M  END
