3,18
q = 0.0, confidence = 0.998

 56 59  0  0  1  0  0  0  0  0999 V2000
    0.7516    0.4104    0.9545 Se  0  0  0  0  0  0  0  0  0  0  0  0
   -0.7517    0.4101   -0.9549 Se  0  0  0  0  0  0  0  0  0  0  0  0
    1.7995   -2.2076    0.2420 N   0  0  0  0  0  2  0  0  0  0  0  0
    2.0196   -0.8933    0.4339 C   0  0  1  0  0  3  0  0  0  0  0  0
    3.3405   -0.6145    0.1454 N   0  0  0  0  0  0  0  0  0  0  0  0
    2.9763   -2.7806   -0.1642 C   0  0  0  0  0  0  0  0  0  0  0  0
    3.0375   -3.8428   -0.4182 H   0  0  0  0  0  0  0  0  0  0  0  0
    3.9530   -1.8006   -0.2144 C   0  0  0  0  0  0  0  0  0  0  0  0
    5.0159   -1.8372   -0.4717 H   0  0  0  0  0  0  0  0  0  0  0  0
    3.9008    0.6991    0.0063 C   0  0  0  0  0  0  0  0  0  0  0  0
    4.4620    1.3411    1.1280 C   0  0  0  0  0  0  0  0  0  0  0  0
    4.9868    2.6330    0.9414 C   0  0  0  0  0  0  0  0  0  0  0  0
    5.4316    3.1538    1.8043 H   0  0  0  0  0  0  0  0  0  0  0  0
    4.9503    3.2766   -0.3087 C   0  0  0  0  0  0  0  0  0  0  0  0
    4.3681    2.5981   -1.3979 C   0  0  0  0  0  0  0  0  0  0  0  0
    4.3228    3.0931   -2.3814 H   0  0  0  0  0  0  0  0  0  0  0  0
    3.8349    1.3051   -1.2701 C   0  0  0  0  0  0  0  0  0  0  0  0
   -1.7998   -2.2077   -0.2420 N   0  0  0  0  0  2  0  0  0  0  0  0
   -2.0198   -0.8934   -0.4339 C   0  0  1  0  0  3  0  0  0  0  0  0
   -3.3406   -0.6143   -0.1453 N   0  0  0  0  0  0  0  0  0  0  0  0
   -2.9767   -2.7804    0.1644 C   0  0  0  0  0  0  0  0  0  0  0  0
   -3.0380   -3.8426    0.4185 H   0  0  0  0  0  0  0  0  0  0  0  0
   -3.9532   -1.8003    0.2146 C   0  0  0  0  0  0  0  0  0  0  0  0
   -5.0161   -1.8368    0.4721 H   0  0  0  0  0  0  0  0  0  0  0  0
   -3.9007    0.6993   -0.0063 C   0  0  0  0  0  0  0  0  0  0  0  0
   -3.8347    1.3053    1.2702 C   0  0  0  0  0  0  0  0  0  0  0  0
   -4.3678    2.5983    1.3979 C   0  0  0  0  0  0  0  0  0  0  0  0
   -4.3225    3.0934    2.3814 H   0  0  0  0  0  0  0  0  0  0  0  0
   -4.9499    3.2769    0.3087 C   0  0  0  0  0  0  0  0  0  0  0  0
   -4.9865    2.6333   -0.9414 C   0  0  0  0  0  0  0  0  0  0  0  0
   -5.4312    3.1541   -1.8043 H   0  0  0  0  0  0  0  0  0  0  0  0
   -4.4618    1.3413   -1.1280 C   0  0  0  0  0  0  0  0  0  0  0  0
    4.4662    0.6727    2.4779 C   0  0  0  0  0  0  0  0  0  0  0  0
    4.8751   -0.3567    2.4275 H   0  0  0  0  0  0  0  0  0  0  0  0
    3.4349    0.5798    2.8808 H   0  0  0  0  0  0  0  0  0  0  0  0
    5.0629    1.2504    3.2084 H   0  0  0  0  0  0  0  0  0  0  0  0
    5.5204    4.6609   -0.4905 C   0  0  0  0  0  0  0  0  0  0  0  0
    6.3880    4.6485   -1.1832 H   0  0  0  0  0  0  0  0  0  0  0  0
    5.8612    5.0937    0.4695 H   0  0  0  0  0  0  0  0  0  0  0  0
    4.7703    5.3501   -0.9302 H   0  0  0  0  0  0  0  0  0  0  0  0
    3.2209    0.5812   -2.4409 C   0  0  0  0  0  0  0  0  0  0  0  0
    2.2694    0.0722   -2.1804 H   0  0  0  0  0  0  0  0  0  0  0  0
    3.8950   -0.2177   -2.8163 H   0  0  0  0  0  0  0  0  0  0  0  0
    3.0278    1.2766   -3.2791 H   0  0  0  0  0  0  0  0  0  0  0  0
   -3.2208    0.5814    2.4409 C   0  0  0  0  0  0  0  0  0  0  0  0
   -3.8949   -0.2176    2.8161 H   0  0  0  0  0  0  0  0  0  0  0  0
   -3.0279    1.2767    3.2793 H   0  0  0  0  0  0  0  0  0  0  0  0
   -2.2694    0.0724    2.1805 H   0  0  0  0  0  0  0  0  0  0  0  0
   -5.5193    4.6615    0.4904 C   0  0  0  0  0  0  0  0  0  0  0  0
   -5.8656    5.0920   -0.4686 H   0  0  0  0  0  0  0  0  0  0  0  0
   -4.7668    5.3519    0.9241 H   0  0  0  0  0  0  0  0  0  0  0  0
   -6.3828    4.6507    1.1883 H   0  0  0  0  0  0  0  0  0  0  0  0
   -4.4661    0.6730   -2.4779 C   0  0  0  0  0  0  0  0  0  0  0  0
   -4.8741   -0.3567   -2.4273 H   0  0  0  0  0  0  0  0  0  0  0  0
   -3.4349    0.5810   -2.8812 H   0  0  0  0  0  0  0  0  0  0  0  0
   -5.0635    1.2503   -3.2081 H   0  0  0  0  0  0  0  0  0  0  0  0
  2  1  1  0  0  0  0
  3  4  1  0  0  0  0
  4  1  1  6  0  0  0
  5  4  1  0  0  0  0
  6  3  1  0  0  0  0
  7  6  1  0  0  0  0
  8  6  2  0  0  0  0
  8  5  1  0  0  0  0
  9  8  1  0  0  0  0
 10  5  1  0  0  0  0
 10 11  1  0  0  0  0
 11 33  1  0  0  0  0
 12 11  2  0  0  0  0
 12 13  1  0  0  0  0
 14 12  1  0  0  0  0
 15 17  1  0  0  0  0
 15 14  2  0  0  0  0
 16 15  1  0  0  0  0
 17 10  2  0  0  0  0
 18 21  1  0  0  0  0
 19  2  1  1  0  0  0
 19 18  1  0  0  0  0
 19 20  1  0  0  0  0
 20 25  1  0  0  0  0
 20 23  1  0  0  0  0
 21 23  2  0  0  0  0
 21 22  1  0  0  0  0
 23 24  1  0  0  0  0
 25 26  1  0  0  0  0
 26 27  2  0  0  0  0
 26 45  1  0  0  0  0
 27 28  1  0  0  0  0
 29 49  1  0  0  0  0
 29 27  1  0  0  0  0
 30 29  2  0  0  0  0
 31 30  1  0  0  0  0
 32 30  1  0  0  0  0
 32 25  2  0  0  0  0
 33 35  1  0  0  0  0
 33 36  1  0  0  0  0
 34 33  1  0  0  0  0
 37 14  1  0  0  0  0
 37 39  1  0  0  0  0
 38 37  1  0  0  0  0
 40 37  1  0  0  0  0
 41 42  1  0  0  0  0
 41 17  1  0  0  0  0
 43 41  1  0  0  0  0
 44 41  1  0  0  0  0
 45 46  1  0  0  0  0
 45 47  1  0  0  0  0
 48 45  1  0  0  0  0
 49 51  1  0  0  0  0
 49 52  1  0  0  0  0
 50 49  1  0  0  0  0
 53 54  1  0  0  0  0
 53 32  1  0  0  0  0
 55 53  1  0  0  0  0
 56 53  1  0  0  0  0
M  END
