3,6
q = 0.0, confidence = 1.0

 43 45  0  0  1  0  0  0  0  0999 V2000
   -2.4974    1.9485   -0.4372 O   0  0  0  0  0  0  0  0  0  0  0  0
   -3.3768    1.9480   -0.0179 H   0  0  0  0  0  0  0  0  0  0  0  0
    0.9280    1.2616    1.3166 N   0  0  0  0  0  2  0  0  0  0  0  0
   -0.5546   -3.1852   -1.2133 O   0  0  0  0  0  0  0  0  0  0  0  0
    0.4244   -3.1185   -1.0619 H   0  0  0  0  0  0  0  0  0  0  0  0
    2.3082    0.5495   -1.0353 N   0  0  0  0  0  2  0  0  0  0  0  0
    1.4577    1.4538   -1.5815 N   0  0  0  0  0  0  0  0  0  0  0  0
    0.3454    2.0973    0.4221 N   0  0  0  0  0  0  0  0  0  0  0  0
   -1.0687   -1.9379   -1.1161 C   0  0  0  0  0  0  0  0  0  0  0  0
   -2.1151    0.6437   -0.6683 C   0  0  0  0  0  0  0  0  0  0  0  0
    3.2186    1.3805   -2.9260 C   0  0  0  0  0  0  0  0  0  0  0  0
    3.9179    1.5647   -3.7471 H   0  0  0  0  0  0  0  0  0  0  0  0
    3.3817    0.4912   -1.8386 C   0  0  0  0  0  3  0  0  0  0  0  0
    4.1948   -0.2002   -1.5922 H   0  0  0  0  0  0  0  0  0  0  0  0
   -0.2809   -0.8037   -1.3681 C   0  0  0  0  0  0  0  0  0  0  0  0
    0.7316   -0.9584   -1.7545 H   0  0  0  0  0  0  0  0  0  0  0  0
    1.9765    1.9784   -2.7300 C   0  0  0  0  0  0  0  0  0  0  0  0
    1.4223    2.7236   -3.3106 H   0  0  0  0  0  0  0  0  0  0  0  0
   -2.9709   -0.4825   -0.5162 C   0  0  0  0  0  0  0  0  0  0  0  0
   -0.7738    0.4744   -1.0697 C   0  0  0  0  0  0  0  0  0  0  0  0
    0.1749    3.0904    2.3978 C   0  0  0  0  0  0  0  0  0  0  0  0
   -0.0555    3.8034    3.1952 H   0  0  0  0  0  0  0  0  0  0  0  0
   -0.1300    3.2144    1.0452 C   0  0  0  0  0  3  0  0  0  0  0  0
   -0.6680    3.9828    0.4818 H   0  0  0  0  0  0  0  0  0  0  0  0
   -2.4080   -1.7574   -0.7207 C   0  0  0  0  0  0  0  0  0  0  0  0
   -2.9990   -2.6649   -0.5476 H   0  0  0  0  0  0  0  0  0  0  0  0
    0.1490    1.6794   -0.9788 C   0  0  2  0  0  0  0  0  0  0  0  0
   -0.2938    2.5589   -1.4834 H   0  0  0  0  0  0  0  0  0  0  0  0
   -4.5242    0.3079    1.3279 C   0  0  0  0  0  0  0  0  0  0  0  0
   -3.9967   -0.3332    2.0614 H   0  0  0  0  0  0  0  0  0  0  0  0
   -5.5818    0.4081    1.6473 H   0  0  0  0  0  0  0  0  0  0  0  0
   -4.0678    1.3173    1.4174 H   0  0  0  0  0  0  0  0  0  0  0  0
   -4.4454   -0.3184   -0.0882 C   0  0  0  0  0  0  0  0  0  0  0  0
   -5.2057    0.5486   -1.1229 C   0  0  0  0  0  0  0  0  0  0  0  0
   -4.7642    1.5545   -1.2706 H   0  0  0  0  0  0  0  0  0  0  0  0
   -6.2610    0.6871   -0.8099 H   0  0  0  0  0  0  0  0  0  0  0  0
   -5.2035    0.0522   -2.1136 H   0  0  0  0  0  0  0  0  0  0  0  0
    0.8375    1.8467    2.5196 C   0  0  0  0  0  0  0  0  0  0  0  0
    1.2419    1.3194    3.3911 H   0  0  0  0  0  0  0  0  0  0  0  0
   -5.1731   -1.6735   -0.0132 C   0  0  0  0  0  0  0  0  0  0  0  0
   -4.7219   -2.3443    0.7440 H   0  0  0  0  0  0  0  0  0  0  0  0
   -5.1649   -2.1969   -0.9894 H   0  0  0  0  0  0  0  0  0  0  0  0
   -6.2315   -1.5099    0.2729 H   0  0  0  0  0  0  0  0  0  0  0  0
  1  2  1  0  0  0  0
  3 38  1  0  0  0  0
  4  9  1  0  0  0  0
  4  5  1  0  0  0  0
  7  6  1  0  0  0  0
  7 27  1  0  0  0  0
  8 23  1  0  0  0  0
  8  3  1  0  0  0  0
  9 25  1  0  0  0  0
 10 19  1  0  0  0  0
 10  1  1  0  0  0  0
 11 17  2  0  0  0  0
 11 13  1  0  0  0  0
 12 11  1  0  0  0  0
 13 14  1  0  0  0  0
 13  6  1  0  0  0  0
 15  9  2  0  0  0  0
 15 20  1  0  0  0  0
 16 15  1  0  0  0  0
 17  7  1  0  0  0  0
 18 17  1  0  0  0  0
 19 33  1  0  0  0  0
 20 27  1  0  0  0  0
 20 10  2  0  0  0  0
 21 38  2  0  0  0  0
 21 22  1  0  0  0  0
 23 21  1  0  0  0  0
 24 23  1  0  0  0  0
 25 26  1  0  0  0  0
 25 19  2  0  0  0  0
 27 28  1  6  0  0  0
 27  8  1  0  0  0  0
 29 32  1  0  0  0  0
 29 31  1  0  0  0  0
 29 30  1  0  0  0  0
 33 40  1  0  0  0  0
 33 29  1  0  0  0  0
 34 36  1  0  0  0  0
 34 33  1  0  0  0  0
 35 34  1  0  0  0  0
 37 34  1  0  0  0  0
 38 39  1  0  0  0  0
 40 43  1  0  0  0  0
 40 41  1  0  0  0  0
 42 40  1  0  0  0  0
M  END
