1,3
q = 0.0, confidence = 0.996

 38 41  0  0  1  0  0  0  0  0999 V2000
    1.5007    0.1055   -0.1043 N   0  0  0  0  0  2  0  0  0  0  0  0
    2.9521    1.8023   -0.3618 N   0  0  0  0  0  0  0  0  0  0  0  0
   -1.5006    0.1055   -0.1044 N   0  0  0  0  0  2  0  0  0  0  0  0
   -2.9520    1.8023   -0.3619 N   0  0  0  0  0  0  0  0  0  0  0  0
    4.9651    0.4100   -1.1005 C   0  0  0  0  0  0  0  0  0  0  0  0
    5.6939    1.2230   -1.2315 H   0  0  0  0  0  0  0  0  0  0  0  0
    5.3201   -0.9235   -1.3349 C   0  0  0  0  0  0  0  0  0  0  0  0
    6.3463   -1.1528   -1.6591 H   0  0  0  0  0  0  0  0  0  0  0  0
    4.3963   -1.9872   -1.1598 C   0  0  0  0  0  0  0  0  0  0  0  0
    4.7283   -3.0181   -1.3531 H   0  0  0  0  0  0  0  0  0  0  0  0
    3.0822   -1.7580   -0.7468 C   0  0  0  0  0  0  0  0  0  0  0  0
    2.3431   -2.5605   -0.5928 H   0  0  0  0  0  0  0  0  0  0  0  0
    2.7086   -0.4186   -0.5133 C   0  0  0  0  0  0  0  0  0  0  0  0
    3.6435    0.6449   -0.6847 C   0  0  0  0  0  0  0  0  0  0  0  0
    1.6530    1.4343   -0.0201 C   0  0  2  0  0  3  0  0  0  0  0  0
    0.6846    2.4359    0.3636 C   0  0  0  0  0  0  0  0  0  0  0  0
    1.1376    3.3885    0.6778 H   0  0  0  0  0  0  0  0  0  0  0  0
   -0.6846    2.4359    0.3636 C   0  0  0  0  0  0  0  0  0  0  0  0
   -1.1376    3.3885    0.6778 H   0  0  0  0  0  0  0  0  0  0  0  0
   -1.6529    1.4343   -0.0202 C   0  0  1  0  0  3  0  0  0  0  0  0
   -2.7085   -0.4186   -0.5134 C   0  0  0  0  0  0  0  0  0  0  0  0
   -3.0822   -1.7581   -0.7469 C   0  0  0  0  0  0  0  0  0  0  0  0
   -2.3431   -2.5605   -0.5928 H   0  0  0  0  0  0  0  0  0  0  0  0
   -4.3962   -1.9872   -1.1598 C   0  0  0  0  0  0  0  0  0  0  0  0
   -4.7282   -3.0181   -1.3531 H   0  0  0  0  0  0  0  0  0  0  0  0
   -5.3201   -0.9236   -1.3349 C   0  0  0  0  0  0  0  0  0  0  0  0
   -6.3462   -1.1528   -1.6592 H   0  0  0  0  0  0  0  0  0  0  0  0
   -4.9651    0.4100   -1.1005 C   0  0  0  0  0  0  0  0  0  0  0  0
   -5.6938    1.2230   -1.2315 H   0  0  0  0  0  0  0  0  0  0  0  0
   -3.6434    0.6449   -0.6848 C   0  0  0  0  0  0  0  0  0  0  0  0
   -3.4889    3.1489   -0.3994 C   0  0  0  0  0  0  0  0  0  0  0  0
   -3.5933    3.5712    0.6212 H   0  0  0  0  0  0  0  0  0  0  0  0
   -4.4889    3.1232   -0.8678 H   0  0  0  0  0  0  0  0  0  0  0  0
   -2.8426    3.8161   -1.0026 H   0  0  0  0  0  0  0  0  0  0  0  0
    3.4889    3.1489   -0.3994 C   0  0  0  0  0  0  0  0  0  0  0  0
    2.8427    3.8160   -1.0028 H   0  0  0  0  0  0  0  0  0  0  0  0
    4.4890    3.1232   -0.8675 H   0  0  0  0  0  0  0  0  0  0  0  0
    3.5931    3.5713    0.6213 H   0  0  0  0  0  0  0  0  0  0  0  0
  1 15  1  0  0  0  0
  2 15  1  0  0  0  0
  3 20  1  0  0  0  0
  4 20  1  0  0  0  0
  5 14  1  0  0  0  0
  6  5  1  0  0  0  0
  7  9  1  0  0  0  0
  7  5  2  0  0  0  0
  8  7  1  0  0  0  0
  9 11  2  0  0  0  0
 10  9  1  0  0  0  0
 11 12  1  0  0  0  0
 11 13  1  0  0  0  0
 13  1  1  0  0  0  0
 14 13  2  0  0  0  0
 14  2  1  0  0  0  0
 15 16  1  1  0  0  0
 16 17  1  0  0  0  0
 18 16  2  0  0  0  0
 18 19  1  0  0  0  0
 20 18  1  1  0  0  0
 21  3  1  0  0  0  0
 22 23  1  0  0  0  0
 22 21  2  0  0  0  0
 24 22  1  0  0  0  0
 25 24  1  0  0  0  0
 26 24  2  0  0  0  0
 26 28  1  0  0  0  0
 27 26  1  0  0  0  0
 28 30  2  0  0  0  0
 29 28  1  0  0  0  0
 30 21  1  0  0  0  0
 30  4  1  0  0  0  0
 31  4  1  0  0  0  0
 31 32  1  0  0  0  0
 33 31  1  0  0  0  0
 34 31  1  0  0  0  0
 35  2  1  0  0  0  0
 35 38  1  0  0  0  0
 36 35  1  0  0  0  0
 37 35  1  0  0  0  0
M  END
