3,6
q = -1.0, confidence = 0.002

 37 39  0  0  1  0  0  0  0  0999 V2000
   -3.2093   -4.0430    0.3609 S   0  0  0  0  0  0  0  0  0  0  0  0
   -0.1927   -3.6059    0.4102 O   0  0  0  0  0  0  0  0  0  0  0  0
   -0.3422   -1.3145    0.2017 N   0  0  0  0  0  2  0  0  0  0  0  0
    1.9406   -2.0298    0.1367 N   0  0  0  0  0  0  0  0  0  0  0  0
    1.4978   -2.9625    0.2877 H   0  0  0  0  0  0  0  0  0  0  0  0
    1.1457    0.2753    0.3185 N   0  0  0  0  0  2  0  0  0  0  0  0
    1.0046   -1.0474    0.2289 C   0  0  1  0  0  3  0  0  0  0  0  0
   -0.8623   -2.5812    0.1490 C   0  0  0  0  0  0  0  0  0  0  0  0
   -2.2893   -2.6807   -0.2226 C   0  0  0  0  0  0  0  0  0  0  0  0
   -3.0423   -1.8887   -1.0827 C   0  0  0  0  0  0  0  0  0  0  0  0
   -2.6079   -1.0176   -1.5975 H   0  0  0  0  0  0  0  0  0  0  0  0
   -4.3708   -2.3761   -1.2452 C   0  0  0  0  0  0  0  0  0  0  0  0
   -5.1266   -1.9060   -1.8899 H   0  0  0  0  0  0  0  0  0  0  0  0
   -4.6091   -3.5267   -0.5089 C   0  0  0  0  0  0  0  0  0  0  0  0
   -5.5389   -4.1053   -0.4399 H   0  0  0  0  0  0  0  0  0  0  0  0
    3.2363   -1.9233   -0.4076 C   0  0  0  0  0  0  0  0  0  0  0  0
    4.2337   -2.8162    0.0353 C   0  0  0  0  0  0  0  0  0  0  0  0
    3.9837   -3.5649    0.8024 H   0  0  0  0  0  0  0  0  0  0  0  0
    5.5289   -2.7388   -0.4932 C   0  0  0  0  0  0  0  0  0  0  0  0
    6.2999   -3.4412   -0.1417 H   0  0  0  0  0  0  0  0  0  0  0  0
    5.8460   -1.7665   -1.4555 C   0  0  0  0  0  0  0  0  0  0  0  0
    6.8666   -1.7003   -1.8610 H   0  0  0  0  0  0  0  0  0  0  0  0
    4.8479   -0.8854   -1.9025 C   0  0  0  0  0  0  0  0  0  0  0  0
    5.0806   -0.1294   -2.6675 H   0  0  0  0  0  0  0  0  0  0  0  0
    3.5455   -0.9627   -1.3943 C   0  0  0  0  0  0  0  0  0  0  0  0
    2.7569   -0.2947   -1.7690 H   0  0  0  0  0  0  0  0  0  0  0  0
    2.2742    1.0544    0.5663 C   0  0  0  0  0  0  0  0  0  0  0  0
    3.3130    0.6296    1.4285 C   0  0  0  0  0  0  0  0  0  0  0  0
    3.2492   -0.3552    1.9116 H   0  0  0  0  0  0  0  0  0  0  0  0
    4.4136    1.4628    1.6638 C   0  0  0  0  0  0  0  0  0  0  0  0
    5.2164    1.1175    2.3331 H   0  0  0  0  0  0  0  0  0  0  0  0
    4.4984    2.7269    1.0575 C   0  0  0  0  0  0  0  0  0  0  0  0
    5.3668    3.3754    1.2464 H   0  0  0  0  0  0  0  0  0  0  0  0
    3.4642    3.1550    0.2077 C   0  0  0  0  0  0  0  0  0  0  0  0
    3.5219    4.1413   -0.2781 H   0  0  0  0  0  0  0  0  0  0  0  0
    2.3605    2.3296   -0.0381 C   0  0  0  0  0  0  0  0  0  0  0  0
    1.5523    2.6350   -0.7181 H   0  0  0  0  0  0  0  0  0  0  0  0
  4  7  1  0  0  0  0
  4  5  1  0  0  0  0
  6 27  1  0  0  0  0
  7  3  1  6  0  0  0
  7  6  1  0  0  0  0
  8  3  1  0  0  0  0
  8  2  2  0  0  0  0
  9  8  1  0  0  0  0
  9  1  1  0  0  0  0
 10  9  2  0  0  0  0
 11 10  1  0  0  0  0
 12 10  1  0  0  0  0
 12 14  2  0  0  0  0
 13 12  1  0  0  0  0
 14 15  1  0  0  0  0
 14  1  1  0  0  0  0
 16 17  1  0  0  0  0
 16  4  1  0  0  0  0
 17 18  1  0  0  0  0
 19 20  1  0  0  0  0
 19 17  2  0  0  0  0
 21 19  1  0  0  0  0
 22 21  1  0  0  0  0
 23 21  2  0  0  0  0
 23 25  1  0  0  0  0
 24 23  1  0  0  0  0
 25 16  2  0  0  0  0
 26 25  1  0  0  0  0
 27 28  1  0  0  0  0
 28 30  2  0  0  0  0
 28 29  1  0  0  0  0
 30 31  1  0  0  0  0
 32 33  1  0  0  0  0
 32 30  1  0  0  0  0
 34 32  2  0  0  0  0
 35 34  1  0  0  0  0
 36 34  1  0  0  0  0
 36 27  2  0  0  0  0
 37 36  1  0  0  0  0
M  END
