1,3
q = 0.0, confidence = 1.0

 46 48  0  0  0  0  0  0  0  0999 V2000
    0.8334    0.0782   -1.5296 N   0  0  0  0  0  0  0  0  0  0  0  0
   -2.0636    0.8408   -1.1795 N   0  0  0  0  0  0  0  0  0  0  0  0
   -0.7746    0.5160    1.9385 N   0  0  0  0  0  0  0  0  0  0  0  0
    2.2379    0.6133    1.5184 N   0  0  0  0  0  0  0  0  0  0  0  0
    0.0018    0.7294   -2.5731 C   0  0  0  0  0  0  0  0  0  0  0  0
   -1.4891    0.3740   -2.4271 C   0  0  0  0  0  0  0  0  0  0  0  0
   -2.9776    0.1421   -0.4033 C   0  0  0  0  0  0  0  0  0  0  0  0
   -3.8225   -0.8275   -0.9954 C   0  0  0  0  0  0  0  0  0  0  0  0
   -4.7452   -1.5519   -0.2349 C   0  0  0  0  0  0  0  0  0  0  0  0
   -4.8708   -1.3209    1.1430 C   0  0  0  0  0  0  0  0  0  0  0  0
   -4.0284   -0.3765    1.7433 C   0  0  0  0  0  0  0  0  0  0  0  0
   -3.0695    0.3515    1.0136 C   0  0  0  0  0  0  0  0  0  0  0  0
   -2.0940    1.2095    1.7898 C   0  0  0  0  0  0  0  0  0  0  0  0
    0.2009    1.1397    2.8602 C   0  0  0  0  0  0  0  0  0  0  0  0
    1.5812    0.4598    2.8030 C   0  0  0  0  0  0  0  0  0  0  0  0
    2.9658   -0.3771    0.8744 C   0  0  0  0  0  0  0  0  0  0  0  0
    3.6214   -1.3786    1.6318 C   0  0  0  0  0  0  0  0  0  0  0  0
    4.3528   -2.3990    1.0157 C   0  0  0  0  0  0  0  0  0  0  0  0
    4.4698   -2.4466   -0.3810 C   0  0  0  0  0  0  0  0  0  0  0  0
    3.8192   -1.4664   -1.1412 C   0  0  0  0  0  0  0  0  0  0  0  0
    3.0573   -0.4371   -0.5567 C   0  0  0  0  0  0  0  0  0  0  0  0
    2.2796    0.4743   -1.4820 C   0  0  0  0  0  0  0  0  0  0  0  0
    0.8057   -0.9441   -1.6821 H   0  0  0  0  0  0  0  0  0  0  0  0
   -1.6764    1.7064   -0.7995 H   0  0  0  0  0  0  0  0  0  0  0  0
   -0.9531   -0.4628    2.2158 H   0  0  0  0  0  0  0  0  0  0  0  0
    1.9663    1.4389    0.9791 H   0  0  0  0  0  0  0  0  0  0  0  0
    0.3455    0.4079   -3.5815 H   0  0  0  0  0  0  0  0  0  0  0  0
    0.1589    1.8248   -2.5121 H   0  0  0  0  0  0  0  0  0  0  0  0
   -1.6030   -0.7306   -2.4754 H   0  0  0  0  0  0  0  0  0  0  0  0
   -2.0129    0.7865   -3.3222 H   0  0  0  0  0  0  0  0  0  0  0  0
   -3.7607   -1.0041   -2.0781 H   0  0  0  0  0  0  0  0  0  0  0  0
   -5.3828   -2.2979   -0.7330 H   0  0  0  0  0  0  0  0  0  0  0  0
   -5.6053   -1.8756    1.7442 H   0  0  0  0  0  0  0  0  0  0  0  0
   -4.0948   -0.2034    2.8303 H   0  0  0  0  0  0  0  0  0  0  0  0
   -1.8823    2.1916    1.3200 H   0  0  0  0  0  0  0  0  0  0  0  0
   -2.5125    1.4120    2.8007 H   0  0  0  0  0  0  0  0  0  0  0  0
    0.2869    2.2071    2.5750 H   0  0  0  0  0  0  0  0  0  0  0  0
   -0.1774    1.0988    3.9066 H   0  0  0  0  0  0  0  0  0  0  0  0
    1.4608   -0.6258    3.0104 H   0  0  0  0  0  0  0  0  0  0  0  0
    2.1855    0.8754    3.6445 H   0  0  0  0  0  0  0  0  0  0  0  0
    3.5734   -1.3368    2.7292 H   0  0  0  0  0  0  0  0  0  0  0  0
    4.8500   -3.1569    1.6401 H   0  0  0  0  0  0  0  0  0  0  0  0
    5.0512   -3.2390   -0.8730 H   0  0  0  0  0  0  0  0  0  0  0  0
    3.8831   -1.5037   -2.2411 H   0  0  0  0  0  0  0  0  0  0  0  0
    2.3239    1.5457   -1.2033 H   0  0  0  0  0  0  0  0  0  0  0  0
    2.7038    0.3942   -2.5068 H   0  0  0  0  0  0  0  0  0  0  0  0
  1 22  1  0  0  0  0
  2 24  1  0  0  0  0
  2  7  1  0  0  0  0
  3 25  1  0  0  0  0
  3 14  1  0  0  0  0
  4 15  1  0  0  0  0
  5 28  1  0  0  0  0
  5  6  1  0  0  0  0
  5  1  1  0  0  0  0
  6  2  1  0  0  0  0
  7 12  1  0  0  0  0
  8  7  2  0  0  0  0
  8  9  1  0  0  0  0
  9 10  2  0  0  0  0
 10 11  1  0  0  0  0
 10 33  1  0  0  0  0
 11 34  1  0  0  0  0
 12 11  2  0  0  0  0
 12 13  1  0  0  0  0
 13  3  1  0  0  0  0
 13 36  1  0  0  0  0
 14 38  1  0  0  0  0
 15 14  1  0  0  0  0
 15 39  1  0  0  0  0
 15 40  1  0  0  0  0
 16  4  1  0  0  0  0
 16 17  1  0  0  0  0
 17 41  1  0  0  0  0
 18 17  2  0  0  0  0
 18 42  1  0  0  0  0
 19 18  1  0  0  0  0
 20 21  1  0  0  0  0
 20 19  2  0  0  0  0
 21 16  2  0  0  0  0
 22 45  1  0  0  0  0
 22 21  1  0  0  0  0
 23  1  1  0  0  0  0
 26  4  1  0  0  0  0
 27  5  1  0  0  0  0
 29  6  1  0  0  0  0
 30  6  1  0  0  0  0
 31  8  1  0  0  0  0
 32  9  1  0  0  0  0
 35 13  1  0  0  0  0
 37 14  1  0  0  0  0
 43 19  1  0  0  0  0
 44 20  1  0  0  0  0
 46 22  1  0  0  0  0
M  END
