1,13
q = -1.0, confidence = 0.0

 37 36  0  0  1  0  0  0  0  0999 V2000
    0.6810   -1.9611    0.0137 N   0  0  0  0  0  0  0  0  0  0  0  0
    1.2258   -2.8320   -0.0342 H   0  0  0  0  0  0  0  0  0  0  0  0
    0.1379   -1.9965    0.9013 H   0  0  0  0  0  0  0  0  0  0  0  0
   -0.3080   -1.8801   -1.0760 C   0  0  1  0  0  0  0  0  0  0  0  0
    0.1809   -2.2035   -2.0214 H   0  0  0  0  0  0  0  0  0  0  0  0
   -1.5098   -2.8037   -0.7935 C   0  0  0  0  0  0  0  0  0  0  0  0
   -2.3561   -2.4230   -1.4103 H   0  0  0  0  0  0  0  0  0  0  0  0
   -1.2666   -3.8322   -1.1415 H   0  0  0  0  0  0  0  0  0  0  0  0
   -1.8087   -2.8792    0.5822 O   0  0  0  0  0  0  0  0  0  0  0  0
   -2.4770   -2.1788    0.8060 H   0  0  0  0  0  0  0  0  0  0  0  0
   -0.6821   -0.4001   -1.3081 C   0  0  0  0  0  0  0  0  0  0  0  0
   -1.7771   -0.0965   -1.8261 O   0  0  0  0  0  0  0  0  0  0  0  0
    0.3111    0.4588   -1.0019 N   0  0  0  0  0  2  0  0  0  0  0  0
    0.1650    1.8371   -1.4339 C   0  0  0  0  0  0  0  0  0  0  0  0
    0.0149    1.8979   -2.5333 H   0  0  0  0  0  0  0  0  0  0  0  0
    1.0974    2.3840   -1.1996 H   0  0  0  0  0  0  0  0  0  0  0  0
   -0.9837    2.6742   -0.8481 C   0  0  0  0  0  0  0  0  0  0  0  0
   -1.4020    3.6554   -1.4623 O   0  0  0  0  0  0  0  0  0  0  0  0
   -1.4568    2.2697    0.3646 N   0  0  0  0  0  0  0  0  0  0  0  0
   -0.9977    1.4811    0.8475 H   0  0  0  0  0  0  0  0  0  0  0  0
   -2.6203    2.8886    0.9501 C   0  0  0  0  0  0  0  0  0  0  0  0
   -2.7202    3.9040    0.5119 H   0  0  0  0  0  0  0  0  0  0  0  0
   -2.5159    2.9909    2.0476 H   0  0  0  0  0  0  0  0  0  0  0  0
   -3.9392    2.1427    0.6959 C   0  0  0  0  0  0  0  0  0  0  0  0
   -4.9284    2.3336    1.4023 O   0  0  0  0  0  0  0  0  0  0  0  0
   -3.9307    1.3000   -0.3854 N   0  0  0  0  0  0  0  0  0  0  0  0
   -3.0410    1.0605   -0.8525 H   0  0  0  0  0  0  0  0  0  0  0  0
   -5.0075    0.3717   -0.5537 C   0  0  0  0  0  0  0  0  0  0  0  0
   -5.2749    0.2085   -1.6172 H   0  0  0  0  0  0  0  0  0  0  0  0
   -5.8976    0.7881   -0.0305 H   0  0  0  0  0  0  0  0  0  0  0  0
   -4.6802   -0.9629    0.0962 C   0  0  0  0  0  0  0  0  0  0  0  0
   -3.7850   -1.1166    0.9175 O   0  0  0  0  0  0  0  0  0  0  0  0
   -5.4935   -1.9482   -0.3184 O   0  0  0  0  0  0  0  0  0  0  0  0
   -5.3168   -3.2286    0.3143 C   0  0  0  0  0  0  0  0  0  0  0  0
   -5.9080   -3.9471   -0.2802 H   0  0  0  0  0  0  0  0  0  0  0  0
   -5.6967   -3.1943    1.3557 H   0  0  0  0  0  0  0  0  0  0  0  0
   -4.2477   -3.5181    0.3396 H   0  0  0  0  0  0  0  0  0  0  0  0
  1  3  1  0  0  0  0
  2  1  1  0  0  0  0
  4  5  1  6  0  0  0
  4  6  1  0  0  0  0
  4  1  1  0  0  0  0
  6  9  1  0  0  0  0
  7  6  1  0  0  0  0
  8  6  1  0  0  0  0
  9 10  1  0  0  0  0
 11  4  1  0  0  0  0
 11 13  1  0  0  0  0
 12 11  2  0  0  0  0
 14 16  1  0  0  0  0
 14 13  1  0  0  0  0
 14 17  1  0  0  0  0
 15 14  1  0  0  0  0
 17 19  1  0  0  0  0
 18 17  2  0  0  0  0
 19 20  1  0  0  0  0
 19 21  1  0  0  0  0
 21 23  1  0  0  0  0
 22 21  1  0  0  0  0
 24 21  1  0  0  0  0
 24 25  2  0  0  0  0
 26 24  1  0  0  0  0
 27 26  1  0  0  0  0
 28 26  1  0  0  0  0
 28 30  1  0  0  0  0
 28 31  1  0  0  0  0
 29 28  1  0  0  0  0
 31 32  2  0  0  0  0
 33 31  1  0  0  0  0
 33 34  1  0  0  0  0
 34 37  1  0  0  0  0
 34 36  1  0  0  0  0
 35 34  1  0  0  0  0
M  END
