1,2
q = -1.0, confidence = 0.0

 22 23  0  0  0  0  0  0  0  0999 V2000
    0.6355   -1.9543    0.0029 N   0  0  0  0  0  2  0  0  0  0  0  0
    1.9788    0.2737   -0.1318 N   0  0  0  0  0  2  0  0  0  0  0  0
    2.8021    1.3210   -0.2036 N   0  0  0  0  0  0  0  0  0  0  0  0
    4.0383   -0.5920   -0.2383 N   0  0  0  0  0  2  0  0  0  0  0  0
   -0.1752   -3.0280    0.0771 C   0  0  0  0  0  0  0  0  0  0  0  0
   -1.2592   -2.8069    0.1394 H   0  0  0  0  0  0  0  0  0  0  0  0
    0.3439   -4.3288    0.0739 C   0  0  0  0  0  0  0  0  0  0  0  0
   -0.3452   -5.1824    0.1356 H   0  0  0  0  0  0  0  0  0  0  0  0
    1.7350   -4.5114   -0.0081 C   0  0  0  0  0  0  0  0  0  0  0  0
    2.1645   -5.5246   -0.0119 H   0  0  0  0  0  0  0  0  0  0  0  0
    2.5721   -3.3941   -0.0849 C   0  0  0  0  0  0  0  0  0  0  0  0
    3.6660   -3.4722   -0.1509 H   0  0  0  0  0  0  0  0  0  0  0  0
    1.9963   -2.1124   -0.0781 C   0  0  0  0  0  0  0  0  0  0  0  0
    2.7268   -0.8649   -0.1516 C   0  0  0  0  0  0  0  0  0  0  0  0
    4.0429    0.7677   -0.2700 C   0  0  0  0  0  0  0  0  0  0  0  0
    5.2922    1.5905   -0.3627 C   0  0  0  0  0  0  0  0  0  0  0  0
    5.0035    2.6582   -0.2946 H   0  0  0  0  0  0  0  0  0  0  0  0
    5.7380    1.4465   -1.3718 H   0  0  0  0  0  0  0  0  0  0  0  0
    6.3281    1.2228    0.7062 C   0  0  0  0  0  0  0  0  0  0  0  0
    6.5700    0.1431    0.6497 H   0  0  0  0  0  0  0  0  0  0  0  0
    5.9409    1.4258    1.7252 H   0  0  0  0  0  0  0  0  0  0  0  0
    7.2654    1.7990    0.5726 H   0  0  0  0  0  0  0  0  0  0  0  0
  1  5  1  0  0  0  0
  3  2  1  0  0  0  0
  4 14  1  0  0  0  0
  5  6  1  0  0  0  0
  7  5  2  0  0  0  0
  7  8  1  0  0  0  0
  9  7  1  0  0  0  0
 10  9  1  0  0  0  0
 11 13  1  0  0  0  0
 11  9  2  0  0  0  0
 12 11  1  0  0  0  0
 13  1  1  0  0  0  0
 14  2  1  0  0  0  0
 14 13  2  0  0  0  0
 15  4  1  0  0  0  0
 15  3  2  0  0  0  0
 16 17  1  0  0  0  0
 16 15  1  0  0  0  0
 16 19  1  0  0  0  0
 18 16  1  0  0  0  0
 19 21  1  0  0  0  0
 20 19  1  0  0  0  0
 22 19  1  0  0  0  0
M  END
