3,4
q = 0.0, confidence = 0.998

 39 40  0  0  1  0  0  0  0  0999 V2000
   -2.7284    0.3329    1.2266 O   0  0  0  0  0  0  0  0  0  0  0  0
   -3.2206    2.2891    0.1652 O   0  0  0  0  0  0  0  0  0  0  0  0
    1.2748   -1.7487    0.5804 N   0  0  0  0  0  2  0  0  0  0  0  0
   -0.1481    0.4572    0.6425 N   0  0  0  0  0  2  0  0  0  0  0  0
    1.9602   -2.9034    0.4858 C   0  0  0  0  0  0  0  0  0  0  0  0
    3.0379   -3.1874    1.3355 C   0  0  0  0  0  0  0  0  0  0  0  0
    3.4183   -2.2488    2.3080 C   0  0  0  0  0  0  0  0  0  0  0  0
    2.7038   -1.0489    2.4051 C   0  0  0  0  0  0  0  0  0  0  0  0
    1.6297   -0.8227    1.5271 C   0  0  0  0  0  0  0  0  0  0  0  0
    0.8182    0.3778    1.5160 C   0  0  0  0  0  0  0  0  0  0  0  0
   -0.9039    1.6954    0.5431 C   0  0  2  0  0  0  0  0  0  0  0  0
   -2.4251    1.4718    0.5817 C   0  0  0  0  0  0  0  0  0  0  0  0
   -4.1176   -0.0790    1.1833 C   0  0  0  0  0  0  0  0  0  0  0  0
   -4.9402    0.5797    2.2766 C   0  0  0  0  0  0  0  0  0  0  0  0
   -0.4850    2.4957   -0.7154 C   0  0  0  0  0  0  0  0  0  0  0  0
    0.9976    2.7660   -0.7272 C   0  0  0  0  0  0  0  0  0  0  0  0
    1.8732    1.9071   -1.4246 C   0  0  0  0  0  0  0  0  0  0  0  0
    3.2619    2.1013   -1.3713 C   0  0  0  0  0  0  0  0  0  0  0  0
    3.7987    3.1580   -0.6183 C   0  0  0  0  0  0  0  0  0  0  0  0
    2.9377    4.0227    0.0768 C   0  0  0  0  0  0  0  0  0  0  0  0
    1.5492    3.8257    0.0220 C   0  0  0  0  0  0  0  0  0  0  0  0
   -4.9928    1.6743    2.1202 H   0  0  0  0  0  0  0  0  0  0  0  0
   -5.9738    0.1786    2.2610 H   0  0  0  0  0  0  0  0  0  0  0  0
   -4.5098    0.3783    3.2782 H   0  0  0  0  0  0  0  0  0  0  0  0
   -4.0739   -1.1789    1.2999 H   0  0  0  0  0  0  0  0  0  0  0  0
   -4.5096    0.1546    0.1735 H   0  0  0  0  0  0  0  0  0  0  0  0
   -1.0809    3.4295   -0.6916 H   0  0  0  0  0  0  0  0  0  0  0  0
   -0.8036    1.9115   -1.6004 H   0  0  0  0  0  0  0  0  0  0  0  0
    0.8772    4.5115    0.5640 H   0  0  0  0  0  0  0  0  0  0  0  0
    3.3499    4.8610    0.6594 H   0  0  0  0  0  0  0  0  0  0  0  0
    4.8878    3.3132   -0.5792 H   0  0  0  0  0  0  0  0  0  0  0  0
    3.9286    1.4231   -1.9257 H   0  0  0  0  0  0  0  0  0  0  0  0
    1.4528    1.0743   -2.0110 H   0  0  0  0  0  0  0  0  0  0  0  0
    2.9651   -0.2822    3.1484 H   0  0  0  0  0  0  0  0  0  0  0  0
    4.2631   -2.4503    2.9829 H   0  0  0  0  0  0  0  0  0  0  0  0
    3.5710   -4.1423    1.2247 H   0  0  0  0  0  0  0  0  0  0  0  0
    1.6041   -3.5837   -0.3076 H   0  0  0  0  0  0  0  0  0  0  0  0
    1.0283    1.2060    2.2161 H   0  0  0  0  0  0  0  0  0  0  0  0
   -0.6693    2.3165    1.4396 H   0  0  0  0  0  0  0  0  0  0  0  0
  2 12  2  0  0  0  0
  3  9  1  0  0  0  0
  4 10  1  0  0  0  0
  5  3  1  0  0  0  0
  5  6  2  0  0  0  0
  6  7  1  0  0  0  0
  7  8  2  0  0  0  0
  7 35  1  0  0  0  0
  8 34  1  0  0  0  0
  9  8  1  0  0  0  0
 10  9  2  0  0  0  0
 10 38  1  0  0  0  0
 11 12  1  0  0  0  0
 11  4  1  0  0  0  0
 11 39  1  1  0  0  0
 12  1  1  0  0  0  0
 13  1  1  0  0  0  0
 13 25  1  0  0  0  0
 13 14  1  0  0  0  0
 14 24  1  0  0  0  0
 15 27  1  0  0  0  0
 15 11  1  0  0  0  0
 16 15  1  0  0  0  0
 16 21  1  0  0  0  0
 17 18  1  0  0  0  0
 17 16  2  0  0  0  0
 18 19  2  0  0  0  0
 19 31  1  0  0  0  0
 19 20  1  0  0  0  0
 20 30  1  0  0  0  0
 21 20  2  0  0  0  0
 21 29  1  0  0  0  0
 22 14  1  0  0  0  0
 23 14  1  0  0  0  0
 26 13  1  0  0  0  0
 28 15  1  0  0  0  0
 32 18  1  0  0  0  0
 33 17  1  0  0  0  0
 36  6  1  0  0  0  0
 37  5  1  0  0  0  0
M  END
