5,6
q = -1.0, confidence = 0.01

 30 31  0  0  0  0  0  0  0  0999 V2000
    1.4301    1.3580   -2.2140 S   0  0  0  0  0  0  0  0  0  0  0  0
    1.3045    0.2273   -3.1701 O   0  0  0  0  0  0  0  0  0  0  0  0
    1.4334    2.7599   -2.6908 O   0  0  0  0  0  0  0  0  0  0  0  0
   -3.8301    3.9210    1.1608 O   0  0  0  0  0  0  0  0  0  0  0  0
    0.2044    1.1833   -1.0953 N   0  0  0  0  0  2  0  0  0  0  0  0
   -1.5188    1.4718    0.1919 N   0  0  0  0  0  2  0  0  0  0  0  0
   -2.5482    2.0236    0.8185 N   0  0  0  0  0  0  0  0  0  0  0  0
    6.2588    0.3278    1.1570 N   0  0  0  0  0  0  0  0  0  0  0  0
   -0.7086    2.1212   -0.6979 C   0  0  0  0  0  0  0  0  0  0  0  0
   -0.9514    3.4858   -1.0075 C   0  0  0  0  0  0  0  0  0  0  0  0
   -0.3145    4.0065   -1.7335 H   0  0  0  0  0  0  0  0  0  0  0  0
   -2.0214    4.0810   -0.3597 C   0  0  0  0  0  3  0  0  0  0  0  0
   -2.2958    5.1314   -0.5311 H   0  0  0  0  0  0  0  0  0  0  0  0
   -2.7993    3.3088    0.5537 C   0  0  0  0  0  0  0  0  0  0  0  0
   -4.6196    3.1443    2.0622 C   0  0  0  0  0  0  0  0  0  0  0  0
   -5.0763    2.2745    1.5461 H   0  0  0  0  0  0  0  0  0  0  0  0
   -5.4049    3.8244    2.4370 H   0  0  0  0  0  0  0  0  0  0  0  0
   -4.0067    2.7625    2.9049 H   0  0  0  0  0  0  0  0  0  0  0  0
    2.8944    1.0615   -1.2385 C   0  0  0  0  0  0  0  0  0  0  0  0
    3.2694    1.9980   -0.2572 C   0  0  0  0  0  0  0  0  0  0  0  0
    2.6743    2.9117   -0.1125 H   0  0  0  0  0  0  0  0  0  0  0  0
    4.3991    1.7637    0.5227 C   0  0  0  0  0  0  0  0  0  0  0  0
    4.6908    2.4911    1.2958 H   0  0  0  0  0  0  0  0  0  0  0  0
    5.1858    0.5943    0.3320 C   0  0  0  0  0  0  0  0  0  0  0  0
    4.8059   -0.3164   -0.6867 C   0  0  0  0  0  0  0  0  0  0  0  0
    5.4167   -1.2147   -0.8665 H   0  0  0  0  0  0  0  0  0  0  0  0
    3.6689   -0.0855   -1.4652 C   0  0  0  0  0  0  0  0  0  0  0  0
    3.3675   -0.7879   -2.2555 H   0  0  0  0  0  0  0  0  0  0  0  0
    6.6614    1.1124    1.6709 H   0  0  0  0  0  0  0  0  0  0  0  0
    6.9537   -0.3404    0.8217 H   0  0  0  0  0  0  0  0  0  0  0  0
  1 19  1  0  0  0  0
  1  5  1  0  0  0  0
  2  1  2  0  0  0  0
  3  1  2  0  0  0  0
  4 15  1  0  0  0  0
  5  9  1  0  0  0  0
  6  7  1  0  0  0  0
  8 29  1  0  0  0  0
  9  6  1  0  0  0  0
 10  9  2  0  0  0  0
 10 12  1  0  0  0  0
 11 10  1  0  0  0  0
 12 14  1  0  0  0  0
 13 12  1  0  0  0  0
 14  7  2  0  0  0  0
 14  4  1  0  0  0  0
 15 17  1  0  0  0  0
 15 18  1  0  0  0  0
 16 15  1  0  0  0  0
 19 20  1  0  0  0  0
 20 21  1  0  0  0  0
 20 22  2  0  0  0  0
 22 23  1  0  0  0  0
 24 22  1  0  0  0  0
 24  8  1  0  0  0  0
 25 24  2  0  0  0  0
 26 25  1  0  0  0  0
 27 19  2  0  0  0  0
 27 25  1  0  0  0  0
 28 27  1  0  0  0  0
 30  8  1  0  0  0  0
M  END
