1,14
q = -1.0, confidence = 0.0

 14 15  0  0  1  0  0  0  0  0999 V2000
   -0.1189    1.5876   -1.5188 N   0  0  0  0  0  0  0  0  0  0  0  0
    0.4058    1.9295   -2.6976 N   0  0  0  0  0  0  0  0  0  0  0  0
   -0.2055    3.0431   -3.1088 N   0  0  0  0  0  0  0  0  0  0  0  0
   -1.1256    3.4390   -2.2168 N   0  0  0  0  0  0  0  0  0  0  0  0
   -1.0635    2.5264   -1.2332 C   0  0  0  0  0  3  0  0  0  0  0  0
   -1.8381    2.3878   -0.0216 C   0  0  1  0  0  3  0  0  0  0  0  0
   -2.8643    3.2676    0.3936 C   0  0  0  0  0  0  0  0  0  0  0  0
   -3.1032    4.1414   -0.2356 H   0  0  0  0  0  0  0  0  0  0  0  0
   -3.5573    3.0783    1.5193 N   0  0  0  0  0  0  0  0  0  0  0  0
   -3.2389    1.9962    2.2558 C   0  0  0  0  0  0  0  0  0  0  0  0
   -3.8074    1.8283    3.1861 H   0  0  0  0  0  0  0  0  0  0  0  0
   -2.2292    1.1021    1.8777 C   0  0  0  0  0  0  0  0  0  0  0  0
   -1.9641    0.2158    2.4755 H   0  0  0  0  0  0  0  0  0  0  0  0
   -1.5249    1.2983    0.7445 N   0  0  0  0  0  2  0  0  0  0  0  0
  1  5  1  0  0  0  0
  2  1  2  0  0  0  0
  3  2  1  0  0  0  0
  3  4  2  0  0  0  0
  4  5  1  0  0  0  0
  6  5  1  6  0  0  0
  6  7  1  0  0  0  0
  6 14  1  0  0  0  0
  7  9  2  0  0  0  0
  8  7  1  0  0  0  0
  9 10  1  0  0  0  0
 10 11  1  0  0  0  0
 12 10  2  0  0  0  0
 12 13  1  0  0  0  0
 14 12  1  0  0  0  0
M  END
