1,3
q = 0.0, confidence = 0.998

 24 26  0  0  1  0  0  0  0  0999 V2000
   -0.3634    1.4697    0.1056 N   0  0  0  0  0  2  0  0  0  0  0  0
    0.9513    1.0877    0.2079 N   0  0  0  0  0  0  0  0  0  0  0  0
    0.0675   -1.0375    0.0615 N   0  0  0  0  0  2  0  0  0  0  0  0
    2.5202   -2.2681    0.3716 N   0  0  0  0  0  0  0  0  0  0  0  0
    3.6858   -0.3293   -0.1155 N   0  0  0  0  0  0  0  0  0  0  0  0
    3.7518    0.7775   -0.9110 N   0  0  0  0  0  0  0  0  0  0  0  0
   -0.4140    2.7759    0.3851 C   0  0  0  0  0  3  0  0  0  0  0  0
   -1.3752    3.3010    0.3858 H   0  0  0  0  0  0  0  0  0  0  0  0
    0.8844    3.2593    0.6747 C   0  0  0  0  0  0  0  0  0  0  0  0
    1.1700    4.2834    0.9337 H   0  0  0  0  0  0  0  0  0  0  0  0
    1.7293    2.1680    0.5620 C   0  0  0  0  0  0  0  0  0  0  0  0
    2.8110    2.0768    0.6682 H   0  0  0  0  0  0  0  0  0  0  0  0
    1.1978   -0.2859    0.1133 C   0  0  2  0  0  3  0  0  0  0  0  0
    0.1477   -2.3768    0.2239 C   0  0  0  0  0  0  0  0  0  0  0  0
   -0.7909   -2.9439    0.2055 H   0  0  0  0  0  0  0  0  0  0  0  0
    1.3890   -2.9725    0.4586 C   0  0  0  0  0  0  0  0  0  0  0  0
    1.4674   -4.0466    0.6912 H   0  0  0  0  0  0  0  0  0  0  0  0
    2.4610   -0.9580    0.1367 C   0  0  0  0  0  0  0  0  0  0  0  0
    5.0568    0.9853   -1.0818 C   0  0  0  0  0  0  0  0  0  0  0  0
    5.3946    1.8313   -1.6946 H   0  0  0  0  0  0  0  0  0  0  0  0
    5.8492    0.0075   -0.4048 C   0  0  0  0  0  0  0  0  0  0  0  0
    6.9409   -0.0654   -0.3668 H   0  0  0  0  0  0  0  0  0  0  0  0
    4.9369   -0.8350    0.1986 C   0  0  0  0  0  0  0  0  0  0  0  0
    5.0413   -1.7393    0.8055 H   0  0  0  0  0  0  0  0  0  0  0  0
  1  2  1  0  0  0  0
  1  7  1  0  0  0  0
  2 11  1  0  0  0  0
  3 13  1  0  0  0  0
  3 14  1  0  0  0  0
  4 16  1  0  0  0  0
  5 18  1  0  0  0  0
  5 23  1  0  0  0  0
  6  5  1  0  0  0  0
  7  8  1  0  0  0  0
  7  9  1  0  0  0  0
  9 10  1  0  0  0  0
 11 12  1  0  0  0  0
 11  9  2  0  0  0  0
 13 18  1  0  0  0  0
 13  2  1  1  0  0  0
 14 16  2  0  0  0  0
 15 14  1  0  0  0  0
 16 17  1  0  0  0  0
 18  4  2  0  0  0  0
 19  6  2  0  0  0  0
 19 21  1  0  0  0  0
 20 19  1  0  0  0  0
 21 22  1  0  0  0  0
 21 23  2  0  0  0  0
 23 24  1  0  0  0  0
M  END
