3,4
q = -1.0, confidence = 0.01

 58 60  0  0  1  0  0  0  0  0999 V2000
    4.9293   -0.1414    2.3022 O   0  0  0  0  0  0  0  0  0  0  0  0
    4.9287    0.1412   -2.3030 O   0  0  0  0  0  0  0  0  0  0  0  0
    1.2352   -1.3069    0.6788 N   0  0  0  0  0  2  0  0  0  0  0  0
    1.2353    1.3074   -0.6788 N   0  0  0  0  0  2  0  0  0  0  0  0
    4.5983   -0.0002   -0.0004 N   0  0  0  0  0  0  0  0  0  0  0  0
    3.4393   -2.4200    0.6882 C   0  0  0  0  0  0  0  0  0  0  0  0
    3.6999   -2.5284    1.7608 H   0  0  0  0  0  0  0  0  0  0  0  0
    4.3845   -2.3350    0.1260 H   0  0  0  0  0  0  0  0  0  0  0  0
    2.9391   -3.3475    0.3517 H   0  0  0  0  0  0  0  0  0  0  0  0
    2.5455   -1.2125    0.4541 C   0  0  2  0  0  3  0  0  0  0  0  0
    3.1652    0.0000   -0.0002 C   0  0  0  0  0  0  0  0  0  0  0  0
    2.5457    1.2127   -0.4541 C   0  0  0  0  0  0  0  0  0  0  0  0
    3.4396    2.4201   -0.6881 C   0  0  0  0  0  0  0  0  0  0  0  0
    2.9398    3.3475   -0.3509 H   0  0  0  0  0  0  0  0  0  0  0  0
    3.6996    2.5290   -1.7608 H   0  0  0  0  0  0  0  0  0  0  0  0
    4.3851    2.3346   -0.1265 H   0  0  0  0  0  0  0  0  0  0  0  0
   -0.1918   -3.3061    0.3096 C   0  0  0  0  0  0  0  0  0  0  0  0
   -0.1841   -3.0195   -1.0697 C   0  0  0  0  0  0  0  0  0  0  0  0
    0.4366   -2.1888   -1.4380 H   0  0  0  0  0  0  0  0  0  0  0  0
   -0.9529   -3.7746   -1.9703 C   0  0  0  0  0  0  0  0  0  0  0  0
   -0.9301   -3.5276   -3.0430 H   0  0  0  0  0  0  0  0  0  0  0  0
   -1.7416   -4.8390   -1.5090 C   0  0  0  0  0  0  0  0  0  0  0  0
   -2.3454   -5.4313   -2.2132 H   0  0  0  0  0  0  0  0  0  0  0  0
   -1.7465   -5.1462   -0.1384 C   0  0  0  0  0  0  0  0  0  0  0  0
   -2.3536   -5.9844    0.2373 H   0  0  0  0  0  0  0  0  0  0  0  0
   -0.9790   -4.3881    0.7580 C   0  0  0  0  0  0  0  0  0  0  0  0
   -0.9924   -4.6481    1.8276 H   0  0  0  0  0  0  0  0  0  0  0  0
    0.6493   -2.4924    1.2996 C   0  0  2  0  0  0  0  0  0  0  0  0
    1.4440   -3.1765    1.6697 H   0  0  0  0  0  0  0  0  0  0  0  0
   -0.1568   -2.0569    2.5371 C   0  0  0  0  0  0  0  0  0  0  0  0
    0.4963   -1.4782    3.2193 H   0  0  0  0  0  0  0  0  0  0  0  0
   -0.5549   -2.9270    3.0949 H   0  0  0  0  0  0  0  0  0  0  0  0
   -1.0050   -1.4108    2.2342 H   0  0  0  0  0  0  0  0  0  0  0  0
   -0.1916    3.3063   -0.3082 C   0  0  0  0  0  0  0  0  0  0  0  0
   -0.9784    4.3889   -0.7558 C   0  0  0  0  0  0  0  0  0  0  0  0
   -0.9914    4.6500   -1.8251 H   0  0  0  0  0  0  0  0  0  0  0  0
   -1.7460    5.1463    0.1411 C   0  0  0  0  0  0  0  0  0  0  0  0
   -2.3528    5.9850   -0.2339 H   0  0  0  0  0  0  0  0  0  0  0  0
   -1.7417    4.8377    1.5113 C   0  0  0  0  0  0  0  0  0  0  0  0
   -2.3457    5.4295    2.2160 H   0  0  0  0  0  0  0  0  0  0  0  0
   -0.9534    3.7727    1.9719 C   0  0  0  0  0  0  0  0  0  0  0  0
   -0.9310    3.5246    3.0443 H   0  0  0  0  0  0  0  0  0  0  0  0
   -0.1845    3.0183    1.0708 C   0  0  0  0  0  0  0  0  0  0  0  0
    0.4360    2.1872    1.4386 H   0  0  0  0  0  0  0  0  0  0  0  0
    0.6495    2.4933   -1.2988 C   0  0  2  0  0  0  0  0  0  0  0  0
    1.4442    3.1776   -1.6684 H   0  0  0  0  0  0  0  0  0  0  0  0
   -0.1566    2.0587   -2.5367 C   0  0  0  0  0  0  0  0  0  0  0  0
    0.4965    1.4805   -3.2192 H   0  0  0  0  0  0  0  0  0  0  0  0
   -0.5546    2.9293   -3.0938 H   0  0  0  0  0  0  0  0  0  0  0  0
   -1.0048    1.4124   -2.2342 H   0  0  0  0  0  0  0  0  0  0  0  0
    5.3768   -0.0782    1.1734 C   0  0  0  0  0  0  0  0  0  0  0  0
    6.8461   -0.1042    0.7579 C   0  0  0  0  0  0  0  0  0  0  0  0
    7.3928    0.6705    1.3302 H   0  0  0  0  0  0  0  0  0  0  0  0
    7.2715   -1.0810    1.0670 H   0  0  0  0  0  0  0  0  0  0  0  0
    6.8459    0.1036   -0.7592 C   0  0  0  0  0  0  0  0  0  0  0  0
    7.2714    1.0803   -1.0685 H   0  0  0  0  0  0  0  0  0  0  0  0
    7.3923   -0.6713   -1.3316 H   0  0  0  0  0  0  0  0  0  0  0  0
    5.3765    0.0778   -1.1743 C   0  0  0  0  0  0  0  0  0  0  0  0
  2 58  2  0  0  0  0
  3 28  1  0  0  0  0
  4 12  1  0  0  0  0
  5 11  1  0  0  0  0
  5 51  1  0  0  0  0
  6  7  1  0  0  0  0
  8  6  1  0  0  0  0
  9  6  1  0  0  0  0
 10 11  1  1  0  0  0
 10  3  1  0  0  0  0
 10  6  1  0  0  0  0
 12 11  2  0  0  0  0
 13 12  1  0  0  0  0
 13 14  1  0  0  0  0
 13 16  1  0  0  0  0
 15 13  1  0  0  0  0
 17 26  1  0  0  0  0
 17 28  1  0  0  0  0
 18 17  2  0  0  0  0
 19 18  1  0  0  0  0
 20 22  2  0  0  0  0
 20 18  1  0  0  0  0
 21 20  1  0  0  0  0
 22 24  1  0  0  0  0
 23 22  1  0  0  0  0
 24 25  1  0  0  0  0
 24 26  2  0  0  0  0
 26 27  1  0  0  0  0
 28 29  1  1  0  0  0
 28 30  1  0  0  0  0
 30 32  1  0  0  0  0
 30 31  1  0  0  0  0
 33 30  1  0  0  0  0
 34 43  1  0  0  0  0
 35 34  2  0  0  0  0
 35 37  1  0  0  0  0
 36 35  1  0  0  0  0
 37 39  2  0  0  0  0
 38 37  1  0  0  0  0
 39 41  1  0  0  0  0
 39 40  1  0  0  0  0
 41 42  1  0  0  0  0
 43 44  1  0  0  0  0
 43 41  2  0  0  0  0
 45 46  1  6  0  0  0
 45  4  1  0  0  0  0
 45 34  1  0  0  0  0
 47 50  1  0  0  0  0
 47 45  1  0  0  0  0
 48 47  1  0  0  0  0
 49 47  1  0  0  0  0
 51  1  2  0  0  0  0
 52 54  1  0  0  0  0
 52 51  1  0  0  0  0
 52 53  1  0  0  0  0
 55 52  1  0  0  0  0
 56 55  1  0  0  0  0
 57 55  1  0  0  0  0
 58 55  1  0  0  0  0
 58  5  1  0  0  0  0
M  END
