2,4
q = -1.0, confidence = 0.0

 25 26  0  0  1  0  0  0  0  0999 V2000
   -2.1053    1.6833    1.3391 N   0  0  0  0  0  0  0  0  0  0  0  0
   -1.4409    0.5238    1.1636 N   0  0  0  0  0  2  0  0  0  0  0  0
   -0.4321    3.2640    0.2521 N   0  0  0  0  0  0  0  0  0  0  0  0
    0.5020    2.3827   -0.1594 N   0  0  0  0  0  2  0  0  0  0  0  0
   -1.9396    2.8775    0.3428 B   0  0  0  0  0  0  0  0  0  0  0  0
   -1.8777   -0.3240    2.1176 C   0  0  2  0  0  3  0  0  0  0  0  0
   -2.8498    0.2981    2.9293 C   0  0  0  0  0  0  0  0  0  0  0  0
   -3.3853   -0.1302    3.7812 H   0  0  0  0  0  0  0  0  0  0  0  0
   -2.9565    1.5847    2.3938 C   0  0  0  0  0  0  0  0  0  0  0  0
   -3.5808    2.4366    2.6820 H   0  0  0  0  0  0  0  0  0  0  0  0
   -1.3209   -1.7063    2.2527 C   0  0  0  0  0  0  0  0  0  0  0  0
    1.6783    3.0434   -0.1721 C   0  0  1  0  0  3  0  0  0  0  0  0
    1.5040    4.3826    0.2353 C   0  0  0  0  0  0  0  0  0  0  0  0
    2.2661    5.1626    0.3175 H   0  0  0  0  0  0  0  0  0  0  0  0
    0.1360    4.4736    0.5004 C   0  0  0  0  0  0  0  0  0  0  0  0
   -0.4787    5.3133    0.8400 H   0  0  0  0  0  0  0  0  0  0  0  0
    2.9623    2.3598   -0.5198 C   0  0  0  0  0  0  0  0  0  0  0  0
   -2.0897   -2.4488    3.0836 F   0  0  0  0  0  0  0  0  0  0  0  0
   -1.2557   -2.3614    1.0616 F   0  0  0  0  0  0  0  0  0  0  0  0
   -0.0595   -1.7145    2.7619 F   0  0  0  0  0  0  0  0  0  0  0  0
    2.8429    1.5355   -1.5915 F   0  0  0  0  0  0  0  0  0  0  0  0
    3.4337    1.5922    0.5070 F   0  0  0  0  0  0  0  0  0  0  0  0
    3.9263    3.2665   -0.8015 F   0  0  0  0  0  0  0  0  0  0  0  0
   -2.3332    2.5271   -0.7699 H   0  0  0  0  0  0  0  0  0  0  0  0
   -2.5594    3.8360    0.7914 H   0  0  0  0  0  0  0  0  0  0  0  0
  1  9  1  0  0  0  0
  2  1  1  0  0  0  0
  2  6  1  0  0  0  0
  3  5  1  0  0  0  0
  3 15  1  0  0  0  0
  4  3  1  0  0  0  0
  5 25  1  0  0  0  0
  5  1  1  0  0  0  0
  6 11  1  1  0  0  0
  6  7  1  0  0  0  0
  7  8  1  0  0  0  0
  9 10  1  0  0  0  0
  9  7  2  0  0  0  0
 11 20  1  0  0  0  0
 11 18  1  0  0  0  0
 12 17  1  1  0  0  0
 12  4  1  0  0  0  0
 12 13  1  0  0  0  0
 13 14  1  0  0  0  0
 13 15  2  0  0  0  0
 15 16  1  0  0  0  0
 17 22  1  0  0  0  0
 19 11  1  0  0  0  0
 21 17  1  0  0  0  0
 23 17  1  0  0  0  0
 24  5  1  0  0  0  0
M  END
