1,8
 OpenBabel05122313053D

 27 28  0  0  0  0  0  0  0  0999 V2000
   -2.1818   -0.6522   -0.2442 N   0  0  0  0  0  2  0  0  0  0  0  0
   -1.4677   -1.7249   -0.7168 C   0  0  0  0  0  0  0  0  0  0  0  0
   -2.0886   -2.9589   -0.9821 C   0  0  0  0  0  0  0  0  0  0  0  0
   -3.4639   -3.0878   -0.7586 C   0  0  0  0  0  0  0  0  0  0  0  0
   -4.1792   -1.9786   -0.2774 C   0  0  0  0  0  0  0  0  0  0  0  0
   -3.5052   -0.7752   -0.0300 C   0  0  0  0  0  0  0  0  0  0  0  0
   -0.0574   -1.4649   -0.9083 C   0  0  0  0  0  0  0  0  0  0  0  0
    0.3840   -0.2662   -0.6151 N   0  0  0  0  0  2  0  0  0  0  0  0
    1.7624    0.0558   -0.7547 C   0  0  0  0  0  0  0  0  0  0  0  0
    2.7653   -0.5576    0.0361 C   0  0  0  0  0  0  0  0  0  0  0  0
    4.1062   -0.1768   -0.1472 C   0  0  0  0  0  0  0  0  0  0  0  0
    4.4539    0.7892   -1.0995 C   0  0  0  0  0  0  0  0  0  0  0  0
    3.4535    1.4063   -1.8649 C   0  0  0  0  0  0  0  0  0  0  0  0
    2.1116    1.0584   -1.6783 C   0  0  0  0  0  0  0  0  0  0  0  0
    2.4319   -1.5794    1.1030 C   0  0  0  0  0  0  0  0  0  0  0  0
    1.3900   -1.1968    1.8735 F   0  0  0  0  0  0  0  0  0  0  0  0
    3.4798   -1.8131    1.9196 F   0  0  0  0  0  0  0  0  0  0  0  0
    2.0907   -2.7879    0.5539 F   0  0  0  0  0  0  0  0  0  0  0  0
   -1.4850   -3.7986   -1.3552 H   0  0  0  0  0  0  0  0  0  0  0  0
   -3.9736   -4.0421   -0.9562 H   0  0  0  0  0  0  0  0  0  0  0  0
   -5.2606   -2.0359   -0.0890 H   0  0  0  0  0  0  0  0  0  0  0  0
   -3.9940    0.1390    0.3505 H   0  0  0  0  0  0  0  0  0  0  0  0
    0.6193   -2.2492   -1.2842 H   0  0  0  0  0  0  0  0  0  0  0  0
    4.8780   -0.6413    0.4812 H   0  0  0  0  0  0  0  0  0  0  0  0
    5.5084    1.0732   -1.2291 H   0  0  0  0  0  0  0  0  0  0  0  0
    3.7140    2.1824   -2.5993 H   0  0  0  0  0  0  0  0  0  0  0  0
    1.3094    1.5535   -2.2406 H   0  0  0  0  0  0  0  0  0  0  0  0
  1  6  1  0  0  0  0
  2  1  1  0  0  0  0
  3  4  2  0  0  0  0
  3  2  1  0  0  0  0
  4  5  1  0  0  0  0
  5 21  1  0  0  0  0
  5  6  2  0  0  0  0
  6 22  1  0  0  0  0
  7  2  2  0  0  0  0
  7  8  1  0  0  0  0
  9  8  1  0  0  0  0
  9 10  1  0  0  0  0
 10 15  1  0  0  0  0
 11 10  2  0  0  0  0
 11 24  1  0  0  0  0
 12 11  1  0  0  0  0
 13 14  1  0  0  0  0
 13 12  2  0  0  0  0
 14  9  2  0  0  0  0
 15 16  1  0  0  0  0
 15 17  1  0  0  0  0
 18 15  1  0  0  0  0
 19  3  1  0  0  0  0
 20  4  1  0  0  0  0
 23  7  1  0  0  0  0
 25 12  1  0  0  0  0
 26 13  1  0  0  0  0
 27 14  1  0  0  0  0
M  END
