3,4
 OpenBabel05122313053D

 46 48  0  0  1  0  0  0  0  0999 V2000
   -0.1110    2.9831    1.4095 S   0  0  0  0  0  0  0  0  0  0  0  0
    3.2656   -0.4502    1.0406 S   0  0  0  0  0  0  0  0  0  0  0  0
   -1.0375    0.8091    0.2994 N   0  0  0  0  0  2  0  0  0  0  0  0
    0.9259   -1.1903    0.1548 N   0  0  0  0  0  2  0  0  0  0  0  0
   -4.3832    2.6477    0.1350 C   0  0  0  0  0  0  0  0  0  0  0  0
   -4.8636    3.2281   -0.6770 H   0  0  0  0  0  0  0  0  0  0  0  0
   -4.4076    3.2799    1.0480 H   0  0  0  0  0  0  0  0  0  0  0  0
   -5.0095    1.7513    0.3210 H   0  0  0  0  0  0  0  0  0  0  0  0
   -2.9687    2.2301   -0.2597 C   0  0  0  0  0  0  0  0  0  0  0  0
   -2.3498    3.1097   -0.5428 H   0  0  0  0  0  0  0  0  0  0  0  0
   -3.0171    1.5489   -1.1313 H   0  0  0  0  0  0  0  0  0  0  0  0
   -2.2455    1.4580    0.8600 C   0  0  2  0  0  0  0  0  0  0  0  0
   -2.9171    0.6629    1.2389 H   0  0  0  0  0  0  0  0  0  0  0  0
   -1.7448    2.3603    1.9966 C   0  0  0  0  0  0  0  0  0  0  0  0
   -1.5765    1.8087    2.9437 H   0  0  0  0  0  0  0  0  0  0  0  0
   -2.4156    3.2190    2.1868 H   0  0  0  0  0  0  0  0  0  0  0  0
    0.0316    1.5428    0.3956 C   0  0  1  0  0  3  0  0  0  0  0  0
    1.3356    1.2019   -0.3222 C   0  0  0  0  0  0  0  0  0  0  0  0
    2.4130    2.2884   -0.0734 C   0  0  0  0  0  0  0  0  0  0  0  0
    1.9248    3.2682   -0.2673 H   0  0  0  0  0  0  0  0  0  0  0  0
    2.7027    2.2908    0.9986 H   0  0  0  0  0  0  0  0  0  0  0  0
    3.6534    2.1811   -0.9749 C   0  0  0  0  0  0  0  0  0  0  0  0
    4.3054    3.0580   -0.7821 H   0  0  0  0  0  0  0  0  0  0  0  0
    4.2469    1.2870   -0.6910 H   0  0  0  0  0  0  0  0  0  0  0  0
    3.2866    2.0881   -2.4584 C   0  0  0  0  0  0  0  0  0  0  0  0
    4.2017    1.9507   -3.0705 H   0  0  0  0  0  0  0  0  0  0  0  0
    2.8253    3.0450   -2.7916 H   0  0  0  0  0  0  0  0  0  0  0  0
    2.2949    0.9453   -2.6965 C   0  0  0  0  0  0  0  0  0  0  0  0
    2.0077    0.8861   -3.7662 H   0  0  0  0  0  0  0  0  0  0  0  0
    2.7720   -0.0292   -2.4502 H   0  0  0  0  0  0  0  0  0  0  0  0
    1.0321    1.1229   -1.8553 C   0  0  0  0  0  0  0  0  0  0  0  0
    0.3027    0.3048   -2.0365 H   0  0  0  0  0  0  0  0  0  0  0  0
    0.5210    2.0708   -2.1301 H   0  0  0  0  0  0  0  0  0  0  0  0
    1.7305   -0.1742    0.2132 C   0  0  1  0  0  3  0  0  0  0  0  0
    2.8962   -2.2499    1.1241 C   0  0  0  0  0  0  0  0  0  0  0  0
    3.5110   -2.7553    0.3542 H   0  0  0  0  0  0  0  0  0  0  0  0
    3.1905   -2.6297    2.1214 H   0  0  0  0  0  0  0  0  0  0  0  0
    1.3813   -2.4056    0.8562 C   0  0  1  0  0  0  0  0  0  0  0  0
    1.1908   -3.2496    0.1605 H   0  0  0  0  0  0  0  0  0  0  0  0
    0.5227   -2.6439    2.1123 C   0  0  0  0  0  0  0  0  0  0  0  0
   -0.5029   -2.8810    1.7594 H   0  0  0  0  0  0  0  0  0  0  0  0
    0.9064   -3.5697    2.5929 H   0  0  0  0  0  0  0  0  0  0  0  0
    0.4859   -1.4898    3.1134 C   0  0  0  0  0  0  0  0  0  0  0  0
   -0.1372   -1.7543    3.9905 H   0  0  0  0  0  0  0  0  0  0  0  0
    0.0422   -0.5826    2.6543 H   0  0  0  0  0  0  0  0  0  0  0  0
    1.4942   -1.2173    3.4873 H   0  0  0  0  0  0  0  0  0  0  0  0
  1 14  1  0  0  0  0
  2 35  1  0  0  0  0
  3 17  1  0  0  0  0
  3 12  1  0  0  0  0
  4 34  1  0  0  0  0
  4 38  1  0  0  0  0
  5  8  1  0  0  0  0
  5  7  1  0  0  0  0
  6  5  1  0  0  0  0
  9  5  1  0  0  0  0
  9 12  1  0  0  0  0
 10  9  1  0  0  0  0
 11  9  1  0  0  0  0
 12 13  1  1  0  0  0
 12 14  1  0  0  0  0
 14 16  1  0  0  0  0
 14 15  1  0  0  0  0
 17 18  1  6  0  0  0
 17  1  1  0  0  0  0
 18 19  1  0  0  0  0
 19 21  1  0  0  0  0
 20 19  1  0  0  0  0
 22 23  1  0  0  0  0
 22 24  1  0  0  0  0
 22 19  1  0  0  0  0
 25 22  1  0  0  0  0
 26 25  1  0  0  0  0
 27 25  1  0  0  0  0
 28 25  1  0  0  0  0
 28 30  1  0  0  0  0
 28 31  1  0  0  0  0
 29 28  1  0  0  0  0
 31 18  1  0  0  0  0
 32 31  1  0  0  0  0
 33 31  1  0  0  0  0
 34 18  1  1  0  0  0
 34  2  1  0  0  0  0
 35 37  1  0  0  0  0
 36 35  1  0  0  0  0
 38 39  1  6  0  0  0
 38 35  1  0  0  0  0
 38 40  1  0  0  0  0
 40 42  1  0  0  0  0
 40 43  1  0  0  0  0
 41 40  1  0  0  0  0
 43 46  1  0  0  0  0
 43 44  1  0  0  0  0
 45 43  1  0  0  0  0
M  END
