1,11
 OpenBabel05122313053D

 20 21  0  0  0  0  0  0  0  0999 V2000
   -0.1823   -1.0323    1.2891 N   0  0  0  0  0  2  0  0  0  0  0  0
   -0.3737   -0.9084    2.6181 C   0  0  0  0  0  3  0  0  0  0  0  0
   -0.5346   -2.0212    3.4520 C   0  0  0  0  0  0  0  0  0  0  0  0
   -0.4902   -3.3042    2.8873 C   0  0  0  0  0  0  0  0  0  0  0  0
   -0.2758   -3.4314    1.5097 C   0  0  0  0  0  0  0  0  0  0  0  0
   -0.1220   -2.2738    0.7273 C   0  0  0  0  0  0  0  0  0  0  0  0
   -0.3708    0.1145    3.0209 H   0  0  0  0  0  0  0  0  0  0  0  0
   -0.6885   -1.8734    4.5301 H   0  0  0  0  0  0  0  0  0  0  0  0
   -0.6159   -4.1992    3.5138 H   0  0  0  0  0  0  0  0  0  0  0  0
   -0.2295   -4.4253    1.0451 H   0  0  0  0  0  0  0  0  0  0  0  0
    0.1824   -1.0323   -1.2892 N   0  0  0  0  0  2  0  0  0  0  0  0
    0.3737   -0.9084   -2.6181 C   0  0  0  0  0  3  0  0  0  0  0  0
    0.5347   -2.0212   -3.4520 C   0  0  0  0  0  0  0  0  0  0  0  0
    0.4903   -3.3042   -2.8873 C   0  0  0  0  0  0  0  0  0  0  0  0
    0.2759   -3.4314   -1.5098 C   0  0  0  0  0  0  0  0  0  0  0  0
    0.1220   -2.2738   -0.7274 C   0  0  0  0  0  0  0  0  0  0  0  0
    0.3708    0.1146   -3.0208 H   0  0  0  0  0  0  0  0  0  0  0  0
    0.6885   -1.8733   -4.5301 H   0  0  0  0  0  0  0  0  0  0  0  0
    0.6161   -4.1991   -3.5139 H   0  0  0  0  0  0  0  0  0  0  0  0
    0.2296   -4.4253   -1.0452 H   0  0  0  0  0  0  0  0  0  0  0  0
  1  2  1  0  0  0  0
  2  7  1  0  0  0  0
  2  3  1  0  0  0  0
  3  8  1  0  0  0  0
  4  3  2  0  0  0  0
  4  9  1  0  0  0  0
  5  4  1  0  0  0  0
  6  1  1  0  0  0  0
  6  5  2  0  0  0  0
 10  5  1  0  0  0  0
 11 16  1  0  0  0  0
 12 11  1  0  0  0  0
 13 14  2  0  0  0  0
 13 12  1  0  0  0  0
 14 15  1  0  0  0  0
 15 20  1  0  0  0  0
 15 16  2  0  0  0  0
 16  6  1  0  0  0  0
 17 12  1  0  0  0  0
 18 13  1  0  0  0  0
 19 14  1  0  0  0  0
M  END
