1,2
 OpenBabel05122313053D

 22 24  0  0  0  0  0  0  0  0999 V2000
    2.4064    1.3494   -1.2197 N   0  0  0  0  0  2  0  0  0  0  0  0
    2.4090   -1.3448   -1.2195 N   0  0  0  0  0  2  0  0  0  0  0  0
    2.3776    2.6926   -1.2245 C   0  0  0  0  0  0  0  0  0  0  0  0
    1.3829    3.1565   -1.1557 H   0  0  0  0  0  0  0  0  0  0  0  0
    3.5462    3.4754   -1.3138 C   0  0  0  0  0  0  0  0  0  0  0  0
    3.4572    4.5708   -1.3151 H   0  0  0  0  0  0  0  0  0  0  0  0
    4.7880    2.8527   -1.4002 C   0  0  0  0  0  0  0  0  0  0  0  0
    5.7143    3.4421   -1.4722 H   0  0  0  0  0  0  0  0  0  0  0  0
    4.8531    1.4359   -1.3978 C   0  0  0  0  0  0  0  0  0  0  0  0
    3.6222    0.7214   -1.3049 C   0  0  0  0  0  0  0  0  0  0  0  0
    3.6236   -0.7145   -1.3048 C   0  0  0  0  0  0  0  0  0  0  0  0
    4.8558   -1.4266   -1.3975 C   0  0  0  0  0  0  0  0  0  0  0  0
    6.0835   -0.6817   -1.4867 C   0  0  0  0  0  0  0  0  0  0  0  0
    7.0296   -1.2384   -1.5584 H   0  0  0  0  0  0  0  0  0  0  0  0
    6.0822    0.6933   -1.4868 C   0  0  0  0  0  0  0  0  0  0  0  0
    7.0272    1.2518   -1.5587 H   0  0  0  0  0  0  0  0  0  0  0  0
    4.7935   -2.8435   -1.3997 C   0  0  0  0  0  0  0  0  0  0  0  0
    5.7209   -3.4312   -1.4715 H   0  0  0  0  0  0  0  0  0  0  0  0
    3.5529   -3.4686   -1.3132 C   0  0  0  0  0  0  0  0  0  0  0  0
    3.4660   -4.5641   -1.3143 H   0  0  0  0  0  0  0  0  0  0  0  0
    2.3828   -2.6881   -1.2241 C   0  0  0  0  0  0  0  0  0  0  0  0
    1.3890   -3.1539   -1.1552 H   0  0  0  0  0  0  0  0  0  0  0  0
  3  1  1  0  0  0  0
  3  4  1  0  0  0  0
  5  3  2  0  0  0  0
  6  5  1  0  0  0  0
  7  9  2  0  0  0  0
  7  5  1  0  0  0  0
  8  7  1  0  0  0  0
  9 10  1  0  0  0  0
 10 11  2  0  0  0  0
 10  1  1  0  0  0  0
 11  2  1  0  0  0  0
 12 11  1  0  0  0  0
 13 12  1  0  0  0  0
 14 13  1  0  0  0  0
 15 13  2  0  0  0  0
 15  9  1  0  0  0  0
 16 15  1  0  0  0  0
 17 12  2  0  0  0  0
 17 19  1  0  0  0  0
 18 17  1  0  0  0  0
 19 21  2  0  0  0  0
 20 19  1  0  0  0  0
 21  2  1  0  0  0  0
 21 22  1  0  0  0  0
M  END
