43,44
 OpenBabel05122313053D

 51 53  0  0  0  0  0  0  0  0999 V2000
    1.3408    3.2485   -0.2898 C   0  0  0  0  0  0  0  0  0  0  0  0
    1.3651    4.6563   -0.2679 C   0  0  0  0  0  0  0  0  0  0  0  0
    2.3105    5.2054   -0.3623 H   0  0  0  0  0  0  0  0  0  0  0  0
    0.1579    5.3492   -0.1073 C   0  0  0  0  0  0  0  0  0  0  0  0
    0.1488    6.4488   -0.0943 H   0  0  0  0  0  0  0  0  0  0  0  0
   -1.0327    4.6330    0.0410 C   0  0  0  0  0  0  0  0  0  0  0  0
   -1.9877    5.1609    0.1619 H   0  0  0  0  0  0  0  0  0  0  0  0
   -0.9926    3.2210    0.0059 C   0  0  0  0  0  0  0  0  0  0  0  0
    2.5817    2.4364   -0.3850 C   0  0  0  0  0  0  0  0  0  0  0  0
    3.9317    3.0888   -0.4005 C   0  0  0  0  0  0  0  0  0  0  0  0
    4.2173    3.4458    0.6120 H   0  0  0  0  0  0  0  0  0  0  0  0
    3.9430    3.9663   -1.0748 H   0  0  0  0  0  0  0  0  0  0  0  0
    4.7240    2.4047   -0.7601 H   0  0  0  0  0  0  0  0  0  0  0  0
    2.9999   -1.1052   -0.2765 C   0  0  0  0  0  0  0  0  0  0  0  0
    4.1128   -2.0711   -0.1485 C   0  0  0  0  0  0  0  0  0  0  0  0
    3.8002   -3.3538    0.3541 C   0  0  0  0  0  0  0  0  0  0  0  0
    2.7582   -3.5728    0.6279 H   0  0  0  0  0  0  0  0  0  0  0  0
    4.8094   -4.3095    0.5086 C   0  0  0  0  0  0  0  0  0  0  0  0
    4.5652   -5.3033    0.9116 H   0  0  0  0  0  0  0  0  0  0  0  0
    6.1328   -4.0003    0.1504 C   0  0  0  0  0  0  0  0  0  0  0  0
    6.9250   -4.7544    0.2701 H   0  0  0  0  0  0  0  0  0  0  0  0
    6.4480   -2.7331   -0.3687 C   0  0  0  0  0  0  0  0  0  0  0  0
    7.4801   -2.5000   -0.6683 H   0  0  0  0  0  0  0  0  0  0  0  0
    5.4439   -1.7694   -0.5183 C   0  0  0  0  0  0  0  0  0  0  0  0
    5.7038   -0.7979   -0.9680 H   0  0  0  0  0  0  0  0  0  0  0  0
   -2.2142    2.3947    0.1565 C   0  0  0  0  0  0  0  0  0  0  0  0
   -3.4104    2.8983    0.9158 C   0  0  0  0  0  0  0  0  0  0  0  0
   -3.6078    2.2486    1.7975 H   0  0  0  0  0  0  0  0  0  0  0  0
   -4.3234    2.8940    0.2824 H   0  0  0  0  0  0  0  0  0  0  0  0
   -3.2685    3.9190    1.3087 H   0  0  0  0  0  0  0  0  0  0  0  0
   -3.2696   -0.8445   -0.8786 C   0  0  0  0  0  0  0  0  0  0  0  0
   -4.4529   -1.6770   -0.5377 C   0  0  0  0  0  0  0  0  0  0  0  0
   -5.6448   -1.1522    0.0118 C   0  0  0  0  0  0  0  0  0  0  0  0
   -5.7706   -0.0703    0.1780 H   0  0  0  0  0  0  0  0  0  0  0  0
   -6.7181   -2.0018    0.3063 C   0  0  0  0  0  0  0  0  0  0  0  0
   -7.6466   -1.5859    0.7239 H   0  0  0  0  0  0  0  0  0  0  0  0
   -6.6121   -3.3798    0.0556 C   0  0  0  0  0  0  0  0  0  0  0  0
   -7.4557   -4.0457    0.2910 H   0  0  0  0  0  0  0  0  0  0  0  0
   -5.4353   -3.9063   -0.5032 C   0  0  0  0  0  0  0  0  0  0  0  0
   -5.3551   -4.9847   -0.7042 H   0  0  0  0  0  0  0  0  0  0  0  0
   -4.3636   -3.0601   -0.8060 C   0  0  0  0  0  0  0  0  0  0  0  0
   -3.4350   -3.4494   -1.2467 H   0  0  0  0  0  0  0  0  0  0  0  0
    0.1773    2.5682   -0.1596 N   0  0  0  0  0  2  0  0  0  0  0  0
    2.3784    1.1505   -0.3887 N   0  0  0  0  0  2  0  0  0  0  0  0
    3.3584    0.2470   -0.3460 N   0  0  0  0  0  0  0  0  0  0  0  0
    4.3291    0.5295   -0.1665 H   0  0  0  0  0  0  0  0  0  0  0  0
   -2.1634    1.2136   -0.3983 N   0  0  0  0  0  0  0  0  0  0  0  0
   -3.2141    0.3978   -0.2509 N   0  0  0  0  0  0  0  0  0  0  0  0
   -3.9302    0.6052    0.4565 H   0  0  0  0  0  0  0  0  0  0  0  0
    1.8066   -1.4272   -0.3090 O   0  0  0  0  0  0  0  0  0  0  0  0
   -2.3980   -1.2228   -1.6676 O   0  0  0  0  0  0  0  0  0  0  0  0
  1  2  1  0  0  0  0
  1 43  1  0  0  0  0
  2  4  2  0  0  0  0
  3  2  1  0  0  0  0
  4  5  1  0  0  0  0
  4  6  1  0  0  0  0
  6  7  1  0  0  0  0
  8  6  2  0  0  0  0
  8 26  1  0  0  0  0
  9  1  2  0  0  0  0
 10  9  1  0  0  0  0
 10 11  1  0  0  0  0
 12 10  1  0  0  0  0
 13 10  1  0  0  0  0
 14 15  1  0  0  0  0
 15 16  1  0  0  0  0
 16 18  2  0  0  0  0
 16 17  1  0  0  0  0
 18 19  1  0  0  0  0
 20 21  1  0  0  0  0
 20 18  1  0  0  0  0
 22 20  2  0  0  0  0
 23 22  1  0  0  0  0
 24 22  1  0  0  0  0
 24 15  2  0  0  0  0
 25 24  1  0  0  0  0
 26 27  1  0  0  0  0
 27 30  1  0  0  0  0
 27 28  1  0  0  0  0
 29 27  1  0  0  0  0
 31 32  1  0  0  0  0
 31 48  1  0  0  0  0
 32 33  1  0  0  0  0
 33 34  1  0  0  0  0
 33 35  2  0  0  0  0
 35 36  1  0  0  0  0
 37 38  1  0  0  0  0
 37 35  1  0  0  0  0
 39 37  2  0  0  0  0
 40 39  1  0  0  0  0
 41 32  2  0  0  0  0
 41 39  1  0  0  0  0
 42 41  1  0  0  0  0
 43  8  1  0  0  0  0
 44  9  1  0  0  0  0
 44 45  1  0  0  0  0
 45 14  1  0  0  0  0
 45 46  1  0  0  0  0
 47 48  1  0  0  0  0
 47 26  2  0  0  0  0
 48 49  1  0  0  0  0
 50 14  2  0  0  0  0
 51 31  2  0  0  0  0
M  END
