1,6
 OpenBabel05122313053D

 16 17  0  0  0  0  0  0  0  0999 V2000
    0.9687   -0.0018    1.5529 N   0  0  0  0  0  2  0  0  0  0  0  0
    2.7356   -0.0046    2.9029 N   0  0  0  0  0  0  0  0  0  0  0  0
    3.6984   -0.0057    3.2388 H   0  0  0  0  0  0  0  0  0  0  0  0
    4.2921   -0.0014   -0.0913 N   0  0  0  0  0  0  0  0  0  0  0  0
    5.1256   -0.0019    0.4963 H   0  0  0  0  0  0  0  0  0  0  0  0
    2.1669   -0.0005   -0.7490 N   0  0  0  0  0  2  0  0  0  0  0  0
    2.3248   -0.0026    1.5981 C   0  0  0  0  0  0  0  0  0  0  0  0
    1.6106   -0.0052    3.7077 C   0  0  0  0  0  0  0  0  0  0  0  0
    1.6777   -0.0067    4.7995 H   0  0  0  0  0  0  0  0  0  0  0  0
    0.5200   -0.0033    2.8550 C   0  0  0  0  0  0  0  0  0  0  0  0
   -0.5471   -0.0029    3.0981 H   0  0  0  0  0  0  0  0  0  0  0  0
    2.9886   -0.0017    0.3277 C   0  0  0  0  0  0  0  0  0  0  0  0
    4.2913   -0.0000   -1.4760 C   0  0  0  0  0  0  0  0  0  0  0  0
    5.2201    0.0004   -2.0544 H   0  0  0  0  0  0  0  0  0  0  0  0
    2.9631    0.0006   -1.8719 C   0  0  0  0  0  0  0  0  0  0  0  0
    2.5124    0.0016   -2.8707 H   0  0  0  0  0  0  0  0  0  0  0  0
  1  7  1  0  0  0  0
  1 10  1  0  0  0  0
  2  3  1  0  0  0  0
  2  8  1  0  0  0  0
  4 12  1  0  0  0  0
  4  5  1  0  0  0  0
  6 12  1  0  0  0  0
  7  2  1  0  0  0  0
  8  9  1  0  0  0  0
 10 11  1  0  0  0  0
 10  8  2  0  0  0  0
 12  7  2  0  0  0  0
 13  4  1  0  0  0  0
 14 13  1  0  0  0  0
 15 13  2  0  0  0  0
 15  6  1  0  0  0  0
 16 15  1  0  0  0  0
M  END
