1,3
 OpenBabel05122313053D

 22 23  0  0  1  0  0  0  0  0999 V2000
    1.5333    0.8286   -1.0333 N   0  0  0  0  0  2  0  0  0  0  0  0
    2.7447    0.5104   -0.5190 C   0  0  2  0  0  3  0  0  0  0  0  0
    1.5339   -0.8272    1.0336 N   0  0  0  0  0  2  0  0  0  0  0  0
    2.7451   -0.5080    0.5193 C   0  0  1  0  0  3  0  0  0  0  0  0
    3.0583    2.1735   -1.9604 C   0  0  0  0  0  0  0  0  0  0  0  0
    3.6108    2.9259   -2.5319 H   0  0  0  0  0  0  0  0  0  0  0  0
    3.7023   -1.3347    1.0619 N   0  0  0  0  0  0  0  0  0  0  0  0
    3.7013    1.3378   -1.0617 N   0  0  0  0  0  0  0  0  0  0  0  0
    1.7136    1.8502   -1.9270 C   0  0  0  0  0  0  0  0  0  0  0  0
    0.8704    2.2915   -2.4694 H   0  0  0  0  0  0  0  0  0  0  0  0
    1.7150   -1.8486    1.9272 C   0  0  0  0  0  0  0  0  0  0  0  0
    0.8721   -2.2906    2.4695 H   0  0  0  0  0  0  0  0  0  0  0  0
    3.0599   -2.1709    1.9606 C   0  0  0  0  0  0  0  0  0  0  0  0
    3.6130   -2.9230    2.5321 H   0  0  0  0  0  0  0  0  0  0  0  0
    5.1131    1.4524   -0.7220 C   0  0  0  0  0  0  0  0  0  0  0  0
    5.2500    1.3677    0.3714 H   0  0  0  0  0  0  0  0  0  0  0  0
    5.4691    2.4504   -1.0336 H   0  0  0  0  0  0  0  0  0  0  0  0
    5.7255    0.6865   -1.2362 H   0  0  0  0  0  0  0  0  0  0  0  0
    5.1142   -1.4483    0.7222 C   0  0  0  0  0  0  0  0  0  0  0  0
    5.2510   -1.3635   -0.3711 H   0  0  0  0  0  0  0  0  0  0  0  0
    5.4709   -2.4461    1.0338 H   0  0  0  0  0  0  0  0  0  0  0  0
    5.7260   -0.6819    1.2364 H   0  0  0  0  0  0  0  0  0  0  0  0
  2  1  1  1  0  0  0
  2  4  1  0  0  0  0
  3 11  1  0  0  0  0
  4  3  1  6  0  0  0
  4  7  1  0  0  0  0
  5  9  2  0  0  0  0
  5  8  1  0  0  0  0
  6  5  1  0  0  0  0
  7 13  1  0  0  0  0
  8 15  1  0  0  0  0
  8  2  1  0  0  0  0
  9  1  1  0  0  0  0
 10  9  1  0  0  0  0
 11 13  2  0  0  0  0
 11 12  1  0  0  0  0
 13 14  1  0  0  0  0
 15 16  1  0  0  0  0
 17 15  1  0  0  0  0
 18 15  1  0  0  0  0
 19 21  1  0  0  0  0
 19  7  1  0  0  0  0
 19 22  1  0  0  0  0
 20 19  1  0  0  0  0
M  END
