1,13
 OpenBabel05122313053D

 15 14  0  0  0  0  0  0  0  0999 V2000
    1.3410    0.3655    1.4192 N   0  0  0  0  0  0  0  0  0  0  0  0
    0.9929   -0.0053    2.3159 H   0  0  0  0  0  0  0  0  0  0  0  0
    1.2985    1.3993    1.4985 H   0  0  0  0  0  0  0  0  0  0  0  0
    2.7435   -0.0972    1.2710 C   0  0  0  0  0  0  0  0  0  0  0  0
    3.3262    0.2270    2.1591 H   0  0  0  0  0  0  0  0  0  0  0  0
    2.7183   -1.2049    1.2586 H   0  0  0  0  0  0  0  0  0  0  0  0
    3.3887    0.4355    0.0000 C   0  0  0  0  0  0  0  0  0  0  0  0
    3.3869    1.5489   -0.0000 H   0  0  0  0  0  0  0  0  0  0  0  0
    4.4557    0.1354    0.0000 H   0  0  0  0  0  0  0  0  0  0  0  0
    2.7435   -0.0972   -1.2709 C   0  0  0  0  0  0  0  0  0  0  0  0
    2.7183   -1.2050   -1.2586 H   0  0  0  0  0  0  0  0  0  0  0  0
    3.3262    0.2269   -2.1591 H   0  0  0  0  0  0  0  0  0  0  0  0
    1.3410    0.3654   -1.4192 N   0  0  0  0  0  0  0  0  0  0  0  0
    1.2984    1.3992   -1.4987 H   0  0  0  0  0  0  0  0  0  0  0  0
    0.9930   -0.0056   -2.3159 H   0  0  0  0  0  0  0  0  0  0  0  0
  1  3  1  0  0  0  0
  1  2  1  0  0  0  0
  4  1  1  0  0  0  0
  4  5  1  0  0  0  0
  6  4  1  0  0  0  0
  7  9  1  0  0  0  0
  7  4  1  0  0  0  0
  8  7  1  0  0  0  0
 10 11  1  0  0  0  0
 10  7  1  0  0  0  0
 12 10  1  0  0  0  0
 13 10  1  0  0  0  0
 14 13  1  0  0  0  0
 15 13  1  0  0  0  0
M  END
