1,2
 OpenBabel05122313053D

 26 27  0  0  1  0  0  0  0  0999 V2000
    0.3710   -0.3908    1.1358 N   0  0  0  0  0  2  0  0  0  0  0  0
   -1.1346    1.5223    0.0809 N   0  0  0  0  0  2  0  0  0  0  0  0
    1.0662   -1.4064    1.6918 C   0  0  0  0  0  3  0  0  0  0  0  0
    0.5434   -2.3704    1.7557 H   0  0  0  0  0  0  0  0  0  0  0  0
    2.3847   -1.2678    2.1197 C   0  0  0  0  0  0  0  0  0  0  0  0
    2.9098   -2.1391    2.5350 H   0  0  0  0  0  0  0  0  0  0  0  0
    3.0551   -0.0383    1.9561 C   0  0  0  0  0  0  0  0  0  0  0  0
    2.3028    1.0229    1.4205 C   0  0  0  0  0  0  0  0  0  0  0  0
    2.7811    2.0018    1.2812 H   0  0  0  0  0  0  0  0  0  0  0  0
    0.9680    0.8313    1.0284 C   0  0  0  0  0  0  0  0  0  0  0  0
    0.1118    1.9049    0.4821 C   0  0  2  0  0  3  0  0  0  0  0  0
    0.5156    3.2492    0.3985 C   0  0  0  0  0  0  0  0  0  0  0  0
    1.5229    3.5356    0.7296 H   0  0  0  0  0  0  0  0  0  0  0  0
   -0.3542    4.2327   -0.0967 C   0  0  0  0  0  0  0  0  0  0  0  0
   -1.6402    3.8062   -0.4928 C   0  0  0  0  0  0  0  0  0  0  0  0
   -2.3761    4.5221   -0.8871 H   0  0  0  0  0  0  0  0  0  0  0  0
   -1.9851    2.4599   -0.3916 C   0  0  0  0  0  0  0  0  0  0  0  0
   -2.9747    2.0979   -0.7053 H   0  0  0  0  0  0  0  0  0  0  0  0
    4.5153    0.1080    2.2483 C   0  0  0  0  0  0  0  0  0  0  0  0
    4.8568   -0.6132    3.0147 H   0  0  0  0  0  0  0  0  0  0  0  0
    4.7717    1.1353    2.5722 H   0  0  0  0  0  0  0  0  0  0  0  0
    5.0744   -0.0959    1.3041 H   0  0  0  0  0  0  0  0  0  0  0  0
    0.0552    5.6748   -0.2012 C   0  0  0  0  0  0  0  0  0  0  0  0
   -0.0068    6.0255   -1.2521 H   0  0  0  0  0  0  0  0  0  0  0  0
    1.0891    5.8379    0.1564 H   0  0  0  0  0  0  0  0  0  0  0  0
   -0.6235    6.3220    0.3916 H   0  0  0  0  0  0  0  0  0  0  0  0
  1  3  1  0  0  0  0
  2 11  1  0  0  0  0
  3  4  1  0  0  0  0
  3  5  1  0  0  0  0
  5  6  1  0  0  0  0
  7  5  2  0  0  0  0
  7 19  1  0  0  0  0
  8  7  1  0  0  0  0
  9  8  1  0  0  0  0
 10  1  1  0  0  0  0
 10  8  2  0  0  0  0
 11 10  1  1  0  0  0
 12 11  1  0  0  0  0
 12 13  1  0  0  0  0
 14 12  2  0  0  0  0
 15 17  2  0  0  0  0
 15 14  1  0  0  0  0
 16 15  1  0  0  0  0
 17  2  1  0  0  0  0
 18 17  1  0  0  0  0
 19 21  1  0  0  0  0
 19 20  1  0  0  0  0
 22 19  1  0  0  0  0
 23 14  1  0  0  0  0
 23 25  1  0  0  0  0
 23 26  1  0  0  0  0
 24 23  1  0  0  0  0
M  END
