15,16
 OpenBabel05122313053D

 22 22  0  0  1  0  0  0  0  0999 V2000
    2.3433   -1.2736   -0.5197 C   0  0  1  0  0  0  0  0  0  0  0  0
    2.2776   -1.7923    0.4612 H   0  0  0  0  0  0  0  0  0  0  0  0
    2.6827    0.7597    0.8200 C   0  0  0  0  0  0  0  0  0  0  0  0
    2.5160    0.1685    1.7420 H   0  0  0  0  0  0  0  0  0  0  0  0
    2.2786    1.7719    1.0023 H   0  0  0  0  0  0  0  0  0  0  0  0
    3.7974   -1.2655   -0.9934 C   0  0  0  0  0  0  0  0  0  0  0  0
    4.1299   -2.3072   -1.1789 H   0  0  0  0  0  0  0  0  0  0  0  0
    3.8648   -0.7341   -1.9706 H   0  0  0  0  0  0  0  0  0  0  0  0
    4.6926   -0.5846    0.0511 C   0  0  0  0  0  0  0  0  0  0  0  0
    5.7339   -0.5152   -0.3211 H   0  0  0  0  0  0  0  0  0  0  0  0
    4.7263   -1.2167    0.9646 H   0  0  0  0  0  0  0  0  0  0  0  0
    4.1579    0.8059    0.4150 C   0  0  0  0  0  0  0  0  0  0  0  0
    4.7434    1.2494    1.2457 H   0  0  0  0  0  0  0  0  0  0  0  0
    4.2795    1.4959   -0.4510 H   0  0  0  0  0  0  0  0  0  0  0  0
    1.8542    0.1179   -0.2446 N   0  0  0  0  0  0  0  0  0  0  0  0
    0.0088   -1.8216   -0.8358 N   0  0  0  0  0  0  0  0  0  0  0  0
   -0.0377   -2.4173    0.0134 H   0  0  0  0  0  0  0  0  0  0  0  0
   -0.7372   -2.1256   -1.4761 H   0  0  0  0  0  0  0  0  0  0  0  0
    1.3475   -1.9293   -1.4630 C   0  0  0  0  0  0  0  0  0  0  0  0
    1.3238   -1.4063   -2.4426 H   0  0  0  0  0  0  0  0  0  0  0  0
    1.6258   -2.9872   -1.6519 H   0  0  0  0  0  0  0  0  0  0  0  0
    2.0017    0.6612   -1.1113 H   0  0  0  0  0  0  0  0  0  0  0  0
  1 15  1  0  0  0  0
  1  2  1  1  0  0  0
  3  5  1  0  0  0  0
  3  4  1  0  0  0  0
  6  1  1  0  0  0  0
  6  9  1  0  0  0  0
  7  6  1  0  0  0  0
  8  6  1  0  0  0  0
  9 12  1  0  0  0  0
  9 11  1  0  0  0  0
 10  9  1  0  0  0  0
 12  3  1  0  0  0  0
 12 13  1  0  0  0  0
 14 12  1  0  0  0  0
 15  3  1  0  0  0  0
 16 17  1  0  0  0  0
 18 16  1  0  0  0  0
 19 16  1  0  0  0  0
 19  1  1  0  0  0  0
 20 19  1  0  0  0  0
 21 19  1  0  0  0  0
 22 15  1  0  0  0  0
M  END
