1,12
 OpenBabel05122313053D

 27 28  0  0  0  0  0  0  0  0999 V2000
   -2.3322   -1.6192   -0.0212 N   0  0  0  0  0  2  0  0  0  0  0  0
   -3.6601   -1.6712   -0.2754 C   0  0  0  0  0  3  0  0  0  0  0  0
   -4.1235   -0.7515   -0.6569 H   0  0  0  0  0  0  0  0  0  0  0  0
   -4.4089   -2.8370   -0.0856 C   0  0  0  0  0  0  0  0  0  0  0  0
   -5.4850   -2.8265   -0.3089 H   0  0  0  0  0  0  0  0  0  0  0  0
   -3.7669   -3.9969    0.3797 C   0  0  0  0  0  0  0  0  0  0  0  0
   -4.3370   -4.9213    0.5546 H   0  0  0  0  0  0  0  0  0  0  0  0
   -2.3826   -3.9581    0.5821 C   0  0  0  0  0  0  0  0  0  0  0  0
   -1.7839   -4.8285    0.8878 H   0  0  0  0  0  0  0  0  0  0  0  0
   -1.6889   -2.7652    0.3511 C   0  0  0  0  0  0  0  0  0  0  0  0
   -0.1827   -2.7386    0.3240 C   0  0  0  0  0  0  0  0  0  0  0  0
    0.2666   -1.5238   -0.1323 N   0  0  0  0  0  2  0  0  0  0  0  0
    1.5629   -1.3801   -0.6813 C   0  0  0  0  0  0  0  0  0  0  0  0
    1.7188   -0.6173   -1.8590 C   0  0  0  0  0  0  0  0  0  0  0  0
    0.8262   -0.1689   -2.3204 H   0  0  0  0  0  0  0  0  0  0  0  0
    2.9841   -0.4216   -2.4196 C   0  0  0  0  0  0  0  0  0  0  0  0
    3.0808    0.1872   -3.3327 H   0  0  0  0  0  0  0  0  0  0  0  0
    4.1376   -0.9773   -1.8309 C   0  0  0  0  0  0  0  0  0  0  0  0
    3.9662   -1.7633   -0.6736 C   0  0  0  0  0  0  0  0  0  0  0  0
    4.8493   -2.2180   -0.1958 H   0  0  0  0  0  0  0  0  0  0  0  0
    2.7063   -1.9695   -0.1007 C   0  0  0  0  0  0  0  0  0  0  0  0
    2.5948   -2.5808    0.8021 H   0  0  0  0  0  0  0  0  0  0  0  0
    5.5105   -0.6968   -2.3853 C   0  0  0  0  0  0  0  0  0  0  0  0
    5.9632    0.1876   -1.8846 H   0  0  0  0  0  0  0  0  0  0  0  0
    5.4791   -0.4757   -3.4707 H   0  0  0  0  0  0  0  0  0  0  0  0
    6.2016   -1.5485   -2.2253 H   0  0  0  0  0  0  0  0  0  0  0  0
    0.4707   -3.7612    0.5544 O   0  0  0  0  0  0  0  0  0  0  0  0
  1 10  1  0  0  0  0
  2  4  1  0  0  0  0
  2  1  1  0  0  0  0
  3  2  1  0  0  0  0
  4  6  2  0  0  0  0
  5  4  1  0  0  0  0
  6  7  1  0  0  0  0
  6  8  1  0  0  0  0
  8  9  1  0  0  0  0
 10  8  2  0  0  0  0
 11 10  1  0  0  0  0
 11 27  2  0  0  0  0
 12 11  1  0  0  0  0
 13 12  1  0  0  0  0
 13 21  1  0  0  0  0
 14 13  2  0  0  0  0
 15 14  1  0  0  0  0
 16 14  1  0  0  0  0
 16 18  2  0  0  0  0
 17 16  1  0  0  0  0
 18 19  1  0  0  0  0
 19 20  1  0  0  0  0
 19 21  2  0  0  0  0
 21 22  1  0  0  0  0
 23 26  1  0  0  0  0
 23 24  1  0  0  0  0
 23 18  1  0  0  0  0
 25 23  1  0  0  0  0
M  END
