1,2
 OpenBabel05122313053D

 28 30  0  0  0  0  0  0  0  0999 V2000
   -2.0454    0.0873   -1.3468 N   0  0  0  0  0  2  0  0  0  0  0  0
   -1.5501    1.8170    0.8097 N   0  0  0  0  0  2  0  0  0  0  0  0
   -2.2693   -0.7622   -2.3626 C   0  0  0  0  0  0  0  0  0  0  0  0
   -3.5952   -1.1616   -2.6971 C   0  0  0  0  0  0  0  0  0  0  0  0
   -3.7421   -1.8744   -3.5206 H   0  0  0  0  0  0  0  0  0  0  0  0
   -4.6678   -0.6656   -1.9850 C   0  0  0  0  0  0  0  0  0  0  0  0
   -5.6982   -0.9692   -2.2257 H   0  0  0  0  0  0  0  0  0  0  0  0
   -4.4431    0.2497   -0.9247 C   0  0  0  0  0  0  0  0  0  0  0  0
   -5.5236    0.8215   -0.1749 C   0  0  0  0  0  0  0  0  0  0  0  0
   -6.5518    0.5267   -0.4337 H   0  0  0  0  0  0  0  0  0  0  0  0
   -5.2837    1.7146    0.8390 C   0  0  0  0  0  0  0  0  0  0  0  0
   -6.1120    2.1578    1.4121 H   0  0  0  0  0  0  0  0  0  0  0  0
   -3.9395    2.0777    1.1815 C   0  0  0  0  0  0  0  0  0  0  0  0
   -3.6456    2.9851    2.2307 C   0  0  0  0  0  0  0  0  0  0  0  0
   -4.4748    3.4350    2.7987 H   0  0  0  0  0  0  0  0  0  0  0  0
   -2.3290    3.2901    2.5375 C   0  0  0  0  0  0  0  0  0  0  0  0
   -2.0830    3.9893    3.3493 H   0  0  0  0  0  0  0  0  0  0  0  0
   -1.2804    2.6736    1.8044 C   0  0  0  0  0  0  0  0  0  0  0  0
   -2.8306    1.5132    0.4708 C   0  0  0  0  0  0  0  0  0  0  0  0
   -3.0882    0.5898   -0.6283 C   0  0  0  0  0  0  0  0  0  0  0  0
   -1.1178   -1.3124   -3.1415 C   0  0  0  0  0  0  0  0  0  0  0  0
   -0.2431   -0.6393   -3.1283 H   0  0  0  0  0  0  0  0  0  0  0  0
   -1.4190   -1.5342   -4.1829 H   0  0  0  0  0  0  0  0  0  0  0  0
   -0.7667   -2.2603   -2.6786 H   0  0  0  0  0  0  0  0  0  0  0  0
    0.1611    2.9590    2.1200 C   0  0  0  0  0  0  0  0  0  0  0  0
    0.2618    3.5821    3.0271 H   0  0  0  0  0  0  0  0  0  0  0  0
    0.6489    3.4851    1.2739 H   0  0  0  0  0  0  0  0  0  0  0  0
    0.7261    2.0155    2.2622 H   0  0  0  0  0  0  0  0  0  0  0  0
  1 20  1  0  0  0  0
  2 18  1  0  0  0  0
  3  1  1  0  0  0  0
  4  3  2  0  0  0  0
  4  6  1  0  0  0  0
  5  4  1  0  0  0  0
  6  8  2  0  0  0  0
  7  6  1  0  0  0  0
  8 20  1  0  0  0  0
  8  9  1  0  0  0  0
  9 11  2  0  0  0  0
 10  9  1  0  0  0  0
 11 13  1  0  0  0  0
 11 12  1  0  0  0  0
 13 14  2  0  0  0  0
 14 16  1  0  0  0  0
 14 15  1  0  0  0  0
 16 17  1  0  0  0  0
 18 25  1  0  0  0  0
 18 16  2  0  0  0  0
 19  2  1  0  0  0  0
 19 13  1  0  0  0  0
 20 19  2  0  0  0  0
 21 22  1  0  0  0  0
 21 24  1  0  0  0  0
 21  3  1  0  0  0  0
 23 21  1  0  0  0  0
 25 28  1  0  0  0  0
 25 26  1  0  0  0  0
 27 25  1  0  0  0  0
M  END
