1,13
 OpenBabel05122313053D

 24 23  0  0  0  0  0  0  0  0999 V2000
    1.0430    1.8391    0.2507 N   0  0  0  0  0  0  0  0  0  0  0  0
    0.0945    2.8540    0.7577 C   0  0  0  0  0  0  0  0  0  0  0  0
   -0.5167    2.3984    1.5572 H   0  0  0  0  0  0  0  0  0  0  0  0
   -0.5672    3.1653   -0.0703 H   0  0  0  0  0  0  0  0  0  0  0  0
    0.6455    3.7408    1.1441 H   0  0  0  0  0  0  0  0  0  0  0  0
    1.7482    2.3843   -0.9280 C   0  0  0  0  0  0  0  0  0  0  0  0
    2.2494    3.3457   -0.6745 H   0  0  0  0  0  0  0  0  0  0  0  0
    1.0025    2.5434   -1.7290 H   0  0  0  0  0  0  0  0  0  0  0  0
    2.5090    1.6693   -1.2916 H   0  0  0  0  0  0  0  0  0  0  0  0
    2.6803    0.1196    1.0192 C   0  0  0  0  0  0  0  0  0  0  0  0
    3.2258    0.1882    0.0564 H   0  0  0  0  0  0  0  0  0  0  0  0
    3.4424   -0.0948    1.8043 H   0  0  0  0  0  0  0  0  0  0  0  0
    1.7155   -1.0032    0.9149 N   0  0  0  0  0  0  0  0  0  0  0  0
    1.2609   -1.4497    2.2492 C   0  0  0  0  0  0  0  0  0  0  0  0
    0.4946   -2.2315    2.1025 H   0  0  0  0  0  0  0  0  0  0  0  0
    0.7839   -0.6123    2.7855 H   0  0  0  0  0  0  0  0  0  0  0  0
    2.1227   -1.8467    2.8316 H   0  0  0  0  0  0  0  0  0  0  0  0
    2.3198   -2.1497    0.2073 C   0  0  0  0  0  0  0  0  0  0  0  0
    3.1971   -2.5445    0.7684 H   0  0  0  0  0  0  0  0  0  0  0  0
    2.6499   -1.8434   -0.8030 H   0  0  0  0  0  0  0  0  0  0  0  0
    1.5606   -2.9474    0.1131 H   0  0  0  0  0  0  0  0  0  0  0  0
    1.9842    1.4385    1.3266 C   0  0  0  0  0  0  0  0  0  0  0  0
    1.3926    1.3438    2.2574 H   0  0  0  0  0  0  0  0  0  0  0  0
    2.7424    2.2380    1.4954 H   0  0  0  0  0  0  0  0  0  0  0  0
  1  2  1  0  0  0  0
  1 22  1  0  0  0  0
  2  5  1  0  0  0  0
  2  3  1  0  0  0  0
  4  2  1  0  0  0  0
  6  7  1  0  0  0  0
  6  1  1  0  0  0  0
  8  6  1  0  0  0  0
  9  6  1  0  0  0  0
 10 22  1  0  0  0  0
 10 12  1  0  0  0  0
 11 10  1  0  0  0  0
 13 10  1  0  0  0  0
 13 14  1  0  0  0  0
 14 16  1  0  0  0  0
 14 17  1  0  0  0  0
 15 14  1  0  0  0  0
 18 19  1  0  0  0  0
 18 13  1  0  0  0  0
 20 18  1  0  0  0  0
 21 18  1  0  0  0  0
 22 24  1  0  0  0  0
 22 23  1  0  0  0  0
M  END
