25,26
 OpenBabel05122313053D

 26 27  0  0  0  0  0  0  0  0999 V2000
    0.6749    1.9580    0.0002 C   0  0  0  0  0  0  0  0  0  0  0  0
    1.5502    1.2963    0.0005 H   0  0  0  0  0  0  0  0  0  0  0  0
    0.8541    3.3474   -0.0001 C   0  0  0  0  0  0  0  0  0  0  0  0
   -0.3074    4.1502   -0.0004 C   0  0  0  0  0  0  0  0  0  0  0  0
   -0.2271    5.2479   -0.0006 H   0  0  0  0  0  0  0  0  0  0  0  0
   -1.5612    3.5358   -0.0003 C   0  0  0  0  0  0  0  0  0  0  0  0
   -2.4762    4.1438   -0.0005 H   0  0  0  0  0  0  0  0  0  0  0  0
   -1.6587    2.1337   -0.0001 C   0  0  0  0  0  0  0  0  0  0  0  0
   -2.9193    1.3857   -0.0001 C   0  0  0  0  0  0  0  0  0  0  0  0
   -4.2054    1.9559   -0.0005 C   0  0  0  0  0  0  0  0  0  0  0  0
   -4.3278    3.0476   -0.0010 H   0  0  0  0  0  0  0  0  0  0  0  0
   -5.3240    1.1202   -0.0004 C   0  0  0  0  0  0  0  0  0  0  0  0
   -6.3355    1.5554   -0.0007 H   0  0  0  0  0  0  0  0  0  0  0  0
   -5.1564   -0.2817    0.0003 C   0  0  0  0  0  0  0  0  0  0  0  0
   -3.8383   -0.7673    0.0006 C   0  0  0  0  0  0  0  0  0  0  0  0
   -3.6106   -1.8487    0.0010 H   0  0  0  0  0  0  0  0  0  0  0  0
   -6.3289   -1.2230    0.0004 C   0  0  0  0  0  0  0  0  0  0  0  0
   -6.0001   -2.2793    0.0013 H   0  0  0  0  0  0  0  0  0  0  0  0
   -6.9699   -1.0636   -0.8915 H   0  0  0  0  0  0  0  0  0  0  0  0
   -6.9708   -1.0623    0.8914 H   0  0  0  0  0  0  0  0  0  0  0  0
    2.2415    3.9287   -0.0001 C   0  0  0  0  0  0  0  0  0  0  0  0
    3.0144    3.1357   -0.0002 H   0  0  0  0  0  0  0  0  0  0  0  0
    2.4055    4.5695    0.8911 H   0  0  0  0  0  0  0  0  0  0  0  0
    2.4054    4.5695   -0.8914 H   0  0  0  0  0  0  0  0  0  0  0  0
   -0.5343    1.3429    0.0003 N   0  0  0  0  0  2  0  0  0  0  0  0
   -2.7542    0.0319    0.0004 N   0  0  0  0  0  2  0  0  0  0  0  0
  1 25  1  0  0  0  0
  1  2  1  0  0  0  0
  3  1  2  0  0  0  0
  4  6  2  0  0  0  0
  4  3  1  0  0  0  0
  5  4  1  0  0  0  0
  6  8  1  0  0  0  0
  7  6  1  0  0  0  0
  8 25  1  0  0  0  0
  9  8  2  0  0  0  0
  9 26  1  0  0  0  0
 10 12  2  0  0  0  0
 10  9  1  0  0  0  0
 11 10  1  0  0  0  0
 12 14  1  0  0  0  0
 13 12  1  0  0  0  0
 14 17  1  0  0  0  0
 14 15  2  0  0  0  0
 15 16  1  0  0  0  0
 17 18  1  0  0  0  0
 17 20  1  0  0  0  0
 19 17  1  0  0  0  0
 21  3  1  0  0  0  0
 21 23  1  0  0  0  0
 22 21  1  0  0  0  0
 24 21  1  0  0  0  0
 26 15  1  0  0  0  0
M  END
