1,2
 OpenBabel05122313053D

 23 25  0  0  1  0  0  0  0  0999 V2000
    1.4330    1.2870    0.0001 N   0  0  0  0  0  2  0  0  0  0  0  0
   -1.0183    0.2158   -0.0001 N   0  0  0  0  0  2  0  0  0  0  0  0
    2.6991    1.7366    0.0000 C   0  0  0  0  0  3  0  0  0  0  0  0
    3.4776    0.9585    0.0001 H   0  0  0  0  0  0  0  0  0  0  0  0
    3.0030    3.1033   -0.0002 C   0  0  0  0  0  0  0  0  0  0  0  0
    4.0527    3.4276   -0.0002 H   0  0  0  0  0  0  0  0  0  0  0  0
    1.9483    4.0335   -0.0003 C   0  0  0  0  0  0  0  0  0  0  0  0
    2.1544    5.1141   -0.0005 H   0  0  0  0  0  0  0  0  0  0  0  0
    0.6319    3.5706   -0.0002 C   0  0  0  0  0  0  0  0  0  0  0  0
   -0.2184    4.2680   -0.0003 H   0  0  0  0  0  0  0  0  0  0  0  0
    0.4054    2.1764    0.0000 C   0  0  0  0  0  0  0  0  0  0  0  0
   -0.8969    1.5559    0.0001 C   0  0  1  0  0  3  0  0  0  0  0  0
   -2.3688   -0.1767   -0.0002 C   0  0  0  0  0  0  0  0  0  0  0  0
   -3.2703    0.9264    0.0001 C   0  0  0  0  0  0  0  0  0  0  0  0
   -4.6625    0.7495    0.0000 C   0  0  0  0  0  0  0  0  0  0  0  0
   -5.3391    1.6159    0.0002 H   0  0  0  0  0  0  0  0  0  0  0  0
   -5.1588   -0.5577   -0.0003 C   0  0  0  0  0  0  0  0  0  0  0  0
   -6.2460   -0.7244   -0.0003 H   0  0  0  0  0  0  0  0  0  0  0  0
   -4.2778   -1.6601   -0.0005 C   0  0  0  0  0  0  0  0  0  0  0  0
   -4.6858   -2.6814   -0.0007 H   0  0  0  0  0  0  0  0  0  0  0  0
   -2.8917   -1.4855   -0.0005 C   0  0  0  0  0  0  0  0  0  0  0  0
   -2.2148   -2.3482   -0.0007 H   0  0  0  0  0  0  0  0  0  0  0  0
   -2.4011    2.4433    0.0004 S   0  0  0  0  0  0  0  0  0  0  0  0
  2 12  1  0  0  0  0
  3  4  1  0  0  0  0
  3  1  1  0  0  0  0
  5  3  1  0  0  0  0
  6  5  1  0  0  0  0
  7  9  1  0  0  0  0
  7  5  2  0  0  0  0
  8  7  1  0  0  0  0
  9 11  2  0  0  0  0
 10  9  1  0  0  0  0
 11  1  1  0  0  0  0
 12 11  1  6  0  0  0
 12 23  1  0  0  0  0
 13  2  1  0  0  0  0
 13 14  1  0  0  0  0
 14 23  1  0  0  0  0
 15 14  2  0  0  0  0
 15 16  1  0  0  0  0
 17 15  1  0  0  0  0
 18 17  1  0  0  0  0
 19 21  1  0  0  0  0
 19 17  2  0  0  0  0
 20 19  1  0  0  0  0
 21 13  2  0  0  0  0
 22 21  1  0  0  0  0
M  END
