2,3
 OpenBabel05122313053D

 25 26  0  0  1  0  0  0  0  0999 V2000
   -2.6039   -2.2196    1.6777 O   0  0  0  0  0  0  0  0  0  0  0  0
   -1.9904    0.4929   -0.6297 N   0  0  0  0  0  2  0  0  0  0  0  0
   -0.7505   -1.2894    0.7449 N   0  0  0  0  0  2  0  0  0  0  0  0
   -2.5667    1.4423   -1.4047 C   0  0  0  0  0  3  0  0  0  0  0  0
   -1.8531    2.0293   -2.0077 H   0  0  0  0  0  0  0  0  0  0  0  0
   -3.9516    1.6257   -1.4500 C   0  0  0  0  0  0  0  0  0  0  0  0
   -4.3639    2.4101   -2.1004 H   0  0  0  0  0  0  0  0  0  0  0  0
   -4.7953    0.7992   -0.6813 C   0  0  0  0  0  0  0  0  0  0  0  0
   -5.8871    0.9288   -0.7075 H   0  0  0  0  0  0  0  0  0  0  0  0
   -4.2169   -0.2034    0.1006 C   0  0  0  0  0  0  0  0  0  0  0  0
   -4.8176   -0.8964    0.7059 H   0  0  0  0  0  0  0  0  0  0  0  0
   -2.8177   -0.3376    0.0992 C   0  0  0  0  0  0  0  0  0  0  0  0
   -2.0588   -1.3046    0.8486 C   0  0  2  0  0  3  0  0  0  0  0  0
   -1.4824   -2.8446    2.3522 C   0  0  0  0  0  0  0  0  0  0  0  0
   -1.6412   -3.9401    2.3441 H   0  0  0  0  0  0  0  0  0  0  0  0
   -1.4705   -2.4843    3.4036 H   0  0  0  0  0  0  0  0  0  0  0  0
   -0.2069   -2.4008    1.5668 C   0  0  0  0  0  0  0  0  0  0  0  0
    0.3088   -3.5099    0.6392 C   0  0  0  0  0  0  0  0  0  0  0  0
   -0.4643   -3.7988   -0.0978 H   0  0  0  0  0  0  0  0  0  0  0  0
    0.6059   -4.3952    1.2377 H   0  0  0  0  0  0  0  0  0  0  0  0
    1.1879   -3.1562    0.0707 H   0  0  0  0  0  0  0  0  0  0  0  0
    0.8966   -1.8938    2.4981 C   0  0  0  0  0  0  0  0  0  0  0  0
    1.7548   -1.5217    1.9075 H   0  0  0  0  0  0  0  0  0  0  0  0
    1.2558   -2.7126    3.1537 H   0  0  0  0  0  0  0  0  0  0  0  0
    0.5290   -1.0662    3.1361 H   0  0  0  0  0  0  0  0  0  0  0  0
  1 14  1  0  0  0  0
  2 12  1  0  0  0  0
  3 13  1  0  0  0  0
  3 17  1  0  0  0  0
  4  2  1  0  0  0  0
  5  4  1  0  0  0  0
  6  4  1  0  0  0  0
  6  8  2  0  0  0  0
  7  6  1  0  0  0  0
  8 10  1  0  0  0  0
  9  8  1  0  0  0  0
 10 11  1  0  0  0  0
 12 10  2  0  0  0  0
 13 12  1  1  0  0  0
 13  1  1  0  0  0  0
 14 16  1  0  0  0  0
 15 14  1  0  0  0  0
 17 14  1  0  0  0  0
 17 22  1  0  0  0  0
 18 20  1  0  0  0  0
 18 17  1  0  0  0  0
 19 18  1  0  0  0  0
 21 18  1  0  0  0  0
 22 25  1  0  0  0  0
 22 24  1  0  0  0  0
 23 22  1  0  0  0  0
M  END
