1,3
 OpenBabel05122313053D

 23 24  0  0  1  0  0  0  0  0999 V2000
   -1.3099   -0.9964   -0.9299 N   0  0  0  0  0  2  0  0  0  0  0  0
    0.2655   -0.6479   -2.6358 N   0  0  0  0  0  2  0  0  0  0  0  0
    0.9789   -0.2575   -1.6083 N   0  0  0  0  0  2  0  0  0  0  0  0
   -0.9835   -1.0680   -2.2692 C   0  0  1  0  0  3  0  0  0  0  0  0
   -1.8722   -1.6449   -3.2047 C   0  0  0  0  0  0  0  0  0  0  0  0
   -3.0720   -2.1853   -2.7473 C   0  0  0  0  0  0  0  0  0  0  0  0
   -3.3656   -2.1501   -1.3664 C   0  0  0  0  0  0  0  0  0  0  0  0
   -2.4645   -1.5479   -0.4887 C   0  0  0  0  0  0  0  0  0  0  0  0
    2.3145    0.1261   -1.9100 C   0  0  0  0  0  0  0  0  0  0  0  0
    3.3265   -0.0992   -0.9547 C   0  0  0  0  0  0  0  0  0  0  0  0
    4.6401    0.2958   -1.2329 C   0  0  0  0  0  0  0  0  0  0  0  0
    4.9476    0.9279   -2.4496 C   0  0  0  0  0  0  0  0  0  0  0  0
    3.9349    1.1481   -3.3991 C   0  0  0  0  0  0  0  0  0  0  0  0
    2.6210    0.7416   -3.1415 C   0  0  0  0  0  0  0  0  0  0  0  0
   -1.5776   -1.6595   -4.2625 H   0  0  0  0  0  0  0  0  0  0  0  0
   -3.7800   -2.6415   -3.4546 H   0  0  0  0  0  0  0  0  0  0  0  0
   -4.3004   -2.5714   -0.9719 H   0  0  0  0  0  0  0  0  0  0  0  0
   -2.6538   -1.4638    0.5923 H   0  0  0  0  0  0  0  0  0  0  0  0
    3.0792   -0.6076   -0.0134 H   0  0  0  0  0  0  0  0  0  0  0  0
    5.4307    0.1070   -0.4914 H   0  0  0  0  0  0  0  0  0  0  0  0
    5.9786    1.2502   -2.6583 H   0  0  0  0  0  0  0  0  0  0  0  0
    4.1708    1.6486   -4.3504 H   0  0  0  0  0  0  0  0  0  0  0  0
    1.8114    0.9047   -3.8649 H   0  0  0  0  0  0  0  0  0  0  0  0
  1  8  1  0  0  0  0
  2  3  1  0  0  0  0
  4  2  1  1  0  0  0
  4  1  1  0  0  0  0
  5  6  2  0  0  0  0
  5  4  1  0  0  0  0
  6  7  1  0  0  0  0
  7 17  1  0  0  0  0
  7  8  2  0  0  0  0
  8 18  1  0  0  0  0
  9  3  1  0  0  0  0
  9 10  1  0  0  0  0
 10 19  1  0  0  0  0
 11 10  2  0  0  0  0
 11 20  1  0  0  0  0
 12 11  1  0  0  0  0
 13 14  1  0  0  0  0
 13 12  2  0  0  0  0
 14  9  2  0  0  0  0
 15  5  1  0  0  0  0
 16  6  1  0  0  0  0
 21 12  1  0  0  0  0
 22 13  1  0  0  0  0
 23 14  1  0  0  0  0
M  END
