35,36
 OpenBabel05122313053D

 36 37  0  0  1  0  0  0  0  0999 V2000
   -3.1183    1.1125   -3.4992 F   0  0  0  0  0  0  0  0  0  0  0  0
   -1.3487    1.5739   -4.6649 F   0  0  0  0  0  0  0  0  0  0  0  0
   -1.9394    2.9028   -3.0531 F   0  0  0  0  0  0  0  0  0  0  0  0
    3.1189   -1.1116   -3.4987 F   0  0  0  0  0  0  0  0  0  0  0  0
    1.3497   -1.5720   -4.6654 F   0  0  0  0  0  0  0  0  0  0  0  0
    1.9396   -2.9021   -3.0541 F   0  0  0  0  0  0  0  0  0  0  0  0
   -0.9850    0.8093   -2.4092 C   0  0  2  0  0  3  0  0  0  0  0  0
    0.0002    0.0004   -3.0092 C   0  0  0  0  0  0  0  0  0  0  0  0
    0.0003    0.0006   -4.1008 H   0  0  0  0  0  0  0  0  0  0  0  0
    0.9852   -0.8088   -2.4094 C   0  0  0  0  0  0  0  0  0  0  0  0
   -1.8573    1.5974   -3.4107 C   0  0  0  0  0  0  0  0  0  0  0  0
    1.8579   -1.5964   -3.4110 C   0  0  0  0  0  0  0  0  0  0  0  0
    2.3572   -1.6291   -0.6126 C   0  0  0  0  0  0  0  0  0  0  0  0
    3.5968   -0.9613   -0.6845 C   0  0  0  0  0  0  0  0  0  0  0  0
    3.6530    0.0064   -1.2027 H   0  0  0  0  0  0  0  0  0  0  0  0
    4.7359   -1.5164   -0.0838 C   0  0  0  0  0  0  0  0  0  0  0  0
    5.6927   -0.9751   -0.1378 H   0  0  0  0  0  0  0  0  0  0  0  0
    4.6531   -2.7409    0.5943 C   0  0  0  0  0  0  0  0  0  0  0  0
    5.5445   -3.1710    1.0749 H   0  0  0  0  0  0  0  0  0  0  0  0
    3.4212   -3.4140    0.6577 C   0  0  0  0  0  0  0  0  0  0  0  0
    3.3436   -4.3740    1.1897 H   0  0  0  0  0  0  0  0  0  0  0  0
    2.2807   -2.8641    0.0623 C   0  0  0  0  0  0  0  0  0  0  0  0
    1.3124   -3.3788    0.1267 H   0  0  0  0  0  0  0  0  0  0  0  0
   -2.3573    1.6289   -0.6124 C   0  0  0  0  0  0  0  0  0  0  0  0
   -3.5967    0.9609   -0.6842 C   0  0  0  0  0  0  0  0  0  0  0  0
   -3.6528   -0.0068   -1.2024 H   0  0  0  0  0  0  0  0  0  0  0  0
   -4.7359    1.5158   -0.0835 C   0  0  0  0  0  0  0  0  0  0  0  0
   -5.6926    0.9742   -0.1374 H   0  0  0  0  0  0  0  0  0  0  0  0
   -4.6533    2.7402    0.5947 C   0  0  0  0  0  0  0  0  0  0  0  0
   -5.5447    3.1701    1.0754 H   0  0  0  0  0  0  0  0  0  0  0  0
   -3.4215    3.4135    0.6582 C   0  0  0  0  0  0  0  0  0  0  0  0
   -3.3441    4.3735    1.1902 H   0  0  0  0  0  0  0  0  0  0  0  0
   -2.2809    2.8639    0.0627 C   0  0  0  0  0  0  0  0  0  0  0  0
   -1.3127    3.3787    0.1271 H   0  0  0  0  0  0  0  0  0  0  0  0
    1.1772   -0.9966   -1.1040 N   0  0  0  0  0  2  0  0  0  0  0  0
   -1.1771    0.9967   -1.1038 N   0  0  0  0  0  2  0  0  0  0  0  0
  1 11  1  0  0  0  0
  2 11  1  0  0  0  0
  4 12  1  0  0  0  0
  5 12  1  0  0  0  0
  7  8  1  6  0  0  0
  7 36  1  0  0  0  0
  8 10  2  0  0  0  0
  9  8  1  0  0  0  0
 10 35  1  0  0  0  0
 11  3  1  0  0  0  0
 11  7  1  0  0  0  0
 12  6  1  0  0  0  0
 12 10  1  0  0  0  0
 13 22  1  0  0  0  0
 14 13  2  0  0  0  0
 14 16  1  0  0  0  0
 15 14  1  0  0  0  0
 16 18  2  0  0  0  0
 17 16  1  0  0  0  0
 18 20  1  0  0  0  0
 18 19  1  0  0  0  0
 20 21  1  0  0  0  0
 22 23  1  0  0  0  0
 22 20  2  0  0  0  0
 24 33  1  0  0  0  0
 25 24  2  0  0  0  0
 25 27  1  0  0  0  0
 26 25  1  0  0  0  0
 27 29  2  0  0  0  0
 28 27  1  0  0  0  0
 29 31  1  0  0  0  0
 29 30  1  0  0  0  0
 31 32  1  0  0  0  0
 33 34  1  0  0  0  0
 33 31  2  0  0  0  0
 35 13  1  0  0  0  0
 36 24  1  0  0  0  0
M  END
