1,2
 OpenBabel05122313053D

 30 31  0  0  1  0  0  0  0  0999 V2000
   -2.6300    1.4728    0.0658 N   0  0  0  0  0  2  0  0  0  0  0  0
   -0.6118    0.5480    1.4957 N   0  0  0  0  0  2  0  0  0  0  0  0
    0.6069    0.1352    1.8618 N   0  0  0  0  0  0  0  0  0  0  0  0
    1.2858    0.7990    2.2573 H   0  0  0  0  0  0  0  0  0  0  0  0
    5.2864   -1.8675    1.6951 N   0  0  0  0  0  0  0  0  0  0  0  0
    0.2422   -2.0556    1.2653 O   0  0  0  0  0  0  0  0  0  0  0  0
   -3.7477    1.8036   -0.6120 C   0  0  0  0  0  3  0  0  0  0  0  0
   -3.9697    1.2008   -1.5060 H   0  0  0  0  0  0  0  0  0  0  0  0
   -4.5696    2.8653   -0.2226 C   0  0  0  0  0  0  0  0  0  0  0  0
   -5.4645    3.1097   -0.8114 H   0  0  0  0  0  0  0  0  0  0  0  0
   -4.2109    3.6047    0.9157 C   0  0  0  0  0  0  0  0  0  0  0  0
   -4.8328    4.4458    1.2556 H   0  0  0  0  0  0  0  0  0  0  0  0
   -3.0516    3.2600    1.6177 C   0  0  0  0  0  0  0  0  0  0  0  0
   -2.7641    3.8191    2.5180 H   0  0  0  0  0  0  0  0  0  0  0  0
   -2.2613    2.1778    1.1788 C   0  0  0  0  0  0  0  0  0  0  0  0
   -1.0123    1.7517    1.8322 C   0  0  2  0  0  3  0  0  0  0  0  0
   -0.2140    2.6646    2.7152 C   0  0  0  0  0  0  0  0  0  0  0  0
   -0.7658    3.5764    2.9993 H   0  0  0  0  0  0  0  0  0  0  0  0
    0.7063    3.0025    2.1869 H   0  0  0  0  0  0  0  0  0  0  0  0
    0.0988    2.1513    3.6487 H   0  0  0  0  0  0  0  0  0  0  0  0
    1.0320   -1.1742    1.5710 C   0  0  0  0  0  0  0  0  0  0  0  0
    2.5133   -1.3664    1.6527 C   0  0  0  0  0  0  0  0  0  0  0  0
    3.0096   -2.6567    1.9158 C   0  0  0  0  0  0  0  0  0  0  0  0
    2.3107   -3.4853    2.1016 H   0  0  0  0  0  0  0  0  0  0  0  0
    4.3989   -2.8474    1.9353 C   0  0  0  0  0  0  0  0  0  0  0  0
    4.8178   -3.8454    2.1539 H   0  0  0  0  0  0  0  0  0  0  0  0
    4.8098   -0.6440    1.4257 C   0  0  0  0  0  0  0  0  0  0  0  0
    5.5551    0.1417    1.2085 H   0  0  0  0  0  0  0  0  0  0  0  0
    3.4394   -0.3350    1.3971 C   0  0  0  0  0  0  0  0  0  0  0  0
    3.1213    0.6832    1.1241 H   0  0  0  0  0  0  0  0  0  0  0  0
  1 15  1  0  0  0  0
  2  3  1  0  0  0  0
  3  4  1  0  0  0  0
  5 25  1  0  0  0  0
  6 21  2  0  0  0  0
  7  9  1  0  0  0  0
  7  1  1  0  0  0  0
  8  7  1  0  0  0  0
  9 11  2  0  0  0  0
 10  9  1  0  0  0  0
 11 12  1  0  0  0  0
 11 13  1  0  0  0  0
 13 14  1  0  0  0  0
 15 13  2  0  0  0  0
 15 16  1  0  0  0  0
 16  2  1  6  0  0  0
 16 17  1  0  0  0  0
 17 18  1  0  0  0  0
 17 20  1  0  0  0  0
 19 17  1  0  0  0  0
 21 22  1  0  0  0  0
 21  3  1  0  0  0  0
 22 23  1  0  0  0  0
 23 25  2  0  0  0  0
 23 24  1  0  0  0  0
 25 26  1  0  0  0  0
 27  5  2  0  0  0  0
 28 27  1  0  0  0  0
 29 27  1  0  0  0  0
 29 22  2  0  0  0  0
 30 29  1  0  0  0  0
M  END
