1,2
 OpenBabel05122313053D

 29 29  0  0  0  0  0  0  0  0999 V2000
    2.9340   -1.3858   -0.0741 N   0  0  0  0  0  2  0  0  0  0  0  0
    0.4186   -1.5783   -0.0602 N   0  0  0  0  0  2  0  0  0  0  0  0
   -5.9738   -1.5533   -0.8507 C   0  0  0  0  0  0  0  0  0  0  0  0
   -5.8339   -0.5236   -1.2476 H   0  0  0  0  0  0  0  0  0  0  0  0
   -7.0211   -1.6750   -0.5168 H   0  0  0  0  0  0  0  0  0  0  0  0
   -5.7658   -2.2874   -1.6606 H   0  0  0  0  0  0  0  0  0  0  0  0
    3.4790   -3.7665   -0.1826 C   0  0  0  0  0  0  0  0  0  0  0  0
    4.1914   -3.6885    0.6642 H   0  0  0  0  0  0  0  0  0  0  0  0
    4.0909   -3.7059   -1.1071 H   0  0  0  0  0  0  0  0  0  0  0  0
    2.9803   -4.7505   -0.1454 H   0  0  0  0  0  0  0  0  0  0  0  0
    0.3892   -4.0667   -0.2010 C   0  0  0  0  0  0  0  0  0  0  0  0
    0.5049   -4.6131    0.7587 H   0  0  0  0  0  0  0  0  0  0  0  0
    0.8596   -4.6869   -0.9892 H   0  0  0  0  0  0  0  0  0  0  0  0
   -0.6894   -3.9697   -0.4127 H   0  0  0  0  0  0  0  0  0  0  0  0
   -3.1641   -1.3817   -1.0717 C   0  0  0  0  0  0  0  0  0  0  0  0
   -3.7425   -1.1435   -1.9734 H   0  0  0  0  0  0  0  0  0  0  0  0
   -1.6408   -1.9390    1.2234 C   0  0  0  0  0  0  0  0  0  0  0  0
   -1.0248   -2.1292    2.1142 H   0  0  0  0  0  0  0  0  0  0  0  0
   -1.7665   -1.3071   -1.1239 C   0  0  0  0  0  0  0  0  0  0  0  0
   -1.2466   -1.0250   -2.0509 H   0  0  0  0  0  0  0  0  0  0  0  0
   -3.0333   -2.0142    1.2793 C   0  0  0  0  0  0  0  0  0  0  0  0
   -3.5534   -2.2772    2.2117 H   0  0  0  0  0  0  0  0  0  0  0  0
   -3.8069   -1.7294    0.1337 C   0  0  0  0  0  0  0  0  0  0  0  0
   -0.9977   -1.5896    0.0165 C   0  0  0  0  0  0  0  0  0  0  0  0
    2.5029   -2.6374   -0.1291 C   0  0  0  0  0  0  0  0  0  0  0  0
    1.0616   -2.7261   -0.1256 C   0  0  0  0  0  0  0  0  0  0  0  0
   -5.1621   -1.7895    0.2892 O   0  0  0  0  0  0  0  0  0  0  0  0
    4.2154   -1.1901   -0.0749 O   0  0  0  0  0  0  0  0  0  0  0  0
    4.3344   -0.0005    0.0007 H   0  0  0  0  0  0  0  0  0  0  0  0
  2 24  1  0  0  0  0
  3  5  1  0  0  0  0
  3 27  1  0  0  0  0
  4  3  1  0  0  0  0
  6  3  1  0  0  0  0
  7 10  1  0  0  0  0
  7 25  1  0  0  0  0
  7  8  1  0  0  0  0
  9  7  1  0  0  0  0
 11 26  1  0  0  0  0
 11 12  1  0  0  0  0
 13 11  1  0  0  0  0
 14 11  1  0  0  0  0
 15 23  1  0  0  0  0
 16 15  1  0  0  0  0
 17 21  1  0  0  0  0
 17 18  1  0  0  0  0
 19 15  2  0  0  0  0
 19 24  1  0  0  0  0
 20 19  1  0  0  0  0
 21 22  1  0  0  0  0
 23 27  1  0  0  0  0
 23 21  2  0  0  0  0
 24 17  2  0  0  0  0
 25 26  2  0  0  0  0
 25  1  1  0  0  0  0
 26  2  1  0  0  0  0
 28  1  1  0  0  0  0
 28 29  1  0  0  0  0
M  END
