1,2
 OpenBabel05122313053D

 21 22  0  0  0  0  0  0  0  0999 V2000
   -2.0732   -0.5323    0.3211 N   0  0  0  0  0  2  0  0  0  0  0  0
   -0.7848   -0.2540   -1.8850 N   0  0  0  0  0  2  0  0  0  0  0  0
   -2.7884   -0.8333    1.4349 C   0  0  0  0  0  0  0  0  0  0  0  0
   -3.8526    0.0206    1.8371 C   0  0  0  0  0  0  0  0  0  0  0  0
   -4.2135    1.1347    1.1003 C   0  0  0  0  0  0  0  0  0  0  0  0
   -3.5287    1.4153   -0.1128 C   0  0  0  0  0  0  0  0  0  0  0  0
   -3.8275    2.5028   -0.9824 C   0  0  0  0  0  3  0  0  0  0  0  0
   -3.0997    2.6700   -2.1587 C   0  0  0  0  0  0  0  0  0  0  0  0
   -2.0608    1.7836   -2.5200 C   0  0  0  0  0  0  0  0  0  0  0  0
   -1.7312    0.7048   -1.6799 C   0  0  0  0  0  0  0  0  0  0  0  0
   -2.4647    0.5329   -0.4596 C   0  0  0  0  0  0  0  0  0  0  0  0
   -2.4819   -2.0620    2.2314 C   0  0  0  0  0  0  0  0  0  0  0  0
   -4.3926   -0.2388    2.7586 H   0  0  0  0  0  0  0  0  0  0  0  0
   -5.0354    1.7889    1.4285 H   0  0  0  0  0  0  0  0  0  0  0  0
   -4.6404    3.1935   -0.7151 H   0  0  0  0  0  0  0  0  0  0  0  0
   -3.3385    3.5093   -2.8298 H   0  0  0  0  0  0  0  0  0  0  0  0
   -1.5025    1.9276   -3.4568 H   0  0  0  0  0  0  0  0  0  0  0  0
   -2.4250   -2.9417    1.5599 H   0  0  0  0  0  0  0  0  0  0  0  0
   -3.2624   -2.2262    2.9962 H   0  0  0  0  0  0  0  0  0  0  0  0
   -1.4935   -1.9875    2.7297 H   0  0  0  0  0  0  0  0  0  0  0  0
   -0.2852   -0.2082   -2.7783 H   0  0  0  0  0  0  0  0  0  0  0  0
  1  3  1  0  0  0  0
  2 10  1  0  0  0  0
  3  4  2  0  0  0  0
  3 12  1  0  0  0  0
  4 13  1  0  0  0  0
  5 14  1  0  0  0  0
  5  4  1  0  0  0  0
  6  5  2  0  0  0  0
  7 15  1  0  0  0  0
  7  6  1  0  0  0  0
  8  7  1  0  0  0  0
  9  8  2  0  0  0  0
  9 10  1  0  0  0  0
 10 11  2  0  0  0  0
 11  6  1  0  0  0  0
 11  1  1  0  0  0  0
 12 20  1  0  0  0  0
 12 19  1  0  0  0  0
 16  8  1  0  0  0  0
 17  9  1  0  0  0  0
 18 12  1  0  0  0  0
 21  2  1  0  0  0  0
M  END
