2,3
 OpenBabel05122313053D

 31 32  0  0  0  0  0  0  0  0999 V2000
   -2.3606    2.3543   -0.3269 O   0  0  0  0  0  0  0  0  0  0  0  0
    1.8604    1.0910    0.2626 N   0  0  0  0  0  2  0  0  0  0  0  0
   -0.2790    0.6313   -1.2291 N   0  0  0  0  0  2  0  0  0  0  0  0
    2.9467    1.2896    1.0381 C   0  0  0  0  0  3  0  0  0  0  0  0
    3.0901    0.5769    1.8628 H   0  0  0  0  0  0  0  0  0  0  0  0
    3.8513    2.3322    0.8106 C   0  0  0  0  0  0  0  0  0  0  0  0
    4.7216    2.4444    1.4721 H   0  0  0  0  0  0  0  0  0  0  0  0
    3.6312    3.2109   -0.2635 C   0  0  0  0  0  0  0  0  0  0  0  0
    4.3284    4.0368   -0.4665 H   0  0  0  0  0  0  0  0  0  0  0  0
    2.5089    3.0111   -1.0720 C   0  0  0  0  0  0  0  0  0  0  0  0
    2.2937    3.6672   -1.9277 H   0  0  0  0  0  0  0  0  0  0  0  0
    1.6414    1.9397   -0.7897 C   0  0  0  0  0  0  0  0  0  0  0  0
    0.4491    1.6543   -1.5639 C   0  0  0  0  0  3  0  0  0  0  0  0
    0.1637    2.3153   -2.4027 H   0  0  0  0  0  0  0  0  0  0  0  0
   -1.4823    0.3378   -2.0117 C   0  0  0  0  0  0  0  0  0  0  0  0
   -1.2824   -0.6149   -2.5459 H   0  0  0  0  0  0  0  0  0  0  0  0
   -1.6260    1.1364   -2.7740 H   0  0  0  0  0  0  0  0  0  0  0  0
   -2.7207    0.1793   -1.1627 C   0  0  0  0  0  0  0  0  0  0  0  0
   -3.4893   -0.9930   -1.2144 C   0  0  0  0  0  0  0  0  0  0  0  0
   -3.1575   -1.8144   -1.8674 H   0  0  0  0  0  0  0  0  0  0  0  0
   -4.6437   -1.1444   -0.4313 C   0  0  0  0  0  0  0  0  0  0  0  0
   -5.2250   -2.0761   -0.4797 H   0  0  0  0  0  0  0  0  0  0  0  0
   -5.0297   -0.1057    0.4256 C   0  0  0  0  0  0  0  0  0  0  0  0
   -5.9225   -0.2145    1.0598 H   0  0  0  0  0  0  0  0  0  0  0  0
   -4.2834    1.0814    0.4941 C   0  0  0  0  0  0  0  0  0  0  0  0
   -4.5961    1.8809    1.1779 H   0  0  0  0  0  0  0  0  0  0  0  0
   -3.1380    1.2337   -0.3085 C   0  0  0  0  0  0  0  0  0  0  0  0
   -2.6234    3.3763    0.6207 C   0  0  0  0  0  0  0  0  0  0  0  0
   -3.6264    3.8336    0.4691 H   0  0  0  0  0  0  0  0  0  0  0  0
   -1.8496    4.1508    0.4635 H   0  0  0  0  0  0  0  0  0  0  0  0
   -2.5461    2.9883    1.6590 H   0  0  0  0  0  0  0  0  0  0  0  0
  1 27  1  0  0  0  0
  1 28  1  0  0  0  0
  2  4  1  0  0  0  0
  4  5  1  0  0  0  0
  6  4  1  0  0  0  0
  6  7  1  0  0  0  0
  8  6  2  0  0  0  0
  9  8  1  0  0  0  0
 10 12  2  0  0  0  0
 10  8  1  0  0  0  0
 11 10  1  0  0  0  0
 12  2  1  0  0  0  0
 13  3  1  0  0  0  0
 13 12  1  0  0  0  0
 14 13  1  0  0  0  0
 15  3  1  0  0  0  0
 15 18  1  0  0  0  0
 16 15  1  0  0  0  0
 17 15  1  0  0  0  0
 18 27  1  0  0  0  0
 19 18  2  0  0  0  0
 19 21  1  0  0  0  0
 20 19  1  0  0  0  0
 21 23  2  0  0  0  0
 22 21  1  0  0  0  0
 23 25  1  0  0  0  0
 23 24  1  0  0  0  0
 25 26  1  0  0  0  0
 27 25  2  0  0  0  0
 28 31  1  0  0  0  0
 29 28  1  0  0  0  0
 30 28  1  0  0  0  0
M  END
