1,2
 OpenBabel05122313053D

 27 28  0  0  0  0  0  0  0  0999 V2000
   -0.8351    2.4589   -0.0569 N   0  0  0  0  0  2  0  0  0  0  0  0
    1.3793    1.0902   -0.1109 N   0  0  0  0  0  2  0  0  0  0  0  0
   -2.0186    3.1050   -0.1243 C   0  0  0  0  0  0  0  0  0  0  0  0
   -2.9150    2.4827   -0.2546 H   0  0  0  0  0  0  0  0  0  0  0  0
   -2.1116    4.4963   -0.0488 C   0  0  0  0  0  0  0  0  0  0  0  0
   -3.0988    4.9744   -0.1099 H   0  0  0  0  0  0  0  0  0  0  0  0
   -0.9351    5.2558    0.1007 C   0  0  0  0  0  0  0  0  0  0  0  0
   -0.9828    6.3524    0.1662 H   0  0  0  0  0  0  0  0  0  0  0  0
    0.2936    4.5970    0.1541 C   0  0  0  0  0  0  0  0  0  0  0  0
    1.2370    5.1516    0.2573 H   0  0  0  0  0  0  0  0  0  0  0  0
    0.3309    3.1895    0.0649 C   0  0  0  0  0  0  0  0  0  0  0  0
    1.5281    2.3990    0.0431 C   0  0  0  0  0  0  0  0  0  0  0  0
    2.5295    2.8532    0.0984 H   0  0  0  0  0  0  0  0  0  0  0  0
    2.5239    0.2435   -0.1145 C   0  0  0  0  0  0  0  0  0  0  0  0
    3.4713    0.3202    0.9273 C   0  0  0  0  0  0  0  0  0  0  0  0
    3.3193    1.0320    1.7524 H   0  0  0  0  0  0  0  0  0  0  0  0
    4.5696   -0.5473    0.9320 C   0  0  0  0  0  0  0  0  0  0  0  0
    5.2916   -0.4933    1.7613 H   0  0  0  0  0  0  0  0  0  0  0  0
    4.7628   -1.4965   -0.0957 C   0  0  0  0  0  0  0  0  0  0  0  0
    3.8047   -1.5507   -1.1321 C   0  0  0  0  0  0  0  0  0  0  0  0
    3.9358   -2.2740   -1.9515 H   0  0  0  0  0  0  0  0  0  0  0  0
    2.6932   -0.7012   -1.1473 C   0  0  0  0  0  0  0  0  0  0  0  0
    1.9687   -0.7396   -1.9728 H   0  0  0  0  0  0  0  0  0  0  0  0
    5.9651   -2.4005   -0.1023 C   0  0  0  0  0  0  0  0  0  0  0  0
    6.3347   -2.6008    0.9218 H   0  0  0  0  0  0  0  0  0  0  0  0
    6.8005   -1.9296   -0.6641 H   0  0  0  0  0  0  0  0  0  0  0  0
    5.7489   -3.3681   -0.5951 H   0  0  0  0  0  0  0  0  0  0  0  0
  1 11  1  0  0  0  0
  2 12  1  0  0  0  0
  3  1  1  0  0  0  0
  3  5  2  0  0  0  0
  4  3  1  0  0  0  0
  5  7  1  0  0  0  0
  6  5  1  0  0  0  0
  7  9  2  0  0  0  0
  7  8  1  0  0  0  0
  9 10  1  0  0  0  0
 11  9  1  0  0  0  0
 12 11  2  0  0  0  0
 12 13  1  0  0  0  0
 14  2  1  0  0  0  0
 14 15  1  0  0  0  0
 15 17  2  0  0  0  0
 15 16  1  0  0  0  0
 17 18  1  0  0  0  0
 19 17  1  0  0  0  0
 20 19  2  0  0  0  0
 21 20  1  0  0  0  0
 22 20  1  0  0  0  0
 22 14  2  0  0  0  0
 23 22  1  0  0  0  0
 24 19  1  0  0  0  0
 24 25  1  0  0  0  0
 26 24  1  0  0  0  0
 27 24  1  0  0  0  0
M  END
