3,4
 OpenBabel05122313053D

 36 37  0  0  0  0  0  0  0  0999 V2000
   -6.9005   -0.6529   -0.2831 O   0  0  0  0  0  0  0  0  0  0  0  0
    6.8776   -0.6472    0.3837 O   0  0  0  0  0  0  0  0  0  0  0  0
    1.3039   -0.9901    0.2246 N   0  0  0  0  0  2  0  0  0  0  0  0
   -1.3307   -0.9762    0.0055 N   0  0  0  0  0  2  0  0  0  0  0  0
    0.6965   -2.1578    0.1105 C   0  0  0  0  0  0  0  0  0  0  0  0
    1.2659   -3.1030    0.1217 H   0  0  0  0  0  0  0  0  0  0  0  0
   -0.7288   -2.1506    0.0247 C   0  0  0  0  0  0  0  0  0  0  0  0
   -1.3073   -3.0889   -0.0310 H   0  0  0  0  0  0  0  0  0  0  0  0
    2.7135   -0.9346    0.2422 C   0  0  0  0  0  0  0  0  0  0  0  0
    3.4842   -1.7119   -0.6466 C   0  0  0  0  0  0  0  0  0  0  0  0
    2.9760   -2.3334   -1.3978 H   0  0  0  0  0  0  0  0  0  0  0  0
    4.8826   -1.6387   -0.6355 C   0  0  0  0  0  0  0  0  0  0  0  0
    5.4539   -2.2278   -1.3646 H   0  0  0  0  0  0  0  0  0  0  0  0
    5.5335   -0.7907    0.2864 C   0  0  0  0  0  0  0  0  0  0  0  0
    4.7607   -0.0090    1.1784 C   0  0  0  0  0  0  0  0  0  0  0  0
    5.2865    0.6470    1.8863 H   0  0  0  0  0  0  0  0  0  0  0  0
    3.3721   -0.0664    1.1451 C   0  0  0  0  0  0  0  0  0  0  0  0
    2.7717    0.5394    1.8379 H   0  0  0  0  0  0  0  0  0  0  0  0
   -7.7468   -1.3514    0.6125 C   0  0  0  0  0  0  0  0  0  0  0  0
   -8.7834   -1.0990    0.3233 H   0  0  0  0  0  0  0  0  0  0  0  0
   -7.5791   -1.0392    1.6675 H   0  0  0  0  0  0  0  0  0  0  0  0
   -7.6077   -2.4531    0.5383 H   0  0  0  0  0  0  0  0  0  0  0  0
   -5.5579   -0.7901   -0.1501 C   0  0  0  0  0  0  0  0  0  0  0  0
   -4.9284   -1.5856    0.8315 C   0  0  0  0  0  0  0  0  0  0  0  0
   -5.5162   -2.1405    1.5742 H   0  0  0  0  0  0  0  0  0  0  0  0
   -3.5293   -1.6558    0.8763 C   0  0  0  0  0  0  0  0  0  0  0  0
   -3.0369   -2.2512    1.6597 H   0  0  0  0  0  0  0  0  0  0  0  0
   -2.7437   -0.9210   -0.0322 C   0  0  0  0  0  0  0  0  0  0  0  0
   -3.3781   -0.1198   -1.0109 C   0  0  0  0  0  0  0  0  0  0  0  0
   -2.7539    0.4097   -1.7446 H   0  0  0  0  0  0  0  0  0  0  0  0
   -4.7665   -0.0673   -1.0746 C   0  0  0  0  0  0  0  0  0  0  0  0
   -5.2771    0.5335   -1.8405 H   0  0  0  0  0  0  0  0  0  0  0  0
    7.7057   -1.3903   -0.4940 C   0  0  0  0  0  0  0  0  0  0  0  0
    8.7478   -1.1226   -0.2406 H   0  0  0  0  0  0  0  0  0  0  0  0
    7.5138   -1.1318   -1.5590 H   0  0  0  0  0  0  0  0  0  0  0  0
    7.5699   -2.4867   -0.3602 H   0  0  0  0  0  0  0  0  0  0  0  0
  1 23  1  0  0  0  0
  1 19  1  0  0  0  0
  3  9  1  0  0  0  0
  4  7  1  0  0  0  0
  5  6  1  0  0  0  0
  5  3  1  0  0  0  0
  7  5  2  0  0  0  0
  8  7  1  0  0  0  0
  9 17  1  0  0  0  0
 10 12  1  0  0  0  0
 10  9  2  0  0  0  0
 11 10  1  0  0  0  0
 12 14  2  0  0  0  0
 13 12  1  0  0  0  0
 14  2  1  0  0  0  0
 14 15  1  0  0  0  0
 15 16  1  0  0  0  0
 17 15  2  0  0  0  0
 17 18  1  0  0  0  0
 19 21  1  0  0  0  0
 20 19  1  0  0  0  0
 22 19  1  0  0  0  0
 23 24  1  0  0  0  0
 24 26  2  0  0  0  0
 24 25  1  0  0  0  0
 26 27  1  0  0  0  0
 28  4  1  0  0  0  0
 28 26  1  0  0  0  0
 29 28  2  0  0  0  0
 30 29  1  0  0  0  0
 31 29  1  0  0  0  0
 31 23  2  0  0  0  0
 32 31  1  0  0  0  0
 33 36  1  0  0  0  0
 33 34  1  0  0  0  0
 33  2  1  0  0  0  0
 35 33  1  0  0  0  0
M  END
