22,23
 OpenBabel05122313053D

 23 23  0  0  0  0  0  0  0  0999 V2000
    2.6828   -0.0660    1.0981 C   0  0  0  0  0  3  0  0  0  0  0  0
    2.4797   -0.9470    1.7238 H   0  0  0  0  0  0  0  0  0  0  0  0
    1.8287    1.5246   -0.3888 C   0  0  0  0  0  0  0  0  0  0  0  0
    0.6410    1.9980   -1.0749 C   0  0  0  0  0  3  0  0  0  0  0  0
    0.7009    2.8792   -1.7401 H   0  0  0  0  0  0  0  0  0  0  0  0
   -1.6914    1.8316   -1.5520 C   0  0  0  0  0  0  0  0  0  0  0  0
   -2.0786    0.9718   -2.1381 H   0  0  0  0  0  0  0  0  0  0  0  0
   -1.4321    2.6450   -2.2666 H   0  0  0  0  0  0  0  0  0  0  0  0
    3.9652    0.4861    1.0104 C   0  0  0  0  0  0  0  0  0  0  0  0
    4.7872    0.0336    1.5825 H   0  0  0  0  0  0  0  0  0  0  0  0
    4.1767    1.6048    0.1870 C   0  0  0  0  0  0  0  0  0  0  0  0
    5.1755    2.0563    0.0977 H   0  0  0  0  0  0  0  0  0  0  0  0
    3.0918    2.1307   -0.5198 C   0  0  0  0  0  0  0  0  0  0  0  0
    3.2056    3.0024   -1.1801 H   0  0  0  0  0  0  0  0  0  0  0  0
   -2.7597    2.3221   -0.5644 C   0  0  0  0  0  0  0  0  0  0  0  0
   -3.6510    2.5974   -1.1669 H   0  0  0  0  0  0  0  0  0  0  0  0
   -3.0719    1.4758    0.0810 H   0  0  0  0  0  0  0  0  0  0  0  0
   -2.3062    3.5008    0.2944 C   0  0  0  0  0  0  0  0  0  0  0  0
   -1.9806    4.3603   -0.3292 H   0  0  0  0  0  0  0  0  0  0  0  0
   -1.4617    3.2189    0.9551 H   0  0  0  0  0  0  0  0  0  0  0  0
   -3.1272    3.8538    0.9489 H   0  0  0  0  0  0  0  0  0  0  0  0
    1.6304    0.4366    0.4197 N   0  0  0  0  0  2  0  0  0  0  0  0
   -0.4815    1.3683   -0.8794 N   0  0  0  0  0  2  0  0  0  0  0  0
  1  2  1  0  0  0  0
  3 22  1  0  0  0  0
  4 23  1  0  0  0  0
  4  3  1  0  0  0  0
  5  4  1  0  0  0  0
  6 23  1  0  0  0  0
  6 15  1  0  0  0  0
  7  6  1  0  0  0  0
  8  6  1  0  0  0  0
  9  1  1  0  0  0  0
  9 10  1  0  0  0  0
 11  9  2  0  0  0  0
 12 11  1  0  0  0  0
 13  3  2  0  0  0  0
 13 11  1  0  0  0  0
 14 13  1  0  0  0  0
 15 17  1  0  0  0  0
 15 18  1  0  0  0  0
 16 15  1  0  0  0  0
 18 21  1  0  0  0  0
 18 20  1  0  0  0  0
 19 18  1  0  0  0  0
 22  1  1  0  0  0  0
M  END
