3,4
 OpenBabel05122313053D

 40 41  0  0  0  0  0  0  0  0999 V2000
   -3.5670    3.1148    1.0600 O   0  0  0  0  0  0  0  0  0  0  0  0
    4.1814    1.0143    0.4850 O   0  0  0  0  0  0  0  0  0  0  0  0
   -1.3286    0.7134    1.7290 N   0  0  0  0  0  0  0  0  0  0  0  0
    1.2722   -0.6021    2.0578 N   0  0  0  0  0  0  0  0  0  0  0  0
   -3.5817    2.3038   -0.0374 C   0  0  0  0  0  0  0  0  0  0  0  0
   -3.9273    2.7755   -1.3187 C   0  0  0  0  0  0  0  0  0  0  0  0
   -4.2051    3.8343   -1.4502 H   0  0  0  0  0  0  0  0  0  0  0  0
   -3.9114    1.9066   -2.4187 C   0  0  0  0  0  0  0  0  0  0  0  0
   -4.1815    2.2894   -3.4145 H   0  0  0  0  0  0  0  0  0  0  0  0
   -3.5620    0.5581   -2.2455 C   0  0  0  0  0  0  0  0  0  0  0  0
   -3.5676   -0.1324   -3.1023 H   0  0  0  0  0  0  0  0  0  0  0  0
   -3.2182    0.0983   -0.9648 C   0  0  0  0  0  0  0  0  0  0  0  0
   -2.9563   -0.9583   -0.8043 H   0  0  0  0  0  0  0  0  0  0  0  0
   -3.2112    0.9520    0.1507 C   0  0  0  0  0  0  0  0  0  0  0  0
   -2.7622    0.4623    1.5033 C   0  0  0  0  0  0  0  0  0  0  0  0
   -3.3870    0.9319    2.3007 H   0  0  0  0  0  0  0  0  0  0  0  0
   -2.9205   -0.6352    1.5631 H   0  0  0  0  0  0  0  0  0  0  0  0
   -0.8587    0.2004    3.0155 C   0  0  0  0  0  0  0  0  0  0  0  0
   -1.2356   -0.8437    3.1108 H   0  0  0  0  0  0  0  0  0  0  0  0
   -1.2842    0.7638    3.8823 H   0  0  0  0  0  0  0  0  0  0  0  0
    0.6655    0.1966    3.1223 C   0  0  0  0  0  0  0  0  0  0  0  0
    1.0548    1.2342    3.0325 H   0  0  0  0  0  0  0  0  0  0  0  0
    0.9451   -0.1676    4.1430 H   0  0  0  0  0  0  0  0  0  0  0  0
    2.7454   -0.7087    2.1516 C   0  0  0  0  0  0  0  0  0  0  0  0
    3.0351   -1.3655    3.0086 H   0  0  0  0  0  0  0  0  0  0  0  0
    3.1436    0.3056    2.3480 H   0  0  0  0  0  0  0  0  0  0  0  0
    3.3522   -1.1901    0.8602 C   0  0  0  0  0  0  0  0  0  0  0  0
    3.2377   -2.5202    0.4237 C   0  0  0  0  0  0  0  0  0  0  0  0
    2.7526   -3.2598    1.0822 H   0  0  0  0  0  0  0  0  0  0  0  0
    3.7043   -2.9190   -0.8407 C   0  0  0  0  0  0  0  0  0  0  0  0
    3.6153   -3.9670   -1.1641 H   0  0  0  0  0  0  0  0  0  0  0  0
    4.2880   -1.9556   -1.6842 C   0  0  0  0  0  0  0  0  0  0  0  0
    4.6523   -2.2486   -2.6822 H   0  0  0  0  0  0  0  0  0  0  0  0
    4.4303   -0.6273   -1.2621 C   0  0  0  0  0  0  0  0  0  0  0  0
    4.9120    0.1232   -1.9073 H   0  0  0  0  0  0  0  0  0  0  0  0
    3.9989   -0.2173    0.0305 C   0  0  0  0  0  0  0  0  0  0  0  0
    0.8698   -1.5509    2.0496 H   0  0  0  0  0  0  0  0  0  0  0  0
   -1.1353    1.7281    1.6607 H   0  0  0  0  0  0  0  0  0  0  0  0
    3.7437    1.7786   -0.2106 H   0  0  0  0  0  0  0  0  0  0  0  0
   -3.7905    4.0231    0.7845 H   0  0  0  0  0  0  0  0  0  0  0  0
  3 18  1  0  0  0  0
  4 24  1  0  0  0  0
  4 21  1  0  0  0  0
  5 14  1  0  0  0  0
  5  1  1  0  0  0  0
  6  5  2  0  0  0  0
  7  6  1  0  0  0  0
  8 10  2  0  0  0  0
  8  6  1  0  0  0  0
  9  8  1  0  0  0  0
 10 12  1  0  0  0  0
 11 10  1  0  0  0  0
 12 13  1  0  0  0  0
 12 14  2  0  0  0  0
 14 15  1  0  0  0  0
 15 17  1  0  0  0  0
 15  3  1  0  0  0  0
 15 16  1  0  0  0  0
 18 19  1  0  0  0  0
 18 21  1  0  0  0  0
 18 20  1  0  0  0  0
 21 23  1  0  0  0  0
 22 21  1  0  0  0  0
 24 26  1  0  0  0  0
 24 25  1  0  0  0  0
 27 24  1  0  0  0  0
 28 27  1  0  0  0  0
 28 29  1  0  0  0  0
 30 28  2  0  0  0  0
 31 30  1  0  0  0  0
 32 34  2  0  0  0  0
 32 30  1  0  0  0  0
 33 32  1  0  0  0  0
 34 36  1  0  0  0  0
 35 34  1  0  0  0  0
 36  2  1  0  0  0  0
 36 27  2  0  0  0  0
 37  4  1  0  0  0  0
 38  3  1  0  0  0  0
 39  2  1  0  0  0  0
 40  1  1  0  0  0  0
M  END
