1,3
 OpenBabel05122313053D

 25 26  0  0  1  0  0  0  0  0999 V2000
    1.2629   -1.3697   -1.1586 N   0  0  0  0  0  2  0  0  0  0  0  0
   -0.9764    0.0135   -2.7593 N   0  0  0  0  0  0  0  0  0  0  0  0
   -1.0607    0.4462   -1.5182 N   0  0  0  0  0  2  0  0  0  0  0  0
   -0.0722   -0.8592   -3.1712 C   0  0  0  0  0  0  0  0  0  0  0  0
   -0.1573   -1.0982   -4.2450 H   0  0  0  0  0  0  0  0  0  0  0  0
    1.0250   -1.5214   -2.5012 C   0  0  1  0  0  3  0  0  0  0  0  0
    1.9028   -2.3443   -3.2673 C   0  0  0  0  0  0  0  0  0  0  0  0
    1.7033   -2.4688   -4.3416 H   0  0  0  0  0  0  0  0  0  0  0  0
    2.9916   -2.9629   -2.6663 C   0  0  0  0  0  0  0  0  0  0  0  0
    3.6686   -3.5943   -3.2618 H   0  0  0  0  0  0  0  0  0  0  0  0
    3.2258   -2.7663   -1.2872 C   0  0  0  0  0  0  0  0  0  0  0  0
    4.0822   -3.2240   -0.7739 H   0  0  0  0  0  0  0  0  0  0  0  0
    2.3322   -1.9634   -0.5833 C   0  0  0  0  0  0  0  0  0  0  0  0
    2.4624   -1.7648    0.4937 H   0  0  0  0  0  0  0  0  0  0  0  0
   -2.0846    1.3869   -1.2756 C   0  0  0  0  0  0  0  0  0  0  0  0
   -3.0298    1.7700   -2.2564 C   0  0  0  0  0  0  0  0  0  0  0  0
   -2.9492    1.3200   -3.2547 H   0  0  0  0  0  0  0  0  0  0  0  0
   -4.0287    2.6970   -1.9411 C   0  0  0  0  0  0  0  0  0  0  0  0
   -4.7591    2.9854   -2.7135 H   0  0  0  0  0  0  0  0  0  0  0  0
   -4.1112    3.2618   -0.6553 C   0  0  0  0  0  0  0  0  0  0  0  0
   -4.9004    3.9902   -0.4162 H   0  0  0  0  0  0  0  0  0  0  0  0
   -3.1712    2.8873    0.3186 C   0  0  0  0  0  0  0  0  0  0  0  0
   -3.2148    3.3246    1.3278 H   0  0  0  0  0  0  0  0  0  0  0  0
   -2.1666    1.9608    0.0145 C   0  0  0  0  0  0  0  0  0  0  0  0
   -1.4243    1.6839    0.7818 H   0  0  0  0  0  0  0  0  0  0  0  0
  1 13  1  0  0  0  0
  2  3  1  0  0  0  0
  3 15  1  0  0  0  0
  4  2  2  0  0  0  0
  5  4  1  0  0  0  0
  6  4  1  6  0  0  0
  6  1  1  0  0  0  0
  7  9  2  0  0  0  0
  7  6  1  0  0  0  0
  8  7  1  0  0  0  0
  9 11  1  0  0  0  0
 10  9  1  0  0  0  0
 11 12  1  0  0  0  0
 11 13  2  0  0  0  0
 13 14  1  0  0  0  0
 15 24  1  0  0  0  0
 16 18  1  0  0  0  0
 16 15  2  0  0  0  0
 17 16  1  0  0  0  0
 18 20  2  0  0  0  0
 19 18  1  0  0  0  0
 20 21  1  0  0  0  0
 20 22  1  0  0  0  0
 22 23  1  0  0  0  0
 24 22  2  0  0  0  0
 24 25  1  0  0  0  0
M  END
