1,2
 OpenBabel05122313053D

 24 25  0  0  0  0  0  0  0  0999 V2000
    1.8903   -0.6387   -0.1367 N   0  0  0  0  0  2  0  0  0  0  0  0
   -0.6652   -0.9879   -0.0786 N   0  0  0  0  0  2  0  0  0  0  0  0
    3.2104   -0.3765   -0.0551 C   0  0  0  0  0  3  0  0  0  0  0  0
    3.4980    0.6814    0.0161 H   0  0  0  0  0  0  0  0  0  0  0  0
    4.1702   -1.3954   -0.0479 C   0  0  0  0  0  0  0  0  0  0  0  0
    5.2350   -1.1295    0.0099 H   0  0  0  0  0  0  0  0  0  0  0  0
    3.7546   -2.7356   -0.1082 C   0  0  0  0  0  0  0  0  0  0  0  0
    4.4911   -3.5521   -0.1013 H   0  0  0  0  0  0  0  0  0  0  0  0
    2.3854   -3.0134   -0.1598 C   0  0  0  0  0  0  0  0  0  0  0  0
    2.0093   -4.0461   -0.1807 H   0  0  0  0  0  0  0  0  0  0  0  0
    1.4709   -1.9446   -0.1659 C   0  0  0  0  0  0  0  0  0  0  0  0
    0.0361   -2.0913   -0.1481 C   0  0  0  0  0  3  0  0  0  0  0  0
   -0.4505   -3.0809   -0.1444 H   0  0  0  0  0  0  0  0  0  0  0  0
   -2.0882   -1.0343   -0.0377 C   0  0  0  0  0  0  0  0  0  0  0  0
   -2.8020   -1.7502   -1.0201 C   0  0  0  0  0  0  0  0  0  0  0  0
   -2.2602   -2.2522   -1.8359 H   0  0  0  0  0  0  0  0  0  0  0  0
   -4.2031   -1.7779   -0.9673 C   0  0  0  0  0  0  0  0  0  0  0  0
   -4.7648   -2.3215   -1.7412 H   0  0  0  0  0  0  0  0  0  0  0  0
   -4.8843   -1.1101    0.0627 C   0  0  0  0  0  0  0  0  0  0  0  0
   -5.9831   -1.1369    0.1015 H   0  0  0  0  0  0  0  0  0  0  0  0
   -4.1629   -0.4076    1.0446 C   0  0  0  0  0  0  0  0  0  0  0  0
   -4.6959    0.0990    1.8628 H   0  0  0  0  0  0  0  0  0  0  0  0
   -2.7647   -0.3547    0.9964 C   0  0  0  0  0  0  0  0  0  0  0  0
   -2.1729    0.1613    1.7672 H   0  0  0  0  0  0  0  0  0  0  0  0
  1  3  1  0  0  0  0
  2 14  1  0  0  0  0
  3  5  1  0  0  0  0
  3  4  1  0  0  0  0
  5  6  1  0  0  0  0
  7  8  1  0  0  0  0
  7  5  2  0  0  0  0
  9  7  1  0  0  0  0
 10  9  1  0  0  0  0
 11  9  2  0  0  0  0
 11 12  1  0  0  0  0
 11  1  1  0  0  0  0
 12 13  1  0  0  0  0
 12  2  1  0  0  0  0
 14 23  1  0  0  0  0
 15 17  1  0  0  0  0
 15 14  2  0  0  0  0
 16 15  1  0  0  0  0
 17 19  2  0  0  0  0
 18 17  1  0  0  0  0
 19 20  1  0  0  0  0
 19 21  1  0  0  0  0
 21 22  1  0  0  0  0
 23 21  2  0  0  0  0
 23 24  1  0  0  0  0
M  END
