1,2
 OpenBabel05122313053D

 58 64  0  0  1  0  0  0  0  0999 V2000
    1.3101    0.1731   -0.3374 N   0  0  0  0  0  2  0  0  0  0  0  0
   -1.3102    0.1732    0.3370 N   0  0  0  0  0  2  0  0  0  0  0  0
    3.2711   -1.2625   -0.7099 C   0  0  0  0  0  0  0  0  0  0  0  0
    2.8672   -1.6947   -1.6521 H   0  0  0  0  0  0  0  0  0  0  0  0
    2.9303   -1.9445    0.1028 H   0  0  0  0  0  0  0  0  0  0  0  0
    4.7983   -1.1269   -0.7726 C   0  0  2  0  0  0  0  0  0  0  0  0
    5.2842   -2.1096   -0.9372 H   0  0  0  0  0  0  0  0  0  0  0  0
    5.3330   -0.2524    0.4233 C   0  0  0  0  0  0  0  0  0  0  0  0
    4.9419    0.9846   -0.4910 C   0  0  2  0  0  0  0  0  0  0  0  0
    5.5407    1.9128   -0.3951 H   0  0  0  0  0  0  0  0  0  0  0  0
    3.4654    1.2368   -0.3727 C   0  0  0  0  0  0  0  0  0  0  0  0
    2.8578    2.4789   -0.1462 C   0  0  0  0  0  0  0  0  0  0  0  0
    3.4802    3.3845   -0.0576 H   0  0  0  0  0  0  0  0  0  0  0  0
    1.4600    2.5712   -0.0151 C   0  0  0  0  0  0  0  0  0  0  0  0
    0.7089    3.8461    0.2981 C   0  0  0  0  0  0  0  0  0  0  0  0
    0.6387    3.9475    1.4057 H   0  0  0  0  0  0  0  0  0  0  0  0
    1.2798    4.7264   -0.0588 H   0  0  0  0  0  0  0  0  0  0  0  0
   -0.7090    3.8461   -0.2986 C   0  0  0  0  0  0  0  0  0  0  0  0
   -0.6388    3.9475   -1.4062 H   0  0  0  0  0  0  0  0  0  0  0  0
   -1.2798    4.7265    0.0583 H   0  0  0  0  0  0  0  0  0  0  0  0
   -1.4600    2.5712    0.0146 C   0  0  0  0  0  0  0  0  0  0  0  0
   -2.8579    2.4790    0.1459 C   0  0  0  0  0  0  0  0  0  0  0  0
   -3.4803    3.3845    0.0573 H   0  0  0  0  0  0  0  0  0  0  0  0
   -3.4655    1.2369    0.3725 C   0  0  0  0  0  0  0  0  0  0  0  0
   -4.9419    0.9847    0.4910 C   0  0  1  0  0  0  0  0  0  0  0  0
   -5.5408    1.9129    0.3951 H   0  0  0  0  0  0  0  0  0  0  0  0
   -5.3330   -0.2524   -0.4231 C   0  0  0  0  0  0  0  0  0  0  0  0
   -4.7983   -1.1268    0.7729 C   0  0  1  0  0  0  0  0  0  0  0  0
   -5.2843   -2.1094    0.9377 H   0  0  0  0  0  0  0  0  0  0  0  0
   -3.2711   -1.2624    0.7100 C   0  0  0  0  0  0  0  0  0  0  0  0
   -2.8671   -1.6944    1.6523 H   0  0  0  0  0  0  0  0  0  0  0  0
   -2.9305   -1.9446   -0.1026 H   0  0  0  0  0  0  0  0  0  0  0  0
   -2.6378    0.0870    0.4801 C   0  0  1  0  0  3  0  0  0  0  0  0
   -0.7281    1.3708    0.1006 C   0  0  0  0  0  0  0  0  0  0  0  0
    0.7280    1.3708   -0.1011 C   0  0  2  0  0  3  0  0  0  0  0  0
    2.6377    0.0869   -0.4804 C   0  0  0  0  0  0  0  0  0  0  0  0
    5.1672    0.0486   -1.7178 C   0  0  0  0  0  0  0  0  0  0  0  0
    4.5194    0.2178   -2.6018 H   0  0  0  0  0  0  0  0  0  0  0  0
    6.2227    0.0284   -2.0438 H   0  0  0  0  0  0  0  0  0  0  0  0
   -5.1671    0.0489    1.7180 C   0  0  0  0  0  0  0  0  0  0  0  0
   -4.5191    0.2183    2.6018 H   0  0  0  0  0  0  0  0  0  0  0  0
   -6.2225    0.0288    2.0442 H   0  0  0  0  0  0  0  0  0  0  0  0
    6.8530   -0.3615    0.5885 C   0  0  0  0  0  0  0  0  0  0  0  0
    7.1204   -1.3518    1.0112 H   0  0  0  0  0  0  0  0  0  0  0  0
    7.2233    0.4130    1.2918 H   0  0  0  0  0  0  0  0  0  0  0  0
    7.4065   -0.2435   -0.3630 H   0  0  0  0  0  0  0  0  0  0  0  0
    4.6709   -0.3967    1.7937 C   0  0  0  0  0  0  0  0  0  0  0  0
    3.5647   -0.4195    1.7686 H   0  0  0  0  0  0  0  0  0  0  0  0
    4.9799    0.4351    2.4608 H   0  0  0  0  0  0  0  0  0  0  0  0
    4.9941   -1.3442    2.2718 H   0  0  0  0  0  0  0  0  0  0  0  0
   -6.8530   -0.3615   -0.5885 C   0  0  0  0  0  0  0  0  0  0  0  0
   -7.4066   -0.2434    0.3630 H   0  0  0  0  0  0  0  0  0  0  0  0
   -7.1204   -1.3519   -1.0110 H   0  0  0  0  0  0  0  0  0  0  0  0
   -7.2233    0.4129   -1.2919 H   0  0  0  0  0  0  0  0  0  0  0  0
   -4.6708   -0.3968   -1.7934 C   0  0  0  0  0  0  0  0  0  0  0  0
   -4.9796    0.4349   -2.4607 H   0  0  0  0  0  0  0  0  0  0  0  0
   -4.9940   -1.3444   -2.2714 H   0  0  0  0  0  0  0  0  0  0  0  0
   -3.5646   -0.4197   -1.7681 H   0  0  0  0  0  0  0  0  0  0  0  0
  3 36  1  0  0  0  0
  3  5  1  0  0  0  0
  4  3  1  0  0  0  0
  6  7  1  6  0  0  0
  6  3  1  0  0  0  0
  6  8  1  0  0  0  0
  8 43  1  0  0  0  0
  8 47  1  0  0  0  0
  9 10  1  1  0  0  0
  9 11  1  0  0  0  0
  9  8  1  0  0  0  0
 11 12  1  0  0  0  0
 12 13  1  0  0  0  0
 12 14  2  0  0  0  0
 14 15  1  0  0  0  0
 15 16  1  0  0  0  0
 17 15  1  0  0  0  0
 18 21  1  0  0  0  0
 18 20  1  0  0  0  0
 18 15  1  0  0  0  0
 19 18  1  0  0  0  0
 21 34  2  0  0  0  0
 21 22  1  0  0  0  0
 22 24  2  0  0  0  0
 23 22  1  0  0  0  0
 24 33  1  0  0  0  0
 24 25  1  0  0  0  0
 25 26  1  6  0  0  0
 25 40  1  0  0  0  0
 27 25  1  0  0  0  0
 27 28  1  0  0  0  0
 28 29  1  1  0  0  0
 28 40  1  0  0  0  0
 30 28  1  0  0  0  0
 30 31  1  0  0  0  0
 32 30  1  0  0  0  0
 33  2  1  6  0  0  0
 33 30  1  0  0  0  0
 34  2  1  0  0  0  0
 35  1  1  1  0  0  0
 35 14  1  0  0  0  0
 35 34  1  0  0  0  0
 36 11  2  0  0  0  0
 36  1  1  0  0  0  0
 37  6  1  0  0  0  0
 37  9  1  0  0  0  0
 38 37  1  0  0  0  0
 39 37  1  0  0  0  0
 40 42  1  0  0  0  0
 40 41  1  0  0  0  0
 43 44  1  0  0  0  0
 43 45  1  0  0  0  0
 46 43  1  0  0  0  0
 47 50  1  0  0  0  0
 47 49  1  0  0  0  0
 48 47  1  0  0  0  0
 51 27  1  0  0  0  0
 51 52  1  0  0  0  0
 53 51  1  0  0  0  0
 54 51  1  0  0  0  0
 55 58  1  0  0  0  0
 55 27  1  0  0  0  0
 56 55  1  0  0  0  0
 57 55  1  0  0  0  0
M  END
