1,2
 OpenBabel05122313053D

 35 36  0  0  0  0  0  0  0  0999 V2000
   -0.0224   -0.3711    1.5987 N   0  0  0  0  0  2  0  0  0  0  0  0
    2.7354   -1.0518    0.7814 N   0  0  0  0  0  0  0  0  0  0  0  0
   -3.0682   -0.1838    0.6720 C   0  0  0  0  0  0  0  0  0  0  0  0
   -2.8965   -1.5953    0.7685 C   0  0  0  0  0  0  0  0  0  0  0  0
   -2.0454   -1.9943    1.3356 H   0  0  0  0  0  0  0  0  0  0  0  0
   -3.7712   -2.4651    0.1350 C   0  0  0  0  0  0  0  0  0  0  0  0
   -3.6139   -3.5513    0.2154 H   0  0  0  0  0  0  0  0  0  0  0  0
   -4.8639   -1.9652   -0.6221 C   0  0  0  0  0  0  0  0  0  0  0  0
   -5.5480   -2.6654   -1.1247 H   0  0  0  0  0  0  0  0  0  0  0  0
   -5.0674   -0.5981   -0.7235 C   0  0  0  0  0  0  0  0  0  0  0  0
   -5.9147   -0.1998   -1.3031 H   0  0  0  0  0  0  0  0  0  0  0  0
   -4.1883    0.3246   -0.0833 C   0  0  0  0  0  0  0  0  0  0  0  0
   -4.3836    1.7325   -0.1831 C   0  0  0  0  0  0  0  0  0  0  0  0
   -5.2332    2.1057   -0.7758 H   0  0  0  0  0  0  0  0  0  0  0  0
   -3.5260    2.6181    0.4513 C   0  0  0  0  0  0  0  0  0  0  0  0
   -3.6818    3.7033    0.3633 H   0  0  0  0  0  0  0  0  0  0  0  0
   -2.4326    2.1299    1.2068 C   0  0  0  0  0  0  0  0  0  0  0  0
   -1.7377    2.8368    1.6839 H   0  0  0  0  0  0  0  0  0  0  0  0
   -2.1820    0.7609    1.2963 C   0  0  0  0  0  0  0  0  0  0  0  0
   -1.0070    0.3184    2.0670 C   0  0  0  0  0  3  0  0  0  0  0  0
   -0.9768    0.6212    3.1399 H   0  0  0  0  0  0  0  0  0  0  0  0
    0.9933   -0.8203    2.5507 C   0  0  0  0  0  0  0  0  0  0  0  0
    0.8918   -1.9241    2.6458 H   0  0  0  0  0  0  0  0  0  0  0  0
    0.8135   -0.3913    3.5618 H   0  0  0  0  0  0  0  0  0  0  0  0
    2.3976   -0.4521    2.0901 C   0  0  0  0  0  0  0  0  0  0  0  0
    2.4502    0.6490    1.9660 H   0  0  0  0  0  0  0  0  0  0  0  0
    3.1396   -0.7605    2.8656 H   0  0  0  0  0  0  0  0  0  0  0  0
    3.9285   -0.3841    0.2256 C   0  0  0  0  0  0  0  0  0  0  0  0
    3.7069    0.6902    0.0747 H   0  0  0  0  0  0  0  0  0  0  0  0
    4.1793   -0.8324   -0.7529 H   0  0  0  0  0  0  0  0  0  0  0  0
    4.8000   -0.5073    0.9099 H   0  0  0  0  0  0  0  0  0  0  0  0
    3.0060   -2.4915    0.9010 C   0  0  0  0  0  0  0  0  0  0  0  0
    3.1900   -2.9160   -0.1034 H   0  0  0  0  0  0  0  0  0  0  0  0
    2.1430   -3.0235    1.3384 H   0  0  0  0  0  0  0  0  0  0  0  0
    3.9036   -2.6749    1.5370 H   0  0  0  0  0  0  0  0  0  0  0  0
  1 20  1  0  0  0  0
  1 22  1  0  0  0  0
  2 32  1  0  0  0  0
  2 25  1  0  0  0  0
  3  4  1  0  0  0  0
  3 19  1  0  0  0  0
  4  5  1  0  0  0  0
  6  7  1  0  0  0  0
  6  4  2  0  0  0  0
  8  6  1  0  0  0  0
  9  8  1  0  0  0  0
 10  8  2  0  0  0  0
 10 12  1  0  0  0  0
 11 10  1  0  0  0  0
 12  3  2  0  0  0  0
 13 12  1  0  0  0  0
 13 15  2  0  0  0  0
 14 13  1  0  0  0  0
 15 17  1  0  0  0  0
 16 15  1  0  0  0  0
 17 19  2  0  0  0  0
 17 18  1  0  0  0  0
 19 20  1  0  0  0  0
 20 21  1  0  0  0  0
 22 23  1  0  0  0  0
 22 24  1  0  0  0  0
 25 22  1  0  0  0  0
 25 27  1  0  0  0  0
 26 25  1  0  0  0  0
 28  2  1  0  0  0  0
 28 31  1  0  0  0  0
 29 28  1  0  0  0  0
 30 28  1  0  0  0  0
 32 34  1  0  0  0  0
 32 35  1  0  0  0  0
 33 32  1  0  0  0  0
M  END
