1,13
 OpenBabel05122313053D

 58 62  0  0  0  0  0  0  0  0999 V2000
    0.8903    1.3303    0.3771 N   0  0  0  0  0  2  0  0  0  0  0  0
    1.1368   -2.6686    0.1620 C   0  0  0  0  0  0  0  0  0  0  0  0
    0.6504   -3.3239   -0.9893 C   0  0  0  0  0  0  0  0  0  0  0  0
    0.1559   -2.7260   -1.7685 H   0  0  0  0  0  0  0  0  0  0  0  0
    0.8616   -4.7007   -1.1441 C   0  0  0  0  0  0  0  0  0  0  0  0
    0.4940   -5.2068   -2.0497 H   0  0  0  0  0  0  0  0  0  0  0  0
    1.5515   -5.4278   -0.1610 C   0  0  0  0  0  0  0  0  0  0  0  0
    1.7159   -6.5083   -0.2866 H   0  0  0  0  0  0  0  0  0  0  0  0
    2.0473   -4.7674    0.9760 C   0  0  0  0  0  0  0  0  0  0  0  0
    2.5983   -5.3302    1.7445 H   0  0  0  0  0  0  0  0  0  0  0  0
    1.8525   -3.3897    1.1376 C   0  0  0  0  0  0  0  0  0  0  0  0
    2.2476   -2.8549    2.0134 H   0  0  0  0  0  0  0  0  0  0  0  0
    0.9673   -1.2671    0.3026 N   0  0  0  0  0  2  0  0  0  0  0  0
    0.9791    2.7474    0.3154 C   0  0  0  0  0  0  0  0  0  0  0  0
    1.4769    3.4727    1.4136 C   0  0  0  0  0  0  0  0  0  0  0  0
    1.7714    2.9291    2.3232 H   0  0  0  0  0  0  0  0  0  0  0  0
    1.5939    4.8673    1.3273 C   0  0  0  0  0  0  0  0  0  0  0  0
    1.9785    5.4330    2.1894 H   0  0  0  0  0  0  0  0  0  0  0  0
    1.2301    5.5398    0.1493 C   0  0  0  0  0  0  0  0  0  0  0  0
    1.3306    6.6335    0.0849 H   0  0  0  0  0  0  0  0  0  0  0  0
    0.7548    4.8090   -0.9521 C   0  0  0  0  0  0  0  0  0  0  0  0
    0.4937    5.3269   -1.8877 H   0  0  0  0  0  0  0  0  0  0  0  0
    0.6278    3.4149   -0.8770 C   0  0  0  0  0  0  0  0  0  0  0  0
    0.3035    2.8146   -1.7399 H   0  0  0  0  0  0  0  0  0  0  0  0
   -0.2561   -0.7347    0.3366 C   0  0  0  0  0  0  0  0  0  0  0  0
   -0.3038    0.7314    0.3734 C   0  0  0  0  0  0  0  0  0  0  0  0
   -1.5648    1.3915    0.4027 C   0  0  0  0  0  0  0  0  0  0  0  0
   -1.5745    2.4843    0.4297 H   0  0  0  0  0  0  0  0  0  0  0  0
   -2.7478    0.6631    0.3449 C   0  0  0  0  0  0  0  0  0  0  0  0
   -2.6939   -0.8055    0.4499 C   0  0  0  0  0  0  0  0  0  0  0  0
   -1.4805   -1.4640    0.4321 C   0  0  0  0  0  0  0  0  0  0  0  0
   -1.4459   -2.5562    0.5275 H   0  0  0  0  0  0  0  0  0  0  0  0
   -4.0076    1.2020    0.2142 N   0  0  0  0  0  0  0  0  0  0  0  0
   -4.7470    0.4982    0.1394 H   0  0  0  0  0  0  0  0  0  0  0  0
   -4.4349    2.5231   -0.0112 C   0  0  0  0  0  0  0  0  0  0  0  0
   -3.6399    3.5183   -0.6240 C   0  0  0  0  0  0  0  0  0  0  0  0
   -2.6270    3.2917   -0.9771 H   0  0  0  0  0  0  0  0  0  0  0  0
   -4.1649    4.8021   -0.8293 C   0  0  0  0  0  0  0  0  0  0  0  0
   -3.5304    5.5634   -1.3076 H   0  0  0  0  0  0  0  0  0  0  0  0
   -5.4777    5.1171   -0.4486 C   0  0  0  0  0  0  0  0  0  0  0  0
   -5.8778    6.1283   -0.6126 H   0  0  0  0  0  0  0  0  0  0  0  0
   -6.2780    4.1228    0.1380 C   0  0  0  0  0  0  0  0  0  0  0  0
   -7.3130    4.3484    0.4362 H   0  0  0  0  0  0  0  0  0  0  0  0
   -5.7630    2.8416    0.3590 C   0  0  0  0  0  0  0  0  0  0  0  0
   -6.3877    2.0692    0.8352 H   0  0  0  0  0  0  0  0  0  0  0  0
   -3.9225   -1.4742    0.5725 N   0  0  0  0  0  0  0  0  0  0  0  0
   -4.5180   -1.1216    1.3289 H   0  0  0  0  0  0  0  0  0  0  0  0
   -4.1483   -2.8303    0.2659 C   0  0  0  0  0  0  0  0  0  0  0  0
   -5.0436   -3.5777    1.0609 C   0  0  0  0  0  0  0  0  0  0  0  0
   -5.5154   -3.1052    1.9376 H   0  0  0  0  0  0  0  0  0  0  0  0
   -5.3283   -4.9124    0.7440 C   0  0  0  0  0  0  0  0  0  0  0  0
   -6.0293   -5.4790    1.3754 H   0  0  0  0  0  0  0  0  0  0  0  0
   -4.7156   -5.5271   -0.3586 C   0  0  0  0  0  0  0  0  0  0  0  0
   -4.9310   -6.5781   -0.6002 H   0  0  0  0  0  0  0  0  0  0  0  0
   -3.8247   -4.7840   -1.1510 C   0  0  0  0  0  0  0  0  0  0  0  0
   -3.3423   -5.2500   -2.0235 H   0  0  0  0  0  0  0  0  0  0  0  0
   -3.5433   -3.4455   -0.8533 C   0  0  0  0  0  0  0  0  0  0  0  0
   -2.8587   -2.8703   -1.4922 H   0  0  0  0  0  0  0  0  0  0  0  0
  2 13  1  0  0  0  0
  2 11  1  0  0  0  0
  3  2  2  0  0  0  0
  4  3  1  0  0  0  0
  5  3  1  0  0  0  0
  5  7  2  0  0  0  0
  6  5  1  0  0  0  0
  7  9  1  0  0  0  0
  8  7  1  0  0  0  0
  9 11  2  0  0  0  0
  9 10  1  0  0  0  0
 11 12  1  0  0  0  0
 13 25  1  0  0  0  0
 14  1  1  0  0  0  0
 14 15  1  0  0  0  0
 15 16  1  0  0  0  0
 17 15  2  0  0  0  0
 17 18  1  0  0  0  0
 19 17  1  0  0  0  0
 20 19  1  0  0  0  0
 21 23  1  0  0  0  0
 21 19  2  0  0  0  0
 22 21  1  0  0  0  0
 23 14  2  0  0  0  0
 24 23  1  0  0  0  0
 25 26  2  0  0  0  0
 25 31  1  0  0  0  0
 26  1  1  0  0  0  0
 26 27  1  0  0  0  0
 27 28  1  0  0  0  0
 29 27  2  0  0  0  0
 29 30  1  0  0  0  0
 30 46  1  0  0  0  0
 31 30  2  0  0  0  0
 31 32  1  0  0  0  0
 33 29  1  0  0  0  0
 34 33  1  0  0  0  0
 35 33  1  0  0  0  0
 35 44  1  0  0  0  0
 36 35  2  0  0  0  0
 37 36  1  0  0  0  0
 38 36  1  0  0  0  0
 38 40  2  0  0  0  0
 39 38  1  0  0  0  0
 40 42  1  0  0  0  0
 41 40  1  0  0  0  0
 42 44  2  0  0  0  0
 42 43  1  0  0  0  0
 44 45  1  0  0  0  0
 46 47  1  0  0  0  0
 48 46  1  0  0  0  0
 48 49  1  0  0  0  0
 49 50  1  0  0  0  0
 51 49  2  0  0  0  0
 51 52  1  0  0  0  0
 53 51  1  0  0  0  0
 54 53  1  0  0  0  0
 55 57  1  0  0  0  0
 55 53  2  0  0  0  0
 56 55  1  0  0  0  0
 57 48  2  0  0  0  0
 58 57  1  0  0  0  0
M  END
