3,4
 OpenBabel05122313053D

 18 19  0  0  1  0  0  0  0  0999 V2000
    4.0502    2.3898    0.7010 S   0  0  0  0  0  0  0  0  0  0  0  0
    2.1886   -3.0016   -2.4467 S   0  0  0  0  0  0  0  0  0  0  0  0
    1.9091    1.0164    0.2111 N   0  0  0  0  0  2  0  0  0  0  0  0
    1.1779   -1.1279   -0.9702 N   0  0  0  0  0  2  0  0  0  0  0  0
    1.4625    3.0362    1.3551 N   0  0  0  0  0  0  0  0  0  0  0  0
   -0.4473   -2.5948   -1.9301 N   0  0  0  0  0  0  0  0  0  0  0  0
    2.3029    2.1582    0.7882 C   0  0  2  0  0  3  0  0  0  0  0  0
    4.2110    0.8746   -0.1537 C   0  0  0  0  0  0  0  0  0  0  0  0
    5.1906    0.5285   -0.4988 H   0  0  0  0  0  0  0  0  0  0  0  0
    2.9782    0.2951   -0.3217 C   0  0  0  0  0  0  0  0  0  0  0  0
    2.5621   -0.9185   -1.0034 C   0  0  0  0  0  0  0  0  0  0  0  0
    3.2720   -1.8400   -1.7309 C   0  0  0  0  0  0  0  0  0  0  0  0
    4.3489   -1.8867   -1.9225 H   0  0  0  0  0  0  0  0  0  0  0  0
    0.8163   -2.1688   -1.7225 C   0  0  2  0  0  3  0  0  0  0  0  0
    1.8239    3.8031    1.9201 H   0  0  0  0  0  0  0  0  0  0  0  0
    0.5162    2.6268    1.5485 H   0  0  0  0  0  0  0  0  0  0  0  0
   -1.2138   -1.9751   -1.6594 H   0  0  0  0  0  0  0  0  0  0  0  0
   -0.6334   -3.3022   -2.6386 H   0  0  0  0  0  0  0  0  0  0  0  0
  1  7  1  0  0  0  0
  2 12  1  0  0  0  0
  2 14  1  0  0  0  0
  3  7  1  0  0  0  0
  5 16  1  0  0  0  0
  5 15  1  0  0  0  0
  6 17  1  0  0  0  0
  7  5  1  6  0  0  0
  8  1  1  0  0  0  0
  9  8  1  0  0  0  0
 10  8  2  0  0  0  0
 10  3  1  0  0  0  0
 11  4  1  0  0  0  0
 11 10  1  0  0  0  0
 12 11  2  0  0  0  0
 13 12  1  0  0  0  0
 14  6  1  1  0  0  0
 14  4  1  0  0  0  0
 18  6  1  0  0  0  0
M  END
