1,3
 OpenBabel05122313053D

 17 17  0  0  0  0  0  0  0  0999 V2000
   -2.0771    0.1554   -0.1373 N   0  0  0  0  0  2  0  0  0  0  0  0
   -2.9898   -0.7264    0.3457 N   0  0  0  0  0  0  0  0  0  0  0  0
   -0.4272   -2.3653   -0.2584 N   0  0  0  0  0  0  0  0  0  0  0  0
   -0.0725   -2.6435   -1.1853 H   0  0  0  0  0  0  0  0  0  0  0  0
    0.2542   -2.7589    0.4132 H   0  0  0  0  0  0  0  0  0  0  0  0
   -2.7710    1.1889   -0.6542 C   0  0  0  0  0  3  0  0  0  0  0  0
   -2.2200    2.0369   -1.0774 H   0  0  0  0  0  0  0  0  0  0  0  0
   -4.1555    0.9637   -0.5012 C   0  0  0  0  0  0  0  0  0  0  0  0
   -4.9740    1.6190   -0.8138 H   0  0  0  0  0  0  0  0  0  0  0  0
   -4.2598   -0.2693    0.1371 C   0  0  0  0  0  0  0  0  0  0  0  0
   -5.1274   -0.8503    0.4677 H   0  0  0  0  0  0  0  0  0  0  0  0
   -2.5703   -1.9786    0.9506 C   0  0  0  0  0  0  0  0  0  0  0  0
   -3.4893   -2.4958    1.2855 H   0  0  0  0  0  0  0  0  0  0  0  0
   -1.9483   -1.7592    1.8447 H   0  0  0  0  0  0  0  0  0  0  0  0
   -1.7982   -2.8681   -0.0280 C   0  0  0  0  0  0  0  0  0  0  0  0
   -1.7731   -3.9058    0.3677 H   0  0  0  0  0  0  0  0  0  0  0  0
   -2.3381   -2.8915   -0.9953 H   0  0  0  0  0  0  0  0  0  0  0  0
  1  2  1  0  0  0  0
  2 12  1  0  0  0  0
  3 15  1  0  0  0  0
  3  5  1  0  0  0  0
  4  3  1  0  0  0  0
  6  8  1  0  0  0  0
  6  1  1  0  0  0  0
  7  6  1  0  0  0  0
  8 10  2  0  0  0  0
  9  8  1  0  0  0  0
 10  2  1  0  0  0  0
 10 11  1  0  0  0  0
 12 13  1  0  0  0  0
 12 14  1  0  0  0  0
 15 16  1  0  0  0  0
 15 12  1  0  0  0  0
 17 15  1  0  0  0  0
M  END
