10,11
 OpenBabel05122313053D

 32 34  0  0  1  0  0  0  0  0999 V2000
    1.0522   -0.0118   -0.9890 O   0  0  0  0  0  0  0  0  0  0  0  0
    3.1890    1.1728   -1.1093 O   0  0  0  0  0  0  0  0  0  0  0  0
    3.1645   -1.2501   -1.1114 O   0  0  0  0  0  0  0  0  0  0  0  0
    1.1893    2.2560   -1.9182 O   0  0  0  0  0  0  0  0  0  0  0  0
    1.7688    2.2232   -2.6998 H   0  0  0  0  0  0  0  0  0  0  0  0
    1.1361   -2.2857   -1.8920 O   0  0  0  0  0  0  0  0  0  0  0  0
    1.8024   -2.4217   -2.5884 H   0  0  0  0  0  0  0  0  0  0  0  0
    5.1989   -0.0847   -1.2997 O   0  0  0  0  0  0  0  0  0  0  0  0
    5.5226    0.8324   -1.3293 H   0  0  0  0  0  0  0  0  0  0  0  0
    0.2215   -1.4027    1.1375 N   0  0  0  0  0  2  0  0  0  0  0  0
    0.2320    1.4214    1.1124 N   0  0  0  0  0  2  0  0  0  0  0  0
   -0.1838   -1.7613    2.3791 C   0  0  0  0  0  3  0  0  0  0  0  0
   -1.1149   -1.3015    2.7421 H   0  0  0  0  0  0  0  0  0  0  0  0
    0.5439   -2.6617    3.1567 C   0  0  0  0  0  0  0  0  0  0  0  0
    0.1851   -2.9287    4.1609 H   0  0  0  0  0  0  0  0  0  0  0  0
    1.7337   -3.1953    2.6291 C   0  0  0  0  0  0  0  0  0  0  0  0
    2.3355   -3.9023    3.2214 H   0  0  0  0  0  0  0  0  0  0  0  0
    2.1368   -2.8084    1.3481 C   0  0  0  0  0  0  0  0  0  0  0  0
    3.0662   -3.1855    0.8959 H   0  0  0  0  0  0  0  0  0  0  0  0
    1.3655   -1.9048    0.5917 C   0  0  0  0  0  0  0  0  0  0  0  0
    1.3807    1.9072    0.5607 C   0  0  1  0  0  3  0  0  0  0  0  0
    2.1512    2.8237    1.3013 C   0  0  0  0  0  0  0  0  0  0  0  0
    3.0812    3.1929    0.8442 H   0  0  0  0  0  0  0  0  0  0  0  0
    1.7469    3.2375    2.5737 C   0  0  0  0  0  0  0  0  0  0  0  0
    2.3486    3.9555    3.1527 H   0  0  0  0  0  0  0  0  0  0  0  0
    0.5550    2.7171    3.1087 C   0  0  0  0  0  0  0  0  0  0  0  0
    0.1948    3.0042    4.1068 H   0  0  0  0  0  0  0  0  0  0  0  0
   -0.1740    1.8049    2.3461 C   0  0  0  0  0  0  0  0  0  0  0  0
   -1.1081    1.3562    2.7148 H   0  0  0  0  0  0  0  0  0  0  0  0
    1.7366   -1.3779   -0.9172 B   0  0  2  0  0  0  0  0  0  0  0  0
    1.7570    1.3436   -0.9327 B   0  0  1  0  0  0  0  0  0  0  0  0
    3.8181   -0.0502   -1.1672 B   0  0  0  0  0  0  0  0  0  0  0  0
  1 31  1  0  0  0  0
  1 30  1  0  0  0  0
  2 31  1  0  0  0  0
  3 30  1  0  0  0  0
  5  4  1  0  0  0  0
  7  6  1  0  0  0  0
  8 32  1  0  0  0  0
  9  8  1  0  0  0  0
 10 12  1  0  0  0  0
 11 28  1  0  0  0  0
 12 13  1  0  0  0  0
 12 14  1  0  0  0  0
 14 15  1  0  0  0  0
 16 14  2  0  0  0  0
 16 17  1  0  0  0  0
 18 16  1  0  0  0  0
 19 18  1  0  0  0  0
 20 10  1  0  0  0  0
 20 18  2  0  0  0  0
 21 11  1  1  0  0  0
 21 22  1  0  0  0  0
 22 24  2  0  0  0  0
 23 22  1  0  0  0  0
 24 26  1  0  0  0  0
 24 25  1  0  0  0  0
 26 27  1  0  0  0  0
 28 29  1  0  0  0  0
 28 26  2  0  0  0  0
 30  6  1  6  0  0  0
 30 20  1  0  0  0  0
 31  4  1  6  0  0  0
 31 21  1  0  0  0  0
 32  3  1  0  0  0  0
 32  2  1  0  0  0  0
M  END
