1,2
 OpenBabel05122313053D

 30 31  0  0  1  0  0  0  0  0999 V2000
    1.3600    0.0086    0.0987 N   0  0  0  0  0  2  0  0  0  0  0  0
   -0.8578    1.5580   -0.3157 N   0  0  0  0  0  2  0  0  0  0  0  0
   -1.5969    1.7511   -1.0032 H   0  0  0  0  0  0  0  0  0  0  0  0
    3.2180    1.2128    0.3744 O   0  0  0  0  0  0  0  0  0  0  0  0
   -0.2408    3.7888   -0.5238 O   0  0  0  0  0  0  0  0  0  0  0  0
    2.4415   -0.7887   -0.3068 C   0  0  0  0  0  0  0  0  0  0  0  0
    2.5223   -2.0724   -0.8681 C   0  0  0  0  0  0  0  0  0  0  0  0
    1.6160   -2.6466   -1.0972 H   0  0  0  0  0  0  0  0  0  0  0  0
    3.8060   -2.5485   -1.1638 C   0  0  0  0  0  0  0  0  0  0  0  0
    3.9173   -3.5465   -1.6121 H   0  0  0  0  0  0  0  0  0  0  0  0
    4.9666   -1.7747   -0.9204 C   0  0  0  0  0  0  0  0  0  0  0  0
    5.9521   -2.1931   -1.1714 H   0  0  0  0  0  0  0  0  0  0  0  0
    4.8931   -0.4784   -0.3879 C   0  0  0  0  0  0  0  0  0  0  0  0
    5.7827    0.1424   -0.2170 H   0  0  0  0  0  0  0  0  0  0  0  0
    3.6058   -0.0239   -0.1048 C   0  0  0  0  0  0  0  0  0  0  0  0
    1.8681    1.1741    0.4583 C   0  0  1  0  0  3  0  0  0  0  0  0
    1.1310    2.4218    0.8880 C   0  0  0  0  0  0  0  0  0  0  0  0
   -0.0789    2.5573   -0.0464 C   0  0  1  0  0  3  0  0  0  0  0  0
    2.0621    3.6441    0.7837 C   0  0  0  0  0  0  0  0  0  0  0  0
    1.5193    4.5547    1.0927 H   0  0  0  0  0  0  0  0  0  0  0  0
    2.4352    3.7928   -0.2462 H   0  0  0  0  0  0  0  0  0  0  0  0
    2.9305    3.5056    1.4531 H   0  0  0  0  0  0  0  0  0  0  0  0
    0.6198    2.2752    2.3468 C   0  0  0  0  0  0  0  0  0  0  0  0
    0.0662    3.1880    2.6402 H   0  0  0  0  0  0  0  0  0  0  0  0
    1.4789    2.1517    3.0340 H   0  0  0  0  0  0  0  0  0  0  0  0
   -0.0481    1.4015    2.4445 H   0  0  0  0  0  0  0  0  0  0  0  0
   -1.3099    4.0485   -1.4462 C   0  0  0  0  0  0  0  0  0  0  0  0
   -1.2082    5.1082   -1.7360 H   0  0  0  0  0  0  0  0  0  0  0  0
   -2.2960    3.8897   -0.9606 H   0  0  0  0  0  0  0  0  0  0  0  0
   -1.2140    3.4034   -2.3450 H   0  0  0  0  0  0  0  0  0  0  0  0
  1 16  1  0  0  0  0
  2 18  1  0  0  0  0
  3  2  1  0  0  0  0
  4 16  1  0  0  0  0
  6 15  1  0  0  0  0
  6  1  1  0  0  0  0
  7  6  2  0  0  0  0
  8  7  1  0  0  0  0
  9 11  2  0  0  0  0
  9  7  1  0  0  0  0
 10  9  1  0  0  0  0
 11 13  1  0  0  0  0
 12 11  1  0  0  0  0
 13 14  1  0  0  0  0
 13 15  2  0  0  0  0
 15  4  1  0  0  0  0
 16 17  1  6  0  0  0
 17 23  1  0  0  0  0
 18  5  1  1  0  0  0
 18 17  1  0  0  0  0
 19 17  1  0  0  0  0
 19 20  1  0  0  0  0
 19 22  1  0  0  0  0
 21 19  1  0  0  0  0
 23 26  1  0  0  0  0
 23 24  1  0  0  0  0
 23 25  1  0  0  0  0
 27 29  1  0  0  0  0
 27  5  1  0  0  0  0
 28 27  1  0  0  0  0
 30 27  1  0  0  0  0
M  END
