1,2
 OpenBabel05122313053D

 78 82  0  0  0  0  0  0  0  0999 V2000
   -1.3455   -0.2174   -0.0066 N   0  0  0  0  0  2  0  0  0  0  0  0
    1.2970   -0.2437    0.0081 N   0  0  0  0  0  2  0  0  0  0  0  0
   -0.7493    0.9238   -0.2620 C   0  0  0  0  0  0  0  0  0  0  0  0
   -1.1996    2.2901   -0.5697 C   0  0  0  0  0  0  0  0  0  0  0  0
   -2.4325    2.9204   -0.7247 C   0  0  0  0  0  0  0  0  0  0  0  0
   -2.4430    4.3085   -1.0439 C   0  0  0  0  0  0  0  0  0  0  0  0
   -1.2710    5.0508   -1.2013 C   0  0  0  0  0  0  0  0  0  0  0  0
    0.0081    4.4326   -1.0484 C   0  0  0  0  0  0  0  0  0  0  0  0
    1.2936    5.0456   -1.1785 C   0  0  0  0  0  0  0  0  0  0  0  0
    2.4528    4.2904   -0.9997 C   0  0  0  0  0  0  0  0  0  0  0  0
    2.4271    2.9004   -0.6842 C   0  0  0  0  0  0  0  0  0  0  0  0
    1.1890    2.2725   -0.5498 C   0  0  0  0  0  0  0  0  0  0  0  0
   -0.0007    3.0535   -0.7340 C   0  0  0  0  0  0  0  0  0  0  0  0
    0.7160    0.9193   -0.2564 C   0  0  0  0  0  0  0  0  0  0  0  0
   -2.7639   -0.2992    0.0812 C   0  0  0  0  0  0  0  0  0  0  0  0
   -3.4624   -0.9311   -0.9765 C   0  0  0  0  0  0  0  0  0  0  0  0
   -4.8203    0.0947    1.2821 C   0  0  0  0  0  0  0  0  0  0  0  0
   -5.5378   -0.5031    0.2359 C   0  0  0  0  0  0  0  0  0  0  0  0
   -4.8629   -1.0155   -0.8782 C   0  0  0  0  0  0  0  0  0  0  0  0
   -3.4193    0.2090    1.2352 C   0  0  0  0  0  0  0  0  0  0  0  0
   -2.6220    0.7788    2.4047 C   0  0  0  0  0  0  0  0  0  0  0  0
   -3.4032    1.7975    3.2430 C   0  0  0  0  0  0  0  0  0  0  0  0
   -2.0706   -0.3633    3.2802 C   0  0  0  0  0  0  0  0  0  0  0  0
   -2.7042   -1.4333   -2.1963 C   0  0  0  0  0  0  0  0  0  0  0  0
   -2.6119   -0.3303   -3.2669 C   0  0  0  0  0  0  0  0  0  0  0  0
   -3.2702   -2.7384   -2.7645 C   0  0  0  0  0  0  0  0  0  0  0  0
    2.7251   -0.2980    0.1072 C   0  0  0  0  0  0  0  0  0  0  0  0
    3.3472    0.1827    1.2903 C   0  0  0  0  0  0  0  0  0  0  0  0
    4.7499    0.0977    1.3595 C   0  0  0  0  0  0  0  0  0  0  0  0
    5.5002   -0.4383    0.3040 C   0  0  0  0  0  0  0  0  0  0  0  0
    4.8576   -0.9139   -0.8454 C   0  0  0  0  0  0  0  0  0  0  0  0
    3.4572   -0.8583   -0.9694 C   0  0  0  0  0  0  0  0  0  0  0  0
    2.7431   -1.3357   -2.2269 C   0  0  0  0  0  0  0  0  0  0  0  0
    2.6303   -0.1934   -3.2539 C   0  0  0  0  0  0  0  0  0  0  0  0
    3.3781   -2.5884   -2.8425 C   0  0  0  0  0  0  0  0  0  0  0  0
    2.5260    0.7043    2.4657 C   0  0  0  0  0  0  0  0  0  0  0  0
    2.1100   -0.4601    3.3853 C   0  0  0  0  0  0  0  0  0  0  0  0
    3.2302    1.8174    3.2520 C   0  0  0  0  0  0  0  0  0  0  0  0
   -3.3747    2.3680   -0.6029 H   0  0  0  0  0  0  0  0  0  0  0  0
   -3.4139    4.8111   -1.1685 H   0  0  0  0  0  0  0  0  0  0  0  0
   -1.3286    6.1228   -1.4456 H   0  0  0  0  0  0  0  0  0  0  0  0
    1.3638    6.1169   -1.4213 H   0  0  0  0  0  0  0  0  0  0  0  0
    3.4312    4.7830   -1.1056 H   0  0  0  0  0  0  0  0  0  0  0  0
    3.3661    2.3454   -0.5518 H   0  0  0  0  0  0  0  0  0  0  0  0
   -5.3623    0.4728    2.1605 H   0  0  0  0  0  0  0  0  0  0  0  0
   -6.6340   -0.5785    0.2975 H   0  0  0  0  0  0  0  0  0  0  0  0
   -5.4321   -1.4963   -1.6870 H   0  0  0  0  0  0  0  0  0  0  0  0
   -1.7478    1.3189    1.9848 H   0  0  0  0  0  0  0  0  0  0  0  0
   -3.8252    2.6091    2.6159 H   0  0  0  0  0  0  0  0  0  0  0  0
   -2.7363    2.2598    3.9982 H   0  0  0  0  0  0  0  0  0  0  0  0
   -4.2391    1.3241    3.7981 H   0  0  0  0  0  0  0  0  0  0  0  0
   -2.9016   -0.9398    3.7359 H   0  0  0  0  0  0  0  0  0  0  0  0
   -1.4380    0.0405    4.0977 H   0  0  0  0  0  0  0  0  0  0  0  0
   -1.4601   -1.0741    2.6875 H   0  0  0  0  0  0  0  0  0  0  0  0
   -1.6689   -1.6530   -1.8536 H   0  0  0  0  0  0  0  0  0  0  0  0
   -3.6201   -0.0613   -3.6464 H   0  0  0  0  0  0  0  0  0  0  0  0
   -2.0012   -0.6687   -4.1295 H   0  0  0  0  0  0  0  0  0  0  0  0
   -2.1505    0.5943   -2.8644 H   0  0  0  0  0  0  0  0  0  0  0  0
   -3.3087   -3.5175   -1.9782 H   0  0  0  0  0  0  0  0  0  0  0  0
   -2.6232   -3.1088   -3.5853 H   0  0  0  0  0  0  0  0  0  0  0  0
   -4.2887   -2.6086   -3.1864 H   0  0  0  0  0  0  0  0  0  0  0  0
    5.2655    0.4549    2.2624 H   0  0  0  0  0  0  0  0  0  0  0  0
    6.5966   -0.4916    0.3827 H   0  0  0  0  0  0  0  0  0  0  0  0
    5.4537   -1.3402   -1.6653 H   0  0  0  0  0  0  0  0  0  0  0  0
    1.7085   -1.6078   -1.9208 H   0  0  0  0  0  0  0  0  0  0  0  0
    2.1205    0.6931   -2.8265 H   0  0  0  0  0  0  0  0  0  0  0  0
    2.0549   -0.5219   -4.1437 H   0  0  0  0  0  0  0  0  0  0  0  0
    3.6355    0.1307   -3.5963 H   0  0  0  0  0  0  0  0  0  0  0  0
    4.3853   -2.3861   -3.2626 H   0  0  0  0  0  0  0  0  0  0  0  0
    2.7493   -2.9637   -3.6748 H   0  0  0  0  0  0  0  0  0  0  0  0
    3.4738   -3.3993   -2.0931 H   0  0  0  0  0  0  0  0  0  0  0  0
    1.5932    1.1427    2.0562 H   0  0  0  0  0  0  0  0  0  0  0  0
    1.5172   -1.2166    2.8318 H   0  0  0  0  0  0  0  0  0  0  0  0
    1.4859   -0.0908    4.2250 H   0  0  0  0  0  0  0  0  0  0  0  0
    3.0025   -0.9627    3.8118 H   0  0  0  0  0  0  0  0  0  0  0  0
    2.5412    2.2416    4.0096 H   0  0  0  0  0  0  0  0  0  0  0  0
    3.5587    2.6421    2.5875 H   0  0  0  0  0  0  0  0  0  0  0  0
    4.1196    1.4430    3.7997 H   0  0  0  0  0  0  0  0  0  0  0  0
  1 15  1  0  0  0  0
  2 27  1  0  0  0  0
  3 14  2  0  0  0  0
  3  1  1  0  0  0  0
  4  3  1  0  0  0  0
  5 39  1  0  0  0  0
  5  4  1  0  0  0  0
  6  5  2  0  0  0  0
  7  8  2  0  0  0  0
  7  6  1  0  0  0  0
  8 13  1  0  0  0  0
  9  8  1  0  0  0  0
  9 10  2  0  0  0  0
 10 11  1  0  0  0  0
 11 44  1  0  0  0  0
 11 12  2  0  0  0  0
 12 14  1  0  0  0  0
 13  4  2  0  0  0  0
 13 12  1  0  0  0  0
 14  2  1  0  0  0  0
 15 20  1  0  0  0  0
 16 19  1  0  0  0  0
 16 15  2  0  0  0  0
 17 45  1  0  0  0  0
 18 46  1  0  0  0  0
 18 17  1  0  0  0  0
 19 18  2  0  0  0  0
 20 17  2  0  0  0  0
 20 21  1  0  0  0  0
 21 22  1  0  0  0  0
 21 23  1  0  0  0  0
 22 51  1  0  0  0  0
 22 50  1  0  0  0  0
 23 52  1  0  0  0  0
 23 53  1  0  0  0  0
 24 55  1  0  0  0  0
 24 16  1  0  0  0  0
 25 58  1  0  0  0  0
 25 24  1  0  0  0  0
 26 24  1  0  0  0  0
 26 59  1  0  0  0  0
 27 28  1  0  0  0  0
 28 29  2  0  0  0  0
 28 36  1  0  0  0  0
 29 62  1  0  0  0  0
 30 63  1  0  0  0  0
 30 29  1  0  0  0  0
 31 30  2  0  0  0  0
 32 31  1  0  0  0  0
 32 27  2  0  0  0  0
 33 65  1  0  0  0  0
 33 32  1  0  0  0  0
 34 66  1  0  0  0  0
 34 33  1  0  0  0  0
 35 33  1  0  0  0  0
 35 71  1  0  0  0  0
 36 38  1  0  0  0  0
 36 37  1  0  0  0  0
 37 75  1  0  0  0  0
 37 74  1  0  0  0  0
 38 78  1  0  0  0  0
 38 76  1  0  0  0  0
 40  6  1  0  0  0  0
 41  7  1  0  0  0  0
 42  9  1  0  0  0  0
 43 10  1  0  0  0  0
 47 19  1  0  0  0  0
 48 21  1  0  0  0  0
 49 22  1  0  0  0  0
 54 23  1  0  0  0  0
 56 25  1  0  0  0  0
 57 25  1  0  0  0  0
 60 26  1  0  0  0  0
 61 26  1  0  0  0  0
 64 31  1  0  0  0  0
 67 34  1  0  0  0  0
 68 34  1  0  0  0  0
 69 35  1  0  0  0  0
 70 35  1  0  0  0  0
 72 36  1  0  0  0  0
 73 37  1  0  0  0  0
 77 38  1  0  0  0  0
M  END
