1,4
 OpenBabel05122313053D

 15 14  0  0  0  0  0  0  0  0999 V2000
    1.0853   -1.0316    1.4325 N   0  0  0  0  0  0  0  0  0  0  0  0
    0.8487   -0.7982    2.4075 H   0  0  0  0  0  0  0  0  0  0  0  0
    0.9463   -2.0473    1.3167 H   0  0  0  0  0  0  0  0  0  0  0  0
    1.5904    0.8373   -0.5341 N   0  0  0  0  0  0  0  0  0  0  0  0
    1.8583    0.1360   -1.2550 H   0  0  0  0  0  0  0  0  0  0  0  0
    2.5028   -0.6864    1.1284 C   0  0  0  0  0  0  0  0  0  0  0  0
    2.8494   -1.3951    0.3513 H   0  0  0  0  0  0  0  0  0  0  0  0
    3.1503   -0.8057    2.0201 H   0  0  0  0  0  0  0  0  0  0  0  0
    2.5525    0.7318    0.5921 C   0  0  0  0  0  0  0  0  0  0  0  0
    2.2590    1.4718    1.3663 H   0  0  0  0  0  0  0  0  0  0  0  0
    3.5809    0.9892    0.2570 H   0  0  0  0  0  0  0  0  0  0  0  0
    1.5812    2.1749   -1.1545 C   0  0  0  0  0  0  0  0  0  0  0  0
    1.1930    2.9250   -0.4402 H   0  0  0  0  0  0  0  0  0  0  0  0
    0.9410    2.1588   -2.0546 H   0  0  0  0  0  0  0  0  0  0  0  0
    2.6074    2.4744   -1.4540 H   0  0  0  0  0  0  0  0  0  0  0  0
  1  2  1  0  0  0  0
  3  1  1  0  0  0  0
  4  9  1  0  0  0  0
  5  4  1  0  0  0  0
  6  1  1  0  0  0  0
  6  8  1  0  0  0  0
  7  6  1  0  0  0  0
  9  6  1  0  0  0  0
  9 10  1  0  0  0  0
 11  9  1  0  0  0  0
 12  4  1  0  0  0  0
 12 13  1  0  0  0  0
 14 12  1  0  0  0  0
 15 12  1  0  0  0  0
M  END
