1,2
 OpenBabel05122313053D

 42 46  0  0  0  0  0  0  0  0999 V2000
   -1.3848    1.0913    0.0357 N   0  0  0  0  0  2  0  0  0  0  0  0
   -0.9397   -1.6049    0.0106 N   0  0  0  0  0  2  0  0  0  0  0  0
   -1.6481    2.3928    0.0210 C   0  0  0  0  0  0  0  0  0  0  0  0
   -2.7164    2.6703    0.0560 H   0  0  0  0  0  0  0  0  0  0  0  0
   -0.6329    3.3730   -0.0162 C   0  0  0  0  0  0  0  0  0  0  0  0
   -0.8980    4.4402    0.0111 H   0  0  0  0  0  0  0  0  0  0  0  0
    0.7123    2.9863   -0.0405 C   0  0  0  0  0  0  0  0  0  0  0  0
    1.0045    1.5803   -0.0686 C   0  0  0  0  0  0  0  0  0  0  0  0
    2.3305    1.0449   -0.2044 C   0  0  0  0  0  0  0  0  0  0  0  0
    3.1724    1.7384   -0.3376 H   0  0  0  0  0  0  0  0  0  0  0  0
    2.5570   -0.3108   -0.2037 C   0  0  0  0  0  0  0  0  0  0  0  0
    3.5784   -0.6928   -0.3356 H   0  0  0  0  0  0  0  0  0  0  0  0
    1.4819   -1.2568   -0.0724 C   0  0  0  0  0  0  0  0  0  0  0  0
    1.6900   -2.6764   -0.0480 C   0  0  0  0  0  0  0  0  0  0  0  0
    0.5569   -3.4964   -0.0360 C   0  0  0  0  0  0  0  0  0  0  0  0
    0.6647   -4.5901   -0.0126 H   0  0  0  0  0  0  0  0  0  0  0  0
   -0.7282   -2.9249   -0.0093 C   0  0  0  0  0  0  0  0  0  0  0  0
   -1.6260   -3.5622    0.0126 H   0  0  0  0  0  0  0  0  0  0  0  0
   -0.1029    0.6729   -0.0133 C   0  0  0  0  0  0  0  0  0  0  0  0
    0.1360   -0.7683   -0.0201 C   0  0  0  0  0  0  0  0  0  0  0  0
    1.7792    4.0192   -0.0338 C   0  0  0  0  0  0  0  0  0  0  0  0
    1.7380    5.0869   -0.9577 C   0  0  0  0  0  0  0  0  0  0  0  0
    0.9342    5.1173   -1.7090 H   0  0  0  0  0  0  0  0  0  0  0  0
    2.7213    6.0856   -0.9396 C   0  0  0  0  0  0  0  0  0  0  0  0
    2.6804    6.9042   -1.6740 H   0  0  0  0  0  0  0  0  0  0  0  0
    3.7556    6.0407    0.0085 C   0  0  0  0  0  0  0  0  0  0  0  0
    4.5256    6.8266    0.0242 H   0  0  0  0  0  0  0  0  0  0  0  0
    3.8004    4.9911    0.9400 C   0  0  0  0  0  0  0  0  0  0  0  0
    4.5994    4.9580    1.6961 H   0  0  0  0  0  0  0  0  0  0  0  0
    2.8229    3.9867    0.9189 C   0  0  0  0  0  0  0  0  0  0  0  0
    2.8477    3.1800    1.6669 H   0  0  0  0  0  0  0  0  0  0  0  0
    3.0428   -3.2870   -0.0313 C   0  0  0  0  0  0  0  0  0  0  0  0
    4.0054   -2.9059    0.9312 C   0  0  0  0  0  0  0  0  0  0  0  0
    3.7507   -2.1385    1.6774 H   0  0  0  0  0  0  0  0  0  0  0  0
    5.2633   -3.5232    0.9630 C   0  0  0  0  0  0  0  0  0  0  0  0
    5.9974   -3.2244    1.7265 H   0  0  0  0  0  0  0  0  0  0  0  0
    5.5832   -4.5244    0.0321 C   0  0  0  0  0  0  0  0  0  0  0  0
    6.5729   -5.0048    0.0559 H   0  0  0  0  0  0  0  0  0  0  0  0
    4.6338   -4.9132   -0.9261 C   0  0  0  0  0  0  0  0  0  0  0  0
    4.8783   -5.6956   -1.6602 H   0  0  0  0  0  0  0  0  0  0  0  0
    3.3715   -4.3047   -0.9541 C   0  0  0  0  0  0  0  0  0  0  0  0
    2.6324   -4.6026   -1.7133 H   0  0  0  0  0  0  0  0  0  0  0  0
  3  1  1  0  0  0  0
  3  4  1  0  0  0  0
  5  6  1  0  0  0  0
  5  3  2  0  0  0  0
  7 21  1  0  0  0  0
  7  5  1  0  0  0  0
  8  7  2  0  0  0  0
  8 19  1  0  0  0  0
  9 11  2  0  0  0  0
  9  8  1  0  0  0  0
 10  9  1  0  0  0  0
 11 13  1  0  0  0  0
 12 11  1  0  0  0  0
 13 14  2  0  0  0  0
 13 20  1  0  0  0  0
 14 15  1  0  0  0  0
 14 32  1  0  0  0  0
 15 16  1  0  0  0  0
 15 17  2  0  0  0  0
 17  2  1  0  0  0  0
 17 18  1  0  0  0  0
 19  1  1  0  0  0  0
 20 19  2  0  0  0  0
 20  2  1  0  0  0  0
 21 30  1  0  0  0  0
 22 24  1  0  0  0  0
 22 21  2  0  0  0  0
 23 22  1  0  0  0  0
 24 26  2  0  0  0  0
 25 24  1  0  0  0  0
 26 27  1  0  0  0  0
 26 28  1  0  0  0  0
 28 29  1  0  0  0  0
 30 28  2  0  0  0  0
 30 31  1  0  0  0  0
 32 33  1  0  0  0  0
 33 35  2  0  0  0  0
 33 34  1  0  0  0  0
 35 36  1  0  0  0  0
 37 38  1  0  0  0  0
 37 35  1  0  0  0  0
 39 37  2  0  0  0  0
 40 39  1  0  0  0  0
 41 39  1  0  0  0  0
 41 32  2  0  0  0  0
 42 41  1  0  0  0  0
M  END
