1,12
 OpenBabel05122313053D

 45 45  0  0  0  0  0  0  0  0999 V2000
   -1.0200   -0.4738    0.1709 N   0  0  0  0  0  2  0  0  0  0  0  0
   -2.3270   -0.3744    0.1283 C   0  0  0  0  0  3  0  0  0  0  0  0
   -3.2667   -1.4055   -0.0062 N   0  0  0  0  0  0  0  0  0  0  0  0
   -3.0729   -2.5137   -0.9281 C   0  0  0  0  0  0  0  0  0  0  0  0
   -2.1078   -3.0199   -0.7643 H   0  0  0  0  0  0  0  0  0  0  0  0
   -3.1219   -2.1841   -1.9936 H   0  0  0  0  0  0  0  0  0  0  0  0
   -3.8755   -3.2588   -0.7605 H   0  0  0  0  0  0  0  0  0  0  0  0
   -3.0041    0.8211    0.3028 N   0  0  0  0  0  0  0  0  0  0  0  0
   -4.6061   -0.8127   -0.0506 C   0  0  0  0  0  0  0  0  0  0  0  0
   -5.3508   -1.4490    0.4692 H   0  0  0  0  0  0  0  0  0  0  0  0
   -4.9360   -0.6877   -1.1107 H   0  0  0  0  0  0  0  0  0  0  0  0
    1.8824   -0.6179    0.2508 N   0  0  0  0  0  0  0  0  0  0  0  0
   -4.3982    0.5448    0.6151 C   0  0  0  0  0  0  0  0  0  0  0  0
   -5.0715    1.3310    0.2178 H   0  0  0  0  0  0  0  0  0  0  0  0
   -4.5557    0.4835    1.7206 H   0  0  0  0  0  0  0  0  0  0  0  0
   -2.3789    2.0062    0.8529 C   0  0  0  0  0  0  0  0  0  0  0  0
   -1.4628    2.2624    0.2718 H   0  0  0  0  0  0  0  0  0  0  0  0
   -2.0923    1.8765    1.9228 H   0  0  0  0  0  0  0  0  0  0  0  0
   -3.0915    2.8493    0.7703 H   0  0  0  0  0  0  0  0  0  0  0  0
   -0.3484   -1.7521    0.3314 C   0  0  0  0  0  0  0  0  0  0  0  0
   -0.2054   -2.2763   -0.6435 H   0  0  0  0  0  0  0  0  0  0  0  0
   -0.9338   -2.4421    0.9813 H   0  0  0  0  0  0  0  0  0  0  0  0
    1.0223   -1.5401    0.9894 C   0  0  0  0  0  0  0  0  0  0  0  0
    0.8457   -1.1049    1.9931 H   0  0  0  0  0  0  0  0  0  0  0  0
    1.4863   -2.5433    1.1528 H   0  0  0  0  0  0  0  0  0  0  0  0
    2.3304   -1.1299   -1.0758 C   0  0  0  0  0  0  0  0  0  0  0  0
    1.3819   -1.3568   -1.6126 H   0  0  0  0  0  0  0  0  0  0  0  0
    3.0358   -0.0483   -1.8999 C   0  0  0  0  0  0  0  0  0  0  0  0
    2.4913    0.9176   -1.8395 H   0  0  0  0  0  0  0  0  0  0  0  0
    3.0806   -0.3645   -2.9611 H   0  0  0  0  0  0  0  0  0  0  0  0
    4.0824    0.1111   -1.5676 H   0  0  0  0  0  0  0  0  0  0  0  0
    3.1576   -2.4281   -1.0514 C   0  0  0  0  0  0  0  0  0  0  0  0
    2.6855   -3.2286   -0.4467 H   0  0  0  0  0  0  0  0  0  0  0  0
    4.1784   -2.2546   -0.6553 H   0  0  0  0  0  0  0  0  0  0  0  0
    3.2696   -2.8177   -2.0835 H   0  0  0  0  0  0  0  0  0  0  0  0
    2.9098    0.0518    1.0968 C   0  0  0  0  0  0  0  0  0  0  0  0
    3.6010    0.5385    0.3821 H   0  0  0  0  0  0  0  0  0  0  0  0
    2.2864    1.1778    1.9304 C   0  0  0  0  0  0  0  0  0  0  0  0
    1.8171    1.9323    1.2651 H   0  0  0  0  0  0  0  0  0  0  0  0
    3.0679    1.6790    2.5374 H   0  0  0  0  0  0  0  0  0  0  0  0
    1.5191    0.7953    2.6362 H   0  0  0  0  0  0  0  0  0  0  0  0
    3.7355   -0.9000    1.9817 C   0  0  0  0  0  0  0  0  0  0  0  0
    4.1982   -1.7228    1.4045 H   0  0  0  0  0  0  0  0  0  0  0  0
    3.1165   -1.3530    2.7836 H   0  0  0  0  0  0  0  0  0  0  0  0
    4.5512   -0.3389    2.4808 H   0  0  0  0  0  0  0  0  0  0  0  0
  1 20  1  0  0  0  0
  2  1  1  0  0  0  0
  2  8  1  0  0  0  0
  3  2  1  0  0  0  0
  4  5  1  0  0  0  0
  4  7  1  0  0  0  0
  4  3  1  0  0  0  0
  6  4  1  0  0  0  0
  8 13  1  0  0  0  0
  8 16  1  0  0  0  0
  9  3  1  0  0  0  0
  9 10  1  0  0  0  0
  9 13  1  0  0  0  0
 11  9  1  0  0  0  0
 12 23  1  0  0  0  0
 12 36  1  0  0  0  0
 13 15  1  0  0  0  0
 14 13  1  0  0  0  0
 16 18  1  0  0  0  0
 17 16  1  0  0  0  0
 19 16  1  0  0  0  0
 20 22  1  0  0  0  0
 20 23  1  0  0  0  0
 21 20  1  0  0  0  0
 23 25  1  0  0  0  0
 23 24  1  0  0  0  0
 26 32  1  0  0  0  0
 26 12  1  0  0  0  0
 27 26  1  0  0  0  0
 28 29  1  0  0  0  0
 28 31  1  0  0  0  0
 28 26  1  0  0  0  0
 30 28  1  0  0  0  0
 32 34  1  0  0  0  0
 32 33  1  0  0  0  0
 35 32  1  0  0  0  0
 36 38  1  0  0  0  0
 36 42  1  0  0  0  0
 37 36  1  0  0  0  0
 38 40  1  0  0  0  0
 38 41  1  0  0  0  0
 39 38  1  0  0  0  0
 42 45  1  0  0  0  0
 42 44  1  0  0  0  0
 43 42  1  0  0  0  0
M  END
