1,4
 OpenBabel05122313053D

 47 46  0  0  0  0  0  0  0  0999 V2000
   -0.9934   -0.4907    0.1456 N   0  0  0  0  0  2  0  0  0  0  0  0
   -2.9112    0.7819    0.6044 N   0  0  0  0  0  0  0  0  0  0  0  0
   -3.1644   -1.4300   -0.1491 N   0  0  0  0  0  0  0  0  0  0  0  0
    1.8979   -0.6375    0.2292 N   0  0  0  0  0  0  0  0  0  0  0  0
   -2.3078   -0.3873    0.1805 C   0  0  0  0  0  3  0  0  0  0  0  0
   -2.1454    1.7426    1.3868 C   0  0  0  0  0  0  0  0  0  0  0  0
   -1.4880    1.2064    2.0956 H   0  0  0  0  0  0  0  0  0  0  0  0
   -2.8541    2.3798    1.9556 H   0  0  0  0  0  0  0  0  0  0  0  0
   -1.4968    2.3881    0.7461 H   0  0  0  0  0  0  0  0  0  0  0  0
   -3.9896    1.3674   -0.1817 C   0  0  0  0  0  0  0  0  0  0  0  0
   -4.4359    0.6074   -0.8474 H   0  0  0  0  0  0  0  0  0  0  0  0
   -3.6023    2.1967   -0.8171 H   0  0  0  0  0  0  0  0  0  0  0  0
   -4.7857    1.7754    0.4762 H   0  0  0  0  0  0  0  0  0  0  0  0
   -2.8839   -2.2908   -1.2820 C   0  0  0  0  0  0  0  0  0  0  0  0
   -2.0748   -1.8509   -1.8930 H   0  0  0  0  0  0  0  0  0  0  0  0
   -3.7893   -2.3762   -1.9236 H   0  0  0  0  0  0  0  0  0  0  0  0
   -2.5826   -3.3206   -0.9833 H   0  0  0  0  0  0  0  0  0  0  0  0
   -4.4073   -1.6691    0.5591 C   0  0  0  0  0  0  0  0  0  0  0  0
   -4.4575   -1.0101    1.4447 H   0  0  0  0  0  0  0  0  0  0  0  0
   -4.4601   -2.7272    0.9001 H   0  0  0  0  0  0  0  0  0  0  0  0
   -5.3046   -1.4757   -0.0740 H   0  0  0  0  0  0  0  0  0  0  0  0
   -0.3295   -1.7777    0.2668 C   0  0  0  0  0  0  0  0  0  0  0  0
   -0.1899   -2.2663   -0.7251 H   0  0  0  0  0  0  0  0  0  0  0  0
   -0.9326   -2.4888    0.8763 H   0  0  0  0  0  0  0  0  0  0  0  0
    1.0414   -1.5900    0.9324 C   0  0  0  0  0  0  0  0  0  0  0  0
    0.8664   -1.1945    1.9530 H   0  0  0  0  0  0  0  0  0  0  0  0
    1.5096   -2.5972    1.0582 H   0  0  0  0  0  0  0  0  0  0  0  0
    2.3573   -1.0980   -1.1084 C   0  0  0  0  0  0  0  0  0  0  0  0
    1.4166   -1.3530   -1.6464 H   0  0  0  0  0  0  0  0  0  0  0  0
    3.0120    0.0317   -1.9103 C   0  0  0  0  0  0  0  0  0  0  0  0
    2.4270    0.9718   -1.8262 H   0  0  0  0  0  0  0  0  0  0  0  0
    3.0691   -0.2575   -2.9787 H   0  0  0  0  0  0  0  0  0  0  0  0
    4.0511    0.2312   -1.5759 H   0  0  0  0  0  0  0  0  0  0  0  0
    3.2397   -2.3599   -1.1160 C   0  0  0  0  0  0  0  0  0  0  0  0
    2.8044   -3.1909   -0.5248 H   0  0  0  0  0  0  0  0  0  0  0  0
    4.2534   -2.1494   -0.7192 H   0  0  0  0  0  0  0  0  0  0  0  0
    3.3649   -2.7250   -2.1557 H   0  0  0  0  0  0  0  0  0  0  0  0
    2.9090    0.0214    1.0989 C   0  0  0  0  0  0  0  0  0  0  0  0
    3.6120    0.5188    0.4029 H   0  0  0  0  0  0  0  0  0  0  0  0
    3.7246   -0.9397    1.9840 C   0  0  0  0  0  0  0  0  0  0  0  0
    4.1943   -1.7556    1.4024 H   0  0  0  0  0  0  0  0  0  0  0  0
    3.0960   -1.4026    2.7725 H   0  0  0  0  0  0  0  0  0  0  0  0
    4.5339   -0.3844    2.4999 H   0  0  0  0  0  0  0  0  0  0  0  0
    2.2688    1.1346    1.9375 C   0  0  0  0  0  0  0  0  0  0  0  0
    1.8049    1.8958    1.2762 H   0  0  0  0  0  0  0  0  0  0  0  0
    3.0369    1.6310    2.5653 H   0  0  0  0  0  0  0  0  0  0  0  0
    1.4920    0.7373    2.6251 H   0  0  0  0  0  0  0  0  0  0  0  0
  1  5  1  0  0  0  0
  1 22  1  0  0  0  0
  2  6  1  0  0  0  0
  3  5  1  0  0  0  0
  3 18  1  0  0  0  0
  4 25  1  0  0  0  0
  4 38  1  0  0  0  0
  5  2  1  0  0  0  0
  6  8  1  0  0  0  0
  6  7  1  0  0  0  0
  9  6  1  0  0  0  0
 10 13  1  0  0  0  0
 10  2  1  0  0  0  0
 11 10  1  0  0  0  0
 12 10  1  0  0  0  0
 14 17  1  0  0  0  0
 14  3  1  0  0  0  0
 15 14  1  0  0  0  0
 16 14  1  0  0  0  0
 18 20  1  0  0  0  0
 18 19  1  0  0  0  0
 21 18  1  0  0  0  0
 22 24  1  0  0  0  0
 22 25  1  0  0  0  0
 23 22  1  0  0  0  0
 25 27  1  0  0  0  0
 25 26  1  0  0  0  0
 28  4  1  0  0  0  0
 29 28  1  0  0  0  0
 30 31  1  0  0  0  0
 30 33  1  0  0  0  0
 30 28  1  0  0  0  0
 32 30  1  0  0  0  0
 34 28  1  0  0  0  0
 34 36  1  0  0  0  0
 34 35  1  0  0  0  0
 37 34  1  0  0  0  0
 38 44  1  0  0  0  0
 38 40  1  0  0  0  0
 39 38  1  0  0  0  0
 40 43  1  0  0  0  0
 40 42  1  0  0  0  0
 41 40  1  0  0  0  0
 44 46  1  0  0  0  0
 44 47  1  0  0  0  0
 45 44  1  0  0  0  0
M  END
