1,2
 OpenBabel05122313053D

 28 29  0  0  0  0  0  0  0  0999 V2000
    1.4428    1.5153    0.0844 N   0  0  0  0  0  2  0  0  0  0  0  0
   -1.2448    1.3074    0.7331 N   0  0  0  0  0  2  0  0  0  0  0  0
    2.8916   -0.7965   -0.0736 O   0  0  0  0  0  0  0  0  0  0  0  0
   -4.6750    0.4178    0.1051 O   0  0  0  0  0  0  0  0  0  0  0  0
    3.8126   -1.7815   -0.0543 C   0  0  0  0  0  0  0  0  0  0  0  0
    3.4078   -2.7984   -0.0877 H   0  0  0  0  0  0  0  0  0  0  0  0
    5.0870   -1.2479    0.0175 C   0  0  0  0  0  0  0  0  0  0  0  0
    6.0273   -1.8086    0.0464 H   0  0  0  0  0  0  0  0  0  0  0  0
    4.9204    0.1684    0.0489 C   0  0  0  0  0  0  0  0  0  0  0  0
    5.7034    0.9324    0.1118 H   0  0  0  0  0  0  0  0  0  0  0  0
    3.5496    0.3989   -0.0015 C   0  0  0  0  0  0  0  0  0  0  0  0
    2.7331    1.5806    0.0344 C   0  0  0  0  0  3  0  0  0  0  0  0
    3.2663    2.5553    0.0112 H   0  0  0  0  0  0  0  0  0  0  0  0
    0.6211    2.7084    0.0405 C   0  0  0  0  0  0  0  0  0  0  0  0
    0.2004    2.7692   -0.9888 H   0  0  0  0  0  0  0  0  0  0  0  0
    1.1982    3.6358    0.2546 H   0  0  0  0  0  0  0  0  0  0  0  0
   -0.5467    2.5443    1.0278 C   0  0  0  0  0  0  0  0  0  0  0  0
   -0.1338    2.4827    2.0601 H   0  0  0  0  0  0  0  0  0  0  0  0
   -1.2166    3.4330    0.9795 H   0  0  0  0  0  0  0  0  0  0  0  0
   -2.5345    1.3165    0.6167 C   0  0  0  0  0  3  0  0  0  0  0  0
   -3.1090    2.2618    0.7424 H   0  0  0  0  0  0  0  0  0  0  0  0
   -3.3338    0.1647    0.3145 C   0  0  0  0  0  0  0  0  0  0  0  0
   -3.0829   -1.1947    0.1575 C   0  0  0  0  0  0  0  0  0  0  0  0
   -2.1131   -1.6951    0.2970 H   0  0  0  0  0  0  0  0  0  0  0  0
   -4.3334   -1.7907   -0.1665 C   0  0  0  0  0  0  0  0  0  0  0  0
   -4.5291   -2.8506   -0.3614 H   0  0  0  0  0  0  0  0  0  0  0  0
   -5.2603   -0.7649   -0.1866 C   0  0  0  0  0  0  0  0  0  0  0  0
   -6.3367   -0.7298   -0.3865 H   0  0  0  0  0  0  0  0  0  0  0  0
  2 17  1  0  0  0  0
  3  5  1  0  0  0  0
  3 11  1  0  0  0  0
  4 22  1  0  0  0  0
  5  7  2  0  0  0  0
  6  5  1  0  0  0  0
  7  8  1  0  0  0  0
  7  9  1  0  0  0  0
  9 10  1  0  0  0  0
 11 12  1  0  0  0  0
 11  9  2  0  0  0  0
 12  1  1  0  0  0  0
 13 12  1  0  0  0  0
 14  1  1  0  0  0  0
 14 16  1  0  0  0  0
 14 17  1  0  0  0  0
 15 14  1  0  0  0  0
 17 18  1  0  0  0  0
 19 17  1  0  0  0  0
 20  2  1  0  0  0  0
 20 21  1  0  0  0  0
 22 20  1  0  0  0  0
 23 24  1  0  0  0  0
 23 22  2  0  0  0  0
 25 23  1  0  0  0  0
 26 25  1  0  0  0  0
 27 25  2  0  0  0  0
 27  4  1  0  0  0  0
 28 27  1  0  0  0  0
M  END
