1,4
 OpenBabel05122313053D

 27 29  0  0  1  0  0  0  0  0999 V2000
   -0.7057   -0.1852   -0.1355 N   0  0  0  0  0  2  0  0  0  0  0  0
   -0.8786   -2.4080   -0.1134 N   0  0  0  0  0  0  0  0  0  0  0  0
   -0.6014   -3.3855   -0.1951 H   0  0  0  0  0  0  0  0  0  0  0  0
    1.5901    0.7835   -1.3531 N   0  0  0  0  0  0  0  0  0  0  0  0
    2.2445    1.4390   -1.7916 H   0  0  0  0  0  0  0  0  0  0  0  0
    0.7843    0.6233   -1.9718 H   0  0  0  0  0  0  0  0  0  0  0  0
   -2.0476   -0.5101   -0.0298 C   0  0  0  0  0  0  0  0  0  0  0  0
   -3.1784    0.3238    0.0373 C   0  0  0  0  0  0  0  0  0  0  0  0
   -3.0523    1.4158   -0.0111 H   0  0  0  0  0  0  0  0  0  0  0  0
   -4.4245   -0.3039    0.1339 C   0  0  0  0  0  0  0  0  0  0  0  0
   -5.3351    0.3108    0.1869 H   0  0  0  0  0  0  0  0  0  0  0  0
   -4.5466   -1.7161    0.1586 C   0  0  0  0  0  0  0  0  0  0  0  0
   -5.5478   -2.1657    0.2354 H   0  0  0  0  0  0  0  0  0  0  0  0
   -3.4283   -2.5577    0.0834 C   0  0  0  0  0  0  0  0  0  0  0  0
   -3.5320   -3.6523    0.0989 H   0  0  0  0  0  0  0  0  0  0  0  0
   -2.1778   -1.9288   -0.0108 C   0  0  0  0  0  0  0  0  0  0  0  0
   -0.0206   -1.3322   -0.1892 C   0  0  2  0  0  3  0  0  0  0  0  0
    1.4339   -1.4391   -0.2849 C   0  0  0  0  0  0  0  0  0  0  0  0
    2.0998   -2.5761    0.2245 C   0  0  0  0  0  0  0  0  0  0  0  0
    1.5090   -3.3814    0.6874 H   0  0  0  0  0  0  0  0  0  0  0  0
    3.4938   -2.6712    0.2158 C   0  0  0  0  0  0  0  0  0  0  0  0
    3.9892   -3.5591    0.6337 H   0  0  0  0  0  0  0  0  0  0  0  0
    4.2504   -1.6081   -0.3028 C   0  0  0  0  0  0  0  0  0  0  0  0
    5.3494   -1.6568   -0.3009 H   0  0  0  0  0  0  0  0  0  0  0  0
    3.6118   -0.4797   -0.8279 C   0  0  0  0  0  0  0  0  0  0  0  0
    4.2075    0.3490   -1.2407 H   0  0  0  0  0  0  0  0  0  0  0  0
    2.2091   -0.3801   -0.8457 C   0  0  0  0  0  0  0  0  0  0  0  0
  1  7  1  0  0  0  0
  2 16  1  0  0  0  0
  3  2  1  0  0  0  0
  4 27  1  0  0  0  0
  5  4  1  0  0  0  0
  6  4  1  0  0  0  0
  7 16  2  0  0  0  0
  7  8  1  0  0  0  0
  8 10  2  0  0  0  0
  9  8  1  0  0  0  0
 10 12  1  0  0  0  0
 10 11  1  0  0  0  0
 12 13  1  0  0  0  0
 14 15  1  0  0  0  0
 14 12  2  0  0  0  0
 16 14  1  0  0  0  0
 17 18  1  1  0  0  0
 17  1  1  0  0  0  0
 17  2  1  0  0  0  0
 18 19  1  0  0  0  0
 19 20  1  0  0  0  0
 21 19  2  0  0  0  0
 21 22  1  0  0  0  0
 23 24  1  0  0  0  0
 23 21  1  0  0  0  0
 25 23  2  0  0  0  0
 26 25  1  0  0  0  0
 27 25  1  0  0  0  0
 27 18  2  0  0  0  0
M  END
