1,3
 OpenBabel05122313053D

 21 22  0  0  0  0  0  0  0  0999 V2000
    1.1795   -0.4589   -0.0853 N   0  0  0  0  0  2  0  0  0  0  0  0
   -0.3783    2.0086    0.2160 N   0  0  0  0  0  0  0  0  0  0  0  0
   -1.2334    1.0996   -0.2955 N   0  0  0  0  0  2  0  0  0  0  0  0
    1.9778   -1.3099   -0.7503 C   0  0  0  0  0  3  0  0  0  0  0  0
    1.4655   -2.1837   -1.1903 H   0  0  0  0  0  0  0  0  0  0  0  0
    3.3538   -1.0786   -0.8808 C   0  0  0  0  0  0  0  0  0  0  0  0
    3.9846   -1.7972   -1.4231 H   0  0  0  0  0  0  0  0  0  0  0  0
    3.8949    0.0819   -0.3101 C   0  0  0  0  0  0  0  0  0  0  0  0
    4.9713    0.2959   -0.3924 H   0  0  0  0  0  0  0  0  0  0  0  0
    3.0462    0.9792    0.3568 C   0  0  0  0  0  0  0  0  0  0  0  0
    3.4372    1.9080    0.7978 H   0  0  0  0  0  0  0  0  0  0  0  0
    1.6801    0.6747    0.4502 C   0  0  0  0  0  0  0  0  0  0  0  0
    0.6692    1.5720    1.1376 C   0  0  0  0  0  0  0  0  0  0  0  0
    0.1736    0.9816    1.9486 H   0  0  0  0  0  0  0  0  0  0  0  0
    1.1486    2.4722    1.5603 H   0  0  0  0  0  0  0  0  0  0  0  0
   -0.5907    3.2414   -0.3237 C   0  0  0  0  0  3  0  0  0  0  0  0
    0.0146    4.1036   -0.0234 H   0  0  0  0  0  0  0  0  0  0  0  0
   -1.6494    3.1178   -1.2245 C   0  0  0  0  0  0  0  0  0  0  0  0
   -2.0988    3.9107   -1.8301 H   0  0  0  0  0  0  0  0  0  0  0  0
   -2.0086    1.7524   -1.1742 C   0  0  0  0  0  0  0  0  0  0  0  0
   -2.7757    1.1976   -1.7273 H   0  0  0  0  0  0  0  0  0  0  0  0
  1 12  1  0  0  0  0
  2 13  1  0  0  0  0
  3  2  1  0  0  0  0
  4  1  1  0  0  0  0
  5  4  1  0  0  0  0
  6  4  1  0  0  0  0
  6  8  2  0  0  0  0
  7  6  1  0  0  0  0
  8 10  1  0  0  0  0
  9  8  1  0  0  0  0
 10 12  2  0  0  0  0
 10 11  1  0  0  0  0
 12 13  1  0  0  0  0
 13 15  1  0  0  0  0
 13 14  1  0  0  0  0
 16 17  1  0  0  0  0
 16  2  1  0  0  0  0
 18 20  2  0  0  0  0
 18 16  1  0  0  0  0
 19 18  1  0  0  0  0
 20  3  1  0  0  0  0
 21 20  1  0  0  0  0
M  END
