1,2
 OpenBabel05122313053D

 46 47  0  0  0  0  0  0  0  0999 V2000
   -1.3013   -0.8780   -0.0938 N   0  0  0  0  0  2  0  0  0  0  0  0
    1.1779   -0.8188    0.1017 N   0  0  0  0  0  2  0  0  0  0  0  0
    3.4230   -0.6621   -0.9157 C   0  0  0  0  0  0  0  0  0  0  0  0
    2.5919   -0.7213    0.2329 C   0  0  0  0  0  0  0  0  0  0  0  0
   -2.6848   -0.7178    0.1563 C   0  0  0  0  0  0  0  0  0  0  0  0
    3.1466   -0.6783    1.5398 C   0  0  0  0  0  0  0  0  0  0  0  0
    0.6855   -2.0462   -0.2055 C   0  0  0  0  0  0  0  0  0  0  0  0
   -3.0551   -0.1363    1.3989 C   0  0  0  0  0  0  0  0  0  0  0  0
   -0.7391   -2.0868   -0.2369 C   0  0  0  0  0  0  0  0  0  0  0  0
    5.3719   -0.4654    0.5524 C   0  0  0  0  0  0  0  0  0  0  0  0
    6.4597   -0.3553    0.6766 H   0  0  0  0  0  0  0  0  0  0  0  0
    4.8126   -0.5251   -0.7302 C   0  0  0  0  0  0  0  0  0  0  0  0
    5.4628   -0.4661   -1.6176 H   0  0  0  0  0  0  0  0  0  0  0  0
   -4.4163    0.0251    1.6988 C   0  0  0  0  0  0  0  0  0  0  0  0
   -4.7032    0.4548    2.6718 H   0  0  0  0  0  0  0  0  0  0  0  0
   -5.0262   -0.8408   -0.4797 C   0  0  0  0  0  0  0  0  0  0  0  0
   -5.7966   -1.0809   -1.2298 H   0  0  0  0  0  0  0  0  0  0  0  0
   -3.6720   -1.0343   -0.8173 C   0  0  0  0  0  0  0  0  0  0  0  0
    4.5394   -0.5477    1.6781 C   0  0  0  0  0  0  0  0  0  0  0  0
    4.9730   -0.5083    2.6899 H   0  0  0  0  0  0  0  0  0  0  0  0
    2.8364   -0.7769   -2.2998 C   0  0  0  0  0  0  0  0  0  0  0  0
    2.7497   -1.8409   -2.6099 H   0  0  0  0  0  0  0  0  0  0  0  0
    3.4749   -0.2702   -3.0494 H   0  0  0  0  0  0  0  0  0  0  0  0
    1.8192   -0.3457   -2.3439 H   0  0  0  0  0  0  0  0  0  0  0  0
   -3.2944   -1.5059   -2.1996 C   0  0  0  0  0  0  0  0  0  0  0  0
   -2.2770   -1.1681   -2.4771 H   0  0  0  0  0  0  0  0  0  0  0  0
   -4.0086   -1.1166   -2.9515 H   0  0  0  0  0  0  0  0  0  0  0  0
   -3.3071   -2.6130   -2.2863 H   0  0  0  0  0  0  0  0  0  0  0  0
   -5.4043   -0.3353    0.7701 C   0  0  0  0  0  0  0  0  0  0  0  0
   -6.4686   -0.1961    1.0116 H   0  0  0  0  0  0  0  0  0  0  0  0
   -1.9894    0.3555    2.3425 C   0  0  0  0  0  0  0  0  0  0  0  0
   -0.9724    0.0007    2.0379 H   0  0  0  0  0  0  0  0  0  0  0  0
   -2.1412   -0.0113    3.3790 H   0  0  0  0  0  0  0  0  0  0  0  0
   -1.9819    1.4627    2.3841 H   0  0  0  0  0  0  0  0  0  0  0  0
    2.2398   -0.7686    2.7372 C   0  0  0  0  0  0  0  0  0  0  0  0
    1.4561    0.0177    2.6922 H   0  0  0  0  0  0  0  0  0  0  0  0
    2.8036   -0.6606    3.6832 H   0  0  0  0  0  0  0  0  0  0  0  0
    1.6949   -1.7358    2.7640 H   0  0  0  0  0  0  0  0  0  0  0  0
    1.5101   -3.2894   -0.3899 C   0  0  0  0  0  0  0  0  0  0  0  0
    2.5894   -3.0872   -0.2686 H   0  0  0  0  0  0  0  0  0  0  0  0
    1.3528   -3.7412   -1.3932 H   0  0  0  0  0  0  0  0  0  0  0  0
    1.2312   -4.0708    0.3501 H   0  0  0  0  0  0  0  0  0  0  0  0
   -1.4931   -3.3842   -0.2804 C   0  0  0  0  0  0  0  0  0  0  0  0
   -1.0386   -4.1266    0.4070 H   0  0  0  0  0  0  0  0  0  0  0  0
   -1.4652   -3.8372   -1.2946 H   0  0  0  0  0  0  0  0  0  0  0  0
   -2.5522   -3.2481    0.0048 H   0  0  0  0  0  0  0  0  0  0  0  0
  1  5  1  0  0  0  0
  2  4  1  0  0  0  0
  3 12  2  0  0  0  0
  3  4  1  0  0  0  0
  4  6  2  0  0  0  0
  5  8  1  0  0  0  0
  6 19  1  0  0  0  0
  6 35  1  0  0  0  0
  7  2  1  0  0  0  0
  8 14  2  0  0  0  0
  8 31  1  0  0  0  0
  9  7  2  0  0  0  0
  9  1  1  0  0  0  0
 10 11  1  0  0  0  0
 10 19  2  0  0  0  0
 12 10  1  0  0  0  0
 13 12  1  0  0  0  0
 14 15  1  0  0  0  0
 16 29  2  0  0  0  0
 17 16  1  0  0  0  0
 18 16  1  0  0  0  0
 18  5  2  0  0  0  0
 19 20  1  0  0  0  0
 21  3  1  0  0  0  0
 22 21  1  0  0  0  0
 23 21  1  0  0  0  0
 24 21  1  0  0  0  0
 25 18  1  0  0  0  0
 26 25  1  0  0  0  0
 27 25  1  0  0  0  0
 28 25  1  0  0  0  0
 29 30  1  0  0  0  0
 29 14  1  0  0  0  0
 31 34  1  0  0  0  0
 31 33  1  0  0  0  0
 32 31  1  0  0  0  0
 35 38  1  0  0  0  0
 35 37  1  0  0  0  0
 36 35  1  0  0  0  0
 39 40  1  0  0  0  0
 39  7  1  0  0  0  0
 39 42  1  0  0  0  0
 41 39  1  0  0  0  0
 43  9  1  0  0  0  0
 43 46  1  0  0  0  0
 43 44  1  0  0  0  0
 45 43  1  0  0  0  0
M  END
