1,14
 OpenBabel05122313053D

 22 23  0  0  1  0  0  0  0  0999 V2000
   -0.3443    1.3246    0.2188 N   0  0  0  0  0  2  0  0  0  0  0  0
   -0.2611    2.6731    0.2775 C   0  0  0  0  0  3  0  0  0  0  0  0
    0.7516    3.0911    0.3628 H   0  0  0  0  0  0  0  0  0  0  0  0
   -1.5742   -0.7370    0.1044 C   0  0  1  0  0  3  0  0  0  0  0  0
   -2.7446    1.5090    0.0405 C   0  0  0  0  0  0  0  0  0  0  0  0
   -3.7287    1.0336   -0.0529 H   0  0  0  0  0  0  0  0  0  0  0  0
   -2.7446   -1.5089    0.0406 C   0  0  0  0  0  0  0  0  0  0  0  0
   -3.7287   -1.0335   -0.0528 H   0  0  0  0  0  0  0  0  0  0  0  0
   -3.8390    3.7180    0.0232 C   0  0  0  0  0  0  0  0  0  0  0  0
   -1.5742    0.7371    0.1044 C   0  0  0  0  0  0  0  0  0  0  0  0
   -1.3773    3.5034    0.2183 C   0  0  0  0  0  0  0  0  0  0  0  0
   -1.2596    4.5940    0.2624 H   0  0  0  0  0  0  0  0  0  0  0  0
   -2.6563    2.9123    0.0919 C   0  0  0  0  0  0  0  0  0  0  0  0
   -0.3443   -1.3246    0.2188 N   0  0  0  0  0  2  0  0  0  0  0  0
   -4.8078    4.3782   -0.0293 N   0  0  0  0  0  0  0  0  0  0  0  0
   -0.2612   -2.6731    0.2774 C   0  0  0  0  0  0  0  0  0  0  0  0
    0.7515   -3.0911    0.3628 H   0  0  0  0  0  0  0  0  0  0  0  0
   -1.3774   -3.5034    0.2183 C   0  0  0  0  0  0  0  0  0  0  0  0
   -1.2598   -4.5940    0.2624 H   0  0  0  0  0  0  0  0  0  0  0  0
   -2.6564   -2.9122    0.0920 C   0  0  0  0  0  0  0  0  0  0  0  0
   -4.8080   -4.3781   -0.0291 N   0  0  0  0  0  0  0  0  0  0  0  0
   -3.8391   -3.7179    0.0234 C   0  0  0  0  0  0  0  0  0  0  0  0
  1  2  1  0  0  0  0
  2  3  1  0  0  0  0
  4 10  1  1  0  0  0
  4 14  1  0  0  0  0
  5 13  1  0  0  0  0
  5 10  2  0  0  0  0
  6  5  1  0  0  0  0
  7 20  2  0  0  0  0
  7  4  1  0  0  0  0
  8  7  1  0  0  0  0
  9 13  1  0  0  0  0
 10  1  1  0  0  0  0
 11 12  1  0  0  0  0
 11  2  1  0  0  0  0
 13 11  2  0  0  0  0
 14 16  1  0  0  0  0
 15  9  3  0  0  0  0
 16 17  1  0  0  0  0
 18 19  1  0  0  0  0
 18 16  2  0  0  0  0
 20 18  1  0  0  0  0
 21 22  3  0  0  0  0
 22 20  1  0  0  0  0
M  END
