1,2
 OpenBabel05122313053D

 26 27  0  0  0  0  0  0  0  0999 V2000
   -0.3969   -1.5748    0.9025 N   0  0  0  0  0  2  0  0  0  0  0  0
    1.5777   -0.5928    1.1860 N   0  0  0  0  0  2  0  0  0  0  0  0
    0.4127   -0.9179    1.7405 C   0  0  0  0  0  3  0  0  0  0  0  0
   -1.7093   -1.9471    1.1718 C   0  0  0  0  0  0  0  0  0  0  0  0
   -2.4866   -2.4633    0.1006 C   0  0  0  0  0  0  0  0  0  0  0  0
   -3.8305   -2.8119    0.2845 C   0  0  0  0  0  0  0  0  0  0  0  0
   -4.4426   -2.6596    1.5399 C   0  0  0  0  0  0  0  0  0  0  0  0
   -3.6805   -2.1616    2.6117 C   0  0  0  0  0  0  0  0  0  0  0  0
   -2.3358   -1.8116    2.4399 C   0  0  0  0  0  0  0  0  0  0  0  0
    2.6248    0.0722    1.8209 C   0  0  0  0  0  0  0  0  0  0  0  0
    3.6230    0.6680    1.0119 C   0  0  0  0  0  0  0  0  0  0  0  0
    4.6875    1.3676    1.5901 C   0  0  0  0  0  0  0  0  0  0  0  0
    4.7879    1.4887    2.9864 C   0  0  0  0  0  0  0  0  0  0  0  0
    3.8117    0.8865    3.7982 C   0  0  0  0  0  0  0  0  0  0  0  0
    2.7445    0.1792    3.2298 C   0  0  0  0  0  0  0  0  0  0  0  0
    0.1281   -0.6264    2.7748 H   0  0  0  0  0  0  0  0  0  0  0  0
   -2.0074   -2.5724   -0.8842 H   0  0  0  0  0  0  0  0  0  0  0  0
   -4.4065   -3.2031   -0.5680 H   0  0  0  0  0  0  0  0  0  0  0  0
   -5.4982   -2.9322    1.6851 H   0  0  0  0  0  0  0  0  0  0  0  0
   -4.1425   -2.0424    3.6041 H   0  0  0  0  0  0  0  0  0  0  0  0
   -1.7691   -1.4290    3.3007 H   0  0  0  0  0  0  0  0  0  0  0  0
    3.5269    0.5837   -0.0806 H   0  0  0  0  0  0  0  0  0  0  0  0
    5.4458    1.8286    0.9390 H   0  0  0  0  0  0  0  0  0  0  0  0
    5.6263    2.0377    3.4403 H   0  0  0  0  0  0  0  0  0  0  0  0
    3.8889    0.9558    4.8944 H   0  0  0  0  0  0  0  0  0  0  0  0
    2.0106   -0.3121    3.8855 H   0  0  0  0  0  0  0  0  0  0  0  0
  1  4  1  0  0  0  0
  1  3  1  0  0  0  0
  2  3  1  0  0  0  0
  2 10  1  0  0  0  0
  3 16  1  0  0  0  0
  4  9  1  0  0  0  0
  5  6  1  0  0  0  0
  5  4  2  0  0  0  0
  6  7  2  0  0  0  0
  7 19  1  0  0  0  0
  7  8  1  0  0  0  0
  8 20  1  0  0  0  0
  9  8  2  0  0  0  0
  9 21  1  0  0  0  0
 10 15  1  0  0  0  0
 11 12  1  0  0  0  0
 11 10  2  0  0  0  0
 12 13  2  0  0  0  0
 13 24  1  0  0  0  0
 13 14  1  0  0  0  0
 14 25  1  0  0  0  0
 15 14  2  0  0  0  0
 15 26  1  0  0  0  0
 17  5  1  0  0  0  0
 18  6  1  0  0  0  0
 22 11  1  0  0  0  0
 23 12  1  0  0  0  0
M  END
