2,3
 OpenBabel05122313053D

 36 38  0  0  0  0  0  0  0  0999 V2000
    5.9218    0.0001    0.3157 O   0  0  0  0  0  0  0  0  0  0  0  0
   -1.5248    1.3918   -0.5210 N   0  0  0  0  0  2  0  0  0  0  0  0
   -1.5256   -1.3902   -0.5246 N   0  0  0  0  0  2  0  0  0  0  0  0
    0.4073    0.0004   -0.7084 N   0  0  0  0  0  0  0  0  0  0  0  0
   -2.1627    2.5642   -0.7118 C   0  0  0  0  0  3  0  0  0  0  0  0
   -1.5084    3.7048   -1.1746 C   0  0  0  0  0  0  0  0  0  0  0  0
   -0.1288    3.6041   -1.4299 C   0  0  0  0  0  0  0  0  0  0  0  0
    0.5280    2.3851   -1.2599 C   0  0  0  0  0  0  0  0  0  0  0  0
   -0.2167    1.2604   -0.8212 C   0  0  0  0  0  0  0  0  0  0  0  0
   -2.1637   -2.5623   -0.7166 C   0  0  0  0  0  3  0  0  0  0  0  0
   -1.5091   -3.7032   -1.1783 C   0  0  0  0  0  0  0  0  0  0  0  0
   -0.1289   -3.6032   -1.4308 C   0  0  0  0  0  0  0  0  0  0  0  0
    0.5282   -2.3845   -1.2594 C   0  0  0  0  0  0  0  0  0  0  0  0
   -0.2168   -1.2595   -0.8223 C   0  0  0  0  0  0  0  0  0  0  0  0
    1.8304    0.0003   -0.4549 C   0  0  0  0  0  0  0  0  0  0  0  0
    2.2581    0.0002    0.8806 C   0  0  0  0  0  0  0  0  0  0  0  0
    3.6282    0.0001    1.1797 C   0  0  0  0  0  0  0  0  0  0  0  0
    4.5774    0.0002    0.1345 C   0  0  0  0  0  0  0  0  0  0  0  0
    4.1374    0.0002   -1.2103 C   0  0  0  0  0  0  0  0  0  0  0  0
    2.7723    0.0003   -1.5024 C   0  0  0  0  0  0  0  0  0  0  0  0
    6.4262    0.0001    1.6406 C   0  0  0  0  0  0  0  0  0  0  0  0
   -3.2358    2.5508   -0.4535 H   0  0  0  0  0  0  0  0  0  0  0  0
   -2.0558    4.6474   -1.3110 H   0  0  0  0  0  0  0  0  0  0  0  0
    0.4402    4.4800   -1.7766 H   0  0  0  0  0  0  0  0  0  0  0  0
    1.5993    2.2919   -1.4733 H   0  0  0  0  0  0  0  0  0  0  0  0
   -3.2372   -2.5486   -0.4601 H   0  0  0  0  0  0  0  0  0  0  0  0
   -2.0566   -4.6456   -1.3157 H   0  0  0  0  0  0  0  0  0  0  0  0
    0.4404   -4.4793   -1.7763 H   0  0  0  0  0  0  0  0  0  0  0  0
    1.6000   -2.2918   -1.4707 H   0  0  0  0  0  0  0  0  0  0  0  0
    1.4910   -0.0000    1.6745 H   0  0  0  0  0  0  0  0  0  0  0  0
    3.9437    0.0000    2.2314 H   0  0  0  0  0  0  0  0  0  0  0  0
    4.8950    0.0002   -2.0068 H   0  0  0  0  0  0  0  0  0  0  0  0
    2.4289    0.0002   -2.5480 H   0  0  0  0  0  0  0  0  0  0  0  0
    6.1065   -0.9044    2.2042 H   0  0  0  0  0  0  0  0  0  0  0  0
    7.5283    0.0001    1.5541 H   0  0  0  0  0  0  0  0  0  0  0  0
    6.1065    0.9045    2.2043 H   0  0  0  0  0  0  0  0  0  0  0  0
  1 21  1  0  0  0  0
  4 15  1  0  0  0  0
  5  2  1  0  0  0  0
  5 22  1  0  0  0  0
  6  5  1  0  0  0  0
  7  8  1  0  0  0  0
  7  6  2  0  0  0  0
  8  9  2  0  0  0  0
  9  4  1  0  0  0  0
  9  2  1  0  0  0  0
 10  3  1  0  0  0  0
 10 26  1  0  0  0  0
 11 10  1  0  0  0  0
 12 13  1  0  0  0  0
 12 11  2  0  0  0  0
 13 14  2  0  0  0  0
 14  4  1  0  0  0  0
 14  3  1  0  0  0  0
 15 16  1  0  0  0  0
 16 17  2  0  0  0  0
 16 30  1  0  0  0  0
 17 31  1  0  0  0  0
 18  1  1  0  0  0  0
 18 17  1  0  0  0  0
 19 18  2  0  0  0  0
 20 19  1  0  0  0  0
 20 15  2  0  0  0  0
 21 34  1  0  0  0  0
 21 36  1  0  0  0  0
 23  6  1  0  0  0  0
 24  7  1  0  0  0  0
 25  8  1  0  0  0  0
 27 11  1  0  0  0  0
 28 12  1  0  0  0  0
 29 13  1  0  0  0  0
 32 19  1  0  0  0  0
 33 20  1  0  0  0  0
 35 21  1  0  0  0  0
M  END
