1,2
 OpenBabel05122313053D

 54 57  0  0  1  0  0  0  0  0999 V2000
   -4.1624    1.3914   -0.4574 N   0  0  0  0  0  2  0  0  0  0  0  0
   -4.1627   -1.3909   -0.4586 N   0  0  0  0  0  2  0  0  0  0  0  0
   -2.2333    0.0001   -0.6758 N   0  0  0  0  0  0  0  0  0  0  0  0
   10.0785    0.0004    0.4320 N   0  0  0  0  0  0  0  0  0  0  0  0
   -4.8009    2.5657   -0.6330 C   0  0  0  0  0  3  0  0  0  0  0  0
   -4.1509    3.7090   -1.0953 C   0  0  0  0  0  0  0  0  0  0  0  0
   -2.7740    3.6089   -1.3654 C   0  0  0  0  0  0  0  0  0  0  0  0
   -2.1165    2.3883   -1.2110 C   0  0  0  0  0  0  0  0  0  0  0  0
   -2.8576    1.2608   -0.7726 C   0  0  0  0  0  0  0  0  0  0  0  0
   -2.8576   -1.2605   -0.7729 C   0  0  2  0  0  3  0  0  0  0  0  0
   -2.1163   -2.3881   -1.2107 C   0  0  0  0  0  0  0  0  0  0  0  0
   -2.7738   -3.6086   -1.3655 C   0  0  0  0  0  0  0  0  0  0  0  0
   -4.1509   -3.7085   -1.0964 C   0  0  0  0  0  0  0  0  0  0  0  0
   -4.8011   -2.5652   -0.6346 C   0  0  0  0  0  0  0  0  0  0  0  0
   -0.8025    0.0002   -0.4667 C   0  0  0  0  0  0  0  0  0  0  0  0
   -0.3293    0.0003    0.8553 C   0  0  0  0  0  0  0  0  0  0  0  0
    1.0496    0.0004    1.0877 C   0  0  0  0  0  0  0  0  0  0  0  0
    1.9897    0.0003    0.0240 C   0  0  0  0  0  0  0  0  0  0  0  0
    1.4777    0.0001   -1.3015 C   0  0  0  0  0  0  0  0  0  0  0  0
    0.1026    0.0001   -1.5457 C   0  0  0  0  0  0  0  0  0  0  0  0
    3.4159    0.0004    0.3354 C   0  0  0  0  0  0  0  0  0  0  0  0
    4.4473    0.0002   -0.5584 C   0  0  0  0  0  0  0  0  0  0  0  0
    5.8727    0.0002   -0.2667 C   0  0  0  0  0  0  0  0  0  0  0  0
    6.4114    0.0003    1.0458 C   0  0  0  0  0  0  0  0  0  0  0  0
    7.7826    0.0003    1.2811 C   0  0  0  0  0  0  0  0  0  0  0  0
    8.7176    0.0002    0.2024 C   0  0  0  0  0  0  0  0  0  0  0  0
    8.1849    0.0000   -1.1185 C   0  0  0  0  0  0  0  0  0  0  0  0
    6.8075    0.0001   -1.3318 C   0  0  0  0  0  0  0  0  0  0  0  0
   10.5874   -0.0001    1.7890 C   0  0  0  0  0  0  0  0  0  0  0  0
   11.0005   -0.0010   -0.6855 C   0  0  0  0  0  0  0  0  0  0  0  0
   -5.8710    2.5518   -0.3625 H   0  0  0  0  0  0  0  0  0  0  0  0
   -4.6988    4.6530   -1.2191 H   0  0  0  0  0  0  0  0  0  0  0  0
   -2.2074    4.4868   -1.7110 H   0  0  0  0  0  0  0  0  0  0  0  0
   -1.0473    2.2961   -1.4355 H   0  0  0  0  0  0  0  0  0  0  0  0
   -1.0469   -2.2961   -1.4343 H   0  0  0  0  0  0  0  0  0  0  0  0
   -2.2070   -4.4866   -1.7105 H   0  0  0  0  0  0  0  0  0  0  0  0
   -4.6988   -4.6526   -1.2205 H   0  0  0  0  0  0  0  0  0  0  0  0
   -5.8713   -2.5512   -0.3647 H   0  0  0  0  0  0  0  0  0  0  0  0
   -1.0670    0.0003    1.6757 H   0  0  0  0  0  0  0  0  0  0  0  0
    1.4208    0.0005    2.1245 H   0  0  0  0  0  0  0  0  0  0  0  0
    2.1696    0.0000   -2.1563 H   0  0  0  0  0  0  0  0  0  0  0  0
   -0.2808   -0.0001   -2.5776 H   0  0  0  0  0  0  0  0  0  0  0  0
    3.6495    0.0006    1.4134 H   0  0  0  0  0  0  0  0  0  0  0  0
    4.2057   -0.0000   -1.6359 H   0  0  0  0  0  0  0  0  0  0  0  0
    5.7341    0.0003    1.9131 H   0  0  0  0  0  0  0  0  0  0  0  0
    8.1375    0.0003    2.3195 H   0  0  0  0  0  0  0  0  0  0  0  0
    8.8545   -0.0001   -1.9877 H   0  0  0  0  0  0  0  0  0  0  0  0
    6.4312   -0.0001   -2.3675 H   0  0  0  0  0  0  0  0  0  0  0  0
   11.6918    0.0009    1.7657 H   0  0  0  0  0  0  0  0  0  0  0  0
   10.2589    0.8972    2.3607 H   0  0  0  0  0  0  0  0  0  0  0  0
   10.2603   -0.8984    2.3598 H   0  0  0  0  0  0  0  0  0  0  0  0
   12.0378   -0.0009   -0.3054 H   0  0  0  0  0  0  0  0  0  0  0  0
   10.8752    0.8961   -1.3333 H   0  0  0  0  0  0  0  0  0  0  0  0
   10.8747   -0.8993   -1.3316 H   0  0  0  0  0  0  0  0  0  0  0  0
  3 15  1  0  0  0  0
  4 29  1  0  0  0  0
  5  1  1  0  0  0  0
  5 31  1  0  0  0  0
  6  5  1  0  0  0  0
  7  8  1  0  0  0  0
  7  6  2  0  0  0  0
  8  9  2  0  0  0  0
  9  3  1  0  0  0  0
  9  1  1  0  0  0  0
 10  3  1  6  0  0  0
 10  2  1  0  0  0  0
 11 10  1  0  0  0  0
 12 11  2  0  0  0  0
 12 13  1  0  0  0  0
 13 14  2  0  0  0  0
 14  2  1  0  0  0  0
 14 38  1  0  0  0  0
 15 16  1  0  0  0  0
 16 17  2  0  0  0  0
 16 39  1  0  0  0  0
 17 40  1  0  0  0  0
 18 21  1  0  0  0  0
 18 17  1  0  0  0  0
 19 18  2  0  0  0  0
 20 19  1  0  0  0  0
 20 15  2  0  0  0  0
 21 43  1  0  0  0  0
 22 23  1  0  0  0  0
 22 21  2  0  0  0  0
 23 24  1  0  0  0  0
 24 25  2  0  0  0  0
 24 45  1  0  0  0  0
 25 46  1  0  0  0  0
 26  4  1  0  0  0  0
 26 25  1  0  0  0  0
 27 26  2  0  0  0  0
 28 27  1  0  0  0  0
 28 23  2  0  0  0  0
 29 51  1  0  0  0  0
 29 50  1  0  0  0  0
 30 52  1  0  0  0  0
 30  4  1  0  0  0  0
 32  6  1  0  0  0  0
 33  7  1  0  0  0  0
 34  8  1  0  0  0  0
 35 11  1  0  0  0  0
 36 12  1  0  0  0  0
 37 13  1  0  0  0  0
 41 19  1  0  0  0  0
 42 20  1  0  0  0  0
 44 22  1  0  0  0  0
 47 27  1  0  0  0  0
 48 28  1  0  0  0  0
 49 29  1  0  0  0  0
 53 30  1  0  0  0  0
 54 30  1  0  0  0  0
M  END
