3,4
 OpenBabel05122313053D

 34 36  0  0  1  0  0  0  0  0999 V2000
    6.2664    1.0472   -0.5665 O   0  0  0  0  0  0  0  0  0  0  0  0
    6.0850   -1.1094   -0.8858 O   0  0  0  0  0  0  0  0  0  0  0  0
   -1.5976    1.5063   -0.0790 N   0  0  0  0  0  2  0  0  0  0  0  0
   -1.7375   -1.2172    0.6936 N   0  0  0  0  0  2  0  0  0  0  0  0
    0.1339    0.2103    0.8875 N   0  0  0  0  0  0  0  0  0  0  0  0
    5.6254   -0.0057   -0.5879 N   0  0  0  0  0  0  0  0  0  0  0  0
   -2.4045    2.5826   -0.1159 C   0  0  0  0  0  3  0  0  0  0  0  0
   -3.2204    2.5307   -0.8567 H   0  0  0  0  0  0  0  0  0  0  0  0
   -2.2325    3.6636    0.7564 C   0  0  0  0  0  0  0  0  0  0  0  0
   -2.8949    4.5380    0.6876 H   0  0  0  0  0  0  0  0  0  0  0  0
   -1.2228    3.5868    1.7274 C   0  0  0  0  0  0  0  0  0  0  0  0
   -1.0766    4.4037    2.4500 H   0  0  0  0  0  0  0  0  0  0  0  0
   -0.4212    2.4387    1.7949 C   0  0  0  0  0  0  0  0  0  0  0  0
    0.3423    2.3155    2.5750 H   0  0  0  0  0  0  0  0  0  0  0  0
   -0.6287    1.4184    0.8508 C   0  0  0  0  0  0  0  0  0  0  0  0
   -0.5497   -0.9729    1.2754 C   0  0  1  0  0  3  0  0  0  0  0  0
   -0.0350   -1.8186    2.2784 C   0  0  0  0  0  0  0  0  0  0  0  0
    0.9343   -1.5927    2.7436 H   0  0  0  0  0  0  0  0  0  0  0  0
   -0.7941   -2.9276    2.6650 C   0  0  0  0  0  0  0  0  0  0  0  0
   -0.4159   -3.6036    3.4466 H   0  0  0  0  0  0  0  0  0  0  0  0
   -2.0507   -3.1528    2.0742 C   0  0  0  0  0  0  0  0  0  0  0  0
   -2.6777   -4.0058    2.3688 H   0  0  0  0  0  0  0  0  0  0  0  0
   -2.4886   -2.2610    1.0917 C   0  0  0  0  0  0  0  0  0  0  0  0
   -3.4592   -2.3617    0.5771 H   0  0  0  0  0  0  0  0  0  0  0  0
    1.4967    0.1807    0.5120 C   0  0  0  0  0  0  0  0  0  0  0  0
    2.2920    1.3508    0.5080 C   0  0  0  0  0  0  0  0  0  0  0  0
    1.8621    2.3224    0.7811 H   0  0  0  0  0  0  0  0  0  0  0  0
    3.6384    1.2902    0.1411 C   0  0  0  0  0  0  0  0  0  0  0  0
    4.2746    2.1849    0.1357 H   0  0  0  0  0  0  0  0  0  0  0  0
    4.1978    0.0597   -0.2224 C   0  0  0  0  0  0  0  0  0  0  0  0
    3.4197   -1.1062   -0.2637 C   0  0  0  0  0  0  0  0  0  0  0  0
    3.8815   -2.0427   -0.6028 H   0  0  0  0  0  0  0  0  0  0  0  0
    2.0727   -1.0423    0.0871 C   0  0  0  0  0  0  0  0  0  0  0  0
    1.4394   -1.9314   -0.0243 H   0  0  0  0  0  0  0  0  0  0  0  0
  2  6  2  0  0  0  0
  3 15  1  0  0  0  0
  4 23  1  0  0  0  0
  4 16  1  0  0  0  0
  6  1  2  0  0  0  0
  6 30  1  0  0  0  0
  7  3  1  0  0  0  0
  7  9  1  0  0  0  0
  8  7  1  0  0  0  0
  9 11  2  0  0  0  0
 10  9  1  0  0  0  0
 11 13  1  0  0  0  0
 11 12  1  0  0  0  0
 13 14  1  0  0  0  0
 15  5  1  0  0  0  0
 15 13  2  0  0  0  0
 16  5  1  1  0  0  0
 16 17  1  0  0  0  0
 17 19  2  0  0  0  0
 17 18  1  0  0  0  0
 19 20  1  0  0  0  0
 21 22  1  0  0  0  0
 21 19  1  0  0  0  0
 23 21  2  0  0  0  0
 24 23  1  0  0  0  0
 25  5  1  0  0  0  0
 26 25  1  0  0  0  0
 26 27  1  0  0  0  0
 28 26  2  0  0  0  0
 29 28  1  0  0  0  0
 30 28  1  0  0  0  0
 31 30  2  0  0  0  0
 31 33  1  0  0  0  0
 32 31  1  0  0  0  0
 33 25  2  0  0  0  0
 34 33  1  0  0  0  0
M  END
