1,4
 OpenBabel05122313053D

 19 20  0  0  0  0  0  0  0  0999 V2000
   -0.6993    1.5699   -1.4133 N   0  0  0  0  0  0  0  0  0  0  0  0
    0.2008    2.1497   -1.2645 H   0  0  0  0  0  0  0  0  0  0  0  0
   -0.7993    1.4055   -2.4208 H   0  0  0  0  0  0  0  0  0  0  0  0
   -1.0181    1.4671    1.2904 N   0  0  0  0  0  2  0  0  0  0  0  0
   -1.8775    2.1071   -0.8579 C   0  0  0  0  0  0  0  0  0  0  0  0
   -2.9495    2.5936   -1.6044 C   0  0  0  0  0  0  0  0  0  0  0  0
   -2.8925    2.5735   -2.7036 H   0  0  0  0  0  0  0  0  0  0  0  0
   -4.1088    3.1153   -0.9753 C   0  0  0  0  0  0  0  0  0  0  0  0
   -4.9419    3.4645   -1.6016 H   0  0  0  0  0  0  0  0  0  0  0  0
   -4.2027    3.1895    0.4067 C   0  0  0  0  0  3  0  0  0  0  0  0
   -5.0915    3.6188    0.8923 H   0  0  0  0  0  0  0  0  0  0  0  0
   -3.1453    2.6788    1.2113 C   0  0  0  0  0  0  0  0  0  0  0  0
   -3.1613    2.6756    2.6348 C   0  0  0  0  0  0  0  0  0  0  0  0
   -4.0157    3.1284    3.1619 H   0  0  0  0  0  0  0  0  0  0  0  0
   -2.1172    2.0951    3.3403 C   0  0  0  0  0  0  0  0  0  0  0  0
   -2.1062    2.0820    4.4394 H   0  0  0  0  0  0  0  0  0  0  0  0
   -1.0716    1.4688    2.6171 C   0  0  0  0  0  0  0  0  0  0  0  0
   -0.2617    0.9356    3.1430 H   0  0  0  0  0  0  0  0  0  0  0  0
   -1.9959    2.0967    0.5748 C   0  0  0  0  0  0  0  0  0  0  0  0
  1  2  1  0  0  0  0
  1  5  1  0  0  0  0
  3  1  1  0  0  0  0
  4 17  1  0  0  0  0
  5 19  2  0  0  0  0
  6  8  2  0  0  0  0
  6  5  1  0  0  0  0
  7  6  1  0  0  0  0
  8 10  1  0  0  0  0
  9  8  1  0  0  0  0
 10 11  1  0  0  0  0
 10 12  1  0  0  0  0
 12 13  2  0  0  0  0
 13 14  1  0  0  0  0
 13 15  1  0  0  0  0
 15 16  1  0  0  0  0
 17 18  1  0  0  0  0
 17 15  2  0  0  0  0
 19 12  1  0  0  0  0
 19  4  1  0  0  0  0
M  END
