1,2
 OpenBabel05122313053D

 40 41  0  0  0  0  0  0  0  0999 V2000
   -0.3148    0.9282    1.0789 N   0  0  0  0  0  2  0  0  0  0  0  0
    1.7579   -0.6613    1.2074 N   0  0  0  0  0  2  0  0  0  0  0  0
   -1.0915    3.0631    0.0800 C   0  0  0  0  0  0  0  0  0  0  0  0
   -0.0732    3.0400   -0.8941 C   0  0  0  0  0  0  0  0  0  0  0  0
    0.4975    2.1132   -1.0579 H   0  0  0  0  0  0  0  0  0  0  0  0
    0.2120    4.1867   -1.6501 C   0  0  0  0  0  0  0  0  0  0  0  0
    1.0097    4.1522   -2.4078 H   0  0  0  0  0  0  0  0  0  0  0  0
   -0.5158    5.3696   -1.4476 C   0  0  0  0  0  0  0  0  0  0  0  0
   -0.2912    6.2677   -2.0426 H   0  0  0  0  0  0  0  0  0  0  0  0
   -1.5303    5.4011   -0.4778 C   0  0  0  0  0  0  0  0  0  0  0  0
   -2.1039    6.3249   -0.3074 H   0  0  0  0  0  0  0  0  0  0  0  0
   -1.8122    4.2565    0.2827 C   0  0  0  0  0  0  0  0  0  0  0  0
   -2.6076    4.2870    1.0449 H   0  0  0  0  0  0  0  0  0  0  0  0
   -1.4548    1.8196    0.8723 C   0  0  0  0  0  0  0  0  0  0  0  0
   -1.9033    2.1089    1.8455 H   0  0  0  0  0  0  0  0  0  0  0  0
   -2.2237    1.2423    0.3225 H   0  0  0  0  0  0  0  0  0  0  0  0
    0.5623    1.2013    2.0183 C   0  0  0  0  0  0  0  0  0  0  0  0
    0.4246    2.3970    2.9187 C   0  0  0  0  0  0  0  0  0  0  0  0
    0.2209    3.3089    2.3219 H   0  0  0  0  0  0  0  0  0  0  0  0
    1.3305    2.5748    3.5218 H   0  0  0  0  0  0  0  0  0  0  0  0
   -0.4302    2.2698    3.6175 H   0  0  0  0  0  0  0  0  0  0  0  0
    1.7227    0.2820    2.1122 C   0  0  0  0  0  0  0  0  0  0  0  0
    2.7760    0.4966    3.1627 C   0  0  0  0  0  0  0  0  0  0  0  0
    3.3459   -0.4286    3.3593 H   0  0  0  0  0  0  0  0  0  0  0  0
    2.3350    0.8396    4.1172 H   0  0  0  0  0  0  0  0  0  0  0  0
    3.5073    1.2646    2.8307 H   0  0  0  0  0  0  0  0  0  0  0  0
    2.8928   -1.5736    1.0644 C   0  0  0  0  0  0  0  0  0  0  0  0
    2.5127   -2.4614    0.5178 H   0  0  0  0  0  0  0  0  0  0  0  0
    3.2796   -1.9017    2.0523 H   0  0  0  0  0  0  0  0  0  0  0  0
    4.0007   -0.9114    0.2626 C   0  0  0  0  0  0  0  0  0  0  0  0
    5.2174   -0.5390    0.8654 C   0  0  0  0  0  0  0  0  0  0  0  0
    5.3899   -0.7615    1.9305 H   0  0  0  0  0  0  0  0  0  0  0  0
    6.2216    0.0950    0.1159 C   0  0  0  0  0  0  0  0  0  0  0  0
    7.1720    0.3715    0.5975 H   0  0  0  0  0  0  0  0  0  0  0  0
    6.0137    0.3703   -1.2442 C   0  0  0  0  0  0  0  0  0  0  0  0
    6.7989    0.8690   -1.8326 H   0  0  0  0  0  0  0  0  0  0  0  0
    4.8038   -0.0029   -1.8531 C   0  0  0  0  0  0  0  0  0  0  0  0
    4.6409    0.1969   -2.9233 H   0  0  0  0  0  0  0  0  0  0  0  0
    3.8026   -0.6413   -1.1078 C   0  0  0  0  0  0  0  0  0  0  0  0
    2.8597   -0.9564   -1.5836 H   0  0  0  0  0  0  0  0  0  0  0  0
  1 17  1  0  0  0  0
  2 22  1  0  0  0  0
  3 12  1  0  0  0  0
  3 14  1  0  0  0  0
  4  3  2  0  0  0  0
  5  4  1  0  0  0  0
  6  8  2  0  0  0  0
  6  4  1  0  0  0  0
  7  6  1  0  0  0  0
  8 10  1  0  0  0  0
  9  8  1  0  0  0  0
 10 11  1  0  0  0  0
 10 12  2  0  0  0  0
 12 13  1  0  0  0  0
 14  1  1  0  0  0  0
 14 15  1  0  0  0  0
 16 14  1  0  0  0  0
 17 22  2  0  0  0  0
 17 18  1  0  0  0  0
 18 20  1  0  0  0  0
 18 21  1  0  0  0  0
 19 18  1  0  0  0  0
 22 23  1  0  0  0  0
 23 24  1  0  0  0  0
 23 25  1  0  0  0  0
 26 23  1  0  0  0  0
 27  2  1  0  0  0  0
 27 29  1  0  0  0  0
 28 27  1  0  0  0  0
 30 31  1  0  0  0  0
 30 27  1  0  0  0  0
 31 32  1  0  0  0  0
 33 34  1  0  0  0  0
 33 31  2  0  0  0  0
 35 33  1  0  0  0  0
 36 35  1  0  0  0  0
 37 35  2  0  0  0  0
 37 39  1  0  0  0  0
 38 37  1  0  0  0  0
 39 30  2  0  0  0  0
 40 39  1  0  0  0  0
M  END
