1,2
 OpenBabel05122313053D

 37 40  0  0  1  0  0  0  0  0999 V2000
    2.4258    0.6356   -0.1318 N   0  0  0  0  0  2  0  0  0  0  0  0
   -0.2378    0.9074   -0.2370 N   0  0  0  0  0  2  0  0  0  0  0  0
    1.9504    1.9125   -0.0415 C   0  0  0  0  0  0  0  0  0  0  0  0
    0.4835    2.0512   -0.0063 C   0  0  0  0  0  0  0  0  0  0  0  0
    2.8305    3.0141   -0.0105 C   0  0  0  0  0  0  0  0  0  0  0  0
   -0.1517    3.2793    0.2453 C   0  0  0  0  0  0  0  0  0  0  0  0
   -1.5478    3.3434    0.2700 C   0  0  0  0  0  0  0  0  0  0  0  0
    4.2093    2.8055   -0.0838 C   0  0  0  0  0  0  0  0  0  0  0  0
   -3.8025    2.1419   -0.0053 C   0  0  0  0  0  0  0  0  0  0  0  0
    4.6855    1.4881   -0.1908 C   0  0  0  0  0  0  0  0  0  0  0  0
    3.7635    0.4406   -0.2089 C   0  0  0  0  0  0  0  0  0  0  0  0
   -4.3123    0.7705   -0.4664 C   0  0  1  0  0  0  0  0  0  0  0  0
   -3.5211    0.3734   -1.7389 C   0  0  0  0  0  0  0  0  0  0  0  0
   -2.4231   -0.1672   -0.7756 C   0  0  1  0  0  0  0  0  0  0  0  0
   -2.2882    2.1950   -0.0330 C   0  0  0  0  0  0  0  0  0  0  0  0
   -1.5846    1.0000   -0.3383 C   0  0  0  0  0  0  0  0  0  0  0  0
   -3.5783   -0.4057    0.2816 C   0  0  0  0  0  0  0  0  0  0  0  0
   -3.2347   -0.2566    1.7624 C   0  0  0  0  0  0  0  0  0  0  0  0
   -4.2810   -1.7510    0.0651 C   0  0  0  0  0  0  0  0  0  0  0  0
    2.4325    4.0348    0.0577 H   0  0  0  0  0  0  0  0  0  0  0  0
    0.4438    4.1776    0.4521 H   0  0  0  0  0  0  0  0  0  0  0  0
   -2.0586    4.2869    0.5173 H   0  0  0  0  0  0  0  0  0  0  0  0
    4.9034    3.6583   -0.0636 H   0  0  0  0  0  0  0  0  0  0  0  0
   -4.1532    2.3719    1.0252 H   0  0  0  0  0  0  0  0  0  0  0  0
   -4.2183    2.9425   -0.6556 H   0  0  0  0  0  0  0  0  0  0  0  0
    5.7600    1.2674   -0.2578 H   0  0  0  0  0  0  0  0  0  0  0  0
    4.0899   -0.6070   -0.2773 H   0  0  0  0  0  0  0  0  0  0  0  0
   -5.4211    0.7390   -0.4927 H   0  0  0  0  0  0  0  0  0  0  0  0
   -3.2296    1.1844   -2.4372 H   0  0  0  0  0  0  0  0  0  0  0  0
   -3.9962   -0.4419   -2.3121 H   0  0  0  0  0  0  0  0  0  0  0  0
   -1.7982   -1.0208   -1.0871 H   0  0  0  0  0  0  0  0  0  0  0  0
   -4.1575   -0.2821    2.3786 H   0  0  0  0  0  0  0  0  0  0  0  0
   -2.6944    0.6798    2.0002 H   0  0  0  0  0  0  0  0  0  0  0  0
   -2.5905   -1.0982    2.0885 H   0  0  0  0  0  0  0  0  0  0  0  0
   -3.6164   -2.5837    0.3677 H   0  0  0  0  0  0  0  0  0  0  0  0
   -4.5751   -1.9219   -0.9882 H   0  0  0  0  0  0  0  0  0  0  0  0
   -5.2027   -1.7992    0.6815 H   0  0  0  0  0  0  0  0  0  0  0  0
  1  3  1  0  0  0  0
  2  4  1  0  0  0  0
  3  5  1  0  0  0  0
  3  4  2  0  0  0  0
  4  6  1  0  0  0  0
  5 20  1  0  0  0  0
  6  7  2  0  0  0  0
  6 21  1  0  0  0  0
  7 22  1  0  0  0  0
  8 23  1  0  0  0  0
  8  5  2  0  0  0  0
  9 24  1  0  0  0  0
 10  8  1  0  0  0  0
 11 10  2  0  0  0  0
 11  1  1  0  0  0  0
 12 28  1  6  0  0  0
 12  9  1  0  0  0  0
 12 17  1  0  0  0  0
 13 14  1  0  0  0  0
 13 12  1  0  0  0  0
 14 31  1  6  0  0  0
 14 16  1  0  0  0  0
 14 17  1  0  0  0  0
 15  9  1  0  0  0  0
 15  7  1  0  0  0  0
 16  2  1  0  0  0  0
 16 15  2  0  0  0  0
 17 18  1  0  0  0  0
 18 33  1  0  0  0  0
 18 34  1  0  0  0  0
 18 32  1  0  0  0  0
 19 17  1  0  0  0  0
 19 35  1  0  0  0  0
 19 37  1  0  0  0  0
 25  9  1  0  0  0  0
 26 10  1  0  0  0  0
 27 11  1  0  0  0  0
 29 13  1  0  0  0  0
 30 13  1  0  0  0  0
 36 19  1  0  0  0  0
M  END
