1,3
 OpenBabel05122313053D

 29 30  0  0  1  0  0  0  0  0999 V2000
   -0.3725   -0.8205   -1.1092 N   0  0  0  0  0  2  0  0  0  0  0  0
   -1.6126    1.0490   -0.3151 N   0  0  0  0  0  0  0  0  0  0  0  0
    0.6994    1.6179   -0.1096 N   0  0  0  0  0  2  0  0  0  0  0  0
   -0.2732   -1.9538   -1.8346 C   0  0  0  0  0  3  0  0  0  0  0  0
    0.7206   -2.4285   -1.8308 H   0  0  0  0  0  0  0  0  0  0  0  0
   -1.3580   -2.4995   -2.5207 C   0  0  0  0  0  0  0  0  0  0  0  0
   -1.2430   -3.4321   -3.0894 H   0  0  0  0  0  0  0  0  0  0  0  0
   -2.5899   -1.8279   -2.4433 C   0  0  0  0  0  0  0  0  0  0  0  0
   -3.4746   -2.2196   -2.9675 H   0  0  0  0  0  0  0  0  0  0  0  0
   -2.6911   -0.6460   -1.7085 C   0  0  0  0  0  0  0  0  0  0  0  0
   -3.6412   -0.1015   -1.6610 H   0  0  0  0  0  0  0  0  0  0  0  0
   -1.5420   -0.1508   -1.0456 C   0  0  0  0  0  0  0  0  0  0  0  0
   -0.5850    2.0084   -0.2673 C   0  0  2  0  0  3  0  0  0  0  0  0
   -0.9083    3.3837   -0.3750 C   0  0  0  0  0  0  0  0  0  0  0  0
   -1.9471    3.6953   -0.5459 H   0  0  0  0  0  0  0  0  0  0  0  0
    0.1126    4.3330   -0.3054 C   0  0  0  0  0  0  0  0  0  0  0  0
   -0.1290    5.4028   -0.3956 H   0  0  0  0  0  0  0  0  0  0  0  0
    1.4423    3.9096   -0.1447 C   0  0  0  0  0  0  0  0  0  0  0  0
    2.2740    4.6247   -0.0832 H   0  0  0  0  0  0  0  0  0  0  0  0
    1.6857    2.5381   -0.0602 C   0  0  0  0  0  0  0  0  0  0  0  0
    2.6967    2.1255    0.0922 H   0  0  0  0  0  0  0  0  0  0  0  0
   -2.8904    1.3712    0.3545 C   0  0  0  0  0  0  0  0  0  0  0  0
   -3.6770    1.6901   -0.3674 H   0  0  0  0  0  0  0  0  0  0  0  0
   -2.6803    2.2444    1.0037 H   0  0  0  0  0  0  0  0  0  0  0  0
   -3.3691    0.2394    1.2261 C   0  0  0  0  0  0  0  0  0  0  0  0
   -2.6047   -0.1780    1.9060 H   0  0  0  0  0  0  0  0  0  0  0  0
   -4.6274   -0.2290    1.2187 C   0  0  0  0  0  0  0  0  0  0  0  0
   -5.3941    0.1741    0.5340 H   0  0  0  0  0  0  0  0  0  0  0  0
   -4.9403   -1.0290    1.9067 H   0  0  0  0  0  0  0  0  0  0  0  0
  1 12  1  0  0  0  0
  2 22  1  0  0  0  0
  3 20  1  0  0  0  0
  4  5  1  0  0  0  0
  4  1  1  0  0  0  0
  6  8  2  0  0  0  0
  6  4  1  0  0  0  0
  7  6  1  0  0  0  0
  8 10  1  0  0  0  0
  9  8  1  0  0  0  0
 10 11  1  0  0  0  0
 10 12  2  0  0  0  0
 12  2  1  0  0  0  0
 13  2  1  1  0  0  0
 13  3  1  0  0  0  0
 14 16  2  0  0  0  0
 14 13  1  0  0  0  0
 15 14  1  0  0  0  0
 16 18  1  0  0  0  0
 17 16  1  0  0  0  0
 18 19  1  0  0  0  0
 18 20  2  0  0  0  0
 20 21  1  0  0  0  0
 22 24  1  0  0  0  0
 22 25  1  0  0  0  0
 23 22  1  0  0  0  0
 25 26  1  0  0  0  0
 27 25  2  0  0  0  0
 27 29  1  0  0  0  0
 28 27  1  0  0  0  0
M  END
