4,6
 OpenBabel05122313053D

 35 36  0  0  1  0  0  0  0  0999 V2000
    0.2275   -0.1099    2.2080 O   0  0  0  0  0  0  0  0  0  0  0  0
    0.6831    0.2550    2.9881 H   0  0  0  0  0  0  0  0  0  0  0  0
   -1.4897   -1.1565    0.1674 N   0  0  0  0  0  0  0  0  0  0  0  0
   -0.2025   -1.3905   -0.2255 N   0  0  0  0  0  2  0  0  0  0  0  0
   -1.4317    1.2231    0.1494 N   0  0  0  0  0  0  0  0  0  0  0  0
   -0.1238    1.4194   -0.1883 N   0  0  0  0  0  2  0  0  0  0  0  0
   -1.8023    0.0479    0.9115 C   0  0  2  0  0  0  0  0  0  0  0  0
   -2.9000    0.0755    1.0369 H   0  0  0  0  0  0  0  0  0  0  0  0
   -2.3463   -2.1388   -0.2678 C   0  0  1  0  0  3  0  0  0  0  0  0
   -1.5515   -3.0435   -0.9665 C   0  0  0  0  0  0  0  0  0  0  0  0
   -1.8893   -3.9618   -1.4575 H   0  0  0  0  0  0  0  0  0  0  0  0
   -0.2244   -2.5478   -0.9248 C   0  0  0  0  0  0  0  0  0  0  0  0
    0.9907   -3.1601   -1.5386 C   0  0  0  0  0  0  0  0  0  0  0  0
    1.4641   -2.4818   -2.2752 H   0  0  0  0  0  0  0  0  0  0  0  0
    1.7530   -3.4113   -0.7752 H   0  0  0  0  0  0  0  0  0  0  0  0
    0.7167   -4.0930   -2.0631 H   0  0  0  0  0  0  0  0  0  0  0  0
   -3.8115   -2.1317    0.0129 C   0  0  0  0  0  0  0  0  0  0  0  0
   -4.3171   -1.2432   -0.4211 H   0  0  0  0  0  0  0  0  0  0  0  0
   -4.0340   -2.1584    1.1000 H   0  0  0  0  0  0  0  0  0  0  0  0
   -4.2779   -3.0253   -0.4395 H   0  0  0  0  0  0  0  0  0  0  0  0
   -2.2393    2.2361   -0.3078 C   0  0  2  0  0  3  0  0  0  0  0  0
   -1.3895    3.1209   -0.9665 C   0  0  0  0  0  0  0  0  0  0  0  0
   -1.6789    4.0527   -1.4628 H   0  0  0  0  0  0  0  0  0  0  0  0
   -0.0813    2.5833   -0.8775 C   0  0  0  0  0  0  0  0  0  0  0  0
    1.1736    3.1593   -1.4445 C   0  0  0  0  0  0  0  0  0  0  0  0
    0.9597    4.1377   -1.9109 H   0  0  0  0  0  0  0  0  0  0  0  0
    1.6108    2.5017   -2.2216 H   0  0  0  0  0  0  0  0  0  0  0  0
    1.9445    3.3148   -0.6649 H   0  0  0  0  0  0  0  0  0  0  0  0
   -3.7136    2.2750   -0.0821 C   0  0  0  0  0  0  0  0  0  0  0  0
   -4.2289    1.4012   -0.5336 H   0  0  0  0  0  0  0  0  0  0  0  0
   -3.9768    2.3116    0.9957 H   0  0  0  0  0  0  0  0  0  0  0  0
   -4.1346    3.1816   -0.5527 H   0  0  0  0  0  0  0  0  0  0  0  0
   -1.1845    0.0482    2.3153 C   0  0  0  0  0  0  0  0  0  0  0  0
   -1.6191   -0.7945    2.8961 H   0  0  0  0  0  0  0  0  0  0  0  0
   -1.4512    1.0059    2.8108 H   0  0  0  0  0  0  0  0  0  0  0  0
  1 33  1  0  0  0  0
  1  2  1  0  0  0  0
  3  7  1  0  0  0  0
  4  3  1  0  0  0  0
  5  7  1  0  0  0  0
  6  5  1  0  0  0  0
  7  8  1  1  0  0  0
  7 33  1  0  0  0  0
  9 17  1  1  0  0  0
  9  3  1  0  0  0  0
 10 12  2  0  0  0  0
 10  9  1  0  0  0  0
 11 10  1  0  0  0  0
 12  4  1  0  0  0  0
 13 12  1  0  0  0  0
 13 15  1  0  0  0  0
 14 13  1  0  0  0  0
 16 13  1  0  0  0  0
 17 19  1  0  0  0  0
 18 17  1  0  0  0  0
 20 17  1  0  0  0  0
 21 29  1  1  0  0  0
 21  5  1  0  0  0  0
 22 24  2  0  0  0  0
 22 21  1  0  0  0  0
 23 22  1  0  0  0  0
 24  6  1  0  0  0  0
 25 24  1  0  0  0  0
 25 28  1  0  0  0  0
 26 25  1  0  0  0  0
 27 25  1  0  0  0  0
 29 31  1  0  0  0  0
 30 29  1  0  0  0  0
 32 29  1  0  0  0  0
 33 35  1  0  0  0  0
 33 34  1  0  0  0  0
M  END
