1,2
 OpenBabel05122313053D

 39 40  0  0  1  0  0  0  0  0999 V2000
   -2.0040    0.9592    0.1119 N   0  0  0  0  0  2  0  0  0  0  0  0
    0.4078    0.3291   -0.5206 N   0  0  0  0  0  2  0  0  0  0  0  0
   -3.2424    1.2803    0.5369 C   0  0  0  0  0  3  0  0  0  0  0  0
   -3.6352    0.6975    1.3822 H   0  0  0  0  0  0  0  0  0  0  0  0
   -4.0100    2.2827   -0.0649 C   0  0  0  0  0  0  0  0  0  0  0  0
   -5.0159    2.4979    0.3220 H   0  0  0  0  0  0  0  0  0  0  0  0
   -3.4791    2.9856   -1.1576 C   0  0  0  0  0  0  0  0  0  0  0  0
   -4.0601    3.7739   -1.6578 H   0  0  0  0  0  0  0  0  0  0  0  0
   -2.1932    2.6611   -1.5998 C   0  0  0  0  0  0  0  0  0  0  0  0
   -1.7428    3.1863   -2.4525 H   0  0  0  0  0  0  0  0  0  0  0  0
   -1.4726    1.6445   -0.9457 C   0  0  0  0  0  0  0  0  0  0  0  0
   -0.1114    1.2414   -1.3043 C   0  0  1  0  0  3  0  0  0  0  0  0
    1.7156   -0.1985   -0.8087 C   0  0  0  0  0  0  0  0  0  0  0  0
    1.7136   -1.2727   -1.7277 C   0  0  0  0  0  0  0  0  0  0  0  0
    0.7406   -1.5973   -2.1274 H   0  0  0  0  0  0  0  0  0  0  0  0
    2.8958   -1.9278   -2.0746 C   0  0  0  0  0  0  0  0  0  0  0  0
    2.8689   -2.7661   -2.7865 H   0  0  0  0  0  0  0  0  0  0  0  0
    4.1001   -1.5079   -1.4951 C   0  0  0  0  0  0  0  0  0  0  0  0
    5.0478   -2.0098   -1.7412 H   0  0  0  0  0  0  0  0  0  0  0  0
    4.0947   -0.4405   -0.5923 C   0  0  0  0  0  0  0  0  0  0  0  0
    5.0523   -0.1361   -0.1497 H   0  0  0  0  0  0  0  0  0  0  0  0
    2.9235    0.2618   -0.2154 C   0  0  0  0  0  0  0  0  0  0  0  0
    3.0729    1.3766    0.8492 C   0  0  0  0  0  0  0  0  0  0  0  0
    3.1483    0.6842    2.2313 C   0  0  0  0  0  0  0  0  0  0  0  0
    3.2337    1.4375    3.0416 H   0  0  0  0  0  0  0  0  0  0  0  0
    4.0284    0.0128    2.2853 H   0  0  0  0  0  0  0  0  0  0  0  0
    2.2494    0.0719    2.4298 H   0  0  0  0  0  0  0  0  0  0  0  0
    4.3804    2.1740    0.6224 C   0  0  0  0  0  0  0  0  0  0  0  0
    4.4156    2.6099   -0.3968 H   0  0  0  0  0  0  0  0  0  0  0  0
    5.2930    1.5649    0.7664 H   0  0  0  0  0  0  0  0  0  0  0  0
    4.4340    3.0062    1.3527 H   0  0  0  0  0  0  0  0  0  0  0  0
    1.9379    2.4208    0.8565 C   0  0  0  0  0  0  0  0  0  0  0  0
    2.1673    3.1944    1.6164 H   0  0  0  0  0  0  0  0  0  0  0  0
    0.9572    1.9908    1.1139 H   0  0  0  0  0  0  0  0  0  0  0  0
    1.8544    2.9339   -0.1228 H   0  0  0  0  0  0  0  0  0  0  0  0
    0.5873    1.8661   -2.4732 C   0  0  0  0  0  0  0  0  0  0  0  0
    1.6269    1.5047   -2.5561 H   0  0  0  0  0  0  0  0  0  0  0  0
    0.5984    2.9717   -2.3856 H   0  0  0  0  0  0  0  0  0  0  0  0
    0.0535    1.6131   -3.4130 H   0  0  0  0  0  0  0  0  0  0  0  0
  1  3  1  0  0  0  0
  3  4  1  0  0  0  0
  5  6  1  0  0  0  0
  5  3  1  0  0  0  0
  7  5  2  0  0  0  0
  8  7  1  0  0  0  0
  9  7  1  0  0  0  0
  9 11  2  0  0  0  0
 10  9  1  0  0  0  0
 11  1  1  0  0  0  0
 12 11  1  0  0  0  0
 12  2  1  1  0  0  0
 13  2  1  0  0  0  0
 13 22  1  0  0  0  0
 14 13  2  0  0  0  0
 15 14  1  0  0  0  0
 16 14  1  0  0  0  0
 16 18  2  0  0  0  0
 17 16  1  0  0  0  0
 18 20  1  0  0  0  0
 19 18  1  0  0  0  0
 20 22  2  0  0  0  0
 20 21  1  0  0  0  0
 22 23  1  0  0  0  0
 23 32  1  0  0  0  0
 23 24  1  0  0  0  0
 24 26  1  0  0  0  0
 24 27  1  0  0  0  0
 24 25  1  0  0  0  0
 28 30  1  0  0  0  0
 28 23  1  0  0  0  0
 28 31  1  0  0  0  0
 29 28  1  0  0  0  0
 32 34  1  0  0  0  0
 32 33  1  0  0  0  0
 35 32  1  0  0  0  0
 36 38  1  0  0  0  0
 36 12  1  0  0  0  0
 37 36  1  0  0  0  0
 39 36  1  0  0  0  0
M  END
