1,12
 OpenBabel05122313053D

 39 41  0  0  0  0  0  0  0  0999 V2000
   -1.6269    1.3484    0.7854 N   0  0  0  0  0  2  0  0  0  0  0  0
   -2.1752    2.5494    1.0770 C   0  0  0  0  0  3  0  0  0  0  0  0
   -3.1216    2.7716    0.5623 H   0  0  0  0  0  0  0  0  0  0  0  0
   -1.5862    3.4363    1.9841 C   0  0  0  0  0  0  0  0  0  0  0  0
   -2.0574    4.4110    2.1726 H   0  0  0  0  0  0  0  0  0  0  0  0
   -0.4044    3.0569    2.6340 C   0  0  0  0  0  0  0  0  0  0  0  0
    0.0881    3.7305    3.3505 H   0  0  0  0  0  0  0  0  0  0  0  0
    0.1336    1.7905    2.3708 C   0  0  0  0  0  0  0  0  0  0  0  0
    1.0365    1.4435    2.8926 H   0  0  0  0  0  0  0  0  0  0  0  0
   -0.5020    0.9513    1.4361 C   0  0  0  0  0  0  0  0  0  0  0  0
   -0.0095   -0.4446    1.2114 C   0  0  0  0  0  0  0  0  0  0  0  0
   -2.1697   -1.4948    0.8386 N   0  0  0  0  0  2  0  0  0  0  0  0
   -3.1087   -2.4261    1.1204 C   0  0  0  0  0  3  0  0  0  0  0  0
   -4.0856   -2.2683    0.6395 H   0  0  0  0  0  0  0  0  0  0  0  0
   -2.8517   -3.5065    1.9697 C   0  0  0  0  0  0  0  0  0  0  0  0
   -3.6418   -4.2463    2.1599 H   0  0  0  0  0  0  0  0  0  0  0  0
   -1.5810   -3.6248    2.5532 C   0  0  0  0  0  0  0  0  0  0  0  0
   -1.3420   -4.4726    3.2125 H   0  0  0  0  0  0  0  0  0  0  0  0
   -0.6268   -2.6319    2.3029 C   0  0  0  0  0  0  0  0  0  0  0  0
    0.3715   -2.6557    2.7600 H   0  0  0  0  0  0  0  0  0  0  0  0
   -0.9602   -1.5636    1.4516 C   0  0  0  0  0  0  0  0  0  0  0  0
    1.2275   -0.7829    0.9637 N   0  0  0  0  0  0  0  0  0  0  0  0
    2.1270    0.1718    0.7168 N   0  0  0  0  0  0  0  0  0  0  0  0
    1.9124    1.1908    0.6875 H   0  0  0  0  0  0  0  0  0  0  0  0
    3.4084   -0.1488    0.3394 C   0  0  0  0  0  0  0  0  0  0  0  0
    4.3794    0.8665    0.0543 C   0  0  0  0  0  0  0  0  0  0  0  0
    5.6845    0.5275   -0.3281 C   0  0  0  0  0  0  0  0  0  0  0  0
    6.4146    1.3175   -0.5427 H   0  0  0  0  0  0  0  0  0  0  0  0
    6.0356   -0.8138   -0.4275 C   0  0  0  0  0  0  0  0  0  0  0  0
    5.1061   -1.8384   -0.1572 C   0  0  0  0  0  0  0  0  0  0  0  0
    5.4292   -2.8832   -0.2578 H   0  0  0  0  0  0  0  0  0  0  0  0
    3.8133   -1.5071    0.2205 C   0  0  0  0  0  0  0  0  0  0  0  0
    3.0600   -2.2777    0.4263 H   0  0  0  0  0  0  0  0  0  0  0  0
    4.0749    2.2985    0.1515 N   0  0  0  0  0  0  0  0  0  0  0  0
    4.9643    3.1032   -0.0957 O   0  0  0  0  0  0  0  0  0  0  0  0
    2.9195    2.6343    0.4918 O   0  0  0  0  0  0  0  0  0  0  0  0
    7.4138   -1.1672   -0.8263 N   0  0  0  0  0  0  0  0  0  0  0  0
    8.1916   -0.2421   -1.0571 O   0  0  0  0  0  0  0  0  0  0  0  0
    7.6854   -2.3665   -0.8969 O   0  0  0  0  0  0  0  0  0  0  0  0
  1  2  1  0  0  0  0
  1 10  1  0  0  0  0
  2  4  1  0  0  0  0
  3  2  1  0  0  0  0
  4  5  1  0  0  0  0
  4  6  2  0  0  0  0
  6  7  1  0  0  0  0
  8  6  1  0  0  0  0
  8  9  1  0  0  0  0
 10  8  2  0  0  0  0
 11 10  1  0  0  0  0
 11 21  1  0  0  0  0
 12 13  1  0  0  0  0
 12 21  1  0  0  0  0
 13 15  1  0  0  0  0
 14 13  1  0  0  0  0
 15 16  1  0  0  0  0
 15 17  2  0  0  0  0
 17 18  1  0  0  0  0
 19 17  1  0  0  0  0
 19 20  1  0  0  0  0
 21 19  2  0  0  0  0
 22 11  2  0  0  0  0
 23 22  1  0  0  0  0
 24 23  1  0  0  0  0
 25 23  1  0  0  0  0
 26 34  1  0  0  0  0
 26 25  2  0  0  0  0
 27 26  1  0  0  0  0
 28 27  1  0  0  0  0
 29 27  2  0  0  0  0
 29 30  1  0  0  0  0
 30 32  2  0  0  0  0
 31 30  1  0  0  0  0
 32 25  1  0  0  0  0
 32 33  1  0  0  0  0
 34 36  2  0  0  0  0
 35 34  2  0  0  0  0
 37 29  1  0  0  0  0
 38 37  2  0  0  0  0
 39 37  2  0  0  0  0
M  END
