1,2
 OpenBabel05122313053D

 44 46  0  0  1  0  0  0  0  0999 V2000
    0.0766    1.5194   -0.3299 N   0  0  0  0  0  2  0  0  0  0  0  0
    0.0766   -1.5194   -0.3299 N   0  0  0  0  0  2  0  0  0  0  0  0
   -2.0220    0.7929    1.2381 C   0  0  2  0  0  0  0  0  0  0  0  0
   -1.8844    1.3548    2.1817 H   0  0  0  0  0  0  0  0  0  0  0  0
   -2.0220   -0.7928    1.2381 C   0  0  1  0  0  0  0  0  0  0  0  0
   -1.8844   -1.3547    2.1818 H   0  0  0  0  0  0  0  0  0  0  0  0
   -3.4115   -0.7047    0.6077 C   0  0  0  0  0  0  0  0  0  0  0  0
   -4.4657   -1.4494    0.0778 C   0  0  0  0  0  0  0  0  0  0  0  0
   -4.4841   -2.5504    0.0740 H   0  0  0  0  0  0  0  0  0  0  0  0
   -5.5425   -0.7047   -0.4548 C   0  0  0  0  0  0  0  0  0  0  0  0
   -6.4085   -1.2361   -0.8793 H   0  0  0  0  0  0  0  0  0  0  0  0
   -5.5425    0.7048   -0.4548 C   0  0  0  0  0  0  0  0  0  0  0  0
   -6.4085    1.2361   -0.8794 H   0  0  0  0  0  0  0  0  0  0  0  0
   -4.4657    1.4495    0.0777 C   0  0  0  0  0  0  0  0  0  0  0  0
   -4.4841    2.5505    0.0738 H   0  0  0  0  0  0  0  0  0  0  0  0
   -3.4115    0.7047    0.6077 C   0  0  0  0  0  0  0  0  0  0  0  0
   -0.8588    0.7057    0.2252 C   0  0  0  0  0  0  0  0  0  0  0  0
   -0.8588   -0.7056    0.2252 C   0  0  0  0  0  0  0  0  0  0  0  0
   -0.2225   -2.9338   -0.6238 C   0  0  0  0  0  0  0  0  0  0  0  0
    1.0841   -3.6875   -0.9104 C   0  0  0  0  0  0  0  0  0  0  0  0
    1.7819   -3.5979   -0.0535 H   0  0  0  0  0  0  0  0  0  0  0  0
    1.5893   -3.3000   -1.8135 H   0  0  0  0  0  0  0  0  0  0  0  0
    0.8745   -4.7625   -1.0776 H   0  0  0  0  0  0  0  0  0  0  0  0
   -0.9298   -3.6376    0.5563 C   0  0  0  0  0  0  0  0  0  0  0  0
   -1.9459   -3.2382    0.7309 H   0  0  0  0  0  0  0  0  0  0  0  0
   -0.3464   -3.5251    1.4921 H   0  0  0  0  0  0  0  0  0  0  0  0
   -1.0328   -4.7207    0.3439 H   0  0  0  0  0  0  0  0  0  0  0  0
   -1.1378   -2.9814   -1.8655 C   0  0  0  0  0  0  0  0  0  0  0  0
   -1.3932   -4.0265   -2.1364 H   0  0  0  0  0  0  0  0  0  0  0  0
   -0.6391   -2.5058   -2.7335 H   0  0  0  0  0  0  0  0  0  0  0  0
   -2.0802   -2.4298   -1.6728 H   0  0  0  0  0  0  0  0  0  0  0  0
   -0.2224    2.9338   -0.6238 C   0  0  0  0  0  0  0  0  0  0  0  0
   -0.9297    3.6376    0.5563 C   0  0  0  0  0  0  0  0  0  0  0  0
   -0.3464    3.5251    1.4921 H   0  0  0  0  0  0  0  0  0  0  0  0
   -1.9459    3.2382    0.7308 H   0  0  0  0  0  0  0  0  0  0  0  0
   -1.0326    4.7207    0.3439 H   0  0  0  0  0  0  0  0  0  0  0  0
   -1.1377    2.9815   -1.8656 C   0  0  0  0  0  0  0  0  0  0  0  0
   -2.0800    2.4299   -1.6728 H   0  0  0  0  0  0  0  0  0  0  0  0
   -0.6389    2.5059   -2.7335 H   0  0  0  0  0  0  0  0  0  0  0  0
   -1.3930    4.0266   -2.1364 H   0  0  0  0  0  0  0  0  0  0  0  0
    1.0843    3.6875   -0.9103 C   0  0  0  0  0  0  0  0  0  0  0  0
    1.5895    3.3000   -1.8135 H   0  0  0  0  0  0  0  0  0  0  0  0
    1.7820    3.5979   -0.0534 H   0  0  0  0  0  0  0  0  0  0  0  0
    0.8747    4.7625   -1.0775 H   0  0  0  0  0  0  0  0  0  0  0  0
  1 17  1  0  0  0  0
  2 18  1  0  0  0  0
  3  5  1  0  0  0  0
  3  4  1  1  0  0  0
  5  6  1  1  0  0  0
  7  5  1  0  0  0  0
  8  7  2  0  0  0  0
  9  8  1  0  0  0  0
 10  8  1  0  0  0  0
 11 10  1  0  0  0  0
 12 10  2  0  0  0  0
 12 14  1  0  0  0  0
 13 12  1  0  0  0  0
 14 16  2  0  0  0  0
 15 14  1  0  0  0  0
 16  7  1  0  0  0  0
 16  3  1  0  0  0  0
 17 18  2  0  0  0  0
 17  3  1  0  0  0  0
 18  5  1  0  0  0  0
 19  2  1  0  0  0  0
 19 24  1  0  0  0  0
 20 19  1  0  0  0  0
 20 21  1  0  0  0  0
 22 20  1  0  0  0  0
 23 20  1  0  0  0  0
 24 25  1  0  0  0  0
 24 26  1  0  0  0  0
 27 24  1  0  0  0  0
 28 31  1  0  0  0  0
 28 19  1  0  0  0  0
 29 28  1  0  0  0  0
 30 28  1  0  0  0  0
 32  1  1  0  0  0  0
 32 33  1  0  0  0  0
 33 35  1  0  0  0  0
 33 34  1  0  0  0  0
 36 33  1  0  0  0  0
 37 38  1  0  0  0  0
 37 32  1  0  0  0  0
 39 37  1  0  0  0  0
 40 37  1  0  0  0  0
 41 32  1  0  0  0  0
 41 43  1  0  0  0  0
 42 41  1  0  0  0  0
 44 41  1  0  0  0  0
M  END
