18,25
 OpenBabel05122313053D

 42 43  0  0  0  0  0  0  0  0999 V2000
   -4.7782   -1.3719   -0.9516 C   0  0  0  0  0  0  0  0  0  0  0  0
   -3.6908   -1.4760   -0.8220 H   0  0  0  0  0  0  0  0  0  0  0  0
   -5.6053   -2.4616   -0.6662 C   0  0  0  0  0  0  0  0  0  0  0  0
   -5.1506   -3.4023   -0.3228 H   0  0  0  0  0  0  0  0  0  0  0  0
   -7.0009   -2.3570   -0.8087 C   0  0  0  0  0  0  0  0  0  0  0  0
   -7.6458   -3.2196   -0.5816 H   0  0  0  0  0  0  0  0  0  0  0  0
   -7.5674   -1.1460   -1.2378 C   0  0  0  0  0  0  0  0  0  0  0  0
   -8.6584   -1.0544   -1.3497 H   0  0  0  0  0  0  0  0  0  0  0  0
   -6.7423   -0.0518   -1.5227 C   0  0  0  0  0  0  0  0  0  0  0  0
   -7.1865    0.8986   -1.8590 H   0  0  0  0  0  0  0  0  0  0  0  0
   -5.3336   -0.1419   -1.3910 C   0  0  0  0  0  0  0  0  0  0  0  0
   -4.5190    1.0265   -1.7017 C   0  0  0  0  0  3  0  0  0  0  0  0
   -5.0827    1.9420   -1.9588 H   0  0  0  0  0  0  0  0  0  0  0  0
   -3.1547    1.1002   -1.6997 C   0  0  0  0  0  0  0  0  0  0  0  0
   -2.5268    0.2218   -1.4684 H   0  0  0  0  0  0  0  0  0  0  0  0
   -2.4301    2.3166   -1.9570 C   0  0  0  0  0  0  0  0  0  0  0  0
   -3.0102    3.2331   -2.2114 H   0  0  0  0  0  0  0  0  0  0  0  0
   -1.1312    2.3625   -1.8534 N   0  0  0  0  0  2  0  0  0  0  0  0
   -0.4258    3.6153   -2.0772 C   0  0  0  0  0  0  0  0  0  0  0  0
   -1.1055    4.4988   -2.0601 H   0  0  0  0  0  0  0  0  0  0  0  0
    0.0497    3.5690   -3.0826 H   0  0  0  0  0  0  0  0  0  0  0  0
    0.6887    3.7679   -1.0234 C   0  0  0  0  0  0  0  0  0  0  0  0
    1.3118    4.6665   -1.2429 H   0  0  0  0  0  0  0  0  0  0  0  0
    0.2136    3.9193   -0.0267 H   0  0  0  0  0  0  0  0  0  0  0  0
    1.4510    2.5390   -0.9944 N   0  0  0  0  0  2  0  0  0  0  0  0
    2.7458    2.5279   -0.8757 C   0  0  0  0  0  0  0  0  0  0  0  0
    3.3179    3.4780   -0.7513 H   0  0  0  0  0  0  0  0  0  0  0  0
    3.4551    1.2776   -0.9357 C   0  0  0  0  0  0  0  0  0  0  0  0
    2.8100    0.4054   -1.1467 H   0  0  0  0  0  0  0  0  0  0  0  0
    4.8025    1.1367   -0.7831 C   0  0  0  0  0  3  0  0  0  0  0  0
    5.4150    2.0267   -0.5480 H   0  0  0  0  0  0  0  0  0  0  0  0
    5.5190   -0.1311   -0.8887 C   0  0  0  0  0  0  0  0  0  0  0  0
    6.8762   -0.2037   -0.4919 C   0  0  0  0  0  0  0  0  0  0  0  0
    7.3753    0.7078   -0.1257 H   0  0  0  0  0  0  0  0  0  0  0  0
    7.5809   -1.4133   -0.5451 C   0  0  0  0  0  0  0  0  0  0  0  0
    8.6331   -1.4505   -0.2241 H   0  0  0  0  0  0  0  0  0  0  0  0
    6.9447   -2.5744   -1.0129 C   0  0  0  0  0  0  0  0  0  0  0  0
    7.4960   -3.5259   -1.0607 H   0  0  0  0  0  0  0  0  0  0  0  0
    5.6019   -2.5127   -1.4303 C   0  0  0  0  0  0  0  0  0  0  0  0
    5.1021   -3.4170   -1.8102 H   0  0  0  0  0  0  0  0  0  0  0  0
    4.8913   -1.3105   -1.3700 C   0  0  0  0  0  0  0  0  0  0  0  0
    3.8406   -1.2809   -1.7020 H   0  0  0  0  0  0  0  0  0  0  0  0
  1  2  1  0  0  0  0
  1  3  1  0  0  0  0
  3  4  1  0  0  0  0
  5  3  2  0  0  0  0
  5  6  1  0  0  0  0
  7  5  1  0  0  0  0
  8  7  1  0  0  0  0
  9 11  1  0  0  0  0
  9  7  2  0  0  0  0
 10  9  1  0  0  0  0
 11  1  2  0  0  0  0
 12 14  1  0  0  0  0
 12 11  1  0  0  0  0
 13 12  1  0  0  0  0
 14 15  1  0  0  0  0
 16 18  1  0  0  0  0
 16 14  2  0  0  0  0
 17 16  1  0  0  0  0
 19 20  1  0  0  0  0
 19 18  1  0  0  0  0
 19 22  1  0  0  0  0
 21 19  1  0  0  0  0
 22 25  1  0  0  0  0
 22 24  1  0  0  0  0
 23 22  1  0  0  0  0
 25 26  1  0  0  0  0
 26 27  1  0  0  0  0
 28 26  2  0  0  0  0
 28 30  1  0  0  0  0
 29 28  1  0  0  0  0
 30 31  1  0  0  0  0
 32 30  1  0  0  0  0
 32 33  1  0  0  0  0
 33 34  1  0  0  0  0
 35 33  2  0  0  0  0
 35 36  1  0  0  0  0
 37 35  1  0  0  0  0
 38 37  1  0  0  0  0
 39 41  1  0  0  0  0
 39 37  2  0  0  0  0
 40 39  1  0  0  0  0
 41 32  2  0  0  0  0
 42 41  1  0  0  0  0
M  END
