1,2
 OpenBabel05122313053D

 30 32  0  0  0  0  0  0  0  0999 V2000
    2.2911    1.1765    0.0408 N   0  0  0  0  0  2  0  0  0  0  0  0
   -0.3139    0.8025   -0.2399 N   0  0  0  0  0  2  0  0  0  0  0  0
   -5.8293   -0.4262   -0.7286 C   0  0  0  0  0  0  0  0  0  0  0  0
   -6.1492   -1.1823   -1.4621 H   0  0  0  0  0  0  0  0  0  0  0  0
   -6.7615    0.2115    0.0779 C   0  0  0  0  0  0  0  0  0  0  0  0
   -7.8298   -0.0362   -0.0134 H   0  0  0  0  0  0  0  0  0  0  0  0
   -6.3437    1.1833    1.0265 C   0  0  0  0  0  0  0  0  0  0  0  0
   -7.0914    1.6802    1.6629 H   0  0  0  0  0  0  0  0  0  0  0  0
   -5.0004    1.5044    1.1550 C   0  0  0  0  0  0  0  0  0  0  0  0
   -4.6732    2.2547    1.8917 H   0  0  0  0  0  0  0  0  0  0  0  0
   -2.6334    1.1817    0.4413 C   0  0  0  0  0  0  0  0  0  0  0  0
   -2.2950    1.9128    1.1915 H   0  0  0  0  0  0  0  0  0  0  0  0
   -1.7029    0.5235   -0.3566 C   0  0  0  0  0  0  0  0  0  0  0  0
   -2.1120   -0.4627   -1.3033 C   0  0  0  0  0  0  0  0  0  0  0  0
   -1.3399   -0.9341   -1.9301 H   0  0  0  0  0  0  0  0  0  0  0  0
   -3.4555   -0.7604   -1.4329 C   0  0  0  0  0  0  0  0  0  0  0  0
   -3.7803   -1.5081   -2.1727 H   0  0  0  0  0  0  0  0  0  0  0  0
   -4.4425   -0.1196   -0.6238 C   0  0  0  0  0  0  0  0  0  0  0  0
   -4.0189    0.8706    0.3376 C   0  0  0  0  0  0  0  0  0  0  0  0
    0.1150    2.0261   -0.4033 C   0  0  0  0  0  0  0  0  0  0  0  0
   -0.5792    2.8482   -0.6532 H   0  0  0  0  0  0  0  0  0  0  0  0
    1.5354    2.2769   -0.2694 C   0  0  0  0  0  0  0  0  0  0  0  0
    2.1134    3.5487   -0.4436 C   0  0  0  0  0  0  0  0  0  0  0  0
    1.4687    4.4042   -0.6917 H   0  0  0  0  0  0  0  0  0  0  0  0
    3.4963    3.6939   -0.3049 C   0  0  0  0  0  0  0  0  0  0  0  0
    3.9730    4.6757   -0.4400 H   0  0  0  0  0  0  0  0  0  0  0  0
    4.2642    2.5589    0.0055 C   0  0  0  0  0  0  0  0  0  0  0  0
    5.3555    2.6203    0.1189 H   0  0  0  0  0  0  0  0  0  0  0  0
    3.6255    1.3243    0.1682 C   0  0  0  0  0  0  0  0  0  0  0  0
    4.1937    0.4129    0.4040 H   0  0  0  0  0  0  0  0  0  0  0  0
  1 29  1  0  0  0  0
  3 18  2  0  0  0  0
  3  5  1  0  0  0  0
  4  3  1  0  0  0  0
  5  7  2  0  0  0  0
  6  5  1  0  0  0  0
  7  9  1  0  0  0  0
  7  8  1  0  0  0  0
  9 10  1  0  0  0  0
 11 12  1  0  0  0  0
 13  2  1  0  0  0  0
 13 11  2  0  0  0  0
 14 13  1  0  0  0  0
 15 14  1  0  0  0  0
 16 14  2  0  0  0  0
 16 18  1  0  0  0  0
 17 16  1  0  0  0  0
 18 19  1  0  0  0  0
 19 11  1  0  0  0  0
 19  9  2  0  0  0  0
 20 22  2  0  0  0  0
 20  2  1  0  0  0  0
 21 20  1  0  0  0  0
 22  1  1  0  0  0  0
 23 25  2  0  0  0  0
 23 22  1  0  0  0  0
 24 23  1  0  0  0  0
 25 27  1  0  0  0  0
 26 25  1  0  0  0  0
 27 28  1  0  0  0  0
 27 29  2  0  0  0  0
 29 30  1  0  0  0  0
M  END
