3,4
 OpenBabel05122313053D

 28 30  0  0  1  0  0  0  0  0999 V2000
    3.6145    1.6155   -0.4913 S   0  0  0  0  0  0  0  0  0  0  0  0
    1.9513    4.0254   -0.0457 S   0  0  0  0  0  0  0  0  0  0  0  0
   -0.1391   -0.5171   -1.2866 N   0  0  0  0  0  2  0  0  0  0  0  0
   -1.5240    1.7882   -0.8321 N   0  0  0  0  0  2  0  0  0  0  0  0
    0.8940    1.6912   -1.1317 C   0  0  0  0  0  0  0  0  0  0  0  0
    2.0098    2.3544   -0.6611 C   0  0  0  0  0  0  0  0  0  0  0  0
    0.9210    0.2930   -1.6101 C   0  0  2  0  0  3  0  0  0  0  0  0
    1.9493   -0.1745   -2.4533 C   0  0  0  0  0  0  0  0  0  0  0  0
    1.8908   -1.4618   -2.9960 C   0  0  0  0  0  0  0  0  0  0  0  0
    0.7634   -2.2488   -2.7145 C   0  0  0  0  0  0  0  0  0  0  0  0
   -0.2248   -1.7390   -1.8749 C   0  0  0  0  0  0  0  0  0  0  0  0
   -0.3952    2.4076   -1.2741 C   0  0  1  0  0  3  0  0  0  0  0  0
   -0.4658    3.6642   -1.9113 C   0  0  0  0  0  0  0  0  0  0  0  0
   -1.7017    4.2985   -2.0706 C   0  0  0  0  0  0  0  0  0  0  0  0
   -2.8538    3.6452   -1.6083 C   0  0  0  0  0  0  0  0  0  0  0  0
   -2.7274    2.3906   -1.0108 C   0  0  0  0  0  0  0  0  0  0  0  0
    4.3072    2.9060    0.4662 C   0  0  0  0  0  0  0  0  0  0  0  0
    3.5473    4.0077    0.6666 C   0  0  0  0  0  0  0  0  0  0  0  0
    2.7711    0.5046   -2.7213 H   0  0  0  0  0  0  0  0  0  0  0  0
    2.6898   -1.8267   -3.6575 H   0  0  0  0  0  0  0  0  0  0  0  0
    0.6365   -3.2522   -3.1431 H   0  0  0  0  0  0  0  0  0  0  0  0
   -1.1280   -2.3157   -1.6394 H   0  0  0  0  0  0  0  0  0  0  0  0
    0.4538    4.1188   -2.3062 H   0  0  0  0  0  0  0  0  0  0  0  0
   -1.7656    5.2768   -2.5696 H   0  0  0  0  0  0  0  0  0  0  0  0
   -3.8526    4.0903   -1.7177 H   0  0  0  0  0  0  0  0  0  0  0  0
   -3.5901    1.8217   -0.6418 H   0  0  0  0  0  0  0  0  0  0  0  0
    5.3345    2.7700    0.8310 H   0  0  0  0  0  0  0  0  0  0  0  0
    3.8637    4.9026    1.2199 H   0  0  0  0  0  0  0  0  0  0  0  0
  1 17  1  0  0  0  0
  2 18  1  0  0  0  0
  5  6  2  0  0  0  0
  6  1  1  0  0  0  0
  6  2  1  0  0  0  0
  7  3  1  0  0  0  0
  7  5  1  6  0  0  0
  8  7  1  0  0  0  0
  9 10  1  0  0  0  0
  9  8  2  0  0  0  0
 10 11  2  0  0  0  0
 11 22  1  0  0  0  0
 11  3  1  0  0  0  0
 12  5  1  6  0  0  0
 12  4  1  0  0  0  0
 13 12  1  0  0  0  0
 14 13  2  0  0  0  0
 14 15  1  0  0  0  0
 15 16  2  0  0  0  0
 16  4  1  0  0  0  0
 16 26  1  0  0  0  0
 17 18  2  0  0  0  0
 17 27  1  0  0  0  0
 18 28  1  0  0  0  0
 19  8  1  0  0  0  0
 20  9  1  0  0  0  0
 21 10  1  0  0  0  0
 23 13  1  0  0  0  0
 24 14  1  0  0  0  0
 25 15  1  0  0  0  0
M  END
