2,3
 OpenBabel05122313053D

 38 41  0  0  1  0  0  0  0  0999 V2000
   -9.1206   -2.5477   -0.0176 Cl  0  0  0  0  0  0  0  0  0  0  0  0
   -0.8852   -1.6525   -0.6001 N   0  0  0  0  0  2  0  0  0  0  0  0
   -1.7701    0.7259   -0.3409 N   0  0  0  0  0  2  0  0  0  0  0  0
   -2.3713    1.9288   -0.2255 N   0  0  0  0  0  0  0  0  0  0  0  0
   -3.9425    0.3626   -0.4081 N   0  0  0  0  0  0  0  0  0  0  0  0
   -4.4287    4.0967   -0.3634 N   0  0  0  0  0  0  0  0  0  0  0  0
   -0.2893   -2.8261   -0.8837 C   0  0  0  0  0  3  0  0  0  0  0  0
    0.8080   -2.8320   -0.7993 H   0  0  0  0  0  0  0  0  0  0  0  0
   -1.0164   -3.9762   -1.2162 C   0  0  0  0  0  0  0  0  0  0  0  0
   -0.4758   -4.9082   -1.4350 H   0  0  0  0  0  0  0  0  0  0  0  0
   -2.4177   -3.9191   -1.2579 C   0  0  0  0  0  0  0  0  0  0  0  0
   -3.0139   -4.8092   -1.5058 H   0  0  0  0  0  0  0  0  0  0  0  0
   -3.0499   -2.7010   -0.9843 C   0  0  0  0  0  0  0  0  0  0  0  0
   -4.1424   -2.6065   -1.0197 H   0  0  0  0  0  0  0  0  0  0  0  0
   -2.2563   -1.5842   -0.6719 C   0  0  0  0  0  0  0  0  0  0  0  0
   -2.7012   -0.2272   -0.4601 C   0  0  1  0  0  3  0  0  0  0  0  0
   -3.6937    1.7259   -0.2564 C   0  0  0  0  0  0  0  0  0  0  0  0
   -4.7079    2.7485   -0.1415 C   0  0  0  0  0  0  0  0  0  0  0  0
   -6.0658    2.6502    0.2183 C   0  0  0  0  0  0  0  0  0  0  0  0
   -6.5921    1.7287    0.4808 H   0  0  0  0  0  0  0  0  0  0  0  0
   -6.6035    3.9596    0.2134 C   0  0  0  0  0  0  0  0  0  0  0  0
   -7.6326    4.2482    0.4511 H   0  0  0  0  0  0  0  0  0  0  0  0
   -5.5725    4.8245   -0.1501 C   0  0  0  0  0  0  0  0  0  0  0  0
   -5.5654    5.9124   -0.2802 H   0  0  0  0  0  0  0  0  0  0  0  0
   -3.1545    4.6800   -0.7530 C   0  0  0  0  0  0  0  0  0  0  0  0
   -2.6908    4.0999   -1.5715 H   0  0  0  0  0  0  0  0  0  0  0  0
   -2.4400    4.6901    0.0933 H   0  0  0  0  0  0  0  0  0  0  0  0
   -3.3356    5.7164   -1.0927 H   0  0  0  0  0  0  0  0  0  0  0  0
   -5.1921   -0.3297   -0.3245 C   0  0  0  0  0  0  0  0  0  0  0  0
   -6.0692   -0.3346   -1.4210 C   0  0  0  0  0  0  0  0  0  0  0  0
   -5.7974    0.2013   -2.3414 H   0  0  0  0  0  0  0  0  0  0  0  0
   -7.2874   -1.0183   -1.3261 C   0  0  0  0  0  0  0  0  0  0  0  0
   -7.9918   -1.0347   -2.1689 H   0  0  0  0  0  0  0  0  0  0  0  0
   -7.6071   -1.6940   -0.1343 C   0  0  0  0  0  0  0  0  0  0  0  0
   -6.7244   -1.6930    0.9604 C   0  0  0  0  0  0  0  0  0  0  0  0
   -6.9919   -2.2296    1.8813 H   0  0  0  0  0  0  0  0  0  0  0  0
   -5.5089   -1.0034    0.8681 C   0  0  0  0  0  0  0  0  0  0  0  0
   -4.7925   -0.9888    1.7123 H   0  0  0  0  0  0  0  0  0  0  0  0
  3  4  1  0  0  0  0
  5 29  1  0  0  0  0
  5 17  1  0  0  0  0
  6 23  1  0  0  0  0
  6 18  1  0  0  0  0
  7  8  1  0  0  0  0
  7  2  1  0  0  0  0
  9  7  1  0  0  0  0
 10  9  1  0  0  0  0
 11  9  2  0  0  0  0
 11 13  1  0  0  0  0
 12 11  1  0  0  0  0
 13 15  2  0  0  0  0
 14 13  1  0  0  0  0
 15  2  1  0  0  0  0
 16 15  1  6  0  0  0
 16  5  1  0  0  0  0
 16  3  1  0  0  0  0
 17  4  2  0  0  0  0
 17 18  1  0  0  0  0
 18 19  2  0  0  0  0
 19 20  1  0  0  0  0
 21 19  1  0  0  0  0
 21 22  1  0  0  0  0
 23 21  2  0  0  0  0
 24 23  1  0  0  0  0
 25  6  1  0  0  0  0
 25 27  1  0  0  0  0
 26 25  1  0  0  0  0
 28 25  1  0  0  0  0
 29 37  1  0  0  0  0
 30 32  1  0  0  0  0
 30 29  2  0  0  0  0
 31 30  1  0  0  0  0
 32 34  2  0  0  0  0
 33 32  1  0  0  0  0
 34  1  1  0  0  0  0
 34 35  1  0  0  0  0
 35 36  1  0  0  0  0
 37 35  2  0  0  0  0
 37 38  1  0  0  0  0
M  END
