6,7
 OpenBabel05122313053D

 40 41  0  0  0  0  0  0  0  0999 V2000
   -6.7136   -1.1475    0.4987 F   0  0  0  0  0  0  0  0  0  0  0  0
   -7.5311   -3.1925    0.2912 F   0  0  0  0  0  0  0  0  0  0  0  0
    7.7648   -0.9285    0.8616 F   0  0  0  0  0  0  0  0  0  0  0  0
   -4.9066   -3.0045   -0.5438 O   0  0  0  0  0  0  0  0  0  0  0  0
    5.2785   -1.6636   -0.1848 O   0  0  0  0  0  0  0  0  0  0  0  0
   -1.4909    0.7202   -0.2887 N   0  0  0  0  0  2  0  0  0  0  0  0
    1.1009    1.0208   -0.0102 N   0  0  0  0  0  2  0  0  0  0  0  0
   -0.7709   -0.4440   -0.3076 C   0  0  0  0  0  0  0  0  0  0  0  0
   -1.4175   -1.6815   -0.4535 C   0  0  0  0  0  0  0  0  0  0  0  0
   -0.8279   -2.6100   -0.4516 H   0  0  0  0  0  0  0  0  0  0  0  0
   -2.8120   -1.7360   -0.5973 C   0  0  0  0  0  0  0  0  0  0  0  0
   -3.5257   -0.5226   -0.5807 C   0  0  0  0  0  0  0  0  0  0  0  0
   -4.6212   -0.5246   -0.6713 H   0  0  0  0  0  0  0  0  0  0  0  0
    8.6481   -2.7689   -0.0026 F   0  0  0  0  0  0  0  0  0  0  0  0
   -2.8336    0.6797   -0.4197 C   0  0  0  0  0  0  0  0  0  0  0  0
   -3.3223    1.6697   -0.3878 H   0  0  0  0  0  0  0  0  0  0  0  0
    0.6838   -0.2750   -0.1571 C   0  0  0  0  0  0  0  0  0  0  0  0
    1.6112   -1.3282   -0.1659 C   0  0  0  0  0  0  0  0  0  0  0  0
    1.2620   -2.3625   -0.2975 H   0  0  0  0  0  0  0  0  0  0  0  0
    2.9803   -1.0607   -0.0144 C   0  0  0  0  0  0  0  0  0  0  0  0
    3.3805    0.2793    0.1349 C   0  0  0  0  0  0  0  0  0  0  0  0
    4.4450    0.5233    0.2490 H   0  0  0  0  0  0  0  0  0  0  0  0
    2.4156    1.2891    0.1304 C   0  0  0  0  0  0  0  0  0  0  0  0
    2.6496    2.3629    0.2407 H   0  0  0  0  0  0  0  0  0  0  0  0
   -3.5264   -3.0587   -0.8094 C   0  0  0  0  0  0  0  0  0  0  0  0
   -3.4343   -3.3448   -1.8800 H   0  0  0  0  0  0  0  0  0  0  0  0
   -3.0190   -3.8614   -0.2196 H   0  0  0  0  0  0  0  0  0  0  0  0
   -5.2315   -2.9667    0.8284 C   0  0  0  0  0  0  0  0  0  0  0  0
   -4.5499   -2.2998    1.4075 H   0  0  0  0  0  0  0  0  0  0  0  0
   -5.1817   -3.9838    1.2876 H   0  0  0  0  0  0  0  0  0  0  0  0
   -6.6441   -2.4276    0.9845 C   0  0  0  0  0  0  0  0  0  0  0  0
    3.9885   -2.1818    0.0148 C   0  0  0  0  0  0  0  0  0  0  0  0
    3.9200   -2.7046    1.0042 H   0  0  0  0  0  0  0  0  0  0  0  0
    3.7295   -2.9481   -0.7592 H   0  0  0  0  0  0  0  0  0  0  0  0
    6.3119   -2.5927    0.0251 C   0  0  0  0  0  0  0  0  0  0  0  0
    6.2810   -3.4313   -0.7124 H   0  0  0  0  0  0  0  0  0  0  0  0
    6.2758   -3.0363    1.0503 H   0  0  0  0  0  0  0  0  0  0  0  0
    7.6356   -1.8602   -0.1251 C   0  0  0  0  0  0  0  0  0  0  0  0
   -6.9489   -2.4080    2.0576 H   0  0  0  0  0  0  0  0  0  0  0  0
    7.7245   -1.3433   -1.1085 H   0  0  0  0  0  0  0  0  0  0  0  0
  1 31  1  0  0  0  0
  2 31  1  0  0  0  0
  4 28  1  0  0  0  0
  5 32  1  0  0  0  0
  5 35  1  0  0  0  0
  7 23  1  0  0  0  0
  8  6  1  0  0  0  0
  8 17  2  0  0  0  0
  9 10  1  0  0  0  0
  9  8  1  0  0  0  0
 11 12  1  0  0  0  0
 11  9  2  0  0  0  0
 12 15  2  0  0  0  0
 13 12  1  0  0  0  0
 15 16  1  0  0  0  0
 15  6  1  0  0  0  0
 17  7  1  0  0  0  0
 18 17  1  0  0  0  0
 18 20  2  0  0  0  0
 19 18  1  0  0  0  0
 20 32  1  0  0  0  0
 20 21  1  0  0  0  0
 21 22  1  0  0  0  0
 23 21  2  0  0  0  0
 23 24  1  0  0  0  0
 25 11  1  0  0  0  0
 25  4  1  0  0  0  0
 25 27  1  0  0  0  0
 26 25  1  0  0  0  0
 28 31  1  0  0  0  0
 28 30  1  0  0  0  0
 28 29  1  0  0  0  0
 31 39  1  0  0  0  0
 32 33  1  0  0  0  0
 34 32  1  0  0  0  0
 35 37  1  0  0  0  0
 36 35  1  0  0  0  0
 38 14  1  0  0  0  0
 38 35  1  0  0  0  0
 38  3  1  0  0  0  0
 40 38  1  0  0  0  0
M  END
