1,3
 OpenBabel05122313053D

 28 30  0  0  0  0  0  0  0  0999 V2000
   -0.5300   -1.8145    0.0902 N   0  0  0  0  0  2  0  0  0  0  0  0
    0.3695   -2.7773   -0.2497 N   0  0  0  0  0  0  0  0  0  0  0  0
    1.6211   -1.0835   -1.2285 N   0  0  0  0  0  2  0  0  0  0  0  0
    2.7795   -0.5921   -1.7210 C   0  0  0  0  0  3  0  0  0  0  0  0
    2.7578    0.4607   -2.0410 H   0  0  0  0  0  0  0  0  0  0  0  0
    3.9417   -1.3598   -1.8233 C   0  0  0  0  0  0  0  0  0  0  0  0
    4.8585   -0.9169   -2.2354 H   0  0  0  0  0  0  0  0  0  0  0  0
    3.9071   -2.6942   -1.3840 C   0  0  0  0  0  0  0  0  0  0  0  0
    4.8048   -3.3268   -1.4395 H   0  0  0  0  0  0  0  0  0  0  0  0
    2.7207   -3.2119   -0.8521 C   0  0  0  0  0  0  0  0  0  0  0  0
    2.6708   -4.2398   -0.4685 H   0  0  0  0  0  0  0  0  0  0  0  0
    1.6036   -2.3642   -0.7961 C   0  0  0  0  0  0  0  0  0  0  0  0
   -0.1415   -4.0344   -0.0279 C   0  0  0  0  0  3  0  0  0  0  0  0
    0.4303   -4.9390   -0.2568 H   0  0  0  0  0  0  0  0  0  0  0  0
   -1.4231   -3.8647    0.4692 C   0  0  0  0  0  0  0  0  0  0  0  0
   -2.1167   -4.6549    0.7726 H   0  0  0  0  0  0  0  0  0  0  0  0
   -1.6326   -2.4522    0.5340 C   0  0  0  0  0  0  0  0  0  0  0  0
   -2.8088   -1.6967    0.9852 C   0  0  0  0  0  0  0  0  0  0  0  0
   -4.1002   -2.2618    0.8936 C   0  0  0  0  0  0  0  0  0  0  0  0
   -4.2248   -3.2800    0.4953 H   0  0  0  0  0  0  0  0  0  0  0  0
   -5.2267   -1.5231    1.2800 C   0  0  0  0  0  0  0  0  0  0  0  0
   -6.2274   -1.9727    1.1983 H   0  0  0  0  0  0  0  0  0  0  0  0
   -5.0804   -0.2140    1.7669 C   0  0  0  0  0  0  0  0  0  0  0  0
   -5.9662    0.3625    2.0728 H   0  0  0  0  0  0  0  0  0  0  0  0
   -3.7982    0.3507    1.8760 C   0  0  0  0  0  0  0  0  0  0  0  0
   -3.6763    1.3690    2.2752 H   0  0  0  0  0  0  0  0  0  0  0  0
   -2.6706   -0.3833    1.4914 C   0  0  0  0  0  0  0  0  0  0  0  0
   -1.6653    0.0541    1.5863 H   0  0  0  0  0  0  0  0  0  0  0  0
  1 17  1  0  0  0  0
  2 13  1  0  0  0  0
  2  1  1  0  0  0  0
  3 12  1  0  0  0  0
  4  3  1  0  0  0  0
  5  4  1  0  0  0  0
  6  4  1  0  0  0  0
  6  8  2  0  0  0  0
  7  6  1  0  0  0  0
  8 10  1  0  0  0  0
  9  8  1  0  0  0  0
 10 12  2  0  0  0  0
 10 11  1  0  0  0  0
 12  2  1  0  0  0  0
 13 15  1  0  0  0  0
 14 13  1  0  0  0  0
 15 17  2  0  0  0  0
 15 16  1  0  0  0  0
 17 18  1  0  0  0  0
 18 27  1  0  0  0  0
 19 18  2  0  0  0  0
 19 21  1  0  0  0  0
 20 19  1  0  0  0  0
 21 23  2  0  0  0  0
 22 21  1  0  0  0  0
 23 25  1  0  0  0  0
 23 24  1  0  0  0  0
 25 26  1  0  0  0  0
 27 28  1  0  0  0  0
 27 25  2  0  0  0  0
M  END
