1,2
 OpenBabel05122313053D

 43 46  0  0  1  0  0  0  0  0999 V2000
    1.8690   -0.7766   -0.5006 N   0  0  1  0  0  0  0  0  0  0  0  0
    0.1286    1.4800    0.3704 N   0  0  1  0  0  0  0  0  0  0  0  0
    2.3060   -2.1626   -0.9057 C   0  0  0  0  0  0  0  0  0  0  0  0
    1.7373   -2.4373   -1.8124 H   0  0  0  0  0  0  0  0  0  0  0  0
    3.3838   -2.0753   -1.1749 H   0  0  0  0  0  0  0  0  0  0  0  0
    2.1140   -3.2110    0.1857 C   0  0  0  0  0  0  0  0  0  0  0  0
    2.5506   -4.1610   -0.1839 H   0  0  0  0  0  0  0  0  0  0  0  0
    1.0281   -3.3942    0.3062 H   0  0  0  0  0  0  0  0  0  0  0  0
    2.7379   -2.8001    1.5198 C   0  0  0  0  0  0  0  0  0  0  0  0
    3.8480   -2.8211    1.4534 H   0  0  0  0  0  0  0  0  0  0  0  0
    2.4574   -3.5180    2.3161 H   0  0  0  0  0  0  0  0  0  0  0  0
    2.2913   -1.3826    1.8848 C   0  0  0  0  0  0  0  0  0  0  0  0
    1.1944   -1.3642    2.0752 H   0  0  0  0  0  0  0  0  0  0  0  0
    2.7910   -1.0296    2.8103 H   0  0  0  0  0  0  0  0  0  0  0  0
    2.6279   -0.4114    0.7516 C   0  0  2  0  0  0  0  0  0  0  0  0
    3.7033   -0.5680    0.4949 H   0  0  0  0  0  0  0  0  0  0  0  0
    2.5085    1.0776    1.1057 C   0  0  2  0  0  0  0  0  0  0  0  0
    3.1513    1.2321    1.9968 H   0  0  0  0  0  0  0  0  0  0  0  0
    1.1051    1.5430    1.4955 C   0  0  0  0  0  0  0  0  0  0  0  0
    0.6894    0.9343    2.3227 H   0  0  0  0  0  0  0  0  0  0  0  0
    1.1766    2.5875    1.8673 H   0  0  0  0  0  0  0  0  0  0  0  0
   -1.1711    2.1007    0.7912 C   0  0  0  0  0  0  0  0  0  0  0  0
   -1.4796    1.6066    1.7327 H   0  0  0  0  0  0  0  0  0  0  0  0
   -1.9178    1.8382    0.0193 H   0  0  0  0  0  0  0  0  0  0  0  0
   -1.1477    3.6224    0.9250 C   0  0  0  0  0  0  0  0  0  0  0  0
   -0.4589    3.9517    1.7319 H   0  0  0  0  0  0  0  0  0  0  0  0
   -2.1609    3.9484    1.2367 H   0  0  0  0  0  0  0  0  0  0  0  0
   -0.7465    4.2439   -0.4118 C   0  0  0  0  0  0  0  0  0  0  0  0
   -0.7001    5.3490   -0.3440 H   0  0  0  0  0  0  0  0  0  0  0  0
   -1.5184    4.0067   -1.1770 H   0  0  0  0  0  0  0  0  0  0  0  0
    0.6075    3.6835   -0.8437 C   0  0  0  0  0  0  0  0  0  0  0  0
    1.3900    4.0626   -0.1547 H   0  0  0  0  0  0  0  0  0  0  0  0
    0.8858    4.0499   -1.8529 H   0  0  0  0  0  0  0  0  0  0  0  0
    0.6473    2.1411   -0.8958 C   0  0  1  0  0  0  0  0  0  0  0  0
   -0.0554    1.8092   -1.6916 H   0  0  0  0  0  0  0  0  0  0  0  0
    2.0685    1.6428   -1.2399 C   0  0  2  0  0  0  0  0  0  0  0  0
    2.3862    2.2144   -2.1361 H   0  0  0  0  0  0  0  0  0  0  0  0
    2.1739    0.1620   -1.6235 C   0  0  0  0  0  0  0  0  0  0  0  0
    1.4996   -0.1000   -2.4631 H   0  0  0  0  0  0  0  0  0  0  0  0
    3.2164   -0.0322   -1.9646 H   0  0  0  0  0  0  0  0  0  0  0  0
    3.0235    1.9131   -0.0695 C   0  0  0  0  0  0  0  0  0  0  0  0
    4.0561    1.6114   -0.3376 H   0  0  0  0  0  0  0  0  0  0  0  0
    3.0656    2.9882    0.1910 H   0  0  0  0  0  0  0  0  0  0  0  0
  1 38  1  6  0  0  0
  1 15  1  0  0  0  0
  2 22  1  1  0  0  0
  2 19  1  0  0  0  0
  3  1  1  0  0  0  0
  3  6  1  0  0  0  0
  4  3  1  0  0  0  0
  5  3  1  0  0  0  0
  6  8  1  0  0  0  0
  6  9  1  0  0  0  0
  7  6  1  0  0  0  0
  9 12  1  0  0  0  0
  9 11  1  0  0  0  0
 10  9  1  0  0  0  0
 12 13  1  0  0  0  0
 12 14  1  0  0  0  0
 15 16  1  6  0  0  0
 15 17  1  0  0  0  0
 15 12  1  0  0  0  0
 17 19  1  0  0  0  0
 17 18  1  1  0  0  0
 19 21  1  0  0  0  0
 19 20  1  0  0  0  0
 22 25  1  0  0  0  0
 22 23  1  0  0  0  0
 24 22  1  0  0  0  0
 25 27  1  0  0  0  0
 25 26  1  0  0  0  0
 28 29  1  0  0  0  0
 28 25  1  0  0  0  0
 30 28  1  0  0  0  0
 31 28  1  0  0  0  0
 31 32  1  0  0  0  0
 33 31  1  0  0  0  0
 34 35  1  6  0  0  0
 34 31  1  0  0  0  0
 34  2  1  0  0  0  0
 36 37  1  6  0  0  0
 36 34  1  0  0  0  0
 36 41  1  0  0  0  0
 38 36  1  0  0  0  0
 39 38  1  0  0  0  0
 40 38  1  0  0  0  0
 41 43  1  0  0  0  0
 41 17  1  0  0  0  0
 42 41  1  0  0  0  0
M  END
