1,2
 OpenBabel05122313053D

 21 20  0  0  0  0  0  0  0  0999 V2000
   -0.7404   -0.7876   -1.4351 N   0  0  0  0  0  0  0  0  0  0  0  0
    1.4941   -0.4913    0.4273 N   0  0  0  0  0  0  0  0  0  0  0  0
   -2.0747   -1.3920   -1.4848 C   0  0  0  0  0  0  0  0  0  0  0  0
   -2.8292   -0.5905   -1.5964 H   0  0  0  0  0  0  0  0  0  0  0  0
   -2.2763   -1.8963   -0.5189 H   0  0  0  0  0  0  0  0  0  0  0  0
   -2.1928   -2.1178   -2.3207 H   0  0  0  0  0  0  0  0  0  0  0  0
    0.3810   -1.7374   -1.4279 C   0  0  0  0  0  0  0  0  0  0  0  0
    0.5681   -2.1833   -2.4319 H   0  0  0  0  0  0  0  0  0  0  0  0
    0.1044   -2.5790   -0.7597 H   0  0  0  0  0  0  0  0  0  0  0  0
    1.6561   -1.0527   -0.9307 C   0  0  0  0  0  0  0  0  0  0  0  0
    2.5139   -1.7659   -0.9712 H   0  0  0  0  0  0  0  0  0  0  0  0
    1.8916   -0.2000   -1.6013 H   0  0  0  0  0  0  0  0  0  0  0  0
    1.3980   -1.5228    1.4701 C   0  0  0  0  0  0  0  0  0  0  0  0
    1.1932   -1.0348    2.4409 H   0  0  0  0  0  0  0  0  0  0  0  0
    2.3349   -2.1238    1.5390 H   0  0  0  0  0  0  0  0  0  0  0  0
    0.5394   -2.1912    1.2758 H   0  0  0  0  0  0  0  0  0  0  0  0
    2.5589    0.4793    0.7289 C   0  0  0  0  0  0  0  0  0  0  0  0
    2.4893    1.3225    0.0142 H   0  0  0  0  0  0  0  0  0  0  0  0
    3.5690    0.0098    0.6810 H   0  0  0  0  0  0  0  0  0  0  0  0
    2.4047    0.8800    1.7493 H   0  0  0  0  0  0  0  0  0  0  0  0
   -0.6144   -0.0973   -2.1909 H   0  0  0  0  0  0  0  0  0  0  0  0
  1  7  1  0  0  0  0
  2 17  1  0  0  0  0
  2 13  1  0  0  0  0
  3  1  1  0  0  0  0
  3  5  1  0  0  0  0
  4  3  1  0  0  0  0
  6  3  1  0  0  0  0
  7 10  1  0  0  0  0
  7  9  1  0  0  0  0
  8  7  1  0  0  0  0
 10  2  1  0  0  0  0
 11 10  1  0  0  0  0
 12 10  1  0  0  0  0
 13 15  1  0  0  0  0
 13 14  1  0  0  0  0
 16 13  1  0  0  0  0
 17 20  1  0  0  0  0
 18 17  1  0  0  0  0
 19 17  1  0  0  0  0
 21  1  1  0  0  0  0
M  END
