1,2
 OpenBabel05122313053D

 11 10  0  0  0  0  0  0  0  0999 V2000
   -1.4596    1.1960   -0.9750 N   0  0  0  0  0  0  0  0  0  0  0  0
   -1.7437   -0.6613    0.7780 N   0  0  0  0  0  2  0  0  0  0  0  0
   -2.6242    1.3884   -0.1047 C   0  0  0  0  0  0  0  0  0  0  0  0
   -0.9482    2.0635   -1.1800 H   0  0  0  0  0  0  0  0  0  0  0  0
   -1.7129    0.7673   -1.8780 H   0  0  0  0  0  0  0  0  0  0  0  0
   -2.9802    0.0015    0.4191 C   0  0  0  0  0  0  0  0  0  0  0  0
   -1.8542   -1.4254    1.4579 H   0  0  0  0  0  0  0  0  0  0  0  0
   -2.3310    2.0489    0.7366 H   0  0  0  0  0  0  0  0  0  0  0  0
   -3.4820    1.8654   -0.6232 H   0  0  0  0  0  0  0  0  0  0  0  0
   -3.6718    0.0535    1.2860 H   0  0  0  0  0  0  0  0  0  0  0  0
   -3.5060   -0.5847   -0.3738 H   0  0  0  0  0  0  0  0  0  0  0  0
  1  3  1  0  0  0  0
  2  7  1  0  0  0  0
  3  6  1  0  0  0  0
  3  8  1  0  0  0  0
  4  1  1  0  0  0  0
  5  1  1  0  0  0  0
  6  2  1  0  0  0  0
  6 10  1  0  0  0  0
  9  3  1  0  0  0  0
 11  6  1  0  0  0  0
M  END
