1,4
 OpenBabel05122313053D

 23 25  0  0  0  0  0  0  0  0999 V2000
    1.6870    0.4296   -0.7807 N   0  0  0  0  0  2  0  0  0  0  0  0
    2.2589    1.5460   -1.1825 N   0  0  0  0  0  2  0  0  0  0  0  0
    3.5140    1.2085   -1.5413 N   0  0  0  0  0  0  0  0  0  0  0  0
    0.6672   -1.8263   -0.1331 N   0  0  0  0  0  2  0  0  0  0  0  0
    2.5334   -0.6419   -0.8889 C   0  0  0  0  0  0  0  0  0  0  0  0
    3.7623   -0.1608   -1.3760 C   0  0  0  0  0  0  0  0  0  0  0  0
    5.0508   -0.6529   -1.6969 C   0  0  0  0  0  0  0  0  0  0  0  0
    5.2730   -1.7188   -1.5624 H   0  0  0  0  0  0  0  0  0  0  0  0
    6.0112    0.2316   -2.1641 C   0  0  0  0  0  0  0  0  0  0  0  0
    7.0179   -0.1333   -2.4119 H   0  0  0  0  0  0  0  0  0  0  0  0
    5.7065    1.6156   -2.3207 C   0  0  0  0  0  0  0  0  0  0  0  0
    6.4650    2.3194   -2.6884 H   0  0  0  0  0  0  0  0  0  0  0  0
    4.4523    2.0937   -2.0045 C   0  0  0  0  0  0  0  0  0  0  0  0
    4.1221    3.1373   -2.0838 H   0  0  0  0  0  0  0  0  0  0  0  0
    0.0113   -2.9647    0.1671 C   0  0  0  0  0  3  0  0  0  0  0  0
   -1.0373   -2.8457    0.4721 H   0  0  0  0  0  0  0  0  0  0  0  0
    0.6205   -4.2244    0.1154 C   0  0  0  0  0  0  0  0  0  0  0  0
    0.0313   -5.1150    0.3752 H   0  0  0  0  0  0  0  0  0  0  0  0
    1.9689   -4.3231   -0.2556 C   0  0  0  0  0  0  0  0  0  0  0  0
    2.4786   -5.2970   -0.2894 H   0  0  0  0  0  0  0  0  0  0  0  0
    2.6557   -3.1508   -0.5843 C   0  0  0  0  0  0  0  0  0  0  0  0
    3.7115   -3.1782   -0.8833 H   0  0  0  0  0  0  0  0  0  0  0  0
    1.9770   -1.9224   -0.5270 C   0  0  0  0  0  0  0  0  0  0  0  0
  2  1  1  0  0  0  0
  3  6  1  0  0  0  0
  3  2  1  0  0  0  0
  4 15  1  0  0  0  0
  5  1  1  0  0  0  0
  5 23  1  0  0  0  0
  6  5  2  0  0  0  0
  7  8  1  0  0  0  0
  7  6  1  0  0  0  0
  9  7  2  0  0  0  0
 10  9  1  0  0  0  0
 11  9  1  0  0  0  0
 11 13  2  0  0  0  0
 12 11  1  0  0  0  0
 13  3  1  0  0  0  0
 14 13  1  0  0  0  0
 15 16  1  0  0  0  0
 17 15  1  0  0  0  0
 17 18  1  0  0  0  0
 19 17  2  0  0  0  0
 20 19  1  0  0  0  0
 21 23  2  0  0  0  0
 21 19  1  0  0  0  0
 22 21  1  0  0  0  0
 23  4  1  0  0  0  0
M  END
