1,2
 OpenBabel05122313053D

 11 10  0  0  0  0  0  0  0  0999 V2000
   -0.8192   -1.7230   -0.1893 N   0  0  0  0  0  0  0  0  0  0  0  0
   -1.7156    0.6256    0.0871 N   0  0  0  0  0  2  0  0  0  0  0  0
   -2.2599   -1.6727    0.1766 C   0  0  0  0  0  0  0  0  0  0  0  0
   -0.6967   -1.9778   -1.1807 H   0  0  0  0  0  0  0  0  0  0  0  0
   -0.2664   -2.4124    0.3439 H   0  0  0  0  0  0  0  0  0  0  0  0
   -2.0787    1.9699   -0.0377 O   0  0  0  0  0  0  0  0  0  0  0  0
   -2.7577   -0.2321    0.0272 C   0  0  0  0  0  0  0  0  0  0  0  0
   -2.8725   -2.3489   -0.4535 H   0  0  0  0  0  0  0  0  0  0  0  0
   -2.3768   -2.0002    1.2295 H   0  0  0  0  0  0  0  0  0  0  0  0
   -3.0663    1.8763   -0.1539 H   0  0  0  0  0  0  0  0  0  0  0  0
   -3.9468    0.1234   -0.0825 O   0  0  0  0  0  0  0  0  0  0  0  0
  1  3  1  0  0  0  0
  1  5  1  0  0  0  0
  3  9  1  0  0  0  0
  4  1  1  0  0  0  0
  6  2  1  0  0  0  0
  7  2  1  0  0  0  0
  7  3  1  0  0  0  0
  8  3  1  0  0  0  0
 10  6  1  0  0  0  0
 11  7  2  0  0  0  0
M  END
