1,2
 OpenBabel05122313053D

 13 12  0  0  0  0  0  0  0  0999 V2000
   -1.3842   -1.2709    0.1250 N   0  0  0  0  0  2  0  0  0  0  0  0
   -1.4322    1.2271    0.2733 N   0  0  0  0  0  2  0  0  0  0  0  0
   -3.7518   -1.5284   -0.1529 N   0  0  0  0  0  0  0  0  0  0  0  0
   -3.7183    1.3749   -0.3684 N   0  0  0  0  0  0  0  0  0  0  0  0
   -1.2111   -2.5442    0.1110 O   0  0  0  0  0  1  0  0  0  0  0  0
   -1.3586    2.6278    0.0692 O   0  0  0  0  0  0  0  0  0  0  0  0
   -2.6162   -0.7662    0.0293 C   0  0  0  0  0  0  0  0  0  0  0  0
   -2.6131    0.6892   -0.0470 C   0  0  0  0  0  0  0  0  0  0  0  0
   -1.3713    3.0011    0.9797 H   0  0  0  0  0  0  0  0  0  0  0  0
   -3.5120   -2.5222   -0.2630 H   0  0  0  0  0  0  0  0  0  0  0  0
   -4.4872   -1.4081    0.5539 H   0  0  0  0  0  0  0  0  0  0  0  0
   -4.5124    0.8617   -0.7561 H   0  0  0  0  0  0  0  0  0  0  0  0
   -3.6447    2.3809   -0.5333 H   0  0  0  0  0  0  0  0  0  0  0  0
  3  7  1  0  0  0  0
  3 11  1  0  0  0  0
  4  8  1  0  0  0  0
  5  1  1  0  0  0  0
  6  2  1  0  0  0  0
  6  9  1  0  0  0  0
  7  1  1  0  0  0  0
  8  7  2  0  0  0  0
  8  2  1  0  0  0  0
 10  3  1  0  0  0  0
 12  4  1  0  0  0  0
 13  4  1  0  0  0  0
M  END
