3,4
 OpenBabel05122313053D

 19 20  0  0  1  0  0  0  0  0999 V2000
    0.0262    2.4755   -0.4152 O   0  0  0  0  0  1  0  0  0  0  0  0
    0.0263   -2.4755   -0.4152 O   0  0  0  0  0  1  0  0  0  0  0  0
   -0.0861    1.2438   -0.4367 N   0  0  0  0  0  2  0  0  0  0  0  0
   -0.0861   -1.2438   -0.4367 N   0  0  0  0  0  2  0  0  0  0  0  0
   -1.4840   -0.7629   -0.7366 C   0  0  2  0  0  0  0  0  0  0  0  0
   -1.4840    0.7629   -0.7366 C   0  0  1  0  0  0  0  0  0  0  0  0
   -2.4694    1.1278    0.4294 C   0  0  2  0  0  0  0  0  0  0  0  0
   -2.1360    0.0000    1.4340 C   0  0  0  0  0  0  0  0  0  0  0  0
   -2.4694   -1.1278    0.4294 C   0  0  1  0  0  0  0  0  0  0  0  0
   -3.8423   -0.6760   -0.0536 C   0  0  0  0  0  0  0  0  0  0  0  0
   -3.8423    0.6760   -0.0536 C   0  0  0  0  0  0  0  0  0  0  0  0
   -1.7735   -1.2335   -1.6955 H   0  0  0  0  0  0  0  0  0  0  0  0
   -1.7735    1.2335   -1.6955 H   0  0  0  0  0  0  0  0  0  0  0  0
   -2.3625    2.1783    0.7542 H   0  0  0  0  0  0  0  0  0  0  0  0
   -1.0760    0.0000    1.7604 H   0  0  0  0  0  0  0  0  0  0  0  0
   -2.8082    0.0000    2.3130 H   0  0  0  0  0  0  0  0  0  0  0  0
   -2.3625   -2.1782    0.7543 H   0  0  0  0  0  0  0  0  0  0  0  0
   -4.6309   -1.3464   -0.4234 H   0  0  0  0  0  0  0  0  0  0  0  0
   -4.6309    1.3463   -0.4234 H   0  0  0  0  0  0  0  0  0  0  0  0
  3  1  1  0  0  0  0
  4  2  1  0  0  0  0
  5 12  1  6  0  0  0
  5  4  1  0  0  0  0
  5  9  1  0  0  0  0
  6 13  1  6  0  0  0
  6  5  1  0  0  0  0
  6  3  1  0  0  0  0
  6  7  1  0  0  0  0
  7 14  1  1  0  0  0
  7  8  1  0  0  0  0
  8 15  1  0  0  0  0
  8 16  1  0  0  0  0
  9 17  1  1  0  0  0
  9  8  1  0  0  0  0
 10  9  1  0  0  0  0
 11 10  2  0  0  0  0
 11  7  1  0  0  0  0
 18 10  1  0  0  0  0
 19 11  1  0  0  0  0
M  END
