1,2
 OpenBabel05122313053D

 70 72  0  0  0  0  0  0  0  0999 V2000
    1.2513   -0.0681    0.2583 N   0  0  0  0  0  2  0  0  0  0  0  0
   -1.2513   -0.0681    0.2583 N   0  0  0  0  0  2  0  0  0  0  0  0
   -2.5691    3.6535   -1.0445 C   0  0  0  0  0  0  0  0  0  0  0  0
   -1.7975    4.4502   -1.0655 H   0  0  0  0  0  0  0  0  0  0  0  0
   -3.5457    4.1510   -0.8706 H   0  0  0  0  0  0  0  0  0  0  0  0
   -2.6033    3.1799   -2.0456 H   0  0  0  0  0  0  0  0  0  0  0  0
   -2.2419    2.6271    0.0500 C   0  0  0  0  0  0  0  0  0  0  0  0
   -1.2209    2.2427   -0.1522 H   0  0  0  0  0  0  0  0  0  0  0  0
   -2.2171    3.2794    1.4444 C   0  0  0  0  0  0  0  0  0  0  0  0
   -1.9258    2.5520    2.2275 H   0  0  0  0  0  0  0  0  0  0  0  0
   -3.2157    3.6855    1.7105 H   0  0  0  0  0  0  0  0  0  0  0  0
   -1.4902    4.1177    1.4710 H   0  0  0  0  0  0  0  0  0  0  0  0
   -3.4886   -3.1939    1.4417 C   0  0  0  0  0  0  0  0  0  0  0  0
   -3.2222   -2.6527    2.3713 H   0  0  0  0  0  0  0  0  0  0  0  0
   -3.0464   -4.2096    1.4999 H   0  0  0  0  0  0  0  0  0  0  0  0
   -4.5921   -3.3108    1.4201 H   0  0  0  0  0  0  0  0  0  0  0  0
   -2.9754   -2.4523    0.1963 C   0  0  0  0  0  0  0  0  0  0  0  0
   -1.8742   -2.3753    0.2904 H   0  0  0  0  0  0  0  0  0  0  0  0
   -3.2791   -3.2360   -1.0920 C   0  0  0  0  0  0  0  0  0  0  0  0
   -2.9242   -2.6909   -1.9889 H   0  0  0  0  0  0  0  0  0  0  0  0
   -4.3691   -3.4058   -1.2130 H   0  0  0  0  0  0  0  0  0  0  0  0
   -2.7807   -4.2265   -1.0762 H   0  0  0  0  0  0  0  0  0  0  0  0
   -2.6657    0.0959    0.1323 C   0  0  0  0  0  0  0  0  0  0  0  0
   -3.5219   -1.0339    0.1126 C   0  0  0  0  0  0  0  0  0  0  0  0
   -4.9072   -0.8127   -0.0094 C   0  0  0  0  0  0  0  0  0  0  0  0
   -5.5894   -1.6767   -0.0294 H   0  0  0  0  0  0  0  0  0  0  0  0
   -5.4286    0.4825   -0.1039 C   0  0  0  0  0  0  0  0  0  0  0  0
   -6.5148    0.6342   -0.1948 H   0  0  0  0  0  0  0  0  0  0  0  0
   -4.5654    1.5861   -0.0905 C   0  0  0  0  0  0  0  0  0  0  0  0
   -4.9811    2.6017   -0.1728 H   0  0  0  0  0  0  0  0  0  0  0  0
   -3.1738    1.4208    0.0230 C   0  0  0  0  0  0  0  0  0  0  0  0
    2.5690    3.6535   -1.0446 C   0  0  0  0  0  0  0  0  0  0  0  0
    2.6033    3.1799   -2.0457 H   0  0  0  0  0  0  0  0  0  0  0  0
    3.5456    4.1511   -0.8706 H   0  0  0  0  0  0  0  0  0  0  0  0
    1.7974    4.4502   -1.0656 H   0  0  0  0  0  0  0  0  0  0  0  0
    2.2418    2.6271    0.0499 C   0  0  0  0  0  0  0  0  0  0  0  0
    1.2209    2.2427   -0.1523 H   0  0  0  0  0  0  0  0  0  0  0  0
    2.2170    3.2794    1.4443 C   0  0  0  0  0  0  0  0  0  0  0  0
    1.9257    2.5520    2.2274 H   0  0  0  0  0  0  0  0  0  0  0  0
    1.4901    4.1177    1.4708 H   0  0  0  0  0  0  0  0  0  0  0  0
    3.2155    3.6856    1.7104 H   0  0  0  0  0  0  0  0  0  0  0  0
    3.2792   -3.2360   -1.0919 C   0  0  0  0  0  0  0  0  0  0  0  0
    2.9242   -2.6909   -1.9889 H   0  0  0  0  0  0  0  0  0  0  0  0
    2.7808   -4.2265   -1.0761 H   0  0  0  0  0  0  0  0  0  0  0  0
    4.3692   -3.4058   -1.2129 H   0  0  0  0  0  0  0  0  0  0  0  0
    2.9755   -2.4522    0.1964 C   0  0  0  0  0  0  0  0  0  0  0  0
    1.8742   -2.3753    0.2904 H   0  0  0  0  0  0  0  0  0  0  0  0
    3.4887   -3.1939    1.4418 C   0  0  0  0  0  0  0  0  0  0  0  0
    3.2223   -2.6526    2.3714 H   0  0  0  0  0  0  0  0  0  0  0  0
    4.5922   -3.3107    1.4202 H   0  0  0  0  0  0  0  0  0  0  0  0
    3.0465   -4.2095    1.5000 H   0  0  0  0  0  0  0  0  0  0  0  0
    2.6657    0.0959    0.1323 C   0  0  0  0  0  0  0  0  0  0  0  0
    3.1738    1.4208    0.0230 C   0  0  0  0  0  0  0  0  0  0  0  0
    4.5654    1.5862   -0.0905 C   0  0  0  0  0  0  0  0  0  0  0  0
    4.9811    2.6018   -0.1729 H   0  0  0  0  0  0  0  0  0  0  0  0
    5.4286    0.4826   -0.1039 C   0  0  0  0  0  0  0  0  0  0  0  0
    6.5148    0.6343   -0.1948 H   0  0  0  0  0  0  0  0  0  0  0  0
    4.9072   -0.8126   -0.0093 C   0  0  0  0  0  0  0  0  0  0  0  0
    5.5894   -1.6766   -0.0293 H   0  0  0  0  0  0  0  0  0  0  0  0
    3.5219   -1.0339    0.1127 C   0  0  0  0  0  0  0  0  0  0  0  0
    0.7190   -0.1335    1.5077 C   0  0  0  0  0  0  0  0  0  0  0  0
    1.4282   -0.1558    2.7421 C   0  0  0  0  0  0  0  0  0  0  0  0
    2.5269   -0.1430    2.7344 H   0  0  0  0  0  0  0  0  0  0  0  0
    0.7117   -0.1838    3.9335 C   0  0  0  0  0  0  0  0  0  0  0  0
    1.2521   -0.2028    4.8917 H   0  0  0  0  0  0  0  0  0  0  0  0
   -0.7116   -0.1838    3.9335 C   0  0  0  0  0  0  0  0  0  0  0  0
   -1.2521   -0.2028    4.8917 H   0  0  0  0  0  0  0  0  0  0  0  0
   -1.4282   -0.1558    2.7421 C   0  0  0  0  0  0  0  0  0  0  0  0
   -2.5269   -0.1430    2.7344 H   0  0  0  0  0  0  0  0  0  0  0  0
   -0.7189   -0.1335    1.5077 C   0  0  0  0  0  0  0  0  0  0  0  0
  1 61  1  0  0  0  0
  2 70  1  0  0  0  0
  3  5  1  0  0  0  0
  3  7  1  0  0  0  0
  4  3  1  0  0  0  0
  6  3  1  0  0  0  0
  7  9  1  0  0  0  0
  8  7  1  0  0  0  0
  9 12  1  0  0  0  0
  9 11  1  0  0  0  0
  9 10  1  0  0  0  0
 13 15  1  0  0  0  0
 13 14  1  0  0  0  0
 16 13  1  0  0  0  0
 17 18  1  0  0  0  0
 17 13  1  0  0  0  0
 19 22  1  0  0  0  0
 19 17  1  0  0  0  0
 20 19  1  0  0  0  0
 21 19  1  0  0  0  0
 23  2  1  0  0  0  0
 24 23  1  0  0  0  0
 24 17  1  0  0  0  0
 25 24  2  0  0  0  0
 26 25  1  0  0  0  0
 27 29  2  0  0  0  0
 27 25  1  0  0  0  0
 28 27  1  0  0  0  0
 29 31  1  0  0  0  0
 30 29  1  0  0  0  0
 31  7  1  0  0  0  0
 31 23  2  0  0  0  0
 32 34  1  0  0  0  0
 32 36  1  0  0  0  0
 33 32  1  0  0  0  0
 35 32  1  0  0  0  0
 36 38  1  0  0  0  0
 37 36  1  0  0  0  0
 38 40  1  0  0  0  0
 38 41  1  0  0  0  0
 38 39  1  0  0  0  0
 42 44  1  0  0  0  0
 42 46  1  0  0  0  0
 43 42  1  0  0  0  0
 45 42  1  0  0  0  0
 46 47  1  0  0  0  0
 46 48  1  0  0  0  0
 48 51  1  0  0  0  0
 48 49  1  0  0  0  0
 50 48  1  0  0  0  0
 52  1  1  0  0  0  0
 53 36  1  0  0  0  0
 53 52  2  0  0  0  0
 54 53  1  0  0  0  0
 55 54  1  0  0  0  0
 56 54  2  0  0  0  0
 56 58  1  0  0  0  0
 57 56  1  0  0  0  0
 58 60  2  0  0  0  0
 59 58  1  0  0  0  0
 60 52  1  0  0  0  0
 60 46  1  0  0  0  0
 61 70  2  0  0  0  0
 61 62  1  0  0  0  0
 62 64  2  0  0  0  0
 63 62  1  0  0  0  0
 64 66  1  0  0  0  0
 64 65  1  0  0  0  0
 66 67  1  0  0  0  0
 68 66  2  0  0  0  0
 69 68  1  0  0  0  0
 70 68  1  0  0  0  0
M  END
