1,2
 OpenBabel05122313053D

 32 33  0  0  1  0  0  0  0  0999 V2000
    1.4800   -1.3537   -0.0904 N   0  0  0  0  0  0  0  0  0  0  0  0
    1.4800    1.3537    0.0904 N   0  0  0  0  0  0  0  0  0  0  0  0
    2.7735   -0.6552   -0.3845 C   0  0  2  0  0  0  0  0  0  0  0  0
    3.9640   -1.5744   -0.0828 C   0  0  0  0  0  0  0  0  0  0  0  0
    3.8687   -2.8860   -0.8704 C   0  0  0  0  0  0  0  0  0  0  0  0
    2.5004   -3.5461   -0.6768 C   0  0  0  0  0  0  0  0  0  0  0  0
    1.3733   -2.5534   -0.9677 C   0  0  0  0  0  0  0  0  0  0  0  0
    2.7736    0.6552    0.3843 C   0  0  1  0  0  0  0  0  0  0  0  0
    3.9640    1.5744    0.0825 C   0  0  0  0  0  0  0  0  0  0  0  0
    3.8688    2.8859    0.8702 C   0  0  0  0  0  0  0  0  0  0  0  0
    2.5005    3.5460    0.6769 C   0  0  0  0  0  0  0  0  0  0  0  0
    1.3734    2.5533    0.9678 C   0  0  0  0  0  0  0  0  0  0  0  0
    1.4941   -1.6329    0.9160 H   0  0  0  0  0  0  0  0  0  0  0  0
    2.7534   -0.4247   -1.4723 H   0  0  0  0  0  0  0  0  0  0  0  0
    3.9889   -1.7768    1.0115 H   0  0  0  0  0  0  0  0  0  0  0  0
    4.9067   -1.0472   -0.3300 H   0  0  0  0  0  0  0  0  0  0  0  0
    4.6824   -3.5746   -0.5680 H   0  0  0  0  0  0  0  0  0  0  0  0
    4.0216   -2.6740   -1.9508 H   0  0  0  0  0  0  0  0  0  0  0  0
    2.3977   -3.9221    0.3658 H   0  0  0  0  0  0  0  0  0  0  0  0
    2.3852   -4.4268   -1.3405 H   0  0  0  0  0  0  0  0  0  0  0  0
    1.4216   -2.2032   -2.0176 H   0  0  0  0  0  0  0  0  0  0  0  0
    0.3845   -3.0269   -0.8411 H   0  0  0  0  0  0  0  0  0  0  0  0
    1.4940    1.6330   -0.9159 H   0  0  0  0  0  0  0  0  0  0  0  0
    2.7536    0.4247    1.4722 H   0  0  0  0  0  0  0  0  0  0  0  0
    3.9887    1.7769   -1.0118 H   0  0  0  0  0  0  0  0  0  0  0  0
    4.9067    1.0472    0.3295 H   0  0  0  0  0  0  0  0  0  0  0  0
    4.6825    3.5746    0.5679 H   0  0  0  0  0  0  0  0  0  0  0  0
    4.0218    2.6738    1.9507 H   0  0  0  0  0  0  0  0  0  0  0  0
    2.3976    3.9222   -0.3656 H   0  0  0  0  0  0  0  0  0  0  0  0
    2.3853    4.4267    1.3408 H   0  0  0  0  0  0  0  0  0  0  0  0
    1.4218    2.2030    2.0177 H   0  0  0  0  0  0  0  0  0  0  0  0
    0.3845    3.0268    0.8414 H   0  0  0  0  0  0  0  0  0  0  0  0
  1 13  1  0  0  0  0
  2  8  1  0  0  0  0
  2 12  1  0  0  0  0
  3 14  1  6  0  0  0
  3  1  1  0  0  0  0
  3  4  1  0  0  0  0
  3  8  1  0  0  0  0
  4 15  1  0  0  0  0
  5  6  1  0  0  0  0
  5 17  1  0  0  0  0
  5  4  1  0  0  0  0
  6 19  1  0  0  0  0
  7 22  1  0  0  0  0
  7  6  1  0  0  0  0
  7  1  1  0  0  0  0
  8 24  1  1  0  0  0
  9 26  1  0  0  0  0
  9  8  1  0  0  0  0
  9 10  1  0  0  0  0
 10 28  1  0  0  0  0
 11 10  1  0  0  0  0
 11 12  1  0  0  0  0
 11 30  1  0  0  0  0
 12 31  1  0  0  0  0
 16  4  1  0  0  0  0
 18  5  1  0  0  0  0
 20  6  1  0  0  0  0
 21  7  1  0  0  0  0
 23  2  1  0  0  0  0
 25  9  1  0  0  0  0
 27 10  1  0  0  0  0
 29 11  1  0  0  0  0
 32 12  1  0  0  0  0
M  END
