2,3
 OpenBabel05122313053D

 32 34  0  0  1  0  0  0  0  0999 V2000
   -2.4805    1.8612   -1.7714 O   0  0  0  0  0  0  0  0  0  0  0  0
    0.4227    1.2734   -0.0113 N   0  0  0  0  0  2  0  0  0  0  0  0
    2.4724   -0.4093    0.4490 N   0  0  0  0  0  2  0  0  0  0  0  0
   -3.9540    0.3355   -0.1189 N   0  0  0  0  0  0  0  0  0  0  0  0
   -5.9732   -0.7280    0.1881 O   0  0  0  0  0  0  0  0  0  0  0  0
   -1.9730    1.5501   -0.6923 C   0  0  0  0  0  0  0  0  0  0  0  0
   -0.6040    2.0893   -0.3472 C   0  0  2  0  0  3  0  0  0  0  0  0
   -2.7275    0.7680    0.3079 C   0  0  0  0  0  0  0  0  0  0  0  0
    1.6272    1.8375    0.3090 C   0  0  0  0  0  0  0  0  0  0  0  0
    2.7063    0.9061    0.6943 C   0  0  1  0  0  3  0  0  0  0  0  0
    1.8216    3.2283    0.2778 C   0  0  0  0  0  0  0  0  0  0  0  0
    2.8023    3.6513    0.5295 H   0  0  0  0  0  0  0  0  0  0  0  0
   -0.4526    3.4842   -0.4454 C   0  0  0  0  0  0  0  0  0  0  0  0
   -1.3119    4.0836   -0.7752 H   0  0  0  0  0  0  0  0  0  0  0  0
    0.7750    4.0642   -0.1214 C   0  0  0  0  0  0  0  0  0  0  0  0
    0.9194    5.1525   -0.1826 H   0  0  0  0  0  0  0  0  0  0  0  0
    3.9001    1.3198    1.3154 C   0  0  0  0  0  0  0  0  0  0  0  0
    4.0729    2.3822    1.5297 H   0  0  0  0  0  0  0  0  0  0  0  0
   -2.3040    0.5023    1.6001 C   0  0  0  0  0  0  0  0  0  0  0  0
   -1.3169    0.8280    1.9426 H   0  0  0  0  0  0  0  0  0  0  0  0
   -3.1719   -0.2418    2.4540 C   0  0  0  0  0  0  0  0  0  0  0  0
   -2.8356   -0.4847    3.4731 H   0  0  0  0  0  0  0  0  0  0  0  0
   -4.8873   -0.3904    0.6500 C   0  0  0  0  0  0  0  0  0  0  0  0
   -4.4012   -0.6680    2.0079 C   0  0  0  0  0  0  0  0  0  0  0  0
   -5.0838   -1.2464    2.6464 H   0  0  0  0  0  0  0  0  0  0  0  0
    4.8546    0.3659    1.6798 C   0  0  0  0  0  0  0  0  0  0  0  0
    5.7913    0.6764    2.1653 H   0  0  0  0  0  0  0  0  0  0  0  0
    3.3820   -1.3325    0.8164 C   0  0  0  0  0  0  0  0  0  0  0  0
    3.1264   -2.3808    0.6110 H   0  0  0  0  0  0  0  0  0  0  0  0
    4.5903   -0.9875    1.4284 C   0  0  0  0  0  0  0  0  0  0  0  0
    5.3044   -1.7757    1.7041 H   0  0  0  0  0  0  0  0  0  0  0  0
   -4.2097    0.5638   -1.0886 H   0  0  0  0  0  0  0  0  0  0  0  0
  1  6  2  0  0  0  0
  2  9  1  0  0  0  0
  3 10  1  0  0  0  0
  3 28  1  0  0  0  0
  4  8  1  0  0  0  0
  4 23  1  0  0  0  0
  5 23  2  0  0  0  0
  6  8  1  0  0  0  0
  7  6  1  6  0  0  0
  7  2  1  0  0  0  0
  8 19  2  0  0  0  0
 10  9  1  1  0  0  0
 10 17  1  0  0  0  0
 11  9  2  0  0  0  0
 11 12  1  0  0  0  0
 13  7  1  0  0  0  0
 13 15  2  0  0  0  0
 14 13  1  0  0  0  0
 15 11  1  0  0  0  0
 16 15  1  0  0  0  0
 17 18  1  0  0  0  0
 17 26  2  0  0  0  0
 19 20  1  0  0  0  0
 19 21  1  0  0  0  0
 21 22  1  0  0  0  0
 23 24  1  0  0  0  0
 24 21  2  0  0  0  0
 24 25  1  0  0  0  0
 26 27  1  0  0  0  0
 28 30  2  0  0  0  0
 29 28  1  0  0  0  0
 30 26  1  0  0  0  0
 30 31  1  0  0  0  0
 32  4  1  0  0  0  0
M  END
