1,2
 OpenBabel05122313053D

 50 51  0  0  0  0  0  0  0  0999 V2000
    1.3837   -1.1269    0.5634 N   0  0  0  0  0  2  0  0  0  0  0  0
    1.7997    1.0207   -0.8894 N   0  0  0  0  0  2  0  0  0  0  0  0
   -3.2331   -1.4474   -0.5757 O   0  0  0  0  0  0  0  0  0  0  0  0
   -1.9006   -0.1679   -1.9157 O   0  0  0  0  0  0  0  0  0  0  0  0
   -1.6320    1.2398    1.3201 O   0  0  0  0  0  0  0  0  0  0  0  0
   -2.6482    2.6861   -0.1346 O   0  0  0  0  0  0  0  0  0  0  0  0
    1.3092   -2.3077    1.2137 C   0  0  0  0  0  0  0  0  0  0  0  0
    2.2795   -2.6825    1.5858 H   0  0  0  0  0  0  0  0  0  0  0  0
    0.0973   -2.9873    1.3481 C   0  0  0  0  0  0  0  0  0  0  0  0
    0.0625   -3.9357    1.9024 H   0  0  0  0  0  0  0  0  0  0  0  0
   -1.0341   -2.4805    0.6958 C   0  0  0  0  0  0  0  0  0  0  0  0
   -1.9812   -3.0367    0.6775 H   0  0  0  0  0  0  0  0  0  0  0  0
   -0.9578   -1.2587    0.0048 C   0  0  0  0  0  0  0  0  0  0  0  0
    0.2638   -0.5371    0.0478 C   0  0  0  0  0  0  0  0  0  0  0  0
    0.5068    0.8182   -0.4926 C   0  0  0  0  0  0  0  0  0  0  0  0
   -0.4303    1.8762   -0.5857 C   0  0  0  0  0  0  0  0  0  0  0  0
   -0.0737    3.0214   -1.3149 C   0  0  0  0  0  0  0  0  0  0  0  0
   -0.8207    3.8228   -1.4134 H   0  0  0  0  0  0  0  0  0  0  0  0
    1.2158    3.1351   -1.8481 C   0  0  0  0  0  0  0  0  0  0  0  0
    1.5213    4.0180   -2.4269 H   0  0  0  0  0  0  0  0  0  0  0  0
    2.1508    2.1381   -1.5594 C   0  0  0  0  0  0  0  0  0  0  0  0
    3.2224    2.1951   -1.8195 H   0  0  0  0  0  0  0  0  0  0  0  0
   -2.0729   -0.8644   -0.9287 C   0  0  0  0  0  0  0  0  0  0  0  0
   -4.4199   -1.4066   -1.4769 C   0  0  0  0  0  0  0  0  0  0  0  0
   -4.0636   -2.1000   -2.7946 C   0  0  0  0  0  0  0  0  0  0  0  0
   -3.3056   -1.5265   -3.3582 H   0  0  0  0  0  0  0  0  0  0  0  0
   -4.9739   -2.1871   -3.4200 H   0  0  0  0  0  0  0  0  0  0  0  0
   -3.6785   -3.1219   -2.6058 H   0  0  0  0  0  0  0  0  0  0  0  0
   -4.8826    0.0376   -1.6860 C   0  0  0  0  0  0  0  0  0  0  0  0
   -5.1180    0.5199   -0.7188 H   0  0  0  0  0  0  0  0  0  0  0  0
   -5.8051    0.0331   -2.2998 H   0  0  0  0  0  0  0  0  0  0  0  0
   -4.1142    0.6387   -2.2029 H   0  0  0  0  0  0  0  0  0  0  0  0
   -5.4581   -2.2098   -0.6936 C   0  0  0  0  0  0  0  0  0  0  0  0
   -5.1025   -3.2429   -0.5100 H   0  0  0  0  0  0  0  0  0  0  0  0
   -6.4037   -2.2635   -1.2673 H   0  0  0  0  0  0  0  0  0  0  0  0
   -5.6708   -1.7313    0.2825 H   0  0  0  0  0  0  0  0  0  0  0  0
   -1.7215    1.9631    0.1883 C   0  0  0  0  0  0  0  0  0  0  0  0
   -2.6244    1.3408    2.4182 C   0  0  0  0  0  0  0  0  0  0  0  0
   -2.6255    2.7768    2.9480 C   0  0  0  0  0  0  0  0  0  0  0  0
   -1.6038    3.0793    3.2518 H   0  0  0  0  0  0  0  0  0  0  0  0
   -3.2827    2.8413    3.8375 H   0  0  0  0  0  0  0  0  0  0  0  0
   -2.9997    3.4831    2.1840 H   0  0  0  0  0  0  0  0  0  0  0  0
   -4.0058    0.8997    1.9319 C   0  0  0  0  0  0  0  0  0  0  0  0
   -4.4058    1.6091    1.1851 H   0  0  0  0  0  0  0  0  0  0  0  0
   -4.7005    0.8604    2.7944 H   0  0  0  0  0  0  0  0  0  0  0  0
   -3.9516   -0.1092    1.4797 H   0  0  0  0  0  0  0  0  0  0  0  0
   -2.0664    0.3640    3.4542 C   0  0  0  0  0  0  0  0  0  0  0  0
   -2.0272   -0.6629    3.0405 H   0  0  0  0  0  0  0  0  0  0  0  0
   -2.7107    0.3565    4.3547 H   0  0  0  0  0  0  0  0  0  0  0  0
   -1.0418    0.6573    3.7555 H   0  0  0  0  0  0  0  0  0  0  0  0
  1  7  1  0  0  0  0
  2 15  1  0  0  0  0
  4 23  2  0  0  0  0
  5 38  1  0  0  0  0
  6 37  2  0  0  0  0
  7  9  2  0  0  0  0
  7  8  1  0  0  0  0
  9 10  1  0  0  0  0
 11  9  1  0  0  0  0
 12 11  1  0  0  0  0
 13 14  1  0  0  0  0
 13 11  2  0  0  0  0
 14  1  1  0  0  0  0
 15 14  2  0  0  0  0
 16 15  1  0  0  0  0
 16 37  1  0  0  0  0
 17 16  2  0  0  0  0
 18 17  1  0  0  0  0
 19 21  2  0  0  0  0
 19 17  1  0  0  0  0
 20 19  1  0  0  0  0
 21  2  1  0  0  0  0
 22 21  1  0  0  0  0
 23  3  1  0  0  0  0
 23 13  1  0  0  0  0
 24 33  1  0  0  0  0
 24  3  1  0  0  0  0
 25 28  1  0  0  0  0
 25 24  1  0  0  0  0
 26 25  1  0  0  0  0
 27 25  1  0  0  0  0
 29 24  1  0  0  0  0
 29 30  1  0  0  0  0
 31 29  1  0  0  0  0
 32 29  1  0  0  0  0
 33 34  1  0  0  0  0
 33 36  1  0  0  0  0
 35 33  1  0  0  0  0
 37  5  1  0  0  0  0
 38 39  1  0  0  0  0
 38 47  1  0  0  0  0
 39 40  1  0  0  0  0
 39 41  1  0  0  0  0
 42 39  1  0  0  0  0
 43 38  1  0  0  0  0
 43 45  1  0  0  0  0
 44 43  1  0  0  0  0
 46 43  1  0  0  0  0
 47 50  1  0  0  0  0
 47 49  1  0  0  0  0
 48 47  1  0  0  0  0
M  END
