1,2
 OpenBabel05122313053D

 37 40  0  0  0  0  0  0  0  0999 V2000
   -0.3958   -1.6347   -0.7882 N   0  0  0  0  0  2  0  0  0  0  0  0
   -0.2448    0.9898   -0.5814 N   0  0  0  0  0  2  0  0  0  0  0  0
    1.9487    1.2143   -1.0193 N   0  0  0  0  0  0  0  0  0  0  0  0
    0.8292   -1.1058   -1.1055 C   0  0  0  0  0  0  0  0  0  0  0  0
    1.8707   -1.9272   -1.5796 C   0  0  0  0  0  0  0  0  0  0  0  0
    2.8523   -1.5067   -1.8184 H   0  0  0  0  0  0  0  0  0  0  0  0
    1.6501   -3.2997   -1.7262 C   0  0  0  0  0  0  0  0  0  0  0  0
    2.4594   -3.9508   -2.0869 H   0  0  0  0  0  0  0  0  0  0  0  0
    0.3916   -3.8274   -1.4037 C   0  0  0  0  0  0  0  0  0  0  0  0
    0.1732   -4.8997   -1.5007 H   0  0  0  0  0  0  0  0  0  0  0  0
   -0.6000   -2.9584   -0.9394 C   0  0  0  0  0  0  0  0  0  0  0  0
   -1.5988   -3.3240   -0.6613 H   0  0  0  0  0  0  0  0  0  0  0  0
    0.8823    0.3405   -0.9196 C   0  0  0  0  0  0  0  0  0  0  0  0
    3.3583    0.9006   -1.1919 C   0  0  0  0  0  0  0  0  0  0  0  0
    3.8882    1.8709   -1.2688 H   0  0  0  0  0  0  0  0  0  0  0  0
    3.5114    0.4049   -2.1744 H   0  0  0  0  0  0  0  0  0  0  0  0
    1.4620    2.4847   -0.7193 C   0  0  0  0  0  0  0  0  0  0  0  0
    2.0908    3.7385   -0.6498 C   0  0  0  0  0  0  0  0  0  0  0  0
    3.1649    3.8679   -0.8448 H   0  0  0  0  0  0  0  0  0  0  0  0
    1.2837    4.8303   -0.3111 C   0  0  0  0  0  0  0  0  0  0  0  0
    1.7383    5.8297   -0.2437 H   0  0  0  0  0  0  0  0  0  0  0  0
   -0.1017    4.6809   -0.0481 C   0  0  0  0  0  0  0  0  0  0  0  0
   -0.6942    5.5682    0.2186 H   0  0  0  0  0  0  0  0  0  0  0  0
   -0.7276    3.4342   -0.1124 C   0  0  0  0  0  0  0  0  0  0  0  0
   -1.7964    3.3089    0.1033 H   0  0  0  0  0  0  0  0  0  0  0  0
    0.0717    2.3267   -0.4537 C   0  0  0  0  0  0  0  0  0  0  0  0
    3.9582    0.0689   -0.0683 C   0  0  0  0  0  0  0  0  0  0  0  0
    5.2354   -0.4959   -0.2593 C   0  0  0  0  0  0  0  0  0  0  0  0
    5.7715   -0.3319   -1.2087 H   0  0  0  0  0  0  0  0  0  0  0  0
    5.8287   -1.2673    0.7495 C   0  0  0  0  0  0  0  0  0  0  0  0
    6.8271   -1.7020    0.5893 H   0  0  0  0  0  0  0  0  0  0  0  0
    5.1453   -1.4918    1.9565 C   0  0  0  0  0  0  0  0  0  0  0  0
    5.6055   -2.1064    2.7450 H   0  0  0  0  0  0  0  0  0  0  0  0
    3.8719   -0.9367    2.1463 C   0  0  0  0  0  0  0  0  0  0  0  0
    3.3131   -1.1167    3.0768 H   0  0  0  0  0  0  0  0  0  0  0  0
    3.2791   -0.1531    1.1432 C   0  0  0  0  0  0  0  0  0  0  0  0
    2.2666    0.2439    1.3202 H   0  0  0  0  0  0  0  0  0  0  0  0
  2 26  1  0  0  0  0
  3 13  1  0  0  0  0
  3 17  1  0  0  0  0
  4 13  2  0  0  0  0
  4  1  1  0  0  0  0
  5  4  1  0  0  0  0
  6  5  1  0  0  0  0
  7  5  2  0  0  0  0
  7  9  1  0  0  0  0
  8  7  1  0  0  0  0
  9 11  2  0  0  0  0
 10  9  1  0  0  0  0
 11  1  1  0  0  0  0
 11 12  1  0  0  0  0
 13  2  1  0  0  0  0
 14  3  1  0  0  0  0
 14 27  1  0  0  0  0
 15 14  1  0  0  0  0
 16 14  1  0  0  0  0
 17 18  2  0  0  0  0
 17 26  1  0  0  0  0
 18 20  1  0  0  0  0
 19 18  1  0  0  0  0
 20 21  1  0  0  0  0
 20 22  2  0  0  0  0
 22 23  1  0  0  0  0
 24 22  1  0  0  0  0
 24 25  1  0  0  0  0
 26 24  2  0  0  0  0
 27 36  1  0  0  0  0
 28 27  2  0  0  0  0
 28 30  1  0  0  0  0
 29 28  1  0  0  0  0
 30 32  2  0  0  0  0
 31 30  1  0  0  0  0
 32 34  1  0  0  0  0
 32 33  1  0  0  0  0
 34 35  1  0  0  0  0
 36 37  1  0  0  0  0
 36 34  2  0  0  0  0
M  END
