1,2
 OpenBabel05122313053D

 30 32  0  0  0  0  0  0  0  0999 V2000
    0.5848   -2.3621   -0.0800 N   0  0  0  0  0  2  0  0  0  0  0  0
    1.9737   -0.1416   -0.0486 N   0  0  0  0  0  2  0  0  0  0  0  0
    4.0397   -1.0249   -0.1804 N   0  0  0  0  0  0  0  0  0  0  0  0
    5.1603   -1.9575   -0.2389 C   0  0  0  0  0  0  0  0  0  0  0  0
    5.9919   -1.4199   -0.7358 H   0  0  0  0  0  0  0  0  0  0  0  0
    4.8925   -2.7865   -0.9225 H   0  0  0  0  0  0  0  0  0  0  0  0
    5.5949   -2.4655    1.1351 C   0  0  0  0  0  0  0  0  0  0  0  0
    6.4622   -3.1479    1.0354 H   0  0  0  0  0  0  0  0  0  0  0  0
    4.7782   -3.0163    1.6428 H   0  0  0  0  0  0  0  0  0  0  0  0
    5.8912   -1.6217    1.7887 H   0  0  0  0  0  0  0  0  0  0  0  0
    1.9502   -2.5489   -0.1177 C   0  0  0  0  0  0  0  0  0  0  0  0
    2.4910   -3.8511   -0.1290 C   0  0  0  0  0  0  0  0  0  0  0  0
    3.5750   -4.0065   -0.1368 H   0  0  0  0  0  0  0  0  0  0  0  0
    1.6347   -4.9569   -0.1185 C   0  0  0  0  0  0  0  0  0  0  0  0
    2.0510   -5.9747   -0.1272 H   0  0  0  0  0  0  0  0  0  0  0  0
    0.2470   -4.7460   -0.0922 C   0  0  0  0  0  0  0  0  0  0  0  0
   -0.4627   -5.5849   -0.0834 H   0  0  0  0  0  0  0  0  0  0  0  0
   -0.2351   -3.4350   -0.0699 C   0  0  0  0  0  0  0  0  0  0  0  0
   -1.3104   -3.1901   -0.0419 H   0  0  0  0  0  0  0  0  0  0  0  0
    2.6816   -1.2883   -0.1205 C   0  0  0  0  0  0  0  0  0  0  0  0
    4.1902    0.3570   -0.1118 C   0  0  0  0  0  0  0  0  0  0  0  0
    5.3334    1.1748   -0.1117 C   0  0  0  0  0  0  0  0  0  0  0  0
    6.3505    0.7605   -0.1608 H   0  0  0  0  0  0  0  0  0  0  0  0
    5.1177    2.5558   -0.0352 C   0  0  0  0  0  0  0  0  0  0  0  0
    5.9859    3.2316   -0.0303 H   0  0  0  0  0  0  0  0  0  0  0  0
    3.8121    3.1051    0.0432 C   0  0  0  0  0  0  0  0  0  0  0  0
    3.6933    4.1968    0.1078 H   0  0  0  0  0  0  0  0  0  0  0  0
    2.6744    2.2948    0.0464 C   0  0  0  0  0  0  0  0  0  0  0  0
    1.6514    2.6918    0.1100 H   0  0  0  0  0  0  0  0  0  0  0  0
    2.8777    0.9040   -0.0343 C   0  0  0  0  0  0  0  0  0  0  0  0
  1 18  1  0  0  0  0
  2 30  1  0  0  0  0
  3 20  1  0  0  0  0
  3 21  1  0  0  0  0
  4  3  1  0  0  0  0
  4  7  1  0  0  0  0
  5  4  1  0  0  0  0
  6  4  1  0  0  0  0
  7  9  1  0  0  0  0
  7 10  1  0  0  0  0
  8  7  1  0  0  0  0
 11  1  1  0  0  0  0
 12 14  2  0  0  0  0
 12 11  1  0  0  0  0
 13 12  1  0  0  0  0
 14 16  1  0  0  0  0
 15 14  1  0  0  0  0
 16 17  1  0  0  0  0
 16 18  2  0  0  0  0
 18 19  1  0  0  0  0
 20 11  2  0  0  0  0
 20  2  1  0  0  0  0
 21 22  2  0  0  0  0
 21 30  1  0  0  0  0
 22 24  1  0  0  0  0
 23 22  1  0  0  0  0
 24 25  1  0  0  0  0
 24 26  2  0  0  0  0
 26 28  1  0  0  0  0
 26 27  1  0  0  0  0
 28 29  1  0  0  0  0
 30 28  2  0  0  0  0
M  END
