2,13
 OpenBabel05122313053D

 46 46  0  0  0  0  0  0  0  0999 V2000
   -1.3731    0.6997   -0.1204 P   0  0  0  0  0  4  0  0  0  0  0  0
   -0.4416    0.1740    1.1544 N   0  0  0  0  0  2  0  0  0  0  0  0
   -0.9349    0.0608    2.5315 C   0  0  0  0  0  0  0  0  0  0  0  0
   -1.7869    0.7744    2.6313 H   0  0  0  0  0  0  0  0  0  0  0  0
    0.1514    0.5065    3.5143 C   0  0  0  0  0  0  0  0  0  0  0  0
    0.5239    1.5182    3.2599 H   0  0  0  0  0  0  0  0  0  0  0  0
    1.0125   -0.1909    3.4921 H   0  0  0  0  0  0  0  0  0  0  0  0
   -0.2408    0.5252    4.5500 H   0  0  0  0  0  0  0  0  0  0  0  0
   -1.4656   -1.3433    2.8448 C   0  0  0  0  0  0  0  0  0  0  0  0
   -2.2698   -1.6339    2.1410 H   0  0  0  0  0  0  0  0  0  0  0  0
   -1.8716   -1.3917    3.8747 H   0  0  0  0  0  0  0  0  0  0  0  0
   -0.6516   -2.0912    2.7639 H   0  0  0  0  0  0  0  0  0  0  0  0
   -0.1841    0.3679   -1.2310 N   0  0  0  0  0  2  0  0  0  0  0  0
   -0.2003    0.7669   -2.6419 C   0  0  0  0  0  0  0  0  0  0  0  0
   -1.1391    1.3453   -2.8111 H   0  0  0  0  0  0  0  0  0  0  0  0
    0.9794    1.6997   -2.9415 C   0  0  0  0  0  0  0  0  0  0  0  0
    0.9765    2.5759   -2.2646 H   0  0  0  0  0  0  0  0  0  0  0  0
    0.9413    2.0642   -3.9869 H   0  0  0  0  0  0  0  0  0  0  0  0
    1.9409    1.1673   -2.7990 H   0  0  0  0  0  0  0  0  0  0  0  0
   -0.2207   -0.4415   -3.5838 C   0  0  0  0  0  0  0  0  0  0  0  0
   -1.1056   -1.0813   -3.4023 H   0  0  0  0  0  0  0  0  0  0  0  0
    0.6892   -1.0594   -3.4459 H   0  0  0  0  0  0  0  0  0  0  0  0
   -0.2500   -0.1127   -4.6412 H   0  0  0  0  0  0  0  0  0  0  0  0
   -1.8892    2.2725    0.0121 N   0  0  0  0  0  0  0  0  0  0  0  0
   -2.8312    2.5145   -0.3089 H   0  0  0  0  0  0  0  0  0  0  0  0
   -0.9950    3.3957    0.3590 C   0  0  0  0  0  0  0  0  0  0  0  0
    0.0240    2.9562    0.4345 H   0  0  0  0  0  0  0  0  0  0  0  0
   -1.0002    4.4457   -0.7535 C   0  0  0  0  0  0  0  0  0  0  0  0
   -0.7111    4.0048   -1.7274 H   0  0  0  0  0  0  0  0  0  0  0  0
   -0.2952    5.2675   -0.5206 H   0  0  0  0  0  0  0  0  0  0  0  0
   -2.0090    4.8965   -0.8644 H   0  0  0  0  0  0  0  0  0  0  0  0
   -1.3722    3.9846    1.7210 C   0  0  0  0  0  0  0  0  0  0  0  0
   -1.3280    3.2144    2.5154 H   0  0  0  0  0  0  0  0  0  0  0  0
   -2.4008    4.4008    1.6991 H   0  0  0  0  0  0  0  0  0  0  0  0
   -0.6831    4.8072    1.9972 H   0  0  0  0  0  0  0  0  0  0  0  0
   -2.8979   -0.2479   -0.3481 C   0  0  0  0  0  0  0  0  0  0  0  0
   -4.1195    0.1653    0.2276 C   0  0  0  0  0  0  0  0  0  0  0  0
   -4.1862    1.1156    0.7786 H   0  0  0  0  0  0  0  0  0  0  0  0
   -5.2547   -0.6514    0.1189 C   0  0  0  0  0  0  0  0  0  0  0  0
   -6.2053   -0.3245    0.5657 H   0  0  0  0  0  0  0  0  0  0  0  0
   -5.1758   -1.8845   -0.5472 C   0  0  0  0  0  0  0  0  0  0  0  0
   -6.0681   -2.5228   -0.6283 H   0  0  0  0  0  0  0  0  0  0  0  0
   -3.9572   -2.3064   -1.1056 C   0  0  0  0  0  0  0  0  0  0  0  0
   -3.8948   -3.2740   -1.6254 H   0  0  0  0  0  0  0  0  0  0  0  0
   -2.8203   -1.4944   -1.0066 C   0  0  0  0  0  0  0  0  0  0  0  0
   -1.8601   -1.8208   -1.4336 H   0  0  0  0  0  0  0  0  0  0  0  0
  1 24  1  0  0  0  0
  1  2  1  0  0  0  0
  2  3  1  0  0  0  0
  3  4  1  0  0  0  0
  3  9  1  0  0  0  0
  3  5  1  0  0  0  0
  5  8  1  0  0  0  0
  6  5  1  0  0  0  0
  7  5  1  0  0  0  0
  9 11  1  0  0  0  0
 10  9  1  0  0  0  0
 12  9  1  0  0  0  0
 13  1  1  0  0  0  0
 14 13  1  0  0  0  0
 15 14  1  0  0  0  0
 16 19  1  0  0  0  0
 16 14  1  0  0  0  0
 16 17  1  0  0  0  0
 18 16  1  0  0  0  0
 20 22  1  0  0  0  0
 20 21  1  0  0  0  0
 20 14  1  0  0  0  0
 23 20  1  0  0  0  0
 24 26  1  0  0  0  0
 25 24  1  0  0  0  0
 26 27  1  0  0  0  0
 26 32  1  0  0  0  0
 28 30  1  0  0  0  0
 28 26  1  0  0  0  0
 29 28  1  0  0  0  0
 31 28  1  0  0  0  0
 32 35  1  0  0  0  0
 32 33  1  0  0  0  0
 34 32  1  0  0  0  0
 36  1  1  0  0  0  0
 36 37  1  0  0  0  0
 37 38  1  0  0  0  0
 39 37  2  0  0  0  0
 39 40  1  0  0  0  0
 41 39  1  0  0  0  0
 42 41  1  0  0  0  0
 43 45  1  0  0  0  0
 43 41  2  0  0  0  0
 44 43  1  0  0  0  0
 45 36  2  0  0  0  0
 46 45  1  0  0  0  0
M  END
