1,18
 OpenBabel05122313053D

 26 27  0  0  1  0  0  0  0  0999 V2000
   -2.0330   -1.7123   -0.2971 N   0  0  0  0  0  2  0  0  0  0  0  0
   -1.8502   -3.0100   -0.6816 C   0  0  2  0  0  3  0  0  0  0  0  0
   -2.8396   -3.6758   -1.4238 C   0  0  0  0  0  0  0  0  0  0  0  0
   -2.6558   -4.7175   -1.7236 H   0  0  0  0  0  0  0  0  0  0  0  0
   -4.0390   -3.0340   -1.7643 C   0  0  0  0  0  0  0  0  0  0  0  0
   -4.8032   -3.5487   -2.3641 H   0  0  0  0  0  0  0  0  0  0  0  0
   -4.2553   -1.7405   -1.2872 C   0  0  0  0  0  0  0  0  0  0  0  0
   -5.1998   -1.2162   -1.4836 H   0  0  0  0  0  0  0  0  0  0  0  0
   -3.2503   -1.1128   -0.5363 C   0  0  0  0  0  0  0  0  0  0  0  0
   -3.4180    0.1642    0.1566 C   0  0  1  0  0  3  0  0  0  0  0  0
   -4.6129    0.8973    0.2203 C   0  0  0  0  0  0  0  0  0  0  0  0
   -5.4821    0.5902   -0.3761 H   0  0  0  0  0  0  0  0  0  0  0  0
   -4.6787    2.0045    1.0701 C   0  0  0  0  0  0  0  0  0  0  0  0
   -5.5982    2.6041    1.1370 H   0  0  0  0  0  0  0  0  0  0  0  0
   -3.5664    2.3116    1.8659 C   0  0  0  0  0  0  0  0  0  0  0  0
   -3.6032    3.1385    2.5894 H   0  0  0  0  0  0  0  0  0  0  0  0
   -2.3791    1.5638    1.7606 C   0  0  0  0  0  0  0  0  0  0  0  0
   -2.3038    0.5414    0.8620 N   0  0  0  0  0  2  0  0  0  0  0  0
   -0.6028   -3.7350   -0.2695 C   0  0  0  0  0  0  0  0  0  0  0  0
    0.2462   -3.4984   -0.9402 H   0  0  0  0  0  0  0  0  0  0  0  0
   -0.7727   -4.8274   -0.3012 H   0  0  0  0  0  0  0  0  0  0  0  0
   -0.3128   -3.4446    0.7568 H   0  0  0  0  0  0  0  0  0  0  0  0
   -1.2056    1.8502    2.6500 C   0  0  0  0  0  0  0  0  0  0  0  0
   -0.6975    0.9059    2.9250 H   0  0  0  0  0  0  0  0  0  0  0  0
   -1.5450    2.3797    3.5600 H   0  0  0  0  0  0  0  0  0  0  0  0
   -0.4548    2.4896    2.1439 H   0  0  0  0  0  0  0  0  0  0  0  0
  2  1  1  0  0  0  0
  2 19  1  1  0  0  0
  3  2  1  0  0  0  0
  4  3  1  0  0  0  0
  5  3  2  0  0  0  0
  5  7  1  0  0  0  0
  6  5  1  0  0  0  0
  7  9  2  0  0  0  0
  8  7  1  0  0  0  0
  9  1  1  0  0  0  0
 10  9  1  1  0  0  0
 10 11  1  0  0  0  0
 10 18  1  0  0  0  0
 11 13  2  0  0  0  0
 12 11  1  0  0  0  0
 13 14  1  0  0  0  0
 13 15  1  0  0  0  0
 15 16  1  0  0  0  0
 17 15  2  0  0  0  0
 17 23  1  0  0  0  0
 18 17  1  0  0  0  0
 19 22  1  0  0  0  0
 20 19  1  0  0  0  0
 21 19  1  0  0  0  0
 23 24  1  0  0  0  0
 23 25  1  0  0  0  0
 26 23  1  0  0  0  0
M  END
