1,2
 OpenBabel05122313053D

 46 47  0  0  0  0  0  0  0  0999 V2000
   -1.1286    1.0277    0.0654 N   0  0  0  0  0  2  0  0  0  0  0  0
    1.0671    0.9988   -0.3537 N   0  0  0  0  0  2  0  0  0  0  0  0
   -0.0706    3.1205   -0.5427 N   0  0  0  0  0  0  0  0  0  0  0  0
   -3.3176    0.6585   -1.0348 C   0  0  0  0  0  0  0  0  0  0  0  0
   -4.7708    1.1364   -1.1394 C   0  0  0  0  0  0  0  0  0  0  0  0
   -5.4455    1.2032    0.2357 C   0  0  0  0  0  0  0  0  0  0  0  0
   -4.6380    2.0834    1.1974 C   0  0  0  0  0  0  0  0  0  0  0  0
   -3.1873    1.6012    1.3077 C   0  0  0  0  0  0  0  0  0  0  0  0
   -2.4896    1.5197   -0.0660 C   0  0  0  0  0  0  0  0  0  0  0  0
    3.4078    0.9203   -1.1533 C   0  0  0  0  0  0  0  0  0  0  0  0
    4.8319    1.4575   -0.9658 C   0  0  0  0  0  0  0  0  0  0  0  0
    5.2934    1.3454    0.4917 C   0  0  0  0  0  0  0  0  0  0  0  0
    4.3098    2.0583    1.4266 C   0  0  0  0  0  0  0  0  0  0  0  0
    2.8860    1.5147    1.2612 C   0  0  0  0  0  0  0  0  0  0  0  0
    2.3967    1.5806   -0.2012 C   0  0  0  0  0  0  0  0  0  0  0  0
   -0.0535    1.7476   -0.2715 C   0  0  0  0  0  3  0  0  0  0  0  0
    0.5588    3.6506   -1.7326 C   0  0  0  0  0  0  0  0  0  0  0  0
   -0.7067    4.0794    0.3323 C   0  0  0  0  0  0  0  0  0  0  0  0
   -3.2873   -0.3941   -0.6827 H   0  0  0  0  0  0  0  0  0  0  0  0
   -2.8293    0.6705   -2.0285 H   0  0  0  0  0  0  0  0  0  0  0  0
   -4.7922    2.1494   -1.6024 H   0  0  0  0  0  0  0  0  0  0  0  0
   -5.3406    0.4725   -1.8233 H   0  0  0  0  0  0  0  0  0  0  0  0
   -6.4865    1.5784    0.1430 H   0  0  0  0  0  0  0  0  0  0  0  0
   -5.5173    0.1749    0.6570 H   0  0  0  0  0  0  0  0  0  0  0  0
   -5.1122    2.1051    2.2011 H   0  0  0  0  0  0  0  0  0  0  0  0
   -4.6494    3.1335    0.8253 H   0  0  0  0  0  0  0  0  0  0  0  0
   -3.1618    0.5903    1.7676 H   0  0  0  0  0  0  0  0  0  0  0  0
   -2.6027    2.2570    1.9865 H   0  0  0  0  0  0  0  0  0  0  0  0
   -2.4725    2.5464   -0.4992 H   0  0  0  0  0  0  0  0  0  0  0  0
    3.0761    1.0754   -2.2012 H   0  0  0  0  0  0  0  0  0  0  0  0
    3.3851   -0.1760   -0.9763 H   0  0  0  0  0  0  0  0  0  0  0  0
    5.5318    0.9224   -1.6417 H   0  0  0  0  0  0  0  0  0  0  0  0
    4.8634    2.5282   -1.2717 H   0  0  0  0  0  0  0  0  0  0  0  0
    6.3170    1.7592    0.6095 H   0  0  0  0  0  0  0  0  0  0  0  0
    5.3532    0.2701    0.7749 H   0  0  0  0  0  0  0  0  0  0  0  0
    4.3191    3.1485    1.1967 H   0  0  0  0  0  0  0  0  0  0  0  0
    4.6335    1.9630    2.4845 H   0  0  0  0  0  0  0  0  0  0  0  0
    2.8380    0.4605    1.6021 H   0  0  0  0  0  0  0  0  0  0  0  0
    2.1763    2.0784    1.8993 H   0  0  0  0  0  0  0  0  0  0  0  0
    2.3632    2.6624   -0.4613 H   0  0  0  0  0  0  0  0  0  0  0  0
   -0.1835    4.2100   -2.3497 H   0  0  0  0  0  0  0  0  0  0  0  0
    0.9541    2.8203   -2.3468 H   0  0  0  0  0  0  0  0  0  0  0  0
    1.3972    4.3508   -1.5044 H   0  0  0  0  0  0  0  0  0  0  0  0
   -1.5674    4.6037   -0.1469 H   0  0  0  0  0  0  0  0  0  0  0  0
    0.0245    4.8602    0.6491 H   0  0  0  0  0  0  0  0  0  0  0  0
   -1.0750    3.5752    1.2442 H   0  0  0  0  0  0  0  0  0  0  0  0
  2 16  1  0  0  0  0
  2 15  1  0  0  0  0
  3 16  1  0  0  0  0
  3 18  1  0  0  0  0
  4 19  1  0  0  0  0
  4  9  1  0  0  0  0
  5  4  1  0  0  0  0
  5  6  1  0  0  0  0
  6 24  1  0  0  0  0
  6  7  1  0  0  0  0
  7  8  1  0  0  0  0
  7 25  1  0  0  0  0
  8 27  1  0  0  0  0
  8 28  1  0  0  0  0
  9  1  1  0  0  0  0
  9  8  1  0  0  0  0
 10 31  1  0  0  0  0
 10 11  1  0  0  0  0
 10 15  1  0  0  0  0
 11 12  1  0  0  0  0
 12 34  1  0  0  0  0
 12 35  1  0  0  0  0
 12 13  1  0  0  0  0
 13 37  1  0  0  0  0
 14 13  1  0  0  0  0
 14 38  1  0  0  0  0
 14 39  1  0  0  0  0
 15 14  1  0  0  0  0
 16  1  1  0  0  0  0
 17 43  1  0  0  0  0
 17  3  1  0  0  0  0
 18 45  1  0  0  0  0
 18 46  1  0  0  0  0
 20  4  1  0  0  0  0
 21  5  1  0  0  0  0
 22  5  1  0  0  0  0
 23  6  1  0  0  0  0
 26  7  1  0  0  0  0
 29  9  1  0  0  0  0
 30 10  1  0  0  0  0
 32 11  1  0  0  0  0
 33 11  1  0  0  0  0
 36 13  1  0  0  0  0
 40 15  1  0  0  0  0
 41 17  1  0  0  0  0
 42 17  1  0  0  0  0
 44 18  1  0  0  0  0
M  END
