1,10
 OpenBabel05122313053D

 16 15  0  0  1  0  0  0  0  0999 V2000
    1.0420    1.5409   -0.2639 N   0  0  0  0  0  2  0  0  0  0  0  0
    2.6537    2.2482   -1.8137 N   0  0  0  0  0  0  0  0  0  0  0  0
    0.5109    2.7598   -0.5446 O   0  0  0  0  0  0  0  0  0  0  0  0
    4.1537    0.1234   -1.2329 O   0  0  0  0  0  0  0  0  0  0  0  0
    2.1743    1.3476   -0.9262 C   0  0  1  0  0  3  0  0  0  0  0  0
    3.0547    0.1940   -0.6608 C   0  0  0  0  0  0  0  0  0  0  0  0
   -0.3409    2.8097    0.1026 H   0  0  0  0  0  0  0  0  0  0  0  0
    3.5964    2.0811   -2.1661 H   0  0  0  0  0  0  0  0  0  0  0  0
    2.1667    3.1355   -1.9193 H   0  0  0  0  0  0  0  0  0  0  0  0
    1.4857   -0.9062    0.8590 N   0  0  0  0  0  2  0  0  0  0  0  0
    2.7021   -0.8149    0.3583 C   0  0  1  0  0  3  0  0  0  0  0  0
    1.3391   -1.9287    1.7356 O   0  0  0  0  0  0  0  0  0  0  0  0
    3.7011   -1.6469    0.7355 N   0  0  0  0  0  0  0  0  0  0  0  0
    0.4164   -2.3802    1.3396 H   0  0  0  0  0  0  0  0  0  0  0  0
    3.4223   -2.4804    1.2557 H   0  0  0  0  0  0  0  0  0  0  0  0
    4.5258   -1.6396    0.1329 H   0  0  0  0  0  0  0  0  0  0  0  0
  2  5  1  0  0  0  0
  3  1  1  0  0  0  0
  3  7  1  0  0  0  0
  4  6  2  0  0  0  0
  5  6  1  1  0  0  0
  5  1  1  0  0  0  0
  8  2  1  0  0  0  0
  9  2  1  0  0  0  0
 10 12  1  0  0  0  0
 11  6  1  6  0  0  0
 11 13  1  0  0  0  0
 11 10  1  0  0  0  0
 13 15  1  0  0  0  0
 14 12  1  0  0  0  0
 16 13  1  0  0  0  0
M  END
