1,10
 OpenBabel05122313053D

 15 14  0  0  1  0  0  0  0  0999 V2000
    1.3613    1.3483   -0.2479 N   0  3  0  0  0  2  0  0  0  0  0  0
    3.3364    2.3435    0.4713 N   0  0  0  0  0  0  0  0  0  0  0  0
    1.1818    2.5019   -0.9124 O   0  5  0  0  0  0  0  0  0  0  0  0
    2.4964    1.2539    0.4036 C   0  0  1  0  0  3  0  0  0  0  0  0
    2.8353   -0.0001    1.1582 C   0  0  0  0  0  0  0  0  0  0  0  0
    3.0334    3.0707   -0.1896 H   0  0  0  0  0  0  0  0  0  0  0  0
    4.3397    2.1573    0.4974 H   0  0  0  0  0  0  0  0  0  0  0  0
    3.9227   -0.0001    1.3805 H   0  0  0  0  0  0  0  0  0  0  0  0
    2.3364   -0.0003    2.1558 H   0  0  0  0  0  0  0  0  0  0  0  0
    1.3614   -1.3482   -0.2484 N   0  3  0  0  0  2  0  0  0  0  0  0
    2.4966   -1.2538    0.4031 C   0  0  2  0  0  3  0  0  0  0  0  0
    1.1819   -2.5014   -0.9133 O   0  5  0  0  0  0  0  0  0  0  0  0
    3.3366   -2.3434    0.4705 N   0  0  0  0  0  0  0  0  0  0  0  0
    3.0335   -3.0703   -0.1907 H   0  0  0  0  0  0  0  0  0  0  0  0
    4.3399   -2.1571    0.4958 H   0  0  0  0  0  0  0  0  0  0  0  0
  2  7  1  0  0  0  0
  3  1  1  0  0  0  0
  4  1  1  1  0  0  0
  4  2  1  0  0  0  0
  4  5  1  0  0  0  0
  5  8  1  0  0  0  0
  5  9  1  0  0  0  0
  6  2  1  0  0  0  0
 11 10  1  1  0  0  0
 11 13  1  0  0  0  0
 11  5  1  0  0  0  0
 12 10  1  0  0  0  0
 13 15  1  0  0  0  0
 14 13  1  0  0  0  0
M  CHG  4   1   1   3  -1  10   1  12  -1
M  END
