1,2
 OpenBabel05122313053D

 29 31  0  0  1  0  0  0  0  0999 V2000
    2.2005    0.0612    0.4234 N   0  0  0  0  0  2  0  0  0  0  0  0
   -0.1654    1.3161    0.2244 N   0  0  0  0  0  2  0  0  0  0  0  0
   -3.6317    1.3305   -0.5366 N   0  0  0  0  0  0  0  0  0  0  0  0
    3.3326   -0.6317    0.6749 C   0  0  0  0  0  3  0  0  0  0  0  0
    4.5637   -0.0082    0.8838 C   0  0  0  0  0  0  0  0  0  0  0  0
    4.6254    1.3936    0.8333 C   0  0  0  0  0  0  0  0  0  0  0  0
    3.4543    2.1118    0.5819 C   0  0  0  0  0  0  0  0  0  0  0  0
    2.2431    1.4231    0.3740 C   0  0  0  0  0  0  0  0  0  0  0  0
    0.9519    2.1027    0.1489 C   0  0  2  0  0  3  0  0  0  0  0  0
    0.8662    3.4813   -0.1096 C   0  0  0  0  0  0  0  0  0  0  0  0
   -0.3857    4.0613   -0.3319 C   0  0  0  0  0  0  0  0  0  0  0  0
   -1.5249    3.2610   -0.2215 C   0  0  0  0  0  0  0  0  0  0  0  0
   -1.3862    1.8984    0.1011 C   0  0  0  0  0  0  0  0  0  0  0  0
   -2.6227    1.0995    0.3252 C   0  0  0  0  0  0  0  0  0  0  0  0
   -2.7372    0.2227    1.4236 C   0  0  0  0  0  0  0  0  0  0  0  0
   -3.9283   -0.4953    1.5805 C   0  0  0  0  0  0  0  0  0  0  0  0
   -4.9575   -0.3074    0.6479 C   0  0  0  0  0  0  0  0  0  0  0  0
   -4.7626    0.6301   -0.3808 C   0  0  0  0  0  0  0  0  0  0  0  0
    3.2315   -1.7262    0.6924 H   0  0  0  0  0  0  0  0  0  0  0  0
    5.4566   -0.6181    1.0787 H   0  0  0  0  0  0  0  0  0  0  0  0
    5.5765    1.9219    0.9940 H   0  0  0  0  0  0  0  0  0  0  0  0
    3.4757    3.2087    0.5573 H   0  0  0  0  0  0  0  0  0  0  0  0
    1.7783    4.0870   -0.1801 H   0  0  0  0  0  0  0  0  0  0  0  0
   -0.4697    5.1293   -0.5802 H   0  0  0  0  0  0  0  0  0  0  0  0
   -2.5396    3.6510   -0.3752 H   0  0  0  0  0  0  0  0  0  0  0  0
   -1.9115    0.1100    2.1372 H   0  0  0  0  0  0  0  0  0  0  0  0
   -4.0442   -1.1972    2.4199 H   0  0  0  0  0  0  0  0  0  0  0  0
   -5.9034   -0.8640    0.7207 H   0  0  0  0  0  0  0  0  0  0  0  0
   -5.5639    0.8272   -1.1147 H   0  0  0  0  0  0  0  0  0  0  0  0
  1  4  1  0  0  0  0
  3 18  2  0  0  0  0
  3 14  1  0  0  0  0
  4 19  1  0  0  0  0
  4  5  1  0  0  0  0
  5 20  1  0  0  0  0
  6  5  2  0  0  0  0
  6 21  1  0  0  0  0
  7  6  1  0  0  0  0
  8  1  1  0  0  0  0
  8  7  2  0  0  0  0
  9  2  1  0  0  0  0
  9  8  1  1  0  0  0
 10  9  1  0  0  0  0
 11 12  1  0  0  0  0
 11 10  2  0  0  0  0
 12 13  2  0  0  0  0
 13  2  1  0  0  0  0
 13 14  1  0  0  0  0
 14 15  2  0  0  0  0
 15 16  1  0  0  0  0
 15 26  1  0  0  0  0
 16 27  1  0  0  0  0
 17 28  1  0  0  0  0
 17 16  2  0  0  0  0
 18 17  1  0  0  0  0
 22  7  1  0  0  0  0
 23 10  1  0  0  0  0
 24 11  1  0  0  0  0
 25 12  1  0  0  0  0
 29 18  1  0  0  0  0
M  END
