1,4
 OpenBabel05122313053D

 56 57  0  0  0  0  0  0  0  0999 V2000
   -0.9963    0.6468    0.4644 N   0  0  0  0  0  2  0  0  0  0  0  0
   -2.4316   -0.5767    1.8498 N   0  0  0  0  0  0  0  0  0  0  0  0
   -3.3006    1.2580    0.6818 N   0  0  0  0  0  0  0  0  0  0  0  0
    1.4522   -0.3658   -0.0837 N   0  0  0  0  0  2  0  0  0  0  0  0
    2.1922   -2.2048    1.2199 N   0  0  0  0  0  0  0  0  0  0  0  0
    3.0089   -0.0792    1.6960 N   0  0  0  0  0  0  0  0  0  0  0  0
   -0.4066    1.9117    0.2897 C   0  0  0  0  0  0  0  0  0  0  0  0
   -0.9738    3.0901    0.8087 C   0  0  0  0  0  0  0  0  0  0  0  0
   -1.8718    3.0242    1.4358 H   0  0  0  0  0  0  0  0  0  0  0  0
   -0.4498    4.3664    0.5075 C   0  0  0  0  0  0  0  0  0  0  0  0
   -0.9559    5.2577    0.9092 H   0  0  0  0  0  0  0  0  0  0  0  0
    0.6608    4.5001   -0.3091 C   0  0  0  0  0  0  0  0  0  0  0  0
    1.0460    5.4916   -0.5897 H   0  0  0  0  0  0  0  0  0  0  0  0
    1.3627    3.3391   -0.7434 C   0  0  0  0  0  0  0  0  0  0  0  0
    2.5902    3.4704   -1.4624 C   0  0  0  0  0  0  0  0  0  0  0  0
    2.9165    4.4798   -1.7557 H   0  0  0  0  0  0  0  0  0  0  0  0
    3.3673    2.3627   -1.7550 C   0  0  0  0  0  0  0  0  0  0  0  0
    4.3103    2.4733   -2.3114 H   0  0  0  0  0  0  0  0  0  0  0  0
    2.9662    1.0833   -1.3036 C   0  0  0  0  0  0  0  0  0  0  0  0
    3.5953    0.1987   -1.4774 H   0  0  0  0  0  0  0  0  0  0  0  0
    1.7621    0.9126   -0.6219 C   0  0  0  0  0  0  0  0  0  0  0  0
    0.8731    2.0257   -0.3920 C   0  0  0  0  0  0  0  0  0  0  0  0
   -2.2300    0.4638    0.9875 C   0  0  0  0  0  3  0  0  0  0  0  0
   -1.2837   -1.2103    2.4779 C   0  0  0  0  0  0  0  0  0  0  0  0
   -0.8358   -1.9721    1.7979 H   0  0  0  0  0  0  0  0  0  0  0  0
   -1.6081   -1.6908    3.4229 H   0  0  0  0  0  0  0  0  0  0  0  0
   -0.5065   -0.4549    2.6929 H   0  0  0  0  0  0  0  0  0  0  0  0
   -3.6272   -1.4105    1.7557 C   0  0  0  0  0  0  0  0  0  0  0  0
   -4.1900   -1.4330    2.7135 H   0  0  0  0  0  0  0  0  0  0  0  0
   -3.3259   -2.4430    1.4825 H   0  0  0  0  0  0  0  0  0  0  0  0
   -4.2696   -1.0460    0.9369 H   0  0  0  0  0  0  0  0  0  0  0  0
   -4.3628    1.5383    1.6315 C   0  0  0  0  0  0  0  0  0  0  0  0
   -5.3277    1.0713    1.3360 H   0  0  0  0  0  0  0  0  0  0  0  0
   -4.5232    2.6374    1.6944 H   0  0  0  0  0  0  0  0  0  0  0  0
   -4.0799    1.1670    2.6330 H   0  0  0  0  0  0  0  0  0  0  0  0
   -3.4122    1.8892   -0.6242 C   0  0  0  0  0  0  0  0  0  0  0  0
   -2.7397    1.3759   -1.3350 H   0  0  0  0  0  0  0  0  0  0  0  0
   -3.1692    2.9739   -0.5813 H   0  0  0  0  0  0  0  0  0  0  0  0
   -4.4519    1.7642   -0.9904 H   0  0  0  0  0  0  0  0  0  0  0  0
    2.1934   -0.8710    0.8995 C   0  0  0  0  0  3  0  0  0  0  0  0
    2.3123   -2.6370    2.6021 C   0  0  0  0  0  0  0  0  0  0  0  0
    2.3365   -1.7622    3.2760 H   0  0  0  0  0  0  0  0  0  0  0  0
    3.2322   -3.2404    2.7700 H   0  0  0  0  0  0  0  0  0  0  0  0
    1.4403   -3.2729    2.8728 H   0  0  0  0  0  0  0  0  0  0  0  0
    1.9022   -3.2622    0.2674 C   0  0  0  0  0  0  0  0  0  0  0  0
    1.9637   -2.8918   -0.7725 H   0  0  0  0  0  0  0  0  0  0  0  0
    0.8711   -3.6579    0.3958 H   0  0  0  0  0  0  0  0  0  0  0  0
    2.6250   -4.0923    0.4236 H   0  0  0  0  0  0  0  0  0  0  0  0
    4.4015   -0.4380    1.9003 C   0  0  0  0  0  0  0  0  0  0  0  0
    4.6027   -1.4317    1.4609 H   0  0  0  0  0  0  0  0  0  0  0  0
    4.6646   -0.4687    2.9812 H   0  0  0  0  0  0  0  0  0  0  0  0
    5.0703    0.3025    1.4039 H   0  0  0  0  0  0  0  0  0  0  0  0
    2.6333    1.2539    2.1304 C   0  0  0  0  0  0  0  0  0  0  0  0
    3.0799    2.0569    1.5028 H   0  0  0  0  0  0  0  0  0  0  0  0
    2.9774    1.3980    3.1780 H   0  0  0  0  0  0  0  0  0  0  0  0
    1.5354    1.3703    2.1053 H   0  0  0  0  0  0  0  0  0  0  0  0
  1 23  1  0  0  0  0
  2 24  1  0  0  0  0
  3 23  1  0  0  0  0
  3 32  1  0  0  0  0
  4 40  1  0  0  0  0
  5 41  1  0  0  0  0
  6 49  1  0  0  0  0
  6 53  1  0  0  0  0
  7  1  1  0  0  0  0
  7  8  1  0  0  0  0
  8  9  1  0  0  0  0
 10  8  2  0  0  0  0
 10 11  1  0  0  0  0
 12 10  1  0  0  0  0
 13 12  1  0  0  0  0
 14 22  1  0  0  0  0
 14 12  2  0  0  0  0
 15 14  1  0  0  0  0
 16 15  1  0  0  0  0
 17 15  2  0  0  0  0
 17 19  1  0  0  0  0
 18 17  1  0  0  0  0
 19 21  2  0  0  0  0
 20 19  1  0  0  0  0
 21 22  1  0  0  0  0
 21  4  1  0  0  0  0
 22  7  2  0  0  0  0
 23  2  1  0  0  0  0
 24 27  1  0  0  0  0
 24 26  1  0  0  0  0
 25 24  1  0  0  0  0
 28  2  1  0  0  0  0
 28 29  1  0  0  0  0
 30 28  1  0  0  0  0
 31 28  1  0  0  0  0
 32 34  1  0  0  0  0
 32 35  1  0  0  0  0
 33 32  1  0  0  0  0
 36 38  1  0  0  0  0
 36  3  1  0  0  0  0
 37 36  1  0  0  0  0
 39 36  1  0  0  0  0
 40  5  1  0  0  0  0
 40  6  1  0  0  0  0
 41 43  1  0  0  0  0
 41 44  1  0  0  0  0
 41 42  1  0  0  0  0
 45 47  1  0  0  0  0
 45 48  1  0  0  0  0
 45  5  1  0  0  0  0
 46 45  1  0  0  0  0
 49 51  1  0  0  0  0
 50 49  1  0  0  0  0
 52 49  1  0  0  0  0
 53 55  1  0  0  0  0
 54 53  1  0  0  0  0
 56 53  1  0  0  0  0
M  END
