4,8
 OpenBabel05122313053D

 28 30  0  0  0  0  0  0  0  0999 V2000
   -3.7905   -0.7485   -1.0091 N   0  0  0  0  0  0  0  0  0  0  0  0
   -2.9173    0.9852    0.0806 N   0  0  0  0  0  0  0  0  0  0  0  0
   -4.6637   -1.6908   -1.5367 N   0  0  0  0  0  0  0  0  0  0  0  0
   -0.2165   -1.4639   -1.3205 N   0  0  0  0  0  2  0  0  0  0  0  0
   -6.4485    0.2979   -0.6190 N   0  0  0  0  0  0  0  0  0  0  0  0
   -5.4028    0.9611   -0.0742 C   0  0  0  0  0  0  0  0  0  0  0  0
   -4.0659    0.4201   -0.3172 C   0  0  0  0  0  0  0  0  0  0  0  0
   -1.9199    0.1902   -0.3326 N   0  0  0  0  0  2  0  0  0  0  0  0
   -2.4310   -0.8518   -1.0168 C   0  0  0  0  0  0  0  0  0  0  0  0
   -1.5151   -1.7877   -1.6238 C   0  0  0  0  0  0  0  0  0  0  0  0
   -5.5636    2.1329    0.6986 C   0  0  0  0  0  0  0  0  0  0  0  0
    0.5018   -3.2891   -2.7136 C   0  0  0  0  0  0  0  0  0  0  0  0
    0.7668   -2.2061   -1.8646 C   0  0  0  0  0  0  0  0  0  0  0  0
   -1.8587   -2.8664   -2.4526 C   0  0  0  0  0  0  0  0  0  0  0  0
   -7.6844    0.7703   -0.4042 C   0  0  0  0  0  0  0  0  0  0  0  0
   -0.8262   -3.6288   -3.0108 C   0  0  0  0  0  0  0  0  0  0  0  0
   -6.8576    2.6155    0.9089 C   0  0  0  0  0  0  0  0  0  0  0  0
   -7.9453    1.9233    0.3511 C   0  0  0  0  0  0  0  0  0  0  0  0
    1.3432   -3.8647   -3.1245 H   0  0  0  0  0  0  0  0  0  0  0  0
   -2.9200   -3.0722   -2.6439 H   0  0  0  0  0  0  0  0  0  0  0  0
    1.7917   -1.9322   -1.5700 H   0  0  0  0  0  0  0  0  0  0  0  0
   -1.0581   -4.4811   -3.6658 H   0  0  0  0  0  0  0  0  0  0  0  0
   -8.5102    0.1998   -0.8624 H   0  0  0  0  0  0  0  0  0  0  0  0
   -8.9787    2.2702    0.4945 H   0  0  0  0  0  0  0  0  0  0  0  0
   -4.6782    2.6362    1.1098 H   0  0  0  0  0  0  0  0  0  0  0  0
   -7.0192    3.5267    1.5042 H   0  0  0  0  0  0  0  0  0  0  0  0
   -5.6008   -1.2450   -1.4631 H   0  0  0  0  0  0  0  0  0  0  0  0
   -4.6255   -2.5059   -0.8712 H   0  0  0  0  0  0  0  0  0  0  0  0
  1  7  1  0  0  0  0
  3 27  1  0  0  0  0
  3  1  1  0  0  0  0
  3 28  1  0  0  0  0
  5 15  2  0  0  0  0
  5  6  1  0  0  0  0
  6 11  2  0  0  0  0
  7  6  1  0  0  0  0
  7  2  2  0  0  0  0
  8  2  1  0  0  0  0
  9  1  1  0  0  0  0
  9  8  1  0  0  0  0
 10  4  1  0  0  0  0
 10  9  2  0  0  0  0
 11 17  1  0  0  0  0
 11 25  1  0  0  0  0
 12 13  2  0  0  0  0
 13 21  1  0  0  0  0
 13  4  1  0  0  0  0
 14 10  1  0  0  0  0
 15 18  1  0  0  0  0
 16 12  1  0  0  0  0
 16 14  2  0  0  0  0
 17 26  1  0  0  0  0
 18 24  1  0  0  0  0
 18 17  2  0  0  0  0
 19 12  1  0  0  0  0
 20 14  1  0  0  0  0
 22 16  1  0  0  0  0
 23 15  1  0  0  0  0
M  END
