2,3
 OpenBabel05122313053D

 39 40  0  0  1  0  0  0  0  0999 V2000
   -0.2314    0.7197   -1.9877 Cl  0  0  0  0  0  0  0  0  0  0  0  0
    2.0540   -0.9216   -0.1405 N   0  0  0  0  0  2  0  0  0  0  0  0
   -2.1007   -0.9552   -0.0969 N   0  0  0  0  0  2  0  0  0  0  0  0
    1.4157    1.9906    0.6861 N   0  0  0  0  0  0  0  0  0  0  0  0
   -1.5040    2.2239    0.0679 N   0  0  0  0  0  0  0  0  0  0  0  0
    2.6359    2.2257   -1.2536 O   0  0  0  0  0  0  0  0  0  0  0  0
   -2.0809    1.3696    2.1278 O   0  0  0  0  0  0  0  0  0  0  0  0
    0.7760    3.2743    0.4398 C   0  0  0  0  0  0  0  0  0  0  0  0
   -0.7352    3.2971    0.7035 C   0  0  0  0  0  0  0  0  0  0  0  0
    1.3161    1.4114    2.0212 C   0  0  0  0  0  0  0  0  0  0  0  0
   -1.5487    2.0675   -1.3008 C   0  0  0  0  0  0  0  0  0  0  0  0
    2.8711    0.1602   -0.1594 C   0  0  1  0  0  3  0  0  0  0  0  0
    4.2685    0.0258   -0.2372 C   0  0  0  0  0  0  0  0  0  0  0  0
    4.8381   -1.2499   -0.2641 C   0  0  0  0  0  0  0  0  0  0  0  0
    3.9868   -2.3640   -0.2353 C   0  0  0  0  0  0  0  0  0  0  0  0
    2.6061   -2.1596   -0.1755 C   0  0  0  0  0  0  0  0  0  0  0  0
   -2.8572    0.1399    0.2139 C   0  0  1  0  0  3  0  0  0  0  0  0
   -4.2273    0.2366   -0.0333 C   0  0  0  0  0  3  0  0  0  0  0  0
   -4.8261   -0.9241   -0.5620 C   0  0  0  0  0  0  0  0  0  0  0  0
   -4.0897   -2.1050   -0.7710 C   0  0  0  0  0  0  0  0  0  0  0  0
   -2.7079   -2.0735   -0.5466 C   0  0  0  0  0  0  0  0  0  0  0  0
    2.2942    1.5556   -0.2765 C   0  0  0  0  0  0  0  0  0  0  0  0
   -2.1278    1.2620    0.9124 C   0  0  0  0  0  0  0  0  0  0  0  0
    4.8812    0.9365   -0.2866 H   0  0  0  0  0  0  0  0  0  0  0  0
    5.9302   -1.3745   -0.3135 H   0  0  0  0  0  0  0  0  0  0  0  0
    4.3795   -3.3903   -0.2579 H   0  0  0  0  0  0  0  0  0  0  0  0
    1.8938   -2.9951   -0.1197 H   0  0  0  0  0  0  0  0  0  0  0  0
   -5.9009   -0.9262   -0.8265 H   0  0  0  0  0  0  0  0  0  0  0  0
   -4.5542   -3.0378   -1.1312 H   0  0  0  0  0  0  0  0  0  0  0  0
   -2.0569   -2.9408   -0.7234 H   0  0  0  0  0  0  0  0  0  0  0  0
    1.2322    4.0687    1.0760 H   0  0  0  0  0  0  0  0  0  0  0  0
    1.0162    3.5359   -0.6091 H   0  0  0  0  0  0  0  0  0  0  0  0
   -1.1282    4.2794    0.3661 H   0  0  0  0  0  0  0  0  0  0  0  0
   -0.9627    3.2049    1.7827 H   0  0  0  0  0  0  0  0  0  0  0  0
    1.8289    0.4351    2.0587 H   0  0  0  0  0  0  0  0  0  0  0  0
    1.7871    2.0899    2.7675 H   0  0  0  0  0  0  0  0  0  0  0  0
    0.2611    1.2423    2.3125 H   0  0  0  0  0  0  0  0  0  0  0  0
   -1.2347    2.9602   -1.8659 H   0  0  0  0  0  0  0  0  0  0  0  0
   -2.4813    1.6048   -1.6607 H   0  0  0  0  0  0  0  0  0  0  0  0
  1 11  1  0  0  0  0
  3 17  1  0  0  0  0
  4 10  1  0  0  0  0
  5  9  1  0  0  0  0
  5 23  1  0  0  0  0
  6 22  2  0  0  0  0
  8  4  1  0  0  0  0
  8  9  1  0  0  0  0
  8 31  1  0  0  0  0
  9 34  1  0  0  0  0
 10 35  1  0  0  0  0
 10 37  1  0  0  0  0
 10 36  1  0  0  0  0
 11  5  1  0  0  0  0
 12 22  1  6  0  0  0
 12  2  1  0  0  0  0
 13 12  1  0  0  0  0
 14 13  2  0  0  0  0
 14 15  1  0  0  0  0
 15 16  2  0  0  0  0
 16  2  1  0  0  0  0
 16 27  1  0  0  0  0
 17 23  1  1  0  0  0
 18 17  1  0  0  0  0
 19 18  2  0  0  0  0
 20 19  1  0  0  0  0
 20 21  2  0  0  0  0
 21  3  1  0  0  0  0
 22  4  1  0  0  0  0
 23  7  2  0  0  0  0
 24 13  1  0  0  0  0
 25 14  1  0  0  0  0
 26 15  1  0  0  0  0
 28 19  1  0  0  0  0
 29 20  1  0  0  0  0
 30 21  1  0  0  0  0
 32  8  1  0  0  0  0
 33  9  1  0  0  0  0
 38 11  1  0  0  0  0
 39 11  1  0  0  0  0
M  END
