1,2
 OpenBabel05122313053D

 34 34  0  0  0  0  0  0  0  0999 V2000
    1.4493   -1.1605    0.0542 N   0  0  0  0  0  2  0  0  0  0  0  0
    1.3953    1.3135   -0.0765 N   0  0  0  0  0  2  0  0  0  0  0  0
    1.4504   -2.5023   -0.2138 O   0  0  0  0  0  0  0  0  0  0  0  0
    2.6817   -0.6059    0.1099 C   0  0  0  0  0  0  0  0  0  0  0  0
    2.6189    0.8278    0.2092 C   0  0  0  0  0  0  0  0  0  0  0  0
    1.1649    2.7048    0.2516 O   0  0  0  0  0  0  0  0  0  0  0  0
    0.4745   -2.7431   -0.1668 H   0  0  0  0  0  0  0  0  0  0  0  0
    3.9006   -1.3045    0.0975 N   0  0  0  0  0  0  0  0  0  0  0  0
    3.7039    1.6223    0.6329 N   0  0  0  0  0  0  0  0  0  0  0  0
    4.4548   -1.6296    1.4144 C   0  0  0  0  0  0  0  0  0  0  0  0
    4.1829   -2.2430   -0.9922 C   0  0  0  0  0  0  0  0  0  0  0  0
    3.3197    2.8224    1.2602 C   0  0  0  0  0  0  0  0  0  0  0  0
    4.9378    1.6335   -0.1716 C   0  0  0  0  0  0  0  0  0  0  0  0
    3.7542   -2.7692    2.1622 C   0  0  0  0  0  0  0  0  0  0  0  0
    4.4208   -0.7004    2.0230 H   0  0  0  0  0  0  0  0  0  0  0  0
    5.5323   -1.8704    1.2701 H   0  0  0  0  0  0  0  0  0  0  0  0
    3.7705   -1.6894   -2.3515 C   0  0  0  0  0  0  0  0  0  0  0  0
    5.2820   -2.4215   -0.9754 H   0  0  0  0  0  0  0  0  0  0  0  0
    3.6919   -3.2315   -0.8377 H   0  0  0  0  0  0  0  0  0  0  0  0
    2.0698    3.3015    1.1172 C   0  0  0  0  0  0  0  0  0  0  0  0
    4.0524    3.3024    1.9279 H   0  0  0  0  0  0  0  0  0  0  0  0
    4.7934    2.3820   -1.4962 C   0  0  0  0  0  0  0  0  0  0  0  0
    5.2191    0.5757   -0.3412 H   0  0  0  0  0  0  0  0  0  0  0  0
    5.7282    2.0931    0.4597 H   0  0  0  0  0  0  0  0  0  0  0  0
    3.8124   -3.7229    1.6006 H   0  0  0  0  0  0  0  0  0  0  0  0
    4.2220   -2.9291    3.1556 H   0  0  0  0  0  0  0  0  0  0  0  0
    2.6817   -2.5376    2.3167 H   0  0  0  0  0  0  0  0  0  0  0  0
    4.2584   -0.7150   -2.5582 H   0  0  0  0  0  0  0  0  0  0  0  0
    2.6732   -1.5445   -2.4051 H   0  0  0  0  0  0  0  0  0  0  0  0
    4.0550   -2.3973   -3.1549 H   0  0  0  0  0  0  0  0  0  0  0  0
    1.6388    4.1547    1.6583 H   0  0  0  0  0  0  0  0  0  0  0  0
    5.7470    2.3693   -2.0625 H   0  0  0  0  0  0  0  0  0  0  0  0
    4.0145    1.9090   -2.1292 H   0  0  0  0  0  0  0  0  0  0  0  0
    4.5027    3.4401   -1.3339 H   0  0  0  0  0  0  0  0  0  0  0  0
  1  4  1  0  0  0  0
  2  5  1  0  0  0  0
  2  6  1  0  0  0  0
  3  7  1  0  0  0  0
  3  1  1  0  0  0  0
  4  5  2  0  0  0  0
  5  9  1  0  0  0  0
  6 20  1  0  0  0  0
  8  4  1  0  0  0  0
  8 10  1  0  0  0  0
  9 12  1  0  0  0  0
 10 15  1  0  0  0  0
 10 14  1  0  0  0  0
 11 18  1  0  0  0  0
 11 19  1  0  0  0  0
 11  8  1  0  0  0  0
 12 21  1  0  0  0  0
 13 24  1  0  0  0  0
 13  9  1  0  0  0  0
 14 27  1  0  0  0  0
 14 26  1  0  0  0  0
 16 10  1  0  0  0  0
 17 11  1  0  0  0  0
 20 12  2  0  0  0  0
 20 31  1  0  0  0  0
 22 34  1  0  0  0  0
 22 13  1  0  0  0  0
 23 13  1  0  0  0  0
 25 14  1  0  0  0  0
 28 17  1  0  0  0  0
 29 17  1  0  0  0  0
 30 17  1  0  0  0  0
 32 22  1  0  0  0  0
 33 22  1  0  0  0  0
M  END
