2,3
 OpenBabel05122313053D

 54 56  0  0  1  0  0  0  0  0999 V2000
    0.3979    1.6519    0.5976 Si  0  0  0  0  0  3  0  0  0  0  0  0
   -1.4868   -0.1133   -0.5773 N   0  0  0  0  0  2  0  0  0  0  0  0
   -0.2395   -2.4571   -0.2691 N   0  0  0  0  0  2  0  0  0  0  0  0
   -4.3971   -2.3921    0.2271 C   0  0  0  0  0  0  0  0  0  0  0  0
   -1.6059   -2.4682   -0.1694 C   0  0  1  0  0  3  0  0  0  0  0  0
   -0.7840    2.3542    3.1034 C   0  0  0  0  0  0  0  0  0  0  0  0
   -1.8057    2.2519    2.6834 H   0  0  0  0  0  0  0  0  0  0  0  0
   -0.4579    3.3962    2.9174 H   0  0  0  0  0  0  0  0  0  0  0  0
   -0.8599    2.2212    4.2052 H   0  0  0  0  0  0  0  0  0  0  0  0
   -3.6223    2.8354   -1.5199 C   0  0  0  0  0  0  0  0  0  0  0  0
   -4.5393    3.0589   -2.0892 H   0  0  0  0  0  0  0  0  0  0  0  0
   -1.2402    2.2459   -0.1565 C   0  0  0  0  0  0  0  0  0  0  0  0
   -3.1894    1.5064   -1.4254 C   0  0  0  0  0  0  0  0  0  0  0  0
   -3.7532    0.7141   -1.9375 H   0  0  0  0  0  0  0  0  0  0  0  0
   -3.6717   -1.2011   -0.0381 C   0  0  0  0  0  0  0  0  0  0  0  0
   -4.2174   -0.2486   -0.0393 H   0  0  0  0  0  0  0  0  0  0  0  0
   -1.7073    3.5673   -0.2553 C   0  0  0  0  0  0  0  0  0  0  0  0
   -1.1196    4.3855    0.1929 H   0  0  0  0  0  0  0  0  0  0  0  0
   -2.3367   -3.6833    0.0617 C   0  0  0  0  0  0  0  0  0  0  0  0
   -3.7439   -3.6258    0.2488 C   0  0  0  0  0  0  0  0  0  0  0  0
   -4.3009   -4.5564    0.4334 H   0  0  0  0  0  0  0  0  0  0  0  0
    1.7186    4.1486    1.3929 C   0  0  0  0  0  0  0  0  0  0  0  0
    2.5642    4.8525    1.2314 H   0  0  0  0  0  0  0  0  0  0  0  0
    1.7943    3.7771    2.4342 H   0  0  0  0  0  0  0  0  0  0  0  0
    0.7870    4.7477    1.3196 H   0  0  0  0  0  0  0  0  0  0  0  0
   -2.9080    3.8927   -0.9201 C   0  0  0  0  0  0  0  0  0  0  0  0
   -2.2829   -1.1968   -0.2881 C   0  0  0  0  0  0  0  0  0  0  0  0
    1.7561    3.0111    0.3600 C   0  0  0  0  0  0  0  0  0  0  0  0
    2.7133    2.4658    0.5188 H   0  0  0  0  0  0  0  0  0  0  0  0
   -2.0063    1.1921   -0.7167 C   0  0  0  0  0  0  0  0  0  0  0  0
   -5.8811   -2.2954    0.4790 C   0  0  0  0  0  0  0  0  0  0  0  0
   -6.3309   -3.2865    0.6796 H   0  0  0  0  0  0  0  0  0  0  0  0
   -6.4061   -1.8488   -0.3912 H   0  0  0  0  0  0  0  0  0  0  0  0
   -6.0939   -1.6388    1.3484 H   0  0  0  0  0  0  0  0  0  0  0  0
   -1.5837   -4.8885    0.1087 C   0  0  0  0  0  0  0  0  0  0  0  0
   -2.1095   -5.8421    0.2730 H   0  0  0  0  0  0  0  0  0  0  0  0
   -3.4119    5.3127   -0.9840 C   0  0  0  0  0  0  0  0  0  0  0  0
   -3.8854    5.5367   -1.9615 H   0  0  0  0  0  0  0  0  0  0  0  0
   -2.5938    6.0431   -0.8252 H   0  0  0  0  0  0  0  0  0  0  0  0
   -4.1792    5.5068   -0.2028 H   0  0  0  0  0  0  0  0  0  0  0  0
    1.7686    3.5593   -1.0753 C   0  0  0  0  0  0  0  0  0  0  0  0
    0.8453    4.1305   -1.3012 H   0  0  0  0  0  0  0  0  0  0  0  0
    1.8376    2.7504   -1.8322 H   0  0  0  0  0  0  0  0  0  0  0  0
    2.6320    4.2407   -1.2364 H   0  0  0  0  0  0  0  0  0  0  0  0
   -0.3263   -0.1114    2.8230 C   0  0  0  0  0  0  0  0  0  0  0  0
   -0.4287   -0.2494    3.9217 H   0  0  0  0  0  0  0  0  0  0  0  0
    0.3606   -0.8899    2.4359 H   0  0  0  0  0  0  0  0  0  0  0  0
   -1.3211   -0.3053    2.3707 H   0  0  0  0  0  0  0  0  0  0  0  0
    0.4363   -3.6103   -0.2244 C   0  0  0  0  0  0  0  0  0  0  0  0
    1.5310   -3.5510   -0.3256 H   0  0  0  0  0  0  0  0  0  0  0  0
   -0.2043   -4.8555   -0.0474 C   0  0  0  0  0  0  0  0  0  0  0  0
    0.3984   -5.7744   -0.0220 H   0  0  0  0  0  0  0  0  0  0  0  0
    0.1630    1.3055    2.4950 C   0  0  0  0  0  0  0  0  0  0  0  0
    1.1774    1.4422    2.9369 H   0  0  0  0  0  0  0  0  0  0  0  0
  1 53  1  0  0  0  0
  2 27  1  0  0  0  0
  3 49  1  0  0  0  0
  3  5  1  0  0  0  0
  4 20  2  0  0  0  0
  4 31  1  0  0  0  0
  5 27  1  1  0  0  0
  5 19  1  0  0  0  0
  6  9  1  0  0  0  0
  7  6  1  0  0  0  0
  8  6  1  0  0  0  0
 10 13  2  0  0  0  0
 10 26  1  0  0  0  0
 11 10  1  0  0  0  0
 12  1  1  0  0  0  0
 13 30  1  0  0  0  0
 14 13  1  0  0  0  0
 15  4  1  0  0  0  0
 16 15  1  0  0  0  0
 17 12  1  0  0  0  0
 17 18  1  0  0  0  0
 19 35  2  0  0  0  0
 19 20  1  0  0  0  0
 20 21  1  0  0  0  0
 22 24  1  0  0  0  0
 23 22  1  0  0  0  0
 25 22  1  0  0  0  0
 26 17  2  0  0  0  0
 27 15  2  0  0  0  0
 28 29  1  0  0  0  0
 28  1  1  0  0  0  0
 28 22  1  0  0  0  0
 30  2  1  0  0  0  0
 30 12  2  0  0  0  0
 31 32  1  0  0  0  0
 31 34  1  0  0  0  0
 33 31  1  0  0  0  0
 35 36  1  0  0  0  0
 37 26  1  0  0  0  0
 37 39  1  0  0  0  0
 37 40  1  0  0  0  0
 38 37  1  0  0  0  0
 41 28  1  0  0  0  0
 42 41  1  0  0  0  0
 43 41  1  0  0  0  0
 44 41  1  0  0  0  0
 45 46  1  0  0  0  0
 47 45  1  0  0  0  0
 48 45  1  0  0  0  0
 49 51  2  0  0  0  0
 50 49  1  0  0  0  0
 51 52  1  0  0  0  0
 51 35  1  0  0  0  0
 53 45  1  0  0  0  0
 53 54  1  0  0  0  0
 53  6  1  0  0  0  0
M  END
