1,4
q = 0.0, confidence = 1.0

 34 36  0  0  1  0  0  0  0  0999 V2000
    1.3348   -2.0153   -0.0403 N   0  0  0  0  0  2  0  0  0  0  0  0
    2.5114   -2.6740   -0.0417 C   0  0  0  0  0  3  0  0  0  0  0  0
    3.4062   -2.0394    0.0220 H   0  0  0  0  0  0  0  0  0  0  0  0
    1.3348    2.0153   -0.0404 N   0  0  0  0  0  2  0  0  0  0  0  0
    2.5859   -4.0687   -0.0977 C   0  0  0  0  0  0  0  0  0  0  0  0
    3.5694   -4.5582   -0.1052 H   0  0  0  0  0  0  0  0  0  0  0  0
    1.3937   -4.8090   -0.1372 C   0  0  0  0  0  0  0  0  0  0  0  0
    1.4158   -5.9080   -0.1822 H   0  0  0  0  0  0  0  0  0  0  0  0
    0.1746   -4.1307   -0.1075 C   0  0  0  0  0  0  0  0  0  0  0  0
   -0.7843   -4.6657   -0.1185 H   0  0  0  0  0  0  0  0  0  0  0  0
    0.1588   -2.7160   -0.0561 C   0  0  0  0  0  0  0  0  0  0  0  0
   -1.0642   -2.0004    0.0131 C   0  0  0  0  0  0  0  0  0  0  0  0
   -2.1540   -1.4340    0.1075 C   0  0  0  0  0  0  0  0  0  0  0  0
   -3.3744   -0.7197    0.1918 C   0  0  0  0  0  0  0  0  0  0  0  0
   -4.6114   -1.4054    0.2698 C   0  0  0  0  0  0  0  0  0  0  0  0
   -4.6030   -2.5046    0.2685 H   0  0  0  0  0  0  0  0  0  0  0  0
   -5.8177   -0.7037    0.3458 C   0  0  0  0  0  0  0  0  0  0  0  0
   -6.7674   -1.2558    0.4056 H   0  0  0  0  0  0  0  0  0  0  0  0
   -5.8177    0.7038    0.3457 C   0  0  0  0  0  0  0  0  0  0  0  0
   -6.7674    1.2559    0.4055 H   0  0  0  0  0  0  0  0  0  0  0  0
   -4.6114    1.4054    0.2697 C   0  0  0  0  0  0  0  0  0  0  0  0
   -4.6030    2.5047    0.2684 H   0  0  0  0  0  0  0  0  0  0  0  0
   -3.3744    0.7198    0.1918 C   0  0  0  0  0  0  0  0  0  0  0  0
   -2.1540    1.4340    0.1074 C   0  0  0  0  0  0  0  0  0  0  0  0
   -1.0642    2.0005    0.0130 C   0  0  0  0  0  0  0  0  0  0  0  0
    0.1588    2.7160   -0.0562 C   0  0  1  0  0  3  0  0  0  0  0  0
    0.1747    4.1307   -0.1075 C   0  0  0  0  0  0  0  0  0  0  0  0
   -0.7842    4.6658   -0.1184 H   0  0  0  0  0  0  0  0  0  0  0  0
    1.3938    4.8090   -0.1372 C   0  0  0  0  0  0  0  0  0  0  0  0
    1.4159    5.9080   -0.1821 H   0  0  0  0  0  0  0  0  0  0  0  0
    2.5860    4.0686   -0.0977 C   0  0  0  0  0  0  0  0  0  0  0  0
    3.5695    4.5581   -0.1053 H   0  0  0  0  0  0  0  0  0  0  0  0
    2.5114    2.6740   -0.0418 C   0  0  0  0  0  0  0  0  0  0  0  0
    3.4062    2.0393    0.0218 H   0  0  0  0  0  0  0  0  0  0  0  0
  2  1  1  0  0  0  0
  2  3  1  0  0  0  0
  5  2  1  0  0  0  0
  6  5  1  0  0  0  0
  7  9  1  0  0  0  0
  7  5  2  0  0  0  0
  8  7  1  0  0  0  0
  9 11  2  0  0  0  0
 10  9  1  0  0  0  0
 11  1  1  0  0  0  0
 11 12  1  0  0  0  0
 12 13  3  0  0  0  0
 13 14  1  0  0  0  0
 14 15  1  0  0  0  0
 15 17  2  0  0  0  0
 16 15  1  0  0  0  0
 17 18  1  0  0  0  0
 19 17  1  0  0  0  0
 19 20  1  0  0  0  0
 21 19  2  0  0  0  0
 22 21  1  0  0  0  0
 23 14  2  0  0  0  0
 23 21  1  0  0  0  0
 24 23  1  0  0  0  0
 25 24  3  0  0  0  0
 26  4  1  0  0  0  0
 26 25  1  1  0  0  0
 27 26  1  0  0  0  0
 28 27  1  0  0  0  0
 29 27  2  0  0  0  0
 29 31  1  0  0  0  0
 30 29  1  0  0  0  0
 31 33  2  0  0  0  0
 32 31  1  0  0  0  0
 33  4  1  0  0  0  0
 33 34  1  0  0  0  0
M  END
