4,15
 OpenBabel05122313053D

 29 31  0  0  0  0  0  0  0  0999 V2000
   -1.6015    1.4968    0.0003 N   0  0  0  0  0  0  0  0  0  0  0  0
   -0.2904    1.1659    0.0006 C   0  0  0  0  0  0  0  0  0  0  0  0
   -2.2375    0.3159    0.0004 C   0  0  0  0  0  0  0  0  0  0  0  0
   -0.0746   -0.1607    0.0010 N   0  0  0  0  0  2  0  0  0  0  0  0
   -1.3030   -0.6909    0.0008 N   0  0  0  0  0  0  0  0  0  0  0  0
   -1.4208   -1.7059    0.0011 H   0  0  0  0  0  0  0  0  0  0  0  0
    0.8888    2.0182    0.0005 C   0  0  0  0  0  0  0  0  0  0  0  0
    0.8563    3.4243    0.0004 C   0  0  0  0  0  0  0  0  0  0  0  0
   -0.1166    3.9432    0.0003 H   0  0  0  0  0  0  0  0  0  0  0  0
    1.9742    4.1591    0.0003 N   0  0  0  0  0  0  0  0  0  0  0  0
    3.1365    3.4881    0.0005 C   0  0  0  0  0  0  0  0  0  0  0  0
    4.0672    4.0800    0.0004 H   0  0  0  0  0  0  0  0  0  0  0  0
    3.1997    2.0852    0.0006 C   0  0  0  0  0  0  0  0  0  0  0  0
    4.1581    1.5466    0.0008 H   0  0  0  0  0  0  0  0  0  0  0  0
    2.0756    1.3506    0.0006 N   0  0  0  0  0  2  0  0  0  0  0  0
   -3.6834    0.1124    0.0002 C   0  0  0  0  0  0  0  0  0  0  0  0
   -4.2668   -1.1722    0.0005 C   0  0  0  0  0  0  0  0  0  0  0  0
   -3.6428   -2.0795    0.0008 H   0  0  0  0  0  0  0  0  0  0  0  0
   -5.6585   -1.3164    0.0003 C   0  0  0  0  0  0  0  0  0  0  0  0
   -6.0966   -2.3262    0.0004 H   0  0  0  0  0  0  0  0  0  0  0  0
   -6.5101   -0.1929   -0.0001 C   0  0  0  0  0  0  0  0  0  0  0  0
   -5.9150    1.0888   -0.0005 C   0  0  0  0  0  0  0  0  0  0  0  0
   -6.5588    1.9824   -0.0009 H   0  0  0  0  0  0  0  0  0  0  0  0
   -4.5284    1.2455   -0.0002 C   0  0  0  0  0  0  0  0  0  0  0  0
   -4.0683    2.2438   -0.0005 H   0  0  0  0  0  0  0  0  0  0  0  0
   -8.0082   -0.3430    0.0001 C   0  0  0  0  0  0  0  0  0  0  0  0
   -8.3159   -1.4058   -0.0028 H   0  0  0  0  0  0  0  0  0  0  0  0
   -8.4585    0.1466   -0.8885 H   0  0  0  0  0  0  0  0  0  0  0  0
   -8.4575    0.1411    0.8922 H   0  0  0  0  0  0  0  0  0  0  0  0
  1  3  2  0  0  0  0
  1  2  1  0  0  0  0
  2  4  1  0  0  0  0
  3  5  1  0  0  0  0
  5  4  1  0  0  0  0
  5  6  1  0  0  0  0
  7 15  1  0  0  0  0
  7  2  2  0  0  0  0
  8  7  1  0  0  0  0
  9  8  1  0  0  0  0
 10  8  2  0  0  0  0
 10 11  1  0  0  0  0
 11 13  2  0  0  0  0
 12 11  1  0  0  0  0
 13 14  1  0  0  0  0
 15 13  1  0  0  0  0
 16  3  1  0  0  0  0
 16 17  1  0  0  0  0
 17 18  1  0  0  0  0
 19 20  1  0  0  0  0
 19 17  2  0  0  0  0
 21 26  1  0  0  0  0
 21 19  1  0  0  0  0
 22 24  1  0  0  0  0
 22 21  2  0  0  0  0
 23 22  1  0  0  0  0
 24 16  2  0  0  0  0
 25 24  1  0  0  0  0
 26 29  1  0  0  0  0
 27 26  1  0  0  0  0
 28 26  1  0  0  0  0
M  END
