1,11
 OpenBabel05122313053D

 44 46  0  0  0  0  0  0  0  0999 V2000
   -0.0047   -0.2853    0.0124 N   0  0  0  0  0  2  0  0  0  0  0  0
   -1.2558    0.1064   -0.0399 N   0  0  0  0  0  2  0  0  0  0  0  0
    0.3480   -1.6083    0.1027 C   0  0  0  0  0  0  0  0  0  0  0  0
   -0.6491   -2.6084    0.1491 C   0  0  0  0  0  0  0  0  0  0  0  0
   -0.3592   -3.6670    0.2211 H   0  0  0  0  0  0  0  0  0  0  0  0
   -1.9735   -2.2096    0.1036 C   0  0  0  0  0  0  0  0  0  0  0  0
   -2.8224   -2.9063    0.1387 H   0  0  0  0  0  0  0  0  0  0  0  0
   -2.2411   -0.8188    0.0025 C   0  0  0  0  0  0  0  0  0  0  0  0
    1.7692   -1.8548    0.0986 C   0  0  0  0  0  3  0  0  0  0  0  0
    2.1518   -2.8911    0.1130 H   0  0  0  0  0  0  0  0  0  0  0  0
    2.5765   -0.8288    0.0040 N   0  0  0  0  0  2  0  0  0  0  0  0
    3.9737   -1.0029   -0.0265 C   0  0  0  0  0  0  0  0  0  0  0  0
    4.7314   -0.2354   -0.9354 C   0  0  0  0  0  0  0  0  0  0  0  0
    4.1962    0.4503   -1.6122 H   0  0  0  0  0  0  0  0  0  0  0  0
    6.1176   -0.3957   -1.0098 C   0  0  0  0  0  0  0  0  0  0  0  0
    6.6826    0.1979   -1.7402 H   0  0  0  0  0  0  0  0  0  0  0  0
    6.7707   -1.3085   -0.1503 C   0  0  0  0  0  0  0  0  0  0  0  0
    6.0106   -2.0641    0.7735 C   0  0  0  0  0  0  0  0  0  0  0  0
    6.5432   -2.7432    1.4543 H   0  0  0  0  0  0  0  0  0  0  0  0
    4.6267   -1.9208    0.8297 C   0  0  0  0  0  0  0  0  0  0  0  0
    4.0437   -2.4738    1.5806 H   0  0  0  0  0  0  0  0  0  0  0  0
    8.1088   -1.5197   -0.1285 O   0  0  0  0  0  0  0  0  0  0  0  0
    8.9308   -0.7665   -1.0051 C   0  0  0  0  0  0  0  0  0  0  0  0
    8.6844   -0.9633   -2.0720 H   0  0  0  0  0  0  0  0  0  0  0  0
    9.9700   -1.0883   -0.8099 H   0  0  0  0  0  0  0  0  0  0  0  0
    8.8455    0.3256   -0.8120 H   0  0  0  0  0  0  0  0  0  0  0  0
   -3.5998   -0.2842   -0.0608 C   0  0  0  0  0  0  0  0  0  0  0  0
   -3.6499    0.8240   -0.1422 H   0  0  0  0  0  0  0  0  0  0  0  0
   -4.6178   -1.0818   -0.0287 N   0  0  0  0  0  0  0  0  0  0  0  0
   -5.9346   -0.6321   -0.0628 C   0  0  0  0  0  0  0  0  0  0  0  0
   -6.3492    0.7262    0.0412 C   0  0  0  0  0  0  0  0  0  0  0  0
   -5.6051    1.5251    0.1731 H   0  0  0  0  0  0  0  0  0  0  0  0
   -7.6956    1.0635   -0.0043 C   0  0  0  0  0  0  0  0  0  0  0  0
   -8.0283    2.1079    0.0833 H   0  0  0  0  0  0  0  0  0  0  0  0
   -8.6852    0.0597   -0.1600 C   0  0  0  0  0  0  0  0  0  0  0  0
   -8.2942   -1.2937   -0.2584 C   0  0  0  0  0  0  0  0  0  0  0  0
   -9.0392   -2.0917   -0.3740 H   0  0  0  0  0  0  0  0  0  0  0  0
   -6.9363   -1.6213   -0.2013 C   0  0  0  0  0  0  0  0  0  0  0  0
   -6.6078   -2.6686   -0.2713 H   0  0  0  0  0  0  0  0  0  0  0  0
   -9.9661    0.4961   -0.1951 O   0  0  0  0  0  0  0  0  0  0  0  0
  -11.0071   -0.4557   -0.3411 C   0  0  0  0  0  0  0  0  0  0  0  0
  -10.9180   -1.0192   -1.2961 H   0  0  0  0  0  0  0  0  0  0  0  0
  -11.9530    0.1160   -0.3459 H   0  0  0  0  0  0  0  0  0  0  0  0
  -11.0240   -1.1794    0.5036 H   0  0  0  0  0  0  0  0  0  0  0  0
  1  3  1  0  0  0  0
  2  8  1  0  0  0  0
  2  1  1  0  0  0  0
  3  4  2  0  0  0  0
  4  5  1  0  0  0  0
  6  7  1  0  0  0  0
  6  4  1  0  0  0  0
  8  6  2  0  0  0  0
  9  3  1  0  0  0  0
  9 10  1  0  0  0  0
 11  9  1  0  0  0  0
 12 11  1  0  0  0  0
 12 20  1  0  0  0  0
 13 12  2  0  0  0  0
 14 13  1  0  0  0  0
 15 13  1  0  0  0  0
 15 17  2  0  0  0  0
 16 15  1  0  0  0  0
 17 22  1  0  0  0  0
 17 18  1  0  0  0  0
 18 20  2  0  0  0  0
 18 19  1  0  0  0  0
 20 21  1  0  0  0  0
 23 26  1  0  0  0  0
 23 25  1  0  0  0  0
 23 22  1  0  0  0  0
 24 23  1  0  0  0  0
 27 29  2  0  0  0  0
 27  8  1  0  0  0  0
 28 27  1  0  0  0  0
 30 29  1  0  0  0  0
 30 31  1  0  0  0  0
 31 32  1  0  0  0  0
 33 31  2  0  0  0  0
 33 34  1  0  0  0  0
 35 33  1  0  0  0  0
 36 38  1  0  0  0  0
 36 35  2  0  0  0  0
 37 36  1  0  0  0  0
 38 30  2  0  0  0  0
 39 38  1  0  0  0  0
 40 35  1  0  0  0  0
 41 40  1  0  0  0  0
 41 44  1  0  0  0  0
 42 41  1  0  0  0  0
 43 41  1  0  0  0  0
M  END
