1,2
 OpenBabel05122313053D

 28 29  0  0  1  0  0  0  0  0999 V2000
    1.7897    1.3142   -0.4055 N   0  0  0  0  0  0  0  0  0  0  0  0
   -0.3944    0.6974    0.8816 N   0  0  0  0  0  2  0  0  0  0  0  0
   -0.0303    1.9698    0.9459 C   0  0  0  0  0  3  0  0  0  0  0  0
    2.9015    1.8359   -0.9796 C   0  0  0  0  0  0  0  0  0  0  0  0
    2.9991    3.2179   -0.6812 C   0  0  0  0  0  0  0  0  0  0  0  0
    1.8860    3.5507    0.1123 C   0  0  0  0  0  0  0  0  0  0  0  0
    1.1483    2.3497    0.2730 C   0  0  0  0  0  3  0  0  0  0  0  0
   -1.6547    0.2531    1.4876 C   0  0  1  0  0  0  0  0  0  0  0  0
   -2.0362    1.0094    2.7717 C   0  0  0  0  0  0  0  0  0  0  0  0
   -2.8083    0.2743    0.4841 C   0  0  0  0  0  0  0  0  0  0  0  0
   -2.8154    1.1357   -0.6275 C   0  0  0  0  0  0  0  0  0  0  0  0
   -3.9080    1.1504   -1.5088 C   0  0  0  0  0  0  0  0  0  0  0  0
   -5.0058    0.3053   -1.2910 C   0  0  0  0  0  0  0  0  0  0  0  0
   -5.0034   -0.5625   -0.1869 C   0  0  0  0  0  0  0  0  0  0  0  0
   -3.9106   -0.5781    0.6897 C   0  0  0  0  0  0  0  0  0  0  0  0
   -0.6299    2.7084    1.5039 H   0  0  0  0  0  0  0  0  0  0  0  0
    3.5726    1.2129   -1.5845 H   0  0  0  0  0  0  0  0  0  0  0  0
    3.7919    3.8931   -1.0247 H   0  0  0  0  0  0  0  0  0  0  0  0
    1.6269    4.5327    0.5248 H   0  0  0  0  0  0  0  0  0  0  0  0
   -1.4938   -0.8100    1.7652 H   0  0  0  0  0  0  0  0  0  0  0  0
   -2.3371    2.0552    2.5649 H   0  0  0  0  0  0  0  0  0  0  0  0
   -1.1968    1.0146    3.4967 H   0  0  0  0  0  0  0  0  0  0  0  0
   -2.9053    0.5141    3.2454 H   0  0  0  0  0  0  0  0  0  0  0  0
   -1.9470    1.7806   -0.8264 H   0  0  0  0  0  0  0  0  0  0  0  0
   -3.8934    1.8225   -2.3803 H   0  0  0  0  0  0  0  0  0  0  0  0
   -5.8582    0.3131   -1.9870 H   0  0  0  0  0  0  0  0  0  0  0  0
   -5.8536   -1.2399   -0.0144 H   0  0  0  0  0  0  0  0  0  0  0  0
   -3.9063   -1.2742    1.5445 H   0  0  0  0  0  0  0  0  0  0  0  0
  1  7  1  0  0  0  0
  2  3  1  0  0  0  0
  2  8  1  0  0  0  0
  3 16  1  0  0  0  0
  4  5  1  0  0  0  0
  4  1  2  0  0  0  0
  5  6  2  0  0  0  0
  6  7  1  0  0  0  0
  6 19  1  0  0  0  0
  7  3  1  0  0  0  0
  8 20  1  1  0  0  0
  8  9  1  0  0  0  0
  9 23  1  0  0  0  0
  9 22  1  0  0  0  0
 10 15  1  0  0  0  0
 10  8  1  0  0  0  0
 11 10  2  0  0  0  0
 12 13  2  0  0  0  0
 12 11  1  0  0  0  0
 13 14  1  0  0  0  0
 14 27  1  0  0  0  0
 14 15  2  0  0  0  0
 15 28  1  0  0  0  0
 17  4  1  0  0  0  0
 18  5  1  0  0  0  0
 21  9  1  0  0  0  0
 24 11  1  0  0  0  0
 25 12  1  0  0  0  0
 26 13  1  0  0  0  0
M  END
