5,6
 OpenBabel05122313053D

 44 46  0  0  1  0  0  0  0  0999 V2000
   -3.1535   -2.0419   -0.0152 O   0  0  0  0  0  0  0  0  0  0  0  0
    1.9059   -0.3706   -1.3102 O   0  0  0  0  0  0  0  0  0  0  0  0
    4.4707   -2.5945   -0.4364 O   0  0  0  0  0  0  0  0  0  0  0  0
    2.4496   -2.1849    0.5500 O   0  0  0  0  0  0  0  0  0  0  0  0
   -2.3335    0.7662   -0.1156 N   0  0  0  0  0  2  0  0  0  0  0  0
    0.3137    1.4788   -0.3535 N   0  0  0  0  0  2  0  0  0  0  0  0
   -4.0101   -1.0251    0.0438 C   0  0  0  0  0  0  0  0  0  0  0  0
   -5.3644   -1.3749    0.2874 C   0  0  0  0  0  0  0  0  0  0  0  0
   -5.5803   -2.4467    0.4022 H   0  0  0  0  0  0  0  0  0  0  0  0
   -6.3715   -0.4182    0.3365 C   0  0  0  0  0  0  0  0  0  0  0  0
   -7.4138   -0.7304    0.5013 H   0  0  0  0  0  0  0  0  0  0  0  0
   -6.0611    0.9458    0.1353 C   0  0  0  0  0  0  0  0  0  0  0  0
   -6.8575    1.7039    0.1177 H   0  0  0  0  0  0  0  0  0  0  0  0
   -4.7369    1.3202   -0.0531 C   0  0  0  0  0  0  0  0  0  0  0  0
   -4.5059    2.3810   -0.2264 H   0  0  0  0  0  0  0  0  0  0  0  0
   -3.6727    0.3729   -0.0583 C   0  0  0  0  0  0  0  0  0  0  0  0
   -1.9702    1.9964    0.1274 C   0  0  0  0  0  3  0  0  0  0  0  0
   -2.6909    2.7771    0.4367 H   0  0  0  0  0  0  0  0  0  0  0  0
   -0.5708    2.3993    0.0569 C   0  0  0  0  0  0  0  0  0  0  0  0
   -0.1456    3.7064    0.4378 C   0  0  0  0  0  0  0  0  0  0  0  0
   -0.8939    4.4473    0.7545 H   0  0  0  0  0  0  0  0  0  0  0  0
    1.2052    4.0078    0.4352 C   0  0  0  0  0  0  0  0  0  0  0  0
    1.5579    5.0007    0.7537 H   0  0  0  0  0  0  0  0  0  0  0  0
    2.1610    3.0304    0.0287 C   0  0  0  0  0  0  0  0  0  0  0  0
    1.6374    1.7596   -0.3902 C   0  0  1  0  0  3  0  0  0  0  0  0
    2.5343    0.7346   -0.8533 C   0  0  0  0  0  0  0  0  0  0  0  0
    3.9095    0.9527   -0.8147 C   0  0  0  0  0  0  0  0  0  0  0  0
    4.6112    0.1641   -1.1188 H   0  0  0  0  0  0  0  0  0  0  0  0
    4.4115    2.2067   -0.3738 C   0  0  0  0  0  0  0  0  0  0  0  0
    5.5013    2.3570   -0.3586 H   0  0  0  0  0  0  0  0  0  0  0  0
    3.5681    3.2355    0.0248 C   0  0  0  0  0  0  0  0  0  0  0  0
    3.9729    4.2050    0.3497 H   0  0  0  0  0  0  0  0  0  0  0  0
    2.6686   -1.5201   -1.6742 C   0  0  0  0  0  0  0  0  0  0  0  0
    3.4409   -1.2742   -2.4303 H   0  0  0  0  0  0  0  0  0  0  0  0
    1.9195   -2.2132   -2.1084 H   0  0  0  0  0  0  0  0  0  0  0  0
    3.3304   -2.1700   -0.4554 C   0  0  0  0  0  0  0  0  0  0  0  0
    2.8897   -2.6107    1.8630 C   0  0  0  0  0  0  0  0  0  0  0  0
    1.9783   -3.0341    2.3243 H   0  0  0  0  0  0  0  0  0  0  0  0
    3.6646   -3.3940    1.7404 H   0  0  0  0  0  0  0  0  0  0  0  0
    3.3948   -1.4139    2.6491 C   0  0  0  0  0  0  0  0  0  0  0  0
    3.6589   -1.7230    3.6806 H   0  0  0  0  0  0  0  0  0  0  0  0
    2.5964   -0.6477    2.7022 H   0  0  0  0  0  0  0  0  0  0  0  0
    4.2985   -0.9781    2.1777 H   0  0  0  0  0  0  0  0  0  0  0  0
   -2.3634   -1.8851   -0.6171 H   0  0  0  0  0  0  0  0  0  0  0  0
  1  7  1  0  0  0  0
  2 26  1  0  0  0  0
  4 37  1  0  0  0  0
  5 16  1  0  0  0  0
  5 17  1  0  0  0  0
  6 19  1  0  0  0  0
  7  8  1  0  0  0  0
  8 10  2  0  0  0  0
  8  9  1  0  0  0  0
 10 11  1  0  0  0  0
 12 10  1  0  0  0  0
 13 12  1  0  0  0  0
 14 12  2  0  0  0  0
 15 14  1  0  0  0  0
 16 14  1  0  0  0  0
 16  7  2  0  0  0  0
 17 18  1  0  0  0  0
 19 17  1  0  0  0  0
 19 20  2  0  0  0  0
 20 21  1  0  0  0  0
 22 20  1  0  0  0  0
 22 23  1  0  0  0  0
 24 22  2  0  0  0  0
 25 26  1  1  0  0  0
 25  6  1  0  0  0  0
 25 24  1  0  0  0  0
 26 27  2  0  0  0  0
 27 29  1  0  0  0  0
 28 27  1  0  0  0  0
 29 30  1  0  0  0  0
 29 31  2  0  0  0  0
 31 24  1  0  0  0  0
 31 32  1  0  0  0  0
 33  2  1  0  0  0  0
 33 36  1  0  0  0  0
 34 33  1  0  0  0  0
 35 33  1  0  0  0  0
 36  3  2  0  0  0  0
 36  4  1  0  0  0  0
 37 38  1  0  0  0  0
 37 40  1  0  0  0  0
 39 37  1  0  0  0  0
 40 42  1  0  0  0  0
 40 41  1  0  0  0  0
 43 40  1  0  0  0  0
 44  1  1  0  0  0  0
M  END
