4,5
 OpenBabel05122313053D

 28 30  0  0  0  0  0  0  0  0999 V2000
    2.3488    4.5021   -0.2030 Cl  0  0  0  0  0  0  0  0  0  0  0  0
    4.0016   -3.0474   -0.1670 Cl  0  0  0  0  0  0  0  0  0  0  0  0
    4.4545   -0.2816   -0.6243 F   0  0  0  0  0  0  0  0  0  0  0  0
   -0.7575    1.2515    0.4184 N   0  0  0  0  0  2  0  0  0  0  0  0
   -0.1612   -1.3423    0.4370 N   0  0  0  0  0  2  0  0  0  0  0  0
   -1.0703    2.5405    0.6739 C   0  0  0  0  0  0  0  0  0  0  0  0
   -0.0984    3.5571    0.4751 C   0  0  0  0  0  0  0  0  0  0  0  0
   -0.3775    4.6041    0.6525 H   0  0  0  0  0  0  0  0  0  0  0  0
    1.1910    3.2429    0.0699 C   0  0  0  0  0  0  0  0  0  0  0  0
    1.5731    1.8758   -0.0718 C   0  0  0  0  0  0  0  0  0  0  0  0
    2.8975    1.4327   -0.3639 C   0  0  0  0  0  0  0  0  0  0  0  0
    3.6913    2.1636   -0.5653 H   0  0  0  0  0  0  0  0  0  0  0  0
    3.1973    0.0913   -0.3638 C   0  0  0  0  0  0  0  0  0  0  0  0
    2.2169   -0.9219   -0.0644 C   0  0  0  0  0  0  0  0  0  0  0  0
    2.4535   -2.3219    0.0984 C   0  0  0  0  0  0  0  0  0  0  0  0
    1.4145   -3.1400    0.5283 C   0  0  0  0  0  0  0  0  0  0  0  0
    1.6123   -4.2023    0.7233 H   0  0  0  0  0  0  0  0  0  0  0  0
    0.1058   -2.6353    0.7237 C   0  0  0  0  0  0  0  0  0  0  0  0
    0.8691   -0.4881    0.1378 C   0  0  0  0  0  0  0  0  0  0  0  0
    0.5420    0.9170    0.1312 C   0  0  0  0  0  0  0  0  0  0  0  0
   -2.4251    2.8814    1.1950 C   0  0  0  0  0  0  0  0  0  0  0  0
   -3.1945    2.6204    0.4342 H   0  0  0  0  0  0  0  0  0  0  0  0
   -2.4902    3.9485    1.4727 H   0  0  0  0  0  0  0  0  0  0  0  0
   -2.6595    2.2501    2.0760 H   0  0  0  0  0  0  0  0  0  0  0  0
   -0.9723   -3.5066    1.2697 C   0  0  0  0  0  0  0  0  0  0  0  0
   -1.4511   -3.0120    2.1391 H   0  0  0  0  0  0  0  0  0  0  0  0
   -0.5770   -4.4931    1.5703 H   0  0  0  0  0  0  0  0  0  0  0  0
   -1.7815   -3.6142    0.5120 H   0  0  0  0  0  0  0  0  0  0  0  0
  1  9  1  0  0  0  0
  2 15  1  0  0  0  0
  3 13  1  0  0  0  0
  4  6  1  0  0  0  0
  5 18  1  0  0  0  0
  6 21  1  0  0  0  0
  7  8  1  0  0  0  0
  7  6  2  0  0  0  0
  9  7  1  0  0  0  0
 10  9  2  0  0  0  0
 10 20  1  0  0  0  0
 11 13  2  0  0  0  0
 11 10  1  0  0  0  0
 12 11  1  0  0  0  0
 13 14  1  0  0  0  0
 14 15  2  0  0  0  0
 14 19  1  0  0  0  0
 15 16  1  0  0  0  0
 16 17  1  0  0  0  0
 16 18  2  0  0  0  0
 18 25  1  0  0  0  0
 19  5  1  0  0  0  0
 20 19  2  0  0  0  0
 20  4  1  0  0  0  0
 21 23  1  0  0  0  0
 21 24  1  0  0  0  0
 22 21  1  0  0  0  0
 25 27  1  0  0  0  0
 25 26  1  0  0  0  0
 28 25  1  0  0  0  0
M  END
