1,2
 OpenBabel05122313053D

 22 23  0  0  0  0  0  0  0  0999 V2000
    0.2056   -2.0780   -0.5703 N   0  0  0  0  0  2  0  0  0  0  0  0
    1.9847   -0.2182   -0.1616 N   0  0  0  0  0  2  0  0  0  0  0  0
    2.9886    0.6100    0.1464 N   0  0  0  0  0  0  0  0  0  0  0  0
    3.5644   -1.5069    0.7764 N   0  0  0  0  0  2  0  0  0  0  0  0
   -0.6701   -2.9742   -1.1103 C   0  0  0  0  0  0  0  0  0  0  0  0
   -0.4352   -4.3547   -0.9450 C   0  0  0  0  0  0  0  0  0  0  0  0
   -1.1676   -5.0576   -1.3652 H   0  0  0  0  0  0  0  0  0  0  0  0
    0.7056   -4.8185   -0.2807 C   0  0  0  0  0  0  0  0  0  0  0  0
    0.8706   -5.8975   -0.1439 H   0  0  0  0  0  0  0  0  0  0  0  0
    1.6546   -3.8917    0.1580 C   0  0  0  0  0  0  0  0  0  0  0  0
    2.6105   -4.1760    0.6181 H   0  0  0  0  0  0  0  0  0  0  0  0
    1.3863   -2.5308   -0.0281 C   0  0  0  0  0  0  0  0  0  0  0  0
    2.3382   -1.4765    0.2404 C   0  0  0  0  0  0  0  0  0  0  0  0
    3.9175   -0.2041    0.6892 C   0  0  0  0  0  0  0  0  0  0  0  0
    5.2271    0.3290    1.2096 C   0  0  0  0  0  0  0  0  0  0  0  0
   -1.8451   -2.4904   -1.8921 C   0  0  0  0  0  0  0  0  0  0  0  0
   -2.6291   -2.1043   -1.2023 H   0  0  0  0  0  0  0  0  0  0  0  0
   -2.2628   -3.3106   -2.5034 H   0  0  0  0  0  0  0  0  0  0  0  0
   -1.5552   -1.6486   -2.5512 H   0  0  0  0  0  0  0  0  0  0  0  0
    5.2191    0.4192    2.5616 F   0  0  0  0  0  0  0  0  0  0  0  0
    6.2530   -0.4788    0.8667 F   0  0  0  0  0  0  0  0  0  0  0  0
    5.4773    1.5616    0.7190 F   0  0  0  0  0  0  0  0  0  0  0  0
  1 12  1  0  0  0  0
  2  3  1  0  0  0  0
  2 13  1  0  0  0  0
  3 14  2  0  0  0  0
  5  6  2  0  0  0  0
  5  1  1  0  0  0  0
  6  8  1  0  0  0  0
  7  6  1  0  0  0  0
  8  9  1  0  0  0  0
  8 10  2  0  0  0  0
 10 11  1  0  0  0  0
 12 10  1  0  0  0  0
 12 13  2  0  0  0  0
 13  4  1  0  0  0  0
 14  4  1  0  0  0  0
 14 15  1  0  0  0  0
 15 20  1  0  0  0  0
 16 17  1  0  0  0  0
 16  5  1  0  0  0  0
 18 16  1  0  0  0  0
 19 16  1  0  0  0  0
 21 15  1  0  0  0  0
 22 15  1  0  0  0  0
M  END
