2,4
 OpenBabel05122313053D

 40 42  0  0  0  0  0  0  0  0999 V2000
    0.3168   -1.9105    0.3484 N   0  0  0  0  0  0  0  0  0  0  0  0
   -0.7509   -1.5447   -0.3847 N   0  0  0  0  0  2  0  0  0  0  0  0
   -0.1250    2.0776    0.5277 N   0  0  0  0  0  0  0  0  0  0  0  0
   -1.1220    1.5845   -0.2305 N   0  0  0  0  0  2  0  0  0  0  0  0
    1.1893    0.1691    1.3436 N   0  0  0  0  0  0  0  0  0  0  0  0
    0.6945   -1.1533    1.5663 C   0  0  0  0  0  0  0  0  0  0  0  0
   -0.2221   -1.0945    2.1918 H   0  0  0  0  0  0  0  0  0  0  0  0
    1.4416   -1.8010    2.0702 H   0  0  0  0  0  0  0  0  0  0  0  0
   -1.2913    2.4318   -1.2586 C   0  0  0  0  0  3  0  0  0  0  0  0
   -2.0733    2.2040   -1.9953 H   0  0  0  0  0  0  0  0  0  0  0  0
    0.9717   -2.9519   -0.2364 C   0  0  0  0  0  3  0  0  0  0  0  0
    1.8678   -3.3842    0.2225 H   0  0  0  0  0  0  0  0  0  0  0  0
   -0.7893   -2.3539   -1.4560 C   0  0  0  0  0  0  0  0  0  0  0  0
   -1.6051   -2.2190   -2.1790 H   0  0  0  0  0  0  0  0  0  0  0  0
    0.3953    1.3098    1.6819 C   0  0  0  0  0  0  0  0  0  0  0  0
    0.9831    2.0547    2.2622 H   0  0  0  0  0  0  0  0  0  0  0  0
   -0.4902    0.9876    2.2707 H   0  0  0  0  0  0  0  0  0  0  0  0
    0.2857   -3.2694   -1.4099 C   0  0  0  0  0  0  0  0  0  0  0  0
    0.5267   -4.0611   -2.1259 H   0  0  0  0  0  0  0  0  0  0  0  0
    0.3588    3.2358   -0.0015 C   0  0  0  0  0  0  0  0  0  0  0  0
    1.1793    3.7767    0.4831 H   0  0  0  0  0  0  0  0  0  0  0  0
   -0.3735    3.5016   -1.1598 C   0  0  0  0  0  0  0  0  0  0  0  0
   -0.2630    4.3573   -1.8329 H   0  0  0  0  0  0  0  0  0  0  0  0
    2.3209    0.3512   -0.9157 C   0  0  0  0  0  0  0  0  0  0  0  0
    2.0370   -0.6781   -1.2224 H   0  0  0  0  0  0  0  0  0  0  0  0
    1.5016    1.0158   -1.2544 H   0  0  0  0  0  0  0  0  0  0  0  0
    2.4458    0.4060    0.6249 C   0  0  0  0  0  0  0  0  0  0  0  0
    2.7387    1.4502    0.8868 H   0  0  0  0  0  0  0  0  0  0  0  0
    4.9188   -0.1105    0.4297 C   0  0  0  0  0  0  0  0  0  0  0  0
    5.2083    0.9149    0.7522 H   0  0  0  0  0  0  0  0  0  0  0  0
    5.7305   -0.7841    0.7750 H   0  0  0  0  0  0  0  0  0  0  0  0
    4.8006   -0.1447   -1.0996 C   0  0  0  0  0  0  0  0  0  0  0  0
    5.7567    0.1700   -1.5670 H   0  0  0  0  0  0  0  0  0  0  0  0
    4.6224   -1.1936   -1.4280 H   0  0  0  0  0  0  0  0  0  0  0  0
    3.5956   -0.4948    1.1066 C   0  0  0  0  0  0  0  0  0  0  0  0
    3.3695   -1.5554    0.8601 H   0  0  0  0  0  0  0  0  0  0  0  0
    3.6802   -0.4317    2.2120 H   0  0  0  0  0  0  0  0  0  0  0  0
    3.6443    0.7362   -1.5888 C   0  0  0  0  0  0  0  0  0  0  0  0
    3.5433    0.6718   -2.6919 H   0  0  0  0  0  0  0  0  0  0  0  0
    3.8740    1.8022   -1.3609 H   0  0  0  0  0  0  0  0  0  0  0  0
  1  6  1  0  0  0  0
  2  1  1  0  0  0  0
  3 15  1  0  0  0  0
  4  3  1  0  0  0  0
  5  6  1  0  0  0  0
  5 15  1  0  0  0  0
  6  8  1  0  0  0  0
  6  7  1  0  0  0  0
  9 22  1  0  0  0  0
  9  4  1  0  0  0  0
 10  9  1  0  0  0  0
 11 12  1  0  0  0  0
 11  1  1  0  0  0  0
 13 18  2  0  0  0  0
 13  2  1  0  0  0  0
 14 13  1  0  0  0  0
 15 16  1  0  0  0  0
 15 17  1  0  0  0  0
 18 11  1  0  0  0  0
 19 18  1  0  0  0  0
 20 21  1  0  0  0  0
 20  3  1  0  0  0  0
 22 20  2  0  0  0  0
 23 22  1  0  0  0  0
 24 27  1  0  0  0  0
 25 24  1  0  0  0  0
 26 24  1  0  0  0  0
 27 28  1  0  0  0  0
 27 35  1  0  0  0  0
 27  5  1  0  0  0  0
 29 30  1  0  0  0  0
 29 31  1  0  0  0  0
 29 35  1  0  0  0  0
 32 29  1  0  0  0  0
 33 32  1  0  0  0  0
 34 32  1  0  0  0  0
 35 37  1  0  0  0  0
 36 35  1  0  0  0  0
 38 40  1  0  0  0  0
 38 32  1  0  0  0  0
 38 24  1  0  0  0  0
 39 38  1  0  0  0  0
M  END
