1,2
 OpenBabel05122313053D

 37 38  0  0  0  0  0  0  0  0999 V2000
    0.8310    1.2709   -0.2628 N   0  0  0  0  0  2  0  0  0  0  0  0
    0.7393   -1.3217   -0.2708 N   0  0  0  0  0  2  0  0  0  0  0  0
    2.2092    1.1286   -0.0389 C   0  0  0  0  0  0  0  0  0  0  0  0
    3.0626    2.2487    0.0486 C   0  0  0  0  0  0  0  0  0  0  0  0
    2.6580    3.2524   -0.0886 H   0  0  0  0  0  0  0  0  0  0  0  0
    4.4434    2.1365    0.3152 C   0  0  0  0  0  0  0  0  0  0  0  0
    5.0453    3.0561    0.3801 H   0  0  0  0  0  0  0  0  0  0  0  0
    5.0367    0.8991    0.4876 C   0  0  0  0  0  0  0  0  0  0  0  0
    6.1144    0.8034    0.6875 H   0  0  0  0  0  0  0  0  0  0  0  0
    4.2474   -0.2802    0.3706 C   0  0  0  0  0  0  0  0  0  0  0  0
    2.8276   -0.1786    0.1178 C   0  0  0  0  0  0  0  0  0  0  0  0
    2.0931   -1.4054   -0.0425 C   0  0  0  0  0  0  0  0  0  0  0  0
    2.7422   -2.6503    0.0172 C   0  0  0  0  0  0  0  0  0  0  0  0
    2.1485   -3.5633   -0.1196 H   0  0  0  0  0  0  0  0  0  0  0  0
    4.1264   -2.7244    0.2723 C   0  0  0  0  0  0  0  0  0  0  0  0
    4.6168   -3.7085    0.3265 H   0  0  0  0  0  0  0  0  0  0  0  0
    4.8631   -1.5644    0.4605 C   0  0  0  0  0  0  0  0  0  0  0  0
    5.9440   -1.6111    0.6619 H   0  0  0  0  0  0  0  0  0  0  0  0
    0.2590    2.5926   -0.6185 C   0  0  0  0  0  0  0  0  0  0  0  0
   -0.8430    2.3918   -0.6619 H   0  0  0  0  0  0  0  0  0  0  0  0
    0.6389    3.0117   -2.0469 C   0  0  0  0  0  0  0  0  0  0  0  0
    0.3438    2.2298   -2.7721 H   0  0  0  0  0  0  0  0  0  0  0  0
    1.7306    3.1773   -2.1337 H   0  0  0  0  0  0  0  0  0  0  0  0
    0.1225    3.9535   -2.3215 H   0  0  0  0  0  0  0  0  0  0  0  0
    0.4074    3.7580    0.3874 C   0  0  0  0  0  0  0  0  0  0  0  0
    0.5303    3.3971    1.4245 H   0  0  0  0  0  0  0  0  0  0  0  0
   -0.4962    4.3969    0.3431 H   0  0  0  0  0  0  0  0  0  0  0  0
    1.2636    4.4193    0.1554 H   0  0  0  0  0  0  0  0  0  0  0  0
   -0.1846   -2.1153   -1.0081 C   0  0  0  0  0  3  0  0  0  0  0  0
   -0.6147   -3.4585   -0.4344 C   0  0  0  0  0  0  0  0  0  0  0  0
    0.1242   -4.2484   -0.7054 H   0  0  0  0  0  0  0  0  0  0  0  0
   -1.5836   -3.7886   -0.8579 H   0  0  0  0  0  0  0  0  0  0  0  0
   -0.6956   -3.4486    0.6651 H   0  0  0  0  0  0  0  0  0  0  0  0
    0.1486   -2.2481   -2.4950 C   0  0  0  0  0  0  0  0  0  0  0  0
    0.9748   -2.9799   -2.6499 H   0  0  0  0  0  0  0  0  0  0  0  0
    0.4652   -1.2854   -2.9416 H   0  0  0  0  0  0  0  0  0  0  0  0
   -0.7304   -2.6112   -3.0644 H   0  0  0  0  0  0  0  0  0  0  0  0
  1  3  1  0  0  0  0
  2 12  1  0  0  0  0
  3  4  2  0  0  0  0
  3 11  1  0  0  0  0
  4  6  1  0  0  0  0
  5  4  1  0  0  0  0
  6  7  1  0  0  0  0
  6  8  2  0  0  0  0
  8  9  1  0  0  0  0
 10 17  1  0  0  0  0
 10  8  1  0  0  0  0
 11 10  2  0  0  0  0
 12 13  2  0  0  0  0
 12 11  1  0  0  0  0
 13 15  1  0  0  0  0
 14 13  1  0  0  0  0
 15 16  1  0  0  0  0
 15 17  2  0  0  0  0
 17 18  1  0  0  0  0
 19  1  1  0  0  0  0
 19 25  1  0  0  0  0
 20 19  1  0  0  0  0
 21 19  1  0  0  0  0
 22 21  1  0  0  0  0
 23 21  1  0  0  0  0
 24 21  1  0  0  0  0
 25 26  1  0  0  0  0
 27 25  1  0  0  0  0
 28 25  1  0  0  0  0
 29 30  1  0  0  0  0
 29  2  1  0  0  0  0
 30 33  1  0  0  0  0
 31 30  1  0  0  0  0
 32 30  1  0  0  0  0
 34 29  1  0  0  0  0
 35 34  1  0  0  0  0
 36 34  1  0  0  0  0
 37 34  1  0  0  0  0
M  END
