17,19
 OpenBabel05122313053D

 33 35  0  0  1  0  0  0  0  0999 V2000
   -1.6818   -0.3628   -2.1057 Cl  0  0  0  0  0  0  0  0  0  0  0  0
   -2.1162   -4.1973    1.7074 Cl  0  0  0  0  0  0  0  0  0  0  0  0
    2.7144   -4.2459   -1.2192 S   0  0  1  0  0  0  0  0  0  0  0  0
   -6.9918   -2.2172   -0.5546 F   0  0  0  0  0  0  0  0  0  0  0  0
   -6.5600   -0.1161   -0.1630 F   0  0  0  0  0  0  0  0  0  0  0  0
   -6.6824   -1.5391    1.4936 F   0  0  0  0  0  0  0  0  0  0  0  0
    2.2697   -2.7574   -3.4529 F   0  0  0  0  0  0  0  0  0  0  0  0
    4.1628   -3.8364   -3.4159 F   0  0  0  0  0  0  0  0  0  0  0  0
    3.9111   -2.0381   -2.1944 F   0  0  0  0  0  0  0  0  0  0  0  0
    2.0197   -5.4122   -1.9229 O   0  0  0  0  0  0  0  0  0  0  0  0
   -0.4586   -4.1430   -2.0078 N   0  0  0  0  0  0  0  0  0  0  0  0
   -1.4436   -4.4026   -1.9373 H   0  0  0  0  0  0  0  0  0  0  0  0
    0.2200   -4.8660   -2.3112 H   0  0  0  0  0  0  0  0  0  0  0  0
    4.2349   -0.7324    1.9605 N   0  0  0  0  0  0  0  0  0  0  0  0
   -0.6611   -2.4831   -0.2587 N   0  0  0  0  0  0  0  0  0  0  0  0
    3.7787   -1.6042    1.0356 N   0  0  0  0  0  0  0  0  0  0  0  0
    0.1415   -1.7876    0.6050 N   0  0  0  0  0  2  0  0  0  0  0  0
    3.2196   -0.1898    2.6120 N   0  0  0  0  0  2  0  0  0  0  0  0
    2.0830   -0.7095    2.1329 N   0  0  0  0  0  0  0  0  0  0  0  0
   -6.2657   -1.3697    0.2236 C   0  0  0  0  0  0  0  0  0  0  0  0
   -4.0232   -0.9616   -0.8572 C   0  0  0  0  0  0  0  0  0  0  0  0
   -4.4680   -0.1445   -1.4365 H   0  0  0  0  0  0  0  0  0  0  0  0
    0.0613   -3.3420   -1.0499 C   0  0  2  0  0  3  0  0  0  0  0  0
    3.2993   -3.1286   -2.6822 C   0  0  0  0  0  0  0  0  0  0  0  0
   -2.6625   -1.2629   -0.9951 C   0  0  0  0  0  0  0  0  0  0  0  0
   -4.7858   -1.6753    0.0776 C   0  0  0  0  0  0  0  0  0  0  0  0
    2.4429   -1.5698    1.1572 C   0  0  0  0  0  0  0  0  0  0  0  0
    1.4138   -3.1708   -0.6635 C   0  0  0  0  0  0  0  0  0  0  0  0
   -4.2186   -2.6894    0.8628 C   0  0  0  0  0  0  0  0  0  0  0  0
   -4.8183   -3.2253    1.6094 H   0  0  0  0  0  0  0  0  0  0  0  0
    1.3940   -2.2049    0.3771 C   0  0  0  0  0  0  0  0  0  0  0  0
   -2.8575   -2.9822    0.7179 C   0  0  0  0  0  0  0  0  0  0  0  0
   -2.0612   -2.2728   -0.2104 C   0  0  0  0  0  0  0  0  0  0  0  0
  1 25  1  0  0  0  0
  3 10  2  6  0  0  0
  3 28  1  0  0  0  0
  4 20  1  0  0  0  0
  5 20  1  0  0  0  0
  7 24  1  0  0  0  0
  8 24  1  0  0  0  0
 11 12  1  0  0  0  0
 13 11  1  0  0  0  0
 14 18  1  0  0  0  0
 15 33  1  0  0  0  0
 15 17  1  0  0  0  0
 16 27  1  0  0  0  0
 16 14  2  0  0  0  0
 19 18  1  0  0  0  0
 20  6  1  0  0  0  0
 21 26  1  0  0  0  0
 22 21  1  0  0  0  0
 23 11  1  6  0  0  0
 23 28  1  0  0  0  0
 23 15  1  0  0  0  0
 24  9  1  0  0  0  0
 24  3  1  0  0  0  0
 25 21  2  0  0  0  0
 25 33  1  0  0  0  0
 26 20  1  0  0  0  0
 26 29  2  0  0  0  0
 27 19  2  0  0  0  0
 28 31  2  0  0  0  0
 29 30  1  0  0  0  0
 31 17  1  0  0  0  0
 31 27  1  0  0  0  0
 32 29  1  0  0  0  0
 32  2  1  0  0  0  0
 33 32  2  0  0  0  0
M  END
