1,2
 OpenBabel05122313053D

 17 17  0  0  0  0  0  0  0  0999 V2000
   -0.0038    1.3450   -1.9610 N   0  0  0  0  0  0  0  0  0  0  0  0
   -0.3056    2.0254    1.2046 N   0  0  0  0  0  2  0  0  0  0  0  0
   -0.2240    2.8003   -1.9242 C   0  0  0  0  0  0  0  0  0  0  0  0
   -0.2440    3.2582    0.5772 C   0  0  0  0  0  0  0  0  0  0  0  0
   -1.1075    2.1559    2.2554 C   0  0  0  0  0  3  0  0  0  0  0  0
    0.4709    3.4707   -0.7209 C   0  0  0  0  0  0  0  0  0  0  0  0
   -1.5575    3.4369    2.3464 N   0  0  0  0  0  0  0  0  0  0  0  0
   -1.0256    4.1548    1.2916 C   0  0  0  0  0  0  0  0  0  0  0  0
   -1.4154    1.3540    2.9369 H   0  0  0  0  0  0  0  0  0  0  0  0
   -1.3151    2.9833   -1.8655 H   0  0  0  0  0  0  0  0  0  0  0  0
    0.1542    3.2797   -2.8561 H   0  0  0  0  0  0  0  0  0  0  0  0
    0.9707    1.1593   -2.2801 H   0  0  0  0  0  0  0  0  0  0  0  0
   -0.6866    0.8983   -2.5914 H   0  0  0  0  0  0  0  0  0  0  0  0
    1.5170    3.1034   -0.6567 H   0  0  0  0  0  0  0  0  0  0  0  0
   -2.1893    3.7987    3.0607 H   0  0  0  0  0  0  0  0  0  0  0  0
    0.5282    4.5607   -0.9140 H   0  0  0  0  0  0  0  0  0  0  0  0
   -1.2524    5.2125    1.1293 H   0  0  0  0  0  0  0  0  0  0  0  0
  1  3  1  0  0  0  0
  2  5  1  0  0  0  0
  3 10  1  0  0  0  0
  3  6  1  0  0  0  0
  4  2  1  0  0  0  0
  4  8  2  0  0  0  0
  5  7  1  0  0  0  0
  5  9  1  0  0  0  0
  6 14  1  0  0  0  0
  6  4  1  0  0  0  0
  7 15  1  0  0  0  0
  8  7  1  0  0  0  0
 11  3  1  0  0  0  0
 12  1  1  0  0  0  0
 13  1  1  0  0  0  0
 16  6  1  0  0  0  0
 17  8  1  0  0  0  0
M  END
