2,3
 OpenBabel05122313053D

 32 31  0  0  0  0  0  0  0  0999 V2000
   -2.4576    0.4525    1.7729 O   0  0  0  0  0  0  0  0  0  0  0  0
    2.2163    0.5812   -0.3535 N   0  0  0  0  0  0  0  0  0  0  0  0
   -0.5132    0.9663    0.0949 N   0  0  0  0  0  0  0  0  0  0  0  0
    1.7930    1.9102    0.1804 C   0  0  0  0  0  0  0  0  0  0  0  0
    0.3441    2.0996   -0.3125 C   0  0  0  0  0  0  0  0  0  0  0  0
   -1.8917    0.9256   -0.5001 C   0  0  0  0  0  0  0  0  0  0  0  0
   -2.7499    0.2255    0.6047 C   0  0  0  0  0  0  0  0  0  0  0  0
   -3.9865   -0.5268    0.1942 C   0  0  0  0  0  0  0  0  0  0  0  0
   -1.8949    0.2470   -1.8688 C   0  0  0  0  0  0  0  0  0  0  0  0
   -2.5038    2.3437   -0.6008 C   0  0  0  0  0  0  0  0  0  0  0  0
    1.8642    1.8550    1.7123 C   0  0  0  0  0  0  0  0  0  0  0  0
    2.6872    3.0296   -0.3687 C   0  0  0  0  0  0  0  0  0  0  0  0
    3.0658    0.2043    0.0973 H   0  0  0  0  0  0  0  0  0  0  0  0
    2.4166    0.6277   -1.3643 H   0  0  0  0  0  0  0  0  0  0  0  0
   -0.7193    1.0161    1.1174 H   0  0  0  0  0  0  0  0  0  0  0  0
    0.3486    2.1516   -1.4218 H   0  0  0  0  0  0  0  0  0  0  0  0
   -0.0461    3.0693    0.0630 H   0  0  0  0  0  0  0  0  0  0  0  0
   -4.6193    0.0790   -0.4870 H   0  0  0  0  0  0  0  0  0  0  0  0
   -4.5601   -0.8046    1.0959 H   0  0  0  0  0  0  0  0  0  0  0  0
   -3.6806   -1.4421   -0.3482 H   0  0  0  0  0  0  0  0  0  0  0  0
   -1.1982    0.7674   -2.5585 H   0  0  0  0  0  0  0  0  0  0  0  0
   -2.9028    0.2976   -2.3244 H   0  0  0  0  0  0  0  0  0  0  0  0
   -1.5844   -0.8113   -1.7779 H   0  0  0  0  0  0  0  0  0  0  0  0
   -2.4390    2.8812    0.3660 H   0  0  0  0  0  0  0  0  0  0  0  0
   -3.5747    2.2715   -0.8742 H   0  0  0  0  0  0  0  0  0  0  0  0
   -2.0068    2.9438   -1.3885 H   0  0  0  0  0  0  0  0  0  0  0  0
    2.9146    1.7387    2.0479 H   0  0  0  0  0  0  0  0  0  0  0  0
    1.2911    0.9950    2.1139 H   0  0  0  0  0  0  0  0  0  0  0  0
    1.4685    2.7913    2.1517 H   0  0  0  0  0  0  0  0  0  0  0  0
    2.6438    3.0746   -1.4767 H   0  0  0  0  0  0  0  0  0  0  0  0
    3.7418    2.8658   -0.0692 H   0  0  0  0  0  0  0  0  0  0  0  0
    2.3751    4.0174    0.0238 H   0  0  0  0  0  0  0  0  0  0  0  0
  2 13  1  0  0  0  0
  2  4  1  0  0  0  0
  3 15  1  0  0  0  0
  4 11  1  0  0  0  0
  5 17  1  0  0  0  0
  5  3  1  0  0  0  0
  5  4  1  0  0  0  0
  6  3  1  0  0  0  0
  6  7  1  0  0  0  0
  7  1  2  0  0  0  0
  8  7  1  0  0  0  0
  8 19  1  0  0  0  0
  9 23  1  0  0  0  0
  9  6  1  0  0  0  0
 10  6  1  0  0  0  0
 10 24  1  0  0  0  0
 11 27  1  0  0  0  0
 11 28  1  0  0  0  0
 11 29  1  0  0  0  0
 12 31  1  0  0  0  0
 12 32  1  0  0  0  0
 12  4  1  0  0  0  0
 14  2  1  0  0  0  0
 16  5  1  0  0  0  0
 18  8  1  0  0  0  0
 20  8  1  0  0  0  0
 21  9  1  0  0  0  0
 22  9  1  0  0  0  0
 25 10  1  0  0  0  0
 26 10  1  0  0  0  0
 30 12  1  0  0  0  0
M  END
