1,2
 OpenBabel05122313053D

 17 16  0  0  0  0  0  0  0  0999 V2000
   -2.7928    0.7935    0.9009 N   0  0  0  0  0  2  0  0  0  0  0  0
   -1.9690   -0.5723   -1.5321 N   0  0  0  0  0  2  0  0  0  0  0  0
   -3.0321    1.9466    1.4206 C   0  0  0  0  0  3  0  0  0  0  0  0
   -1.7135   -0.3569   -2.7776 C   0  0  0  0  0  3  0  0  0  0  0  0
   -3.0404   -1.5135   -1.1675 C   0  0  0  0  0  0  0  0  0  0  0  0
   -4.1722   -0.8300   -0.3949 C   0  0  0  0  0  0  0  0  0  0  0  0
   -3.7862   -0.2840    0.9813 C   0  0  0  0  0  0  0  0  0  0  0  0
   -2.2565    2.7280    1.3858 H   0  0  0  0  0  0  0  0  0  0  0  0
   -3.9979    2.1431    1.9244 H   0  0  0  0  0  0  0  0  0  0  0  0
   -2.2800   -0.8835   -3.5686 H   0  0  0  0  0  0  0  0  0  0  0  0
   -0.9171    0.3493   -3.0610 H   0  0  0  0  0  0  0  0  0  0  0  0
   -2.5796   -2.3117   -0.5482 H   0  0  0  0  0  0  0  0  0  0  0  0
   -3.4439   -1.9839   -2.0884 H   0  0  0  0  0  0  0  0  0  0  0  0
   -4.6137   -0.0205   -1.0136 H   0  0  0  0  0  0  0  0  0  0  0  0
   -4.9714   -1.5835   -0.2429 H   0  0  0  0  0  0  0  0  0  0  0  0
   -3.3386   -1.0900    1.6013 H   0  0  0  0  0  0  0  0  0  0  0  0
   -4.6891    0.0886    1.5089 H   0  0  0  0  0  0  0  0  0  0  0  0
  1  7  1  0  0  0  0
  1  3  1  0  0  0  0
  2  5  1  0  0  0  0
  3  9  1  0  0  0  0
  4  2  1  0  0  0  0
  5 12  1  0  0  0  0
  5  6  1  0  0  0  0
  6 15  1  0  0  0  0
  6  7  1  0  0  0  0
  7 17  1  0  0  0  0
  7 16  1  0  0  0  0
  8  3  1  0  0  0  0
 10  4  1  0  0  0  0
 11  4  1  0  0  0  0
 13  5  1  0  0  0  0
 14  6  1  0  0  0  0
M  END
