1,14
 OpenBabel05122313053D

 21 20  0  0  0  0  0  0  0  0999 V2000
    0.1217    0.1899   -1.6021 N   0  0  0  0  0  0  0  0  0  0  0  0
    0.1217    1.6293   -1.2885 C   0  0  0  0  0  0  0  0  0  0  0  0
    0.8993    2.0085    0.0000 C   0  0  0  0  0  0  0  0  0  0  0  0
    2.2972    1.3619    0.0000 C   0  0  0  0  0  0  0  0  0  0  0  0
    1.0282    3.5432    0.0000 C   0  0  0  0  0  0  0  0  0  0  0  0
   -0.5398   -0.0038   -2.3656 H   0  0  0  0  0  0  0  0  0  0  0  0
    1.0459   -0.1472   -1.9069 H   0  0  0  0  0  0  0  0  0  0  0  0
   -0.9401    1.9290   -1.1708 H   0  0  0  0  0  0  0  0  0  0  0  0
    0.5417    2.2210   -2.1338 H   0  0  0  0  0  0  0  0  0  0  0  0
    2.2506    0.2516    0.0000 H   0  0  0  0  0  0  0  0  0  0  0  0
    2.8765    1.6772    0.8926 H   0  0  0  0  0  0  0  0  0  0  0  0
    0.0315    4.0315    0.0000 H   0  0  0  0  0  0  0  0  0  0  0  0
    1.5784    3.8956   -0.8954 H   0  0  0  0  0  0  0  0  0  0  0  0
    0.1217    0.1899    1.6021 N   0  0  0  0  0  0  0  0  0  0  0  0
    0.1217    1.6293    1.2885 C   0  0  0  0  0  0  0  0  0  0  0  0
    2.8765    1.6772   -0.8926 H   0  0  0  0  0  0  0  0  0  0  0  0
    1.5784    3.8956    0.8954 H   0  0  0  0  0  0  0  0  0  0  0  0
   -0.5398   -0.0038    2.3656 H   0  0  0  0  0  0  0  0  0  0  0  0
    1.0459   -0.1472    1.9069 H   0  0  0  0  0  0  0  0  0  0  0  0
   -0.9401    1.9290    1.1708 H   0  0  0  0  0  0  0  0  0  0  0  0
    0.5417    2.2210    2.1338 H   0  0  0  0  0  0  0  0  0  0  0  0
  1  2  1  0  0  0  0
  2  8  1  0  0  0  0
  2  3  1  0  0  0  0
  3 15  1  0  0  0  0
  4  3  1  0  0  0  0
  4 11  1  0  0  0  0
  5  3  1  0  0  0  0
  5 17  1  0  0  0  0
  6  1  1  0  0  0  0
  7  1  1  0  0  0  0
  9  2  1  0  0  0  0
 10  4  1  0  0  0  0
 12  5  1  0  0  0  0
 13  5  1  0  0  0  0
 14 19  1  0  0  0  0
 14 18  1  0  0  0  0
 15 14  1  0  0  0  0
 15 21  1  0  0  0  0
 16  4  1  0  0  0  0
 20 15  1  0  0  0  0
M  END
