3,4
 OpenBabel05122313053D

 34 36  0  0  0  0  0  0  0  0999 V2000
    0.9534   -1.2376   -1.3690 O   0  0  0  0  0  0  0  0  0  0  0  0
    0.5786   -2.1221   -1.5469 H   0  0  0  0  0  0  0  0  0  0  0  0
    1.1604    1.4571   -0.9731 N   0  0  0  0  0  2  0  0  0  0  0  0
   -0.6210    2.2438    0.8888 N   0  0  0  0  0  2  0  0  0  0  0  0
   -1.3516    2.5594    1.9741 C   0  0  0  0  0  3  0  0  0  0  0  0
   -1.6850    1.7146    2.5984 H   0  0  0  0  0  0  0  0  0  0  0  0
   -1.6776    3.8811    2.2955 C   0  0  0  0  0  0  0  0  0  0  0  0
   -2.2788    4.1018    3.1886 H   0  0  0  0  0  0  0  0  0  0  0  0
   -1.2170    4.9040    1.4522 C   0  0  0  0  0  0  0  0  0  0  0  0
   -1.4481    5.9567    1.6735 H   0  0  0  0  0  0  0  0  0  0  0  0
   -0.4561    4.5708    0.3235 C   0  0  0  0  0  0  0  0  0  0  0  0
   -0.0795    5.3499   -0.3556 H   0  0  0  0  0  0  0  0  0  0  0  0
   -0.1807    3.2189    0.0655 C   0  0  0  0  0  0  0  0  0  0  0  0
    0.5775    2.7693   -1.1724 C   0  0  0  0  0  0  0  0  0  0  0  0
    1.3249    3.5357   -1.4772 H   0  0  0  0  0  0  0  0  0  0  0  0
   -0.1703    2.6740   -1.9946 H   0  0  0  0  0  0  0  0  0  0  0  0
    2.3742    1.2141   -1.3509 C   0  0  0  0  0  3  0  0  0  0  0  0
    2.9735    2.0443   -1.7842 H   0  0  0  0  0  0  0  0  0  0  0  0
    3.0377   -0.0806   -1.2622 C   0  0  0  0  0  0  0  0  0  0  0  0
    2.3113   -1.2906   -1.3084 C   0  0  0  0  0  0  0  0  0  0  0  0
    2.9728   -2.5449   -1.3181 C   0  0  0  0  0  0  0  0  0  0  0  0
    2.3718   -3.4668   -1.3725 H   0  0  0  0  0  0  0  0  0  0  0  0
    4.3530   -2.6058   -1.2670 C   0  0  0  0  0  0  0  0  0  0  0  0
    4.8591   -3.5831   -1.2793 H   0  0  0  0  0  0  0  0  0  0  0  0
    5.1426   -1.4226   -1.1916 C   0  0  0  0  0  0  0  0  0  0  0  0
    6.5633   -1.4929   -1.1156 C   0  0  0  0  0  0  0  0  0  0  0  0
    7.0425   -2.4837   -1.1294 H   0  0  0  0  0  0  0  0  0  0  0  0
    7.3282   -0.3406   -1.0229 C   0  0  0  0  0  0  0  0  0  0  0  0
    8.4246   -0.4025   -0.9667 H   0  0  0  0  0  0  0  0  0  0  0  0
    6.6863    0.9225   -0.9925 C   0  0  0  0  0  0  0  0  0  0  0  0
    7.2903    1.8382   -0.9067 H   0  0  0  0  0  0  0  0  0  0  0  0
    5.3014    1.0214   -1.0622 C   0  0  0  0  0  0  0  0  0  0  0  0
    4.8437    2.0189   -1.0095 H   0  0  0  0  0  0  0  0  0  0  0  0
    4.4838   -0.1393   -1.1818 C   0  0  0  0  0  0  0  0  0  0  0  0
  1 20  1  0  0  0  0
  2  1  1  0  0  0  0
  4  5  1  0  0  0  0
  5  7  1  0  0  0  0
  5  6  1  0  0  0  0
  7  8  1  0  0  0  0
  9 10  1  0  0  0  0
  9  7  2  0  0  0  0
 11  9  1  0  0  0  0
 12 11  1  0  0  0  0
 13 11  2  0  0  0  0
 13  4  1  0  0  0  0
 14  3  1  0  0  0  0
 14 13  1  0  0  0  0
 15 14  1  0  0  0  0
 16 14  1  0  0  0  0
 17 19  1  0  0  0  0
 17  3  1  0  0  0  0
 18 17  1  0  0  0  0
 19 34  1  0  0  0  0
 20 19  2  0  0  0  0
 21 20  1  0  0  0  0
 21 23  2  0  0  0  0
 22 21  1  0  0  0  0
 23 25  1  0  0  0  0
 24 23  1  0  0  0  0
 25 34  2  0  0  0  0
 25 26  1  0  0  0  0
 26 28  2  0  0  0  0
 27 26  1  0  0  0  0
 28 30  1  0  0  0  0
 28 29  1  0  0  0  0
 30 31  1  0  0  0  0
 32 33  1  0  0  0  0
 32 30  2  0  0  0  0
 34 32  1  0  0  0  0
M  END
