6,23
 OpenBabel05122313053D

 29 30  0  0  1  0  0  0  0  0999 V2000
   -2.4602    3.0422    0.1961 C   0  0  0  0  0  0  0  0  0  0  0  0
   -2.0610    3.7078    0.9727 H   0  0  0  0  0  0  0  0  0  0  0  0
   -3.7232    3.0829   -0.4456 C   0  0  0  0  0  0  0  0  0  0  0  0
   -4.5147    3.8219   -0.2717 H   0  0  0  0  0  0  0  0  0  0  0  0
   -2.5117    1.3229   -1.1803 C   0  0  0  0  0  0  0  0  0  0  0  0
   -0.5746   -0.1068   -1.5672 N   0  0  0  0  0  2  0  0  0  0  0  0
   -0.0377   -1.3978   -1.9365 C   0  0  1  0  0  0  0  0  0  0  0  0
   -0.6266   -2.2136   -1.4432 H   0  0  0  0  0  0  0  0  0  0  0  0
   -3.7608    1.9813   -1.3252 C   0  0  0  0  0  0  0  0  0  0  0  0
   -4.5739    1.6928   -2.0023 H   0  0  0  0  0  0  0  0  0  0  0  0
   -1.9604    0.1017   -1.8328 C   0  0  0  0  0  0  0  0  0  0  0  0
   -2.1517    0.1732   -2.9375 H   0  0  0  0  0  0  0  0  0  0  0  0
   -2.5899   -0.7813   -1.5246 H   0  0  0  0  0  0  0  0  0  0  0  0
   -0.1270   -1.6500   -3.4636 C   0  0  0  0  0  0  0  0  0  0  0  0
    0.4188   -0.8572   -4.0133 H   0  0  0  0  0  0  0  0  0  0  0  0
   -1.1797   -1.6614   -3.8099 H   0  0  0  0  0  0  0  0  0  0  0  0
    0.3280   -2.6276   -3.7154 H   0  0  0  0  0  0  0  0  0  0  0  0
    1.4049   -1.5354   -1.4776 C   0  0  0  0  0  0  0  0  0  0  0  0
    1.8609   -2.7267   -0.8816 C   0  0  0  0  0  0  0  0  0  0  0  0
    1.1571   -3.5624   -0.7381 H   0  0  0  0  0  0  0  0  0  0  0  0
    2.3208   -0.4832   -1.6722 C   0  0  0  0  0  0  0  0  0  0  0  0
    1.9762    0.4472   -2.1463 H   0  0  0  0  0  0  0  0  0  0  0  0
   -1.7367    1.9777   -0.2573 N   0  0  0  0  0  2  0  0  0  0  0  0
    3.6523   -0.6011   -1.2456 C   0  0  0  0  0  0  0  0  0  0  0  0
    4.3413    0.2465   -1.3760 H   0  0  0  0  0  0  0  0  0  0  0  0
    3.1955   -2.8549   -0.4641 C   0  0  0  0  0  0  0  0  0  0  0  0
    3.5345   -3.7902    0.0075 H   0  0  0  0  0  0  0  0  0  0  0  0
    4.0932   -1.7877   -0.6383 C   0  0  0  0  0  0  0  0  0  0  0  0
    5.1364   -1.8817   -0.3004 H   0  0  0  0  0  0  0  0  0  0  0  0
  1  2  1  0  0  0  0
  3  4  1  0  0  0  0
  3  1  2  0  0  0  0
  5 23  1  0  0  0  0
  7  6  1  0  0  0  0
  7 18  1  0  0  0  0
  7  8  1  1  0  0  0
  9  5  2  0  0  0  0
  9  3  1  0  0  0  0
 10  9  1  0  0  0  0
 11  6  1  0  0  0  0
 11 13  1  0  0  0  0
 11  5  1  0  0  0  0
 12 11  1  0  0  0  0
 14  7  1  0  0  0  0
 15 14  1  0  0  0  0
 16 14  1  0  0  0  0
 17 14  1  0  0  0  0
 18 19  1  0  0  0  0
 19 20  1  0  0  0  0
 19 26  2  0  0  0  0
 21 18  2  0  0  0  0
 21 24  1  0  0  0  0
 22 21  1  0  0  0  0
 23  1  1  0  0  0  0
 24 28  2  0  0  0  0
 25 24  1  0  0  0  0
 26 27  1  0  0  0  0
 28 26  1  0  0  0  0
 28 29  1  0  0  0  0
M  END
