12,15
 OpenBabel05122313053D

 35 36  0  0  0  0  0  0  0  0999 V2000
   -4.1534   -1.7638    0.4019 C   0  0  0  0  0  0  0  0  0  0  0  0
   -4.0672   -2.3719   -0.5092 H   0  0  0  0  0  0  0  0  0  0  0  0
   -5.4105   -1.4986    0.9613 C   0  0  0  0  0  0  0  0  0  0  0  0
   -6.3107   -1.9199    0.4888 H   0  0  0  0  0  0  0  0  0  0  0  0
   -5.5269   -0.6860    2.0996 C   0  0  0  0  0  0  0  0  0  0  0  0
   -6.5169   -0.4789    2.5330 H   0  0  0  0  0  0  0  0  0  0  0  0
   -4.3724   -0.1262    2.6730 C   0  0  0  0  0  0  0  0  0  0  0  0
   -4.4538    0.5194    3.5608 H   0  0  0  0  0  0  0  0  0  0  0  0
   -3.1137   -0.3816    2.1176 C   0  0  0  0  0  0  0  0  0  0  0  0
   -2.2011    0.0596    2.5447 H   0  0  0  0  0  0  0  0  0  0  0  0
   -2.9900   -1.2153    0.9838 C   0  0  0  0  0  0  0  0  0  0  0  0
   -1.7075   -1.4110    0.4340 N   0  0  0  0  0  2  0  0  0  0  0  0
   -1.2008   -2.6150    0.1098 C   0  0  0  0  0  0  0  0  0  0  0  0
    0.0401   -2.6702   -0.3938 N   0  0  0  0  0  0  0  0  0  0  0  0
    0.5368   -1.4432   -0.5734 N   0  0  0  0  0  2  0  0  0  0  0  0
    1.8870   -1.4036   -0.9667 C   0  0  0  0  0  0  0  0  0  0  0  0
    2.7727   -2.4788   -0.7089 C   0  0  0  0  0  0  0  0  0  0  0  0
    2.3598   -3.4010   -0.2789 H   0  0  0  0  0  0  0  0  0  0  0  0
    4.1368   -2.3379   -0.9460 C   0  0  0  0  0  0  0  0  0  0  0  0
    4.8427   -3.1502   -0.7180 H   0  0  0  0  0  0  0  0  0  0  0  0
    4.6548   -1.1214   -1.4460 C   0  0  0  0  0  0  0  0  0  0  0  0
    3.7691   -0.0758   -1.7821 C   0  0  0  0  0  0  0  0  0  0  0  0
    4.1398    0.8709   -2.1952 H   0  0  0  0  0  0  0  0  0  0  0  0
    2.3986   -0.2271   -1.5502 C   0  0  0  0  0  0  0  0  0  0  0  0
    1.7027    0.5924   -1.7791 H   0  0  0  0  0  0  0  0  0  0  0  0
    6.0119   -1.0486   -1.5462 O   0  0  0  0  0  0  0  0  0  0  0  0
    6.5929    0.1888   -1.9254 C   0  0  0  0  0  0  0  0  0  0  0  0
    6.2707    0.5038   -2.9427 H   0  0  0  0  0  0  0  0  0  0  0  0
    7.6870    0.0283   -1.9327 H   0  0  0  0  0  0  0  0  0  0  0  0
    6.3480    0.9922   -1.1964 H   0  0  0  0  0  0  0  0  0  0  0  0
   -2.0813   -4.1321    0.3880 S   0  0  0  0  0  0  0  0  0  0  0  0
   -0.7727   -5.3400    0.0167 C   0  0  0  0  0  0  0  0  0  0  0  0
   -0.4020   -5.2100   -1.0162 H   0  0  0  0  0  0  0  0  0  0  0  0
   -1.2493   -6.3322    0.1331 H   0  0  0  0  0  0  0  0  0  0  0  0
    0.0710   -5.2397    0.7247 H   0  0  0  0  0  0  0  0  0  0  0  0
  1  3  2  0  0  0  0
  1 11  1  0  0  0  0
  2  1  1  0  0  0  0
  3  5  1  0  0  0  0
  4  3  1  0  0  0  0
  5  6  1  0  0  0  0
  5  7  2  0  0  0  0
  7  8  1  0  0  0  0
  9 10  1  0  0  0  0
  9  7  1  0  0  0  0
 11  9  2  0  0  0  0
 12 11  1  0  0  0  0
 13 31  1  0  0  0  0
 13 12  1  0  0  0  0
 14 13  2  0  0  0  0
 15 14  1  0  0  0  0
 16 17  1  0  0  0  0
 16 15  1  0  0  0  0
 17 18  1  0  0  0  0
 19 20  1  0  0  0  0
 19 17  2  0  0  0  0
 21 19  1  0  0  0  0
 22 24  1  0  0  0  0
 22 21  2  0  0  0  0
 23 22  1  0  0  0  0
 24 16  2  0  0  0  0
 25 24  1  0  0  0  0
 26 21  1  0  0  0  0
 27 26  1  0  0  0  0
 27 30  1  0  0  0  0
 28 27  1  0  0  0  0
 29 27  1  0  0  0  0
 32 34  1  0  0  0  0
 32 31  1  0  0  0  0
 32 35  1  0  0  0  0
 33 32  1  0  0  0  0
M  END
