1,5
 OpenBabel05122313053D

 21 22  0  0  0  0  0  0  0  0999 V2000
   -1.6143   -1.9967   -1.2308 N   0  0  0  0  0  2  0  0  0  0  0  0
   -3.7971   -2.0429   -1.6733 N   0  0  0  0  0  0  0  0  0  0  0  0
   -4.7827   -1.7695   -1.6526 H   0  0  0  0  0  0  0  0  0  0  0  0
   -3.0371   -0.2712   -0.2585 N   0  0  0  0  0  0  0  0  0  0  0  0
   -2.0087    0.1718    0.3613 N   0  0  0  0  0  2  0  0  0  0  0  0
   -3.2420   -3.1058   -2.3344 C   0  0  0  0  0  0  0  0  0  0  0  0
   -3.8328   -3.7942   -2.9472 H   0  0  0  0  0  0  0  0  0  0  0  0
   -1.8755   -3.0591   -2.0466 C   0  0  0  0  0  0  0  0  0  0  0  0
   -1.0877   -3.7336   -2.4008 H   0  0  0  0  0  0  0  0  0  0  0  0
   -2.7931   -1.3889   -1.0060 C   0  0  0  0  0  0  0  0  0  0  0  0
   -2.1691    1.3479    1.1112 C   0  0  0  0  0  0  0  0  0  0  0  0
   -1.0133    1.8545    1.7500 C   0  0  0  0  0  0  0  0  0  0  0  0
   -0.0619    1.3124    1.6282 H   0  0  0  0  0  0  0  0  0  0  0  0
   -1.0915    3.0249    2.5110 C   0  0  0  0  0  0  0  0  0  0  0  0
   -0.1921    3.4199    3.0053 H   0  0  0  0  0  0  0  0  0  0  0  0
   -2.3210    3.6924    2.6425 C   0  0  0  0  0  0  0  0  0  0  0  0
   -2.3849    4.6120    3.2431 H   0  0  0  0  0  0  0  0  0  0  0  0
   -3.4747    3.1876    2.0085 C   0  0  0  0  0  0  0  0  0  0  0  0
   -4.4342    3.7147    2.1179 H   0  0  0  0  0  0  0  0  0  0  0  0
   -3.4078    2.0233    1.2427 C   0  0  0  0  0  0  0  0  0  0  0  0
   -4.2935    1.6131    0.7393 H   0  0  0  0  0  0  0  0  0  0  0  0
  1 10  1  0  0  0  0
  2  3  1  0  0  0  0
  2 10  1  0  0  0  0
  4  5  1  0  0  0  0
  5 11  1  0  0  0  0
  6  8  2  0  0  0  0
  6  2  1  0  0  0  0
  7  6  1  0  0  0  0
  8  1  1  0  0  0  0
  9  8  1  0  0  0  0
 10  4  2  0  0  0  0
 11 20  2  0  0  0  0
 11 12  1  0  0  0  0
 12 14  2  0  0  0  0
 13 12  1  0  0  0  0
 14 16  1  0  0  0  0
 14 15  1  0  0  0  0
 16 17  1  0  0  0  0
 18 19  1  0  0  0  0
 18 16  2  0  0  0  0
 20 18  1  0  0  0  0
 21 20  1  0  0  0  0
M  END
