1,3
 OpenBabel05122313053D

 32 33  0  0  1  0  0  0  0  0999 V2000
   -1.7969    1.1726   -1.2428 N   0  0  0  0  0  2  0  0  0  0  0  0
   -3.1402   -1.4813    0.9122 N   0  0  0  0  0  0  0  0  0  0  0  0
   -1.2091   -0.3154    0.9321 N   0  0  0  0  0  2  0  0  0  0  0  0
   -4.2916   -1.8470    0.5972 O   0  0  0  0  0  1  0  0  0  0  0  0
   -2.0214    1.9809   -2.2890 C   0  0  0  0  0  3  0  0  0  0  0  0
   -1.2053    2.6810   -2.5325 H   0  0  0  0  0  0  0  0  0  0  0  0
   -3.2253    1.9435   -3.0125 C   0  0  0  0  0  0  0  0  0  0  0  0
   -3.3748    2.6243   -3.8625 H   0  0  0  0  0  0  0  0  0  0  0  0
   -4.2170    1.0336   -2.6229 C   0  0  0  0  0  0  0  0  0  0  0  0
   -5.1715    0.9794   -3.1671 H   0  0  0  0  0  0  0  0  0  0  0  0
   -3.9900    0.1917   -1.5227 C   0  0  0  0  0  0  0  0  0  0  0  0
   -4.7385   -0.5296   -1.1714 H   0  0  0  0  0  0  0  0  0  0  0  0
   -2.7585    0.2976   -0.8532 C   0  0  0  0  0  0  0  0  0  0  0  0
   -2.3670   -0.4965    0.3226 C   0  0  2  0  0  3  0  0  0  0  0  0
   -2.3150   -2.1779    1.9787 C   0  0  0  0  0  0  0  0  0  0  0  0
   -1.1850   -1.1001    2.1903 C   0  0  0  0  0  0  0  0  0  0  0  0
   -1.8197   -3.4775    1.3183 C   0  0  0  0  0  0  0  0  0  0  0  0
   -2.6958   -4.0650    0.9822 H   0  0  0  0  0  0  0  0  0  0  0  0
   -1.2470   -4.0862    2.0426 H   0  0  0  0  0  0  0  0  0  0  0  0
   -1.1758   -3.2752    0.4401 H   0  0  0  0  0  0  0  0  0  0  0  0
   -3.1983   -2.4939    3.1798 C   0  0  0  0  0  0  0  0  0  0  0  0
   -4.0053   -3.1866    2.8746 H   0  0  0  0  0  0  0  0  0  0  0  0
   -3.6677   -1.5900    3.6076 H   0  0  0  0  0  0  0  0  0  0  0  0
   -2.5961   -2.9874    3.9668 H   0  0  0  0  0  0  0  0  0  0  0  0
   -1.5188   -0.0975    3.3159 C   0  0  0  0  0  0  0  0  0  0  0  0
   -0.7812    0.7275    3.2973 H   0  0  0  0  0  0  0  0  0  0  0  0
   -1.4721   -0.5880    4.3072 H   0  0  0  0  0  0  0  0  0  0  0  0
   -2.5236    0.3475    3.1827 H   0  0  0  0  0  0  0  0  0  0  0  0
    0.1987   -1.7046    2.4408 C   0  0  0  0  0  0  0  0  0  0  0  0
    0.9271   -0.9025    2.6592 H   0  0  0  0  0  0  0  0  0  0  0  0
    0.5671   -2.2771    1.5703 H   0  0  0  0  0  0  0  0  0  0  0  0
    0.1686   -2.3787    3.3190 H   0  0  0  0  0  0  0  0  0  0  0  0
  1 13  1  0  0  0  0
  2 15  1  0  0  0  0
  3 16  1  0  0  0  0
  4  2  1  0  0  0  0
  5  1  1  0  0  0  0
  6  5  1  0  0  0  0
  7  9  2  0  0  0  0
  7  5  1  0  0  0  0
  8  7  1  0  0  0  0
  9 11  1  0  0  0  0
 10  9  1  0  0  0  0
 11 12  1  0  0  0  0
 11 13  2  0  0  0  0
 14 13  1  1  0  0  0
 14  2  1  0  0  0  0
 14  3  1  0  0  0  0
 15 16  1  0  0  0  0
 15 21  1  0  0  0  0
 16 29  1  0  0  0  0
 16 25  1  0  0  0  0
 17 15  1  0  0  0  0
 17 19  1  0  0  0  0
 18 17  1  0  0  0  0
 20 17  1  0  0  0  0
 21 23  1  0  0  0  0
 21 24  1  0  0  0  0
 22 21  1  0  0  0  0
 25 27  1  0  0  0  0
 26 25  1  0  0  0  0
 28 25  1  0  0  0  0
 29 30  1  0  0  0  0
 29 32  1  0  0  0  0
 31 29  1  0  0  0  0
M  END
