1,2
 OpenBabel05122313053D

 26 27  0  0  0  0  0  0  0  0999 V2000
    0.9739    1.5640    1.5887 N   0  0  0  0  0  2  0  0  0  0  0  0
   -1.1346    1.4916   -0.0520 N   0  0  0  0  0  2  0  0  0  0  0  0
   -5.5467    0.3090   -3.3056 N   0  0  0  0  0  0  0  0  0  0  0  0
   -5.6547   -0.6188   -3.7090 H   0  0  0  0  0  0  0  0  0  0  0  0
   -6.2442    1.0116   -3.5404 H   0  0  0  0  0  0  0  0  0  0  0  0
    2.0828    1.5672    2.3516 C   0  0  0  0  0  3  0  0  0  0  0  0
    2.4975    0.5797    2.6100 H   0  0  0  0  0  0  0  0  0  0  0  0
    2.6859    2.7461    2.8077 C   0  0  0  0  0  0  0  0  0  0  0  0
    3.5851    2.6938    3.4375 H   0  0  0  0  0  0  0  0  0  0  0  0
    2.1128    3.9803    2.4511 C   0  0  0  0  0  0  0  0  0  0  0  0
    2.5589    4.9250    2.7952 H   0  0  0  0  0  0  0  0  0  0  0  0
    0.9682    3.9881    1.6492 C   0  0  0  0  0  0  0  0  0  0  0  0
    0.4945    4.9320    1.3411 H   0  0  0  0  0  0  0  0  0  0  0  0
    0.4162    2.7605    1.2235 C   0  0  0  0  0  0  0  0  0  0  0  0
   -0.7553    2.6759    0.3702 C   0  0  0  0  0  3  0  0  0  0  0  0
   -1.2741    3.6108    0.0899 H   0  0  0  0  0  0  0  0  0  0  0  0
   -2.2571    1.2617   -0.8483 C   0  0  0  0  0  0  0  0  0  0  0  0
   -3.2466    2.2331   -1.1538 C   0  0  0  0  0  0  0  0  0  0  0  0
   -3.1798    3.2488   -0.7380 H   0  0  0  0  0  0  0  0  0  0  0  0
   -4.3309    1.9182   -1.9620 C   0  0  0  0  0  0  0  0  0  0  0  0
   -5.0921    2.6839   -2.1768 H   0  0  0  0  0  0  0  0  0  0  0  0
   -4.4823    0.6115   -2.5129 C   0  0  0  0  0  0  0  0  0  0  0  0
   -3.4948   -0.3646   -2.2001 C   0  0  0  0  0  0  0  0  0  0  0  0
   -3.5890   -1.3819   -2.6093 H   0  0  0  0  0  0  0  0  0  0  0  0
   -2.4183   -0.0412   -1.3850 C   0  0  0  0  0  0  0  0  0  0  0  0
   -1.6509   -0.7937   -1.1438 H   0  0  0  0  0  0  0  0  0  0  0  0
  1  6  1  0  0  0  0
  2 15  1  0  0  0  0
  3 22  1  0  0  0  0
  4  3  1  0  0  0  0
  5  3  1  0  0  0  0
  6  7  1  0  0  0  0
  6  8  1  0  0  0  0
  8  9  1  0  0  0  0
 10 11  1  0  0  0  0
 10  8  2  0  0  0  0
 12 10  1  0  0  0  0
 13 12  1  0  0  0  0
 14  1  1  0  0  0  0
 14 12  2  0  0  0  0
 15 14  1  0  0  0  0
 16 15  1  0  0  0  0
 17  2  1  0  0  0  0
 18 17  1  0  0  0  0
 18 19  1  0  0  0  0
 20 18  2  0  0  0  0
 21 20  1  0  0  0  0
 22 23  2  0  0  0  0
 22 20  1  0  0  0  0
 23 25  1  0  0  0  0
 24 23  1  0  0  0  0
 25 26  1  0  0  0  0
 25 17  2  0  0  0  0
M  END
