2,4
 OpenBabel05122313053D

 44 47  0  0  1  0  0  0  0  0999 V2000
    1.9399    0.0393    2.4840 O   0  0  0  0  0  0  0  0  0  0  0  0
   -1.2875   -0.8411    1.1083 N   0  0  0  0  0  2  0  0  0  0  0  0
   -0.9525    0.5441    2.8806 O   0  0  0  0  0  0  0  0  0  0  0  0
    1.2972   -1.1958    0.6916 N   0  0  0  0  0  2  0  0  0  0  0  0
   -3.0498    1.2677   -0.3306 C   0  0  0  0  0  0  0  0  0  0  0  0
    0.9717   -0.4532    1.7043 C   0  0  0  0  0  0  0  0  0  0  0  0
   -3.5493    0.0373    0.3897 C   0  0  0  0  0  0  0  0  0  0  0  0
   -3.6779   -0.7950   -0.3275 H   0  0  0  0  0  0  0  0  0  0  0  0
   -4.5487    0.2375    0.8299 H   0  0  0  0  0  0  0  0  0  0  0  0
   -2.3986    0.5403    2.6779 C   0  0  0  0  0  0  0  0  0  0  0  0
   -2.6918    1.5717    2.3952 H   0  0  0  0  0  0  0  0  0  0  0  0
   -2.8735    0.2676    3.6392 H   0  0  0  0  0  0  0  0  0  0  0  0
    2.7605   -1.2238    0.6140 C   0  0  1  0  0  0  0  0  0  0  0  0
    3.0873   -2.2822    0.5654 H   0  0  0  0  0  0  0  0  0  0  0  0
   -0.4562   -0.2302    1.9117 C   0  0  0  0  0  0  0  0  0  0  0  0
   -2.6531   -0.4838    1.5352 C   0  0  2  0  0  0  0  0  0  0  0  0
   -3.1268   -1.4106    1.9260 H   0  0  0  0  0  0  0  0  0  0  0  0
   -3.5277    2.5512    0.0073 C   0  0  0  0  0  0  0  0  0  0  0  0
   -4.2875    2.6559    0.7993 H   0  0  0  0  0  0  0  0  0  0  0  0
    3.0292    0.9758   -0.6573 C   0  0  0  0  0  0  0  0  0  0  0  0
   -2.1047    1.1559   -1.3735 C   0  0  0  0  0  0  0  0  0  0  0  0
   -1.7174    0.1616   -1.6491 H   0  0  0  0  0  0  0  0  0  0  0  0
    4.1063    1.8507   -0.4002 C   0  0  0  0  0  0  0  0  0  0  0  0
    5.1217    1.4357   -0.2906 H   0  0  0  0  0  0  0  0  0  0  0  0
    1.7408    1.5316   -0.8206 C   0  0  0  0  0  0  0  0  0  0  0  0
    0.8898    0.8686   -1.0416 H   0  0  0  0  0  0  0  0  0  0  0  0
   -2.1433    3.5673   -1.7127 C   0  0  0  0  0  0  0  0  0  0  0  0
   -1.7967    4.4590   -2.2570 H   0  0  0  0  0  0  0  0  0  0  0  0
   -3.0760    3.6938   -0.6722 C   0  0  0  0  0  0  0  0  0  0  0  0
   -3.4664    4.6852   -0.3963 H   0  0  0  0  0  0  0  0  0  0  0  0
   -1.6620    2.2944   -2.0621 C   0  0  0  0  0  0  0  0  0  0  0  0
   -0.9328    2.1840   -2.8790 H   0  0  0  0  0  0  0  0  0  0  0  0
    3.9073    3.2359   -0.2947 C   0  0  0  0  0  0  0  0  0  0  0  0
    4.7639    3.8992   -0.0994 H   0  0  0  0  0  0  0  0  0  0  0  0
    2.6183    3.7709   -0.4376 C   0  0  0  0  0  0  0  0  0  0  0  0
    2.4558    4.8558   -0.3481 H   0  0  0  0  0  0  0  0  0  0  0  0
    1.5376    2.9147   -0.7030 C   0  0  0  0  0  0  0  0  0  0  0  0
    0.5230    3.3227   -0.8226 H   0  0  0  0  0  0  0  0  0  0  0  0
    3.2449   -0.5171   -0.6794 C   0  0  0  0  0  0  0  0  0  0  0  0
    4.3237   -0.7437   -0.8049 H   0  0  0  0  0  0  0  0  0  0  0  0
    2.7012   -1.0089   -1.5131 H   0  0  0  0  0  0  0  0  0  0  0  0
    3.1776   -0.5421    1.9504 C   0  0  0  0  0  0  0  0  0  0  0  0
    3.5548   -1.2596    2.7065 H   0  0  0  0  0  0  0  0  0  0  0  0
    3.8996    0.2864    1.8219 H   0  0  0  0  0  0  0  0  0  0  0  0
  2 16  1  0  0  0  0
  2 15  1  0  0  0  0
  4  6  1  0  0  0  0
  5 18  1  0  0  0  0
  5  7  1  0  0  0  0
  6 15  2  0  0  0  0
  6  1  1  0  0  0  0
  7  9  1  0  0  0  0
  7 16  1  0  0  0  0
  8  7  1  0  0  0  0
 10  3  1  0  0  0  0
 10 12  1  0  0  0  0
 11 10  1  0  0  0  0
 13 14  1  6  0  0  0
 13  4  1  0  0  0  0
 13 42  1  0  0  0  0
 15  3  1  0  0  0  0
 16 17  1  1  0  0  0
 16 10  1  0  0  0  0
 18 19  1  0  0  0  0
 20 23  1  0  0  0  0
 21  5  2  0  0  0  0
 22 21  1  0  0  0  0
 23 33  2  0  0  0  0
 23 24  1  0  0  0  0
 25 37  1  0  0  0  0
 25 20  2  0  0  0  0
 26 25  1  0  0  0  0
 27 29  1  0  0  0  0
 28 27  1  0  0  0  0
 29 30  1  0  0  0  0
 29 18  2  0  0  0  0
 31 27  2  0  0  0  0
 31 21  1  0  0  0  0
 32 31  1  0  0  0  0
 33 34  1  0  0  0  0
 35 36  1  0  0  0  0
 35 33  1  0  0  0  0
 37 35  2  0  0  0  0
 38 37  1  0  0  0  0
 39 20  1  0  0  0  0
 39 13  1  0  0  0  0
 40 39  1  0  0  0  0
 41 39  1  0  0  0  0
 42  1  1  0  0  0  0
 42 43  1  0  0  0  0
 44 42  1  0  0  0  0
M  END
