1,10
 OpenBabel05122313053D

 42 44  0  0  1  0  0  0  0  0999 V2000
    1.0716   -0.8074    1.4185 N   0  0  0  0  0  0  0  0  0  0  0  0
   -0.4168   -0.9775    1.2526 C   0  0  1  0  0  0  0  0  0  0  0  0
   -0.7927   -1.7263    1.9840 H   0  0  0  0  0  0  0  0  0  0  0  0
   -0.6656    0.4551    1.8386 C   0  0  1  0  0  0  0  0  0  0  0  0
   -1.3816    0.3976    2.6796 H   0  0  0  0  0  0  0  0  0  0  0  0
    0.8119    0.3629    2.3493 C   0  0  2  0  0  0  0  0  0  0  0  0
    0.7774   -0.0606    3.3796 H   0  0  0  0  0  0  0  0  0  0  0  0
   -0.8388   -1.4446   -0.1488 C   0  0  2  0  0  0  0  0  0  0  0  0
   -0.4680   -2.4882   -0.2366 H   0  0  0  0  0  0  0  0  0  0  0  0
   -0.0902   -0.6714   -1.1615 N   0  0  0  0  0  0  0  0  0  0  0  0
   -0.4979    0.2655   -1.3051 H   0  0  0  0  0  0  0  0  0  0  0  0
   -0.0640   -1.1342   -2.0823 H   0  0  0  0  0  0  0  0  0  0  0  0
    1.8082   -1.9407    1.9971 C   0  0  0  0  0  0  0  0  0  0  0  0
    1.3902   -2.2116    2.9939 H   0  0  0  0  0  0  0  0  0  0  0  0
    2.8752   -1.6555    2.0755 H   0  0  0  0  0  0  0  0  0  0  0  0
    1.7400   -2.8102    1.3154 H   0  0  0  0  0  0  0  0  0  0  0  0
    1.7714    1.5306    2.3433 C   0  0  0  0  0  0  0  0  0  0  0  0
    2.7814    1.1949    2.6455 H   0  0  0  0  0  0  0  0  0  0  0  0
    1.4124    2.2965    3.0605 H   0  0  0  0  0  0  0  0  0  0  0  0
    1.8790    1.9946    1.3480 H   0  0  0  0  0  0  0  0  0  0  0  0
   -1.1349    1.5905    0.9547 C   0  0  0  0  0  0  0  0  0  0  0  0
   -0.3645    2.1791   -0.0745 C   0  0  0  0  0  0  0  0  0  0  0  0
    0.6667    1.8352   -0.2642 H   0  0  0  0  0  0  0  0  0  0  0  0
   -0.9029    3.1825   -0.8960 C   0  0  0  0  0  0  0  0  0  0  0  0
   -0.2793    3.6122   -1.6945 H   0  0  0  0  0  0  0  0  0  0  0  0
   -2.2172    3.6346   -0.6983 C   0  0  0  0  0  0  0  0  0  0  0  0
   -2.6367    4.4216   -1.3430 H   0  0  0  0  0  0  0  0  0  0  0  0
   -2.9850    3.0826    0.3387 C   0  0  0  0  0  0  0  0  0  0  0  0
   -4.0134    3.4332    0.5140 H   0  0  0  0  0  0  0  0  0  0  0  0
   -2.4460    2.0762    1.1523 C   0  0  0  0  0  0  0  0  0  0  0  0
   -3.0622    1.6396    1.9542 H   0  0  0  0  0  0  0  0  0  0  0  0
   -2.3505   -1.4657   -0.3215 C   0  0  0  0  0  0  0  0  0  0  0  0
   -3.0531   -0.4192   -0.9478 C   0  0  0  0  0  0  0  0  0  0  0  0
   -2.5200    0.4485   -1.3642 H   0  0  0  0  0  0  0  0  0  0  0  0
   -4.4526   -0.4585   -1.0435 C   0  0  0  0  0  0  0  0  0  0  0  0
   -4.9835    0.3701   -1.5358 H   0  0  0  0  0  0  0  0  0  0  0  0
   -5.1691   -1.5405   -0.5115 C   0  0  0  0  0  0  0  0  0  0  0  0
   -6.2664   -1.5692   -0.5878 H   0  0  0  0  0  0  0  0  0  0  0  0
   -4.4771   -2.5914    0.1121 C   0  0  0  0  0  0  0  0  0  0  0  0
   -5.0287   -3.4502    0.5232 H   0  0  0  0  0  0  0  0  0  0  0  0
   -3.0788   -2.5538    0.2012 C   0  0  0  0  0  0  0  0  0  0  0  0
   -2.5399   -3.3883    0.6788 H   0  0  0  0  0  0  0  0  0  0  0  0
  1 13  1  0  0  0  0
  1  6  1  0  0  0  0
  2  1  1  0  0  0  0
  2  4  1  0  0  0  0
  2  3  1  1  0  0  0
  4  6  1  0  0  0  0
  4  5  1  1  0  0  0
  6  7  1  1  0  0  0
  8  9  1  6  0  0  0
  8  2  1  0  0  0  0
 10  8  1  0  0  0  0
 11 10  1  0  0  0  0
 12 10  1  0  0  0  0
 13 15  1  0  0  0  0
 13 14  1  0  0  0  0
 16 13  1  0  0  0  0
 17  6  1  0  0  0  0
 17 18  1  0  0  0  0
 17 19  1  0  0  0  0
 20 17  1  0  0  0  0
 21 30  1  0  0  0  0
 21  4  1  0  0  0  0
 22 21  2  0  0  0  0
 23 22  1  0  0  0  0
 24 26  2  0  0  0  0
 24 22  1  0  0  0  0
 25 24  1  0  0  0  0
 26 28  1  0  0  0  0
 27 26  1  0  0  0  0
 28 29  1  0  0  0  0
 28 30  2  0  0  0  0
 30 31  1  0  0  0  0
 32  8  1  0  0  0  0
 32 41  1  0  0  0  0
 33 32  2  0  0  0  0
 34 33  1  0  0  0  0
 35 33  1  0  0  0  0
 35 37  2  0  0  0  0
 36 35  1  0  0  0  0
 37 39  1  0  0  0  0
 38 37  1  0  0  0  0
 39 41  2  0  0  0  0
 39 40  1  0  0  0  0
 41 42  1  0  0  0  0
M  END
