1,10
 OpenBabel05122313053D

 48 50  0  0  1  0  0  0  0  0999 V2000
   -0.3048   -0.9112    1.5460 N   0  0  0  0  0  0  0  0  0  0  0  0
   -0.5740    0.5220    1.8869 C   0  0  2  0  0  0  0  0  0  0  0  0
   -0.3587    0.6981    2.9651 H   0  0  0  0  0  0  0  0  0  0  0  0
   -2.1173    0.2705    1.7225 C   0  0  2  0  0  0  0  0  0  0  0  0
   -2.6689    0.6304    2.6136 H   0  0  0  0  0  0  0  0  0  0  0  0
   -1.7688   -1.2449    1.8119 C   0  0  2  0  0  0  0  0  0  0  0  0
   -2.1552   -1.8877    0.9992 H   0  0  0  0  0  0  0  0  0  0  0  0
    0.2715    1.5061    1.0867 C   0  0  1  0  0  0  0  0  0  0  0  0
    1.3154    1.3426    1.4311 H   0  0  0  0  0  0  0  0  0  0  0  0
    0.2901    1.1310   -0.3595 N   0  0  0  0  0  0  0  0  0  0  0  0
   -0.5915    1.4398   -0.8015 H   0  0  0  0  0  0  0  0  0  0  0  0
    0.7591   -1.6104    2.2781 C   0  0  0  0  0  0  0  0  0  0  0  0
    0.6148   -1.5393    3.3782 H   0  0  0  0  0  0  0  0  0  0  0  0
    1.7328   -1.1600    2.0045 H   0  0  0  0  0  0  0  0  0  0  0  0
    0.7617   -2.6673    1.9502 H   0  0  0  0  0  0  0  0  0  0  0  0
   -2.0636   -1.8900    3.1559 C   0  0  0  0  0  0  0  0  0  0  0  0
   -1.6328   -2.9085    3.2148 H   0  0  0  0  0  0  0  0  0  0  0  0
   -3.1623   -1.9848    3.2661 H   0  0  0  0  0  0  0  0  0  0  0  0
   -1.6904   -1.2941    4.0138 H   0  0  0  0  0  0  0  0  0  0  0  0
   -0.0984    2.9692    1.3386 C   0  0  0  0  0  0  0  0  0  0  0  0
    0.6455    3.6551    0.8904 H   0  0  0  0  0  0  0  0  0  0  0  0
   -0.1245    3.1795    2.4263 H   0  0  0  0  0  0  0  0  0  0  0  0
   -1.0939    3.2102    0.9176 H   0  0  0  0  0  0  0  0  0  0  0  0
   -2.8169    0.7931    0.4861 C   0  0  0  0  0  0  0  0  0  0  0  0
   -2.8758    0.0766   -0.7284 C   0  0  0  0  0  0  0  0  0  0  0  0
   -2.4383   -0.9307   -0.8081 H   0  0  0  0  0  0  0  0  0  0  0  0
   -3.4630    0.6478   -1.8697 C   0  0  0  0  0  0  0  0  0  0  0  0
   -3.4683    0.0759   -2.8093 H   0  0  0  0  0  0  0  0  0  0  0  0
   -4.0258    1.9314   -1.8124 C   0  0  0  0  0  0  0  0  0  0  0  0
   -4.4838    2.3765   -2.7086 H   0  0  0  0  0  0  0  0  0  0  0  0
   -4.0154    2.6380   -0.5984 C   0  0  0  0  0  0  0  0  0  0  0  0
   -4.4765    3.6353   -0.5335 H   0  0  0  0  0  0  0  0  0  0  0  0
   -3.4192    2.0700    0.5369 C   0  0  0  0  0  0  0  0  0  0  0  0
   -3.4226    2.6260    1.4887 H   0  0  0  0  0  0  0  0  0  0  0  0
    1.4264    1.7390   -1.1252 C   0  0  0  0  0  0  0  0  0  0  0  0
    1.3096    1.3566   -2.1595 H   0  0  0  0  0  0  0  0  0  0  0  0
    1.3199    2.8448   -1.1327 H   0  0  0  0  0  0  0  0  0  0  0  0
    2.7698    1.3478   -0.5575 C   0  0  0  0  0  0  0  0  0  0  0  0
    3.5175    2.2537    0.2214 C   0  0  0  0  0  0  0  0  0  0  0  0
    3.1393    3.2777    0.3757 H   0  0  0  0  0  0  0  0  0  0  0  0
    4.7389    1.8692    0.7977 C   0  0  0  0  0  0  0  0  0  0  0  0
    5.3118    2.5891    1.4018 H   0  0  0  0  0  0  0  0  0  0  0  0
    5.2257    0.5678    0.6001 C   0  0  0  0  0  0  0  0  0  0  0  0
    6.1815    0.2618    1.0523 H   0  0  0  0  0  0  0  0  0  0  0  0
    4.4961   -0.3375   -0.1890 C   0  0  0  0  0  0  0  0  0  0  0  0
    4.8814   -1.3535   -0.3643 H   0  0  0  0  0  0  0  0  0  0  0  0
    3.2787    0.0480   -0.7694 C   0  0  0  0  0  0  0  0  0  0  0  0
    2.7111   -0.6506   -1.4054 H   0  0  0  0  0  0  0  0  0  0  0  0
  1  6  1  0  0  0  0
  1  2  1  0  0  0  0
  1 12  1  0  0  0  0
  2  3  1  1  0  0  0
  4  6  1  0  0  0  0
  4  2  1  0  0  0  0
  4  5  1  1  0  0  0
  6  7  1  6  0  0  0
  6 16  1  0  0  0  0
  8 20  1  0  0  0  0
  8  9  1  1  0  0  0
  8  2  1  0  0  0  0
 10  8  1  0  0  0  0
 11 10  1  0  0  0  0
 12 13  1  0  0  0  0
 14 12  1  0  0  0  0
 15 12  1  0  0  0  0
 16 17  1  0  0  0  0
 16 18  1  0  0  0  0
 16 19  1  0  0  0  0
 20 22  1  0  0  0  0
 21 20  1  0  0  0  0
 23 20  1  0  0  0  0
 24 33  1  0  0  0  0
 24  4  1  0  0  0  0
 25 24  2  0  0  0  0
 26 25  1  0  0  0  0
 27 29  2  0  0  0  0
 27 25  1  0  0  0  0
 28 27  1  0  0  0  0
 29 31  1  0  0  0  0
 30 29  1  0  0  0  0
 31 32  1  0  0  0  0
 31 33  2  0  0  0  0
 33 34  1  0  0  0  0
 35 38  1  0  0  0  0
 35 10  1  0  0  0  0
 36 35  1  0  0  0  0
 37 35  1  0  0  0  0
 38 39  1  0  0  0  0
 39 40  1  0  0  0  0
 39 41  2  0  0  0  0
 41 42  1  0  0  0  0
 43 41  1  0  0  0  0
 43 44  1  0  0  0  0
 45 43  2  0  0  0  0
 46 45  1  0  0  0  0
 47 38  2  0  0  0  0
 47 45  1  0  0  0  0
 48 47  1  0  0  0  0
M  END
