1,4
 OpenBabel05122313053D

 18 17  0  0  1  0  0  0  0  0999 V2000
    0.9688   -1.2408   -1.1588 N   0  0  0  0  0  0  0  0  0  0  0  0
    2.4342   -1.2312   -0.8058 C   0  0  2  0  0  0  0  0  0  0  0  0
    2.5024   -1.0425    0.7238 C   0  0  2  0  0  0  0  0  0  0  0  0
    1.6496    0.1336    1.0424 N   0  0  0  0  0  0  0  0  0  0  0  0
    3.1536   -0.1607   -1.6236 C   0  0  0  0  0  0  0  0  0  0  0  0
    3.9109   -0.9371    1.2988 C   0  0  0  0  0  0  0  0  0  0  0  0
    0.8722   -0.9752   -2.1507 H   0  0  0  0  0  0  0  0  0  0  0  0
    0.6075   -2.2053   -1.0969 H   0  0  0  0  0  0  0  0  0  0  0  0
    2.8740   -2.2239   -1.0438 H   0  0  0  0  0  0  0  0  0  0  0  0
    1.9970   -1.9205    1.1859 H   0  0  0  0  0  0  0  0  0  0  0  0
    1.5150    0.2499    2.0582 H   0  0  0  0  0  0  0  0  0  0  0  0
    2.1065    1.0048    0.7165 H   0  0  0  0  0  0  0  0  0  0  0  0
    4.2275   -0.1214   -1.3628 H   0  0  0  0  0  0  0  0  0  0  0  0
    2.6983    0.8399   -1.4801 H   0  0  0  0  0  0  0  0  0  0  0  0
    3.0960   -0.4049   -2.7036 H   0  0  0  0  0  0  0  0  0  0  0  0
    4.5175   -1.8203    1.0170 H   0  0  0  0  0  0  0  0  0  0  0  0
    3.8828   -0.8920    2.4053 H   0  0  0  0  0  0  0  0  0  0  0  0
    4.4340   -0.0315    0.9325 H   0  0  0  0  0  0  0  0  0  0  0  0
  1  8  1  0  0  0  0
  1  2  1  0  0  0  0
  2  9  1  6  0  0  0
  2  3  1  0  0  0  0
  3  4  1  0  0  0  0
  3 10  1  1  0  0  0
  3  6  1  0  0  0  0
  4 11  1  0  0  0  0
  5 14  1  0  0  0  0
  5 13  1  0  0  0  0
  5  2  1  0  0  0  0
  6 17  1  0  0  0  0
  7  1  1  0  0  0  0
 12  4  1  0  0  0  0
 15  5  1  0  0  0  0
 16  6  1  0  0  0  0
 18  6  1  0  0  0  0
M  END
