1,3
 OpenBabel05122313053D

 22 23  0  0  0  0  0  0  0  0999 V2000
    0.6424   -1.2925    0.0003 N   0  0  0  0  0  2  0  0  0  0  0  0
    2.8039   -1.7335    0.0001 N   0  0  0  0  0  0  0  0  0  0  0  0
    0.6424    1.2925   -0.0002 N   0  0  0  0  0  2  0  0  0  0  0  0
    2.8039    1.7335   -0.0000 N   0  0  0  0  0  0  0  0  0  0  0  0
    0.7624   -2.6477    0.0005 C   0  0  0  0  0  0  0  0  0  0  0  0
   -0.1307   -3.2829    0.0006 H   0  0  0  0  0  0  0  0  0  0  0  0
    2.1138   -2.9394    0.0002 C   0  0  0  0  0  0  0  0  0  0  0  0
    2.6478   -3.8942    0.0002 H   0  0  0  0  0  0  0  0  0  0  0  0
    1.8703   -0.7269    0.0001 C   0  0  0  0  0  0  0  0  0  0  0  0
    1.8703    0.7269   -0.0000 C   0  0  0  0  0  0  0  0  0  0  0  0
    0.7624    2.6477   -0.0004 C   0  0  0  0  0  0  0  0  0  0  0  0
   -0.1307    3.2829   -0.0005 H   0  0  0  0  0  0  0  0  0  0  0  0
    2.1138    2.9394   -0.0003 C   0  0  0  0  0  0  0  0  0  0  0  0
    2.6478    3.8942   -0.0003 H   0  0  0  0  0  0  0  0  0  0  0  0
    4.2543   -1.6390   -0.0003 C   0  0  0  0  0  0  0  0  0  0  0  0
    4.6209   -1.1192   -0.9058 H   0  0  0  0  0  0  0  0  0  0  0  0
    4.6681   -2.6627   -0.0009 H   0  0  0  0  0  0  0  0  0  0  0  0
    4.6215   -1.1199    0.9052 H   0  0  0  0  0  0  0  0  0  0  0  0
    4.2543    1.6390    0.0003 C   0  0  0  0  0  0  0  0  0  0  0  0
    4.6209    1.1192    0.9057 H   0  0  0  0  0  0  0  0  0  0  0  0
    4.6681    2.6627    0.0009 H   0  0  0  0  0  0  0  0  0  0  0  0
    4.6215    1.1199   -0.9053 H   0  0  0  0  0  0  0  0  0  0  0  0
  1  5  1  0  0  0  0
  2  9  1  0  0  0  0
  2  7  1  0  0  0  0
  3 10  1  0  0  0  0
  4 19  1  0  0  0  0
  5  6  1  0  0  0  0
  7  5  2  0  0  0  0
  8  7  1  0  0  0  0
  9  1  1  0  0  0  0
 10  4  1  0  0  0  0
 10  9  2  0  0  0  0
 11 13  2  0  0  0  0
 11  3  1  0  0  0  0
 12 11  1  0  0  0  0
 13  4  1  0  0  0  0
 14 13  1  0  0  0  0
 15  2  1  0  0  0  0
 15 18  1  0  0  0  0
 16 15  1  0  0  0  0
 17 15  1  0  0  0  0
 19 21  1  0  0  0  0
 19 20  1  0  0  0  0
 22 19  1  0  0  0  0
M  END
