4,5
 OpenBabel05122313053D

 28 29  0  0  0  0  0  0  0  0999 V2000
   -0.5954    2.8845   -0.5029 S   0  0  0  0  0  0  0  0  0  0  0  0
    0.0807    3.4191    0.7114 O   0  0  0  0  0  0  0  0  0  0  0  0
   -0.8211    3.7875   -1.6628 O   0  0  0  0  0  0  0  0  0  0  0  0
    0.9100   -0.2544   -2.0875 N   0  0  0  0  0  2  0  0  0  0  0  0
    0.2605    1.5317   -0.9092 N   0  0  0  0  0  2  0  0  0  0  0  0
    0.9095   -1.1036   -3.1251 C   0  0  0  0  0  3  0  0  0  0  0  0
    1.5275   -2.0088   -3.0107 H   0  0  0  0  0  0  0  0  0  0  0  0
    0.1457   -0.8760   -4.2744 C   0  0  0  0  0  0  0  0  0  0  0  0
    0.1533   -1.5970   -5.1029 H   0  0  0  0  0  0  0  0  0  0  0  0
   -0.6272    0.3029   -4.3241 C   0  0  0  0  0  0  0  0  0  0  0  0
   -1.2336    0.5239   -5.2168 H   0  0  0  0  0  0  0  0  0  0  0  0
   -0.6372    1.1977   -3.2536 C   0  0  0  0  0  0  0  0  0  0  0  0
   -1.2096    2.1332   -3.2733 H   0  0  0  0  0  0  0  0  0  0  0  0
    0.1434    0.8806   -2.1067 C   0  0  0  0  0  0  0  0  0  0  0  0
   -2.2117    2.2915    0.0302 C   0  0  0  0  0  0  0  0  0  0  0  0
   -3.3622    2.7088   -0.6495 C   0  0  0  0  0  0  0  0  0  0  0  0
   -3.2605    3.3817   -1.5130 H   0  0  0  0  0  0  0  0  0  0  0  0
   -4.6179    2.2784   -0.1912 C   0  0  0  0  0  0  0  0  0  0  0  0
   -5.5283    2.6169   -0.7115 H   0  0  0  0  0  0  0  0  0  0  0  0
   -4.7374    1.4351    0.9308 C   0  0  0  0  0  0  0  0  0  0  0  0
   -3.5558    1.0200    1.5847 C   0  0  0  0  0  0  0  0  0  0  0  0
   -3.6202    0.3503    2.4565 H   0  0  0  0  0  0  0  0  0  0  0  0
   -2.3003    1.4493    1.1504 C   0  0  0  0  0  0  0  0  0  0  0  0
   -1.3907    1.1458    1.6815 H   0  0  0  0  0  0  0  0  0  0  0  0
   -6.0827    0.9954    1.4466 C   0  0  0  0  0  0  0  0  0  0  0  0
   -6.1210   -0.1068    1.5653 H   0  0  0  0  0  0  0  0  0  0  0  0
   -6.9045    1.2996    0.7704 H   0  0  0  0  0  0  0  0  0  0  0  0
   -6.2875    1.4340    2.4461 H   0  0  0  0  0  0  0  0  0  0  0  0
  1 15  1  0  0  0  0
  1  2  2  0  0  0  0
  3  1  2  0  0  0  0
  5  1  1  0  0  0  0
  6  7  1  0  0  0  0
  6  4  1  0  0  0  0
  8  6  1  0  0  0  0
  9  8  1  0  0  0  0
 10  8  2  0  0  0  0
 10 12  1  0  0  0  0
 11 10  1  0  0  0  0
 12 14  2  0  0  0  0
 13 12  1  0  0  0  0
 14  4  1  0  0  0  0
 14  5  1  0  0  0  0
 15 23  1  0  0  0  0
 16 18  1  0  0  0  0
 16 15  2  0  0  0  0
 17 16  1  0  0  0  0
 18 20  2  0  0  0  0
 19 18  1  0  0  0  0
 20 25  1  0  0  0  0
 20 21  1  0  0  0  0
 21 22  1  0  0  0  0
 23 21  2  0  0  0  0
 23 24  1  0  0  0  0
 25 26  1  0  0  0  0
 25 28  1  0  0  0  0
 27 25  1  0  0  0  0
M  END
