1,2
 OpenBabel05122313053D

 33 35  0  0  1  0  0  0  0  0999 V2000
    1.7448    0.6925    0.3940 N   0  0  0  0  0  2  0  0  0  0  0  0
   -0.9993    0.7716    1.0294 N   0  0  0  0  0  2  0  0  0  0  0  0
   -2.3812   -1.2379    2.5423 C   0  0  0  0  0  0  0  0  0  0  0  0
   -3.0854   -1.8807    3.1031 H   0  0  0  0  0  0  0  0  0  0  0  0
   -1.8070   -1.8885    1.8494 H   0  0  0  0  0  0  0  0  0  0  0  0
   -1.6441   -0.8218    3.2582 H   0  0  0  0  0  0  0  0  0  0  0  0
   -3.1142   -0.1522    1.8053 C   0  0  0  0  0  0  0  0  0  0  0  0
   -4.5186   -0.0802    1.8016 C   0  0  0  0  0  0  0  0  0  0  0  0
   -5.0849   -0.8460    2.3544 H   0  0  0  0  0  0  0  0  0  0  0  0
   -5.2065    0.9356    1.1168 C   0  0  0  0  0  0  0  0  0  0  0  0
   -6.3069    0.9544    1.1284 H   0  0  0  0  0  0  0  0  0  0  0  0
   -4.4906    1.9185    0.4159 C   0  0  0  0  0  0  0  0  0  0  0  0
   -5.0184    2.7064   -0.1418 H   0  0  0  0  0  0  0  0  0  0  0  0
   -3.0907    1.8848    0.4083 C   0  0  0  0  0  0  0  0  0  0  0  0
   -2.5158    2.6089   -0.1890 H   0  0  0  0  0  0  0  0  0  0  0  0
   -2.4058    0.8580    1.0964 C   0  0  0  0  0  0  0  0  0  0  0  0
   -0.2580    1.8242    1.1393 C   0  0  0  0  0  3  0  0  0  0  0  0
   -0.6932    2.8011    1.4328 H   0  0  0  0  0  0  0  0  0  0  0  0
    1.1989    1.7920    0.9220 C   0  0  0  0  0  0  0  0  0  0  0  0
    1.9748    2.9319    1.2733 C   0  0  0  0  0  0  0  0  0  0  0  0
    1.4756    3.8163    1.6943 H   0  0  0  0  0  0  0  0  0  0  0  0
    3.3430    2.9008    1.0730 C   0  0  0  0  0  0  0  0  0  0  0  0
    3.9716    3.7661    1.3343 H   0  0  0  0  0  0  0  0  0  0  0  0
    3.9495    1.7420    0.5167 C   0  0  0  0  0  0  0  0  0  0  0  0
    3.0901    0.6292    0.1758 C   0  0  2  0  0  3  0  0  0  0  0  0
    3.6628   -0.5429   -0.4009 C   0  0  0  0  0  0  0  0  0  0  0  0
    3.0064   -1.3883   -0.6645 H   0  0  0  0  0  0  0  0  0  0  0  0
    5.0302   -0.6048   -0.6202 C   0  0  0  0  0  0  0  0  0  0  0  0
    5.4642   -1.5135   -1.0635 H   0  0  0  0  0  0  0  0  0  0  0  0
    5.8789    0.4853   -0.2817 C   0  0  0  0  0  0  0  0  0  0  0  0
    6.9610    0.4101   -0.4662 H   0  0  0  0  0  0  0  0  0  0  0  0
    5.3483    1.6386    0.2753 C   0  0  0  0  0  0  0  0  0  0  0  0
    5.9960    2.4892    0.5372 H   0  0  0  0  0  0  0  0  0  0  0  0
  1 19  1  0  0  0  0
  2 16  1  0  0  0  0
  2 17  1  0  0  0  0
  3  4  1  0  0  0  0
  3  6  1  0  0  0  0
  5  3  1  0  0  0  0
  7  3  1  0  0  0  0
  8  7  1  0  0  0  0
  8  9  1  0  0  0  0
 10 11  1  0  0  0  0
 10  8  2  0  0  0  0
 12 10  1  0  0  0  0
 13 12  1  0  0  0  0
 14 12  2  0  0  0  0
 14 16  1  0  0  0  0
 15 14  1  0  0  0  0
 16  7  2  0  0  0  0
 17 18  1  0  0  0  0
 19 17  1  0  0  0  0
 19 20  2  0  0  0  0
 20 21  1  0  0  0  0
 22 20  1  0  0  0  0
 22 23  1  0  0  0  0
 24 22  2  0  0  0  0
 25 26  1  6  0  0  0
 25  1  1  0  0  0  0
 25 24  1  0  0  0  0
 27 26  1  0  0  0  0
 28 26  2  0  0  0  0
 28 30  1  0  0  0  0
 29 28  1  0  0  0  0
 30 32  2  0  0  0  0
 31 30  1  0  0  0  0
 32 24  1  0  0  0  0
 32 33  1  0  0  0  0
M  END
