1,10
 OpenBabel05122313053D

 24 25  0  0  1  0  0  0  0  0999 V2000
    1.0410    0.7037   -0.0930 N   0  0  0  0  0  2  0  0  0  0  0  0
    2.3942    0.8701   -0.2698 C   0  0  2  0  0  3  0  0  0  0  0  0
    2.9573    2.0840   -0.3142 N   0  0  0  0  0  0  0  0  0  0  0  0
    2.1832    3.1731   -0.1925 C   0  0  0  0  0  0  0  0  0  0  0  0
    2.6961    4.1501   -0.2182 H   0  0  0  0  0  0  0  0  0  0  0  0
    0.7971    3.0940   -0.0519 C   0  0  0  0  0  0  0  0  0  0  0  0
    0.1697    3.9922    0.0177 H   0  0  0  0  0  0  0  0  0  0  0  0
    0.2361    1.8091   -0.0106 C   0  0  0  0  0  0  0  0  0  0  0  0
   -1.1925    1.5144    0.0659 C   0  0  2  0  0  3  0  0  0  0  0  0
   -1.4786    0.1791    0.0203 N   0  0  0  0  0  2  0  0  0  0  0  0
   -2.7950   -0.1806   -0.0770 C   0  0  0  0  0  0  0  0  0  0  0  0
   -3.8092    0.6883    0.0103 N   0  0  0  0  0  0  0  0  0  0  0  0
   -3.5242    1.9960    0.1476 C   0  0  0  0  0  0  0  0  0  0  0  0
   -4.3817    2.6836    0.2453 H   0  0  0  0  0  0  0  0  0  0  0  0
   -2.2132    2.4764    0.1365 C   0  0  0  0  0  0  0  0  0  0  0  0
   -1.9939    3.5514    0.1834 H   0  0  0  0  0  0  0  0  0  0  0  0
    3.2652   -0.3248   -0.4198 C   0  0  0  0  0  0  0  0  0  0  0  0
    2.8693   -0.9836   -1.2215 H   0  0  0  0  0  0  0  0  0  0  0  0
    3.2257   -0.9244    0.5144 H   0  0  0  0  0  0  0  0  0  0  0  0
    4.2957    0.0059   -0.6322 H   0  0  0  0  0  0  0  0  0  0  0  0
   -3.1130   -1.6161   -0.3427 C   0  0  0  0  0  0  0  0  0  0  0  0
   -4.1855   -1.7126   -0.5831 H   0  0  0  0  0  0  0  0  0  0  0  0
   -2.8616   -2.2481    0.5311 H   0  0  0  0  0  0  0  0  0  0  0  0
   -2.4828   -1.9852   -1.1767 H   0  0  0  0  0  0  0  0  0  0  0  0
  1  8  1  0  0  0  0
  2 17  1  6  0  0  0
  2  1  1  0  0  0  0
  3  2  1  0  0  0  0
  3  4  2  0  0  0  0
  4  6  1  0  0  0  0
  5  4  1  0  0  0  0
  6  8  2  0  0  0  0
  6  7  1  0  0  0  0
  9  8  1  6  0  0  0
  9 15  1  0  0  0  0
 10  9  1  0  0  0  0
 11 12  2  0  0  0  0
 11 10  1  0  0  0  0
 12 13  1  0  0  0  0
 13 14  1  0  0  0  0
 15 13  2  0  0  0  0
 15 16  1  0  0  0  0
 17 19  1  0  0  0  0
 18 17  1  0  0  0  0
 20 17  1  0  0  0  0
 21 11  1  0  0  0  0
 21 23  1  0  0  0  0
 22 21  1  0  0  0  0
 24 21  1  0  0  0  0
M  END
