1,3
 OpenBabel05122313053D

 24 25  0  0  1  0  0  0  0  0999 V2000
   -0.3224    1.4715   -0.0001 N   0  0  0  0  0  2  0  0  0  0  0  0
   -2.2853    2.4968   -0.0004 N   0  0  0  0  0  0  0  0  0  0  0  0
   -0.3223   -1.4715   -0.0004 N   0  0  0  0  0  2  0  0  0  0  0  0
   -2.2853   -2.4969   -0.0000 N   0  0  0  0  0  0  0  0  0  0  0  0
   -3.6452   -0.0000    0.0014 O   0  0  0  0  0  0  0  0  0  0  0  0
   -1.6645    1.2714   -0.0001 C   0  0  2  0  0  3  0  0  0  0  0  0
   -1.3142    3.4618   -0.0006 C   0  0  0  0  0  0  0  0  0  0  0  0
   -1.5559    4.5299   -0.0009 H   0  0  0  0  0  0  0  0  0  0  0  0
   -0.0857    2.8178   -0.0004 C   0  0  0  0  0  0  0  0  0  0  0  0
    0.9332    3.2207   -0.0006 H   0  0  0  0  0  0  0  0  0  0  0  0
   -3.7251    2.7754   -0.0004 C   0  0  0  0  0  0  0  0  0  0  0  0
   -3.8550    3.8718   -0.0038 H   0  0  0  0  0  0  0  0  0  0  0  0
   -4.1988    2.3382    0.8965 H   0  0  0  0  0  0  0  0  0  0  0  0
   -4.2000    2.3322   -0.8936 H   0  0  0  0  0  0  0  0  0  0  0  0
   -2.4100   -0.0000    0.0006 C   0  0  0  0  0  0  0  0  0  0  0  0
   -1.6645   -1.2714    0.0000 C   0  0  1  0  0  3  0  0  0  0  0  0
   -1.3141   -3.4618   -0.0007 C   0  0  0  0  0  0  0  0  0  0  0  0
   -1.5558   -4.5299   -0.0009 H   0  0  0  0  0  0  0  0  0  0  0  0
   -0.0857   -2.8178   -0.0009 C   0  0  0  0  0  0  0  0  0  0  0  0
    0.9333   -3.2206   -0.0013 H   0  0  0  0  0  0  0  0  0  0  0  0
   -3.7250   -2.7754    0.0004 C   0  0  0  0  0  0  0  0  0  0  0  0
   -3.8550   -3.8718    0.0006 H   0  0  0  0  0  0  0  0  0  0  0  0
   -4.1996   -2.3355   -0.8946 H   0  0  0  0  0  0  0  0  0  0  0  0
   -4.1991   -2.3351    0.8955 H   0  0  0  0  0  0  0  0  0  0  0  0
  1  6  1  0  0  0  0
  2 11  1  0  0  0  0
  2  6  1  0  0  0  0
  3 16  1  0  0  0  0
  4 16  1  0  0  0  0
  4 21  1  0  0  0  0
  6 15  1  1  0  0  0
  7  9  2  0  0  0  0
  7  2  1  0  0  0  0
  8  7  1  0  0  0  0
  9  1  1  0  0  0  0
 10  9  1  0  0  0  0
 11 13  1  0  0  0  0
 12 11  1  0  0  0  0
 14 11  1  0  0  0  0
 15  5  2  0  0  0  0
 16 15  1  1  0  0  0
 17  4  1  0  0  0  0
 18 17  1  0  0  0  0
 19 17  2  0  0  0  0
 19  3  1  0  0  0  0
 20 19  1  0  0  0  0
 21 22  1  0  0  0  0
 21 24  1  0  0  0  0
 23 21  1  0  0  0  0
M  END
