1,3
 OpenBabel05122313053D

 29 30  0  0  1  0  0  0  0  0999 V2000
   -0.3226   -1.3882   -0.4138 N   0  0  0  0  0  2  0  0  0  0  0  0
   -2.3693   -2.1548   -0.6424 N   0  0  0  0  0  0  0  0  0  0  0  0
   -0.1140    1.4892   -0.3896 N   0  0  0  0  0  2  0  0  0  0  0  0
   -2.0105    2.6007   -0.4029 N   0  0  0  0  0  0  0  0  0  0  0  0
   -1.8934    0.2262    1.7984 O   0  0  0  0  0  0  0  0  0  0  0  0
   -1.6217   -1.0856   -0.2421 C   0  0  1  0  0  3  0  0  0  0  0  0
   -1.5064   -3.1445   -1.0797 C   0  0  0  0  0  0  0  0  0  0  0  0
   -1.8703   -4.1041   -1.4604 H   0  0  0  0  0  0  0  0  0  0  0  0
   -0.2232   -2.6589   -0.9308 C   0  0  0  0  0  0  0  0  0  0  0  0
    0.7482   -3.1206   -1.1360 H   0  0  0  0  0  0  0  0  0  0  0  0
   -3.8278   -2.2531   -0.6359 C   0  0  0  0  0  0  0  0  0  0  0  0
   -4.1125   -3.2672   -0.9662 H   0  0  0  0  0  0  0  0  0  0  0  0
   -4.2740   -1.5181   -1.3333 H   0  0  0  0  0  0  0  0  0  0  0  0
   -4.2252   -2.0921    0.3837 H   0  0  0  0  0  0  0  0  0  0  0  0
   -2.1288    0.1844    0.3993 C   0  0  2  0  0  0  0  0  0  0  0  0
   -3.2209    0.2624    0.1797 H   0  0  0  0  0  0  0  0  0  0  0  0
   -1.4363    1.3897   -0.1675 C   0  0  2  0  0  3  0  0  0  0  0  0
   -1.0169    3.4773   -0.8001 C   0  0  0  0  0  0  0  0  0  0  0  0
   -1.2317    4.5189   -1.0589 H   0  0  0  0  0  0  0  0  0  0  0  0
    0.1716    2.7756   -0.7866 C   0  0  0  0  0  0  0  0  0  0  0  0
    1.1955    3.0953   -1.0050 H   0  0  0  0  0  0  0  0  0  0  0  0
   -3.4189    2.9365   -0.2083 C   0  0  0  0  0  0  0  0  0  0  0  0
   -3.5498    4.0199   -0.3738 H   0  0  0  0  0  0  0  0  0  0  0  0
   -3.7245    2.6973    0.8281 H   0  0  0  0  0  0  0  0  0  0  0  0
   -4.0582    2.3903   -0.9288 H   0  0  0  0  0  0  0  0  0  0  0  0
   -2.6057   -0.7452    2.5570 C   0  0  0  0  0  0  0  0  0  0  0  0
   -2.3440   -0.5700    3.6162 H   0  0  0  0  0  0  0  0  0  0  0  0
   -2.3109   -1.7849    2.2888 H   0  0  0  0  0  0  0  0  0  0  0  0
   -3.7082   -0.6300    2.4355 H   0  0  0  0  0  0  0  0  0  0  0  0
  1  6  1  0  0  0  0
  2 11  1  0  0  0  0
  2  6  1  0  0  0  0
  3 17  1  0  0  0  0
  4 22  1  0  0  0  0
  4 17  1  0  0  0  0
  5 26  1  0  0  0  0
  6 15  1  1  0  0  0
  7  9  2  0  0  0  0
  7  2  1  0  0  0  0
  8  7  1  0  0  0  0
  9  1  1  0  0  0  0
 10  9  1  0  0  0  0
 11 14  1  0  0  0  0
 12 11  1  0  0  0  0
 13 11  1  0  0  0  0
 15 16  1  6  0  0  0
 15  5  1  0  0  0  0
 17 15  1  1  0  0  0
 18 20  2  0  0  0  0
 18  4  1  0  0  0  0
 19 18  1  0  0  0  0
 20  3  1  0  0  0  0
 21 20  1  0  0  0  0
 22 24  1  0  0  0  0
 23 22  1  0  0  0  0
 25 22  1  0  0  0  0
 26 27  1  0  0  0  0
 28 26  1  0  0  0  0
 29 26  1  0  0  0  0
M  END
