1,3
 OpenBabel05122313053D

 26 27  0  0  1  0  0  0  0  0999 V2000
   -0.3126   -1.4593   -0.2199 N   0  0  0  0  0  2  0  0  0  0  0  0
   -2.2702   -2.4644   -0.2159 N   0  0  0  0  0  0  0  0  0  0  0  0
   -0.3126    1.4593   -0.2199 N   0  0  0  0  0  2  0  0  0  0  0  0
   -2.2702    2.4645   -0.2159 N   0  0  0  0  0  0  0  0  0  0  0  0
   -2.8847    0.0001    1.5804 O   0  0  0  0  0  0  0  0  0  0  0  0
   -2.1262   -0.0000    2.1992 H   0  0  0  0  0  0  0  0  0  0  0  0
   -1.6390   -1.2631   -0.0873 C   0  0  1  0  0  3  0  0  0  0  0  0
   -1.3155   -3.4325   -0.4544 C   0  0  0  0  0  0  0  0  0  0  0  0
   -1.5778   -4.4856   -0.5972 H   0  0  0  0  0  0  0  0  0  0  0  0
   -0.0905   -2.7995   -0.4578 C   0  0  0  0  0  0  0  0  0  0  0  0
    0.9218   -3.1952   -0.5886 H   0  0  0  0  0  0  0  0  0  0  0  0
   -3.7105   -2.6867   -0.0944 C   0  0  0  0  0  0  0  0  0  0  0  0
   -3.8926   -3.7679    0.0342 H   0  0  0  0  0  0  0  0  0  0  0  0
   -4.2383   -2.3425   -1.0060 H   0  0  0  0  0  0  0  0  0  0  0  0
   -4.0913   -2.1464    0.7919 H   0  0  0  0  0  0  0  0  0  0  0  0
   -2.3827    0.0000    0.2425 C   0  0  2  0  0  0  0  0  0  0  0  0
   -3.3037    0.0000   -0.3790 H   0  0  0  0  0  0  0  0  0  0  0  0
   -1.6390    1.2631   -0.0874 C   0  0  2  0  0  3  0  0  0  0  0  0
   -1.3154    3.4325   -0.4543 C   0  0  0  0  0  0  0  0  0  0  0  0
   -1.5777    4.4857   -0.5971 H   0  0  0  0  0  0  0  0  0  0  0  0
   -0.0904    2.7995   -0.4576 C   0  0  0  0  0  0  0  0  0  0  0  0
    0.9219    3.1952   -0.5884 H   0  0  0  0  0  0  0  0  0  0  0  0
   -3.7104    2.6867   -0.0945 C   0  0  0  0  0  0  0  0  0  0  0  0
   -3.8926    3.7680    0.0331 H   0  0  0  0  0  0  0  0  0  0  0  0
   -4.0911    2.1473    0.7924 H   0  0  0  0  0  0  0  0  0  0  0  0
   -4.2384    2.3416   -1.0056 H   0  0  0  0  0  0  0  0  0  0  0  0
  1  7  1  0  0  0  0
  2 12  1  0  0  0  0
  2  7  1  0  0  0  0
  3 18  1  0  0  0  0
  4 23  1  0  0  0  0
  4 18  1  0  0  0  0
  5  6  1  0  0  0  0
  7 16  1  1  0  0  0
  8  2  1  0  0  0  0
  9  8  1  0  0  0  0
 10  8  2  0  0  0  0
 10  1  1  0  0  0  0
 11 10  1  0  0  0  0
 12 13  1  0  0  0  0
 12 15  1  0  0  0  0
 14 12  1  0  0  0  0
 16 17  1  6  0  0  0
 16  5  1  0  0  0  0
 18 16  1  1  0  0  0
 19  4  1  0  0  0  0
 20 19  1  0  0  0  0
 21 19  2  0  0  0  0
 21  3  1  0  0  0  0
 22 21  1  0  0  0  0
 23 24  1  0  0  0  0
 23 25  1  0  0  0  0
 26 23  1  0  0  0  0
M  END
