1,2
 OpenBabel05122313053D

 38 41  0  0  1  0  0  0  0  0999 V2000
   -0.0151    0.5000    0.1063 N   0  0  0  0  0  2  0  0  0  0  0  0
    0.3365   -2.1108    0.3459 N   0  0  0  0  0  2  0  0  0  0  0  0
    4.3952    2.0905    0.6289 C   0  0  0  0  0  0  0  0  0  0  0  0
    3.8727    2.7390    1.3483 H   0  0  0  0  0  0  0  0  0  0  0  0
    5.7908    2.1475    0.5119 C   0  0  0  0  0  0  0  0  0  0  0  0
    6.3619    2.8514    1.1363 H   0  0  0  0  0  0  0  0  0  0  0  0
    6.4602    1.3066   -0.3917 C   0  0  0  0  0  0  0  0  0  0  0  0
    7.5561    1.3509   -0.4820 H   0  0  0  0  0  0  0  0  0  0  0  0
    5.7216    0.4136   -1.1854 C   0  0  0  0  0  0  0  0  0  0  0  0
    6.2363   -0.2364   -1.9095 H   0  0  0  0  0  0  0  0  0  0  0  0
    4.3257    0.3582   -1.0726 C   0  0  0  0  0  0  0  0  0  0  0  0
    3.7466   -0.3194   -1.7184 H   0  0  0  0  0  0  0  0  0  0  0  0
    3.6393    1.1896   -0.1560 C   0  0  0  0  0  0  0  0  0  0  0  0
    1.4929   -1.3585    0.3107 C   0  0  0  0  0  0  0  0  0  0  0  0
    1.3019    0.0407    0.0643 C   0  0  0  0  0  0  0  0  0  0  0  0
    2.1692    1.1633   -0.0530 C   0  0  0  0  0  0  0  0  0  0  0  0
    1.3250    2.2969   -0.0567 C   0  0  0  0  0  0  0  0  0  0  0  0
    1.6466    3.3441   -0.0961 H   0  0  0  0  0  0  0  0  0  0  0  0
   -0.0197    1.8671    0.0458 C   0  0  2  0  0  3  0  0  0  0  0  0
    2.7233   -2.0122    0.5815 C   0  0  0  0  0  0  0  0  0  0  0  0
    3.6470   -1.4202    0.5755 H   0  0  0  0  0  0  0  0  0  0  0  0
   -1.1937    2.7337    0.2134 C   0  0  0  0  0  0  0  0  0  0  0  0
   -1.3209    3.9081   -0.5602 C   0  0  0  0  0  0  0  0  0  0  0  0
   -0.5731    4.1224   -1.3386 H   0  0  0  0  0  0  0  0  0  0  0  0
   -2.4030    4.7763   -0.3633 C   0  0  0  0  0  0  0  0  0  0  0  0
   -2.4971    5.6807   -0.9833 H   0  0  0  0  0  0  0  0  0  0  0  0
   -3.3686    4.4888    0.6144 C   0  0  0  0  0  0  0  0  0  0  0  0
   -4.2195    5.1699    0.7678 H   0  0  0  0  0  0  0  0  0  0  0  0
   -3.2433    3.3296    1.3977 C   0  0  0  0  0  0  0  0  0  0  0  0
   -3.9938    3.1009    2.1693 H   0  0  0  0  0  0  0  0  0  0  0  0
   -2.1654    2.4595    1.2018 C   0  0  0  0  0  0  0  0  0  0  0  0
   -2.0634    1.5588    1.8243 H   0  0  0  0  0  0  0  0  0  0  0  0
    0.3448   -3.4321    0.6209 C   0  0  0  0  0  0  0  0  0  0  0  0
   -0.6419   -3.9220    0.5994 H   0  0  0  0  0  0  0  0  0  0  0  0
    2.7388   -3.3733    0.8673 C   0  0  0  0  0  0  0  0  0  0  0  0
    3.6949   -3.8725    1.0851 H   0  0  0  0  0  0  0  0  0  0  0  0
    1.5333   -4.1065    0.8871 C   0  0  0  0  0  0  0  0  0  0  0  0
    1.5098   -5.1823    1.1061 H   0  0  0  0  0  0  0  0  0  0  0  0
  2 33  1  0  0  0  0
  3  4  1  0  0  0  0
  5  3  1  0  0  0  0
  5  6  1  0  0  0  0
  7  5  2  0  0  0  0
  8  7  1  0  0  0  0
  9 11  2  0  0  0  0
  9  7  1  0  0  0  0
 10  9  1  0  0  0  0
 11 13  1  0  0  0  0
 12 11  1  0  0  0  0
 13 16  1  0  0  0  0
 13  3  2  0  0  0  0
 14  2  1  0  0  0  0
 14 20  1  0  0  0  0
 15  1  1  0  0  0  0
 15 14  2  0  0  0  0
 16 15  1  0  0  0  0
 17 16  2  0  0  0  0
 17 19  1  0  0  0  0
 18 17  1  0  0  0  0
 19  1  1  0  0  0  0
 19 22  1  1  0  0  0
 20 35  2  0  0  0  0
 21 20  1  0  0  0  0
 22 31  1  0  0  0  0
 23 25  1  0  0  0  0
 23 22  2  0  0  0  0
 24 23  1  0  0  0  0
 25 27  2  0  0  0  0
 26 25  1  0  0  0  0
 27 28  1  0  0  0  0
 27 29  1  0  0  0  0
 29 30  1  0  0  0  0
 31 29  2  0  0  0  0
 31 32  1  0  0  0  0
 33 37  2  0  0  0  0
 34 33  1  0  0  0  0
 35 37  1  0  0  0  0
 35 36  1  0  0  0  0
 37 38  1  0  0  0  0
M  END
