1,2
 OpenBabel05122313053D

 36 37  0  0  0  0  0  0  0  0999 V2000
   -2.3596    0.0890   -0.2377 N   0  0  0  0  0  2  0  0  0  0  0  0
    0.3199    0.2864   -0.4689 N   0  0  0  0  0  2  0  0  0  0  0  0
   -3.6774   -0.1308   -0.1927 C   0  0  0  0  0  3  0  0  0  0  0  0
   -4.0023   -0.9865    0.4220 H   0  0  0  0  0  0  0  0  0  0  0  0
   -4.5887    0.6774   -0.8926 C   0  0  0  0  0  0  0  0  0  0  0  0
   -5.6670    0.4742   -0.8278 H   0  0  0  0  0  0  0  0  0  0  0  0
   -4.0921    1.7397   -1.6628 C   0  0  0  0  0  0  0  0  0  0  0  0
   -4.7790    2.3952   -2.2186 H   0  0  0  0  0  0  0  0  0  0  0  0
   -2.7077    1.9523   -1.7232 C   0  0  0  0  0  0  0  0  0  0  0  0
   -2.2790    2.7651   -2.3279 H   0  0  0  0  0  0  0  0  0  0  0  0
   -1.8623    1.0928   -0.9986 C   0  0  0  0  0  0  0  0  0  0  0  0
   -0.3968    1.2024   -1.0330 C   0  0  0  0  0  3  0  0  0  0  0  0
    0.0565    2.0638   -1.5618 H   0  0  0  0  0  0  0  0  0  0  0  0
    1.7258    0.3648   -0.3786 C   0  0  0  0  0  0  0  0  0  0  0  0
    2.3639    1.4741    0.2415 C   0  0  0  0  0  0  0  0  0  0  0  0
    3.7684    1.4353    0.3459 C   0  0  0  0  0  0  0  0  0  0  0  0
    4.2823    2.2716    0.8457 H   0  0  0  0  0  0  0  0  0  0  0  0
    4.5080    0.3544   -0.1432 C   0  0  0  0  0  0  0  0  0  0  0  0
    5.6045    0.3509   -0.0489 H   0  0  0  0  0  0  0  0  0  0  0  0
    3.8537   -0.7387   -0.7332 C   0  0  0  0  0  0  0  0  0  0  0  0
    4.4430   -1.5891   -1.1031 H   0  0  0  0  0  0  0  0  0  0  0  0
    2.4562   -0.7668   -0.8480 C   0  0  0  0  0  0  0  0  0  0  0  0
    1.6106    2.6391    0.8487 C   0  0  0  0  0  0  0  0  0  0  0  0
    2.0670    2.8476    1.8388 H   0  0  0  0  0  0  0  0  0  0  0  0
    0.5691    2.3392    1.0834 H   0  0  0  0  0  0  0  0  0  0  0  0
    1.6547    3.9232    0.0084 C   0  0  0  0  0  0  0  0  0  0  0  0
    2.6985    4.2478   -0.1799 H   0  0  0  0  0  0  0  0  0  0  0  0
    1.1299    4.7525    0.5243 H   0  0  0  0  0  0  0  0  0  0  0  0
    1.1788    3.7896   -0.9858 H   0  0  0  0  0  0  0  0  0  0  0  0
    1.7085   -1.9189   -1.4831 C   0  0  0  0  0  0  0  0  0  0  0  0
    1.1987   -1.5447   -2.3997 H   0  0  0  0  0  0  0  0  0  0  0  0
    0.8691   -2.2167   -0.8133 H   0  0  0  0  0  0  0  0  0  0  0  0
    2.5354   -3.1547   -1.8243 C   0  0  0  0  0  0  0  0  0  0  0  0
    3.3178   -2.9452   -2.5827 H   0  0  0  0  0  0  0  0  0  0  0  0
    1.8799   -3.9493   -2.2306 H   0  0  0  0  0  0  0  0  0  0  0  0
    3.0356   -3.5681   -0.9249 H   0  0  0  0  0  0  0  0  0  0  0  0
  1  3  1  0  0  0  0
  2 14  1  0  0  0  0
  3  4  1  0  0  0  0
  5  6  1  0  0  0  0
  5  3  1  0  0  0  0
  7  5  2  0  0  0  0
  8  7  1  0  0  0  0
  9  7  1  0  0  0  0
  9 11  2  0  0  0  0
 10  9  1  0  0  0  0
 11  1  1  0  0  0  0
 12 11  1  0  0  0  0
 12  2  1  0  0  0  0
 13 12  1  0  0  0  0
 14 15  1  0  0  0  0
 15 16  2  0  0  0  0
 15 23  1  0  0  0  0
 16 17  1  0  0  0  0
 18 19  1  0  0  0  0
 18 16  1  0  0  0  0
 20 18  2  0  0  0  0
 21 20  1  0  0  0  0
 22 20  1  0  0  0  0
 22 14  2  0  0  0  0
 23 25  1  0  0  0  0
 23 24  1  0  0  0  0
 26 28  1  0  0  0  0
 26 23  1  0  0  0  0
 27 26  1  0  0  0  0
 29 26  1  0  0  0  0
 30 22  1  0  0  0  0
 30 32  1  0  0  0  0
 31 30  1  0  0  0  0
 33 30  1  0  0  0  0
 33 36  1  0  0  0  0
 34 33  1  0  0  0  0
 35 33  1  0  0  0  0
M  END
