3,4
 OpenBabel05122313053D

 30 31  0  0  1  0  0  0  0  0999 V2000
   -4.3479   -0.9541   -0.3398 O   0  0  0  0  0  0  0  0  0  0  0  0
   -3.0456    0.8075    0.2859 O   0  0  0  0  0  0  0  0  0  0  0  0
    2.0915    0.4107    0.3136 N   0  0  0  0  0  2  0  0  0  0  0  0
   -0.2587    0.4029   -0.9621 N   0  0  0  0  0  2  0  0  0  0  0  0
   -1.3571    0.6026   -1.7005 N   0  0  0  0  0  0  0  0  0  0  0  0
    3.2496    0.3367    0.9913 C   0  0  0  0  0  3  0  0  0  0  0  0
    4.1504    1.4075    1.0459 C   0  0  0  0  0  0  0  0  0  0  0  0
    3.8255    2.5936    0.3705 C   0  0  0  0  0  0  0  0  0  0  0  0
    2.6188    2.6691   -0.3335 C   0  0  0  0  0  0  0  0  0  0  0  0
    1.7644    1.5512   -0.3442 C   0  0  0  0  0  0  0  0  0  0  0  0
    0.4829    1.5257   -1.0481 C   0  0  1  0  0  3  0  0  0  0  0  0
   -0.1787    2.4798   -1.8639 C   0  0  0  0  0  0  0  0  0  0  0  0
   -1.3565    1.8514   -2.2543 C   0  0  0  0  0  0  0  0  0  0  0  0
   -2.4448   -0.3567   -1.6945 C   0  0  0  0  0  0  0  0  0  0  0  0
   -3.4043   -0.2122   -0.5068 C   0  0  0  0  0  0  0  0  0  0  0  0
   -3.7676    0.9476    1.5344 C   0  0  0  0  0  0  0  0  0  0  0  0
   -3.2910    2.2225    2.1956 C   0  0  0  0  0  0  0  0  0  0  0  0
    3.4426   -0.6212    1.4989 H   0  0  0  0  0  0  0  0  0  0  0  0
    5.0882    1.3058    1.6096 H   0  0  0  0  0  0  0  0  0  0  0  0
    4.5087    3.4556    0.3919 H   0  0  0  0  0  0  0  0  0  0  0  0
    2.3329    3.5831   -0.8720 H   0  0  0  0  0  0  0  0  0  0  0  0
    0.1559    3.4835   -2.1411 H   0  0  0  0  0  0  0  0  0  0  0  0
   -2.1911    2.1915   -2.8757 H   0  0  0  0  0  0  0  0  0  0  0  0
   -2.0196   -1.3782   -1.6361 H   0  0  0  0  0  0  0  0  0  0  0  0
   -3.0155   -0.2635   -2.6377 H   0  0  0  0  0  0  0  0  0  0  0  0
   -3.5465    0.0525    2.1517 H   0  0  0  0  0  0  0  0  0  0  0  0
   -4.8560    0.9495    1.3175 H   0  0  0  0  0  0  0  0  0  0  0  0
   -3.8062    2.3586    3.1669 H   0  0  0  0  0  0  0  0  0  0  0  0
   -3.5050    3.1064    1.5621 H   0  0  0  0  0  0  0  0  0  0  0  0
   -2.2001    2.1732    2.3803 H   0  0  0  0  0  0  0  0  0  0  0  0
  2 16  1  0  0  0  0
  3  6  1  0  0  0  0
  5 14  1  0  0  0  0
  5  4  1  0  0  0  0
  6  7  1  0  0  0  0
  6 18  1  0  0  0  0
  7 19  1  0  0  0  0
  8 20  1  0  0  0  0
  8  7  2  0  0  0  0
  9  8  1  0  0  0  0
 10  9  2  0  0  0  0
 10  3  1  0  0  0  0
 11  4  1  0  0  0  0
 11 10  1  6  0  0  0
 12 11  1  0  0  0  0
 13 12  2  0  0  0  0
 13  5  1  0  0  0  0
 14 24  1  0  0  0  0
 14 15  1  0  0  0  0
 15  1  2  0  0  0  0
 15  2  1  0  0  0  0
 16 26  1  0  0  0  0
 16 17  1  0  0  0  0
 17 30  1  0  0  0  0
 17 28  1  0  0  0  0
 21  9  1  0  0  0  0
 22 12  1  0  0  0  0
 23 13  1  0  0  0  0
 25 14  1  0  0  0  0
 27 16  1  0  0  0  0
 29 17  1  0  0  0  0
M  END
