1,2
 OpenBabel05122313053D

 34 36  0  0  0  0  0  0  0  0999 V2000
    1.5118    0.0893   -0.0431 N   0  0  0  0  0  0  0  0  0  0  0  0
   -0.7049    1.4003    0.1560 N   0  0  0  0  0  2  0  0  0  0  0  0
    2.6895   -0.5065   -0.0976 N   0  0  0  0  0  2  0  0  0  0  0  0
   -3.0143    1.2099    0.4472 N   0  0  0  0  0  0  0  0  0  0  0  0
    0.3977    2.1687   -0.0880 C   0  0  0  0  0  0  0  0  0  0  0  0
    1.6305    1.4523   -0.1519 C   0  0  0  0  0  0  0  0  0  0  0  0
    3.6297    0.4849   -0.2459 C   0  0  0  0  0  0  0  0  0  0  0  0
    0.3096    3.5830   -0.2726 C   0  0  0  0  0  0  0  0  0  0  0  0
    1.2358    4.1421   -0.4624 H   0  0  0  0  0  0  0  0  0  0  0  0
   -1.9422    1.9981    0.2020 C   0  0  0  0  0  0  0  0  0  0  0  0
   -2.0847    3.4209    0.0040 C   0  0  0  0  0  0  0  0  0  0  0  0
    3.0090    1.7456   -0.2895 C   0  0  0  0  0  0  0  0  0  0  0  0
    3.4796    2.7273   -0.3979 H   0  0  0  0  0  0  0  0  0  0  0  0
   -0.9151    4.2046   -0.2309 C   0  0  0  0  0  0  0  0  0  0  0  0
   -1.0115    5.2910   -0.3808 H   0  0  0  0  0  0  0  0  0  0  0  0
   -4.2227    1.7604    0.4852 C   0  0  0  0  0  0  0  0  0  0  0  0
   -5.0648    1.0705    0.6796 H   0  0  0  0  0  0  0  0  0  0  0  0
    5.1002    0.1170   -0.3304 C   0  0  0  0  0  0  0  0  0  0  0  0
   -3.3894    3.9703    0.0537 C   0  0  0  0  0  3  0  0  0  0  0  0
   -3.5193    5.0528   -0.1025 H   0  0  0  0  0  0  0  0  0  0  0  0
   -4.4769    3.1392    0.2915 C   0  0  0  0  0  0  0  0  0  0  0  0
   -5.5044    3.5281    0.3310 H   0  0  0  0  0  0  0  0  0  0  0  0
    5.3138   -0.8128   -1.5451 C   0  0  0  0  0  0  0  0  0  0  0  0
    5.0451   -0.2972   -2.4891 H   0  0  0  0  0  0  0  0  0  0  0  0
    4.6752   -1.7133   -1.4595 H   0  0  0  0  0  0  0  0  0  0  0  0
    6.3746   -1.1332   -1.6116 H   0  0  0  0  0  0  0  0  0  0  0  0
    5.5064   -0.6262    0.9615 C   0  0  0  0  0  0  0  0  0  0  0  0
    6.5718   -0.9350    0.9185 H   0  0  0  0  0  0  0  0  0  0  0  0
    4.8841   -1.5322    1.0990 H   0  0  0  0  0  0  0  0  0  0  0  0
    5.3690    0.0218    1.8513 H   0  0  0  0  0  0  0  0  0  0  0  0
    5.9573    1.3829   -0.4887 C   0  0  0  0  0  0  0  0  0  0  0  0
    5.6909    1.9375   -1.4114 H   0  0  0  0  0  0  0  0  0  0  0  0
    7.0315    1.1151   -0.5533 H   0  0  0  0  0  0  0  0  0  0  0  0
    5.8305    2.0686    0.3739 H   0  0  0  0  0  0  0  0  0  0  0  0
  2 10  1  0  0  0  0
  3  1  1  0  0  0  0
  4 16  1  0  0  0  0
  5  2  1  0  0  0  0
  6  5  1  0  0  0  0
  6  1  2  0  0  0  0
  7  3  1  0  0  0  0
  8 14  1  0  0  0  0
  8  5  2  0  0  0  0
  9  8  1  0  0  0  0
 10  4  2  0  0  0  0
 11 19  1  0  0  0  0
 11 10  1  0  0  0  0
 12  7  2  0  0  0  0
 12  6  1  0  0  0  0
 13 12  1  0  0  0  0
 14 11  2  0  0  0  0
 15 14  1  0  0  0  0
 16 17  1  0  0  0  0
 18  7  1  0  0  0  0
 18 27  1  0  0  0  0
 19 21  1  0  0  0  0
 20 19  1  0  0  0  0
 21 22  1  0  0  0  0
 21 16  2  0  0  0  0
 23 25  1  0  0  0  0
 23 18  1  0  0  0  0
 24 23  1  0  0  0  0
 26 23  1  0  0  0  0
 27 29  1  0  0  0  0
 27 30  1  0  0  0  0
 28 27  1  0  0  0  0
 31 18  1  0  0  0  0
 31 34  1  0  0  0  0
 32 31  1  0  0  0  0
 33 31  1  0  0  0  0
M  END
