1,4
 OpenBabel05122313053D

 22 22  0  0  0  0  0  0  0  0999 V2000
   -0.0731   -1.3902   -0.0001 N   0  0  0  0  0  0  0  0  0  0  0  0
   -0.1940   -2.0004   -0.8238 H   0  0  0  0  0  0  0  0  0  0  0  0
   -0.1947   -1.9990    0.8245 H   0  0  0  0  0  0  0  0  0  0  0  0
   -0.0731    1.3902   -0.0004 N   0  0  0  0  0  0  0  0  0  0  0  0
   -0.1941    1.9995   -0.8248 H   0  0  0  0  0  0  0  0  0  0  0  0
   -0.1945    1.9999    0.8235 H   0  0  0  0  0  0  0  0  0  0  0  0
    1.2086   -0.7028   -0.0001 C   0  0  0  0  0  0  0  0  0  0  0  0
    2.4296   -1.3931   -0.0001 C   0  0  0  0  0  0  0  0  0  0  0  0
    2.4199   -2.4945   -0.0001 H   0  0  0  0  0  0  0  0  0  0  0  0
    3.6588   -0.7118    0.0000 C   0  0  0  0  0  0  0  0  0  0  0  0
    3.6588    0.7118    0.0001 C   0  0  0  0  0  0  0  0  0  0  0  0
    2.4296    1.3931    0.0001 C   0  0  0  0  0  0  0  0  0  0  0  0
    2.4199    2.4945    0.0001 H   0  0  0  0  0  0  0  0  0  0  0  0
    1.2086    0.7028   -0.0001 C   0  0  0  0  0  0  0  0  0  0  0  0
    4.9562    1.4754    0.0003 C   0  0  0  0  0  0  0  0  0  0  0  0
    5.5737    1.2254   -0.8880 H   0  0  0  0  0  0  0  0  0  0  0  0
    5.5735    1.2253    0.8887 H   0  0  0  0  0  0  0  0  0  0  0  0
    4.7870    2.5685    0.0004 H   0  0  0  0  0  0  0  0  0  0  0  0
    4.9562   -1.4754   -0.0000 C   0  0  0  0  0  0  0  0  0  0  0  0
    5.5736   -1.2255    0.8884 H   0  0  0  0  0  0  0  0  0  0  0  0
    5.5736   -1.2253   -0.8883 H   0  0  0  0  0  0  0  0  0  0  0  0
    4.7870   -2.5685   -0.0001 H   0  0  0  0  0  0  0  0  0  0  0  0
  1  3  1  0  0  0  0
  2  1  1  0  0  0  0
  4 14  1  0  0  0  0
  4  6  1  0  0  0  0
  5  4  1  0  0  0  0
  7  1  1  0  0  0  0
  7 14  1  0  0  0  0
  8  7  2  0  0  0  0
  8 10  1  0  0  0  0
  9  8  1  0  0  0  0
 10 11  2  0  0  0  0
 11 15  1  0  0  0  0
 12 13  1  0  0  0  0
 12 11  1  0  0  0  0
 14 12  2  0  0  0  0
 15 18  1  0  0  0  0
 15 17  1  0  0  0  0
 16 15  1  0  0  0  0
 19 10  1  0  0  0  0
 19 20  1  0  0  0  0
 21 19  1  0  0  0  0
 22 19  1  0  0  0  0
M  END
