7,8
 OpenBabel05122313053D

 66 67  0  0  1  0  0  0  0  0999 V2000
   -0.5183    0.5434   -0.3246 P   0  0  0  0  0  4  0  0  0  0  0  0
    0.8644    1.9798    2.0862 Si  0  0  0  0  0  0  0  0  0  0  0  0
   -0.9641   -2.2346   -1.7812 Si  0  0  0  0  0  0  0  0  0  0  0  0
   -2.9490    2.3489   -0.8355 Si  0  0  0  0  0  0  0  0  0  0  0  0
   -2.7203   -2.0117    1.1549 Si  0  0  0  0  0  0  0  0  0  0  0  0
    0.1905    1.0662   -1.8060 O   0  0  0  0  0  0  0  0  0  0  0  0
   -0.2178   -1.1788   -0.4999 N   0  0  0  0  0  0  0  0  0  0  0  0
    0.6360    0.7451    0.8253 N   0  0  0  0  0  2  0  0  0  0  0  0
   -1.9973    1.0009   -0.2719 N   0  0  0  0  0  2  0  0  0  0  0  0
    1.5548    1.0697   -1.9341 C   0  0  0  0  0  0  0  0  0  0  0  0
    2.2590   -0.1237   -2.2075 C   0  0  0  0  0  0  0  0  0  0  0  0
    3.6671   -0.1030   -2.2966 C   0  0  0  0  0  0  0  0  0  0  0  0
    4.3687    1.0937   -2.1170 C   0  0  0  0  0  0  0  0  0  0  0  0
    3.6586    2.2846   -1.8699 C   0  0  0  0  0  0  0  0  0  0  0  0
    2.2625    2.2768   -1.7770 C   0  0  0  0  0  0  0  0  0  0  0  0
    2.2509    3.1738    1.6111 C   0  0  0  0  0  0  0  0  0  0  0  0
    1.3320    1.1061    3.6927 C   0  0  0  0  0  0  0  0  0  0  0  0
   -0.7240    2.9591    2.3700 C   0  0  0  0  0  0  0  0  0  0  0  0
    0.1777   -3.4323   -2.6531 C   0  0  0  0  0  0  0  0  0  0  0  0
   -1.1710   -2.2575    0.0616 C   0  0  2  0  0  0  0  0  0  0  0  0
   -2.2068   -1.3790   -2.8750 C   0  0  0  0  0  0  0  0  0  0  0  0
   -1.8578    3.8003   -1.3796 C   0  0  0  0  0  0  0  0  0  0  0  0
   -3.9991    1.8357   -2.3285 C   0  0  0  0  0  0  0  0  0  0  0  0
   -4.1199    2.8667    0.5551 C   0  0  0  0  0  0  0  0  0  0  0  0
   -2.3569   -0.8598    2.6044 C   0  0  0  0  0  0  0  0  0  0  0  0
   -2.9946   -3.7727    1.8071 C   0  0  0  0  0  0  0  0  0  0  0  0
   -4.2623   -1.4716    0.2084 C   0  0  0  0  0  0  0  0  0  0  0  0
    1.6988   -1.0426   -2.4217 H   0  0  0  0  0  0  0  0  0  0  0  0
    4.2049   -1.0410   -2.5006 H   0  0  0  0  0  0  0  0  0  0  0  0
    5.4669    1.1057   -2.1718 H   0  0  0  0  0  0  0  0  0  0  0  0
    4.2045    3.2303   -1.7319 H   0  0  0  0  0  0  0  0  0  0  0  0
    1.6936    3.1937   -1.5699 H   0  0  0  0  0  0  0  0  0  0  0  0
    1.9598    3.8165    0.7565 H   0  0  0  0  0  0  0  0  0  0  0  0
    2.4864    3.8372    2.4696 H   0  0  0  0  0  0  0  0  0  0  0  0
    3.1752    2.6300    1.3337 H   0  0  0  0  0  0  0  0  0  0  0  0
    2.3160    0.6020    3.6225 H   0  0  0  0  0  0  0  0  0  0  0  0
    1.3934    1.8485    4.5155 H   0  0  0  0  0  0  0  0  0  0  0  0
    0.5745    0.3467    3.9708 H   0  0  0  0  0  0  0  0  0  0  0  0
   -1.5666    2.2923    2.6385 H   0  0  0  0  0  0  0  0  0  0  0  0
   -0.5680    3.6736    3.2047 H   0  0  0  0  0  0  0  0  0  0  0  0
   -1.0212    3.5411    1.4766 H   0  0  0  0  0  0  0  0  0  0  0  0
    0.6470   -2.9563   -3.5386 H   0  0  0  0  0  0  0  0  0  0  0  0
    0.9750   -3.8101   -1.9867 H   0  0  0  0  0  0  0  0  0  0  0  0
   -0.4127   -4.2978   -3.0191 H   0  0  0  0  0  0  0  0  0  0  0  0
   -0.5517   -3.0403    0.5412 H   0  0  0  0  0  0  0  0  0  0  0  0
   -1.6803   -0.7904   -3.6532 H   0  0  0  0  0  0  0  0  0  0  0  0
   -2.8685   -2.1135   -3.3768 H   0  0  0  0  0  0  0  0  0  0  0  0
   -2.8154   -0.6848   -2.2687 H   0  0  0  0  0  0  0  0  0  0  0  0
   -1.2245    4.1772   -0.5507 H   0  0  0  0  0  0  0  0  0  0  0  0
   -1.1842    3.4746   -2.1981 H   0  0  0  0  0  0  0  0  0  0  0  0
   -2.4725    4.6473   -1.7487 H   0  0  0  0  0  0  0  0  0  0  0  0
   -3.3613    1.5599   -3.1927 H   0  0  0  0  0  0  0  0  0  0  0  0
   -4.6535    0.9713   -2.0935 H   0  0  0  0  0  0  0  0  0  0  0  0
   -4.6540    2.6747   -2.6439 H   0  0  0  0  0  0  0  0  0  0  0  0
   -4.8044    3.6755    0.2252 H   0  0  0  0  0  0  0  0  0  0  0  0
   -4.7397    2.0038    0.8751 H   0  0  0  0  0  0  0  0  0  0  0  0
   -3.5607    3.2263    1.4416 H   0  0  0  0  0  0  0  0  0  0  0  0
   -3.2011   -0.8734    3.3246 H   0  0  0  0  0  0  0  0  0  0  0  0
   -1.4395   -1.1757    3.1399 H   0  0  0  0  0  0  0  0  0  0  0  0
   -2.2215    0.1751    2.2364 H   0  0  0  0  0  0  0  0  0  0  0  0
   -3.1367   -4.4989    0.9802 H   0  0  0  0  0  0  0  0  0  0  0  0
   -2.1316   -4.1104    2.4172 H   0  0  0  0  0  0  0  0  0  0  0  0
   -3.8988   -3.8135    2.4489 H   0  0  0  0  0  0  0  0  0  0  0  0
   -4.1382   -0.4374   -0.1627 H   0  0  0  0  0  0  0  0  0  0  0  0
   -4.4687   -2.1406   -0.6517 H   0  0  0  0  0  0  0  0  0  0  0  0
   -5.1450   -1.5023    0.8804 H   0  0  0  0  0  0  0  0  0  0  0  0
  1  9  1  0  0  0  0
  1  8  1  0  0  0  0
  2 18  1  0  0  0  0
  2 17  1  0  0  0  0
  3  7  1  0  0  0  0
  3 20  1  0  0  0  0
  4  9  1  0  0  0  0
  4 24  1  0  0  0  0
  5 26  1  0  0  0  0
  5 25  1  0  0  0  0
  6  1  1  0  0  0  0
  7  1  1  0  0  0  0
  7 20  1  0  0  0  0
  8  2  1  0  0  0  0
 10  6  1  0  0  0  0
 10 15  1  0  0  0  0
 11 10  2  0  0  0  0
 12 11  1  0  0  0  0
 12 13  2  0  0  0  0
 13 14  1  0  0  0  0
 14 15  2  0  0  0  0
 14 31  1  0  0  0  0
 15 32  1  0  0  0  0
 16  2  1  0  0  0  0
 16 34  1  0  0  0  0
 17 38  1  0  0  0  0
 17 37  1  0  0  0  0
 18 39  1  0  0  0  0
 18 40  1  0  0  0  0
 19 43  1  0  0  0  0
 19  3  1  0  0  0  0
 20 45  1  1  0  0  0
 20  5  1  0  0  0  0
 21 48  1  0  0  0  0
 21  3  1  0  0  0  0
 22  4  1  0  0  0  0
 22 49  1  0  0  0  0
 23 53  1  0  0  0  0
 23  4  1  0  0  0  0
 24 56  1  0  0  0  0
 24 57  1  0  0  0  0
 25 59  1  0  0  0  0
 25 58  1  0  0  0  0
 26 62  1  0  0  0  0
 26 63  1  0  0  0  0
 27 66  1  0  0  0  0
 27  5  1  0  0  0  0
 28 11  1  0  0  0  0
 29 12  1  0  0  0  0
 30 13  1  0  0  0  0
 33 16  1  0  0  0  0
 35 16  1  0  0  0  0
 36 17  1  0  0  0  0
 41 18  1  0  0  0  0
 42 19  1  0  0  0  0
 44 19  1  0  0  0  0
 46 21  1  0  0  0  0
 47 21  1  0  0  0  0
 50 22  1  0  0  0  0
 51 22  1  0  0  0  0
 52 23  1  0  0  0  0
 54 23  1  0  0  0  0
 55 24  1  0  0  0  0
 60 25  1  0  0  0  0
 61 26  1  0  0  0  0
 64 27  1  0  0  0  0
 65 27  1  0  0  0  0
M  END
