1,2
 OpenBabel05122313053D

  8  7  0  0  0  0  0  0  0  0999 V2000
    1.8475   -1.2865   -0.1578 N   0  0  0  0  0  2  0  0  0  0  0  0
    1.8475    1.2865    0.1578 N   0  0  0  0  0  2  0  0  0  0  0  0
    4.1208   -1.3885   -0.4500 O   0  0  0  0  0  0  0  0  0  0  0  0
    4.1208    1.3885    0.4498 O   0  0  0  0  0  0  0  0  0  0  0  0
    3.1065   -0.7517   -0.1883 C   0  0  0  0  0  0  0  0  0  0  0  0
    3.1065    0.7517    0.1882 C   0  0  0  0  0  0  0  0  0  0  0  0
    1.7413   -2.2036   -0.6081 H   0  0  0  0  0  0  0  0  0  0  0  0
    1.7413    2.2035    0.6082 H   0  0  0  0  0  0  0  0  0  0  0  0
  2  6  1  0  0  0  0
  2  8  1  0  0  0  0
  3  5  2  0  0  0  0
  5  1  1  0  0  0  0
  5  6  1  0  0  0  0
  6  4  2  0  0  0  0
  7  1  1  0  0  0  0
M  END
