1,2
 OpenBabel05122313053D

 28 29  0  0  0  0  0  0  0  0999 V2000
   -1.8763    0.2202    1.2968 N   0  0  0  0  0  0  0  0  0  0  0  0
    0.7865   -0.4895    1.3133 N   0  0  0  0  0  2  0  0  0  0  0  0
   -1.2726   -0.2111    2.4762 C   0  0  0  0  0  3  0  0  0  0  0  0
    0.0942   -0.5783    2.4383 C   0  0  0  0  0  3  0  0  0  0  0  0
    0.5862   -0.9255    3.3694 H   0  0  0  0  0  0  0  0  0  0  0  0
    2.1436   -0.8993    1.2840 C   0  0  0  0  0  0  0  0  0  0  0  0
   -3.3946    0.3507    3.0031 C   0  0  0  0  0  0  0  0  0  0  0  0
   -4.3377    0.5431    3.5280 H   0  0  0  0  0  0  0  0  0  0  0  0
    2.7879    1.5475    1.3295 C   0  0  0  0  0  0  0  0  0  0  0  0
    2.3095    1.7987    2.2990 H   0  0  0  0  0  0  0  0  0  0  0  0
    2.0451    1.8156    0.5506 H   0  0  0  0  0  0  0  0  0  0  0  0
    3.6735    2.1996    1.2066 H   0  0  0  0  0  0  0  0  0  0  0  0
    3.1591    0.0910    1.2524 C   0  0  0  0  0  0  0  0  0  0  0  0
    2.4609   -2.2817    1.2154 C   0  0  0  0  0  0  0  0  0  0  0  0
   -2.1989   -0.1443    3.5510 C   0  0  0  0  0  0  0  0  0  0  0  0
   -2.0026   -0.4184    4.5948 H   0  0  0  0  0  0  0  0  0  0  0  0
   -3.1450    0.5612    1.6229 C   0  0  0  0  0  0  0  0  0  0  0  0
   -3.8391    0.9496    0.8651 H   0  0  0  0  0  0  0  0  0  0  0  0
    4.8316   -1.6855    1.0942 C   0  0  0  0  0  0  0  0  0  0  0  0
    5.8852   -1.9942    1.0207 H   0  0  0  0  0  0  0  0  0  0  0  0
    4.5004   -0.3243    1.1627 C   0  0  0  0  0  0  0  0  0  0  0  0
    5.2949    0.4384    1.1471 H   0  0  0  0  0  0  0  0  0  0  0  0
    1.3641   -3.3172    1.2198 C   0  0  0  0  0  0  0  0  0  0  0  0
    0.8552   -3.3815    2.2041 H   0  0  0  0  0  0  0  0  0  0  0  0
    1.7628   -4.3217    0.9827 H   0  0  0  0  0  0  0  0  0  0  0  0
    0.5666   -3.0713    0.4874 H   0  0  0  0  0  0  0  0  0  0  0  0
    3.8164   -2.6522    1.1175 C   0  0  0  0  0  0  0  0  0  0  0  0
    4.0728   -3.7217    1.0578 H   0  0  0  0  0  0  0  0  0  0  0  0
  1 17  2  0  0  0  0
  1  3  1  0  0  0  0
  2  4  1  0  0  0  0
  3 15  1  0  0  0  0
  4  3  1  0  0  0  0
  4  5  1  0  0  0  0
  6  2  1  0  0  0  0
  7  8  1  0  0  0  0
  7 15  2  0  0  0  0
  9 10  1  0  0  0  0
 11  9  1  0  0  0  0
 12  9  1  0  0  0  0
 13  6  1  0  0  0  0
 13  9  1  0  0  0  0
 14 23  1  0  0  0  0
 14  6  2  0  0  0  0
 15 16  1  0  0  0  0
 17  7  1  0  0  0  0
 18 17  1  0  0  0  0
 19 27  2  0  0  0  0
 19 21  1  0  0  0  0
 20 19  1  0  0  0  0
 21 13  2  0  0  0  0
 22 21  1  0  0  0  0
 23 24  1  0  0  0  0
 25 23  1  0  0  0  0
 26 23  1  0  0  0  0
 27 14  1  0  0  0  0
 28 27  1  0  0  0  0
M  END
