1,2
 OpenBabel05122313053D

 42 44  0  0  0  0  0  0  0  0999 V2000
    4.1786    0.4892   -0.0943 N   0  0  0  0  0  2  0  0  0  0  0  0
    1.5028    0.4803   -0.4611 N   0  0  0  0  0  2  0  0  0  0  0  0
   -8.3959   -0.4196    0.0709 N   0  0  0  0  0  0  0  0  0  0  0  0
    5.5120    0.3975   -0.0552 C   0  0  0  0  0  3  0  0  0  0  0  0
    5.9160   -0.5919    0.2168 H   0  0  0  0  0  0  0  0  0  0  0  0
    6.3407    1.4929   -0.3460 C   0  0  0  0  0  0  0  0  0  0  0  0
    7.4335    1.3862   -0.2953 H   0  0  0  0  0  0  0  0  0  0  0  0
    5.7409    2.7146   -0.6919 C   0  0  0  0  0  0  0  0  0  0  0  0
    6.3602    3.5952   -0.9190 H   0  0  0  0  0  0  0  0  0  0  0  0
    4.3444    2.7991   -0.7546 C   0  0  0  0  0  0  0  0  0  0  0  0
    3.8405    3.7345   -1.0398 H   0  0  0  0  0  0  0  0  0  0  0  0
    3.5821    1.6517   -0.4590 C   0  0  0  0  0  0  0  0  0  0  0  0
    2.1211    1.6199   -0.5469 C   0  0  0  0  0  3  0  0  0  0  0  0
    1.5782    2.5734   -0.7059 H   0  0  0  0  0  0  0  0  0  0  0  0
    0.1097    0.3873   -0.4065 C   0  0  0  0  0  0  0  0  0  0  0  0
   -0.6576    1.3166    0.3337 C   0  0  0  0  0  0  0  0  0  0  0  0
   -0.1350    2.0864    0.9202 H   0  0  0  0  0  0  0  0  0  0  0  0
   -2.0410    1.1874    0.4197 C   0  0  0  0  0  0  0  0  0  0  0  0
   -2.6066    1.8794    1.0600 H   0  0  0  0  0  0  0  0  0  0  0  0
   -2.7149    0.1303   -0.2431 C   0  0  0  0  0  0  0  0  0  0  0  0
   -1.9257   -0.7904   -0.9752 C   0  0  0  0  0  0  0  0  0  0  0  0
   -2.4247   -1.6021   -1.5255 H   0  0  0  0  0  0  0  0  0  0  0  0
   -0.5304   -0.7034   -1.0634 C   0  0  0  0  0  0  0  0  0  0  0  0
    0.2634   -1.6849   -1.8796 C   0  0  0  0  0  0  0  0  0  0  0  0
   -0.3866   -2.4860   -2.2788 H   0  0  0  0  0  0  0  0  0  0  0  0
    1.0813   -2.1612   -1.2953 H   0  0  0  0  0  0  0  0  0  0  0  0
    0.7625   -1.1867   -2.7369 H   0  0  0  0  0  0  0  0  0  0  0  0
   -4.1804   -0.0185   -0.1556 C   0  0  0  0  0  0  0  0  0  0  0  0
   -5.0244    1.1013    0.0372 C   0  0  0  0  0  0  0  0  0  0  0  0
   -4.5774    2.1062    0.0906 H   0  0  0  0  0  0  0  0  0  0  0  0
   -6.4174    1.0023    0.1245 C   0  0  0  0  0  0  0  0  0  0  0  0
   -7.0214   -0.2873    0.0278 C   0  0  0  0  0  0  0  0  0  0  0  0
   -6.1897   -1.4171   -0.1617 C   0  0  0  0  0  0  0  0  0  0  0  0
   -6.6488   -2.4165   -0.2240 H   0  0  0  0  0  0  0  0  0  0  0  0
   -4.8055   -1.2841   -0.2558 C   0  0  0  0  0  0  0  0  0  0  0  0
   -4.1913   -2.1890   -0.3721 H   0  0  0  0  0  0  0  0  0  0  0  0
   -7.2858    2.2196    0.2998 C   0  0  0  0  0  0  0  0  0  0  0  0
   -8.0225    2.3190   -0.5272 H   0  0  0  0  0  0  0  0  0  0  0  0
   -6.6818    3.1459    0.3278 H   0  0  0  0  0  0  0  0  0  0  0  0
   -7.8695    2.1809    1.2477 H   0  0  0  0  0  0  0  0  0  0  0  0
   -8.9351    0.3247    0.5113 H   0  0  0  0  0  0  0  0  0  0  0  0
   -8.7725   -1.3554    0.2179 H   0  0  0  0  0  0  0  0  0  0  0  0
  1  4  1  0  0  0  0
  2 15  1  0  0  0  0
  3 42  1  0  0  0  0
  3 41  1  0  0  0  0
  4  5  1  0  0  0  0
  6  7  1  0  0  0  0
  6  4  1  0  0  0  0
  8  6  2  0  0  0  0
  9  8  1  0  0  0  0
 10  8  1  0  0  0  0
 10 12  2  0  0  0  0
 11 10  1  0  0  0  0
 12  1  1  0  0  0  0
 13  2  1  0  0  0  0
 13 12  1  0  0  0  0
 14 13  1  0  0  0  0
 15 16  1  0  0  0  0
 16 18  2  0  0  0  0
 16 17  1  0  0  0  0
 18 19  1  0  0  0  0
 20 28  1  0  0  0  0
 20 18  1  0  0  0  0
 21 20  2  0  0  0  0
 22 21  1  0  0  0  0
 23 21  1  0  0  0  0
 23 15  2  0  0  0  0
 24 26  1  0  0  0  0
 24 23  1  0  0  0  0
 25 24  1  0  0  0  0
 27 24  1  0  0  0  0
 28 29  1  0  0  0  0
 29 30  1  0  0  0  0
 29 31  2  0  0  0  0
 31 37  1  0  0  0  0
 32  3  1  0  0  0  0
 32 31  1  0  0  0  0
 33 32  2  0  0  0  0
 34 33  1  0  0  0  0
 35 33  1  0  0  0  0
 35 28  2  0  0  0  0
 36 35  1  0  0  0  0
 37 39  1  0  0  0  0
 37 40  1  0  0  0  0
 38 37  1  0  0  0  0
M  END
