1,16
 OpenBabel05122313053D

 46 48  0  0  0  0  0  0  0  0999 V2000
   -1.3106   -0.5145    1.5226 N   0  0  0  0  0  2  0  0  0  0  0  0
   -0.0621   -1.0050    1.6548 N   0  0  0  0  0  0  0  0  0  0  0  0
   -1.6487    0.0189    2.7087 C   0  0  0  0  0  3  0  0  0  0  0  0
   -2.6417    0.4775    2.8072 H   0  0  0  0  0  0  0  0  0  0  0  0
   -0.5885   -0.1356    3.6290 C   0  0  0  0  0  0  0  0  0  0  0  0
   -0.5539    0.1856    4.6745 H   0  0  0  0  0  0  0  0  0  0  0  0
    0.4142   -0.7907    2.9115 C   0  0  0  0  0  0  0  0  0  0  0  0
    1.4223   -1.1151    3.1927 H   0  0  0  0  0  0  0  0  0  0  0  0
    0.6326   -1.5976    0.4958 C   0  0  0  0  0  0  0  0  0  0  0  0
    1.4660   -2.1858    0.9311 H   0  0  0  0  0  0  0  0  0  0  0  0
   -0.1003   -2.2803    0.0128 H   0  0  0  0  0  0  0  0  0  0  0  0
    0.4868   -0.5294   -1.7546 C   0  0  0  0  0  0  0  0  0  0  0  0
   -0.2270   -1.3700   -1.8998 H   0  0  0  0  0  0  0  0  0  0  0  0
    1.2426   -0.5289   -2.5676 H   0  0  0  0  0  0  0  0  0  0  0  0
   -0.2919    0.7072   -1.9537 N   0  0  0  0  0  0  0  0  0  0  0  0
   -1.4886    0.8595   -1.3533 N   0  0  0  0  0  2  0  0  0  0  0  0
    0.0586    1.8323   -2.6339 C   0  0  0  0  0  3  0  0  0  0  0  0
    1.0107    1.8888   -3.1731 H   0  0  0  0  0  0  0  0  0  0  0  0
   -0.9744    2.7565   -2.4661 C   0  0  0  0  0  0  0  0  0  0  0  0
   -1.0349    3.7666   -2.8829 H   0  0  0  0  0  0  0  0  0  0  0  0
   -1.9203    2.0962   -1.6501 C   0  0  0  0  0  0  0  0  0  0  0  0
   -2.8911    2.4171   -1.2492 H   0  0  0  0  0  0  0  0  0  0  0  0
    1.1115   -0.6495   -0.4679 N   0  0  0  0  0  0  0  0  0  0  0  0
    2.3371    0.0585   -0.2223 C   0  0  0  0  0  0  0  0  0  0  0  0
    2.3167    1.3744    0.3193 C   0  0  0  0  0  0  0  0  0  0  0  0
    1.0236    2.0783    0.6796 C   0  0  0  0  0  0  0  0  0  0  0  0
    0.7976    2.8262   -0.1128 H   0  0  0  0  0  0  0  0  0  0  0  0
    0.1902    1.3546    0.6376 H   0  0  0  0  0  0  0  0  0  0  0  0
    1.0262    2.7830    2.0406 C   0  0  0  0  0  0  0  0  0  0  0  0
    0.0237    3.2034    2.2551 H   0  0  0  0  0  0  0  0  0  0  0  0
    1.7509    3.6211    2.0830 H   0  0  0  0  0  0  0  0  0  0  0  0
    1.2747    2.0773    2.8579 H   0  0  0  0  0  0  0  0  0  0  0  0
    3.5482    2.0342    0.5078 C   0  0  0  0  0  0  0  0  0  0  0  0
    3.5517    3.0534    0.9225 H   0  0  0  0  0  0  0  0  0  0  0  0
    4.7617    1.4231    0.1729 C   0  0  0  0  0  0  0  0  0  0  0  0
    5.7094    1.9628    0.3222 H   0  0  0  0  0  0  0  0  0  0  0  0
    4.7684    0.1269   -0.3553 C   0  0  0  0  0  0  0  0  0  0  0  0
    5.7231   -0.3541   -0.6220 H   0  0  0  0  0  0  0  0  0  0  0  0
    3.5662   -0.5748   -0.5619 C   0  0  0  0  0  0  0  0  0  0  0  0
    3.6241   -1.9870   -1.1077 C   0  0  0  0  0  0  0  0  0  0  0  0
    2.6223   -2.2997   -1.4629 H   0  0  0  0  0  0  0  0  0  0  0  0
    4.2894   -1.9968   -1.9974 H   0  0  0  0  0  0  0  0  0  0  0  0
    4.1492   -3.0099   -0.0874 C   0  0  0  0  0  0  0  0  0  0  0  0
    5.1697   -2.7472    0.2572 H   0  0  0  0  0  0  0  0  0  0  0  0
    4.1885   -4.0272   -0.5257 H   0  0  0  0  0  0  0  0  0  0  0  0
    3.5035   -3.0555    0.8136 H   0  0  0  0  0  0  0  0  0  0  0  0
  1  2  1  0  0  0  0
  1  3  1  0  0  0  0
  2  7  1  0  0  0  0
  3  4  1  0  0  0  0
  3  5  1  0  0  0  0
  5  6  1  0  0  0  0
  7  8  1  0  0  0  0
  7  5  2  0  0  0  0
  9 10  1  0  0  0  0
  9  2  1  0  0  0  0
 11  9  1  0  0  0  0
 12 23  1  0  0  0  0
 13 12  1  0  0  0  0
 14 12  1  0  0  0  0
 15 12  1  0  0  0  0
 15 16  1  0  0  0  0
 17 19  1  0  0  0  0
 17 15  1  0  0  0  0
 18 17  1  0  0  0  0
 19 21  2  0  0  0  0
 20 19  1  0  0  0  0
 21 16  1  0  0  0  0
 21 22  1  0  0  0  0
 23 24  1  0  0  0  0
 23  9  1  0  0  0  0
 24 25  1  0  0  0  0
 25 33  2  0  0  0  0
 25 26  1  0  0  0  0
 26 29  1  0  0  0  0
 27 26  1  0  0  0  0
 28 26  1  0  0  0  0
 29 31  1  0  0  0  0
 29 30  1  0  0  0  0
 29 32  1  0  0  0  0
 33 34  1  0  0  0  0
 35 36  1  0  0  0  0
 35 33  1  0  0  0  0
 37 35  2  0  0  0  0
 38 37  1  0  0  0  0
 39 37  1  0  0  0  0
 39 24  2  0  0  0  0
 40 39  1  0  0  0  0
 40 43  1  0  0  0  0
 41 40  1  0  0  0  0
 42 40  1  0  0  0  0
 43 44  1  0  0  0  0
 43 46  1  0  0  0  0
 45 43  1  0  0  0  0
M  END
