1,2
 OpenBabel05122313053D

 31 32  0  0  0  0  0  0  0  0999 V2000
   -1.6038    0.7197    1.9129 N   0  0  0  0  0  2  0  0  0  0  0  0
    0.3370   -1.0748    1.8112 N   0  0  0  0  0  2  0  0  0  0  0  0
   -2.4634    1.7593    1.8549 C   0  0  0  0  0  3  0  0  0  0  0  0
   -2.3833    2.4021    0.9630 H   0  0  0  0  0  0  0  0  0  0  0  0
   -3.3815    2.0149    2.8757 C   0  0  0  0  0  0  0  0  0  0  0  0
   -4.0677    2.8700    2.8001 H   0  0  0  0  0  0  0  0  0  0  0  0
   -3.3960    1.1594    3.9923 C   0  0  0  0  0  0  0  0  0  0  0  0
   -4.1065    1.3305    4.8150 H   0  0  0  0  0  0  0  0  0  0  0  0
   -2.4887    0.0968    4.0543 C   0  0  0  0  0  0  0  0  0  0  0  0
   -2.4635   -0.5809    4.9202 H   0  0  0  0  0  0  0  0  0  0  0  0
   -1.5907   -0.0933    2.9882 C   0  0  0  0  0  0  0  0  0  0  0  0
   -0.5516   -1.1784    2.9634 C   0  0  0  0  0  0  0  0  0  0  0  0
    0.0239   -1.1389    3.9179 H   0  0  0  0  0  0  0  0  0  0  0  0
   -1.0669   -2.1704    2.9798 H   0  0  0  0  0  0  0  0  0  0  0  0
    1.5245   -1.8632    1.9569 C   0  0  0  0  0  0  0  0  0  0  0  0
    2.5861   -1.3503    2.7516 C   0  0  0  0  0  0  0  0  0  0  0  0
    3.7448   -2.1332    2.9117 C   0  0  0  0  0  0  0  0  0  0  0  0
    4.5747   -1.7395    3.5194 H   0  0  0  0  0  0  0  0  0  0  0  0
    3.8617   -3.3826    2.2875 C   0  0  0  0  0  0  0  0  0  0  0  0
    4.7774   -3.9794    2.4150 H   0  0  0  0  0  0  0  0  0  0  0  0
    2.8158   -3.8638    1.4897 C   0  0  0  0  0  0  0  0  0  0  0  0
    2.9110   -4.8395    0.9881 H   0  0  0  0  0  0  0  0  0  0  0  0
    1.6311   -3.1227    1.3135 C   0  0  0  0  0  0  0  0  0  0  0  0
    2.5077    0.0365    3.3393 C   0  0  0  0  0  0  0  0  0  0  0  0
    2.3185    0.7969    2.5531 H   0  0  0  0  0  0  0  0  0  0  0  0
    1.6874    0.1471    4.0795 H   0  0  0  0  0  0  0  0  0  0  0  0
    3.4517    0.3013    3.8520 H   0  0  0  0  0  0  0  0  0  0  0  0
    0.5285   -3.6385    0.4268 C   0  0  0  0  0  0  0  0  0  0  0  0
    0.5402   -3.1171   -0.5533 H   0  0  0  0  0  0  0  0  0  0  0  0
    0.6491   -4.7208    0.2309 H   0  0  0  0  0  0  0  0  0  0  0  0
   -0.4761   -3.4687    0.8594 H   0  0  0  0  0  0  0  0  0  0  0  0
  1 11  1  0  0  0  0
  2 15  1  0  0  0  0
  2 12  1  0  0  0  0
  3  1  1  0  0  0  0
  3  5  1  0  0  0  0
  4  3  1  0  0  0  0
  5  7  2  0  0  0  0
  6  5  1  0  0  0  0
  7  9  1  0  0  0  0
  7  8  1  0  0  0  0
  9 10  1  0  0  0  0
 11  9  2  0  0  0  0
 12 14  1  0  0  0  0
 12 11  1  0  0  0  0
 12 13  1  0  0  0  0
 15 16  1  0  0  0  0
 16 17  2  0  0  0  0
 16 24  1  0  0  0  0
 17 18  1  0  0  0  0
 19 20  1  0  0  0  0
 19 17  1  0  0  0  0
 21 19  2  0  0  0  0
 22 21  1  0  0  0  0
 23 21  1  0  0  0  0
 23 15  2  0  0  0  0
 24 27  1  0  0  0  0
 24 26  1  0  0  0  0
 25 24  1  0  0  0  0
 28 31  1  0  0  0  0
 28 23  1  0  0  0  0
 29 28  1  0  0  0  0
 30 28  1  0  0  0  0
M  END
