1,2
 OpenBabel05122313053D

 10  9  0  0  0  0  0  0  0  0999 V2000
   -1.3737    1.2210   -0.2017 N   0  0  0  0  0  2  0  0  0  0  0  0
   -1.3737   -1.2208   -0.2024 N   0  0  0  0  0  2  0  0  0  0  0  0
   -2.6147    0.7188   -0.2745 C   0  0  0  0  0  0  0  0  0  0  0  0
   -2.6147   -0.7187   -0.2749 C   0  0  0  0  0  0  0  0  0  0  0  0
   -3.7885    1.5250   -0.3413 C   0  0  0  0  0  0  0  0  0  0  0  0
   -3.7885   -1.5248   -0.3423 C   0  0  0  0  0  0  0  0  0  0  0  0
   -4.7405    2.2106   -0.4041 N   0  0  0  0  0  0  0  0  0  0  0  0
   -4.7405   -2.2104   -0.4056 N   0  0  0  0  0  0  0  0  0  0  0  0
   -1.3081    2.2446   -0.1355 H   0  0  0  0  0  0  0  0  0  0  0  0
   -1.3080   -2.2445   -0.1369 H   0  0  0  0  0  0  0  0  0  0  0  0
  1  9  1  0  0  0  0
  2 10  1  0  0  0  0
  3  1  1  0  0  0  0
  4  3  2  0  0  0  0
  4  2  1  0  0  0  0
  5  3  1  0  0  0  0
  6  4  1  0  0  0  0
  7  5  3  0  0  0  0
  8  6  3  0  0  0  0
M  END
