1,12
 OpenBabel05122313053D

 42 43  0  0  1  0  0  0  0  0999 V2000
    1.8041   -0.4427   -0.2828 N   0  0  0  0  0  2  0  0  0  0  0  0
    0.1217    2.0233   -0.4752 N   0  0  0  0  0  0  0  0  0  0  0  0
    2.8773   -1.1999    0.0000 C   0  0  2  0  0  3  0  0  0  0  0  0
    0.1621    3.0279    0.5907 C   0  0  0  0  0  0  0  0  0  0  0  0
    4.0448   -0.4144   -0.1823 C   0  0  0  0  0  0  0  0  0  0  0  0
    1.2991    2.8569    1.5924 C   0  0  0  0  0  0  0  0  0  0  0  0
    3.6148    0.8490   -0.5908 C   0  0  0  0  0  0  0  0  0  0  0  0
   -1.1484    1.8972   -1.1472 C   0  0  0  0  0  0  0  0  0  0  0  0
    2.7352   -2.6256    0.4200 C   0  0  0  0  0  0  0  0  0  0  0  0
   -2.1493    1.1626   -0.3600 N   0  0  0  0  0  0  0  0  0  0  0  0
    4.4042    2.0639   -0.9539 C   0  0  0  0  0  0  0  0  0  0  0  0
   -1.8985   -0.1247   -0.0032 N   0  0  0  0  0  2  0  0  0  0  0  0
   -2.9974   -0.6073    0.6000 C   0  0  1  0  0  3  0  0  0  0  0  0
   -3.9885    0.4085    0.6112 C   0  0  0  0  0  0  0  0  0  0  0  0
   -3.4232    1.5264   -0.0062 C   0  0  0  0  0  0  0  0  0  0  0  0
   -3.0497   -2.0106    1.1048 C   0  0  0  0  0  0  0  0  0  0  0  0
   -4.0006    2.8758   -0.2838 C   0  0  0  0  0  0  0  0  0  0  0  0
    1.3105    1.7692   -1.2377 C   0  0  0  0  0  0  0  0  0  0  0  0
    2.2441    0.7959   -0.6271 N   0  0  0  0  0  0  0  0  0  0  0  0
    0.1865    4.0579    0.1457 H   0  0  0  0  0  0  0  0  0  0  0  0
   -0.8000    2.9403    1.1376 H   0  0  0  0  0  0  0  0  0  0  0  0
    2.2963    2.9699    1.1219 H   0  0  0  0  0  0  0  0  0  0  0  0
    1.2181    3.6399    2.3721 H   0  0  0  0  0  0  0  0  0  0  0  0
    1.2383    1.8634    2.0763 H   0  0  0  0  0  0  0  0  0  0  0  0
   -1.6175    2.8814   -1.3766 H   0  0  0  0  0  0  0  0  0  0  0  0
   -0.9983    1.3408   -2.0936 H   0  0  0  0  0  0  0  0  0  0  0  0
   -4.9991    0.3377    1.0264 H   0  0  0  0  0  0  0  0  0  0  0  0
   -3.8915   -2.1444    1.8088 H   0  0  0  0  0  0  0  0  0  0  0  0
   -3.1710   -2.7173    0.2584 H   0  0  0  0  0  0  0  0  0  0  0  0
   -2.0979   -2.2832    1.6020 H   0  0  0  0  0  0  0  0  0  0  0  0
   -5.0061    2.9462    0.1699 H   0  0  0  0  0  0  0  0  0  0  0  0
   -3.3809    3.6912    0.1438 H   0  0  0  0  0  0  0  0  0  0  0  0
   -4.1098    3.0717   -1.3711 H   0  0  0  0  0  0  0  0  0  0  0  0
    1.9196    2.6844   -1.4097 H   0  0  0  0  0  0  0  0  0  0  0  0
    1.0142    1.3583   -2.2244 H   0  0  0  0  0  0  0  0  0  0  0  0
    5.0824   -0.7309   -0.0344 H   0  0  0  0  0  0  0  0  0  0  0  0
    3.6249   -3.2087    0.1153 H   0  0  0  0  0  0  0  0  0  0  0  0
    1.8278   -3.0684   -0.0334 H   0  0  0  0  0  0  0  0  0  0  0  0
    2.6139   -2.7173    1.5183 H   0  0  0  0  0  0  0  0  0  0  0  0
    4.1110    2.9483   -0.3503 H   0  0  0  0  0  0  0  0  0  0  0  0
    5.4771    1.8739   -0.7679 H   0  0  0  0  0  0  0  0  0  0  0  0
    4.2935    2.3366   -2.0243 H   0  0  0  0  0  0  0  0  0  0  0  0
  1  3  1  0  0  0  0
  2  4  1  0  0  0  0
  3  9  1  6  0  0  0
  4 21  1  0  0  0  0
  4  6  1  0  0  0  0
  5 36  1  0  0  0  0
  5  3  1  0  0  0  0
  6 24  1  0  0  0  0
  6 23  1  0  0  0  0
  7  5  2  0  0  0  0
  8  2  1  0  0  0  0
  8 10  1  0  0  0  0
  9 39  1  0  0  0  0
 10 15  1  0  0  0  0
 10 12  1  0  0  0  0
 11 41  1  0  0  0  0
 11  7  1  0  0  0  0
 11 40  1  0  0  0  0
 12 13  1  0  0  0  0
 13 14  1  0  0  0  0
 13 16  1  6  0  0  0
 14 27  1  0  0  0  0
 15 14  2  0  0  0  0
 16 30  1  0  0  0  0
 16 28  1  0  0  0  0
 17 15  1  0  0  0  0
 17 32  1  0  0  0  0
 17 31  1  0  0  0  0
 18 19  1  0  0  0  0
 18  2  1  0  0  0  0
 19  7  1  0  0  0  0
 19  1  1  0  0  0  0
 20  4  1  0  0  0  0
 22  6  1  0  0  0  0
 25  8  1  0  0  0  0
 26  8  1  0  0  0  0
 29 16  1  0  0  0  0
 33 17  1  0  0  0  0
 34 18  1  0  0  0  0
 35 18  1  0  0  0  0
 37  9  1  0  0  0  0
 38  9  1  0  0  0  0
 42 11  1  0  0  0  0
M  END
