1,13
 OpenBabel05122313053D

 25 26  0  0  0  0  0  0  0  0999 V2000
   -1.5700   -2.8607    0.3387 N   0  0  0  0  0  2  0  0  0  0  0  0
   -2.8653   -3.1747    0.1602 C   0  0  0  0  0  3  0  0  0  0  0  0
   -3.5091   -2.3650   -0.2205 H   0  0  0  0  0  0  0  0  0  0  0  0
   -3.3806   -4.4516    0.4158 C   0  0  0  0  0  0  0  0  0  0  0  0
   -4.4447   -4.6607    0.2365 H   0  0  0  0  0  0  0  0  0  0  0  0
   -2.5073   -5.4477    0.8871 C   0  0  0  0  0  0  0  0  0  0  0  0
   -2.8752   -6.4640    1.0925 H   0  0  0  0  0  0  0  0  0  0  0  0
   -1.1633   -5.1263    1.0954 C   0  0  0  0  0  0  0  0  0  0  0  0
   -0.4494   -5.8729    1.4730 H   0  0  0  0  0  0  0  0  0  0  0  0
   -0.7192   -3.8153    0.8227 C   0  0  0  0  0  0  0  0  0  0  0  0
    0.6619   -3.3991    1.0240 C   0  0  0  0  0  3  0  0  0  0  0  0
    1.4571   -4.1556    1.1536 H   0  0  0  0  0  0  0  0  0  0  0  0
    0.9073   -2.1144    0.9904 N   0  0  0  0  0  2  0  0  0  0  0  0
    2.1970   -1.7149    0.9578 N   0  0  0  0  0  0  0  0  0  0  0  0
    2.8409   -2.3018    0.3824 H   0  0  0  0  0  0  0  0  0  0  0  0
    2.4620   -0.3572    1.1640 C   0  0  0  0  0  0  0  0  0  0  0  0
    1.6857    0.3655    1.7853 O   0  0  0  0  0  0  0  0  0  0  0  0
    3.7284    0.1323    0.5923 C   0  0  0  0  0  0  0  0  0  0  0  0
    4.3214    1.6609    1.1870 S   0  0  0  0  0  0  0  0  0  0  0  0
    5.6224    1.6414    0.0555 C   0  0  0  0  0  0  0  0  0  0  0  0
    6.3496    2.4633    0.0470 H   0  0  0  0  0  0  0  0  0  0  0  0
    5.5966    0.5191   -0.7596 C   0  0  0  0  0  0  0  0  0  0  0  0
    6.3319    0.3294   -1.5535 H   0  0  0  0  0  0  0  0  0  0  0  0
    4.5113   -0.3493   -0.4544 C   0  0  0  0  0  0  0  0  0  0  0  0
    4.2759   -1.2739   -1.0086 H   0  0  0  0  0  0  0  0  0  0  0  0
  1 10  1  0  0  0  0
  2  1  1  0  0  0  0
  2  4  1  0  0  0  0
  3  2  1  0  0  0  0
  4  6  2  0  0  0  0
  5  4  1  0  0  0  0
  6  7  1  0  0  0  0
  6  8  1  0  0  0  0
  8  9  1  0  0  0  0
 10 11  1  0  0  0  0
 10  8  2  0  0  0  0
 11 12  1  0  0  0  0
 13 11  1  0  0  0  0
 14 13  1  0  0  0  0
 14 16  1  0  0  0  0
 15 14  1  0  0  0  0
 16 17  2  0  0  0  0
 18 16  1  0  0  0  0
 18 19  1  0  0  0  0
 20 19  1  0  0  0  0
 21 20  1  0  0  0  0
 22 24  1  0  0  0  0
 22 20  2  0  0  0  0
 23 22  1  0  0  0  0
 24 18  2  0  0  0  0
 25 24  1  0  0  0  0
M  END
