1,6
 OpenBabel05122313053D

 62 62  0  0  0  0  0  0  0  0999 V2000
    1.3177    0.3428   -0.7862 N   0  0  0  0  0  2  0  0  0  0  0  0
    3.0692   -0.7771    0.2694 N   0  0  0  0  0  0  0  0  0  0  0  0
    2.7785   -1.5160   -0.4140 H   0  0  0  0  0  0  0  0  0  0  0  0
    2.6326    1.4665    0.8230 N   0  0  0  0  0  0  0  0  0  0  0  0
    1.9724    2.2386    0.6906 H   0  0  0  0  0  0  0  0  0  0  0  0
   -1.3178    0.3428   -0.7862 N   0  0  0  0  0  2  0  0  0  0  0  0
   -3.0695   -0.7770    0.2692 N   0  0  0  0  0  0  0  0  0  0  0  0
   -2.7788   -1.5158   -0.4142 H   0  0  0  0  0  0  0  0  0  0  0  0
   -2.6326    1.4665    0.8229 N   0  0  0  0  0  0  0  0  0  0  0  0
   -1.9724    2.2386    0.6906 H   0  0  0  0  0  0  0  0  0  0  0  0
    0.7123    1.5362   -1.2362 C   0  0  0  0  0  0  0  0  0  0  0  0
    1.4063    2.6579   -1.7315 C   0  0  0  0  0  0  0  0  0  0  0  0
    2.5037    2.6318   -1.7823 H   0  0  0  0  0  0  0  0  0  0  0  0
    0.7016    3.7798   -2.1989 C   0  0  0  0  0  0  0  0  0  0  0  0
    1.2561    4.6419   -2.5985 H   0  0  0  0  0  0  0  0  0  0  0  0
   -0.7015    3.7799   -2.1989 C   0  0  0  0  0  0  0  0  0  0  0  0
   -1.2559    4.6420   -2.5986 H   0  0  0  0  0  0  0  0  0  0  0  0
   -1.4063    2.6579   -1.7315 C   0  0  0  0  0  0  0  0  0  0  0  0
   -2.5037    2.6319   -1.7824 H   0  0  0  0  0  0  0  0  0  0  0  0
   -0.7123    1.5362   -1.2363 C   0  0  0  0  0  0  0  0  0  0  0  0
    2.3350    0.3511    0.0846 C   0  0  0  0  0  3  0  0  0  0  0  0
    3.3209   -1.3554    1.6069 C   0  0  0  0  0  0  0  0  0  0  0  0
    3.8214   -0.5899    2.2368 H   0  0  0  0  0  0  0  0  0  0  0  0
    2.0005   -1.7603    2.2766 C   0  0  0  0  0  0  0  0  0  0  0  0
    1.3420   -0.8792    2.4180 H   0  0  0  0  0  0  0  0  0  0  0  0
    2.1845   -2.2161    3.2706 H   0  0  0  0  0  0  0  0  0  0  0  0
    1.4595   -2.4905    1.6410 H   0  0  0  0  0  0  0  0  0  0  0  0
    4.2702   -2.5414    1.4337 C   0  0  0  0  0  0  0  0  0  0  0  0
    3.8026   -3.3073    0.7814 H   0  0  0  0  0  0  0  0  0  0  0  0
    4.4947   -3.0086    2.4123 H   0  0  0  0  0  0  0  0  0  0  0  0
    5.2229   -2.2239    0.9657 H   0  0  0  0  0  0  0  0  0  0  0  0
    3.9804    1.8680    1.2466 C   0  0  0  0  0  0  0  0  0  0  0  0
    4.6197    0.9716    1.1214 H   0  0  0  0  0  0  0  0  0  0  0  0
    3.9683    2.2801    2.7216 C   0  0  0  0  0  0  0  0  0  0  0  0
    3.3218    3.1695    2.8762 H   0  0  0  0  0  0  0  0  0  0  0  0
    4.9876    2.5420    3.0683 H   0  0  0  0  0  0  0  0  0  0  0  0
    3.5789    1.4624    3.3596 H   0  0  0  0  0  0  0  0  0  0  0  0
    4.5310    2.9762    0.3404 C   0  0  0  0  0  0  0  0  0  0  0  0
    4.6070    2.6323   -0.7102 H   0  0  0  0  0  0  0  0  0  0  0  0
    5.5420    3.2868    0.6714 H   0  0  0  0  0  0  0  0  0  0  0  0
    3.8782    3.8745    0.3655 H   0  0  0  0  0  0  0  0  0  0  0  0
   -2.3352    0.3512    0.0845 C   0  0  0  0  0  3  0  0  0  0  0  0
   -3.3212   -1.3554    1.6066 C   0  0  0  0  0  0  0  0  0  0  0  0
   -3.8227   -0.5903    2.2363 H   0  0  0  0  0  0  0  0  0  0  0  0
   -4.2693   -2.5422    1.4331 C   0  0  0  0  0  0  0  0  0  0  0  0
   -5.2221   -2.2255    0.9646 H   0  0  0  0  0  0  0  0  0  0  0  0
   -4.4939   -3.0095    2.4116 H   0  0  0  0  0  0  0  0  0  0  0  0
   -3.8008   -3.3078    0.7811 H   0  0  0  0  0  0  0  0  0  0  0  0
   -2.0008   -1.7590    2.2771 C   0  0  0  0  0  0  0  0  0  0  0  0
   -1.4589   -2.4888    1.6418 H   0  0  0  0  0  0  0  0  0  0  0  0
   -2.1848   -2.2149    3.2709 H   0  0  0  0  0  0  0  0  0  0  0  0
   -1.3431   -0.8774    2.4187 H   0  0  0  0  0  0  0  0  0  0  0  0
   -3.9804    1.8682    1.2467 C   0  0  0  0  0  0  0  0  0  0  0  0
   -4.6199    0.9719    1.1210 H   0  0  0  0  0  0  0  0  0  0  0  0
   -3.9683    2.2795    2.7219 C   0  0  0  0  0  0  0  0  0  0  0  0
   -3.5791    1.4614    3.3595 H   0  0  0  0  0  0  0  0  0  0  0  0
   -4.9876    2.5413    3.0686 H   0  0  0  0  0  0  0  0  0  0  0  0
   -3.3216    3.1687    2.8769 H   0  0  0  0  0  0  0  0  0  0  0  0
   -4.5307    2.9768    0.3409 C   0  0  0  0  0  0  0  0  0  0  0  0
   -3.8777    3.8750    0.3665 H   0  0  0  0  0  0  0  0  0  0  0  0
   -5.5416    3.2876    0.6721 H   0  0  0  0  0  0  0  0  0  0  0  0
   -4.6067    2.6335   -0.7098 H   0  0  0  0  0  0  0  0  0  0  0  0
  1 21  1  0  0  0  0
  2 22  1  0  0  0  0
  3  2  1  0  0  0  0
  4 32  1  0  0  0  0
  5  4  1  0  0  0  0
  6 42  1  0  0  0  0
  7 43  1  0  0  0  0
  8  7  1  0  0  0  0
  9 53  1  0  0  0  0
 10  9  1  0  0  0  0
 11  1  1  0  0  0  0
 12 11  2  0  0  0  0
 13 12  1  0  0  0  0
 14 12  1  0  0  0  0
 15 14  1  0  0  0  0
 16 14  2  0  0  0  0
 16 18  1  0  0  0  0
 17 16  1  0  0  0  0
 18 20  2  0  0  0  0
 19 18  1  0  0  0  0
 20 11  1  0  0  0  0
 20  6  1  0  0  0  0
 21  2  1  0  0  0  0
 21  4  1  0  0  0  0
 22 23  1  0  0  0  0
 22 24  1  0  0  0  0
 24 25  1  0  0  0  0
 24 26  1  0  0  0  0
 27 24  1  0  0  0  0
 28 22  1  0  0  0  0
 28 30  1  0  0  0  0
 29 28  1  0  0  0  0
 31 28  1  0  0  0  0
 32 34  1  0  0  0  0
 33 32  1  0  0  0  0
 34 35  1  0  0  0  0
 34 36  1  0  0  0  0
 34 37  1  0  0  0  0
 38 41  1  0  0  0  0
 38 40  1  0  0  0  0
 38 32  1  0  0  0  0
 39 38  1  0  0  0  0
 42  7  1  0  0  0  0
 42  9  1  0  0  0  0
 43 44  1  0  0  0  0
 43 49  1  0  0  0  0
 45 43  1  0  0  0  0
 45 47  1  0  0  0  0
 46 45  1  0  0  0  0
 48 45  1  0  0  0  0
 49 52  1  0  0  0  0
 49 51  1  0  0  0  0
 50 49  1  0  0  0  0
 53 55  1  0  0  0  0
 54 53  1  0  0  0  0
 55 58  1  0  0  0  0
 55 57  1  0  0  0  0
 55 56  1  0  0  0  0
 59 60  1  0  0  0  0
 59 61  1  0  0  0  0
 59 53  1  0  0  0  0
 62 59  1  0  0  0  0
M  END
