3,5
 OpenBabel05122313053D

 39 42  0  0  0  0  0  0  0  0999 V2000
   -1.3128    1.3454    1.7255 O   0  0  0  0  0  0  0  0  0  0  0  0
   -1.6747    2.9667    0.1992 O   0  0  0  0  0  0  0  0  0  0  0  0
    0.3401    1.7052    0.2123 N   0  0  0  0  0  2  0  0  0  0  0  0
    2.7440    1.7141    0.0385 N   0  0  0  0  0  0  0  0  0  0  0  0
    1.8583    0.0253   -1.4868 N   0  0  0  0  0  0  0  0  0  0  0  0
    1.8373   -1.8190   -3.0607 N   0  0  0  0  0  2  0  0  0  0  0  0
   -0.6858    2.3735    1.0111 C   0  0  0  0  0  0  0  0  0  0  0  0
    0.1123    3.3698    1.8672 C   0  0  0  0  0  0  0  0  0  0  0  0
   -0.2858    4.3497    2.7789 C   0  0  0  0  0  0  0  0  0  0  0  0
   -1.3483    4.5372    2.9927 H   0  0  0  0  0  0  0  0  0  0  0  0
    0.7169    5.1142    3.4124 C   0  0  0  0  0  0  0  0  0  0  0  0
    0.4279    5.8894    4.1385 H   0  0  0  0  0  0  0  0  0  0  0  0
    2.0791    4.9090    3.1258 C   0  0  0  0  0  0  0  0  0  0  0  0
    2.8382    5.5226    3.6341 H   0  0  0  0  0  0  0  0  0  0  0  0
    2.4760    3.9390    2.1870 C   0  0  0  0  0  0  0  0  0  0  0  0
    3.5315    3.7683    1.9296 H   0  0  0  0  0  0  0  0  0  0  0  0
    1.4750    3.1858    1.5682 C   0  0  0  0  0  0  0  0  0  0  0  0
    1.5621    2.1278    0.5299 C   0  0  0  0  0  0  0  0  0  0  0  0
    2.8381    0.7487   -0.8783 C   0  0  0  0  0  0  0  0  0  0  0  0
    4.1582    0.2929   -1.3752 C   0  0  0  0  0  0  0  0  0  0  0  0
    5.4565    0.7179   -1.0783 C   0  0  0  0  0  0  0  0  0  0  0  0
    5.6227    1.5374   -0.3641 H   0  0  0  0  0  0  0  0  0  0  0  0
    6.5187    0.0589   -1.7237 C   0  0  0  0  0  0  0  0  0  0  0  0
    7.5558    0.3645   -1.5172 H   0  0  0  0  0  0  0  0  0  0  0  0
    6.2765   -0.9905   -2.6343 C   0  0  0  0  0  0  0  0  0  0  0  0
    7.1290   -1.4864   -3.1231 H   0  0  0  0  0  0  0  0  0  0  0  0
    4.9656   -1.4128   -2.9271 C   0  0  0  0  0  0  0  0  0  0  0  0
    4.7622   -2.2299   -3.6347 H   0  0  0  0  0  0  0  0  0  0  0  0
    3.9154   -0.7560   -2.2827 C   0  0  0  0  0  3  0  0  0  0  0  0
    2.4421   -0.9351   -2.3463 C   0  0  0  0  0  0  0  0  0  0  0  0
   -2.3955    1.7153    2.5665 C   0  0  0  0  0  0  0  0  0  0  0  0
   -2.8996    0.7722    2.8502 H   0  0  0  0  0  0  0  0  0  0  0  0
   -3.1183    2.3688    2.0355 H   0  0  0  0  0  0  0  0  0  0  0  0
   -2.0430    2.2242    3.4923 H   0  0  0  0  0  0  0  0  0  0  0  0
   -1.2473    4.0350   -0.6315 C   0  0  0  0  0  0  0  0  0  0  0  0
   -2.0563    4.2076   -1.3649 H   0  0  0  0  0  0  0  0  0  0  0  0
   -0.3246    3.7717   -1.1935 H   0  0  0  0  0  0  0  0  0  0  0  0
   -1.0570    4.9651   -0.0501 H   0  0  0  0  0  0  0  0  0  0  0  0
    0.8129   -1.7351   -2.9257 H   0  0  0  0  0  0  0  0  0  0  0  0
  1 31  1  0  0  0  0
  2  7  1  0  0  0  0
  3 18  1  0  0  0  0
  3  7  1  0  0  0  0
  4 18  2  0  0  0  0
  5 19  1  0  0  0  0
  6 39  1  0  0  0  0
  6 30  1  0  0  0  0
  7  1  1  0  0  0  0
  7  8  1  0  0  0  0
  8  9  1  0  0  0  0
  9 10  1  0  0  0  0
  9 11  2  0  0  0  0
 11 12  1  0  0  0  0
 13 11  1  0  0  0  0
 13 14  1  0  0  0  0
 15 13  2  0  0  0  0
 16 15  1  0  0  0  0
 17  8  2  0  0  0  0
 17 15  1  0  0  0  0
 18 17  1  0  0  0  0
 19  4  1  0  0  0  0
 20 21  1  0  0  0  0
 20 19  2  0  0  0  0
 21 22  1  0  0  0  0
 23 24  1  0  0  0  0
 23 21  2  0  0  0  0
 25 23  1  0  0  0  0
 26 25  1  0  0  0  0
 27 25  2  0  0  0  0
 27 29  1  0  0  0  0
 28 27  1  0  0  0  0
 29 20  1  0  0  0  0
 30 29  1  0  0  0  0
 30  5  2  0  0  0  0
 31 32  1  0  0  0  0
 31 34  1  0  0  0  0
 33 31  1  0  0  0  0
 35 38  1  0  0  0  0
 35  2  1  0  0  0  0
 36 35  1  0  0  0  0
 37 35  1  0  0  0  0
M  END
