2,3
 OpenBabel05122313053D

 29 32  0  0  0  0  0  0  0  0999 V2000
   -1.5490    3.6967    0.1411 N   0  0  0  0  0  0  0  0  0  0  0  0
   -1.3487    1.3981    0.1020 N   0  0  0  0  0  0  0  0  0  0  0  0
    1.3312    1.4965   -0.3892 N   0  0  0  0  0  2  0  0  0  0  0  0
    2.6852    1.5170   -0.6609 C   0  0  0  0  0  0  0  0  0  0  0  0
    3.3945    0.3053   -0.8811 C   0  0  0  0  0  0  0  0  0  0  0  0
    2.8403   -0.6388   -0.8286 H   0  0  0  0  0  0  0  0  0  0  0  0
    4.7566    0.3173   -1.1545 C   0  0  0  0  0  0  0  0  0  0  0  0
    5.2774   -0.6381   -1.3194 H   0  0  0  0  0  0  0  0  0  0  0  0
    5.4761    1.5363   -1.2215 C   0  0  0  0  0  0  0  0  0  0  0  0
    6.5556    1.5298   -1.4339 H   0  0  0  0  0  0  0  0  0  0  0  0
    4.8075    2.7376   -1.0250 C   0  0  0  0  0  3  0  0  0  0  0  0
    5.3451    3.6969   -1.0837 H   0  0  0  0  0  0  0  0  0  0  0  0
    3.4130    2.7611   -0.7510 C   0  0  0  0  0  0  0  0  0  0  0  0
    2.6922    3.9802   -0.5734 C   0  0  0  0  0  0  0  0  0  0  0  0
    3.2314    4.9383   -0.6373 H   0  0  0  0  0  0  0  0  0  0  0  0
    1.3380    3.9399   -0.3371 C   0  0  0  0  0  0  0  0  0  0  0  0
    0.7129    4.8337   -0.2038 H   0  0  0  0  0  0  0  0  0  0  0  0
    0.6807    2.6760   -0.2503 C   0  0  0  0  0  0  0  0  0  0  0  0
   -0.7444    2.6272   -0.0043 C   0  0  0  0  0  0  0  0  0  0  0  0
   -2.7791    3.1332    0.3548 C   0  0  0  0  0  3  0  0  0  0  0  0
   -4.0350    3.7475    0.5779 C   0  0  0  0  0  0  0  0  0  0  0  0
   -4.1167    4.8445    0.5906 H   0  0  0  0  0  0  0  0  0  0  0  0
   -5.1420    2.9236    0.7772 C   0  0  0  0  0  0  0  0  0  0  0  0
   -6.1309    3.3743    0.9531 H   0  0  0  0  0  0  0  0  0  0  0  0
   -5.0251    1.5041    0.7597 C   0  0  0  0  0  0  0  0  0  0  0  0
   -5.9264    0.8933    0.9230 H   0  0  0  0  0  0  0  0  0  0  0  0
   -3.8028    0.8656    0.5414 C   0  0  0  0  0  0  0  0  0  0  0  0
   -3.7223   -0.2294    0.5318 H   0  0  0  0  0  0  0  0  0  0  0  0
   -2.6714    1.6872    0.3350 C   0  0  0  0  0  0  0  0  0  0  0  0
  1 20  1  0  0  0  0
  2 29  2  0  0  0  0
  3 18  1  0  0  0  0
  4  3  1  0  0  0  0
  5  6  1  0  0  0  0
  5  4  2  0  0  0  0
  7  5  1  0  0  0  0
  8  7  1  0  0  0  0
  9  7  2  0  0  0  0
  9 11  1  0  0  0  0
 10  9  1  0  0  0  0
 11 13  1  0  0  0  0
 12 11  1  0  0  0  0
 13  4  1  0  0  0  0
 13 14  2  0  0  0  0
 14 16  1  0  0  0  0
 15 14  1  0  0  0  0
 16 18  2  0  0  0  0
 16 17  1  0  0  0  0
 18 19  1  0  0  0  0
 19  2  1  0  0  0  0
 19  1  2  0  0  0  0
 20 21  1  0  0  0  0
 21 22  1  0  0  0  0
 21 23  2  0  0  0  0
 23 24  1  0  0  0  0
 25 23  1  0  0  0  0
 25 26  1  0  0  0  0
 27 25  2  0  0  0  0
 28 27  1  0  0  0  0
 29 20  1  0  0  0  0
 29 27  1  0  0  0  0
M  END
