1,4
 OpenBabel05122313053D

 30 33  0  0  1  0  0  0  0  0999 V2000
   -1.3449    1.4237   -0.2235 N   0  0  0  0  0  2  0  0  0  0  0  0
   -1.6733    3.6358   -0.2345 N   0  0  0  0  0  0  0  0  0  0  0  0
   -1.4824    4.6343   -0.1565 H   0  0  0  0  0  0  0  0  0  0  0  0
    1.3171    1.5631    0.3415 N   0  0  0  0  0  2  0  0  0  0  0  0
    2.6680    1.5976    0.6167 C   0  0  2  0  0  3  0  0  0  0  0  0
    3.3759    0.3935    0.8795 C   0  0  0  0  0  0  0  0  0  0  0  0
    2.8239   -0.5535    0.8624 H   0  0  0  0  0  0  0  0  0  0  0  0
    4.7359    0.4212    1.1537 C   0  0  0  0  0  0  0  0  0  0  0  0
    5.2611   -0.5243    1.3551 H   0  0  0  0  0  0  0  0  0  0  0  0
    5.4539    1.6455    1.1781 C   0  0  0  0  0  0  0  0  0  0  0  0
    6.5327    1.6453    1.3922 H   0  0  0  0  0  0  0  0  0  0  0  0
    4.7900    2.8397    0.9407 C   0  0  0  0  0  0  0  0  0  0  0  0
    5.3284    3.7991    0.9676 H   0  0  0  0  0  0  0  0  0  0  0  0
    3.3943    2.8487    0.6652 C   0  0  0  0  0  0  0  0  0  0  0  0
    2.6753    4.0539    0.4453 C   0  0  0  0  0  0  0  0  0  0  0  0
    3.2067    5.0171    0.4737 H   0  0  0  0  0  0  0  0  0  0  0  0
    1.3167    4.0011    0.2058 C   0  0  0  0  0  0  0  0  0  0  0  0
    0.7454    4.9248    0.0378 H   0  0  0  0  0  0  0  0  0  0  0  0
    0.6676    2.7360    0.1609 C   0  0  0  0  0  0  0  0  0  0  0  0
   -0.7591    2.6204   -0.0921 C   0  0  2  0  0  3  0  0  0  0  0  0
   -2.6942    1.6520   -0.4578 C   0  0  0  0  0  0  0  0  0  0  0  0
   -3.7661    0.7623   -0.6764 C   0  0  0  0  0  0  0  0  0  0  0  0
   -3.6054   -0.3228   -0.6823 H   0  0  0  0  0  0  0  0  0  0  0  0
   -5.0280    1.3225   -0.8874 C   0  0  0  0  0  0  0  0  0  0  0  0
   -5.8864    0.6573   -1.0607 H   0  0  0  0  0  0  0  0  0  0  0  0
   -5.2357    2.7260   -0.8854 C   0  0  0  0  0  0  0  0  0  0  0  0
   -6.2491    3.1182   -1.0556 H   0  0  0  0  0  0  0  0  0  0  0  0
   -4.1852    3.6250   -0.6749 C   0  0  0  0  0  0  0  0  0  0  0  0
   -4.3491    4.7120   -0.6764 H   0  0  0  0  0  0  0  0  0  0  0  0
   -2.9155    3.0648   -0.4639 C   0  0  0  0  0  0  0  0  0  0  0  0
  1 20  1  0  0  0  0
  2  3  1  0  0  0  0
  2 20  1  0  0  0  0
  5  4  1  1  0  0  0
  5 14  1  0  0  0  0
  5  6  1  0  0  0  0
  6  8  2  0  0  0  0
  7  6  1  0  0  0  0
  8 10  1  0  0  0  0
  8  9  1  0  0  0  0
 10 11  1  0  0  0  0
 12 13  1  0  0  0  0
 12 10  2  0  0  0  0
 14 12  1  0  0  0  0
 15 16  1  0  0  0  0
 15 14  2  0  0  0  0
 17 15  1  0  0  0  0
 18 17  1  0  0  0  0
 19 17  2  0  0  0  0
 19  4  1  0  0  0  0
 20 19  1  6  0  0  0
 21  1  1  0  0  0  0
 22 21  2  0  0  0  0
 23 22  1  0  0  0  0
 24 26  2  0  0  0  0
 24 22  1  0  0  0  0
 25 24  1  0  0  0  0
 26 28  1  0  0  0  0
 27 26  1  0  0  0  0
 28 30  2  0  0  0  0
 29 28  1  0  0  0  0
 30 21  1  0  0  0  0
 30  2  1  0  0  0  0
M  END
