2,13
 OpenBabel05122313053D

 22 23  0  0  1  0  0  0  0  0999 V2000
   -2.7423   -2.3713   -1.5794 F   0  0  0  0  0  0  0  0  0  0  0  0
   -0.3246    1.4973   -1.0831 N   0  0  0  0  0  2  0  0  0  0  0  0
   -3.6479    1.3261    1.2322 F   0  0  0  0  0  0  0  0  0  0  0  0
   -1.6740    1.3259   -0.9944 C   0  0  1  0  0  3  0  0  0  0  0  0
   -2.5594    2.3723   -1.3477 C   0  0  0  0  0  0  0  0  0  0  0  0
   -3.6461    2.2332   -1.2835 H   0  0  0  0  0  0  0  0  0  0  0  0
   -1.9925    3.5734   -1.7813 C   0  0  0  0  0  0  0  0  0  0  0  0
   -2.6516    4.4085   -2.0654 H   0  0  0  0  0  0  0  0  0  0  0  0
   -0.5925    3.7292   -1.8632 C   0  0  0  0  0  0  0  0  0  0  0  0
   -0.1405    4.6696   -2.2057 H   0  0  0  0  0  0  0  0  0  0  0  0
    0.2167    2.6457   -1.5013 C   0  0  0  0  0  0  0  0  0  0  0  0
    1.3162    2.6758   -1.5467 H   0  0  0  0  0  0  0  0  0  0  0  0
   -1.9041    0.0444   -0.5793 N   0  0  0  0  0  2  0  0  0  0  0  0
   -3.1362   -0.4826   -0.2149 C   0  0  0  0  0  0  0  0  0  0  0  0
   -3.5469   -1.7458   -0.7127 C   0  0  0  0  0  0  0  0  0  0  0  0
   -4.7562   -2.3401   -0.3427 C   0  0  0  0  0  0  0  0  0  0  0  0
   -5.0147   -3.3190   -0.7694 H   0  0  0  0  0  0  0  0  0  0  0  0
   -5.6059   -1.6714    0.5519 C   0  0  0  0  0  0  0  0  0  0  0  0
   -6.5604   -2.1309    0.8465 H   0  0  0  0  0  0  0  0  0  0  0  0
   -5.2424   -0.4221    1.0774 C   0  0  0  0  0  0  0  0  0  0  0  0
   -5.8785    0.1203    1.7906 H   0  0  0  0  0  0  0  0  0  0  0  0
   -4.0227    0.1396    0.6951 C   0  0  0  0  0  0  0  0  0  0  0  0
  1 15  1  0  0  0  0
  2  4  1  0  0  0  0
  4 13  1  6  0  0  0
  5  6  1  0  0  0  0
  5  4  1  0  0  0  0
  7  5  2  0  0  0  0
  8  7  1  0  0  0  0
  9  7  1  0  0  0  0
  9 11  2  0  0  0  0
 10  9  1  0  0  0  0
 11  2  1  0  0  0  0
 12 11  1  0  0  0  0
 13 14  1  0  0  0  0
 14 22  1  0  0  0  0
 15 16  1  0  0  0  0
 15 14  2  0  0  0  0
 16 18  2  0  0  0  0
 17 16  1  0  0  0  0
 18 19  1  0  0  0  0
 18 20  1  0  0  0  0
 20 21  1  0  0  0  0
 22 20  2  0  0  0  0
 22  3  1  0  0  0  0
M  END
