1,3
 OpenBabel05122313053D

 37 40  0  0  0  0  0  0  0  0999 V2000
    1.8863   -2.0374    0.2651 N   0  0  0  0  0  2  0  0  0  0  0  0
    2.1346   -4.8229    0.5754 N   0  0  0  0  0  0  0  0  0  0  0  0
   -0.3876   -0.7867    0.1051 N   0  0  0  0  0  2  0  0  0  0  0  0
   -1.5166   -0.0776    0.1737 N   0  0  0  0  0  2  0  0  0  0  0  0
   -1.6328   -2.8217    0.1607 N   0  0  0  0  0  0  0  0  0  0  0  0
    3.0993   -2.6200    0.3793 C   0  0  0  0  0  3  0  0  0  0  0  0
    3.9728   -1.9515    0.3370 H   0  0  0  0  0  0  0  0  0  0  0  0
    3.2076   -4.0059    0.5356 C   0  0  0  0  0  0  0  0  0  0  0  0
    4.2034   -4.4696    0.6286 H   0  0  0  0  0  0  0  0  0  0  0  0
    0.9404   -4.2437    0.4651 C   0  0  0  0  0  0  0  0  0  0  0  0
    0.0371   -4.8751    0.4877 H   0  0  0  0  0  0  0  0  0  0  0  0
    0.7930   -2.8465    0.3171 C   0  0  0  0  0  0  0  0  0  0  0  0
   -0.4804   -2.1654    0.2045 C   0  0  0  0  0  0  0  0  0  0  0  0
   -2.7777   -2.1319    0.0595 C   0  0  0  0  0  0  0  0  0  0  0  0
   -2.7002   -0.6932    0.1883 C   0  0  0  0  0  0  0  0  0  0  0  0
   -3.8561    0.2094    0.4089 C   0  0  0  0  0  0  0  0  0  0  0  0
   -3.8557    1.4973   -0.1712 C   0  0  0  0  0  0  0  0  0  0  0  0
   -3.0164    1.7898   -0.8176 H   0  0  0  0  0  0  0  0  0  0  0  0
   -4.9107    2.3855    0.0749 C   0  0  0  0  0  0  0  0  0  0  0  0
   -4.8981    3.3874   -0.3800 H   0  0  0  0  0  0  0  0  0  0  0  0
   -5.9712    2.0031    0.9124 C   0  0  0  0  0  0  0  0  0  0  0  0
   -6.7984    2.7020    1.1085 H   0  0  0  0  0  0  0  0  0  0  0  0
   -5.9713    0.7291    1.5051 C   0  0  0  0  0  0  0  0  0  0  0  0
   -6.7927    0.4312    2.1739 H   0  0  0  0  0  0  0  0  0  0  0  0
   -4.9239   -0.1658    1.2548 C   0  0  0  0  0  0  0  0  0  0  0  0
   -4.9237   -1.1568    1.7308 H   0  0  0  0  0  0  0  0  0  0  0  0
   -4.0112   -2.8994   -0.2035 C   0  0  0  0  0  0  0  0  0  0  0  0
   -5.0618   -2.3732   -0.9916 C   0  0  0  0  0  0  0  0  0  0  0  0
   -4.9794   -1.3607   -1.4106 H   0  0  0  0  0  0  0  0  0  0  0  0
   -6.1969   -3.1462   -1.2633 C   0  0  0  0  0  0  0  0  0  0  0  0
   -7.0013   -2.7288   -1.8873 H   0  0  0  0  0  0  0  0  0  0  0  0
   -6.3076   -4.4489   -0.7492 C   0  0  0  0  0  0  0  0  0  0  0  0
   -7.2053   -5.0501   -0.9581 H   0  0  0  0  0  0  0  0  0  0  0  0
   -5.2644   -4.9839    0.0252 C   0  0  0  0  0  0  0  0  0  0  0  0
   -5.3430   -6.0057    0.4261 H   0  0  0  0  0  0  0  0  0  0  0  0
   -4.1212   -4.2209    0.2880 C   0  0  0  0  0  0  0  0  0  0  0  0
   -3.2941   -4.6319    0.8842 H   0  0  0  0  0  0  0  0  0  0  0  0
  1 12  1  0  0  0  0
  1  6  1  0  0  0  0
  3  4  1  0  0  0  0
  3 13  1  0  0  0  0
  4 15  1  0  0  0  0
  5 13  2  0  0  0  0
  6  8  1  0  0  0  0
  7  6  1  0  0  0  0
  8  2  2  0  0  0  0
  8  9  1  0  0  0  0
 10 11  1  0  0  0  0
 10  2  1  0  0  0  0
 12 10  2  0  0  0  0
 13 12  1  0  0  0  0
 14  5  1  0  0  0  0
 14 15  2  0  0  0  0
 15 16  1  0  0  0  0
 16 25  1  0  0  0  0
 17 19  1  0  0  0  0
 17 16  2  0  0  0  0
 18 17  1  0  0  0  0
 19 21  2  0  0  0  0
 20 19  1  0  0  0  0
 21 22  1  0  0  0  0
 21 23  1  0  0  0  0
 23 24  1  0  0  0  0
 25 23  2  0  0  0  0
 25 26  1  0  0  0  0
 27 14  1  0  0  0  0
 27 36  1  0  0  0  0
 28 27  2  0  0  0  0
 29 28  1  0  0  0  0
 30 28  1  0  0  0  0
 30 32  2  0  0  0  0
 31 30  1  0  0  0  0
 32 34  1  0  0  0  0
 33 32  1  0  0  0  0
 34 36  2  0  0  0  0
 34 35  1  0  0  0  0
 36 37  1  0  0  0  0
M  END
