2,3
 OpenBabel05122313053D

 44 46  0  0  1  0  0  0  0  0999 V2000
    7.0644   -1.0917   -0.4720 Cl  0  0  0  0  0  0  0  0  0  0  0  0
   -1.7532    0.6433    0.0165 N   0  0  0  0  0  2  0  0  0  0  0  0
    1.1591   -0.0778   -0.7155 N   0  0  0  0  0  2  0  0  0  0  0  0
   -4.5723   -1.3361   -1.0599 N   0  0  0  0  0  0  0  0  0  0  0  0
   -5.9105   -1.3070   -1.1256 C   0  0  0  0  0  0  0  0  0  0  0  0
   -6.3983   -2.1965   -1.5626 H   0  0  0  0  0  0  0  0  0  0  0  0
   -6.6835   -0.2257   -0.6723 C   0  0  0  0  0  0  0  0  0  0  0  0
   -7.7804   -0.2544   -0.7504 H   0  0  0  0  0  0  0  0  0  0  0  0
   -6.0184    0.8813   -0.1193 C   0  0  0  0  0  0  0  0  0  0  0  0
   -6.5857    1.7490    0.2513 H   0  0  0  0  0  0  0  0  0  0  0  0
   -4.6230    0.8600   -0.0470 C   0  0  0  0  0  0  0  0  0  0  0  0
   -4.0385    1.6907    0.3748 H   0  0  0  0  0  0  0  0  0  0  0  0
   -3.9319   -0.2727   -0.5329 C   0  0  0  0  0  0  0  0  0  0  0  0
   -2.4336   -0.3079   -0.4739 C   0  0  0  0  0  0  0  0  0  0  0  0
   -1.7047   -1.5733   -1.0202 C   0  0  1  0  0  0  0  0  0  0  0  0
   -2.4964   -2.1640   -1.5250 H   0  0  0  0  0  0  0  0  0  0  0  0
   -0.6803   -1.1865   -2.0623 C   0  0  0  0  0  0  0  0  0  0  0  0
    0.5240   -0.5595   -1.8712 C   0  0  0  0  0  0  0  0  0  0  0  0
    1.1197   -0.4107   -2.7987 H   0  0  0  0  0  0  0  0  0  0  0  0
   -1.1174   -1.4716   -3.4804 C   0  0  0  0  0  0  0  0  0  0  0  0
   -0.3555   -1.1608   -4.2224 H   0  0  0  0  0  0  0  0  0  0  0  0
   -2.0646   -0.9408   -3.7262 H   0  0  0  0  0  0  0  0  0  0  0  0
   -1.3250   -2.5537   -3.6296 H   0  0  0  0  0  0  0  0  0  0  0  0
   -1.2461   -2.4067    0.1770 C   0  0  0  0  0  0  0  0  0  0  0  0
   -2.2002   -2.7772    1.1518 C   0  0  0  0  0  0  0  0  0  0  0  0
   -3.2521   -2.4834    1.0167 H   0  0  0  0  0  0  0  0  0  0  0  0
   -1.8297   -3.5186    2.2830 C   0  0  0  0  0  0  0  0  0  0  0  0
   -2.5913   -3.7909    3.0299 H   0  0  0  0  0  0  0  0  0  0  0  0
   -0.4931   -3.9127    2.4624 C   0  0  0  0  0  0  0  0  0  0  0  0
   -0.1970   -4.4867    3.3535 H   0  0  0  0  0  0  0  0  0  0  0  0
    0.4564   -3.5758    1.4861 C   0  0  0  0  0  0  0  0  0  0  0  0
    1.5059   -3.8877    1.6026 H   0  0  0  0  0  0  0  0  0  0  0  0
    0.0821   -2.8337    0.3542 C   0  0  0  0  0  0  0  0  0  0  0  0
    0.8349   -2.5784   -0.3996 H   0  0  0  0  0  0  0  0  0  0  0  0
    2.5372   -0.3025   -0.6793 C   0  0  0  0  0  0  0  0  0  0  0  0
    3.1287   -1.4307   -1.3158 C   0  0  0  0  0  0  0  0  0  0  0  0
    2.4838   -2.1417   -1.8527 H   0  0  0  0  0  0  0  0  0  0  0  0
    4.5058   -1.6726   -1.2564 C   0  0  0  0  0  0  0  0  0  0  0  0
    4.9371   -2.5571   -1.7469 H   0  0  0  0  0  0  0  0  0  0  0  0
    5.3431   -0.7898   -0.5565 C   0  0  0  0  0  0  0  0  0  0  0  0
    4.7977    0.3442    0.0677 C   0  0  0  0  0  0  0  0  0  0  0  0
    5.4594    1.0475    0.5933 H   0  0  0  0  0  0  0  0  0  0  0  0
    3.4222    0.5837   -0.0065 C   0  0  0  0  0  0  0  0  0  0  0  0
    3.0226    1.4996    0.4512 H   0  0  0  0  0  0  0  0  0  0  0  0
  3 35  1  0  0  0  0
  4 13  1  0  0  0  0
  5  4  2  0  0  0  0
  5  7  1  0  0  0  0
  6  5  1  0  0  0  0
  7  9  2  0  0  0  0
  8  7  1  0  0  0  0
  9 11  1  0  0  0  0
  9 10  1  0  0  0  0
 11 12  1  0  0  0  0
 13 14  1  0  0  0  0
 13 11  2  0  0  0  0
 14  2  2  0  0  0  0
 15 16  1  6  0  0  0
 15 14  1  0  0  0  0
 15 24  1  0  0  0  0
 17 18  2  0  0  0  0
 17 15  1  0  0  0  0
 18  3  1  0  0  0  0
 19 18  1  0  0  0  0
 20 17  1  0  0  0  0
 21 20  1  0  0  0  0
 22 20  1  0  0  0  0
 23 20  1  0  0  0  0
 24 33  2  0  0  0  0
 24 25  1  0  0  0  0
 25 27  2  0  0  0  0
 26 25  1  0  0  0  0
 27 29  1  0  0  0  0
 27 28  1  0  0  0  0
 29 30  1  0  0  0  0
 31 32  1  0  0  0  0
 31 29  2  0  0  0  0
 33 31  1  0  0  0  0
 34 33  1  0  0  0  0
 35 43  1  0  0  0  0
 36 38  1  0  0  0  0
 36 35  2  0  0  0  0
 37 36  1  0  0  0  0
 38 40  2  0  0  0  0
 39 38  1  0  0  0  0
 40  1  1  0  0  0  0
 40 41  1  0  0  0  0
 41 42  1  0  0  0  0
 43 41  2  0  0  0  0
 43 44  1  0  0  0  0
M  END
