1,10
 OpenBabel05122313053D

 56 59  0  0  0  0  0  0  0  0999 V2000
   -2.1695   -0.5052    0.0769 N   0  0  0  0  0  2  0  0  0  0  0  0
   -0.9945   -1.1413    0.0808 C   0  0  0  0  0  0  0  0  0  0  0  0
   -0.8111   -2.5636    0.1224 C   0  0  0  0  0  0  0  0  0  0  0  0
   -1.6923   -3.2202    0.1440 H   0  0  0  0  0  0  0  0  0  0  0  0
    0.4566   -3.0977    0.1543 C   0  0  0  0  0  0  0  0  0  0  0  0
    1.6515   -2.2514    0.1602 C   0  0  0  0  0  0  0  0  0  0  0  0
    1.4906   -0.8708    0.1625 C   0  0  0  0  0  0  0  0  0  0  0  0
    2.3570   -0.2108    0.2555 H   0  0  0  0  0  0  0  0  0  0  0  0
    0.1945   -0.2807    0.1015 C   0  0  0  0  0  0  0  0  0  0  0  0
   -0.0568    1.0378    0.1076 N   0  0  0  0  0  2  0  0  0  0  0  0
    1.0079    1.9635    0.0176 C   0  0  0  0  0  0  0  0  0  0  0  0
    1.8833    1.9433   -1.0893 C   0  0  0  0  0  0  0  0  0  0  0  0
    1.7104    1.2168   -1.8974 H   0  0  0  0  0  0  0  0  0  0  0  0
    2.9367    2.8613   -1.1708 C   0  0  0  0  0  0  0  0  0  0  0  0
    3.6025    2.8422   -2.0484 H   0  0  0  0  0  0  0  0  0  0  0  0
    3.1506    3.8196   -0.1587 C   0  0  0  0  0  0  0  0  0  0  0  0
    2.2595    3.8331    0.9355 C   0  0  0  0  0  0  0  0  0  0  0  0
    2.3986    4.5773    1.7354 H   0  0  0  0  0  0  0  0  0  0  0  0
    1.1911    2.9357    1.0224 C   0  0  0  0  0  0  0  0  0  0  0  0
    0.4899    2.9666    1.8662 H   0  0  0  0  0  0  0  0  0  0  0  0
   -3.3825   -1.2264   -0.0235 C   0  0  0  0  0  0  0  0  0  0  0  0
   -3.6372   -2.0544   -1.1363 C   0  0  0  0  0  0  0  0  0  0  0  0
   -2.8897   -2.1199   -1.9408 H   0  0  0  0  0  0  0  0  0  0  0  0
   -4.8478   -2.7516   -1.2304 C   0  0  0  0  0  0  0  0  0  0  0  0
   -5.0403   -3.3812   -2.1135 H   0  0  0  0  0  0  0  0  0  0  0  0
   -5.8306   -2.6487   -0.2249 C   0  0  0  0  0  0  0  0  0  0  0  0
   -5.5610   -1.8108    0.8784 C   0  0  0  0  0  0  0  0  0  0  0  0
   -6.3158   -1.7053    1.6734 H   0  0  0  0  0  0  0  0  0  0  0  0
   -4.3676   -1.0902    0.9766 C   0  0  0  0  0  0  0  0  0  0  0  0
   -4.1762   -0.4193    1.8239 H   0  0  0  0  0  0  0  0  0  0  0  0
    2.8475   -2.9263    0.2096 N   0  0  0  0  0  0  0  0  0  0  0  0
    2.7492   -3.9277    0.3939 H   0  0  0  0  0  0  0  0  0  0  0  0
    4.1638   -2.4567    0.1077 C   0  0  0  0  0  0  0  0  0  0  0  0
    4.5250   -1.2716   -0.5726 C   0  0  0  0  0  0  0  0  0  0  0  0
    3.7671   -0.6577   -1.0740 H   0  0  0  0  0  0  0  0  0  0  0  0
    5.8700   -0.8905   -0.6501 C   0  0  0  0  0  0  0  0  0  0  0  0
    6.1234    0.0372   -1.1872 H   0  0  0  0  0  0  0  0  0  0  0  0
    6.9008   -1.6593   -0.0743 C   0  0  0  0  0  0  0  0  0  0  0  0
    6.5288   -2.8538    0.5783 C   0  0  0  0  0  0  0  0  0  0  0  0
    7.3066   -3.4899    1.0296 H   0  0  0  0  0  0  0  0  0  0  0  0
    5.1916   -3.2462    0.6741 C   0  0  0  0  0  0  0  0  0  0  0  0
    4.9283   -4.1778    1.1998 H   0  0  0  0  0  0  0  0  0  0  0  0
   -7.1475   -3.3719   -0.3409 C   0  0  0  0  0  0  0  0  0  0  0  0
   -7.0992   -4.1991   -1.0757 H   0  0  0  0  0  0  0  0  0  0  0  0
   -7.9503   -2.6796   -0.6744 H   0  0  0  0  0  0  0  0  0  0  0  0
   -7.4702   -3.7908    0.6335 H   0  0  0  0  0  0  0  0  0  0  0  0
    0.7158   -4.4307    0.2162 O   0  0  0  0  0  0  0  0  0  0  0  0
   -0.1251   -4.9243    0.2574 H   0  0  0  0  0  0  0  0  0  0  0  0
    8.3391   -1.2142   -0.1309 C   0  0  0  0  0  0  0  0  0  0  0  0
    8.5279   -0.5522   -0.9986 H   0  0  0  0  0  0  0  0  0  0  0  0
    9.0320   -2.0765   -0.1968 H   0  0  0  0  0  0  0  0  0  0  0  0
    8.6173   -0.6438    0.7819 H   0  0  0  0  0  0  0  0  0  0  0  0
    4.2674    4.8264   -0.2575 C   0  0  0  0  0  0  0  0  0  0  0  0
    3.8804    5.8175   -0.5786 H   0  0  0  0  0  0  0  0  0  0  0  0
    5.0349    4.5176   -0.9937 H   0  0  0  0  0  0  0  0  0  0  0  0
    4.7664    4.9789    0.7207 H   0  0  0  0  0  0  0  0  0  0  0  0
  1  2  1  0  0  0  0
  2  9  2  0  0  0  0
  2  3  1  0  0  0  0
  3  4  1  0  0  0  0
  3  5  2  0  0  0  0
  5  6  1  0  0  0  0
  5 47  1  0  0  0  0
  6  7  2  0  0  0  0
  6 31  1  0  0  0  0
  7  8  1  0  0  0  0
  9 10  1  0  0  0  0
  9  7  1  0  0  0  0
 11 10  1  0  0  0  0
 11 19  1  0  0  0  0
 12 11  2  0  0  0  0
 13 12  1  0  0  0  0
 14 12  1  0  0  0  0
 14 16  2  0  0  0  0
 15 14  1  0  0  0  0
 16 17  1  0  0  0  0
 17 19  2  0  0  0  0
 17 18  1  0  0  0  0
 19 20  1  0  0  0  0
 21  1  1  0  0  0  0
 21 29  1  0  0  0  0
 22 21  2  0  0  0  0
 23 22  1  0  0  0  0
 24 22  1  0  0  0  0
 24 26  2  0  0  0  0
 25 24  1  0  0  0  0
 26 27  1  0  0  0  0
 27 29  2  0  0  0  0
 27 28  1  0  0  0  0
 29 30  1  0  0  0  0
 31 32  1  0  0  0  0
 33 31  1  0  0  0  0
 33 41  1  0  0  0  0
 34 33  2  0  0  0  0
 35 34  1  0  0  0  0
 36 34  1  0  0  0  0
 36 38  2  0  0  0  0
 37 36  1  0  0  0  0
 38 39  1  0  0  0  0
 39 41  2  0  0  0  0
 39 40  1  0  0  0  0
 41 42  1  0  0  0  0
 43 26  1  0  0  0  0
 43 46  1  0  0  0  0
 44 43  1  0  0  0  0
 45 43  1  0  0  0  0
 47 48  1  0  0  0  0
 49 38  1  0  0  0  0
 49 52  1  0  0  0  0
 50 49  1  0  0  0  0
 51 49  1  0  0  0  0
 53 16  1  0  0  0  0
 53 56  1  0  0  0  0
 54 53  1  0  0  0  0
 55 53  1  0  0  0  0
M  END
