1,2
 OpenBabel05122313053D

 33 35  0  0  1  0  0  0  0  0999 V2000
    0.4976   -0.0771   -0.0041 N   0  0  0  0  0  2  0  0  0  0  0  0
   -1.9086    0.1970   -0.0044 N   0  0  0  0  0  2  0  0  0  0  0  0
   -1.2313    1.3981   -0.0072 N   0  0  0  0  0  0  0  0  0  0  0  0
    0.1534    1.2412   -0.0054 C   0  0  0  0  0  0  0  0  0  0  0  0
    1.1077    2.2778   -0.0027 C   0  0  0  0  0  0  0  0  0  0  0  0
    0.7748    3.3215   -0.0029 H   0  0  0  0  0  0  0  0  0  0  0  0
    2.4687    1.9828    0.0019 C   0  0  0  0  0  0  0  0  0  0  0  0
    2.8595    0.5975    0.0011 C   0  0  0  0  0  0  0  0  0  0  0  0
    1.8420   -0.4174   -0.0041 C   0  0  2  0  0  3  0  0  0  0  0  0
    2.1986   -1.7874   -0.0099 C   0  0  0  0  0  0  0  0  0  0  0  0
    1.4049   -2.5493   -0.0204 H   0  0  0  0  0  0  0  0  0  0  0  0
    3.5375   -2.1622   -0.0069 C   0  0  0  0  0  0  0  0  0  0  0  0
    3.8044   -3.2292   -0.0117 H   0  0  0  0  0  0  0  0  0  0  0  0
    4.5525   -1.1765    0.0010 C   0  0  0  0  0  0  0  0  0  0  0  0
    5.6102   -1.4792    0.0036 H   0  0  0  0  0  0  0  0  0  0  0  0
    4.2183    0.1733    0.0042 C   0  0  0  0  0  0  0  0  0  0  0  0
    5.0145    0.9310    0.0087 H   0  0  0  0  0  0  0  0  0  0  0  0
    3.4951    3.0797    0.0069 C   0  0  0  0  0  0  0  0  0  0  0  0
    3.0169    4.0775    0.0064 H   0  0  0  0  0  0  0  0  0  0  0  0
    4.1596    3.0213   -0.8812 H   0  0  0  0  0  0  0  0  0  0  0  0
    4.1530    3.0191    0.8998 H   0  0  0  0  0  0  0  0  0  0  0  0
   -2.1280    2.4558   -0.0111 C   0  0  2  0  0  3  0  0  0  0  0  0
   -3.3951    1.8727   -0.0102 C   0  0  0  0  0  0  0  0  0  0  0  0
   -4.3464    2.4150   -0.0127 H   0  0  0  0  0  0  0  0  0  0  0  0
   -3.2285    0.4631   -0.0057 C   0  0  0  0  0  0  0  0  0  0  0  0
   -1.7356    3.8930   -0.0160 C   0  0  0  0  0  0  0  0  0  0  0  0
   -2.6489    4.5158   -0.0210 H   0  0  0  0  0  0  0  0  0  0  0  0
   -1.1386    4.1653   -0.9122 H   0  0  0  0  0  0  0  0  0  0  0  0
   -1.1436    4.1729    0.8812 H   0  0  0  0  0  0  0  0  0  0  0  0
   -4.2105   -0.6589   -0.0019 C   0  0  0  0  0  0  0  0  0  0  0  0
   -4.0595   -1.3055   -0.8917 H   0  0  0  0  0  0  0  0  0  0  0  0
   -5.2489   -0.2811   -0.0042 H   0  0  0  0  0  0  0  0  0  0  0  0
   -4.0605   -1.2979    0.8934 H   0  0  0  0  0  0  0  0  0  0  0  0
  3  4  1  0  0  0  0
  3  2  1  0  0  0  0
  4  1  1  0  0  0  0
  4  5  2  0  0  0  0
  5  7  1  0  0  0  0
  6  5  1  0  0  0  0
  7 18  1  0  0  0  0
  8  7  2  0  0  0  0
  8 16  1  0  0  0  0
  9 10  1  6  0  0  0
  9  1  1  0  0  0  0
  9  8  1  0  0  0  0
 10 12  2  0  0  0  0
 11 10  1  0  0  0  0
 12 14  1  0  0  0  0
 13 12  1  0  0  0  0
 14 15  1  0  0  0  0
 14 16  2  0  0  0  0
 16 17  1  0  0  0  0
 18 21  1  0  0  0  0
 19 18  1  0  0  0  0
 20 18  1  0  0  0  0
 22 26  1  6  0  0  0
 22 23  1  0  0  0  0
 22  3  1  0  0  0  0
 23 25  2  0  0  0  0
 24 23  1  0  0  0  0
 25  2  1  0  0  0  0
 25 30  1  0  0  0  0
 26 29  1  0  0  0  0
 27 26  1  0  0  0  0
 28 26  1  0  0  0  0
 30 33  1  0  0  0  0
 31 30  1  0  0  0  0
 32 30  1  0  0  0  0
M  END
