3,5
 OpenBabel05122313053D

 27 27  0  0  1  0  0  0  0  0999 V2000
    0.5195    1.0278   -0.3327 O   0  0  0  0  0  0  0  0  0  0  0  0
    5.2371   -0.1568   -0.0391 O   0  0  0  0  0  0  0  0  0  0  0  0
    0.2717   -1.2158    0.1313 N   0  0  0  0  0  2  0  0  0  0  0  0
    0.7480   -2.0971    0.3313 H   0  0  0  0  0  0  0  0  0  0  0  0
   -0.8475    0.9363   -0.7611 N   0  0  0  0  0  2  0  0  0  0  0  0
    2.4103   -0.1281    0.0867 N   0  0  0  0  0  0  0  0  0  0  0  0
   -0.9124    3.1520    0.0443 N   0  0  0  0  0  0  0  0  0  0  0  0
   -0.0060    3.0300    0.4994 H   0  0  0  0  0  0  0  0  0  0  0  0
   -1.5233    3.8777    0.4165 H   0  0  0  0  0  0  0  0  0  0  0  0
    1.0466   -0.1864   -0.0206 C   0  0  1  0  0  3  0  0  0  0  0  0
   -1.4844    2.0533   -0.4977 C   0  0  2  0  0  3  0  0  0  0  0  0
   -2.9497    2.0452   -0.8049 C   0  0  0  0  0  0  0  0  0  0  0  0
   -3.4876    1.9402    0.1617 H   0  0  0  0  0  0  0  0  0  0  0  0
   -3.2025    1.1612   -1.4212 H   0  0  0  0  0  0  0  0  0  0  0  0
   -3.2617    2.9757   -1.3183 H   0  0  0  0  0  0  0  0  0  0  0  0
    3.1724   -1.1982    0.7258 C   0  0  0  0  0  0  0  0  0  0  0  0
    2.6112   -2.1507    0.6831 H   0  0  0  0  0  0  0  0  0  0  0  0
    3.3423   -0.9521    1.8001 H   0  0  0  0  0  0  0  0  0  0  0  0
    4.5167   -1.3737    0.0162 C   0  0  0  0  0  0  0  0  0  0  0  0
    5.1439   -2.1012    0.5683 H   0  0  0  0  0  0  0  0  0  0  0  0
    4.3371   -1.7701   -1.0141 H   0  0  0  0  0  0  0  0  0  0  0  0
    4.5031    0.8228   -0.7526 C   0  0  0  0  0  0  0  0  0  0  0  0
    4.3228    0.4872   -1.8040 H   0  0  0  0  0  0  0  0  0  0  0  0
    5.1238    1.7402   -0.7788 H   0  0  0  0  0  0  0  0  0  0  0  0
    3.1603    1.1192   -0.0835 C   0  0  0  0  0  0  0  0  0  0  0  0
    3.3373    1.5936    0.9105 H   0  0  0  0  0  0  0  0  0  0  0  0
    2.5694    1.8172   -0.7024 H   0  0  0  0  0  0  0  0  0  0  0  0
  2 19  1  0  0  0  0
  3  4  1  0  0  0  0
  5  1  1  0  0  0  0
  6 16  1  0  0  0  0
  7  9  1  0  0  0  0
  7  8  1  0  0  0  0
 10  1  1  6  0  0  0
 10  6  1  0  0  0  0
 10  3  1  0  0  0  0
 11  5  1  1  0  0  0
 11  7  1  0  0  0  0
 12 11  1  0  0  0  0
 12 13  1  0  0  0  0
 14 12  1  0  0  0  0
 15 12  1  0  0  0  0
 16 18  1  0  0  0  0
 17 16  1  0  0  0  0
 19 20  1  0  0  0  0
 19 16  1  0  0  0  0
 21 19  1  0  0  0  0
 22 25  1  0  0  0  0
 22  2  1  0  0  0  0
 23 22  1  0  0  0  0
 24 22  1  0  0  0  0
 25  6  1  0  0  0  0
 25 26  1  0  0  0  0
 27 25  1  0  0  0  0
M  END
