1,4
 OpenBabel05122313053D

 21 20  0  0  0  0  0  0  0  0999 V2000
    0.4405   -3.0811   -1.4413 N   0  0  0  0  0  0  0  0  0  0  0  0
    0.6169   -2.4679   -2.2490 H   0  0  0  0  0  0  0  0  0  0  0  0
    1.3597   -3.3863   -1.0915 H   0  0  0  0  0  0  0  0  0  0  0  0
   -1.1908   -3.1147    1.2494 N   0  0  0  0  0  0  0  0  0  0  0  0
   -0.4533   -4.1957   -1.7640 C   0  0  0  0  0  0  0  0  0  0  0  0
    0.0050   -4.9079   -2.4891 H   0  0  0  0  0  0  0  0  0  0  0  0
   -1.3502   -3.7640   -2.2556 H   0  0  0  0  0  0  0  0  0  0  0  0
   -0.8849   -4.9601   -0.5111 C   0  0  0  0  0  0  0  0  0  0  0  0
   -1.4415   -5.8623   -0.8400 H   0  0  0  0  0  0  0  0  0  0  0  0
    0.0102   -5.3499    0.0216 H   0  0  0  0  0  0  0  0  0  0  0  0
   -1.8043   -4.1994    0.4497 C   0  0  0  0  0  0  0  0  0  0  0  0
   -2.6231   -3.7304   -0.1338 H   0  0  0  0  0  0  0  0  0  0  0  0
   -2.2797   -4.9321    1.1495 H   0  0  0  0  0  0  0  0  0  0  0  0
   -0.1743   -3.6124    2.1867 C   0  0  0  0  0  0  0  0  0  0  0  0
   -0.6069   -4.3527    2.9022 H   0  0  0  0  0  0  0  0  0  0  0  0
    0.2422   -2.7552    2.7466 H   0  0  0  0  0  0  0  0  0  0  0  0
    0.6654   -4.0810    1.6417 H   0  0  0  0  0  0  0  0  0  0  0  0
   -2.2560   -2.4154    1.9927 C   0  0  0  0  0  0  0  0  0  0  0  0
   -2.7805   -3.1134    2.6881 H   0  0  0  0  0  0  0  0  0  0  0  0
   -2.9795   -1.9917    1.2716 H   0  0  0  0  0  0  0  0  0  0  0  0
   -1.8125   -1.5791    2.5617 H   0  0  0  0  0  0  0  0  0  0  0  0
  1  3  1  0  0  0  0
  2  1  1  0  0  0  0
  4 18  1  0  0  0  0
  4 14  1  0  0  0  0
  5  1  1  0  0  0  0
  5  8  1  0  0  0  0
  6  5  1  0  0  0  0
  7  5  1  0  0  0  0
  8 10  1  0  0  0  0
  8 11  1  0  0  0  0
  9  8  1  0  0  0  0
 11 13  1  0  0  0  0
 11  4  1  0  0  0  0
 12 11  1  0  0  0  0
 14 16  1  0  0  0  0
 14 15  1  0  0  0  0
 17 14  1  0  0  0  0
 18 21  1  0  0  0  0
 18 19  1  0  0  0  0
 20 18  1  0  0  0  0
M  END
