16,32
 OpenBabel05122313053D

 43 45  0  0  1  0  0  0  0  0999 V2000
   -3.9418    0.5564    0.4976 C   0  0  0  0  0  0  0  0  0  0  0  0
   -4.7998    0.3207    1.1590 H   0  0  0  0  0  0  0  0  0  0  0  0
   -4.2050    1.4765   -0.0650 H   0  0  0  0  0  0  0  0  0  0  0  0
   -3.0698    0.7663    1.1507 H   0  0  0  0  0  0  0  0  0  0  0  0
   -3.2941   -1.8664    0.4307 C   0  0  0  0  0  0  0  0  0  0  0  0
   -2.5606   -1.6154    1.2236 H   0  0  0  0  0  0  0  0  0  0  0  0
   -2.8837   -2.6975   -0.1778 H   0  0  0  0  0  0  0  0  0  0  0  0
   -4.2020   -2.2364    0.9492 H   0  0  0  0  0  0  0  0  0  0  0  0
   -4.8769   -0.9761   -1.2947 C   0  0  0  0  0  0  0  0  0  0  0  0
   -5.7345   -1.2464   -0.6467 H   0  0  0  0  0  0  0  0  0  0  0  0
   -4.6734   -1.8410   -1.9603 H   0  0  0  0  0  0  0  0  0  0  0  0
   -5.2030   -0.1251   -1.9280 H   0  0  0  0  0  0  0  0  0  0  0  0
   -3.6495   -0.6378   -0.4279 C   0  0  0  0  0  0  0  0  0  0  0  0
   -2.4654   -0.3072   -1.3933 C   0  0  2  0  0  0  0  0  0  0  0  0
   -2.2671   -1.2176   -1.9984 H   0  0  0  0  0  0  0  0  0  0  0  0
   -1.2338    0.0552   -0.6762 N   0  0  0  0  0  2  0  0  0  0  0  0
   -2.6881    0.9315   -2.3003 C   0  0  0  0  0  0  0  0  0  0  0  0
   -2.4254    0.7469   -3.3619 H   0  0  0  0  0  0  0  0  0  0  0  0
   -3.7112    1.3492   -2.2503 H   0  0  0  0  0  0  0  0  0  0  0  0
   -1.7735    1.9342   -1.7876 O   0  0  0  0  0  0  0  0  0  0  0  0
   -0.9639    1.3057   -0.9079 C   0  0  1  0  0  3  0  0  0  0  0  0
    0.0810    2.1159   -0.2705 C   0  0  0  0  0  0  0  0  0  0  0  0
   -0.1319    3.5085   -0.1678 C   0  0  0  0  0  0  0  0  0  0  0  0
   -1.0529    3.9271   -0.5968 H   0  0  0  0  0  0  0  0  0  0  0  0
    0.7886    4.3347    0.4810 C   0  0  0  0  0  0  0  0  0  0  0  0
    0.5984    5.4143    0.5657 H   0  0  0  0  0  0  0  0  0  0  0  0
    1.9442    3.7659    1.0432 C   0  0  0  0  0  0  0  0  0  0  0  0
    2.6631    4.3973    1.5873 H   0  0  0  0  0  0  0  0  0  0  0  0
    2.1828    2.3929    0.9308 C   0  0  0  0  0  0  0  0  0  0  0  0
    3.0746    1.9475    1.3946 H   0  0  0  0  0  0  0  0  0  0  0  0
    1.2785    1.5387    0.2573 C   0  0  0  0  0  0  0  0  0  0  0  0
    1.5106    0.1632    0.1466 N   0  0  0  0  0  2  0  0  0  0  0  0
    2.6702   -0.3162   -0.3022 C   0  0  2  0  0  3  0  0  0  0  0  0
    3.7637    0.4210   -0.8827 C   0  0  0  0  0  0  0  0  0  0  0  0
    3.6652    1.5086   -0.9854 H   0  0  0  0  0  0  0  0  0  0  0  0
    4.9010   -0.2334   -1.3191 C   0  0  0  0  0  0  0  0  0  0  0  0
    5.7194    0.3528   -1.7652 H   0  0  0  0  0  0  0  0  0  0  0  0
    5.0238   -1.6468   -1.2170 C   0  0  0  0  0  0  0  0  0  0  0  0
    5.9214   -2.1792   -1.5550 H   0  0  0  0  0  0  0  0  0  0  0  0
    3.9474   -2.3392   -0.6978 C   0  0  0  0  0  0  0  0  0  0  0  0
    3.9114   -3.4350   -0.6089 H   0  0  0  0  0  0  0  0  0  0  0  0
    2.8397   -1.6899   -0.2657 N   0  0  0  0  0  0  0  0  0  0  0  0
    1.9972   -2.2642    0.0304 H   0  0  0  0  0  0  0  0  0  0  0  0
  1  4  1  0  0  0  0
  1  2  1  0  0  0  0
  3  1  1  0  0  0  0
  5  8  1  0  0  0  0
  5  6  1  0  0  0  0
  7  5  1  0  0  0  0
  9 10  1  0  0  0  0
  9 13  1  0  0  0  0
 11  9  1  0  0  0  0
 12  9  1  0  0  0  0
 13  5  1  0  0  0  0
 13  1  1  0  0  0  0
 14 15  1  6  0  0  0
 14 16  1  0  0  0  0
 14 13  1  0  0  0  0
 17 19  1  0  0  0  0
 17 20  1  0  0  0  0
 17 14  1  0  0  0  0
 18 17  1  0  0  0  0
 20 21  1  0  0  0  0
 21 16  1  0  0  0  0
 21 22  1  1  0  0  0
 22 23  2  0  0  0  0
 22 31  1  0  0  0  0
 23 25  1  0  0  0  0
 24 23  1  0  0  0  0
 25 26  1  0  0  0  0
 25 27  2  0  0  0  0
 27 28  1  0  0  0  0
 29 27  1  0  0  0  0
 29 30  1  0  0  0  0
 31 29  2  0  0  0  0
 32 31  1  0  0  0  0
 33 42  1  0  0  0  0
 33 32  1  6  0  0  0
 34 33  1  0  0  0  0
 35 34  1  0  0  0  0
 36 38  1  0  0  0  0
 36 34  2  0  0  0  0
 37 36  1  0  0  0  0
 38 40  2  0  0  0  0
 39 38  1  0  0  0  0
 40 41  1  0  0  0  0
 40 42  1  0  0  0  0
 42 43  1  0  0  0  0
M  END
