1,2
 OpenBabel05122313053D

 17 16  0  0  1  0  0  0  0  0999 V2000
    0.6927    1.4154   -0.2194 N   0  0  0  0  0  2  0  0  0  0  0  0
    0.6927   -1.4155   -0.2193 N   0  0  0  0  0  2  0  0  0  0  0  0
    1.9562   -1.3048    0.0382 C   0  0  2  0  0  3  0  0  0  0  0  0
    2.9003   -2.4599   -0.0811 C   0  0  0  0  0  0  0  0  0  0  0  0
    2.5531    0.0000    0.5083 C   0  0  0  0  0  0  0  0  0  0  0  0
    1.9562    1.3048    0.0382 C   0  0  2  0  0  3  0  0  0  0  0  0
    2.9003    2.4599   -0.0812 C   0  0  0  0  0  0  0  0  0  0  0  0
    0.4302    2.3666   -0.5134 H   0  0  0  0  0  0  0  0  0  0  0  0
    0.4301   -2.3666   -0.5133 H   0  0  0  0  0  0  0  0  0  0  0  0
    2.4955    0.0000    1.6246 H   0  0  0  0  0  0  0  0  0  0  0  0
    3.6394    0.0000    0.2924 H   0  0  0  0  0  0  0  0  0  0  0  0
    3.6425    2.2603   -0.8835 H   0  0  0  0  0  0  0  0  0  0  0  0
    2.3781    3.4086   -0.3060 H   0  0  0  0  0  0  0  0  0  0  0  0
    3.4808    2.5819    0.8573 H   0  0  0  0  0  0  0  0  0  0  0  0
    3.4807   -2.5820    0.8574 H   0  0  0  0  0  0  0  0  0  0  0  0
    2.3781   -3.4086   -0.3060 H   0  0  0  0  0  0  0  0  0  0  0  0
    3.6425   -2.2602   -0.8834 H   0  0  0  0  0  0  0  0  0  0  0  0
  3  2  1  1  0  0  0
  3  5  1  0  0  0  0
  4  3  1  0  0  0  0
  4 15  1  0  0  0  0
  5 10  1  0  0  0  0
  6  1  1  1  0  0  0
  6  5  1  0  0  0  0
  7  6  1  0  0  0  0
  7 14  1  0  0  0  0
  8  1  1  0  0  0  0
  9  2  1  0  0  0  0
 11  5  1  0  0  0  0
 12  7  1  0  0  0  0
 13  7  1  0  0  0  0
 16  4  1  0  0  0  0
 17  4  1  0  0  0  0
M  END
