4,6
 OpenBabel05122313053D

 28 29  0  0  1  0  0  0  0  0999 V2000
    2.7144    0.8424    1.9389 O   0  0  0  0  0  0  0  0  0  0  0  0
    4.4829   -0.5527    2.2155 O   0  0  0  0  0  0  0  0  0  0  0  0
    4.6962    0.1297    2.8892 H   0  0  0  0  0  0  0  0  0  0  0  0
   -0.5765   -1.5072   -0.4229 N   0  0  0  0  0  2  0  0  0  0  0  0
    1.6754   -0.8202   -0.0804 N   0  0  0  0  0  0  0  0  0  0  0  0
    0.4871    1.1183   -0.7854 N   0  0  0  0  0  2  0  0  0  0  0  0
   -1.4872   -2.4641   -0.7513 C   0  0  0  0  0  3  0  0  0  0  0  0
   -2.5345   -2.1317   -0.7056 H   0  0  0  0  0  0  0  0  0  0  0  0
   -1.1192   -3.7768   -1.0427 C   0  0  0  0  0  0  0  0  0  0  0  0
   -1.8985   -4.5125   -1.2843 H   0  0  0  0  0  0  0  0  0  0  0  0
    0.2397   -4.1216   -1.0202 C   0  0  0  0  0  0  0  0  0  0  0  0
    0.5705   -5.1432   -1.2582 H   0  0  0  0  0  0  0  0  0  0  0  0
    1.1802   -3.1327   -0.7160 C   0  0  0  0  0  0  0  0  0  0  0  0
    2.2541   -3.3592   -0.7373 H   0  0  0  0  0  0  0  0  0  0  0  0
    0.7472   -1.8258   -0.4136 C   0  0  0  0  0  0  0  0  0  0  0  0
    2.8794   -1.2141    0.6235 C   0  0  0  0  0  0  0  0  0  0  0  0
    3.7493   -1.4529   -0.0325 H   0  0  0  0  0  0  0  0  0  0  0  0
    2.6651   -2.1420    1.1901 H   0  0  0  0  0  0  0  0  0  0  0  0
    3.3136   -0.1678    1.6518 C   0  0  0  0  0  0  0  0  0  0  0  0
    1.6613    0.4367   -0.7230 C   0  0  1  0  0  3  0  0  0  0  0  0
    2.8392    0.9670   -1.2833 C   0  0  0  0  0  0  0  0  0  0  0  0
    3.7739    0.3933   -1.2350 H   0  0  0  0  0  0  0  0  0  0  0  0
    2.8067    2.2165   -1.9066 C   0  0  0  0  0  0  0  0  0  0  0  0
    3.7229    2.6388   -2.3450 H   0  0  0  0  0  0  0  0  0  0  0  0
    1.5872    2.9056   -1.9763 C   0  0  0  0  0  0  0  0  0  0  0  0
    1.5055    3.8894   -2.4581 H   0  0  0  0  0  0  0  0  0  0  0  0
    0.4519    2.3237   -1.4155 C   0  0  0  0  0  0  0  0  0  0  0  0
   -0.5277    2.8228   -1.3920 H   0  0  0  0  0  0  0  0  0  0  0  0
  2  3  1  0  0  0  0
  4 15  1  0  0  0  0
  5 16  1  0  0  0  0
  6 20  1  0  0  0  0
  7  8  1  0  0  0  0
  7  4  1  0  0  0  0
  9 11  2  0  0  0  0
  9  7  1  0  0  0  0
 10  9  1  0  0  0  0
 11 13  1  0  0  0  0
 12 11  1  0  0  0  0
 13 15  2  0  0  0  0
 14 13  1  0  0  0  0
 15  5  1  0  0  0  0
 16 18  1  0  0  0  0
 16 19  1  0  0  0  0
 17 16  1  0  0  0  0
 19  1  2  0  0  0  0
 19  2  1  0  0  0  0
 20  5  1  1  0  0  0
 21 22  1  0  0  0  0
 21 20  1  0  0  0  0
 23 21  2  0  0  0  0
 24 23  1  0  0  0  0
 25 23  1  0  0  0  0
 25 27  2  0  0  0  0
 26 25  1  0  0  0  0
 27 28  1  0  0  0  0
 27  6  1  0  0  0  0
M  END
