4,6
 OpenBabel05122313053D

 30 32  0  0  0  0  0  0  0  0999 V2000
   -7.8207    0.5564   -0.3612 O   0  0  0  0  0  0  0  0  0  0  0  0
   -7.5114   -0.7301    1.3791 O   0  0  0  0  0  0  0  0  0  0  0  0
   -7.1079   -0.0709    0.4213 N   0  0  0  0  0  0  0  0  0  0  0  0
    0.5978   -1.2874   -0.9320 N   0  0  0  0  0  0  0  0  0  0  0  0
   -5.6415   -0.0286    0.1921 C   0  0  0  0  0  0  0  0  0  0  0  0
    0.6311    1.4677   -0.6305 N   0  0  0  0  0  0  0  0  0  0  0  0
   -1.4079    0.0846   -0.4482 C   0  0  0  0  0  3  0  0  0  0  0  0
   -3.7613    0.7427   -1.1026 C   0  0  0  0  0  0  0  0  0  0  0  0
   -3.4178   -0.6821    0.8442 C   0  0  0  0  0  0  0  0  0  0  0  0
   -4.7979   -0.7245    1.0671 C   0  0  0  0  0  0  0  0  0  0  0  0
   -0.2790    3.5548   -0.5992 C   0  0  0  0  0  0  0  0  0  0  0  0
   -1.3179    2.6535   -0.3728 C   0  0  0  0  0  0  0  0  0  0  0  0
   -0.7451    1.3338   -0.4302 C   0  0  0  0  0  3  0  0  0  0  0  0
   -1.4104   -2.3897   -1.1020 C   0  0  0  0  0  0  0  0  0  0  0  0
    0.9068    2.7757   -0.7509 C   0  0  0  0  0  0  0  0  0  0  0  0
   -0.3998   -3.2461   -1.5328 C   0  0  0  0  0  0  0  0  0  0  0  0
    0.8239   -2.5209   -1.4098 C   0  0  0  0  0  0  0  0  0  0  0  0
   -0.7782   -1.1469   -0.7418 C   0  0  0  0  0  3  0  0  0  0  0  0
   -2.8816    0.0572   -0.2347 C   0  0  0  0  0  0  0  0  0  0  0  0
   -5.1442    0.7017   -0.8947 C   0  0  0  0  0  0  0  0  0  0  0  0
   -0.3458    4.6469   -0.6639 H   0  0  0  0  0  0  0  0  0  0  0  0
   -2.7333   -1.2192    1.5168 H   0  0  0  0  0  0  0  0  0  0  0  0
   -5.2407   -1.2825    1.9027 H   0  0  0  0  0  0  0  0  0  0  0  0
   -2.4898   -2.5768   -1.0971 H   0  0  0  0  0  0  0  0  0  0  0  0
    1.9361    3.1101   -0.9334 H   0  0  0  0  0  0  0  0  0  0  0  0
    1.8444   -2.8440   -1.6512 H   0  0  0  0  0  0  0  0  0  0  0  0
   -0.5081   -4.2660   -1.9196 H   0  0  0  0  0  0  0  0  0  0  0  0
   -5.8512    1.2170   -1.5583 H   0  0  0  0  0  0  0  0  0  0  0  0
   -2.3777    2.8847   -0.2222 H   0  0  0  0  0  0  0  0  0  0  0  0
   -3.3490    1.2941   -1.9596 H   0  0  0  0  0  0  0  0  0  0  0  0
  1  3  2  0  0  0  0
  3  2  2  0  0  0  0
  4 18  1  0  0  0  0
  5  3  1  0  0  0  0
  5 10  1  0  0  0  0
  6 13  1  0  0  0  0
  7 13  1  0  0  0  0
  7 19  1  0  0  0  0
  8 20  1  0  0  0  0
  8 19  2  0  0  0  0
  9 10  2  0  0  0  0
  9 22  1  0  0  0  0
 10 23  1  0  0  0  0
 11 12  2  0  0  0  0
 12 29  1  0  0  0  0
 13 12  1  0  0  0  0
 14 24  1  0  0  0  0
 14 18  1  0  0  0  0
 15  6  2  0  0  0  0
 15 11  1  0  0  0  0
 16 17  1  0  0  0  0
 16 14  2  0  0  0  0
 17  4  2  0  0  0  0
 18  7  1  0  0  0  0
 19  9  1  0  0  0  0
 20  5  2  0  0  0  0
 21 11  1  0  0  0  0
 25 15  1  0  0  0  0
 26 17  1  0  0  0  0
 27 16  1  0  0  0  0
 28 20  1  0  0  0  0
 30  8  1  0  0  0  0
M  END
