4,6
 OpenBabel05122313053D

 19 20  0  0  0  0  0  0  0  0999 V2000
   -1.9073   -2.7775    0.1879 F   0  0  0  0  0  0  0  0  0  0  0  0
   -0.6909   -4.7179   -0.0623 F   0  0  0  0  0  0  0  0  0  0  0  0
   -0.6407   -3.3275   -0.0074 B   0  0  0  0  0  0  0  0  0  0  0  0
    0.6018   -1.6177   -1.5205 N   0  0  0  0  0  2  0  0  0  0  0  0
    0.0042   -2.8236   -1.3441 N   0  0  0  0  0  0  0  0  0  0  0  0
    0.8138   -1.6877    1.3710 N   0  0  0  0  0  2  0  0  0  0  0  0
    0.2909   -2.9263    1.1823 N   0  0  0  0  0  0  0  0  0  0  0  0
    1.0933   -1.5983   -2.7813 C   0  0  0  0  0  3  0  0  0  0  0  0
    1.6432   -0.7221   -3.1386 H   0  0  0  0  0  0  0  0  0  0  0  0
    0.7839   -2.8063   -3.4374 C   0  0  0  0  0  0  0  0  0  0  0  0
    1.0414   -3.0966   -4.4604 H   0  0  0  0  0  0  0  0  0  0  0  0
    0.0954   -3.5582   -2.4845 C   0  0  0  0  0  0  0  0  0  0  0  0
   -0.3285   -4.5665   -2.5145 H   0  0  0  0  0  0  0  0  0  0  0  0
    1.4931   -1.7224    2.5404 C   0  0  0  0  0  3  0  0  0  0  0  0
    2.0328   -0.8369    2.8880 H   0  0  0  0  0  0  0  0  0  0  0  0
    1.3878   -2.9999    3.1248 C   0  0  0  0  0  0  0  0  0  0  0  0
    1.8256   -3.3407    4.0677 H   0  0  0  0  0  0  0  0  0  0  0  0
    0.6156   -3.7359    2.2260 C   0  0  0  0  0  0  0  0  0  0  0  0
    0.2682   -4.7736    2.2345 H   0  0  0  0  0  0  0  0  0  0  0  0
  2  3  1  0  0  0  0
  3  1  1  0  0  0  0
  3  7  1  0  0  0  0
  4  5  1  0  0  0  0
  5  3  1  0  0  0  0
  6 14  1  0  0  0  0
  7  6  1  0  0  0  0
  7 18  1  0  0  0  0
  8  4  1  0  0  0  0
  9  8  1  0  0  0  0
 10  8  1  0  0  0  0
 10 12  2  0  0  0  0
 11 10  1  0  0  0  0
 12  5  1  0  0  0  0
 13 12  1  0  0  0  0
 14 15  1  0  0  0  0
 14 16  1  0  0  0  0
 16 17  1  0  0  0  0
 18 19  1  0  0  0  0
 18 16  2  0  0  0  0
M  END
