1,2
 OpenBabel05122313053D

 26 27  0  0  0  0  0  0  0  0999 V2000
   -1.9385   -0.9923   -0.6959 N   0  0  0  0  0  2  0  0  0  0  0  0
   -0.0483    0.4829   -1.3838 N   0  0  0  0  0  2  0  0  0  0  0  0
   -1.1272    0.7060   -2.0938 N   0  0  0  0  0  2  0  0  0  0  0  0
   -2.9391   -1.8205   -0.3087 C   0  0  0  0  0  3  0  0  0  0  0  0
   -4.1815   -1.8206   -0.9431 C   0  0  0  0  0  0  0  0  0  0  0  0
   -4.4109   -0.9445   -2.0260 C   0  0  0  0  0  0  0  0  0  0  0  0
   -3.3831   -0.1022   -2.4420 C   0  0  0  0  0  0  0  0  0  0  0  0
   -2.1446   -0.1411   -1.7621 C   0  0  0  0  0  0  0  0  0  0  0  0
    2.3061    1.0938   -1.5532 C   0  0  0  0  0  0  0  0  0  0  0  0
    3.3327    2.0540   -1.6029 C   0  0  0  0  0  0  0  0  0  0  0  0
    2.9700    3.4165   -1.6198 C   0  0  0  0  0  0  0  0  0  0  0  0
    1.6201    3.8078   -1.6090 C   0  0  0  0  0  0  0  0  0  0  0  0
    0.6025    2.8490   -1.5628 C   0  0  0  0  0  0  0  0  0  0  0  0
    0.9590    1.4861   -1.5148 C   0  0  0  0  0  0  0  0  0  0  0  0
    4.7748    1.6141   -1.6347 C   0  0  0  0  0  0  0  0  0  0  0  0
   -2.6838   -2.4887    0.5299 H   0  0  0  0  0  0  0  0  0  0  0  0
   -4.9591   -2.5162   -0.5980 H   0  0  0  0  0  0  0  0  0  0  0  0
   -5.3823   -0.9346   -2.5418 H   0  0  0  0  0  0  0  0  0  0  0  0
   -3.4865    0.5949   -3.2840 H   0  0  0  0  0  0  0  0  0  0  0  0
    2.5387    0.0212   -1.5664 H   0  0  0  0  0  0  0  0  0  0  0  0
    3.7601    4.1834   -1.6445 H   0  0  0  0  0  0  0  0  0  0  0  0
    1.3606    4.8773   -1.6259 H   0  0  0  0  0  0  0  0  0  0  0  0
   -0.4600    3.1240   -1.5391 H   0  0  0  0  0  0  0  0  0  0  0  0
    5.0001    1.0484   -2.5628 H   0  0  0  0  0  0  0  0  0  0  0  0
    5.4674    2.4761   -1.5868 H   0  0  0  0  0  0  0  0  0  0  0  0
    5.0028    0.9386   -0.7842 H   0  0  0  0  0  0  0  0  0  0  0  0
  1  4  1  0  0  0  0
  3  8  1  0  0  0  0
  3  2  1  0  0  0  0
  4 16  1  0  0  0  0
  5 17  1  0  0  0  0
  5  4  1  0  0  0  0
  6  5  2  0  0  0  0
  7  6  1  0  0  0  0
  7  8  2  0  0  0  0
  8  1  1  0  0  0  0
  9 14  1  0  0  0  0
 10  9  2  0  0  0  0
 11 12  2  0  0  0  0
 11 10  1  0  0  0  0
 12 13  1  0  0  0  0
 13 23  1  0  0  0  0
 13 14  2  0  0  0  0
 14  2  1  0  0  0  0
 15 10  1  0  0  0  0
 15 25  1  0  0  0  0
 15 26  1  0  0  0  0
 18  6  1  0  0  0  0
 19  7  1  0  0  0  0
 20  9  1  0  0  0  0
 21 11  1  0  0  0  0
 22 12  1  0  0  0  0
 24 15  1  0  0  0  0
M  END
