49,51
 OpenBabel05122313053D

 65 70  0  0  1  0  0  0  0  0999 V2000
    1.7517    0.9868    2.8773 C   0  0  1  0  0  3  0  0  0  0  0  0
    0.4975    1.1518    3.4945 C   0  0  0  0  0  0  0  0  0  0  0  0
    0.2910    1.4931    4.5125 H   0  0  0  0  0  0  0  0  0  0  0  0
   -0.4327    0.7390    2.5291 C   0  0  0  0  0  0  0  0  0  0  0  0
    1.7490    2.0175   -2.2780 C   0  0  1  0  0  3  0  0  0  0  0  0
    0.4933    2.4596   -2.7352 C   0  0  0  0  0  0  0  0  0  0  0  0
    0.2855    3.1795   -3.5315 H   0  0  0  0  0  0  0  0  0  0  0  0
   -0.4362    1.8158   -1.9053 C   0  0  0  0  0  0  0  0  0  0  0  0
    1.6677   -3.0226   -0.6093 C   0  0  0  0  0  0  0  0  0  0  0  0
    0.3985   -3.6182   -0.7613 C   0  0  0  0  0  0  0  0  0  0  0  0
    0.1675   -4.6643   -0.9808 H   0  0  0  0  0  0  0  0  0  0  0  0
   -0.5077   -2.5585   -0.6194 C   0  0  0  0  0  0  0  0  0  0  0  0
    3.1047    1.2518    3.4679 C   0  0  0  0  0  0  0  0  0  0  0  0
   -1.9035    0.7099    2.6093 C   0  0  0  0  0  0  0  0  0  0  0  0
   -2.6493   -0.4275    2.2244 C   0  0  0  0  0  0  0  0  0  0  0  0
   -2.1314   -1.3367    1.8901 H   0  0  0  0  0  0  0  0  0  0  0  0
   -4.0477   -0.4172    2.2609 C   0  0  0  0  0  0  0  0  0  0  0  0
   -4.6345   -1.2917    1.9466 H   0  0  0  0  0  0  0  0  0  0  0  0
   -4.7061    0.7377    2.7019 C   0  0  0  0  0  0  0  0  0  0  0  0
   -3.9979    1.8717    3.1194 C   0  0  0  0  0  0  0  0  0  0  0  0
   -4.5501    2.7570    3.4657 H   0  0  0  0  0  0  0  0  0  0  0  0
   -2.5977    1.8508    3.0704 C   0  0  0  0  0  0  0  0  0  0  0  0
   -2.0287    2.7433    3.3713 H   0  0  0  0  0  0  0  0  0  0  0  0
    3.0994    2.4040   -2.8046 C   0  0  0  0  0  0  0  0  0  0  0  0
   -1.9071    1.9027   -1.9184 C   0  0  0  0  0  0  0  0  0  0  0  0
   -2.6501    2.1367   -0.7387 C   0  0  0  0  0  0  0  0  0  0  0  0
   -2.1299    2.2944    0.2160 H   0  0  0  0  0  0  0  0  0  0  0  0
   -4.0483    2.1705   -0.7632 C   0  0  0  0  0  0  0  0  0  0  0  0
   -4.6331    2.3327    0.1530 H   0  0  0  0  0  0  0  0  0  0  0  0
   -4.7094    1.9855   -1.9841 C   0  0  0  0  0  0  0  0  0  0  0  0
   -4.0041    1.7834   -3.1772 C   0  0  0  0  0  0  0  0  0  0  0  0
   -4.5585    1.6485   -4.1168 H   0  0  0  0  0  0  0  0  0  0  0  0
   -2.6040    1.7428   -3.1369 C   0  0  0  0  0  0  0  0  0  0  0  0
   -2.0375    1.5589   -4.0620 H   0  0  0  0  0  0  0  0  0  0  0  0
    3.0033   -3.6992   -0.6827 C   0  0  0  0  0  0  0  0  0  0  0  0
   -1.9799   -2.5854   -0.6756 C   0  0  0  0  0  0  0  0  0  0  0  0
   -2.7157   -1.6677   -1.4597 C   0  0  0  0  0  0  0  0  0  0  0  0
   -2.1890   -0.9259   -2.0752 H   0  0  0  0  0  0  0  0  0  0  0  0
   -4.1148   -1.6878   -1.4697 C   0  0  0  0  0  0  0  0  0  0  0  0
   -4.6937   -0.9673   -2.0642 H   0  0  0  0  0  0  0  0  0  0  0  0
   -4.7850   -2.6469   -0.7001 C   0  0  0  0  0  0  0  0  0  0  0  0
   -4.0879   -3.5896    0.0660 C   0  0  0  0  0  0  0  0  0  0  0  0
   -4.6488   -4.3313    0.6523 H   0  0  0  0  0  0  0  0  0  0  0  0
   -2.6871   -3.5524    0.0738 C   0  0  0  0  0  0  0  0  0  0  0  0
   -2.1266   -4.2718    0.6895 H   0  0  0  0  0  0  0  0  0  0  0  0
   -0.2452   -0.0049    0.0003 B   0  0  1  0  0  0  0  0  0  0  0  0
   -1.4461    0.0198    0.0078 H   0  0  0  0  0  0  0  0  0  0  0  0
    0.2801    0.3684    1.4142 N   0  0  0  0  0  0  0  0  0  0  0  0
    1.6085    0.5153    1.6252 N   0  0  0  0  0  2  0  0  0  0  0  0
    0.2782    1.0332   -1.0305 N   0  0  0  0  0  0  0  0  0  0  0  0
    1.6074    1.1570   -1.2531 N   0  0  0  0  0  2  0  0  0  0  0  0
    0.2380   -1.4246   -0.3857 N   0  0  0  0  0  0  0  0  0  0  0  0
    1.5591   -1.7031   -0.3807 N   0  0  0  0  0  0  0  0  0  0  0  0
    2.9815    1.8393    4.6785 F   0  0  0  0  0  0  0  0  0  0  0  0
    3.8478    2.0735    2.6836 F   0  0  0  0  0  0  0  0  0  0  0  0
    3.8203    0.1126    3.6372 F   0  0  0  0  0  0  0  0  0  0  0  0
   -6.0501    0.7628    2.7187 F   0  0  0  0  0  0  0  0  0  0  0  0
    2.9758    3.3486   -3.7630 F   0  0  0  0  0  0  0  0  0  0  0  0
    3.9000    2.9075   -1.8309 F   0  0  0  0  0  0  0  0  0  0  0  0
    3.7545    1.3506   -3.3513 F   0  0  0  0  0  0  0  0  0  0  0  0
   -6.0535    1.9925   -2.0119 F   0  0  0  0  0  0  0  0  0  0  0  0
    2.8532   -5.0170   -0.9388 F   0  0  0  0  0  0  0  0  0  0  0  0
    3.7902   -3.1803   -1.6608 F   0  0  0  0  0  0  0  0  0  0  0  0
    3.6988   -3.5877    0.4799 F   0  0  0  0  0  0  0  0  0  0  0  0
   -6.1297   -2.6597   -0.6897 F   0  0  0  0  0  0  0  0  0  0  0  0
  1 13  1  1  0  0  0
  1  2  1  0  0  0  0
  2  3  1  0  0  0  0
  4 14  1  0  0  0  0
  4  2  2  0  0  0  0
  5 24  1  1  0  0  0
  5 51  1  0  0  0  0
  6  5  1  0  0  0  0
  6  8  2  0  0  0  0
  7  6  1  0  0  0  0
  8 50  1  0  0  0  0
  9 53  2  0  0  0  0
 10 12  2  0  0  0  0
 10  9  1  0  0  0  0
 11 10  1  0  0  0  0
 12 52  1  0  0  0  0
 13 56  1  0  0  0  0
 13 54  1  0  0  0  0
 14 22  1  0  0  0  0
 15 17  1  0  0  0  0
 15 14  2  0  0  0  0
 16 15  1  0  0  0  0
 17 19  2  0  0  0  0
 18 17  1  0  0  0  0
 19 57  1  0  0  0  0
 19 20  1  0  0  0  0
 20 21  1  0  0  0  0
 22 20  2  0  0  0  0
 22 23  1  0  0  0  0
 24 59  1  0  0  0  0
 25  8  1  0  0  0  0
 25 26  1  0  0  0  0
 26 27  1  0  0  0  0
 28 26  2  0  0  0  0
 28 29  1  0  0  0  0
 30 28  1  0  0  0  0
 31 33  1  0  0  0  0
 31 30  2  0  0  0  0
 32 31  1  0  0  0  0
 33 25  2  0  0  0  0
 34 33  1  0  0  0  0
 35  9  1  0  0  0  0
 35 64  1  0  0  0  0
 36 12  1  0  0  0  0
 36 44  1  0  0  0  0
 37 36  2  0  0  0  0
 38 37  1  0  0  0  0
 39 37  1  0  0  0  0
 39 41  2  0  0  0  0
 40 39  1  0  0  0  0
 41 65  1  0  0  0  0
 41 42  1  0  0  0  0
 42 44  2  0  0  0  0
 42 43  1  0  0  0  0
 44 45  1  0  0  0  0
 46 47  1  1  0  0  0
 46 48  1  0  0  0  0
 48 49  1  0  0  0  0
 48  4  1  0  0  0  0
 49  1  1  0  0  0  0
 50 46  1  0  0  0  0
 51 50  1  0  0  0  0
 52 53  1  0  0  0  0
 52 46  1  0  0  0  0
 55 13  1  0  0  0  0
 58 24  1  0  0  0  0
 60 24  1  0  0  0  0
 61 30  1  0  0  0  0
 62 35  1  0  0  0  0
 63 35  1  0  0  0  0
M  END
