3,6
 OpenBabel05122313053D

 22 23  0  0  1  0  0  0  0  0999 V2000
    0.4835   -2.9083    0.9128 O   0  0  0  0  0  0  0  0  0  0  0  0
   -4.0015   -2.1774    0.1132 O   0  0  0  0  0  0  0  0  0  0  0  0
   -0.5779   -1.3019   -0.4211 N   0  0  0  0  0  2  0  0  0  0  0  0
   -1.8278   -2.8945    0.5760 N   0  0  0  0  0  0  0  0  0  0  0  0
   -2.0188   -3.6959    1.1797 H   0  0  0  0  0  0  0  0  0  0  0  0
   -1.3032    1.2512   -0.2549 N   0  0  0  0  0  2  0  0  0  0  0  0
   -0.5101   -2.3875    0.3926 C   0  0  0  0  0  0  0  0  0  0  0  0
   -2.7878   -2.0756    0.0435 C   0  0  0  0  0  0  0  0  0  0  0  0
   -1.9734   -1.0314   -0.7738 C   0  0  1  0  0  0  0  0  0  0  0  0
   -2.3382    0.3952   -0.4367 C   0  0  2  0  0  3  0  0  0  0  0  0
   -3.6632    0.8562   -0.3926 C   0  0  0  0  0  0  0  0  0  0  0  0
   -4.4725    0.1206   -0.5032 H   0  0  0  0  0  0  0  0  0  0  0  0
   -3.9046    2.2166   -0.1761 C   0  0  0  0  0  0  0  0  0  0  0  0
   -4.9369    2.5941   -0.1250 H   0  0  0  0  0  0  0  0  0  0  0  0
   -2.8166    3.0929   -0.0377 C   0  0  0  0  0  0  0  0  0  0  0  0
   -2.9605    4.1730    0.1056 H   0  0  0  0  0  0  0  0  0  0  0  0
   -1.5217    2.5715   -0.0801 C   0  0  0  0  0  0  0  0  0  0  0  0
   -0.6107    3.1856    0.0170 H   0  0  0  0  0  0  0  0  0  0  0  0
   -2.2624   -1.3050   -2.2719 C   0  0  0  0  0  0  0  0  0  0  0  0
   -1.6654   -0.6100   -2.8906 H   0  0  0  0  0  0  0  0  0  0  0  0
   -3.3434   -1.1877   -2.4809 H   0  0  0  0  0  0  0  0  0  0  0  0
   -1.9615   -2.3440   -2.5101 H   0  0  0  0  0  0  0  0  0  0  0  0
  3  7  1  0  0  0  0
  4  5  1  0  0  0  0
  6 17  1  0  0  0  0
  7  4  1  0  0  0  0
  7  1  2  0  0  0  0
  8  2  2  0  0  0  0
  8  4  1  0  0  0  0
  9 19  1  6  0  0  0
  9 10  1  0  0  0  0
  9  3  1  0  0  0  0
  9  8  1  0  0  0  0
 10 11  1  6  0  0  0
 10  6  1  0  0  0  0
 11 13  2  0  0  0  0
 12 11  1  0  0  0  0
 13 14  1  0  0  0  0
 13 15  1  0  0  0  0
 15 16  1  0  0  0  0
 17 15  2  0  0  0  0
 17 18  1  0  0  0  0
 20 19  1  0  0  0  0
 21 19  1  0  0  0  0
 22 19  1  0  0  0  0
M  END
