1,2
 OpenBabel05122313053D

 37 38  0  0  1  0  0  0  0  0999 V2000
    0.6430   -0.7564   -0.1200 N   0  0  0  0  0  2  0  0  0  0  0  0
    0.7583    1.7469   -1.5297 N   0  0  0  0  0  2  0  0  0  0  0  0
    0.4472    2.5885   -2.0272 H   0  0  0  0  0  0  0  0  0  0  0  0
    2.7628   -1.6310    0.1817 N   0  0  0  0  0  0  0  0  0  0  0  0
    2.2243   -2.4128    0.5641 H   0  0  0  0  0  0  0  0  0  0  0  0
    2.6132    0.4821   -0.7641 N   0  0  0  0  0  0  0  0  0  0  0  0
    0.1108   -1.9294    0.4866 C   0  0  0  0  0  0  0  0  0  0  0  0
    0.0796   -2.0438    1.8936 C   0  0  0  0  0  0  0  0  0  0  0  0
    0.4597   -1.2093    2.5013 H   0  0  0  0  0  0  0  0  0  0  0  0
   -0.4398   -3.2029    2.4881 C   0  0  0  0  0  0  0  0  0  0  0  0
   -0.4627   -3.2890    3.5853 H   0  0  0  0  0  0  0  0  0  0  0  0
   -0.9402   -4.2440    1.6881 C   0  0  0  0  0  0  0  0  0  0  0  0
   -1.3570   -5.1475    2.1575 H   0  0  0  0  0  0  0  0  0  0  0  0
   -0.9252   -4.1215    0.2899 C   0  0  0  0  0  0  0  0  0  0  0  0
   -1.3392   -4.9236   -0.3388 H   0  0  0  0  0  0  0  0  0  0  0  0
   -0.4013   -2.9707   -0.3156 C   0  0  0  0  0  0  0  0  0  0  0  0
   -0.3993   -2.8363   -1.4072 H   0  0  0  0  0  0  0  0  0  0  0  0
    1.9753   -0.5853   -0.2593 C   0  0  2  0  0  3  0  0  0  0  0  0
    4.1539   -1.8002    0.2749 C   0  0  0  0  0  0  0  0  0  0  0  0
    5.1194   -0.9310   -0.2811 C   0  0  0  0  0  0  0  0  0  0  0  0
    4.7743   -0.0473   -0.8272 H   0  0  0  0  0  0  0  0  0  0  0  0
    6.4828   -1.2172   -0.1231 C   0  0  0  0  0  0  0  0  0  0  0  0
    7.2216   -0.5297   -0.5634 H   0  0  0  0  0  0  0  0  0  0  0  0
    6.9165   -2.3556    0.5732 C   0  0  0  0  0  0  0  0  0  0  0  0
    7.9899   -2.5676    0.6866 H   0  0  0  0  0  0  0  0  0  0  0  0
    5.9574   -3.2236    1.1198 C   0  0  0  0  0  0  0  0  0  0  0  0
    6.2715   -4.1248    1.6682 H   0  0  0  0  0  0  0  0  0  0  0  0
    4.5936   -2.9501    0.9754 C   0  0  0  0  0  0  0  0  0  0  0  0
    3.8465   -3.6332    1.4122 H   0  0  0  0  0  0  0  0  0  0  0  0
    2.0488    1.5403   -1.3498 C   0  0  0  0  0  0  0  0  0  0  0  0
    3.0120    2.6155   -1.8244 C   0  0  0  0  0  0  0  0  0  0  0  0
    2.4583    3.3882   -2.3955 H   0  0  0  0  0  0  0  0  0  0  0  0
    3.7183    2.1306   -2.5306 H   0  0  0  0  0  0  0  0  0  0  0  0
    3.7857    3.2502   -0.6636 C   0  0  0  0  0  0  0  0  0  0  0  0
    3.0983    3.7757    0.0296 H   0  0  0  0  0  0  0  0  0  0  0  0
    4.5251    3.9856   -1.0378 H   0  0  0  0  0  0  0  0  0  0  0  0
    4.3248    2.4723   -0.0881 H   0  0  0  0  0  0  0  0  0  0  0  0
  1  7  1  0  0  0  0
  2 30  1  0  0  0  0
  3  2  1  0  0  0  0
  4 19  1  0  0  0  0
  4  5  1  0  0  0  0
  7  8  1  0  0  0  0
  8 10  2  0  0  0  0
  8  9  1  0  0  0  0
 10 11  1  0  0  0  0
 12 13  1  0  0  0  0
 12 10  1  0  0  0  0
 14 12  2  0  0  0  0
 15 14  1  0  0  0  0
 16 14  1  0  0  0  0
 16  7  2  0  0  0  0
 17 16  1  0  0  0  0
 18  6  1  1  0  0  0
 18  1  1  0  0  0  0
 18  4  1  0  0  0  0
 19 28  1  0  0  0  0
 20 22  1  0  0  0  0
 20 19  2  0  0  0  0
 21 20  1  0  0  0  0
 22 24  2  0  0  0  0
 23 22  1  0  0  0  0
 24 25  1  0  0  0  0
 24 26  1  0  0  0  0
 26 27  1  0  0  0  0
 28 26  2  0  0  0  0
 28 29  1  0  0  0  0
 30  6  2  0  0  0  0
 31 30  1  0  0  0  0
 31 34  1  0  0  0  0
 32 31  1  0  0  0  0
 33 31  1  0  0  0  0
 34 37  1  0  0  0  0
 34 35  1  0  0  0  0
 36 34  1  0  0  0  0
M  END
