3,6
 OpenBabel05122313053D

 30 32  0  0  1  0  0  0  0  0999 V2000
   -3.8779    0.0002   -1.7922 O   0  0  0  0  0  0  0  0  0  0  0  0
   -4.7119    0.0003   -2.2990 H   0  0  0  0  0  0  0  0  0  0  0  0
    0.1719   -1.4521   -0.6306 N   0  0  0  0  0  2  0  0  0  0  0  0
   -1.1677   -1.2035   -0.6396 N   0  0  0  0  0  0  0  0  0  0  0  0
   -1.1677    1.2035   -0.6396 N   0  0  0  0  0  0  0  0  0  0  0  0
    0.1719    1.4520   -0.6307 N   0  0  0  0  0  2  0  0  0  0  0  0
    0.3330   -2.6327   -1.2542 C   0  0  0  0  0  3  0  0  0  0  0  0
    1.3427   -3.0413   -1.3717 H   0  0  0  0  0  0  0  0  0  0  0  0
   -0.9153   -3.1553   -1.6585 C   0  0  0  0  0  0  0  0  0  0  0  0
   -1.1095   -4.0971   -2.1806 H   0  0  0  0  0  0  0  0  0  0  0  0
   -1.8558   -2.2155   -1.2482 C   0  0  0  0  0  0  0  0  0  0  0  0
   -2.9419   -2.1809   -1.3524 H   0  0  0  0  0  0  0  0  0  0  0  0
    0.3329    2.6327   -1.2541 C   0  0  0  0  0  3  0  0  0  0  0  0
    1.3426    3.0414   -1.3717 H   0  0  0  0  0  0  0  0  0  0  0  0
   -0.9155    3.1554   -1.6583 C   0  0  0  0  0  0  0  0  0  0  0  0
   -1.1097    4.0972   -2.1803 H   0  0  0  0  0  0  0  0  0  0  0  0
   -1.8559    2.2155   -1.2480 C   0  0  0  0  0  0  0  0  0  0  0  0
   -2.9420    2.1809   -1.3522 H   0  0  0  0  0  0  0  0  0  0  0  0
   -1.6248   -0.0001    0.0589 C   0  0  1  0  0  0  0  0  0  0  0  0
   -1.0208   -0.0001    0.9929 H   0  0  0  0  0  0  0  0  0  0  0  0
   -3.0819   -0.0001    0.4579 C   0  0  0  0  0  0  0  0  0  0  0  0
   -3.3718   -0.0002    1.8375 C   0  0  0  0  0  0  0  0  0  0  0  0
   -2.5312   -0.0003    2.5490 H   0  0  0  0  0  0  0  0  0  0  0  0
   -4.6894   -0.0002    2.3122 C   0  0  0  0  0  0  0  0  0  0  0  0
   -4.8849   -0.0003    3.3936 H   0  0  0  0  0  0  0  0  0  0  0  0
   -5.7499   -0.0001    1.3941 C   0  0  0  0  0  0  0  0  0  0  0  0
   -6.7920   -0.0001    1.7467 H   0  0  0  0  0  0  0  0  0  0  0  0
   -5.4888    0.0001    0.0180 C   0  0  0  0  0  0  0  0  0  0  0  0
   -6.3190    0.0002   -0.7073 H   0  0  0  0  0  0  0  0  0  0  0  0
   -4.1644    0.0001   -0.4568 C   0  0  0  0  0  0  0  0  0  0  0  0
  1 30  1  0  0  0  0
  2  1  1  0  0  0  0
  4  3  1  0  0  0  0
  4 19  1  0  0  0  0
  5  6  1  0  0  0  0
  5 19  1  0  0  0  0
  7  3  1  0  0  0  0
  8  7  1  0  0  0  0
  9  7  1  0  0  0  0
  9 11  2  0  0  0  0
 10  9  1  0  0  0  0
 11  4  1  0  0  0  0
 12 11  1  0  0  0  0
 13  6  1  0  0  0  0
 14 13  1  0  0  0  0
 15 13  1  0  0  0  0
 15 17  2  0  0  0  0
 16 15  1  0  0  0  0
 17  5  1  0  0  0  0
 18 17  1  0  0  0  0
 19 21  1  0  0  0  0
 19 20  1  1  0  0  0
 21 22  1  0  0  0  0
 22 24  2  0  0  0  0
 22 23  1  0  0  0  0
 24 25  1  0  0  0  0
 26 27  1  0  0  0  0
 26 24  1  0  0  0  0
 28 26  2  0  0  0  0
 29 28  1  0  0  0  0
 30 28  1  0  0  0  0
 30 21  2  0  0  0  0
M  END
