2,5
 OpenBabel05122313053D

 45 47  0  0  1  0  0  0  0  0999 V2000
    3.2520   -1.3812    0.1888 O   0  0  0  0  0  0  0  0  0  0  0  0
   -0.5516    1.6883   -0.4288 N   0  0  0  0  0  2  0  0  0  0  0  0
    0.7262    1.8634   -0.8756 N   0  0  0  0  0  0  0  0  0  0  0  0
    1.3372   -0.3698   -1.4541 N   0  0  0  0  0  0  0  0  0  0  0  0
    0.2038   -1.0677   -1.1618 N   0  0  0  0  0  2  0  0  0  0  0  0
   -2.6206    3.0922   -0.3262 C   0  0  0  0  0  0  0  0  0  0  0  0
   -3.2610    2.3606   -0.8580 H   0  0  0  0  0  0  0  0  0  0  0  0
   -2.9200    4.1127   -0.6291 H   0  0  0  0  0  0  0  0  0  0  0  0
   -2.8288    2.9661    0.7537 H   0  0  0  0  0  0  0  0  0  0  0  0
   -1.1797    2.8694   -0.6407 C   0  0  2  0  0  3  0  0  0  0  0  0
   -0.2731    3.7980   -1.2114 C   0  0  0  0  0  0  0  0  0  0  0  0
   -0.4872    4.8336   -1.4942 H   0  0  0  0  0  0  0  0  0  0  0  0
    0.9415    3.1331   -1.3522 C   0  0  0  0  0  0  0  0  0  0  0  0
    2.2606    3.6008   -1.8711 C   0  0  0  0  0  0  0  0  0  0  0  0
    2.5937    3.0220   -2.7590 H   0  0  0  0  0  0  0  0  0  0  0  0
    3.0599    3.5341   -1.1031 H   0  0  0  0  0  0  0  0  0  0  0  0
    2.1820    4.6594   -2.1788 H   0  0  0  0  0  0  0  0  0  0  0  0
    3.3593   -0.4271   -2.9640 C   0  0  0  0  0  0  0  0  0  0  0  0
    3.2879    0.6143   -3.3443 H   0  0  0  0  0  0  0  0  0  0  0  0
    3.7184   -1.0561   -3.7990 H   0  0  0  0  0  0  0  0  0  0  0  0
    4.1272   -0.4497   -2.1629 H   0  0  0  0  0  0  0  0  0  0  0  0
    2.0521   -0.9502   -2.4720 C   0  0  1  0  0  3  0  0  0  0  0  0
    1.3331   -2.0814   -2.8428 C   0  0  0  0  0  0  0  0  0  0  0  0
    1.5979   -2.7944   -3.6302 H   0  0  0  0  0  0  0  0  0  0  0  0
    0.1873   -2.1217   -2.0101 C   0  0  0  0  0  0  0  0  0  0  0  0
   -0.9186   -3.1225   -2.0422 C   0  0  0  0  0  0  0  0  0  0  0  0
   -1.0279   -3.6446   -1.0723 H   0  0  0  0  0  0  0  0  0  0  0  0
   -0.7250   -3.8739   -2.8304 H   0  0  0  0  0  0  0  0  0  0  0  0
   -1.8925   -2.6356   -2.2494 H   0  0  0  0  0  0  0  0  0  0  0  0
    1.7276    0.8228   -0.7182 C   0  0  2  0  0  0  0  0  0  0  0  0
    2.6116    1.1946   -1.2708 H   0  0  0  0  0  0  0  0  0  0  0  0
    2.1548    0.6454    0.7393 C   0  0  0  0  0  0  0  0  0  0  0  0
    1.8734    1.6557    1.6748 C   0  0  0  0  0  0  0  0  0  0  0  0
    1.2482    2.5072    1.3719 H   0  0  0  0  0  0  0  0  0  0  0  0
    2.3402    1.5798    2.9937 C   0  0  0  0  0  0  0  0  0  0  0  0
    2.0870    2.3731    3.7110 H   0  0  0  0  0  0  0  0  0  0  0  0
    3.1037    0.4756    3.3900 C   0  0  0  0  0  0  0  0  0  0  0  0
    3.4620    0.3905    4.4267 H   0  0  0  0  0  0  0  0  0  0  0  0
    3.4113   -0.5388    2.4729 C   0  0  0  0  0  0  0  0  0  0  0  0
    4.0093   -1.4000    2.7974 H   0  0  0  0  0  0  0  0  0  0  0  0
    2.9563   -0.4543    1.1436 C   0  0  0  0  0  0  0  0  0  0  0  0
    3.8524   -2.6045    0.5795 C   0  0  0  0  0  0  0  0  0  0  0  0
    4.8849   -2.4563    0.9670 H   0  0  0  0  0  0  0  0  0  0  0  0
    3.8930   -3.2300   -0.3314 H   0  0  0  0  0  0  0  0  0  0  0  0
    3.2452   -3.1246    1.3515 H   0  0  0  0  0  0  0  0  0  0  0  0
  1 42  1  0  0  0  0
  1 41  1  0  0  0  0
  3 30  1  0  0  0  0
  3  2  1  0  0  0  0
  4  5  1  0  0  0  0
  4 30  1  0  0  0  0
  6  9  1  0  0  0  0
  7  6  1  0  0  0  0
  8  6  1  0  0  0  0
 10  2  1  0  0  0  0
 10  6  1  6  0  0  0
 11 10  1  0  0  0  0
 12 11  1  0  0  0  0
 13 11  2  0  0  0  0
 13  3  1  0  0  0  0
 14 13  1  0  0  0  0
 14 16  1  0  0  0  0
 15 14  1  0  0  0  0
 17 14  1  0  0  0  0
 18 21  1  0  0  0  0
 19 18  1  0  0  0  0
 20 18  1  0  0  0  0
 22 18  1  1  0  0  0
 22  4  1  0  0  0  0
 23 22  1  0  0  0  0
 23 25  2  0  0  0  0
 24 23  1  0  0  0  0
 25  5  1  0  0  0  0
 26 25  1  0  0  0  0
 26 27  1  0  0  0  0
 28 26  1  0  0  0  0
 29 26  1  0  0  0  0
 30 31  1  6  0  0  0
 30 32  1  0  0  0  0
 32 41  2  0  0  0  0
 32 33  1  0  0  0  0
 33 35  2  0  0  0  0
 34 33  1  0  0  0  0
 35 37  1  0  0  0  0
 35 36  1  0  0  0  0
 37 38  1  0  0  0  0
 39 40  1  0  0  0  0
 39 37  2  0  0  0  0
 41 39  1  0  0  0  0
 42 43  1  0  0  0  0
 42 45  1  0  0  0  0
 44 42  1  0  0  0  0
M  END
