1,2
 OpenBabel05122313053D

 23 24  0  0  1  0  0  0  0  0999 V2000
   -0.7308   -2.1115    0.0644 N   0  0  0  0  0  0  0  0  0  0  0  0
   -2.0261    0.1829   -0.0309 N   0  0  0  0  0  2  0  0  0  0  0  0
   -0.1734   -3.3182    0.0799 N   0  0  0  0  0  2  0  0  0  0  0  0
   -2.1075   -2.1917    0.0137 C   0  0  0  0  0  0  0  0  0  0  0  0
   -2.8274   -0.9341   -0.0272 C   0  0  1  0  0  3  0  0  0  0  0  0
   -2.5658    1.4169   -0.0837 C   0  0  0  0  0  0  0  0  0  0  0  0
   -1.8441    2.2493   -0.0927 H   0  0  0  0  0  0  0  0  0  0  0  0
   -3.9447    1.6503   -0.1187 C   0  0  0  0  0  0  0  0  0  0  0  0
   -4.5025    3.0468   -0.1801 C   0  0  0  0  0  0  0  0  0  0  0  0
   -3.6966    3.8054   -0.1499 H   0  0  0  0  0  0  0  0  0  0  0  0
   -5.1918    3.2467    0.6667 H   0  0  0  0  0  0  0  0  0  0  0  0
   -5.0842    3.2087   -1.1120 H   0  0  0  0  0  0  0  0  0  0  0  0
   -4.7745    0.5096   -0.0974 C   0  0  0  0  0  0  0  0  0  0  0  0
   -5.8699    0.6348   -0.1183 H   0  0  0  0  0  0  0  0  0  0  0  0
   -4.2476   -0.7862   -0.0561 C   0  0  0  0  0  0  0  0  0  0  0  0
   -5.1610   -1.9795   -0.0428 C   0  0  0  0  0  0  0  0  0  0  0  0
   -6.2221   -1.6655   -0.0457 H   0  0  0  0  0  0  0  0  0  0  0  0
   -4.9871   -2.6132    0.8512 H   0  0  0  0  0  0  0  0  0  0  0  0
   -4.9899   -2.6285   -0.9265 H   0  0  0  0  0  0  0  0  0  0  0  0
   -2.4421   -3.5731   -0.0062 C   0  0  0  0  0  0  0  0  0  0  0  0
   -3.4276   -4.0428   -0.0410 H   0  0  0  0  0  0  0  0  0  0  0  0
   -1.1952   -4.2169    0.0369 C   0  0  0  0  0  0  0  0  0  0  0  0
   -0.9801   -5.2936    0.0429 H   0  0  0  0  0  0  0  0  0  0  0  0
  1  3  1  0  0  0  0
  2  5  1  0  0  0  0
  4  1  2  0  0  0  0
  5  4  1  1  0  0  0
  6  2  1  0  0  0  0
  7  6  1  0  0  0  0
  8 13  1  0  0  0  0
  8  6  2  0  0  0  0
  9 10  1  0  0  0  0
  9  8  1  0  0  0  0
  9 11  1  0  0  0  0
 12  9  1  0  0  0  0
 13 15  2  0  0  0  0
 14 13  1  0  0  0  0
 15 16  1  0  0  0  0
 15  5  1  0  0  0  0
 16 18  1  0  0  0  0
 17 16  1  0  0  0  0
 19 16  1  0  0  0  0
 20  4  1  0  0  0  0
 20 22  2  0  0  0  0
 21 20  1  0  0  0  0
 22 23  1  0  0  0  0
 22  3  1  0  0  0  0
M  END
