1,2
 OpenBabel05122313053D

 24 26  0  0  1  0  0  0  0  0999 V2000
    0.7352   -1.9362   -0.3027 N   0  0  0  0  0  0  0  0  0  0  0  0
    1.7366    0.4931   -0.1205 N   0  0  0  0  0  2  0  0  0  0  0  0
    0.3978   -3.2262   -0.4991 C   0  0  0  0  0  0  0  0  0  0  0  0
   -0.6576   -3.5271   -0.5255 H   0  0  0  0  0  0  0  0  0  0  0  0
    1.5669   -4.0134   -0.6584 C   0  0  0  0  0  0  0  0  0  0  0  0
    1.6051   -5.0924   -0.8502 H   0  0  0  0  0  0  0  0  0  0  0  0
    2.6614   -3.1386   -0.5520 C   0  0  0  0  0  0  0  0  0  0  0  0
    3.7106   -3.4173   -0.6866 H   0  0  0  0  0  0  0  0  0  0  0  0
    2.1247   -1.8344   -0.3211 C   0  0  0  0  0  3  0  0  0  0  0  0
    2.6691   -0.5083   -0.1593 C   0  0  0  0  0  0  0  0  0  0  0  0
    4.0785   -0.1698   -0.0404 C   0  0  0  0  0  0  0  0  0  0  0  0
    5.1061   -1.1422    0.1042 C   0  0  0  0  0  0  0  0  0  0  0  0
    4.8351   -2.1997    0.1882 H   0  0  0  0  0  0  0  0  0  0  0  0
    6.4447   -0.7734    0.1835 C   0  0  0  0  0  0  0  0  0  0  0  0
    7.2171   -1.5482    0.3019 H   0  0  0  0  0  0  0  0  0  0  0  0
    6.8162    0.5920    0.1271 C   0  0  0  0  0  0  0  0  0  0  0  0
    7.8781    0.8765    0.1823 H   0  0  0  0  0  0  0  0  0  0  0  0
    5.8357    1.5697    0.0303 C   0  0  0  0  0  0  0  0  0  0  0  0
    6.1072    2.6368    0.0193 H   0  0  0  0  0  0  0  0  0  0  0  0
    4.4574    1.2201   -0.0369 C   0  0  2  0  0  3  0  0  0  0  0  0
    3.4285    2.2074   -0.0628 C   0  0  0  0  0  0  0  0  0  0  0  0
    3.6819    3.2770   -0.0454 H   0  0  0  0  0  0  0  0  0  0  0  0
    2.1106    1.8012   -0.0630 C   0  0  0  0  0  0  0  0  0  0  0  0
    1.2784    2.5209   -0.0261 H   0  0  0  0  0  0  0  0  0  0  0  0
  2 23  1  0  0  0  0
  3  1  2  0  0  0  0
  4  3  1  0  0  0  0
  5  7  2  0  0  0  0
  5  3  1  0  0  0  0
  6  5  1  0  0  0  0
  7  9  1  0  0  0  0
  8  7  1  0  0  0  0
  9  1  1  0  0  0  0
  9 10  1  0  0  0  0
 10  2  1  0  0  0  0
 10 11  2  0  0  0  0
 11 20  1  0  0  0  0
 11 12  1  0  0  0  0
 12 14  2  0  0  0  0
 12 13  1  0  0  0  0
 14 15  1  0  0  0  0
 16 17  1  0  0  0  0
 16 14  1  0  0  0  0
 18 16  2  0  0  0  0
 19 18  1  0  0  0  0
 20 21  1  1  0  0  0
 20 18  1  0  0  0  0
 21 22  1  0  0  0  0
 23 21  2  0  0  0  0
 23 24  1  0  0  0  0
M  END
