1,12
 OpenBabel05122313053D

 23 24  0  0  0  0  0  0  0  0999 V2000
   -1.6646   -0.2296    0.1079 N   0  0  0  0  0  2  0  0  0  0  0  0
   -2.5480   -1.2556    0.1345 C   0  0  0  0  0  3  0  0  0  0  0  0
   -2.1217   -2.2657    0.2010 H   0  0  0  0  0  0  0  0  0  0  0  0
   -3.9246   -1.0517    0.0753 C   0  0  0  0  0  0  0  0  0  0  0  0
   -4.6117   -1.9073    0.1122 H   0  0  0  0  0  0  0  0  0  0  0  0
   -6.1144    0.5515   -0.1049 Cl  0  0  0  0  0  0  0  0  0  0  0  0
   -4.4200    0.2678   -0.0361 C   0  0  0  0  0  0  0  0  0  0  0  0
   -3.5181    1.3348   -0.1060 C   0  0  0  0  0  0  0  0  0  0  0  0
   -3.8449    2.3750   -0.2308 H   0  0  0  0  0  0  0  0  0  0  0  0
   -2.1407    1.0519   -0.0454 C   0  0  0  0  0  0  0  0  0  0  0  0
   -1.2130    2.0493   -0.1808 N   0  0  0  0  0  2  0  0  0  0  0  0
   -0.0006    1.5910   -0.1907 N   0  0  0  0  0  2  0  0  0  0  0  0
    1.0136    2.5732   -0.3933 C   0  0  0  0  0  0  0  0  0  0  0  0
    0.8908    3.8470    0.2005 C   0  0  0  0  0  0  0  0  0  0  0  0
    0.0102    4.0696    0.8185 H   0  0  0  0  0  0  0  0  0  0  0  0
    1.9035    4.7909   -0.0007 C   0  0  0  0  0  0  0  0  0  0  0  0
    1.8286    5.7791    0.4766 H   0  0  0  0  0  0  0  0  0  0  0  0
    3.0108    4.4812   -0.8112 C   0  0  0  0  0  0  0  0  0  0  0  0
    3.7995    5.2312   -0.9710 H   0  0  0  0  0  0  0  0  0  0  0  0
    3.1070    3.2206   -1.4261 C   0  0  0  0  0  0  0  0  0  0  0  0
    3.9558    2.9925   -2.0873 H   0  0  0  0  0  0  0  0  0  0  0  0
    2.1162    2.2546   -1.2135 C   0  0  0  0  0  0  0  0  0  0  0  0
    2.1424    1.2780   -1.7187 H   0  0  0  0  0  0  0  0  0  0  0  0
  1  2  1  0  0  0  0
  2  3  1  0  0  0  0
  4  5  1  0  0  0  0
  4  2  1  0  0  0  0
  6  7  1  0  0  0  0
  7  4  2  0  0  0  0
  8 10  2  0  0  0  0
  8  7  1  0  0  0  0
  9  8  1  0  0  0  0
 10  1  1  0  0  0  0
 11 10  1  0  0  0  0
 12 11  1  0  0  0  0
 13 12  1  0  0  0  0
 13 14  1  0  0  0  0
 14 15  1  0  0  0  0
 16 14  2  0  0  0  0
 16 17  1  0  0  0  0
 18 16  1  0  0  0  0
 19 18  1  0  0  0  0
 20 22  1  0  0  0  0
 20 18  2  0  0  0  0
 21 20  1  0  0  0  0
 22 13  2  0  0  0  0
 23 22  1  0  0  0  0
M  END
