1,12
 OpenBabel05122313053D

 23 24  0  0  0  0  0  0  0  0999 V2000
   -1.2903   -1.1575    0.0543 N   0  0  0  0  0  2  0  0  0  0  0  0
   -2.6321   -1.0144    0.0628 C   0  0  0  0  0  3  0  0  0  0  0  0
   -3.0342    0.0042    0.1414 H   0  0  0  0  0  0  0  0  0  0  0  0
   -5.1855   -1.8844    0.0118 Cl  0  0  0  0  0  0  0  0  0  0  0  0
   -3.4829   -2.1271   -0.0314 C   0  0  0  0  0  0  0  0  0  0  0  0
   -2.9357   -3.4240   -0.1560 C   0  0  0  0  0  0  0  0  0  0  0  0
   -3.5999   -4.2962   -0.2308 H   0  0  0  0  0  0  0  0  0  0  0  0
   -1.5523   -3.5592   -0.2022 C   0  0  0  0  0  0  0  0  0  0  0  0
   -1.0631   -4.5337   -0.3329 H   0  0  0  0  0  0  0  0  0  0  0  0
   -0.7401   -2.4088   -0.1102 C   0  0  0  0  0  0  0  0  0  0  0  0
    0.6180   -2.4827   -0.2285 N   0  0  0  0  0  2  0  0  0  0  0  0
    1.1787   -1.3143   -0.2103 N   0  0  0  0  0  2  0  0  0  0  0  0
    2.5929   -1.3173   -0.3930 C   0  0  0  0  0  0  0  0  0  0  0  0
    3.3783   -2.3312    0.1946 C   0  0  0  0  0  0  0  0  0  0  0  0
    2.8887   -3.1130    0.7914 H   0  0  0  0  0  0  0  0  0  0  0  0
    4.7656   -2.3071    0.0146 C   0  0  0  0  0  0  0  0  0  0  0  0
    5.3887   -3.0805    0.4873 H   0  0  0  0  0  0  0  0  0  0  0  0
    5.3619   -1.3019   -0.7680 C   0  0  0  0  0  0  0  0  0  0  0  0
    6.4526   -1.2934   -0.9108 H   0  0  0  0  0  0  0  0  0  0  0  0
    4.5671   -0.3150   -1.3768 C   0  0  0  0  0  0  0  0  0  0  0  0
    5.0309    0.4500   -2.0166 H   0  0  0  0  0  0  0  0  0  0  0  0
    3.1801   -0.3089   -1.1858 C   0  0  0  0  0  0  0  0  0  0  0  0
    2.5305    0.4228   -1.6880 H   0  0  0  0  0  0  0  0  0  0  0  0
  1  2  1  0  0  0  0
  2  3  1  0  0  0  0
  5  4  1  0  0  0  0
  5  2  1  0  0  0  0
  6  5  2  0  0  0  0
  7  6  1  0  0  0  0
  8  6  1  0  0  0  0
  8 10  2  0  0  0  0
  9  8  1  0  0  0  0
 10  1  1  0  0  0  0
 11 12  1  0  0  0  0
 11 10  1  0  0  0  0
 13 12  1  0  0  0  0
 13 14  1  0  0  0  0
 14 15  1  0  0  0  0
 16 14  2  0  0  0  0
 16 17  1  0  0  0  0
 18 16  1  0  0  0  0
 19 18  1  0  0  0  0
 20 22  1  0  0  0  0
 20 18  2  0  0  0  0
 21 20  1  0  0  0  0
 22 13  2  0  0  0  0
 23 22  1  0  0  0  0
M  END
