1,12
 OpenBabel05122313053D

 23 24  0  0  0  0  0  0  0  0999 V2000
   -1.1622   -0.1982   -0.6272 N   0  0  0  0  0  2  0  0  0  0  0  0
   -2.4285   -0.2600   -0.1573 C   0  0  0  0  0  3  0  0  0  0  0  0
   -2.5800   -0.0393    0.9071 H   0  0  0  0  0  0  0  0  0  0  0  0
   -5.2399   -0.6259   -0.2851 Br  0  0  0  0  0  0  0  0  0  0  0  0
   -3.5000   -0.6058   -0.9935 C   0  0  0  0  0  0  0  0  0  0  0  0
   -3.2623   -0.9308   -2.3481 C   0  0  0  0  0  0  0  0  0  0  0  0
   -4.0962   -1.2093   -3.0074 H   0  0  0  0  0  0  0  0  0  0  0  0
   -1.9527   -0.9072   -2.8153 C   0  0  0  0  0  0  0  0  0  0  0  0
   -1.6936   -1.1775   -3.8477 H   0  0  0  0  0  0  0  0  0  0  0  0
   -0.9084   -0.5441   -1.9377 C   0  0  0  0  0  0  0  0  0  0  0  0
    0.3946   -0.5533   -2.3374 N   0  0  0  0  0  2  0  0  0  0  0  0
    1.2107   -0.2487   -1.3754 N   0  0  0  0  0  2  0  0  0  0  0  0
    2.5929   -0.2784   -1.7300 C   0  0  0  0  0  0  0  0  0  0  0  0
    2.9966    0.1276   -3.0195 C   0  0  0  0  0  0  0  0  0  0  0  0
    2.2385    0.4700   -3.7368 H   0  0  0  0  0  0  0  0  0  0  0  0
    4.3556    0.1007   -3.3485 C   0  0  0  0  0  0  0  0  0  0  0  0
    4.6802    0.4367   -4.3442 H   0  0  0  0  0  0  0  0  0  0  0  0
    5.3038   -0.3529   -2.4137 C   0  0  0  0  0  0  0  0  0  0  0  0
    6.3703   -0.3781   -2.6821 H   0  0  0  0  0  0  0  0  0  0  0  0
    4.8897   -0.7833   -1.1414 C   0  0  0  0  0  0  0  0  0  0  0  0
    5.6267   -1.1696   -0.4219 H   0  0  0  0  0  0  0  0  0  0  0  0
    3.5356   -0.7405   -0.7887 C   0  0  0  0  0  0  0  0  0  0  0  0
    3.1839   -1.1143    0.1834 H   0  0  0  0  0  0  0  0  0  0  0  0
  1  2  1  0  0  0  0
  2  3  1  0  0  0  0
  5  4  1  0  0  0  0
  5  2  1  0  0  0  0
  6  5  2  0  0  0  0
  7  6  1  0  0  0  0
  8  6  1  0  0  0  0
  8 10  2  0  0  0  0
  9  8  1  0  0  0  0
 10  1  1  0  0  0  0
 11 10  1  0  0  0  0
 11 12  1  0  0  0  0
 13 12  1  0  0  0  0
 13 22  1  0  0  0  0
 14 13  2  0  0  0  0
 15 14  1  0  0  0  0
 16 14  1  0  0  0  0
 16 18  2  0  0  0  0
 17 16  1  0  0  0  0
 18 20  1  0  0  0  0
 19 18  1  0  0  0  0
 20 22  2  0  0  0  0
 20 21  1  0  0  0  0
 22 23  1  0  0  0  0
M  END
