1,4
 OpenBabel05122313053D

 37 39  0  0  0  0  0  0  0  0999 V2000
   -0.2968    0.4144   -0.5697 N   0  0  0  0  0  2  0  0  0  0  0  0
   -1.9344    1.6893    0.5913 N   0  0  0  0  0  0  0  0  0  0  0  0
   -2.5352    0.1079   -1.0567 N   0  0  0  0  0  0  0  0  0  0  0  0
    1.9976   -0.6550    0.3315 N   0  0  0  0  0  2  0  0  0  0  0  0
   -1.5745    0.7711   -0.3572 C   0  0  0  0  0  3  0  0  0  0  0  0
   -0.9829    2.0370    1.6455 C   0  0  0  0  0  0  0  0  0  0  0  0
   -0.3981    1.1383    1.9246 H   0  0  0  0  0  0  0  0  0  0  0  0
   -1.5564    2.3540    2.5362 H   0  0  0  0  0  0  0  0  0  0  0  0
   -0.3015    2.8600    1.3486 H   0  0  0  0  0  0  0  0  0  0  0  0
   -3.3331    2.0017    0.9033 C   0  0  0  0  0  0  0  0  0  0  0  0
   -3.4303    3.1005    1.0409 H   0  0  0  0  0  0  0  0  0  0  0  0
   -3.5744    1.5258    1.8808 H   0  0  0  0  0  0  0  0  0  0  0  0
   -4.2991    1.4982   -0.1577 C   0  0  0  0  0  0  0  0  0  0  0  0
   -5.3316    1.5297    0.2428 H   0  0  0  0  0  0  0  0  0  0  0  0
   -4.2697    2.1439   -1.0601 H   0  0  0  0  0  0  0  0  0  0  0  0
   -3.9021    0.0799   -0.5454 C   0  0  0  0  0  0  0  0  0  0  0  0
   -3.9571   -0.6132    0.3259 H   0  0  0  0  0  0  0  0  0  0  0  0
   -4.5577   -0.3175   -1.3435 H   0  0  0  0  0  0  0  0  0  0  0  0
   -2.1672   -0.8627   -2.0799 C   0  0  0  0  0  0  0  0  0  0  0  0
   -2.9689   -0.8968   -2.8442 H   0  0  0  0  0  0  0  0  0  0  0  0
   -2.0170   -1.8810   -1.6570 H   0  0  0  0  0  0  0  0  0  0  0  0
   -1.2143   -0.5668   -2.5516 H   0  0  0  0  0  0  0  0  0  0  0  0
    0.8013    1.2396   -0.5407 C   0  0  0  0  0  0  0  0  0  0  0  0
    0.8427    2.5810   -0.9575 C   0  0  0  0  0  0  0  0  0  0  0  0
   -0.0869    3.0618   -1.2964 H   0  0  0  0  0  0  0  0  0  0  0  0
    2.0576    3.3069   -0.9698 C   0  0  0  0  0  0  0  0  0  0  0  0
    2.0426    4.3538   -1.3104 H   0  0  0  0  0  0  0  0  0  0  0  0
    3.2613    2.7294   -0.5813 C   0  0  0  0  0  3  0  0  0  0  0  0
    4.2016    3.2991   -0.6079 H   0  0  0  0  0  0  0  0  0  0  0  0
    3.2755    1.3743   -0.1458 C   0  0  0  0  0  0  0  0  0  0  0  0
    2.0443    0.6356   -0.1094 C   0  0  0  0  0  0  0  0  0  0  0  0
    4.4503    0.6823    0.2664 C   0  0  0  0  0  0  0  0  0  0  0  0
    5.4161    1.2112    0.2480 H   0  0  0  0  0  0  0  0  0  0  0  0
    4.3745   -0.6416    0.6756 C   0  0  0  0  0  0  0  0  0  0  0  0
    5.2712   -1.1966    0.9856 H   0  0  0  0  0  0  0  0  0  0  0  0
    3.1125   -1.2836    0.6928 C   0  0  0  0  0  0  0  0  0  0  0  0
    3.0039   -2.3380    0.9946 H   0  0  0  0  0  0  0  0  0  0  0  0
  1 23  1  0  0  0  0
  1  5  1  0  0  0  0
  2 10  1  0  0  0  0
  2  6  1  0  0  0  0
  3 16  1  0  0  0  0
  3  5  1  0  0  0  0
  4 36  1  0  0  0  0
  5  2  1  0  0  0  0
  6  7  1  0  0  0  0
  6  8  1  0  0  0  0
  9  6  1  0  0  0  0
 10 11  1  0  0  0  0
 10 12  1  0  0  0  0
 13 14  1  0  0  0  0
 13 10  1  0  0  0  0
 15 13  1  0  0  0  0
 16 13  1  0  0  0  0
 16 17  1  0  0  0  0
 18 16  1  0  0  0  0
 19 21  1  0  0  0  0
 19  3  1  0  0  0  0
 20 19  1  0  0  0  0
 22 19  1  0  0  0  0
 23 31  2  0  0  0  0
 24 23  1  0  0  0  0
 25 24  1  0  0  0  0
 26 24  2  0  0  0  0
 26 28  1  0  0  0  0
 27 26  1  0  0  0  0
 28 30  1  0  0  0  0
 29 28  1  0  0  0  0
 30 31  1  0  0  0  0
 30 32  2  0  0  0  0
 31  4  1  0  0  0  0
 32 34  1  0  0  0  0
 33 32  1  0  0  0  0
 34 36  2  0  0  0  0
 34 35  1  0  0  0  0
 36 37  1  0  0  0  0
M  END
