2,5
 OpenBabel05122313053D

 38 39  0  0  1  0  0  0  0  0999 V2000
    4.6552   -0.8678   -0.1012 O   0  0  0  0  0  0  0  0  0  0  0  0
   -0.0781    0.4478   -0.9144 N   0  0  0  0  0  2  0  0  0  0  0  0
    0.8936    2.4343   -0.0248 N   0  0  0  0  0  0  0  0  0  0  0  0
    2.1570    0.4661   -0.3050 N   0  0  0  0  0  0  0  0  0  0  0  0
   -2.5269   -0.3170   -0.0550 N   0  0  0  0  0  2  0  0  0  0  0  0
    0.9568    1.1124   -0.4289 C   0  0  1  0  0  3  0  0  0  0  0  0
   -0.2106    2.8737    0.8154 C   0  0  0  0  0  0  0  0  0  0  0  0
   -0.7540    1.9860    1.1939 H   0  0  0  0  0  0  0  0  0  0  0  0
   -0.9115    3.5644    0.2931 H   0  0  0  0  0  0  0  0  0  0  0  0
    0.1937    3.4079    1.7027 H   0  0  0  0  0  0  0  0  0  0  0  0
    1.9695    3.3769   -0.2567 C   0  0  0  0  0  0  0  0  0  0  0  0
    2.7207    2.9242   -0.9300 H   0  0  0  0  0  0  0  0  0  0  0  0
    2.4806    3.6855    0.6849 H   0  0  0  0  0  0  0  0  0  0  0  0
    1.5752    4.2995   -0.7386 H   0  0  0  0  0  0  0  0  0  0  0  0
    2.3726   -0.8207   -0.9731 C   0  0  0  0  0  0  0  0  0  0  0  0
    2.0159   -1.6596   -0.3318 H   0  0  0  0  0  0  0  0  0  0  0  0
    1.7640   -0.8548   -1.8961 H   0  0  0  0  0  0  0  0  0  0  0  0
    3.8613   -0.9854   -1.2708 C   0  0  0  0  0  0  0  0  0  0  0  0
    4.1737   -0.2211   -2.0278 H   0  0  0  0  0  0  0  0  0  0  0  0
    4.0525   -1.9923   -1.6911 H   0  0  0  0  0  0  0  0  0  0  0  0
    4.4613    0.3902    0.5182 C   0  0  0  0  0  0  0  0  0  0  0  0
    5.0905    0.4024    1.4305 H   0  0  0  0  0  0  0  0  0  0  0  0
    4.8089    1.2144   -0.1577 H   0  0  0  0  0  0  0  0  0  0  0  0
    2.9989    0.6201    0.8894 C   0  0  0  0  0  0  0  0  0  0  0  0
    2.8562    1.6219    1.3322 H   0  0  0  0  0  0  0  0  0  0  0  0
    2.6562   -0.1227    1.6453 H   0  0  0  0  0  0  0  0  0  0  0  0
   -1.2028    1.1270   -1.5118 C   0  0  0  0  0  0  0  0  0  0  0  0
   -1.3051    0.7835   -2.5707 H   0  0  0  0  0  0  0  0  0  0  0  0
   -1.0817    2.2311   -1.5621 H   0  0  0  0  0  0  0  0  0  0  0  0
   -2.5160    0.7900   -0.8246 C   0  0  1  0  0  3  0  0  0  0  0  0
   -3.6800    1.5583   -1.0020 C   0  0  0  0  0  0  0  0  0  0  0  0
   -3.6498    2.4603   -1.6316 H   0  0  0  0  0  0  0  0  0  0  0  0
   -4.8617    1.1612   -0.3649 C   0  0  0  0  0  0  0  0  0  0  0  0
   -5.7826    1.7517   -0.4848 H   0  0  0  0  0  0  0  0  0  0  0  0
   -4.8548    0.0069    0.4349 C   0  0  0  0  0  0  0  0  0  0  0  0
   -5.7601   -0.3361    0.9554 H   0  0  0  0  0  0  0  0  0  0  0  0
   -3.6574   -0.7036    0.5630 C   0  0  0  0  0  0  0  0  0  0  0  0
   -3.5836   -1.6128    1.1812 H   0  0  0  0  0  0  0  0  0  0  0  0
  1 21  1  0  0  0  0
  3  7  1  0  0  0  0
  4 24  1  0  0  0  0
  5 37  1  0  0  0  0
  6  2  1  1  0  0  0
  6  4  1  0  0  0  0
  6  3  1  0  0  0  0
  7  8  1  0  0  0  0
  7 10  1  0  0  0  0
  9  7  1  0  0  0  0
 11  3  1  0  0  0  0
 11 13  1  0  0  0  0
 12 11  1  0  0  0  0
 14 11  1  0  0  0  0
 15 16  1  0  0  0  0
 15  4  1  0  0  0  0
 17 15  1  0  0  0  0
 18 15  1  0  0  0  0
 18  1  1  0  0  0  0
 19 18  1  0  0  0  0
 20 18  1  0  0  0  0
 21 24  1  0  0  0  0
 21 22  1  0  0  0  0
 23 21  1  0  0  0  0
 24 25  1  0  0  0  0
 24 26  1  0  0  0  0
 27  2  1  0  0  0  0
 28 27  1  0  0  0  0
 29 27  1  0  0  0  0
 30 27  1  6  0  0  0
 30  5  1  0  0  0  0
 31 30  1  0  0  0  0
 31 33  2  0  0  0  0
 32 31  1  0  0  0  0
 33 35  1  0  0  0  0
 34 33  1  0  0  0  0
 35 37  2  0  0  0  0
 35 36  1  0  0  0  0
 37 38  1  0  0  0  0
M  END
