1,4
 OpenBabel05122313053D

 50 53  0  0  0  0  0  0  0  0999 V2000
    0.0469    0.3652   -0.7053 N   0  0  0  0  0  2  0  0  0  0  0  0
   -1.9312   -0.8217   -0.9594 N   0  0  0  0  0  0  0  0  0  0  0  0
   -2.0256    1.3469   -0.0500 N   0  0  0  0  0  0  0  0  0  0  0  0
    2.5999    0.5242    0.1337 N   0  0  0  0  0  2  0  0  0  0  0  0
   -1.2833    0.3183   -0.5920 C   0  0  0  0  0  3  0  0  0  0  0  0
   -3.0546   -1.3766   -0.1911 C   0  0  0  0  0  0  0  0  0  0  0  0
   -3.4858   -0.5841    0.4446 H   0  0  0  0  0  0  0  0  0  0  0  0
   -2.6178   -2.1389    0.4950 H   0  0  0  0  0  0  0  0  0  0  0  0
   -4.0972   -2.0081   -1.1128 C   0  0  0  0  0  0  0  0  0  0  0  0
   -4.5724   -1.2186   -1.7374 H   0  0  0  0  0  0  0  0  0  0  0  0
   -4.9022   -2.4579   -0.4954 H   0  0  0  0  0  0  0  0  0  0  0  0
   -3.4449   -3.0624   -2.0164 C   0  0  0  0  0  0  0  0  0  0  0  0
   -3.0933   -3.9086   -1.3854 H   0  0  0  0  0  0  0  0  0  0  0  0
   -4.1850   -3.4821   -2.7288 H   0  0  0  0  0  0  0  0  0  0  0  0
   -2.2474   -2.4629   -2.7630 C   0  0  0  0  0  0  0  0  0  0  0  0
   -1.7192   -3.2405   -3.3518 H   0  0  0  0  0  0  0  0  0  0  0  0
   -2.6044   -1.6961   -3.4858 H   0  0  0  0  0  0  0  0  0  0  0  0
   -1.2500   -1.8163   -1.7979 C   0  0  0  0  0  0  0  0  0  0  0  0
   -0.7716   -2.5793   -1.1446 H   0  0  0  0  0  0  0  0  0  0  0  0
   -0.4240   -1.3133   -2.3314 H   0  0  0  0  0  0  0  0  0  0  0  0
   -1.4382    2.2680    0.9259 C   0  0  0  0  0  0  0  0  0  0  0  0
   -1.1483    3.2224    0.4248 H   0  0  0  0  0  0  0  0  0  0  0  0
   -0.5243    1.7988    1.3372 H   0  0  0  0  0  0  0  0  0  0  0  0
   -2.4357    2.5513    2.0544 C   0  0  0  0  0  0  0  0  0  0  0  0
   -2.5846    1.6195    2.6410 H   0  0  0  0  0  0  0  0  0  0  0  0
   -1.9867    3.2936    2.7457 H   0  0  0  0  0  0  0  0  0  0  0  0
   -3.7795    3.0498    1.5120 C   0  0  0  0  0  0  0  0  0  0  0  0
   -3.6338    4.0383    1.0202 H   0  0  0  0  0  0  0  0  0  0  0  0
   -4.5031    3.2131    2.3370 H   0  0  0  0  0  0  0  0  0  0  0  0
   -4.3452    2.0588    0.4873 C   0  0  0  0  0  0  0  0  0  0  0  0
   -4.6221    1.1111    0.9990 H   0  0  0  0  0  0  0  0  0  0  0  0
   -5.2711    2.4522    0.0187 H   0  0  0  0  0  0  0  0  0  0  0  0
   -3.3136    1.7656   -0.6052 C   0  0  0  0  0  0  0  0  0  0  0  0
   -3.6662    0.9941   -1.3147 H   0  0  0  0  0  0  0  0  0  0  0  0
   -3.1467    2.7002   -1.1987 H   0  0  0  0  0  0  0  0  0  0  0  0
    0.7411    1.5193   -1.0131 C   0  0  0  0  0  0  0  0  0  0  0  0
    0.2563    2.5936   -1.7772 C   0  0  0  0  0  0  0  0  0  0  0  0
   -0.7738    2.5572   -2.1611 H   0  0  0  0  0  0  0  0  0  0  0  0
    1.0736    3.7094   -2.0794 C   0  0  0  0  0  0  0  0  0  0  0  0
    0.6484    4.5280   -2.6803 H   0  0  0  0  0  0  0  0  0  0  0  0
    2.3910    3.7890   -1.6442 C   0  0  0  0  0  3  0  0  0  0  0  0
    3.0179    4.6611   -1.8820 H   0  0  0  0  0  0  0  0  0  0  0  0
    2.9407    2.7168   -0.8864 C   0  0  0  0  0  0  0  0  0  0  0  0
    2.1179    1.5815   -0.5757 C   0  0  0  0  0  0  0  0  0  0  0  0
    4.2810    2.6877   -0.4036 C   0  0  0  0  0  0  0  0  0  0  0  0
    4.9441    3.5408   -0.6177 H   0  0  0  0  0  0  0  0  0  0  0  0
    4.7386    1.5962    0.3202 C   0  0  0  0  0  0  0  0  0  0  0  0
    5.7700    1.5540    0.6985 H   0  0  0  0  0  0  0  0  0  0  0  0
    3.8561    0.5141    0.5662 C   0  0  0  0  0  0  0  0  0  0  0  0
    4.1612   -0.3943    1.1123 H   0  0  0  0  0  0  0  0  0  0  0  0
  1  5  1  0  0  0  0
  2  5  1  0  0  0  0
  2  6  1  0  0  0  0
  3 21  1  0  0  0  0
  4 49  1  0  0  0  0
  5  3  1  0  0  0  0
  6  7  1  0  0  0  0
  6  8  1  0  0  0  0
  9 11  1  0  0  0  0
  9  6  1  0  0  0  0
 10  9  1  0  0  0  0
 12 13  1  0  0  0  0
 12  9  1  0  0  0  0
 14 12  1  0  0  0  0
 15 12  1  0  0  0  0
 15 18  1  0  0  0  0
 16 15  1  0  0  0  0
 17 15  1  0  0  0  0
 18 19  1  0  0  0  0
 18  2  1  0  0  0  0
 20 18  1  0  0  0  0
 21 23  1  0  0  0  0
 21 24  1  0  0  0  0
 22 21  1  0  0  0  0
 24 25  1  0  0  0  0
 24 26  1  0  0  0  0
 27 24  1  0  0  0  0
 27 29  1  0  0  0  0
 28 27  1  0  0  0  0
 30 31  1  0  0  0  0
 30 27  1  0  0  0  0
 32 30  1  0  0  0  0
 33  3  1  0  0  0  0
 33 30  1  0  0  0  0
 34 33  1  0  0  0  0
 35 33  1  0  0  0  0
 36  1  1  0  0  0  0
 36 44  2  0  0  0  0
 37 36  1  0  0  0  0
 38 37  1  0  0  0  0
 39 37  2  0  0  0  0
 39 41  1  0  0  0  0
 40 39  1  0  0  0  0
 41 43  1  0  0  0  0
 42 41  1  0  0  0  0
 43 44  1  0  0  0  0
 43 45  2  0  0  0  0
 44  4  1  0  0  0  0
 45 47  1  0  0  0  0
 46 45  1  0  0  0  0
 47 49  2  0  0  0  0
 47 48  1  0  0  0  0
 49 50  1  0  0  0  0
M  END
