2,4
 OpenBabel05122313053D

 55 56  0  0  1  0  0  0  0  0999 V2000
    0.9808    1.6395    0.3764 N   0  0  0  0  0  0  0  0  0  0  0  0
   -2.0305    0.2784   -0.0106 N   0  0  0  0  0  0  0  0  0  0  0  0
    3.0659    0.6516    0.7327 N   0  0  0  0  0  0  0  0  0  0  0  0
    1.0692   -0.6601    0.7270 N   0  0  0  0  0  2  0  0  0  0  0  0
    1.7020    0.4930    0.6041 C   0  0  1  0  0  3  0  0  0  0  0  0
    1.4749    2.7848   -0.4060 C   0  0  0  0  0  0  0  0  0  0  0  0
    1.4647    2.5263   -1.4868 H   0  0  0  0  0  0  0  0  0  0  0  0
    2.5185    3.0462   -0.1290 H   0  0  0  0  0  0  0  0  0  0  0  0
    0.5096    3.9362   -0.0529 C   0  0  0  0  0  0  0  0  0  0  0  0
    1.0383    4.8987    0.0862 H   0  0  0  0  0  0  0  0  0  0  0  0
   -0.2266    4.0856   -0.8675 H   0  0  0  0  0  0  0  0  0  0  0  0
   -0.1954    3.4464    1.2225 C   0  0  0  0  0  0  0  0  0  0  0  0
   -1.1628    3.9502    1.4133 H   0  0  0  0  0  0  0  0  0  0  0  0
    0.4515    3.6034    2.1100 H   0  0  0  0  0  0  0  0  0  0  0  0
   -0.3392    1.9325    0.9618 C   0  0  1  0  0  0  0  0  0  0  0  0
   -0.4372    1.3506    1.8995 H   0  0  0  0  0  0  0  0  0  0  0  0
   -1.5526    1.6713    0.0427 C   0  0  0  0  0  0  0  0  0  0  0  0
   -2.3689    2.3567    0.3636 H   0  0  0  0  0  0  0  0  0  0  0  0
   -1.2748    1.9385   -0.9968 H   0  0  0  0  0  0  0  0  0  0  0  0
   -3.0459    0.0950   -1.0911 C   0  0  0  0  0  0  0  0  0  0  0  0
   -3.1687   -1.0031   -1.2084 H   0  0  0  0  0  0  0  0  0  0  0  0
   -2.5946    0.4702   -2.0315 H   0  0  0  0  0  0  0  0  0  0  0  0
   -4.3953    0.7464   -0.7775 C   0  0  0  0  0  0  0  0  0  0  0  0
   -5.0972    0.5227   -1.6074 H   0  0  0  0  0  0  0  0  0  0  0  0
   -4.2980    1.8543   -0.7496 H   0  0  0  0  0  0  0  0  0  0  0  0
   -4.9490    0.2334    0.5590 C   0  0  0  0  0  0  0  0  0  0  0  0
   -5.8942    0.7521    0.8222 H   0  0  0  0  0  0  0  0  0  0  0  0
   -5.1970   -0.8463    0.4552 H   0  0  0  0  0  0  0  0  0  0  0  0
   -3.9082    0.3966    1.6755 C   0  0  0  0  0  0  0  0  0  0  0  0
   -3.7695    1.4757    1.9097 H   0  0  0  0  0  0  0  0  0  0  0  0
   -4.2591   -0.0775    2.6157 H   0  0  0  0  0  0  0  0  0  0  0  0
   -2.5742   -0.2403    1.2724 C   0  0  0  0  0  0  0  0  0  0  0  0
   -1.8049   -0.1187    2.0604 H   0  0  0  0  0  0  0  0  0  0  0  0
   -2.6956   -1.3344    1.1226 H   0  0  0  0  0  0  0  0  0  0  0  0
    4.0668   -0.1518    0.0026 C   0  0  0  0  0  0  0  0  0  0  0  0
    3.8778   -1.2152    0.2434 H   0  0  0  0  0  0  0  0  0  0  0  0
    3.9420    0.0343   -1.5140 C   0  0  0  0  0  0  0  0  0  0  0  0
    2.9117   -0.1840   -1.8652 H   0  0  0  0  0  0  0  0  0  0  0  0
    4.6450   -0.6358   -2.0493 H   0  0  0  0  0  0  0  0  0  0  0  0
    4.1838    1.0795   -1.8025 H   0  0  0  0  0  0  0  0  0  0  0  0
    5.4516    0.2128    0.5349 C   0  0  0  0  0  0  0  0  0  0  0  0
    5.5226    0.0388    1.6269 H   0  0  0  0  0  0  0  0  0  0  0  0
    5.6833    1.2821    0.3367 H   0  0  0  0  0  0  0  0  0  0  0  0
    6.2318   -0.3907    0.0322 H   0  0  0  0  0  0  0  0  0  0  0  0
    1.6653   -1.7985    1.4441 C   0  0  0  0  0  0  0  0  0  0  0  0
    2.5957   -1.4501    1.9475 H   0  0  0  0  0  0  0  0  0  0  0  0
    0.6745   -2.2591    2.5221 C   0  0  0  0  0  0  0  0  0  0  0  0
    0.4419   -1.4350    3.2266 H   0  0  0  0  0  0  0  0  0  0  0  0
    1.0911   -3.1068    3.1030 H   0  0  0  0  0  0  0  0  0  0  0  0
   -0.2650   -2.5969    2.0387 H   0  0  0  0  0  0  0  0  0  0  0  0
    1.9995   -2.9590    0.4937 C   0  0  0  0  0  0  0  0  0  0  0  0
    2.6447   -2.6374   -0.3476 H   0  0  0  0  0  0  0  0  0  0  0  0
    1.0673   -3.3755    0.0607 H   0  0  0  0  0  0  0  0  0  0  0  0
    2.5218   -3.7687    1.0421 H   0  0  0  0  0  0  0  0  0  0  0  0
    3.3524    1.6267    0.8441 H   0  0  0  0  0  0  0  0  0  0  0  0
  1  5  1  0  0  0  0
  1 15  1  0  0  0  0
  2 17  1  0  0  0  0
  2 32  1  0  0  0  0
  3 55  1  0  0  0  0
  4 45  1  0  0  0  0
  5  4  1  1  0  0  0
  5  3  1  0  0  0  0
  6  8  1  0  0  0  0
  6  9  1  0  0  0  0
  6  1  1  0  0  0  0
  7  6  1  0  0  0  0
  9 10  1  0  0  0  0
  9 12  1  0  0  0  0
 11  9  1  0  0  0  0
 12 13  1  0  0  0  0
 12 14  1  0  0  0  0
 15 12  1  0  0  0  0
 15 16  1  1  0  0  0
 17 18  1  0  0  0  0
 17 15  1  0  0  0  0
 19 17  1  0  0  0  0
 20 23  1  0  0  0  0
 20  2  1  0  0  0  0
 21 20  1  0  0  0  0
 22 20  1  0  0  0  0
 23 25  1  0  0  0  0
 23 26  1  0  0  0  0
 24 23  1  0  0  0  0
 26 27  1  0  0  0  0
 26 29  1  0  0  0  0
 28 26  1  0  0  0  0
 29 30  1  0  0  0  0
 29 31  1  0  0  0  0
 32 29  1  0  0  0  0
 32 33  1  0  0  0  0
 34 32  1  0  0  0  0
 35 36  1  0  0  0  0
 35 41  1  0  0  0  0
 35  3  1  0  0  0  0
 37 35  1  0  0  0  0
 38 37  1  0  0  0  0
 39 37  1  0  0  0  0
 40 37  1  0  0  0  0
 41 42  1  0  0  0  0
 43 41  1  0  0  0  0
 44 41  1  0  0  0  0
 45 46  1  0  0  0  0
 45 47  1  0  0  0  0
 47 49  1  0  0  0  0
 47 48  1  0  0  0  0
 50 47  1  0  0  0  0
 51 54  1  0  0  0  0
 51 45  1  0  0  0  0
 52 51  1  0  0  0  0
 53 51  1  0  0  0  0
M  END
