1,2
 OpenBabel05122313053D

 36 38  0  0  0  0  0  0  0  0999 V2000
    4.2771   -0.6769   -0.0984 N   0  0  0  0  0  2  0  0  0  0  0  0
    1.5205   -1.0252    0.0056 N   0  0  0  0  0  2  0  0  0  0  0  0
   -4.0957   -1.1245    0.1942 N   0  0  0  0  0  2  0  0  0  0  0  0
   -4.7136   -0.0867   -0.1985 N   0  0  0  0  0  2  0  0  0  0  0  0
    5.6175   -0.5479   -0.1144 C   0  0  0  0  0  3  0  0  0  0  0  0
    6.0076    0.4809   -0.0678 H   0  0  0  0  0  0  0  0  0  0  0  0
    6.4898   -1.6422   -0.1900 C   0  0  0  0  0  0  0  0  0  0  0  0
    7.5761   -1.4747   -0.2024 H   0  0  0  0  0  0  0  0  0  0  0  0
    5.9456   -2.9354   -0.2534 C   0  0  0  0  0  0  0  0  0  0  0  0
    6.5979   -3.8189   -0.3139 H   0  0  0  0  0  0  0  0  0  0  0  0
    4.5552   -3.0766   -0.2395 C   0  0  0  0  0  0  0  0  0  0  0  0
    4.0827   -4.0692   -0.2884 H   0  0  0  0  0  0  0  0  0  0  0  0
    3.7383   -1.9288   -0.1578 C   0  0  0  0  0  0  0  0  0  0  0  0
    2.2792   -2.0615   -0.1506 C   0  0  0  0  0  3  0  0  0  0  0  0
    1.8749   -3.0844   -0.3117 H   0  0  0  0  0  0  0  0  0  0  0  0
    0.1285   -1.0786    0.0534 C   0  0  0  0  0  0  0  0  0  0  0  0
   -0.5910   -2.2224    0.4873 C   0  0  0  0  0  0  0  0  0  0  0  0
   -0.0506   -3.1157    0.8336 H   0  0  0  0  0  0  0  0  0  0  0  0
   -1.9835   -2.1964    0.5222 C   0  0  0  0  0  0  0  0  0  0  0  0
   -2.5682   -3.0610    0.8694 H   0  0  0  0  0  0  0  0  0  0  0  0
   -2.6927   -1.0403    0.1198 C   0  0  0  0  0  0  0  0  0  0  0  0
   -1.9744    0.1083   -0.2981 C   0  0  0  0  0  0  0  0  0  0  0  0
   -2.5449    1.0010   -0.5892 H   0  0  0  0  0  0  0  0  0  0  0  0
   -0.5838    0.0957   -0.3165 C   0  0  0  0  0  0  0  0  0  0  0  0
   -0.0128    0.9880   -0.6247 H   0  0  0  0  0  0  0  0  0  0  0  0
   -6.1188   -0.1594   -0.1201 C   0  0  0  0  0  0  0  0  0  0  0  0
   -6.8374   -1.2837    0.3553 C   0  0  0  0  0  0  0  0  0  0  0  0
   -6.2652   -2.1616    0.6863 H   0  0  0  0  0  0  0  0  0  0  0  0
   -8.2325   -1.2466    0.3905 C   0  0  0  0  0  0  0  0  0  0  0  0
   -8.7954   -2.1179    0.7595 H   0  0  0  0  0  0  0  0  0  0  0  0
   -8.9261   -0.0986   -0.0434 C   0  0  0  0  0  0  0  0  0  0  0  0
  -10.0262   -0.0779   -0.0116 H   0  0  0  0  0  0  0  0  0  0  0  0
   -8.2165    1.0181   -0.5153 C   0  0  0  0  0  0  0  0  0  0  0  0
   -8.7582    1.9142   -0.8533 H   0  0  0  0  0  0  0  0  0  0  0  0
   -6.8172    0.9891   -0.5543 C   0  0  0  0  0  0  0  0  0  0  0  0
   -6.2259    1.8431   -0.9160 H   0  0  0  0  0  0  0  0  0  0  0  0
  2 16  1  0  0  0  0
  4 26  1  0  0  0  0
  4  3  1  0  0  0  0
  5  1  1  0  0  0  0
  5  6  1  0  0  0  0
  7  5  1  0  0  0  0
  8  7  1  0  0  0  0
  9 11  1  0  0  0  0
  9  7  2  0  0  0  0
 10  9  1  0  0  0  0
 11 13  2  0  0  0  0
 12 11  1  0  0  0  0
 13 14  1  0  0  0  0
 13  1  1  0  0  0  0
 14  2  1  0  0  0  0
 15 14  1  0  0  0  0
 16 17  1  0  0  0  0
 17 19  2  0  0  0  0
 17 18  1  0  0  0  0
 19 20  1  0  0  0  0
 21  3  1  0  0  0  0
 21 19  1  0  0  0  0
 22 21  2  0  0  0  0
 23 22  1  0  0  0  0
 24 22  1  0  0  0  0
 24 16  2  0  0  0  0
 25 24  1  0  0  0  0
 26 27  1  0  0  0  0
 27 29  2  0  0  0  0
 27 28  1  0  0  0  0
 29 30  1  0  0  0  0
 31 32  1  0  0  0  0
 31 29  1  0  0  0  0
 33 31  2  0  0  0  0
 34 33  1  0  0  0  0
 35 33  1  0  0  0  0
 35 26  2  0  0  0  0
 36 35  1  0  0  0  0
M  END
