1,3
 OpenBabel05122313053D

 50 55  0  0  0  0  0  0  0  0999 V2000
   -1.3001   -1.0331    0.4174 N   0  0  0  0  0  2  0  0  0  0  0  0
   -3.4158    0.0366    0.6850 N   0  0  0  0  0  0  0  0  0  0  0  0
    1.3154   -1.1068    0.0722 N   0  0  0  0  0  2  0  0  0  0  0  0
    3.4884   -0.1546   -0.1768 N   0  0  0  0  0  0  0  0  0  0  0  0
    3.8479    2.2473   -0.5427 C   0  0  0  0  0  0  0  0  0  0  0  0
    3.3503    3.2677   -1.3633 C   0  0  0  0  0  0  0  0  0  0  0  0
    2.3491    3.1596   -1.8067 H   0  0  0  0  0  0  0  0  0  0  0  0
    4.1188    4.4076   -1.6895 C   0  0  0  0  0  0  0  0  0  0  0  0
    3.6986    5.1747   -2.3565 H   0  0  0  0  0  0  0  0  0  0  0  0
    5.3995    4.5426   -1.1781 C   0  0  0  0  0  0  0  0  0  0  0  0
    6.0104    5.4252   -1.4234 H   0  0  0  0  0  0  0  0  0  0  0  0
    5.9556    3.5431   -0.3292 C   0  0  0  0  0  0  0  0  0  0  0  0
    7.2678    3.6967    0.2082 C   0  0  0  0  0  0  0  0  0  0  0  0
    7.8386    4.6006   -0.0550 H   0  0  0  0  0  0  0  0  0  0  0  0
    7.8125    2.7370    1.0451 C   0  0  0  0  0  0  0  0  0  0  0  0
    8.8259    2.8669    1.4537 H   0  0  0  0  0  0  0  0  0  0  0  0
    7.0561    1.5835    1.3762 C   0  0  0  0  0  0  0  0  0  0  0  0
    7.4880    0.8212    2.0421 H   0  0  0  0  0  0  0  0  0  0  0  0
    5.7784    1.3990    0.8664 C   0  0  0  0  0  0  0  0  0  0  0  0
    5.2191    0.4877    1.1070 H   0  0  0  0  0  0  0  0  0  0  0  0
    5.1847    2.3630   -0.0015 C   0  0  0  0  0  0  0  0  0  0  0  0
    2.9601    1.0921   -0.2771 C   0  0  0  0  0  0  0  0  0  0  0  0
    1.5644    1.2682   -0.1440 C   0  0  0  0  0  0  0  0  0  0  0  0
    1.1256    2.2736   -0.1512 H   0  0  0  0  0  0  0  0  0  0  0  0
    0.7556    0.1393    0.0203 C   0  0  0  0  0  0  0  0  0  0  0  0
    2.6634   -1.1782   -0.0112 C   0  0  0  0  0  0  0  0  0  0  0  0
    3.0967   -2.1896    0.0548 H   0  0  0  0  0  0  0  0  0  0  0  0
   -0.7033    0.1809    0.2208 C   0  0  0  0  0  0  0  0  0  0  0  0
   -1.4626    1.3546    0.2631 C   0  0  0  0  0  0  0  0  0  0  0  0
   -0.9953    2.3293    0.0758 H   0  0  0  0  0  0  0  0  0  0  0  0
   -2.8504    1.2584    0.5090 C   0  0  0  0  0  0  0  0  0  0  0  0
   -2.6351   -1.0327    0.6349 C   0  0  0  0  0  0  0  0  0  0  0  0
   -3.1005   -2.0222    0.7738 H   0  0  0  0  0  0  0  0  0  0  0  0
   -3.6915    2.4741    0.6000 C   0  0  0  0  0  0  0  0  0  0  0  0
   -3.1256    3.6120    1.1887 C   0  0  0  0  0  0  0  0  0  0  0  0
   -2.1026    3.5566    1.5902 H   0  0  0  0  0  0  0  0  0  0  0  0
   -3.8497    4.8165    1.3365 C   0  0  0  0  0  0  0  0  0  0  0  0
   -3.3756    5.6804    1.8251 H   0  0  0  0  0  0  0  0  0  0  0  0
   -5.1544    4.8950    0.8767 C   0  0  0  0  0  0  0  0  0  0  0  0
   -5.7312    5.8266    0.9851 H   0  0  0  0  0  0  0  0  0  0  0  0
   -5.7786    3.7749    0.2565 C   0  0  0  0  0  0  0  0  0  0  0  0
   -7.1143    3.8687   -0.2346 C   0  0  0  0  0  0  0  0  0  0  0  0
   -7.6507    4.8226   -0.1140 H   0  0  0  0  0  0  0  0  0  0  0  0
   -7.7227    2.7904   -0.8555 C   0  0  0  0  0  0  0  0  0  0  0  0
   -8.7532    2.8753   -1.2318 H   0  0  0  0  0  0  0  0  0  0  0  0
   -7.0093    1.5740   -1.0093 C   0  0  0  0  0  0  0  0  0  0  0  0
   -7.4906    0.7186   -1.5069 H   0  0  0  0  0  0  0  0  0  0  0  0
   -5.7106    1.4454   -0.5369 C   0  0  0  0  0  0  0  0  0  0  0  0
   -5.1835    0.4902   -0.6409 H   0  0  0  0  0  0  0  0  0  0  0  0
   -5.0525    2.5314    0.1130 C   0  0  0  0  0  0  0  0  0  0  0  0
  1 32  1  0  0  0  0
  4 26  2  0  0  0  0
  5 22  1  0  0  0  0
  5 21  1  0  0  0  0
  6  5  2  0  0  0  0
  7  6  1  0  0  0  0
  8  6  1  0  0  0  0
  8 10  2  0  0  0  0
  9  8  1  0  0  0  0
 10 12  1  0  0  0  0
 11 10  1  0  0  0  0
 12 21  2  0  0  0  0
 12 13  1  0  0  0  0
 13 15  2  0  0  0  0
 14 13  1  0  0  0  0
 15 17  1  0  0  0  0
 15 16  1  0  0  0  0
 17 18  1  0  0  0  0
 19 20  1  0  0  0  0
 19 17  2  0  0  0  0
 21 19  1  0  0  0  0
 22  4  1  0  0  0  0
 22 23  2  0  0  0  0
 23 25  1  0  0  0  0
 24 23  1  0  0  0  0
 25  3  1  0  0  0  0
 25 28  2  0  0  0  0
 26 27  1  0  0  0  0
 26  3  1  0  0  0  0
 28 29  1  0  0  0  0
 28  1  1  0  0  0  0
 29 31  2  0  0  0  0
 30 29  1  0  0  0  0
 31 34  1  0  0  0  0
 31  2  1  0  0  0  0
 32  2  2  0  0  0  0
 32 33  1  0  0  0  0
 34 35  1  0  0  0  0
 35 37  2  0  0  0  0
 35 36  1  0  0  0  0
 37 38  1  0  0  0  0
 39 40  1  0  0  0  0
 39 37  1  0  0  0  0
 41 39  2  0  0  0  0
 42 43  1  0  0  0  0
 42 41  1  0  0  0  0
 44 42  2  0  0  0  0
 45 44  1  0  0  0  0
 46 44  1  0  0  0  0
 46 48  2  0  0  0  0
 47 46  1  0  0  0  0
 48 50  1  0  0  0  0
 49 48  1  0  0  0  0
 50 41  1  0  0  0  0
 50 34  2  0  0  0  0
M  END
