2,3
 OpenBabel05122313053D

 40 42  0  0  0  0  0  0  0  0999 V2000
   -1.0655   -0.5072    1.2528 N   0  0  0  0  0  0  0  0  0  0  0  0
    0.2393   -0.1874    1.0834 N   0  0  0  0  0  2  0  0  0  0  0  0
    2.8094   -0.0511    0.6327 N   0  0  0  0  0  2  0  0  0  0  0  0
   -3.3789   -0.4418    0.7362 C   0  0  0  0  0  0  0  0  0  0  0  0
   -4.5404    0.3552    0.6272 C   0  0  0  0  0  0  0  0  0  0  0  0
   -5.8114   -0.2329    0.6868 C   0  0  0  0  0  0  0  0  0  0  0  0
   -5.9390   -1.6212    0.8486 C   0  0  0  0  0  0  0  0  0  0  0  0
   -4.7877   -2.4221    0.9555 C   0  0  0  0  0  0  0  0  0  0  0  0
   -3.5180   -1.8392    0.9029 C   0  0  0  0  0  0  0  0  0  0  0  0
   -1.8316    1.4693   -0.0026 C   0  0  0  0  0  0  0  0  0  0  0  0
   -1.1330    2.5224    0.6265 C   0  0  0  0  0  0  0  0  0  0  0  0
   -0.9554    3.7472   -0.0296 C   0  0  0  0  0  0  0  0  0  0  0  0
   -1.4610    3.9307   -1.3258 C   0  0  0  0  0  0  0  0  0  0  0  0
   -2.1524    2.8872   -1.9613 C   0  0  0  0  0  0  0  0  0  0  0  0
   -2.3472    1.6667   -1.3033 C   0  0  0  0  0  0  0  0  0  0  0  0
   -2.0280    0.1650    0.6861 C   0  0  0  0  0  0  0  0  0  0  0  0
    0.9590    0.1473    2.1442 C   0  0  0  0  0  0  0  0  0  0  0  0
    0.3358    0.3461    3.4909 C   0  0  0  0  0  0  0  0  0  0  0  0
    2.3846    0.2950    1.8939 C   0  0  0  0  0  0  0  0  0  0  0  0
    3.2942    0.7676    2.8655 C   0  0  0  0  0  0  0  0  0  0  0  0
    4.6501    0.8760    2.5516 C   0  0  0  0  0  0  0  0  0  0  0  0
    5.0755    0.5063    1.2630 C   0  0  0  0  0  0  0  0  0  0  0  0
    4.1269    0.0531    0.3434 C   0  0  0  0  0  0  0  0  0  0  0  0
   -4.4428    1.4439    0.5061 H   0  0  0  0  0  0  0  0  0  0  0  0
   -6.7090    0.3986    0.6065 H   0  0  0  0  0  0  0  0  0  0  0  0
   -6.9375   -2.0827    0.8870 H   0  0  0  0  0  0  0  0  0  0  0  0
   -4.8838   -3.5123    1.0710 H   0  0  0  0  0  0  0  0  0  0  0  0
   -2.6081   -2.4524    0.9735 H   0  0  0  0  0  0  0  0  0  0  0  0
   -0.7499    2.3877    1.6479 H   0  0  0  0  0  0  0  0  0  0  0  0
   -0.4158    4.5634    0.4736 H   0  0  0  0  0  0  0  0  0  0  0  0
   -1.3089    4.8883   -1.8459 H   0  0  0  0  0  0  0  0  0  0  0  0
   -2.5371    3.0218   -2.9832 H   0  0  0  0  0  0  0  0  0  0  0  0
   -2.8711    0.8407   -1.8052 H   0  0  0  0  0  0  0  0  0  0  0  0
    0.0564    1.4083    3.6674 H   0  0  0  0  0  0  0  0  0  0  0  0
    1.0150    0.0400    4.3087 H   0  0  0  0  0  0  0  0  0  0  0  0
   -0.5961   -0.2509    3.5482 H   0  0  0  0  0  0  0  0  0  0  0  0
    2.9257    1.0530    3.8601 H   0  0  0  0  0  0  0  0  0  0  0  0
    5.3681    1.2442    3.2989 H   0  0  0  0  0  0  0  0  0  0  0  0
    6.1317    0.5690    0.9661 H   0  0  0  0  0  0  0  0  0  0  0  0
    4.4156   -0.2425   -0.6759 H   0  0  0  0  0  0  0  0  0  0  0  0
  2  1  1  0  0  0  0
  2 17  1  0  0  0  0
  3 19  1  0  0  0  0
  4  9  1  0  0  0  0
  5  6  1  0  0  0  0
  5  4  2  0  0  0  0
  6  7  2  0  0  0  0
  7 26  1  0  0  0  0
  7  8  1  0  0  0  0
  8 27  1  0  0  0  0
  9  8  2  0  0  0  0
  9 28  1  0  0  0  0
 10 11  1  0  0  0  0
 10 16  1  0  0  0  0
 11 29  1  0  0  0  0
 12 30  1  0  0  0  0
 12 11  2  0  0  0  0
 13 12  1  0  0  0  0
 14 13  2  0  0  0  0
 14 15  1  0  0  0  0
 15 10  2  0  0  0  0
 16  4  1  0  0  0  0
 16  1  2  0  0  0  0
 17 18  1  0  0  0  0
 18 36  1  0  0  0  0
 18 34  1  0  0  0  0
 18 35  1  0  0  0  0
 19 17  2  0  0  0  0
 19 20  1  0  0  0  0
 20 37  1  0  0  0  0
 21 20  2  0  0  0  0
 21 38  1  0  0  0  0
 22 21  1  0  0  0  0
 23  3  1  0  0  0  0
 23 22  2  0  0  0  0
 24  5  1  0  0  0  0
 25  6  1  0  0  0  0
 31 13  1  0  0  0  0
 32 14  1  0  0  0  0
 33 15  1  0  0  0  0
 39 22  1  0  0  0  0
 40 23  1  0  0  0  0
M  END
