1,2
 OpenBabel05122313053D

 37 40  0  0  1  0  0  0  0  0999 V2000
   -1.4091    0.0879   -0.1388 N   0  0  0  0  0  2  0  0  0  0  0  0
    1.4089    0.0880   -0.1385 N   0  0  0  0  0  2  0  0  0  0  0  0
    2.3263    2.1029   -0.4483 N   0  0  0  0  0  0  0  0  0  0  0  0
   -2.3262    2.1031   -0.4480 N   0  0  0  0  0  0  0  0  0  0  0  0
   -2.6523    0.0842    0.4926 C   0  0  0  0  0  0  0  0  0  0  0  0
   -3.3195   -0.9047    1.2365 C   0  0  0  0  0  0  0  0  0  0  0  0
   -4.5819   -0.5821    1.7451 C   0  0  0  0  0  0  0  0  0  0  0  0
   -5.1686    0.6891    1.5310 C   0  0  0  0  0  0  0  0  0  0  0  0
   -4.5104    1.6877    0.8039 C   0  0  0  0  0  0  0  0  0  0  0  0
   -3.2448    1.3587    0.2948 C   0  0  0  0  0  0  0  0  0  0  0  0
   -1.2404    1.3021   -0.6796 C   0  0  1  0  0  3  0  0  0  0  0  0
   -0.0000    1.7029   -1.4264 C   0  0  0  0  0  0  0  0  0  0  0  0
    1.2403    1.3021   -0.6796 C   0  0  2  0  0  3  0  0  0  0  0  0
    3.2449    1.3586    0.2946 C   0  0  0  0  0  0  0  0  0  0  0  0
    4.5106    1.6876    0.8035 C   0  0  0  0  0  0  0  0  0  0  0  0
    5.1687    0.6890    1.5308 C   0  0  0  0  0  0  0  0  0  0  0  0
    4.5818   -0.5820    1.7453 C   0  0  0  0  0  0  0  0  0  0  0  0
    3.3193   -0.9046    1.2369 C   0  0  0  0  0  0  0  0  0  0  0  0
    2.6522    0.0843    0.4928 C   0  0  0  0  0  0  0  0  0  0  0  0
    2.5587    3.4741   -0.8710 C   0  0  0  0  0  0  0  0  0  0  0  0
   -2.5586    3.4742   -0.8707 C   0  0  0  0  0  0  0  0  0  0  0  0
   -2.8628   -1.8865    1.4212 H   0  0  0  0  0  0  0  0  0  0  0  0
   -5.1322   -1.3327    2.3306 H   0  0  0  0  0  0  0  0  0  0  0  0
   -6.1633    0.8984    1.9504 H   0  0  0  0  0  0  0  0  0  0  0  0
   -4.9659    2.6753    0.6464 H   0  0  0  0  0  0  0  0  0  0  0  0
    0.0000    1.2119   -2.4264 H   0  0  0  0  0  0  0  0  0  0  0  0
   -0.0000    2.7904   -1.6139 H   0  0  0  0  0  0  0  0  0  0  0  0
    4.9662    2.6750    0.6458 H   0  0  0  0  0  0  0  0  0  0  0  0
    6.1635    0.8983    1.9501 H   0  0  0  0  0  0  0  0  0  0  0  0
    5.1320   -1.3325    2.3309 H   0  0  0  0  0  0  0  0  0  0  0  0
    2.8624   -1.8862    1.4219 H   0  0  0  0  0  0  0  0  0  0  0  0
    3.4774    3.5290   -1.4880 H   0  0  0  0  0  0  0  0  0  0  0  0
    1.7130    3.8424   -1.4765 H   0  0  0  0  0  0  0  0  0  0  0  0
    2.6807    4.1321    0.0123 H   0  0  0  0  0  0  0  0  0  0  0  0
   -1.7127    3.8428   -1.4758 H   0  0  0  0  0  0  0  0  0  0  0  0
   -3.4770    3.5291   -1.4880 H   0  0  0  0  0  0  0  0  0  0  0  0
   -2.6810    4.1321    0.0126 H   0  0  0  0  0  0  0  0  0  0  0  0
  1  5  1  0  0  0  0
  2 19  1  0  0  0  0
  3 14  1  0  0  0  0
  4 10  1  0  0  0  0
  5  6  1  0  0  0  0
  6 22  1  0  0  0  0
  6  7  2  0  0  0  0
  7 23  1  0  0  0  0
  8  7  1  0  0  0  0
  8 24  1  0  0  0  0
  9  8  2  0  0  0  0
 10  5  2  0  0  0  0
 10  9  1  0  0  0  0
 11 12  1  1  0  0  0
 11  4  1  0  0  0  0
 11  1  1  0  0  0  0
 13 12  1  1  0  0  0
 13  3  1  0  0  0  0
 13  2  1  0  0  0  0
 14 19  2  0  0  0  0
 14 15  1  0  0  0  0
 15 16  2  0  0  0  0
 16 17  1  0  0  0  0
 16 29  1  0  0  0  0
 17 30  1  0  0  0  0
 18 31  1  0  0  0  0
 18 17  2  0  0  0  0
 19 18  1  0  0  0  0
 20  3  1  0  0  0  0
 20 34  1  0  0  0  0
 21  4  1  0  0  0  0
 21 37  1  0  0  0  0
 25  9  1  0  0  0  0
 26 12  1  0  0  0  0
 27 12  1  0  0  0  0
 28 15  1  0  0  0  0
 32 20  1  0  0  0  0
 33 20  1  0  0  0  0
 35 21  1  0  0  0  0
 36 21  1  0  0  0  0
M  END
