1,2
 OpenBabel05122313053D

 24 26  0  0  1  0  0  0  0  0999 V2000
   -1.2313    0.4842   -0.1092 N   0  0  0  0  0  0  0  0  0  0  0  0
    1.0587    1.6903   -0.2529 N   0  0  0  0  0  2  0  0  0  0  0  0
   -1.2604    1.8413    0.1666 C   0  0  0  0  0  3  0  0  0  0  0  0
   -2.5795    2.2891    0.3740 C   0  0  0  0  0  0  0  0  0  0  0  0
   -2.9003    3.3133    0.5959 H   0  0  0  0  0  0  0  0  0  0  0  0
   -3.4070    1.1470    0.1869 C   0  0  0  0  0  0  0  0  0  0  0  0
   -2.5207    0.0409   -0.1375 C   0  0  0  0  0  0  0  0  0  0  0  0
   -3.0411   -1.2321   -0.4655 C   0  0  0  0  0  0  0  0  0  0  0  0
   -2.3655   -2.0369   -0.7839 H   0  0  0  0  0  0  0  0  0  0  0  0
   -4.4223   -1.4129   -0.4194 C   0  0  0  0  0  0  0  0  0  0  0  0
   -4.8480   -2.3939   -0.6811 H   0  0  0  0  0  0  0  0  0  0  0  0
   -5.2998   -0.3485   -0.0636 C   0  0  0  0  0  0  0  0  0  0  0  0
   -6.3847   -0.5329   -0.0400 H   0  0  0  0  0  0  0  0  0  0  0  0
   -4.8076    0.9212    0.2276 C   0  0  0  0  0  0  0  0  0  0  0  0
   -5.4935    1.7466    0.4749 H   0  0  0  0  0  0  0  0  0  0  0  0
    0.0042    2.5167    0.0510 C   0  0  2  0  0  3  0  0  0  0  0  0
    0.2092    3.9125    0.1557 C   0  0  0  0  0  0  0  0  0  0  0  0
   -0.6433    4.5564    0.4118 H   0  0  0  0  0  0  0  0  0  0  0  0
    1.4726    4.4450   -0.0931 C   0  0  0  0  0  0  0  0  0  0  0  0
    1.6407    5.5298   -0.0182 H   0  0  0  0  0  0  0  0  0  0  0  0
    2.5229    3.5841   -0.4691 C   0  0  0  0  0  0  0  0  0  0  0  0
    3.5241    3.9653   -0.7121 H   0  0  0  0  0  0  0  0  0  0  0  0
    2.2646    2.2134   -0.5422 C   0  0  0  0  0  0  0  0  0  0  0  0
    3.0371    1.4962   -0.8524 H   0  0  0  0  0  0  0  0  0  0  0  0
  1  3  1  0  0  0  0
  2 16  1  0  0  0  0
  3  4  1  0  0  0  0
  4  5  1  0  0  0  0
  6 14  1  0  0  0  0
  6  4  2  0  0  0  0
  7  1  2  0  0  0  0
  7  6  1  0  0  0  0
  8 10  2  0  0  0  0
  8  7  1  0  0  0  0
  9  8  1  0  0  0  0
 10 12  1  0  0  0  0
 11 10  1  0  0  0  0
 12 13  1  0  0  0  0
 12 14  2  0  0  0  0
 14 15  1  0  0  0  0
 16 17  1  0  0  0  0
 16  3  1  6  0  0  0
 17 18  1  0  0  0  0
 19 20  1  0  0  0  0
 19 17  2  0  0  0  0
 21 19  1  0  0  0  0
 22 21  1  0  0  0  0
 23 21  2  0  0  0  0
 23  2  1  0  0  0  0
 24 23  1  0  0  0  0
M  END
