1,2
 OpenBabel05122313053D

 58 58  0  0  1  0  0  0  0  0999 V2000
   -0.5152   -0.4822    0.3871 N   0  0  0  0  0  2  0  0  0  0  0  0
    2.2767   -1.3443   -0.0422 N   0  0  0  0  0  2  0  0  0  0  0  0
    2.7981    1.2144   -0.8619 N   0  0  0  0  0  0  0  0  0  0  0  0
   -1.5761   -1.5230    2.3546 C   0  0  0  0  0  0  0  0  0  0  0  0
   -1.2835   -2.1043    3.2476 H   0  0  0  0  0  0  0  0  0  0  0  0
   -1.9715   -0.5386    2.6750 H   0  0  0  0  0  0  0  0  0  0  0  0
   -2.4202   -2.0467    1.8613 H   0  0  0  0  0  0  0  0  0  0  0  0
   -0.4084   -1.3543    1.4011 C   0  0  2  0  0  3  0  0  0  0  0  0
    0.7431   -2.1388    1.6575 C   0  0  0  0  0  0  0  0  0  0  0  0
    2.0172   -2.0857    1.0361 C   0  0  0  0  0  0  0  0  0  0  0  0
    3.1337   -2.8850    1.6773 C   0  0  0  0  0  0  0  0  0  0  0  0
    3.6630   -3.5095    0.9285 H   0  0  0  0  0  0  0  0  0  0  0  0
    3.8971   -2.2143    2.1271 H   0  0  0  0  0  0  0  0  0  0  0  0
    2.7512   -3.5424    2.4787 H   0  0  0  0  0  0  0  0  0  0  0  0
    3.6418   -1.0991   -0.4700 C   0  0  0  0  0  0  0  0  0  0  0  0
    4.3238   -0.9488    0.3983 H   0  0  0  0  0  0  0  0  0  0  0  0
    4.0735   -1.9522   -1.0460 H   0  0  0  0  0  0  0  0  0  0  0  0
    3.6716    0.1464   -1.3724 C   0  0  0  0  0  0  0  0  0  0  0  0
    3.2918   -0.1176   -2.3819 H   0  0  0  0  0  0  0  0  0  0  0  0
    4.7262    0.5009   -1.4938 H   0  0  0  0  0  0  0  0  0  0  0  0
    3.1955    1.6821    0.4634 C   0  0  0  0  0  0  0  0  0  0  0  0
    2.5308    2.5093    0.7778 H   0  0  0  0  0  0  0  0  0  0  0  0
    3.0896    0.8666    1.2046 H   0  0  0  0  0  0  0  0  0  0  0  0
    4.2491    2.0570    0.4856 H   0  0  0  0  0  0  0  0  0  0  0  0
    2.6740    2.3084   -1.8210 C   0  0  0  0  0  0  0  0  0  0  0  0
    2.2591    1.9139   -2.7695 H   0  0  0  0  0  0  0  0  0  0  0  0
    1.9666    3.0658   -1.4294 H   0  0  0  0  0  0  0  0  0  0  0  0
    3.6515    2.8108   -2.0262 H   0  0  0  0  0  0  0  0  0  0  0  0
   -1.7100    0.2604    0.1876 C   0  0  0  0  0  0  0  0  0  0  0  0
   -2.8527   -0.3544   -0.3976 C   0  0  0  0  0  0  0  0  0  0  0  0
   -4.0075    0.4256   -0.5908 C   0  0  0  0  0  0  0  0  0  0  0  0
   -4.9004   -0.0372   -1.0377 H   0  0  0  0  0  0  0  0  0  0  0  0
   -4.0385    1.7813   -0.2416 C   0  0  0  0  0  0  0  0  0  0  0  0
   -4.9545    2.3714   -0.3969 H   0  0  0  0  0  0  0  0  0  0  0  0
   -2.8903    2.3895    0.2813 C   0  0  0  0  0  0  0  0  0  0  0  0
   -2.9100    3.4621    0.5244 H   0  0  0  0  0  0  0  0  0  0  0  0
   -1.7126    1.6509    0.4943 C   0  0  0  0  0  0  0  0  0  0  0  0
   -0.4480    2.3043    1.0382 C   0  0  0  0  0  0  0  0  0  0  0  0
    0.3982    1.7470    0.5806 H   0  0  0  0  0  0  0  0  0  0  0  0
   -0.3182    2.1256    2.5609 C   0  0  0  0  0  0  0  0  0  0  0  0
   -1.1668    2.6111    3.0864 H   0  0  0  0  0  0  0  0  0  0  0  0
   -0.3066    1.0557    2.8439 H   0  0  0  0  0  0  0  0  0  0  0  0
    0.6216    2.5831    2.9355 H   0  0  0  0  0  0  0  0  0  0  0  0
   -0.3010    3.7782    0.6420 C   0  0  0  0  0  0  0  0  0  0  0  0
   -0.4210    3.9203   -0.4509 H   0  0  0  0  0  0  0  0  0  0  0  0
   -1.0473    4.4228    1.1512 H   0  0  0  0  0  0  0  0  0  0  0  0
    0.6995    4.1601    0.9335 H   0  0  0  0  0  0  0  0  0  0  0  0
   -2.7962   -1.7912   -0.9059 C   0  0  0  0  0  0  0  0  0  0  0  0
   -1.9715   -2.3059   -0.3735 H   0  0  0  0  0  0  0  0  0  0  0  0
   -4.0828   -2.5863   -0.6448 C   0  0  0  0  0  0  0  0  0  0  0  0
   -4.3720   -2.5620    0.4261 H   0  0  0  0  0  0  0  0  0  0  0  0
   -4.9395   -2.1943   -1.2312 H   0  0  0  0  0  0  0  0  0  0  0  0
   -3.9479   -3.6467   -0.9398 H   0  0  0  0  0  0  0  0  0  0  0  0
   -2.4247   -1.7927   -2.4013 C   0  0  0  0  0  0  0  0  0  0  0  0
   -3.2055   -1.2784   -2.9998 H   0  0  0  0  0  0  0  0  0  0  0  0
   -1.4647   -1.2641   -2.5698 H   0  0  0  0  0  0  0  0  0  0  0  0
   -2.3253   -2.8302   -2.7834 H   0  0  0  0  0  0  0  0  0  0  0  0
    0.6662   -2.8161    2.5183 H   0  0  0  0  0  0  0  0  0  0  0  0
  2 10  1  0  0  0  0
  3 21  1  0  0  0  0
  4  6  1  0  0  0  0
  4  5  1  0  0  0  0
  7  4  1  0  0  0  0
  8  1  1  1  0  0  0
  8  9  1  0  0  0  0
  8  4  1  0  0  0  0
  9 58  1  0  0  0  0
 10  9  2  0  0  0  0
 10 11  1  0  0  0  0
 11 13  1  0  0  0  0
 11 14  1  0  0  0  0
 12 11  1  0  0  0  0
 15  2  1  0  0  0  0
 15 16  1  0  0  0  0
 17 15  1  0  0  0  0
 18  3  1  0  0  0  0
 18 15  1  0  0  0  0
 19 18  1  0  0  0  0
 20 18  1  0  0  0  0
 21 24  1  0  0  0  0
 21 22  1  0  0  0  0
 21 23  1  0  0  0  0
 25 27  1  0  0  0  0
 25  3  1  0  0  0  0
 26 25  1  0  0  0  0
 28 25  1  0  0  0  0
 29  1  1  0  0  0  0
 29 37  1  0  0  0  0
 30 29  2  0  0  0  0
 31 30  1  0  0  0  0
 31 33  2  0  0  0  0
 32 31  1  0  0  0  0
 33 35  1  0  0  0  0
 34 33  1  0  0  0  0
 35 37  2  0  0  0  0
 35 36  1  0  0  0  0
 37 38  1  0  0  0  0
 38 40  1  0  0  0  0
 39 38  1  0  0  0  0
 40 42  1  0  0  0  0
 40 43  1  0  0  0  0
 40 41  1  0  0  0  0
 44 47  1  0  0  0  0
 44 38  1  0  0  0  0
 44 46  1  0  0  0  0
 45 44  1  0  0  0  0
 48 50  1  0  0  0  0
 48 30  1  0  0  0  0
 48 49  1  0  0  0  0
 50 51  1  0  0  0  0
 52 50  1  0  0  0  0
 53 50  1  0  0  0  0
 54 48  1  0  0  0  0
 55 54  1  0  0  0  0
 56 54  1  0  0  0  0
 57 54  1  0  0  0  0
M  END
