1,4
 OpenBabel05122313053D

 48 49  0  0  1  0  0  0  0  0999 V2000
    1.5358    0.7320   -0.3599 N   0  0  0  0  0  2  0  0  0  0  0  0
    5.0922   -0.2943   -0.7495 C   0  0  0  0  0  0  0  0  0  0  0  0
    5.3645    0.3406   -1.6084 H   0  0  0  0  0  0  0  0  0  0  0  0
   -1.5993    1.0687    0.1446 N   0  0  0  0  0  0  0  0  0  0  0  0
    6.0937   -0.9762   -0.0416 C   0  0  0  0  0  0  0  0  0  0  0  0
    7.1463   -0.8719   -0.3466 H   0  0  0  0  0  0  0  0  0  0  0  0
    5.7527   -1.7822    1.0557 C   0  0  0  0  0  0  0  0  0  0  0  0
    6.5367   -2.3157    1.6145 H   0  0  0  0  0  0  0  0  0  0  0  0
    4.4068   -1.9004    1.4372 C   0  0  0  0  0  0  0  0  0  0  0  0
    4.1283   -2.5301    2.2960 H   0  0  0  0  0  0  0  0  0  0  0  0
    3.4020   -1.2235    0.7298 C   0  0  0  0  0  0  0  0  0  0  0  0
    2.3501   -1.3248    1.0460 H   0  0  0  0  0  0  0  0  0  0  0  0
    3.7395   -0.4143   -0.3748 C   0  0  0  0  0  0  0  0  0  0  0  0
    2.2399   -0.3850   -1.9500 H   0  0  0  0  0  0  0  0  0  0  0  0
    2.6653    0.2968   -1.1808 C   0  0  0  0  0  0  0  0  0  0  0  0
    3.1141    1.1543   -1.7273 H   0  0  0  0  0  0  0  0  0  0  0  0
    1.5897    1.8058    0.3584 C   0  0  1  0  0  3  0  0  0  0  0  0
    2.9328    3.2231   -0.5553 H   0  0  0  0  0  0  0  0  0  0  0  0
    2.8078    2.6887    0.4121 C   0  0  0  0  0  0  0  0  0  0  0  0
    3.7250    2.0849    0.5647 H   0  0  0  0  0  0  0  0  0  0  0  0
    0.3619    2.1808    1.1576 C   0  0  0  0  0  0  0  0  0  0  0  0
    2.7318    3.4468    1.2119 H   0  0  0  0  0  0  0  0  0  0  0  0
   -0.9562    2.4052    0.3385 C   0  0  0  0  0  0  0  0  0  0  0  0
    0.5730    3.1008    1.7337 H   0  0  0  0  0  0  0  0  0  0  0  0
   -0.6693    3.0270   -1.0364 C   0  0  0  0  0  0  0  0  0  0  0  0
    0.1793    1.3610    1.8912 H   0  0  0  0  0  0  0  0  0  0  0  0
   -1.8684    3.3222    1.1739 C   0  0  0  0  0  0  0  0  0  0  0  0
   -1.4272    4.3340    1.2726 H   0  0  0  0  0  0  0  0  0  0  0  0
   -2.7978    1.0109   -0.7403 C   0  0  0  0  0  0  0  0  0  0  0  0
   -2.0143    2.9100    2.1935 H   0  0  0  0  0  0  0  0  0  0  0  0
   -3.7096   -0.1089   -0.2945 C   0  0  0  0  0  0  0  0  0  0  0  0
   -2.8641    3.4387    0.7022 H   0  0  0  0  0  0  0  0  0  0  0  0
   -4.7297    0.1487    0.6436 C   0  0  0  0  0  0  0  0  0  0  0  0
   -1.6033    3.3640   -1.5256 H   0  0  0  0  0  0  0  0  0  0  0  0
   -5.5412   -0.8907    1.1211 C   0  0  0  0  0  0  0  0  0  0  0  0
   -0.1798    2.2937   -1.7064 H   0  0  0  0  0  0  0  0  0  0  0  0
   -5.3363   -2.2030    0.6660 C   0  0  0  0  0  0  0  0  0  0  0  0
   -0.0112    3.9118   -0.9288 H   0  0  0  0  0  0  0  0  0  0  0  0
   -4.3222   -2.4676   -0.2675 C   0  0  0  0  0  0  0  0  0  0  0  0
   -1.8652    0.6995    1.0730 H   0  0  0  0  0  0  0  0  0  0  0  0
   -3.5108   -1.4285   -0.7469 C   0  0  0  0  0  0  0  0  0  0  0  0
   -3.3572    1.9702   -0.7050 H   0  0  0  0  0  0  0  0  0  0  0  0
   -2.4488    0.8438   -1.7792 H   0  0  0  0  0  0  0  0  0  0  0  0
   -4.8929    1.1795    0.9997 H   0  0  0  0  0  0  0  0  0  0  0  0
   -6.3380   -0.6755    1.8492 H   0  0  0  0  0  0  0  0  0  0  0  0
   -5.9701   -3.0212    1.0406 H   0  0  0  0  0  0  0  0  0  0  0  0
   -4.1565   -3.4946   -0.6262 H   0  0  0  0  0  0  0  0  0  0  0  0
   -2.7114   -1.6333   -1.4776 H   0  0  0  0  0  0  0  0  0  0  0  0
  2 13  2  0  0  0  0
  2  5  1  0  0  0  0
  3  2  1  0  0  0  0
  4 23  1  0  0  0  0
  4 40  1  0  0  0  0
  5  7  2  0  0  0  0
  6  5  1  0  0  0  0
  7  9  1  0  0  0  0
  7  8  1  0  0  0  0
  9 10  1  0  0  0  0
 11 12  1  0  0  0  0
 11  9  2  0  0  0  0
 13 11  1  0  0  0  0
 14 15  1  0  0  0  0
 15 13  1  0  0  0  0
 15  1  1  0  0  0  0
 16 15  1  0  0  0  0
 17  1  1  6  0  0  0
 17 19  1  0  0  0  0
 17 21  1  0  0  0  0
 18 19  1  0  0  0  0
 19 20  1  0  0  0  0
 19 22  1  0  0  0  0
 21 24  1  0  0  0  0
 21 26  1  0  0  0  0
 23 21  1  0  0  0  0
 23 27  1  0  0  0  0
 25 38  1  0  0  0  0
 25 23  1  0  0  0  0
 27 28  1  0  0  0  0
 27 30  1  0  0  0  0
 29 42  1  0  0  0  0
 29 31  1  0  0  0  0
 29  4  1  0  0  0  0
 31 33  1  0  0  0  0
 32 27  1  0  0  0  0
 33 44  1  0  0  0  0
 33 35  2  0  0  0  0
 34 25  1  0  0  0  0
 35 45  1  0  0  0  0
 36 25  1  0  0  0  0
 37 46  1  0  0  0  0
 37 35  1  0  0  0  0
 39 37  2  0  0  0  0
 41 31  2  0  0  0  0
 41 39  1  0  0  0  0
 43 29  1  0  0  0  0
 47 39  1  0  0  0  0
 48 41  1  0  0  0  0
M  END
