1,2
 OpenBabel05122313053D

 30 31  0  0  1  0  0  0  0  0999 V2000
   -0.3982   -1.1098   -0.9065 N   0  0  0  0  0  2  0  0  0  0  0  0
    1.9892   -1.1047    0.3084 N   0  0  0  0  0  2  0  0  0  0  0  0
    3.1442   -1.0957    0.9992 C   0  0  0  0  0  3  0  0  0  0  0  0
    3.9323   -2.2441    1.1690 C   0  0  0  0  0  0  0  0  0  0  0  0
    3.5079   -3.4527    0.6012 C   0  0  0  0  0  0  0  0  0  0  0  0
    2.2964   -3.4746   -0.1039 C   0  0  0  0  0  0  0  0  0  0  0  0
    1.5544   -2.2885   -0.2255 C   0  0  0  0  0  0  0  0  0  0  0  0
    0.2533   -2.2356   -0.8783 C   0  0  0  0  0  3  0  0  0  0  0  0
   -1.7695   -1.0677   -1.4465 C   0  0  1  0  0  0  0  0  0  0  0  0
   -2.1668   -2.2554   -2.3294 C   0  0  0  0  0  0  0  0  0  0  0  0
   -2.7623   -0.8703   -0.3014 C   0  0  0  0  0  0  0  0  0  0  0  0
   -3.9279   -0.1120   -0.5301 C   0  0  0  0  0  0  0  0  0  0  0  0
   -4.8827    0.0470    0.4837 C   0  0  0  0  0  0  0  0  0  0  0  0
   -4.6795   -0.5443    1.7418 C   0  0  0  0  0  0  0  0  0  0  0  0
   -3.5223   -1.3016    1.9757 C   0  0  0  0  0  0  0  0  0  0  0  0
   -2.5683   -1.4670    0.9585 C   0  0  0  0  0  0  0  0  0  0  0  0
    3.4564   -0.1323    1.4293 H   0  0  0  0  0  0  0  0  0  0  0  0
    4.8700   -2.1770    1.7385 H   0  0  0  0  0  0  0  0  0  0  0  0
    4.1082   -4.3676    0.7105 H   0  0  0  0  0  0  0  0  0  0  0  0
    1.9157   -4.4024   -0.5547 H   0  0  0  0  0  0  0  0  0  0  0  0
   -0.1611   -3.1641   -1.3072 H   0  0  0  0  0  0  0  0  0  0  0  0
   -1.8049   -0.1495   -2.0698 H   0  0  0  0  0  0  0  0  0  0  0  0
   -1.4574   -2.4036   -3.1687 H   0  0  0  0  0  0  0  0  0  0  0  0
   -2.2556   -3.1950   -1.7484 H   0  0  0  0  0  0  0  0  0  0  0  0
   -3.1659   -2.0543   -2.7597 H   0  0  0  0  0  0  0  0  0  0  0  0
   -4.0877    0.3620   -1.5120 H   0  0  0  0  0  0  0  0  0  0  0  0
   -5.7899    0.6389    0.2914 H   0  0  0  0  0  0  0  0  0  0  0  0
   -5.4256   -0.4143    2.5395 H   0  0  0  0  0  0  0  0  0  0  0  0
   -3.3579   -1.7687    2.9582 H   0  0  0  0  0  0  0  0  0  0  0  0
   -1.6639   -2.0608    1.1591 H   0  0  0  0  0  0  0  0  0  0  0  0
  1  8  1  0  0  0  0
  2  3  1  0  0  0  0
  3  4  1  0  0  0  0
  3 17  1  0  0  0  0
  4 18  1  0  0  0  0
  5 19  1  0  0  0  0
  5  4  2  0  0  0  0
  6  5  1  0  0  0  0
  7  6  2  0  0  0  0
  7  2  1  0  0  0  0
  8  7  1  0  0  0  0
  9 22  1  6  0  0  0
  9  1  1  0  0  0  0
  9 11  1  0  0  0  0
 10 24  1  0  0  0  0
 10  9  1  0  0  0  0
 11 16  1  0  0  0  0
 12 11  2  0  0  0  0
 12 13  1  0  0  0  0
 13 14  2  0  0  0  0
 14 15  1  0  0  0  0
 14 28  1  0  0  0  0
 15 29  1  0  0  0  0
 16 30  1  0  0  0  0
 16 15  2  0  0  0  0
 20  6  1  0  0  0  0
 21  8  1  0  0  0  0
 23 10  1  0  0  0  0
 25 10  1  0  0  0  0
 26 12  1  0  0  0  0
 27 13  1  0  0  0  0
M  END
