1,19
 OpenBabel05122313053D

 39 41  0  0  1  0  0  0  0  0999 V2000
    2.3224    0.2850   -0.6669 N   0  0  0  0  0  0  0  0  0  0  0  0
    2.4205    0.4369   -1.6798 H   0  0  0  0  0  0  0  0  0  0  0  0
    3.5100    0.8082    0.0636 C   0  0  0  0  0  0  0  0  0  0  0  0
    3.1600    1.3884    0.9415 H   0  0  0  0  0  0  0  0  0  0  0  0
    4.0559    1.5110   -0.5949 H   0  0  0  0  0  0  0  0  0  0  0  0
    4.3597   -0.4297    0.4634 C   0  0  0  0  0  0  0  0  0  0  0  0
    4.3062   -0.5949    1.5582 H   0  0  0  0  0  0  0  0  0  0  0  0
    5.4302   -0.3060    0.2105 H   0  0  0  0  0  0  0  0  0  0  0  0
    3.7104   -1.6068   -0.2888 C   0  0  0  0  0  0  0  0  0  0  0  0
    3.8379   -2.5824    0.2211 H   0  0  0  0  0  0  0  0  0  0  0  0
    4.1337   -1.7075   -1.3109 H   0  0  0  0  0  0  0  0  0  0  0  0
    2.2425   -1.1832   -0.4058 C   0  0  2  0  0  0  0  0  0  0  0  0
    1.3514   -1.8643   -1.4657 C   0  0  0  0  0  0  0  0  0  0  0  0
    1.4043   -1.3301   -2.4351 H   0  0  0  0  0  0  0  0  0  0  0  0
    1.6932   -2.9044   -1.6288 H   0  0  0  0  0  0  0  0  0  0  0  0
   -0.0763   -1.8287   -0.8794 C   0  0  0  0  0  0  0  0  0  0  0  0
   -0.8037   -1.3238   -1.5434 H   0  0  0  0  0  0  0  0  0  0  0  0
   -0.4427   -2.8558   -0.6513 H   0  0  0  0  0  0  0  0  0  0  0  0
    0.0512   -1.0587    0.3899 N   0  0  0  0  0  0  0  0  0  0  0  0
    1.4060   -1.3708    0.8778 C   0  0  0  0  0  0  0  0  0  0  0  0
    1.4859   -2.4241    1.2401 H   0  0  0  0  0  0  0  0  0  0  0  0
    1.6950   -0.6820    1.6943 H   0  0  0  0  0  0  0  0  0  0  0  0
   -1.0762   -1.3133    1.3338 C   0  0  1  0  0  0  0  0  0  0  0  0
   -1.1771   -2.4235    1.4267 H   0  0  0  0  0  0  0  0  0  0  0  0
   -0.8075   -0.7331    2.7246 C   0  0  0  0  0  0  0  0  0  0  0  0
    0.0051   -1.2800    3.2428 H   0  0  0  0  0  0  0  0  0  0  0  0
   -1.7222   -0.8277    3.3400 H   0  0  0  0  0  0  0  0  0  0  0  0
   -0.5233    0.3370    2.6665 H   0  0  0  0  0  0  0  0  0  0  0  0
   -2.3619   -0.7925    0.7082 C   0  0  0  0  0  0  0  0  0  0  0  0
   -3.3195   -1.6863    0.1950 C   0  0  0  0  0  0  0  0  0  0  0  0
   -3.1487   -2.7714    0.2856 H   0  0  0  0  0  0  0  0  0  0  0  0
   -4.4793   -1.2108   -0.4359 C   0  0  0  0  0  0  0  0  0  0  0  0
   -5.2183   -1.9230   -0.8337 H   0  0  0  0  0  0  0  0  0  0  0  0
   -4.6890    0.1705   -0.5670 C   0  0  0  0  0  0  0  0  0  0  0  0
   -5.5915    0.5467   -1.0722 H   0  0  0  0  0  0  0  0  0  0  0  0
   -3.7423    1.0698   -0.0528 C   0  0  0  0  0  0  0  0  0  0  0  0
   -3.8958    2.1544   -0.1539 H   0  0  0  0  0  0  0  0  0  0  0  0
   -2.5911    0.5933    0.5893 C   0  0  0  0  0  0  0  0  0  0  0  0
   -1.8700    1.3156    1.0078 H   0  0  0  0  0  0  0  0  0  0  0  0
  1 12  1  0  0  0  0
  1  3  1  0  0  0  0
  2  1  1  0  0  0  0
  3  6  1  0  0  0  0
  3  4  1  0  0  0  0
  5  3  1  0  0  0  0
  6  7  1  0  0  0  0
  8  6  1  0  0  0  0
  9 10  1  0  0  0  0
  9  6  1  0  0  0  0
 11  9  1  0  0  0  0
 12 13  1  6  0  0  0
 12  9  1  0  0  0  0
 12 20  1  0  0  0  0
 13 16  1  0  0  0  0
 14 13  1  0  0  0  0
 15 13  1  0  0  0  0
 16 18  1  0  0  0  0
 16 19  1  0  0  0  0
 17 16  1  0  0  0  0
 19 20  1  0  0  0  0
 19 23  1  0  0  0  0
 20 21  1  0  0  0  0
 20 22  1  0  0  0  0
 23 24  1  1  0  0  0
 23 25  1  0  0  0  0
 25 26  1  0  0  0  0
 25 27  1  0  0  0  0
 28 25  1  0  0  0  0
 29 23  1  0  0  0  0
 30 31  1  0  0  0  0
 30 29  2  0  0  0  0
 32 30  1  0  0  0  0
 33 32  1  0  0  0  0
 34 32  2  0  0  0  0
 34 36  1  0  0  0  0
 35 34  1  0  0  0  0
 36 38  2  0  0  0  0
 37 36  1  0  0  0  0
 38 29  1  0  0  0  0
 38 39  1  0  0  0  0
M  END
