1,6
 OpenBabel05122313053D

 26 27  0  0  1  0  0  0  0  0999 V2000
    0.8424    0.5224   -0.8918 N   0  0  0  0  0  2  0  0  0  0  0  0
    3.1576    0.6031    0.7745 O   0  0  0  0  0  0  0  0  0  0  0  0
    2.0580   -0.1717   -1.2435 C   0  0  0  0  0  0  0  0  0  0  0  0
    2.7003    0.4517   -1.9096 H   0  0  0  0  0  0  0  0  0  0  0  0
    1.7943   -1.1018   -1.7912 H   0  0  0  0  0  0  0  0  0  0  0  0
   -1.4291    1.6300   -0.1033 N   0  0  0  0  0  0  0  0  0  0  0  0
   -2.4741    2.4285    0.2528 C   0  0  0  0  0  3  0  0  0  0  0  0
   -3.4097    1.9933    0.6258 H   0  0  0  0  0  0  0  0  0  0  0  0
   -0.4025    2.4721   -0.5208 C   0  0  0  0  0  0  0  0  0  0  0  0
    0.8040    1.8308   -0.9268 C   0  0  0  0  0  3  0  0  0  0  0  0
    1.6754    2.4283   -1.2642 H   0  0  0  0  0  0  0  0  0  0  0  0
    2.8800   -0.5728   -0.0064 C   0  0  1  0  0  0  0  0  0  0  0  0
    2.2613   -1.2638    0.6042 H   0  0  0  0  0  0  0  0  0  0  0  0
   -0.8185    3.8177   -0.4253 C   0  0  0  0  0  0  0  0  0  0  0  0
   -0.2230    4.7017   -0.6846 H   0  0  0  0  0  0  0  0  0  0  0  0
    5.2011    0.0138   -0.2342 C   0  0  0  0  0  0  0  0  0  0  0  0
    5.1736    0.6421   -1.1488 H   0  0  0  0  0  0  0  0  0  0  0  0
    6.2543   -0.2767   -0.0518 H   0  0  0  0  0  0  0  0  0  0  0  0
   -2.1432    3.7866    0.0694 C   0  0  0  0  0  0  0  0  0  0  0  0
   -2.7940    4.6453    0.2733 H   0  0  0  0  0  0  0  0  0  0  0  0
    4.5656    0.7592    0.9396 C   0  0  0  0  0  0  0  0  0  0  0  0
    4.8987    0.3189    1.9121 H   0  0  0  0  0  0  0  0  0  0  0  0
    4.7974    1.8441    0.9632 H   0  0  0  0  0  0  0  0  0  0  0  0
    4.2493   -1.1841   -0.3690 C   0  0  0  0  0  0  0  0  0  0  0  0
    4.5202   -1.9755    0.3593 H   0  0  0  0  0  0  0  0  0  0  0  0
    4.2548   -1.6434   -1.3775 H   0  0  0  0  0  0  0  0  0  0  0  0
  2 21  1  0  0  0  0
  3  1  1  0  0  0  0
  3 12  1  0  0  0  0
  4  3  1  0  0  0  0
  5  3  1  0  0  0  0
  6  7  1  0  0  0  0
  7  8  1  0  0  0  0
  9 14  1  0  0  0  0
  9  6  2  0  0  0  0
 10  1  1  0  0  0  0
 10  9  1  0  0  0  0
 11 10  1  0  0  0  0
 12 13  1  1  0  0  0
 12  2  1  0  0  0  0
 14 19  2  0  0  0  0
 15 14  1  0  0  0  0
 16 18  1  0  0  0  0
 16 21  1  0  0  0  0
 17 16  1  0  0  0  0
 19  7  1  0  0  0  0
 19 20  1  0  0  0  0
 21 23  1  0  0  0  0
 21 22  1  0  0  0  0
 24 16  1  0  0  0  0
 24 12  1  0  0  0  0
 24 25  1  0  0  0  0
 26 24  1  0  0  0  0
M  END
