1,2
 OpenBabel05122313053D

 28 28  0  0  1  0  0  0  0  0999 V2000
   -1.4883    1.3559   -0.1269 N   0  0  0  0  0  0  0  0  0  0  0  0
   -1.4433   -1.3960    0.0431 N   0  0  0  0  0  0  0  0  0  0  0  0
   -2.7638    0.6224   -0.4070 C   0  0  1  0  0  0  0  0  0  0  0  0
   -2.7257   -0.6865    0.3747 C   0  0  1  0  0  0  0  0  0  0  0  0
   -4.0027   -1.5139    0.1979 C   0  0  0  0  0  0  0  0  0  0  0  0
   -5.2296   -0.6865    0.6022 C   0  0  0  0  0  0  0  0  0  0  0  0
   -5.2979    0.6074   -0.2129 C   0  0  0  0  0  0  0  0  0  0  0  0
   -4.0177    1.4378   -0.0536 C   0  0  0  0  0  0  0  0  0  0  0  0
   -1.3383    2.5123   -1.0379 C   0  0  0  0  0  0  0  0  0  0  0  0
   -1.5209   -2.3582   -1.0741 C   0  0  0  0  0  0  0  0  0  0  0  0
   -1.5275    1.6803    0.8565 H   0  0  0  0  0  0  0  0  0  0  0  0
   -1.1822   -1.9010    0.9047 H   0  0  0  0  0  0  0  0  0  0  0  0
   -2.7503    0.3974   -1.4958 H   0  0  0  0  0  0  0  0  0  0  0  0
   -2.6228   -0.4240    1.4492 H   0  0  0  0  0  0  0  0  0  0  0  0
   -3.9363   -2.4417    0.8040 H   0  0  0  0  0  0  0  0  0  0  0  0
   -4.1141   -1.8228   -0.8631 H   0  0  0  0  0  0  0  0  0  0  0  0
   -5.1773   -0.4451    1.6865 H   0  0  0  0  0  0  0  0  0  0  0  0
   -6.1492   -1.2879    0.4588 H   0  0  0  0  0  0  0  0  0  0  0  0
   -5.4464    0.3618   -1.2874 H   0  0  0  0  0  0  0  0  0  0  0  0
   -6.1727    1.2167    0.0898 H   0  0  0  0  0  0  0  0  0  0  0  0
   -3.9274    1.7772    1.0035 H   0  0  0  0  0  0  0  0  0  0  0  0
   -4.0775    2.3486   -0.6812 H   0  0  0  0  0  0  0  0  0  0  0  0
   -1.3482    2.1478   -2.0797 H   0  0  0  0  0  0  0  0  0  0  0  0
   -2.1529    3.2470   -0.8843 H   0  0  0  0  0  0  0  0  0  0  0  0
   -0.3797    3.0298   -0.8685 H   0  0  0  0  0  0  0  0  0  0  0  0
   -2.2772   -3.1429   -0.8786 H   0  0  0  0  0  0  0  0  0  0  0  0
   -1.7510   -1.8319   -2.0168 H   0  0  0  0  0  0  0  0  0  0  0  0
   -0.5434   -2.8585   -1.2045 H   0  0  0  0  0  0  0  0  0  0  0  0
  1 11  1  0  0  0  0
  2  4  1  0  0  0  0
  2 12  1  0  0  0  0
  3 13  1  6  0  0  0
  3  1  1  0  0  0  0
  3  8  1  0  0  0  0
  3  4  1  0  0  0  0
  4 14  1  1  0  0  0
  5  4  1  0  0  0  0
  5  6  1  0  0  0  0
  5 15  1  0  0  0  0
  6 17  1  0  0  0  0
  7  8  1  0  0  0  0
  7 20  1  0  0  0  0
  7  6  1  0  0  0  0
  8 21  1  0  0  0  0
  9 24  1  0  0  0  0
  9 25  1  0  0  0  0
  9  1  1  0  0  0  0
 10 26  1  0  0  0  0
 10  2  1  0  0  0  0
 16  5  1  0  0  0  0
 18  6  1  0  0  0  0
 19  7  1  0  0  0  0
 22  8  1  0  0  0  0
 23  9  1  0  0  0  0
 27 10  1  0  0  0  0
 28 10  1  0  0  0  0
M  END
