6,8
 OpenBabel05122313053D

 17 17  0  0  1  0  0  0  0  0999 V2000
    3.1722   -1.5033   -0.9584 S   0  0  0  0  0  0  0  0  0  0  0  0
    0.1860   -2.0969   -2.0956 S   0  0  0  0  0  0  0  0  0  0  0  0
    5.5107   -1.0197   -0.3222 O   0  0  0  0  0  0  0  0  0  0  0  0
   -0.2310   -3.4485   -1.6585 O   0  0  0  0  0  0  0  0  0  0  0  0
    0.6881   -1.8692   -3.4655 O   0  0  0  0  0  0  0  0  0  0  0  0
    0.9230   -0.9493    0.1625 N   0  0  0  0  0  2  0  0  0  0  0  0
    1.7902   -0.4399    1.0594 N   0  0  0  0  0  0  0  0  0  0  0  0
   -1.0346   -1.0130   -1.7359 N   0  0  0  0  0  2  0  0  0  0  0  0
   -0.8318   -0.1950   -2.3294 H   0  0  0  0  0  0  0  0  0  0  0  0
    4.1187   -0.1849    1.3277 N   0  0  0  0  0  2  0  0  0  0  0  0
    1.4313   -1.5275   -0.9152 C   0  0  2  0  0  3  0  0  0  0  0  0
    3.0683   -0.6138    0.6630 C   0  0  0  0  0  0  0  0  0  0  0  0
    5.3470   -0.4256    0.7637 C   0  0  0  0  0  0  0  0  0  0  0  0
    6.5284    0.0736    1.5689 C   0  0  0  0  0  0  0  0  0  0  0  0
    6.6337   -0.5382    2.4888 H   0  0  0  0  0  0  0  0  0  0  0  0
    6.3574    1.1171    1.8992 H   0  0  0  0  0  0  0  0  0  0  0  0
    7.4566   -0.0003    0.9746 H   0  0  0  0  0  0  0  0  0  0  0  0
  1 11  1  0  0  0  0
  1 12  1  0  0  0  0
  2  8  1  0  0  0  0
  2  4  2  0  0  0  0
  3 13  2  0  0  0  0
  5  2  2  0  0  0  0
  6  7  1  0  0  0  0
  9  8  1  0  0  0  0
 11  2  1  6  0  0  0
 11  6  1  0  0  0  0
 12  7  2  0  0  0  0
 12 10  1  0  0  0  0
 13 10  1  0  0  0  0
 13 14  1  0  0  0  0
 14 16  1  0  0  0  0
 14 15  1  0  0  0  0
 17 14  1  0  0  0  0
M  END
