4,5
 OpenBabel05122313053D

 52 54  0  0  0  0  0  0  0  0999 V2000
    2.1788    0.1291   -1.0243 O   0  0  0  0  0  0  0  0  0  0  0  0
    4.9300   -1.7586    0.2946 O   0  0  0  0  0  0  0  0  0  0  0  0
    7.6778   -2.6981    0.0608 O   0  0  0  0  0  0  0  0  0  0  0  0
   -3.0907   -0.4597    1.4177 N   0  0  0  0  0  2  0  0  0  0  0  0
   -1.2417    0.7417    0.0362 N   0  0  0  0  0  2  0  0  0  0  0  0
   -0.2494    1.4717   -0.5189 N   0  0  0  0  0  0  0  0  0  0  0  0
   -4.0847   -1.1335    2.0434 C   0  0  0  0  0  0  0  0  0  0  0  0
   -4.6870   -1.7765    1.3798 H   0  0  0  0  0  0  0  0  0  0  0  0
   -4.3094   -1.0086    3.4160 C   0  0  0  0  0  0  0  0  0  0  0  0
   -5.1292   -1.5774    3.8766 H   0  0  0  0  0  0  0  0  0  0  0  0
   -3.4868   -0.1618    4.1778 C   0  0  0  0  0  0  0  0  0  0  0  0
   -3.6444   -0.0466    5.2601 H   0  0  0  0  0  0  0  0  0  0  0  0
   -2.4607    0.5358    3.5339 C   0  0  0  0  0  0  0  0  0  0  0  0
   -1.7924    1.2104    4.0867 H   0  0  0  0  0  0  0  0  0  0  0  0
   -2.2785    0.3727    2.1505 C   0  0  0  0  0  0  0  0  0  0  0  0
   -1.2540    1.0314    1.3673 C   0  0  0  0  0  0  0  0  0  0  0  0
   -0.2290    1.9554    1.6633 C   0  0  0  0  0  0  0  0  0  0  0  0
    0.0133    2.4136    2.6262 H   0  0  0  0  0  0  0  0  0  0  0  0
    0.4005    2.2169    0.4445 C   0  0  0  0  0  0  0  0  0  0  0  0
    1.5345    3.1134    0.1612 C   0  0  0  0  0  0  0  0  0  0  0  0
    2.7345    2.9636    0.8883 C   0  0  0  0  0  0  0  0  0  0  0  0
    2.8151    2.1511    1.6252 H   0  0  0  0  0  0  0  0  0  0  0  0
    3.8190    3.8181    0.6503 C   0  0  0  0  0  0  0  0  0  0  0  0
    4.7526    3.6860    1.2178 H   0  0  0  0  0  0  0  0  0  0  0  0
    3.7210    4.8300   -0.3184 C   0  0  0  0  0  0  0  0  0  0  0  0
    4.5754    5.4967   -0.5088 H   0  0  0  0  0  0  0  0  0  0  0  0
    2.5287    4.9900   -1.0420 C   0  0  0  0  0  0  0  0  0  0  0  0
    2.4419    5.7887   -1.7939 H   0  0  0  0  0  0  0  0  0  0  0  0
    1.4391    4.1412   -0.8025 C   0  0  0  0  0  0  0  0  0  0  0  0
    0.4964    4.2873   -1.3515 H   0  0  0  0  0  0  0  0  0  0  0  0
    0.2321    1.1928   -1.8695 C   0  0  0  0  0  0  0  0  0  0  0  0
   -0.6434    1.0523   -2.5341 H   0  0  0  0  0  0  0  0  0  0  0  0
    0.8304    2.0655   -2.1853 H   0  0  0  0  0  0  0  0  0  0  0  0
    1.0854   -0.0680   -1.8937 C   0  0  0  0  0  0  0  0  0  0  0  0
    0.4664   -0.9467   -1.5933 H   0  0  0  0  0  0  0  0  0  0  0  0
    1.4155   -0.2486   -2.9461 H   0  0  0  0  0  0  0  0  0  0  0  0
    3.0076   -1.0019   -0.8698 C   0  0  0  0  0  0  0  0  0  0  0  0
    3.5136   -1.2759   -1.8277 H   0  0  0  0  0  0  0  0  0  0  0  0
    2.4221   -1.8950   -0.5416 H   0  0  0  0  0  0  0  0  0  0  0  0
    4.0598   -0.6612    0.1749 C   0  0  0  0  0  0  0  0  0  0  0  0
    4.6021    0.2668   -0.1368 H   0  0  0  0  0  0  0  0  0  0  0  0
    3.5545   -0.4270    1.1474 H   0  0  0  0  0  0  0  0  0  0  0  0
    5.9463   -1.5638    1.2512 C   0  0  0  0  0  0  0  0  0  0  0  0
    5.5148   -1.4593    2.2797 H   0  0  0  0  0  0  0  0  0  0  0  0
    6.5234   -0.6294    1.0382 H   0  0  0  0  0  0  0  0  0  0  0  0
    6.8961   -2.7430    1.2304 C   0  0  0  0  0  0  0  0  0  0  0  0
    7.5381   -2.7079    2.1487 H   0  0  0  0  0  0  0  0  0  0  0  0
    6.3000   -3.6890    1.2840 H   0  0  0  0  0  0  0  0  0  0  0  0
    8.5277   -3.8089   -0.0704 C   0  0  0  0  0  0  0  0  0  0  0  0
    9.1011   -3.6875   -1.0101 H   0  0  0  0  0  0  0  0  0  0  0  0
    7.9608   -4.7713   -0.1229 H   0  0  0  0  0  0  0  0  0  0  0  0
    9.2525   -3.8919    0.7783 H   0  0  0  0  0  0  0  0  0  0  0  0
  1 37  1  0  0  0  0
  2 43  1  0  0  0  0
  3 46  1  0  0  0  0
  4  7  1  0  0  0  0
  4 15  1  0  0  0  0
  5 16  1  0  0  0  0
  6  5  1  0  0  0  0
  6 19  1  0  0  0  0
  7  9  2  0  0  0  0
  8  7  1  0  0  0  0
  9 10  1  0  0  0  0
  9 11  1  0  0  0  0
 11 12  1  0  0  0  0
 13 14  1  0  0  0  0
 13 11  2  0  0  0  0
 15 13  1  0  0  0  0
 16 17  1  0  0  0  0
 16 15  2  0  0  0  0
 17 18  1  0  0  0  0
 19 17  2  0  0  0  0
 20 19  1  0  0  0  0
 20 21  1  0  0  0  0
 21 22  1  0  0  0  0
 23 21  2  0  0  0  0
 23 24  1  0  0  0  0
 25 23  1  0  0  0  0
 26 25  1  0  0  0  0
 27 29  1  0  0  0  0
 27 25  2  0  0  0  0
 28 27  1  0  0  0  0
 29 20  2  0  0  0  0
 30 29  1  0  0  0  0
 31  6  1  0  0  0  0
 32 31  1  0  0  0  0
 33 31  1  0  0  0  0
 34 31  1  0  0  0  0
 34 35  1  0  0  0  0
 34  1  1  0  0  0  0
 36 34  1  0  0  0  0
 37 39  1  0  0  0  0
 37 40  1  0  0  0  0
 38 37  1  0  0  0  0
 40  2  1  0  0  0  0
 40 42  1  0  0  0  0
 41 40  1  0  0  0  0
 43 44  1  0  0  0  0
 45 43  1  0  0  0  0
 46 43  1  0  0  0  0
 46 48  1  0  0  0  0
 46 47  1  0  0  0  0
 49  3  1  0  0  0  0
 49 52  1  0  0  0  0
 50 49  1  0  0  0  0
 51 49  1  0  0  0  0
M  END
