2,22
 OpenBabel05122313053D

 37 36  0  0  0  0  0  0  0  0999 V2000
   -3.0572    1.7068    0.3617 Si  0  0  0  0  0  0  0  0  0  0  0  0
   -1.4417    1.4582   -0.3405 N   0  0  0  0  0  2  0  0  0  0  0  0
   -0.8103    2.6334   -0.9867 C   0  0  0  0  0  0  0  0  0  0  0  0
   -1.5688    3.2635   -1.5021 H   0  0  0  0  0  0  0  0  0  0  0  0
   -0.1328    2.2823   -1.7950 H   0  0  0  0  0  0  0  0  0  0  0  0
   -0.0000    3.5000   -0.0000 C   0  0  0  0  0  0  0  0  0  0  0  0
   -0.6729    4.1644    0.5832 H   0  0  0  0  0  0  0  0  0  0  0  0
    0.6729    4.1644   -0.5832 H   0  0  0  0  0  0  0  0  0  0  0  0
   -3.9397    0.0581    0.6385 C   0  0  0  0  0  0  0  0  0  0  0  0
   -4.1205   -0.4838   -0.3108 H   0  0  0  0  0  0  0  0  0  0  0  0
   -4.9257    0.2539    1.1087 H   0  0  0  0  0  0  0  0  0  0  0  0
   -3.3552   -0.5860    1.3236 H   0  0  0  0  0  0  0  0  0  0  0  0
   -2.9551    2.6036    2.0270 C   0  0  0  0  0  0  0  0  0  0  0  0
   -2.4997    3.6093    1.9249 H   0  0  0  0  0  0  0  0  0  0  0  0
   -2.3381    2.0111    2.7325 H   0  0  0  0  0  0  0  0  0  0  0  0
   -3.9649    2.7316    2.4701 H   0  0  0  0  0  0  0  0  0  0  0  0
   -4.1113    2.7418   -0.8305 C   0  0  0  0  0  0  0  0  0  0  0  0
   -3.7487    3.7856   -0.9245 H   0  0  0  0  0  0  0  0  0  0  0  0
   -5.1565    2.7885   -0.4600 H   0  0  0  0  0  0  0  0  0  0  0  0
   -4.1287    2.2935   -1.8454 H   0  0  0  0  0  0  0  0  0  0  0  0
    0.8103    2.6334    0.9867 C   0  0  0  0  0  0  0  0  0  0  0  0
    1.4417    1.4583    0.3405 N   0  0  0  0  0  2  0  0  0  0  0  0
    3.0572    1.7068   -0.3617 Si  0  0  0  0  0  0  0  0  0  0  0  0
    3.9397    0.0581   -0.6385 C   0  0  0  0  0  0  0  0  0  0  0  0
    4.1205   -0.4838    0.3109 H   0  0  0  0  0  0  0  0  0  0  0  0
    4.9257    0.2539   -1.1087 H   0  0  0  0  0  0  0  0  0  0  0  0
    3.3552   -0.5860   -1.3236 H   0  0  0  0  0  0  0  0  0  0  0  0
    2.9552    2.6036   -2.0269 C   0  0  0  0  0  0  0  0  0  0  0  0
    2.4998    3.6093   -1.9249 H   0  0  0  0  0  0  0  0  0  0  0  0
    2.3381    2.0111   -2.7325 H   0  0  0  0  0  0  0  0  0  0  0  0
    3.9649    2.7316   -2.4701 H   0  0  0  0  0  0  0  0  0  0  0  0
    4.1113    2.7418    0.8305 C   0  0  0  0  0  0  0  0  0  0  0  0
    3.7487    3.7856    0.9246 H   0  0  0  0  0  0  0  0  0  0  0  0
    5.1565    2.7885    0.4601 H   0  0  0  0  0  0  0  0  0  0  0  0
    4.1287    2.2935    1.8454 H   0  0  0  0  0  0  0  0  0  0  0  0
    1.5687    3.2635    1.5021 H   0  0  0  0  0  0  0  0  0  0  0  0
    0.1328    2.2824    1.7950 H   0  0  0  0  0  0  0  0  0  0  0  0
  1  9  1  0  0  0  0
  1 13  1  0  0  0  0
  2  1  1  0  0  0  0
  3  2  1  0  0  0  0
  3  6  1  0  0  0  0
  4  3  1  0  0  0  0
  5  3  1  0  0  0  0
  6  7  1  0  0  0  0
  6 21  1  0  0  0  0
  8  6  1  0  0  0  0
  9 11  1  0  0  0  0
  9 12  1  0  0  0  0
 10  9  1  0  0  0  0
 13 16  1  0  0  0  0
 13 15  1  0  0  0  0
 14 13  1  0  0  0  0
 17 19  1  0  0  0  0
 17  1  1  0  0  0  0
 18 17  1  0  0  0  0
 20 17  1  0  0  0  0
 21 36  1  0  0  0  0
 21 37  1  0  0  0  0
 22 21  1  0  0  0  0
 23 22  1  0  0  0  0
 23 32  1  0  0  0  0
 24 23  1  0  0  0  0
 24 25  1  0  0  0  0
 26 24  1  0  0  0  0
 27 24  1  0  0  0  0
 28 29  1  0  0  0  0
 28 23  1  0  0  0  0
 30 28  1  0  0  0  0
 31 28  1  0  0  0  0
 32 33  1  0  0  0  0
 32 35  1  0  0  0  0
 34 32  1  0  0  0  0
M  END
