7,13
 OpenBabel05122313053D

 36 38  0  0  1  0  0  0  0  0999 V2000
    1.6797    0.1525    0.1189 C   0  0  2  0  0  0  0  0  0  0  0  0
    3.1061    0.1951    0.1073 O   0  0  0  0  0  0  0  0  0  0  0  0
    3.3750    0.5987    0.9555 H   0  0  0  0  0  0  0  0  0  0  0  0
    3.5026   -1.9726   -1.5370 C   0  0  0  0  0  0  0  0  0  0  0  0
    2.0427   -1.9182   -1.4227 N   0  0  0  0  0  0  0  0  0  0  0  0
    1.2521   -1.0330   -0.7412 C   0  0  1  0  0  3  0  0  0  0  0  0
   -0.0367   -1.3530   -0.9196 N   0  0  0  0  0  2  0  0  0  0  0  0
   -0.0905   -2.4667   -1.7247 C   0  0  0  0  0  0  0  0  0  0  0  0
    1.2021   -2.8296   -2.0420 C   0  0  0  0  0  0  0  0  0  0  0  0
    3.0624    3.0120   -0.4759 C   0  0  0  0  0  0  0  0  0  0  0  0
    1.6810    2.6163   -0.7443 N   0  0  0  0  0  0  0  0  0  0  0  0
    1.0636    1.4287   -0.4797 C   0  0  2  0  0  3  0  0  0  0  0  0
   -0.2419    1.5277   -0.7642 N   0  0  0  0  0  2  0  0  0  0  0  0
   -0.4795    2.8029   -1.2213 C   0  0  0  0  0  0  0  0  0  0  0  0
    0.7140    3.4921   -1.2129 C   0  0  0  0  0  0  0  0  0  0  0  0
    1.2577   -2.4679    1.9260 C   0  0  0  0  0  0  0  0  0  0  0  0
    1.0415   -1.0799    2.3124 N   0  0  0  0  0  0  0  0  0  0  0  0
    1.1622    0.0595    1.5420 C   0  0  0  0  0  0  0  0  0  0  0  0
    0.8986    1.1597    2.2445 N   0  0  0  0  0  0  0  0  0  0  0  0
    0.5789    0.7306    3.5055 C   0  0  0  0  0  0  0  0  0  0  0  0
    0.6558   -0.6544    3.5689 C   0  0  0  0  0  0  0  0  0  0  0  0
    3.8946   -1.0296   -1.9550 H   0  0  0  0  0  0  0  0  0  0  0  0
    3.9682   -2.1366   -0.5490 H   0  0  0  0  0  0  0  0  0  0  0  0
    3.7575   -2.8097   -2.2102 H   0  0  0  0  0  0  0  0  0  0  0  0
    3.2362    3.0567    0.6174 H   0  0  0  0  0  0  0  0  0  0  0  0
    3.7702    2.3052   -0.9403 H   0  0  0  0  0  0  0  0  0  0  0  0
    3.2198    4.0205   -0.8970 H   0  0  0  0  0  0  0  0  0  0  0  0
    0.4439   -2.8332    1.2698 H   0  0  0  0  0  0  0  0  0  0  0  0
    2.2244   -2.5774    1.3998 H   0  0  0  0  0  0  0  0  0  0  0  0
    1.2889   -3.0911    2.8375 H   0  0  0  0  0  0  0  0  0  0  0  0
   -1.0376   -2.9235   -2.0293 H   0  0  0  0  0  0  0  0  0  0  0  0
    1.5966   -3.6441   -2.6573 H   0  0  0  0  0  0  0  0  0  0  0  0
   -1.4756    3.1398   -1.5246 H   0  0  0  0  0  0  0  0  0  0  0  0
    0.9627    4.5179   -1.5014 H   0  0  0  0  0  0  0  0  0  0  0  0
    0.3069    1.4284    4.3065 H   0  0  0  0  0  0  0  0  0  0  0  0
    0.4733   -1.3654    4.3821 H   0  0  0  0  0  0  0  0  0  0  0  0
  1  2  1  1  0  0  0
  1 18  1  0  0  0  0
  2  3  1  0  0  0  0
  4  5  1  0  0  0  0
  4 23  1  0  0  0  0
  5  6  1  0  0  0  0
  6  1  1  1  0  0  0
  7  6  1  0  0  0  0
  8  7  1  0  0  0  0
  9  8  2  0  0  0  0
  9  5  1  0  0  0  0
 10 25  1  0  0  0  0
 11 12  1  0  0  0  0
 11 10  1  0  0  0  0
 12  1  1  1  0  0  0
 13 12  1  0  0  0  0
 14 15  2  0  0  0  0
 14 13  1  0  0  0  0
 15 11  1  0  0  0  0
 16 17  1  0  0  0  0
 16 30  1  0  0  0  0
 17 21  1  0  0  0  0
 18 19  2  0  0  0  0
 18 17  1  0  0  0  0
 19 20  1  0  0  0  0
 20 21  2  0  0  0  0
 20 35  1  0  0  0  0
 21 36  1  0  0  0  0
 22  4  1  0  0  0  0
 24  4  1  0  0  0  0
 26 10  1  0  0  0  0
 27 10  1  0  0  0  0
 28 16  1  0  0  0  0
 29 16  1  0  0  0  0
 31  8  1  0  0  0  0
 32  9  1  0  0  0  0
 33 14  1  0  0  0  0
 34 15  1  0  0  0  0
M  END
