3,4
 OpenBabel05122313053D

 50 55  0  0  1  0  0  0  0  0999 V2000
   -7.3350   -0.7434    0.0642 Cl  0  0  0  0  0  0  0  0  0  0  0  0
    7.2362   -1.1811    0.1783 Cl  0  0  0  0  0  0  0  0  0  0  0  0
   -1.3893   -0.4547   -0.0597 N   0  0  0  0  0  2  0  0  0  0  0  0
    1.2964   -0.6237    0.0827 N   0  0  0  0  0  2  0  0  0  0  0  0
   -2.7937   -0.4950   -0.0318 C   0  0  0  0  0  0  0  0  0  0  0  0
   -3.4776   -1.3497   -0.9249 C   0  0  0  0  0  0  0  0  0  0  0  0
   -2.8963   -1.9636   -1.6243 H   0  0  0  0  0  0  0  0  0  0  0  0
   -4.8741   -1.4120   -0.9062 C   0  0  0  0  0  0  0  0  0  0  0  0
   -5.4124   -2.0641   -1.6078 H   0  0  0  0  0  0  0  0  0  0  0  0
   -5.5944   -0.6536    0.0323 C   0  0  0  0  0  0  0  0  0  0  0  0
   -4.9265    0.1659    0.9588 C   0  0  0  0  0  0  0  0  0  0  0  0
   -5.5030    0.7252    1.7088 H   0  0  0  0  0  0  0  0  0  0  0  0
   -3.5308    0.2466    0.9210 C   0  0  0  0  0  0  0  0  0  0  0  0
   -2.9967    0.8531    1.6674 H   0  0  0  0  0  0  0  0  0  0  0  0
   -0.7112    0.6606   -0.0522 C   0  0  0  0  0  0  0  0  0  0  0  0
   -1.1858    2.1115   -0.1668 C   0  0  1  0  0  0  0  0  0  0  0  0
   -2.2799    2.1963   -0.2732 H   0  0  0  0  0  0  0  0  0  0  0  0
   -0.6422    2.7934    1.0857 C   0  0  0  0  0  0  0  0  0  0  0  0
   -1.3937    3.4528    2.0651 C   0  0  0  0  0  0  0  0  0  0  0  0
   -2.4870    3.5352    1.9632 H   0  0  0  0  0  0  0  0  0  0  0  0
   -0.7349    4.0131    3.1747 C   0  0  0  0  0  0  0  0  0  0  0  0
   -1.3173    4.5375    3.9470 H   0  0  0  0  0  0  0  0  0  0  0  0
    0.6593    3.9064    3.3021 C   0  0  0  0  0  0  0  0  0  0  0  0
    1.1651    4.3459    4.1748 H   0  0  0  0  0  0  0  0  0  0  0  0
    1.4154    3.2393    2.3210 C   0  0  0  0  0  0  0  0  0  0  0  0
    2.5082    3.1514    2.4203 H   0  0  0  0  0  0  0  0  0  0  0  0
    0.7625    2.6879    1.2131 C   0  0  0  0  0  0  0  0  0  0  0  0
    1.4256    1.9324    0.0630 C   0  0  1  0  0  0  0  0  0  0  0  0
    2.5217    1.8630    0.1638 H   0  0  0  0  0  0  0  0  0  0  0  0
    0.7465    0.5680    0.0354 C   0  0  0  0  0  0  0  0  0  0  0  0
    1.2354    3.6150   -3.4169 C   0  0  0  0  0  0  0  0  0  0  0  0
    1.8822    3.9871   -4.2255 H   0  0  0  0  0  0  0  0  0  0  0  0
   -0.1607    3.7029   -3.5417 C   0  0  0  0  0  0  0  0  0  0  0  0
   -0.6029    4.1420   -4.4484 H   0  0  0  0  0  0  0  0  0  0  0  0
   -0.9996    3.2301   -2.5163 C   0  0  0  0  0  0  0  0  0  0  0  0
   -2.0941    3.2922   -2.6155 H   0  0  0  0  0  0  0  0  0  0  0  0
   -0.4268    2.6784   -1.3647 C   0  0  0  0  0  0  0  0  0  0  0  0
    0.9789    2.5907   -1.2402 C   0  0  0  0  0  0  0  0  0  0  0  0
    1.8133    3.0523   -2.2644 C   0  0  0  0  0  0  0  0  0  0  0  0
    2.9071    2.9767   -2.1644 H   0  0  0  0  0  0  0  0  0  0  0  0
    2.7142   -0.7426    0.1095 C   0  0  0  0  0  0  0  0  0  0  0  0
    3.4697   -0.4463   -1.0417 C   0  0  0  0  0  0  0  0  0  0  0  0
    2.9527   -0.1208   -1.9565 H   0  0  0  0  0  0  0  0  0  0  0  0
    4.8635   -0.5828   -1.0246 C   0  0  0  0  0  0  0  0  0  0  0  0
    5.4605   -0.3613   -1.9202 H   0  0  0  0  0  0  0  0  0  0  0  0
    5.5014   -1.0139    0.1507 C   0  0  0  0  0  0  0  0  0  0  0  0
    4.7547   -1.3177    1.3018 C   0  0  0  0  0  0  0  0  0  0  0  0
    5.2692   -1.6591    2.2106 H   0  0  0  0  0  0  0  0  0  0  0  0
    3.3608   -1.1913    1.2757 C   0  0  0  0  0  0  0  0  0  0  0  0
    2.7589   -1.4334    2.1629 H   0  0  0  0  0  0  0  0  0  0  0  0
  3 15  1  0  0  0  0
  3  5  1  0  0  0  0
  4 41  1  0  0  0  0
  5 13  1  0  0  0  0
  6  8  1  0  0  0  0
  6  5  2  0  0  0  0
  7  6  1  0  0  0  0
  8 10  2  0  0  0  0
  9  8  1  0  0  0  0
 10  1  1  0  0  0  0
 10 11  1  0  0  0  0
 11 12  1  0  0  0  0
 13 11  2  0  0  0  0
 13 14  1  0  0  0  0
 15 30  2  0  0  0  0
 16 17  1  6  0  0  0
 16 15  1  0  0  0  0
 16 18  1  0  0  0  0
 18 27  2  0  0  0  0
 18 19  1  0  0  0  0
 19 21  2  0  0  0  0
 20 19  1  0  0  0  0
 21 23  1  0  0  0  0
 21 22  1  0  0  0  0
 23 24  1  0  0  0  0
 25 26  1  0  0  0  0
 25 23  2  0  0  0  0
 27 25  1  0  0  0  0
 28 29  1  1  0  0  0
 28 27  1  0  0  0  0
 30 28  1  0  0  0  0
 30  4  1  0  0  0  0
 31 39  1  0  0  0  0
 32 31  1  0  0  0  0
 33 31  2  0  0  0  0
 33 35  1  0  0  0  0
 34 33  1  0  0  0  0
 35 37  2  0  0  0  0
 36 35  1  0  0  0  0
 37 38  1  0  0  0  0
 37 16  1  0  0  0  0
 38 28  1  0  0  0  0
 39 40  1  0  0  0  0
 39 38  2  0  0  0  0
 41 49  1  0  0  0  0
 42 44  1  0  0  0  0
 42 41  2  0  0  0  0
 43 42  1  0  0  0  0
 44 46  2  0  0  0  0
 45 44  1  0  0  0  0
 46  2  1  0  0  0  0
 46 47  1  0  0  0  0
 47 48  1  0  0  0  0
 49 47  2  0  0  0  0
 49 50  1  0  0  0  0
M  END
