4,39
 OpenBabel05122313053D

 71 72  0  0  1  0  0  0  0  0999 V2000
    0.0001    1.4169    0.0011 Si  0  0  0  0  0  0  0  0  0  0  0  0
    3.3033   -0.5562   -1.1330 N   0  0  0  0  0  0  0  0  0  0  0  0
    2.7669   -1.4120   -1.3614 H   0  0  0  0  0  0  0  0  0  0  0  0
    1.2355    0.1817   -0.3866 N   0  0  0  0  0  2  0  0  0  0  0  0
    4.7647   -0.8311   -1.0580 C   0  0  0  0  0  0  0  0  0  0  0  0
    5.0825   -1.4282    0.3273 C   0  0  0  0  0  0  0  0  0  0  0  0
    4.8973   -0.6854    1.1276 H   0  0  0  0  0  0  0  0  0  0  0  0
    6.1465   -1.7348    0.3799 H   0  0  0  0  0  0  0  0  0  0  0  0
    4.4478   -2.3147    0.5236 H   0  0  0  0  0  0  0  0  0  0  0  0
    5.6338    0.4050   -1.3321 C   0  0  0  0  0  0  0  0  0  0  0  0
    5.3299    0.9076   -2.2713 H   0  0  0  0  0  0  0  0  0  0  0  0
    6.6857    0.0752   -1.4442 H   0  0  0  0  0  0  0  0  0  0  0  0
    5.5992    1.1438   -0.5116 H   0  0  0  0  0  0  0  0  0  0  0  0
    5.0233   -1.8822   -2.1536 C   0  0  0  0  0  0  0  0  0  0  0  0
    4.3897   -2.7788   -1.9990 H   0  0  0  0  0  0  0  0  0  0  0  0
    6.0832   -2.2008   -2.1318 H   0  0  0  0  0  0  0  0  0  0  0  0
    4.8020   -1.4672   -3.1572 H   0  0  0  0  0  0  0  0  0  0  0  0
    2.5351    0.3790   -0.5465 C   0  0  1  0  0  3  0  0  0  0  0  0
    3.1506    1.6509   -0.0493 C   0  0  0  0  0  0  0  0  0  0  0  0
    3.4369    1.7540    1.3236 C   0  0  0  0  0  0  0  0  0  0  0  0
    3.2149    0.8962    1.9787 H   0  0  0  0  0  0  0  0  0  0  0  0
    3.9671    2.9409    1.8667 C   0  0  0  0  0  0  0  0  0  0  0  0
    4.1893    4.0285    0.9978 C   0  0  0  0  0  0  0  0  0  0  0  0
    4.5996    4.9664    1.4040 H   0  0  0  0  0  0  0  0  0  0  0  0
    3.8899    3.9363   -0.3709 C   0  0  0  0  0  0  0  0  0  0  0  0
    4.0682    4.7997   -1.0296 H   0  0  0  0  0  0  0  0  0  0  0  0
    3.3737    2.7473   -0.9035 C   0  0  0  0  0  0  0  0  0  0  0  0
    3.1535    2.6602   -1.9777 H   0  0  0  0  0  0  0  0  0  0  0  0
    4.2417    3.0418    3.3451 C   0  0  0  0  0  0  0  0  0  0  0  0
    4.8135    3.9558    3.5957 H   0  0  0  0  0  0  0  0  0  0  0  0
    4.8101    2.1640    3.7129 H   0  0  0  0  0  0  0  0  0  0  0  0
    3.2910    3.0696    3.9190 H   0  0  0  0  0  0  0  0  0  0  0  0
    0.2917    2.4648    1.5326 C   0  0  0  0  0  0  0  0  0  0  0  0
   -0.6537    2.9835    1.7920 H   0  0  0  0  0  0  0  0  0  0  0  0
    1.0734    3.2316    1.3688 H   0  0  0  0  0  0  0  0  0  0  0  0
    0.5865    1.8176    2.3818 H   0  0  0  0  0  0  0  0  0  0  0  0
   -3.3041   -0.5558    1.1326 N   0  0  0  0  0  0  0  0  0  0  0  0
   -2.7680   -1.4117    1.3612 H   0  0  0  0  0  0  0  0  0  0  0  0
   -1.2358    0.1818    0.3872 N   0  0  0  0  0  2  0  0  0  0  0  0
   -4.7655   -0.8306    1.0565 C   0  0  0  0  0  0  0  0  0  0  0  0
   -5.0824   -1.4274   -0.3291 C   0  0  0  0  0  0  0  0  0  0  0  0
   -4.8965   -0.6845   -1.1292 H   0  0  0  0  0  0  0  0  0  0  0  0
   -6.1464   -1.7338   -0.3825 H   0  0  0  0  0  0  0  0  0  0  0  0
   -4.4477   -2.3139   -0.5251 H   0  0  0  0  0  0  0  0  0  0  0  0
   -5.6347    0.4056    1.3302 C   0  0  0  0  0  0  0  0  0  0  0  0
   -5.3313    0.9080    2.2696 H   0  0  0  0  0  0  0  0  0  0  0  0
   -6.6867    0.0760    1.4415 H   0  0  0  0  0  0  0  0  0  0  0  0
   -5.5994    1.1445    0.5098 H   0  0  0  0  0  0  0  0  0  0  0  0
   -5.0250   -1.8818    2.1517 C   0  0  0  0  0  0  0  0  0  0  0  0
   -4.3914   -2.7784    1.9974 H   0  0  0  0  0  0  0  0  0  0  0  0
   -6.0849   -2.2002    2.1291 H   0  0  0  0  0  0  0  0  0  0  0  0
   -4.8043   -1.4669    3.1555 H   0  0  0  0  0  0  0  0  0  0  0  0
   -2.5354    0.3793    0.5465 C   0  0  1  0  0  3  0  0  0  0  0  0
   -3.1504    1.6514    0.0492 C   0  0  0  0  0  0  0  0  0  0  0  0
   -3.4359    1.7548   -1.3239 C   0  0  0  0  0  0  0  0  0  0  0  0
   -3.2138    0.8970   -1.9790 H   0  0  0  0  0  0  0  0  0  0  0  0
   -3.9654    2.9420   -1.8670 C   0  0  0  0  0  0  0  0  0  0  0  0
   -4.1878    4.0295   -0.9981 C   0  0  0  0  0  0  0  0  0  0  0  0
   -4.5976    4.9676   -1.4043 H   0  0  0  0  0  0  0  0  0  0  0  0
   -3.8891    3.9370    0.3708 C   0  0  0  0  0  0  0  0  0  0  0  0
   -4.0675    4.8003    1.0296 H   0  0  0  0  0  0  0  0  0  0  0  0
   -3.3736    2.7477    0.9035 C   0  0  0  0  0  0  0  0  0  0  0  0
   -3.1539    2.6604    1.9778 H   0  0  0  0  0  0  0  0  0  0  0  0
   -4.2391    3.0433   -3.3456 C   0  0  0  0  0  0  0  0  0  0  0  0
   -4.8120    3.9566   -3.5961 H   0  0  0  0  0  0  0  0  0  0  0  0
   -4.8058    2.1648   -3.7144 H   0  0  0  0  0  0  0  0  0  0  0  0
   -3.2880    3.0730   -3.9187 H   0  0  0  0  0  0  0  0  0  0  0  0
   -0.2909    2.4677   -1.5285 C   0  0  0  0  0  0  0  0  0  0  0  0
    0.6544    2.9872   -1.7864 H   0  0  0  0  0  0  0  0  0  0  0  0
   -1.0729    3.2340   -1.3634 H   0  0  0  0  0  0  0  0  0  0  0  0
   -0.5853    1.8224   -2.3791 H   0  0  0  0  0  0  0  0  0  0  0  0
  1 39  1  0  0  0  0
  1 33  1  0  0  0  0
  2  5  1  0  0  0  0
  2 18  1  0  0  0  0
  3  2  1  0  0  0  0
  4  1  1  0  0  0  0
  5  6  1  0  0  0  0
  6  8  1  0  0  0  0
  6  9  1  0  0  0  0
  6  7  1  0  0  0  0
 10  5  1  0  0  0  0
 10 13  1  0  0  0  0
 11 10  1  0  0  0  0
 12 10  1  0  0  0  0
 14 16  1  0  0  0  0
 14 15  1  0  0  0  0
 14  5  1  0  0  0  0
 17 14  1  0  0  0  0
 18  4  1  1  0  0  0
 18 19  1  0  0  0  0
 19 20  1  0  0  0  0
 20 22  2  0  0  0  0
 20 21  1  0  0  0  0
 22 29  1  0  0  0  0
 23 24  1  0  0  0  0
 23 22  1  0  0  0  0
 25 23  2  0  0  0  0
 26 25  1  0  0  0  0
 27 25  1  0  0  0  0
 27 19  2  0  0  0  0
 28 27  1  0  0  0  0
 29 30  1  0  0  0  0
 29 31  1  0  0  0  0
 29 32  1  0  0  0  0
 33 34  1  0  0  0  0
 33 36  1  0  0  0  0
 35 33  1  0  0  0  0
 37 38  1  0  0  0  0
 40 37  1  0  0  0  0
 40 45  1  0  0  0  0
 40 49  1  0  0  0  0
 41 40  1  0  0  0  0
 42 41  1  0  0  0  0
 43 41  1  0  0  0  0
 44 41  1  0  0  0  0
 45 47  1  0  0  0  0
 45 46  1  0  0  0  0
 48 45  1  0  0  0  0
 49 52  1  0  0  0  0
 50 49  1  0  0  0  0
 51 49  1  0  0  0  0
 53 39  1  6  0  0  0
 53 37  1  0  0  0  0
 54 53  1  0  0  0  0
 54 62  1  0  0  0  0
 55 54  2  0  0  0  0
 56 55  1  0  0  0  0
 57 55  1  0  0  0  0
 57 58  2  0  0  0  0
 58 60  1  0  0  0  0
 59 58  1  0  0  0  0
 60 62  2  0  0  0  0
 60 61  1  0  0  0  0
 62 63  1  0  0  0  0
 64 57  1  0  0  0  0
 65 64  1  0  0  0  0
 66 64  1  0  0  0  0
 67 64  1  0  0  0  0
 68 70  1  0  0  0  0
 68  1  1  0  0  0  0
 69 68  1  0  0  0  0
 71 68  1  0  0  0  0
M  END
