1,2
 OpenBabel05122313053D

 40 43  0  0  1  0  0  0  0  0999 V2000
   -1.1195   -1.7725   -0.9772 N   0  0  0  0  0  2  0  0  0  0  0  0
    1.1195   -1.7725    0.9772 N   0  0  0  0  0  2  0  0  0  0  0  0
   -2.3344   -1.5817   -1.7845 C   0  0  1  0  0  0  0  0  0  0  0  0
   -2.1682   -0.7918   -2.5451 H   0  0  0  0  0  0  0  0  0  0  0  0
   -2.4756   -2.9712   -2.4481 C   0  0  0  0  0  0  0  0  0  0  0  0
   -3.5224   -3.3137   -2.5517 H   0  0  0  0  0  0  0  0  0  0  0  0
   -1.9757   -3.0039   -3.4429 H   0  0  0  0  0  0  0  0  0  0  0  0
   -0.9291   -3.0820   -0.8157 C   0  0  0  0  0  0  0  0  0  0  0  0
    0.0000   -3.7488   -0.0001 C   0  0  0  0  0  0  0  0  0  0  0  0
    0.0000   -4.8432   -0.0002 H   0  0  0  0  0  0  0  0  0  0  0  0
    0.9291   -3.0821    0.8155 C   0  0  1  0  0  3  0  0  0  0  0  0
    2.4755   -2.9714    2.4481 C   0  0  0  0  0  0  0  0  0  0  0  0
    3.5223   -3.3139    2.5517 H   0  0  0  0  0  0  0  0  0  0  0  0
    1.9756   -3.0042    3.4427 H   0  0  0  0  0  0  0  0  0  0  0  0
    2.3344   -1.5819    1.7846 C   0  0  1  0  0  0  0  0  0  0  0  0
    2.1682   -0.7920    2.5452 H   0  0  0  0  0  0  0  0  0  0  0  0
   -3.5515   -1.1999   -0.9543 C   0  0  0  0  0  0  0  0  0  0  0  0
   -3.8690   -1.9042    0.2245 C   0  0  0  0  0  0  0  0  0  0  0  0
   -3.2085   -2.7137    0.5702 H   0  0  0  0  0  0  0  0  0  0  0  0
   -5.0095   -1.5692    0.9673 C   0  0  0  0  0  0  0  0  0  0  0  0
   -5.2423   -2.1236    1.8891 H   0  0  0  0  0  0  0  0  0  0  0  0
   -5.8418   -0.5177    0.5487 C   0  0  0  0  0  0  0  0  0  0  0  0
   -6.7293   -0.2458    1.1404 H   0  0  0  0  0  0  0  0  0  0  0  0
   -5.5310    0.1913   -0.6216 C   0  0  0  0  0  0  0  0  0  0  0  0
   -6.1662    1.0293   -0.9464 H   0  0  0  0  0  0  0  0  0  0  0  0
   -4.3958   -0.1554   -1.3702 C   0  0  0  0  0  0  0  0  0  0  0  0
   -4.1391    0.4164   -2.2762 H   0  0  0  0  0  0  0  0  0  0  0  0
    3.5515   -1.2000    0.9545 C   0  0  0  0  0  0  0  0  0  0  0  0
    3.8692   -1.9042   -0.2243 C   0  0  0  0  0  0  0  0  0  0  0  0
    3.2088   -2.7138   -0.5700 H   0  0  0  0  0  0  0  0  0  0  0  0
    5.0096   -1.5691   -0.9670 C   0  0  0  0  0  0  0  0  0  0  0  0
    5.2426   -2.1234   -1.8888 H   0  0  0  0  0  0  0  0  0  0  0  0
    5.8419   -0.5175   -0.5484 C   0  0  0  0  0  0  0  0  0  0  0  0
    6.7294   -0.2456   -1.1400 H   0  0  0  0  0  0  0  0  0  0  0  0
    5.5309    0.1915    0.6219 C   0  0  0  0  0  0  0  0  0  0  0  0
    6.1660    1.0295    0.9468 H   0  0  0  0  0  0  0  0  0  0  0  0
    4.3957   -0.1554    1.3705 C   0  0  0  0  0  0  0  0  0  0  0  0
    4.1388    0.4164    2.2765 H   0  0  0  0  0  0  0  0  0  0  0  0
   -1.7861   -3.8578   -1.5510 O   0  0  0  0  0  0  0  0  0  0  0  0
    1.7862   -3.8579    1.5508 O   0  0  0  0  0  0  0  0  0  0  0  0
  1  8  1  0  0  0  0
  2 15  1  0  0  0  0
  3  4  1  6  0  0  0
  3  1  1  0  0  0  0
  3 17  1  0  0  0  0
  5  3  1  0  0  0  0
  5 39  1  0  0  0  0
  6  5  1  0  0  0  0
  7  5  1  0  0  0  0
  8  9  2  0  0  0  0
 10  9  1  0  0  0  0
 11  9  1  6  0  0  0
 11  2  1  0  0  0  0
 11 40  1  0  0  0  0
 12 13  1  0  0  0  0
 12 14  1  0  0  0  0
 15 12  1  0  0  0  0
 15 16  1  1  0  0  0
 17 18  1  0  0  0  0
 18 19  1  0  0  0  0
 18 20  2  0  0  0  0
 20 21  1  0  0  0  0
 22 20  1  0  0  0  0
 22 23  1  0  0  0  0
 24 22  2  0  0  0  0
 25 24  1  0  0  0  0
 26 17  2  0  0  0  0
 26 24  1  0  0  0  0
 27 26  1  0  0  0  0
 28 37  1  0  0  0  0
 28 15  1  0  0  0  0
 29 28  2  0  0  0  0
 30 29  1  0  0  0  0
 31 33  2  0  0  0  0
 31 29  1  0  0  0  0
 32 31  1  0  0  0  0
 33 35  1  0  0  0  0
 34 33  1  0  0  0  0
 35 36  1  0  0  0  0
 35 37  2  0  0  0  0
 37 38  1  0  0  0  0
 39  8  1  0  0  0  0
 40 12  1  0  0  0  0
M  END
