1,2
 OpenBabel05122313053D

 18 17  0  0  1  0  0  0  0  0999 V2000
   -1.7308   -0.9239    0.1765 N   0  0  0  0  0  0  0  0  0  0  0  0
   -0.8938    1.1991   -1.2902 N   0  0  0  0  0  0  0  0  0  0  0  0
   -2.5957   -0.5399   -0.9621 C   0  0  2  0  0  0  0  0  0  0  0  0
   -2.3574    0.9545   -1.1658 C   0  0  0  0  0  0  0  0  0  0  0  0
   -0.5660    2.6416   -1.3316 C   0  0  0  0  0  0  0  0  0  0  0  0
   -4.0644   -0.8933   -0.7428 C   0  0  0  0  0  0  0  0  0  0  0  0
   -2.1203   -0.5497    1.0732 H   0  0  0  0  0  0  0  0  0  0  0  0
   -1.6193   -1.9409    0.3084 H   0  0  0  0  0  0  0  0  0  0  0  0
   -0.6087    0.8046   -2.2005 H   0  0  0  0  0  0  0  0  0  0  0  0
   -2.2202   -1.0847   -1.8595 H   0  0  0  0  0  0  0  0  0  0  0  0
   -2.9058    1.3421   -2.0508 H   0  0  0  0  0  0  0  0  0  0  0  0
   -2.7177    1.5142   -0.2780 H   0  0  0  0  0  0  0  0  0  0  0  0
   -0.7573    3.0975   -0.3432 H   0  0  0  0  0  0  0  0  0  0  0  0
   -1.1719    3.1691   -2.0976 H   0  0  0  0  0  0  0  0  0  0  0  0
    0.5031    2.7755   -1.5820 H   0  0  0  0  0  0  0  0  0  0  0  0
   -4.4711   -0.3617    0.1414 H   0  0  0  0  0  0  0  0  0  0  0  0
   -4.1878   -1.9815   -0.5784 H   0  0  0  0  0  0  0  0  0  0  0  0
   -4.6743   -0.6147   -1.6243 H   0  0  0  0  0  0  0  0  0  0  0  0
  1  8  1  0  0  0  0
  1  7  1  0  0  0  0
  2  4  1  0  0  0  0
  3 10  1  6  0  0  0
  3  6  1  0  0  0  0
  3  1  1  0  0  0  0
  4  3  1  0  0  0  0
  4 12  1  0  0  0  0
  5  2  1  0  0  0  0
  5 13  1  0  0  0  0
  6 17  1  0  0  0  0
  6 16  1  0  0  0  0
  9  2  1  0  0  0  0
 11  4  1  0  0  0  0
 14  5  1  0  0  0  0
 15  5  1  0  0  0  0
 18  6  1  0  0  0  0
M  END
