1,17
 OpenBabel05122313053D

 46 47  0  0  1  0  0  0  0  0999 V2000
    2.1645    0.9027   -0.5708 N   0  0  0  0  0  2  0  0  0  0  0  0
    1.5397    1.9581   -1.1331 C   0  0  2  0  0  3  0  0  0  0  0  0
    2.2723    3.0532   -1.6330 C   0  0  0  0  0  0  0  0  0  0  0  0
    1.7437    3.9077   -2.0795 H   0  0  0  0  0  0  0  0  0  0  0  0
    3.6674    3.0414   -1.5442 C   0  0  0  0  0  0  0  0  0  0  0  0
    4.2560    3.8909   -1.9224 H   0  0  0  0  0  0  0  0  0  0  0  0
    4.3063    1.9297   -0.9658 C   0  0  0  0  0  0  0  0  0  0  0  0
    5.4008    1.8769   -0.8802 H   0  0  0  0  0  0  0  0  0  0  0  0
    3.5129    0.8828   -0.4943 C   0  0  0  0  0  0  0  0  0  0  0  0
    3.9481   -0.0160   -0.0288 H   0  0  0  0  0  0  0  0  0  0  0  0
    0.0294    1.8875   -1.1808 C   0  0  1  0  0  0  0  0  0  0  0  0
   -0.3359    2.7863   -0.6187 H   0  0  0  0  0  0  0  0  0  0  0  0
   -0.4861    2.0585   -2.6265 C   0  0  0  0  0  0  0  0  0  0  0  0
   -0.0931    1.2567   -3.2829 H   0  0  0  0  0  0  0  0  0  0  0  0
   -0.1955    3.0393   -3.0535 H   0  0  0  0  0  0  0  0  0  0  0  0
   -1.5915    2.0047   -2.6292 H   0  0  0  0  0  0  0  0  0  0  0  0
   -0.4406    0.6683   -0.5348 N   0  0  0  0  0  2  0  0  0  0  0  0
   -1.8363    0.6634   -0.2345 C   0  0  0  0  0  0  0  0  0  0  0  0
   -2.3231    1.3934    0.8972 C   0  0  0  0  0  0  0  0  0  0  0  0
   -3.6930    1.3425    1.2118 C   0  0  0  0  0  0  0  0  0  0  0  0
   -4.0657    1.8988    2.0868 H   0  0  0  0  0  0  0  0  0  0  0  0
   -4.5870    0.5849    0.4458 C   0  0  0  0  0  0  0  0  0  0  0  0
   -5.6544    0.5492    0.7123 H   0  0  0  0  0  0  0  0  0  0  0  0
   -4.1107   -0.1310   -0.6581 C   0  0  0  0  0  0  0  0  0  0  0  0
   -4.8140   -0.7297   -1.2583 H   0  0  0  0  0  0  0  0  0  0  0  0
   -2.7515   -0.0998   -1.0239 C   0  0  0  0  0  0  0  0  0  0  0  0
   -1.3870    2.2043    1.7891 C   0  0  0  0  0  0  0  0  0  0  0  0
   -0.3605    2.0523    1.3989 H   0  0  0  0  0  0  0  0  0  0  0  0
   -1.7078    3.7079    1.7282 C   0  0  0  0  0  0  0  0  0  0  0  0
   -1.6975    4.0854    0.6852 H   0  0  0  0  0  0  0  0  0  0  0  0
   -0.9707    4.2944    2.3150 H   0  0  0  0  0  0  0  0  0  0  0  0
   -2.7141    3.9221    2.1448 H   0  0  0  0  0  0  0  0  0  0  0  0
   -1.3840    1.6985    3.2414 C   0  0  0  0  0  0  0  0  0  0  0  0
   -2.3908    1.7672    3.7025 H   0  0  0  0  0  0  0  0  0  0  0  0
   -0.6887    2.3007    3.8618 H   0  0  0  0  0  0  0  0  0  0  0  0
   -1.0533    0.6422    3.2955 H   0  0  0  0  0  0  0  0  0  0  0  0
   -2.2929   -0.8950   -2.2408 C   0  0  0  0  0  0  0  0  0  0  0  0
   -1.2186   -0.6560   -2.3808 H   0  0  0  0  0  0  0  0  0  0  0  0
   -2.3979   -2.4084   -1.9926 C   0  0  0  0  0  0  0  0  0  0  0  0
   -1.8183   -2.6875   -1.0924 H   0  0  0  0  0  0  0  0  0  0  0  0
   -2.0024   -2.9793   -2.8587 H   0  0  0  0  0  0  0  0  0  0  0  0
   -3.4523   -2.7188   -1.8377 H   0  0  0  0  0  0  0  0  0  0  0  0
   -3.0439   -0.4917   -3.5198 C   0  0  0  0  0  0  0  0  0  0  0  0
   -4.1232   -0.7424   -3.4545 H   0  0  0  0  0  0  0  0  0  0  0  0
   -2.6340   -1.0314   -4.3986 H   0  0  0  0  0  0  0  0  0  0  0  0
   -2.9671    0.5957   -3.7202 H   0  0  0  0  0  0  0  0  0  0  0  0
  1  9  1  0  0  0  0
  2 11  1  1  0  0  0
  2  1  1  0  0  0  0
  3  5  2  0  0  0  0
  3  2  1  0  0  0  0
  4  3  1  0  0  0  0
  5  7  1  0  0  0  0
  6  5  1  0  0  0  0
  7  8  1  0  0  0  0
  7  9  2  0  0  0  0
  9 10  1  0  0  0  0
 11 12  1  1  0  0  0
 11 17  1  0  0  0  0
 13 11  1  0  0  0  0
 14 13  1  0  0  0  0
 15 13  1  0  0  0  0
 16 13  1  0  0  0  0
 17 18  1  0  0  0  0
 18 19  1  0  0  0  0
 19 20  2  0  0  0  0
 19 27  1  0  0  0  0
 20 21  1  0  0  0  0
 22 23  1  0  0  0  0
 22 20  1  0  0  0  0
 24 22  2  0  0  0  0
 25 24  1  0  0  0  0
 26 24  1  0  0  0  0
 26 18  2  0  0  0  0
 27 33  1  0  0  0  0
 28 27  1  0  0  0  0
 29 27  1  0  0  0  0
 29 32  1  0  0  0  0
 29 31  1  0  0  0  0
 30 29  1  0  0  0  0
 33 36  1  0  0  0  0
 33 34  1  0  0  0  0
 33 35  1  0  0  0  0
 37 39  1  0  0  0  0
 37 26  1  0  0  0  0
 38 37  1  0  0  0  0
 39 42  1  0  0  0  0
 39 40  1  0  0  0  0
 41 39  1  0  0  0  0
 43 44  1  0  0  0  0
 43 37  1  0  0  0  0
 45 43  1  0  0  0  0
 46 43  1  0  0  0  0
M  END
