1,14
 OpenBabel05122313053D

 43 44  0  0  1  0  0  0  0  0999 V2000
    2.0047    1.1430    0.7343 N   0  0  0  0  0  2  0  0  0  0  0  0
    1.2975    1.9915    1.5104 C   0  0  1  0  0  3  0  0  0  0  0  0
    1.9316    2.9932    2.2703 C   0  0  0  0  0  0  0  0  0  0  0  0
    1.3273    3.6646    2.8984 H   0  0  0  0  0  0  0  0  0  0  0  0
    3.3223    3.1169    2.2066 C   0  0  0  0  0  0  0  0  0  0  0  0
    3.8399    3.8955    2.7871 H   0  0  0  0  0  0  0  0  0  0  0  0
    4.0506    2.2303    1.3913 C   0  0  0  0  0  0  0  0  0  0  0  0
    5.1452    2.2919    1.3137 H   0  0  0  0  0  0  0  0  0  0  0  0
    3.3507    1.2559    0.6785 C   0  0  0  0  0  0  0  0  0  0  0  0
    3.8633    0.5236    0.0343 H   0  0  0  0  0  0  0  0  0  0  0  0
   -0.1925    1.7911    1.4996 C   0  0  0  0  0  0  0  0  0  0  0  0
   -0.5311    1.6402    2.5603 H   0  0  0  0  0  0  0  0  0  0  0  0
   -0.6682    2.7613    1.1998 H   0  0  0  0  0  0  0  0  0  0  0  0
   -0.5801    0.7032    0.6355 N   0  0  0  0  0  2  0  0  0  0  0  0
   -1.9904    0.5990    0.4458 C   0  0  0  0  0  0  0  0  0  0  0  0
   -2.6287    1.3641   -0.5771 C   0  0  0  0  0  0  0  0  0  0  0  0
   -4.0098    1.1994   -0.7913 C   0  0  0  0  0  0  0  0  0  0  0  0
   -4.5051    1.7776   -1.5878 H   0  0  0  0  0  0  0  0  0  0  0  0
   -4.7636    0.3112   -0.0144 C   0  0  0  0  0  0  0  0  0  0  0  0
   -5.8416    0.1898   -0.2011 H   0  0  0  0  0  0  0  0  0  0  0  0
   -4.1385   -0.4183    1.0047 C   0  0  0  0  0  0  0  0  0  0  0  0
   -4.7351   -1.1095    1.6212 H   0  0  0  0  0  0  0  0  0  0  0  0
   -2.7612   -0.2826    1.2587 C   0  0  0  0  0  0  0  0  0  0  0  0
   -1.8437    2.3551   -1.4304 C   0  0  0  0  0  0  0  0  0  0  0  0
   -0.7862    2.2851   -1.1032 H   0  0  0  0  0  0  0  0  0  0  0  0
   -2.3229    3.7981   -1.1951 C   0  0  0  0  0  0  0  0  0  0  0  0
   -3.3707    3.9370   -1.5349 H   0  0  0  0  0  0  0  0  0  0  0  0
   -1.6919    4.5205   -1.7534 H   0  0  0  0  0  0  0  0  0  0  0  0
   -2.2875    4.0678   -0.1199 H   0  0  0  0  0  0  0  0  0  0  0  0
   -1.8731    1.9981   -2.9255 C   0  0  0  0  0  0  0  0  0  0  0  0
   -1.4254    1.0010   -3.1086 H   0  0  0  0  0  0  0  0  0  0  0  0
   -1.2948    2.7389   -3.5154 H   0  0  0  0  0  0  0  0  0  0  0  0
   -2.9087    1.9863   -3.3241 H   0  0  0  0  0  0  0  0  0  0  0  0
   -2.1171   -1.0654    2.3951 C   0  0  0  0  0  0  0  0  0  0  0  0
   -1.0368   -0.8085    2.3755 H   0  0  0  0  0  0  0  0  0  0  0  0
   -2.2291   -2.5826    2.1831 C   0  0  0  0  0  0  0  0  0  0  0  0
   -3.2871   -2.9183    2.1929 H   0  0  0  0  0  0  0  0  0  0  0  0
   -1.6957   -3.1339    2.9852 H   0  0  0  0  0  0  0  0  0  0  0  0
   -1.7860   -2.8694    1.2106 H   0  0  0  0  0  0  0  0  0  0  0  0
   -2.6796   -0.6404    3.7620 C   0  0  0  0  0  0  0  0  0  0  0  0
   -2.5707    0.4513    3.9241 H   0  0  0  0  0  0  0  0  0  0  0  0
   -2.1537   -1.1663    4.5859 H   0  0  0  0  0  0  0  0  0  0  0  0
   -3.7597   -0.8823    3.8481 H   0  0  0  0  0  0  0  0  0  0  0  0
  1  2  1  0  0  0  0
  2 11  1  6  0  0  0
  2  3  1  0  0  0  0
  3  4  1  0  0  0  0
  5  3  2  0  0  0  0
  5  6  1  0  0  0  0
  7  5  1  0  0  0  0
  8  7  1  0  0  0  0
  9  1  1  0  0  0  0
  9  7  2  0  0  0  0
 10  9  1  0  0  0  0
 11 12  1  0  0  0  0
 13 11  1  0  0  0  0
 14 11  1  0  0  0  0
 15 14  1  0  0  0  0
 15 23  1  0  0  0  0
 16 15  2  0  0  0  0
 17 16  1  0  0  0  0
 17 19  2  0  0  0  0
 18 17  1  0  0  0  0
 19 21  1  0  0  0  0
 20 19  1  0  0  0  0
 21 23  2  0  0  0  0
 21 22  1  0  0  0  0
 23 34  1  0  0  0  0
 24 26  1  0  0  0  0
 24 25  1  0  0  0  0
 24 16  1  0  0  0  0
 26 29  1  0  0  0  0
 27 26  1  0  0  0  0
 28 26  1  0  0  0  0
 30 24  1  0  0  0  0
 31 30  1  0  0  0  0
 32 30  1  0  0  0  0
 33 30  1  0  0  0  0
 34 40  1  0  0  0  0
 35 34  1  0  0  0  0
 36 37  1  0  0  0  0
 36 34  1  0  0  0  0
 36 38  1  0  0  0  0
 39 36  1  0  0  0  0
 40 43  1  0  0  0  0
 40 41  1  0  0  0  0
 40 42  1  0  0  0  0
M  END
