1,2
 OpenBabel05122313053D

 30 31  0  0  1  0  0  0  0  0999 V2000
    1.2052    1.1047    0.6768 N   0  0  0  0  0  2  0  0  0  0  0  0
    1.4769   -0.8149   -0.9147 N   0  0  0  0  0  2  0  0  0  0  0  0
    0.9291    2.1606    1.4773 C   0  0  0  0  0  0  0  0  0  0  0  0
   -0.1363    2.3849    1.6319 H   0  0  0  0  0  0  0  0  0  0  0  0
    1.9521    2.9086    2.0894 C   0  0  0  0  0  0  0  0  0  0  0  0
    1.6723    3.7563    2.7316 H   0  0  0  0  0  0  0  0  0  0  0  0
    3.2916    2.5699    1.8931 C   0  0  0  0  0  0  0  0  0  0  0  0
    4.0976    3.1403    2.3784 H   0  0  0  0  0  0  0  0  0  0  0  0
    3.6152    1.4688    1.0472 C   0  0  0  0  0  0  0  0  0  0  0  0
    4.9356    1.0126    0.7542 C   0  0  0  0  0  0  0  0  0  0  0  0
    5.7982    1.5166    1.2141 H   0  0  0  0  0  0  0  0  0  0  0  0
    5.1066   -0.0651   -0.1088 C   0  0  0  0  0  0  0  0  0  0  0  0
    6.1255   -0.4173   -0.3338 H   0  0  0  0  0  0  0  0  0  0  0  0
    4.0179   -0.7337   -0.7248 C   0  0  0  0  0  0  0  0  0  0  0  0
    4.2299   -1.5728   -1.3977 H   0  0  0  0  0  0  0  0  0  0  0  0
    2.6923   -0.3253   -0.4661 C   0  0  0  0  0  0  0  0  0  0  0  0
    2.5284    0.7761    0.4418 C   0  0  1  0  0  3  0  0  0  0  0  0
    1.3455   -1.7634   -2.0410 C   0  0  0  0  0  0  0  0  0  0  0  0
   -0.1581   -1.8807   -2.3563 C   0  0  0  0  0  0  0  0  0  0  0  0
   -0.7289   -2.1965   -1.4583 H   0  0  0  0  0  0  0  0  0  0  0  0
   -0.3256   -2.6327   -3.1538 H   0  0  0  0  0  0  0  0  0  0  0  0
   -0.5710   -0.9120   -2.7015 H   0  0  0  0  0  0  0  0  0  0  0  0
    1.8614   -3.1617   -1.6370 C   0  0  0  0  0  0  0  0  0  0  0  0
    2.9342   -3.1559   -1.3680 H   0  0  0  0  0  0  0  0  0  0  0  0
    1.7218   -3.8832   -2.4676 H   0  0  0  0  0  0  0  0  0  0  0  0
    1.2965   -3.5334   -0.7581 H   0  0  0  0  0  0  0  0  0  0  0  0
    2.0592   -1.2382   -3.3036 C   0  0  0  0  0  0  0  0  0  0  0  0
    1.6667   -0.2353   -3.5667 H   0  0  0  0  0  0  0  0  0  0  0  0
    1.8763   -1.9170   -4.1609 H   0  0  0  0  0  0  0  0  0  0  0  0
    3.1531   -1.1471   -3.1697 H   0  0  0  0  0  0  0  0  0  0  0  0
  1  3  1  0  0  0  0
  2 16  1  0  0  0  0
  3  4  1  0  0  0  0
  3  5  2  0  0  0  0
  5  6  1  0  0  0  0
  7  5  1  0  0  0  0
  7  8  1  0  0  0  0
  9  7  2  0  0  0  0
 10  9  1  0  0  0  0
 10 11  1  0  0  0  0
 12 10  2  0  0  0  0
 13 12  1  0  0  0  0
 14 16  2  0  0  0  0
 14 12  1  0  0  0  0
 15 14  1  0  0  0  0
 17 16  1  1  0  0  0
 17  1  1  0  0  0  0
 17  9  1  0  0  0  0
 18 23  1  0  0  0  0
 18  2  1  0  0  0  0
 19 18  1  0  0  0  0
 19 20  1  0  0  0  0
 21 19  1  0  0  0  0
 22 19  1  0  0  0  0
 23 24  1  0  0  0  0
 23 26  1  0  0  0  0
 25 23  1  0  0  0  0
 27 30  1  0  0  0  0
 27 18  1  0  0  0  0
 28 27  1  0  0  0  0
 29 27  1  0  0  0  0
M  END
