1,2
 OpenBabel05122313053D

 29 30  0  0  0  0  0  0  0  0999 V2000
    1.1906   -0.4881   -0.8267 N   0  0  0  0  0  2  0  0  0  0  0  0
   -0.5098    0.8583   -0.4907 N   0  0  0  0  0  2  0  0  0  0  0  0
    2.3383   -1.0843   -1.3333 C   0  0  0  0  0  0  0  0  0  0  0  0
    2.6551   -2.3999   -0.9039 C   0  0  0  0  0  0  0  0  0  0  0  0
    3.8104   -3.0504   -1.3493 C   0  0  0  0  0  0  0  0  0  0  0  0
    4.6976   -2.4095   -2.2310 C   0  0  0  0  0  0  0  0  0  0  0  0
    4.4154   -1.0959   -2.6387 C   0  0  0  0  0  0  0  0  0  0  0  0
    3.2621   -0.4349   -2.1963 C   0  0  0  0  0  0  0  0  0  0  0  0
   -1.4041    1.9185   -0.5674 C   0  0  0  0  0  0  0  0  0  0  0  0
   -1.1682    3.1215   -1.2895 C   0  0  0  0  0  0  0  0  0  0  0  0
   -2.1122    4.1583   -1.2811 C   0  0  0  0  0  0  0  0  0  0  0  0
   -3.3063    4.0426   -0.5526 C   0  0  0  0  0  0  0  0  0  0  0  0
   -3.5356    2.8714    0.1904 C   0  0  0  0  0  0  0  0  0  0  0  0
   -2.6006    1.8330    0.1914 C   0  0  0  0  0  0  0  0  0  0  0  0
    0.4690    0.5178   -1.3518 C   0  0  0  0  0  3  0  0  0  0  0  0
    0.6072    1.0468   -2.7535 C   0  0  0  0  0  0  0  0  0  0  0  0
    5.6072   -2.9203   -2.5799 H   0  0  0  0  0  0  0  0  0  0  0  0
    4.0233   -4.0714   -0.9964 H   0  0  0  0  0  0  0  0  0  0  0  0
    1.9751   -2.8918   -0.1946 H   0  0  0  0  0  0  0  0  0  0  0  0
    5.1162   -0.5624   -3.3000 H   0  0  0  0  0  0  0  0  0  0  0  0
    3.1092    0.6143   -2.4746 H   0  0  0  0  0  0  0  0  0  0  0  0
   -0.2250    3.2646   -1.8307 H   0  0  0  0  0  0  0  0  0  0  0  0
   -1.8993    5.0793   -1.8462 H   0  0  0  0  0  0  0  0  0  0  0  0
   -4.0415    4.8610   -0.5513 H   0  0  0  0  0  0  0  0  0  0  0  0
   -4.4587    2.7609    0.7800 H   0  0  0  0  0  0  0  0  0  0  0  0
   -2.7797    0.9215    0.7763 H   0  0  0  0  0  0  0  0  0  0  0  0
   -0.3803    1.3737   -3.1318 H   0  0  0  0  0  0  0  0  0  0  0  0
    1.2940    1.9166   -2.8088 H   0  0  0  0  0  0  0  0  0  0  0  0
    1.0157    0.2596   -3.4161 H   0  0  0  0  0  0  0  0  0  0  0  0
  3  4  1  0  0  0  0
  3  1  1  0  0  0  0
  4 19  1  0  0  0  0
  5 18  1  0  0  0  0
  5  4  2  0  0  0  0
  6  5  1  0  0  0  0
  7  6  2  0  0  0  0
  7  8  1  0  0  0  0
  8  3  2  0  0  0  0
  9  2  1  0  0  0  0
  9 14  1  0  0  0  0
 10 11  1  0  0  0  0
 10  9  2  0  0  0  0
 11 12  2  0  0  0  0
 12 24  1  0  0  0  0
 12 13  1  0  0  0  0
 13 14  2  0  0  0  0
 13 25  1  0  0  0  0
 14 26  1  0  0  0  0
 15  1  1  0  0  0  0
 15  2  1  0  0  0  0
 16 15  1  0  0  0  0
 17  6  1  0  0  0  0
 20  7  1  0  0  0  0
 21  8  1  0  0  0  0
 22 10  1  0  0  0  0
 23 11  1  0  0  0  0
 27 16  1  0  0  0  0
 28 16  1  0  0  0  0
 29 16  1  0  0  0  0
M  END
