1,2
 OpenBabel05122313053D

 22 23  0  0  1  0  0  0  0  0999 V2000
    1.4948   -1.2094   -0.5521 N   0  0  0  0  0  2  0  0  0  0  0  0
    0.8068   -0.2705    1.3226 N   0  0  0  0  0  2  0  0  0  0  0  0
    2.7893   -1.6371    1.4258 N   0  0  1  0  0  0  0  0  0  0  0  0
    1.7343   -1.0762    0.7720 C   0  0  2  0  0  3  0  0  0  0  0  0
    2.5833   -1.5814   -1.4363 C   0  0  0  0  0  0  0  0  0  0  0  0
    3.2152   -0.6921   -1.6619 H   0  0  0  0  0  0  0  0  0  0  0  0
    2.1652   -1.9429   -2.3966 H   0  0  0  0  0  0  0  0  0  0  0  0
    3.4035   -2.6709   -0.7367 C   0  0  0  0  0  0  0  0  0  0  0  0
    2.7781   -3.5800   -0.6124 H   0  0  0  0  0  0  0  0  0  0  0  0
    4.2793   -2.9511   -1.3552 H   0  0  0  0  0  0  0  0  0  0  0  0
    3.8875   -2.1887    0.6324 C   0  0  0  0  0  0  0  0  0  0  0  0
    4.3473   -3.0228    1.2048 H   0  0  0  0  0  0  0  0  0  0  0  0
    4.6741   -1.4069    0.5052 H   0  0  0  0  0  0  0  0  0  0  0  0
    3.1043   -1.1601    2.7711 C   0  0  0  0  0  0  0  0  0  0  0  0
    3.8722   -0.3527    2.7033 H   0  0  0  0  0  0  0  0  0  0  0  0
    3.5610   -1.9972    3.3418 H   0  0  0  0  0  0  0  0  0  0  0  0
    1.8522   -0.6365    3.4750 C   0  0  0  0  0  0  0  0  0  0  0  0
    2.1428   -0.1601    4.4325 H   0  0  0  0  0  0  0  0  0  0  0  0
    1.1792   -1.4861    3.7168 H   0  0  0  0  0  0  0  0  0  0  0  0
    1.1033    0.3682    2.5916 C   0  0  0  0  0  0  0  0  0  0  0  0
    0.1621    0.7016    3.0657 H   0  0  0  0  0  0  0  0  0  0  0  0
    1.7171    1.2819    2.4210 H   0  0  0  0  0  0  0  0  0  0  0  0
  2 20  1  0  0  0  0
  3 11  1  6  0  0  0
  3 14  1  0  0  0  0
  4  1  1  6  0  0  0
  4  2  1  0  0  0  0
  4  3  1  0  0  0  0
  5  8  1  0  0  0  0
  5  1  1  0  0  0  0
  6  5  1  0  0  0  0
  7  5  1  0  0  0  0
  8  9  1  0  0  0  0
  8 11  1  0  0  0  0
 10  8  1  0  0  0  0
 11 12  1  0  0  0  0
 13 11  1  0  0  0  0
 14 16  1  0  0  0  0
 14 17  1  0  0  0  0
 15 14  1  0  0  0  0
 17 19  1  0  0  0  0
 17 18  1  0  0  0  0
 20 21  1  0  0  0  0
 20 17  1  0  0  0  0
 22 20  1  0  0  0  0
M  END
