1,2
 OpenBabel05122313053D

 36 39  0  0  0  0  0  0  0  0999 V2000
   -3.8446    1.0018    0.2007 N   0  0  0  0  0  2  0  0  0  0  0  0
   -1.1550    0.9048    0.2274 N   0  0  0  0  0  2  0  0  0  0  0  0
    5.1429   -0.6225    0.6033 N   0  0  0  0  0  0  0  0  0  0  0  0
    5.5853    1.5854   -0.7494 S   0  0  0  0  0  0  0  0  0  0  0  0
   -5.1935    1.0141    0.2417 C   0  0  0  0  0  3  0  0  0  0  0  0
   -5.9279    2.1851    0.4723 C   0  0  0  0  0  0  0  0  0  0  0  0
   -5.2431    3.3944    0.6690 C   0  0  0  0  0  0  0  0  0  0  0  0
   -3.8443    3.3900    0.6335 C   0  0  0  0  0  0  0  0  0  0  0  0
   -3.1665    2.1780    0.4001 C   0  0  0  0  0  0  0  0  0  0  0  0
   -1.7219    2.0803    0.3870 C   0  0  0  0  0  3  0  0  0  0  0  0
    0.2544    0.7994    0.1628 C   0  0  0  0  0  0  0  0  0  0  0  0
    1.0368    1.7897   -0.4801 C   0  0  0  0  0  0  0  0  0  0  0  0
    2.4242    1.6642   -0.5282 C   0  0  0  0  0  0  0  0  0  0  0  0
    3.0738    0.5610    0.0770 C   0  0  0  0  0  0  0  0  0  0  0  0
    2.2825   -0.4241    0.7222 C   0  0  0  0  0  0  0  0  0  0  0  0
    0.8963   -0.3166    0.7515 C   0  0  0  0  0  0  0  0  0  0  0  0
    4.5239    0.3945    0.0503 C   0  0  0  0  0  0  0  0  0  0  0  0
    6.9569    0.6133   -0.2856 C   0  0  0  0  0  0  0  0  0  0  0  0
    8.3211    0.8357   -0.5319 C   0  0  0  0  0  0  0  0  0  0  0  0
    9.2323   -0.1088   -0.0452 C   0  0  0  0  0  0  0  0  0  0  0  0
    8.8011   -1.2520    0.6725 C   0  0  0  0  0  0  0  0  0  0  0  0
    7.4480   -1.4764    0.9195 C   0  0  0  0  0  0  0  0  0  0  0  0
    6.5015   -0.5401    0.4401 C   0  0  0  0  0  0  0  0  0  0  0  0
   -5.6976    0.0490    0.0856 H   0  0  0  0  0  0  0  0  0  0  0  0
   -7.0256    2.1379    0.4962 H   0  0  0  0  0  0  0  0  0  0  0  0
   -5.7941    4.3284    0.8522 H   0  0  0  0  0  0  0  0  0  0  0  0
   -3.2666    4.3122    0.7906 H   0  0  0  0  0  0  0  0  0  0  0  0
   -1.1156    2.9867    0.5591 H   0  0  0  0  0  0  0  0  0  0  0  0
    0.5498    2.6389   -0.9827 H   0  0  0  0  0  0  0  0  0  0  0  0
    3.0147    2.4289   -1.0557 H   0  0  0  0  0  0  0  0  0  0  0  0
    2.7968   -1.2725    1.1950 H   0  0  0  0  0  0  0  0  0  0  0  0
    0.2932   -1.0743    1.2701 H   0  0  0  0  0  0  0  0  0  0  0  0
    8.6662    1.7193   -1.0871 H   0  0  0  0  0  0  0  0  0  0  0  0
   10.3071    0.0420   -0.2250 H   0  0  0  0  0  0  0  0  0  0  0  0
    9.5486   -1.9706    1.0388 H   0  0  0  0  0  0  0  0  0  0  0  0
    7.0947   -2.3566    1.4746 H   0  0  0  0  0  0  0  0  0  0  0  0
  1  5  1  0  0  0  0
  1  9  1  0  0  0  0
  2 10  1  0  0  0  0
  4 18  1  0  0  0  0
  4 17  1  0  0  0  0
  5  6  1  0  0  0  0
  6 25  1  0  0  0  0
  6  7  2  0  0  0  0
  7 26  1  0  0  0  0
  8  7  1  0  0  0  0
  8 27  1  0  0  0  0
  9  8  2  0  0  0  0
 10  9  1  0  0  0  0
 10 28  1  0  0  0  0
 11  2  1  0  0  0  0
 11 16  1  0  0  0  0
 12 11  2  0  0  0  0
 13 12  1  0  0  0  0
 13 14  2  0  0  0  0
 14 15  1  0  0  0  0
 15 16  2  0  0  0  0
 15 31  1  0  0  0  0
 16 32  1  0  0  0  0
 17 14  1  0  0  0  0
 17  3  2  0  0  0  0
 18 23  1  0  0  0  0
 19 18  2  0  0  0  0
 19 20  1  0  0  0  0
 20 21  2  0  0  0  0
 21 22  1  0  0  0  0
 21 35  1  0  0  0  0
 22 36  1  0  0  0  0
 23  3  1  0  0  0  0
 23 22  2  0  0  0  0
 24  5  1  0  0  0  0
 29 12  1  0  0  0  0
 30 13  1  0  0  0  0
 33 19  1  0  0  0  0
 34 20  1  0  0  0  0
M  END
