1,2
 OpenBabel05122313053D

 49 49  0  0  1  0  0  0  0  0999 V2000
    0.4404    1.4245    0.9598 N   0  0  0  0  0  0  0  0  0  0  0  0
   -1.6254    0.3543   -0.7627 N   0  0  0  0  0  2  0  0  0  0  0  0
   -2.1752   -0.8208    1.2068 N   0  0  0  0  0  0  0  0  0  0  0  0
   -0.6395    1.0776    1.9177 C   0  0  0  0  0  0  0  0  0  0  0  0
   -0.9512   -0.4223    1.9263 C   0  0  0  0  0  0  0  0  0  0  0  0
   -2.5189   -0.1989    0.0272 C   0  0  1  0  0  3  0  0  0  0  0  0
   -3.9561   -0.0072   -0.3164 C   0  0  0  0  0  0  0  0  0  0  0  0
   -4.8739    0.3924    0.6773 C   0  0  0  0  0  0  0  0  0  0  0  0
   -6.2109    0.6447    0.3418 C   0  0  0  0  0  0  0  0  0  0  0  0
   -6.6442    0.4951   -0.9862 C   0  0  0  0  0  0  0  0  0  0  0  0
   -5.7332    0.1007   -1.9809 C   0  0  0  0  0  0  0  0  0  0  0  0
   -4.3942   -0.1455   -1.6507 C   0  0  0  0  0  0  0  0  0  0  0  0
    0.5993    2.9108    0.7062 C   0  0  0  0  0  0  0  0  0  0  0  0
    1.9223    3.1193   -0.0461 C   0  0  0  0  0  0  0  0  0  0  0  0
    0.6687    3.6605    2.0517 C   0  0  0  0  0  0  0  0  0  0  0  0
   -0.5637    3.4395   -0.1450 C   0  0  0  0  0  0  0  0  0  0  0  0
   -2.6699   -2.2127    1.5494 C   0  0  0  0  0  0  0  0  0  0  0  0
   -3.3672   -2.1890    2.9204 C   0  0  0  0  0  0  0  0  0  0  0  0
   -3.6396   -2.7730    0.4954 C   0  0  0  0  0  0  0  0  0  0  0  0
   -1.4498   -3.1648    1.5736 C   0  0  0  0  0  0  0  0  0  0  0  0
    1.3802    1.0673    1.3513 H   0  0  0  0  0  0  0  0  0  0  0  0
   -2.0500    0.9033   -1.5202 H   0  0  0  0  0  0  0  0  0  0  0  0
   -0.3263    1.3737    2.9399 H   0  0  0  0  0  0  0  0  0  0  0  0
   -1.5541    1.6593    1.6856 H   0  0  0  0  0  0  0  0  0  0  0  0
   -1.1090   -0.7354    2.9778 H   0  0  0  0  0  0  0  0  0  0  0  0
   -0.0520   -0.9623    1.5525 H   0  0  0  0  0  0  0  0  0  0  0  0
   -4.5195    0.5108    1.7120 H   0  0  0  0  0  0  0  0  0  0  0  0
   -6.9199    0.9645    1.1204 H   0  0  0  0  0  0  0  0  0  0  0  0
   -7.6960    0.6863   -1.2473 H   0  0  0  0  0  0  0  0  0  0  0  0
   -6.0717   -0.0250   -3.0203 H   0  0  0  0  0  0  0  0  0  0  0  0
   -3.6804   -0.4820   -2.4193 H   0  0  0  0  0  0  0  0  0  0  0  0
    2.0570    4.1957   -0.2692 H   0  0  0  0  0  0  0  0  0  0  0  0
    1.9218    2.5525   -0.9973 H   0  0  0  0  0  0  0  0  0  0  0  0
    2.7789    2.7706    0.5624 H   0  0  0  0  0  0  0  0  0  0  0  0
    0.9386    4.7194    1.8711 H   0  0  0  0  0  0  0  0  0  0  0  0
    1.4475    3.2216    2.7081 H   0  0  0  0  0  0  0  0  0  0  0  0
   -0.2973    3.6557    2.5944 H   0  0  0  0  0  0  0  0  0  0  0  0
   -1.5525    3.2433    0.3168 H   0  0  0  0  0  0  0  0  0  0  0  0
   -0.5449    2.9710   -1.1484 H   0  0  0  0  0  0  0  0  0  0  0  0
   -0.4670    4.5361   -0.2689 H   0  0  0  0  0  0  0  0  0  0  0  0
   -4.2868   -1.5727    2.8840 H   0  0  0  0  0  0  0  0  0  0  0  0
   -2.7083   -1.7865    3.7155 H   0  0  0  0  0  0  0  0  0  0  0  0
   -3.6540   -3.2164    3.2204 H   0  0  0  0  0  0  0  0  0  0  0  0
   -3.8399   -3.8324    0.7477 H   0  0  0  0  0  0  0  0  0  0  0  0
   -3.1957   -2.7473   -0.5192 H   0  0  0  0  0  0  0  0  0  0  0  0
   -4.6098   -2.2478    0.4719 H   0  0  0  0  0  0  0  0  0  0  0  0
   -0.7573   -2.9571    2.4105 H   0  0  0  0  0  0  0  0  0  0  0  0
   -0.8824   -3.0918    0.6237 H   0  0  0  0  0  0  0  0  0  0  0  0
   -1.8028   -4.2076    1.6912 H   0  0  0  0  0  0  0  0  0  0  0  0
  1 21  1  0  0  0  0
  1  4  1  0  0  0  0
  3 17  1  0  0  0  0
  3  5  1  0  0  0  0
  4  5  1  0  0  0  0
  4 23  1  0  0  0  0
  5 25  1  0  0  0  0
  6  2  1  1  0  0  0
  6  3  1  0  0  0  0
  7  6  1  0  0  0  0
  7  8  1  0  0  0  0
  8 27  1  0  0  0  0
  9  8  2  0  0  0  0
  9 28  1  0  0  0  0
 10  9  1  0  0  0  0
 11 12  1  0  0  0  0
 11 10  2  0  0  0  0
 12  7  2  0  0  0  0
 13  1  1  0  0  0  0
 13 15  1  0  0  0  0
 14 34  1  0  0  0  0
 14 13  1  0  0  0  0
 15 37  1  0  0  0  0
 15 36  1  0  0  0  0
 16 38  1  0  0  0  0
 16 13  1  0  0  0  0
 17 20  1  0  0  0  0
 17 18  1  0  0  0  0
 18 43  1  0  0  0  0
 18 42  1  0  0  0  0
 19 44  1  0  0  0  0
 19 17  1  0  0  0  0
 20 49  1  0  0  0  0
 20 47  1  0  0  0  0
 22  2  1  0  0  0  0
 24  4  1  0  0  0  0
 26  5  1  0  0  0  0
 29 10  1  0  0  0  0
 30 11  1  0  0  0  0
 31 12  1  0  0  0  0
 32 14  1  0  0  0  0
 33 14  1  0  0  0  0
 35 15  1  0  0  0  0
 39 16  1  0  0  0  0
 40 16  1  0  0  0  0
 41 18  1  0  0  0  0
 45 19  1  0  0  0  0
 46 19  1  0  0  0  0
 48 20  1  0  0  0  0
M  END
