34,36
 OpenBabel05122313053D

 37 40  0  0  0  0  0  0  0  0999 V2000
   -0.1437   -1.9403    1.8430 C   0  0  0  0  0  3  0  0  0  0  0  0
   -1.0828   -1.7751    2.3918 H   0  0  0  0  0  0  0  0  0  0  0  0
    0.9767   -2.5190    2.4701 C   0  0  0  0  0  0  0  0  0  0  0  0
    0.8958   -2.8243    3.5229 H   0  0  0  0  0  0  0  0  0  0  0  0
    2.1744   -2.6798    1.7640 C   0  0  0  0  0  0  0  0  0  0  0  0
    3.0679   -3.1060    2.2446 H   0  0  0  0  0  0  0  0  0  0  0  0
    2.1939   -2.2893    0.4121 C   0  0  0  0  0  0  0  0  0  0  0  0
    3.1576   -2.3146   -0.6503 C   0  0  0  0  0  0  0  0  0  0  0  0
    4.1922   -2.6694   -0.5987 H   0  0  0  0  0  0  0  0  0  0  0  0
    2.5192   -1.8145   -1.7699 C   0  0  0  0  0  0  0  0  0  0  0  0
    2.8947   -1.6915   -2.7923 H   0  0  0  0  0  0  0  0  0  0  0  0
    0.9855   -1.7342   -0.1375 C   0  0  0  0  0  0  0  0  0  0  0  0
   -0.0461    1.5179    2.1678 C   0  0  0  0  0  3  0  0  0  0  0  0
   -0.9753    1.2524    2.6935 H   0  0  0  0  0  0  0  0  0  0  0  0
    1.0921    1.9545    2.8728 C   0  0  0  0  0  0  0  0  0  0  0  0
    1.0357    2.0437    3.9668 H   0  0  0  0  0  0  0  0  0  0  0  0
    2.2754    2.2493    2.1862 C   0  0  0  0  0  0  0  0  0  0  0  0
    3.1820    2.5694    2.7215 H   0  0  0  0  0  0  0  0  0  0  0  0
    2.2634    2.1341    0.7839 C   0  0  0  0  0  0  0  0  0  0  0  0
    3.2065    2.3653   -0.2720 C   0  0  0  0  0  0  0  0  0  0  0  0
    4.2440    2.7008   -0.1726 H   0  0  0  0  0  0  0  0  0  0  0  0
    2.5431    2.0963   -1.4546 C   0  0  0  0  0  0  0  0  0  0  0  0
    2.8976    2.1745   -2.4888 H   0  0  0  0  0  0  0  0  0  0  0  0
    1.0397    1.7026    0.1609 C   0  0  0  0  0  0  0  0  0  0  0  0
    0.2179   -1.0742   -2.4750 C   0  0  0  0  0  0  0  0  0  0  0  0
   -0.7642   -1.0304   -1.9488 H   0  0  0  0  0  0  0  0  0  0  0  0
    0.1735   -1.8756   -3.2422 H   0  0  0  0  0  0  0  0  0  0  0  0
    0.4802    0.2774   -3.1447 C   0  0  0  0  0  0  0  0  0  0  0  0
    1.5035    0.3106   -3.5804 H   0  0  0  0  0  0  0  0  0  0  0  0
   -0.2178    0.3564   -4.0044 H   0  0  0  0  0  0  0  0  0  0  0  0
    0.2320    1.4939   -2.2484 C   0  0  0  0  0  0  0  0  0  0  0  0
    0.1857    2.4165   -2.8643 H   0  0  0  0  0  0  0  0  0  0  0  0
   -0.7459    1.3638   -1.7276 H   0  0  0  0  0  0  0  0  0  0  0  0
   -0.1469   -1.5136    0.5595 N   0  0  0  0  0  2  0  0  0  0  0  0
    1.2100   -1.4584   -1.4742 N   0  0  0  0  0  0  0  0  0  0  0  0
   -0.0812    1.3570    0.8253 N   0  0  0  0  0  2  0  0  0  0  0  0
    1.2372    1.6937   -1.2080 N   0  0  0  0  0  0  0  0  0  0  0  0
  1  2  1  0  0  0  0
  1  3  1  0  0  0  0
  3  4  1  0  0  0  0
  5  6  1  0  0  0  0
  5  3  2  0  0  0  0
  7  5  1  0  0  0  0
  8  9  1  0  0  0  0
  8  7  1  0  0  0  0
 10 35  1  0  0  0  0
 10  8  2  0  0  0  0
 11 10  1  0  0  0  0
 12  7  2  0  0  0  0
 12 34  1  0  0  0  0
 13 14  1  0  0  0  0
 13 15  1  0  0  0  0
 15 16  1  0  0  0  0
 17 18  1  0  0  0  0
 17 15  2  0  0  0  0
 19 17  1  0  0  0  0
 20 21  1  0  0  0  0
 20 19  1  0  0  0  0
 22 37  1  0  0  0  0
 22 20  2  0  0  0  0
 23 22  1  0  0  0  0
 24 19  2  0  0  0  0
 24 36  1  0  0  0  0
 25 26  1  0  0  0  0
 25 35  1  0  0  0  0
 27 25  1  0  0  0  0
 28 25  1  0  0  0  0
 28 31  1  0  0  0  0
 29 28  1  0  0  0  0
 30 28  1  0  0  0  0
 31 33  1  0  0  0  0
 31 37  1  0  0  0  0
 32 31  1  0  0  0  0
 34  1  1  0  0  0  0
 35 12  1  0  0  0  0
 36 13  1  0  0  0  0
 37 24  1  0  0  0  0
M  END
