2,5
 OpenBabel05122313053D

 25 27  0  0  1  0  0  0  0  0999 V2000
   -1.8401    1.3634   -0.8709 O   0  0  0  0  0  0  0  0  0  0  0  0
    1.6676    1.5176    0.0428 N   0  0  0  0  0  2  0  0  0  0  0  0
    2.7099    2.3185    0.3012 C   0  0  0  0  0  3  0  0  0  0  0  0
    3.6506    1.8116    0.5661 H   0  0  0  0  0  0  0  0  0  0  0  0
   -0.3177   -0.2010   -0.6331 N   0  0  0  0  0  2  0  0  0  0  0  0
    2.6131    3.7167    0.2405 C   0  0  0  0  0  0  0  0  0  0  0  0
    3.4945    4.3339    0.4645 H   0  0  0  0  0  0  0  0  0  0  0  0
   -1.4853   -0.8416   -0.9106 N   0  0  0  0  0  0  0  0  0  0  0  0
    1.3851    4.3002   -0.1089 C   0  0  0  0  0  0  0  0  0  0  0  0
    1.2794    5.3937   -0.1618 H   0  0  0  0  0  0  0  0  0  0  0  0
   -4.3241   -1.2652   -1.2411 N   0  0  0  0  0  0  0  0  0  0  0  0
    0.2964    3.4705   -0.3991 C   0  0  0  0  0  0  0  0  0  0  0  0
   -0.6833    3.8758   -0.6865 H   0  0  0  0  0  0  0  0  0  0  0  0
    0.4819    2.0808   -0.3158 C   0  0  0  0  0  0  0  0  0  0  0  0
   -0.5433    1.1000   -0.6098 C   0  0  2  0  0  3  0  0  0  0  0  0
   -2.3879    0.1067   -1.0322 C   0  0  0  0  0  0  0  0  0  0  0  0
   -3.8306   -0.0112   -1.2511 C   0  0  0  0  0  0  0  0  0  0  0  0
   -4.6278    1.1399   -1.4316 C   0  0  0  0  0  0  0  0  0  0  0  0
   -4.1737    2.1405   -1.4245 H   0  0  0  0  0  0  0  0  0  0  0  0
   -6.0045    0.9640   -1.6163 C   0  0  0  0  0  0  0  0  0  0  0  0
   -6.6615    1.8346   -1.7612 H   0  0  0  0  0  0  0  0  0  0  0  0
   -6.5264   -0.3368   -1.6128 C   0  0  0  0  0  0  0  0  0  0  0  0
   -7.6017   -0.5208   -1.7537 H   0  0  0  0  0  0  0  0  0  0  0  0
   -5.6399   -1.4136   -1.4199 C   0  0  0  0  0  0  0  0  0  0  0  0
   -6.0187   -2.4508   -1.4065 H   0  0  0  0  0  0  0  0  0  0  0  0
  1 15  1  0  0  0  0
  2  3  1  0  0  0  0
  3  4  1  0  0  0  0
  5 15  1  0  0  0  0
  6  3  1  0  0  0  0
  6  7  1  0  0  0  0
  8  5  1  0  0  0  0
  9  6  2  0  0  0  0
 10  9  1  0  0  0  0
 12 14  2  0  0  0  0
 12  9  1  0  0  0  0
 13 12  1  0  0  0  0
 14  2  1  0  0  0  0
 15 14  1  1  0  0  0
 16  8  2  0  0  0  0
 16  1  1  0  0  0  0
 17 11  1  0  0  0  0
 17 16  1  0  0  0  0
 18 19  1  0  0  0  0
 18 17  2  0  0  0  0
 20 22  2  0  0  0  0
 20 18  1  0  0  0  0
 21 20  1  0  0  0  0
 22 24  1  0  0  0  0
 23 22  1  0  0  0  0
 24 25  1  0  0  0  0
 24 11  2  0  0  0  0
M  END
