1,2
 OpenBabel05122313053D

 36 39  0  0  1  0  0  0  0  0999 V2000
   -2.2608   -1.0414   -0.4136 N   0  0  0  0  0  2  0  0  0  0  0  0
    0.5857   -0.4399    0.0249 N   0  0  0  0  0  2  0  0  0  0  0  0
    2.7177   -1.0174   -0.1607 N   0  0  0  0  0  0  0  0  0  0  0  0
    0.9366    2.2154   -0.1466 N   0  0  0  0  0  0  0  0  0  0  0  0
   -3.3102   -0.7987   -1.2184 C   0  0  0  0  0  3  0  0  0  0  0  0
   -3.6139    0.2627   -1.2846 H   0  0  0  0  0  0  0  0  0  0  0  0
   -3.9626   -1.8149   -1.9306 C   0  0  0  0  0  0  0  0  0  0  0  0
   -4.8219   -1.5749   -2.5732 H   0  0  0  0  0  0  0  0  0  0  0  0
   -3.4891   -3.1273   -1.7995 C   0  0  0  0  0  0  0  0  0  0  0  0
   -3.9705   -3.9555   -2.3420 H   0  0  0  0  0  0  0  0  0  0  0  0
   -2.3876   -3.3733   -0.9680 C   0  0  0  0  0  0  0  0  0  0  0  0
   -1.9892   -4.3917   -0.8468 H   0  0  0  0  0  0  0  0  0  0  0  0
   -1.7909   -2.3012   -0.2786 C   0  0  0  0  0  0  0  0  0  0  0  0
   -0.6102   -2.5162    0.6507 C   0  0  0  0  0  0  0  0  0  0  0  0
   -0.8969   -2.1188    1.6567 H   0  0  0  0  0  0  0  0  0  0  0  0
   -0.3964   -3.5966    0.7482 H   0  0  0  0  0  0  0  0  0  0  0  0
    0.6282   -1.7682    0.2501 C   0  0  0  0  0  0  0  0  0  0  0  0
    1.9681   -2.1949    0.1333 C   0  0  0  0  0  0  0  0  0  0  0  0
    2.6471   -3.4308    0.2551 C   0  0  0  0  0  0  0  0  0  0  0  0
    2.0572   -4.3322    0.4730 H   0  0  0  0  0  0  0  0  0  0  0  0
    4.0222   -3.4811    0.1122 C   0  0  0  0  0  0  0  0  0  0  0  0
    4.5598   -4.4349    0.2050 H   0  0  0  0  0  0  0  0  0  0  0  0
    4.7474   -2.2750   -0.1380 C   0  0  0  0  0  0  0  0  0  0  0  0
    5.8428   -2.2883   -0.2218 H   0  0  0  0  0  0  0  0  0  0  0  0
    4.0970   -1.0705   -0.2651 C   0  0  0  0  0  0  0  0  0  0  0  0
    4.6188   -0.1207   -0.4208 H   0  0  0  0  0  0  0  0  0  0  0  0
    1.8154    0.0315   -0.2221 C   0  0  2  0  0  3  0  0  0  0  0  0
    2.0168    1.4609   -0.4755 C   0  0  0  0  0  0  0  0  0  0  0  0
    3.1616    2.0491   -1.0591 C   0  0  0  0  0  0  0  0  0  0  0  0
    4.0140    1.4415   -1.3887 H   0  0  0  0  0  0  0  0  0  0  0  0
    3.1743    3.4344   -1.2711 C   0  0  0  0  0  0  0  0  0  0  0  0
    4.0570    3.9099   -1.7248 H   0  0  0  0  0  0  0  0  0  0  0  0
    2.0505    4.1978   -0.9277 C   0  0  0  0  0  0  0  0  0  0  0  0
    2.0211    5.2842   -1.0923 H   0  0  0  0  0  0  0  0  0  0  0  0
    0.9405    3.5302   -0.3820 C   0  0  0  0  0  0  0  0  0  0  0  0
   -0.0012    4.0542   -0.1430 H   0  0  0  0  0  0  0  0  0  0  0  0
  1 13  1  0  0  0  0
  2 17  1  0  0  0  0
  3 18  1  0  0  0  0
  5  1  1  0  0  0  0
  6  5  1  0  0  0  0
  7  9  2  0  0  0  0
  7  5  1  0  0  0  0
  8  7  1  0  0  0  0
  9 11  1  0  0  0  0
 10  9  1  0  0  0  0
 11 12  1  0  0  0  0
 11 13  2  0  0  0  0
 13 14  1  0  0  0  0
 14 16  1  0  0  0  0
 14 15  1  0  0  0  0
 17 14  1  0  0  0  0
 18 17  2  0  0  0  0
 18 19  1  0  0  0  0
 19 20  1  0  0  0  0
 21 22  1  0  0  0  0
 21 19  2  0  0  0  0
 23 21  1  0  0  0  0
 24 23  1  0  0  0  0
 25  3  1  0  0  0  0
 25 23  2  0  0  0  0
 26 25  1  0  0  0  0
 27 28  1  1  0  0  0
 27  3  1  0  0  0  0
 27  2  1  0  0  0  0
 28  4  2  0  0  0  0
 29 28  1  0  0  0  0
 30 29  1  0  0  0  0
 31 29  2  0  0  0  0
 31 33  1  0  0  0  0
 32 31  1  0  0  0  0
 33 35  2  0  0  0  0
 34 33  1  0  0  0  0
 35  4  1  0  0  0  0
 35 36  1  0  0  0  0
M  END
