3,4
 OpenBabel05122313053D

 48 49  0  0  1  0  0  0  0  0999 V2000
    2.7901    2.7206   -1.0901 F   0  0  0  0  0  0  0  0  0  0  0  0
   -3.6687    1.8283    1.0910 F   0  0  0  0  0  0  0  0  0  0  0  0
   -1.6382   -0.0021   -0.0008 N   0  0  0  0  0  2  0  0  0  0  0  0
    1.3293    0.4244   -0.0007 N   0  0  0  0  0  2  0  0  0  0  0  0
    2.7890    2.7206    1.0913 F   0  0  0  0  0  0  0  0  0  0  0  0
   -2.7311    3.4561   -0.0007 F   0  0  0  0  0  0  0  0  0  0  0  0
    1.4511    4.0435   -0.0001 F   0  0  0  0  0  0  0  0  0  0  0  0
   -2.8315   -0.7819    0.0001 C   0  0  0  0  0  0  0  0  0  0  0  0
   -3.6694    1.8277   -1.0909 F   0  0  0  0  0  0  0  0  0  0  0  0
    2.6652   -0.0335    0.0001 C   0  0  0  0  0  0  0  0  0  0  0  0
   -0.4211    2.1205   -0.0006 C   0  0  0  0  0  0  0  0  0  0  0  0
   -0.5750    3.2019   -0.0005 H   0  0  0  0  0  0  0  0  0  0  0  0
    1.9879    2.8042    0.0002 C   0  0  0  0  0  0  0  0  0  0  0  0
   -5.0754   -2.4645    0.0019 C   0  0  0  0  0  0  0  0  0  0  0  0
   -5.9613   -3.1172    0.0026 H   0  0  0  0  0  0  0  0  0  0  0  0
    0.9248    1.6898   -0.0004 C   0  0  2  0  0  3  0  0  0  0  0  0
   -1.5933    1.3307   -0.0006 C   0  0  0  0  0  0  0  0  0  0  0  0
   -2.7110   -0.8233    2.5307 C   0  0  0  0  0  0  0  0  0  0  0  0
   -2.7797    0.2689    2.7080 H   0  0  0  0  0  0  0  0  0  0  0  0
   -1.6260   -1.0668    2.5052 H   0  0  0  0  0  0  0  0  0  0  0  0
   -3.1686   -1.3447    3.3927 H   0  0  0  0  0  0  0  0  0  0  0  0
   -3.3718   -1.2188    1.2377 C   0  0  0  0  0  0  0  0  0  0  0  0
    3.2886   -0.3581   -1.2361 C   0  0  0  0  0  0  0  0  0  0  0  0
   -2.9199    2.1175   -0.0003 C   0  0  0  0  0  0  0  0  0  0  0  0
    4.5717   -0.9335   -1.2117 C   0  0  0  0  0  0  0  0  0  0  0  0
    5.0651   -1.1690   -2.1681 H   0  0  0  0  0  0  0  0  0  0  0  0
   -4.5032   -2.0560   -1.2107 C   0  0  0  0  0  0  0  0  0  0  0  0
   -4.9333   -2.3958   -2.1662 H   0  0  0  0  0  0  0  0  0  0  0  0
   -4.5019   -2.0552    1.2136 C   0  0  0  0  0  0  0  0  0  0  0  0
   -4.9309   -2.3943    2.1697 H   0  0  0  0  0  0  0  0  0  0  0  0
   -3.3732   -1.2197   -1.2366 C   0  0  0  0  0  0  0  0  0  0  0  0
   -2.7138   -0.8248   -2.5306 C   0  0  0  0  0  0  0  0  0  0  0  0
   -3.1720   -1.3471   -3.3918 H   0  0  0  0  0  0  0  0  0  0  0  0
   -1.6287   -1.0676   -2.5060 H   0  0  0  0  0  0  0  0  0  0  0  0
   -2.7834    0.2673   -2.7086 H   0  0  0  0  0  0  0  0  0  0  0  0
    3.2871   -0.3583    1.2370 C   0  0  0  0  0  0  0  0  0  0  0  0
    2.5543   -0.1169   -2.5266 C   0  0  0  0  0  0  0  0  0  0  0  0
    2.3946    0.9656   -2.7049 H   0  0  0  0  0  0  0  0  0  0  0  0
    1.5429   -0.5765   -2.4874 H   0  0  0  0  0  0  0  0  0  0  0  0
    3.1034   -0.5359   -3.3911 H   0  0  0  0  0  0  0  0  0  0  0  0
    4.5702   -0.9337    1.2141 C   0  0  0  0  0  0  0  0  0  0  0  0
    5.0624   -1.1694    2.1711 H   0  0  0  0  0  0  0  0  0  0  0  0
    5.2211   -1.2113    0.0016 C   0  0  0  0  0  0  0  0  0  0  0  0
    6.2320   -1.6467    0.0022 H   0  0  0  0  0  0  0  0  0  0  0  0
    2.5513   -0.1172    2.5267 C   0  0  0  0  0  0  0  0  0  0  0  0
    1.5397   -0.5764    2.4860 H   0  0  0  0  0  0  0  0  0  0  0  0
    2.3918    0.9652    2.7052 H   0  0  0  0  0  0  0  0  0  0  0  0
    3.0991   -0.5368    3.3917 H   0  0  0  0  0  0  0  0  0  0  0  0
  1 13  1  0  0  0  0
  3 17  1  0  0  0  0
  3  8  1  0  0  0  0
  4 10  1  0  0  0  0
  6 24  1  0  0  0  0
  7 13  1  0  0  0  0
  8 22  1  0  0  0  0
  9 24  1  0  0  0  0
 10 36  1  0  0  0  0
 11 17  2  0  0  0  0
 11 12  1  0  0  0  0
 11 16  1  0  0  0  0
 13  5  1  0  0  0  0
 14 15  1  0  0  0  0
 14 29  1  0  0  0  0
 16  4  1  6  0  0  0
 16 13  1  0  0  0  0
 17 24  1  0  0  0  0
 18 19  1  0  0  0  0
 18 21  1  0  0  0  0
 20 18  1  0  0  0  0
 22 18  1  0  0  0  0
 23 25  1  0  0  0  0
 23 10  2  0  0  0  0
 24  2  1  0  0  0  0
 25 43  2  0  0  0  0
 26 25  1  0  0  0  0
 27 14  2  0  0  0  0
 28 27  1  0  0  0  0
 29 22  2  0  0  0  0
 29 30  1  0  0  0  0
 31 27  1  0  0  0  0
 31  8  2  0  0  0  0
 32 34  1  0  0  0  0
 32 31  1  0  0  0  0
 33 32  1  0  0  0  0
 35 32  1  0  0  0  0
 36 45  1  0  0  0  0
 37 39  1  0  0  0  0
 37 23  1  0  0  0  0
 38 37  1  0  0  0  0
 40 37  1  0  0  0  0
 41 36  2  0  0  0  0
 41 42  1  0  0  0  0
 43 44  1  0  0  0  0
 43 41  1  0  0  0  0
 45 47  1  0  0  0  0
 45 48  1  0  0  0  0
 46 45  1  0  0  0  0
M  END
