2,3
 OpenBabel05122313053D

 20 19  0  0  1  0  0  0  0  0999 V2000
    0.5016   -1.2955    2.2107 O   0  0  0  0  0  0  0  0  0  0  0  0
    1.0136   -0.8253    1.0304 N   0  0  0  0  0  2  0  0  0  0  0  0
    1.6331    0.4719   -1.0754 N   0  0  0  0  0  0  0  0  0  0  0  0
    2.2074   -1.1641    0.6417 C   0  0  1  0  0  3  0  0  0  0  0  0
    2.6689   -0.5383   -0.6724 C   0  0  0  0  0  0  0  0  0  0  0  0
    3.0835   -2.0868    1.4298 C   0  0  0  0  0  0  0  0  0  0  0  0
    2.7718   -1.6268   -1.7552 C   0  0  0  0  0  0  0  0  0  0  0  0
    4.0167    0.1798   -0.4692 C   0  0  0  0  0  0  0  0  0  0  0  0
    1.2287   -1.7148    2.7260 H   0  0  0  0  0  0  0  0  0  0  0  0
    1.9779    1.4368   -0.8877 H   0  0  0  0  0  0  0  0  0  0  0  0
    1.3761    0.4125   -2.0722 H   0  0  0  0  0  0  0  0  0  0  0  0
    3.5021   -2.4075   -1.4691 H   0  0  0  0  0  0  0  0  0  0  0  0
    3.1262   -1.1752   -2.7035 H   0  0  0  0  0  0  0  0  0  0  0  0
    1.7883   -2.1014   -1.9321 H   0  0  0  0  0  0  0  0  0  0  0  0
    4.3352    0.6433   -1.4239 H   0  0  0  0  0  0  0  0  0  0  0  0
    4.8116   -0.5257   -0.1608 H   0  0  0  0  0  0  0  0  0  0  0  0
    3.9282    0.9772    0.2950 H   0  0  0  0  0  0  0  0  0  0  0  0
    3.5697   -1.5534    2.2765 H   0  0  0  0  0  0  0  0  0  0  0  0
    2.5104   -2.9453    1.8397 H   0  0  0  0  0  0  0  0  0  0  0  0
    3.8941   -2.5023    0.8047 H   0  0  0  0  0  0  0  0  0  0  0  0
  1  9  1  0  0  0  0
  2  1  1  0  0  0  0
  3 10  1  0  0  0  0
  3  5  1  0  0  0  0
  4  2  1  1  0  0  0
  4  6  1  0  0  0  0
  5  8  1  0  0  0  0
  5  4  1  0  0  0  0
  6 19  1  0  0  0  0
  6 18  1  0  0  0  0
  7 12  1  0  0  0  0
  7  5  1  0  0  0  0
  8 16  1  0  0  0  0
  8 17  1  0  0  0  0
 11  3  1  0  0  0  0
 13  7  1  0  0  0  0
 14  7  1  0  0  0  0
 15  8  1  0  0  0  0
 20  6  1  0  0  0  0
M  END
