2,3
 OpenBabel05122313053D

 19 18  0  0  1  0  0  0  0  0999 V2000
    1.1848    1.5359   -1.9024 O   0  0  0  0  0  1  0  0  0  0  0  0
    1.4139    0.7548   -0.8843 N   0  0  0  0  0  2  0  0  0  0  0  0
    1.4679   -0.7111    1.2283 N   0  0  0  0  0  0  0  0  0  0  0  0
    2.6453    0.5247   -0.5044 C   0  0  1  0  0  3  0  0  0  0  0  0
    2.8318   -0.4363    0.6597 C   0  0  0  0  0  0  0  0  0  0  0  0
    3.7805    1.1280   -1.2663 C   0  0  0  0  0  0  0  0  0  0  0  0
    3.4344   -1.7590    0.1490 C   0  0  0  0  0  0  0  0  0  0  0  0
    3.7102    0.1841    1.7612 C   0  0  0  0  0  0  0  0  0  0  0  0
    1.3647   -1.7117    1.4500 H   0  0  0  0  0  0  0  0  0  0  0  0
    1.2794   -0.1354    2.0819 H   0  0  0  0  0  0  0  0  0  0  0  0
    3.7683    2.2352   -1.1776 H   0  0  0  0  0  0  0  0  0  0  0  0
    3.6622    0.9079   -2.3479 H   0  0  0  0  0  0  0  0  0  0  0  0
    4.7618    0.7548   -0.9204 H   0  0  0  0  0  0  0  0  0  0  0  0
    2.7855   -2.2207   -0.6206 H   0  0  0  0  0  0  0  0  0  0  0  0
    3.5752   -2.4736    0.9870 H   0  0  0  0  0  0  0  0  0  0  0  0
    4.4269   -1.5790   -0.3069 H   0  0  0  0  0  0  0  0  0  0  0  0
    4.7145    0.4431    1.3742 H   0  0  0  0  0  0  0  0  0  0  0  0
    3.8438   -0.5316    2.5980 H   0  0  0  0  0  0  0  0  0  0  0  0
    3.2399    1.1073    2.1551 H   0  0  0  0  0  0  0  0  0  0  0  0
  1  2  1  0  0  0  0
  3  9  1  0  0  0  0
  3 10  1  0  0  0  0
  4  2  1  6  0  0  0
  4  5  1  0  0  0  0
  5  3  1  0  0  0  0
  5  8  1  0  0  0  0
  6 11  1  0  0  0  0
  6 13  1  0  0  0  0
  6  4  1  0  0  0  0
  7  5  1  0  0  0  0
  7 15  1  0  0  0  0
  8 19  1  0  0  0  0
  8 18  1  0  0  0  0
 12  6  1  0  0  0  0
 14  7  1  0  0  0  0
 16  7  1  0  0  0  0
 17  8  1  0  0  0  0
M  END
