1,2
 OpenBabel05122313053D

 49 50  0  0  0  0  0  0  0  0999 V2000
    1.5147   -0.2967    1.5695 N   0  0  0  0  0  2  0  0  0  0  0  0
   -1.0764   -0.4961    0.8157 N   0  0  0  0  0  2  0  0  0  0  0  0
    3.4645    0.6511    1.0335 O   0  0  0  0  0  0  0  0  0  0  0  0
   -3.1742    0.7247    0.6481 C   0  0  0  0  0  0  0  0  0  0  0  0
   -2.4241   -0.4491    0.3567 C   0  0  0  0  0  0  0  0  0  0  0  0
   -0.7238   -1.1705    1.8630 C   0  0  0  0  0  0  0  0  0  0  0  0
    0.7168   -1.1252    2.2693 C   0  0  0  0  0  0  0  0  0  0  0  0
   -2.1369   -2.7233   -0.8376 C   0  0  0  0  0  0  0  0  0  0  0  0
   -1.1138   -2.6111   -0.4235 H   0  0  0  0  0  0  0  0  0  0  0  0
   -2.9572   -1.5044   -0.4297 C   0  0  0  0  0  0  0  0  0  0  0  0
   -4.4962    0.7939    0.1772 C   0  0  0  0  0  0  0  0  0  0  0  0
   -5.0968    1.6881    0.3979 H   0  0  0  0  0  0  0  0  0  0  0  0
   -2.5656    1.8422    1.4863 C   0  0  0  0  0  0  0  0  0  0  0  0
   -1.4695    1.8183    1.3037 H   0  0  0  0  0  0  0  0  0  0  0  0
    1.2298   -1.9129    3.3160 C   0  0  0  0  0  0  0  0  0  0  0  0
    0.5844   -2.5940    3.8836 H   0  0  0  0  0  0  0  0  0  0  0  0
   -5.0560   -0.2489   -0.5727 C   0  0  0  0  0  0  0  0  0  0  0  0
   -6.0928   -0.1740   -0.9337 H   0  0  0  0  0  0  0  0  0  0  0  0
   -2.7342   -4.0289   -0.2837 C   0  0  0  0  0  0  0  0  0  0  0  0
   -2.8506   -3.9996    0.8182 H   0  0  0  0  0  0  0  0  0  0  0  0
   -2.0853   -4.8916   -0.5383 H   0  0  0  0  0  0  0  0  0  0  0  0
   -3.7369   -4.2286   -0.7155 H   0  0  0  0  0  0  0  0  0  0  0  0
    2.8217   -0.2059    1.8391 C   0  0  0  0  0  0  0  0  0  0  0  0
   -4.2869   -1.3765   -0.8767 C   0  0  0  0  0  0  0  0  0  0  0  0
   -4.7218   -2.1824   -1.4877 H   0  0  0  0  0  0  0  0  0  0  0  0
    3.4225   -0.9626    2.8742 C   0  0  0  0  0  0  0  0  0  0  0  0
    4.4950   -0.8848    3.0926 H   0  0  0  0  0  0  0  0  0  0  0  0
   -1.6686   -2.0001    2.6883 C   0  0  0  0  0  0  0  0  0  0  0  0
   -2.7131   -1.8384    2.3678 H   0  0  0  0  0  0  0  0  0  0  0  0
   -1.5744   -1.7595    3.7655 H   0  0  0  0  0  0  0  0  0  0  0  0
   -1.4315   -3.0778    2.5687 H   0  0  0  0  0  0  0  0  0  0  0  0
   -2.7955    1.5944    2.9890 C   0  0  0  0  0  0  0  0  0  0  0  0
   -3.8801    1.5949    3.2256 H   0  0  0  0  0  0  0  0  0  0  0  0
   -2.3125    2.3876    3.5956 H   0  0  0  0  0  0  0  0  0  0  0  0
   -2.3856    0.6198    3.3200 H   0  0  0  0  0  0  0  0  0  0  0  0
    2.6001   -1.8202    3.6088 C   0  0  0  0  0  0  0  0  0  0  0  0
    3.0320   -2.4280    4.4178 H   0  0  0  0  0  0  0  0  0  0  0  0
   -1.9820   -2.7943   -2.3666 C   0  0  0  0  0  0  0  0  0  0  0  0
   -2.9621   -2.9406   -2.8664 H   0  0  0  0  0  0  0  0  0  0  0  0
   -1.3214   -3.6385   -2.6487 H   0  0  0  0  0  0  0  0  0  0  0  0
   -1.5215   -1.8697   -2.7650 H   0  0  0  0  0  0  0  0  0  0  0  0
   -3.0521    3.2386    1.0822 C   0  0  0  0  0  0  0  0  0  0  0  0
   -2.9096    3.4121   -0.0020 H   0  0  0  0  0  0  0  0  0  0  0  0
   -2.4708    4.0118    1.6230 H   0  0  0  0  0  0  0  0  0  0  0  0
   -4.1224    3.3966    1.3309 H   0  0  0  0  0  0  0  0  0  0  0  0
    4.8805    0.7691    1.1172 C   0  0  0  0  0  0  0  0  0  0  0  0
    5.1970    1.1584    2.1086 H   0  0  0  0  0  0  0  0  0  0  0  0
    5.1694    1.4911    0.3334 H   0  0  0  0  0  0  0  0  0  0  0  0
    5.3755   -0.2052    0.9191 H   0  0  0  0  0  0  0  0  0  0  0  0
  1 23  1  0  0  0  0
  1  7  1  0  0  0  0
  2  6  1  0  0  0  0
  3 46  1  0  0  0  0
  3 23  1  0  0  0  0
  4 13  1  0  0  0  0
  5  4  1  0  0  0  0
  5  2  1  0  0  0  0
  6  7  2  0  0  0  0
  6 28  1  0  0  0  0
  7 15  1  0  0  0  0
  8 10  1  0  0  0  0
  8  9  1  0  0  0  0
  8 19  1  0  0  0  0
 10  5  2  0  0  0  0
 11 12  1  0  0  0  0
 11  4  2  0  0  0  0
 13 32  1  0  0  0  0
 14 13  1  0  0  0  0
 15 36  2  0  0  0  0
 15 16  1  0  0  0  0
 17 11  1  0  0  0  0
 18 17  1  0  0  0  0
 19 20  1  0  0  0  0
 21 19  1  0  0  0  0
 22 19  1  0  0  0  0
 23 26  2  0  0  0  0
 24 17  2  0  0  0  0
 24 10  1  0  0  0  0
 25 24  1  0  0  0  0
 26 27  1  0  0  0  0
 26 36  1  0  0  0  0
 28 30  1  0  0  0  0
 29 28  1  0  0  0  0
 31 28  1  0  0  0  0
 32 33  1  0  0  0  0
 32 35  1  0  0  0  0
 32 34  1  0  0  0  0
 36 37  1  0  0  0  0
 38  8  1  0  0  0  0
 39 38  1  0  0  0  0
 40 38  1  0  0  0  0
 41 38  1  0  0  0  0
 42 45  1  0  0  0  0
 42 13  1  0  0  0  0
 42 44  1  0  0  0  0
 43 42  1  0  0  0  0
 46 47  1  0  0  0  0
 48 46  1  0  0  0  0
 49 46  1  0  0  0  0
M  END
