1,2
 OpenBabel05122313053D

 24 25  0  0  1  0  0  0  0  0999 V2000
    1.5422   -0.5925    0.0008 N   0  0  0  0  0  2  0  0  0  0  0  0
    0.0792    1.6512    0.0047 N   0  0  0  0  0  2  0  0  0  0  0  0
    2.2079   -1.7535   -0.0013 C   0  0  0  0  0  3  0  0  0  0  0  0
    1.5903   -2.6662   -0.0032 H   0  0  0  0  0  0  0  0  0  0  0  0
    3.6091   -1.8080   -0.0009 C   0  0  0  0  0  0  0  0  0  0  0  0
    4.1245   -2.7786   -0.0027 H   0  0  0  0  0  0  0  0  0  0  0  0
    4.3194   -0.6000    0.0019 C   0  0  0  0  0  0  0  0  0  0  0  0
    5.4196   -0.5979    0.0025 H   0  0  0  0  0  0  0  0  0  0  0  0
    3.6154    0.6119    0.0041 C   0  0  0  0  0  0  0  0  0  0  0  0
    4.1591    1.5655    0.0063 H   0  0  0  0  0  0  0  0  0  0  0  0
    2.2063    0.5870    0.0033 C   0  0  0  0  0  0  0  0  0  0  0  0
    1.3685    1.8219    0.0054 C   0  0  2  0  0  3  0  0  0  0  0  0
    2.0802    3.1477    0.0083 C   0  0  0  0  0  0  0  0  0  0  0  0
    2.7336    3.2411   -0.8832 H   0  0  0  0  0  0  0  0  0  0  0  0
    2.7312    3.2385    0.9020 H   0  0  0  0  0  0  0  0  0  0  0  0
    1.3845    4.0032    0.0086 H   0  0  0  0  0  0  0  0  0  0  0  0
   -0.8703    2.6949    0.0069 C   0  0  0  0  0  0  0  0  0  0  0  0
   -0.4893    3.7295    0.0105 H   0  0  0  0  0  0  0  0  0  0  0  0
   -2.1813    2.4471   -0.7407 C   0  0  0  0  0  0  0  0  0  0  0  0
   -2.2579    1.4847   -1.2762 H   0  0  0  0  0  0  0  0  0  0  0  0
   -2.5919    3.3161   -1.2779 H   0  0  0  0  0  0  0  0  0  0  0  0
   -2.1826    2.4426    0.7508 C   0  0  0  0  0  0  0  0  0  0  0  0
   -2.5942    3.3083    1.2925 H   0  0  0  0  0  0  0  0  0  0  0  0
   -2.2601    1.4770    1.2803 H   0  0  0  0  0  0  0  0  0  0  0  0
  1 11  1  0  0  0  0
  2 17  1  0  0  0  0
  3  5  1  0  0  0  0
  3  1  1  0  0  0  0
  4  3  1  0  0  0  0
  5  7  2  0  0  0  0
  6  5  1  0  0  0  0
  7  8  1  0  0  0  0
  7  9  1  0  0  0  0
  9 10  1  0  0  0  0
 11  9  2  0  0  0  0
 11 12  1  0  0  0  0
 12  2  1  1  0  0  0
 12 13  1  0  0  0  0
 13 16  1  0  0  0  0
 13 15  1  0  0  0  0
 14 13  1  0  0  0  0
 17 18  1  0  0  0  0
 17 22  1  0  0  0  0
 19 17  1  0  0  0  0
 19 22  1  0  0  0  0
 20 19  1  0  0  0  0
 21 19  1  0  0  0  0
 22 24  1  0  0  0  0
 22 23  1  0  0  0  0
M  END
