6,12
 OpenBabel05122313053D

 54 57  0  0  1  0  0  0  0  0999 V2000
   -0.8902   -2.3977   -0.2196 O   0  0  0  0  0  0  0  0  0  0  0  0
    0.2269   -0.2634   -0.5605 N   0  0  0  0  0  0  0  0  0  0  0  0
   -1.9036    0.5852   -0.9007 N   0  0  0  0  0  0  0  0  0  0  0  0
   -0.8619    3.2755   -0.5832 C   0  0  0  0  0  0  0  0  0  0  0  0
   -1.9512    3.1720   -0.6843 H   0  0  0  0  0  0  0  0  0  0  0  0
    2.6052   -1.4955   -0.1168 N   0  0  0  0  0  2  0  0  0  0  0  0
   -0.0312   -0.3113   -2.0103 C   0  0  0  0  0  0  0  0  0  0  0  0
    0.3040   -1.2742   -2.4366 H   0  0  0  0  0  0  0  0  0  0  0  0
    0.5334    0.5067   -2.5028 H   0  0  0  0  0  0  0  0  0  0  0  0
   -0.6988    0.7581   -0.0884 C   0  0  2  0  0  0  0  0  0  0  0  0
   -0.8746    0.6178    1.0000 H   0  0  0  0  0  0  0  0  0  0  0  0
    1.2592    2.2307   -0.1805 N   0  0  0  0  0  2  0  0  0  0  0  0
   -0.0792    2.1475   -0.2940 C   0  0  2  0  0  3  0  0  0  0  0  0
   -4.3012    0.2470   -1.1889 C   0  0  0  0  0  0  0  0  0  0  0  0
   -4.1403   -0.1363   -2.2055 H   0  0  0  0  0  0  0  0  0  0  0  0
    1.1728    4.5848   -0.6310 C   0  0  0  0  0  0  0  0  0  0  0  0
    1.7105    5.5349   -0.7604 H   0  0  0  0  0  0  0  0  0  0  0  0
    3.9863   -3.3647   -0.7037 C   0  0  0  0  0  0  0  0  0  0  0  0
    4.9932   -3.7619   -0.8960 H   0  0  0  0  0  0  0  0  0  0  0  0
   -3.1940    0.6774   -0.4088 C   0  0  0  0  0  0  0  0  0  0  0  0
   -4.7623    1.2510    1.3850 C   0  0  0  0  0  0  0  0  0  0  0  0
   -4.9305    1.6549    2.3951 H   0  0  0  0  0  0  0  0  0  0  0  0
    3.8211   -2.0180   -0.3518 C   0  0  0  0  0  3  0  0  0  0  0  0
    4.6567   -1.3016   -0.2572 H   0  0  0  0  0  0  0  0  0  0  0  0
    0.1976   -1.5635    0.1154 C   0  0  2  0  0  0  0  0  0  0  0  0
    0.2239   -1.3266    1.2088 H   0  0  0  0  0  0  0  0  0  0  0  0
   -3.4544    1.2010    0.8879 C   0  0  0  0  0  0  0  0  0  0  0  0
   -2.6305    1.5767    1.5112 H   0  0  0  0  0  0  0  0  0  0  0  0
    1.8831    3.4118   -0.3492 C   0  0  0  0  0  0  0  0  0  0  0  0
    2.9828    3.3701   -0.2514 H   0  0  0  0  0  0  0  0  0  0  0  0
   -5.8491    0.8018    0.6172 C   0  0  0  0  0  0  0  0  0  0  0  0
   -6.8732    0.8466    1.0146 H   0  0  0  0  0  0  0  0  0  0  0  0
   -1.5574   -0.0980   -2.1449 C   0  0  0  0  0  0  0  0  0  0  0  0
   -1.8177    0.5051   -3.0425 H   0  0  0  0  0  0  0  0  0  0  0  0
   -2.0872   -1.0727   -2.2124 H   0  0  0  0  0  0  0  0  0  0  0  0
    1.5045   -2.2701   -0.2101 C   0  0  0  0  0  0  0  0  0  0  0  0
    1.5835   -3.6261   -0.5512 C   0  0  0  0  0  0  0  0  0  0  0  0
    0.6566   -4.2107   -0.6156 H   0  0  0  0  0  0  0  0  0  0  0  0
   -0.2238    4.5136   -0.7447 C   0  0  0  0  0  0  0  0  0  0  0  0
   -0.8144    5.4155   -0.9659 H   0  0  0  0  0  0  0  0  0  0  0  0
   -5.6019    0.3081   -0.6737 C   0  0  0  0  0  0  0  0  0  0  0  0
   -6.4386   -0.0384   -1.3000 H   0  0  0  0  0  0  0  0  0  0  0  0
    2.8485   -4.1785   -0.8043 C   0  0  0  0  0  0  0  0  0  0  0  0
    2.9439   -5.2397   -1.0810 H   0  0  0  0  0  0  0  0  0  0  0  0
   -4.3886   -3.0259    1.0526 C   0  0  0  0  0  0  0  0  0  0  0  0
   -5.2540   -3.5577    0.6107 H   0  0  0  0  0  0  0  0  0  0  0  0
   -4.6992   -1.9762    1.2338 H   0  0  0  0  0  0  0  0  0  0  0  0
   -4.1772   -3.4931    2.0371 H   0  0  0  0  0  0  0  0  0  0  0  0
   -1.9644   -2.3874    0.7291 C   0  0  0  0  0  0  0  0  0  0  0  0
   -1.6397   -2.8952    1.6683 H   0  0  0  0  0  0  0  0  0  0  0  0
   -2.2397   -1.3441    0.9998 H   0  0  0  0  0  0  0  0  0  0  0  0
   -3.1726   -3.0858    0.1279 C   0  0  0  0  0  0  0  0  0  0  0  0
   -2.9035   -4.1375   -0.1104 H   0  0  0  0  0  0  0  0  0  0  0  0
   -3.4130   -2.5933   -0.8384 H   0  0  0  0  0  0  0  0  0  0  0  0
  1 25  1  0  0  0  0
  1 49  1  0  0  0  0
  2 10  1  0  0  0  0
  2 25  1  0  0  0  0
  3 20  1  0  0  0  0
  3 10  1  0  0  0  0
  5  4  1  0  0  0  0
  7  2  1  0  0  0  0
  8  7  1  0  0  0  0
  9  7  1  0  0  0  0
 10 11  1  1  0  0  0
 13  4  1  1  0  0  0
 13 12  1  0  0  0  0
 13 10  1  0  0  0  0
 14 41  2  0  0  0  0
 14 20  1  0  0  0  0
 15 14  1  0  0  0  0
 16 29  2  0  0  0  0
 17 16  1  0  0  0  0
 18 23  1  0  0  0  0
 19 18  1  0  0  0  0
 20 27  2  0  0  0  0
 21 22  1  0  0  0  0
 23 24  1  0  0  0  0
 23  6  1  0  0  0  0
 25 26  1  1  0  0  0
 27 21  1  0  0  0  0
 27 28  1  0  0  0  0
 29 30  1  0  0  0  0
 29 12  1  0  0  0  0
 31 32  1  0  0  0  0
 31 21  2  0  0  0  0
 33  7  1  0  0  0  0
 33  3  1  0  0  0  0
 34 33  1  0  0  0  0
 35 33  1  0  0  0  0
 36  6  1  0  0  0  0
 36 25  1  0  0  0  0
 37 36  2  0  0  0  0
 38 37  1  0  0  0  0
 39 16  1  0  0  0  0
 39  4  2  0  0  0  0
 40 39  1  0  0  0  0
 41 31  1  0  0  0  0
 42 41  1  0  0  0  0
 43 18  2  0  0  0  0
 43 37  1  0  0  0  0
 44 43  1  0  0  0  0
 45 47  1  0  0  0  0
 45 48  1  0  0  0  0
 46 45  1  0  0  0  0
 49 51  1  0  0  0  0
 49 50  1  0  0  0  0
 52 49  1  0  0  0  0
 52 45  1  0  0  0  0
 53 52  1  0  0  0  0
 54 52  1  0  0  0  0
M  END
