2,3
 OpenBabel05122313053D

 32 35  0  0  0  0  0  0  0  0999 V2000
   -2.5152    3.4400    1.0498 Cl  0  0  0  0  0  0  0  0  0  0  0  0
    2.7478   -0.1841   -0.7286 N   0  0  0  0  0  2  0  0  0  0  0  0
    0.4272    1.0464   -0.7697 N   0  0  0  0  0  2  0  0  0  0  0  0
    2.7728    1.1032   -1.1939 C   0  0  0  0  0  0  0  0  0  0  0  0
    3.8984   -0.8907   -0.7166 C   0  0  0  0  0  0  0  0  0  0  0  0
    3.8300   -1.9162   -0.3265 H   0  0  0  0  0  0  0  0  0  0  0  0
   -4.0677    1.3842    0.5020 N   0  0  0  0  0  0  0  0  0  0  0  0
   -0.6550    1.8492   -0.8426 N   0  0  0  0  0  0  0  0  0  0  0  0
   -4.3579    0.1864   -0.0828 C   0  0  0  0  0  0  0  0  0  0  0  0
    1.4813    1.7751   -1.1943 C   0  0  0  0  0  0  0  0  0  0  0  0
   -0.3105    3.0944   -1.3131 C   0  0  0  0  0  0  0  0  0  0  0  0
   -1.0692    3.8707   -1.4461 H   0  0  0  0  0  0  0  0  0  0  0  0
   -1.9526    1.3056   -0.6175 C   0  0  0  0  0  0  0  0  0  0  0  0
    3.9611    1.7000   -1.6504 C   0  0  0  0  0  0  0  0  0  0  0  0
    3.9422    2.7369   -2.0129 H   0  0  0  0  0  0  0  0  0  0  0  0
   -2.2131    0.1677   -1.2193 N   0  0  0  0  0  0  0  0  0  0  0  0
    1.0541    3.0829   -1.5544 C   0  0  0  0  0  0  0  0  0  0  0  0
    1.6598    3.9101   -1.9351 H   0  0  0  0  0  0  0  0  0  0  0  0
    5.1137   -0.3598   -1.1571 C   0  0  0  0  0  0  0  0  0  0  0  0
    6.0200   -0.9798   -1.1207 H   0  0  0  0  0  0  0  0  0  0  0  0
   -2.9063    1.9279    0.2626 C   0  0  0  0  0  0  0  0  0  0  0  0
   -3.4023   -0.4398   -0.9650 C   0  0  0  0  0  0  0  0  0  0  0  0
   -5.5946   -0.4625    0.1767 C   0  0  0  0  0  0  0  0  0  0  0  0
   -6.3071    0.0290    0.8540 H   0  0  0  0  0  0  0  0  0  0  0  0
    5.1473    0.9620   -1.6302 C   0  0  0  0  0  0  0  0  0  0  0  0
    6.0890    1.4111   -1.9782 H   0  0  0  0  0  0  0  0  0  0  0  0
   -4.9122   -2.3095   -1.2783 C   0  0  0  0  0  0  0  0  0  0  0  0
   -5.1471   -3.2878   -1.7234 H   0  0  0  0  0  0  0  0  0  0  0  0
   -3.6972   -1.6994   -1.5551 C   0  0  0  0  0  0  0  0  0  0  0  0
   -2.9351   -2.1588   -2.2008 H   0  0  0  0  0  0  0  0  0  0  0  0
   -5.8600   -1.6898   -0.4160 C   0  0  0  0  0  0  0  0  0  0  0  0
   -6.8145   -2.1980   -0.2120 H   0  0  0  0  0  0  0  0  0  0  0  0
  2  5  1  0  0  0  0
  4  2  1  0  0  0  0
  5  6  1  0  0  0  0
  8  3  1  0  0  0  0
  8 13  1  0  0  0  0
  9 23  1  0  0  0  0
  9  7  2  0  0  0  0
 10  4  2  0  0  0  0
 10  3  1  0  0  0  0
 11  8  1  0  0  0  0
 12 11  1  0  0  0  0
 13 21  2  0  0  0  0
 14 25  2  0  0  0  0
 14  4  1  0  0  0  0
 15 14  1  0  0  0  0
 16 22  2  0  0  0  0
 16 13  1  0  0  0  0
 17 11  2  0  0  0  0
 17 10  1  0  0  0  0
 18 17  1  0  0  0  0
 19 20  1  0  0  0  0
 19  5  2  0  0  0  0
 21  7  1  0  0  0  0
 21  1  1  0  0  0  0
 22  9  1  0  0  0  0
 23 24  1  0  0  0  0
 25 19  1  0  0  0  0
 26 25  1  0  0  0  0
 27 31  1  0  0  0  0
 28 27  1  0  0  0  0
 29 27  2  0  0  0  0
 29 22  1  0  0  0  0
 30 29  1  0  0  0  0
 31 32  1  0  0  0  0
 31 23  2  0  0  0  0
M  END
