2,6
 OpenBabel05122313053D

 23 23  0  0  1  0  0  0  0  0999 V2000
    1.6658    3.4210    0.0005 S   0  0  0  0  0  0  0  0  0  0  0  0
    0.1876    1.2939   -0.0002 N   0  0  0  0  0  2  0  0  0  0  0  0
   -1.0608    3.3087   -0.0027 N   0  0  0  0  0  0  0  0  0  0  0  0
   -1.9424    2.7876    0.0002 H   0  0  0  0  0  0  0  0  0  0  0  0
   -1.0743    4.3247    0.0053 H   0  0  0  0  0  0  0  0  0  0  0  0
    0.5333   -1.2900   -0.0005 N   0  0  0  0  0  2  0  0  0  0  0  0
    0.0984    2.6210   -0.0003 C   0  0  2  0  0  3  0  0  0  0  0  0
    2.4544    1.8676    0.0010 C   0  0  0  0  0  0  0  0  0  0  0  0
    3.5427    1.7844    0.0020 H   0  0  0  0  0  0  0  0  0  0  0  0
    1.5158    0.8556    0.0002 C   0  0  0  0  0  0  0  0  0  0  0  0
    1.6899   -0.5898   -0.0000 C   0  0  2  0  0  3  0  0  0  0  0  0
    2.9751   -1.2877   -0.0000 C   0  0  0  0  0  0  0  0  0  0  0  0
    5.3447   -1.1579    0.0005 C   0  0  0  0  0  0  0  0  0  0  0  0
    5.4014   -1.8144    0.8934 H   0  0  0  0  0  0  0  0  0  0  0  0
    5.4000   -1.8168   -0.8908 H   0  0  0  0  0  0  0  0  0  0  0  0
    6.4142   -0.0875   -0.0018 C   0  0  0  0  0  0  0  0  0  0  0  0
    7.4158   -0.5605   -0.0021 H   0  0  0  0  0  0  0  0  0  0  0  0
    6.3388    0.5559    0.8972 H   0  0  0  0  0  0  0  0  0  0  0  0
    6.3372    0.5536   -0.9023 H   0  0  0  0  0  0  0  0  0  0  0  0
    3.0709   -2.5308   -0.0005 O   0  0  0  0  0  0  0  0  0  0  0  0
    4.0541   -0.4937    0.0007 O   0  0  0  0  0  0  0  0  0  0  0  0
    0.5821   -2.6278   -0.0010 O   0  0  0  0  0  0  0  0  0  0  0  0
    1.5830   -2.8748   -0.0009 H   0  0  0  0  0  0  0  0  0  0  0  0
  1  8  1  0  0  0  0
  2 10  1  0  0  0  0
  3  4  1  0  0  0  0
  3  5  1  0  0  0  0
  7  3  1  6  0  0  0
  7  2  1  0  0  0  0
  7  1  1  0  0  0  0
  8  9  1  0  0  0  0
 10  8  2  0  0  0  0
 11  6  1  6  0  0  0
 11 12  1  0  0  0  0
 11 10  1  0  0  0  0
 12 21  1  0  0  0  0
 13 21  1  0  0  0  0
 13 14  1  0  0  0  0
 15 13  1  0  0  0  0
 16 13  1  0  0  0  0
 16 18  1  0  0  0  0
 17 16  1  0  0  0  0
 19 16  1  0  0  0  0
 20 12  2  0  0  0  0
 22 23  1  0  0  0  0
 22  6  1  0  0  0  0
M  END
