1,15
 OpenBabel05122313053D

 41 44  0  0  1  0  0  0  0  0999 V2000
   -0.2946    0.2373   -0.5662 N   0  0  0  0  0  2  0  0  0  0  0  0
   -0.0573    1.3107   -1.3764 N   0  0  0  0  0  0  0  0  0  0  0  0
   -1.2020    2.0532   -1.5787 C   0  0  0  0  0  3  0  0  0  0  0  0
   -2.2049    1.4206   -0.8625 C   0  0  0  0  0  0  0  0  0  0  0  0
   -3.6659    1.3320   -0.5101 C   0  0  1  0  0  0  0  0  0  0  0  0
   -4.1956    0.0804   -1.2853 C   0  0  0  0  0  0  0  0  0  0  0  0
   -3.4933   -1.1183   -0.5792 C   0  0  0  0  0  0  0  0  0  0  0  0
   -2.6243   -0.4586    0.5491 C   0  0  2  0  0  0  0  0  0  0  0  0
   -1.5869    0.3077   -0.2369 C   0  0  0  0  0  0  0  0  0  0  0  0
   -2.1582   -1.3866    1.6545 C   0  0  0  0  0  0  0  0  0  0  0  0
   -3.5542    0.7743    0.9599 C   0  0  0  0  0  0  0  0  0  0  0  0
   -4.9007    0.3572    1.5638 C   0  0  0  0  0  0  0  0  0  0  0  0
   -2.8798    1.7475    1.9357 C   0  0  0  0  0  0  0  0  0  0  0  0
    1.3101    1.5854   -1.7830 C   0  0  0  0  0  0  0  0  0  0  0  0
    2.3916    0.6725    0.2130 N   0  0  0  0  0  2  0  0  0  0  0  0
    2.2386    1.7533   -0.5967 C   0  0  1  0  0  3  0  0  0  0  0  0
    2.9310    2.9461   -0.3493 C   0  0  0  0  0  0  0  0  0  0  0  0
    3.8038    3.0227    0.7460 C   0  0  0  0  0  0  0  0  0  0  0  0
    3.9630    1.8935    1.5596 C   0  0  0  0  0  0  0  0  0  0  0  0
    3.2427    0.7314    1.2622 C   0  0  0  0  0  0  0  0  0  0  0  0
   -1.1756    2.9483   -2.2094 H   0  0  0  0  0  0  0  0  0  0  0  0
   -4.2718    2.2494   -0.6340 H   0  0  0  0  0  0  0  0  0  0  0  0
   -3.9489    0.1469   -2.3622 H   0  0  0  0  0  0  0  0  0  0  0  0
   -5.2987    0.0157   -1.2060 H   0  0  0  0  0  0  0  0  0  0  0  0
   -4.2252   -1.8124   -0.1203 H   0  0  0  0  0  0  0  0  0  0  0  0
   -2.8465   -1.7196   -1.2455 H   0  0  0  0  0  0  0  0  0  0  0  0
   -1.5331   -0.8496    2.3963 H   0  0  0  0  0  0  0  0  0  0  0  0
   -1.5468   -2.2075    1.2304 H   0  0  0  0  0  0  0  0  0  0  0  0
   -3.0276   -1.8267    2.1831 H   0  0  0  0  0  0  0  0  0  0  0  0
   -5.4612   -0.3713    0.9501 H   0  0  0  0  0  0  0  0  0  0  0  0
   -5.5468    1.2485    1.7013 H   0  0  0  0  0  0  0  0  0  0  0  0
   -4.7507   -0.0960    2.5643 H   0  0  0  0  0  0  0  0  0  0  0  0
   -1.8884    2.0901    1.5812 H   0  0  0  0  0  0  0  0  0  0  0  0
   -2.7383    1.2684    2.9256 H   0  0  0  0  0  0  0  0  0  0  0  0
   -3.5144    2.6444    2.0900 H   0  0  0  0  0  0  0  0  0  0  0  0
    1.6758    0.7385   -2.4058 H   0  0  0  0  0  0  0  0  0  0  0  0
    1.2986    2.5018   -2.4003 H   0  0  0  0  0  0  0  0  0  0  0  0
    2.7889    3.8045   -1.0218 H   0  0  0  0  0  0  0  0  0  0  0  0
    4.3553    3.9513    0.9551 H   0  0  0  0  0  0  0  0  0  0  0  0
    4.6429    1.8996    2.4233 H   0  0  0  0  0  0  0  0  0  0  0  0
    3.3502   -0.2085    1.8258 H   0  0  0  0  0  0  0  0  0  0  0  0
  1  9  1  0  0  0  0
  2  1  1  0  0  0  0
  3  2  1  0  0  0  0
  3  4  1  0  0  0  0
  4  5  1  0  0  0  0
  4  9  2  0  0  0  0
  5 22  1  6  0  0  0
  5 11  1  0  0  0  0
  6 24  1  0  0  0  0
  6  7  1  0  0  0  0
  6  5  1  0  0  0  0
  7 25  1  0  0  0  0
  7  8  1  0  0  0  0
  8 11  1  0  0  0  0
  8 10  1  1  0  0  0
  9  8  1  0  0  0  0
 10 29  1  0  0  0  0
 10 27  1  0  0  0  0
 11 12  1  0  0  0  0
 11 13  1  0  0  0  0
 12 31  1  0  0  0  0
 12 32  1  0  0  0  0
 13 35  1  0  0  0  0
 13 34  1  0  0  0  0
 14  2  1  0  0  0  0
 15 20  1  0  0  0  0
 16 14  1  6  0  0  0
 16 17  1  0  0  0  0
 16 15  1  0  0  0  0
 17 18  2  0  0  0  0
 18 39  1  0  0  0  0
 18 19  1  0  0  0  0
 19 40  1  0  0  0  0
 20 19  2  0  0  0  0
 20 41  1  0  0  0  0
 21  3  1  0  0  0  0
 23  6  1  0  0  0  0
 26  7  1  0  0  0  0
 28 10  1  0  0  0  0
 30 12  1  0  0  0  0
 33 13  1  0  0  0  0
 36 14  1  0  0  0  0
 37 14  1  0  0  0  0
 38 17  1  0  0  0  0
M  END
