3,4
 OpenBabel05122313053D

 36 39  0  0  1  0  0  0  0  0999 V2000
   -2.4440    1.0911   -0.2494 N   0  0  0  0  0  0  0  0  0  0  0  0
   -2.2650   -1.2633   -0.4500 N   0  0  0  0  0  0  0  0  0  0  0  0
   -0.2971    0.0940   -0.3798 N   0  0  0  0  0  2  0  0  0  0  0  0
    1.2587   -2.0736   -0.5852 N   0  0  0  0  0  2  0  0  0  0  0  0
   -5.1372    0.8594    0.2163 N   0  0  0  0  0  0  0  0  0  0  0  0
    0.6122    2.6571   -1.1990 N   0  0  0  0  0  0  0  0  0  0  0  0
   -1.1176    1.1803   -0.3795 C   0  0  1  0  0  3  0  0  0  0  0  0
   -2.9803   -0.1398   -0.2386 C   0  0  0  0  0  0  0  0  0  0  0  0
   -0.9409   -1.1123   -0.4675 C   0  0  0  0  0  0  0  0  0  0  0  0
   -0.5547    2.5474   -0.5415 C   0  0  0  0  0  0  0  0  0  0  0  0
   -1.2755    3.6561   -0.0526 C   0  0  0  0  0  0  0  0  0  0  0  0
   -0.7172    4.9292   -0.2244 C   0  0  0  0  0  0  0  0  0  0  0  0
    0.5112    5.0460   -0.8906 C   0  0  0  0  0  0  0  0  0  0  0  0
    1.1293    3.8768   -1.3711 C   0  0  0  0  0  0  0  0  0  0  0  0
   -4.4428   -0.2767    0.0063 C   0  0  0  0  0  0  0  0  0  0  0  0
   -5.0371   -1.5570    0.0254 C   0  0  0  0  0  0  0  0  0  0  0  0
   -6.4123   -1.6514    0.2685 C   0  0  0  0  0  0  0  0  0  0  0  0
   -7.1391   -0.4726    0.4862 C   0  0  0  0  0  0  0  0  0  0  0  0
   -6.4483    0.7539    0.4511 C   0  0  0  0  0  0  0  0  0  0  0  0
   -0.0828   -2.2928   -0.6788 C   0  0  1  0  0  3  0  0  0  0  0  0
   -0.6132   -3.5481   -1.0174 C   0  0  0  0  0  0  0  0  0  0  0  0
    0.2644   -4.6046   -1.2742 C   0  0  0  0  0  0  0  0  0  0  0  0
    1.6478   -4.3707   -1.1888 C   0  0  0  0  0  0  0  0  0  0  0  0
    2.1029   -3.0960   -0.8396 C   0  0  0  0  0  0  0  0  0  0  0  0
   -2.2425    3.4942    0.4431 H   0  0  0  0  0  0  0  0  0  0  0  0
   -1.2355    5.8207    0.1594 H   0  0  0  0  0  0  0  0  0  0  0  0
    0.9866    6.0265   -1.0419 H   0  0  0  0  0  0  0  0  0  0  0  0
    2.0883    3.9245   -1.9165 H   0  0  0  0  0  0  0  0  0  0  0  0
   -4.4115   -2.4435   -0.1443 H   0  0  0  0  0  0  0  0  0  0  0  0
   -6.9096   -2.6328    0.2911 H   0  0  0  0  0  0  0  0  0  0  0  0
   -8.2215   -0.4959    0.6823 H   0  0  0  0  0  0  0  0  0  0  0  0
   -6.9928    1.7000    0.6227 H   0  0  0  0  0  0  0  0  0  0  0  0
   -1.7046   -3.6543   -1.0711 H   0  0  0  0  0  0  0  0  0  0  0  0
   -0.1212   -5.6000   -1.5389 H   0  0  0  0  0  0  0  0  0  0  0  0
    2.3769   -5.1702   -1.3810 H   0  0  0  0  0  0  0  0  0  0  0  0
    3.1748   -2.8724   -0.7387 H   0  0  0  0  0  0  0  0  0  0  0  0
  1  8  2  0  0  0  0
  2  8  1  0  0  0  0
  3  7  1  0  0  0  0
  5 19  1  0  0  0  0
  6 10  1  0  0  0  0
  7 10  1  6  0  0  0
  7  1  1  0  0  0  0
  8 15  1  0  0  0  0
  9  2  2  0  0  0  0
  9  3  1  0  0  0  0
 10 11  2  0  0  0  0
 11 25  1  0  0  0  0
 12 11  1  0  0  0  0
 12 26  1  0  0  0  0
 13 12  2  0  0  0  0
 14  6  2  0  0  0  0
 14 13  1  0  0  0  0
 15 16  1  0  0  0  0
 15  5  2  0  0  0  0
 16 17  2  0  0  0  0
 17 30  1  0  0  0  0
 17 18  1  0  0  0  0
 18 31  1  0  0  0  0
 19 18  2  0  0  0  0
 19 32  1  0  0  0  0
 20  4  1  0  0  0  0
 20  9  1  6  0  0  0
 21 20  1  0  0  0  0
 22 23  1  0  0  0  0
 22 21  2  0  0  0  0
 23 24  2  0  0  0  0
 24 36  1  0  0  0  0
 24  4  1  0  0  0  0
 27 13  1  0  0  0  0
 28 14  1  0  0  0  0
 29 16  1  0  0  0  0
 33 21  1  0  0  0  0
 34 22  1  0  0  0  0
 35 23  1  0  0  0  0
M  END
