3,4
 OpenBabel05122313053D

 18 18  0  0  0  0  0  0  0  0999 V2000
   -1.2674    1.4690   -2.0904 O   0  0  0  0  0  1  0  0  0  0  0  0
   -1.2672   -1.4692    2.0903 O   0  0  0  0  0  1  0  0  0  0  0  0
   -1.4756    0.7102   -1.0388 N   0  0  0  0  0  2  0  0  0  0  0  0
   -1.4755   -0.7105    1.0387 N   0  0  0  0  0  2  0  0  0  0  0  0
   -2.6842    0.4203   -0.5927 C   0  0  0  0  0  0  0  0  0  0  0  0
   -2.6841   -0.4206    0.5926 C   0  0  0  0  0  0  0  0  0  0  0  0
   -3.9490   -0.8760    1.2533 C   0  0  0  0  0  0  0  0  0  0  0  0
   -3.8252   -1.9261    1.5896 H   0  0  0  0  0  0  0  0  0  0  0  0
   -4.0803   -0.2852    2.1889 H   0  0  0  0  0  0  0  0  0  0  0  0
   -5.1636   -0.6929    0.3299 C   0  0  0  0  0  0  0  0  0  0  0  0
   -5.1525   -1.4758   -0.4599 H   0  0  0  0  0  0  0  0  0  0  0  0
   -6.0940   -0.8478    0.9108 H   0  0  0  0  0  0  0  0  0  0  0  0
   -5.1637    0.6924   -0.3298 C   0  0  0  0  0  0  0  0  0  0  0  0
   -5.1525    1.4754    0.4599 H   0  0  0  0  0  0  0  0  0  0  0  0
   -6.0941    0.8474   -0.9108 H   0  0  0  0  0  0  0  0  0  0  0  0
   -3.9491    0.8756   -1.2533 C   0  0  0  0  0  0  0  0  0  0  0  0
   -4.0804    0.2848   -2.1889 H   0  0  0  0  0  0  0  0  0  0  0  0
   -3.8253    1.9258   -1.5896 H   0  0  0  0  0  0  0  0  0  0  0  0
  1  3  1  0  0  0  0
  3  5  1  0  0  0  0
  4  2  1  0  0  0  0
  5  6  2  0  0  0  0
  6  4  1  0  0  0  0
  6  7  1  0  0  0  0
  7  8  1  0  0  0  0
  7  9  1  0  0  0  0
 10 12  1  0  0  0  0
 10  7  1  0  0  0  0
 11 10  1  0  0  0  0
 13 10  1  0  0  0  0
 13 14  1  0  0  0  0
 15 13  1  0  0  0  0
 16  5  1  0  0  0  0
 16 13  1  0  0  0  0
 17 16  1  0  0  0  0
 18 16  1  0  0  0  0
M  END
