8,9
 OpenBabel05122313053D

 59 61  0  0  1  0  0  0  0  0999 V2000
   -5.5573    1.3304   -0.6057 C   0  0  0  0  0  0  0  0  0  0  0  0
   -4.9524    1.6615   -1.4725 H   0  0  0  0  0  0  0  0  0  0  0  0
   -6.4191    2.0231   -0.5206 H   0  0  0  0  0  0  0  0  0  0  0  0
   -5.9480    0.3199   -0.8373 H   0  0  0  0  0  0  0  0  0  0  0  0
   -4.7572    1.3184    0.7179 C   0  0  0  0  0  0  0  0  0  0  0  0
   -3.6179    0.3103    0.6432 C   0  0  2  0  0  3  0  0  0  0  0  0
   -2.6148    0.2882   -0.3000 N   0  0  0  0  0  0  0  0  0  0  0  0
   -1.7808   -0.7800   -0.1153 N   0  0  0  0  0  2  0  0  0  0  0  0
    0.1696    1.2428   -0.5606 N   0  0  0  0  0  2  0  0  0  0  0  0
    1.3111    1.7733   -0.0709 C   0  0  1  0  0  3  0  0  0  0  0  0
    2.4600    0.8226    0.0889 C   0  0  0  0  0  0  0  0  0  0  0  0
    2.1112   -0.0884    0.6314 H   0  0  0  0  0  0  0  0  0  0  0  0
    2.7419    0.4713   -0.9346 H   0  0  0  0  0  0  0  0  0  0  0  0
    3.5234    1.4581    0.7713 O   0  0  0  0  0  0  0  0  0  0  0  0
    4.7007    0.7706    0.8793 C   0  0  0  0  0  0  0  0  0  0  0  0
    4.9409   -0.4811    0.2761 C   0  0  0  0  0  0  0  0  0  0  0  0
    4.1764   -0.9699   -0.3442 H   0  0  0  0  0  0  0  0  0  0  0  0
    6.1912   -1.0978    0.4530 C   0  0  0  0  0  0  0  0  0  0  0  0
    6.3738   -2.0726   -0.0247 H   0  0  0  0  0  0  0  0  0  0  0  0
    7.1964   -0.4915    1.2190 C   0  0  0  0  0  0  0  0  0  0  0  0
    8.1703   -0.9854    1.3505 H   0  0  0  0  0  0  0  0  0  0  0  0
   -5.7145    0.8873    1.8482 C   0  0  0  0  0  0  0  0  0  0  0  0
   -6.5618    1.5986    1.9094 H   0  0  0  0  0  0  0  0  0  0  0  0
   -5.2056    0.8824    2.8323 H   0  0  0  0  0  0  0  0  0  0  0  0
   -6.1304   -0.1229    1.6655 H   0  0  0  0  0  0  0  0  0  0  0  0
   -3.3905   -0.8043    1.4519 C   0  0  0  0  0  0  0  0  0  0  0  0
   -4.0008   -1.1193    2.3000 H   0  0  0  0  0  0  0  0  0  0  0  0
   -2.2285   -1.4545    0.9654 C   0  0  0  0  0  0  0  0  0  0  0  0
    1.4146    3.1428    0.2314 C   0  0  0  0  0  0  0  0  0  0  0  0
    2.3658    3.5247    0.6238 H   0  0  0  0  0  0  0  0  0  0  0  0
    0.3063    3.9677    0.0171 C   0  0  0  0  0  0  0  0  0  0  0  0
    0.3630    5.0454    0.2321 H   0  0  0  0  0  0  0  0  0  0  0  0
   -0.8836    3.4035   -0.4673 C   0  0  0  0  0  0  0  0  0  0  0  0
   -1.7752    4.0235   -0.6379 H   0  0  0  0  0  0  0  0  0  0  0  0
   -0.9171    2.0280   -0.7356 C   0  0  0  0  0  0  0  0  0  0  0  0
   -2.1667    1.3202   -1.2344 C   0  0  0  0  0  0  0  0  0  0  0  0
   -2.9897    2.0361   -1.3888 H   0  0  0  0  0  0  0  0  0  0  0  0
   -1.9330    0.8175   -2.1989 H   0  0  0  0  0  0  0  0  0  0  0  0
    5.7080    1.3873    1.6510 C   0  0  0  0  0  0  0  0  0  0  0  0
    5.4925    2.3622    2.1122 H   0  0  0  0  0  0  0  0  0  0  0  0
    6.9456    0.7572    1.8157 C   0  0  0  0  0  0  0  0  0  0  0  0
    7.7248    1.2475    2.4195 H   0  0  0  0  0  0  0  0  0  0  0  0
   -1.5620   -2.6952    1.5474 C   0  0  0  0  0  0  0  0  0  0  0  0
   -2.0478   -2.8879    2.9990 C   0  0  0  0  0  0  0  0  0  0  0  0
   -1.8350   -1.9964    3.6228 H   0  0  0  0  0  0  0  0  0  0  0  0
   -1.5260   -3.7543    3.4519 H   0  0  0  0  0  0  0  0  0  0  0  0
   -3.1356   -3.0965    3.0482 H   0  0  0  0  0  0  0  0  0  0  0  0
   -0.0272   -2.5373    1.5604 C   0  0  0  0  0  0  0  0  0  0  0  0
    0.3762   -2.3764    0.5380 H   0  0  0  0  0  0  0  0  0  0  0  0
    0.4419   -3.4498    1.9808 H   0  0  0  0  0  0  0  0  0  0  0  0
    0.2774   -1.6729    2.1853 H   0  0  0  0  0  0  0  0  0  0  0  0
   -1.9640   -3.9431    0.7282 C   0  0  0  0  0  0  0  0  0  0  0  0
   -3.0663   -4.0616    0.7049 H   0  0  0  0  0  0  0  0  0  0  0  0
   -1.5299   -4.8539    1.1898 H   0  0  0  0  0  0  0  0  0  0  0  0
   -1.6008   -3.8765   -0.3121 H   0  0  0  0  0  0  0  0  0  0  0  0
   -4.2407    2.7362    1.0551 C   0  0  0  0  0  0  0  0  0  0  0  0
   -3.6146    3.1654    0.2515 H   0  0  0  0  0  0  0  0  0  0  0  0
   -3.6359    2.7267    1.9834 H   0  0  0  0  0  0  0  0  0  0  0  0
   -5.0979    3.4230    1.2072 H   0  0  0  0  0  0  0  0  0  0  0  0
  1  3  1  0  0  0  0
  1  5  1  0  0  0  0
  2  1  1  0  0  0  0
  4  1  1  0  0  0  0
  5 56  1  0  0  0  0
  5 22  1  0  0  0  0
  6  5  1  6  0  0  0
  6 26  1  0  0  0  0
  7  8  1  0  0  0  0
  7  6  1  0  0  0  0
  8 28  1  0  0  0  0
  9 10  1  0  0  0  0
 10 11  1  6  0  0  0
 10 29  1  0  0  0  0
 11 12  1  0  0  0  0
 11 14  1  0  0  0  0
 13 11  1  0  0  0  0
 14 15  1  0  0  0  0
 15 39  1  0  0  0  0
 16 18  1  0  0  0  0
 16 15  2  0  0  0  0
 17 16  1  0  0  0  0
 18 20  2  0  0  0  0
 19 18  1  0  0  0  0
 20 21  1  0  0  0  0
 20 41  1  0  0  0  0
 22 23  1  0  0  0  0
 22 24  1  0  0  0  0
 25 22  1  0  0  0  0
 26 27  1  0  0  0  0
 28 26  2  0  0  0  0
 28 43  1  0  0  0  0
 29 30  1  0  0  0  0
 31 29  2  0  0  0  0
 31 32  1  0  0  0  0
 33 31  1  0  0  0  0
 34 33  1  0  0  0  0
 35  9  1  0  0  0  0
 35 33  2  0  0  0  0
 36 35  1  0  0  0  0
 36  7  1  0  0  0  0
 37 36  1  0  0  0  0
 38 36  1  0  0  0  0
 39 41  2  0  0  0  0
 39 40  1  0  0  0  0
 41 42  1  0  0  0  0
 43 48  1  0  0  0  0
 43 44  1  0  0  0  0
 44 47  1  0  0  0  0
 44 46  1  0  0  0  0
 44 45  1  0  0  0  0
 48 50  1  0  0  0  0
 48 51  1  0  0  0  0
 49 48  1  0  0  0  0
 52 54  1  0  0  0  0
 52 43  1  0  0  0  0
 53 52  1  0  0  0  0
 55 52  1  0  0  0  0
 56 59  1  0  0  0  0
 56 58  1  0  0  0  0
 57 56  1  0  0  0  0
M  END
