1,2
 OpenBabel05122313053D

 26 25  0  0  0  0  0  0  0  0999 V2000
   -0.8489   -1.2422   -1.2164 N   0  0  0  0  0  2  0  0  0  0  0  0
   -0.7999   -1.3852    1.0898 N   0  0  0  0  0  2  0  0  0  0  0  0
   -1.2475   -2.0218   -0.0976 C   0  0  0  0  0  0  0  0  0  0  0  0
   -1.9110   -3.2178   -0.1578 C   0  0  0  0  0  0  0  0  0  0  0  0
   -2.2020   -3.6574   -1.1187 H   0  0  0  0  0  0  0  0  0  0  0  0
   -2.1543   -3.7780    0.7520 H   0  0  0  0  0  0  0  0  0  0  0  0
   -1.1472   -1.6861   -2.5648 C   0  0  0  0  0  0  0  0  0  0  0  0
   -1.0331   -2.7959   -2.5987 H   0  0  0  0  0  0  0  0  0  0  0  0
   -0.1252   -1.0950   -3.5410 C   0  0  0  0  0  0  0  0  0  0  0  0
   -0.1705    0.0133   -3.5323 H   0  0  0  0  0  0  0  0  0  0  0  0
   -0.3214   -1.4320   -4.5786 H   0  0  0  0  0  0  0  0  0  0  0  0
    0.9052   -1.3957   -3.2644 H   0  0  0  0  0  0  0  0  0  0  0  0
   -2.5896   -1.3496   -2.9779 C   0  0  0  0  0  0  0  0  0  0  0  0
   -3.3080   -1.7299   -2.2257 H   0  0  0  0  0  0  0  0  0  0  0  0
   -2.8430   -1.7950   -3.9620 H   0  0  0  0  0  0  0  0  0  0  0  0
   -2.7222   -0.2501   -3.0544 H   0  0  0  0  0  0  0  0  0  0  0  0
   -0.9866   -2.0165    2.3823 C   0  0  0  0  0  0  0  0  0  0  0  0
   -0.7736   -3.1073    2.2683 H   0  0  0  0  0  0  0  0  0  0  0  0
    0.0327   -1.4515    3.3772 C   0  0  0  0  0  0  0  0  0  0  0  0
    1.0693   -1.6132    3.0193 H   0  0  0  0  0  0  0  0  0  0  0  0
   -0.0725   -1.9262    4.3732 H   0  0  0  0  0  0  0  0  0  0  0  0
   -0.1155   -0.3584    3.5084 H   0  0  0  0  0  0  0  0  0  0  0  0
   -2.4255   -1.8727    2.9081 C   0  0  0  0  0  0  0  0  0  0  0  0
   -2.6437   -0.8135    3.1528 H   0  0  0  0  0  0  0  0  0  0  0  0
   -2.5778   -2.4754    3.8272 H   0  0  0  0  0  0  0  0  0  0  0  0
   -3.1560   -2.2078    2.1465 H   0  0  0  0  0  0  0  0  0  0  0  0
  1  3  1  0  0  0  0
  2 17  1  0  0  0  0
  3  2  1  0  0  0  0
  4  3  2  0  0  0  0
  4  6  1  0  0  0  0
  5  4  1  0  0  0  0
  7  1  1  0  0  0  0
  8  7  1  0  0  0  0
  9 10  1  0  0  0  0
  9 12  1  0  0  0  0
  9  7  1  0  0  0  0
 11  9  1  0  0  0  0
 13  7  1  0  0  0  0
 13 14  1  0  0  0  0
 15 13  1  0  0  0  0
 16 13  1  0  0  0  0
 17 23  1  0  0  0  0
 17 19  1  0  0  0  0
 18 17  1  0  0  0  0
 19 22  1  0  0  0  0
 19 21  1  0  0  0  0
 20 19  1  0  0  0  0
 23 24  1  0  0  0  0
 23 25  1  0  0  0  0
 26 23  1  0  0  0  0
M  END
