5,6
 OpenBabel05122313053D

 44 48  0  0  1  0  0  0  0  0999 V2000
    4.8556    0.1577    0.4832 N   0  0  0  0  0  0  0  0  0  0  0  0
    5.3530    0.8875    0.9904 H   0  0  0  0  0  0  0  0  0  0  0  0
    1.1194    1.1578   -1.2570 N   0  0  0  0  0  0  0  0  0  0  0  0
    0.1713    1.6117   -1.2102 H   0  0  0  0  0  0  0  0  0  0  0  0
   -0.0782   -0.7738   -0.9330 N   0  0  0  0  0  2  0  0  0  0  0  0
   -2.6489   -1.0692   -1.3192 N   0  0  0  0  0  2  0  0  0  0  0  0
    4.5273   -3.9451    0.9997 C   0  0  0  0  0  0  0  0  0  0  0  0
    4.3993   -5.0325    1.1055 H   0  0  0  0  0  0  0  0  0  0  0  0
    5.4785   -3.2781    1.8111 C   0  0  0  0  0  0  0  0  0  0  0  0
    6.0744   -3.8582    2.5314 H   0  0  0  0  0  0  0  0  0  0  0  0
    5.6744   -1.8954    1.7177 C   0  0  0  0  0  0  0  0  0  0  0  0
    6.4129   -1.3810    2.3506 H   0  0  0  0  0  0  0  0  0  0  0  0
    4.8912   -1.1903    0.7885 C   0  0  0  0  0  0  0  0  0  0  0  0
    3.8841    0.3962   -0.4821 C   0  0  0  0  0  0  0  0  0  0  0  0
    3.5453    1.7177   -0.9833 C   0  0  0  0  0  0  0  0  0  0  0  0
    4.5197    2.7453   -1.0399 C   0  0  0  0  0  0  0  0  0  0  0  0
    5.5572    2.4989   -0.7650 H   0  0  0  0  0  0  0  0  0  0  0  0
    4.2048    4.0396   -1.4568 C   0  0  0  0  0  0  0  0  0  0  0  0
    4.9860    4.8124   -1.4980 H   0  0  0  0  0  0  0  0  0  0  0  0
    2.8811    4.3396   -1.8315 C   0  0  0  0  0  0  0  0  0  0  0  0
    2.6134    5.3549   -2.1602 H   0  0  0  0  0  0  0  0  0  0  0  0
    1.8997    3.3492   -1.7930 C   0  0  0  0  0  0  0  0  0  0  0  0
    0.8578    3.5783   -2.0646 H   0  0  0  0  0  0  0  0  0  0  0  0
    2.2035    2.0277   -1.3778 C   0  0  0  0  0  0  0  0  0  0  0  0
    1.0267   -0.2045   -1.3552 C   0  0  2  0  0  3  0  0  0  0  0  0
   -0.4606   -2.1114   -1.3719 C   0  0  0  0  0  0  0  0  0  0  0  0
   -0.4702   -2.7835   -0.4833 H   0  0  0  0  0  0  0  0  0  0  0  0
    0.2049   -2.5363   -2.1495 H   0  0  0  0  0  0  0  0  0  0  0  0
   -1.8677   -2.0173   -1.9065 C   0  0  2  0  0  3  0  0  0  0  0  0
   -2.3512   -2.8280   -2.9397 C   0  0  0  0  0  0  0  0  0  0  0  0
   -1.6884   -3.5814   -3.3899 H   0  0  0  0  0  0  0  0  0  0  0  0
   -3.6691   -2.6591   -3.3871 C   0  0  0  0  0  0  0  0  0  0  0  0
   -4.0686   -3.2865   -4.1981 H   0  0  0  0  0  0  0  0  0  0  0  0
   -4.4558   -1.6679   -2.7879 C   0  0  0  0  0  0  0  0  0  0  0  0
   -5.4924   -1.4871   -3.1055 H   0  0  0  0  0  0  0  0  0  0  0  0
   -3.9141   -0.8887   -1.7589 C   0  0  0  0  0  0  0  0  0  0  0  0
   -4.4957   -0.1219   -1.2190 H   0  0  0  0  0  0  0  0  0  0  0  0
    2.2410   -0.9337   -1.8915 C   0  0  0  0  0  0  0  0  0  0  0  0
    2.0135   -1.9918   -2.1001 H   0  0  0  0  0  0  0  0  0  0  0  0
    2.5620   -0.4587   -2.8435 H   0  0  0  0  0  0  0  0  0  0  0  0
    3.3126   -0.8240   -0.8489 C   0  0  0  0  0  0  0  0  0  0  0  0
    3.9202   -1.8468   -0.0418 C   0  0  0  0  0  0  0  0  0  0  0  0
    3.7491   -3.2444    0.0747 C   0  0  0  0  0  0  0  0  0  0  0  0
    3.0076   -3.7710   -0.5454 H   0  0  0  0  0  0  0  0  0  0  0  0
  1 13  1  0  0  0  0
  1  2  1  0  0  0  0
  3  4  1  0  0  0  0
  7  8  1  0  0  0  0
  7  9  1  0  0  0  0
  9 10  1  0  0  0  0
 11  9  2  0  0  0  0
 11 12  1  0  0  0  0
 13 11  1  0  0  0  0
 14  1  1  0  0  0  0
 15 14  1  0  0  0  0
 16 15  1  0  0  0  0
 16 17  1  0  0  0  0
 18 16  2  0  0  0  0
 19 18  1  0  0  0  0
 20 22  2  0  0  0  0
 20 18  1  0  0  0  0
 21 20  1  0  0  0  0
 22 24  1  0  0  0  0
 23 22  1  0  0  0  0
 24  3  1  0  0  0  0
 24 15  2  0  0  0  0
 25  3  1  0  0  0  0
 25  5  1  1  0  0  0
 26  5  1  0  0  0  0
 26 27  1  0  0  0  0
 28 26  1  0  0  0  0
 29 26  1  6  0  0  0
 29  6  1  0  0  0  0
 30 29  1  0  0  0  0
 31 30  1  0  0  0  0
 32 30  2  0  0  0  0
 32 34  1  0  0  0  0
 33 32  1  0  0  0  0
 34 36  2  0  0  0  0
 35 34  1  0  0  0  0
 36  6  1  0  0  0  0
 36 37  1  0  0  0  0
 38 25  1  0  0  0  0
 38 41  1  0  0  0  0
 39 38  1  0  0  0  0
 40 38  1  0  0  0  0
 41 14  2  0  0  0  0
 41 42  1  0  0  0  0
 42 43  1  0  0  0  0
 42 13  2  0  0  0  0
 43  7  2  0  0  0  0
 44 43  1  0  0  0  0
M  END
