1,2
 OpenBabel05122313053D

 16 17  0  0  1  0  0  0  0  0999 V2000
   -1.2172   -2.2183    0.6031 N   0  0  0  0  0  2  0  0  0  0  0  0
   -1.0328   -1.4487   -1.9629 N   0  0  0  0  0  2  0  0  0  0  0  0
   -1.2228   -1.1222   -3.2634 N   0  0  0  0  0  0  0  0  0  0  0  0
   -2.3009   -1.6831   -3.7149 N   0  0  0  0  0  0  0  0  0  0  0  0
   -2.8262   -2.3938   -2.6906 N   0  0  0  0  0  0  0  0  0  0  0  0
   -3.7186   -2.8785   -2.8131 H   0  0  0  0  0  0  0  0  0  0  0  0
   -1.2622   -2.5493    1.9081 C   0  0  0  0  0  3  0  0  0  0  0  0
   -0.4806   -2.1094    2.5473 H   0  0  0  0  0  0  0  0  0  0  0  0
   -2.2355   -3.4058    2.4385 C   0  0  0  0  0  0  0  0  0  0  0  0
   -2.2254   -3.6461    3.5110 H   0  0  0  0  0  0  0  0  0  0  0  0
   -3.2065   -3.9493    1.5803 C   0  0  0  0  0  0  0  0  0  0  0  0
   -3.9794   -4.6303    1.9650 H   0  0  0  0  0  0  0  0  0  0  0  0
   -3.1765   -3.6061    0.2244 C   0  0  0  0  0  0  0  0  0  0  0  0
   -3.9275   -4.0050   -0.4726 H   0  0  0  0  0  0  0  0  0  0  0  0
   -2.1720   -2.7318   -0.2254 C   0  0  0  0  0  0  0  0  0  0  0  0
   -2.0452   -2.2490   -1.5939 C   0  0  2  0  0  3  0  0  0  0  0  0
  1  7  1  0  0  0  0
  2 16  1  0  0  0  0
  3  2  1  0  0  0  0
  4  3  2  0  0  0  0
  4  5  1  0  0  0  0
  5 16  1  0  0  0  0
  6  5  1  0  0  0  0
  7  9  1  0  0  0  0
  7  8  1  0  0  0  0
  9 10  1  0  0  0  0
 11 12  1  0  0  0  0
 11  9  2  0  0  0  0
 13 11  1  0  0  0  0
 14 13  1  0  0  0  0
 15 13  2  0  0  0  0
 15  1  1  0  0  0  0
 16 15  1  1  0  0  0
M  END
