4,6
 OpenBabel05122313053D

 26 28  0  0  1  0  0  0  0  0999 V2000
   -5.6244   -1.1284    0.0702 O   0  0  0  0  0  0  0  0  0  0  0  0
   -3.6239   -2.1879   -0.0512 O   0  0  0  0  0  0  0  0  0  0  0  0
   -4.2391   -2.9527   -0.1112 H   0  0  0  0  0  0  0  0  0  0  0  0
    2.3091    0.9581   -0.2448 N   0  0  0  0  0  2  0  0  0  0  0  0
    1.8570    2.2037    0.0779 N   0  0  0  0  0  0  0  0  0  0  0  0
   -0.2256    1.2157    0.1370 N   0  0  0  0  0  2  0  0  0  0  0  0
   -2.2989    0.1477    0.1060 N   0  0  0  0  0  0  0  0  0  0  0  0
    3.6302    1.0640   -0.4287 C   0  0  0  0  0  3  0  0  0  0  0  0
    4.2177    0.1884   -0.7237 H   0  0  0  0  0  0  0  0  0  0  0  0
    4.0465    2.4015   -0.2058 C   0  0  0  0  0  0  0  0  0  0  0  0
    5.0638    2.7997   -0.2711 H   0  0  0  0  0  0  0  0  0  0  0  0
    2.8966    3.1053    0.1132 C   0  0  0  0  0  0  0  0  0  0  0  0
    2.7422    4.1596    0.3594 H   0  0  0  0  0  0  0  0  0  0  0  0
    0.4792    2.3555    0.2373 C   0  0  0  0  0  0  0  0  0  0  0  0
   -0.0891    3.6348    0.4671 C   0  0  0  0  0  0  0  0  0  0  0  0
    0.5531    4.5209    0.5433 H   0  0  0  0  0  0  0  0  0  0  0  0
   -1.4609    3.7347    0.5636 C   0  0  0  0  0  0  0  0  0  0  0  0
   -1.9436    4.7097    0.7269 H   0  0  0  0  0  0  0  0  0  0  0  0
   -2.2566    2.5626    0.4339 C   0  0  0  0  0  0  0  0  0  0  0  0
   -1.6066    1.2945    0.2249 C   0  0  2  0  0  3  0  0  0  0  0  0
   -3.6766    2.5766    0.4903 C   0  0  0  0  0  0  0  0  0  0  0  0
   -4.2009    3.5324    0.6409 H   0  0  0  0  0  0  0  0  0  0  0  0
   -4.3739    1.3894    0.3507 C   0  0  0  0  0  0  0  0  0  0  0  0
   -5.4706    1.3329    0.3804 H   0  0  0  0  0  0  0  0  0  0  0  0
   -3.6268    0.1935    0.1695 C   0  0  0  0  0  0  0  0  0  0  0  0
   -4.4105   -1.0933    0.0551 C   0  0  0  0  0  0  0  0  0  0  0  0
  2 26  1  0  0  0  0
  3  2  1  0  0  0  0
  4  5  1  0  0  0  0
  5 12  1  0  0  0  0
  5 14  1  0  0  0  0
  6 20  1  0  0  0  0
  6 14  1  0  0  0  0
  7 25  2  0  0  0  0
  8  4  1  0  0  0  0
  8 10  1  0  0  0  0
  9  8  1  0  0  0  0
 10 12  2  0  0  0  0
 11 10  1  0  0  0  0
 12 13  1  0  0  0  0
 14 15  2  0  0  0  0
 15 16  1  0  0  0  0
 15 17  1  0  0  0  0
 17 18  1  0  0  0  0
 19 21  1  0  0  0  0
 19 17  2  0  0  0  0
 20  7  1  6  0  0  0
 20 19  1  0  0  0  0
 21 22  1  0  0  0  0
 23 24  1  0  0  0  0
 23 21  2  0  0  0  0
 25 23  1  0  0  0  0
 26  1  2  0  0  0  0
 26 25  1  0  0  0  0
M  END
