1,15
 OpenBabel05122313053D

 57 61  0  0  0  0  0  0  0  0999 V2000
    1.8346    0.6251    1.1582 N   0  0  0  0  0  2  0  0  0  0  0  0
    0.6033    0.4571    0.5746 C   0  0  0  0  0  0  0  0  0  0  0  0
   -0.5014    1.2346    1.0179 C   0  0  0  0  0  0  0  0  0  0  0  0
   -0.3236    2.0310    2.1733 C   0  0  0  0  0  0  0  0  0  0  0  0
   -1.1736    2.6321    2.5277 H   0  0  0  0  0  0  0  0  0  0  0  0
    0.9119    2.0758    2.8175 C   0  0  0  0  0  0  0  0  0  0  0  0
    1.0618    2.6780    3.7248 H   0  0  0  0  0  0  0  0  0  0  0  0
    1.9926    1.3853    2.2557 C   0  0  0  0  0  0  0  0  0  0  0  0
    3.0303    1.4446    2.6277 H   0  0  0  0  0  0  0  0  0  0  0  0
   -1.7047    1.3568    0.2810 N   0  0  0  0  0  0  0  0  0  0  0  0
   -2.8168   -0.0005    0.0001 Si  0  0  0  0  0  0  0  0  0  0  0  0
   -1.7042   -1.3574   -0.2811 N   0  0  0  0  0  0  0  0  0  0  0  0
   -0.5009   -1.2347   -1.0179 C   0  0  0  0  0  0  0  0  0  0  0  0
    0.6034   -0.4568   -0.5746 C   0  0  0  0  0  0  0  0  0  0  0  0
    1.8348   -0.6244   -1.1582 N   0  0  0  0  0  2  0  0  0  0  0  0
    1.9931   -1.3845   -2.2558 C   0  0  0  0  0  0  0  0  0  0  0  0
    3.0308   -1.4434   -2.6277 H   0  0  0  0  0  0  0  0  0  0  0  0
    0.9126   -2.0753   -2.8176 C   0  0  0  0  0  0  0  0  0  0  0  0
    1.0628   -2.6774   -3.7249 H   0  0  0  0  0  0  0  0  0  0  0  0
   -0.3229   -2.0309   -2.1735 C   0  0  0  0  0  0  0  0  0  0  0  0
   -1.1727   -2.6322   -2.5279 H   0  0  0  0  0  0  0  0  0  0  0  0
   -2.1016    2.7018   -0.0026 C   0  0  0  0  0  0  0  0  0  0  0  0
   -1.1947    3.5748   -0.6448 C   0  0  0  0  0  0  0  0  0  0  0  0
   -0.1915    3.2067   -0.9076 H   0  0  0  0  0  0  0  0  0  0  0  0
   -1.5678    4.8861   -0.9498 C   0  0  0  0  0  0  0  0  0  0  0  0
   -0.8429    5.5463   -1.4522 H   0  0  0  0  0  0  0  0  0  0  0  0
   -2.8570    5.3772   -0.6439 C   0  0  0  0  0  0  0  0  0  0  0  0
   -3.7516    4.5013   -0.0017 C   0  0  0  0  0  0  0  0  0  0  0  0
   -4.7592    4.8579    0.2644 H   0  0  0  0  0  0  0  0  0  0  0  0
   -3.3801    3.1890    0.3304 C   0  0  0  0  0  0  0  0  0  0  0  0
   -4.0880    2.5438    0.8713 H   0  0  0  0  0  0  0  0  0  0  0  0
   -3.2473    6.7902   -0.9948 C   0  0  0  0  0  0  0  0  0  0  0  0
   -4.2745    7.0270   -0.6570 H   0  0  0  0  0  0  0  0  0  0  0  0
   -3.2043    6.9593   -2.0913 H   0  0  0  0  0  0  0  0  0  0  0  0
   -2.5584    7.5268   -0.5316 H   0  0  0  0  0  0  0  0  0  0  0  0
   -3.8395    0.3938   -1.5247 C   0  0  0  0  0  0  0  0  0  0  0  0
   -4.4787    1.2872   -1.3873 H   0  0  0  0  0  0  0  0  0  0  0  0
   -4.4971   -0.4612   -1.7807 H   0  0  0  0  0  0  0  0  0  0  0  0
   -3.1679    0.5836   -2.3862 H   0  0  0  0  0  0  0  0  0  0  0  0
   -3.8388   -0.3951    1.5254 C   0  0  0  0  0  0  0  0  0  0  0  0
   -3.1668   -0.5843    2.3868 H   0  0  0  0  0  0  0  0  0  0  0  0
   -4.4777   -1.2888    1.3885 H   0  0  0  0  0  0  0  0  0  0  0  0
   -4.4967    0.4597    1.7814 H   0  0  0  0  0  0  0  0  0  0  0  0
   -2.1006   -2.7026    0.0025 C   0  0  0  0  0  0  0  0  0  0  0  0
   -3.3791   -3.1901   -0.3301 C   0  0  0  0  0  0  0  0  0  0  0  0
   -4.0874   -2.5450   -0.8707 H   0  0  0  0  0  0  0  0  0  0  0  0
   -3.7501   -4.5025    0.0020 C   0  0  0  0  0  0  0  0  0  0  0  0
   -4.7577   -4.8593   -0.2636 H   0  0  0  0  0  0  0  0  0  0  0  0
   -2.8550   -5.3782    0.6438 C   0  0  0  0  0  0  0  0  0  0  0  0
   -1.5658   -4.8868    0.9493 C   0  0  0  0  0  0  0  0  0  0  0  0
   -0.8406   -5.5468    1.4514 H   0  0  0  0  0  0  0  0  0  0  0  0
   -1.1932   -3.5754    0.6443 C   0  0  0  0  0  0  0  0  0  0  0  0
   -0.1900   -3.2070    0.9067 H   0  0  0  0  0  0  0  0  0  0  0  0
   -3.2447   -6.7915    0.9945 C   0  0  0  0  0  0  0  0  0  0  0  0
   -2.5572   -7.5278    0.5287 H   0  0  0  0  0  0  0  0  0  0  0  0
   -4.2729   -7.0278    0.6592 H   0  0  0  0  0  0  0  0  0  0  0  0
   -3.1987   -6.9616    2.0907 H   0  0  0  0  0  0  0  0  0  0  0  0
  1  8  1  0  0  0  0
  2  3  1  0  0  0  0
  2  1  1  0  0  0  0
  3  4  2  0  0  0  0
  4  5  1  0  0  0  0
  4  6  1  0  0  0  0
  6  7  1  0  0  0  0
  8  9  1  0  0  0  0
  8  6  2  0  0  0  0
 10  3  1  0  0  0  0
 11 10  1  0  0  0  0
 11 40  1  0  0  0  0
 12 11  1  0  0  0  0
 12 44  1  0  0  0  0
 13 14  1  0  0  0  0
 13 12  1  0  0  0  0
 14  2  2  0  0  0  0
 15 14  1  0  0  0  0
 16 15  1  0  0  0  0
 17 16  1  0  0  0  0
 18 16  2  0  0  0  0
 18 20  1  0  0  0  0
 19 18  1  0  0  0  0
 20 13  2  0  0  0  0
 21 20  1  0  0  0  0
 22 10  1  0  0  0  0
 22 30  1  0  0  0  0
 23 22  2  0  0  0  0
 24 23  1  0  0  0  0
 25 23  1  0  0  0  0
 25 27  2  0  0  0  0
 26 25  1  0  0  0  0
 27 28  1  0  0  0  0
 28 29  1  0  0  0  0
 28 30  2  0  0  0  0
 30 31  1  0  0  0  0
 32 33  1  0  0  0  0
 32 27  1  0  0  0  0
 32 35  1  0  0  0  0
 34 32  1  0  0  0  0
 36 37  1  0  0  0  0
 36 11  1  0  0  0  0
 38 36  1  0  0  0  0
 39 36  1  0  0  0  0
 40 43  1  0  0  0  0
 40 41  1  0  0  0  0
 42 40  1  0  0  0  0
 44 52  1  0  0  0  0
 45 47  1  0  0  0  0
 45 44  2  0  0  0  0
 46 45  1  0  0  0  0
 47 49  2  0  0  0  0
 48 47  1  0  0  0  0
 49 50  1  0  0  0  0
 49 54  1  0  0  0  0
 50 51  1  0  0  0  0
 52 53  1  0  0  0  0
 52 50  2  0  0  0  0
 54 57  1  0  0  0  0
 55 54  1  0  0  0  0
 56 54  1  0  0  0  0
M  END
