1,20
 OpenBabel05122313053D

 20 21  0  0  0  0  0  0  0  0999 V2000
   -0.1475    1.2927    0.2602 N   0  0  0  0  0  2  0  0  0  0  0  0
   -0.3011    2.6227    0.3905 C   0  0  0  0  0  0  0  0  0  0  0  0
   -1.3353    2.9440    0.6075 H   0  0  0  0  0  0  0  0  0  0  0  0
    0.7735    3.4997    0.2070 C   0  0  0  0  0  0  0  0  0  0  0  0
    0.6271    4.5807    0.3411 H   0  0  0  0  0  0  0  0  0  0  0  0
    1.9973    2.9866   -0.2309 C   0  0  0  0  0  0  0  0  0  0  0  0
    2.8367    3.6437   -0.4988 H   0  0  0  0  0  0  0  0  0  0  0  0
    2.1437    1.5965   -0.3798 C   0  0  0  0  0  0  0  0  0  0  0  0
    3.5699    1.0131   -1.1719 Cl  0  0  0  0  0  0  0  0  0  0  0  0
    1.0791    0.7375   -0.0100 C   0  0  0  0  0  0  0  0  0  0  0  0
    1.0791   -0.7375    0.0100 C   0  0  0  0  0  0  0  0  0  0  0  0
    2.1438   -1.5965    0.3799 C   0  0  0  0  0  0  0  0  0  0  0  0
    3.5700   -1.0130    1.1719 Cl  0  0  0  0  0  0  0  0  0  0  0  0
    1.9974   -2.9866    0.2309 C   0  0  0  0  0  0  0  0  0  0  0  0
    2.8368   -3.6436    0.4988 H   0  0  0  0  0  0  0  0  0  0  0  0
    0.7736   -3.4998   -0.2070 C   0  0  0  0  0  0  0  0  0  0  0  0
    0.6273   -4.5808   -0.3410 H   0  0  0  0  0  0  0  0  0  0  0  0
   -0.3011   -2.6227   -0.3905 C   0  0  0  0  0  0  0  0  0  0  0  0
   -1.3352   -2.9440   -0.6074 H   0  0  0  0  0  0  0  0  0  0  0  0
   -0.1475   -1.2927   -0.2602 N   0  0  0  0  0  2  0  0  0  0  0  0
  1  2  1  0  0  0  0
  2  3  1  0  0  0  0
  4  5  1  0  0  0  0
  4  2  2  0  0  0  0
  6  4  1  0  0  0  0
  7  6  1  0  0  0  0
  8  6  2  0  0  0  0
  8 10  1  0  0  0  0
  9  8  1  0  0  0  0
 10 11  2  0  0  0  0
 10  1  1  0  0  0  0
 11 12  1  0  0  0  0
 12 13  1  0  0  0  0
 14 12  2  0  0  0  0
 14 15  1  0  0  0  0
 16 14  1  0  0  0  0
 17 16  1  0  0  0  0
 18 20  1  0  0  0  0
 18 16  2  0  0  0  0
 19 18  1  0  0  0  0
 20 11  1  0  0  0  0
M  END
