1,2
 OpenBabel05122313053D

 30 31  0  0  0  0  0  0  0  0999 V2000
   -2.6858    0.7953    0.0387 N   0  0  0  0  0  2  0  0  0  0  0  0
   -0.3231    1.7210   -0.0533 N   0  0  0  0  0  2  0  0  0  0  0  0
   -2.6337    2.1225    0.0729 C   0  0  0  0  0  0  0  0  0  0  0  0
   -3.5512    2.7292    0.1348 H   0  0  0  0  0  0  0  0  0  0  0  0
   -1.3240    2.6828    0.0229 C   0  0  0  0  0  0  0  0  0  0  0  0
   -1.0163    4.0623    0.0448 C   0  0  0  0  0  0  0  0  0  0  0  0
   -1.8396    4.7888    0.1054 H   0  0  0  0  0  0  0  0  0  0  0  0
    0.3130    4.4700   -0.0093 C   0  0  0  0  0  0  0  0  0  0  0  0
    0.5735    5.5382    0.0084 H   0  0  0  0  0  0  0  0  0  0  0  0
    1.3198    3.4818   -0.0867 C   0  0  0  0  0  0  0  0  0  0  0  0
    2.3858    3.7455   -0.1288 H   0  0  0  0  0  0  0  0  0  0  0  0
    0.9706    2.1339   -0.1078 C   0  0  0  0  0  0  0  0  0  0  0  0
    1.7534    1.3637   -0.1656 H   0  0  0  0  0  0  0  0  0  0  0  0
   -3.9334    0.1059    0.0779 C   0  0  0  0  0  0  0  0  0  0  0  0
   -4.4497   -0.3011    1.3334 C   0  0  0  0  0  0  0  0  0  0  0  0
   -5.6412   -1.0504    1.3403 C   0  0  0  0  0  0  0  0  0  0  0  0
   -6.0579   -1.3770    2.3058 H   0  0  0  0  0  0  0  0  0  0  0  0
   -6.2940   -1.3821    0.1449 C   0  0  0  0  0  0  0  0  0  0  0  0
   -7.2226   -1.9717    0.1711 H   0  0  0  0  0  0  0  0  0  0  0  0
   -5.7637   -0.9651   -1.0840 C   0  0  0  0  0  0  0  0  0  0  0  0
   -6.2765   -1.2251   -2.0231 H   0  0  0  0  0  0  0  0  0  0  0  0
   -4.5749   -0.2141   -1.1445 C   0  0  0  0  0  0  0  0  0  0  0  0
   -3.7321    0.0595    2.6070 C   0  0  0  0  0  0  0  0  0  0  0  0
   -3.7655    1.1527    2.7979 H   0  0  0  0  0  0  0  0  0  0  0  0
   -2.6553   -0.2064    2.5476 H   0  0  0  0  0  0  0  0  0  0  0  0
   -4.1820   -0.4505    3.4794 H   0  0  0  0  0  0  0  0  0  0  0  0
   -3.9888    0.2381   -2.4559 C   0  0  0  0  0  0  0  0  0  0  0  0
   -4.5204   -0.2186   -3.3116 H   0  0  0  0  0  0  0  0  0  0  0  0
   -2.9101   -0.0183   -2.5208 H   0  0  0  0  0  0  0  0  0  0  0  0
   -4.0473    1.3410   -2.5696 H   0  0  0  0  0  0  0  0  0  0  0  0
  1  3  1  0  0  0  0
  1 14  1  0  0  0  0
  2  5  1  0  0  0  0
  3  4  1  0  0  0  0
  5  6  1  0  0  0  0
  5  3  2  0  0  0  0
  6  7  1  0  0  0  0
  8  9  1  0  0  0  0
  8  6  2  0  0  0  0
 10  8  1  0  0  0  0
 11 10  1  0  0  0  0
 12 10  2  0  0  0  0
 12  2  1  0  0  0  0
 13 12  1  0  0  0  0
 14 15  1  0  0  0  0
 15 16  2  0  0  0  0
 15 23  1  0  0  0  0
 16 17  1  0  0  0  0
 18 19  1  0  0  0  0
 18 16  1  0  0  0  0
 20 18  2  0  0  0  0
 21 20  1  0  0  0  0
 22 20  1  0  0  0  0
 22 14  2  0  0  0  0
 23 24  1  0  0  0  0
 23 26  1  0  0  0  0
 25 23  1  0  0  0  0
 27 22  1  0  0  0  0
 28 27  1  0  0  0  0
 29 27  1  0  0  0  0
 30 27  1  0  0  0  0
M  END
