2,3
 OpenBabel05122313053D

 57 60  0  0  0  0  0  0  0  0999 V2000
    2.3194   -1.6531    0.2834 S   0  0  0  0  0  0  0  0  0  0  0  0
    1.2990    1.0773    0.4706 N   0  0  0  0  0  2  0  0  0  0  0  0
   -0.4807   -0.9622   -0.3928 N   0  0  0  0  0  2  0  0  0  0  0  0
    2.5931    1.0441    0.0212 C   0  0  0  0  0  0  0  0  0  0  0  0
    3.3155    2.1910   -0.4281 C   0  0  0  0  0  0  0  0  0  0  0  0
    2.7908    3.1547   -0.4981 H   0  0  0  0  0  0  0  0  0  0  0  0
    4.6733    2.0982   -0.7404 C   0  0  0  0  0  0  0  0  0  0  0  0
    5.2062    3.0075   -1.0606 H   0  0  0  0  0  0  0  0  0  0  0  0
    5.3787    0.8793   -0.6437 C   0  0  0  0  0  0  0  0  0  0  0  0
    6.4514    0.8299   -0.8789 H   0  0  0  0  0  0  0  0  0  0  0  0
    4.6800   -0.2745   -0.2631 C   0  0  0  0  0  0  0  0  0  0  0  0
    5.1791   -1.2555   -0.2238 H   0  0  0  0  0  0  0  0  0  0  0  0
    3.3159   -0.1818    0.0437 C   0  0  0  0  0  0  0  0  0  0  0  0
    0.2107   -1.4461   -1.4736 C   0  0  0  0  0  0  0  0  0  0  0  0
   -0.3466   -1.5590   -2.7861 C   0  0  0  0  0  0  0  0  0  0  0  0
   -1.3808   -1.2247   -2.9491 H   0  0  0  0  0  0  0  0  0  0  0  0
    0.4040   -2.0680   -3.8463 C   0  0  0  0  0  0  0  0  0  0  0  0
   -0.0604   -2.1309   -4.8431 H   0  0  0  0  0  0  0  0  0  0  0  0
    1.7384   -2.4912   -3.6712 C   0  0  0  0  0  0  0  0  0  0  0  0
    2.3193   -2.8911   -4.5144 H   0  0  0  0  0  0  0  0  0  0  0  0
    2.3164   -2.3767   -2.4009 C   0  0  0  0  0  0  0  0  0  0  0  0
    3.3617   -2.6765   -2.2280 H   0  0  0  0  0  0  0  0  0  0  0  0
    1.5693   -1.8528   -1.3374 C   0  0  0  0  0  0  0  0  0  0  0  0
    0.4057    2.0210   -0.0767 C   0  0  0  0  0  0  0  0  0  0  0  0
    0.1792    2.0516   -1.4698 C   0  0  0  0  0  0  0  0  0  0  0  0
    0.7443    1.3560   -2.1083 H   0  0  0  0  0  0  0  0  0  0  0  0
   -0.7819    2.9077   -2.0365 C   0  0  0  0  0  0  0  0  0  0  0  0
   -1.5189    3.7540   -1.1857 C   0  0  0  0  0  0  0  0  0  0  0  0
   -2.2832    4.4203   -1.6184 H   0  0  0  0  0  0  0  0  0  0  0  0
   -1.2991    3.7686    0.2081 C   0  0  0  0  0  0  0  0  0  0  0  0
   -0.3301    2.9046    0.7465 C   0  0  0  0  0  0  0  0  0  0  0  0
   -0.1341    2.9135    1.8282 H   0  0  0  0  0  0  0  0  0  0  0  0
   -1.8950   -0.9437   -0.4286 C   0  0  0  0  0  0  0  0  0  0  0  0
   -2.6042    0.2536   -0.2095 C   0  0  0  0  0  0  0  0  0  0  0  0
   -2.0400    1.1842   -0.0717 H   0  0  0  0  0  0  0  0  0  0  0  0
   -4.0111    0.2685   -0.1655 C   0  0  0  0  0  0  0  0  0  0  0  0
   -4.7100   -0.9371   -0.3623 C   0  0  0  0  0  0  0  0  0  0  0  0
   -5.8121   -0.9341   -0.3341 H   0  0  0  0  0  0  0  0  0  0  0  0
   -4.0289   -2.1501   -0.6029 C   0  0  0  0  0  0  0  0  0  0  0  0
   -2.6239   -2.1404   -0.6283 C   0  0  0  0  0  0  0  0  0  0  0  0
   -2.0679   -3.0753   -0.8003 H   0  0  0  0  0  0  0  0  0  0  0  0
   -1.0232    2.8875   -3.5256 C   0  0  0  0  0  0  0  0  0  0  0  0
   -1.9221    3.4705   -3.8050 H   0  0  0  0  0  0  0  0  0  0  0  0
   -1.1555    1.8487   -3.8915 H   0  0  0  0  0  0  0  0  0  0  0  0
   -0.1582    3.3130   -4.0772 H   0  0  0  0  0  0  0  0  0  0  0  0
   -2.1185    4.6674    1.1020 C   0  0  0  0  0  0  0  0  0  0  0  0
   -3.1406    4.2554    1.2499 H   0  0  0  0  0  0  0  0  0  0  0  0
   -2.2411    5.6788    0.6645 H   0  0  0  0  0  0  0  0  0  0  0  0
   -1.6584    4.7799    2.1032 H   0  0  0  0  0  0  0  0  0  0  0  0
   -4.7380    1.5664    0.0929 C   0  0  0  0  0  0  0  0  0  0  0  0
   -5.8135    1.4956   -0.1614 H   0  0  0  0  0  0  0  0  0  0  0  0
   -4.2918    2.3948   -0.4942 H   0  0  0  0  0  0  0  0  0  0  0  0
   -4.6681    1.8602    1.1629 H   0  0  0  0  0  0  0  0  0  0  0  0
   -4.7984   -3.4255   -0.8480 C   0  0  0  0  0  0  0  0  0  0  0  0
   -5.1628   -3.4746   -1.8968 H   0  0  0  0  0  0  0  0  0  0  0  0
   -5.6908   -3.4976   -0.1941 H   0  0  0  0  0  0  0  0  0  0  0  0
   -4.1706   -4.3219   -0.6774 H   0  0  0  0  0  0  0  0  0  0  0  0
  4 13  1  0  0  0  0
  4  2  1  0  0  0  0
  5  4  2  0  0  0  0
  6  5  1  0  0  0  0
  7  9  2  0  0  0  0
  7  5  1  0  0  0  0
  8  7  1  0  0  0  0
  9 11  1  0  0  0  0
 10  9  1  0  0  0  0
 11 12  1  0  0  0  0
 11 13  2  0  0  0  0
 13  1  1  0  0  0  0
 14 23  1  0  0  0  0
 14  3  1  0  0  0  0
 15 14  2  0  0  0  0
 16 15  1  0  0  0  0
 17 19  2  0  0  0  0
 17 15  1  0  0  0  0
 18 17  1  0  0  0  0
 19 21  1  0  0  0  0
 20 19  1  0  0  0  0
 21 22  1  0  0  0  0
 21 23  2  0  0  0  0
 23  1  1  0  0  0  0
 24  2  1  0  0  0  0
 24 31  1  0  0  0  0
 25 24  2  0  0  0  0
 26 25  1  0  0  0  0
 27 25  1  0  0  0  0
 27 28  2  0  0  0  0
 28 30  1  0  0  0  0
 29 28  1  0  0  0  0
 30 31  2  0  0  0  0
 30 46  1  0  0  0  0
 31 32  1  0  0  0  0
 33  3  1  0  0  0  0
 33 34  1  0  0  0  0
 34 36  2  0  0  0  0
 34 35  1  0  0  0  0
 36 50  1  0  0  0  0
 37 38  1  0  0  0  0
 37 36  1  0  0  0  0
 39 37  2  0  0  0  0
 40 39  1  0  0  0  0
 40 33  2  0  0  0  0
 41 40  1  0  0  0  0
 42 27  1  0  0  0  0
 43 42  1  0  0  0  0
 44 42  1  0  0  0  0
 45 42  1  0  0  0  0
 46 47  1  0  0  0  0
 46 49  1  0  0  0  0
 48 46  1  0  0  0  0
 50 53  1  0  0  0  0
 51 50  1  0  0  0  0
 52 50  1  0  0  0  0
 54 57  1  0  0  0  0
 54 39  1  0  0  0  0
 54 56  1  0  0  0  0
 55 54  1  0  0  0  0
M  END
