1,2
 OpenBabel05122313053D

 83 85  0  0  1  0  0  0  0  0999 V2000
   -0.1909   -1.5460   -0.3370 N   0  0  0  0  0  2  0  0  0  0  0  0
   -2.8050   -0.9769   -0.3067 N   0  0  0  0  0  2  0  0  0  0  0  0
    3.3001   -0.5146   -0.2618 N   0  0  0  0  0  2  0  0  0  0  0  0
   -4.2174   -0.0153    1.4909 N   0  0  0  0  0  0  0  0  0  0  0  0
   -4.8891    0.1711   -0.6261 N   0  0  0  0  0  0  0  0  0  0  0  0
    5.5740    0.0760   -0.0606 N   0  0  0  0  0  0  0  0  0  0  0  0
    4.1901    1.8306   -0.1089 N   0  0  0  0  0  0  0  0  0  0  0  0
   -0.9910   -2.6078   -0.0901 C   0  0  1  0  0  3  0  0  0  0  0  0
   -0.4537   -3.8849    0.1392 C   0  0  0  0  0  0  0  0  0  0  0  0
   -1.1281   -4.7317    0.3387 H   0  0  0  0  0  0  0  0  0  0  0  0
    0.9365   -4.0497    0.1249 C   0  0  0  0  0  0  0  0  0  0  0  0
    1.3811   -5.0391    0.3129 H   0  0  0  0  0  0  0  0  0  0  0  0
    1.7569   -2.9384   -0.1230 C   0  0  0  0  0  0  0  0  0  0  0  0
    2.8528   -3.0014   -0.1329 H   0  0  0  0  0  0  0  0  0  0  0  0
    1.1604   -1.6944   -0.3595 C   0  0  0  0  0  0  0  0  0  0  0  0
   -2.4885   -2.3525   -0.0638 C   0  0  0  0  0  0  0  0  0  0  0  0
   -2.9360   -3.0264   -0.8466 H   0  0  0  0  0  0  0  0  0  0  0  0
   -2.8864   -2.7545    0.9009 H   0  0  0  0  0  0  0  0  0  0  0  0
    1.9392   -0.4329   -0.6633 C   0  0  0  0  0  0  0  0  0  0  0  0
    1.8353   -0.2789   -1.7726 H   0  0  0  0  0  0  0  0  0  0  0  0
    1.3126    0.3852   -0.2268 H   0  0  0  0  0  0  0  0  0  0  0  0
   -3.8718   -0.3627    0.1714 C   0  0  1  0  0  3  0  0  0  0  0  0
   -5.4199    0.6889    1.4679 C   0  0  0  0  0  0  0  0  0  0  0  0
   -5.8951    1.0665    2.3753 H   0  0  0  0  0  0  0  0  0  0  0  0
   -5.8227    0.8153    0.1724 C   0  0  0  0  0  0  0  0  0  0  0  0
   -6.7120    1.3031   -0.2275 H   0  0  0  0  0  0  0  0  0  0  0  0
    4.2075    0.4155   -0.1699 C   0  0  2  0  0  3  0  0  0  0  0  0
    6.3412    1.2317    0.0507 C   0  0  0  0  0  0  0  0  0  0  0  0
    7.4285    1.2153    0.1284 H   0  0  0  0  0  0  0  0  0  0  0  0
    5.5006    2.3000    0.0157 C   0  0  0  0  0  0  0  0  0  0  0  0
    5.7416    3.3622    0.0550 H   0  0  0  0  0  0  0  0  0  0  0  0
   -3.3466    0.0820    2.7157 C   0  0  0  0  0  0  0  0  0  0  0  0
   -2.9318    1.5602    2.8693 C   0  0  0  0  0  0  0  0  0  0  0  0
   -2.3719    1.9015    1.9730 H   0  0  0  0  0  0  0  0  0  0  0  0
   -2.2833    1.6778    3.7604 H   0  0  0  0  0  0  0  0  0  0  0  0
   -3.8149    2.2164    3.0000 H   0  0  0  0  0  0  0  0  0  0  0  0
   -2.0790   -0.7746    2.6336 C   0  0  0  0  0  0  0  0  0  0  0  0
   -2.3059   -1.8550    2.5667 H   0  0  0  0  0  0  0  0  0  0  0  0
   -1.5020   -0.6121    3.5645 H   0  0  0  0  0  0  0  0  0  0  0  0
   -1.4391   -0.4833    1.7791 H   0  0  0  0  0  0  0  0  0  0  0  0
   -4.1734   -0.3947    3.9246 C   0  0  0  0  0  0  0  0  0  0  0  0
   -5.0590    0.2417    4.1173 H   0  0  0  0  0  0  0  0  0  0  0  0
   -3.5434   -0.3608    4.8348 H   0  0  0  0  0  0  0  0  0  0  0  0
   -4.5177   -1.4382    3.7791 H   0  0  0  0  0  0  0  0  0  0  0  0
   -4.9191    0.1125   -2.1202 C   0  0  0  0  0  0  0  0  0  0  0  0
   -3.7687    0.9691   -2.6744 C   0  0  0  0  0  0  0  0  0  0  0  0
   -3.8477    2.0163   -2.3241 H   0  0  0  0  0  0  0  0  0  0  0  0
   -3.7876    0.9555   -3.7825 H   0  0  0  0  0  0  0  0  0  0  0  0
   -2.7922    0.5840   -2.3247 H   0  0  0  0  0  0  0  0  0  0  0  0
   -6.2594    0.6746   -2.6184 C   0  0  0  0  0  0  0  0  0  0  0  0
   -7.1239    0.1020   -2.2260 H   0  0  0  0  0  0  0  0  0  0  0  0
   -6.2794    0.6008   -3.7224 H   0  0  0  0  0  0  0  0  0  0  0  0
   -6.3851    1.7444   -2.3592 H   0  0  0  0  0  0  0  0  0  0  0  0
   -4.7913   -1.3506   -2.5832 C   0  0  0  0  0  0  0  0  0  0  0  0
   -3.8023   -1.7556   -2.3085 H   0  0  0  0  0  0  0  0  0  0  0  0
   -4.9022   -1.3988   -3.6846 H   0  0  0  0  0  0  0  0  0  0  0  0
   -5.5814   -1.9799   -2.1259 H   0  0  0  0  0  0  0  0  0  0  0  0
    6.0964   -1.3167   -0.0386 C   0  0  0  0  0  0  0  0  0  0  0  0
    7.6282   -1.2911    0.0765 C   0  0  0  0  0  0  0  0  0  0  0  0
    8.1022   -0.7819   -0.7864 H   0  0  0  0  0  0  0  0  0  0  0  0
    7.9955   -2.3354    0.0914 H   0  0  0  0  0  0  0  0  0  0  0  0
    7.9682   -0.8047    1.0124 H   0  0  0  0  0  0  0  0  0  0  0  0
    5.5181   -2.0485    1.1886 C   0  0  0  0  0  0  0  0  0  0  0  0
    5.8737   -1.5706    2.1237 H   0  0  0  0  0  0  0  0  0  0  0  0
    5.8442   -3.1080    1.1924 H   0  0  0  0  0  0  0  0  0  0  0  0
    4.4137   -2.0025    1.1663 H   0  0  0  0  0  0  0  0  0  0  0  0
    5.7131   -2.0273   -1.3519 C   0  0  0  0  0  0  0  0  0  0  0  0
    4.6153   -2.0202   -1.4772 H   0  0  0  0  0  0  0  0  0  0  0  0
    6.0771   -3.0742   -1.3377 H   0  0  0  0  0  0  0  0  0  0  0  0
    6.1731   -1.5093   -2.2175 H   0  0  0  0  0  0  0  0  0  0  0  0
    2.9810    2.7016    0.0023 C   0  0  0  0  0  0  0  0  0  0  0  0
    2.1285    2.2343    1.2061 C   0  0  0  0  0  0  0  0  0  0  0  0
    2.1223    1.1351    1.3064 H   0  0  0  0  0  0  0  0  0  0  0  0
    1.0790    2.5716    1.0928 H   0  0  0  0  0  0  0  0  0  0  0  0
    2.5502    2.6396    2.1481 H   0  0  0  0  0  0  0  0  0  0  0  0
    2.2258    2.7192   -1.3429 C   0  0  0  0  0  0  0  0  0  0  0  0
    2.8691    3.1779   -2.1207 H   0  0  0  0  0  0  0  0  0  0  0  0
    1.2863    3.2968   -1.2471 H   0  0  0  0  0  0  0  0  0  0  0  0
    1.9378    1.7151   -1.6885 H   0  0  0  0  0  0  0  0  0  0  0  0
    3.4088    4.1531    0.2851 C   0  0  0  0  0  0  0  0  0  0  0  0
    3.9914    4.2422    1.2232 H   0  0  0  0  0  0  0  0  0  0  0  0
    2.4895    4.7589    0.4002 H   0  0  0  0  0  0  0  0  0  0  0  0
    3.9926    4.5907   -0.5493 H   0  0  0  0  0  0  0  0  0  0  0  0
  1  8  1  0  0  0  0
  2 16  1  0  0  0  0
  4 32  1  0  0  0  0
  5 22  1  0  0  0  0
  5 25  1  0  0  0  0
  6 58  1  0  0  0  0
  6 28  1  0  0  0  0
  7 71  1  0  0  0  0
  7 30  1  0  0  0  0
  8 16  1  1  0  0  0
  8  9  1  0  0  0  0
  9 10  1  0  0  0  0
 11  9  2  0  0  0  0
 11 12  1  0  0  0  0
 13 11  1  0  0  0  0
 14 13  1  0  0  0  0
 15  1  1  0  0  0  0
 15 13  2  0  0  0  0
 16 18  1  0  0  0  0
 17 16  1  0  0  0  0
 19 15  1  0  0  0  0
 19  3  1  0  0  0  0
 19 21  1  0  0  0  0
 20 19  1  0  0  0  0
 22  2  1  6  0  0  0
 22  4  1  0  0  0  0
 23  4  1  0  0  0  0
 23 24  1  0  0  0  0
 25 23  2  0  0  0  0
 26 25  1  0  0  0  0
 27  3  1  1  0  0  0
 27  7  1  0  0  0  0
 27  6  1  0  0  0  0
 28 29  1  0  0  0  0
 30 28  2  0  0  0  0
 30 31  1  0  0  0  0
 32 33  1  0  0  0  0
 32 41  1  0  0  0  0
 33 36  1  0  0  0  0
 33 35  1  0  0  0  0
 34 33  1  0  0  0  0
 37 32  1  0  0  0  0
 37 39  1  0  0  0  0
 38 37  1  0  0  0  0
 40 37  1  0  0  0  0
 41 42  1  0  0  0  0
 41 43  1  0  0  0  0
 44 41  1  0  0  0  0
 45  5  1  0  0  0  0
 46 49  1  0  0  0  0
 46 47  1  0  0  0  0
 46 45  1  0  0  0  0
 48 46  1  0  0  0  0
 50 53  1  0  0  0  0
 50 51  1  0  0  0  0
 50 45  1  0  0  0  0
 52 50  1  0  0  0  0
 54 55  1  0  0  0  0
 54 57  1  0  0  0  0
 54 45  1  0  0  0  0
 56 54  1  0  0  0  0
 58 59  1  0  0  0  0
 58 63  1  0  0  0  0
 59 61  1  0  0  0  0
 59 62  1  0  0  0  0
 60 59  1  0  0  0  0
 63 65  1  0  0  0  0
 63 64  1  0  0  0  0
 66 63  1  0  0  0  0
 67 69  1  0  0  0  0
 67 58  1  0  0  0  0
 68 67  1  0  0  0  0
 70 67  1  0  0  0  0
 71 80  1  0  0  0  0
 71 72  1  0  0  0  0
 72 73  1  0  0  0  0
 72 75  1  0  0  0  0
 74 72  1  0  0  0  0
 76 78  1  0  0  0  0
 76 71  1  0  0  0  0
 77 76  1  0  0  0  0
 79 76  1  0  0  0  0
 80 82  1  0  0  0  0
 80 81  1  0  0  0  0
 83 80  1  0  0  0  0
M  END
