1,2
 OpenBabel05122313053D

 39 42  0  0  0  0  0  0  0  0999 V2000
   -1.5516   -0.5955   -1.4624 N   0  0  0  0  0  0  0  0  0  0  0  0
   -1.0964    0.7829    0.9722 N   0  0  0  0  0  0  0  0  0  0  0  0
   -4.0565   -0.7340    2.0861 C   0  0  0  0  0  0  0  0  0  0  0  0
   -3.7340    0.1626    2.6362 H   0  0  0  0  0  0  0  0  0  0  0  0
   -4.5572   -1.8474    2.7756 C   0  0  0  0  0  0  0  0  0  0  0  0
   -4.6347   -1.8173    3.8740 H   0  0  0  0  0  0  0  0  0  0  0  0
   -4.9376   -3.0023    2.0743 C   0  0  0  0  0  0  0  0  0  0  0  0
   -5.3148   -3.8838    2.6163 H   0  0  0  0  0  0  0  0  0  0  0  0
   -4.8156   -3.0282    0.6767 C   0  0  0  0  0  0  0  0  0  0  0  0
   -5.0965   -3.9326    0.1143 H   0  0  0  0  0  0  0  0  0  0  0  0
   -4.3186   -1.9115   -0.0119 C   0  0  0  0  0  0  0  0  0  0  0  0
   -4.2087   -1.9400   -1.1060 H   0  0  0  0  0  0  0  0  0  0  0  0
   -3.9325   -0.7506    0.6838 C   0  0  0  0  0  0  0  0  0  0  0  0
   -5.9080    1.1762   -0.0726 C   0  0  0  0  0  0  0  0  0  0  0  0
   -6.1511    0.2347    0.4393 H   0  0  0  0  0  0  0  0  0  0  0  0
   -6.9362    2.0801   -0.3978 C   0  0  0  0  0  0  0  0  0  0  0  0
   -7.9771    1.8346   -0.1340 H   0  0  0  0  0  0  0  0  0  0  0  0
   -6.6407    3.2832   -1.0516 C   0  0  0  0  0  0  0  0  0  0  0  0
   -7.4448    3.9916   -1.3060 H   0  0  0  0  0  0  0  0  0  0  0  0
   -5.3048    3.5774   -1.3798 C   0  0  0  0  0  0  0  0  0  0  0  0
   -5.0567    4.5193   -1.8939 H   0  0  0  0  0  0  0  0  0  0  0  0
   -4.2837    2.6765   -1.0547 C   0  0  0  0  0  0  0  0  0  0  0  0
   -3.2387    2.9062   -1.3083 H   0  0  0  0  0  0  0  0  0  0  0  0
   -4.5705    1.4611   -0.3946 C   0  0  0  0  0  0  0  0  0  0  0  0
   -3.4048    0.4988   -0.0741 C   0  0  0  0  0  0  0  0  0  0  0  0
   -1.3819   -0.9836   -2.7999 C   0  0  0  0  0  0  0  0  0  0  0  0
   -0.4704   -1.5058   -3.1042 H   0  0  0  0  0  0  0  0  0  0  0  0
   -2.4632   -0.5722   -3.5553 C   0  0  0  0  0  0  0  0  0  0  0  0
   -2.5957   -0.7287   -4.6328 H   0  0  0  0  0  0  0  0  0  0  0  0
   -3.3631    0.0954   -2.6591 C   0  0  0  0  0  0  0  0  0  0  0  0
   -4.3403    0.5279   -2.8998 H   0  0  0  0  0  0  0  0  0  0  0  0
   -2.7820    0.0710   -1.3953 C   0  0  0  0  0  3  0  0  0  0  0  0
   -0.4842    1.6517    1.8828 C   0  0  0  0  0  3  0  0  0  0  0  0
    0.5646    1.5162    2.1636 H   0  0  0  0  0  0  0  0  0  0  0  0
   -1.3827    2.6266    2.2797 C   0  0  0  0  0  0  0  0  0  0  0  0
   -1.1775    3.4443    2.9814 H   0  0  0  0  0  0  0  0  0  0  0  0
   -2.6099    2.3653    1.5881 C   0  0  0  0  0  0  0  0  0  0  0  0
   -3.5454    2.9316    1.6552 H   0  0  0  0  0  0  0  0  0  0  0  0
   -2.4011    1.2407    0.7931 C   0  0  0  0  0  0  0  0  0  0  0  0
  1 32  1  0  0  0  0
  2 33  1  0  0  0  0
  3  4  1  0  0  0  0
  3  5  1  0  0  0  0
  5  6  1  0  0  0  0
  7  8  1  0  0  0  0
  7  5  2  0  0  0  0
  9  7  1  0  0  0  0
 10  9  1  0  0  0  0
 11  9  2  0  0  0  0
 11 13  1  0  0  0  0
 12 11  1  0  0  0  0
 13  3  2  0  0  0  0
 14 15  1  0  0  0  0
 16 17  1  0  0  0  0
 16 14  2  0  0  0  0
 18 16  1  0  0  0  0
 19 18  1  0  0  0  0
 20 22  1  0  0  0  0
 20 18  2  0  0  0  0
 21 20  1  0  0  0  0
 22 24  2  0  0  0  0
 23 22  1  0  0  0  0
 24 25  1  0  0  0  0
 24 14  1  0  0  0  0
 25 13  1  0  0  0  0
 25 39  1  0  0  0  0
 26  1  2  0  0  0  0
 27 26  1  0  0  0  0
 28 26  1  0  0  0  0
 28 30  2  0  0  0  0
 29 28  1  0  0  0  0
 30 32  1  0  0  0  0
 31 30  1  0  0  0  0
 32 25  1  0  0  0  0
 33 34  1  0  0  0  0
 33 35  1  0  0  0  0
 35 36  1  0  0  0  0
 37 38  1  0  0  0  0
 37 35  2  0  0  0  0
 39  2  2  0  0  0  0
 39 37  1  0  0  0  0
M  END
