1,4
 OpenBabel05122313053D

 25 26  0  0  0  0  0  0  0  0999 V2000
   -1.9339    0.7305   -0.2225 N   0  0  0  0  0  2  0  0  0  0  0  0
   -0.7666    2.7759    0.1482 N   0  0  0  0  0  0  0  0  0  0  0  0
   -0.9081    3.7804    0.2578 H   0  0  0  0  0  0  0  0  0  0  0  0
    1.0020    1.2068   -0.1031 N   0  0  0  0  0  2  0  0  0  0  0  0
    3.1788    2.0866    0.2247 N   0  0  0  0  0  0  0  0  0  0  0  0
   -3.0637    0.1091   -0.6526 C   0  0  0  0  0  3  0  0  0  0  0  0
   -2.9810   -0.9790   -0.7778 H   0  0  0  0  0  0  0  0  0  0  0  0
   -4.2511    0.7866   -0.9228 C   0  0  0  0  0  0  0  0  0  0  0  0
   -5.1359    0.2227   -1.2473 H   0  0  0  0  0  0  0  0  0  0  0  0
   -4.2803    2.1824   -0.7662 C   0  0  0  0  0  0  0  0  0  0  0  0
   -5.1991    2.7560   -0.9572 H   0  0  0  0  0  0  0  0  0  0  0  0
   -3.1096    2.8380   -0.3900 C   0  0  0  0  0  0  0  0  0  0  0  0
   -3.0754    3.9342   -0.3025 H   0  0  0  0  0  0  0  0  0  0  0  0
   -1.9426    2.0794   -0.1469 C   0  0  0  0  0  0  0  0  0  0  0  0
    0.5464    2.4191    0.0085 C   0  0  0  0  0  3  0  0  0  0  0  0
    1.2629    3.2615    0.0322 H   0  0  0  0  0  0  0  0  0  0  0  0
    2.4225    1.1003   -0.2791 C   0  0  0  0  0  0  0  0  0  0  0  0
    2.9519   -0.0091   -0.9661 C   0  0  0  0  0  0  0  0  0  0  0  0
    2.2713   -0.7565   -1.4027 H   0  0  0  0  0  0  0  0  0  0  0  0
    4.3438   -0.0919   -1.0914 C   0  0  0  0  0  0  0  0  0  0  0  0
    4.7949   -0.9464   -1.6177 H   0  0  0  0  0  0  0  0  0  0  0  0
    5.1467    0.9202   -0.5441 C   0  0  0  0  0  0  0  0  0  0  0  0
    6.2436    0.8838   -0.6125 H   0  0  0  0  0  0  0  0  0  0  0  0
    4.5096    1.9954    0.0950 C   0  0  0  0  0  0  0  0  0  0  0  0
    5.1009    2.8199    0.5307 H   0  0  0  0  0  0  0  0  0  0  0  0
  1 14  1  0  0  0  0
  2  3  1  0  0  0  0
  4 15  1  0  0  0  0
  6  1  1  0  0  0  0
  7  6  1  0  0  0  0
  8 10  2  0  0  0  0
  8  6  1  0  0  0  0
  9  8  1  0  0  0  0
 10 12  1  0  0  0  0
 11 10  1  0  0  0  0
 12 13  1  0  0  0  0
 12 14  2  0  0  0  0
 14  2  1  0  0  0  0
 15 16  1  0  0  0  0
 15  2  1  0  0  0  0
 17  4  1  0  0  0  0
 17  5  2  0  0  0  0
 18 17  1  0  0  0  0
 19 18  1  0  0  0  0
 20 18  2  0  0  0  0
 20 22  1  0  0  0  0
 21 20  1  0  0  0  0
 22 24  2  0  0  0  0
 23 22  1  0  0  0  0
 24  5  1  0  0  0  0
 24 25  1  0  0  0  0
M  END
