1,2
 OpenBabel05122313053D

 25 26  0  0  0  0  0  0  0  0999 V2000
   -2.2238    1.2809    0.0004 N   0  0  0  0  0  2  0  0  0  0  0  0
   -0.0202    1.0012   -0.0003 N   0  0  0  0  0  2  0  0  0  0  0  0
    2.0982    0.1609   -0.0004 N   0  0  0  0  0  0  0  0  0  0  0  0
    4.0722    1.4131    0.0000 N   0  0  0  0  0  0  0  0  0  0  0  0
   -3.3761    1.9681    0.0006 C   0  0  0  0  0  3  0  0  0  0  0  0
   -3.3955    3.3710    0.0004 C   0  0  0  0  0  0  0  0  0  0  0  0
   -2.1747    4.0662   -0.0001 C   0  0  0  0  0  0  0  0  0  0  0  0
   -0.9659    3.3532   -0.0003 C   0  0  0  0  0  0  0  0  0  0  0  0
   -1.0360    1.9513   -0.0001 C   0  0  0  0  0  0  0  0  0  0  0  0
    1.2672    1.2251   -0.0002 C   0  0  0  0  0  3  0  0  0  0  0  0
    3.4975    0.2022   -0.0003 C   0  0  0  0  0  0  0  0  0  0  0  0
    4.2159   -1.0141   -0.0004 C   0  0  0  0  0  0  0  0  0  0  0  0
    5.6109   -0.9379   -0.0002 C   0  0  0  0  0  0  0  0  0  0  0  0
    6.2313    0.3236    0.0001 C   0  0  0  0  0  0  0  0  0  0  0  0
    5.4125    1.4631    0.0002 C   0  0  0  0  0  0  0  0  0  0  0  0
    1.6255   -0.7569   -0.0006 H   0  0  0  0  0  0  0  0  0  0  0  0
   -4.3007    1.3704    0.0010 H   0  0  0  0  0  0  0  0  0  0  0  0
   -4.3551    3.9063    0.0006 H   0  0  0  0  0  0  0  0  0  0  0  0
   -2.1620    5.1664   -0.0003 H   0  0  0  0  0  0  0  0  0  0  0  0
    0.0026    3.8724   -0.0008 H   0  0  0  0  0  0  0  0  0  0  0  0
    1.7530    2.2175    0.0001 H   0  0  0  0  0  0  0  0  0  0  0  0
    3.6823   -1.9770   -0.0006 H   0  0  0  0  0  0  0  0  0  0  0  0
    6.2114   -1.8599   -0.0003 H   0  0  0  0  0  0  0  0  0  0  0  0
    7.3260    0.4234    0.0002 H   0  0  0  0  0  0  0  0  0  0  0  0
    5.8601    2.4724    0.0004 H   0  0  0  0  0  0  0  0  0  0  0  0
  1  5  1  0  0  0  0
  2 10  1  0  0  0  0
  2  9  1  0  0  0  0
  3 11  1  0  0  0  0
  3 10  1  0  0  0  0
  4 15  1  0  0  0  0
  5 17  1  0  0  0  0
  6 18  1  0  0  0  0
  6  5  1  0  0  0  0
  7  6  2  0  0  0  0
  8  7  1  0  0  0  0
  8  9  2  0  0  0  0
  9  1  1  0  0  0  0
 10 21  1  0  0  0  0
 11  4  2  0  0  0  0
 12 11  1  0  0  0  0
 12 13  2  0  0  0  0
 13 14  1  0  0  0  0
 14 15  2  0  0  0  0
 14 24  1  0  0  0  0
 15 25  1  0  0  0  0
 16  3  1  0  0  0  0
 19  7  1  0  0  0  0
 20  8  1  0  0  0  0
 22 12  1  0  0  0  0
 23 13  1  0  0  0  0
M  END
