1,2
 OpenBabel05122313053D

 36 37  0  0  1  0  0  0  0  0999 V2000
   -1.4579    0.9400   -0.1704 N   0  0  0  0  0  2  0  0  0  0  0  0
    1.4618    0.9440   -0.1418 N   0  0  0  0  0  2  0  0  0  0  0  0
   -3.5410    0.3086   -1.3330 C   0  0  0  0  0  0  0  0  0  0  0  0
   -3.0931    0.6323   -2.2850 H   0  0  0  0  0  0  0  0  0  0  0  0
   -4.8350   -0.2355   -1.2958 C   0  0  0  0  0  0  0  0  0  0  0  0
   -5.4096   -0.3410   -2.2290 H   0  0  0  0  0  0  0  0  0  0  0  0
   -2.4764    3.1741   -0.2060 C   0  0  0  0  0  0  0  0  0  0  0  0
   -3.0929    3.0273   -1.1150 H   0  0  0  0  0  0  0  0  0  0  0  0
   -2.1678    4.2335   -0.1570 H   0  0  0  0  0  0  0  0  0  0  0  0
   -3.1372    2.9543    0.6569 H   0  0  0  0  0  0  0  0  0  0  0  0
   -3.3616    0.0417    1.0825 C   0  0  0  0  0  0  0  0  0  0  0  0
   -2.7457    0.1418    1.9897 H   0  0  0  0  0  0  0  0  0  0  0  0
   -0.0008    2.8813   -0.1861 C   0  0  0  0  0  0  0  0  0  0  0  0
   -0.0025    3.9779   -0.1927 H   0  0  0  0  0  0  0  0  0  0  0  0
   -1.2654    2.2627   -0.1938 C   0  0  0  0  0  0  0  0  0  0  0  0
    4.6403   -0.5701    1.0966 C   0  0  0  0  0  0  0  0  0  0  0  0
    5.0632   -0.9412    2.0430 H   0  0  0  0  0  0  0  0  0  0  0  0
    1.2654    2.2665   -0.1689 C   0  0  1  0  0  3  0  0  0  0  0  0
   -2.7920    0.4422   -0.1459 C   0  0  0  0  0  0  0  0  0  0  0  0
    3.3489   -0.0252    1.0833 C   0  0  0  0  0  0  0  0  0  0  0  0
    2.7239    0.0280    1.9883 H   0  0  0  0  0  0  0  0  0  0  0  0
    4.8526   -0.1629   -1.2888 C   0  0  0  0  0  0  0  0  0  0  0  0
    5.4380   -0.2167   -2.2198 H   0  0  0  0  0  0  0  0  0  0  0  0
    2.7966    0.4494   -0.1259 C   0  0  0  0  0  0  0  0  0  0  0  0
   -4.6545   -0.4982    1.1122 C   0  0  0  0  0  0  0  0  0  0  0  0
   -5.0900   -0.8114    2.0738 H   0  0  0  0  0  0  0  0  0  0  0  0
   -5.3950   -0.6436   -0.0747 C   0  0  0  0  0  0  0  0  0  0  0  0
   -6.4085   -1.0715   -0.0470 H   0  0  0  0  0  0  0  0  0  0  0  0
    3.5595    0.3831   -1.3104 C   0  0  0  0  0  0  0  0  0  0  0  0
    3.1171    0.7485   -2.2498 H   0  0  0  0  0  0  0  0  0  0  0  0
    2.4724    3.1837   -0.1559 C   0  0  0  0  0  0  0  0  0  0  0  0
    3.1414    2.9353    0.6926 H   0  0  0  0  0  0  0  0  0  0  0  0
    2.1576    4.2386   -0.0645 H   0  0  0  0  0  0  0  0  0  0  0  0
    3.0819    3.0777   -1.0752 H   0  0  0  0  0  0  0  0  0  0  0  0
    5.3964   -0.6443   -0.0869 C   0  0  0  0  0  0  0  0  0  0  0  0
    6.4088   -1.0754   -0.0717 H   0  0  0  0  0  0  0  0  0  0  0  0
  1 19  1  0  0  0  0
  2 24  1  0  0  0  0
  3  5  2  0  0  0  0
  3 19  1  0  0  0  0
  4  3  1  0  0  0  0
  5 27  1  0  0  0  0
  6  5  1  0  0  0  0
  7 15  1  0  0  0  0
  7  9  1  0  0  0  0
  7 10  1  0  0  0  0
  8  7  1  0  0  0  0
 11 25  1  0  0  0  0
 11 12  1  0  0  0  0
 14 13  1  0  0  0  0
 15 13  2  0  0  0  0
 15  1  1  0  0  0  0
 16 17  1  0  0  0  0
 18 13  1  1  0  0  0
 18 31  1  0  0  0  0
 18  2  1  0  0  0  0
 19 11  2  0  0  0  0
 20 16  1  0  0  0  0
 20 21  1  0  0  0  0
 22 35  1  0  0  0  0
 23 22  1  0  0  0  0
 24 20  2  0  0  0  0
 25 26  1  0  0  0  0
 27 28  1  0  0  0  0
 27 25  2  0  0  0  0
 29 22  2  0  0  0  0
 29 24  1  0  0  0  0
 30 29  1  0  0  0  0
 31 33  1  0  0  0  0
 31 32  1  0  0  0  0
 34 31  1  0  0  0  0
 35 36  1  0  0  0  0
 35 16  2  0  0  0  0
M  END
