2,12
 OpenBabel05122313053D

 20 21  0  0  0  0  0  0  0  0999 V2000
    7.8806   -3.7686    1.5187 Br  0  0  0  0  0  0  0  0  0  0  0  0
    4.1225   -1.1971    0.4833 N   0  0  0  0  0  2  0  0  0  0  0  0
    5.3788   -0.6780    0.2733 C   0  0  0  0  0  0  0  0  0  0  0  0
    6.5242   -1.4360    0.5782 C   0  0  0  0  0  0  0  0  0  0  0  0
    7.5278   -1.0238    0.4116 H   0  0  0  0  0  0  0  0  0  0  0  0
    3.9743   -2.4432    0.9851 C   0  0  0  0  0  0  0  0  0  0  0  0
    2.9313   -2.7731    1.1183 H   0  0  0  0  0  0  0  0  0  0  0  0
    5.0680   -3.2438    1.3072 C   0  0  0  0  0  0  0  0  0  0  0  0
    4.9157   -4.2521    1.7136 H   0  0  0  0  0  0  0  0  0  0  0  0
    6.3644   -2.7245    1.0976 C   0  0  0  0  0  0  0  0  0  0  0  0
    7.8805    3.7686   -1.5187 Br  0  0  0  0  0  0  0  0  0  0  0  0
    4.1225    1.1971   -0.4832 N   0  0  0  0  0  2  0  0  0  0  0  0
    5.3788    0.6781   -0.2733 C   0  0  0  0  0  0  0  0  0  0  0  0
    6.5242    1.4360   -0.5782 C   0  0  0  0  0  0  0  0  0  0  0  0
    7.5278    1.0239   -0.4116 H   0  0  0  0  0  0  0  0  0  0  0  0
    3.9743    2.4433   -0.9850 C   0  0  0  0  0  0  0  0  0  0  0  0
    2.9313    2.7732   -1.1182 H   0  0  0  0  0  0  0  0  0  0  0  0
    5.0679    3.2438   -1.3072 C   0  0  0  0  0  0  0  0  0  0  0  0
    4.9156    4.2522   -1.7135 H   0  0  0  0  0  0  0  0  0  0  0  0
    6.3644    2.7245   -1.0976 C   0  0  0  0  0  0  0  0  0  0  0  0
  2  6  1  0  0  0  0
  3  2  1  0  0  0  0
  3  4  1  0  0  0  0
  4 10  2  0  0  0  0
  5  4  1  0  0  0  0
  6  7  1  0  0  0  0
  6  8  2  0  0  0  0
  8  9  1  0  0  0  0
 10  8  1  0  0  0  0
 10  1  1  0  0  0  0
 11 20  1  0  0  0  0
 12 13  1  0  0  0  0
 13  3  2  0  0  0  0
 14 15  1  0  0  0  0
 14 13  1  0  0  0  0
 16 12  1  0  0  0  0
 17 16  1  0  0  0  0
 18 20  1  0  0  0  0
 18 16  2  0  0  0  0
 19 18  1  0  0  0  0
 20 14  2  0  0  0  0
M  END
