1,3
 OpenBabel05122313053D

 57 59  0  0  1  0  0  0  0  0999 V2000
   -1.8586    0.6753    1.0943 N   0  0  0  0  0  2  0  0  0  0  0  0
   -1.3151    1.9055    0.9320 N   0  0  0  0  0  0  0  0  0  0  0  0
   -0.7490    0.3667   -1.5902 N   0  0  0  0  0  2  0  0  0  0  0  0
   -0.4780    1.6599   -1.2837 N   0  0  0  0  0  0  0  0  0  0  0  0
    2.2022    1.5254   -1.3737 O   0  0  0  0  0  0  0  0  0  0  0  0
    2.8913    1.0798   -1.9013 H   0  0  0  0  0  0  0  0  0  0  0  0
   -1.4433    4.2542    1.8310 C   0  0  0  0  0  0  0  0  0  0  0  0
   -1.5638    4.7676    0.8540 H   0  0  0  0  0  0  0  0  0  0  0  0
   -0.3799    4.3497    2.1358 H   0  0  0  0  0  0  0  0  0  0  0  0
   -2.0536    4.8018    2.5717 H   0  0  0  0  0  0  0  0  0  0  0  0
   -1.8801    2.8277    1.7739 C   0  0  2  0  0  3  0  0  0  0  0  0
   -2.8545    2.1331    2.4939 C   0  0  0  0  0  0  0  0  0  0  0  0
   -3.5208    2.5501    3.2559 H   0  0  0  0  0  0  0  0  0  0  0  0
   -2.8089    0.7886    2.0377 C   0  0  0  0  0  0  0  0  0  0  0  0
   -3.6134   -0.3956    2.4628 C   0  0  0  0  0  0  0  0  0  0  0  0
   -2.9459   -1.1956    2.8438 H   0  0  0  0  0  0  0  0  0  0  0  0
   -4.1610   -0.8163    1.5951 H   0  0  0  0  0  0  0  0  0  0  0  0
   -4.3314   -0.1206    3.2565 H   0  0  0  0  0  0  0  0  0  0  0  0
   -0.0769    3.8927   -2.3715 C   0  0  0  0  0  0  0  0  0  0  0  0
    0.9741    4.0212   -2.0373 H   0  0  0  0  0  0  0  0  0  0  0  0
   -0.7308    4.4854   -1.6983 H   0  0  0  0  0  0  0  0  0  0  0  0
   -0.1665    4.3234   -3.3853 H   0  0  0  0  0  0  0  0  0  0  0  0
   -0.4465    2.4482   -2.4025 C   0  0  1  0  0  3  0  0  0  0  0  0
   -0.7343    1.6049   -3.4736 C   0  0  0  0  0  0  0  0  0  0  0  0
   -0.7964    1.8906   -4.5286 H   0  0  0  0  0  0  0  0  0  0  0  0
   -0.9215    0.3103   -2.9230 C   0  0  0  0  0  0  0  0  0  0  0  0
   -1.2921   -0.9597   -3.6149 C   0  0  0  0  0  0  0  0  0  0  0  0
   -1.0628   -1.8406   -2.9861 H   0  0  0  0  0  0  0  0  0  0  0  0
   -0.7592   -1.0478   -4.5812 H   0  0  0  0  0  0  0  0  0  0  0  0
   -2.3807   -0.9836   -3.8325 H   0  0  0  0  0  0  0  0  0  0  0  0
   -0.1339    2.0374    0.0854 C   0  0  2  0  0  0  0  0  0  0  0  0
    0.0997    3.1186    0.0407 H   0  0  0  0  0  0  0  0  0  0  0  0
    1.0374    1.2481    0.6656 C   0  0  0  0  0  0  0  0  0  0  0  0
    0.9896    0.7946    1.9955 C   0  0  0  0  0  0  0  0  0  0  0  0
    0.1166    1.0233    2.6219 H   0  0  0  0  0  0  0  0  0  0  0  0
    2.0111    0.0008    2.5300 C   0  0  0  0  0  0  0  0  0  0  0  0
    1.8912   -0.5986    3.9062 C   0  0  0  0  0  0  0  0  0  0  0  0
    2.8761   -0.6862    4.4065 H   0  0  0  0  0  0  0  0  0  0  0  0
    1.4674   -1.6224    3.8202 H   0  0  0  0  0  0  0  0  0  0  0  0
    1.2188   -0.0064    4.5572 H   0  0  0  0  0  0  0  0  0  0  0  0
    3.0791   -0.3475    1.6831 C   0  0  0  0  0  0  0  0  0  0  0  0
    3.8402   -1.0289    2.0830 H   0  0  0  0  0  0  0  0  0  0  0  0
    3.1878    0.0912    0.3540 C   0  0  0  0  0  0  0  0  0  0  0  0
    4.3057   -0.4290   -0.5748 C   0  0  0  0  0  0  0  0  0  0  0  0
    3.6611   -1.1716   -1.7766 C   0  0  0  0  0  0  0  0  0  0  0  0
    2.9372   -1.9250   -1.4080 H   0  0  0  0  0  0  0  0  0  0  0  0
    4.4449   -1.6727   -2.3800 H   0  0  0  0  0  0  0  0  0  0  0  0
    3.0967   -0.5195   -2.4781 H   0  0  0  0  0  0  0  0  0  0  0  0
    5.2216    0.7271   -1.0446 C   0  0  0  0  0  0  0  0  0  0  0  0
    5.9985    0.3465   -1.7392 H   0  0  0  0  0  0  0  0  0  0  0  0
    5.7335    1.1910   -0.1776 H   0  0  0  0  0  0  0  0  0  0  0  0
    4.6796    1.5432   -1.5649 H   0  0  0  0  0  0  0  0  0  0  0  0
    5.1949   -1.4616    0.1435 C   0  0  0  0  0  0  0  0  0  0  0  0
    4.6033   -2.3336    0.4855 H   0  0  0  0  0  0  0  0  0  0  0  0
    5.7151   -1.0235    1.0185 H   0  0  0  0  0  0  0  0  0  0  0  0
    5.9716   -1.8292   -0.5565 H   0  0  0  0  0  0  0  0  0  0  0  0
    2.1669    0.9534   -0.1304 C   0  0  0  0  0  0  0  0  0  0  0  0
  1 14  1  0  0  0  0
  2  1  1  0  0  0  0
  2 11  1  0  0  0  0
  3  4  1  0  0  0  0
  4 31  1  0  0  0  0
  5 57  1  0  0  0  0
  6  5  1  0  0  0  0
  7  9  1  0  0  0  0
  7 10  1  0  0  0  0
  8  7  1  0  0  0  0
 11  7  1  1  0  0  0
 11 12  1  0  0  0  0
 12 13  1  0  0  0  0
 14 15  1  0  0  0  0
 14 12  2  0  0  0  0
 15 16  1  0  0  0  0
 15 18  1  0  0  0  0
 17 15  1  0  0  0  0
 19 20  1  0  0  0  0
 19 21  1  0  0  0  0
 22 19  1  0  0  0  0
 23 19  1  6  0  0  0
 23  4  1  0  0  0  0
 24 26  2  0  0  0  0
 24 23  1  0  0  0  0
 25 24  1  0  0  0  0
 26  3  1  0  0  0  0
 27 28  1  0  0  0  0
 27 26  1  0  0  0  0
 29 27  1  0  0  0  0
 30 27  1  0  0  0  0
 31 32  1  6  0  0  0
 31 33  1  0  0  0  0
 31  2  1  0  0  0  0
 33 34  1  0  0  0  0
 34 36  2  0  0  0  0
 34 35  1  0  0  0  0
 36 37  1  0  0  0  0
 37 38  1  0  0  0  0
 37 40  1  0  0  0  0
 39 37  1  0  0  0  0
 41 42  1  0  0  0  0
 41 36  1  0  0  0  0
 43 41  2  0  0  0  0
 44 53  1  0  0  0  0
 44 43  1  0  0  0  0
 45 46  1  0  0  0  0
 45 44  1  0  0  0  0
 47 45  1  0  0  0  0
 48 45  1  0  0  0  0
 49 44  1  0  0  0  0
 49 51  1  0  0  0  0
 50 49  1  0  0  0  0
 52 49  1  0  0  0  0
 53 54  1  0  0  0  0
 53 55  1  0  0  0  0
 56 53  1  0  0  0  0
 57 43  1  0  0  0  0
 57 33  2  0  0  0  0
M  END
