1,2
 OpenBabel05122313053D

 27 28  0  0  1  0  0  0  0  0999 V2000
   -1.2533   -0.8551    1.1340 N   0  0  0  0  0  2  0  0  0  0  0  0
   -2.8707    0.9908   -0.4247 N   0  0  0  0  0  2  0  0  0  0  0  0
   -3.2067    2.2904   -0.5760 C   0  0  0  0  0  3  0  0  0  0  0  0
   -2.3767    2.9566   -0.8605 H   0  0  0  0  0  0  0  0  0  0  0  0
   -4.5219    2.7356   -0.4088 C   0  0  0  0  0  0  0  0  0  0  0  0
   -4.7558    3.8017   -0.5377 H   0  0  0  0  0  0  0  0  0  0  0  0
   -5.5115    1.8012   -0.0734 C   0  0  0  0  0  0  0  0  0  0  0  0
   -6.5543    2.1180    0.0794 H   0  0  0  0  0  0  0  0  0  0  0  0
   -5.1574    0.4519    0.0586 C   0  0  0  0  0  0  0  0  0  0  0  0
   -5.8894   -0.3252    0.3119 H   0  0  0  0  0  0  0  0  0  0  0  0
   -3.8198    0.0764   -0.1372 C   0  0  0  0  0  0  0  0  0  0  0  0
   -3.3886   -1.4014   -0.0660 C   0  0  2  0  0  0  0  0  0  0  0  0
   -4.5276   -2.2039    0.2337 O   0  0  0  0  0  0  0  0  0  0  0  0
   -4.8637   -2.5398   -0.6166 H   0  0  0  0  0  0  0  0  0  0  0  0
   -2.3904   -1.5987    1.0925 C   0  0  1  0  0  3  0  0  0  0  0  0
   -2.6688   -2.5540    2.0832 C   0  0  0  0  0  0  0  0  0  0  0  0
   -3.6006   -3.1251    1.9986 H   0  0  0  0  0  0  0  0  0  0  0  0
   -1.7656   -2.7548    3.1323 C   0  0  0  0  0  0  0  0  0  0  0  0
   -1.9735   -3.5043    3.9105 H   0  0  0  0  0  0  0  0  0  0  0  0
   -0.5989   -1.9822    3.1678 C   0  0  0  0  0  0  0  0  0  0  0  0
    0.1465   -2.0911    3.9679 H   0  0  0  0  0  0  0  0  0  0  0  0
   -0.3819   -1.0485    2.1538 C   0  0  0  0  0  0  0  0  0  0  0  0
    0.5141   -0.4174    2.1453 H   0  0  0  0  0  0  0  0  0  0  0  0
   -2.7894   -1.8482   -1.4114 C   0  0  0  0  0  0  0  0  0  0  0  0
   -2.4539   -2.9003   -1.3427 H   0  0  0  0  0  0  0  0  0  0  0  0
   -1.9218   -1.2238   -1.7028 H   0  0  0  0  0  0  0  0  0  0  0  0
   -3.5609   -1.7433   -2.2030 H   0  0  0  0  0  0  0  0  0  0  0  0
  1 22  1  0  0  0  0
  2 11  1  0  0  0  0
  3  2  1  0  0  0  0
  3  5  1  0  0  0  0
  4  3  1  0  0  0  0
  5  7  2  0  0  0  0
  6  5  1  0  0  0  0
  7  9  1  0  0  0  0
  7  8  1  0  0  0  0
  9 10  1  0  0  0  0
 11 12  1  0  0  0  0
 11  9  2  0  0  0  0
 12 13  1  1  0  0  0
 14 13  1  0  0  0  0
 15 12  1  6  0  0  0
 15  1  1  0  0  0  0
 15 16  1  0  0  0  0
 16 18  2  0  0  0  0
 17 16  1  0  0  0  0
 18 20  1  0  0  0  0
 18 19  1  0  0  0  0
 20 21  1  0  0  0  0
 22 20  2  0  0  0  0
 23 22  1  0  0  0  0
 24 25  1  0  0  0  0
 24 12  1  0  0  0  0
 26 24  1  0  0  0  0
 27 24  1  0  0  0  0
M  END
