2,3
 OpenBabel05122313053D

 63 66  0  0  1  0  0  0  0  0999 V2000
   -0.3707   -0.8981    0.4524 P   0  0  0  0  0  4  0  0  0  0  0  0
    2.1203   -0.4226    1.2434 N   0  0  0  0  0  2  0  0  0  0  0  0
   -0.1374    0.5316   -0.2687 N   0  0  0  0  0  2  0  0  0  0  0  0
   -0.9954    1.6338   -0.4967 C   0  0  0  0  0  0  0  0  0  0  0  0
   -0.8589    2.7884    0.3345 C   0  0  0  0  0  0  0  0  0  0  0  0
   -1.6746    3.9040    0.0799 C   0  0  0  0  0  0  0  0  0  0  0  0
   -1.5736    4.7990    0.7130 H   0  0  0  0  0  0  0  0  0  0  0  0
   -2.6129    3.8977   -0.9615 C   0  0  0  0  0  0  0  0  0  0  0  0
   -3.2437    4.7810   -1.1437 H   0  0  0  0  0  0  0  0  0  0  0  0
   -2.7384    2.7631   -1.7698 C   0  0  0  0  0  0  0  0  0  0  0  0
   -3.4725    2.7605   -2.5908 H   0  0  0  0  0  0  0  0  0  0  0  0
   -1.9382    1.6231   -1.5628 C   0  0  0  0  0  0  0  0  0  0  0  0
   -0.2030   -2.3464   -0.6537 C   0  0  0  0  0  0  0  0  0  0  0  0
    1.0865   -2.7747   -1.0377 C   0  0  0  0  0  0  0  0  0  0  0  0
    1.9817   -2.2962   -0.6124 H   0  0  0  0  0  0  0  0  0  0  0  0
    1.2280   -3.7827   -2.0023 C   0  0  0  0  0  0  0  0  0  0  0  0
    2.2360   -4.1040   -2.3036 H   0  0  0  0  0  0  0  0  0  0  0  0
    0.0931   -4.3659   -2.5879 C   0  0  0  0  0  0  0  0  0  0  0  0
    0.2092   -5.1526   -3.3488 H   0  0  0  0  0  0  0  0  0  0  0  0
   -1.1906   -3.9418   -2.2079 C   0  0  0  0  0  0  0  0  0  0  0  0
   -2.0827   -4.3928   -2.6682 H   0  0  0  0  0  0  0  0  0  0  0  0
   -1.3416   -2.9335   -1.2452 C   0  0  0  0  0  0  0  0  0  0  0  0
   -2.3494   -2.5965   -0.9646 H   0  0  0  0  0  0  0  0  0  0  0  0
   -1.9202   -1.1031    1.3920 C   0  0  0  0  0  0  0  0  0  0  0  0
   -2.6544    0.0361    1.7857 C   0  0  0  0  0  0  0  0  0  0  0  0
   -2.3296    1.0386    1.4736 H   0  0  0  0  0  0  0  0  0  0  0  0
   -3.8121   -0.1161    2.5628 C   0  0  0  0  0  0  0  0  0  0  0  0
   -4.3857    0.7753    2.8575 H   0  0  0  0  0  0  0  0  0  0  0  0
   -4.2360   -1.3934    2.9614 C   0  0  0  0  0  0  0  0  0  0  0  0
   -5.1452   -1.5069    3.5712 H   0  0  0  0  0  0  0  0  0  0  0  0
   -3.5002   -2.5279    2.5820 C   0  0  0  0  0  0  0  0  0  0  0  0
   -3.8286   -3.5306    2.8943 H   0  0  0  0  0  0  0  0  0  0  0  0
   -2.3464   -2.3877    1.7972 C   0  0  0  0  0  0  0  0  0  0  0  0
   -1.7788   -3.2805    1.4945 H   0  0  0  0  0  0  0  0  0  0  0  0
    1.0010   -1.0422    1.6854 C   0  0  1  0  0  3  0  0  0  0  0  0
    0.9259   -1.6545    2.9428 C   0  0  0  0  0  0  0  0  0  0  0  0
   -0.0032   -2.1412    3.2726 H   0  0  0  0  0  0  0  0  0  0  0  0
    2.0649   -1.6188    3.7643 C   0  0  0  0  0  0  0  0  0  0  0  0
    2.0436   -2.0821    4.7623 H   0  0  0  0  0  0  0  0  0  0  0  0
    3.2277   -0.9901    3.2924 C   0  0  0  0  0  0  0  0  0  0  0  0
    4.1400   -0.9503    3.9051 H   0  0  0  0  0  0  0  0  0  0  0  0
    3.2210   -0.4042    2.0187 C   0  0  0  0  0  0  0  0  0  0  0  0
    4.0988    0.0805    1.5562 H   0  0  0  0  0  0  0  0  0  0  0  0
    0.1656    2.8226    1.4602 C   0  0  0  0  0  0  0  0  0  0  0  0
    0.4635    1.7710    1.6467 H   0  0  0  0  0  0  0  0  0  0  0  0
    1.4325    3.5737    1.0133 C   0  0  0  0  0  0  0  0  0  0  0  0
    2.2045    3.5548    1.8103 H   0  0  0  0  0  0  0  0  0  0  0  0
    1.2022    4.6340    0.7788 H   0  0  0  0  0  0  0  0  0  0  0  0
    1.8713    3.1023    0.1092 H   0  0  0  0  0  0  0  0  0  0  0  0
   -0.3965    3.3904    2.7714 C   0  0  0  0  0  0  0  0  0  0  0  0
   -1.3129    2.8535    3.0930 H   0  0  0  0  0  0  0  0  0  0  0  0
   -0.6511    4.4671    2.6853 H   0  0  0  0  0  0  0  0  0  0  0  0
    0.3543    3.2990    3.5829 H   0  0  0  0  0  0  0  0  0  0  0  0
   -2.1120    0.4058   -2.4581 C   0  0  0  0  0  0  0  0  0  0  0  0
   -1.2978   -0.3004   -2.1994 H   0  0  0  0  0  0  0  0  0  0  0  0
   -3.4584   -0.2872   -2.1823 C   0  0  0  0  0  0  0  0  0  0  0  0
   -3.5599   -1.2140   -2.7847 H   0  0  0  0  0  0  0  0  0  0  0  0
   -4.3083    0.3773   -2.4433 H   0  0  0  0  0  0  0  0  0  0  0  0
   -3.5694   -0.5523   -1.1107 H   0  0  0  0  0  0  0  0  0  0  0  0
   -1.9576    0.7461   -3.9486 C   0  0  0  0  0  0  0  0  0  0  0  0
   -2.0110   -0.1760   -4.5634 H   0  0  0  0  0  0  0  0  0  0  0  0
   -0.9832    1.2343   -4.1439 H   0  0  0  0  0  0  0  0  0  0  0  0
   -2.7597    1.4273   -4.3015 H   0  0  0  0  0  0  0  0  0  0  0  0
  1 24  1  0  0  0  0
  2 35  1  0  0  0  0
  2 42  1  0  0  0  0
  3  1  1  0  0  0  0
  4  3  1  0  0  0  0
  4  5  1  0  0  0  0
  5 44  1  0  0  0  0
  6  5  2  0  0  0  0
  6  7  1  0  0  0  0
  8  6  1  0  0  0  0
  9  8  1  0  0  0  0
 10 12  1  0  0  0  0
 10  8  2  0  0  0  0
 11 10  1  0  0  0  0
 12  4  2  0  0  0  0
 13  1  1  0  0  0  0
 14 13  1  0  0  0  0
 14 15  1  0  0  0  0
 16 14  2  0  0  0  0
 17 16  1  0  0  0  0
 18 20  2  0  0  0  0
 18 16  1  0  0  0  0
 19 18  1  0  0  0  0
 20 22  1  0  0  0  0
 21 20  1  0  0  0  0
 22 23  1  0  0  0  0
 22 13  2  0  0  0  0
 24 25  2  0  0  0  0
 24 33  1  0  0  0  0
 25 27  1  0  0  0  0
 26 25  1  0  0  0  0
 27 28  1  0  0  0  0
 27 29  2  0  0  0  0
 29 30  1  0  0  0  0
 31 32  1  0  0  0  0
 31 29  1  0  0  0  0
 33 31  2  0  0  0  0
 34 33  1  0  0  0  0
 35  1  1  1  0  0  0
 35 36  1  0  0  0  0
 36 37  1  0  0  0  0
 36 38  2  0  0  0  0
 38 39  1  0  0  0  0
 40 38  1  0  0  0  0
 40 41  1  0  0  0  0
 42 40  2  0  0  0  0
 43 42  1  0  0  0  0
 44 45  1  0  0  0  0
 44 50  1  0  0  0  0
 46 44  1  0  0  0  0
 46 47  1  0  0  0  0
 48 46  1  0  0  0  0
 49 46  1  0  0  0  0
 50 51  1  0  0  0  0
 50 53  1  0  0  0  0
 52 50  1  0  0  0  0
 54 55  1  0  0  0  0
 54 56  1  0  0  0  0
 54 12  1  0  0  0  0
 56 59  1  0  0  0  0
 57 56  1  0  0  0  0
 58 56  1  0  0  0  0
 60 54  1  0  0  0  0
 61 60  1  0  0  0  0
 62 60  1  0  0  0  0
 63 60  1  0  0  0  0
M  END
