2,3
 OpenBabel05122313053D

 59 62  0  0  1  0  0  0  0  0999 V2000
    2.7505    1.2107    0.0963 C   0  0  1  0  0  3  0  0  0  0  0  0
    1.4205    0.9594   -0.0342 N   0  0  0  0  0  2  0  0  0  0  0  0
   -1.0007    0.2661    0.1427 N   0  0  0  0  0  2  0  0  0  0  0  0
    3.2020    2.5499    0.0589 C   0  0  0  0  0  0  0  0  0  0  0  0
    4.2784    2.7433    0.1622 H   0  0  0  0  0  0  0  0  0  0  0  0
    2.2991    3.6129   -0.0664 C   0  0  0  0  0  0  0  0  0  0  0  0
    2.6667    4.6499   -0.1054 H   0  0  0  0  0  0  0  0  0  0  0  0
    0.9186    3.3535   -0.0901 C   0  0  0  0  0  0  0  0  0  0  0  0
    0.5313    2.0000   -0.0501 C   0  0  0  0  0  0  0  0  0  0  0  0
   -0.1574    4.4121   -0.1300 C   0  0  0  0  0  0  0  0  0  0  0  0
    0.2081    5.2976   -0.6894 H   0  0  0  0  0  0  0  0  0  0  0  0
   -0.3488    4.7667    0.9093 H   0  0  0  0  0  0  0  0  0  0  0  0
   -1.4643    3.8806   -0.7375 C   0  0  0  0  0  0  0  0  0  0  0  0
   -1.3029    3.6627   -1.8153 H   0  0  0  0  0  0  0  0  0  0  0  0
   -2.2527    4.6569   -0.6820 H   0  0  0  0  0  0  0  0  0  0  0  0
   -1.9453    2.5997   -0.0377 C   0  0  0  0  0  0  0  0  0  0  0  0
   -2.2598    2.8267    1.0080 H   0  0  0  0  0  0  0  0  0  0  0  0
   -2.8402    2.1694   -0.5298 H   0  0  0  0  0  0  0  0  0  0  0  0
   -0.8489    1.5744    0.0130 C   0  0  2  0  0  3  0  0  0  0  0  0
   -2.3187   -0.2891    0.1447 C   0  0  0  0  0  0  0  0  0  0  0  0
   -2.8744   -0.7109   -1.0893 C   0  0  0  0  0  0  0  0  0  0  0  0
   -4.1890   -1.2079   -1.0722 C   0  0  0  0  0  0  0  0  0  0  0  0
   -4.6482   -1.5406   -2.0157 H   0  0  0  0  0  0  0  0  0  0  0  0
   -4.9134   -1.3007    0.1238 C   0  0  0  0  0  0  0  0  0  0  0  0
   -5.9406   -1.6956    0.1151 H   0  0  0  0  0  0  0  0  0  0  0  0
   -4.3247   -0.9107    1.3334 C   0  0  0  0  0  0  0  0  0  0  0  0
   -4.8905   -1.0125    2.2718 H   0  0  0  0  0  0  0  0  0  0  0  0
   -3.0139   -0.4010    1.3723 C   0  0  0  0  0  0  0  0  0  0  0  0
    3.6655    0.0867    0.3693 C   0  0  0  0  0  0  0  0  0  0  0  0
    4.9920    0.0839   -0.1100 C   0  0  0  0  0  0  0  0  0  0  0  0
    5.3438    0.9056   -0.7518 H   0  0  0  0  0  0  0  0  0  0  0  0
    5.8446   -0.9896    0.1761 C   0  0  0  0  0  0  0  0  0  0  0  0
    6.8700   -0.9934   -0.2230 H   0  0  0  0  0  0  0  0  0  0  0  0
    5.3868   -2.0669    0.9524 C   0  0  0  0  0  0  0  0  0  0  0  0
    6.0565   -2.9127    1.1697 H   0  0  0  0  0  0  0  0  0  0  0  0
    4.0728   -2.0644    1.4476 C   0  0  0  0  0  0  0  0  0  0  0  0
    3.7044   -2.9053    2.0534 H   0  0  0  0  0  0  0  0  0  0  0  0
    3.2183   -0.9964    1.1601 C   0  0  0  0  0  0  0  0  0  0  0  0
    2.1876   -0.9965    1.5503 H   0  0  0  0  0  0  0  0  0  0  0  0
   -2.0742   -0.6461   -2.3843 C   0  0  0  0  0  0  0  0  0  0  0  0
   -1.0347   -0.3574   -2.1210 H   0  0  0  0  0  0  0  0  0  0  0  0
   -2.6304    0.4225   -3.3397 C   0  0  0  0  0  0  0  0  0  0  0  0
   -2.6439    1.4287   -2.8712 H   0  0  0  0  0  0  0  0  0  0  0  0
   -3.6704    0.1865   -3.6484 H   0  0  0  0  0  0  0  0  0  0  0  0
   -2.0120    0.4839   -4.2584 H   0  0  0  0  0  0  0  0  0  0  0  0
   -1.9691   -2.0238   -3.0550 C   0  0  0  0  0  0  0  0  0  0  0  0
   -1.3009   -1.9656   -3.9377 H   0  0  0  0  0  0  0  0  0  0  0  0
   -2.9579   -2.3943   -3.3975 H   0  0  0  0  0  0  0  0  0  0  0  0
   -1.5361   -2.7565   -2.3468 H   0  0  0  0  0  0  0  0  0  0  0  0
   -2.3362   -0.0682    2.6950 C   0  0  0  0  0  0  0  0  0  0  0  0
   -1.4223    0.5167    2.4631 H   0  0  0  0  0  0  0  0  0  0  0  0
   -1.8709   -1.3684    3.3781 C   0  0  0  0  0  0  0  0  0  0  0  0
   -1.2299   -1.9572    2.6917 H   0  0  0  0  0  0  0  0  0  0  0  0
   -2.7418   -1.9989    3.6541 H   0  0  0  0  0  0  0  0  0  0  0  0
   -1.3025   -1.1454    4.3048 H   0  0  0  0  0  0  0  0  0  0  0  0
   -3.2121    0.7869    3.6218 C   0  0  0  0  0  0  0  0  0  0  0  0
   -3.5501    1.7189    3.1235 H   0  0  0  0  0  0  0  0  0  0  0  0
   -2.6504    1.0689    4.5355 H   0  0  0  0  0  0  0  0  0  0  0  0
   -4.1178    0.2387    3.9537 H   0  0  0  0  0  0  0  0  0  0  0  0
  1 29  1  1  0  0  0
  2  1  1  0  0  0  0
  3 20  1  0  0  0  0
  4  1  1  0  0  0  0
  4  5  1  0  0  0  0
  6  4  2  0  0  0  0
  7  6  1  0  0  0  0
  8  6  1  0  0  0  0
  8  9  2  0  0  0  0
  9  2  1  0  0  0  0
  9 19  1  0  0  0  0
 10  8  1  0  0  0  0
 10 12  1  0  0  0  0
 11 10  1  0  0  0  0
 13 15  1  0  0  0  0
 13 10  1  0  0  0  0
 13 16  1  0  0  0  0
 14 13  1  0  0  0  0
 16 19  1  0  0  0  0
 16 17  1  0  0  0  0
 18 16  1  0  0  0  0
 19  3  1  1  0  0  0
 20 28  1  0  0  0  0
 21 22  1  0  0  0  0
 21 20  2  0  0  0  0
 22 24  2  0  0  0  0
 23 22  1  0  0  0  0
 24 26  1  0  0  0  0
 25 24  1  0  0  0  0
 26 28  2  0  0  0  0
 26 27  1  0  0  0  0
 28 50  1  0  0  0  0
 29 38  1  0  0  0  0
 30 32  1  0  0  0  0
 30 29  2  0  0  0  0
 31 30  1  0  0  0  0
 32 34  2  0  0  0  0
 33 32  1  0  0  0  0
 34 35  1  0  0  0  0
 34 36  1  0  0  0  0
 36 37  1  0  0  0  0
 38 36  2  0  0  0  0
 38 39  1  0  0  0  0
 40 41  1  0  0  0  0
 40 21  1  0  0  0  0
 42 43  1  0  0  0  0
 42 40  1  0  0  0  0
 44 42  1  0  0  0  0
 45 42  1  0  0  0  0
 46 40  1  0  0  0  0
 46 49  1  0  0  0  0
 47 46  1  0  0  0  0
 48 46  1  0  0  0  0
 50 52  1  0  0  0  0
 50 56  1  0  0  0  0
 51 50  1  0  0  0  0
 52 54  1  0  0  0  0
 52 55  1  0  0  0  0
 53 52  1  0  0  0  0
 56 59  1  0  0  0  0
 56 58  1  0  0  0  0
 57 56  1  0  0  0  0
M  END
