5,7
 OpenBabel05122313053D

 65 70  0  0  0  0  0  0  0  0999 V2000
    1.1184   -2.6298   -1.0294 S   0  0  0  0  0  1  0  0  0  0  0  0
   -1.6739   -1.9365    1.9701 S   0  0  0  0  0  1  0  0  0  0  0  0
    2.4463   -1.5593   -0.0561 P   0  0  0  0  0  4  0  0  0  0  0  0
   -2.6045   -1.3772    0.3222 P   0  0  0  0  0  4  0  0  0  0  0  0
    1.5086    2.3085   -0.4866 N   0  0  0  0  0  2  0  0  0  0  0  0
    1.2639    1.0229   -0.1304 N   0  0  0  0  0  0  0  0  0  0  0  0
   -1.3533    2.3987   -0.2900 N   0  0  0  0  0  2  0  0  0  0  0  0
   -1.1529    1.0930    0.0175 N   0  0  0  0  0  0  0  0  0  0  0  0
    2.7290    2.3458   -1.0454 C   0  0  0  0  0  3  0  0  0  0  0  0
    3.1079    3.3149   -1.3924 H   0  0  0  0  0  0  0  0  0  0  0  0
    3.3026    1.0576   -1.0204 C   0  0  0  0  0  0  0  0  0  0  0  0
    4.2871    0.7508   -1.3856 H   0  0  0  0  0  0  0  0  0  0  0  0
    2.3514    0.2283   -0.4182 C   0  0  0  0  0  0  0  0  0  0  0  0
    0.0906    0.7058    0.6665 C   0  0  0  0  0  0  0  0  0  0  0  0
    0.1614    1.2411    1.6368 H   0  0  0  0  0  0  0  0  0  0  0  0
    0.0504   -0.3851    0.8582 H   0  0  0  0  0  0  0  0  0  0  0  0
   -2.6307    2.5321   -0.6794 C   0  0  0  0  0  3  0  0  0  0  0  0
   -2.9831    3.5327   -0.9589 H   0  0  0  0  0  0  0  0  0  0  0  0
   -3.2840    1.2874   -0.5904 C   0  0  0  0  0  0  0  0  0  0  0  0
   -4.3324    1.0635   -0.8083 H   0  0  0  0  0  0  0  0  0  0  0  0
   -2.3228    0.3769   -0.1336 C   0  0  0  0  0  0  0  0  0  0  0  0
    2.2938   -1.6189    1.7722 C   0  0  0  0  0  0  0  0  0  0  0  0
    1.7083   -2.7600    2.3504 C   0  0  0  0  0  0  0  0  0  0  0  0
    1.3410   -3.5623    1.6920 H   0  0  0  0  0  0  0  0  0  0  0  0
    1.5647   -2.8367    3.7429 C   0  0  0  0  0  0  0  0  0  0  0  0
    1.0989   -3.7255    4.1941 H   0  0  0  0  0  0  0  0  0  0  0  0
    1.9889   -1.7734    4.5557 C   0  0  0  0  0  0  0  0  0  0  0  0
    1.8615   -1.8308    5.6473 H   0  0  0  0  0  0  0  0  0  0  0  0
    2.5603   -0.6276    3.9781 C   0  0  0  0  0  0  0  0  0  0  0  0
    2.8801    0.2123    4.6130 H   0  0  0  0  0  0  0  0  0  0  0  0
    2.7161   -0.5465    2.5861 C   0  0  0  0  0  0  0  0  0  0  0  0
    3.1505    0.3600    2.1351 H   0  0  0  0  0  0  0  0  0  0  0  0
    4.1980   -1.9334   -0.4679 C   0  0  0  0  0  0  0  0  0  0  0  0
    4.4578   -2.6081   -1.6746 C   0  0  0  0  0  0  0  0  0  0  0  0
    3.6064   -2.9134   -2.3042 H   0  0  0  0  0  0  0  0  0  0  0  0
    5.7815   -2.8905   -2.0429 C   0  0  0  0  0  0  0  0  0  0  0  0
    5.9853   -3.4177   -2.9872 H   0  0  0  0  0  0  0  0  0  0  0  0
    6.8420   -2.5064   -1.2065 C   0  0  0  0  0  0  0  0  0  0  0  0
    7.8799   -2.7315   -1.4952 H   0  0  0  0  0  0  0  0  0  0  0  0
    6.5803   -1.8425    0.0036 C   0  0  0  0  0  0  0  0  0  0  0  0
    7.4103   -1.5506    0.6646 H   0  0  0  0  0  0  0  0  0  0  0  0
    5.2595   -1.5549    0.3778 C   0  0  0  0  0  0  0  0  0  0  0  0
    5.0585   -1.0450    1.3316 H   0  0  0  0  0  0  0  0  0  0  0  0
   -4.4369   -1.4179    0.4622 C   0  0  0  0  0  0  0  0  0  0  0  0
   -5.2568   -1.6354   -0.6626 C   0  0  0  0  0  0  0  0  0  0  0  0
   -4.8063   -1.8178   -1.6499 H   0  0  0  0  0  0  0  0  0  0  0  0
   -6.6526   -1.6294   -0.5144 C   0  0  0  0  0  0  0  0  0  0  0  0
   -7.2948   -1.8029   -1.3911 H   0  0  0  0  0  0  0  0  0  0  0  0
   -7.2265   -1.4119    0.7485 C   0  0  0  0  0  0  0  0  0  0  0  0
   -8.3213   -1.4103    0.8609 H   0  0  0  0  0  0  0  0  0  0  0  0
   -6.4055   -1.2069    1.8700 C   0  0  0  0  0  0  0  0  0  0  0  0
   -6.8549   -1.0457    2.8615 H   0  0  0  0  0  0  0  0  0  0  0  0
   -5.0107   -1.2125    1.7309 C   0  0  0  0  0  0  0  0  0  0  0  0
   -4.3484   -1.0748    2.6003 H   0  0  0  0  0  0  0  0  0  0  0  0
   -2.2267   -2.3451   -1.1826 C   0  0  0  0  0  0  0  0  0  0  0  0
   -2.0613   -3.7356   -1.0367 C   0  0  0  0  0  0  0  0  0  0  0  0
   -2.1113   -4.1820   -0.0315 H   0  0  0  0  0  0  0  0  0  0  0  0
   -1.7941   -4.5228   -2.1639 C   0  0  0  0  0  0  0  0  0  0  0  0
   -1.6550   -5.6084   -2.0511 H   0  0  0  0  0  0  0  0  0  0  0  0
   -1.6827   -3.9253   -3.4309 C   0  0  0  0  0  0  0  0  0  0  0  0
   -1.4587   -4.5448   -4.3124 H   0  0  0  0  0  0  0  0  0  0  0  0
   -1.8430   -2.5385   -3.5729 C   0  0  0  0  0  0  0  0  0  0  0  0
   -1.7425   -2.0681   -4.5625 H   0  0  0  0  0  0  0  0  0  0  0  0
   -2.1177   -1.7431   -2.4498 C   0  0  0  0  0  0  0  0  0  0  0  0
   -2.2299   -0.6537   -2.5584 H   0  0  0  0  0  0  0  0  0  0  0  0
  1  3  1  0  0  0  0
  3 22  1  0  0  0  0
  4 44  1  0  0  0  0
  4  2  1  0  0  0  0
  5  6  1  0  0  0  0
  6 14  1  0  0  0  0
  7  8  1  0  0  0  0
  8 14  1  0  0  0  0
  9 11  1  0  0  0  0
  9  5  1  0  0  0  0
 10  9  1  0  0  0  0
 11 13  2  0  0  0  0
 12 11  1  0  0  0  0
 13  6  1  0  0  0  0
 13  3  1  0  0  0  0
 14 16  1  0  0  0  0
 14 15  1  0  0  0  0
 17 19  1  0  0  0  0
 17  7  1  0  0  0  0
 18 17  1  0  0  0  0
 19 21  2  0  0  0  0
 20 19  1  0  0  0  0
 21  8  1  0  0  0  0
 21  4  1  0  0  0  0
 22 23  2  0  0  0  0
 22 31  1  0  0  0  0
 23 25  1  0  0  0  0
 24 23  1  0  0  0  0
 25 26  1  0  0  0  0
 25 27  2  0  0  0  0
 27 28  1  0  0  0  0
 29 27  1  0  0  0  0
 29 30  1  0  0  0  0
 31 29  2  0  0  0  0
 32 31  1  0  0  0  0
 33  3  1  0  0  0  0
 33 42  1  0  0  0  0
 34 33  2  0  0  0  0
 35 34  1  0  0  0  0
 36 34  1  0  0  0  0
 36 38  2  0  0  0  0
 37 36  1  0  0  0  0
 38 40  1  0  0  0  0
 39 38  1  0  0  0  0
 40 42  2  0  0  0  0
 40 41  1  0  0  0  0
 42 43  1  0  0  0  0
 44 53  1  0  0  0  0
 45 47  1  0  0  0  0
 45 44  2  0  0  0  0
 46 45  1  0  0  0  0
 47 49  2  0  0  0  0
 48 47  1  0  0  0  0
 49 50  1  0  0  0  0
 49 51  1  0  0  0  0
 51 52  1  0  0  0  0
 53 51  2  0  0  0  0
 53 54  1  0  0  0  0
 55 56  1  0  0  0  0
 55  4  1  0  0  0  0
 56 57  1  0  0  0  0
 58 59  1  0  0  0  0
 58 56  2  0  0  0  0
 60 58  1  0  0  0  0
 61 60  1  0  0  0  0
 62 60  2  0  0  0  0
 62 64  1  0  0  0  0
 63 62  1  0  0  0  0
 64 55  2  0  0  0  0
 65 64  1  0  0  0  0
M  END
