58,59
 OpenBabel05122313053D

 61 67  0  0  0  0  0  0  0  0999 V2000
   -2.1400    1.5726   -0.8717 C   0  0  0  0  0  0  0  0  0  0  0  0
   -2.1510    2.9438   -1.2740 C   0  0  0  0  0  0  0  0  0  0  0  0
   -1.1893    3.4257   -1.4991 H   0  0  0  0  0  0  0  0  0  0  0  0
   -3.3425    3.6194   -1.4483 C   0  0  0  0  0  0  0  0  0  0  0  0
   -3.3552    4.6650   -1.7913 H   0  0  0  0  0  0  0  0  0  0  0  0
   -4.5670    2.9337   -1.2281 C   0  0  0  0  0  0  0  0  0  0  0  0
   -5.8506    3.5263   -1.4696 C   0  0  0  0  0  0  0  0  0  0  0  0
   -5.8834    4.5600   -1.8458 H   0  0  0  0  0  0  0  0  0  0  0  0
   -7.0136    2.8237   -1.2541 C   0  0  0  0  0  0  0  0  0  0  0  0
   -7.9936    3.2789   -1.4607 H   0  0  0  0  0  0  0  0  0  0  0  0
   -6.9713    1.4820   -0.7475 C   0  0  0  0  0  0  0  0  0  0  0  0
   -8.1319    0.7026   -0.5061 C   0  0  0  0  0  0  0  0  0  0  0  0
   -9.1243    1.1283   -0.7187 H   0  0  0  0  0  0  0  0  0  0  0  0
   -7.9958   -0.5880   -0.0079 C   0  0  0  0  0  0  0  0  0  0  0  0
   -8.8718   -1.2245    0.1797 H   0  0  0  0  0  0  0  0  0  0  0  0
   -6.7090   -1.0870    0.2801 C   0  0  0  0  0  0  0  0  0  0  0  0
   -6.5682   -2.0926    0.7012 H   0  0  0  0  0  0  0  0  0  0  0  0
   -5.7049    0.8842   -0.4632 C   0  0  0  0  0  0  0  0  0  0  0  0
   -4.4831    1.5949   -0.7433 C   0  0  0  0  0  0  0  0  0  0  0  0
   -0.8826    0.8401   -0.8968 C   0  0  0  0  0  0  0  0  0  0  0  0
    1.5618    0.2150   -0.8505 C   0  0  0  0  0  0  0  0  0  0  0  0
    0.7349   -0.7784   -1.3833 C   0  0  0  0  0  0  0  0  0  0  0  0
    1.1230   -1.7322   -1.7635 H   0  0  0  0  0  0  0  0  0  0  0  0
   -0.6346   -0.4341   -1.4103 C   0  0  0  0  0  0  0  0  0  0  0  0
   -1.4446   -1.0777   -1.7939 H   0  0  0  0  0  0  0  0  0  0  0  0
    3.0038    0.1897   -0.6361 C   0  0  0  0  0  0  0  0  0  0  0  0
    3.7511    1.3739   -0.4175 C   0  0  0  0  0  0  0  0  0  0  0  0
    3.2380    2.3484   -0.4358 H   0  0  0  0  0  0  0  0  0  0  0  0
    5.1298    1.3423   -0.2167 C   0  0  0  0  0  0  0  0  0  0  0  0
    5.6845    2.2791   -0.0660 H   0  0  0  0  0  0  0  0  0  0  0  0
    5.8301    0.1117   -0.2217 C   0  0  0  0  0  0  0  0  0  0  0  0
    5.0934   -1.0787   -0.4362 C   0  0  0  0  0  0  0  0  0  0  0  0
    5.6156   -2.0457   -0.4235 H   0  0  0  0  0  0  0  0  0  0  0  0
    3.7154   -1.0369   -0.6385 C   0  0  0  0  0  0  0  0  0  0  0  0
    3.1672   -1.9817   -0.7637 H   0  0  0  0  0  0  0  0  0  0  0  0
    8.0220   -0.8934   -0.6864 C   0  0  0  0  0  0  0  0  0  0  0  0
    7.7937   -1.1915   -2.0478 C   0  0  0  0  0  0  0  0  0  0  0  0
    6.9934   -0.6655   -2.5879 H   0  0  0  0  0  0  0  0  0  0  0  0
    8.5820   -2.1478   -2.7004 C   0  0  0  0  0  0  0  0  0  0  0  0
    8.3929   -2.3694   -3.7619 H   0  0  0  0  0  0  0  0  0  0  0  0
    9.6171   -2.8070   -2.0169 C   0  0  0  0  0  0  0  0  0  0  0  0
   10.2378   -3.5530   -2.5348 H   0  0  0  0  0  0  0  0  0  0  0  0
    9.8522   -2.5035   -0.6657 C   0  0  0  0  0  0  0  0  0  0  0  0
   10.6559   -3.0174   -0.1166 H   0  0  0  0  0  0  0  0  0  0  0  0
    9.0593   -1.5608    0.0010 C   0  0  0  0  0  0  0  0  0  0  0  0
    9.2359   -1.3323    1.0619 H   0  0  0  0  0  0  0  0  0  0  0  0
    7.8450    0.9954    0.8683 C   0  0  0  0  0  0  0  0  0  0  0  0
    9.0731    1.5987    0.5195 C   0  0  0  0  0  0  0  0  0  0  0  0
    9.5376    1.3540   -0.4466 H   0  0  0  0  0  0  0  0  0  0  0  0
    9.6900    2.4977    1.3988 C   0  0  0  0  0  0  0  0  0  0  0  0
   10.6466    2.9612    1.1132 H   0  0  0  0  0  0  0  0  0  0  0  0
    9.0898    2.8212    2.6269 C   0  0  0  0  0  0  0  0  0  0  0  0
    9.5747    3.5322    3.3120 H   0  0  0  0  0  0  0  0  0  0  0  0
    7.8654    2.2258    2.9727 C   0  0  0  0  0  0  0  0  0  0  0  0
    7.3893    2.4621    3.9365 H   0  0  0  0  0  0  0  0  0  0  0  0
    7.2481    1.3129    2.1081 C   0  0  0  0  0  0  0  0  0  0  0  0
    6.2978    0.8353    2.3872 H   0  0  0  0  0  0  0  0  0  0  0  0
   -3.2958    0.9432   -0.5286 N   0  0  0  0  0  2  0  0  0  0  0  0
   -5.5975   -0.3672    0.0750 N   0  0  0  0  0  2  0  0  0  0  0  0
    7.2237    0.0724   -0.0159 N   0  0  0  0  0  0  0  0  0  0  0  0
    0.6088    1.6054   -0.3816 S   0  0  0  0  0  0  0  0  0  0  0  0
  1 58  1  0  0  0  0
  2  1  2  0  0  0  0
  3  2  1  0  0  0  0
  4  2  1  0  0  0  0
  4  6  2  0  0  0  0
  5  4  1  0  0  0  0
  6 19  1  0  0  0  0
  7  9  2  0  0  0  0
  7  6  1  0  0  0  0
  8  7  1  0  0  0  0
  9 11  1  0  0  0  0
 10  9  1  0  0  0  0
 11 12  2  0  0  0  0
 11 18  1  0  0  0  0
 12 14  1  0  0  0  0
 13 12  1  0  0  0  0
 14 15  1  0  0  0  0
 14 16  2  0  0  0  0
 16 17  1  0  0  0  0
 18 59  1  0  0  0  0
 19 58  1  0  0  0  0
 19 18  2  0  0  0  0
 20  1  1  0  0  0  0
 20 61  1  0  0  0  0
 21 26  1  0  0  0  0
 21 61  1  0  0  0  0
 22 21  2  0  0  0  0
 23 22  1  0  0  0  0
 24 22  1  0  0  0  0
 24 20  2  0  0  0  0
 25 24  1  0  0  0  0
 26 27  1  0  0  0  0
 27 29  2  0  0  0  0
 28 27  1  0  0  0  0
 29 30  1  0  0  0  0
 31 29  1  0  0  0  0
 31 60  1  0  0  0  0
 32 33  1  0  0  0  0
 32 31  2  0  0  0  0
 34 26  2  0  0  0  0
 34 32  1  0  0  0  0
 35 34  1  0  0  0  0
 36 60  1  0  0  0  0
 36 45  1  0  0  0  0
 37 36  2  0  0  0  0
 38 37  1  0  0  0  0
 39 37  1  0  0  0  0
 39 41  2  0  0  0  0
 40 39  1  0  0  0  0
 41 43  1  0  0  0  0
 42 41  1  0  0  0  0
 43 44  1  0  0  0  0
 43 45  2  0  0  0  0
 45 46  1  0  0  0  0
 47 56  1  0  0  0  0
 48 47  2  0  0  0  0
 48 50  1  0  0  0  0
 49 48  1  0  0  0  0
 50 52  2  0  0  0  0
 51 50  1  0  0  0  0
 52 54  1  0  0  0  0
 52 53  1  0  0  0  0
 54 55  1  0  0  0  0
 56 57  1  0  0  0  0
 56 54  2  0  0  0  0
 59 16  1  0  0  0  0
 60 47  1  0  0  0  0
M  END
