1,3
 OpenBabel05122313053D

 36 36  0  0  0  0  0  0  0  0999 V2000
   -0.0692    1.6902   -0.2708 N   0  0  0  0  0  0  0  0  0  0  0  0
   -1.7626    0.0000   -0.8844 N   0  0  0  0  0  0  0  0  0  0  0  0
   -0.0693   -1.6902   -0.2707 N   0  0  0  0  0  0  0  0  0  0  0  0
    0.5813    2.8793   -0.8620 C   0  0  0  0  0  0  0  0  0  0  0  0
    1.1044    2.5989   -1.7950 H   0  0  0  0  0  0  0  0  0  0  0  0
    1.3274    3.2842   -0.1566 H   0  0  0  0  0  0  0  0  0  0  0  0
   -0.1716    3.6727   -1.0871 H   0  0  0  0  0  0  0  0  0  0  0  0
   -0.7095    2.0815    1.0015 C   0  0  0  0  0  0  0  0  0  0  0  0
   -1.4202    2.9281    0.8537 H   0  0  0  0  0  0  0  0  0  0  0  0
    0.0723    2.3925    1.7175 H   0  0  0  0  0  0  0  0  0  0  0  0
   -1.2586    1.2232    1.4283 H   0  0  0  0  0  0  0  0  0  0  0  0
   -1.0849    1.2138   -1.2531 C   0  0  0  0  0  0  0  0  0  0  0  0
   -1.8247    2.0220   -1.4448 H   0  0  0  0  0  0  0  0  0  0  0  0
   -0.5322    1.0437   -2.2000 H   0  0  0  0  0  0  0  0  0  0  0  0
   -1.0849   -1.2137   -1.2530 C   0  0  0  0  0  0  0  0  0  0  0  0
   -0.5320   -1.0436   -2.1999 H   0  0  0  0  0  0  0  0  0  0  0  0
   -1.8246   -2.0219   -1.4450 H   0  0  0  0  0  0  0  0  0  0  0  0
    0.5811   -2.8794   -0.8617 C   0  0  0  0  0  0  0  0  0  0  0  0
    1.3273   -3.2842   -0.1563 H   0  0  0  0  0  0  0  0  0  0  0  0
    1.1043   -2.5990   -1.7948 H   0  0  0  0  0  0  0  0  0  0  0  0
   -0.1717   -3.6727   -1.0868 H   0  0  0  0  0  0  0  0  0  0  0  0
   -0.7097   -2.0813    1.0016 C   0  0  0  0  0  0  0  0  0  0  0  0
   -1.2587   -1.2229    1.4284 H   0  0  0  0  0  0  0  0  0  0  0  0
    0.0720   -2.3924    1.7176 H   0  0  0  0  0  0  0  0  0  0  0  0
   -1.4206   -2.9277    0.8538 H   0  0  0  0  0  0  0  0  0  0  0  0
   -3.0888    0.0000   -0.3881 C   0  0  0  0  0  0  0  0  0  0  0  0
   -3.7852    1.2085   -0.1281 C   0  0  0  0  0  0  0  0  0  0  0  0
   -3.3033    2.1804   -0.2842 H   0  0  0  0  0  0  0  0  0  0  0  0
   -5.1046    1.2021    0.3425 C   0  0  0  0  0  0  0  0  0  0  0  0
   -5.6029    2.1659    0.5278 H   0  0  0  0  0  0  0  0  0  0  0  0
   -5.7838    0.0000    0.5825 C   0  0  0  0  0  0  0  0  0  0  0  0
   -6.8174    0.0000    0.9568 H   0  0  0  0  0  0  0  0  0  0  0  0
   -5.1048   -1.2021    0.3420 C   0  0  0  0  0  0  0  0  0  0  0  0
   -5.6033   -2.1659    0.5269 H   0  0  0  0  0  0  0  0  0  0  0  0
   -3.7854   -1.2085   -0.1286 C   0  0  0  0  0  0  0  0  0  0  0  0
   -3.3036   -2.1804   -0.2851 H   0  0  0  0  0  0  0  0  0  0  0  0
  1  8  1  0  0  0  0
  2 26  1  0  0  0  0
  3 22  1  0  0  0  0
  4  1  1  0  0  0  0
  4  6  1  0  0  0  0
  5  4  1  0  0  0  0
  7  4  1  0  0  0  0
  8 11  1  0  0  0  0
  8 10  1  0  0  0  0
  9  8  1  0  0  0  0
 12  2  1  0  0  0  0
 12  1  1  0  0  0  0
 13 12  1  0  0  0  0
 14 12  1  0  0  0  0
 15  2  1  0  0  0  0
 15  3  1  0  0  0  0
 16 15  1  0  0  0  0
 17 15  1  0  0  0  0
 18  3  1  0  0  0  0
 18 19  1  0  0  0  0
 20 18  1  0  0  0  0
 21 18  1  0  0  0  0
 22 23  1  0  0  0  0
 22 24  1  0  0  0  0
 25 22  1  0  0  0  0
 26 35  2  0  0  0  0
 26 27  1  0  0  0  0
 27 29  2  0  0  0  0
 28 27  1  0  0  0  0
 29 30  1  0  0  0  0
 29 31  1  0  0  0  0
 31 32  1  0  0  0  0
 33 34  1  0  0  0  0
 33 31  2  0  0  0  0
 35 33  1  0  0  0  0
 36 35  1  0  0  0  0
M  END
