1,4
 OpenBabel05122313053D

 25 26  0  0  0  0  0  0  0  0999 V2000
    1.8616   -0.5013    0.7064 N   0  0  0  0  0  2  0  0  0  0  0  0
    2.4452   -1.3122    0.9461 H   0  0  0  0  0  0  0  0  0  0  0  0
    0.4095    1.9198   -0.1246 N   0  0  0  0  0  0  0  0  0  0  0  0
   -0.4446    0.9877   -0.0098 N   0  0  0  0  0  2  0  0  0  0  0  0
    2.4887    0.6206    0.3469 C   0  0  0  0  0  0  0  0  0  0  0  0
    3.9165    0.7371    0.4395 C   0  0  0  0  0  0  0  0  0  0  0  0
    4.4823   -0.1415    0.7841 H   0  0  0  0  0  0  0  0  0  0  0  0
    4.5709    1.9049    0.0915 C   0  0  0  0  0  0  0  0  0  0  0  0
    5.6688    1.9431    0.1629 H   0  0  0  0  0  0  0  0  0  0  0  0
    3.8555    3.0521   -0.3574 C   0  0  0  0  0  0  0  0  0  0  0  0
    4.3947    3.9704   -0.6281 H   0  0  0  0  0  0  0  0  0  0  0  0
    2.4784    2.9968   -0.4307 C   0  0  0  0  0  3  0  0  0  0  0  0
    1.8780    3.8624   -0.7443 H   0  0  0  0  0  0  0  0  0  0  0  0
    1.7583    1.8035   -0.1003 C   0  0  0  0  0  0  0  0  0  0  0  0
   -1.8101    1.4017    0.1190 C   0  0  0  0  0  0  0  0  0  0  0  0
   -2.2621    2.5400   -0.5778 C   0  0  0  0  0  0  0  0  0  0  0  0
   -1.5627    3.0766   -1.2330 H   0  0  0  0  0  0  0  0  0  0  0  0
   -3.5904    2.9529   -0.4309 C   0  0  0  0  0  0  0  0  0  0  0  0
   -3.9491    3.8312   -0.9882 H   0  0  0  0  0  0  0  0  0  0  0  0
   -4.4630    2.2486    0.4163 C   0  0  0  0  0  0  0  0  0  0  0  0
   -5.5070    2.5770    0.5285 H   0  0  0  0  0  0  0  0  0  0  0  0
   -4.0002    1.1233    1.1166 C   0  0  0  0  0  0  0  0  0  0  0  0
   -4.6756    0.5703    1.7857 H   0  0  0  0  0  0  0  0  0  0  0  0
   -2.6777    0.6892    0.9664 C   0  0  0  0  0  0  0  0  0  0  0  0
   -2.3138   -0.1929    1.5100 H   0  0  0  0  0  0  0  0  0  0  0  0
  1  2  1  0  0  0  0
  3 14  2  0  0  0  0
  3  4  1  0  0  0  0
  4 15  1  0  0  0  0
  5  6  2  0  0  0  0
  5  1  1  0  0  0  0
  6  7  1  0  0  0  0
  8  9  1  0  0  0  0
  8  6  1  0  0  0  0
 10  8  2  0  0  0  0
 11 10  1  0  0  0  0
 12 10  1  0  0  0  0
 12 14  1  0  0  0  0
 13 12  1  0  0  0  0
 14  5  1  0  0  0  0
 15 24  1  0  0  0  0
 16 18  1  0  0  0  0
 16 15  2  0  0  0  0
 17 16  1  0  0  0  0
 18 20  2  0  0  0  0
 19 18  1  0  0  0  0
 20 21  1  0  0  0  0
 20 22  1  0  0  0  0
 22 23  1  0  0  0  0
 24 22  2  0  0  0  0
 24 25  1  0  0  0  0
M  END
