2,3
 OpenBabel05122313053D

 24 24  0  0  0  0  0  0  0  0999 V2000
    1.9166   -1.1965    0.8976 N   0  0  0  0  0  0  0  0  0  0  0  0
    2.5283    0.9632    0.1863 N   0  0  0  0  0  0  0  0  0  0  0  0
    1.8616   -0.6595   -1.3890 N   0  0  0  0  0  0  0  0  0  0  0  0
    2.8318   -0.0788    1.1684 C   0  0  0  0  0  0  0  0  0  0  0  0
    3.9076   -0.4057    1.1168 H   0  0  0  0  0  0  0  0  0  0  0  0
    2.6238    0.3130    2.1818 H   0  0  0  0  0  0  0  0  0  0  0  0
    2.7789    0.4697   -1.1680 C   0  0  0  0  0  0  0  0  0  0  0  0
    3.8511    0.1601   -1.3128 H   0  0  0  0  0  0  0  0  0  0  0  0
    2.5368    1.2718   -1.8906 H   0  0  0  0  0  0  0  0  0  0  0  0
    2.1647   -1.7349   -0.4398 C   0  0  0  0  0  0  0  0  0  0  0  0
    3.2188   -2.1142   -0.5571 H   0  0  0  0  0  0  0  0  0  0  0  0
    1.4768   -2.5867   -0.6224 H   0  0  0  0  0  0  0  0  0  0  0  0
    1.9422   -2.2073    1.9531 C   0  0  0  0  0  0  0  0  0  0  0  0
    2.9521   -2.6607    2.0866 H   0  0  0  0  0  0  0  0  0  0  0  0
    1.2286   -3.0183    1.7119 H   0  0  0  0  0  0  0  0  0  0  0  0
    1.6309   -1.7434    2.9084 H   0  0  0  0  0  0  0  0  0  0  0  0
    3.1658    2.2503    0.4713 C   0  0  0  0  0  0  0  0  0  0  0  0
    4.2776    2.1905    0.4303 H   0  0  0  0  0  0  0  0  0  0  0  0
    2.8609    2.5892    1.4793 H   0  0  0  0  0  0  0  0  0  0  0  0
    2.8150    2.9985   -0.2639 H   0  0  0  0  0  0  0  0  0  0  0  0
    1.8508   -1.1000   -2.7835 C   0  0  0  0  0  0  0  0  0  0  0  0
    2.8566   -1.4286   -3.1351 H   0  0  0  0  0  0  0  0  0  0  0  0
    1.5042   -0.2695   -3.4280 H   0  0  0  0  0  0  0  0  0  0  0  0
    1.1515   -1.9501   -2.9023 H   0  0  0  0  0  0  0  0  0  0  0  0
  1  4  1  0  0  0  0
  1 13  1  0  0  0  0
  2 17  1  0  0  0  0
  2  4  1  0  0  0  0
  3  7  1  0  0  0  0
  3 10  1  0  0  0  0
  4  6  1  0  0  0  0
  5  4  1  0  0  0  0
  7  2  1  0  0  0  0
  8  7  1  0  0  0  0
  9  7  1  0  0  0  0
 10  1  1  0  0  0  0
 11 10  1  0  0  0  0
 12 10  1  0  0  0  0
 13 14  1  0  0  0  0
 13 16  1  0  0  0  0
 15 13  1  0  0  0  0
 17 19  1  0  0  0  0
 18 17  1  0  0  0  0
 20 17  1  0  0  0  0
 21  3  1  0  0  0  0
 22 21  1  0  0  0  0
 23 21  1  0  0  0  0
 24 21  1  0  0  0  0
M  END
