1,2
 OpenBabel05122313053D

 47 51  0  0  0  0  0  0  0  0999 V2000
    1.5257    0.1056    0.4101 N   0  0  0  0  0  0  0  0  0  0  0  0
   -1.4426   -0.2363    0.4881 N   0  0  0  0  0  0  0  0  0  0  0  0
   -0.1507    1.8521    1.1329 C   0  0  0  0  0  0  0  0  0  0  0  0
   -0.2222    2.5684    1.9774 H   0  0  0  0  0  0  0  0  0  0  0  0
   -0.2027    2.6976   -0.1591 C   0  0  0  0  0  0  0  0  0  0  0  0
    0.9809    3.1699   -0.7598 C   0  0  0  0  0  0  0  0  0  0  0  0
    1.9518    2.9012   -0.3162 H   0  0  0  0  0  0  0  0  0  0  0  0
    0.9312    3.9749   -1.9081 C   0  0  0  0  0  0  0  0  0  0  0  0
    1.8680    4.3299   -2.3645 H   0  0  0  0  0  0  0  0  0  0  0  0
   -0.3054    4.3215   -2.4759 C   0  0  0  0  0  0  0  0  0  0  0  0
   -0.3454    4.9496   -3.3789 H   0  0  0  0  0  0  0  0  0  0  0  0
   -1.4903    3.8613   -1.8798 C   0  0  0  0  0  0  0  0  0  0  0  0
   -2.4663    4.1261   -2.3148 H   0  0  0  0  0  0  0  0  0  0  0  0
   -1.4379    3.0564   -0.7319 C   0  0  0  0  0  0  0  0  0  0  0  0
   -2.3670    2.6909   -0.2676 H   0  0  0  0  0  0  0  0  0  0  0  0
    1.1783    1.1504    1.2880 C   0  0  0  0  0  3  0  0  0  0  0  0
    2.2128    1.4179    2.1774 C   0  0  0  0  0  0  0  0  0  0  0  0
    3.2782    0.4905    1.8513 C   0  0  0  0  0  0  0  0  0  0  0  0
    4.5669    0.2645    2.3762 C   0  0  0  0  0  0  0  0  0  0  0  0
    4.9429    0.8683    3.2168 H   0  0  0  0  0  0  0  0  0  0  0  0
    5.3618   -0.7412    1.8097 C   0  0  0  0  0  0  0  0  0  0  0  0
    6.3704   -0.9279    2.2087 H   0  0  0  0  0  0  0  0  0  0  0  0
    4.8897   -1.5204    0.7278 C   0  0  0  0  0  0  0  0  0  0  0  0
    5.5364   -2.3012    0.2994 H   0  0  0  0  0  0  0  0  0  0  0  0
    3.6131   -1.3107    0.1865 C   0  0  0  0  0  0  0  0  0  0  0  0
    3.2461   -1.9106   -0.6593 H   0  0  0  0  0  0  0  0  0  0  0  0
    2.8137   -0.3051    0.7557 C   0  0  0  0  0  0  0  0  0  0  0  0
    2.2639    2.4511    3.2576 C   0  0  0  0  0  0  0  0  0  0  0  0
    1.3296    3.0432    3.3155 H   0  0  0  0  0  0  0  0  0  0  0  0
    2.4255    1.9879    4.2545 H   0  0  0  0  0  0  0  0  0  0  0  0
    3.1010    3.1648    3.0997 H   0  0  0  0  0  0  0  0  0  0  0  0
   -1.3478    0.9329    1.2634 C   0  0  0  0  0  3  0  0  0  0  0  0
   -2.4922    1.1138    2.0360 C   0  0  0  0  0  0  0  0  0  0  0  0
   -3.3641    0.0006    1.7309 C   0  0  0  0  0  0  0  0  0  0  0  0
   -4.6493   -0.3779    2.1711 C   0  0  0  0  0  0  0  0  0  0  0  0
   -5.1908    0.2360    2.9078 H   0  0  0  0  0  0  0  0  0  0  0  0
   -5.2269   -1.5458    1.6562 C   0  0  0  0  0  0  0  0  0  0  0  0
   -6.2304   -1.8512    1.9897 H   0  0  0  0  0  0  0  0  0  0  0  0
   -4.5377   -2.3428    0.7122 C   0  0  0  0  0  0  0  0  0  0  0  0
   -5.0118   -3.2582    0.3265 H   0  0  0  0  0  0  0  0  0  0  0  0
   -3.2577   -1.9890    0.2617 C   0  0  0  0  0  0  0  0  0  0  0  0
   -2.7150   -2.6203   -0.4580 H   0  0  0  0  0  0  0  0  0  0  0  0
   -2.6758   -0.8133    0.7714 C   0  0  0  0  0  0  0  0  0  0  0  0
   -2.8028    2.2257    2.9881 C   0  0  0  0  0  0  0  0  0  0  0  0
   -1.9755    2.9589    3.0610 H   0  0  0  0  0  0  0  0  0  0  0  0
   -3.7127    2.7856    2.6812 H   0  0  0  0  0  0  0  0  0  0  0  0
   -2.9977    1.8423    4.0127 H   0  0  0  0  0  0  0  0  0  0  0  0
  1 27  2  0  0  0  0
  1 16  1  0  0  0  0
  2 43  2  0  0  0  0
  2 32  1  0  0  0  0
  3 32  1  0  0  0  0
  3 16  1  0  0  0  0
  3  4  1  0  0  0  0
  5  3  1  0  0  0  0
  6  7  1  0  0  0  0
  6  5  2  0  0  0  0
  8  6  1  0  0  0  0
  9  8  1  0  0  0  0
 10  8  2  0  0  0  0
 10 12  1  0  0  0  0
 11 10  1  0  0  0  0
 12 14  2  0  0  0  0
 13 12  1  0  0  0  0
 14 15  1  0  0  0  0
 14  5  1  0  0  0  0
 16 17  1  0  0  0  0
 17 28  1  0  0  0  0
 18 17  2  0  0  0  0
 18 19  1  0  0  0  0
 19 20  1  0  0  0  0
 21 22  1  0  0  0  0
 21 19  2  0  0  0  0
 23 21  1  0  0  0  0
 24 23  1  0  0  0  0
 25 23  2  0  0  0  0
 25 27  1  0  0  0  0
 26 25  1  0  0  0  0
 27 18  1  0  0  0  0
 28 29  1  0  0  0  0
 28 30  1  0  0  0  0
 31 28  1  0  0  0  0
 32 33  1  0  0  0  0
 33 44  1  0  0  0  0
 34 33  2  0  0  0  0
 34 35  1  0  0  0  0
 35 36  1  0  0  0  0
 37 38  1  0  0  0  0
 37 35  2  0  0  0  0
 39 37  1  0  0  0  0
 40 39  1  0  0  0  0
 41 39  2  0  0  0  0
 41 43  1  0  0  0  0
 42 41  1  0  0  0  0
 43 34  1  0  0  0  0
 44 45  1  0  0  0  0
 44 47  1  0  0  0  0
 46 44  1  0  0  0  0
M  END
