1,4
 OpenBabel05122313053D

 37 38  0  0  1  0  0  0  0  0999 V2000
   -2.0640    0.4501   -0.4125 N   0  0  0  0  0  2  0  0  0  0  0  0
   -4.0451    1.3712   -0.2998 N   0  0  0  0  0  0  0  0  0  0  0  0
   -4.7669    2.0925   -0.2720 H   0  0  0  0  0  0  0  0  0  0  0  0
   -0.2957   -1.3948    0.5347 N   0  0  0  0  0  2  0  0  0  0  0  0
    0.0556   -2.9593    2.0325 N   0  0  0  0  0  0  0  0  0  0  0  0
    0.5146   -3.4962    2.7692 H   0  0  0  0  0  0  0  0  0  0  0  0
   -2.9732    4.1003    0.1012 C   0  0  0  0  0  0  0  0  0  0  0  0
   -3.9661    4.2121   -0.3845 H   0  0  0  0  0  0  0  0  0  0  0  0
   -2.4676    5.0791   -0.0031 H   0  0  0  0  0  0  0  0  0  0  0  0
   -3.1382    3.9210    1.1837 H   0  0  0  0  0  0  0  0  0  0  0  0
   -2.1267    2.9983   -0.5390 C   0  0  0  0  0  0  0  0  0  0  0  0
   -1.9556    3.2057   -1.6175 H   0  0  0  0  0  0  0  0  0  0  0  0
   -1.1104    2.9506   -0.0994 H   0  0  0  0  0  0  0  0  0  0  0  0
   -2.7095    1.6287   -0.4113 C   0  0  2  0  0  3  0  0  0  0  0  0
   -4.2708    0.0021   -0.2392 C   0  0  0  0  0  0  0  0  0  0  0  0
   -5.6329   -0.5929   -0.1336 C   0  0  0  0  0  0  0  0  0  0  0  0
   -5.5669   -1.6915   -0.0282 H   0  0  0  0  0  0  0  0  0  0  0  0
   -6.2473   -0.3848   -1.0349 H   0  0  0  0  0  0  0  0  0  0  0  0
   -6.1875   -0.2055    0.7466 H   0  0  0  0  0  0  0  0  0  0  0  0
   -3.0084   -0.5619   -0.3179 C   0  0  0  0  0  0  0  0  0  0  0  0
   -2.5706   -1.9928   -0.3507 C   0  0  0  0  0  0  0  0  0  0  0  0
   -3.4103   -2.6598   -0.0805 H   0  0  0  0  0  0  0  0  0  0  0  0
   -2.2812   -2.2517   -1.3958 H   0  0  0  0  0  0  0  0  0  0  0  0
   -1.4081   -2.2337    0.5632 C   0  0  0  0  0  0  0  0  0  0  0  0
   -1.2037   -3.2239    1.5109 C   0  0  0  0  0  0  0  0  0  0  0  0
   -2.0434   -4.3688    1.9632 C   0  0  0  0  0  0  0  0  0  0  0  0
   -1.5735   -5.3473    1.7293 H   0  0  0  0  0  0  0  0  0  0  0  0
   -3.0272   -4.3472    1.4596 H   0  0  0  0  0  0  0  0  0  0  0  0
   -2.2282   -4.3386    3.0573 H   0  0  0  0  0  0  0  0  0  0  0  0
    0.5914   -1.8544    1.4329 C   0  0  1  0  0  3  0  0  0  0  0  0
    1.9574   -1.3314    1.7346 C   0  0  0  0  0  0  0  0  0  0  0  0
    1.9679   -0.2605    1.4644 H   0  0  0  0  0  0  0  0  0  0  0  0
    2.6854   -1.8116    1.0424 H   0  0  0  0  0  0  0  0  0  0  0  0
    2.4106   -1.5300    3.1834 C   0  0  0  0  0  0  0  0  0  0  0  0
    1.7106   -1.0524    3.8972 H   0  0  0  0  0  0  0  0  0  0  0  0
    3.4101   -1.0786    3.3345 H   0  0  0  0  0  0  0  0  0  0  0  0
    2.5074   -2.6014    3.4594 H   0  0  0  0  0  0  0  0  0  0  0  0
  1 14  1  0  0  0  0
  1 20  1  0  0  0  0
  2  3  1  0  0  0  0
  2 15  1  0  0  0  0
  4 24  1  0  0  0  0
  4 30  1  0  0  0  0
  5  6  1  0  0  0  0
  7 10  1  0  0  0  0
  8  7  1  0  0  0  0
  9  7  1  0  0  0  0
 11 13  1  0  0  0  0
 11  7  1  0  0  0  0
 12 11  1  0  0  0  0
 14 11  1  6  0  0  0
 14  2  1  0  0  0  0
 15 16  1  0  0  0  0
 16 17  1  0  0  0  0
 16 19  1  0  0  0  0
 18 16  1  0  0  0  0
 20 15  2  0  0  0  0
 21 20  1  0  0  0  0
 21 22  1  0  0  0  0
 21 24  1  0  0  0  0
 23 21  1  0  0  0  0
 24 25  2  0  0  0  0
 25 26  1  0  0  0  0
 25  5  1  0  0  0  0
 26 29  1  0  0  0  0
 27 26  1  0  0  0  0
 28 26  1  0  0  0  0
 30 31  1  6  0  0  0
 30  5  1  0  0  0  0
 31 34  1  0  0  0  0
 32 31  1  0  0  0  0
 33 31  1  0  0  0  0
 34 36  1  0  0  0  0
 34 37  1  0  0  0  0
 34 35  1  0  0  0  0
M  END
