3,4
 OpenBabel05122313053D

 28 28  0  0  1  0  0  0  0  0999 V2000
    3.7293   -0.0366    2.2460 Cl  0  0  0  0  0  0  0  0  0  0  0  0
    4.5759    0.7003   -1.8312 Cl  0  0  0  0  0  0  0  0  0  0  0  0
   -1.8213    1.0848   -0.0518 N   0  0  0  0  0  2  0  0  0  0  0  0
    0.9552    0.7951    0.0805 N   0  0  0  0  0  0  0  0  0  0  0  0
    1.2600    1.0522    1.5261 C   0  0  0  0  0  0  0  0  0  0  0  0
    0.2890    1.2584    2.0168 H   0  0  0  0  0  0  0  0  0  0  0  0
    1.8902    1.9648    1.6010 H   0  0  0  0  0  0  0  0  0  0  0  0
   -1.0806    2.2172   -0.1407 C   0  0  1  0  0  3  0  0  0  0  0  0
    1.9180   -0.1063    2.2657 C   0  0  0  0  0  0  0  0  0  0  0  0
    1.6158   -1.0871    1.8495 H   0  0  0  0  0  0  0  0  0  0  0  0
    1.6161   -0.0772    3.3274 H   0  0  0  0  0  0  0  0  0  0  0  0
    0.3567    2.0225   -0.5327 C   0  0  0  0  0  0  0  0  0  0  0  0
    0.9562    2.9209   -0.2828 H   0  0  0  0  0  0  0  0  0  0  0  0
    0.3760    1.8576   -1.6323 H   0  0  0  0  0  0  0  0  0  0  0  0
   -3.7927    2.3422    0.4134 C   0  0  0  0  0  0  0  0  0  0  0  0
   -4.8697    2.3493    0.6309 H   0  0  0  0  0  0  0  0  0  0  0  0
    2.1506    0.3480   -0.7090 C   0  0  0  0  0  0  0  0  0  0  0  0
    1.7787    0.0787   -1.7161 H   0  0  0  0  0  0  0  0  0  0  0  0
    2.5294   -0.5800   -0.2455 H   0  0  0  0  0  0  0  0  0  0  0  0
   -3.0539    3.5304    0.3304 C   0  0  0  0  0  0  0  0  0  0  0  0
   -3.5420    4.5040    0.4856 H   0  0  0  0  0  0  0  0  0  0  0  0
   -1.6799    3.4672    0.0561 C   0  0  0  0  0  0  0  0  0  0  0  0
   -1.0684    4.3783   -0.0090 H   0  0  0  0  0  0  0  0  0  0  0  0
    3.2653    1.3870   -0.8138 C   0  0  0  0  0  0  0  0  0  0  0  0
    3.7128    1.6205    0.1703 H   0  0  0  0  0  0  0  0  0  0  0  0
    2.9363    2.3214   -1.3084 H   0  0  0  0  0  0  0  0  0  0  0  0
   -3.1381    1.1206    0.2286 C   0  0  0  0  0  0  0  0  0  0  0  0
   -3.6320    0.1365    0.2826 H   0  0  0  0  0  0  0  0  0  0  0  0
  1  9  1  0  0  0  0
  2 24  1  0  0  0  0
  3 27  1  0  0  0  0
  4  5  1  0  0  0  0
  5  7  1  0  0  0  0
  5  6  1  0  0  0  0
  5  9  1  0  0  0  0
  8 12  1  6  0  0  0
  8  3  1  0  0  0  0
  8 22  1  0  0  0  0
  9 11  1  0  0  0  0
 10  9  1  0  0  0  0
 12 13  1  0  0  0  0
 12  4  1  0  0  0  0
 14 12  1  0  0  0  0
 15 16  1  0  0  0  0
 17 19  1  0  0  0  0
 17  4  1  0  0  0  0
 18 17  1  0  0  0  0
 20 15  1  0  0  0  0
 20 21  1  0  0  0  0
 22 20  2  0  0  0  0
 23 22  1  0  0  0  0
 24 17  1  0  0  0  0
 24 25  1  0  0  0  0
 26 24  1  0  0  0  0
 27 28  1  0  0  0  0
 27 15  2  0  0  0  0
M  END
