1,24
 OpenBabel05122313053D

 46 51  0  0  1  0  0  0  0  0999 V2000
   -1.7558   -0.2110    0.2643 N   0  0  0  0  0  2  0  0  0  0  0  0
   -3.1476    0.9190    1.5934 N   0  0  0  0  0  0  0  0  0  0  0  0
   -3.4646    1.6523    2.2268 H   0  0  0  0  0  0  0  0  0  0  0  0
    1.3455    2.6625    1.0655 N   0  0  0  0  0  0  0  0  0  0  0  0
    0.1803    2.0885    0.7284 C   0  0  0  0  0  0  0  0  0  0  0  0
   -0.6861    1.4883    1.6784 C   0  0  0  0  0  0  0  0  0  0  0  0
   -0.3137    1.5219    3.0331 C   0  0  0  0  0  0  0  0  0  0  0  0
   -0.9301    1.0092    3.7863 H   0  0  0  0  0  0  0  0  0  0  0  0
    0.8839    2.1538    3.3854 C   0  0  0  0  0  0  0  0  0  0  0  0
    1.2189    2.1903    4.4320 H   0  0  0  0  0  0  0  0  0  0  0  0
    1.6816    2.6947    2.3635 C   0  0  0  0  0  0  0  0  0  0  0  0
    2.6492    3.1684    2.6058 H   0  0  0  0  0  0  0  0  0  0  0  0
   -1.8493    0.7383    1.1922 C   0  0  2  0  0  3  0  0  0  0  0  0
   -3.0456   -0.6628    0.0207 C   0  0  0  0  0  0  0  0  0  0  0  0
   -3.5108   -1.6481   -0.8691 C   0  0  0  0  0  0  0  0  0  0  0  0
   -2.7891   -2.1835   -1.5061 H   0  0  0  0  0  0  0  0  0  0  0  0
   -4.8902   -1.8784   -0.8954 C   0  0  0  0  0  0  0  0  0  0  0  0
   -5.2954   -2.6389   -1.5795 H   0  0  0  0  0  0  0  0  0  0  0  0
   -5.7840   -1.1574   -0.0642 C   0  0  0  0  0  0  0  0  0  0  0  0
   -6.8614   -1.3736   -0.1198 H   0  0  0  0  0  0  0  0  0  0  0  0
   -5.3330   -0.1768    0.8294 C   0  0  0  0  0  0  0  0  0  0  0  0
   -6.0303    0.3777    1.4740 H   0  0  0  0  0  0  0  0  0  0  0  0
   -3.9496    0.0548    0.8574 C   0  0  0  0  0  0  0  0  0  0  0  0
    1.7558   -0.2110   -0.2644 N   0  0  0  0  0  2  0  0  0  0  0  0
    3.1476    0.9190   -1.5934 N   0  0  0  0  0  0  0  0  0  0  0  0
    3.4646    1.6524   -2.2267 H   0  0  0  0  0  0  0  0  0  0  0  0
   -1.3455    2.6626   -1.0654 N   0  0  0  0  0  0  0  0  0  0  0  0
   -0.1803    2.0885   -0.7283 C   0  0  0  0  0  0  0  0  0  0  0  0
    0.6861    1.4884   -1.6783 C   0  0  0  0  0  0  0  0  0  0  0  0
    0.3138    1.5220   -3.0330 C   0  0  0  0  0  0  0  0  0  0  0  0
    0.9301    1.0094   -3.7862 H   0  0  0  0  0  0  0  0  0  0  0  0
   -0.8839    2.1540   -3.3854 C   0  0  0  0  0  0  0  0  0  0  0  0
   -1.2189    2.1905   -4.4319 H   0  0  0  0  0  0  0  0  0  0  0  0
   -1.6816    2.6948   -2.3634 C   0  0  0  0  0  0  0  0  0  0  0  0
   -2.6492    3.1685   -2.6057 H   0  0  0  0  0  0  0  0  0  0  0  0
    1.8493    0.7383   -1.1921 C   0  0  2  0  0  3  0  0  0  0  0  0
    3.0456   -0.6628   -0.0208 C   0  0  0  0  0  0  0  0  0  0  0  0
    3.5108   -1.6482    0.8691 C   0  0  0  0  0  0  0  0  0  0  0  0
    2.7891   -2.1836    1.5060 H   0  0  0  0  0  0  0  0  0  0  0  0
    4.8902   -1.8785    0.8954 C   0  0  0  0  0  0  0  0  0  0  0  0
    5.2954   -2.6390    1.5795 H   0  0  0  0  0  0  0  0  0  0  0  0
    5.7840   -1.1575    0.0642 C   0  0  0  0  0  0  0  0  0  0  0  0
    6.8614   -1.3736    0.1198 H   0  0  0  0  0  0  0  0  0  0  0  0
    5.3330   -0.1768   -0.8294 C   0  0  0  0  0  0  0  0  0  0  0  0
    6.0303    0.3778   -1.4739 H   0  0  0  0  0  0  0  0  0  0  0  0
    3.9497    0.0548   -0.8574 C   0  0  0  0  0  0  0  0  0  0  0  0
  1 13  1  0  0  0  0
  2  3  1  0  0  0  0
  4 11  1  0  0  0  0
  5  4  2  0  0  0  0
  5  6  1  0  0  0  0
  6  7  2  0  0  0  0
  7  9  1  0  0  0  0
  7  8  1  0  0  0  0
  9 10  1  0  0  0  0
 11 12  1  0  0  0  0
 11  9  2  0  0  0  0
 13  2  1  0  0  0  0
 13  6  1  6  0  0  0
 14  1  1  0  0  0  0
 14 23  1  0  0  0  0
 15 14  2  0  0  0  0
 16 15  1  0  0  0  0
 17 15  1  0  0  0  0
 17 19  2  0  0  0  0
 18 17  1  0  0  0  0
 19 21  1  0  0  0  0
 20 19  1  0  0  0  0
 21 23  2  0  0  0  0
 21 22  1  0  0  0  0
 23  2  1  0  0  0  0
 24 37  1  0  0  0  0
 25 36  1  0  0  0  0
 25 46  1  0  0  0  0
 26 25  1  0  0  0  0
 27 28  1  0  0  0  0
 28  5  1  0  0  0  0
 29 28  2  0  0  0  0
 30 29  1  0  0  0  0
 31 30  1  0  0  0  0
 32 30  2  0  0  0  0
 32 34  1  0  0  0  0
 33 32  1  0  0  0  0
 34 27  2  0  0  0  0
 35 34  1  0  0  0  0
 36 29  1  1  0  0  0
 36 24  1  0  0  0  0
 37 38  1  0  0  0  0
 38 40  2  0  0  0  0
 38 39  1  0  0  0  0
 40 41  1  0  0  0  0
 42 43  1  0  0  0  0
 42 40  1  0  0  0  0
 44 42  2  0  0  0  0
 45 44  1  0  0  0  0
 46 44  1  0  0  0  0
 46 37  2  0  0  0  0
M  END
