1,2
 OpenBabel05122313053D

 28 29  0  0  1  0  0  0  0  0999 V2000
   -0.4058   -1.3936   -0.0212 N   0  0  0  0  0  2  0  0  0  0  0  0
   -0.5829    1.2125   -0.0263 N   0  0  0  0  0  2  0  0  0  0  0  0
   -3.5580   -4.0834    0.0456 O   0  0  0  0  0  0  0  0  0  0  0  0
   -4.1848    3.2630    0.0863 O   0  0  0  0  0  0  0  0  0  0  0  0
   -0.2144   -2.7288   -0.1153 C   0  0  0  0  0  3  0  0  0  0  0  0
    0.8242   -3.0641   -0.2340 H   0  0  0  0  0  0  0  0  0  0  0  0
   -1.2589   -3.6418   -0.0902 C   0  0  0  0  0  0  0  0  0  0  0  0
   -1.0719   -4.7211   -0.1695 H   0  0  0  0  0  0  0  0  0  0  0  0
   -2.5875   -3.1651    0.0225 C   0  0  0  0  0  0  0  0  0  0  0  0
   -2.7874   -1.7707    0.0884 C   0  0  0  0  0  0  0  0  0  0  0  0
   -3.7958   -1.3466    0.1489 H   0  0  0  0  0  0  0  0  0  0  0  0
   -1.6761   -0.9145    0.0555 C   0  0  0  0  0  0  0  0  0  0  0  0
   -1.7791    0.5566    0.0573 C   0  0  2  0  0  3  0  0  0  0  0  0
   -2.9869    1.2541    0.1001 C   0  0  0  0  0  0  0  0  0  0  0  0
   -3.9519    0.7361    0.1668 H   0  0  0  0  0  0  0  0  0  0  0  0
   -2.9903    2.6650    0.0382 C   0  0  0  0  0  0  0  0  0  0  0  0
   -1.7460    3.3256   -0.0798 C   0  0  0  0  0  0  0  0  0  0  0  0
   -1.6656    4.4167   -0.1570 H   0  0  0  0  0  0  0  0  0  0  0  0
   -0.5832    2.5550   -0.1134 C   0  0  0  0  0  0  0  0  0  0  0  0
    0.3978    3.0346   -0.2300 H   0  0  0  0  0  0  0  0  0  0  0  0
   -4.9198   -3.6622    0.1284 C   0  0  0  0  0  0  0  0  0  0  0  0
   -5.1097   -3.0987    1.0666 H   0  0  0  0  0  0  0  0  0  0  0  0
   -5.5253   -4.5852    0.1287 H   0  0  0  0  0  0  0  0  0  0  0  0
   -5.2009   -3.0397   -0.7475 H   0  0  0  0  0  0  0  0  0  0  0  0
   -4.2557    4.6884    0.0049 C   0  0  0  0  0  0  0  0  0  0  0  0
   -3.7175    5.1655    0.8510 H   0  0  0  0  0  0  0  0  0  0  0  0
   -5.3281    4.9437    0.0633 H   0  0  0  0  0  0  0  0  0  0  0  0
   -3.8422    5.0552   -0.9581 H   0  0  0  0  0  0  0  0  0  0  0  0
  1 12  1  0  0  0  0
  2 13  1  0  0  0  0
  3 21  1  0  0  0  0
  5  7  1  0  0  0  0
  5  1  1  0  0  0  0
  6  5  1  0  0  0  0
  7  9  2  0  0  0  0
  8  7  1  0  0  0  0
  9  3  1  0  0  0  0
  9 10  1  0  0  0  0
 10 11  1  0  0  0  0
 12 10  2  0  0  0  0
 13 12  1  6  0  0  0
 13 14  1  0  0  0  0
 14 15  1  0  0  0  0
 16  4  1  0  0  0  0
 16 14  2  0  0  0  0
 17 16  1  0  0  0  0
 18 17  1  0  0  0  0
 19 17  2  0  0  0  0
 19  2  1  0  0  0  0
 20 19  1  0  0  0  0
 21 23  1  0  0  0  0
 21 22  1  0  0  0  0
 24 21  1  0  0  0  0
 25 27  1  0  0  0  0
 25  4  1  0  0  0  0
 25 26  1  0  0  0  0
 28 25  1  0  0  0  0
M  END
