1,3
 OpenBabel05122313053D

 16 16  0  0  0  0  0  0  0  0999 V2000
    0.2313    0.4561    1.3638 N   0  0  0  0  0  0  0  0  0  0  0  0
   -0.1318    1.4278    1.3182 H   0  0  0  0  0  0  0  0  0  0  0  0
    0.2305    0.4486   -1.3653 N   0  0  0  0  0  0  0  0  0  0  0  0
   -0.1312    1.4211   -1.3263 H   0  0  0  0  0  0  0  0  0  0  0  0
    1.4866    0.2660    0.7082 C   0  0  0  0  0  0  0  0  0  0  0  0
    1.4863    0.2620   -0.7093 C   0  0  0  0  0  0  0  0  0  0  0  0
    2.6758   -0.0121   -1.4022 C   0  0  0  0  0  0  0  0  0  0  0  0
    2.6665   -0.0211   -2.5032 H   0  0  0  0  0  0  0  0  0  0  0  0
    3.8591   -0.2874   -0.7011 C   0  0  0  0  0  0  0  0  0  0  0  0
    4.7830   -0.5075   -1.2557 H   0  0  0  0  0  0  0  0  0  0  0  0
    3.8595   -0.2834    0.7017 C   0  0  0  0  0  0  0  0  0  0  0  0
    4.7837   -0.5002    1.2571 H   0  0  0  0  0  0  0  0  0  0  0  0
    2.6765   -0.0042    1.4019 C   0  0  0  0  0  0  0  0  0  0  0  0
    2.6678   -0.0069    2.5030 H   0  0  0  0  0  0  0  0  0  0  0  0
    0.2475    0.1532    2.3444 H   0  0  0  0  0  0  0  0  0  0  0  0
    0.2459    0.1392   -2.3439 H   0  0  0  0  0  0  0  0  0  0  0  0
  1 15  1  0  0  0  0
  2  1  1  0  0  0  0
  3  4  1  0  0  0  0
  3  6  1  0  0  0  0
  5  1  1  0  0  0  0
  5 13  1  0  0  0  0
  6  5  2  0  0  0  0
  7  6  1  0  0  0  0
  7  9  2  0  0  0  0
  8  7  1  0  0  0  0
  9 11  1  0  0  0  0
 10  9  1  0  0  0  0
 11 12  1  0  0  0  0
 11 13  2  0  0  0  0
 13 14  1  0  0  0  0
 16  3  1  0  0  0  0
M  END
