1,45
 OpenBabel05122313053D

 47 49  0  0  1  0  0  0  0  0999 V2000
   -0.3517   -0.6391   -0.1930 N   0  0  0  0  0  2  0  0  0  0  0  0
   -0.7280   -1.6956    1.0698 S   0  0  0  0  0  0  0  0  0  0  0  0
   -0.6251   -1.0140    2.4000 O   0  0  0  0  0  0  0  0  0  0  0  0
    0.0274   -2.9613    0.8781 O   0  0  0  0  0  0  0  0  0  0  0  0
   -2.4572   -2.1349    0.8410 C   0  0  0  0  0  0  0  0  0  0  0  0
   -2.8196   -2.9382   -0.2491 C   0  0  0  0  0  0  0  0  0  0  0  0
   -2.0476   -3.3070   -0.9396 H   0  0  0  0  0  0  0  0  0  0  0  0
   -4.1698   -3.2538   -0.4416 C   0  0  0  0  0  0  0  0  0  0  0  0
   -4.4645   -3.8788   -1.2995 H   0  0  0  0  0  0  0  0  0  0  0  0
   -5.1626   -2.7811    0.4428 C   0  0  0  0  0  0  0  0  0  0  0  0
   -4.7590   -2.0059    1.5497 C   0  0  0  0  0  0  0  0  0  0  0  0
   -5.5177   -1.6358    2.2569 H   0  0  0  0  0  0  0  0  0  0  0  0
   -3.4134   -1.6822    1.7579 C   0  0  0  0  0  0  0  0  0  0  0  0
   -3.0894   -1.0672    2.6085 H   0  0  0  0  0  0  0  0  0  0  0  0
   -6.6225   -3.0623    0.1979 C   0  0  0  0  0  0  0  0  0  0  0  0
   -6.7684   -3.8885   -0.5247 H   0  0  0  0  0  0  0  0  0  0  0  0
   -7.1280   -2.1629   -0.2164 H   0  0  0  0  0  0  0  0  0  0  0  0
   -7.1518   -3.3237    1.1362 H   0  0  0  0  0  0  0  0  0  0  0  0
   -0.8769    0.7302    0.0434 C   0  0  2  0  0  0  0  0  0  0  0  0
   -0.4873    1.1450    1.0003 H   0  0  0  0  0  0  0  0  0  0  0  0
   -2.3908    0.8525    0.0577 C   0  0  0  0  0  0  0  0  0  0  0  0
   -3.1747    0.3032   -0.9745 C   0  0  0  0  0  0  0  0  0  0  0  0
   -2.6843   -0.2866   -1.7639 H   0  0  0  0  0  0  0  0  0  0  0  0
   -4.5657    0.4683   -0.9757 C   0  0  0  0  0  0  0  0  0  0  0  0
   -5.1703    0.0190   -1.7786 H   0  0  0  0  0  0  0  0  0  0  0  0
   -5.1891    1.1986    0.0505 C   0  0  0  0  0  0  0  0  0  0  0  0
   -6.2823    1.3292    0.0496 H   0  0  0  0  0  0  0  0  0  0  0  0
   -4.4129    1.7570    1.0775 C   0  0  0  0  0  0  0  0  0  0  0  0
   -4.8945    2.3296    1.8848 H   0  0  0  0  0  0  0  0  0  0  0  0
   -3.0206    1.5816    1.0813 C   0  0  0  0  0  0  0  0  0  0  0  0
   -2.4045    2.0074    1.8881 H   0  0  0  0  0  0  0  0  0  0  0  0
   -0.3204    1.5974   -1.1048 C   0  0  1  0  0  0  0  0  0  0  0  0
   -0.6853    1.1464   -2.0518 H   0  0  0  0  0  0  0  0  0  0  0  0
   -0.7571    3.0465   -1.0469 C   0  0  0  0  0  0  0  0  0  0  0  0
   -0.3711    3.8757    0.0275 C   0  0  0  0  0  0  0  0  0  0  0  0
    0.2569    3.4790    0.8419 H   0  0  0  0  0  0  0  0  0  0  0  0
   -0.8045    5.2085    0.0756 C   0  0  0  0  0  0  0  0  0  0  0  0
   -0.4989    5.8458    0.9194 H   0  0  0  0  0  0  0  0  0  0  0  0
   -1.6282    5.7273   -0.9367 C   0  0  0  0  0  0  0  0  0  0  0  0
   -1.9680    6.7734   -0.8919 H   0  0  0  0  0  0  0  0  0  0  0  0
   -2.0200    4.9050   -2.0041 C   0  0  0  0  0  0  0  0  0  0  0  0
   -2.6706    5.3011   -2.7987 H   0  0  0  0  0  0  0  0  0  0  0  0
   -1.5844    3.5726   -2.0567 C   0  0  0  0  0  0  0  0  0  0  0  0
   -1.9026    2.9219   -2.8868 H   0  0  0  0  0  0  0  0  0  0  0  0
    1.1545    1.4366   -1.1033 N   0  0  0  0  0  0  0  0  0  0  0  0
    1.6415    2.0306   -0.3908 H   0  0  0  0  0  0  0  0  0  0  0  0
    1.5355    1.7504   -2.0060 H   0  0  0  0  0  0  0  0  0  0  0  0
  1 19  1  0  0  0  0
  1  2  1  0  0  0  0
  2  3  2  0  0  0  0
  4  2  2  0  0  0  0
  5  2  1  0  0  0  0
  5 13  1  0  0  0  0
  6  5  2  0  0  0  0
  7  6  1  0  0  0  0
  8  6  1  0  0  0  0
  8 10  2  0  0  0  0
  9  8  1  0  0  0  0
 10 11  1  0  0  0  0
 11 13  2  0  0  0  0
 11 12  1  0  0  0  0
 13 14  1  0  0  0  0
 15 10  1  0  0  0  0
 15 18  1  0  0  0  0
 16 15  1  0  0  0  0
 17 15  1  0  0  0  0
 19 21  1  0  0  0  0
 19 20  1  1  0  0  0
 21 30  1  0  0  0  0
 22 21  2  0  0  0  0
 23 22  1  0  0  0  0
 24 22  1  0  0  0  0
 24 26  2  0  0  0  0
 25 24  1  0  0  0  0
 26 28  1  0  0  0  0
 27 26  1  0  0  0  0
 28 30  2  0  0  0  0
 28 29  1  0  0  0  0
 30 31  1  0  0  0  0
 32 33  1  6  0  0  0
 32 45  1  0  0  0  0
 32 34  1  0  0  0  0
 32 19  1  0  0  0  0
 34 35  1  0  0  0  0
 35 37  2  0  0  0  0
 35 36  1  0  0  0  0
 37 38  1  0  0  0  0
 39 40  1  0  0  0  0
 39 37  1  0  0  0  0
 41 39  2  0  0  0  0
 42 41  1  0  0  0  0
 43 41  1  0  0  0  0
 43 34  2  0  0  0  0
 44 43  1  0  0  0  0
 45 46  1  0  0  0  0
 47 45  1  0  0  0  0
M  END
