2,3
 OpenBabel05122313053D

 65 67  0  0  1  0  0  0  0  0999 V2000
   -0.6566    0.9086    2.5523 As  0  0  0  0  0  2  0  0  0  0  0  0
    3.6308    0.8189    0.4409 N   0  0  0  0  0  2  0  0  0  0  0  0
    0.8764   -0.1688    0.5878 N   0  0  0  0  0  2  0  0  0  0  0  0
   -0.3356   -0.2211    0.1062 N   0  0  0  0  0  0  0  0  0  0  0  0
    0.9678    0.3651    1.8179 N   0  0  0  0  0  0  0  0  0  0  0  0
    5.1209    2.7086    0.2354 C   0  0  0  0  0  0  0  0  0  0  0  0
    5.8448    3.2554   -0.3847 H   0  0  0  0  0  0  0  0  0  0  0  0
    3.8368    2.4049    2.2473 C   0  0  0  0  0  0  0  0  0  0  0  0
    3.5234    2.7183    3.2536 H   0  0  0  0  0  0  0  0  0  0  0  0
    2.2878    0.4104    2.4516 C   0  0  0  0  0  0  0  0  0  0  0  0
    2.6625   -0.6305    2.5513 H   0  0  0  0  0  0  0  0  0  0  0  0
    2.1477    0.8260    3.4652 H   0  0  0  0  0  0  0  0  0  0  0  0
    3.2894    1.2417    1.6857 C   0  0  1  0  0  3  0  0  0  0  0  0
    4.5177    1.5544   -0.2734 C   0  0  0  0  0  0  0  0  0  0  0  0
    4.7248    1.1997   -1.2920 H   0  0  0  0  0  0  0  0  0  0  0  0
   -1.3021    0.2550    0.9142 C   0  0  0  0  0  0  0  0  0  0  0  0
    4.7753    3.1477    1.5191 C   0  0  0  0  0  0  0  0  0  0  0  0
    5.2229    4.0572    1.9465 H   0  0  0  0  0  0  0  0  0  0  0  0
   -2.7134    0.1892    0.4495 C   0  0  0  0  0  0  0  0  0  0  0  0
   -3.2755    1.2907   -0.2776 C   0  0  0  0  0  0  0  0  0  0  0  0
   -3.4677   -1.0083    0.6665 C   0  0  0  0  0  0  0  0  0  0  0  0
   -2.5834    2.6725   -0.4759 C   0  0  0  0  0  0  0  0  0  0  0  0
   -5.3346   -0.0334   -0.6265 C   0  0  0  0  0  0  0  0  0  0  0  0
   -3.1480   -1.8047    3.0321 C   0  0  0  0  0  0  0  0  0  0  0  0
   -4.1928   -1.5177    3.2666 H   0  0  0  0  0  0  0  0  0  0  0  0
   -2.8616   -2.6487    3.6939 H   0  0  0  0  0  0  0  0  0  0  0  0
   -2.4953   -0.9464    3.2893 H   0  0  0  0  0  0  0  0  0  0  0  0
   -3.0065   -2.2117    1.5459 C   0  0  0  0  0  0  0  0  0  0  0  0
   -4.5734    1.1328   -0.7926 C   0  0  0  0  0  0  0  0  0  0  0  0
   -5.0169    1.9576   -1.3604 H   0  0  0  0  0  0  0  0  0  0  0  0
   -7.6243    1.0043   -0.6722 C   0  0  0  0  0  0  0  0  0  0  0  0
   -7.2059    2.0068   -0.8907 H   0  0  0  0  0  0  0  0  0  0  0  0
   -8.6420    0.9614   -1.1124 H   0  0  0  0  0  0  0  0  0  0  0  0
   -7.7203    0.9109    0.4286 H   0  0  0  0  0  0  0  0  0  0  0  0
   -4.7614   -1.0752    0.1102 C   0  0  0  0  0  0  0  0  0  0  0  0
   -5.3457   -1.9866    0.2564 H   0  0  0  0  0  0  0  0  0  0  0  0
   -1.5615   -2.7038    1.2717 C   0  0  0  0  0  0  0  0  0  0  0  0
   -1.3403   -2.7609    0.1887 H   0  0  0  0  0  0  0  0  0  0  0  0
   -0.7901   -2.0710    1.7433 H   0  0  0  0  0  0  0  0  0  0  0  0
   -1.4383   -3.7184    1.7013 H   0  0  0  0  0  0  0  0  0  0  0  0
   -3.9148   -3.4466    1.3324 C   0  0  0  0  0  0  0  0  0  0  0  0
   -3.9157   -3.7786    0.2748 H   0  0  0  0  0  0  0  0  0  0  0  0
   -3.5320   -4.2841    1.9482 H   0  0  0  0  0  0  0  0  0  0  0  0
   -4.9623   -3.2724    1.6464 H   0  0  0  0  0  0  0  0  0  0  0  0
   -1.1035    2.5859   -0.9256 C   0  0  0  0  0  0  0  0  0  0  0  0
   -0.4063    2.3611   -0.1005 H   0  0  0  0  0  0  0  0  0  0  0  0
   -0.9401    1.8205   -1.7075 H   0  0  0  0  0  0  0  0  0  0  0  0
   -0.7882    3.5645   -1.3400 H   0  0  0  0  0  0  0  0  0  0  0  0
   -3.3049    3.5136   -1.5558 C   0  0  0  0  0  0  0  0  0  0  0  0
   -4.3446    3.7761   -1.2779 H   0  0  0  0  0  0  0  0  0  0  0  0
   -2.7590    4.4679   -1.6905 H   0  0  0  0  0  0  0  0  0  0  0  0
   -3.3227    2.9947   -2.5351 H   0  0  0  0  0  0  0  0  0  0  0  0
   -6.7395   -0.1253   -1.2470 C   0  0  0  0  0  0  0  0  0  0  0  0
   -7.4194   -1.4731   -0.9505 C   0  0  0  0  0  0  0  0  0  0  0  0
   -8.4254   -1.4964   -1.4156 H   0  0  0  0  0  0  0  0  0  0  0  0
   -6.8425   -2.3257   -1.3619 H   0  0  0  0  0  0  0  0  0  0  0  0
   -7.5519   -1.6386    0.1379 H   0  0  0  0  0  0  0  0  0  0  0  0
   -2.6900    3.4626    0.8502 C   0  0  0  0  0  0  0  0  0  0  0  0
   -3.7488    3.5929    1.1525 H   0  0  0  0  0  0  0  0  0  0  0  0
   -2.1628    2.9512    1.6809 H   0  0  0  0  0  0  0  0  0  0  0  0
   -2.2324    4.4678    0.7390 H   0  0  0  0  0  0  0  0  0  0  0  0
   -6.6247    0.0372   -2.7799 C   0  0  0  0  0  0  0  0  0  0  0  0
   -6.1760    1.0115   -3.0578 H   0  0  0  0  0  0  0  0  0  0  0  0
   -5.9913   -0.7613   -3.2160 H   0  0  0  0  0  0  0  0  0  0  0  0
   -7.6275   -0.0196   -3.2519 H   0  0  0  0  0  0  0  0  0  0  0  0
  2 13  1  0  0  0  0
  3  5  1  0  0  0  0
  4  3  1  0  0  0  0
  4 16  2  0  0  0  0
  5 10  1  0  0  0  0
  5  1  1  0  0  0  0
  6 17  1  0  0  0  0
  7  6  1  0  0  0  0
  8  9  1  0  0  0  0
 10 11  1  0  0  0  0
 10 12  1  0  0  0  0
 13  8  1  0  0  0  0
 13 10  1  6  0  0  0
 14  6  2  0  0  0  0
 14  2  1  0  0  0  0
 15 14  1  0  0  0  0
 16  1  1  0  0  0  0
 17 18  1  0  0  0  0
 17  8  2  0  0  0  0
 19 21  1  0  0  0  0
 19 16  1  0  0  0  0
 20 19  2  0  0  0  0
 21 28  1  0  0  0  0
 22 20  1  0  0  0  0
 22 58  1  0  0  0  0
 23 35  1  0  0  0  0
 24 25  1  0  0  0  0
 24 27  1  0  0  0  0
 24 26  1  0  0  0  0
 28 24  1  0  0  0  0
 29 23  2  0  0  0  0
 29 20  1  0  0  0  0
 30 29  1  0  0  0  0
 31 34  1  0  0  0  0
 32 31  1  0  0  0  0
 33 31  1  0  0  0  0
 35 36  1  0  0  0  0
 35 21  2  0  0  0  0
 37 28  1  0  0  0  0
 37 40  1  0  0  0  0
 37 39  1  0  0  0  0
 38 37  1  0  0  0  0
 41 28  1  0  0  0  0
 41 44  1  0  0  0  0
 41 43  1  0  0  0  0
 42 41  1  0  0  0  0
 45 22  1  0  0  0  0
 45 46  1  0  0  0  0
 47 45  1  0  0  0  0
 48 45  1  0  0  0  0
 49 50  1  0  0  0  0
 49 22  1  0  0  0  0
 51 49  1  0  0  0  0
 52 49  1  0  0  0  0
 53 54  1  0  0  0  0
 53 31  1  0  0  0  0
 53 23  1  0  0  0  0
 54 57  1  0  0  0  0
 55 54  1  0  0  0  0
 56 54  1  0  0  0  0
 58 59  1  0  0  0  0
 58 60  1  0  0  0  0
 61 58  1  0  0  0  0
 62 53  1  0  0  0  0
 63 62  1  0  0  0  0
 64 62  1  0  0  0  0
 65 62  1  0  0  0  0
M  END
