1,2
 OpenBabel05122313053D

 34 33  0  0  0  0  0  0  0  0999 V2000
   -0.2346    1.2591   -0.0200 N   0  0  0  0  0  2  0  0  0  0  0  0
   -0.6112   -0.9536   -0.0578 N   0  0  0  0  0  2  0  0  0  0  0  0
   -2.4973    0.6663    0.0072 N   0  0  0  0  0  0  0  0  0  0  0  0
   -0.5751    2.6715    0.0041 C   0  0  0  0  0  0  0  0  0  0  0  0
   -1.4623    2.7764    0.6708 H   0  0  0  0  0  0  0  0  0  0  0  0
    0.5768    3.5116    0.5606 C   0  0  0  0  0  0  0  0  0  0  0  0
    0.8053    3.2545    1.6131 H   0  0  0  0  0  0  0  0  0  0  0  0
    0.3195    4.5890    0.5254 H   0  0  0  0  0  0  0  0  0  0  0  0
    1.5035    3.3675   -0.0343 H   0  0  0  0  0  0  0  0  0  0  0  0
   -1.0151    3.1551   -1.3882 C   0  0  0  0  0  0  0  0  0  0  0  0
   -1.8621    2.5356   -1.7395 H   0  0  0  0  0  0  0  0  0  0  0  0
   -0.1862    3.0841   -2.1227 H   0  0  0  0  0  0  0  0  0  0  0  0
   -1.3484    4.2129   -1.3491 H   0  0  0  0  0  0  0  0  0  0  0  0
   -1.2597   -2.2183   -0.3529 C   0  0  0  0  0  0  0  0  0  0  0  0
   -2.1887   -2.2942    0.2553 H   0  0  0  0  0  0  0  0  0  0  0  0
   -0.3740   -3.3954    0.0706 C   0  0  0  0  0  0  0  0  0  0  0  0
   -0.1849   -3.3858    1.1616 H   0  0  0  0  0  0  0  0  0  0  0  0
    0.6084   -3.3665   -0.4434 H   0  0  0  0  0  0  0  0  0  0  0  0
   -0.8621   -4.3575   -0.1823 H   0  0  0  0  0  0  0  0  0  0  0  0
   -1.6776   -2.3227   -1.8310 C   0  0  0  0  0  0  0  0  0  0  0  0
   -2.2667   -1.4337   -2.1314 H   0  0  0  0  0  0  0  0  0  0  0  0
   -2.3013   -3.2242   -2.0020 H   0  0  0  0  0  0  0  0  0  0  0  0
   -0.7955   -2.3863   -2.4988 H   0  0  0  0  0  0  0  0  0  0  0  0
   -1.2499    0.2924   -0.0281 C   0  0  0  0  0  0  0  0  0  0  0  0
   -3.6465   -0.1858    0.2221 C   0  0  0  0  0  0  0  0  0  0  0  0
   -3.6183   -1.1217   -0.3885 H   0  0  0  0  0  0  0  0  0  0  0  0
   -3.7433   -0.5977    1.7024 C   0  0  0  0  0  0  0  0  0  0  0  0
   -2.8493   -1.1760    2.0150 H   0  0  0  0  0  0  0  0  0  0  0  0
   -4.6434   -1.2174    1.8963 H   0  0  0  0  0  0  0  0  0  0  0  0
   -3.7947    0.3081    2.3412 H   0  0  0  0  0  0  0  0  0  0  0  0
   -4.9021    0.5830   -0.2125 C   0  0  0  0  0  0  0  0  0  0  0  0
   -4.8343    0.8581   -1.2839 H   0  0  0  0  0  0  0  0  0  0  0  0
   -4.9898    1.5234    0.3696 H   0  0  0  0  0  0  0  0  0  0  0  0
   -5.8215   -0.0190   -0.0601 H   0  0  0  0  0  0  0  0  0  0  0  0
  1  4  1  0  0  0  0
  2 24  1  0  0  0  0
  3 25  1  0  0  0  0
  4  6  1  0  0  0  0
  4  5  1  0  0  0  0
  6  7  1  0  0  0  0
  8  6  1  0  0  0  0
  9  6  1  0  0  0  0
 10 13  1  0  0  0  0
 10  4  1  0  0  0  0
 11 10  1  0  0  0  0
 12 10  1  0  0  0  0
 14  2  1  0  0  0  0
 14 16  1  0  0  0  0
 14 15  1  0  0  0  0
 16 17  1  0  0  0  0
 18 16  1  0  0  0  0
 19 16  1  0  0  0  0
 20 14  1  0  0  0  0
 21 20  1  0  0  0  0
 22 20  1  0  0  0  0
 23 20  1  0  0  0  0
 24  1  1  0  0  0  0
 24  3  2  0  0  0  0
 25 27  1  0  0  0  0
 26 25  1  0  0  0  0
 27 29  1  0  0  0  0
 27 28  1  0  0  0  0
 27 30  1  0  0  0  0
 31 34  1  0  0  0  0
 31 25  1  0  0  0  0
 31 33  1  0  0  0  0
 32 31  1  0  0  0  0
M  END
