1,2
 OpenBabel05122313053D

 33 33  0  0  0  0  0  0  0  0999 V2000
    0.1490    1.6033    0.8275 N   0  0  0  0  0  0  0  0  0  0  0  0
    0.5983   -1.2322    1.0425 N   0  0  0  0  0  0  0  0  0  0  0  0
    2.3278    0.0490   -1.0514 N   0  0  0  0  0  0  0  0  0  0  0  0
    0.7693    1.0237    2.0524 C   0  0  0  0  0  0  0  0  0  0  0  0
   -0.0547    0.8452    2.7712 H   0  0  0  0  0  0  0  0  0  0  0  0
    1.4648    1.7616    2.5189 H   0  0  0  0  0  0  0  0  0  0  0  0
    1.5017   -0.2632    1.7434 C   0  0  0  0  0  0  0  0  0  0  0  0
    1.9035   -0.7194    2.6744 H   0  0  0  0  0  0  0  0  0  0  0  0
    2.3386   -0.0489    1.0529 H   0  0  0  0  0  0  0  0  0  0  0  0
    1.3666   -2.0286    0.0401 C   0  0  0  0  0  0  0  0  0  0  0  0
    0.7257   -2.8850   -0.2460 H   0  0  0  0  0  0  0  0  0  0  0  0
    2.2855   -2.4208    0.5357 H   0  0  0  0  0  0  0  0  0  0  0  0
    1.6941   -1.2504   -1.2461 C   0  0  0  0  0  0  0  0  0  0  0  0
    2.3376   -1.9081   -1.8746 H   0  0  0  0  0  0  0  0  0  0  0  0
    0.7385   -1.1236   -1.7987 H   0  0  0  0  0  0  0  0  0  0  0  0
    1.5433    1.2369   -1.3471 C   0  0  0  0  0  0  0  0  0  0  0  0
    0.6011    0.9580   -1.8670 H   0  0  0  0  0  0  0  0  0  0  0  0
    2.1043    1.8971   -2.0503 H   0  0  0  0  0  0  0  0  0  0  0  0
    1.1587    2.1368   -0.1571 C   0  0  0  0  0  0  0  0  0  0  0  0
    2.0647    2.4558    0.4071 H   0  0  0  0  0  0  0  0  0  0  0  0
    0.7115    3.0501   -0.5951 H   0  0  0  0  0  0  0  0  0  0  0  0
   -0.7644    2.7005    1.2323 C   0  0  0  0  0  0  0  0  0  0  0  0
   -1.4847    2.3172    1.9778 H   0  0  0  0  0  0  0  0  0  0  0  0
   -1.3382    3.0256    0.3454 H   0  0  0  0  0  0  0  0  0  0  0  0
   -0.1846    3.5429    1.6725 H   0  0  0  0  0  0  0  0  0  0  0  0
   -0.0660   -2.1283    2.0159 C   0  0  0  0  0  0  0  0  0  0  0  0
   -0.8249   -2.7262    1.4770 H   0  0  0  0  0  0  0  0  0  0  0  0
   -0.5785   -1.5202    2.7852 H   0  0  0  0  0  0  0  0  0  0  0  0
    0.6824   -2.7892    2.5097 H   0  0  0  0  0  0  0  0  0  0  0  0
    3.7421    0.1259   -1.3503 C   0  0  0  0  0  0  0  0  0  0  0  0
    4.2866   -0.7145   -0.8722 H   0  0  0  0  0  0  0  0  0  0  0  0
    4.1776    1.0613   -0.9413 H   0  0  0  0  0  0  0  0  0  0  0  0
    3.9726    0.0976   -2.4478 H   0  0  0  0  0  0  0  0  0  0  0  0
  1 22  1  0  0  0  0
  1  4  1  0  0  0  0
  2  7  1  0  0  0  0
  2 26  1  0  0  0  0
  4  6  1  0  0  0  0
  4  5  1  0  0  0  0
  7  4  1  0  0  0  0
  7  8  1  0  0  0  0
  9  7  1  0  0  0  0
 10 12  1  0  0  0  0
 10  2  1  0  0  0  0
 11 10  1  0  0  0  0
 13  3  1  0  0  0  0
 13 10  1  0  0  0  0
 14 13  1  0  0  0  0
 15 13  1  0  0  0  0
 16  3  1  0  0  0  0
 16 19  1  0  0  0  0
 17 16  1  0  0  0  0
 18 16  1  0  0  0  0
 19 20  1  0  0  0  0
 19  1  1  0  0  0  0
 21 19  1  0  0  0  0
 22 25  1  0  0  0  0
 22 23  1  0  0  0  0
 24 22  1  0  0  0  0
 26 29  1  0  0  0  0
 26 28  1  0  0  0  0
 27 26  1  0  0  0  0
 30  3  1  0  0  0  0
 30 32  1  0  0  0  0
 30 31  1  0  0  0  0
 33 30  1  0  0  0  0
M  END
