1,5
 OpenBabel05122313053D

 18 19  0  0  1  0  0  0  0  0999 V2000
   -0.6413    1.9099    0.1015 N   0  0  0  0  0  0  0  0  0  0  0  0
   -0.2020    2.8628   -0.7574 N   0  0  0  0  0  0  0  0  0  0  0  0
   -1.1327    3.7871   -0.8639 N   0  0  0  0  0  0  0  0  0  0  0  0
   -2.2000    3.4592   -0.1081 N   0  0  0  0  0  0  0  0  0  0  0  0
   -2.1863   -0.5548   -0.1511 N   0  0  0  0  0  2  0  0  0  0  0  0
   -1.8811    2.2899    0.4682 C   0  0  0  0  0  3  0  0  0  0  0  0
   -2.7776    1.3877    1.2524 C   0  0  0  0  0  0  0  0  0  0  0  0
   -2.2455    1.0273    2.1593 H   0  0  0  0  0  0  0  0  0  0  0  0
   -3.6825    1.9410    1.5609 H   0  0  0  0  0  0  0  0  0  0  0  0
   -3.1697    0.1545    0.4533 C   0  0  2  0  0  3  0  0  0  0  0  0
   -2.4953   -1.6726   -0.8354 C   0  0  0  0  0  0  0  0  0  0  0  0
   -1.6429   -2.2182   -1.2713 H   0  0  0  0  0  0  0  0  0  0  0  0
   -3.8073   -2.1398   -0.9715 C   0  0  0  0  0  0  0  0  0  0  0  0
   -4.0098   -3.0582   -1.5404 H   0  0  0  0  0  0  0  0  0  0  0  0
   -4.8361   -1.4107   -0.3600 C   0  0  0  0  0  0  0  0  0  0  0  0
   -5.8833   -1.7393   -0.4421 H   0  0  0  0  0  0  0  0  0  0  0  0
   -4.5124   -0.2543    0.3607 C   0  0  0  0  0  0  0  0  0  0  0  0
   -5.2936    0.3412    0.8548 H   0  0  0  0  0  0  0  0  0  0  0  0
  1  6  1  0  0  0  0
  2  1  2  0  0  0  0
  3  2  1  0  0  0  0
  3  4  2  0  0  0  0
  4  6  1  0  0  0  0
  5 10  1  0  0  0  0
  6  7  1  0  0  0  0
  7  9  1  0  0  0  0
  7  8  1  0  0  0  0
 10  7  1  1  0  0  0
 11  5  1  0  0  0  0
 12 11  1  0  0  0  0
 13 11  2  0  0  0  0
 13 15  1  0  0  0  0
 14 13  1  0  0  0  0
 15 17  2  0  0  0  0
 16 15  1  0  0  0  0
 17 10  1  0  0  0  0
 17 18  1  0  0  0  0
M  END
