1,2
 OpenBabel05122313053D

 18 19  0  0  1  0  0  0  0  0999 V2000
    0.6406    2.2165    0.7135 N   0  0  0  0  0  2  0  0  0  0  0  0
   -0.4415    1.7539   -1.6525 N   0  0  0  0  0  2  0  0  0  0  0  0
   -0.1367    3.0449   -1.3239 N   0  0  0  0  0  0  0  0  0  0  0  0
    0.4803    3.3018   -0.0814 C   0  0  2  0  0  3  0  0  0  0  0  0
    1.2352    2.3754    1.9190 C   0  0  0  0  0  0  0  0  0  0  0  0
    1.3425    1.4562    2.5152 H   0  0  0  0  0  0  0  0  0  0  0  0
   -1.0128    1.7930   -2.8619 C   0  0  0  0  0  3  0  0  0  0  0  0
   -1.3475    0.8589   -3.3283 H   0  0  0  0  0  0  0  0  0  0  0  0
   -0.5116    3.9037   -2.3315 C   0  0  0  0  0  0  0  0  0  0  0  0
   -0.3556    4.9841   -2.2593 H   0  0  0  0  0  0  0  0  0  0  0  0
    1.5004    4.7423    1.5497 C   0  0  0  0  0  0  0  0  0  0  0  0
    1.8371    5.7372    1.8753 H   0  0  0  0  0  0  0  0  0  0  0  0
    1.6758    3.6194    2.3754 C   0  0  0  0  0  0  0  0  0  0  0  0
    2.1504    3.7031    3.3626 H   0  0  0  0  0  0  0  0  0  0  0  0
    0.8955    4.5877    0.2976 C   0  0  0  0  0  0  0  0  0  0  0  0
    0.7567    5.4476   -0.3703 H   0  0  0  0  0  0  0  0  0  0  0  0
   -1.0771    3.1302   -3.3336 C   0  0  0  0  0  0  0  0  0  0  0  0
   -1.4877    3.4844   -4.2842 H   0  0  0  0  0  0  0  0  0  0  0  0
  1  5  1  0  0  0  0
  2  3  1  0  0  0  0
  4  3  1  6  0  0  0
  4 15  1  0  0  0  0
  4  1  1  0  0  0  0
  5 13  2  0  0  0  0
  5  6  1  0  0  0  0
  7  2  1  0  0  0  0
  8  7  1  0  0  0  0
  9 10  1  0  0  0  0
  9  3  1  0  0  0  0
 11 12  1  0  0  0  0
 11 13  1  0  0  0  0
 13 14  1  0  0  0  0
 15 11  2  0  0  0  0
 16 15  1  0  0  0  0
 17  7  1  0  0  0  0
 17  9  2  0  0  0  0
 18 17  1  0  0  0  0
M  END
