2,5
 OpenBabel05122313053D

 55 56  0  0  0  0  0  0  0  0999 V2000
   -0.2650   -0.0691    1.8190 C   0  0  0  0  0  0  0  0  0  0  0  0
    1.7798    0.1671    0.7472 N   0  0  0  0  0  2  0  0  0  0  0  0
    1.1794   -0.0500    1.9554 C   0  0  0  0  0  0  0  0  0  0  0  0
    2.4515    0.3059   -1.7297 O   0  0  0  0  0  0  0  0  0  0  0  0
   -0.6696    0.1071    0.5624 N   0  0  0  0  0  2  0  0  0  0  0  0
    3.9445    0.0842    1.7174 C   0  0  0  0  0  0  0  0  0  0  0  0
    5.0359    0.1458    1.6069 H   0  0  0  0  0  0  0  0  0  0  0  0
    1.9685   -0.2199    3.1078 C   0  0  0  0  0  0  0  0  0  0  0  0
    1.4952   -0.4129    4.0801 H   0  0  0  0  0  0  0  0  0  0  0  0
   -2.0610    0.0945    0.2436 C   0  0  0  0  0  0  0  0  0  0  0  0
    3.3607   -0.1494    2.9791 C   0  0  0  0  0  0  0  0  0  0  0  0
    4.0015   -0.2775    3.8635 H   0  0  0  0  0  0  0  0  0  0  0  0
    3.1184    0.2287    0.5957 C   0  0  0  0  0  0  0  0  0  0  0  0
   -2.7114    1.3422    0.0725 C   0  0  0  0  0  0  0  0  0  0  0  0
   -2.7315   -1.1450    0.0949 C   0  0  0  0  0  0  0  0  0  0  0  0
   -1.9821   -2.4696    0.0903 C   0  0  0  0  0  0  0  0  0  0  0  0
   -0.9306   -2.2795    0.3864 H   0  0  0  0  0  0  0  0  0  0  0  0
   -1.9295    2.6458    0.1509 C   0  0  0  0  0  0  0  0  0  0  0  0
   -0.8561    2.3710    0.0901 H   0  0  0  0  0  0  0  0  0  0  0  0
    3.5607    0.5653   -0.8281 C   0  0  0  0  0  0  0  0  0  0  0  0
   -1.1840   -0.2884    2.9772 C   0  0  0  0  0  0  0  0  0  0  0  0
   -2.2063    0.0615    2.7455 H   0  0  0  0  0  0  0  0  0  0  0  0
   -0.8134    0.2335    3.8812 H   0  0  0  0  0  0  0  0  0  0  0  0
   -1.2489   -1.3717    3.2179 H   0  0  0  0  0  0  0  0  0  0  0  0
   -4.7973    0.1178   -0.2616 C   0  0  0  0  0  0  0  0  0  0  0  0
   -5.8818    0.1256   -0.4493 H   0  0  0  0  0  0  0  0  0  0  0  0
   -4.1163   -1.1009   -0.1504 C   0  0  0  0  0  0  0  0  0  0  0  0
   -4.6675   -2.0458   -0.2717 H   0  0  0  0  0  0  0  0  0  0  0  0
   -4.0961    1.3274   -0.1635 C   0  0  0  0  0  0  0  0  0  0  0  0
   -4.6320    2.2807   -0.2862 H   0  0  0  0  0  0  0  0  0  0  0  0
    3.8330    2.0714   -0.9167 C   0  0  0  0  0  0  0  0  0  0  0  0
    2.9231    2.6360   -0.6331 H   0  0  0  0  0  0  0  0  0  0  0  0
    4.0984    2.3347   -1.9589 H   0  0  0  0  0  0  0  0  0  0  0  0
    4.6612    2.3655   -0.2428 H   0  0  0  0  0  0  0  0  0  0  0  0
    4.7550   -0.2801   -1.2775 C   0  0  0  0  0  0  0  0  0  0  0  0
    4.4953   -1.3551   -1.2086 H   0  0  0  0  0  0  0  0  0  0  0  0
    5.6487   -0.0809   -0.6542 H   0  0  0  0  0  0  0  0  0  0  0  0
    5.0035   -0.0334   -2.3277 H   0  0  0  0  0  0  0  0  0  0  0  0
   -1.9198   -3.0206   -1.3468 C   0  0  0  0  0  0  0  0  0  0  0  0
   -1.4766   -2.2687   -2.0279 H   0  0  0  0  0  0  0  0  0  0  0  0
   -2.9327   -3.2856   -1.7167 H   0  0  0  0  0  0  0  0  0  0  0  0
   -1.2797   -3.9245   -1.3815 H   0  0  0  0  0  0  0  0  0  0  0  0
   -2.5763   -3.4922    1.0703 C   0  0  0  0  0  0  0  0  0  0  0  0
   -2.6198   -3.0979    2.1069 H   0  0  0  0  0  0  0  0  0  0  0  0
   -1.9625   -4.4155    1.0802 H   0  0  0  0  0  0  0  0  0  0  0  0
   -3.6077   -3.7864    0.7843 H   0  0  0  0  0  0  0  0  0  0  0  0
   -2.2179    3.5591   -1.0487 C   0  0  0  0  0  0  0  0  0  0  0  0
   -1.9996    3.0205   -1.9913 H   0  0  0  0  0  0  0  0  0  0  0  0
   -1.5774    4.4639   -1.0058 H   0  0  0  0  0  0  0  0  0  0  0  0
   -3.2729    3.9024   -1.0692 H   0  0  0  0  0  0  0  0  0  0  0  0
   -2.1662    3.3572    1.4940 C   0  0  0  0  0  0  0  0  0  0  0  0
   -1.5600    4.2840    1.5634 H   0  0  0  0  0  0  0  0  0  0  0  0
   -1.8975    2.7092    2.3535 H   0  0  0  0  0  0  0  0  0  0  0  0
   -3.2330    3.6407    1.6125 H   0  0  0  0  0  0  0  0  0  0  0  0
    2.3677   -0.7220   -1.8160 H   0  0  0  0  0  0  0  0  0  0  0  0
  1  3  2  0  0  0  0
  1 21  1  0  0  0  0
  2  3  1  0  0  0  0
  3  8  1  0  0  0  0
  4 20  1  0  0  0  0
  5  1  1  0  0  0  0
  6 11  1  0  0  0  0
  7  6  1  0  0  0  0
  8  9  1  0  0  0  0
 10  5  1  0  0  0  0
 11  8  2  0  0  0  0
 11 12  1  0  0  0  0
 13  2  1  0  0  0  0
 13  6  2  0  0  0  0
 14 18  1  0  0  0  0
 14 10  2  0  0  0  0
 15 10  1  0  0  0  0
 16 15  1  0  0  0  0
 16 17  1  0  0  0  0
 16 43  1  0  0  0  0
 18 51  1  0  0  0  0
 19 18  1  0  0  0  0
 20 13  1  0  0  0  0
 21 24  1  0  0  0  0
 21 23  1  0  0  0  0
 22 21  1  0  0  0  0
 25 29  2  0  0  0  0
 25 27  1  0  0  0  0
 26 25  1  0  0  0  0
 27 15  2  0  0  0  0
 28 27  1  0  0  0  0
 29 14  1  0  0  0  0
 30 29  1  0  0  0  0
 31 20  1  0  0  0  0
 31 32  1  0  0  0  0
 31 34  1  0  0  0  0
 33 31  1  0  0  0  0
 35 36  1  0  0  0  0
 35 20  1  0  0  0  0
 35 37  1  0  0  0  0
 38 35  1  0  0  0  0
 39 16  1  0  0  0  0
 40 39  1  0  0  0  0
 41 39  1  0  0  0  0
 42 39  1  0  0  0  0
 43 45  1  0  0  0  0
 43 44  1  0  0  0  0
 46 43  1  0  0  0  0
 47 49  1  0  0  0  0
 47 18  1  0  0  0  0
 48 47  1  0  0  0  0
 50 47  1  0  0  0  0
 51 52  1  0  0  0  0
 51 54  1  0  0  0  0
 51 53  1  0  0  0  0
 55  4  1  0  0  0  0
M  END
