1,10
 OpenBabel05122313053D

 37 39  0  0  0  0  0  0  0  0999 V2000
   -2.0592   -0.6748   -0.2640 N   0  0  0  0  0  2  0  0  0  0  0  0
   -3.3407   -0.2850   -0.4019 C   0  0  0  0  0  3  0  0  0  0  0  0
   -4.2524   -1.0012   -1.1879 C   0  0  0  0  0  0  0  0  0  0  0  0
   -3.8073   -2.1557   -1.8459 C   0  0  0  0  0  0  0  0  0  0  0  0
   -2.4691   -2.5495   -1.7018 C   0  0  0  0  0  0  0  0  0  0  0  0
   -1.6108   -1.7844   -0.8952 C   0  0  0  0  0  0  0  0  0  0  0  0
   -0.1783   -2.1854   -0.6482 C   0  0  0  0  0  0  0  0  0  0  0  0
   -0.1316   -2.4776    0.4277 H   0  0  0  0  0  0  0  0  0  0  0  0
    0.0723   -3.0738   -1.2749 H   0  0  0  0  0  0  0  0  0  0  0  0
    0.2357    1.6770   -0.2389 N   0  0  0  0  0  2  0  0  0  0  0  0
    0.3287    2.9621    0.1716 C   0  0  0  0  0  3  0  0  0  0  0  0
    0.9715    3.9441   -0.5847 C   0  0  0  0  0  0  0  0  0  0  0  0
    1.5281    3.5798   -1.8208 C   0  0  0  0  0  0  0  0  0  0  0  0
    1.4260    2.2518   -2.2414 C   0  0  0  0  0  0  0  0  0  0  0  0
    0.7763    1.3125   -1.4211 C   0  0  0  0  0  0  0  0  0  0  0  0
    0.7705   -1.0954   -0.8207 N   0  0  0  0  0  0  0  0  0  0  0  0
    0.5950   -0.1208   -1.8842 C   0  0  0  0  0  0  0  0  0  0  0  0
    2.0732   -1.2371   -0.3338 C   0  0  0  0  0  0  0  0  0  0  0  0
    2.9396   -0.2949   -0.7490 N   0  0  0  0  0  0  0  0  0  0  0  0
    4.2073   -0.3357   -0.3146 C   0  0  0  0  0  0  0  0  0  0  0  0
    4.6965   -1.3267    0.5432 C   0  0  0  0  0  0  0  0  0  0  0  0
    3.7962   -2.3247    0.9580 C   0  0  0  0  0  0  0  0  0  0  0  0
    2.4714   -2.2964    0.5230 C   0  0  0  0  0  0  0  0  0  0  0  0
   -3.6056    0.6303    0.1603 H   0  0  0  0  0  0  0  0  0  0  0  0
    2.0425    4.3246   -2.4472 H   0  0  0  0  0  0  0  0  0  0  0  0
    1.2989   -0.3007   -2.7255 H   0  0  0  0  0  0  0  0  0  0  0  0
    4.8690    0.4708   -0.6788 H   0  0  0  0  0  0  0  0  0  0  0  0
   -0.4353   -0.2283   -2.2806 H   0  0  0  0  0  0  0  0  0  0  0  0
    5.7448   -1.3211    0.8737 H   0  0  0  0  0  0  0  0  0  0  0  0
    1.8644    1.9192   -3.1933 H   0  0  0  0  0  0  0  0  0  0  0  0
   -5.2913   -0.6533   -1.2770 H   0  0  0  0  0  0  0  0  0  0  0  0
    1.7643   -3.0615    0.8618 H   0  0  0  0  0  0  0  0  0  0  0  0
   -2.0813   -3.4437   -2.2111 H   0  0  0  0  0  0  0  0  0  0  0  0
    4.1265   -3.1294    1.6323 H   0  0  0  0  0  0  0  0  0  0  0  0
    1.0265    4.9755   -0.2090 H   0  0  0  0  0  0  0  0  0  0  0  0
   -0.1809    3.1875    1.1236 H   0  0  0  0  0  0  0  0  0  0  0  0
   -4.4938   -2.7444   -2.4733 H   0  0  0  0  0  0  0  0  0  0  0  0
  2  1  1  0  0  0  0
  2 24  1  0  0  0  0
  3  2  1  0  0  0  0
  4  5  1  0  0  0  0
  4  3  2  0  0  0  0
  5  6  2  0  0  0  0
  6  7  1  0  0  0  0
  6  1  1  0  0  0  0
  7  8  1  0  0  0  0
  9  7  1  0  0  0  0
 10 11  1  0  0  0  0
 11 36  1  0  0  0  0
 12 35  1  0  0  0  0
 12 11  1  0  0  0  0
 13 12  2  0  0  0  0
 14 13  1  0  0  0  0
 14 15  2  0  0  0  0
 15 10  1  0  0  0  0
 16  7  1  0  0  0  0
 16 18  1  0  0  0  0
 17 15  1  0  0  0  0
 17 16  1  0  0  0  0
 18 23  1  0  0  0  0
 19 18  2  0  0  0  0
 19 20  1  0  0  0  0
 20 21  2  0  0  0  0
 21 29  1  0  0  0  0
 21 22  1  0  0  0  0
 22 34  1  0  0  0  0
 23 32  1  0  0  0  0
 23 22  2  0  0  0  0
 25 13  1  0  0  0  0
 26 17  1  0  0  0  0
 27 20  1  0  0  0  0
 28 17  1  0  0  0  0
 30 14  1  0  0  0  0
 31  3  1  0  0  0  0
 33  5  1  0  0  0  0
 37  4  1  0  0  0  0
M  END
