1,2
 OpenBabel05122313053D

 30 32  0  0  0  0  0  0  0  0999 V2000
   -1.4399    1.8763   -0.1942 N   0  0  0  0  0  2  0  0  0  0  0  0
    0.9250    0.3939    0.3453 N   0  0  0  0  0  2  0  0  0  0  0  0
    1.2467    1.5510    0.9680 N   0  0  0  0  0  0  0  0  0  0  0  0
    2.0261   -0.1800   -0.0768 N   0  0  0  0  0  2  0  0  0  0  0  0
   -2.2836    2.2644   -1.1816 C   0  0  0  0  0  3  0  0  0  0  0  0
   -2.7861    1.4628   -1.7301 H   0  0  0  0  0  0  0  0  0  0  0  0
   -2.5377    3.6092   -1.4733 C   0  0  0  0  0  0  0  0  0  0  0  0
   -3.2482    3.8524   -2.2756 H   0  0  0  0  0  0  0  0  0  0  0  0
   -1.8857    4.6064   -0.7430 C   0  0  0  0  0  0  0  0  0  0  0  0
   -2.0652    5.6727   -0.9457 H   0  0  0  0  0  0  0  0  0  0  0  0
   -0.9789    4.2083    0.2486 C   0  0  0  0  0  0  0  0  0  0  0  0
   -0.4193    4.9494    0.8377 H   0  0  0  0  0  0  0  0  0  0  0  0
   -0.7780    2.8440    0.4965 C   0  0  0  0  0  0  0  0  0  0  0  0
    0.2053    2.3951    1.5450 C   0  0  0  0  0  0  0  0  0  0  0  0
    0.7044    3.2592    2.0162 H   0  0  0  0  0  0  0  0  0  0  0  0
   -0.3258    1.7809    2.3105 H   0  0  0  0  0  0  0  0  0  0  0  0
    2.5940    1.7280    0.9358 C   0  0  0  0  0  0  0  0  0  0  0  0
    3.0699    2.6111    1.3700 H   0  0  0  0  0  0  0  0  0  0  0  0
    3.0930    0.6050    0.2690 C   0  0  0  0  0  0  0  0  0  0  0  0
    4.4750    0.2343   -0.0580 C   0  0  0  0  0  0  0  0  0  0  0  0
    5.5689    0.9467    0.4809 C   0  0  0  0  0  0  0  0  0  0  0  0
    5.3926    1.7869    1.1699 H   0  0  0  0  0  0  0  0  0  0  0  0
    6.8829    0.5852    0.1581 C   0  0  0  0  0  0  0  0  0  0  0  0
    7.7246    1.1491    0.5878 H   0  0  0  0  0  0  0  0  0  0  0  0
    7.1265   -0.4956   -0.7051 C   0  0  0  0  0  0  0  0  0  0  0  0
    8.1593   -0.7796   -0.9572 H   0  0  0  0  0  0  0  0  0  0  0  0
    6.0448   -1.2110   -1.2440 C   0  0  0  0  0  0  0  0  0  0  0  0
    6.2276   -2.0568   -1.9240 H   0  0  0  0  0  0  0  0  0  0  0  0
    4.7295   -0.8505   -0.9264 C   0  0  0  0  0  0  0  0  0  0  0  0
    3.8788   -1.3994   -1.3544 H   0  0  0  0  0  0  0  0  0  0  0  0
  1 13  1  0  0  0  0
  2  3  1  0  0  0  0
  3 14  1  0  0  0  0
  4 19  1  0  0  0  0
  4  2  1  0  0  0  0
  5  1  1  0  0  0  0
  6  5  1  0  0  0  0
  7  5  1  0  0  0  0
  7  9  2  0  0  0  0
  8  7  1  0  0  0  0
  9 11  1  0  0  0  0
 10  9  1  0  0  0  0
 11 13  2  0  0  0  0
 11 12  1  0  0  0  0
 13 14  1  0  0  0  0
 14 15  1  0  0  0  0
 14 16  1  0  0  0  0
 17  3  1  0  0  0  0
 17 18  1  0  0  0  0
 19 17  2  0  0  0  0
 20 19  1  0  0  0  0
 20 21  1  0  0  0  0
 21 22  1  0  0  0  0
 23 21  2  0  0  0  0
 23 24  1  0  0  0  0
 25 23  1  0  0  0  0
 26 25  1  0  0  0  0
 27 29  1  0  0  0  0
 27 25  2  0  0  0  0
 28 27  1  0  0  0  0
 29 20  2  0  0  0  0
 30 29  1  0  0  0  0
M  END
