1,3
 OpenBabel05122313053D

 50 54  0  0  0  0  0  0  0  0999 V2000
    2.0433   -0.4870    1.2907 N   0  0  0  0  0  2  0  0  0  0  0  0
    1.3054   -1.4593    1.8526 N   0  0  0  0  0  0  0  0  0  0  0  0
    3.4773    1.6282    0.5840 N   0  0  0  0  0  2  0  0  0  0  0  0
   -5.4370   -1.8623   -0.0914 N   0  0  0  0  0  0  0  0  0  0  0  0
   -7.2966    2.1949    0.6440 N   0  0  0  0  0  0  0  0  0  0  0  0
    2.1362    0.5110    2.2040 C   0  0  0  0  0  0  0  0  0  0  0  0
   -5.5157   -0.6798   -0.7223 N   0  0  0  0  0  0  0  0  0  0  0  0
   -6.2403    0.1096    0.0980 C   0  0  0  0  0  0  0  0  0  0  0  0
   -3.1694   -2.8654   -0.1755 C   0  0  0  0  0  0  0  0  0  0  0  0
   -6.5610    1.5014   -0.2527 C   0  0  0  0  0  0  0  0  0  0  0  0
   -1.0700   -1.6349    0.0376 C   0  0  0  0  0  0  0  0  0  0  0  0
   -0.4885   -0.7154   -0.1556 H   0  0  0  0  0  0  0  0  0  0  0  0
   -2.3994   -1.7041   -0.3917 C   0  0  0  0  0  0  0  0  0  0  0  0
   -2.8553   -0.8411   -0.9009 H   0  0  0  0  0  0  0  0  0  0  0  0
   -2.5823   -3.9576    0.4854 C   0  0  0  0  0  0  0  0  0  0  0  0
   -3.1726   -4.8700    0.6672 H   0  0  0  0  0  0  0  0  0  0  0  0
    3.1115    2.7876    2.6758 C   0  0  0  0  0  0  0  0  0  0  0  0
    2.6452    2.7979    3.6704 H   0  0  0  0  0  0  0  0  0  0  0  0
    1.4266    0.1564    3.3785 C   0  0  0  0  0  0  0  0  0  0  0  0
    1.3076    0.7372    4.2974 H   0  0  0  0  0  0  0  0  0  0  0  0
    2.9187    1.6807    1.8302 C   0  0  0  0  0  0  0  0  0  0  0  0
   -0.4851   -2.7352    0.6985 C   0  0  0  0  0  0  0  0  0  0  0  0
   -6.0761   -1.8578    1.1223 C   0  0  0  0  0  0  0  0  0  0  0  0
   -6.0912   -2.7478    1.7611 H   0  0  0  0  0  0  0  0  0  0  0  0
   -6.6207   -0.5903    1.2790 C   0  0  0  0  0  0  0  0  0  0  0  0
   -7.2201   -0.1941    2.1031 H   0  0  0  0  0  0  0  0  0  0  0  0
   -4.6098   -2.9243   -0.6482 C   0  0  0  0  0  0  0  0  0  0  0  0
   -4.6654   -2.8115   -1.7492 H   0  0  0  0  0  0  0  0  0  0  0  0
   -5.0668   -3.8971   -0.3809 H   0  0  0  0  0  0  0  0  0  0  0  0
    0.9620   -2.6885    1.1409 C   0  0  0  0  0  0  0  0  0  0  0  0
    1.1992   -3.5436    1.8041 H   0  0  0  0  0  0  0  0  0  0  0  0
    1.6528   -2.7388    0.2770 H   0  0  0  0  0  0  0  0  0  0  0  0
    0.9062   -1.1044    3.1095 C   0  0  0  0  0  0  0  0  0  0  0  0
    0.2809   -1.7767    3.7056 H   0  0  0  0  0  0  0  0  0  0  0  0
   -6.1103    2.0679   -1.4673 C   0  0  0  0  0  0  0  0  0  0  0  0
   -5.5149    1.4540   -2.1575 H   0  0  0  0  0  0  0  0  0  0  0  0
   -1.2501   -3.8928    0.9215 C   0  0  0  0  0  0  0  0  0  0  0  0
   -0.8027   -4.7555    1.4411 H   0  0  0  0  0  0  0  0  0  0  0  0
   -6.4375    3.3971   -1.7498 C   0  0  0  0  0  0  0  0  0  0  0  0
   -6.0991    3.8665   -2.6864 H   0  0  0  0  0  0  0  0  0  0  0  0
    3.8896    3.8600    2.2315 C   0  0  0  0  0  0  0  0  0  0  0  0
    4.0483    4.7370    2.8759 H   0  0  0  0  0  0  0  0  0  0  0  0
   -7.2019    4.1209   -0.8202 C   0  0  0  0  0  0  0  0  0  0  0  0
   -7.4831    5.1691   -1.0002 H   0  0  0  0  0  0  0  0  0  0  0  0
    4.2286    2.6670    0.1624 C   0  0  0  0  0  0  0  0  0  0  0  0
    4.6477    2.5809   -0.8502 H   0  0  0  0  0  0  0  0  0  0  0  0
   -7.6019    3.4669    0.3568 C   0  0  0  0  0  0  0  0  0  0  0  0
   -8.2048    4.0054    1.1109 H   0  0  0  0  0  0  0  0  0  0  0  0
    4.4611    3.7974    0.9508 C   0  0  0  0  0  0  0  0  0  0  0  0
    5.0790    4.6158    0.5563 H   0  0  0  0  0  0  0  0  0  0  0  0
  1  2  1  0  0  0  0
  1  6  1  0  0  0  0
  2 33  1  0  0  0  0
  3 21  1  0  0  0  0
  4 23  1  0  0  0  0
  6 19  1  0  0  0  0
  7  4  1  0  0  0  0
  7  8  2  0  0  0  0
  8 25  1  0  0  0  0
  9 15  1  0  0  0  0
 10  8  1  0  0  0  0
 10  5  2  0  0  0  0
 11 22  2  0  0  0  0
 12 11  1  0  0  0  0
 13  9  2  0  0  0  0
 13 11  1  0  0  0  0
 14 13  1  0  0  0  0
 15 16  1  0  0  0  0
 15 37  2  0  0  0  0
 17 18  1  0  0  0  0
 19 20  1  0  0  0  0
 21  6  2  0  0  0  0
 21 17  1  0  0  0  0
 22 37  1  0  0  0  0
 22 30  1  0  0  0  0
 23 25  2  0  0  0  0
 23 24  1  0  0  0  0
 25 26  1  0  0  0  0
 27 29  1  0  0  0  0
 27  9  1  0  0  0  0
 27  4  1  0  0  0  0
 28 27  1  0  0  0  0
 30 31  1  0  0  0  0
 30  2  1  0  0  0  0
 32 30  1  0  0  0  0
 33 19  2  0  0  0  0
 33 34  1  0  0  0  0
 35 10  1  0  0  0  0
 36 35  1  0  0  0  0
 37 38  1  0  0  0  0
 39 35  2  0  0  0  0
 39 43  1  0  0  0  0
 40 39  1  0  0  0  0
 41 17  2  0  0  0  0
 41 42  1  0  0  0  0
 43 47  2  0  0  0  0
 44 43  1  0  0  0  0
 45  3  1  0  0  0  0
 45 49  2  0  0  0  0
 46 45  1  0  0  0  0
 47  5  1  0  0  0  0
 47 48  1  0  0  0  0
 49 41  1  0  0  0  0
 50 49  1  0  0  0  0
M  END
