51,52
 OpenBabel05122313053D

 52 57  0  0  1  0  0  0  0  0999 V2000
    5.2318   -2.5284   -0.6193 C   0  0  0  0  0  0  0  0  0  0  0  0
    4.1613   -2.7581   -0.5283 H   0  0  0  0  0  0  0  0  0  0  0  0
    6.1560   -3.5336   -0.9378 C   0  0  0  0  0  0  0  0  0  0  0  0
    5.7926   -4.5583   -1.1069 H   0  0  0  0  0  0  0  0  0  0  0  0
    7.5376   -3.2592   -1.0426 C   0  0  0  0  0  0  0  0  0  0  0  0
    8.2339   -4.0716   -1.2977 H   0  0  0  0  0  0  0  0  0  0  0  0
    8.0271   -1.9670   -0.8168 C   0  0  0  0  0  0  0  0  0  0  0  0
    9.1048   -1.7554   -0.8840 H   0  0  0  0  0  0  0  0  0  0  0  0
    5.7256   -1.2295   -0.4132 C   0  0  0  0  0  0  0  0  0  0  0  0
    7.1216   -0.9392   -0.4952 C   0  0  0  0  0  0  0  0  0  0  0  0
    7.2800    0.4683   -0.1803 C   0  0  0  0  0  0  0  0  0  0  0  0
    8.3920    1.3280   -0.1205 C   0  0  0  0  0  0  0  0  0  0  0  0
    9.4022    0.9423   -0.3245 H   0  0  0  0  0  0  0  0  0  0  0  0
    8.1934    2.6781    0.1938 C   0  0  0  0  0  0  0  0  0  0  0  0
    9.0544    3.3606    0.2456 H   0  0  0  0  0  0  0  0  0  0  0  0
    6.8942    3.1765    0.4354 C   0  0  0  0  0  0  0  0  0  0  0  0
    6.7576    4.2437    0.6661 H   0  0  0  0  0  0  0  0  0  0  0  0
    5.7687    2.3419    0.3826 C   0  0  0  0  0  0  0  0  0  0  0  0
    4.7614    2.7452    0.5562 H   0  0  0  0  0  0  0  0  0  0  0  0
    5.9750    0.9840    0.0873 C   0  0  0  0  0  0  0  0  0  0  0  0
    3.6462    0.0590    0.1317 C   0  0  0  0  0  0  0  0  0  0  0  0
    3.1361    0.6678    1.2992 C   0  0  0  0  0  0  0  0  0  0  0  0
    3.8314    1.0318    2.0683 H   0  0  0  0  0  0  0  0  0  0  0  0
    1.7542    0.7829    1.4838 C   0  0  0  0  0  0  0  0  0  0  0  0
    1.3572    1.2543    2.3953 H   0  0  0  0  0  0  0  0  0  0  0  0
    2.7507   -0.4369   -0.8385 C   0  0  0  0  0  0  0  0  0  0  0  0
    3.1456   -0.8875   -1.7598 H   0  0  0  0  0  0  0  0  0  0  0  0
    1.3675   -0.3374   -0.6444 C   0  0  0  0  0  0  0  0  0  0  0  0
    0.6634   -0.7202   -1.3976 H   0  0  0  0  0  0  0  0  0  0  0  0
    0.8661    0.2760    0.5152 C   0  0  0  0  0  0  0  0  0  0  0  0
   -1.1795    1.5946    0.3212 C   0  0  2  0  0  3  0  0  0  0  0  0
   -0.4188    2.7864    0.2605 C   0  0  0  0  0  0  0  0  0  0  0  0
    0.6609    2.7598    0.4442 H   0  0  0  0  0  0  0  0  0  0  0  0
   -1.0598    3.9951   -0.0152 C   0  0  0  0  0  0  0  0  0  0  0  0
   -0.4719    4.9238   -0.0636 H   0  0  0  0  0  0  0  0  0  0  0  0
   -2.4519    4.0138   -0.1946 C   0  0  0  0  0  0  0  0  0  0  0  0
   -3.0027    4.9465   -0.3765 H   0  0  0  0  0  0  0  0  0  0  0  0
   -3.1320    2.7989   -0.1591 C   0  0  0  0  0  0  0  0  0  0  0  0
   -4.2222    2.7260   -0.2863 H   0  0  0  0  0  0  0  0  0  0  0  0
   -1.1883   -0.6142    1.4873 C   0  0  1  0  0  3  0  0  0  0  0  0
   -0.4349   -1.3442    2.4373 C   0  0  0  0  0  0  0  0  0  0  0  0
    0.6461   -1.1870    2.5210 H   0  0  0  0  0  0  0  0  0  0  0  0
   -1.0850   -2.2486    3.2781 C   0  0  0  0  0  0  0  0  0  0  0  0
   -0.5028   -2.8180    4.0180 H   0  0  0  0  0  0  0  0  0  0  0  0
   -2.4784   -2.3951    3.1908 C   0  0  0  0  0  0  0  0  0  0  0  0
   -3.0358   -3.0670    3.8572 H   0  0  0  0  0  0  0  0  0  0  0  0
   -3.1509   -1.6742    2.2071 C   0  0  0  0  0  0  0  0  0  0  0  0
   -4.2415   -1.7286    2.0732 H   0  0  0  0  0  0  0  0  0  0  0  0
    5.0402   -0.0548   -0.0577 N   0  0  0  0  0  0  0  0  0  0  0  0
   -0.5657    0.3728    0.6865 N   0  0  0  0  0  0  0  0  0  0  0  0
   -2.5022    1.6115    0.0275 N   0  0  0  0  0  2  0  0  0  0  0  0
   -2.5127   -0.8552    1.3333 N   0  0  0  0  0  2  0  0  0  0  0  0
  1  2  1  0  0  0  0
  1  9  1  0  0  0  0
  3  1  2  0  0  0  0
  4  3  1  0  0  0  0
  5  3  1  0  0  0  0
  5  7  2  0  0  0  0
  6  5  1  0  0  0  0
  7 10  1  0  0  0  0
  8  7  1  0  0  0  0
  9 49  1  0  0  0  0
 10  9  2  0  0  0  0
 10 11  1  0  0  0  0
 11 12  2  0  0  0  0
 11 20  1  0  0  0  0
 12 14  1  0  0  0  0
 13 12  1  0  0  0  0
 14 15  1  0  0  0  0
 14 16  2  0  0  0  0
 16 17  1  0  0  0  0
 18 16  1  0  0  0  0
 18 19  1  0  0  0  0
 20 18  2  0  0  0  0
 21 22  1  0  0  0  0
 22 24  2  0  0  0  0
 22 23  1  0  0  0  0
 24 25  1  0  0  0  0
 26 28  1  0  0  0  0
 26 21  2  0  0  0  0
 27 26  1  0  0  0  0
 28 30  2  0  0  0  0
 29 28  1  0  0  0  0
 30 50  1  0  0  0  0
 30 24  1  0  0  0  0
 31 50  1  6  0  0  0
 32 31  1  0  0  0  0
 32 33  1  0  0  0  0
 34 32  2  0  0  0  0
 35 34  1  0  0  0  0
 36 38  2  0  0  0  0
 36 34  1  0  0  0  0
 37 36  1  0  0  0  0
 38 51  1  0  0  0  0
 39 38  1  0  0  0  0
 40 50  1  6  0  0  0
 40 41  1  0  0  0  0
 41 42  1  0  0  0  0
 41 43  2  0  0  0  0
 43 44  1  0  0  0  0
 45 43  1  0  0  0  0
 45 46  1  0  0  0  0
 47 45  2  0  0  0  0
 48 47  1  0  0  0  0
 49 20  1  0  0  0  0
 49 21  1  0  0  0  0
 51 31  1  0  0  0  0
 52 40  1  0  0  0  0
 52 47  1  0  0  0  0
M  END
