1,13
 OpenBabel05122313053D

 26 26  0  0  0  0  0  0  0  0999 V2000
    1.8502    0.6434    0.3511 N   0  0  0  0  0  2  0  0  0  0  0  0
    3.0903    0.2095    0.6584 C   0  0  0  0  0  3  0  0  0  0  0  0
    3.1693   -0.8363    0.9884 H   0  0  0  0  0  0  0  0  0  0  0  0
    4.2191    1.0294    0.5568 C   0  0  0  0  0  0  0  0  0  0  0  0
    5.2062    0.6225    0.8168 H   0  0  0  0  0  0  0  0  0  0  0  0
    4.0675    2.3554    0.1177 C   0  0  0  0  0  0  0  0  0  0  0  0
    4.9387    3.0204    0.0261 H   0  0  0  0  0  0  0  0  0  0  0  0
    2.7865    2.8119   -0.2043 C   0  0  0  0  0  0  0  0  0  0  0  0
    2.6154    3.8394   -0.5563 H   0  0  0  0  0  0  0  0  0  0  0  0
    1.6939    1.9338   -0.0818 C   0  0  0  0  0  0  0  0  0  0  0  0
    0.3274    2.3114   -0.3913 C   0  0  0  0  0  3  0  0  0  0  0  0
    0.1049    3.3295   -0.7611 H   0  0  0  0  0  0  0  0  0  0  0  0
   -0.6125    1.4262   -0.2272 N   0  0  0  0  0  2  0  0  0  0  0  0
   -1.9898    1.7662   -0.5623 C   0  0  0  0  0  0  0  0  0  0  0  0
   -2.0296    2.7682   -1.0456 H   0  0  0  0  0  0  0  0  0  0  0  0
   -2.3163    1.0175   -1.3149 H   0  0  0  0  0  0  0  0  0  0  0  0
   -2.9132    1.7341    0.6619 C   0  0  0  0  0  0  0  0  0  0  0  0
   -2.5644    2.5004    1.3865 H   0  0  0  0  0  0  0  0  0  0  0  0
   -2.8010    0.7537    1.1697 H   0  0  0  0  0  0  0  0  0  0  0  0
   -4.3885    1.9691    0.3101 C   0  0  0  0  0  0  0  0  0  0  0  0
   -4.9556    2.0355    1.2627 H   0  0  0  0  0  0  0  0  0  0  0  0
   -4.5023    2.9644   -0.1755 H   0  0  0  0  0  0  0  0  0  0  0  0
   -5.0077    0.8835   -0.5746 C   0  0  0  0  0  0  0  0  0  0  0  0
   -6.0954    1.0487   -0.7076 H   0  0  0  0  0  0  0  0  0  0  0  0
   -4.8667   -0.1248   -0.1342 H   0  0  0  0  0  0  0  0  0  0  0  0
   -4.5582    0.8603   -1.5887 H   0  0  0  0  0  0  0  0  0  0  0  0
  1  2  1  0  0  0  0
  2  3  1  0  0  0  0
  4  2  1  0  0  0  0
  4  5  1  0  0  0  0
  6  4  2  0  0  0  0
  7  6  1  0  0  0  0
  8 10  2  0  0  0  0
  8  6  1  0  0  0  0
  9  8  1  0  0  0  0
 10  1  1  0  0  0  0
 11 13  1  0  0  0  0
 11 10  1  0  0  0  0
 12 11  1  0  0  0  0
 14 13  1  0  0  0  0
 14 17  1  0  0  0  0
 15 14  1  0  0  0  0
 16 14  1  0  0  0  0
 17 19  1  0  0  0  0
 17 18  1  0  0  0  0
 20 17  1  0  0  0  0
 20 21  1  0  0  0  0
 22 20  1  0  0  0  0
 23 25  1  0  0  0  0
 23 20  1  0  0  0  0
 24 23  1  0  0  0  0
 26 23  1  0  0  0  0
M  END
