1,23
 OpenBabel05122313053D

 44 45  0  0  0  0  0  0  0  0999 V2000
   -0.2908    1.0597    0.0002 N   0  0  0  0  0  2  0  0  0  0  0  0
   -1.4893    0.3787    0.0004 C   0  0  0  0  0  0  0  0  0  0  0  0
   -2.7092    1.0787    0.0008 C   0  0  0  0  0  0  0  0  0  0  0  0
   -3.6518    0.5124    0.0011 H   0  0  0  0  0  0  0  0  0  0  0  0
   -2.7475    2.4802    0.0009 C   0  0  0  0  0  0  0  0  0  0  0  0
   -1.4993    3.1462    0.0006 C   0  0  0  0  0  0  0  0  0  0  0  0
   -1.4370    4.2422    0.0006 H   0  0  0  0  0  0  0  0  0  0  0  0
   -0.3157    2.4142    0.0002 C   0  0  0  0  0  0  0  0  0  0  0  0
    0.6674    2.9102   -0.0001 H   0  0  0  0  0  0  0  0  0  0  0  0
   -4.0759    3.2040    0.0016 C   0  0  0  0  0  0  0  0  0  0  0  0
   -4.6593    2.8567    0.8842 H   0  0  0  0  0  0  0  0  0  0  0  0
   -4.6614    2.8546   -0.8788 H   0  0  0  0  0  0  0  0  0  0  0  0
   -4.0260    4.7318   -0.0002 C   0  0  0  0  0  0  0  0  0  0  0  0
   -3.4576    5.0894    0.8869 H   0  0  0  0  0  0  0  0  0  0  0  0
   -3.4589    5.0873   -0.8891 H   0  0  0  0  0  0  0  0  0  0  0  0
   -5.4162    5.3756    0.0001 C   0  0  0  0  0  0  0  0  0  0  0  0
   -5.9838    5.0157    0.8870 H   0  0  0  0  0  0  0  0  0  0  0  0
   -5.9851    5.0137   -0.8852 H   0  0  0  0  0  0  0  0  0  0  0  0
   -5.3749    6.9037   -0.0017 C   0  0  0  0  0  0  0  0  0  0  0  0
   -4.8433    7.2938    0.8912 H   0  0  0  0  0  0  0  0  0  0  0  0
   -6.3933    7.3408   -0.0014 H   0  0  0  0  0  0  0  0  0  0  0  0
   -4.8446    7.2918   -0.8962 H   0  0  0  0  0  0  0  0  0  0  0  0
   -0.0781   -1.5502    0.0002 N   0  0  0  0  0  2  0  0  0  0  0  0
   -1.3689   -1.0766    0.0003 C   0  0  0  0  0  0  0  0  0  0  0  0
   -2.4646   -1.9649    0.0001 C   0  0  0  0  0  0  0  0  0  0  0  0
   -3.4805   -1.5505    0.0000 H   0  0  0  0  0  0  0  0  0  0  0  0
   -2.2717   -3.3496    0.0000 C   0  0  0  0  0  0  0  0  0  0  0  0
   -0.9273   -3.8032    0.0001 C   0  0  0  0  0  0  0  0  0  0  0  0
   -0.6993   -4.8795    0.0000 H   0  0  0  0  0  0  0  0  0  0  0  0
    0.1207   -2.8939    0.0002 C   0  0  0  0  0  0  0  0  0  0  0  0
    1.1720   -3.2211    0.0001 H   0  0  0  0  0  0  0  0  0  0  0  0
   -3.4057   -4.3475   -0.0001 C   0  0  0  0  0  0  0  0  0  0  0  0
   -3.2753   -5.0166    0.8807 H   0  0  0  0  0  0  0  0  0  0  0  0
   -3.2750   -5.0168   -0.8806 H   0  0  0  0  0  0  0  0  0  0  0  0
   -4.8243   -3.7796   -0.0003 C   0  0  0  0  0  0  0  0  0  0  0  0
   -4.9653   -3.1243    0.8882 H   0  0  0  0  0  0  0  0  0  0  0  0
   -4.9650   -3.1243   -0.8890 H   0  0  0  0  0  0  0  0  0  0  0  0
   -5.9059   -4.8648   -0.0005 C   0  0  0  0  0  0  0  0  0  0  0  0
   -5.7615   -5.5221    0.8855 H   0  0  0  0  0  0  0  0  0  0  0  0
   -5.7612   -5.5221   -0.8865 H   0  0  0  0  0  0  0  0  0  0  0  0
   -7.3272   -4.3024   -0.0007 C   0  0  0  0  0  0  0  0  0  0  0  0
   -7.5114   -3.6706    0.8932 H   0  0  0  0  0  0  0  0  0  0  0  0
   -8.0868   -5.1094   -0.0008 H   0  0  0  0  0  0  0  0  0  0  0  0
   -7.5111   -3.6707   -0.8948 H   0  0  0  0  0  0  0  0  0  0  0  0
  1  8  1  0  0  0  0
  1  2  1  0  0  0  0
  2  3  1  0  0  0  0
  3  5  2  0  0  0  0
  3  4  1  0  0  0  0
  5 10  1  0  0  0  0
  6  7  1  0  0  0  0
  6  5  1  0  0  0  0
  8  6  2  0  0  0  0
  9  8  1  0  0  0  0
 10 11  1  0  0  0  0
 12 10  1  0  0  0  0
 13 16  1  0  0  0  0
 13 10  1  0  0  0  0
 13 14  1  0  0  0  0
 15 13  1  0  0  0  0
 16 17  1  0  0  0  0
 18 16  1  0  0  0  0
 19 21  1  0  0  0  0
 19 16  1  0  0  0  0
 19 20  1  0  0  0  0
 22 19  1  0  0  0  0
 23 24  1  0  0  0  0
 24  2  2  0  0  0  0
 25 24  1  0  0  0  0
 26 25  1  0  0  0  0
 27 28  1  0  0  0  0
 27 25  2  0  0  0  0
 28 30  2  0  0  0  0
 29 28  1  0  0  0  0
 30 23  1  0  0  0  0
 31 30  1  0  0  0  0
 32 27  1  0  0  0  0
 32 33  1  0  0  0  0
 34 32  1  0  0  0  0
 35 32  1  0  0  0  0
 35 36  1  0  0  0  0
 37 35  1  0  0  0  0
 38 35  1  0  0  0  0
 38 39  1  0  0  0  0
 40 38  1  0  0  0  0
 41 38  1  0  0  0  0
 41 42  1  0  0  0  0
 43 41  1  0  0  0  0
 44 41  1  0  0  0  0
M  END
