1,35
 OpenBabel05122313053D

 68 69  0  0  0  0  0  0  0  0999 V2000
   -1.5358    1.3687    0.3084 N   0  0  0  0  0  2  0  0  0  0  0  0
   -0.2471    0.9934    0.0008 C   0  0  0  0  0  0  0  0  0  0  0  0
    0.8243    1.8901    0.1849 C   0  0  0  0  0  0  0  0  0  0  0  0
    1.8453    1.5687   -0.0656 H   0  0  0  0  0  0  0  0  0  0  0  0
    0.6111    3.1794    0.6843 C   0  0  0  0  0  0  0  0  0  0  0  0
   -0.7268    3.5331    0.9889 C   0  0  0  0  0  0  0  0  0  0  0  0
   -0.9679    4.5294    1.3878 H   0  0  0  0  0  0  0  0  0  0  0  0
   -1.7534    2.6178    0.7927 C   0  0  0  0  0  0  0  0  0  0  0  0
   -2.8011    2.8641    1.0252 H   0  0  0  0  0  0  0  0  0  0  0  0
    1.7377    4.1673    0.8334 C   0  0  0  0  0  0  0  0  0  0  0  0
    2.6908    3.6181    0.9773 H   0  0  0  0  0  0  0  0  0  0  0  0
    1.5789    4.7757    1.7500 H   0  0  0  0  0  0  0  0  0  0  0  0
    1.8559    5.1133   -0.3794 C   0  0  0  0  0  0  0  0  0  0  0  0
    2.0268    4.5035   -1.2942 H   0  0  0  0  0  0  0  0  0  0  0  0
    0.8769    5.6162   -0.5319 H   0  0  0  0  0  0  0  0  0  0  0  0
    2.9589    6.1700   -0.2467 C   0  0  0  0  0  0  0  0  0  0  0  0
    2.7747    6.7824    0.6650 H   0  0  0  0  0  0  0  0  0  0  0  0
    2.8763    6.8754   -1.1022 H   0  0  0  0  0  0  0  0  0  0  0  0
    4.3856    5.6129   -0.2028 C   0  0  0  0  0  0  0  0  0  0  0  0
    4.5073    4.9416    0.6764 H   0  0  0  0  0  0  0  0  0  0  0  0
    4.5547    4.9699   -1.0968 H   0  0  0  0  0  0  0  0  0  0  0  0
    5.4648    6.6976   -0.1473 C   0  0  0  0  0  0  0  0  0  0  0  0
    5.2888    7.3447    0.7419 H   0  0  0  0  0  0  0  0  0  0  0  0
    5.3565    7.3691   -1.0291 H   0  0  0  0  0  0  0  0  0  0  0  0
    6.8931    6.1495   -0.0996 C   0  0  0  0  0  0  0  0  0  0  0  0
    7.0010    5.4786    0.7832 H   0  0  0  0  0  0  0  0  0  0  0  0
    7.0685    5.5011   -0.9884 H   0  0  0  0  0  0  0  0  0  0  0  0
    7.9734    7.2340   -0.0445 C   0  0  0  0  0  0  0  0  0  0  0  0
    7.7943    7.8806    0.8434 H   0  0  0  0  0  0  0  0  0  0  0  0
    7.8619    7.9031   -0.9268 H   0  0  0  0  0  0  0  0  0  0  0  0
    9.3963    6.6763    0.0026 C   0  0  0  0  0  0  0  0  0  0  0  0
   10.1543    7.4843    0.0419 H   0  0  0  0  0  0  0  0  0  0  0  0
    9.6159    6.0554   -0.8912 H   0  0  0  0  0  0  0  0  0  0  0  0
    9.5477    6.0325    0.8944 H   0  0  0  0  0  0  0  0  0  0  0  0
   -1.2864   -1.0720   -0.6101 N   0  0  0  0  0  2  0  0  0  0  0  0
   -0.1080   -0.3669   -0.5094 C   0  0  0  0  0  0  0  0  0  0  0  0
    1.1155   -0.9570   -0.8851 C   0  0  0  0  0  0  0  0  0  0  0  0
    2.0438   -0.3749   -0.7976 H   0  0  0  0  0  0  0  0  0  0  0  0
    1.1672   -2.2681   -1.3702 C   0  0  0  0  0  0  0  0  0  0  0  0
   -0.0634   -2.9648   -1.4606 C   0  0  0  0  0  0  0  0  0  0  0  0
   -0.0980   -3.9980   -1.8364 H   0  0  0  0  0  0  0  0  0  0  0  0
   -1.2468   -2.3448   -1.0797 C   0  0  0  0  0  0  0  0  0  0  0  0
   -2.2174   -2.8608   -1.1433 H   0  0  0  0  0  0  0  0  0  0  0  0
    2.4717   -2.9341   -1.7206 C   0  0  0  0  0  0  0  0  0  0  0  0
    3.2237   -2.1640   -1.9941 H   0  0  0  0  0  0  0  0  0  0  0  0
    2.3314   -3.5726   -2.6193 H   0  0  0  0  0  0  0  0  0  0  0  0
    3.0241   -3.7988   -0.5714 C   0  0  0  0  0  0  0  0  0  0  0  0
    3.1580   -3.1603    0.3295 H   0  0  0  0  0  0  0  0  0  0  0  0
    2.2622   -4.5581   -0.2880 H   0  0  0  0  0  0  0  0  0  0  0  0
    4.3430   -4.4939   -0.9158 C   0  0  0  0  0  0  0  0  0  0  0  0
    4.1998   -5.1284   -1.8196 H   0  0  0  0  0  0  0  0  0  0  0  0
    5.0982   -3.7287   -1.2062 H   0  0  0  0  0  0  0  0  0  0  0  0
    4.9004   -5.3507    0.2238 C   0  0  0  0  0  0  0  0  0  0  0  0
    4.1437   -6.1143    0.5137 H   0  0  0  0  0  0  0  0  0  0  0  0
    5.0415   -4.7146    1.1269 H   0  0  0  0  0  0  0  0  0  0  0  0
    6.2201   -6.0483   -0.1158 C   0  0  0  0  0  0  0  0  0  0  0  0
    6.0779   -6.6845   -1.0188 H   0  0  0  0  0  0  0  0  0  0  0  0
    6.9759   -5.2839   -0.4073 H   0  0  0  0  0  0  0  0  0  0  0  0
    6.7793   -6.9043    1.0234 C   0  0  0  0  0  0  0  0  0  0  0  0
    6.0232   -7.6685    1.3149 H   0  0  0  0  0  0  0  0  0  0  0  0
    6.9210   -6.2679    1.9266 H   0  0  0  0  0  0  0  0  0  0  0  0
    8.0998   -7.6030    0.6851 C   0  0  0  0  0  0  0  0  0  0  0  0
    8.8521   -6.8367    0.3926 H   0  0  0  0  0  0  0  0  0  0  0  0
    7.9547   -8.2369   -0.2181 H   0  0  0  0  0  0  0  0  0  0  0  0
    8.6500   -8.4549    1.8295 C   0  0  0  0  0  0  0  0  0  0  0  0
    9.6047   -8.9469    1.5547 H   0  0  0  0  0  0  0  0  0  0  0  0
    7.9340   -9.2526    2.1185 H   0  0  0  0  0  0  0  0  0  0  0  0
    8.8390   -7.8405    2.7347 H   0  0  0  0  0  0  0  0  0  0  0  0
  1  8  1  0  0  0  0
  2  3  1  0  0  0  0
  2  1  1  0  0  0  0
  3  5  2  0  0  0  0
  4  3  1  0  0  0  0
  5 10  1  0  0  0  0
  5  6  1  0  0  0  0
  6  7  1  0  0  0  0
  8  6  2  0  0  0  0
  8  9  1  0  0  0  0
 10 11  1  0  0  0  0
 10 12  1  0  0  0  0
 13 16  1  0  0  0  0
 13 10  1  0  0  0  0
 14 13  1  0  0  0  0
 15 13  1  0  0  0  0
 16 19  1  0  0  0  0
 16 17  1  0  0  0  0
 18 16  1  0  0  0  0
 19 22  1  0  0  0  0
 19 20  1  0  0  0  0
 21 19  1  0  0  0  0
 22 25  1  0  0  0  0
 22 23  1  0  0  0  0
 24 22  1  0  0  0  0
 25 28  1  0  0  0  0
 25 26  1  0  0  0  0
 27 25  1  0  0  0  0
 28 31  1  0  0  0  0
 28 29  1  0  0  0  0
 30 28  1  0  0  0  0
 31 32  1  0  0  0  0
 31 34  1  0  0  0  0
 33 31  1  0  0  0  0
 35 36  1  0  0  0  0
 36  2  2  0  0  0  0
 37 38  1  0  0  0  0
 37 36  1  0  0  0  0
 39 37  2  0  0  0  0
 40 39  1  0  0  0  0
 40 42  2  0  0  0  0
 41 40  1  0  0  0  0
 42 35  1  0  0  0  0
 43 42  1  0  0  0  0
 44 39  1  0  0  0  0
 44 47  1  0  0  0  0
 45 44  1  0  0  0  0
 46 44  1  0  0  0  0
 47 49  1  0  0  0  0
 47 48  1  0  0  0  0
 50 47  1  0  0  0  0
 50 53  1  0  0  0  0
 51 50  1  0  0  0  0
 52 50  1  0  0  0  0
 53 54  1  0  0  0  0
 53 55  1  0  0  0  0
 56 53  1  0  0  0  0
 56 59  1  0  0  0  0
 57 56  1  0  0  0  0
 58 56  1  0  0  0  0
 59 60  1  0  0  0  0
 59 61  1  0  0  0  0
 62 59  1  0  0  0  0
 62 65  1  0  0  0  0
 63 62  1  0  0  0  0
 64 62  1  0  0  0  0
 65 67  1  0  0  0  0
 65 68  1  0  0  0  0
 66 65  1  0  0  0  0
M  END
