3,5
 OpenBabel05122313053D

 26 27  0  0  1  0  0  0  0  0999 V2000
    3.0364    0.4045    0.1488 S   0  0  0  0  0  0  0  0  0  0  0  0
    1.3217    0.2203   -0.2659 C   0  0  1  0  0  3  0  0  0  0  0  0
    0.7121   -0.8381   -0.6633 N   0  0  0  0  0  2  0  0  0  0  0  0
    0.5063    1.3639   -0.0261 N   0  0  0  0  0  0  0  0  0  0  0  0
   -0.8241    1.1296    0.1378 N   0  0  0  0  0  2  0  0  0  0  0  0
   -0.4586    3.3478    0.1314 C   0  0  0  0  0  0  0  0  0  0  0  0
   -0.6313    4.4288    0.1625 H   0  0  0  0  0  0  0  0  0  0  0  0
    3.4354   -1.3855    0.2579 C   0  0  0  0  0  0  0  0  0  0  0  0
    4.5411   -1.4182    0.2904 H   0  0  0  0  0  0  0  0  0  0  0  0
    3.0345   -1.7550    1.2236 H   0  0  0  0  0  0  0  0  0  0  0  0
    2.1216    3.3344   -0.2276 C   0  0  0  0  0  0  0  0  0  0  0  0
    2.0050    4.4238   -0.3752 H   0  0  0  0  0  0  0  0  0  0  0  0
    2.6502    2.9200   -1.1096 H   0  0  0  0  0  0  0  0  0  0  0  0
    2.7755    3.1774    0.6549 H   0  0  0  0  0  0  0  0  0  0  0  0
    1.3295   -2.1321   -0.8944 C   0  0  0  0  0  0  0  0  0  0  0  0
    0.9113   -2.5230   -1.8460 H   0  0  0  0  0  0  0  0  0  0  0  0
    0.9311   -2.7881   -0.0862 H   0  0  0  0  0  0  0  0  0  0  0  0
   -2.9103    2.3861    0.4296 C   0  0  0  0  0  0  0  0  0  0  0  0
   -3.3270    3.2927   -0.0484 H   0  0  0  0  0  0  0  0  0  0  0  0
   -3.1680    2.4241    1.5087 H   0  0  0  0  0  0  0  0  0  0  0  0
   -3.3835    1.4846   -0.0112 H   0  0  0  0  0  0  0  0  0  0  0  0
    2.8555   -2.1558   -0.9223 C   0  0  0  0  0  0  0  0  0  0  0  0
    3.2481   -1.7330   -1.8706 H   0  0  0  0  0  0  0  0  0  0  0  0
    3.1932   -3.2119   -0.8725 H   0  0  0  0  0  0  0  0  0  0  0  0
   -1.4322    2.3143    0.2359 C   0  0  2  0  0  3  0  0  0  0  0  0
    0.7738    2.7236   -0.0370 C   0  0  0  0  0  0  0  0  0  0  0  0
  1  8  1  0  0  0  0
  2  4  1  1  0  0  0
  2  1  1  0  0  0  0
  3  2  1  0  0  0  0
  4  5  1  0  0  0  0
  5 25  1  0  0  0  0
  6  7  1  0  0  0  0
  6 25  1  0  0  0  0
  8  9  1  0  0  0  0
  8 10  1  0  0  0  0
 11 26  1  0  0  0  0
 11 14  1  0  0  0  0
 12 11  1  0  0  0  0
 13 11  1  0  0  0  0
 15  3  1  0  0  0  0
 15 17  1  0  0  0  0
 16 15  1  0  0  0  0
 18 20  1  0  0  0  0
 19 18  1  0  0  0  0
 21 18  1  0  0  0  0
 22 15  1  0  0  0  0
 22 24  1  0  0  0  0
 22  8  1  0  0  0  0
 23 22  1  0  0  0  0
 25 18  1  1  0  0  0
 26  4  1  0  0  0  0
 26  6  2  0  0  0  0
M  END
