2,4
 OpenBabel05122313053D

 24 25  0  0  0  0  0  0  0  0999 V2000
   -6.3485    0.1552   -0.0333 Cl  0  0  0  0  0  0  0  0  0  0  0  0
    2.1374    1.0285    0.0356 N   0  0  0  0  0  2  0  0  0  0  0  0
   -0.0201    2.0529   -0.0186 N   0  0  0  0  0  0  0  0  0  0  0  0
   -0.4388    0.8218   -0.0051 N   0  0  0  0  0  2  0  0  0  0  0  0
    2.0754    3.2621   -0.0955 N   0  0  0  0  0  0  0  0  0  0  0  0
    1.3304    2.1112   -0.0218 C   0  0  0  0  0  0  0  0  0  0  0  0
    3.4221    1.4899   -0.0092 C   0  0  0  0  0  0  0  0  0  0  0  0
    4.2840    0.8152    0.0136 H   0  0  0  0  0  0  0  0  0  0  0  0
    3.3982    2.8804   -0.0912 C   0  0  0  0  0  0  0  0  0  0  0  0
    4.2106    3.6114   -0.1504 H   0  0  0  0  0  0  0  0  0  0  0  0
    1.5368    4.6088   -0.1922 C   0  0  0  0  0  0  0  0  0  0  0  0
    1.8568    5.0851   -1.1396 H   0  0  0  0  0  0  0  0  0  0  0  0
    1.8783    5.2248    0.6626 H   0  0  0  0  0  0  0  0  0  0  0  0
    0.4347    4.5361   -0.1762 H   0  0  0  0  0  0  0  0  0  0  0  0
   -1.8489    0.6831   -0.0011 C   0  0  0  0  0  0  0  0  0  0  0  0
   -2.4305   -0.3217   -0.8018 C   0  0  0  0  0  0  0  0  0  0  0  0
   -1.7807   -0.9307   -1.4463 H   0  0  0  0  0  0  0  0  0  0  0  0
   -3.8190   -0.4754   -0.8241 C   0  0  0  0  0  0  0  0  0  0  0  0
   -4.2867   -1.2420   -1.4569 H   0  0  0  0  0  0  0  0  0  0  0  0
   -4.6220    0.3645   -0.0313 C   0  0  0  0  0  0  0  0  0  0  0  0
   -4.0491    1.3747    0.7646 C   0  0  0  0  0  0  0  0  0  0  0  0
   -4.6962    2.0143    1.3806 H   0  0  0  0  0  0  0  0  0  0  0  0
   -2.6626    1.5421    0.7670 C   0  0  0  0  0  0  0  0  0  0  0  0
   -2.1890    2.3198    1.3817 H   0  0  0  0  0  0  0  0  0  0  0  0
  1 20  1  0  0  0  0
  3  4  1  0  0  0  0
  4 15  1  0  0  0  0
  5  9  1  0  0  0  0
  5  6  1  0  0  0  0
  6  3  2  0  0  0  0
  6  2  1  0  0  0  0
  7  8  1  0  0  0  0
  7  2  1  0  0  0  0
  9  7  2  0  0  0  0
 10  9  1  0  0  0  0
 11 14  1  0  0  0  0
 11  5  1  0  0  0  0
 11 13  1  0  0  0  0
 12 11  1  0  0  0  0
 15 23  1  0  0  0  0
 16 15  2  0  0  0  0
 17 16  1  0  0  0  0
 18 16  1  0  0  0  0
 18 20  2  0  0  0  0
 19 18  1  0  0  0  0
 20 21  1  0  0  0  0
 21 23  2  0  0  0  0
 21 22  1  0  0  0  0
 23 24  1  0  0  0  0
M  END
