2,5
 OpenBabel05122313053D

 12 11  0  0  0  0  0  0  0  0999 V2000
    1.4393    0.3204   -2.3281 O   0  0  0  0  0  1  0  0  0  0  0  0
    1.4205   -0.4090   -1.2510 N   0  0  0  0  0  2  0  0  0  0  0  0
    2.5612   -1.0488   -0.8243 C   0  0  0  0  0  0  0  0  0  0  0  0
    2.3434   -1.6997    0.4811 C   0  0  0  0  0  0  0  0  0  0  0  0
    1.0572   -1.4850    0.9539 N   0  0  0  0  0  2  0  0  0  0  0  0
    0.6923   -1.9832    2.0725 O   0  0  0  0  0  1  0  0  0  0  0  0
    3.7428   -1.0426   -1.5247 C   0  0  0  0  0  0  0  0  0  0  0  0
    3.2828   -2.4106    1.1815 C   0  0  0  0  0  0  0  0  0  0  0  0
    4.2892   -2.5656    0.7758 H   0  0  0  0  0  0  0  0  0  0  0  0
    3.0180   -2.8388    2.1566 H   0  0  0  0  0  0  0  0  0  0  0  0
    4.6303   -1.5570   -1.1391 H   0  0  0  0  0  0  0  0  0  0  0  0
    3.7906   -0.5291   -2.4930 H   0  0  0  0  0  0  0  0  0  0  0  0
  1  2  1  0  0  0  0
  2  3  1  0  0  0  0
  3  4  1  0  0  0  0
  4  5  1  0  0  0  0
  4  8  2  0  0  0  0
  5  6  1  0  0  0  0
  7 11  1  0  0  0  0
  7  3  2  0  0  0  0
  8 10  1  0  0  0  0
  9  8  1  0  0  0  0
 12  7  1  0  0  0  0
M  END
