6,7
 OpenBabel05122313053D

 60 59  0  0  0  0  0  0  0  0999 V2000
    1.1645    0.0544   -0.6462 P   0  0  0  0  0  4  0  0  0  0  0  0
    0.0785   -2.8978   -0.5972 Si  0  0  0  0  0  0  0  0  0  0  0  0
    0.4841    3.0496   -0.7443 Si  0  0  0  0  0  0  0  0  0  0  0  0
    2.6208    0.3570    2.0151 Si  0  0  0  0  0  0  0  0  0  0  0  0
    4.1908   -0.6515   -0.4448 Si  0  0  0  0  0  0  0  0  0  0  0  0
    0.1048   -1.1549   -0.2981 N   0  0  0  0  0  2  0  0  0  0  0  0
    0.1804    1.3413   -0.2824 N   0  0  0  0  0  2  0  0  0  0  0  0
    2.6260   -0.0001    0.2109 N   0  0  0  0  0  0  0  0  0  0  0  0
    0.2305   -3.2778   -2.4442 C   0  0  0  0  0  0  0  0  0  0  0  0
   -1.5965   -3.5145    0.0155 C   0  0  0  0  0  0  0  0  0  0  0  0
    1.4486   -3.7796    0.3592 C   0  0  0  0  0  0  0  0  0  0  0  0
   -0.3533    3.3876   -2.4011 C   0  0  0  0  0  0  0  0  0  0  0  0
   -0.1399    4.2802    0.5390 C   0  0  0  0  0  0  0  0  0  0  0  0
    2.3563    3.3189   -0.9279 C   0  0  0  0  0  0  0  0  0  0  0  0
    1.5102    0.0924   -2.4367 C   0  0  0  0  0  0  0  0  0  0  0  0
    1.4113    1.6808    2.5655 C   0  0  0  0  0  0  0  0  0  0  0  0
    4.3019    1.1015    2.4879 C   0  0  0  0  0  0  0  0  0  0  0  0
    2.2256   -1.2248    2.9565 C   0  0  0  0  0  0  0  0  0  0  0  0
    4.9901   -1.8411    0.7959 C   0  0  0  0  0  0  0  0  0  0  0  0
    4.0496   -1.7215   -2.0032 C   0  0  0  0  0  0  0  0  0  0  0  0
    5.3330    0.7893   -0.8668 C   0  0  0  0  0  0  0  0  0  0  0  0
   -0.0164   -4.3429   -2.6350 H   0  0  0  0  0  0  0  0  0  0  0  0
    1.2492   -3.0995   -2.8440 H   0  0  0  0  0  0  0  0  0  0  0  0
   -0.4834   -2.6468   -3.0115 H   0  0  0  0  0  0  0  0  0  0  0  0
   -2.4276   -3.0554   -0.5576 H   0  0  0  0  0  0  0  0  0  0  0  0
   -1.7339   -3.2767    1.0896 H   0  0  0  0  0  0  0  0  0  0  0  0
   -1.6653   -4.6148   -0.1078 H   0  0  0  0  0  0  0  0  0  0  0  0
    1.4241   -4.8680    0.1443 H   0  0  0  0  0  0  0  0  0  0  0  0
    1.3239   -3.6372    1.4504 H   0  0  0  0  0  0  0  0  0  0  0  0
    2.4522   -3.4023    0.0814 H   0  0  0  0  0  0  0  0  0  0  0  0
   -1.4424    3.2030   -2.3144 H   0  0  0  0  0  0  0  0  0  0  0  0
    0.0415    2.7330   -3.2034 H   0  0  0  0  0  0  0  0  0  0  0  0
   -0.1990    4.4425   -2.7092 H   0  0  0  0  0  0  0  0  0  0  0  0
    0.0724    5.3041    0.1656 H   0  0  0  0  0  0  0  0  0  0  0  0
    0.3541    4.1642    1.5223 H   0  0  0  0  0  0  0  0  0  0  0  0
   -1.2313    4.1790    0.6858 H   0  0  0  0  0  0  0  0  0  0  0  0
    2.9134    3.0225   -0.0172 H   0  0  0  0  0  0  0  0  0  0  0  0
    2.5447    4.3981   -1.1062 H   0  0  0  0  0  0  0  0  0  0  0  0
    2.7920    2.7652   -1.7830 H   0  0  0  0  0  0  0  0  0  0  0  0
    0.5302    0.3266   -2.8964 H   0  0  0  0  0  0  0  0  0  0  0  0
    1.8407   -0.8883   -2.8121 H   0  0  0  0  0  0  0  0  0  0  0  0
    2.2507    0.8706   -2.6979 H   0  0  0  0  0  0  0  0  0  0  0  0
    0.3514    1.4204    2.4015 H   0  0  0  0  0  0  0  0  0  0  0  0
    1.5747    1.7979    3.6585 H   0  0  0  0  0  0  0  0  0  0  0  0
    1.6286    2.6540    2.0890 H   0  0  0  0  0  0  0  0  0  0  0  0
    5.2058    0.5075    2.2645 H   0  0  0  0  0  0  0  0  0  0  0  0
    4.2758    1.2676    3.5855 H   0  0  0  0  0  0  0  0  0  0  0  0
    4.4154    2.0972    2.0121 H   0  0  0  0  0  0  0  0  0  0  0  0
    1.1763   -1.5071    2.7334 H   0  0  0  0  0  0  0  0  0  0  0  0
    2.3009   -1.0405    4.0481 H   0  0  0  0  0  0  0  0  0  0  0  0
    2.8862   -2.0732    2.6984 H   0  0  0  0  0  0  0  0  0  0  0  0
    5.1188   -1.4614    1.8244 H   0  0  0  0  0  0  0  0  0  0  0  0
    5.9967   -2.0984    0.4043 H   0  0  0  0  0  0  0  0  0  0  0  0
    4.4064   -2.7821    0.8520 H   0  0  0  0  0  0  0  0  0  0  0  0
    3.2454   -2.4813   -1.9506 H   0  0  0  0  0  0  0  0  0  0  0  0
    5.0116   -2.2720   -2.0707 H   0  0  0  0  0  0  0  0  0  0  0  0
    3.9371   -1.1431   -2.9387 H   0  0  0  0  0  0  0  0  0  0  0  0
    6.2934    0.4076   -1.2713 H   0  0  0  0  0  0  0  0  0  0  0  0
    5.5560    1.4278    0.0085 H   0  0  0  0  0  0  0  0  0  0  0  0
    4.8685    1.4327   -1.6412 H   0  0  0  0  0  0  0  0  0  0  0  0
  1  6  1  0  0  0  0
  1  7  1  0  0  0  0
  1  8  1  0  0  0  0
  2  6  1  0  0  0  0
  2 10  1  0  0  0  0
  2 11  1  0  0  0  0
  3  7  1  0  0  0  0
  3 13  1  0  0  0  0
  4 17  1  0  0  0  0
  4 16  1  0  0  0  0
  4 18  1  0  0  0  0
  5  8  1  0  0  0  0
  5 19  1  0  0  0  0
  8  4  1  0  0  0  0
  9  2  1  0  0  0  0
 10 26  1  0  0  0  0
 11 29  1  0  0  0  0
 12 31  1  0  0  0  0
 12  3  1  0  0  0  0
 13 36  1  0  0  0  0
 13 35  1  0  0  0  0
 14  3  1  0  0  0  0
 14 37  1  0  0  0  0
 15  1  1  0  0  0  0
 16 44  1  0  0  0  0
 17 47  1  0  0  0  0
 18 50  1  0  0  0  0
 19 54  1  0  0  0  0
 19 52  1  0  0  0  0
 20 55  1  0  0  0  0
 20  5  1  0  0  0  0
 21  5  1  0  0  0  0
 21 59  1  0  0  0  0
 22  9  1  0  0  0  0
 23  9  1  0  0  0  0
 24  9  1  0  0  0  0
 25 10  1  0  0  0  0
 27 10  1  0  0  0  0
 28 11  1  0  0  0  0
 30 11  1  0  0  0  0
 32 12  1  0  0  0  0
 33 12  1  0  0  0  0
 34 13  1  0  0  0  0
 38 14  1  0  0  0  0
 39 14  1  0  0  0  0
 40 15  1  0  0  0  0
 41 15  1  0  0  0  0
 42 15  1  0  0  0  0
 43 16  1  0  0  0  0
 45 16  1  0  0  0  0
 46 17  1  0  0  0  0
 48 17  1  0  0  0  0
 49 18  1  0  0  0  0
 51 18  1  0  0  0  0
 53 19  1  0  0  0  0
 56 20  1  0  0  0  0
 57 20  1  0  0  0  0
 58 21  1  0  0  0  0
 60 21  1  0  0  0  0
M  END
