1,4
 OpenBabel05122313053D

 47 50  0  0  1  0  0  0  0  0999 V2000
    1.8823   -0.4336   -0.1239 N   0  0  0  0  0  2  0  0  0  0  0  0
    0.9228    1.6384   -0.7630 N   0  0  0  0  0  0  0  0  0  0  0  0
    2.9280    1.5935    0.4694 N   0  0  1  0  0  0  0  0  0  0  0  0
   -0.8453   -0.0758    0.8192 N   0  0  0  0  0  2  0  0  0  0  0  0
   -1.4473    1.1976   -1.0438 N   0  0  0  0  0  0  0  0  0  0  0  0
   -2.9255    1.0562    0.7923 N   0  0  2  0  0  0  0  0  0  0  0  0
    1.9043    0.8847   -0.1353 C   0  0  2  0  0  3  0  0  0  0  0  0
    0.8688    3.0728   -0.5237 C   0  0  0  0  0  0  0  0  0  0  0  0
    0.5010    3.3014    0.5053 H   0  0  0  0  0  0  0  0  0  0  0  0
    0.1336    3.5066   -1.2283 H   0  0  0  0  0  0  0  0  0  0  0  0
    2.2601    3.6553   -0.7404 C   0  0  0  0  0  0  0  0  0  0  0  0
    2.5815    3.4311   -1.7785 H   0  0  0  0  0  0  0  0  0  0  0  0
    2.2711    4.7563   -0.6138 H   0  0  0  0  0  0  0  0  0  0  0  0
    3.1974    3.0132    0.2720 C   0  0  0  0  0  0  0  0  0  0  0  0
    4.2626    3.1438   -0.0293 H   0  0  0  0  0  0  0  0  0  0  0  0
    3.0908    3.5278    1.2569 H   0  0  0  0  0  0  0  0  0  0  0  0
    3.8153    0.9722    1.4583 C   0  0  0  0  0  0  0  0  0  0  0  0
    3.7627    1.5671    2.3999 H   0  0  0  0  0  0  0  0  0  0  0  0
    4.8620    1.0657    1.0865 H   0  0  0  0  0  0  0  0  0  0  0  0
    3.4774   -0.4925    1.7031 C   0  0  0  0  0  0  0  0  0  0  0  0
    4.3463   -1.0046    2.1626 H   0  0  0  0  0  0  0  0  0  0  0  0
    2.6196   -0.5925    2.4008 H   0  0  0  0  0  0  0  0  0  0  0  0
    3.0854   -1.1054    0.3630 C   0  0  0  0  0  0  0  0  0  0  0  0
    3.9145   -0.9797   -0.3725 H   0  0  0  0  0  0  0  0  0  0  0  0
    2.8714   -2.1878    0.4116 H   0  0  0  0  0  0  0  0  0  0  0  0
   -0.1033    1.0671   -1.6062 C   0  0  0  0  0  0  0  0  0  0  0  0
    0.1545   -0.0018   -1.8048 H   0  0  0  0  0  0  0  0  0  0  0  0
   -0.1298    1.6107   -2.5750 H   0  0  0  0  0  0  0  0  0  0  0  0
   -1.7353    0.6865    0.2067 C   0  0  2  0  0  3  0  0  0  0  0  0
   -1.0984   -0.4064    2.2192 C   0  0  0  0  0  0  0  0  0  0  0  0
   -0.8349    0.4673    2.8645 H   0  0  0  0  0  0  0  0  0  0  0  0
   -0.4226   -1.2344    2.5030 H   0  0  0  0  0  0  0  0  0  0  0  0
   -2.5609   -0.7992    2.4083 C   0  0  0  0  0  0  0  0  0  0  0  0
   -2.7461   -1.6774    1.7548 H   0  0  0  0  0  0  0  0  0  0  0  0
   -2.7857   -1.0737    3.4584 H   0  0  0  0  0  0  0  0  0  0  0  0
   -3.4334    0.3755    1.9893 C   0  0  0  0  0  0  0  0  0  0  0  0
   -4.4724    0.0364    1.7767 H   0  0  0  0  0  0  0  0  0  0  0  0
   -3.5072    1.1296    2.8081 H   0  0  0  0  0  0  0  0  0  0  0  0
   -3.8767    1.9944    0.2068 C   0  0  0  0  0  0  0  0  0  0  0  0
   -4.2121    2.7031    0.9978 H   0  0  0  0  0  0  0  0  0  0  0  0
   -4.7846    1.4261   -0.1065 H   0  0  0  0  0  0  0  0  0  0  0  0
   -3.3071    2.7464   -0.9882 C   0  0  0  0  0  0  0  0  0  0  0  0
   -2.6240    3.5559   -0.6551 H   0  0  0  0  0  0  0  0  0  0  0  0
   -4.1335    3.2158   -1.5582 H   0  0  0  0  0  0  0  0  0  0  0  0
   -2.5229    1.7602   -1.8476 C   0  0  0  0  0  0  0  0  0  0  0  0
   -3.1927    0.9594   -2.2390 H   0  0  0  0  0  0  0  0  0  0  0  0
   -2.0690    2.2613   -2.7244 H   0  0  0  0  0  0  0  0  0  0  0  0
  1 23  1  0  0  0  0
  2  8  1  0  0  0  0
  2  7  1  0  0  0  0
  3 14  1  1  0  0  0
  3 17  1  0  0  0  0
  4 30  1  0  0  0  0
  5 29  1  0  0  0  0
  6 39  1  6  0  0  0
  6 36  1  0  0  0  0
  7  1  1  6  0  0  0
  7  3  1  0  0  0  0
  8  9  1  0  0  0  0
 10  8  1  0  0  0  0
 11 13  1  0  0  0  0
 11  8  1  0  0  0  0
 11 14  1  0  0  0  0
 12 11  1  0  0  0  0
 14 16  1  0  0  0  0
 15 14  1  0  0  0  0
 17 20  1  0  0  0  0
 17 18  1  0  0  0  0
 19 17  1  0  0  0  0
 20 21  1  0  0  0  0
 20 22  1  0  0  0  0
 23 25  1  0  0  0  0
 23 20  1  0  0  0  0
 24 23  1  0  0  0  0
 26  5  1  0  0  0  0
 26  2  1  0  0  0  0
 27 26  1  0  0  0  0
 28 26  1  0  0  0  0
 29  6  1  0  0  0  0
 29  4  1  1  0  0  0
 30 33  1  0  0  0  0
 30 32  1  0  0  0  0
 30 31  1  0  0  0  0
 33 35  1  0  0  0  0
 34 33  1  0  0  0  0
 36 33  1  0  0  0  0
 36 38  1  0  0  0  0
 37 36  1  0  0  0  0
 39 40  1  0  0  0  0
 41 39  1  0  0  0  0
 42 43  1  0  0  0  0
 42 39  1  0  0  0  0
 44 42  1  0  0  0  0
 45  5  1  0  0  0  0
 45 42  1  0  0  0  0
 46 45  1  0  0  0  0
 47 45  1  0  0  0  0
M  END
