1,20
 OpenBabel05122313053D

 37 38  0  0  1  0  0  0  0  0999 V2000
   -1.7996    0.0335   -0.0631 N   0  0  0  0  0  2  0  0  0  0  0  0
   -1.9864    1.3329    0.3054 N   0  0  0  0  0  0  0  0  0  0  0  0
   -0.9190    2.0887    0.9513 C   0  0  0  0  0  0  0  0  0  0  0  0
    0.0001    2.8754    0.0002 C   0  0  0  0  0  0  0  0  0  0  0  0
   -3.2401    1.7626   -0.0420 C   0  0  1  0  0  3  0  0  0  0  0  0
   -3.8687    0.6802   -0.6621 C   0  0  0  0  0  0  0  0  0  0  0  0
   -2.9319   -0.3824   -0.6614 C   0  0  0  0  0  0  0  0  0  0  0  0
   -3.0450   -1.7615   -1.2194 C   0  0  0  0  0  0  0  0  0  0  0  0
   -3.7401    3.1353    0.2658 C   0  0  0  0  0  0  0  0  0  0  0  0
   -1.4083    2.8093    1.6367 H   0  0  0  0  0  0  0  0  0  0  0  0
   -0.3561    1.3770    1.5860 H   0  0  0  0  0  0  0  0  0  0  0  0
   -0.6222    3.5439   -0.6326 H   0  0  0  0  0  0  0  0  0  0  0  0
   -4.8892    0.6596   -1.0581 H   0  0  0  0  0  0  0  0  0  0  0  0
   -4.0995   -2.0129   -1.4362 H   0  0  0  0  0  0  0  0  0  0  0  0
   -2.4618   -1.8424   -2.1598 H   0  0  0  0  0  0  0  0  0  0  0  0
   -2.6298   -2.4978   -0.5043 H   0  0  0  0  0  0  0  0  0  0  0  0
   -4.7699    3.2516   -0.1184 H   0  0  0  0  0  0  0  0  0  0  0  0
   -3.1156    3.9264   -0.1993 H   0  0  0  0  0  0  0  0  0  0  0  0
   -3.7652    3.3323    1.3585 H   0  0  0  0  0  0  0  0  0  0  0  0
    1.7996    0.0334    0.0633 N   0  0  0  0  0  2  0  0  0  0  0  0
    1.9865    1.3329   -0.3052 N   0  0  0  0  0  0  0  0  0  0  0  0
    0.9191    2.0888   -0.9510 C   0  0  0  0  0  0  0  0  0  0  0  0
    3.2402    1.7624    0.0421 C   0  0  1  0  0  3  0  0  0  0  0  0
    3.8688    0.6800    0.6621 C   0  0  0  0  0  0  0  0  0  0  0  0
    2.9319   -0.3826    0.6615 C   0  0  0  0  0  0  0  0  0  0  0  0
    3.0448   -1.7617    1.2195 C   0  0  0  0  0  0  0  0  0  0  0  0
    3.7403    3.1351   -0.2657 C   0  0  0  0  0  0  0  0  0  0  0  0
    1.4084    2.8094   -1.6363 H   0  0  0  0  0  0  0  0  0  0  0  0
    0.3562    1.3772   -1.5858 H   0  0  0  0  0  0  0  0  0  0  0  0
    0.6224    3.5438    0.6331 H   0  0  0  0  0  0  0  0  0  0  0  0
    4.8893    0.6592    1.0580 H   0  0  0  0  0  0  0  0  0  0  0  0
    4.0993   -2.0131    1.4365 H   0  0  0  0  0  0  0  0  0  0  0  0
    2.4615   -1.8427    2.1598 H   0  0  0  0  0  0  0  0  0  0  0  0
    2.6298   -2.4980    0.5042 H   0  0  0  0  0  0  0  0  0  0  0  0
    4.7701    3.2513    0.1185 H   0  0  0  0  0  0  0  0  0  0  0  0
    3.1159    3.9262    0.1995 H   0  0  0  0  0  0  0  0  0  0  0  0
    3.7654    3.3321   -1.3584 H   0  0  0  0  0  0  0  0  0  0  0  0
  1  2  1  0  0  0  0
  2  3  1  0  0  0  0
  3 11  1  0  0  0  0
  3 10  1  0  0  0  0
  4 30  1  0  0  0  0
  4  3  1  0  0  0  0
  5  9  1  1  0  0  0
  5  2  1  0  0  0  0
  6  7  2  0  0  0  0
  6  5  1  0  0  0  0
  7  1  1  0  0  0  0
  8  7  1  0  0  0  0
  8 16  1  0  0  0  0
  9 19  1  0  0  0  0
 12  4  1  0  0  0  0
 13  6  1  0  0  0  0
 14  8  1  0  0  0  0
 15  8  1  0  0  0  0
 17  9  1  0  0  0  0
 18  9  1  0  0  0  0
 20 25  1  0  0  0  0
 21 23  1  0  0  0  0
 21 20  1  0  0  0  0
 22 21  1  0  0  0  0
 22  4  1  0  0  0  0
 23 27  1  6  0  0  0
 23 24  1  0  0  0  0
 24 31  1  0  0  0  0
 25 24  2  0  0  0  0
 25 26  1  0  0  0  0
 26 32  1  0  0  0  0
 26 33  1  0  0  0  0
 27 35  1  0  0  0  0
 27 36  1  0  0  0  0
 28 22  1  0  0  0  0
 29 22  1  0  0  0  0
 34 26  1  0  0  0  0
 37 27  1  0  0  0  0
M  END
