1,2
 OpenBabel05122313053D

 32 31  0  0  0  0  0  0  0  0999 V2000
   -1.3522    1.1814    0.0715 N   0  0  0  0  0  2  0  0  0  0  0  0
    1.3523    1.1814    0.0715 N   0  0  0  0  0  2  0  0  0  0  0  0
    0.7221    2.3127   -0.0869 C   0  0  0  0  0  0  0  0  0  0  0  0
    1.2493    3.2769   -0.1679 H   0  0  0  0  0  0  0  0  0  0  0  0
   -0.7220    2.3127   -0.0870 C   0  0  0  0  0  0  0  0  0  0  0  0
   -1.2491    3.2769   -0.1679 H   0  0  0  0  0  0  0  0  0  0  0  0
    2.8445    1.1645    0.1508 C   0  0  0  0  0  0  0  0  0  0  0  0
    3.2350    0.3434    1.3936 C   0  0  0  0  0  0  0  0  0  0  0  0
    2.8141    0.7960    2.3134 H   0  0  0  0  0  0  0  0  0  0  0  0
    4.3383    0.3178    1.4868 H   0  0  0  0  0  0  0  0  0  0  0  0
    2.8725   -0.6972    1.3264 H   0  0  0  0  0  0  0  0  0  0  0  0
    3.3743    0.5074   -1.1400 C   0  0  0  0  0  0  0  0  0  0  0  0
    3.0264   -0.5341   -1.2461 H   0  0  0  0  0  0  0  0  0  0  0  0
    4.4821    0.5059   -1.1176 H   0  0  0  0  0  0  0  0  0  0  0  0
    3.0302    1.0648   -2.0321 H   0  0  0  0  0  0  0  0  0  0  0  0
    3.4540    2.5713    0.2782 C   0  0  0  0  0  0  0  0  0  0  0  0
    3.2785    3.1927   -0.6227 H   0  0  0  0  0  0  0  0  0  0  0  0
    4.5501    2.4717    0.3926 H   0  0  0  0  0  0  0  0  0  0  0  0
    3.0738    3.1114    1.1691 H   0  0  0  0  0  0  0  0  0  0  0  0
   -2.8445    1.1646    0.1508 C   0  0  0  0  0  0  0  0  0  0  0  0
   -3.4540    2.5713    0.2782 C   0  0  0  0  0  0  0  0  0  0  0  0
   -3.0738    3.1116    1.1690 H   0  0  0  0  0  0  0  0  0  0  0  0
   -4.5500    2.4717    0.3925 H   0  0  0  0  0  0  0  0  0  0  0  0
   -3.2785    3.1927   -0.6228 H   0  0  0  0  0  0  0  0  0  0  0  0
   -3.3742    0.5075   -1.1400 C   0  0  0  0  0  0  0  0  0  0  0  0
   -3.0302    1.0648   -2.0322 H   0  0  0  0  0  0  0  0  0  0  0  0
   -4.4820    0.5059   -1.1176 H   0  0  0  0  0  0  0  0  0  0  0  0
   -3.0262   -0.5340   -1.2461 H   0  0  0  0  0  0  0  0  0  0  0  0
   -3.2349    0.3436    1.3936 C   0  0  0  0  0  0  0  0  0  0  0  0
   -2.8724   -0.6972    1.3263 H   0  0  0  0  0  0  0  0  0  0  0  0
   -4.3382    0.3180    1.4868 H   0  0  0  0  0  0  0  0  0  0  0  0
   -2.8139    0.7960    2.3134 H   0  0  0  0  0  0  0  0  0  0  0  0
  1 20  1  0  0  0  0
  2  7  1  0  0  0  0
  3  2  1  0  0  0  0
  4  3  1  0  0  0  0
  5  3  2  0  0  0  0
  5  1  1  0  0  0  0
  6  5  1  0  0  0  0
  7 16  1  0  0  0  0
  7  8  1  0  0  0  0
  8 10  1  0  0  0  0
  8  9  1  0  0  0  0
 11  8  1  0  0  0  0
 12 14  1  0  0  0  0
 12  7  1  0  0  0  0
 13 12  1  0  0  0  0
 15 12  1  0  0  0  0
 16 18  1  0  0  0  0
 16 19  1  0  0  0  0
 17 16  1  0  0  0  0
 20 21  1  0  0  0  0
 20 29  1  0  0  0  0
 21 23  1  0  0  0  0
 21 22  1  0  0  0  0
 24 21  1  0  0  0  0
 25 27  1  0  0  0  0
 25 20  1  0  0  0  0
 26 25  1  0  0  0  0
 28 25  1  0  0  0  0
 29 31  1  0  0  0  0
 29 32  1  0  0  0  0
 30 29  1  0  0  0  0
M  END
