3,4
 OpenBabel05122313053D

 30 32  0  0  1  0  0  0  0  0999 V2000
   -6.0247   -0.9376   -1.1017 O   0  0  0  0  0  0  0  0  0  0  0  0
   -6.5223    0.1451    0.7322 O   0  0  0  0  0  0  0  0  0  0  0  0
    2.9656    0.1062   -0.1615 N   0  0  0  0  0  2  0  0  0  0  0  0
    0.5749    1.2330   -0.1137 N   0  0  0  0  0  2  0  0  0  0  0  0
   -0.5263    2.0128   -0.0410 N   0  0  0  0  0  0  0  0  0  0  0  0
   -5.7544   -0.1805   -0.1721 N   0  0  0  0  0  0  0  0  0  0  0  0
    4.1589   -0.5288   -0.2266 C   0  0  0  0  0  3  0  0  0  0  0  0
    5.3752    0.1499   -0.3356 C   0  0  0  0  0  0  0  0  0  0  0  0
    5.3717    1.5550   -0.3773 C   0  0  0  0  0  0  0  0  0  0  0  0
    4.1461    2.2226   -0.3142 C   0  0  0  0  0  0  0  0  0  0  0  0
    2.9580    1.4750   -0.2113 C   0  0  0  0  0  0  0  0  0  0  0  0
    1.6358    2.0786   -0.1489 C   0  0  2  0  0  3  0  0  0  0  0  0
    1.1908    3.4272   -0.0853 C   0  0  0  0  0  0  0  0  0  0  0  0
   -0.1920    3.3460   -0.0136 C   0  0  0  0  0  0  0  0  0  0  0  0
   -1.8382    1.4613   -0.0747 C   0  0  0  0  0  0  0  0  0  0  0  0
   -2.7568    1.8109    0.9307 C   0  0  0  0  0  0  0  0  0  0  0  0
   -4.0486    1.2751    0.8960 C   0  0  0  0  0  0  0  0  0  0  0  0
   -4.3846    0.3971   -0.1412 C   0  0  0  0  0  0  0  0  0  0  0  0
   -3.4787    0.0437   -1.1487 C   0  0  0  0  0  0  0  0  0  0  0  0
   -2.1921    0.5883   -1.1195 C   0  0  0  0  0  0  0  0  0  0  0  0
   -4.7984    1.5053    1.6640 H   0  0  0  0  0  0  0  0  0  0  0  0
   -1.4558    0.3352   -1.8933 H   0  0  0  0  0  0  0  0  0  0  0  0
   -2.4470    2.4767    1.7488 H   0  0  0  0  0  0  0  0  0  0  0  0
   -3.7979   -0.6514   -1.9359 H   0  0  0  0  0  0  0  0  0  0  0  0
   -0.9696    4.1156    0.0157 H   0  0  0  0  0  0  0  0  0  0  0  0
    1.7959    4.3383   -0.0946 H   0  0  0  0  0  0  0  0  0  0  0  0
    4.1194   -1.6269   -0.1827 H   0  0  0  0  0  0  0  0  0  0  0  0
    6.3119   -0.4227   -0.3845 H   0  0  0  0  0  0  0  0  0  0  0  0
    4.0957    3.3200   -0.3472 H   0  0  0  0  0  0  0  0  0  0  0  0
    6.3119    2.1194   -0.4593 H   0  0  0  0  0  0  0  0  0  0  0  0
  1  6  2  0  0  0  0
  4  5  1  0  0  0  0
  5 14  1  0  0  0  0
  6 18  1  0  0  0  0
  6  2  2  0  0  0  0
  7 27  1  0  0  0  0
  7  3  1  0  0  0  0
  8  7  1  0  0  0  0
  9  8  2  0  0  0  0
  9 10  1  0  0  0  0
 10 11  2  0  0  0  0
 11  3  1  0  0  0  0
 12 11  1  1  0  0  0
 12  4  1  0  0  0  0
 12 13  1  0  0  0  0
 13 14  2  0  0  0  0
 14 25  1  0  0  0  0
 15  5  1  0  0  0  0
 15 16  1  0  0  0  0
 16 23  1  0  0  0  0
 17 16  2  0  0  0  0
 17 21  1  0  0  0  0
 18 17  1  0  0  0  0
 19 20  1  0  0  0  0
 19 18  2  0  0  0  0
 20 15  2  0  0  0  0
 22 20  1  0  0  0  0
 24 19  1  0  0  0  0
 26 13  1  0  0  0  0
 28  8  1  0  0  0  0
 29 10  1  0  0  0  0
 30  9  1  0  0  0  0
M  END
