1,2
 OpenBabel05122313053D

 22 22  0  0  0  0  0  0  0  0999 V2000
    1.3818   -0.3810    0.1412 N   0  0  0  0  0  2  0  0  0  0  0  0
   -0.1146    1.9250    0.2195 N   0  0  0  0  0  0  0  0  0  0  0  0
    2.1494   -1.4621    0.4016 C   0  0  0  0  0  3  0  0  0  0  0  0
    1.6243   -2.3522    0.7774 H   0  0  0  0  0  0  0  0  0  0  0  0
    3.5330   -1.4682    0.2033 C   0  0  0  0  0  0  0  0  0  0  0  0
    4.1086   -2.3779    0.4245 H   0  0  0  0  0  0  0  0  0  0  0  0
    4.1544   -0.3032   -0.2681 C   0  0  0  0  0  0  0  0  0  0  0  0
    5.2427   -0.2685   -0.4249 H   0  0  0  0  0  0  0  0  0  0  0  0
    3.3602    0.8190   -0.5349 C   0  0  0  0  0  0  0  0  0  0  0  0
    3.8027    1.7540   -0.9078 H   0  0  0  0  0  0  0  0  0  0  0  0
    1.9742    0.7472   -0.3322 C   0  0  0  0  0  0  0  0  0  0  0  0
    1.0361    1.8580   -0.7045 C   0  0  0  0  0  0  0  0  0  0  0  0
    1.5667    2.8360   -0.7679 H   0  0  0  0  0  0  0  0  0  0  0  0
    0.6250    1.6009   -1.7072 H   0  0  0  0  0  0  0  0  0  0  0  0
    0.2944    2.5237    1.5025 C   0  0  0  0  0  0  0  0  0  0  0  0
    0.6238    3.5794    1.3597 H   0  0  0  0  0  0  0  0  0  0  0  0
    1.1282    1.9470    1.9443 H   0  0  0  0  0  0  0  0  0  0  0  0
   -0.5540    2.5054    2.2105 H   0  0  0  0  0  0  0  0  0  0  0  0
   -1.2037    2.7142   -0.3866 C   0  0  0  0  0  0  0  0  0  0  0  0
   -2.0518    2.7719    0.3201 H   0  0  0  0  0  0  0  0  0  0  0  0
   -1.5410    2.2072   -1.3111 H   0  0  0  0  0  0  0  0  0  0  0  0
   -0.8605    3.7484   -0.6211 H   0  0  0  0  0  0  0  0  0  0  0  0
  1  3  1  0  0  0  0
  2 15  1  0  0  0  0
  3  4  1  0  0  0  0
  5  3  1  0  0  0  0
  5  6  1  0  0  0  0
  7  5  2  0  0  0  0
  8  7  1  0  0  0  0
  9 11  2  0  0  0  0
  9  7  1  0  0  0  0
 10  9  1  0  0  0  0
 11  1  1  0  0  0  0
 12 11  1  0  0  0  0
 12  2  1  0  0  0  0
 13 12  1  0  0  0  0
 14 12  1  0  0  0  0
 15 17  1  0  0  0  0
 15 18  1  0  0  0  0
 16 15  1  0  0  0  0
 19  2  1  0  0  0  0
 19 20  1  0  0  0  0
 21 19  1  0  0  0  0
 22 19  1  0  0  0  0
M  END
