1,2
 OpenBabel05122313053D

 30 33  0  0  0  0  0  0  0  0999 V2000
    1.4293   -2.0986   -0.4233 N   0  0  0  0  0  2  0  0  0  0  0  0
   -0.2669   -0.0231   -0.3189 N   0  0  0  0  0  2  0  0  0  0  0  0
    0.3656    2.7154   -1.3815 N   0  0  0  0  0  0  0  0  0  0  0  0
   -0.2413   -4.0519   -0.5912 S   0  0  0  0  0  0  0  0  0  0  0  0
   -1.0602    3.7398    0.5303 S   0  0  0  0  0  0  0  0  0  0  0  0
   -5.6298    0.8028   -0.0559 S   0  0  0  0  0  0  0  0  0  0  0  0
    2.1892   -3.2328   -0.5667 C   0  0  0  0  0  0  0  0  0  0  0  0
    3.2834   -3.1526   -0.5722 H   0  0  0  0  0  0  0  0  0  0  0  0
    1.4569   -4.3931   -0.6725 C   0  0  0  0  0  0  0  0  0  0  0  0
    1.8195   -5.4204   -0.7892 H   0  0  0  0  0  0  0  0  0  0  0  0
    0.1203   -2.3602   -0.4075 C   0  0  0  0  0  0  0  0  0  0  0  0
   -0.8359   -1.2693   -0.3014 C   0  0  0  0  0  0  0  0  0  0  0  0
   -2.2175   -1.4794   -0.2128 C   0  0  0  0  0  0  0  0  0  0  0  0
   -2.6017   -2.5086   -0.2075 H   0  0  0  0  0  0  0  0  0  0  0  0
   -3.0933   -0.3798   -0.1163 C   0  0  0  0  0  0  0  0  0  0  0  0
   -2.4965    0.8998   -0.1860 C   0  0  0  0  0  0  0  0  0  0  0  0
   -3.1157    1.8083   -0.1689 H   0  0  0  0  0  0  0  0  0  0  0  0
   -1.1070    1.0454   -0.3124 C   0  0  0  0  0  0  0  0  0  0  0  0
   -0.5333    2.3929   -0.4794 C   0  0  0  0  0  0  0  0  0  0  0  0
    0.0081    4.7695   -0.3487 C   0  0  0  0  0  0  0  0  0  0  0  0
    0.1086    5.8318   -0.0964 H   0  0  0  0  0  0  0  0  0  0  0  0
    0.6779    4.0428   -1.3185 C   0  0  0  0  0  0  0  0  0  0  0  0
    1.4243    4.4605   -2.0088 H   0  0  0  0  0  0  0  0  0  0  0  0
   -4.5335   -0.5612    0.0234 C   0  0  0  0  0  0  0  0  0  0  0  0
   -5.2477   -1.7403    0.2340 C   0  0  0  0  0  0  0  0  0  0  0  0
   -4.7679   -2.7232    0.3320 H   0  0  0  0  0  0  0  0  0  0  0  0
   -6.6511   -1.5388    0.3308 C   0  0  0  0  0  0  0  0  0  0  0  0
   -7.3798   -2.3427    0.5001 H   0  0  0  0  0  0  0  0  0  0  0  0
   -7.0057   -0.2075    0.1917 C   0  0  0  0  0  0  0  0  0  0  0  0
   -8.0080    0.2372    0.2205 H   0  0  0  0  0  0  0  0  0  0  0  0
  1 11  1  0  0  0  0
  2 18  1  0  0  0  0
  2 12  1  0  0  0  0
  3 22  1  0  0  0  0
  3 19  2  0  0  0  0
  4 11  1  0  0  0  0
  6 24  1  0  0  0  0
  6 29  1  0  0  0  0
  7  1  1  0  0  0  0
  8  7  1  0  0  0  0
  9  4  1  0  0  0  0
  9  7  2  0  0  0  0
 10  9  1  0  0  0  0
 11 12  2  0  0  0  0
 12 13  1  0  0  0  0
 13 14  1  0  0  0  0
 13 15  2  0  0  0  0
 15 24  1  0  0  0  0
 16 17  1  0  0  0  0
 16 15  1  0  0  0  0
 18 16  2  0  0  0  0
 19 18  1  0  0  0  0
 19  5  1  0  0  0  0
 20 21  1  0  0  0  0
 20  5  1  0  0  0  0
 22 20  2  0  0  0  0
 23 22  1  0  0  0  0
 24 25  2  0  0  0  0
 25 27  1  0  0  0  0
 25 26  1  0  0  0  0
 27 28  1  0  0  0  0
 29 30  1  0  0  0  0
 29 27  2  0  0  0  0
M  END
