1,2
 OpenBabel05122313053D

 32 35  0  0  0  0  0  0  0  0999 V2000
    1.3409   -2.1219   -0.4305 N   0  0  0  0  0  2  0  0  0  0  0  0
   -0.2803    0.0156   -0.3284 N   0  0  0  0  0  2  0  0  0  0  0  0
    0.4837    2.7201   -1.3690 N   0  0  0  0  0  0  0  0  0  0  0  0
   -5.2427    0.8731   -0.0440 N   0  0  0  0  0  0  0  0  0  0  0  0
   -0.4005   -4.0103   -0.6223 S   0  0  0  0  0  0  0  0  0  0  0  0
   -0.9749    3.8198    0.4752 S   0  0  0  0  0  0  0  0  0  0  0  0
    2.0590   -3.2830   -0.5744 C   0  0  0  0  0  0  0  0  0  0  0  0
    3.1554   -3.2440   -0.5708 H   0  0  0  0  0  0  0  0  0  0  0  0
    1.2847   -4.4145   -0.6924 C   0  0  0  0  0  0  0  0  0  0  0  0
    1.6095   -5.4540   -0.8123 H   0  0  0  0  0  0  0  0  0  0  0  0
    0.0228   -2.3340   -0.4261 C   0  0  0  0  0  0  0  0  0  0  0  0
   -0.8922   -1.2091   -0.3218 C   0  0  0  0  0  0  0  0  0  0  0  0
   -2.2839   -1.3676   -0.2396 C   0  0  0  0  0  0  0  0  0  0  0  0
   -2.6987   -2.3850   -0.2382 H   0  0  0  0  0  0  0  0  0  0  0  0
   -3.1086   -0.2360   -0.1432 C   0  0  0  0  0  0  0  0  0  0  0  0
   -2.4749    1.0206   -0.2068 C   0  0  0  0  0  0  0  0  0  0  0  0
   -3.1011    1.9229   -0.1920 H   0  0  0  0  0  0  0  0  0  0  0  0
   -1.0801    1.1168   -0.3266 C   0  0  0  0  0  0  0  0  0  0  0  0
   -0.4565    2.4404   -0.4942 C   0  0  0  0  0  0  0  0  0  0  0  0
    0.8371    4.0370   -1.3142 C   0  0  0  0  0  0  0  0  0  0  0  0
    1.6194    4.4199   -1.9847 H   0  0  0  0  0  0  0  0  0  0  0  0
    0.1587    4.7994   -0.3778 C   0  0  0  0  0  0  0  0  0  0  0  0
    0.2843    5.8621   -0.1384 H   0  0  0  0  0  0  0  0  0  0  0  0
   -4.5875   -0.3075   -0.0056 C   0  0  0  0  0  0  0  0  0  0  0  0
   -5.2710   -1.5315    0.1662 C   0  0  0  0  0  0  0  0  0  0  0  0
   -4.7256   -2.4843    0.2122 H   0  0  0  0  0  0  0  0  0  0  0  0
   -6.6651   -1.5188    0.2929 C   0  0  0  0  0  0  0  0  0  0  0  0
   -7.2181   -2.4602    0.4301 H   0  0  0  0  0  0  0  0  0  0  0  0
   -7.3392   -0.2908    0.2470 C   0  0  0  0  0  0  0  0  0  0  0  0
   -8.4333   -0.2328    0.3425 H   0  0  0  0  0  0  0  0  0  0  0  0
   -6.5734    0.8761    0.0788 C   0  0  0  0  0  0  0  0  0  0  0  0
   -7.0654    1.8644    0.0420 H   0  0  0  0  0  0  0  0  0  0  0  0
  1 11  1  0  0  0  0
  2 18  1  0  0  0  0
  2 12  1  0  0  0  0
  3 20  1  0  0  0  0
  3 19  2  0  0  0  0
  4 24  2  0  0  0  0
  4 31  1  0  0  0  0
  5 11  1  0  0  0  0
  7  8  1  0  0  0  0
  7  1  1  0  0  0  0
  9  5  1  0  0  0  0
  9  7  2  0  0  0  0
 10  9  1  0  0  0  0
 11 12  2  0  0  0  0
 12 13  1  0  0  0  0
 13 14  1  0  0  0  0
 13 15  2  0  0  0  0
 15 24  1  0  0  0  0
 16 17  1  0  0  0  0
 16 15  1  0  0  0  0
 18 16  2  0  0  0  0
 19 18  1  0  0  0  0
 19  6  1  0  0  0  0
 20 22  2  0  0  0  0
 21 20  1  0  0  0  0
 22 23  1  0  0  0  0
 22  6  1  0  0  0  0
 24 25  1  0  0  0  0
 25 26  1  0  0  0  0
 25 27  2  0  0  0  0
 27 28  1  0  0  0  0
 29 27  1  0  0  0  0
 29 30  1  0  0  0  0
 31 29  2  0  0  0  0
 32 31  1  0  0  0  0
M  END
