3,4
 OpenBabel05122313053D

 34 37  0  0  0  0  0  0  0  0999 V2000
    0.9319   -3.7820    0.7253 S   0  0  0  0  0  0  0  0  0  0  0  0
   -1.0210    2.9007    1.4969 S   0  0  0  0  0  0  0  0  0  0  0  0
   -1.0379   -2.1547    0.4185 N   0  0  0  0  0  2  0  0  0  0  0  0
    0.3060    0.1835    0.2888 N   0  0  0  0  0  2  0  0  0  0  0  0
    0.6744    3.7495   -0.2773 N   0  0  0  0  0  0  0  0  0  0  0  0
    5.5585   -0.5676    0.1630 N   0  0  0  0  0  0  0  0  0  0  0  0
   -1.5998   -3.3942    0.6012 C   0  0  0  0  0  0  0  0  0  0  0  0
   -2.6914   -3.5013    0.5766 H   0  0  0  0  0  0  0  0  0  0  0  0
   -0.6855   -4.4063    0.7826 C   0  0  0  0  0  0  0  0  0  0  0  0
   -0.8721   -5.4742    0.9417 H   0  0  0  0  0  0  0  0  0  0  0  0
    0.2948   -2.1867    0.4468 C   0  0  0  0  0  0  0  0  0  0  0  0
    1.0614   -0.9582    0.2992 C   0  0  0  0  0  0  0  0  0  0  0  0
    2.4557   -0.9674    0.1666 C   0  0  0  0  0  0  0  0  0  0  0  0
    2.9644   -1.9380    0.1306 H   0  0  0  0  0  0  0  0  0  0  0  0
    3.1587    0.2438   -0.0194 C   0  0  0  0  0  0  0  0  0  0  0  0
    2.3698    1.4183    0.0095 C   0  0  0  0  0  0  0  0  0  0  0  0
    2.8273    2.4119   -0.0720 H   0  0  0  0  0  0  0  0  0  0  0  0
    0.9804    1.3633    0.1932 C   0  0  0  0  0  0  0  0  0  0  0  0
    0.2786    2.6497    0.3334 C   0  0  0  0  0  0  0  0  0  0  0  0
   -0.0645    4.8269    0.1151 C   0  0  0  0  0  0  0  0  0  0  0  0
    0.1243    5.8132   -0.3324 H   0  0  0  0  0  0  0  0  0  0  0  0
   -1.0256    4.5713    1.0797 C   0  0  0  0  0  0  0  0  0  0  0  0
   -1.7354    5.2674    1.5429 H   0  0  0  0  0  0  0  0  0  0  0  0
    4.5904    0.3489   -0.2546 C   0  0  0  0  0  0  0  0  0  0  0  0
    5.2610    1.3648   -0.9600 C   0  0  0  0  0  0  0  0  0  0  0  0
    4.7733    2.2170   -1.4458 H   0  0  0  0  0  0  0  0  0  0  0  0
    6.6400    1.0507   -0.9764 C   0  0  0  0  0  0  0  0  0  0  0  0
    7.4436    1.6217   -1.4533 H   0  0  0  0  0  0  0  0  0  0  0  0
    6.7920   -0.1398   -0.2674 C   0  0  0  0  0  0  0  0  0  0  0  0
    7.6927   -0.7134   -0.0209 H   0  0  0  0  0  0  0  0  0  0  0  0
    5.3700   -1.7345    1.0062 C   0  0  0  0  0  0  0  0  0  0  0  0
    4.6368   -1.5230    1.8077 H   0  0  0  0  0  0  0  0  0  0  0  0
    6.3349   -1.9921    1.4805 H   0  0  0  0  0  0  0  0  0  0  0  0
    5.0231   -2.6164    0.4275 H   0  0  0  0  0  0  0  0  0  0  0  0
  1  9  1  0  0  0  0
  3 11  1  0  0  0  0
  3  7  1  0  0  0  0
  4 12  1  0  0  0  0
  5 20  1  0  0  0  0
  5 19  2  0  0  0  0
  6 31  1  0  0  0  0
  7  9  2  0  0  0  0
  8  7  1  0  0  0  0
  9 10  1  0  0  0  0
 11  1  1  0  0  0  0
 12 11  2  0  0  0  0
 13 12  1  0  0  0  0
 14 13  1  0  0  0  0
 15 16  1  0  0  0  0
 15 13  2  0  0  0  0
 16 18  2  0  0  0  0
 17 16  1  0  0  0  0
 18  4  1  0  0  0  0
 18 19  1  0  0  0  0
 19  2  1  0  0  0  0
 20 22  2  0  0  0  0
 21 20  1  0  0  0  0
 22  2  1  0  0  0  0
 22 23  1  0  0  0  0
 24 15  1  0  0  0  0
 24  6  1  0  0  0  0
 25 24  2  0  0  0  0
 26 25  1  0  0  0  0
 27 25  1  0  0  0  0
 27 29  2  0  0  0  0
 28 27  1  0  0  0  0
 29 30  1  0  0  0  0
 29  6  1  0  0  0  0
 31 33  1  0  0  0  0
 31 32  1  0  0  0  0
 34 31  1  0  0  0  0
M  END
