3,4
 OpenBabel05122313053D

 56 59  0  0  1  0  0  0  0  0999 V2000
   -2.9851    1.9498   -0.5775 O   0  0  0  0  0  0  0  0  0  0  0  0
    3.6640    0.5549   -2.3204 O   0  0  0  0  0  0  0  0  0  0  0  0
   -1.1340   -0.3747   -1.2182 N   0  0  0  0  0  2  0  0  0  0  0  0
    1.4289   -0.7354   -0.7042 N   0  0  0  0  0  2  0  0  0  0  0  0
   -4.6658    0.3823   -1.1053 N   0  0  0  0  0  0  0  0  0  0  0  0
   -4.6797   -0.9742   -1.4482 N   0  0  0  0  0  0  0  0  0  0  0  0
    4.9988   -0.2173   -0.5359 N   0  0  0  0  0  0  0  0  0  0  0  0
    4.7655   -0.9620    0.6221 N   0  0  0  0  0  0  0  0  0  0  0  0
   -0.3692   -0.7820   -2.2135 C   0  0  0  0  0  0  0  0  0  0  0  0
   -0.7929   -0.9888   -3.2112 H   0  0  0  0  0  0  0  0  0  0  0  0
    1.0287   -0.9065   -1.9579 C   0  0  0  0  0  0  0  0  0  0  0  0
    1.7474   -1.1234   -2.7631 H   0  0  0  0  0  0  0  0  0  0  0  0
   -3.3182    0.8361   -0.9603 C   0  0  0  0  0  0  0  0  0  0  0  0
   -2.5201   -0.3334   -1.3468 C   0  0  0  0  0  0  0  0  0  0  0  0
   -3.3727   -1.3819   -1.6504 C   0  0  0  0  0  0  0  0  0  0  0  0
   -3.0352   -2.7776   -2.0519 C   0  0  0  0  0  0  0  0  0  0  0  0
   -3.7441   -3.5001   -1.6028 H   0  0  0  0  0  0  0  0  0  0  0  0
   -2.0259   -3.0201   -1.6638 H   0  0  0  0  0  0  0  0  0  0  0  0
   -3.0458   -2.9208   -3.1532 H   0  0  0  0  0  0  0  0  0  0  0  0
   -5.7571   -1.4110   -2.3305 C   0  0  0  0  0  0  0  0  0  0  0  0
   -6.7336   -1.1489   -1.8835 H   0  0  0  0  0  0  0  0  0  0  0  0
   -5.7033   -2.5096   -2.4334 H   0  0  0  0  0  0  0  0  0  0  0  0
   -5.6784   -0.9395   -3.3352 H   0  0  0  0  0  0  0  0  0  0  0  0
   -5.7581    0.9423   -0.3981 C   0  0  0  0  0  0  0  0  0  0  0  0
   -5.9663    2.3342   -0.4647 C   0  0  0  0  0  0  0  0  0  0  0  0
   -5.2830    2.9526   -1.0598 H   0  0  0  0  0  0  0  0  0  0  0  0
   -7.0258    2.9048    0.2527 C   0  0  0  0  0  0  0  0  0  0  0  0
   -7.1813    3.9931    0.2061 H   0  0  0  0  0  0  0  0  0  0  0  0
   -7.8887    2.1031    1.0175 C   0  0  0  0  0  0  0  0  0  0  0  0
   -8.7241    2.5586    1.5696 H   0  0  0  0  0  0  0  0  0  0  0  0
   -7.6716    0.7178    1.0830 C   0  0  0  0  0  0  0  0  0  0  0  0
   -8.3285    0.0830    1.6967 H   0  0  0  0  0  0  0  0  0  0  0  0
   -6.6012    0.1341    0.3918 C   0  0  0  0  0  0  0  0  0  0  0  0
   -6.3922   -0.9415    0.4829 H   0  0  0  0  0  0  0  0  0  0  0  0
    3.7854   -0.0697   -1.2718 C   0  0  0  0  0  0  0  0  0  0  0  0
    2.7888   -0.7511   -0.4356 C   0  0  1  0  0  3  0  0  0  0  0  0
    3.4397   -1.3353    0.6486 C   0  0  1  0  0  3  0  0  0  0  0  0
    2.9430   -2.3797    1.5877 C   0  0  0  0  0  0  0  0  0  0  0  0
    3.4538   -3.3469    1.3926 H   0  0  0  0  0  0  0  0  0  0  0  0
    1.8557   -2.5396    1.4398 H   0  0  0  0  0  0  0  0  0  0  0  0
    3.1226   -2.1019    2.6446 H   0  0  0  0  0  0  0  0  0  0  0  0
    5.8342   -1.8511    1.0636 C   0  0  0  0  0  0  0  0  0  0  0  0
    5.5978   -2.2074    2.0816 H   0  0  0  0  0  0  0  0  0  0  0  0
    6.7859   -1.2912    1.1009 H   0  0  0  0  0  0  0  0  0  0  0  0
    5.9496   -2.7214    0.3805 H   0  0  0  0  0  0  0  0  0  0  0  0
    6.0863    0.6876   -0.6034 C   0  0  0  0  0  0  0  0  0  0  0  0
    6.6292    1.2521    0.5697 C   0  0  0  0  0  0  0  0  0  0  0  0
    6.1893    1.0057    1.5468 H   0  0  0  0  0  0  0  0  0  0  0  0
    7.7024    2.1482    0.4741 C   0  0  0  0  0  0  0  0  0  0  0  0
    8.1243    2.5842    1.3923 H   0  0  0  0  0  0  0  0  0  0  0  0
    8.2189    2.5078   -0.7806 C   0  0  0  0  0  0  0  0  0  0  0  0
    9.0559    3.2182   -0.8511 H   0  0  0  0  0  0  0  0  0  0  0  0
    7.6540    1.9625   -1.9447 C   0  0  0  0  0  0  0  0  0  0  0  0
    8.0459    2.2470   -2.9328 H   0  0  0  0  0  0  0  0  0  0  0  0
    6.5969    1.0463   -1.8670 C   0  0  0  0  0  0  0  0  0  0  0  0
    6.1457    0.6190   -2.7710 H   0  0  0  0  0  0  0  0  0  0  0  0
  2 35  2  0  0  0  0
  5 13  1  0  0  0  0
  5 24  1  0  0  0  0
  6  5  1  0  0  0  0
  7  8  1  0  0  0  0
  8 37  1  0  0  0  0
  8 42  1  0  0  0  0
  9 11  2  0  0  0  0
  9  3  1  0  0  0  0
 10  9  1  0  0  0  0
 11  4  1  0  0  0  0
 12 11  1  0  0  0  0
 13  1  2  0  0  0  0
 14  3  1  0  0  0  0
 14 13  1  0  0  0  0
 15  6  1  0  0  0  0
 15 14  2  0  0  0  0
 16 18  1  0  0  0  0
 16 15  1  0  0  0  0
 16 17  1  0  0  0  0
 19 16  1  0  0  0  0
 20 21  1  0  0  0  0
 20  6  1  0  0  0  0
 22 20  1  0  0  0  0
 23 20  1  0  0  0  0
 24 33  1  0  0  0  0
 25 24  2  0  0  0  0
 25 27  1  0  0  0  0
 26 25  1  0  0  0  0
 27 29  2  0  0  0  0
 28 27  1  0  0  0  0
 29 31  1  0  0  0  0
 29 30  1  0  0  0  0
 31 32  1  0  0  0  0
 33 34  1  0  0  0  0
 33 31  2  0  0  0  0
 35  7  1  0  0  0  0
 35 36  1  0  0  0  0
 36  4  1  1  0  0  0
 36 37  1  0  0  0  0
 37 38  1  6  0  0  0
 38 41  1  0  0  0  0
 39 38  1  0  0  0  0
 40 38  1  0  0  0  0
 42 44  1  0  0  0  0
 42 43  1  0  0  0  0
 45 42  1  0  0  0  0
 46  7  1  0  0  0  0
 46 47  1  0  0  0  0
 47 48  1  0  0  0  0
 49 47  2  0  0  0  0
 49 50  1  0  0  0  0
 51 49  1  0  0  0  0
 52 51  1  0  0  0  0
 53 55  1  0  0  0  0
 53 51  2  0  0  0  0
 54 53  1  0  0  0  0
 55 46  2  0  0  0  0
 56 55  1  0  0  0  0
M  END
