3,4
 OpenBabel05122313053D

 65 69  0  0  1  0  0  0  0  0999 V2000
    5.0869    1.5538   -0.7576 O   0  0  0  0  0  0  0  0  0  0  0  0
   -4.1164   -0.9733   -0.5264 O   0  0  0  0  0  0  0  0  0  0  0  0
   -0.0720    1.6885   -1.0043 N   0  0  0  0  0  2  0  0  0  0  0  0
    2.2806    0.3688   -1.0713 N   0  0  0  0  0  2  0  0  0  0  0  0
   -3.5779    2.1202   -0.3650 N   0  0  0  0  0  0  0  0  0  0  0  0
    5.0442   -1.9284   -0.7718 N   0  0  0  0  0  0  0  0  0  0  0  0
    5.7111   -0.7091   -0.6582 N   0  0  0  0  0  0  0  0  0  0  0  0
   -6.7826    0.9279    0.6845 N   0  0  0  0  0  0  0  0  0  0  0  0
   -6.1817   -0.2988    0.3797 N   0  0  0  0  0  0  0  0  0  0  0  0
    1.0309    2.3599   -1.4601 C   0  0  0  0  0  0  0  0  0  0  0  0
    0.9623    3.6919   -1.9116 C   0  0  0  0  0  0  0  0  0  0  0  0
    1.8789    4.1843   -2.2654 H   0  0  0  0  0  0  0  0  0  0  0  0
   -0.2676    4.3589   -1.8785 C   0  0  0  0  0  0  0  0  0  0  0  0
   -0.3444    5.4079   -2.2008 H   0  0  0  0  0  0  0  0  0  0  0  0
   -1.3982    3.6608   -1.4479 C   0  0  0  0  0  0  0  0  0  0  0  0
   -2.4003    4.1100   -1.4195 H   0  0  0  0  0  0  0  0  0  0  0  0
   -1.2813    2.3125   -1.0447 C   0  0  0  0  0  0  0  0  0  0  0  0
    2.2722    1.6210   -1.4811 C   0  0  0  0  0  0  0  0  0  0  0  0
    3.1935    2.1102   -1.8336 H   0  0  0  0  0  0  0  0  0  0  0  0
   -2.4649    1.5296   -0.6869 C   0  0  0  0  0  0  0  0  0  0  0  0
   -2.3626    0.4290   -0.7215 H   0  0  0  0  0  0  0  0  0  0  0  0
    4.7904    0.3642   -0.8275 C   0  0  0  0  0  0  0  0  0  0  0  0
    3.4958   -0.3059   -1.0309 C   0  0  1  0  0  3  0  0  0  0  0  0
    3.7202   -1.6813   -1.0618 C   0  0  1  0  0  3  0  0  0  0  0  0
    2.8248   -2.7908   -1.4928 C   0  0  0  0  0  0  0  0  0  0  0  0
    2.7775   -3.5933   -0.7304 H   0  0  0  0  0  0  0  0  0  0  0  0
    3.1771   -3.2364   -2.4469 H   0  0  0  0  0  0  0  0  0  0  0  0
    1.8030   -2.4111   -1.6537 H   0  0  0  0  0  0  0  0  0  0  0  0
    5.7843   -3.0318   -1.3733 C   0  0  0  0  0  0  0  0  0  0  0  0
    6.7715   -3.1190   -0.8850 H   0  0  0  0  0  0  0  0  0  0  0  0
    5.9304   -2.8804   -2.4658 H   0  0  0  0  0  0  0  0  0  0  0  0
    5.2269   -3.9691   -1.1996 H   0  0  0  0  0  0  0  0  0  0  0  0
   -4.8527   -0.0869   -0.1045 C   0  0  0  0  0  0  0  0  0  0  0  0
   -4.6738    1.3740   -0.0235 C   0  0  0  0  0  0  0  0  0  0  0  0
   -5.8496    1.9205    0.4886 C   0  0  0  0  0  0  0  0  0  0  0  0
   -6.0874    3.3388    0.8666 C   0  0  0  0  0  0  0  0  0  0  0  0
   -7.0421    3.7248    0.4552 H   0  0  0  0  0  0  0  0  0  0  0  0
   -5.2476    3.9388    0.4697 H   0  0  0  0  0  0  0  0  0  0  0  0
   -6.1122    3.4750    1.9688 H   0  0  0  0  0  0  0  0  0  0  0  0
   -7.6994    0.9493    1.8205 C   0  0  0  0  0  0  0  0  0  0  0  0
   -8.4746    0.1727    1.6894 H   0  0  0  0  0  0  0  0  0  0  0  0
   -8.1946    1.9363    1.8530 H   0  0  0  0  0  0  0  0  0  0  0  0
   -7.1624    0.7698    2.7777 H   0  0  0  0  0  0  0  0  0  0  0  0
    6.9131   -0.6143    0.0856 C   0  0  0  0  0  0  0  0  0  0  0  0
    7.1890   -1.5234    1.1280 C   0  0  0  0  0  0  0  0  0  0  0  0
    6.4518   -2.2983    1.3830 H   0  0  0  0  0  0  0  0  0  0  0  0
    8.3837   -1.4052    1.8509 C   0  0  0  0  0  0  0  0  0  0  0  0
    8.5959   -2.1176    2.6624 H   0  0  0  0  0  0  0  0  0  0  0  0
    9.2896   -0.3721    1.5629 C   0  0  0  0  0  0  0  0  0  0  0  0
   10.2219   -0.2778    2.1393 H   0  0  0  0  0  0  0  0  0  0  0  0
    8.9932    0.5456    0.5424 C   0  0  0  0  0  0  0  0  0  0  0  0
    9.6927    1.3648    0.3178 H   0  0  0  0  0  0  0  0  0  0  0  0
    7.8152    0.4277   -0.2070 C   0  0  0  0  0  0  0  0  0  0  0  0
    7.5718    1.1424   -1.0027 H   0  0  0  0  0  0  0  0  0  0  0  0
   -6.9748   -1.4260    0.0634 C   0  0  0  0  0  0  0  0  0  0  0  0
   -6.4232   -2.7121    0.2362 C   0  0  0  0  0  0  0  0  0  0  0  0
   -5.3987   -2.8113    0.6155 H   0  0  0  0  0  0  0  0  0  0  0  0
   -7.1867   -3.8372   -0.1008 C   0  0  0  0  0  0  0  0  0  0  0  0
   -6.7508   -4.8392    0.0294 H   0  0  0  0  0  0  0  0  0  0  0  0
   -8.4966   -3.6982   -0.5880 C   0  0  0  0  0  0  0  0  0  0  0  0
   -9.0925   -4.5883   -0.8383 H   0  0  0  0  0  0  0  0  0  0  0  0
   -9.0383   -2.4148   -0.7605 C   0  0  0  0  0  0  0  0  0  0  0  0
  -10.0577   -2.2929   -1.1571 H   0  0  0  0  0  0  0  0  0  0  0  0
   -8.2797   -1.2772   -0.4522 C   0  0  0  0  0  0  0  0  0  0  0  0
   -8.6820   -0.2697   -0.6317 H   0  0  0  0  0  0  0  0  0  0  0  0
  2 33  2  0  0  0  0
  5 34  1  0  0  0  0
  6  7  1  0  0  0  0
  7 44  1  0  0  0  0
  8 40  1  0  0  0  0
  9  8  1  0  0  0  0
 10  3  1  0  0  0  0
 11 13  2  0  0  0  0
 11 10  1  0  0  0  0
 12 11  1  0  0  0  0
 13 15  1  0  0  0  0
 14 13  1  0  0  0  0
 15 16  1  0  0  0  0
 15 17  2  0  0  0  0
 17  3  1  0  0  0  0
 17 20  1  0  0  0  0
 18 10  2  0  0  0  0
 18  4  1  0  0  0  0
 19 18  1  0  0  0  0
 20  5  2  0  0  0  0
 21 20  1  0  0  0  0
 22  1  2  0  0  0  0
 22  7  1  0  0  0  0
 23  4  1  1  0  0  0
 23 22  1  0  0  0  0
 24 25  1  6  0  0  0
 24 23  1  0  0  0  0
 24  6  1  0  0  0  0
 25 26  1  0  0  0  0
 27 25  1  0  0  0  0
 28 25  1  0  0  0  0
 29 32  1  0  0  0  0
 29 30  1  0  0  0  0
 29  6  1  0  0  0  0
 31 29  1  0  0  0  0
 33 34  1  0  0  0  0
 33  9  1  0  0  0  0
 34 35  2  0  0  0  0
 35  8  1  0  0  0  0
 35 36  1  0  0  0  0
 36 39  1  0  0  0  0
 37 36  1  0  0  0  0
 38 36  1  0  0  0  0
 40 42  1  0  0  0  0
 40 43  1  0  0  0  0
 41 40  1  0  0  0  0
 44 45  1  0  0  0  0
 45 46  1  0  0  0  0
 45 47  2  0  0  0  0
 47 48  1  0  0  0  0
 49 47  1  0  0  0  0
 49 50  1  0  0  0  0
 51 49  2  0  0  0  0
 52 51  1  0  0  0  0
 53 44  2  0  0  0  0
 53 51  1  0  0  0  0
 54 53  1  0  0  0  0
 55 56  1  0  0  0  0
 55  9  1  0  0  0  0
 56 57  1  0  0  0  0
 58 59  1  0  0  0  0
 58 56  2  0  0  0  0
 60 58  1  0  0  0  0
 61 60  1  0  0  0  0
 62 60  2  0  0  0  0
 62 64  1  0  0  0  0
 63 62  1  0  0  0  0
 64 55  2  0  0  0  0
 65 64  1  0  0  0  0
M  END
