3,4
 OpenBabel05122313053D

 32 33  0  0  1  0  0  0  0  0999 V2000
   -2.2634    2.9338    0.2193 O   0  0  0  0  0  0  0  0  0  0  0  0
   -5.7473   -0.0655    0.1947 O   0  0  0  0  0  0  0  0  0  0  0  0
    2.2128    1.1689   -0.0557 N   0  0  0  0  0  2  0  0  0  0  0  0
   -0.4242    0.8563   -0.5045 N   0  0  0  0  0  2  0  0  0  0  0  0
   -4.0115    1.4303    0.2035 N   0  0  0  0  0  0  0  0  0  0  0  0
   -3.7143   -0.7726   -0.6362 N   0  0  0  0  0  0  0  0  0  0  0  0
   -1.6827   -1.4554   -1.5726 N   0  0  0  0  0  0  0  0  0  0  0  0
   -2.0163   -2.4175   -1.6064 H   0  0  0  0  0  0  0  0  0  0  0  0
   -0.6616   -1.3294   -1.7490 H   0  0  0  0  0  0  0  0  0  0  0  0
    0.1169    2.0064   -0.8456 C   0  0  0  0  0  0  0  0  0  0  0  0
   -0.4916    2.8269   -1.2527 H   0  0  0  0  0  0  0  0  0  0  0  0
   -4.9108    2.4341    0.7706 C   0  0  0  0  0  0  0  0  0  0  0  0
   -5.3144    2.0796    1.7384 H   0  0  0  0  0  0  0  0  0  0  0  0
   -5.7638    2.6134    0.0880 H   0  0  0  0  0  0  0  0  0  0  0  0
   -4.3207    3.3555    0.9095 H   0  0  0  0  0  0  0  0  0  0  0  0
   -4.2992   -2.0646   -0.9769 C   0  0  0  0  0  0  0  0  0  0  0  0
   -3.8017   -2.8785   -0.4091 H   0  0  0  0  0  0  0  0  0  0  0  0
   -4.2170   -2.2586   -2.0661 H   0  0  0  0  0  0  0  0  0  0  0  0
   -5.3635   -2.0211   -0.6887 H   0  0  0  0  0  0  0  0  0  0  0  0
    1.5395    2.1893   -0.6735 C   0  0  0  0  0  0  0  0  0  0  0  0
    3.5492    1.2668    0.0975 C   0  0  0  0  0  0  0  0  0  0  0  0
    4.0452    0.4165    0.5871 H   0  0  0  0  0  0  0  0  0  0  0  0
    4.2756    2.3817   -0.3341 C   0  0  0  0  0  0  0  0  0  0  0  0
    5.3634    2.4099   -0.1816 H   0  0  0  0  0  0  0  0  0  0  0  0
    3.5934    3.4441   -0.9514 C   0  0  0  0  0  0  0  0  0  0  0  0
    4.1372    4.3359   -1.2958 H   0  0  0  0  0  0  0  0  0  0  0  0
    2.2110    3.3458   -1.1218 C   0  0  0  0  0  0  0  0  0  0  0  0
    1.6325    4.1476   -1.6021 H   0  0  0  0  0  0  0  0  0  0  0  0
   -1.8131    0.7072   -0.5121 C   0  0  2  0  0  3  0  0  0  0  0  0
   -2.6576    1.7915   -0.0306 C   0  0  0  0  0  0  0  0  0  0  0  0
   -4.5738    0.1868   -0.0468 C   0  0  0  0  0  0  0  0  0  0  0  0
   -2.3806   -0.5252   -0.8949 C   0  0  1  0  0  3  0  0  0  0  0  0
  3 21  1  0  0  0  0
  5 12  1  0  0  0  0
  6 31  1  0  0  0  0
  8  7  1  0  0  0  0
  9  7  1  0  0  0  0
 10 20  2  0  0  0  0
 10  4  1  0  0  0  0
 11 10  1  0  0  0  0
 12 15  1  0  0  0  0
 12 13  1  0  0  0  0
 14 12  1  0  0  0  0
 16 19  1  0  0  0  0
 16  6  1  0  0  0  0
 16 17  1  0  0  0  0
 18 16  1  0  0  0  0
 20  3  1  0  0  0  0
 21 22  1  0  0  0  0
 23 24  1  0  0  0  0
 23 21  2  0  0  0  0
 25 23  1  0  0  0  0
 26 25  1  0  0  0  0
 27 25  2  0  0  0  0
 27 20  1  0  0  0  0
 28 27  1  0  0  0  0
 29  4  1  1  0  0  0
 29 30  1  0  0  0  0
 30  5  1  0  0  0  0
 30  1  2  0  0  0  0
 31  2  2  0  0  0  0
 31  5  1  0  0  0  0
 32  7  1  6  0  0  0
 32  6  1  0  0  0  0
 32 29  1  0  0  0  0
M  END
