18,31
 OpenBabel05122313053D

 48 49  0  0  1  0  0  0  0  0999 V2000
   -2.7972   -0.2785   -0.4232 C   0  0  0  0  0  0  0  0  0  0  0  0
   -3.5000   -1.1067    0.4649 C   0  0  0  0  0  0  0  0  0  0  0  0
   -3.0741   -2.0774    0.7519 H   0  0  0  0  0  0  0  0  0  0  0  0
   -4.7273   -0.6797    1.0002 C   0  0  0  0  0  0  0  0  0  0  0  0
   -5.3978   -1.5605    2.0279 C   0  0  0  0  0  0  0  0  0  0  0  0
   -4.6068   -1.6865    3.1309 F   0  0  0  0  0  0  0  0  0  0  0  0
   -5.6058   -2.8101    1.5539 F   0  0  0  0  0  0  0  0  0  0  0  0
   -6.5855   -1.0671    2.4353 F   0  0  0  0  0  0  0  0  0  0  0  0
   -5.2794    0.5510    0.6258 C   0  0  0  0  0  0  0  0  0  0  0  0
   -6.2392    0.8795    1.0450 H   0  0  0  0  0  0  0  0  0  0  0  0
   -4.5855    1.3597   -0.2937 C   0  0  0  0  0  0  0  0  0  0  0  0
   -5.1226    2.7290   -0.6422 C   0  0  0  0  0  0  0  0  0  0  0  0
   -6.4643    2.7994   -0.4959 F   0  0  0  0  0  0  0  0  0  0  0  0
   -4.8192    3.0859   -1.9062 F   0  0  0  0  0  0  0  0  0  0  0  0
   -4.5857    3.6778    0.1810 F   0  0  0  0  0  0  0  0  0  0  0  0
   -3.3525    0.9555   -0.8185 C   0  0  0  0  0  0  0  0  0  0  0  0
   -2.7759    1.5929   -1.5055 H   0  0  0  0  0  0  0  0  0  0  0  0
   -1.4799   -0.6148   -0.8473 N   0  0  0  0  0  2  0  0  0  0  0  0
   -1.2568   -1.4859   -1.8264 C   0  0  0  0  0  0  0  0  0  0  0  0
   -2.4590   -2.1966   -2.4802 C   0  0  0  0  0  0  0  0  0  0  0  0
   -3.4072   -1.3207   -2.8748 F   0  0  0  0  0  0  0  0  0  0  0  0
   -3.0354   -3.0661   -1.6095 F   0  0  0  0  0  0  0  0  0  0  0  0
   -2.1007   -2.9094   -3.5661 F   0  0  0  0  0  0  0  0  0  0  0  0
   -0.0009   -1.8426   -2.3419 C   0  0  0  0  0  0  0  0  0  0  0  0
   -0.0004   -2.5455   -3.1767 H   0  0  0  0  0  0  0  0  0  0  0  0
    1.2517   -1.3746   -1.9165 C   0  0  2  0  0  3  0  0  0  0  0  0
    2.4516   -1.9468   -2.6990 C   0  0  0  0  0  0  0  0  0  0  0  0
    3.3405   -0.9881   -3.0305 F   0  0  0  0  0  0  0  0  0  0  0  0
    2.0682   -2.5454   -3.8438 F   0  0  0  0  0  0  0  0  0  0  0  0
    3.1077   -2.8858   -1.9657 F   0  0  0  0  0  0  0  0  0  0  0  0
    1.4697   -0.5134   -0.9252 N   0  0  0  0  0  2  0  0  0  0  0  0
    2.7821   -0.1207   -0.5399 C   0  0  0  0  0  0  0  0  0  0  0  0
    3.6269   -0.9997    0.1588 C   0  0  0  0  0  0  0  0  0  0  0  0
    3.3193   -2.0417    0.3131 H   0  0  0  0  0  0  0  0  0  0  0  0
    4.8353   -0.5297    0.6990 C   0  0  0  0  0  0  0  0  0  0  0  0
    5.6509   -1.4764    1.5473 C   0  0  0  0  0  0  0  0  0  0  0  0
    5.8687   -2.6524    0.9169 F   0  0  0  0  0  0  0  0  0  0  0  0
    6.8483   -0.9594    1.8921 F   0  0  0  0  0  0  0  0  0  0  0  0
    4.9872   -1.7690    2.7039 F   0  0  0  0  0  0  0  0  0  0  0  0
    5.2242    0.8059    0.5292 C   0  0  0  0  0  0  0  0  0  0  0  0
    6.1621    1.1730    0.9650 H   0  0  0  0  0  0  0  0  0  0  0  0
    4.3893    1.6692   -0.2020 C   0  0  0  0  0  0  0  0  0  0  0  0
    4.7293    3.1358   -0.3381 C   0  0  0  0  0  0  0  0  0  0  0  0
    6.0028    3.4035    0.0229 F   0  0  0  0  0  0  0  0  0  0  0  0
    3.9188    3.8871    0.4652 F   0  0  0  0  0  0  0  0  0  0  0  0
    4.5496    3.5793   -1.5992 F   0  0  0  0  0  0  0  0  0  0  0  0
    3.1826    1.2138   -0.7468 C   0  0  0  0  0  0  0  0  0  0  0  0
    2.5025    1.8811   -1.2991 H   0  0  0  0  0  0  0  0  0  0  0  0
  1  2  1  0  0  0  0
  2  3  1  0  0  0  0
  2  4  2  0  0  0  0
  4  5  1  0  0  0  0
  5  8  1  0  0  0  0
  5  6  1  0  0  0  0
  7  5  1  0  0  0  0
  9  4  1  0  0  0  0
  9 10  1  0  0  0  0
 11  9  2  0  0  0  0
 12 13  1  0  0  0  0
 12 11  1  0  0  0  0
 12 15  1  0  0  0  0
 14 12  1  0  0  0  0
 16  1  2  0  0  0  0
 16 11  1  0  0  0  0
 17 16  1  0  0  0  0
 18  1  1  0  0  0  0
 19 18  1  0  0  0  0
 20 19  1  0  0  0  0
 20 22  1  0  0  0  0
 21 20  1  0  0  0  0
 23 20  1  0  0  0  0
 24 19  2  0  0  0  0
 25 24  1  0  0  0  0
 26 24  1  1  0  0  0
 26 31  1  0  0  0  0
 27 30  1  0  0  0  0
 27 26  1  0  0  0  0
 28 27  1  0  0  0  0
 29 27  1  0  0  0  0
 31 32  1  0  0  0  0
 32 33  1  0  0  0  0
 33 34  1  0  0  0  0
 33 35  2  0  0  0  0
 35 36  1  0  0  0  0
 36 38  1  0  0  0  0
 36 39  1  0  0  0  0
 37 36  1  0  0  0  0
 40 35  1  0  0  0  0
 40 41  1  0  0  0  0
 42 40  2  0  0  0  0
 43 42  1  0  0  0  0
 43 44  1  0  0  0  0
 43 45  1  0  0  0  0
 46 43  1  0  0  0  0
 47 32  2  0  0  0  0
 47 42  1  0  0  0  0
 48 47  1  0  0  0  0
M  END
