1,2
 OpenBabel05122313053D

 26 26  0  0  0  0  0  0  0  0999 V2000
    1.7140    0.3655    0.0008 N   0  0  0  0  0  2  0  0  0  0  0  0
   -0.8685    1.3174    0.0004 N   0  0  0  0  0  2  0  0  0  0  0  0
    2.9663   -0.1093    0.0009 C   0  0  0  0  0  3  0  0  0  0  0  0
    3.0693   -1.2048    0.0011 H   0  0  0  0  0  0  0  0  0  0  0  0
    4.0858    0.7368    0.0008 C   0  0  0  0  0  0  0  0  0  0  0  0
    5.0960    0.3037    0.0008 H   0  0  0  0  0  0  0  0  0  0  0  0
    3.8862    2.1241    0.0005 C   0  0  0  0  0  0  0  0  0  0  0  0
    4.7422    2.8150    0.0004 H   0  0  0  0  0  0  0  0  0  0  0  0
    2.5751    2.6164    0.0005 C   0  0  0  0  0  0  0  0  0  0  0  0
    2.3699    3.6969    0.0003 H   0  0  0  0  0  0  0  0  0  0  0  0
    1.5041    1.7046    0.0006 C   0  0  0  0  0  0  0  0  0  0  0  0
    0.1092    2.1565    0.0006 C   0  0  0  0  0  3  0  0  0  0  0  0
   -0.0514    3.2505    0.0006 H   0  0  0  0  0  0  0  0  0  0  0  0
   -2.2760    1.7845    0.0001 C   0  0  0  0  0  0  0  0  0  0  0  0
   -2.4210    3.3152    0.0008 C   0  0  0  0  0  0  0  0  0  0  0  0
   -1.9745    3.7788    0.9041 H   0  0  0  0  0  0  0  0  0  0  0  0
   -3.4983    3.5693    0.0007 H   0  0  0  0  0  0  0  0  0  0  0  0
   -1.9740    3.7797   -0.9017 H   0  0  0  0  0  0  0  0  0  0  0  0
   -2.9315    1.2186    1.2760 C   0  0  0  0  0  0  0  0  0  0  0  0
   -2.4603    1.6542    2.1786 H   0  0  0  0  0  0  0  0  0  0  0  0
   -2.8124    0.1237    1.3459 H   0  0  0  0  0  0  0  0  0  0  0  0
   -4.0108    1.4690    1.2784 H   0  0  0  0  0  0  0  0  0  0  0  0
   -2.9305    1.2198   -1.2768 C   0  0  0  0  0  0  0  0  0  0  0  0
   -4.0099    1.4698   -1.2796 H   0  0  0  0  0  0  0  0  0  0  0  0
   -2.8110    0.1250   -1.3478 H   0  0  0  0  0  0  0  0  0  0  0  0
   -2.4589    1.6567   -2.1786 H   0  0  0  0  0  0  0  0  0  0  0  0
  1  3  1  0  0  0  0
  2 12  1  0  0  0  0
  3  4  1  0  0  0  0
  5  6  1  0  0  0  0
  5  3  1  0  0  0  0
  7  5  2  0  0  0  0
  8  7  1  0  0  0  0
  9  7  1  0  0  0  0
  9 11  2  0  0  0  0
 10  9  1  0  0  0  0
 11  1  1  0  0  0  0
 12 13  1  0  0  0  0
 12 11  1  0  0  0  0
 14  2  1  0  0  0  0
 14 15  1  0  0  0  0
 14 19  1  0  0  0  0
 15 16  1  0  0  0  0
 17 15  1  0  0  0  0
 18 15  1  0  0  0  0
 19 22  1  0  0  0  0
 19 21  1  0  0  0  0
 19 20  1  0  0  0  0
 23 14  1  0  0  0  0
 24 23  1  0  0  0  0
 25 23  1  0  0  0  0
 26 23  1  0  0  0  0
M  END
