1,2
 OpenBabel05122313053D

 40 43  0  0  1  0  0  0  0  0999 V2000
   -0.6293   -0.0499   -0.3789 N   0  0  0  0  0  2  0  0  0  0  0  0
    0.9242   -2.1637   -0.5499 N   0  0  0  0  0  2  0  0  0  0  0  0
   -1.3940    1.0857   -0.3791 C   0  0  2  0  0  3  0  0  0  0  0  0
   -2.7894    1.0033   -0.2056 C   0  0  0  0  0  0  0  0  0  0  0  0
   -3.3642    1.9374   -0.2484 H   0  0  0  0  0  0  0  0  0  0  0  0
   -3.4607   -0.2270   -0.0748 C   0  0  0  0  0  0  0  0  0  0  0  0
   -2.6571   -1.3784   -0.2000 C   0  0  0  0  0  0  0  0  0  0  0  0
   -3.1104   -2.3756   -0.1364 H   0  0  0  0  0  0  0  0  0  0  0  0
   -1.2747   -1.2625   -0.3650 C   0  0  0  0  0  0  0  0  0  0  0  0
   -0.4084   -2.4329   -0.5770 C   0  0  1  0  0  3  0  0  0  0  0  0
   -0.8700   -3.7271   -0.8792 C   0  0  0  0  0  0  0  0  0  0  0  0
   -1.9472   -3.9357   -0.9083 H   0  0  0  0  0  0  0  0  0  0  0  0
    0.0531   -4.7335   -1.1798 C   0  0  0  0  0  0  0  0  0  0  0  0
   -0.2933   -5.7496   -1.4182 H   0  0  0  0  0  0  0  0  0  0  0  0
    1.4203   -4.4178   -1.2069 C   0  0  0  0  0  0  0  0  0  0  0  0
    2.1783   -5.1664   -1.4757 H   0  0  0  0  0  0  0  0  0  0  0  0
    1.8163   -3.1145   -0.8974 C   0  0  0  0  0  0  0  0  0  0  0  0
    2.8669   -2.7984   -0.9346 H   0  0  0  0  0  0  0  0  0  0  0  0
   -0.8109    2.4220   -0.6513 C   0  0  0  0  0  0  0  0  0  0  0  0
    0.0817    2.6117   -1.7286 C   0  0  0  0  0  0  0  0  0  0  0  0
    0.4431    1.7459   -2.3024 H   0  0  0  0  0  0  0  0  0  0  0  0
    0.5040    3.9038   -2.0713 C   0  0  0  0  0  0  0  0  0  0  0  0
    1.1883    4.0366   -2.9228 H   0  0  0  0  0  0  0  0  0  0  0  0
    0.0561    5.0185   -1.3455 C   0  0  0  0  0  0  0  0  0  0  0  0
    0.3906    6.0300   -1.6205 H   0  0  0  0  0  0  0  0  0  0  0  0
   -0.8275    4.8384   -0.2680 C   0  0  0  0  0  0  0  0  0  0  0  0
   -1.1814    5.7056    0.3090 H   0  0  0  0  0  0  0  0  0  0  0  0
   -1.2677    3.5517    0.0691 C   0  0  0  0  0  0  0  0  0  0  0  0
   -1.9673    3.4208    0.9092 H   0  0  0  0  0  0  0  0  0  0  0  0
   -4.9202   -0.3061    0.1370 C   0  0  0  0  0  0  0  0  0  0  0  0
   -5.6675   -1.4036   -0.3507 C   0  0  0  0  0  0  0  0  0  0  0  0
   -5.1683   -2.1966   -0.9275 H   0  0  0  0  0  0  0  0  0  0  0  0
   -7.0515   -1.4706   -0.1510 C   0  0  0  0  0  0  0  0  0  0  0  0
   -7.6203   -2.3231   -0.5505 H   0  0  0  0  0  0  0  0  0  0  0  0
   -7.7135   -0.4471    0.5466 C   0  0  0  0  0  0  0  0  0  0  0  0
   -8.8008   -0.5016    0.7050 H   0  0  0  0  0  0  0  0  0  0  0  0
   -6.9838    0.6470    1.0394 C   0  0  0  0  0  0  0  0  0  0  0  0
   -7.4962    1.4473    1.5935 H   0  0  0  0  0  0  0  0  0  0  0  0
   -5.6012    0.7200    0.8332 C   0  0  0  0  0  0  0  0  0  0  0  0
   -5.0370    1.5701    1.2450 H   0  0  0  0  0  0  0  0  0  0  0  0
  1  9  1  0  0  0  0
  3 19  1  6  0  0  0
  3  1  1  0  0  0  0
  3  4  1  0  0  0  0
  4  6  2  0  0  0  0
  5  4  1  0  0  0  0
  6 30  1  0  0  0  0
  7  8  1  0  0  0  0
  7  6  1  0  0  0  0
  9  7  2  0  0  0  0
 10  2  1  0  0  0  0
 10  9  1  6  0  0  0
 11 10  1  0  0  0  0
 12 11  1  0  0  0  0
 13 11  2  0  0  0  0
 14 13  1  0  0  0  0
 15 13  1  0  0  0  0
 15 17  2  0  0  0  0
 16 15  1  0  0  0  0
 17  2  1  0  0  0  0
 18 17  1  0  0  0  0
 19 28  1  0  0  0  0
 20 19  2  0  0  0  0
 21 20  1  0  0  0  0
 22 20  1  0  0  0  0
 22 24  2  0  0  0  0
 23 22  1  0  0  0  0
 24 26  1  0  0  0  0
 25 24  1  0  0  0  0
 26 28  2  0  0  0  0
 26 27  1  0  0  0  0
 28 29  1  0  0  0  0
 30 39  1  0  0  0  0
 31 33  1  0  0  0  0
 31 30  2  0  0  0  0
 32 31  1  0  0  0  0
 33 35  2  0  0  0  0
 34 33  1  0  0  0  0
 35 36  1  0  0  0  0
 35 37  1  0  0  0  0
 37 38  1  0  0  0  0
 39 37  2  0  0  0  0
 39 40  1  0  0  0  0
M  END
