1,2
 OpenBabel05122313053D

 40 43  0  0  0  0  0  0  0  0999 V2000
    0.5164   -0.0434   -0.3189 N   0  0  0  0  0  2  0  0  0  0  0  0
   -1.0247   -2.1939   -0.4462 N   0  0  0  0  0  2  0  0  0  0  0  0
    1.2722    1.0939   -0.3553 C   0  0  0  0  0  0  0  0  0  0  0  0
    2.6749    1.0241   -0.2216 C   0  0  0  0  0  0  0  0  0  0  0  0
    3.2462    1.9574   -0.3047 H   0  0  0  0  0  0  0  0  0  0  0  0
    3.3538   -0.1981   -0.0714 C   0  0  0  0  0  0  0  0  0  0  0  0
    2.5528   -1.3561   -0.1350 C   0  0  0  0  0  0  0  0  0  0  0  0
    3.0148   -2.3473   -0.0480 H   0  0  0  0  0  0  0  0  0  0  0  0
    1.1660   -1.2500   -0.2776 C   0  0  0  0  0  0  0  0  0  0  0  0
    0.3116   -2.4389   -0.4493 C   0  0  0  0  0  0  0  0  0  0  0  0
    0.7931   -3.7387   -0.6956 C   0  0  0  0  0  0  0  0  0  0  0  0
    1.8729   -3.9347   -0.7048 H   0  0  0  0  0  0  0  0  0  0  0  0
   -0.1115   -4.7700   -0.9660 C   0  0  0  0  0  0  0  0  0  0  0  0
    0.2532   -5.7887   -1.1621 H   0  0  0  0  0  0  0  0  0  0  0  0
   -1.4831   -4.4782   -1.0172 C   0  0  0  0  0  0  0  0  0  0  0  0
   -2.2272   -5.2477   -1.2649 H   0  0  0  0  0  0  0  0  0  0  0  0
   -1.8999   -3.1698   -0.7604 C   0  0  0  0  0  0  0  0  0  0  0  0
   -2.9553   -2.8712   -0.8220 H   0  0  0  0  0  0  0  0  0  0  0  0
    0.6637    2.4224   -0.6077 C   0  0  0  0  0  0  0  0  0  0  0  0
   -0.3715    2.5814   -1.5540 C   0  0  0  0  0  0  0  0  0  0  0  0
   -0.7784    1.7052   -2.0809 H   0  0  0  0  0  0  0  0  0  0  0  0
   -0.8737    3.8594   -1.8390 C   0  0  0  0  0  0  0  0  0  0  0  0
   -1.6696    3.9682   -2.5911 H   0  0  0  0  0  0  0  0  0  0  0  0
   -0.3568    4.9916   -1.1885 C   0  0  0  0  0  0  0  0  0  0  0  0
   -0.7532    5.9921   -1.4178 H   0  0  0  0  0  0  0  0  0  0  0  0
    0.6804    4.8430   -0.2519 C   0  0  0  0  0  0  0  0  0  0  0  0
    1.0912    5.7237    0.2634 H   0  0  0  0  0  0  0  0  0  0  0  0
    1.1916    3.5706    0.0301 C   0  0  0  0  0  0  0  0  0  0  0  0
    1.9899    3.4645    0.7804 H   0  0  0  0  0  0  0  0  0  0  0  0
    4.8195   -0.2658    0.1021 C   0  0  0  0  0  0  0  0  0  0  0  0
    5.5584   -1.3708   -0.3811 C   0  0  0  0  0  0  0  0  0  0  0  0
    5.0471   -2.1784   -0.9262 H   0  0  0  0  0  0  0  0  0  0  0  0
    6.9477   -1.4273   -0.2177 C   0  0  0  0  0  0  0  0  0  0  0  0
    7.5096   -2.2862   -0.6136 H   0  0  0  0  0  0  0  0  0  0  0  0
    7.6233   -0.3857    0.4385 C   0  0  0  0  0  0  0  0  0  0  0  0
    8.7147   -0.4320    0.5686 H   0  0  0  0  0  0  0  0  0  0  0  0
    6.9020    0.7161    0.9264 C   0  0  0  0  0  0  0  0  0  0  0  0
    7.4254    1.5307    1.4485 H   0  0  0  0  0  0  0  0  0  0  0  0
    5.5139    0.7785    0.7563 C   0  0  0  0  0  0  0  0  0  0  0  0
    4.9567    1.6350    1.1643 H   0  0  0  0  0  0  0  0  0  0  0  0
  1  9  1  0  0  0  0
  3  1  1  0  0  0  0
  3  4  2  0  0  0  0
  4  6  1  0  0  0  0
  5  4  1  0  0  0  0
  6 30  1  0  0  0  0
  7  6  2  0  0  0  0
  7  8  1  0  0  0  0
  9  7  1  0  0  0  0
 10  2  1  0  0  0  0
 10  9  2  0  0  0  0
 11 10  1  0  0  0  0
 12 11  1  0  0  0  0
 13 11  2  0  0  0  0
 14 13  1  0  0  0  0
 15 13  1  0  0  0  0
 15 17  2  0  0  0  0
 16 15  1  0  0  0  0
 17  2  1  0  0  0  0
 18 17  1  0  0  0  0
 19  3  1  0  0  0  0
 19 28  1  0  0  0  0
 20 19  2  0  0  0  0
 21 20  1  0  0  0  0
 22 20  1  0  0  0  0
 22 24  2  0  0  0  0
 23 22  1  0  0  0  0
 24 26  1  0  0  0  0
 25 24  1  0  0  0  0
 26 28  2  0  0  0  0
 26 27  1  0  0  0  0
 28 29  1  0  0  0  0
 30 39  1  0  0  0  0
 31 33  1  0  0  0  0
 31 30  2  0  0  0  0
 32 31  1  0  0  0  0
 33 35  2  0  0  0  0
 34 33  1  0  0  0  0
 35 36  1  0  0  0  0
 35 37  1  0  0  0  0
 37 38  1  0  0  0  0
 39 37  2  0  0  0  0
 39 40  1  0  0  0  0
M  END
