2,3
 OpenBabel05122313053D

 26 27  0  0  0  0  0  0  0  0999 V2000
    6.0869    0.1100    0.4393 O   0  0  0  0  0  0  0  0  0  0  0  0
   -2.0162    1.8204   -0.5063 N   0  0  0  0  0  0  0  0  0  0  0  0
    0.6660    1.3098   -0.4139 N   0  0  0  0  0  2  0  0  0  0  0  0
   -3.2538    2.3787   -0.5275 C   0  0  0  0  0  0  0  0  0  0  0  0
   -4.1387    1.7736   -0.7620 H   0  0  0  0  0  0  0  0  0  0  0  0
   -3.1956    3.7605   -0.2264 C   0  0  0  0  0  0  0  0  0  0  0  0
   -4.0480    4.4483   -0.1773 H   0  0  0  0  0  0  0  0  0  0  0  0
   -1.8384    4.0658   -0.0149 C   0  0  0  0  0  0  0  0  0  0  0  0
   -1.3993    5.0402    0.2320 H   0  0  0  0  0  0  0  0  0  0  0  0
   -1.1314    2.8491   -0.1956 C   0  0  0  0  0  3  0  0  0  0  0  0
    0.2468    2.5385   -0.1509 C   0  0  0  0  0  3  0  0  0  0  0  0
    0.9759    3.3365    0.0913 H   0  0  0  0  0  0  0  0  0  0  0  0
    2.0394    1.0199   -0.2279 C   0  0  0  0  0  0  0  0  0  0  0  0
    2.7409    0.2380   -1.1658 C   0  0  0  0  0  0  0  0  0  0  0  0
    2.2159   -0.1141   -2.0616 H   0  0  0  0  0  0  0  0  0  0  0  0
    4.0931   -0.0832   -0.9820 C   0  0  0  0  0  0  0  0  0  0  0  0
    4.6018   -0.6898   -1.7430 H   0  0  0  0  0  0  0  0  0  0  0  0
    4.7813    0.3756    0.1604 C   0  0  0  0  0  0  0  0  0  0  0  0
    4.0920    1.1704    1.1019 C   0  0  0  0  0  0  0  0  0  0  0  0
    4.6378    1.5190    1.9907 H   0  0  0  0  0  0  0  0  0  0  0  0
    2.7469    1.4875    0.9088 C   0  0  0  0  0  0  0  0  0  0  0  0
    2.2198    2.0867    1.6659 H   0  0  0  0  0  0  0  0  0  0  0  0
    6.8153   -0.6944   -0.4679 C   0  0  0  0  0  0  0  0  0  0  0  0
    6.8809   -0.2287   -1.4772 H   0  0  0  0  0  0  0  0  0  0  0  0
    6.3692   -1.7091   -0.5743 H   0  0  0  0  0  0  0  0  0  0  0  0
    7.8352   -0.7924   -0.0518 H   0  0  0  0  0  0  0  0  0  0  0  0
  2 10  1  0  0  0  0
  3 13  1  0  0  0  0
  3 11  1  0  0  0  0
  4  2  2  0  0  0  0
  4  6  1  0  0  0  0
  5  4  1  0  0  0  0
  6  7  1  0  0  0  0
  6  8  2  0  0  0  0
  8  9  1  0  0  0  0
 10 11  1  0  0  0  0
 10  8  1  0  0  0  0
 11 12  1  0  0  0  0
 13 21  1  0  0  0  0
 14 16  1  0  0  0  0
 14 13  2  0  0  0  0
 15 14  1  0  0  0  0
 16 18  2  0  0  0  0
 17 16  1  0  0  0  0
 18  1  1  0  0  0  0
 18 19  1  0  0  0  0
 19 20  1  0  0  0  0
 21 19  2  0  0  0  0
 21 22  1  0  0  0  0
 23 26  1  0  0  0  0
 23  1  1  0  0  0  0
 24 23  1  0  0  0  0
 25 23  1  0  0  0  0
M  END
