1,3
 OpenBabel05122313053D

 37 41  0  0  1  0  0  0  0  0999 V2000
   -2.2722    0.3099   -0.1084 N   0  0  0  0  0  2  0  0  0  0  0  0
   -0.0006    1.8307   -0.0002 N   0  0  0  0  0  0  0  0  0  0  0  0
    2.2715    0.3103    0.1080 N   0  0  0  0  0  2  0  0  0  0  0  0
   -3.5660   -0.1593   -0.1891 C   0  0  0  0  0  0  0  0  0  0  0  0
   -4.0604   -1.4760   -0.0793 C   0  0  0  0  0  0  0  0  0  0  0  0
   -3.3580   -2.2945    0.1421 H   0  0  0  0  0  0  0  0  0  0  0  0
   -5.4413   -1.6465   -0.2032 C   0  0  0  0  0  0  0  0  0  0  0  0
   -5.8692   -2.6567   -0.1203 H   0  0  0  0  0  0  0  0  0  0  0  0
   -6.3156   -0.5496   -0.4247 C   0  0  0  0  0  0  0  0  0  0  0  0
   -7.3961   -0.7369   -0.5171 H   0  0  0  0  0  0  0  0  0  0  0  0
   -5.8455    0.7661   -0.5166 C   0  0  0  0  0  0  0  0  0  0  0  0
   -6.5312    1.6113   -0.6746 H   0  0  0  0  0  0  0  0  0  0  0  0
   -4.4581    0.9415   -0.3895 C   0  0  0  0  0  0  0  0  0  0  0  0
   -3.6423    2.0614   -0.4025 N   0  0  0  0  0  0  0  0  0  0  0  0
   -2.3408    1.6301   -0.2267 C   0  0  1  0  0  3  0  0  0  0  0  0
   -1.1596    2.4952   -0.1293 C   0  0  0  0  0  0  0  0  0  0  0  0
    1.1582    2.4953    0.1296 C   0  0  0  0  0  0  0  0  0  0  0  0
    2.3395    1.6305    0.2268 C   0  0  2  0  0  3  0  0  0  0  0  0
    3.6409    2.0621    0.4032 N   0  0  0  0  0  0  0  0  0  0  0  0
    4.4570    0.9426    0.3904 C   0  0  0  0  0  0  0  0  0  0  0  0
    5.8444    0.7675    0.5180 C   0  0  0  0  0  0  0  0  0  0  0  0
    6.5298    1.6128    0.6765 H   0  0  0  0  0  0  0  0  0  0  0  0
    6.3149   -0.5481    0.4260 C   0  0  0  0  0  0  0  0  0  0  0  0
    7.3954   -0.7351    0.5190 H   0  0  0  0  0  0  0  0  0  0  0  0
    5.4410   -1.6452    0.2040 C   0  0  0  0  0  0  0  0  0  0  0  0
    5.8693   -2.6553    0.1213 H   0  0  0  0  0  0  0  0  0  0  0  0
    4.0602   -1.4751    0.0795 C   0  0  0  0  0  0  0  0  0  0  0  0
    3.3579   -2.2937   -0.1422 H   0  0  0  0  0  0  0  0  0  0  0  0
    3.5653   -0.1585    0.1892 C   0  0  0  0  0  0  0  0  0  0  0  0
   -1.2050    3.9080   -0.1385 C   0  0  0  0  0  0  0  0  0  0  0  0
   -2.1542    4.4533   -0.2409 H   0  0  0  0  0  0  0  0  0  0  0  0
   -0.0009    4.6101    0.0008 C   0  0  0  0  0  0  0  0  0  0  0  0
   -0.0010    5.7100    0.0012 H   0  0  0  0  0  0  0  0  0  0  0  0
    1.2033    3.9081    0.1397 C   0  0  0  0  0  0  0  0  0  0  0  0
    2.1525    4.4535    0.2425 H   0  0  0  0  0  0  0  0  0  0  0  0
   -3.9511    3.0234   -0.5325 H   0  0  0  0  0  0  0  0  0  0  0  0
    3.9492    3.0241    0.5351 H   0  0  0  0  0  0  0  0  0  0  0  0
  2 17  1  0  0  0  0
  3 29  1  0  0  0  0
  3 18  1  0  0  0  0
  4  1  1  0  0  0  0
  4  5  1  0  0  0  0
  5  6  1  0  0  0  0
  7  8  1  0  0  0  0
  7  5  2  0  0  0  0
  9  7  1  0  0  0  0
 10  9  1  0  0  0  0
 11  9  2  0  0  0  0
 11 13  1  0  0  0  0
 12 11  1  0  0  0  0
 13  4  2  0  0  0  0
 14 13  1  0  0  0  0
 14 15  1  0  0  0  0
 15 16  1  1  0  0  0
 15  1  1  0  0  0  0
 16  2  2  0  0  0  0
 17 34  2  0  0  0  0
 18 17  1  6  0  0  0
 18 19  1  0  0  0  0
 19 37  1  0  0  0  0
 20 19  1  0  0  0  0
 20 21  1  0  0  0  0
 21 22  1  0  0  0  0
 23 21  2  0  0  0  0
 23 24  1  0  0  0  0
 25 23  1  0  0  0  0
 26 25  1  0  0  0  0
 27 29  1  0  0  0  0
 27 25  2  0  0  0  0
 28 27  1  0  0  0  0
 29 20  2  0  0  0  0
 30 16  1  0  0  0  0
 30 32  2  0  0  0  0
 31 30  1  0  0  0  0
 32 33  1  0  0  0  0
 32 34  1  0  0  0  0
 34 35  1  0  0  0  0
 36 14  1  0  0  0  0
M  END
