1,2
q = 0.0, confidence = 0.998

 48 49  0  0  1  0  0  0  0  0999 V2000
    2.0299    0.9722    0.2114 N   0  0  0  0  0  2  0  0  0  0  0  0
   -0.5445    0.8778    0.5945 N   0  0  0  0  0  2  0  0  0  0  0  0
    3.3671    0.9570   -0.0568 C   0  0  1  0  0  3  0  0  0  0  0  0
    4.1633    2.0548    0.3219 C   0  0  0  0  0  0  0  0  0  0  0  0
    5.2372    2.0192    0.0923 H   0  0  0  0  0  0  0  0  0  0  0  0
    3.6050    3.1569    0.9785 C   0  0  0  0  0  0  0  0  0  0  0  0
    4.2319    4.0103    1.2751 H   0  0  0  0  0  0  0  0  0  0  0  0
    2.2358    3.1499    1.2500 C   0  0  0  0  0  0  0  0  0  0  0  0
    1.7544    3.9934    1.7612 H   0  0  0  0  0  0  0  0  0  0  0  0
    1.4613    2.0452    0.8561 C   0  0  0  0  0  0  0  0  0  0  0  0
    3.9696   -0.2254   -0.7382 C   0  0  0  0  0  0  0  0  0  0  0  0
    3.7779   -1.1361   -0.1316 H   0  0  0  0  0  0  0  0  0  0  0  0
    5.0575   -0.0851   -0.8746 H   0  0  0  0  0  0  0  0  0  0  0  0
    3.4794   -0.3806   -1.7224 H   0  0  0  0  0  0  0  0  0  0  0  0
    0.0161    1.9651    1.0655 C   0  0  1  0  0  3  0  0  0  0  0  0
   -0.7137    3.0740    1.7677 C   0  0  0  0  0  0  0  0  0  0  0  0
   -0.6632    4.0197    1.1889 H   0  0  0  0  0  0  0  0  0  0  0  0
   -0.2625    3.2720    2.7615 H   0  0  0  0  0  0  0  0  0  0  0  0
   -1.7773    2.8110    1.9086 H   0  0  0  0  0  0  0  0  0  0  0  0
   -1.9475    0.6926    0.6006 C   0  0  0  0  0  0  0  0  0  0  0  0
   -2.7609    1.3718   -0.3515 C   0  0  0  0  0  0  0  0  0  0  0  0
   -4.1337    1.0594   -0.3792 C   0  0  0  0  0  0  0  0  0  0  0  0
   -4.7797    1.5662   -1.1130 H   0  0  0  0  0  0  0  0  0  0  0  0
   -4.6923    0.1224    0.4982 C   0  0  0  0  0  0  0  0  0  0  0  0
   -5.7695   -0.0991    0.4562 H   0  0  0  0  0  0  0  0  0  0  0  0
   -3.8727   -0.5342    1.4281 C   0  0  0  0  0  0  0  0  0  0  0  0
   -4.3102   -1.2734    2.1155 H   0  0  0  0  0  0  0  0  0  0  0  0
   -2.4939   -0.2760    1.4903 C   0  0  0  0  0  0  0  0  0  0  0  0
   -2.2005    2.3863   -1.3454 C   0  0  0  0  0  0  0  0  0  0  0  0
   -1.1131    2.4886   -1.1573 H   0  0  0  0  0  0  0  0  0  0  0  0
   -2.3462    1.9063   -2.8002 C   0  0  0  0  0  0  0  0  0  0  0  0
   -1.7597    0.9836   -2.9777 H   0  0  0  0  0  0  0  0  0  0  0  0
   -1.9587    2.6754   -3.4992 H   0  0  0  0  0  0  0  0  0  0  0  0
   -3.4074    1.7142   -3.0618 H   0  0  0  0  0  0  0  0  0  0  0  0
   -2.8494    3.7700   -1.1584 C   0  0  0  0  0  0  0  0  0  0  0  0
   -3.9293    3.7463   -1.4131 H   0  0  0  0  0  0  0  0  0  0  0  0
   -2.3696    4.5188   -1.8213 H   0  0  0  0  0  0  0  0  0  0  0  0
   -2.7653    4.1297   -0.1137 H   0  0  0  0  0  0  0  0  0  0  0  0
   -1.5843   -0.9800    2.4821 C   0  0  0  0  0  0  0  0  0  0  0  0
   -0.5650   -0.9568    2.0464 H   0  0  0  0  0  0  0  0  0  0  0  0
   -1.5246   -0.2172    3.8167 C   0  0  0  0  0  0  0  0  0  0  0  0
   -2.5129   -0.2146    4.3235 H   0  0  0  0  0  0  0  0  0  0  0  0
   -1.2220    0.8390    3.6681 H   0  0  0  0  0  0  0  0  0  0  0  0
   -0.7848   -0.6855    4.4974 H   0  0  0  0  0  0  0  0  0  0  0  0
   -1.9321   -2.4569    2.6936 C   0  0  0  0  0  0  0  0  0  0  0  0
   -2.8940   -2.5989    3.2302 H   0  0  0  0  0  0  0  0  0  0  0  0
   -1.1384   -2.9442    3.2943 H   0  0  0  0  0  0  0  0  0  0  0  0
   -1.9921   -2.9925    1.7249 H   0  0  0  0  0  0  0  0  0  0  0  0
  1 10  1  0  0  0  0
  2 20  1  0  0  0  0
  3 11  1  1  0  0  0
  3  1  1  0  0  0  0
  3  4  1  0  0  0  0
  4  6  2  0  0  0  0
  5  4  1  0  0  0  0
  6  8  1  0  0  0  0
  6  7  1  0  0  0  0
  8  9  1  0  0  0  0
 10 15  1  0  0  0  0
 10  8  2  0  0  0  0
 11 12  1  0  0  0  0
 13 11  1  0  0  0  0
 14 11  1  0  0  0  0
 15  2  1  6  0  0  0
 15 16  1  0  0  0  0
 16 19  1  0  0  0  0
 16 18  1  0  0  0  0
 17 16  1  0  0  0  0
 20 28  1  0  0  0  0
 21 20  2  0  0  0  0
 22 21  1  0  0  0  0
 22 24  2  0  0  0  0
 23 22  1  0  0  0  0
 24 26  1  0  0  0  0
 25 24  1  0  0  0  0
 26 28  2  0  0  0  0
 26 27  1  0  0  0  0
 28 39  1  0  0  0  0
 29 35  1  0  0  0  0
 29 30  1  0  0  0  0
 29 21  1  0  0  0  0
 31 29  1  0  0  0  0
 32 31  1  0  0  0  0
 33 31  1  0  0  0  0
 34 31  1  0  0  0  0
 35 38  1  0  0  0  0
 36 35  1  0  0  0  0
 37 35  1  0  0  0  0
 39 45  1  0  0  0  0
 39 41  1  0  0  0  0
 40 39  1  0  0  0  0
 41 42  1  0  0  0  0
 41 44  1  0  0  0  0
 43 41  1  0  0  0  0
 45 46  1  0  0  0  0
 45 47  1  0  0  0  0
 48 45  1  0  0  0  0
M  END
