2,3
 OpenBabel05122313053D

 20 21  0  0  1  0  0  0  0  0999 V2000
    1.4486   -0.0003    2.2640 O   0  0  0  0  0  0  0  0  0  0  0  0
   -0.6939   -0.0001    1.4002 N   0  0  0  0  0  2  0  0  0  0  0  0
   -2.1539    0.0004   -0.7910 N   0  0  0  0  0  2  0  0  0  0  0  0
    0.2205   -0.0003    2.4715 C   0  0  0  0  0  0  0  0  0  0  0  0
   -0.3631   -0.0005    3.8051 C   0  0  0  0  0  0  0  0  0  0  0  0
   -1.7282   -0.0005    4.0043 C   0  0  0  0  0  0  0  0  0  0  0  0
   -2.6040   -0.0002    2.8924 C   0  0  0  0  0  0  0  0  0  0  0  0
   -2.0467    0.0000    1.6117 C   0  0  0  0  0  0  0  0  0  0  0  0
   -2.8604    0.0003    0.3888 C   0  0  1  0  0  3  0  0  0  0  0  0
   -4.2708    0.0005    0.3774 C   0  0  0  0  0  0  0  0  0  0  0  0
   -4.9658    0.0008   -0.8317 C   0  0  0  0  0  0  0  0  0  0  0  0
   -4.2319    0.0009   -2.0309 C   0  0  0  0  0  0  0  0  0  0  0  0
   -2.8399    0.0007   -1.9657 C   0  0  0  0  0  0  0  0  0  0  0  0
    0.3500   -0.0008    4.6412 H   0  0  0  0  0  0  0  0  0  0  0  0
   -2.1413   -0.0006    5.0247 H   0  0  0  0  0  0  0  0  0  0  0  0
   -3.6908   -0.0001    3.0375 H   0  0  0  0  0  0  0  0  0  0  0  0
   -4.8161    0.0004    1.3297 H   0  0  0  0  0  0  0  0  0  0  0  0
   -6.0653    0.0010   -0.8427 H   0  0  0  0  0  0  0  0  0  0  0  0
   -4.7273    0.0011   -3.0116 H   0  0  0  0  0  0  0  0  0  0  0  0
   -2.2366    0.0008   -2.8835 H   0  0  0  0  0  0  0  0  0  0  0  0
  1  4  2  0  0  0  0
  2  8  1  0  0  0  0
  2  4  1  0  0  0  0
  3  9  1  0  0  0  0
  4  5  1  0  0  0  0
  5  6  2  0  0  0  0
  5 14  1  0  0  0  0
  6 15  1  0  0  0  0
  7 16  1  0  0  0  0
  7  6  1  0  0  0  0
  8  7  2  0  0  0  0
  9  8  1  1  0  0  0
 10  9  1  0  0  0  0
 10 17  1  0  0  0  0
 11 10  2  0  0  0  0
 12 13  2  0  0  0  0
 12 11  1  0  0  0  0
 13  3  1  0  0  0  0
 18 11  1  0  0  0  0
 19 12  1  0  0  0  0
 20 13  1  0  0  0  0
M  END
