3,4
 OpenBabel05122313053D

 27 28  0  0  0  0  0  0  0  0999 V2000
   -6.3425    0.4083    0.5864 O   0  0  0  0  0  0  0  0  0  0  0  0
   -6.6487    1.3286    0.4865 H   0  0  0  0  0  0  0  0  0  0  0  0
    1.8988   -0.3809    0.9903 N   0  0  0  0  0  2  0  0  0  0  0  0
   -0.7644    0.2972    1.2675 N   0  0  0  0  0  0  0  0  0  0  0  0
   -0.4414    1.2594    1.4655 H   0  0  0  0  0  0  0  0  0  0  0  0
    3.2381   -0.3529    0.8718 C   0  0  0  0  0  3  0  0  0  0  0  0
    3.6287   -0.1635   -0.1395 H   0  0  0  0  0  0  0  0  0  0  0  0
    4.0869   -0.5477    1.9667 C   0  0  0  0  0  0  0  0  0  0  0  0
    5.1766   -0.5223    1.8265 H   0  0  0  0  0  0  0  0  0  0  0  0
    3.5146   -0.7596    3.2287 C   0  0  0  0  0  0  0  0  0  0  0  0
    4.1495   -0.9071    4.1151 H   0  0  0  0  0  0  0  0  0  0  0  0
    2.1188   -0.7675    3.3491 C   0  0  0  0  0  0  0  0  0  0  0  0
    1.6338   -0.9161    4.3248 H   0  0  0  0  0  0  0  0  0  0  0  0
    1.3305   -0.5805    2.2029 C   0  0  0  0  0  0  0  0  0  0  0  0
   -0.1775   -0.6346    2.2458 C   0  0  0  0  0  0  0  0  0  0  0  0
   -0.4783   -1.6653    1.9548 H   0  0  0  0  0  0  0  0  0  0  0  0
   -0.5499   -0.4436    3.2757 H   0  0  0  0  0  0  0  0  0  0  0  0
   -2.1959    0.3120    1.1454 C   0  0  0  0  0  0  0  0  0  0  0  0
   -2.9518   -0.8743    1.0876 C   0  0  0  0  0  0  0  0  0  0  0  0
   -2.4544   -1.8521    1.1462 H   0  0  0  0  0  0  0  0  0  0  0  0
   -4.3365   -0.8205    0.9035 C   0  0  0  0  0  0  0  0  0  0  0  0
   -4.9327   -1.7426    0.8530 H   0  0  0  0  0  0  0  0  0  0  0  0
   -4.9926    0.4187    0.7623 C   0  0  0  0  0  0  0  0  0  0  0  0
   -4.2339    1.6045    0.8063 C   0  0  0  0  0  0  0  0  0  0  0  0
   -4.7302    2.5817    0.6888 H   0  0  0  0  0  0  0  0  0  0  0  0
   -2.8477    1.5495    0.9988 C   0  0  0  0  0  0  0  0  0  0  0  0
   -2.2578    2.4794    1.0126 H   0  0  0  0  0  0  0  0  0  0  0  0
  1 23  1  0  0  0  0
  2  1  1  0  0  0  0
  3 14  1  0  0  0  0
  4  5  1  0  0  0  0
  4 15  1  0  0  0  0
  6  3  1  0  0  0  0
  6  8  1  0  0  0  0
  7  6  1  0  0  0  0
  8 10  2  0  0  0  0
  9  8  1  0  0  0  0
 10 12  1  0  0  0  0
 10 11  1  0  0  0  0
 12 13  1  0  0  0  0
 14 15  1  0  0  0  0
 14 12  2  0  0  0  0
 15 17  1  0  0  0  0
 16 15  1  0  0  0  0
 18  4  1  0  0  0  0
 19 18  1  0  0  0  0
 19 20  1  0  0  0  0
 21 19  2  0  0  0  0
 22 21  1  0  0  0  0
 23 24  2  0  0  0  0
 23 21  1  0  0  0  0
 24 26  1  0  0  0  0
 25 24  1  0  0  0  0
 26 27  1  0  0  0  0
 26 18  2  0  0  0  0
M  END
