1,2
 OpenBabel05122313053D

 28 28  0  0  0  0  0  0  0  0999 V2000
   -0.3448   -2.2794   -0.3513 N   0  0  0  0  0  2  0  0  0  0  0  0
   -2.0255   -0.2373   -0.7281 N   0  0  0  0  0  0  0  0  0  0  0  0
   -1.8948    0.1855    0.2038 H   0  0  0  0  0  0  0  0  0  0  0  0
    0.6319   -3.1118    0.0866 C   0  0  0  0  0  3  0  0  0  0  0  0
    1.6543   -2.8470   -0.2146 H   0  0  0  0  0  0  0  0  0  0  0  0
    0.3630   -4.2281    0.8815 C   0  0  0  0  0  0  0  0  0  0  0  0
    1.1935   -4.8668    1.2119 H   0  0  0  0  0  0  0  0  0  0  0  0
   -0.9617   -4.4991    1.2531 C   0  0  0  0  0  0  0  0  0  0  0  0
   -1.2044   -5.3655    1.8850 H   0  0  0  0  0  0  0  0  0  0  0  0
   -1.9714   -3.6345    0.8090 C   0  0  0  0  0  0  0  0  0  0  0  0
   -3.0231   -3.8024    1.0824 H   0  0  0  0  0  0  0  0  0  0  0  0
   -1.6337   -2.5365    0.0092 C   0  0  0  0  0  0  0  0  0  0  0  0
   -2.6440   -1.5718   -0.5443 C   0  0  0  0  0  0  0  0  0  0  0  0
   -2.9658   -1.9177   -1.5514 H   0  0  0  0  0  0  0  0  0  0  0  0
   -3.5492   -1.5368    0.0986 H   0  0  0  0  0  0  0  0  0  0  0  0
   -2.9020    0.7035   -1.4771 C   0  0  0  0  0  0  0  0  0  0  0  0
   -3.0799    0.2650   -2.4792 H   0  0  0  0  0  0  0  0  0  0  0  0
   -2.3100    1.6267   -1.6198 H   0  0  0  0  0  0  0  0  0  0  0  0
   -4.2198    1.0364   -0.7701 C   0  0  0  0  0  0  0  0  0  0  0  0
   -4.8984    0.1551   -0.7587 H   0  0  0  0  0  0  0  0  0  0  0  0
   -4.7391    1.7941   -1.3952 H   0  0  0  0  0  0  0  0  0  0  0  0
   -4.0459    1.5855    0.6521 C   0  0  0  0  0  0  0  0  0  0  0  0
   -3.6025    0.8028    1.3117 H   0  0  0  0  0  0  0  0  0  0  0  0
   -3.3063    2.4156    0.6372 H   0  0  0  0  0  0  0  0  0  0  0  0
   -5.3555    2.0659    1.2771 C   0  0  0  0  0  0  0  0  0  0  0  0
   -5.1984    2.4467    2.3054 H   0  0  0  0  0  0  0  0  0  0  0  0
   -5.8045    2.8864    0.6809 H   0  0  0  0  0  0  0  0  0  0  0  0
   -6.1042    1.2489    1.3316 H   0  0  0  0  0  0  0  0  0  0  0  0
  1 12  1  0  0  0  0
  1  4  1  0  0  0  0
  2 13  1  0  0  0  0
  2  3  1  0  0  0  0
  4  6  1  0  0  0  0
  5  4  1  0  0  0  0
  6  7  1  0  0  0  0
  6  8  2  0  0  0  0
  8  9  1  0  0  0  0
 10 11  1  0  0  0  0
 10  8  1  0  0  0  0
 12 10  2  0  0  0  0
 13 12  1  0  0  0  0
 13 15  1  0  0  0  0
 14 13  1  0  0  0  0
 16 19  1  0  0  0  0
 16  2  1  0  0  0  0
 17 16  1  0  0  0  0
 18 16  1  0  0  0  0
 19 20  1  0  0  0  0
 19 22  1  0  0  0  0
 21 19  1  0  0  0  0
 22 25  1  0  0  0  0
 22 23  1  0  0  0  0
 24 22  1  0  0  0  0
 25 28  1  0  0  0  0
 25 26  1  0  0  0  0
 27 25  1  0  0  0  0
M  END
