1,2
 OpenBabel05122313053D

 31 31  0  0  0  0  0  0  0  0999 V2000
    0.5744   -2.3374   -0.1084 N   0  0  0  0  0  2  0  0  0  0  0  0
   -1.7106   -1.0857   -0.6813 N   0  0  0  0  0  0  0  0  0  0  0  0
   -1.7529   -0.5838    0.2230 H   0  0  0  0  0  0  0  0  0  0  0  0
    1.7728   -2.7383    0.3870 C   0  0  0  0  0  3  0  0  0  0  0  0
    2.6412   -2.1365    0.0872 H   0  0  0  0  0  0  0  0  0  0  0  0
    1.8949   -3.8303    1.2502 C   0  0  0  0  0  0  0  0  0  0  0  0
    2.8897   -4.1106    1.6234 H   0  0  0  0  0  0  0  0  0  0  0  0
    0.7437   -4.5345    1.6329 C   0  0  0  0  0  0  0  0  0  0  0  0
    0.8079   -5.3926    2.3175 H   0  0  0  0  0  0  0  0  0  0  0  0
   -0.4955   -4.1167    1.1263 C   0  0  0  0  0  0  0  0  0  0  0  0
   -1.4251   -4.6355    1.4015 H   0  0  0  0  0  0  0  0  0  0  0  0
   -0.5498   -3.0230    0.2546 C   0  0  0  0  0  0  0  0  0  0  0  0
   -1.8191   -2.5327   -0.3831 C   0  0  0  0  0  0  0  0  0  0  0  0
   -1.9627   -3.0571   -1.3541 H   0  0  0  0  0  0  0  0  0  0  0  0
   -2.6956   -2.7714    0.2559 H   0  0  0  0  0  0  0  0  0  0  0  0
   -2.8319   -0.5792   -1.5196 C   0  0  0  0  0  0  0  0  0  0  0  0
   -2.8570   -1.1946   -2.4404 H   0  0  0  0  0  0  0  0  0  0  0  0
   -2.5542    0.4460   -1.8293 H   0  0  0  0  0  0  0  0  0  0  0  0
   -4.1955   -0.5859   -0.8252 C   0  0  0  0  0  0  0  0  0  0  0  0
   -4.4693   -1.6242   -0.5373 H   0  0  0  0  0  0  0  0  0  0  0  0
   -4.9543   -0.2842   -1.5798 H   0  0  0  0  0  0  0  0  0  0  0  0
   -4.3147    0.3393    0.4025 C   0  0  0  0  0  0  0  0  0  0  0  0
   -3.4935    0.0892    1.1156 H   0  0  0  0  0  0  0  0  0  0  0  0
   -4.1705    1.8182    0.0220 C   0  0  0  0  0  0  0  0  0  0  0  0
   -3.1846    2.0507   -0.4294 H   0  0  0  0  0  0  0  0  0  0  0  0
   -4.9566    2.1161   -0.7036 H   0  0  0  0  0  0  0  0  0  0  0  0
   -4.2743    2.4673    0.9135 H   0  0  0  0  0  0  0  0  0  0  0  0
   -5.6359    0.0870    1.1378 C   0  0  0  0  0  0  0  0  0  0  0  0
   -5.7357   -0.9731    1.4485 H   0  0  0  0  0  0  0  0  0  0  0  0
   -5.7133    0.7151    2.0477 H   0  0  0  0  0  0  0  0  0  0  0  0
   -6.5038    0.3292    0.4891 H   0  0  0  0  0  0  0  0  0  0  0  0
  1 12  1  0  0  0  0
  1  4  1  0  0  0  0
  2 13  1  0  0  0  0
  2  3  1  0  0  0  0
  4  6  1  0  0  0  0
  5  4  1  0  0  0  0
  6  7  1  0  0  0  0
  6  8  2  0  0  0  0
  8  9  1  0  0  0  0
 10 11  1  0  0  0  0
 10  8  1  0  0  0  0
 12 10  2  0  0  0  0
 13 12  1  0  0  0  0
 13 15  1  0  0  0  0
 14 13  1  0  0  0  0
 16 19  1  0  0  0  0
 16  2  1  0  0  0  0
 17 16  1  0  0  0  0
 18 16  1  0  0  0  0
 19 20  1  0  0  0  0
 19 22  1  0  0  0  0
 21 19  1  0  0  0  0
 22 23  1  0  0  0  0
 22 28  1  0  0  0  0
 24 22  1  0  0  0  0
 24 27  1  0  0  0  0
 25 24  1  0  0  0  0
 26 24  1  0  0  0  0
 28 29  1  0  0  0  0
 28 30  1  0  0  0  0
 31 28  1  0  0  0  0
M  END
