1,11
 OpenBabel05122313053D

 22 23  0  0  1  0  0  0  0  0999 V2000
    2.6559   -0.5115   -0.6173 N   0  0  0  0  0  2  0  0  0  0  0  0
    2.2749    0.7891   -0.8212 C   0  0  1  0  0  3  0  0  0  0  0  0
    3.2593    1.8058   -0.9455 C   0  0  0  0  0  0  0  0  0  0  0  0
    2.9660    2.8478   -1.1273 H   0  0  0  0  0  0  0  0  0  0  0  0
    4.5981    1.4218   -0.8483 C   0  0  0  0  0  0  0  0  0  0  0  0
    5.3845    2.1861   -0.9501 H   0  0  0  0  0  0  0  0  0  0  0  0
    4.9619    0.0744   -0.6222 C   0  0  0  0  0  0  0  0  0  0  0  0
    6.0142   -0.2290   -0.5417 H   0  0  0  0  0  0  0  0  0  0  0  0
    3.9395   -0.8738   -0.5109 C   0  0  0  0  0  0  0  0  0  0  0  0
    4.1235   -1.9458   -0.3328 H   0  0  0  0  0  0  0  0  0  0  0  0
    0.9218    0.8100   -0.8891 N   0  0  0  0  0  2  0  0  0  0  0  0
    0.0845    1.9250   -0.8403 C   0  0  0  0  0  0  0  0  0  0  0  0
   -1.1108    1.9051   -1.5970 C   0  0  0  0  0  0  0  0  0  0  0  0
   -1.3155    1.0266   -2.2257 H   0  0  0  0  0  0  0  0  0  0  0  0
   -2.0085    2.9763   -1.5275 C   0  0  0  0  0  0  0  0  0  0  0  0
   -2.9353    2.9423   -2.1200 H   0  0  0  0  0  0  0  0  0  0  0  0
   -1.7385    4.0819   -0.7026 C   0  0  0  0  0  0  0  0  0  0  0  0
   -2.4470    4.9220   -0.6496 H   0  0  0  0  0  0  0  0  0  0  0  0
   -0.5600    4.1015    0.0619 C   0  0  0  0  0  0  0  0  0  0  0  0
   -0.3471    4.9545    0.7247 H   0  0  0  0  0  0  0  0  0  0  0  0
    0.3462    3.0338    0.0013 C   0  0  0  0  0  0  0  0  0  0  0  0
    1.2485    3.0372    0.6304 H   0  0  0  0  0  0  0  0  0  0  0  0
  1  9  1  0  0  0  0
  2 11  1  6  0  0  0
  2  1  1  0  0  0  0
  3  5  2  0  0  0  0
  3  2  1  0  0  0  0
  4  3  1  0  0  0  0
  5  7  1  0  0  0  0
  6  5  1  0  0  0  0
  7  8  1  0  0  0  0
  7  9  2  0  0  0  0
  9 10  1  0  0  0  0
 11 12  1  0  0  0  0
 12 21  1  0  0  0  0
 13 15  1  0  0  0  0
 13 12  2  0  0  0  0
 14 13  1  0  0  0  0
 15 17  2  0  0  0  0
 16 15  1  0  0  0  0
 17 18  1  0  0  0  0
 17 19  1  0  0  0  0
 19 20  1  0  0  0  0
 21 19  2  0  0  0  0
 21 22  1  0  0  0  0
M  END
