1,3
 OpenBabel05122313053D

 32 32  0  0  1  0  0  0  0  0999 V2000
    0.2754   -0.5691   -1.0533 N   0  0  0  0  0  2  0  0  0  0  0  0
    2.0483    0.7353   -1.7200 O   0  0  0  0  0  0  0  0  0  0  0  0
   -2.4087   -0.1801   -0.0540 N   0  0  0  0  0  2  0  0  0  0  0  0
    0.0556   -1.8518   -0.6978 N   0  0  0  0  0  0  0  0  0  0  0  0
    3.8358   -0.4880    0.1056 N   0  3  0  0  0  0  0  0  0  0  0  0
   -2.3866   -1.5377   -0.1377 C   0  0  1  0  0  3  0  0  0  0  0  0
    1.6070   -0.2578   -1.1286 C   0  0  0  0  0  0  0  0  0  0  0  0
    2.5068   -1.1395   -0.2372 C   0  0  0  0  0  0  0  0  0  0  0  0
    1.9674   -1.2746    0.7221 H   0  0  0  0  0  0  0  0  0  0  0  0
    2.7089   -2.1294   -0.6888 H   0  0  0  0  0  0  0  0  0  0  0  0
   -1.1272   -2.2603   -0.3168 C   0  0  0  0  0  0  0  0  0  0  0  0
   -1.1921   -3.3493   -0.1437 H   0  0  0  0  0  0  0  0  0  0  0  0
   -3.5983   -2.2672   -0.0490 C   0  0  0  0  0  0  0  0  0  0  0  0
   -3.5686   -3.3653   -0.1045 H   0  0  0  0  0  0  0  0  0  0  0  0
    4.7118   -0.4115   -1.1113 C   0  0  0  0  0  0  0  0  0  0  0  0
    4.9057   -1.4378   -1.4736 H   0  0  0  0  0  0  0  0  0  0  0  0
    5.6623    0.0807   -0.8348 H   0  0  0  0  0  0  0  0  0  0  0  0
    4.1603    0.1757   -1.8672 H   0  0  0  0  0  0  0  0  0  0  0  0
   -3.5744    0.4796    0.0664 C   0  0  0  0  0  0  0  0  0  0  0  0
   -3.4776    1.5802    0.0975 H   0  0  0  0  0  0  0  0  0  0  0  0
   -4.8053   -0.1818    0.1382 C   0  0  0  0  0  0  0  0  0  0  0  0
   -5.7361    0.3941    0.2370 H   0  0  0  0  0  0  0  0  0  0  0  0
   -4.8092   -1.5866    0.0907 C   0  0  0  0  0  0  0  0  0  0  0  0
   -5.7551   -2.1458    0.1565 H   0  0  0  0  0  0  0  0  0  0  0  0
    3.6264    0.8993    0.6795 C   0  0  0  0  0  0  0  0  0  0  0  0
    3.3175    1.5619   -0.1449 H   0  0  0  0  0  0  0  0  0  0  0  0
    4.5804    1.2258    1.1315 H   0  0  0  0  0  0  0  0  0  0  0  0
    2.7997    0.8486    1.4211 H   0  0  0  0  0  0  0  0  0  0  0  0
    4.4856   -1.3375    1.1538 C   0  0  0  0  0  0  0  0  0  0  0  0
    3.8474   -1.3281    2.0557 H   0  0  0  0  0  0  0  0  0  0  0  0
    5.4826   -0.9212    1.3880 H   0  0  0  0  0  0  0  0  0  0  0  0
    4.5846   -2.3703    0.7737 H   0  0  0  0  0  0  0  0  0  0  0  0
  1  4  1  0  0  0  0
  2  7  2  0  0  0  0
  3 19  1  0  0  0  0
  4 11  2  0  0  0  0
  5 25  1  0  0  0  0
  5 29  1  0  0  0  0
  6 11  1  1  0  0  0
  6  3  1  0  0  0  0
  6 13  1  0  0  0  0
  7  1  1  0  0  0  0
  7  8  1  0  0  0  0
  8  5  1  0  0  0  0
  8  9  1  0  0  0  0
 10  8  1  0  0  0  0
 11 12  1  0  0  0  0
 13 23  2  0  0  0  0
 14 13  1  0  0  0  0
 15 17  1  0  0  0  0
 15  5  1  0  0  0  0
 16 15  1  0  0  0  0
 18 15  1  0  0  0  0
 19 20  1  0  0  0  0
 19 21  2  0  0  0  0
 21 22  1  0  0  0  0
 23 21  1  0  0  0  0
 23 24  1  0  0  0  0
 25 27  1  0  0  0  0
 25 28  1  0  0  0  0
 26 25  1  0  0  0  0
 29 31  1  0  0  0  0
 29 30  1  0  0  0  0
 32 29  1  0  0  0  0
M  CHG  1   5   1
M  END
