1,3
q = 0.0, confidence = 0.994

 33 35  0  0  0  0  0  0  0  0999 V2000
   -0.7990   -1.7592    1.1360 N   0  0  0  0  0  2  0  0  0  0  0  0
   -3.1715   -0.3180   -2.4968 N   0  0  0  0  0  0  0  0  0  0  0  0
   -1.3577    0.3273   -0.1542 N   0  0  0  0  0  2  0  0  0  0  0  0
   -1.9819   -1.8304    0.4449 C   0  0  0  0  0  0  0  0  0  0  0  0
   -2.7421   -3.0133    0.4064 C   0  0  0  0  0  0  0  0  0  0  0  0
   -2.2724   -4.1426    1.0827 C   0  0  0  0  0  0  0  0  0  0  0  0
   -1.0544   -4.0576    1.7794 C   0  0  0  0  0  0  0  0  0  0  0  0
   -0.3489   -2.8497    1.7862 C   0  0  0  0  0  0  0  0  0  0  0  0
   -2.2775   -0.6082   -0.2835 C   0  0  0  0  0  0  0  0  0  0  0  0
   -3.4525   -0.4711   -1.1867 C   0  0  0  0  0  0  0  0  0  0  0  0
   -4.7617   -0.4864   -0.6649 C   0  0  0  0  0  0  0  0  0  0  0  0
   -5.8278   -0.3327   -1.5619 C   0  0  0  0  0  0  0  0  0  0  0  0
   -5.5472   -0.1740   -2.9267 C   0  0  0  0  0  0  0  0  0  0  0  0
   -4.2032   -0.1723   -3.3392 C   0  0  0  0  0  0  0  0  0  0  0  0
   -1.4854    1.6016   -0.7713 C   0  0  0  0  0  0  0  0  0  0  0  0
   -2.4896    2.4848   -0.3281 C   0  0  0  0  0  0  0  0  0  0  0  0
   -2.5591    3.7750   -0.8735 C   0  0  0  0  0  0  0  0  0  0  0  0
   -1.6399    4.1851   -1.8519 C   0  0  0  0  0  0  0  0  0  0  0  0
   -0.6441    3.2951   -2.2887 C   0  0  0  0  0  0  0  0  0  0  0  0
   -0.5579    2.0044   -1.7515 C   0  0  0  0  0  0  0  0  0  0  0  0
   -3.6838   -3.0300   -0.1591 H   0  0  0  0  0  0  0  0  0  0  0  0
   -2.8470   -5.0801    1.0675 H   0  0  0  0  0  0  0  0  0  0  0  0
   -0.6464   -4.9205    2.3242 H   0  0  0  0  0  0  0  0  0  0  0  0
    0.5977   -2.7161    2.3292 H   0  0  0  0  0  0  0  0  0  0  0  0
   -4.9152   -0.5648    0.4237 H   0  0  0  0  0  0  0  0  0  0  0  0
   -6.8656   -0.3241   -1.1952 H   0  0  0  0  0  0  0  0  0  0  0  0
   -6.3538   -0.0469   -3.6640 H   0  0  0  0  0  0  0  0  0  0  0  0
   -3.9475   -0.0459   -4.4062 H   0  0  0  0  0  0  0  0  0  0  0  0
   -3.1921    2.1594    0.4556 H   0  0  0  0  0  0  0  0  0  0  0  0
   -3.3399    4.4666   -0.5222 H   0  0  0  0  0  0  0  0  0  0  0  0
   -1.6978    5.1994   -2.2745 H   0  0  0  0  0  0  0  0  0  0  0  0
    0.0776    3.6066   -3.0590 H   0  0  0  0  0  0  0  0  0  0  0  0
    0.2220    1.3082   -2.0919 H   0  0  0  0  0  0  0  0  0  0  0  0
  1  8  1  0  0  0  0
  2 10  1  0  0  0  0
  4  1  1  0  0  0  0
  5  4  1  0  0  0  0
  5  6  2  0  0  0  0
  6  7  1  0  0  0  0
  7  8  2  0  0  0  0
  7 23  1  0  0  0  0
  8 24  1  0  0  0  0
  9  3  1  0  0  0  0
  9  4  2  0  0  0  0
 10 11  2  0  0  0  0
 10  9  1  0  0  0  0
 11 25  1  0  0  0  0
 12 26  1  0  0  0  0
 12 11  1  0  0  0  0
 13 12  2  0  0  0  0
 14 13  1  0  0  0  0
 14  2  2  0  0  0  0
 15 16  1  0  0  0  0
 15  3  1  0  0  0  0
 16 29  1  0  0  0  0
 17 30  1  0  0  0  0
 17 16  2  0  0  0  0
 18 17  1  0  0  0  0
 19 18  2  0  0  0  0
 19 20  1  0  0  0  0
 20 15  2  0  0  0  0
 21  5  1  0  0  0  0
 22  6  1  0  0  0  0
 27 13  1  0  0  0  0
 28 14  1  0  0  0  0
 31 18  1  0  0  0  0
 32 19  1  0  0  0  0
 33 20  1  0  0  0  0
M  END
