6,9
 OpenBabel05122313053D

 27 29  0  0  0  0  0  0  0  0999 V2000
   -3.7512    0.1830   -0.0001 C   0  0  0  0  0  0  0  0  0  0  0  0
   -4.2482   -1.1394    0.0017 C   0  0  0  0  0  0  0  0  0  0  0  0
   -3.5330   -1.9744    0.0031 H   0  0  0  0  0  0  0  0  0  0  0  0
    3.2759    1.6932    0.0000 C   0  0  0  0  0  3  0  0  0  0  0  0
    4.1091    0.9675   -0.0004 H   0  0  0  0  0  0  0  0  0  0  0  0
    2.0522    1.1190   -0.0000 N   0  0  0  0  0  2  0  0  0  0  0  0
    1.0245    3.3137    0.0009 C   0  0  0  0  0  0  0  0  0  0  0  0
    0.1117    3.9237    0.0012 H   0  0  0  0  0  0  0  0  0  0  0  0
   -0.2114   -0.1728    0.0003 N   0  0  0  0  0  2  0  0  0  0  0  0
   -2.3021    0.4087   -0.0000 C   0  0  0  0  0  0  0  0  0  0  0  0
    0.9528    1.9143    0.0004 C   0  0  0  0  0  0  0  0  0  0  0  0
   -0.2597    1.2069    0.0002 N   0  0  0  0  0  0  0  0  0  0  0  0
   -1.4126   -0.6422    0.0002 N   0  0  0  0  0  2  0  0  0  0  0  0
   -1.5714    1.5982   -0.0000 C   0  0  0  0  0  0  0  0  0  0  0  0
   -1.8714    2.6483   -0.0001 H   0  0  0  0  0  0  0  0  0  0  0  0
   -4.6625    1.2617   -0.0020 C   0  0  0  0  0  0  0  0  0  0  0  0
   -4.2940    2.2990   -0.0036 H   0  0  0  0  0  0  0  0  0  0  0  0
   -6.0420    1.0231   -0.0019 C   0  0  0  0  0  0  0  0  0  0  0  0
   -6.7427    1.8715   -0.0034 H   0  0  0  0  0  0  0  0  0  0  0  0
    3.4346    3.0814    0.0005 C   0  0  0  0  0  0  0  0  0  0  0  0
    4.4466    3.5095    0.0005 H   0  0  0  0  0  0  0  0  0  0  0  0
   -6.5299   -0.2944   -0.0001 C   0  0  0  0  0  0  0  0  0  0  0  0
   -7.6144   -0.4804   -0.0000 H   0  0  0  0  0  0  0  0  0  0  0  0
    2.2948    3.9027    0.0009 C   0  0  0  0  0  0  0  0  0  0  0  0
    2.3901    4.9982    0.0013 H   0  0  0  0  0  0  0  0  0  0  0  0
   -5.6290   -1.3718    0.0017 C   0  0  0  0  0  0  0  0  0  0  0  0
   -6.0056   -2.4056    0.0032 H   0  0  0  0  0  0  0  0  0  0  0  0
  1 10  1  0  0  0  0
  1  2  1  0  0  0  0
  2 26  2  0  0  0  0
  2  3  1  0  0  0  0
  4 20  1  0  0  0  0
  5  4  1  0  0  0  0
  6  4  1  0  0  0  0
  6 11  1  0  0  0  0
  7 24  1  0  0  0  0
  7  8  1  0  0  0  0
 10 14  2  0  0  0  0
 10 13  1  0  0  0  0
 11  7  2  0  0  0  0
 12  9  1  0  0  0  0
 12 11  1  0  0  0  0
 13  9  1  0  0  0  0
 14 12  1  0  0  0  0
 15 14  1  0  0  0  0
 16 18  1  0  0  0  0
 16  1  2  0  0  0  0
 17 16  1  0  0  0  0
 18 22  2  0  0  0  0
 19 18  1  0  0  0  0
 20 21  1  0  0  0  0
 20 24  2  0  0  0  0
 22 23  1  0  0  0  0
 22 26  1  0  0  0  0
 24 25  1  0  0  0  0
 26 27  1  0  0  0  0
M  END
