1,13
 OpenBabel05122313053D

 44 46  0  0  0  0  0  0  0  0999 V2000
   -3.5682    0.2110    0.5525 N   0  0  0  0  0  2  0  0  0  0  0  0
   -4.7273   -0.3982    0.8900 C   0  0  0  0  0  0  0  0  0  0  0  0
   -4.7528   -1.4809    0.6807 H   0  0  0  0  0  0  0  0  0  0  0  0
   -5.7936    0.3130    1.4476 C   0  0  0  0  0  0  0  0  0  0  0  0
   -6.7165   -0.2249    1.7063 H   0  0  0  0  0  0  0  0  0  0  0  0
   -5.6702    1.6976    1.6664 C   0  0  0  0  0  0  0  0  0  0  0  0
   -6.4995    2.2736    2.1019 H   0  0  0  0  0  0  0  0  0  0  0  0
   -4.4728    2.3290    1.3206 C   0  0  0  0  0  0  0  0  0  0  0  0
   -4.3266    3.4080    1.4727 H   0  0  0  0  0  0  0  0  0  0  0  0
   -3.4281    1.5666    0.7632 C   0  0  0  0  0  0  0  0  0  0  0  0
   -2.1371    2.0824    0.3924 C   0  0  0  0  0  0  0  0  0  0  0  0
   -1.8653    3.1373    0.5572 H   0  0  0  0  0  0  0  0  0  0  0  0
   -1.2600    1.2258   -0.0999 N   0  0  0  0  0  2  0  0  0  0  0  0
    0.0300    1.6934   -0.4788 C   0  0  0  0  0  0  0  0  0  0  0  0
    1.1758    0.9992   -0.0480 C   0  0  0  0  0  0  0  0  0  0  0  0
    1.0616    0.1036    0.5763 H   0  0  0  0  0  0  0  0  0  0  0  0
    2.4584    1.4581   -0.4060 C   0  0  0  0  0  0  0  0  0  0  0  0
    2.5707    2.6090   -1.2176 C   0  0  0  0  0  0  0  0  0  0  0  0
    3.5714    2.9559   -1.5177 H   0  0  0  0  0  0  0  0  0  0  0  0
    1.4286    3.2972   -1.6527 C   0  0  0  0  0  0  0  0  0  0  0  0
    1.5244    4.1826   -2.2992 H   0  0  0  0  0  0  0  0  0  0  0  0
    0.1546    2.8434   -1.2858 C   0  0  0  0  0  0  0  0  0  0  0  0
   -0.7500    3.3474   -1.6580 H   0  0  0  0  0  0  0  0  0  0  0  0
    3.7192    0.6644    0.0567 B   0  0  0  0  0  0  0  0  0  0  0  0
    3.6482   -0.4402    0.8722 O   0  0  0  0  0  0  0  0  0  0  0  0
    5.0142   -0.7924    1.2365 C   0  0  0  0  0  0  0  0  0  0  0  0
    5.8572   -0.1172    0.0778 C   0  0  0  0  0  0  0  0  0  0  0  0
    5.0018    0.9954   -0.3216 O   0  0  0  0  0  0  0  0  0  0  0  0
    5.1249   -2.3119    1.3081 C   0  0  0  0  0  0  0  0  0  0  0  0
    4.4986   -2.6925    2.1385 H   0  0  0  0  0  0  0  0  0  0  0  0
    6.1725   -2.6208    1.4974 H   0  0  0  0  0  0  0  0  0  0  0  0
    4.7750   -2.7899    0.3753 H   0  0  0  0  0  0  0  0  0  0  0  0
    5.2783   -0.1697    2.6122 C   0  0  0  0  0  0  0  0  0  0  0  0
    5.2195    0.9357    2.5708 H   0  0  0  0  0  0  0  0  0  0  0  0
    6.2724   -0.4555    3.0078 H   0  0  0  0  0  0  0  0  0  0  0  0
    4.5050   -0.5270    3.3197 H   0  0  0  0  0  0  0  0  0  0  0  0
    6.0103   -1.0175   -1.1533 C   0  0  0  0  0  0  0  0  0  0  0  0
    5.0351   -1.4394   -1.4657 H   0  0  0  0  0  0  0  0  0  0  0  0
    6.7118   -1.8534   -0.9649 H   0  0  0  0  0  0  0  0  0  0  0  0
    6.4053   -0.4123   -1.9923 H   0  0  0  0  0  0  0  0  0  0  0  0
    7.2122    0.4347    0.5081 C   0  0  0  0  0  0  0  0  0  0  0  0
    7.7226    0.8927   -0.3617 H   0  0  0  0  0  0  0  0  0  0  0  0
    7.8596   -0.3766    0.8971 H   0  0  0  0  0  0  0  0  0  0  0  0
    7.1084    1.2100    1.2891 H   0  0  0  0  0  0  0  0  0  0  0  0
  1 10  1  0  0  0  0
  1  2  1  0  0  0  0
  2  4  2  0  0  0  0
  3  2  1  0  0  0  0
  4  6  1  0  0  0  0
  4  5  1  0  0  0  0
  6  7  1  0  0  0  0
  8  9  1  0  0  0  0
  8  6  2  0  0  0  0
 10  8  1  0  0  0  0
 11 12  1  0  0  0  0
 11 10  2  0  0  0  0
 13 11  1  0  0  0  0
 14 13  1  0  0  0  0
 14 15  1  0  0  0  0
 15 16  1  0  0  0  0
 17 15  2  0  0  0  0
 17 24  1  0  0  0  0
 18 17  1  0  0  0  0
 19 18  1  0  0  0  0
 20 22  1  0  0  0  0
 20 18  2  0  0  0  0
 21 20  1  0  0  0  0
 22 14  2  0  0  0  0
 23 22  1  0  0  0  0
 24 25  1  0  0  0  0
 25 26  1  0  0  0  0
 26 29  1  0  0  0  0
 26 33  1  0  0  0  0
 27 41  1  0  0  0  0
 27 26  1  0  0  0  0
 28 24  1  0  0  0  0
 28 27  1  0  0  0  0
 29 31  1  0  0  0  0
 29 30  1  0  0  0  0
 32 29  1  0  0  0  0
 33 35  1  0  0  0  0
 33 36  1  0  0  0  0
 34 33  1  0  0  0  0
 37 39  1  0  0  0  0
 37 27  1  0  0  0  0
 38 37  1  0  0  0  0
 40 37  1  0  0  0  0
 41 43  1  0  0  0  0
 41 44  1  0  0  0  0
 42 41  1  0  0  0  0
M  END
