13,15
 OpenBabel05122313053D

 58 62  0  0  1  0  0  0  0  0999 V2000
   -1.3098    2.6317   -1.7373 N   0  0  0  0  0  0  0  0  0  0  0  0
    2.1463    2.1922   -0.3180 N   0  0  0  0  0  0  0  0  0  0  0  0
    0.8809    2.4998    1.7552 C   0  0  0  0  0  0  0  0  0  0  0  0
   -0.0655    2.5558    1.2011 H   0  0  0  0  0  0  0  0  0  0  0  0
   -1.3898    0.4006   -1.9341 C   0  0  0  0  0  0  0  0  0  0  0  0
   -0.0853    2.0597   -1.4448 C   0  0  1  0  0  3  0  0  0  0  0  0
    4.9695   -0.2292   -0.8570 N   0  0  0  0  0  0  0  0  0  0  0  0
   -1.6611    4.0520   -1.7186 C   0  0  0  0  0  0  0  0  0  0  0  0
   -2.4900    4.1818   -2.4433 H   0  0  0  0  0  0  0  0  0  0  0  0
   -0.8036    4.6219   -2.1331 H   0  0  0  0  0  0  0  0  0  0  0  0
    3.6430   -1.8243   -0.0079 C   0  0  0  0  0  0  0  0  0  0  0  0
    4.9589   -1.5722   -0.4792 C   0  0  0  0  0  0  0  0  0  0  0  0
   -0.0943    0.7376   -1.5597 N   0  0  0  0  0  2  0  0  0  0  0  0
    3.6995    0.2694   -0.6364 C   0  0  2  0  0  3  0  0  0  0  0  0
    2.8992   -0.6568   -0.1199 N   0  0  0  0  0  2  0  0  0  0  0  0
    6.0961    0.4465   -1.4913 C   0  0  0  0  0  0  0  0  0  0  0  0
    7.0195    0.0480   -1.0240 H   0  0  0  0  0  0  0  0  0  0  0  0
    6.0518    1.5212   -1.2234 H   0  0  0  0  0  0  0  0  0  0  0  0
    5.5642   -3.8352   -0.0275 C   0  0  0  0  0  0  0  0  0  0  0  0
    6.3040   -4.6495   -0.0261 H   0  0  0  0  0  0  0  0  0  0  0  0
    2.1101    2.2728    1.0871 C   0  0  0  0  0  0  0  0  0  0  0  0
    1.1344    2.8823   -1.0949 C   0  0  0  0  0  0  0  0  0  0  0  0
    1.5993    3.2444   -2.0402 H   0  0  0  0  0  0  0  0  0  0  0  0
    0.8188    3.7955   -0.5480 H   0  0  0  0  0  0  0  0  0  0  0  0
   -1.9676   -0.8602   -2.1792 C   0  0  0  0  0  0  0  0  0  0  0  0
   -1.3765   -1.7827   -2.0820 H   0  0  0  0  0  0  0  0  0  0  0  0
    4.2521   -4.0932    0.4413 C   0  0  0  0  0  0  0  0  0  0  0  0
    4.0001   -5.1039    0.7946 H   0  0  0  0  0  0  0  0  0  0  0  0
   -2.1778    1.5833   -2.0405 C   0  0  0  0  0  0  0  0  0  0  0  0
    3.2803    2.1042    1.8667 C   0  0  0  0  0  0  0  0  0  0  0  0
    4.2519    1.9154    1.3894 H   0  0  0  0  0  0  0  0  0  0  0  0
    5.9447   -2.5716   -0.5003 C   0  0  0  0  0  0  0  0  0  0  0  0
    6.9628   -2.3848   -0.8713 H   0  0  0  0  0  0  0  0  0  0  0  0
    3.3180    1.6892   -0.9901 C   0  0  0  0  0  0  0  0  0  0  0  0
    4.2123    2.3416   -0.8217 H   0  0  0  0  0  0  0  0  0  0  0  0
    3.1217    1.7233   -2.0822 H   0  0  0  0  0  0  0  0  0  0  0  0
    3.2696   -3.0968    0.4602 C   0  0  0  0  0  0  0  0  0  0  0  0
    2.2413   -3.2833    0.8090 H   0  0  0  0  0  0  0  0  0  0  0  0
   -4.0971    0.2859   -2.6132 C   0  0  0  0  0  0  0  0  0  0  0  0
   -5.1666    0.2091   -2.8586 H   0  0  0  0  0  0  0  0  0  0  0  0
   -2.0630    4.5818   -0.3431 C   0  0  0  0  0  0  0  0  0  0  0  0
   -2.9138    4.0133    0.0806 H   0  0  0  0  0  0  0  0  0  0  0  0
   -2.3570    5.6471   -0.4275 H   0  0  0  0  0  0  0  0  0  0  0  0
   -1.2265    4.5161    0.3809 H   0  0  0  0  0  0  0  0  0  0  0  0
    3.2146    2.1682    3.2655 C   0  0  0  0  0  0  0  0  0  0  0  0
    4.1378    2.0318    3.8494 H   0  0  0  0  0  0  0  0  0  0  0  0
    1.9953    2.3973    3.9208 C   0  0  0  0  0  0  0  0  0  0  0  0
    1.9506    2.4330    5.0189 H   0  0  0  0  0  0  0  0  0  0  0  0
    0.8315    2.5572    3.1529 C   0  0  0  0  0  0  0  0  0  0  0  0
   -0.1479    2.6977    3.6335 H   0  0  0  0  0  0  0  0  0  0  0  0
   -3.3237   -0.8974   -2.5221 C   0  0  0  0  0  0  0  0  0  0  0  0
   -3.8071   -1.8684   -2.7054 H   0  0  0  0  0  0  0  0  0  0  0  0
   -3.5407    1.5491   -2.3739 C   0  0  0  0  0  0  0  0  0  0  0  0
   -4.1566    2.4580   -2.4149 H   0  0  0  0  0  0  0  0  0  0  0  0
    6.1305    0.2604   -3.0078 C   0  0  0  0  0  0  0  0  0  0  0  0
    6.1808   -0.8139   -3.2736 H   0  0  0  0  0  0  0  0  0  0  0  0
    7.0180    0.7655   -3.4376 H   0  0  0  0  0  0  0  0  0  0  0  0
    5.2271    0.6878   -3.4873 H   0  0  0  0  0  0  0  0  0  0  0  0
  1  8  1  0  0  0  0
  1  6  1  0  0  0  0
  2 21  1  0  0  0  0
  3 49  1  0  0  0  0
  4  3  1  0  0  0  0
  5 13  1  0  0  0  0
  6 22  1  6  0  0  0
  7 14  1  0  0  0  0
  7 12  1  0  0  0  0
  8 41  1  0  0  0  0
  9  8  1  0  0  0  0
 10  8  1  0  0  0  0
 11 37  1  0  0  0  0
 12 11  2  0  0  0  0
 13  6  1  0  0  0  0
 14 34  1  6  0  0  0
 14 15  1  0  0  0  0
 15 11  1  0  0  0  0
 16 18  1  0  0  0  0
 16 17  1  0  0  0  0
 16  7  1  0  0  0  0
 19 20  1  0  0  0  0
 19 27  1  0  0  0  0
 21  3  2  0  0  0  0
 21 30  1  0  0  0  0
 22 24  1  0  0  0  0
 22  2  1  0  0  0  0
 23 22  1  0  0  0  0
 25 26  1  0  0  0  0
 25  5  2  0  0  0  0
 27 37  2  0  0  0  0
 27 28  1  0  0  0  0
 29  5  1  0  0  0  0
 29  1  1  0  0  0  0
 30 45  2  0  0  0  0
 31 30  1  0  0  0  0
 32 12  1  0  0  0  0
 32 19  2  0  0  0  0
 33 32  1  0  0  0  0
 34 35  1  0  0  0  0
 34  2  1  0  0  0  0
 36 34  1  0  0  0  0
 37 38  1  0  0  0  0
 39 51  2  0  0  0  0
 39 53  1  0  0  0  0
 40 39  1  0  0  0  0
 41 42  1  0  0  0  0
 41 44  1  0  0  0  0
 43 41  1  0  0  0  0
 45 46  1  0  0  0  0
 45 47  1  0  0  0  0
 47 48  1  0  0  0  0
 49 50  1  0  0  0  0
 49 47  2  0  0  0  0
 51 25  1  0  0  0  0
 52 51  1  0  0  0  0
 53 29  2  0  0  0  0
 54 53  1  0  0  0  0
 55 16  1  0  0  0  0
 56 55  1  0  0  0  0
 57 55  1  0  0  0  0
 58 55  1  0  0  0  0
M  END
