1,4
 OpenBabel05122313053D

 36 37  0  0  1  0  0  0  0  0999 V2000
    0.4200   -1.3615   -0.8144 N   0  0  0  0  0  0  0  0  0  0  0  0
   -0.3668   -1.8408   -1.3055 H   0  0  0  0  0  0  0  0  0  0  0  0
    1.6471    0.5911   -1.3231 N   0  0  0  0  0  0  0  0  0  0  0  0
    0.7237    1.2489   -0.5653 N   0  0  0  0  0  2  0  0  0  0  0  0
    1.2515    2.4564   -0.2682 C   0  0  2  0  0  3  0  0  0  0  0  0
    2.5339    2.5518   -0.8666 C   0  0  0  0  0  0  0  0  0  0  0  0
    3.2200    3.4029   -0.8086 H   0  0  0  0  0  0  0  0  0  0  0  0
    2.7659    1.3448   -1.5312 C   0  0  0  0  0  0  0  0  0  0  0  0
    0.5502    3.4623    0.5818 C   0  0  0  0  0  0  0  0  0  0  0  0
   -0.3269    3.8896    0.0565 H   0  0  0  0  0  0  0  0  0  0  0  0
    1.2422    4.2835    0.8459 H   0  0  0  0  0  0  0  0  0  0  0  0
    0.1568    2.9928    1.5032 H   0  0  0  0  0  0  0  0  0  0  0  0
    3.9426    0.8528   -2.3045 C   0  0  0  0  0  0  0  0  0  0  0  0
    4.7103    1.6456   -2.3615 H   0  0  0  0  0  0  0  0  0  0  0  0
    3.6769    0.5640   -3.3426 H   0  0  0  0  0  0  0  0  0  0  0  0
    4.4048   -0.0280   -1.8098 H   0  0  0  0  0  0  0  0  0  0  0  0
    1.2586   -0.7139   -1.8252 C   0  0  0  0  0  0  0  0  0  0  0  0
    2.1772   -1.2867   -2.0689 H   0  0  0  0  0  0  0  0  0  0  0  0
    0.6380   -0.6138   -2.7410 H   0  0  0  0  0  0  0  0  0  0  0  0
    2.1687   -1.5714    0.8131 N   0  0  0  0  0  0  0  0  0  0  0  0
    1.8489   -0.5256    1.6115 N   0  0  0  0  0  0  0  0  0  0  0  0
    3.0124    0.0499    1.9371 C   0  0  0  0  0  0  0  0  0  0  0  0
    4.1018   -0.6481    1.3322 C   0  0  0  0  0  0  0  0  0  0  0  0
    5.1725   -0.4372    1.4308 H   0  0  0  0  0  0  0  0  0  0  0  0
    3.5294   -1.6875    0.6036 C   0  0  0  0  0  0  0  0  0  0  0  0
    3.0446    1.2679    2.8041 C   0  0  0  0  0  0  0  0  0  0  0  0
    2.0279    1.4871    3.1801 H   0  0  0  0  0  0  0  0  0  0  0  0
    3.4011    2.1504    2.2329 H   0  0  0  0  0  0  0  0  0  0  0  0
    3.7234    1.1359    3.6708 H   0  0  0  0  0  0  0  0  0  0  0  0
    4.1591   -2.7750   -0.2070 C   0  0  0  0  0  0  0  0  0  0  0  0
    3.9145   -3.7838    0.1868 H   0  0  0  0  0  0  0  0  0  0  0  0
    5.2591   -2.6667   -0.1812 H   0  0  0  0  0  0  0  0  0  0  0  0
    3.8513   -2.7585   -1.2747 H   0  0  0  0  0  0  0  0  0  0  0  0
    1.0993   -2.2602    0.1384 C   0  0  0  0  0  0  0  0  0  0  0  0
    0.3274   -2.5832    0.8649 H   0  0  0  0  0  0  0  0  0  0  0  0
    1.5260   -3.1482   -0.3734 H   0  0  0  0  0  0  0  0  0  0  0  0
  1 34  1  0  0  0  0
  2  1  1  0  0  0  0
  3  4  1  0  0  0  0
  4  5  1  0  0  0  0
  5  9  1  1  0  0  0
  6  7  1  0  0  0  0
  6  5  1  0  0  0  0
  8  3  1  0  0  0  0
  8  6  2  0  0  0  0
  9 11  1  0  0  0  0
  9 12  1  0  0  0  0
 10  9  1  0  0  0  0
 13 16  1  0  0  0  0
 13  8  1  0  0  0  0
 14 13  1  0  0  0  0
 15 13  1  0  0  0  0
 17  3  1  0  0  0  0
 17  1  1  0  0  0  0
 18 17  1  0  0  0  0
 19 17  1  0  0  0  0
 20 21  1  0  0  0  0
 21 22  2  0  0  0  0
 22 26  1  0  0  0  0
 23 24  1  0  0  0  0
 23 22  1  0  0  0  0
 25 20  1  0  0  0  0
 25 23  2  0  0  0  0
 26 27  1  0  0  0  0
 26 29  1  0  0  0  0
 28 26  1  0  0  0  0
 30 32  1  0  0  0  0
 30 31  1  0  0  0  0
 30 25  1  0  0  0  0
 33 30  1  0  0  0  0
 34 20  1  0  0  0  0
 34 35  1  0  0  0  0
 36 34  1  0  0  0  0
M  END
