1,2
 OpenBabel05122313053D

 44 46  0  0  1  0  0  0  0  0999 V2000
   -0.1015    1.7916    0.8692 N   0  0  0  0  0  2  0  0  0  0  0  0
   -1.6085   -1.4955    0.8124 N   0  0  0  0  0  2  0  0  0  0  0  0
    1.1771   -0.7702    0.8588 N   0  0  0  0  0  0  0  0  0  0  0  0
   -0.5016    3.0659    0.7017 C   0  0  0  0  0  3  0  0  0  0  0  0
   -1.2188    3.2316   -0.1216 H   0  0  0  0  0  0  0  0  0  0  0  0
   -0.0665    4.1016    1.5381 C   0  0  0  0  0  0  0  0  0  0  0  0
   -0.4109    5.1310    1.3643 H   0  0  0  0  0  0  0  0  0  0  0  0
    0.8069    3.7870    2.5893 C   0  0  0  0  0  0  0  0  0  0  0  0
    1.1752    4.5719    3.2673 H   0  0  0  0  0  0  0  0  0  0  0  0
    1.2068    2.4564    2.7641 C   0  0  0  0  0  0  0  0  0  0  0  0
    1.8901    2.1711    3.5783 H   0  0  0  0  0  0  0  0  0  0  0  0
    0.7298    1.4731    1.8786 C   0  0  0  0  0  0  0  0  0  0  0  0
    1.0744    0.0073    2.0875 C   0  0  0  0  0  0  0  0  0  0  0  0
    1.9872   -0.0606    2.7253 H   0  0  0  0  0  0  0  0  0  0  0  0
    0.2503   -0.4238    2.6973 H   0  0  0  0  0  0  0  0  0  0  0  0
    0.7417   -2.1600    1.0030 C   0  0  0  0  0  0  0  0  0  0  0  0
    1.3642   -2.7477    1.7198 H   0  0  0  0  0  0  0  0  0  0  0  0
    0.8631   -2.6307    0.0008 H   0  0  0  0  0  0  0  0  0  0  0  0
   -0.7112   -2.3072    1.4073 C   0  0  2  0  0  3  0  0  0  0  0  0
   -1.1243   -3.2806    2.3340 C   0  0  0  0  0  0  0  0  0  0  0  0
   -0.3754   -3.9249    2.8184 H   0  0  0  0  0  0  0  0  0  0  0  0
   -2.4897   -3.4128    2.6243 C   0  0  0  0  0  0  0  0  0  0  0  0
   -2.8326   -4.1714    3.3443 H   0  0  0  0  0  0  0  0  0  0  0  0
   -3.4073   -2.5613    1.9931 C   0  0  0  0  0  0  0  0  0  0  0  0
   -4.4858   -2.6270    2.1957 H   0  0  0  0  0  0  0  0  0  0  0  0
   -2.9191   -1.6059    1.0912 C   0  0  0  0  0  0  0  0  0  0  0  0
   -3.5744   -0.8874    0.5644 H   0  0  0  0  0  0  0  0  0  0  0  0
    2.4793   -0.6712    0.1459 C   0  0  0  0  0  0  0  0  0  0  0  0
    2.3160   -1.2522   -0.7888 H   0  0  0  0  0  0  0  0  0  0  0  0
    2.8113    0.7585   -0.3003 C   0  0  0  0  0  0  0  0  0  0  0  0
    2.9810    1.4110    0.5851 H   0  0  0  0  0  0  0  0  0  0  0  0
    1.9509    1.1770   -0.8590 H   0  0  0  0  0  0  0  0  0  0  0  0
    4.0660    0.7703   -1.1830 C   0  0  0  0  0  0  0  0  0  0  0  0
    3.8447    0.2052   -2.1149 H   0  0  0  0  0  0  0  0  0  0  0  0
    4.2969    1.8099   -1.4947 H   0  0  0  0  0  0  0  0  0  0  0  0
    5.2669    0.1420   -0.4667 C   0  0  0  0  0  0  0  0  0  0  0  0
    6.1527    0.1210   -1.1354 H   0  0  0  0  0  0  0  0  0  0  0  0
    5.5476    0.7765    0.4048 H   0  0  0  0  0  0  0  0  0  0  0  0
    4.9380   -1.2717    0.0269 C   0  0  0  0  0  0  0  0  0  0  0  0
    5.7947   -1.7014    0.5873 H   0  0  0  0  0  0  0  0  0  0  0  0
    4.7736   -1.9348   -0.8514 H   0  0  0  0  0  0  0  0  0  0  0  0
    3.6749   -1.2867    0.9009 C   0  0  0  0  0  0  0  0  0  0  0  0
    3.8726   -0.7112    1.8341 H   0  0  0  0  0  0  0  0  0  0  0  0
    3.4493   -2.3281    1.2120 H   0  0  0  0  0  0  0  0  0  0  0  0
  1 12  1  0  0  0  0
  2 26  1  0  0  0  0
  2 19  1  0  0  0  0
  3 16  1  0  0  0  0
  3 13  1  0  0  0  0
  4  1  1  0  0  0  0
  4  6  1  0  0  0  0
  5  4  1  0  0  0  0
  6  8  2  0  0  0  0
  7  6  1  0  0  0  0
  8 10  1  0  0  0  0
  8  9  1  0  0  0  0
 10 11  1  0  0  0  0
 12 13  1  0  0  0  0
 12 10  2  0  0  0  0
 13 15  1  0  0  0  0
 13 14  1  0  0  0  0
 16 17  1  0  0  0  0
 18 16  1  0  0  0  0
 19 16  1  6  0  0  0
 19 20  1  0  0  0  0
 20 22  2  0  0  0  0
 20 21  1  0  0  0  0
 22 23  1  0  0  0  0
 24 25  1  0  0  0  0
 24 22  1  0  0  0  0
 26 24  2  0  0  0  0
 27 26  1  0  0  0  0
 28  3  1  0  0  0  0
 28 42  1  0  0  0  0
 29 28  1  0  0  0  0
 30 28  1  0  0  0  0
 30 31  1  0  0  0  0
 32 30  1  0  0  0  0
 33 36  1  0  0  0  0
 33 30  1  0  0  0  0
 34 33  1  0  0  0  0
 35 33  1  0  0  0  0
 36 39  1  0  0  0  0
 36 38  1  0  0  0  0
 37 36  1  0  0  0  0
 39 40  1  0  0  0  0
 39 42  1  0  0  0  0
 41 39  1  0  0  0  0
 42 44  1  0  0  0  0
 42 43  1  0  0  0  0
M  END
