1,3
 OpenBabel05122313053D

 30 32  0  0  0  0  0  0  0  0999 V2000
   -0.6402    0.6653   -0.6659 N   0  0  0  0  0  2  0  0  0  0  0  0
   -0.5995    1.9519   -0.7582 N   0  0  0  0  0  0  0  0  0  0  0  0
    1.6879    1.6464   -0.2792 N   0  0  0  0  0  2  0  0  0  0  0  0
   -1.8878    0.0481   -0.7710 C   0  0  0  0  0  0  0  0  0  0  0  0
    0.6578    2.4856   -0.6088 C   0  0  0  0  0  0  0  0  0  0  0  0
   -3.0745    0.5879   -0.1210 C   0  0  0  0  0  0  0  0  0  0  0  0
   -5.4413    1.4459    1.2318 C   0  0  0  0  0  0  0  0  0  0  0  0
   -6.3481    1.7899    1.7498 H   0  0  0  0  0  0  0  0  0  0  0  0
    2.9467    2.1212   -0.2461 C   0  0  0  0  0  0  0  0  0  0  0  0
    3.7402    1.3896   -0.0387 H   0  0  0  0  0  0  0  0  0  0  0  0
    3.2327    3.4723   -0.4768 C   0  0  0  0  0  0  0  0  0  0  0  0
    4.2744    3.8188   -0.4319 H   0  0  0  0  0  0  0  0  0  0  0  0
   -4.3023   -0.1612   -0.2191 C   0  0  0  0  0  0  0  0  0  0  0  0
    2.1782    4.3562   -0.7678 C   0  0  0  0  0  0  0  0  0  0  0  0
    2.3776    5.4220   -0.9513 H   0  0  0  0  0  0  0  0  0  0  0  0
   -5.4665    0.2923    0.4585 C   0  0  0  0  0  0  0  0  0  0  0  0
   -6.3909   -0.2974    0.3628 H   0  0  0  0  0  0  0  0  0  0  0  0
   -3.0839    1.7654    0.6755 C   0  0  0  0  0  0  0  0  0  0  0  0
   -2.1796    2.3807    0.7459 H   0  0  0  0  0  0  0  0  0  0  0  0
    0.8752    3.8594   -0.8419 C   0  0  0  0  0  0  0  0  0  0  0  0
    0.0125    4.4886   -1.0985 H   0  0  0  0  0  0  0  0  0  0  0  0
   -1.9626   -1.1710   -1.5121 C   0  0  0  0  0  0  0  0  0  0  0  0
   -4.2363    2.1749    1.3441 C   0  0  0  0  0  0  0  0  0  0  0  0
   -4.2068    3.0905    1.9534 H   0  0  0  0  0  0  0  0  0  0  0  0
   -4.3354   -1.3647   -0.9900 C   0  0  0  0  0  0  0  0  0  0  0  0
   -5.2903   -1.9044   -1.0815 H   0  0  0  0  0  0  0  0  0  0  0  0
   -3.2100   -1.8507   -1.6171 C   0  0  0  0  0  0  0  0  0  0  0  0
   -3.2318   -2.7635   -2.2288 H   0  0  0  0  0  0  0  0  0  0  0  0
   -0.9553   -1.7392   -2.1684 O   0  0  0  0  0  0  0  0  0  0  0  0
   -0.0992   -1.2121   -2.2017 H   0  0  0  0  0  0  0  0  0  0  0  0
  2  1  1  0  0  0  0
  2  5  2  0  0  0  0
  3  9  1  0  0  0  0
  4  1  1  0  0  0  0
  4  6  1  0  0  0  0
  5  3  1  0  0  0  0
  6 18  1  0  0  0  0
  7 23  1  0  0  0  0
  7  8  1  0  0  0  0
  9 10  1  0  0  0  0
 11 12  1  0  0  0  0
 11  9  2  0  0  0  0
 13  6  2  0  0  0  0
 13 16  1  0  0  0  0
 14 11  1  0  0  0  0
 15 14  1  0  0  0  0
 16  7  2  0  0  0  0
 17 16  1  0  0  0  0
 18 19  1  0  0  0  0
 18 23  2  0  0  0  0
 20 14  2  0  0  0  0
 20  5  1  0  0  0  0
 21 20  1  0  0  0  0
 22  4  2  0  0  0  0
 23 24  1  0  0  0  0
 25 13  1  0  0  0  0
 26 25  1  0  0  0  0
 27 22  1  0  0  0  0
 27 25  2  0  0  0  0
 28 27  1  0  0  0  0
 29 22  1  0  0  0  0
 30 29  1  0  0  0  0
M  END
