1,2
 OpenBabel05122313053D

 31 33  0  0  1  0  0  0  0  0999 V2000
    0.3279   -0.1742   -0.3575 N   0  0  0  0  0  2  0  0  0  0  0  0
   -2.1597    0.6484    0.1482 N   0  0  0  0  0  2  0  0  0  0  0  0
    1.3189    1.7949   -0.0586 N   0  0  0  0  0  0  0  0  0  0  0  0
    2.3374    0.8078   -0.1744 C   0  0  0  0  0  0  0  0  0  0  0  0
   -1.6933    2.9762   -0.2552 C   0  0  0  0  0  0  0  0  0  0  0  0
   -0.9849    3.7780   -0.4992 H   0  0  0  0  0  0  0  0  0  0  0  0
   -1.2593    1.6440   -0.0781 C   0  0  2  0  0  3  0  0  0  0  0  0
    3.5853   -1.8010   -0.5375 O   0  0  0  0  0  0  0  0  0  0  0  0
    0.1074    1.1447   -0.1743 C   0  0  2  0  0  3  0  0  0  0  0  0
   -3.4713    0.9097    0.1745 C   0  0  0  0  0  0  0  0  0  0  0  0
   -4.1245    0.0279    0.2838 H   0  0  0  0  0  0  0  0  0  0  0  0
    1.6560   -0.4147   -0.3538 C   0  0  0  0  0  0  0  0  0  0  0  0
   -3.9760    2.2108    0.0391 C   0  0  0  0  0  0  0  0  0  0  0  0
   -5.0583    2.3941    0.0861 H   0  0  0  0  0  0  0  0  0  0  0  0
    2.1812   -1.8120   -0.4213 C   0  0  0  0  0  0  0  0  0  0  0  0
    1.8295   -2.3397    0.5044 H   0  0  0  0  0  0  0  0  0  0  0  0
    1.6978   -2.3461   -1.2791 H   0  0  0  0  0  0  0  0  0  0  0  0
    1.6425    3.1178    0.1903 C   0  0  0  0  0  0  0  0  0  0  0  0
    0.8095    3.8143    0.3317 H   0  0  0  0  0  0  0  0  0  0  0  0
    2.9633    3.4890    0.2797 C   0  0  0  0  0  0  0  0  0  0  0  0
    3.1956    4.5439    0.4805 H   0  0  0  0  0  0  0  0  0  0  0  0
   -3.0637    3.2545   -0.1780 C   0  0  0  0  0  0  0  0  0  0  0  0
   -3.4196    4.2867   -0.3150 H   0  0  0  0  0  0  0  0  0  0  0  0
    4.0109    2.5288    0.1280 C   0  0  0  0  0  0  0  0  0  0  0  0
    5.0598    2.8489    0.1974 H   0  0  0  0  0  0  0  0  0  0  0  0
    3.6956    1.1996   -0.0894 C   0  0  0  0  0  0  0  0  0  0  0  0
    4.4485    0.4084   -0.1932 H   0  0  0  0  0  0  0  0  0  0  0  0
    4.1379   -3.0977   -0.4885 C   0  0  0  0  0  0  0  0  0  0  0  0
    3.8962   -3.6172    0.4693 H   0  0  0  0  0  0  0  0  0  0  0  0
    5.2368   -2.9972   -0.5752 H   0  0  0  0  0  0  0  0  0  0  0  0
    3.7701   -3.7378   -1.3263 H   0  0  0  0  0  0  0  0  0  0  0  0
  1 12  1  0  0  0  0
  2 10  1  0  0  0  0
  3 18  1  0  0  0  0
  4 26  1  0  0  0  0
  4  3  1  0  0  0  0
  5 22  2  0  0  0  0
  6  5  1  0  0  0  0
  7  5  1  6  0  0  0
  7  2  1  0  0  0  0
  8 28  1  0  0  0  0
  8 15  1  0  0  0  0
  9  1  1  1  0  0  0
  9  7  1  0  0  0  0
  9  3  1  0  0  0  0
 10 11  1  0  0  0  0
 12  4  2  0  0  0  0
 13 14  1  0  0  0  0
 13 10  2  0  0  0  0
 15 12  1  0  0  0  0
 15 16  1  0  0  0  0
 17 15  1  0  0  0  0
 18 20  2  0  0  0  0
 18 19  1  0  0  0  0
 20 21  1  0  0  0  0
 22 13  1  0  0  0  0
 23 22  1  0  0  0  0
 24 25  1  0  0  0  0
 24 20  1  0  0  0  0
 26 24  2  0  0  0  0
 27 26  1  0  0  0  0
 28 29  1  0  0  0  0
 30 28  1  0  0  0  0
 31 28  1  0  0  0  0
M  END
