34,42
 OpenBabel05122313053D

 44 46  0  0  1  0  0  0  0  0999 V2000
    0.6482    0.5943    0.4813 N   0  0  0  0  0  0  0  0  0  0  0  0
    0.9633    0.1144    1.7145 N   0  0  0  0  0  0  0  0  0  0  0  0
    2.2053   -0.2865    1.6786 N   0  0  0  0  0  0  0  0  0  0  0  0
    2.7216   -0.0749    0.4232 C   0  0  0  0  0  0  0  0  0  0  0  0
    1.7090    0.4888   -0.3587 C   0  0  0  0  0  0  0  0  0  0  0  0
    1.6499    0.7911   -1.4071 H   0  0  0  0  0  0  0  0  0  0  0  0
    4.1033   -0.4286    0.0758 C   0  0  0  0  0  0  0  0  0  0  0  0
    4.5953   -0.2737   -1.2388 C   0  0  0  0  0  0  0  0  0  0  0  0
    3.9352    0.1123   -2.0303 H   0  0  0  0  0  0  0  0  0  0  0  0
    5.9177   -0.6160   -1.5493 C   0  0  0  0  0  0  0  0  0  0  0  0
    6.2849   -0.4911   -2.5793 H   0  0  0  0  0  0  0  0  0  0  0  0
    6.7707   -1.1193   -0.5535 C   0  0  0  0  0  0  0  0  0  0  0  0
    7.8094   -1.3882   -0.7990 H   0  0  0  0  0  0  0  0  0  0  0  0
    6.2887   -1.2789    0.7563 C   0  0  0  0  0  0  0  0  0  0  0  0
    6.9508   -1.6740    1.5421 H   0  0  0  0  0  0  0  0  0  0  0  0
    4.9676   -0.9378    1.0707 C   0  0  0  0  0  0  0  0  0  0  0  0
    4.5758   -1.0579    2.0909 H   0  0  0  0  0  0  0  0  0  0  0  0
   -0.6860    1.1193    0.1850 C   0  0  2  0  0  0  0  0  0  0  0  0
   -0.9787    0.6704   -0.7897 H   0  0  0  0  0  0  0  0  0  0  0  0
   -0.7123    2.6314    0.0482 C   0  0  0  0  0  0  0  0  0  0  0  0
    0.1782    3.4546    0.7600 C   0  0  0  0  0  0  0  0  0  0  0  0
    0.9448    2.9993    1.4058 H   0  0  0  0  0  0  0  0  0  0  0  0
    0.0914    4.8504    0.6412 C   0  0  0  0  0  0  0  0  0  0  0  0
    0.7949    5.4896    1.1961 H   0  0  0  0  0  0  0  0  0  0  0  0
   -0.8873    5.4292   -0.1819 C   0  0  0  0  0  0  0  0  0  0  0  0
   -0.9518    6.5239   -0.2758 H   0  0  0  0  0  0  0  0  0  0  0  0
   -1.7823    4.6082   -0.8876 C   0  0  0  0  0  0  0  0  0  0  0  0
   -2.5505    5.0568   -1.5356 H   0  0  0  0  0  0  0  0  0  0  0  0
   -1.6957    3.2133   -0.7755 C   0  0  0  0  0  0  0  0  0  0  0  0
   -2.3983    2.5611   -1.3205 H   0  0  0  0  0  0  0  0  0  0  0  0
   -1.6944    0.6473    1.2425 C   0  0  0  0  0  0  0  0  0  0  0  0
   -1.4422    1.0860    2.2316 H   0  0  0  0  0  0  0  0  0  0  0  0
   -2.6899    1.0102    0.9197 H   0  0  0  0  0  0  0  0  0  0  0  0
   -1.7434   -0.8219    1.2879 N   0  0  0  0  0  0  0  0  0  0  0  0
   -0.8160   -1.1424    1.6186 H   0  0  0  0  0  0  0  0  0  0  0  0
   -2.8135   -1.3894    2.1178 C   0  0  0  0  0  0  0  0  0  0  0  0
   -3.7573   -0.8765    1.8341 H   0  0  0  0  0  0  0  0  0  0  0  0
   -2.6467   -1.2235    3.2059 H   0  0  0  0  0  0  0  0  0  0  0  0
   -2.9409   -2.8882    1.8294 C   0  0  0  0  0  0  0  0  0  0  0  0
   -1.9862   -3.3973    2.0785 H   0  0  0  0  0  0  0  0  0  0  0  0
   -3.7267   -3.3301    2.4798 H   0  0  0  0  0  0  0  0  0  0  0  0
   -3.2029   -3.1028    0.3910 N   0  0  0  0  0  0  0  0  0  0  0  0
   -4.1778   -2.8680    0.1499 H   0  0  0  0  0  0  0  0  0  0  0  0
   -3.0316   -4.0757    0.1095 H   0  0  0  0  0  0  0  0  0  0  0  0
  1  2  1  0  0  0  0
  3  2  2  0  0  0  0
  4  3  1  0  0  0  0
  5  4  2  0  0  0  0
  5  1  1  0  0  0  0
  6  5  1  0  0  0  0
  7  4  1  0  0  0  0
  7 16  1  0  0  0  0
  8  7  2  0  0  0  0
  9  8  1  0  0  0  0
 10  8  1  0  0  0  0
 10 12  2  0  0  0  0
 11 10  1  0  0  0  0
 12 14  1  0  0  0  0
 13 12  1  0  0  0  0
 14 16  2  0  0  0  0
 14 15  1  0  0  0  0
 16 17  1  0  0  0  0
 18 19  1  6  0  0  0
 18  1  1  0  0  0  0
 18 31  1  0  0  0  0
 20 18  1  0  0  0  0
 20 21  1  0  0  0  0
 21 22  1  0  0  0  0
 23 21  2  0  0  0  0
 23 24  1  0  0  0  0
 25 23  1  0  0  0  0
 26 25  1  0  0  0  0
 27 29  1  0  0  0  0
 27 25  2  0  0  0  0
 28 27  1  0  0  0  0
 29 20  2  0  0  0  0
 30 29  1  0  0  0  0
 31 34  1  0  0  0  0
 31 32  1  0  0  0  0
 33 31  1  0  0  0  0
 34 35  1  0  0  0  0
 34 36  1  0  0  0  0
 36 38  1  0  0  0  0
 37 36  1  0  0  0  0
 39 40  1  0  0  0  0
 39 36  1  0  0  0  0
 39 41  1  0  0  0  0
 42 39  1  0  0  0  0
 43 42  1  0  0  0  0
 44 42  1  0  0  0  0
M  END
