1,2
 OpenBabel05122313053D

 13 12  0  0  0  0  0  0  0  0999 V2000
   -0.2250   -1.3841   -0.6951 N   0  0  0  0  0  2  0  0  0  0  0  0
   -2.1345    0.0090    0.2274 N   0  0  0  0  0  2  0  0  0  0  0  0
   -1.3979   -2.0834   -0.4741 C   0  0  0  0  0  0  0  0  0  0  0  0
   -2.4488   -1.2534    0.0295 C   0  0  0  0  0  0  0  0  0  0  0  0
   -1.5051   -3.4707   -0.7322 C   0  0  0  0  0  0  0  0  0  0  0  0
   -4.6949   -1.0134    0.7492 C   0  0  0  0  0  0  0  0  0  0  0  0
   -4.4327   -0.5797    1.7394 H   0  0  0  0  0  0  0  0  0  0  0  0
   -5.5700   -1.6768    0.8646 H   0  0  0  0  0  0  0  0  0  0  0  0
   -4.9524   -0.1939    0.0422 H   0  0  0  0  0  0  0  0  0  0  0  0
   -3.6437   -1.8257    0.2431 O   0  0  0  0  0  0  0  0  0  0  0  0
   -1.6040   -4.6268   -0.9287 N   0  0  0  0  0  0  0  0  0  0  0  0
    0.7532   -1.9807   -1.1698 O   0  0  0  0  0  1  0  0  0  0  0  0
   -2.8767    0.6438    0.5306 H   0  0  0  0  0  0  0  0  0  0  0  0
  1  3  1  0  0  0  0
  2 13  1  0  0  0  0
  3  4  2  0  0  0  0
  4  2  1  0  0  0  0
  4 10  1  0  0  0  0
  5  3  1  0  0  0  0
  6  8  1  0  0  0  0
  6  7  1  0  0  0  0
  9  6  1  0  0  0  0
 10  6  1  0  0  0  0
 11  5  3  0  0  0  0
 12  1  1  0  0  0  0
M  END
