1,3
 OpenBabel05122313053D

 22 23  0  0  0  0  0  0  0  0999 V2000
   -1.8109    0.7257   -0.0000 N   0  0  0  0  0  2  0  0  0  0  0  0
    0.1307    2.0627    0.0000 N   0  0  0  0  0  2  0  0  0  0  0  0
    0.7262    0.9155    0.0001 N   0  0  0  0  0  2  0  0  0  0  0  0
    2.7676   -0.1971    0.0003 N   0  0  0  0  0  0  0  0  0  0  0  0
   -3.1525    0.6231    0.0001 C   0  0  0  0  0  3  0  0  0  0  0  0
   -3.9869    1.7475    0.0002 C   0  0  0  0  0  0  0  0  0  0  0  0
   -3.4105    3.0307    0.0001 C   0  0  0  0  0  0  0  0  0  0  0  0
   -2.0205    3.1457    0.0000 C   0  0  0  0  0  0  0  0  0  0  0  0
   -1.2395    1.9699    0.0000 C   0  0  0  0  0  0  0  0  0  0  0  0
    2.1499    0.9856    0.0001 C   0  0  0  0  0  0  0  0  0  0  0  0
    2.8424    2.2158   -0.0001 C   0  0  0  0  0  0  0  0  0  0  0  0
    4.2398    2.1718   -0.0001 C   0  0  0  0  0  0  0  0  0  0  0  0
    4.8912    0.9270    0.0001 C   0  0  0  0  0  0  0  0  0  0  0  0
    4.1016   -0.2362    0.0003 C   0  0  0  0  0  0  0  0  0  0  0  0
   -3.5680   -0.3942    0.0001 H   0  0  0  0  0  0  0  0  0  0  0  0
   -5.0770    1.6100    0.0002 H   0  0  0  0  0  0  0  0  0  0  0  0
   -4.0444    3.9294    0.0001 H   0  0  0  0  0  0  0  0  0  0  0  0
   -1.5028    4.1139    0.0000 H   0  0  0  0  0  0  0  0  0  0  0  0
    2.2766    3.1558   -0.0003 H   0  0  0  0  0  0  0  0  0  0  0  0
    4.8204    3.1065   -0.0003 H   0  0  0  0  0  0  0  0  0  0  0  0
    5.9885    0.8557    0.0002 H   0  0  0  0  0  0  0  0  0  0  0  0
    4.5593   -1.2406    0.0005 H   0  0  0  0  0  0  0  0  0  0  0  0
  1  9  1  0  0  0  0
  1  5  1  0  0  0  0
  2  3  1  0  0  0  0
  4 14  1  0  0  0  0
  5 15  1  0  0  0  0
  5  6  1  0  0  0  0
  6 16  1  0  0  0  0
  7 17  1  0  0  0  0
  7  6  2  0  0  0  0
  8  7  1  0  0  0  0
  9  2  1  0  0  0  0
  9  8  2  0  0  0  0
 10  3  1  0  0  0  0
 10  4  2  0  0  0  0
 11 12  2  0  0  0  0
 11 10  1  0  0  0  0
 12 13  1  0  0  0  0
 13 21  1  0  0  0  0
 13 14  2  0  0  0  0
 14 22  1  0  0  0  0
 18  8  1  0  0  0  0
 19 11  1  0  0  0  0
 20 12  1  0  0  0  0
M  END
