32
 OpenBabel05122313053D

 32 33  0  0  0  0  0  0  0  0999 V2000
   -1.6579    2.4037    1.4079 C   0  0  0  0  0  0  0  0  0  0  0  0
   -2.2588    2.7664    2.2755 H   0  0  0  0  0  0  0  0  0  0  0  0
   -0.6576    2.1040    1.7806 H   0  0  0  0  0  0  0  0  0  0  0  0
   -1.6099    3.4631    0.2935 C   0  0  0  0  0  0  0  0  0  0  0  0
   -0.6023    3.5104   -0.1586 H   0  0  0  0  0  0  0  0  0  0  0  0
   -1.8242    4.4680    0.7053 H   0  0  0  0  0  0  0  0  0  0  0  0
   -2.6656    3.0053   -0.7453 C   0  0  0  0  0  0  0  0  0  0  0  0
   -3.3802    3.8038   -1.0219 H   0  0  0  0  0  0  0  0  0  0  0  0
   -2.1795    2.6495   -1.6749 H   0  0  0  0  0  0  0  0  0  0  0  0
   -3.3769    1.8222   -0.0853 C   0  0  0  0  0  0  0  0  0  0  0  0
   -4.2436    2.1547    0.5369 H   0  0  0  0  0  0  0  0  0  0  0  0
   -3.7177    1.0766   -0.8298 H   0  0  0  0  0  0  0  0  0  0  0  0
   -2.8809    0.3076    1.8059 C   0  0  0  0  0  0  0  0  0  0  0  0
   -3.7447    0.7700    2.3421 H   0  0  0  0  0  0  0  0  0  0  0  0
   -2.0902    0.1235    2.5628 H   0  0  0  0  0  0  0  0  0  0  0  0
   -3.3073   -1.0114    1.1694 C   0  0  0  0  0  0  0  0  0  0  0  0
   -3.8087   -1.6571    1.9296 H   0  0  0  0  0  0  0  0  0  0  0  0
   -4.0466   -0.8172    0.3668 H   0  0  0  0  0  0  0  0  0  0  0  0
   -2.5261   -2.7218   -0.4372 C   0  0  0  0  0  0  0  0  0  0  0  0
   -2.9235   -2.2178   -1.3406 H   0  0  0  0  0  0  0  0  0  0  0  0
   -3.3014   -3.4060   -0.0147 H   0  0  0  0  0  0  0  0  0  0  0  0
   -1.2041   -3.4518   -0.6799 C   0  0  0  0  0  0  0  0  0  0  0  0
   -0.6356   -2.9062   -1.4606 H   0  0  0  0  0  0  0  0  0  0  0  0
   -1.3603   -4.4859   -1.0412 H   0  0  0  0  0  0  0  0  0  0  0  0
   -0.4641   -3.3808    0.6825 C   0  0  0  0  0  0  0  0  0  0  0  0
   -0.3683   -4.3704    1.1688 H   0  0  0  0  0  0  0  0  0  0  0  0
    0.5583   -2.9779    0.5593 H   0  0  0  0  0  0  0  0  0  0  0  0
   -1.3135   -2.4324    1.5454 C   0  0  0  0  0  0  0  0  0  0  0  0
   -1.9713   -2.9991    2.2477 H   0  0  0  0  0  0  0  0  0  0  0  0
   -0.6992   -1.7281    2.1407 H   0  0  0  0  0  0  0  0  0  0  0  0
   -2.3411    1.2331    0.8010 N   0  0  0  0  0  0  0  0  0  0  0  0
   -2.1599   -1.7015    0.5716 N   0  0  0  0  0  0  0  0  0  0  0  0
  1  3  1  0  0  0  0
  1  2  1  0  0  0  0
  4  6  1  0  0  0  0
  4  1  1  0  0  0  0
  5  4  1  0  0  0  0
  7 10  1  0  0  0  0
  7  4  1  0  0  0  0
  8  7  1  0  0  0  0
  9  7  1  0  0  0  0
 10 11  1  0  0  0  0
 10 31  1  0  0  0  0
 12 10  1  0  0  0  0
 13 14  1  0  0  0  0
 13 15  1  0  0  0  0
 16 13  1  0  0  0  0
 16 17  1  0  0  0  0
 18 16  1  0  0  0  0
 19 21  1  0  0  0  0
 19 32  1  0  0  0  0
 20 19  1  0  0  0  0
 22 19  1  0  0  0  0
 22 25  1  0  0  0  0
 23 22  1  0  0  0  0
 24 22  1  0  0  0  0
 25 26  1  0  0  0  0
 25 28  1  0  0  0  0
 27 25  1  0  0  0  0
 28 30  1  0  0  0  0
 28 29  1  0  0  0  0
 31  1  1  0  0  0  0
 31 13  1  0  0  0  0
 32 16  1  0  0  0  0
 32 28  1  0  0  0  0
M  END
