2,10
 OpenBabel05122313053D

 24 26  0  0  1  0  0  0  0  0999 V2000
   -0.7863    2.3506   -0.3469 N   0  0  2  0  0  0  0  0  0  0  0  0
   -1.7850    1.4241   -0.4334 N   0  0  0  0  0  2  0  0  0  0  0  0
    0.5336    1.8950   -0.2719 C   0  0  1  0  0  3  0  0  0  0  0  0
   -1.3001    3.6260   -0.3308 C   0  0  0  0  0  3  0  0  0  0  0  0
   -0.6548    4.5065   -0.2650 H   0  0  0  0  0  0  0  0  0  0  0  0
   -2.9333    2.1092   -0.4690 C   0  0  0  0  0  0  0  0  0  0  0  0
   -3.8834    1.5669   -0.5243 H   0  0  0  0  0  0  0  0  0  0  0  0
   -2.6790    3.5034   -0.4103 C   0  0  0  0  0  0  0  0  0  0  0  0
   -3.4115    4.3159   -0.4208 H   0  0  0  0  0  0  0  0  0  0  0  0
    0.6697    0.5443   -0.3257 N   0  0  0  0  0  2  0  0  0  0  0  0
    1.8675   -0.0211   -0.2731 N   0  0  0  0  0  0  0  0  0  0  0  0
    2.9489    0.7496   -0.1518 C   0  0  0  0  0  0  0  0  0  0  0  0
    2.9029    2.1642   -0.0934 C   0  0  0  0  0  0  0  0  0  0  0  0
    3.8352    2.7341    0.0042 H   0  0  0  0  0  0  0  0  0  0  0  0
    1.6470    2.7474   -0.1604 C   0  0  0  0  0  0  0  0  0  0  0  0
    1.5248    3.8376   -0.1168 H   0  0  0  0  0  0  0  0  0  0  0  0
    4.1693    0.0668   -0.0793 N   0  0  0  0  0  0  0  0  0  0  0  0
    5.3336    0.7653   -0.0172 N   0  0  0  0  0  0  0  0  0  0  0  0
    4.3578   -1.3008   -0.0536 C   0  0  0  0  0  0  0  0  0  0  0  0
    3.5034   -1.9845   -0.0875 H   0  0  0  0  0  0  0  0  0  0  0  0
    6.2778   -0.1726    0.0470 C   0  0  0  0  0  0  0  0  0  0  0  0
    7.3328    0.1247    0.1058 H   0  0  0  0  0  0  0  0  0  0  0  0
    5.7261   -1.4898    0.0284 C   0  0  0  0  0  0  0  0  0  0  0  0
    6.2575   -2.4459    0.0733 H   0  0  0  0  0  0  0  0  0  0  0  0
  1  2  1  1  0  0  0
  1  4  1  0  0  0  0
  1  3  1  0  0  0  0
  3 10  1  6  0  0  0
  3 15  1  0  0  0  0
  4  5  1  0  0  0  0
  6  2  1  0  0  0  0
  6  8  2  0  0  0  0
  7  6  1  0  0  0  0
  8  4  1  0  0  0  0
  9  8  1  0  0  0  0
 10 11  1  0  0  0  0
 11 12  2  0  0  0  0
 12 13  1  0  0  0  0
 12 17  1  0  0  0  0
 13 14  1  0  0  0  0
 15 16  1  0  0  0  0
 15 13  2  0  0  0  0
 17 19  1  0  0  0  0
 17 18  1  0  0  0  0
 18 21  2  0  0  0  0
 19 23  2  0  0  0  0
 20 19  1  0  0  0  0
 21 22  1  0  0  0  0
 23 21  1  0  0  0  0
 23 24  1  0  0  0  0
M  END
