1,2
 OpenBabel05122313053D

 33 34  0  0  0  0  0  0  0  0999 V2000
   -2.2169    0.8941   -0.0908 N   0  0  0  0  0  2  0  0  0  0  0  0
    0.4107    0.8187   -0.2835 N   0  0  0  0  0  2  0  0  0  0  0  0
   -1.5859    2.0751   -0.4063 C   0  0  0  0  0  0  0  0  0  0  0  0
   -0.1475    1.9908   -0.4765 C   0  0  0  0  0  0  0  0  0  0  0  0
    0.4598    2.8922   -0.6759 H   0  0  0  0  0  0  0  0  0  0  0  0
    1.8410    0.7481   -0.2279 C   0  0  0  0  0  0  0  0  0  0  0  0
    2.5042    1.2528    0.9200 C   0  0  0  0  0  0  0  0  0  0  0  0
    3.9019    1.1176    0.9893 C   0  0  0  0  0  0  0  0  0  0  0  0
    4.4205    1.4927    1.8865 H   0  0  0  0  0  0  0  0  0  0  0  0
    4.6509    0.5243   -0.0417 C   0  0  0  0  0  0  0  0  0  0  0  0
    3.9578    0.0617   -1.1742 C   0  0  0  0  0  0  0  0  0  0  0  0
    4.5233   -0.3904   -2.0051 H   0  0  0  0  0  0  0  0  0  0  0  0
    2.5599    0.1498   -1.2912 C   0  0  0  0  0  0  0  0  0  0  0  0
    1.8684   -0.3813   -2.5191 C   0  0  0  0  0  0  0  0  0  0  0  0
    2.5725   -0.4424   -3.3708 H   0  0  0  0  0  0  0  0  0  0  0  0
    1.0052    0.2420   -2.8219 H   0  0  0  0  0  0  0  0  0  0  0  0
    1.4755   -1.4031   -2.3384 H   0  0  0  0  0  0  0  0  0  0  0  0
    6.1453    0.3608    0.0742 C   0  0  0  0  0  0  0  0  0  0  0  0
    6.6443    0.4538   -0.9109 H   0  0  0  0  0  0  0  0  0  0  0  0
    6.4041   -0.6429    0.4753 H   0  0  0  0  0  0  0  0  0  0  0  0
    6.5878    1.1107    0.7590 H   0  0  0  0  0  0  0  0  0  0  0  0
    1.7430    1.8973    2.0515 C   0  0  0  0  0  0  0  0  0  0  0  0
    2.3886    2.0113    2.9425 H   0  0  0  0  0  0  0  0  0  0  0  0
    0.8586    1.2962    2.3417 H   0  0  0  0  0  0  0  0  0  0  0  0
    1.3683    2.9074    1.7840 H   0  0  0  0  0  0  0  0  0  0  0  0
   -2.3040    3.2689   -0.6297 C   0  0  0  0  0  0  0  0  0  0  0  0
   -1.7528    4.1867   -0.8815 H   0  0  0  0  0  0  0  0  0  0  0  0
   -3.6953    3.2606   -0.5273 C   0  0  0  0  0  0  0  0  0  0  0  0
   -4.2774    4.1780   -0.6972 H   0  0  0  0  0  0  0  0  0  0  0  0
   -4.3363    2.0495   -0.2002 C   0  0  0  0  0  0  0  0  0  0  0  0
   -5.4296    1.9902   -0.1045 H   0  0  0  0  0  0  0  0  0  0  0  0
   -3.5674    0.9019    0.0068 C   0  0  0  0  0  0  0  0  0  0  0  0
   -4.0349   -0.0605    0.2619 H   0  0  0  0  0  0  0  0  0  0  0  0
  1 32  1  0  0  0  0
  2  6  1  0  0  0  0
  3  1  1  0  0  0  0
  4  3  2  0  0  0  0
  4  2  1  0  0  0  0
  5  4  1  0  0  0  0
  6  7  1  0  0  0  0
  7  8  2  0  0  0  0
  7 22  1  0  0  0  0
  8  9  1  0  0  0  0
 10 18  1  0  0  0  0
 10  8  1  0  0  0  0
 11 10  2  0  0  0  0
 12 11  1  0  0  0  0
 13 11  1  0  0  0  0
 13  6  2  0  0  0  0
 14 17  1  0  0  0  0
 14 13  1  0  0  0  0
 15 14  1  0  0  0  0
 16 14  1  0  0  0  0
 18 20  1  0  0  0  0
 18 21  1  0  0  0  0
 19 18  1  0  0  0  0
 22 24  1  0  0  0  0
 22 23  1  0  0  0  0
 25 22  1  0  0  0  0
 26 28  2  0  0  0  0
 26  3  1  0  0  0  0
 27 26  1  0  0  0  0
 28 30  1  0  0  0  0
 29 28  1  0  0  0  0
 30 31  1  0  0  0  0
 30 32  2  0  0  0  0
 32 33  1  0  0  0  0
M  END
