1,2
 OpenBabel05122313053D

 30 31  0  0  0  0  0  0  0  0999 V2000
    1.9981    0.8468   -0.0898 N   0  0  0  0  0  2  0  0  0  0  0  0
   -0.6316    0.8544   -0.2586 N   0  0  0  0  0  2  0  0  0  0  0  0
    3.3489    0.8126   -0.0022 C   0  0  0  0  0  3  0  0  0  0  0  0
    3.7887   -0.1658    0.2411 H   0  0  0  0  0  0  0  0  0  0  0  0
    4.1509    1.9379   -0.2054 C   0  0  0  0  0  0  0  0  0  0  0  0
    5.2426    1.8444   -0.1184 H   0  0  0  0  0  0  0  0  0  0  0  0
    3.5451    3.1708   -0.5178 C   0  0  0  0  0  0  0  0  0  0  0  0
    4.1538    4.0713   -0.6845 H   0  0  0  0  0  0  0  0  0  0  0  0
    2.1540    3.2225   -0.6097 C   0  0  0  0  0  0  0  0  0  0  0  0
    1.6295    4.1588   -0.8498 H   0  0  0  0  0  0  0  0  0  0  0  0
    1.4015    2.0493   -0.3907 C   0  0  0  0  0  0  0  0  0  0  0  0
   -0.0393    2.0099   -0.4500 C   0  0  0  0  0  3  0  0  0  0  0  0
   -0.6200    2.9309   -0.6393 H   0  0  0  0  0  0  0  0  0  0  0  0
   -2.0640    0.8285   -0.1980 C   0  0  0  0  0  0  0  0  0  0  0  0
   -2.6999    1.3260    0.9699 C   0  0  0  0  0  0  0  0  0  0  0  0
   -1.9060    1.9108    2.1108 C   0  0  0  0  0  0  0  0  0  0  0  0
   -1.4771    2.9031    1.8587 H   0  0  0  0  0  0  0  0  0  0  0  0
   -1.0553    1.2586    2.3909 H   0  0  0  0  0  0  0  0  0  0  0  0
   -2.5453    2.0452    3.0035 H   0  0  0  0  0  0  0  0  0  0  0  0
   -4.1023    1.2396    1.0444 C   0  0  0  0  0  0  0  0  0  0  0  0
   -4.6068    1.6058    1.9520 H   0  0  0  0  0  0  0  0  0  0  0  0
   -4.8527    0.7009   -0.0079 C   0  0  0  0  0  0  0  0  0  0  0  0
   -5.9489    0.6446    0.0680 H   0  0  0  0  0  0  0  0  0  0  0  0
   -4.2033    0.2361   -1.1575 C   0  0  0  0  0  0  0  0  0  0  0  0
   -4.7895   -0.1784   -1.9924 H   0  0  0  0  0  0  0  0  0  0  0  0
   -2.8015    0.2812   -1.2766 C   0  0  0  0  0  0  0  0  0  0  0  0
   -2.1277   -0.2462   -2.5154 C   0  0  0  0  0  0  0  0  0  0  0  0
   -1.2433    0.3531   -2.8052 H   0  0  0  0  0  0  0  0  0  0  0  0
   -2.8332   -0.2644   -3.3679 H   0  0  0  0  0  0  0  0  0  0  0  0
   -1.7709   -1.2848   -2.3567 H   0  0  0  0  0  0  0  0  0  0  0  0
  1  3  1  0  0  0  0
  2 14  1  0  0  0  0
  3  4  1  0  0  0  0
  5  6  1  0  0  0  0
  5  3  1  0  0  0  0
  7  5  2  0  0  0  0
  8  7  1  0  0  0  0
  9  7  1  0  0  0  0
  9 11  2  0  0  0  0
 10  9  1  0  0  0  0
 11  1  1  0  0  0  0
 12 11  1  0  0  0  0
 12  2  1  0  0  0  0
 13 12  1  0  0  0  0
 14 15  1  0  0  0  0
 15 20  2  0  0  0  0
 15 16  1  0  0  0  0
 16 18  1  0  0  0  0
 16 19  1  0  0  0  0
 17 16  1  0  0  0  0
 20 21  1  0  0  0  0
 22 23  1  0  0  0  0
 22 20  1  0  0  0  0
 24 22  2  0  0  0  0
 25 24  1  0  0  0  0
 26 24  1  0  0  0  0
 26 14  2  0  0  0  0
 27 30  1  0  0  0  0
 27 26  1  0  0  0  0
 28 27  1  0  0  0  0
 29 27  1  0  0  0  0
M  END
