1,2
 OpenBabel05122313053D

 26 28  0  0  1  0  0  0  0  0999 V2000
    2.0919    0.4218   -0.6070 N   0  0  0  0  0  2  0  0  0  0  0  0
   -0.4150    1.2052   -0.3214 N   0  0  0  0  0  2  0  0  0  0  0  0
    4.0854    2.3095   -0.6930 C   0  0  0  0  0  0  0  0  0  0  0  0
    4.8580    3.0963   -0.7150 H   0  0  0  0  0  0  0  0  0  0  0  0
    3.3734    0.0278   -0.7892 C   0  0  0  0  0  3  0  0  0  0  0  0
    3.5371   -1.0558   -0.8790 H   0  0  0  0  0  0  0  0  0  0  0  0
   -1.5765    1.8739   -0.1894 C   0  0  2  0  0  3  0  0  0  0  0  0
    0.5634    2.1516   -0.3261 N   0  0  0  0  0  0  0  0  0  0  0  0
    1.8962    1.7603   -0.4821 C   0  0  0  0  0  0  0  0  0  0  0  0
   -2.8849    1.1977   -0.1971 C   0  0  0  0  0  0  0  0  0  0  0  0
   -3.9773    1.7523    0.5053 C   0  0  0  0  0  0  0  0  0  0  0  0
   -3.8539    2.6716    1.0960 H   0  0  0  0  0  0  0  0  0  0  0  0
   -5.2077    1.0861    0.4604 C   0  0  0  0  0  0  0  0  0  0  0  0
   -6.0769    1.4860    1.0040 H   0  0  0  0  0  0  0  0  0  0  0  0
   -5.3064   -0.1035   -0.2752 C   0  0  0  0  0  0  0  0  0  0  0  0
   -6.2518   -0.6624   -0.3340 H   0  0  0  0  0  0  0  0  0  0  0  0
   -4.1596   -0.5737   -0.9377 C   0  0  0  0  0  0  0  0  0  0  0  0
   -4.1942   -1.5107   -1.5205 H   0  0  0  0  0  0  0  0  0  0  0  0
   -2.9814    0.0587   -0.9107 N   0  0  0  0  0  0  0  0  0  0  0  0
    0.0547    3.4190   -0.1835 C   0  0  0  0  0  0  0  0  0  0  0  0
    0.7280    4.2806   -0.1828 H   0  0  0  0  0  0  0  0  0  0  0  0
    2.8197    2.7146   -0.5212 N   0  0  0  0  0  0  0  0  0  0  0  0
   -1.3157    3.2766   -0.0862 C   0  0  0  0  0  0  0  0  0  0  0  0
   -2.0553    4.0769    0.0092 H   0  0  0  0  0  0  0  0  0  0  0  0
    4.4182    0.9520   -0.8394 C   0  0  0  0  0  0  0  0  0  0  0  0
    5.4558    0.6217   -0.9807 H   0  0  0  0  0  0  0  0  0  0  0  0
  1  9  1  0  0  0  0
  2  7  1  0  0  0  0
  3 22  1  0  0  0  0
  4  3  1  0  0  0  0
  5  1  1  0  0  0  0
  6  5  1  0  0  0  0
  7 10  1  6  0  0  0
  7 23  1  0  0  0  0
  8  2  1  0  0  0  0
  8 20  1  0  0  0  0
  9  8  1  0  0  0  0
 10 11  1  0  0  0  0
 11 12  1  0  0  0  0
 13 11  2  0  0  0  0
 13 14  1  0  0  0  0
 15 13  1  0  0  0  0
 16 15  1  0  0  0  0
 17 19  1  0  0  0  0
 17 15  2  0  0  0  0
 18 17  1  0  0  0  0
 19 10  2  0  0  0  0
 20 21  1  0  0  0  0
 20 23  2  0  0  0  0
 22  9  2  0  0  0  0
 23 24  1  0  0  0  0
 25  5  1  0  0  0  0
 25  3  2  0  0  0  0
 26 25  1  0  0  0  0
M  END
