3,4
 OpenBabel05122313053D

 46 48  0  0  0  0  0  0  0  0999 V2000
    0.3941   -3.1124    0.6701 Si  0  0  0  0  0  0  0  0  0  0  0  0
    0.3911    3.1129    0.6689 Si  0  0  0  0  0  0  0  0  0  0  0  0
    0.1140   -1.3627    0.2599 N   0  0  0  0  0  2  0  0  0  0  0  0
    0.1133    1.3626    0.2598 N   0  0  0  0  0  2  0  0  0  0  0  0
   -1.0444   -0.7494    0.1614 C   0  0  0  0  0  0  0  0  0  0  0  0
   -1.0448    0.7486    0.1617 C   0  0  0  0  0  0  0  0  0  0  0  0
   -2.4492    1.1905    0.0402 C   0  0  0  0  0  0  0  0  0  0  0  0
   -3.2376   -0.0010   -0.0292 C   0  0  0  0  0  0  0  0  0  0  0  0
   -2.4484   -1.1920    0.0390 C   0  0  0  0  0  0  0  0  0  0  0  0
   -3.0929   -2.4178   -0.1219 C   0  0  0  0  0  0  0  0  0  0  0  0
   -2.5366   -3.3633   -0.1317 H   0  0  0  0  0  0  0  0  0  0  0  0
   -4.5057   -2.4424   -0.2944 C   0  0  0  0  0  0  0  0  0  0  0  0
   -5.0038   -3.4168   -0.4099 H   0  0  0  0  0  0  0  0  0  0  0  0
   -5.2710   -1.2782   -0.3369 C   0  0  0  0  0  0  0  0  0  0  0  0
   -6.3606   -1.3363   -0.4830 H   0  0  0  0  0  0  0  0  0  0  0  0
   -4.6414   -0.0014   -0.2247 C   0  0  0  0  0  0  0  0  0  0  0  0
   -5.2720    1.2750   -0.3352 C   0  0  0  0  0  0  0  0  0  0  0  0
   -6.3616    1.3324   -0.4812 H   0  0  0  0  0  0  0  0  0  0  0  0
   -4.5076    2.4397   -0.2910 C   0  0  0  0  0  0  0  0  0  0  0  0
   -5.0065    3.4139   -0.4051 H   0  0  0  0  0  0  0  0  0  0  0  0
   -3.0948    2.4161   -0.1188 C   0  0  0  0  0  0  0  0  0  0  0  0
   -2.5393    3.3620   -0.1271 H   0  0  0  0  0  0  0  0  0  0  0  0
    0.3636   -4.0590   -0.9603 C   0  0  0  0  0  0  0  0  0  0  0  0
   -0.5865   -3.9113   -1.5120 H   0  0  0  0  0  0  0  0  0  0  0  0
    0.4991   -5.1457   -0.7829 H   0  0  0  0  0  0  0  0  0  0  0  0
    1.1936   -3.7101   -1.6071 H   0  0  0  0  0  0  0  0  0  0  0  0
    2.0523   -3.3104    1.5345 C   0  0  0  0  0  0  0  0  0  0  0  0
    2.9257   -3.1367    0.8814 H   0  0  0  0  0  0  0  0  0  0  0  0
    2.1044   -4.3565    1.9052 H   0  0  0  0  0  0  0  0  0  0  0  0
    2.1291   -2.6389    2.4128 H   0  0  0  0  0  0  0  0  0  0  0  0
   -0.9157   -3.7074    1.9186 C   0  0  0  0  0  0  0  0  0  0  0  0
   -1.5495   -4.5251    1.5209 H   0  0  0  0  0  0  0  0  0  0  0  0
   -1.5874   -2.8928    2.2538 H   0  0  0  0  0  0  0  0  0  0  0  0
   -0.3954   -4.0997    2.8159 H   0  0  0  0  0  0  0  0  0  0  0  0
    0.3541    4.0586   -0.9619 C   0  0  0  0  0  0  0  0  0  0  0  0
   -0.5971    3.9093   -1.5111 H   0  0  0  0  0  0  0  0  0  0  0  0
    1.1829    3.7106   -1.6107 H   0  0  0  0  0  0  0  0  0  0  0  0
    0.4886    5.1457   -0.7856 H   0  0  0  0  0  0  0  0  0  0  0  0
    2.0514    3.3157    1.5280 C   0  0  0  0  0  0  0  0  0  0  0  0
    2.9233    3.1456    0.8719 H   0  0  0  0  0  0  0  0  0  0  0  0
    2.1335    2.6440    2.4056 H   0  0  0  0  0  0  0  0  0  0  0  0
    2.1011    4.3618    1.8991 H   0  0  0  0  0  0  0  0  0  0  0  0
   -0.9165    3.7045    1.9214 C   0  0  0  0  0  0  0  0  0  0  0  0
   -1.5931    2.8911    2.2497 H   0  0  0  0  0  0  0  0  0  0  0  0
   -1.5453    4.5287    1.5290 H   0  0  0  0  0  0  0  0  0  0  0  0
   -0.3950    4.0871    2.8220 H   0  0  0  0  0  0  0  0  0  0  0  0
  1 27  1  0  0  0  0
  1 31  1  0  0  0  0
  2 39  1  0  0  0  0
  2 43  1  0  0  0  0
  3  1  1  0  0  0  0
  4  2  1  0  0  0  0
  5  6  2  0  0  0  0
  5  3  1  0  0  0  0
  6  4  1  0  0  0  0
  7  6  1  0  0  0  0
  8  9  1  0  0  0  0
  8  7  1  0  0  0  0
  9  5  1  0  0  0  0
 10  9  2  0  0  0  0
 11 10  1  0  0  0  0
 12 10  1  0  0  0  0
 13 12  1  0  0  0  0
 14 12  2  0  0  0  0
 14 16  1  0  0  0  0
 15 14  1  0  0  0  0
 16  8  2  0  0  0  0
 17 19  2  0  0  0  0
 17 16  1  0  0  0  0
 18 17  1  0  0  0  0
 19 21  1  0  0  0  0
 20 19  1  0  0  0  0
 21  7  2  0  0  0  0
 22 21  1  0  0  0  0
 23 25  1  0  0  0  0
 23  1  1  0  0  0  0
 24 23  1  0  0  0  0
 26 23  1  0  0  0  0
 27 29  1  0  0  0  0
 27 30  1  0  0  0  0
 28 27  1  0  0  0  0
 31 33  1  0  0  0  0
 31 34  1  0  0  0  0
 32 31  1  0  0  0  0
 35 38  1  0  0  0  0
 35  2  1  0  0  0  0
 36 35  1  0  0  0  0
 37 35  1  0  0  0  0
 39 42  1  0  0  0  0
 39 41  1  0  0  0  0
 40 39  1  0  0  0  0
 43 44  1  0  0  0  0
 43 46  1  0  0  0  0
 45 43  1  0  0  0  0
M  END
