8,25
 OpenBabel05122313053D

 41 42  0  0  0  0  0  0  0  0999 V2000
   -2.2406    0.3262   -2.1892 B   0  0  1  0  0  0  0  0  0  0  0  0
   -2.8501    0.4711   -3.2437 H   0  0  0  0  0  0  0  0  0  0  0  0
   -0.7755    0.1187   -2.2787 O   0  0  0  0  0  0  0  0  0  0  0  0
   -0.0820    0.9872   -3.1591 C   0  0  0  0  0  0  0  0  0  0  0  0
   -0.5071    0.9096   -4.1833 H   0  0  0  0  0  0  0  0  0  0  0  0
    0.9834    0.6915   -3.1799 H   0  0  0  0  0  0  0  0  0  0  0  0
   -0.1424    2.0491   -2.8277 H   0  0  0  0  0  0  0  0  0  0  0  0
   -1.9282   -1.3114   -0.3756 N   0  0  0  0  0  2  0  0  0  0  0  0
   -2.7135   -0.9219   -1.4131 N   0  0  0  0  0  0  0  0  0  0  0  0
   -3.7155   -1.8136   -1.5915 C   0  0  0  0  0  3  0  0  0  0  0  0
   -4.4343   -1.6848   -2.4077 H   0  0  0  0  0  0  0  0  0  0  0  0
   -3.5879   -2.8095   -0.6185 C   0  0  0  0  0  0  0  0  0  0  0  0
   -4.2318   -3.6824   -0.4759 H   0  0  0  0  0  0  0  0  0  0  0  0
   -2.4348   -2.4653    0.1280 C   0  0  0  0  0  0  0  0  0  0  0  0
   -1.8130   -3.1468    1.3173 C   0  0  0  0  0  0  0  0  0  0  0  0
   -0.7385   -2.8594    1.3107 H   0  0  0  0  0  0  0  0  0  0  0  0
   -2.4259   -2.6274    2.6314 C   0  0  0  0  0  0  0  0  0  0  0  0
   -2.3027   -1.5307    2.7171 H   0  0  0  0  0  0  0  0  0  0  0  0
   -1.9290   -3.0972    3.5052 H   0  0  0  0  0  0  0  0  0  0  0  0
   -3.5088   -2.8655    2.6817 H   0  0  0  0  0  0  0  0  0  0  0  0
   -1.9110   -4.6741    1.2104 C   0  0  0  0  0  0  0  0  0  0  0  0
   -2.9675   -5.0146    1.2370 H   0  0  0  0  0  0  0  0  0  0  0  0
   -1.3891   -5.1565    2.0612 H   0  0  0  0  0  0  0  0  0  0  0  0
   -1.4568   -5.0460    0.2705 H   0  0  0  0  0  0  0  0  0  0  0  0
   -1.5599    1.6369   -0.2089 N   0  0  0  0  0  2  0  0  0  0  0  0
   -2.4104    1.5731   -1.2679 N   0  0  0  0  0  0  0  0  0  0  0  0
   -3.1912    2.6787   -1.2974 C   0  0  0  0  0  3  0  0  0  0  0  0
   -3.9260    2.8170   -2.0980 H   0  0  0  0  0  0  0  0  0  0  0  0
   -2.8466    3.4833   -0.2080 C   0  0  0  0  0  0  0  0  0  0  0  0
   -3.2796    4.4503    0.0664 H   0  0  0  0  0  0  0  0  0  0  0  0
   -1.8012    2.7940    0.4556 C   0  0  0  0  0  0  0  0  0  0  0  0
   -1.0032    3.2095    1.6638 C   0  0  0  0  0  0  0  0  0  0  0  0
   -0.4241    2.3186    1.9808 H   0  0  0  0  0  0  0  0  0  0  0  0
   -1.9181    3.6242    2.8259 C   0  0  0  0  0  0  0  0  0  0  0  0
   -2.5260    4.5159    2.5647 H   0  0  0  0  0  0  0  0  0  0  0  0
   -1.3179    3.8814    3.7223 H   0  0  0  0  0  0  0  0  0  0  0  0
   -2.6143    2.8070    3.1000 H   0  0  0  0  0  0  0  0  0  0  0  0
   -0.0030    4.3220    1.3000 C   0  0  0  0  0  0  0  0  0  0  0  0
    0.6839    3.9916    0.4957 H   0  0  0  0  0  0  0  0  0  0  0  0
    0.6115    4.5982    2.1815 H   0  0  0  0  0  0  0  0  0  0  0  0
   -0.5293    5.2349    0.9506 H   0  0  0  0  0  0  0  0  0  0  0  0
  1  2  1  6  0  0  0
  1  9  1  0  0  0  0
  1 26  1  0  0  0  0
  3  1  1  0  0  0  0
  4  7  1  0  0  0  0
  4  3  1  0  0  0  0
  5  4  1  0  0  0  0
  6  4  1  0  0  0  0
  8 14  1  0  0  0  0
  9  8  1  0  0  0  0
 10  9  1  0  0  0  0
 10 12  1  0  0  0  0
 11 10  1  0  0  0  0
 12 13  1  0  0  0  0
 12 14  2  0  0  0  0
 14 15  1  0  0  0  0
 15 17  1  0  0  0  0
 16 15  1  0  0  0  0
 17 20  1  0  0  0  0
 17 18  1  0  0  0  0
 17 19  1  0  0  0  0
 21 22  1  0  0  0  0
 21 15  1  0  0  0  0
 21 23  1  0  0  0  0
 24 21  1  0  0  0  0
 25 31  1  0  0  0  0
 26 25  1  0  0  0  0
 27 26  1  0  0  0  0
 27 29  1  0  0  0  0
 28 27  1  0  0  0  0
 29 30  1  0  0  0  0
 29 31  2  0  0  0  0
 31 32  1  0  0  0  0
 32 33  1  0  0  0  0
 32 34  1  0  0  0  0
 34 37  1  0  0  0  0
 34 36  1  0  0  0  0
 35 34  1  0  0  0  0
 38 32  1  0  0  0  0
 38 40  1  0  0  0  0
 39 38  1  0  0  0  0
 41 38  1  0  0  0  0
M  END
