11,27
 OpenBabel05122313053D

 74 78  0  0  0  0  0  0  0  0999 V2000
    2.3836   -0.1766   -0.3437 N   0  0  0  0  0  0  0  0  0  0  0  0
    3.6954   -0.1268    0.3519 C   0  0  0  0  0  0  0  0  0  0  0  0
    4.9065   -0.1387   -0.5575 C   0  0  0  0  0  0  0  0  0  0  0  0
    5.5304    1.0676   -0.9390 C   0  0  0  0  0  0  0  0  0  0  0  0
    6.6207    1.0709   -1.8227 C   0  0  0  0  0  0  0  0  0  0  0  0
    7.1099   -0.1394   -2.3375 C   0  0  0  0  0  0  0  0  0  0  0  0
    6.5107   -1.3502   -1.9541 C   0  0  0  0  0  0  0  0  0  0  0  0
    5.4213   -1.3479   -1.0707 C   0  0  0  0  0  0  0  0  0  0  0  0
    2.1438    0.9885   -1.2090 C   0  0  0  0  0  0  0  0  0  0  0  0
    1.5762    2.1662   -0.4246 C   0  0  0  0  0  0  0  0  0  0  0  0
    0.3050    1.7816    0.2065 N   0  0  0  0  0  0  0  0  0  0  0  0
   -0.3359    2.8740    0.9778 C   0  0  0  0  0  0  0  0  0  0  0  0
   -0.6664    4.0834    0.1295 C   0  0  0  0  0  0  0  0  0  0  0  0
   -0.1384    5.3559    0.3935 C   0  0  0  0  0  0  0  0  0  0  0  0
   -0.4663    6.4670   -0.4027 C   0  0  0  0  0  0  0  0  0  0  0  0
   -1.3269    6.2998   -1.4954 C   0  0  0  0  0  0  0  0  0  0  0  0
   -1.8631    5.0359   -1.7957 C   0  0  0  0  0  0  0  0  0  0  0  0
   -1.5432    3.9352   -0.9811 C   0  0  0  0  0  0  0  0  0  0  0  0
   -1.9966    2.6624   -1.1920 O   0  0  0  0  0  0  0  0  0  0  0  0
   -3.1707    2.3980   -1.9788 C   0  0  0  0  0  0  0  0  0  0  0  0
   -3.6464    0.0279   -1.6615 N   0  0  0  0  0  0  0  0  0  0  0  0
   -3.9256    1.2864   -1.2863 C   0  0  0  0  0  0  0  0  0  0  0  0
   -4.7995    1.5939   -0.2255 C   0  0  0  0  0  0  0  0  0  0  0  0
   -5.3852    0.5477    0.4908 C   0  0  0  0  0  0  0  0  0  0  0  0
    2.1159   -1.4617   -1.0011 C   0  0  0  0  0  0  0  0  0  0  0  0
    0.6187   -1.6899   -1.2151 C   0  0  0  0  0  0  0  0  0  0  0  0
   -0.1242   -1.6142    0.0504 N   0  0  0  0  0  0  0  0  0  0  0  0
   -0.2294   -2.8915    0.8007 C   0  0  0  0  0  0  0  0  0  0  0  0
   -0.7846   -4.0389   -0.0146 C   0  0  0  0  0  0  0  0  0  0  0  0
   -0.0986   -5.2579   -0.1251 C   0  0  0  0  0  0  0  0  0  0  0  0
   -0.5999   -6.3201   -0.8970 C   0  0  0  0  0  0  0  0  0  0  0  0
   -1.8069   -6.1546   -1.5873 C   0  0  0  0  0  0  0  0  0  0  0  0
   -2.5170   -4.9447   -1.5050 C   0  0  0  0  0  0  0  0  0  0  0  0
   -2.0158   -3.8958   -0.7126 C   0  0  0  0  0  0  0  0  0  0  0  0
   -2.6364   -2.6892   -0.5590 O   0  0  0  0  0  0  0  0  0  0  0  0
   -3.7948   -2.3775   -1.3429 C   0  0  0  0  0  0  0  0  0  0  0  0
   -4.2139   -0.9770   -0.9673 C   0  0  0  0  0  0  0  0  0  0  0  0
   -5.0822   -0.7662    0.1165 C   0  0  0  0  0  0  0  0  0  0  0  0
    3.7146   -0.9901    1.0448 H   0  0  0  0  0  0  0  0  0  0  0  0
    3.7006    0.7834    0.9832 H   0  0  0  0  0  0  0  0  0  0  0  0
    5.1644    2.0183   -0.5185 H   0  0  0  0  0  0  0  0  0  0  0  0
    7.0961    2.0230   -2.1039 H   0  0  0  0  0  0  0  0  0  0  0  0
    7.9670   -0.1409   -3.0279 H   0  0  0  0  0  0  0  0  0  0  0  0
    6.9023   -2.3045   -2.3381 H   0  0  0  0  0  0  0  0  0  0  0  0
    4.9727   -2.3034   -0.7573 H   0  0  0  0  0  0  0  0  0  0  0  0
    1.4123    0.7047   -1.9931 H   0  0  0  0  0  0  0  0  0  0  0  0
    3.0666    1.2970   -1.7507 H   0  0  0  0  0  0  0  0  0  0  0  0
    1.4544    3.0407   -1.1024 H   0  0  0  0  0  0  0  0  0  0  0  0
    2.2729    2.4729    0.3837 H   0  0  0  0  0  0  0  0  0  0  0  0
   -0.3847    1.5275   -0.5206 H   0  0  0  0  0  0  0  0  0  0  0  0
    0.3332    3.1473    1.8172 H   0  0  0  0  0  0  0  0  0  0  0  0
   -1.2651    2.4421    1.3985 H   0  0  0  0  0  0  0  0  0  0  0  0
    0.5399    5.4750    1.2535 H   0  0  0  0  0  0  0  0  0  0  0  0
   -0.0464    7.4566   -0.1709 H   0  0  0  0  0  0  0  0  0  0  0  0
   -1.5824    7.1577   -2.1358 H   0  0  0  0  0  0  0  0  0  0  0  0
   -2.5177    4.9120   -2.6697 H   0  0  0  0  0  0  0  0  0  0  0  0
   -2.8711    2.0808   -2.9996 H   0  0  0  0  0  0  0  0  0  0  0  0
   -3.7951    3.3126   -2.0419 H   0  0  0  0  0  0  0  0  0  0  0  0
   -4.9909    2.6432    0.0453 H   0  0  0  0  0  0  0  0  0  0  0  0
   -6.0489    0.7487    1.3440 H   0  0  0  0  0  0  0  0  0  0  0  0
    2.5067   -2.2577   -0.3345 H   0  0  0  0  0  0  0  0  0  0  0  0
    2.6522   -1.5669   -1.9742 H   0  0  0  0  0  0  0  0  0  0  0  0
    0.4692   -2.6698   -1.7207 H   0  0  0  0  0  0  0  0  0  0  0  0
    0.1975   -0.9244   -1.8990 H   0  0  0  0  0  0  0  0  0  0  0  0
   -1.0892   -1.3000   -0.1412 H   0  0  0  0  0  0  0  0  0  0  0  0
   -0.8645   -2.6769    1.6846 H   0  0  0  0  0  0  0  0  0  0  0  0
    0.7683   -3.1571    1.2030 H   0  0  0  0  0  0  0  0  0  0  0  0
    0.8571   -5.3708    0.4116 H   0  0  0  0  0  0  0  0  0  0  0  0
   -0.0445   -7.2669   -0.9627 H   0  0  0  0  0  0  0  0  0  0  0  0
   -2.2091   -6.9722   -2.2047 H   0  0  0  0  0  0  0  0  0  0  0  0
   -3.4607   -4.8289   -2.0542 H   0  0  0  0  0  0  0  0  0  0  0  0
   -4.6056   -3.1071   -1.1253 H   0  0  0  0  0  0  0  0  0  0  0  0
   -3.5431   -2.4202   -2.4248 H   0  0  0  0  0  0  0  0  0  0  0  0
   -5.4926   -1.6214    0.6723 H   0  0  0  0  0  0  0  0  0  0  0  0
  1  2  1  0  0  0  0
  2 40  1  0  0  0  0
  2 39  1  0  0  0  0
  3  2  1  0  0  0  0
  4  3  1  0  0  0  0
  4 41  1  0  0  0  0
  5  4  2  0  0  0  0
  6  7  2  0  0  0  0
  6  5  1  0  0  0  0
  7  8  1  0  0  0  0
  8 45  1  0  0  0  0
  8  3  2  0  0  0  0
  9 10  1  0  0  0  0
  9  1  1  0  0  0  0
 10 11  1  0  0  0  0
 10 49  1  0  0  0  0
 11 12  1  0  0  0  0
 12 52  1  0  0  0  0
 12 51  1  0  0  0  0
 13 14  1  0  0  0  0
 13 12  1  0  0  0  0
 14 53  1  0  0  0  0
 15 54  1  0  0  0  0
 15 14  2  0  0  0  0
 16 15  1  0  0  0  0
 17 16  2  0  0  0  0
 17 18  1  0  0  0  0
 18 13  2  0  0  0  0
 19 18  1  0  0  0  0
 20 22  1  0  0  0  0
 20 19  1  0  0  0  0
 21 22  2  0  0  0  0
 21 37  1  0  0  0  0
 22 23  1  0  0  0  0
 23 59  1  0  0  0  0
 23 24  2  0  0  0  0
 24 60  1  0  0  0  0
 25  1  1  0  0  0  0
 25 61  1  0  0  0  0
 26 25  1  0  0  0  0
 26 27  1  0  0  0  0
 27 28  1  0  0  0  0
 28 67  1  0  0  0  0
 28 66  1  0  0  0  0
 29 28  1  0  0  0  0
 30 29  1  0  0  0  0
 30 68  1  0  0  0  0
 31 30  2  0  0  0  0
 32 33  2  0  0  0  0
 32 31  1  0  0  0  0
 33 34  1  0  0  0  0
 34 35  1  0  0  0  0
 34 29  2  0  0  0  0
 36 72  1  0  0  0  0
 36 37  1  0  0  0  0
 36 35  1  0  0  0  0
 37 38  2  0  0  0  0
 38 24  1  0  0  0  0
 38 74  1  0  0  0  0
 42  5  1  0  0  0  0
 43  6  1  0  0  0  0
 44  7  1  0  0  0  0
 46  9  1  0  0  0  0
 47  9  1  0  0  0  0
 48 10  1  0  0  0  0
 50 11  1  0  0  0  0
 55 16  1  0  0  0  0
 56 17  1  0  0  0  0
 57 20  1  0  0  0  0
 58 20  1  0  0  0  0
 62 25  1  0  0  0  0
 63 26  1  0  0  0  0
 64 26  1  0  0  0  0
 65 27  1  0  0  0  0
 69 31  1  0  0  0  0
 70 32  1  0  0  0  0
 71 33  1  0  0  0  0
 73 36  1  0  0  0  0
M  END
