2,4
 OpenBabel05122313053D

 36 37  0  0  1  0  0  0  0  0999 V2000
    1.2840    1.4408   -0.0273 N   0  0  1  0  0  0  0  0  0  0  0  0
    0.0949    0.1973    2.2506 N   0  0  0  0  0  0  0  0  0  0  0  0
    1.2847   -1.4401    0.0273 N   0  0  2  0  0  0  0  0  0  0  0  0
    0.0949   -0.1973   -2.2506 N   0  0  0  0  0  0  0  0  0  0  0  0
    0.8676    2.3164    1.0663 C   0  0  0  0  0  0  0  0  0  0  0  0
    0.6498    1.5571    2.4018 C   0  0  0  0  0  0  0  0  0  0  0  0
    1.0369   -0.9228    2.4743 C   0  0  0  0  0  0  0  0  0  0  0  0
    1.0781   -1.9880    1.3634 C   0  0  0  0  0  0  0  0  0  0  0  0
    0.8686   -2.3160   -1.0664 C   0  0  0  0  0  0  0  0  0  0  0  0
    0.6505   -1.5568   -2.4018 C   0  0  0  0  0  0  0  0  0  0  0  0
    1.0363    0.9233   -2.4743 C   0  0  0  0  0  0  0  0  0  0  0  0
    1.0771    1.9885   -1.3634 C   0  0  0  0  0  0  0  0  0  0  0  0
    2.5517    0.7563    0.1877 C   0  0  0  0  0  0  0  0  0  0  0  0
    2.5520   -0.7550   -0.1878 C   0  0  0  0  0  0  0  0  0  0  0  0
   -0.7298    0.0795    2.8454 H   0  0  0  0  0  0  0  0  0  0  0  0
   -0.0987    2.7633    0.7525 H   0  0  0  0  0  0  0  0  0  0  0  0
    1.5878    3.1533    1.2543 H   0  0  0  0  0  0  0  0  0  0  0  0
   -0.0443    2.1696    3.0114 H   0  0  0  0  0  0  0  0  0  0  0  0
    1.5988    1.5062    2.9822 H   0  0  0  0  0  0  0  0  0  0  0  0
    2.0502   -0.4991    2.6313 H   0  0  0  0  0  0  0  0  0  0  0  0
    0.7895   -1.4529    3.4191 H   0  0  0  0  0  0  0  0  0  0  0  0
   -0.7300   -0.0799   -2.8453 H   0  0  0  0  0  0  0  0  0  0  0  0
    1.8719   -2.7291    1.6425 H   0  0  0  0  0  0  0  0  0  0  0  0
    0.1020   -2.5169    1.3461 H   0  0  0  0  0  0  0  0  0  0  0  0
   -0.0974   -2.7634   -0.7526 H   0  0  0  0  0  0  0  0  0  0  0  0
    1.5893   -3.1526   -1.2544 H   0  0  0  0  0  0  0  0  0  0  0  0
    1.5994   -1.5054   -2.9823 H   0  0  0  0  0  0  0  0  0  0  0  0
   -0.0434   -2.1696   -3.0114 H   0  0  0  0  0  0  0  0  0  0  0  0
    2.0498    0.5001   -2.6314 H   0  0  0  0  0  0  0  0  0  0  0  0
    0.7886    1.4533   -3.4191 H   0  0  0  0  0  0  0  0  0  0  0  0
    1.8705    2.7300   -1.6426 H   0  0  0  0  0  0  0  0  0  0  0  0
    0.1007    2.5169   -1.3461 H   0  0  0  0  0  0  0  0  0  0  0  0
    3.3819    1.2526   -0.3724 H   0  0  0  0  0  0  0  0  0  0  0  0
    2.8202    0.8620    1.2548 H   0  0  0  0  0  0  0  0  0  0  0  0
    3.3825   -1.2510    0.3723 H   0  0  0  0  0  0  0  0  0  0  0  0
    2.8205   -0.8607   -1.2549 H   0  0  0  0  0  0  0  0  0  0  0  0
  1 12  1  6  0  0  0
  1 13  1  0  0  0  0
  1  5  1  0  0  0  0
  2  6  1  0  0  0  0
  2  7  1  0  0  0  0
  2 15  1  0  0  0  0
  3  9  1  6  0  0  0
  3  8  1  0  0  0  0
  5 17  1  0  0  0  0
  5  6  1  0  0  0  0
  6 19  1  0  0  0  0
  6 18  1  0  0  0  0
  7 20  1  0  0  0  0
  7 21  1  0  0  0  0
  8 23  1  0  0  0  0
  8  7  1  0  0  0  0
  9 25  1  0  0  0  0
 10  4  1  0  0  0  0
 10  9  1  0  0  0  0
 11  4  1  0  0  0  0
 11 12  1  0  0  0  0
 12 32  1  0  0  0  0
 13 34  1  0  0  0  0
 14  3  1  0  0  0  0
 14 13  1  0  0  0  0
 14 35  1  0  0  0  0
 16  5  1  0  0  0  0
 22  4  1  0  0  0  0
 24  8  1  0  0  0  0
 26  9  1  0  0  0  0
 27 10  1  0  0  0  0
 28 10  1  0  0  0  0
 29 11  1  0  0  0  0
 30 11  1  0  0  0  0
 31 12  1  0  0  0  0
 33 13  1  0  0  0  0
 36 14  1  0  0  0  0
M  END
