4,5
 OpenBabel05122313053D

 29 30  0  0  0  0  0  0  0  0999 V2000
   -1.2728    2.4594    0.5502 O   0  0  0  0  0  0  0  0  0  0  0  0
   -1.3207   -2.4239   -0.9249 O   0  0  0  0  0  1  0  0  0  0  0  0
   -2.7084    0.7324    0.0167 C   0  0  0  0  0  0  0  0  0  0  0  0
   -1.5176   -1.1866   -0.5766 N   0  0  0  0  0  2  0  0  0  0  0  0
   -1.4800    1.1841    0.2232 N   0  0  0  0  0  2  0  0  0  0  0  0
   -3.9076    1.5957    0.0813 C   0  0  0  0  0  0  0  0  0  0  0  0
   -4.1347   -2.4559   -1.4989 C   0  0  0  0  0  0  0  0  0  0  0  0
   -3.3346   -2.5984   -2.2364 H   0  0  0  0  0  0  0  0  0  0  0  0
   -4.8908    1.5112   -0.9311 C   0  0  0  0  0  0  0  0  0  0  0  0
   -4.7524    0.8057   -1.7629 H   0  0  0  0  0  0  0  0  0  0  0  0
   -6.1616   -2.1118    0.4132 C   0  0  0  0  0  0  0  0  0  0  0  0
   -6.9493   -1.9775    1.1701 H   0  0  0  0  0  0  0  0  0  0  0  0
   -2.7379   -0.6815   -0.3830 C   0  0  0  0  0  0  0  0  0  0  0  0
   -4.9956   -1.3394    0.4842 C   0  0  0  0  0  0  0  0  0  0  0  0
   -4.8749   -0.6071    1.2954 H   0  0  0  0  0  0  0  0  0  0  0  0
   -6.0320    2.3215   -0.8841 C   0  0  0  0  0  0  0  0  0  0  0  0
   -6.7848    2.2473   -1.6834 H   0  0  0  0  0  0  0  0  0  0  0  0
   -4.0939    2.5157    1.1375 C   0  0  0  0  0  0  0  0  0  0  0  0
   -3.3280    2.5990    1.9197 H   0  0  0  0  0  0  0  0  0  0  0  0
   -3.9663   -1.4952   -0.4744 C   0  0  0  0  0  0  0  0  0  0  0  0
   -5.2429    3.3158    1.1856 C   0  0  0  0  0  0  0  0  0  0  0  0
   -5.3783    4.0229    2.0182 H   0  0  0  0  0  0  0  0  0  0  0  0
   -5.3068   -3.2200   -1.5693 C   0  0  0  0  0  0  0  0  0  0  0  0
   -5.4253   -3.9573   -2.3779 H   0  0  0  0  0  0  0  0  0  0  0  0
   -6.3248   -3.0524   -0.6165 C   0  0  0  0  0  0  0  0  0  0  0  0
   -7.2429   -3.6568   -0.6740 H   0  0  0  0  0  0  0  0  0  0  0  0
   -6.2154    3.2227    0.1768 C   0  0  0  0  0  0  0  0  0  0  0  0
   -7.1149    3.8558    0.2154 H   0  0  0  0  0  0  0  0  0  0  0  0
   -0.1864    2.5086    0.6729 H   0  0  0  0  0  0  0  0  0  0  0  0
  1 29  1  0  0  0  0
  2  4  1  0  0  0  0
  3  6  1  0  0  0  0
  3  5  1  0  0  0  0
  4 13  1  0  0  0  0
  5  1  1  0  0  0  0
  6 18  1  0  0  0  0
  7 20  1  0  0  0  0
  8  7  1  0  0  0  0
  9 16  1  0  0  0  0
  9  6  2  0  0  0  0
 10  9  1  0  0  0  0
 11 14  1  0  0  0  0
 11 12  1  0  0  0  0
 13  3  2  0  0  0  0
 14 15  1  0  0  0  0
 16 27  2  0  0  0  0
 17 16  1  0  0  0  0
 18 21  2  0  0  0  0
 18 19  1  0  0  0  0
 20 13  1  0  0  0  0
 20 14  2  0  0  0  0
 21 22  1  0  0  0  0
 23  7  2  0  0  0  0
 23 25  1  0  0  0  0
 24 23  1  0  0  0  0
 25 11  2  0  0  0  0
 26 25  1  0  0  0  0
 27 28  1  0  0  0  0
 27 21  1  0  0  0  0
M  END
