1,4
 OpenBabel05122313053D

 42 46  0  0  0  0  0  0  0  0999 V2000
    0.6694    1.2698    0.0774 N   0  0  0  0  0  2  0  0  0  0  0  0
    1.6806    0.4294    0.0073 C   0  0  0  0  0  0  0  0  0  0  0  0
    1.3163   -0.9941    0.1109 C   0  0  0  0  0  0  0  0  0  0  0  0
    0.0351   -1.2403    0.2569 N   0  0  0  0  0  2  0  0  0  0  0  0
    3.1265    0.5175   -0.2088 C   0  0  0  0  0  0  0  0  0  0  0  0
    4.0530    1.5371   -0.4252 C   0  0  0  0  0  0  0  0  0  0  0  0
    3.7534    2.5939   -0.4334 H   0  0  0  0  0  0  0  0  0  0  0  0
    5.4143    1.1832   -0.6405 C   0  0  0  0  0  0  0  0  0  0  0  0
    6.1443    1.9877   -0.8128 H   0  0  0  0  0  0  0  0  0  0  0  0
    5.8537   -0.1420   -0.6412 C   0  0  0  0  0  0  0  0  0  0  0  0
    6.9172   -0.3681   -0.8125 H   0  0  0  0  0  0  0  0  0  0  0  0
    4.9308   -1.2115   -0.4306 C   0  0  0  0  0  0  0  0  0  0  0  0
    5.2119   -2.6122   -0.4292 C   0  0  0  0  0  0  0  0  0  0  0  0
    6.2448   -2.9575   -0.5884 H   0  0  0  0  0  0  0  0  0  0  0  0
    4.1890   -3.5431   -0.2372 C   0  0  0  0  0  0  0  0  0  0  0  0
    4.4344   -4.6152   -0.2460 H   0  0  0  0  0  0  0  0  0  0  0  0
    2.8345   -3.1568   -0.0349 C   0  0  0  0  0  0  0  0  0  0  0  0
    2.0568   -3.9200    0.1073 H   0  0  0  0  0  0  0  0  0  0  0  0
    2.5302   -1.7966   -0.0248 C   0  0  0  0  0  0  0  0  0  0  0  0
    3.5809   -0.8426   -0.2182 C   0  0  0  0  0  0  0  0  0  0  0  0
    0.8532    2.6798    0.0171 C   0  0  0  0  0  0  0  0  0  0  0  0
    1.5932    3.3371    1.0206 C   0  0  0  0  0  0  0  0  0  0  0  0
    2.0485    2.7517    1.8333 H   0  0  0  0  0  0  0  0  0  0  0  0
    1.7313    4.7324    0.9727 C   0  0  0  0  0  0  0  0  0  0  0  0
    2.2997    5.2494    1.7602 H   0  0  0  0  0  0  0  0  0  0  0  0
    1.1449    5.4654   -0.0718 C   0  0  0  0  0  0  0  0  0  0  0  0
    1.2575    6.5589   -0.1069 H   0  0  0  0  0  0  0  0  0  0  0  0
    0.4135    4.8002   -1.0717 C   0  0  0  0  0  0  0  0  0  0  0  0
   -0.0369    5.3719   -1.8968 H   0  0  0  0  0  0  0  0  0  0  0  0
    0.2543    3.4088   -1.0296 C   0  0  0  0  0  0  0  0  0  0  0  0
   -0.3053    2.8602   -1.8024 H   0  0  0  0  0  0  0  0  0  0  0  0
   -0.4597   -2.5749    0.3559 C   0  0  0  0  0  0  0  0  0  0  0  0
   -0.3528   -3.2721    1.5742 C   0  0  0  0  0  0  0  0  0  0  0  0
    0.1333   -2.7911    2.4362 H   0  0  0  0  0  0  0  0  0  0  0  0
   -0.8631   -4.5764    1.6658 C   0  0  0  0  0  0  0  0  0  0  0  0
   -0.7837   -5.1253    2.6160 H   0  0  0  0  0  0  0  0  0  0  0  0
   -1.4698   -5.1781    0.5514 C   0  0  0  0  0  0  0  0  0  0  0  0
   -1.8670   -6.2009    0.6275 H   0  0  0  0  0  0  0  0  0  0  0  0
   -1.5667   -4.4738   -0.6611 C   0  0  0  0  0  0  0  0  0  0  0  0
   -2.0346   -4.9462   -1.5377 H   0  0  0  0  0  0  0  0  0  0  0  0
   -1.0683   -3.1678   -0.7662 C   0  0  0  0  0  0  0  0  0  0  0  0
   -1.1267   -2.5914   -1.7014 H   0  0  0  0  0  0  0  0  0  0  0  0
  2  1  1  0  0  0  0
  2  3  2  0  0  0  0
  3  4  1  0  0  0  0
  4 32  1  0  0  0  0
  5  2  1  0  0  0  0
  6  5  2  0  0  0  0
  7  6  1  0  0  0  0
  8  6  1  0  0  0  0
  9  8  1  0  0  0  0
 10  8  2  0  0  0  0
 10 12  1  0  0  0  0
 11 10  1  0  0  0  0
 12 13  2  0  0  0  0
 12 20  1  0  0  0  0
 13 15  1  0  0  0  0
 14 13  1  0  0  0  0
 15 17  2  0  0  0  0
 16 15  1  0  0  0  0
 17 19  1  0  0  0  0
 17 18  1  0  0  0  0
 19  3  1  0  0  0  0
 20  5  1  0  0  0  0
 20 19  2  0  0  0  0
 21  1  1  0  0  0  0
 21 22  1  0  0  0  0
 22 23  1  0  0  0  0
 24 22  2  0  0  0  0
 24 25  1  0  0  0  0
 26 24  1  0  0  0  0
 27 26  1  0  0  0  0
 28 30  1  0  0  0  0
 28 26  2  0  0  0  0
 29 28  1  0  0  0  0
 30 21  2  0  0  0  0
 31 30  1  0  0  0  0
 32 33  1  0  0  0  0
 33 35  2  0  0  0  0
 33 34  1  0  0  0  0
 35 36  1  0  0  0  0
 37 38  1  0  0  0  0
 37 35  1  0  0  0  0
 39 37  2  0  0  0  0
 40 39  1  0  0  0  0
 41 39  1  0  0  0  0
 41 32  2  0  0  0  0
 42 41  1  0  0  0  0
M  END
