3,4
 OpenBabel05122313053D

 29 30  0  0  1  0  0  0  0  0999 V2000
   -2.0658    1.0547   -0.3090 C   0  0  0  0  0  0  0  0  0  0  0  0
    1.5187    2.2070    0.0500 C   0  0  1  0  0  3  0  0  0  0  0  0
   -0.6277    1.1323   -0.4207 N   0  0  0  0  0  0  0  0  0  0  0  0
    2.0008    0.9537    0.2616 N   0  0  0  0  0  2  0  0  0  0  0  0
    3.3382    0.7532    0.2584 C   0  0  0  0  0  0  0  0  0  0  0  0
    3.6711   -0.2827    0.4138 H   0  0  0  0  0  0  0  0  0  0  0  0
   -2.7328    1.3690    0.8855 C   0  0  0  0  0  0  0  0  0  0  0  0
   -2.1745    1.6989    1.7733 H   0  0  0  0  0  0  0  0  0  0  0  0
    4.2493    1.7946    0.0641 C   0  0  0  0  0  0  0  0  0  0  0  0
    5.3271    1.5805    0.0738 H   0  0  0  0  0  0  0  0  0  0  0  0
    3.7612    3.0906   -0.1535 C   0  0  0  0  0  0  0  0  0  0  0  0
    4.4505    3.9313   -0.3206 H   0  0  0  0  0  0  0  0  0  0  0  0
   -2.8008    0.5847   -1.4120 C   0  0  0  0  0  0  0  0  0  0  0  0
   -2.2707    0.3111   -2.3376 H   0  0  0  0  0  0  0  0  0  0  0  0
    0.0187    2.3541    0.0969 C   0  0  0  0  0  0  0  0  0  0  0  0
   -0.2868    2.4870    1.1560 H   0  0  0  0  0  0  0  0  0  0  0  0
   -0.3093    3.2601   -0.4568 H   0  0  0  0  0  0  0  0  0  0  0  0
    2.3752    3.2946   -0.1678 C   0  0  0  0  0  0  0  0  0  0  0  0
    1.9494    4.2918   -0.3502 H   0  0  0  0  0  0  0  0  0  0  0  0
   -4.1880    0.4330   -1.3144 C   0  0  0  0  0  0  0  0  0  0  0  0
   -4.7469    0.0559   -2.1852 H   0  0  0  0  0  0  0  0  0  0  0  0
   -4.8808    0.7503   -0.1275 C   0  0  0  0  0  0  0  0  0  0  0  0
   -4.1247    1.2200    0.9638 C   0  0  0  0  0  0  0  0  0  0  0  0
   -4.6347    1.4665    1.9081 H   0  0  0  0  0  0  0  0  0  0  0  0
   -6.3739    0.5660   -0.0313 C   0  0  0  0  0  0  0  0  0  0  0  0
   -6.7794    0.9946    0.9054 H   0  0  0  0  0  0  0  0  0  0  0  0
   -6.6451   -0.5108   -0.0519 H   0  0  0  0  0  0  0  0  0  0  0  0
   -6.8985    1.0455   -0.8831 H   0  0  0  0  0  0  0  0  0  0  0  0
   -0.3549    0.9872   -1.4158 H   0  0  0  0  0  0  0  0  0  0  0  0
  1  7  1  0  0  0  0
  2 15  1  1  0  0  0
  2  4  1  0  0  0  0
  3  1  1  0  0  0  0
  3 15  1  0  0  0  0
  5  4  1  0  0  0  0
  5  6  1  0  0  0  0
  7 23  2  0  0  0  0
  7  8  1  0  0  0  0
  9 10  1  0  0  0  0
  9  5  2  0  0  0  0
 11  9  1  0  0  0  0
 12 11  1  0  0  0  0
 13 20  1  0  0  0  0
 13  1  2  0  0  0  0
 14 13  1  0  0  0  0
 15 16  1  0  0  0  0
 17 15  1  0  0  0  0
 18 11  2  0  0  0  0
 18  2  1  0  0  0  0
 19 18  1  0  0  0  0
 20 22  2  0  0  0  0
 21 20  1  0  0  0  0
 22 25  1  0  0  0  0
 22 23  1  0  0  0  0
 23 24  1  0  0  0  0
 25 26  1  0  0  0  0
 27 25  1  0  0  0  0
 28 25  1  0  0  0  0
 29  3  1  0  0  0  0
M  END
