1,2
 OpenBabel05122313053D

 30 31  0  0  0  0  0  0  0  0999 V2000
    1.8593   -1.3428   -0.8457 N   0  0  0  0  0  2  0  0  0  0  0  0
   -0.8348   -2.0853   -0.8254 N   0  0  0  0  0  2  0  0  0  0  0  0
    3.1945   -0.9410   -0.6413 C   0  0  0  0  0  0  0  0  0  0  0  0
    3.7003    0.1688   -1.3749 C   0  0  0  0  0  0  0  0  0  0  0  0
    5.0032    0.6078   -1.0807 C   0  0  0  0  0  0  0  0  0  0  0  0
    5.4047    1.4619   -1.6507 H   0  0  0  0  0  0  0  0  0  0  0  0
    5.8103    0.0041   -0.0944 C   0  0  0  0  0  0  0  0  0  0  0  0
    5.2791   -1.0936    0.6120 C   0  0  0  0  0  0  0  0  0  0  0  0
    5.8766   -1.5768    1.4012 H   0  0  0  0  0  0  0  0  0  0  0  0
    3.9927   -1.5701    0.3391 C   0  0  0  0  0  0  0  0  0  0  0  0
    3.5631   -2.3986    0.9257 H   0  0  0  0  0  0  0  0  0  0  0  0
    2.8845    0.8154   -2.4594 C   0  0  0  0  0  0  0  0  0  0  0  0
    2.7809    0.1381   -3.3336 H   0  0  0  0  0  0  0  0  0  0  0  0
    3.3568    1.7521   -2.8115 H   0  0  0  0  0  0  0  0  0  0  0  0
    1.8454    1.0382   -2.1400 H   0  0  0  0  0  0  0  0  0  0  0  0
    7.2084    0.5006    0.1735 C   0  0  0  0  0  0  0  0  0  0  0  0
    7.3205    1.5721   -0.0851 H   0  0  0  0  0  0  0  0  0  0  0  0
    7.9525   -0.0601   -0.4331 H   0  0  0  0  0  0  0  0  0  0  0  0
    7.4926    0.3676    1.2362 H   0  0  0  0  0  0  0  0  0  0  0  0
    1.5366   -2.5921   -0.9445 C   0  0  0  0  0  0  0  0  0  0  0  0
    2.3042   -3.3900   -1.0023 H   0  0  0  0  0  0  0  0  0  0  0  0
    0.1263   -3.0153   -1.0351 C   0  0  0  0  0  0  0  0  0  0  0  0
   -0.2007   -4.3512   -1.3433 C   0  0  0  0  0  0  0  0  0  0  0  0
    0.6039   -5.0863   -1.4884 H   0  0  0  0  0  0  0  0  0  0  0  0
   -1.5466   -4.7142   -1.4505 C   0  0  0  0  0  0  0  0  0  0  0  0
   -1.8261   -5.7507   -1.6916 H   0  0  0  0  0  0  0  0  0  0  0  0
   -2.5326   -3.7378   -1.2383 C   0  0  0  0  0  0  0  0  0  0  0  0
   -3.6033   -3.9763   -1.3089 H   0  0  0  0  0  0  0  0  0  0  0  0
   -2.1271   -2.4322   -0.9252 C   0  0  0  0  0  0  0  0  0  0  0  0
   -2.8665   -1.6354   -0.7411 H   0  0  0  0  0  0  0  0  0  0  0  0
  1  3  1  0  0  0  0
  3 10  1  0  0  0  0
  4  5  1  0  0  0  0
  4  3  2  0  0  0  0
  5  7  2  0  0  0  0
  6  5  1  0  0  0  0
  7 16  1  0  0  0  0
  7  8  1  0  0  0  0
  8  9  1  0  0  0  0
 10  8  2  0  0  0  0
 10 11  1  0  0  0  0
 12 15  1  0  0  0  0
 12  4  1  0  0  0  0
 13 12  1  0  0  0  0
 14 12  1  0  0  0  0
 16 19  1  0  0  0  0
 17 16  1  0  0  0  0
 18 16  1  0  0  0  0
 20  1  1  0  0  0  0
 21 20  1  0  0  0  0
 22 20  2  0  0  0  0
 22  2  1  0  0  0  0
 23 22  1  0  0  0  0
 24 23  1  0  0  0  0
 25 23  2  0  0  0  0
 25 27  1  0  0  0  0
 26 25  1  0  0  0  0
 27 29  2  0  0  0  0
 28 27  1  0  0  0  0
 29  2  1  0  0  0  0
 29 30  1  0  0  0  0
M  END
