3,4
 OpenBabel05122313053D

 24 25  0  0  1  0  0  0  0  0999 V2000
   -5.1174   -3.4776   -0.0571 Cl  0  0  0  0  0  0  0  0  0  0  0  0
   -1.7908   -1.2881   -3.2390 O   0  0  0  0  0  0  0  0  0  0  0  0
   -1.6084    0.0962   -1.3576 N   0  0  0  0  0  2  0  0  0  0  0  0
    0.9143    0.5328   -1.8102 N   0  0  0  0  0  2  0  0  0  0  0  0
   -2.8928   -0.2056   -0.8582 C   0  0  0  0  0  0  0  0  0  0  0  0
   -3.3491   -1.5412   -0.7695 C   0  0  0  0  0  0  0  0  0  0  0  0
   -2.7352   -2.3581   -1.1641 H   0  0  0  0  0  0  0  0  0  0  0  0
   -4.5880   -1.8177   -0.1808 C   0  0  0  0  0  0  0  0  0  0  0  0
   -5.4070   -0.7950    0.3265 C   0  0  0  0  0  0  0  0  0  0  0  0
   -6.3726   -1.0423    0.7882 H   0  0  0  0  0  0  0  0  0  0  0  0
   -4.9627    0.5309    0.2158 C   0  0  0  0  0  0  0  0  0  0  0  0
   -5.5943    1.3474    0.5977 H   0  0  0  0  0  0  0  0  0  0  0  0
   -3.7285    0.8277   -0.3741 C   0  0  0  0  0  0  0  0  0  0  0  0
   -3.3965    1.8713   -0.4494 H   0  0  0  0  0  0  0  0  0  0  0  0
   -1.1516   -0.5609   -2.4710 C   0  0  0  0  0  0  0  0  0  0  0  0
    0.2923   -0.2373   -2.7323 C   0  0  2  0  0  3  0  0  0  0  0  0
    0.9597   -0.7186   -3.8641 C   0  0  0  0  0  0  0  0  0  0  0  0
    0.3877   -1.3625   -4.5472 H   0  0  0  0  0  0  0  0  0  0  0  0
    2.3006   -0.3706   -4.0572 C   0  0  0  0  0  0  0  0  0  0  0  0
    2.8605   -0.7490   -4.9253 H   0  0  0  0  0  0  0  0  0  0  0  0
    2.9230    0.4659   -3.1177 C   0  0  0  0  0  0  0  0  0  0  0  0
    3.9751    0.7635   -3.2210 H   0  0  0  0  0  0  0  0  0  0  0  0
    2.1978    0.8972   -2.0021 C   0  0  0  0  0  0  0  0  0  0  0  0
    2.6548    1.5138   -1.2182 H   0  0  0  0  0  0  0  0  0  0  0  0
  2 15  2  0  0  0  0
  3  5  1  0  0  0  0
  5  6  2  0  0  0  0
  5 13  1  0  0  0  0
  6  8  1  0  0  0  0
  7  6  1  0  0  0  0
  8  1  1  0  0  0  0
  8  9  2  0  0  0  0
  9 10  1  0  0  0  0
 11  9  1  0  0  0  0
 11 12  1  0  0  0  0
 13 11  2  0  0  0  0
 14 13  1  0  0  0  0
 15  3  1  0  0  0  0
 16 15  1  1  0  0  0
 16  4  1  0  0  0  0
 17 16  1  0  0  0  0
 18 17  1  0  0  0  0
 19 17  2  0  0  0  0
 19 21  1  0  0  0  0
 20 19  1  0  0  0  0
 21 23  2  0  0  0  0
 22 21  1  0  0  0  0
 23  4  1  0  0  0  0
 23 24  1  0  0  0  0
M  END
