1,21
 OpenBabel05122313053D

 40 44  0  0  1  0  0  0  0  0999 V2000
    0.0414   -0.6394    2.0055 N   0  0  0  0  0  0  0  0  0  0  0  0
    2.2552   -2.3990    1.5744 N   0  0  2  0  0  0  0  0  0  0  0  0
    1.2635   -1.9242   -0.4649 N   0  0  1  0  0  0  0  0  0  0  0  0
    1.0195   -2.5730    0.8405 C   0  0  2  0  0  0  0  0  0  0  0  0
   -0.2497   -1.9945    1.4849 C   0  0  2  0  0  0  0  0  0  0  0  0
    1.1839   -0.6453    2.9310 C   0  0  0  0  0  0  0  0  0  0  0  0
    2.4276   -1.0586    2.1615 C   0  0  0  0  0  0  0  0  0  0  0  0
    3.2567   -2.6755    0.5340 C   0  0  0  0  0  0  0  0  0  0  0  0
    2.6885   -2.0541   -0.7785 C   0  0  0  0  0  0  0  0  0  0  0  0
   -0.8054   -0.2493    2.4459 H   0  0  0  0  0  0  0  0  0  0  0  0
    0.8554   -3.6751    0.7239 H   0  0  0  0  0  0  0  0  0  0  0  0
   -0.5496   -2.6646    2.3325 H   0  0  0  0  0  0  0  0  0  0  0  0
    1.3162    0.3753    3.3390 H   0  0  0  0  0  0  0  0  0  0  0  0
    1.0087   -1.3431    3.7846 H   0  0  0  0  0  0  0  0  0  0  0  0
    3.2971   -1.0978    2.8492 H   0  0  0  0  0  0  0  0  0  0  0  0
    2.6402   -0.2747    1.3937 H   0  0  0  0  0  0  0  0  0  0  0  0
    4.2425   -2.2634    0.8203 H   0  0  0  0  0  0  0  0  0  0  0  0
    3.3644   -3.7749    0.4222 H   0  0  0  0  0  0  0  0  0  0  0  0
    2.8617   -2.7231   -1.6534 H   0  0  0  0  0  0  0  0  0  0  0  0
    3.1322   -1.0592   -1.0061 H   0  0  0  0  0  0  0  0  0  0  0  0
   -0.0414   -0.6394   -2.0055 N   0  0  0  0  0  0  0  0  0  0  0  0
   -1.2636   -1.9241    0.4649 N   0  0  1  0  0  0  0  0  0  0  0  0
    0.2496   -1.9944   -1.4850 C   0  0  2  0  0  0  0  0  0  0  0  0
   -1.1839   -0.6452   -2.9310 C   0  0  0  0  0  0  0  0  0  0  0  0
    0.8054   -0.2493   -2.4459 H   0  0  0  0  0  0  0  0  0  0  0  0
   -1.0196   -2.5730   -0.8405 C   0  0  2  0  0  0  0  0  0  0  0  0
   -2.6886   -2.0539    0.7785 C   0  0  0  0  0  0  0  0  0  0  0  0
    0.5494   -2.6646   -2.3326 H   0  0  0  0  0  0  0  0  0  0  0  0
   -2.4276   -1.0584   -2.1615 C   0  0  0  0  0  0  0  0  0  0  0  0
   -1.3161    0.3754   -3.3390 H   0  0  0  0  0  0  0  0  0  0  0  0
   -1.0087   -1.3430   -3.7846 H   0  0  0  0  0  0  0  0  0  0  0  0
   -2.2553   -2.3988   -1.5745 N   0  0  2  0  0  0  0  0  0  0  0  0
   -0.8556   -3.6751   -0.7240 H   0  0  0  0  0  0  0  0  0  0  0  0
   -3.2569   -2.6753   -0.5341 C   0  0  0  0  0  0  0  0  0  0  0  0
   -2.8618   -2.7229    1.6534 H   0  0  0  0  0  0  0  0  0  0  0  0
   -3.1323   -1.0590    1.0061 H   0  0  0  0  0  0  0  0  0  0  0  0
   -3.2971   -1.0975   -2.8492 H   0  0  0  0  0  0  0  0  0  0  0  0
   -2.6402   -0.2745   -1.3937 H   0  0  0  0  0  0  0  0  0  0  0  0
   -4.2426   -2.2631   -0.8204 H   0  0  0  0  0  0  0  0  0  0  0  0
   -3.3647   -3.7747   -0.4223 H   0  0  0  0  0  0  0  0  0  0  0  0
  1 10  1  0  0  0  0
  1  6  1  0  0  0  0
  2  8  1  6  0  0  0
  2  7  1  0  0  0  0
  3  9  1  6  0  0  0
  3  4  1  0  0  0  0
  4 11  1  6  0  0  0
  4  5  1  0  0  0  0
  4  2  1  0  0  0  0
  5  1  1  0  0  0  0
  5 12  1  1  0  0  0
  6 13  1  0  0  0  0
  6 14  1  0  0  0  0
  7 15  1  0  0  0  0
  7  6  1  0  0  0  0
  8 17  1  0  0  0  0
  9  8  1  0  0  0  0
 16  7  1  0  0  0  0
 18  8  1  0  0  0  0
 19  9  1  0  0  0  0
 20  9  1  0  0  0  0
 21 23  1  0  0  0  0
 22 27  1  1  0  0  0
 22  5  1  0  0  0  0
 23 28  1  6  0  0  0
 23 26  1  0  0  0  0
 23  3  1  0  0  0  0
 24 29  1  0  0  0  0
 24 21  1  0  0  0  0
 25 21  1  0  0  0  0
 26 33  1  1  0  0  0
 26 22  1  0  0  0  0
 27 36  1  0  0  0  0
 27 35  1  0  0  0  0
 29 38  1  0  0  0  0
 30 24  1  0  0  0  0
 31 24  1  0  0  0  0
 32 29  1  1  0  0  0
 32 26  1  0  0  0  0
 32 34  1  0  0  0  0
 34 40  1  0  0  0  0
 34 27  1  0  0  0  0
 37 29  1  0  0  0  0
 39 34  1  0  0  0  0
M  END
