1,2
 OpenBabel05122313053D

 29 30  0  0  1  0  0  0  0  0999 V2000
    0.4234   -1.4169   -0.3011 N   0  0  0  0  0  2  0  0  0  0  0  0
    0.4228    1.4174   -0.3006 N   0  0  0  0  0  2  0  0  0  0  0  0
    1.7066   -1.2512    0.1356 C   0  0  2  0  0  3  0  0  0  0  0  0
    2.6734   -2.2232   -0.1773 C   0  0  0  0  0  0  0  0  0  0  0  0
    3.7046   -2.0964    0.1697 H   0  0  0  0  0  0  0  0  0  0  0  0
    2.3319   -3.3595   -0.9209 C   0  0  0  0  0  0  0  0  0  0  0  0
    3.0955   -4.1142   -1.1609 H   0  0  0  0  0  0  0  0  0  0  0  0
    1.0069   -3.5122   -1.3434 C   0  0  0  0  0  0  0  0  0  0  0  0
    0.6785   -4.3851   -1.9245 H   0  0  0  0  0  0  0  0  0  0  0  0
    0.0814   -2.5223   -1.0155 C   0  0  0  0  0  0  0  0  0  0  0  0
   -0.9838   -2.5897   -1.2808 H   0  0  0  0  0  0  0  0  0  0  0  0
    1.7062    1.2517    0.1354 C   0  0  1  0  0  3  0  0  0  0  0  0
    2.6730    2.2234   -0.1784 C   0  0  0  0  0  0  0  0  0  0  0  0
    3.7044    2.0965    0.1678 H   0  0  0  0  0  0  0  0  0  0  0  0
    2.3312    3.3597   -0.9220 C   0  0  0  0  0  0  0  0  0  0  0  0
    3.0947    4.1142   -1.1628 H   0  0  0  0  0  0  0  0  0  0  0  0
    1.0058    3.5126   -1.3434 C   0  0  0  0  0  0  0  0  0  0  0  0
    0.6771    4.3856   -1.9243 H   0  0  0  0  0  0  0  0  0  0  0  0
    0.0804    2.5229   -1.0147 C   0  0  0  0  0  0  0  0  0  0  0  0
   -0.9850    2.5903   -1.2792 H   0  0  0  0  0  0  0  0  0  0  0  0
    2.0427    0.0004    0.9717 C   0  0  0  0  0  0  0  0  0  0  0  0
    3.5295    0.0006    1.3692 C   0  0  0  0  0  0  0  0  0  0  0  0
    3.7542    0.8892    1.9888 H   0  0  0  0  0  0  0  0  0  0  0  0
    4.2164    0.0005    0.5007 H   0  0  0  0  0  0  0  0  0  0  0  0
    3.7544   -0.8877    1.9892 H   0  0  0  0  0  0  0  0  0  0  0  0
    1.2354    0.0004    2.3022 C   0  0  0  0  0  0  0  0  0  0  0  0
    1.4959   -0.9006    2.8916 H   0  0  0  0  0  0  0  0  0  0  0  0
    0.1402    0.0002    2.1249 H   0  0  0  0  0  0  0  0  0  0  0  0
    1.4956    0.9015    2.8914 H   0  0  0  0  0  0  0  0  0  0  0  0
  1  3  1  0  0  0  0
  2 12  1  0  0  0  0
  3 21  1  1  0  0  0
  4  3  1  0  0  0  0
  4  5  1  0  0  0  0
  6  4  2  0  0  0  0
  7  6  1  0  0  0  0
  8 10  2  0  0  0  0
  8  6  1  0  0  0  0
  9  8  1  0  0  0  0
 10  1  1  0  0  0  0
 11 10  1  0  0  0  0
 12 21  1  1  0  0  0
 13 12  1  0  0  0  0
 13 14  1  0  0  0  0
 15 13  2  0  0  0  0
 16 15  1  0  0  0  0
 17 19  2  0  0  0  0
 17 15  1  0  0  0  0
 18 17  1  0  0  0  0
 19  2  1  0  0  0  0
 20 19  1  0  0  0  0
 21 22  1  0  0  0  0
 21 26  1  0  0  0  0
 22 23  1  0  0  0  0
 22 25  1  0  0  0  0
 24 22  1  0  0  0  0
 26 29  1  0  0  0  0
 26 27  1  0  0  0  0
 28 26  1  0  0  0  0
M  END
