7,8
 OpenBabel05122313053D

 21 21  0  0  1  0  0  0  0  0999 V2000
   -3.6473    0.1086   -0.4455 N   0  0  0  0  0  0  0  0  0  0  0  0
   -2.4568   -0.3127   -1.0686 C   0  0  2  0  0  0  0  0  0  0  0  0
   -2.1205   -1.7630   -0.6162 C   0  0  2  0  0  0  0  0  0  0  0  0
   -2.5396   -1.9988    0.8525 C   0  0  0  0  0  0  0  0  0  0  0  0
   -2.6085   -0.6923    1.6450 C   0  0  0  0  0  0  0  0  0  0  0  0
   -3.6350    0.2608    1.0154 C   0  0  0  0  0  0  0  0  0  0  0  0
   -0.6792   -2.0619   -0.8222 N   0  0  0  0  0  0  0  0  0  0  0  0
   -1.2341    0.5734   -0.8014 N   0  0  0  0  0  2  0  0  0  0  0  0
   -1.1088    1.7744   -0.5689 C   0  0  0  0  0  2  0  0  0  0  0  0
   -0.8056    3.2852   -0.1835 S   0  0  0  0  0  1  0  0  0  0  0  0
   -4.1324    0.8643   -0.9344 H   0  0  0  0  0  0  0  0  0  0  0  0
   -0.4911   -2.1914   -1.8280 H   0  0  0  0  0  0  0  0  0  0  0  0
   -0.4653   -2.9722   -0.3909 H   0  0  0  0  0  0  0  0  0  0  0  0
   -2.5865   -0.2806   -2.1699 H   0  0  0  0  0  0  0  0  0  0  0  0
   -2.7321   -2.4229   -1.2669 H   0  0  0  0  0  0  0  0  0  0  0  0
   -3.5333   -2.4898    0.8629 H   0  0  0  0  0  0  0  0  0  0  0  0
   -1.8367   -2.7127    1.3307 H   0  0  0  0  0  0  0  0  0  0  0  0
   -2.8780   -0.8851    2.7015 H   0  0  0  0  0  0  0  0  0  0  0  0
   -1.6000   -0.2263    1.6507 H   0  0  0  0  0  0  0  0  0  0  0  0
   -3.4099    1.3095    1.3186 H   0  0  0  0  0  0  0  0  0  0  0  0
   -4.6527    0.0275    1.3947 H   0  0  0  0  0  0  0  0  0  0  0  0
  1  6  1  0  0  0  0
  2 14  1  6  0  0  0
  2  8  1  0  0  0  0
  2  3  1  0  0  0  0
  2  1  1  0  0  0  0
  3 15  1  6  0  0  0
  3  4  1  0  0  0  0
  4 16  1  0  0  0  0
  4 17  1  0  0  0  0
  4  5  1  0  0  0  0
  5 19  1  0  0  0  0
  5 18  1  0  0  0  0
  6 20  1  0  0  0  0
  6 21  1  0  0  0  0
  6  5  1  0  0  0  0
  7  3  1  0  0  0  0
  7 13  1  0  0  0  0
  8  9  1  0  0  0  0
  9 10  1  0  0  0  0
 11  1  1  0  0  0  0
 12  7  1  0  0  0  0
M  END
