1,7
 OpenBabel05122313053D

 19 19  0  0  1  0  0  0  0  0999 V2000
    2.2896    0.1367   -1.1921 N   0  0  0  0  0  0  0  0  0  0  0  0
    2.7034    1.2862   -0.3647 C   0  0  0  0  0  0  0  0  0  0  0  0
    2.6787    0.8519    1.1080 C   0  0  2  0  0  0  0  0  0  0  0  0
    3.6130   -0.3530    1.3102 C   0  0  0  0  0  0  0  0  0  0  0  0
    3.3517   -1.4855    0.3051 C   0  0  0  0  0  0  0  0  0  0  0  0
    3.2886   -0.9522   -1.1271 C   0  0  0  0  0  0  0  0  0  0  0  0
    1.2731    0.4987    1.4507 N   0  0  0  0  0  0  0  0  0  0  0  0
    2.1556    0.4404   -2.1638 H   0  0  0  0  0  0  0  0  0  0  0  0
    0.7247    1.3665    1.5646 H   0  0  0  0  0  0  0  0  0  0  0  0
    1.2407    0.0264    2.3644 H   0  0  0  0  0  0  0  0  0  0  0  0
    3.7284    1.6402   -0.6238 H   0  0  0  0  0  0  0  0  0  0  0  0
    2.0012    2.1278   -0.5362 H   0  0  0  0  0  0  0  0  0  0  0  0
    3.0352    1.6962    1.7374 H   0  0  0  0  0  0  0  0  0  0  0  0
    4.6543    0.0132    1.1902 H   0  0  0  0  0  0  0  0  0  0  0  0
    3.5405   -0.7262    2.3537 H   0  0  0  0  0  0  0  0  0  0  0  0
    4.1367   -2.2636    0.3885 H   0  0  0  0  0  0  0  0  0  0  0  0
    2.3809   -1.9839    0.5328 H   0  0  0  0  0  0  0  0  0  0  0  0
    2.9898   -1.7519   -1.8339 H   0  0  0  0  0  0  0  0  0  0  0  0
    4.2952   -0.5862   -1.4434 H   0  0  0  0  0  0  0  0  0  0  0  0
  1  6  1  0  0  0  0
  1  2  1  0  0  0  0
  2  3  1  0  0  0  0
  3  4  1  0  0  0  0
  3  7  1  0  0  0  0
  3 13  1  1  0  0  0
  4 15  1  0  0  0  0
  5 16  1  0  0  0  0
  5 17  1  0  0  0  0
  5  4  1  0  0  0  0
  6  5  1  0  0  0  0
  7  9  1  0  0  0  0
  7 10  1  0  0  0  0
  8  1  1  0  0  0  0
 11  2  1  0  0  0  0
 12  2  1  0  0  0  0
 14  4  1  0  0  0  0
 18  6  1  0  0  0  0
 19  6  1  0  0  0  0
M  END
