3,4
 OpenBabel05122313053D

 27 30  0  0  1  0  0  0  0  0999 V2000
    2.3144   -3.3078   -1.8199 S   0  0  0  0  0  0  0  0  0  0  0  0
   -2.1772   -3.4361    0.2676 O   0  0  0  0  0  0  0  0  0  0  0  0
    1.0939   -1.1209   -1.0319 N   0  0  0  0  0  2  0  0  0  0  0  0
   -1.4072   -1.3212    0.0950 N   0  0  0  0  0  2  0  0  0  0  0  0
   -1.1566   -2.6237   -0.1681 C   0  0  0  0  0  0  0  0  0  0  0  0
   -0.1008   -3.2041   -0.7028 N   0  0  0  0  0  0  0  0  0  0  0  0
    2.2753   -0.7011   -1.6532 C   0  0  0  0  0  0  0  0  0  0  0  0
   -2.6095   -1.2806    0.8088 C   0  0  0  0  0  0  0  0  0  0  0  0
   -3.3088   -0.2516    1.4563 C   0  0  0  0  0  0  0  0  0  0  0  0
   -2.9218    0.7737    1.4618 H   0  0  0  0  0  0  0  0  0  0  0  0
    0.9303   -2.4649   -1.0917 C   0  0  1  0  0  3  0  0  0  0  0  0
   -3.0848   -2.6085    0.8841 C   0  0  0  0  0  0  0  0  0  0  0  0
    2.6823    0.6242   -1.9044 C   0  0  0  0  0  0  0  0  0  0  0  0
    2.0308    1.4574   -1.6165 H   0  0  0  0  0  0  0  0  0  0  0  0
   -4.4968   -0.5968    2.1194 C   0  0  0  0  0  0  0  0  0  0  0  0
   -5.0667    0.1904    2.6347 H   0  0  0  0  0  0  0  0  0  0  0  0
    3.9098    0.8582   -2.5335 C   0  0  0  0  0  0  0  0  0  0  0  0
    4.2249    1.8953   -2.7211 H   0  0  0  0  0  0  0  0  0  0  0  0
   -4.9741   -1.9245    2.1512 C   0  0  0  0  0  0  0  0  0  0  0  0
   -5.9107   -2.1517    2.6812 H   0  0  0  0  0  0  0  0  0  0  0  0
    4.7378   -0.2083   -2.9372 C   0  0  0  0  0  0  0  0  0  0  0  0
    5.7009   -0.0027   -3.4271 H   0  0  0  0  0  0  0  0  0  0  0  0
    3.0990   -1.7683   -2.1107 C   0  0  0  0  0  0  0  0  0  0  0  0
    4.3297   -1.5342   -2.7411 C   0  0  0  0  0  0  0  0  0  0  0  0
    4.9521   -2.3746   -3.0814 H   0  0  0  0  0  0  0  0  0  0  0  0
   -4.2625   -2.9695    1.5340 C   0  0  0  0  0  0  0  0  0  0  0  0
   -4.5992   -4.0147    1.5686 H   0  0  0  0  0  0  0  0  0  0  0  0
  1 11  1  0  0  0  0
  2 12  1  0  0  0  0
  4  8  1  0  0  0  0
  5  4  1  0  0  0  0
  5  2  1  0  0  0  0
  6  5  2  0  0  0  0
  7  3  1  0  0  0  0
  8 12  2  0  0  0  0
  8  9  1  0  0  0  0
  9 10  1  0  0  0  0
  9 15  2  0  0  0  0
 11  3  1  0  0  0  0
 11  6  1  6  0  0  0
 12 26  1  0  0  0  0
 13  7  1  0  0  0  0
 13 14  1  0  0  0  0
 15 19  1  0  0  0  0
 15 16  1  0  0  0  0
 17 13  2  0  0  0  0
 18 17  1  0  0  0  0
 19 20  1  0  0  0  0
 21 24  2  0  0  0  0
 21 17  1  0  0  0  0
 22 21  1  0  0  0  0
 23  1  1  0  0  0  0
 23  7  2  0  0  0  0
 24 23  1  0  0  0  0
 25 24  1  0  0  0  0
 26 27  1  0  0  0  0
 26 19  2  0  0  0  0
M  END
