2,3
 OpenBabel05122313053D

 57 62  0  0  1  0  0  0  0  0999 V2000
   -0.4591    1.3812   -0.2167 N   0  0  0  0  0  0  0  0  0  0  0  0
    0.8752    1.5292    0.0297 N   0  0  0  0  0  2  0  0  0  0  0  0
   -0.1306   -0.9263   -0.3468 N   0  0  0  0  0  2  0  0  0  0  0  0
   -2.2910   -0.0125    0.1569 N   0  0  0  0  0  0  0  0  0  0  0  0
    1.1009    2.8553    0.1202 C   0  0  1  0  0  3  0  0  0  0  0  0
   -0.1258    3.5612   -0.0720 C   0  0  0  0  0  0  0  0  0  0  0  0
   -0.2721    4.6444   -0.1178 H   0  0  0  0  0  0  0  0  0  0  0  0
   -1.1092    2.6052   -0.2933 C   0  0  0  0  0  0  0  0  0  0  0  0
   -1.0066    0.0767   -0.1411 C   0  0  1  0  0  3  0  0  0  0  0  0
    2.4297    3.4216    0.3869 C   0  0  0  0  0  0  0  0  0  0  0  0
    3.6022    2.6530    0.2145 C   0  0  0  0  0  0  0  0  0  0  0  0
    3.5350    1.6128   -0.1444 H   0  0  0  0  0  0  0  0  0  0  0  0
    4.8584    3.2104    0.4793 C   0  0  0  0  0  0  0  0  0  0  0  0
    5.7569    2.5919    0.3330 H   0  0  0  0  0  0  0  0  0  0  0  0
    4.9700    4.5405    0.9156 C   0  0  0  0  0  0  0  0  0  0  0  0
    5.9596    4.9764    1.1218 H   0  0  0  0  0  0  0  0  0  0  0  0
    3.8100    5.3146    1.0854 C   0  0  0  0  0  0  0  0  0  0  0  0
    3.8864    6.3572    1.4298 H   0  0  0  0  0  0  0  0  0  0  0  0
    2.5505    4.7615    0.8233 C   0  0  0  0  0  0  0  0  0  0  0  0
    1.6483    5.3720    0.9776 H   0  0  0  0  0  0  0  0  0  0  0  0
   -2.8225   -1.2512    0.2731 C   0  0  0  0  0  0  0  0  0  0  0  0
   -4.2767   -1.3268    0.5413 C   0  0  0  0  0  0  0  0  0  0  0  0
   -5.0274   -0.1289    0.6002 C   0  0  0  0  0  0  0  0  0  0  0  0
   -4.5035    0.8255    0.4540 H   0  0  0  0  0  0  0  0  0  0  0  0
   -6.4064   -0.1642    0.8326 C   0  0  0  0  0  0  0  0  0  0  0  0
   -6.9738    0.7783    0.8684 H   0  0  0  0  0  0  0  0  0  0  0  0
   -7.0623   -1.3927    1.0174 C   0  0  0  0  0  0  0  0  0  0  0  0
   -8.1470   -1.4204    1.2019 H   0  0  0  0  0  0  0  0  0  0  0  0
   -6.3263   -2.5884    0.9667 C   0  0  0  0  0  0  0  0  0  0  0  0
   -6.8325   -3.5545    1.1129 H   0  0  0  0  0  0  0  0  0  0  0  0
   -4.9466   -2.5571    0.7303 C   0  0  0  0  0  0  0  0  0  0  0  0
   -4.3904   -3.5051    0.6960 H   0  0  0  0  0  0  0  0  0  0  0  0
   -1.9870   -2.3778    0.1281 C   0  0  0  0  0  0  0  0  0  0  0  0
   -2.3838   -3.3970    0.2038 H   0  0  0  0  0  0  0  0  0  0  0  0
   -2.5254    2.7991   -0.6481 C   0  0  0  0  0  0  0  0  0  0  0  0
   -3.0927    2.1758   -1.7823 C   0  0  0  0  0  0  0  0  0  0  0  0
   -2.4723    1.5144   -2.4048 H   0  0  0  0  0  0  0  0  0  0  0  0
   -4.4333    2.3968   -2.1156 C   0  0  0  0  0  0  0  0  0  0  0  0
   -4.8633    1.9016   -2.9992 H   0  0  0  0  0  0  0  0  0  0  0  0
   -5.2286    3.2484   -1.3287 C   0  0  0  0  0  0  0  0  0  0  0  0
   -6.2836    3.4176   -1.5920 H   0  0  0  0  0  0  0  0  0  0  0  0
   -4.6697    3.8828   -0.2090 C   0  0  0  0  0  0  0  0  0  0  0  0
   -5.2848    4.5512    0.4123 H   0  0  0  0  0  0  0  0  0  0  0  0
   -3.3255    3.6625    0.1289 C   0  0  0  0  0  0  0  0  0  0  0  0
   -2.8901    4.1425    1.0179 H   0  0  0  0  0  0  0  0  0  0  0  0
   -0.6285   -2.1843   -0.1845 C   0  0  0  0  0  0  0  0  0  0  0  0
    0.2941   -3.3244   -0.3784 C   0  0  0  0  0  0  0  0  0  0  0  0
    1.3802   -3.2139   -1.2737 C   0  0  0  0  0  0  0  0  0  0  0  0
    1.5510   -2.2723   -1.8130 H   0  0  0  0  0  0  0  0  0  0  0  0
    2.2548   -4.2919   -1.4624 C   0  0  0  0  0  0  0  0  0  0  0  0
    3.1031   -4.1749   -2.1524 H   0  0  0  0  0  0  0  0  0  0  0  0
    2.0614   -5.4919   -0.7603 C   0  0  0  0  0  0  0  0  0  0  0  0
    2.7519   -6.3364   -0.9075 H   0  0  0  0  0  0  0  0  0  0  0  0
    0.9893   -5.6086    0.1429 C   0  0  0  0  0  0  0  0  0  0  0  0
    0.8419   -6.5405    0.7095 H   0  0  0  0  0  0  0  0  0  0  0  0
    0.1105   -4.5339    0.3317 C   0  0  0  0  0  0  0  0  0  0  0  0
   -0.7068   -4.6210    1.0634 H   0  0  0  0  0  0  0  0  0  0  0  0
  1  2  1  0  0  0  0
  2  5  1  0  0  0  0
  3 46  1  0  0  0  0
  3  9  1  0  0  0  0
  4 21  2  0  0  0  0
  5 10  1  1  0  0  0
  6  5  1  0  0  0  0
  7  6  1  0  0  0  0
  8  1  1  0  0  0  0
  8  6  2  0  0  0  0
  9  1  1  1  0  0  0
  9  4  1  0  0  0  0
 10 19  1  0  0  0  0
 11 10  2  0  0  0  0
 11 13  1  0  0  0  0
 12 11  1  0  0  0  0
 13 15  2  0  0  0  0
 14 13  1  0  0  0  0
 15 17  1  0  0  0  0
 15 16  1  0  0  0  0
 17 18  1  0  0  0  0
 19 20  1  0  0  0  0
 19 17  2  0  0  0  0
 21 22  1  0  0  0  0
 22 23  2  0  0  0  0
 22 31  1  0  0  0  0
 23 25  1  0  0  0  0
 24 23  1  0  0  0  0
 25 26  1  0  0  0  0
 25 27  2  0  0  0  0
 27 28  1  0  0  0  0
 29 27  1  0  0  0  0
 29 30  1  0  0  0  0
 31 29  2  0  0  0  0
 32 31  1  0  0  0  0
 33 34  1  0  0  0  0
 33 21  1  0  0  0  0
 35  8  1  0  0  0  0
 35 44  1  0  0  0  0
 36 35  2  0  0  0  0
 37 36  1  0  0  0  0
 38 36  1  0  0  0  0
 38 40  2  0  0  0  0
 39 38  1  0  0  0  0
 40 42  1  0  0  0  0
 41 40  1  0  0  0  0
 42 44  2  0  0  0  0
 42 43  1  0  0  0  0
 44 45  1  0  0  0  0
 46 33  2  0  0  0  0
 47 46  1  0  0  0  0
 47 56  1  0  0  0  0
 48 47  2  0  0  0  0
 49 48  1  0  0  0  0
 50 48  1  0  0  0  0
 50 52  2  0  0  0  0
 51 50  1  0  0  0  0
 52 54  1  0  0  0  0
 53 52  1  0  0  0  0
 54 56  2  0  0  0  0
 54 55  1  0  0  0  0
 56 57  1  0  0  0  0
M  END
