1,3
 OpenBabel05122313053D

 15 14  0  0  1  0  0  0  0  0999 V2000
    1.3158    1.3057    0.0009 N   0  0  0  0  0  2  0  0  0  0  0  0
    1.0264    2.2917    0.0021 H   0  0  0  0  0  0  0  0  0  0  0  0
    1.3158   -1.3057   -0.0010 N   0  0  0  0  0  2  0  0  0  0  0  0
    1.0265   -2.2917   -0.0027 H   0  0  0  0  0  0  0  0  0  0  0  0
    3.3052   -0.0000    0.0001 N   0  0  0  0  0  0  0  0  0  0  0  0
    2.6364   -1.1655   -0.0013 C   0  0  2  0  0  3  0  0  0  0  0  0
    2.6364    1.1655    0.0012 C   0  0  0  0  0  0  0  0  0  0  0  0
    3.5108    2.4012    0.0036 C   0  0  0  0  0  0  0  0  0  0  0  0
    4.1787    2.3810   -0.8805 H   0  0  0  0  0  0  0  0  0  0  0  0
    4.1684    2.3849    0.8956 H   0  0  0  0  0  0  0  0  0  0  0  0
    2.9294    3.3434   -0.0016 H   0  0  0  0  0  0  0  0  0  0  0  0
    3.5108   -2.4012   -0.0035 C   0  0  0  0  0  0  0  0  0  0  0  0
    4.1766   -2.3824    0.8822 H   0  0  0  0  0  0  0  0  0  0  0  0
    4.1705   -2.3835   -0.8939 H   0  0  0  0  0  0  0  0  0  0  0  0
    2.9294   -3.3434   -0.0011 H   0  0  0  0  0  0  0  0  0  0  0  0
  1  7  1  0  0  0  0
  1  2  1  0  0  0  0
  4  3  1  0  0  0  0
  5  7  2  0  0  0  0
  6  3  1  6  0  0  0
  6  5  1  0  0  0  0
  7  8  1  0  0  0  0
  8 10  1  0  0  0  0
  9  8  1  0  0  0  0
 11  8  1  0  0  0  0
 12  6  1  0  0  0  0
 12 15  1  0  0  0  0
 12 13  1  0  0  0  0
 14 12  1  0  0  0  0
M  END
