1,2
 OpenBabel05122313053D

 15 15  0  0  1  0  0  0  0  0999 V2000
   -1.8433   -0.3017    0.2450 N   0  0  0  0  0  2  0  0  0  0  0  0
   -1.0388    1.5697   -1.5536 N   0  0  0  0  0  0  0  0  0  0  0  0
   -2.7946    0.2876   -0.5192 C   0  0  2  0  0  3  0  0  0  0  0  0
   -2.2226   -1.2821    1.1067 C   0  0  0  0  0  0  0  0  0  0  0  0
   -2.3962    1.3068   -1.3684 N   0  0  0  0  0  0  0  0  0  0  0  0
   -0.7102    1.2544   -2.4805 H   0  0  0  0  0  0  0  0  0  0  0  0
   -0.8601    2.5813   -1.4858 H   0  0  0  0  0  0  0  0  0  0  0  0
   -4.1550   -0.0916   -0.4507 C   0  0  0  0  0  0  0  0  0  0  0  0
   -3.5404   -1.7094    1.2421 C   0  0  0  0  0  0  0  0  0  0  0  0
   -1.4125   -1.7361    1.6976 H   0  0  0  0  0  0  0  0  0  0  0  0
   -3.0671    1.6311   -2.0691 H   0  0  0  0  0  0  0  0  0  0  0  0
   -4.5243   -1.0967    0.4409 C   0  0  0  0  0  0  0  0  0  0  0  0
   -4.8996    0.4056   -1.0899 H   0  0  0  0  0  0  0  0  0  0  0  0
   -3.7927   -2.5078    1.9527 H   0  0  0  0  0  0  0  0  0  0  0  0
   -5.5771   -1.4073    0.5111 H   0  0  0  0  0  0  0  0  0  0  0  0
  1  4  1  0  0  0  0
  2  7  1  0  0  0  0
  2  5  1  0  0  0  0
  3  5  1  1  0  0  0
  3  8  1  0  0  0  0
  3  1  1  0  0  0  0
  4  9  2  0  0  0  0
  4 10  1  0  0  0  0
  6  2  1  0  0  0  0
  8 12  2  0  0  0  0
  9 14  1  0  0  0  0
 11  5  1  0  0  0  0
 12 15  1  0  0  0  0
 12  9  1  0  0  0  0
 13  8  1  0  0  0  0
M  END
