1,2
 OpenBabel05122313053D

 32 32  0  0  0  0  0  0  0  0999 V2000
   -1.9044   -0.5670   -0.9856 N   0  0  0  0  0  2  0  0  0  0  0  0
    0.3030    0.4927   -1.6085 N   0  0  0  0  0  2  0  0  0  0  0  0
   -3.0855   -1.0486   -0.5185 C   0  0  0  0  0  3  0  0  0  0  0  0
   -3.0310   -1.7257    0.3430 H   0  0  0  0  0  0  0  0  0  0  0  0
   -4.3246   -0.7266   -1.0728 C   0  0  0  0  0  0  0  0  0  0  0  0
   -5.2350   -1.1631   -0.6385 H   0  0  0  0  0  0  0  0  0  0  0  0
   -4.3869    0.1476   -2.1753 C   0  0  0  0  0  0  0  0  0  0  0  0
   -5.3492    0.4046   -2.6399 H   0  0  0  0  0  0  0  0  0  0  0  0
   -3.1926    0.6921   -2.6470 C   0  0  0  0  0  0  0  0  0  0  0  0
   -3.1770    1.4025   -3.4862 H   0  0  0  0  0  0  0  0  0  0  0  0
   -1.9760    0.3384   -2.0305 C   0  0  0  0  0  0  0  0  0  0  0  0
   -0.6991    0.9092   -2.3457 C   0  0  0  0  0  3  0  0  0  0  0  0
   -0.5751    1.6767   -3.1293 H   0  0  0  0  0  0  0  0  0  0  0  0
    1.6072    1.1149   -1.8083 C   0  0  0  0  0  0  0  0  0  0  0  0
    2.3720    0.3145   -1.8416 H   0  0  0  0  0  0  0  0  0  0  0  0
    1.6265    1.6298   -2.7920 H   0  0  0  0  0  0  0  0  0  0  0  0
    1.9201    2.1047   -0.6791 C   0  0  0  0  0  0  0  0  0  0  0  0
    1.8023    1.5808    0.2912 H   0  0  0  0  0  0  0  0  0  0  0  0
    1.1433    2.8999   -0.6938 H   0  0  0  0  0  0  0  0  0  0  0  0
    3.3193    2.7671   -0.7227 C   0  0  0  0  0  0  0  0  0  0  0  0
    3.4044    3.7238    0.4819 C   0  0  0  0  0  0  0  0  0  0  0  0
    3.2724    3.1756    1.4380 H   0  0  0  0  0  0  0  0  0  0  0  0
    2.6214    4.5081    0.4292 H   0  0  0  0  0  0  0  0  0  0  0  0
    4.3891    4.2319    0.5166 H   0  0  0  0  0  0  0  0  0  0  0  0
    3.5070    3.5706   -2.0228 C   0  0  0  0  0  0  0  0  0  0  0  0
    2.6997    4.3210   -2.1527 H   0  0  0  0  0  0  0  0  0  0  0  0
    3.5176    2.9187   -2.9201 H   0  0  0  0  0  0  0  0  0  0  0  0
    4.4715    4.1171   -2.0081 H   0  0  0  0  0  0  0  0  0  0  0  0
    4.4280    1.7056   -0.5991 C   0  0  0  0  0  0  0  0  0  0  0  0
    5.4254    2.1877   -0.5540 H   0  0  0  0  0  0  0  0  0  0  0  0
    4.4426    1.0105   -1.4635 H   0  0  0  0  0  0  0  0  0  0  0  0
    4.3046    1.1003    0.3224 H   0  0  0  0  0  0  0  0  0  0  0  0
  1  3  1  0  0  0  0
  3  4  1  0  0  0  0
  5  6  1  0  0  0  0
  5  3  1  0  0  0  0
  7  5  2  0  0  0  0
  8  7  1  0  0  0  0
  9  7  1  0  0  0  0
  9 11  2  0  0  0  0
 10  9  1  0  0  0  0
 11  1  1  0  0  0  0
 12 11  1  0  0  0  0
 12  2  1  0  0  0  0
 13 12  1  0  0  0  0
 14  2  1  0  0  0  0
 14 17  1  0  0  0  0
 15 14  1  0  0  0  0
 16 14  1  0  0  0  0
 17 18  1  0  0  0  0
 19 17  1  0  0  0  0
 20 17  1  0  0  0  0
 20 29  1  0  0  0  0
 20 21  1  0  0  0  0
 21 24  1  0  0  0  0
 21 22  1  0  0  0  0
 23 21  1  0  0  0  0
 25 28  1  0  0  0  0
 25 20  1  0  0  0  0
 26 25  1  0  0  0  0
 27 25  1  0  0  0  0
 29 30  1  0  0  0  0
 29 32  1  0  0  0  0
 31 29  1  0  0  0  0
M  END
