1,2
 OpenBabel05122313053D

 46 47  0  0  0  0  0  0  0  0999 V2000
   -1.0512   -0.5859    0.3128 N   0  0  0  0  0  2  0  0  0  0  0  0
    1.0588   -0.6532   -0.3570 N   0  0  0  0  0  2  0  0  0  0  0  0
   -0.0578   -2.7749    0.0247 N   0  0  0  0  0  0  0  0  0  0  0  0
   -0.0203   -1.4049   -0.0152 C   0  0  0  0  0  3  0  0  0  0  0  0
   -2.4175   -0.8496    0.1663 C   0  0  0  0  0  0  0  0  0  0  0  0
   -2.9416   -1.6094   -0.9082 C   0  0  0  0  0  0  0  0  0  0  0  0
   -2.2514   -2.0306   -1.6540 H   0  0  0  0  0  0  0  0  0  0  0  0
   -4.3205   -1.8138   -1.0314 C   0  0  0  0  0  0  0  0  0  0  0  0
   -4.6999   -2.4120   -1.8759 H   0  0  0  0  0  0  0  0  0  0  0  0
   -5.2362   -1.2603   -0.1115 C   0  0  0  0  0  0  0  0  0  0  0  0
   -4.7081   -0.4927    0.9466 C   0  0  0  0  0  0  0  0  0  0  0  0
   -5.3955   -0.0472    1.6838 H   0  0  0  0  0  0  0  0  0  0  0  0
   -3.3302   -0.2894    1.0886 C   0  0  0  0  0  0  0  0  0  0  0  0
   -2.9325    0.3031    1.9257 H   0  0  0  0  0  0  0  0  0  0  0  0
   -6.7227   -1.4525   -0.2786 C   0  0  0  0  0  0  0  0  0  0  0  0
   -7.1467   -0.7197   -0.9995 H   0  0  0  0  0  0  0  0  0  0  0  0
   -7.2623   -1.3160    0.6793 H   0  0  0  0  0  0  0  0  0  0  0  0
   -6.9643   -2.4623   -0.6675 H   0  0  0  0  0  0  0  0  0  0  0  0
    2.4071   -0.9939   -0.1911 C   0  0  0  0  0  0  0  0  0  0  0  0
    2.8722   -1.8188    0.8629 C   0  0  0  0  0  0  0  0  0  0  0  0
    2.1490   -2.2368    1.5779 H   0  0  0  0  0  0  0  0  0  0  0  0
    4.2366   -2.0927    1.0047 C   0  0  0  0  0  0  0  0  0  0  0  0
    4.5691   -2.7379    1.8343 H   0  0  0  0  0  0  0  0  0  0  0  0
    5.1978   -1.5520    0.1243 C   0  0  0  0  0  0  0  0  0  0  0  0
    4.7291   -0.7233   -0.9152 C   0  0  0  0  0  0  0  0  0  0  0  0
    5.4518   -0.2856   -1.6227 H   0  0  0  0  0  0  0  0  0  0  0  0
    3.3655   -0.4485   -1.0759 C   0  0  0  0  0  0  0  0  0  0  0  0
    3.0140    0.1895   -1.9000 H   0  0  0  0  0  0  0  0  0  0  0  0
    6.6694   -1.8225    0.3134 C   0  0  0  0  0  0  0  0  0  0  0  0
    7.2375   -1.6643   -0.6245 H   0  0  0  0  0  0  0  0  0  0  0  0
    6.8548   -2.8609    0.6552 H   0  0  0  0  0  0  0  0  0  0  0  0
    7.1099   -1.1479    1.0798 H   0  0  0  0  0  0  0  0  0  0  0  0
   -0.9896   -3.4843    0.9136 C   0  0  0  0  0  0  0  0  0  0  0  0
   -0.7538   -4.5619    0.8048 H   0  0  0  0  0  0  0  0  0  0  0  0
   -2.0404   -3.3593    0.5737 H   0  0  0  0  0  0  0  0  0  0  0  0
   -0.8584   -3.0717    2.3780 C   0  0  0  0  0  0  0  0  0  0  0  0
    0.1662   -3.2587    2.7589 H   0  0  0  0  0  0  0  0  0  0  0  0
   -1.5700   -3.6510    2.9994 H   0  0  0  0  0  0  0  0  0  0  0  0
   -1.0874   -1.9965    2.5114 H   0  0  0  0  0  0  0  0  0  0  0  0
    0.7900   -3.5822   -0.8549 C   0  0  0  0  0  0  0  0  0  0  0  0
    1.3248   -4.3405   -0.2414 H   0  0  0  0  0  0  0  0  0  0  0  0
    1.5719   -2.9306   -1.2841 H   0  0  0  0  0  0  0  0  0  0  0  0
    0.0007   -4.2546   -1.9799 C   0  0  0  0  0  0  0  0  0  0  0  0
   -0.8047   -4.9099   -1.5905 H   0  0  0  0  0  0  0  0  0  0  0  0
    0.6743   -4.8811   -2.5986 H   0  0  0  0  0  0  0  0  0  0  0  0
   -0.4649   -3.4966   -2.6417 H   0  0  0  0  0  0  0  0  0  0  0  0
  2 19  1  0  0  0  0
  2  4  1  0  0  0  0
  3 33  1  0  0  0  0
  4  3  1  0  0  0  0
  4  1  1  0  0  0  0
  5  1  1  0  0  0  0
  5 13  1  0  0  0  0
  6  5  2  0  0  0  0
  7  6  1  0  0  0  0
  8  6  1  0  0  0  0
  8 10  2  0  0  0  0
  9  8  1  0  0  0  0
 10 11  1  0  0  0  0
 11 13  2  0  0  0  0
 11 12  1  0  0  0  0
 13 14  1  0  0  0  0
 15 10  1  0  0  0  0
 15 17  1  0  0  0  0
 16 15  1  0  0  0  0
 18 15  1  0  0  0  0
 19 20  1  0  0  0  0
 20 22  2  0  0  0  0
 20 21  1  0  0  0  0
 22 23  1  0  0  0  0
 24 29  1  0  0  0  0
 24 22  1  0  0  0  0
 25 24  2  0  0  0  0
 26 25  1  0  0  0  0
 27 25  1  0  0  0  0
 27 19  2  0  0  0  0
 28 27  1  0  0  0  0
 29 31  1  0  0  0  0
 29 32  1  0  0  0  0
 30 29  1  0  0  0  0
 33 36  1  0  0  0  0
 34 33  1  0  0  0  0
 35 33  1  0  0  0  0
 36 39  1  0  0  0  0
 36 37  1  0  0  0  0
 36 38  1  0  0  0  0
 40 41  1  0  0  0  0
 40  3  1  0  0  0  0
 42 40  1  0  0  0  0
 43 44  1  0  0  0  0
 43 40  1  0  0  0  0
 45 43  1  0  0  0  0
 46 43  1  0  0  0  0
M  END
