1,22
 OpenBabel05122313053D

 40 41  0  0  0  0  0  0  0  0999 V2000
   -1.0611    0.2185   -0.3048 N   0  0  0  0  0  2  0  0  0  0  0  0
   -0.0001    2.3769    0.0002 N   0  0  0  0  0  0  0  0  0  0  0  0
   -0.0001    1.0086    0.0003 C   0  0  0  0  0  3  0  0  0  0  0  0
   -2.4163    0.5139   -0.0582 C   0  0  0  0  0  0  0  0  0  0  0  0
   -3.3930    0.0782   -0.9798 C   0  0  0  0  0  0  0  0  0  0  0  0
   -3.0627   -0.4550   -1.8836 H   0  0  0  0  0  0  0  0  0  0  0  0
   -4.7522    0.3190   -0.7398 C   0  0  0  0  0  0  0  0  0  0  0  0
   -5.5011   -0.0279   -1.4681 H   0  0  0  0  0  0  0  0  0  0  0  0
   -5.1611    0.9974    0.4203 C   0  0  0  0  0  0  0  0  0  0  0  0
   -6.2290    1.1844    0.6072 H   0  0  0  0  0  0  0  0  0  0  0  0
   -4.1953    1.4195    1.3486 C   0  0  0  0  0  0  0  0  0  0  0  0
   -4.5060    1.9309    2.2730 H   0  0  0  0  0  0  0  0  0  0  0  0
   -2.8343    1.1755    1.1192 C   0  0  0  0  0  0  0  0  0  0  0  0
   -2.0806    1.4767    1.8617 H   0  0  0  0  0  0  0  0  0  0  0  0
   -0.9034    3.1313   -0.8783 C   0  0  0  0  0  0  0  0  0  0  0  0
   -1.5390    2.3998   -1.4097 H   0  0  0  0  0  0  0  0  0  0  0  0
   -0.2839    3.6303   -1.6588 H   0  0  0  0  0  0  0  0  0  0  0  0
   -1.7728    4.1705   -0.1742 C   0  0  0  0  0  0  0  0  0  0  0  0
   -1.1699    4.9606    0.3166 H   0  0  0  0  0  0  0  0  0  0  0  0
   -2.4270    3.7020    0.5850 H   0  0  0  0  0  0  0  0  0  0  0  0
   -2.4230    4.6690   -0.9199 H   0  0  0  0  0  0  0  0  0  0  0  0
    1.0609    0.2187    0.3056 N   0  0  0  0  0  2  0  0  0  0  0  0
    2.4160    0.5141    0.0584 C   0  0  0  0  0  0  0  0  0  0  0  0
    3.3931    0.0794    0.9802 C   0  0  0  0  0  0  0  0  0  0  0  0
    3.0631   -0.4531    1.8845 H   0  0  0  0  0  0  0  0  0  0  0  0
    4.7522    0.3202    0.7396 C   0  0  0  0  0  0  0  0  0  0  0  0
    5.5013   -0.0259    1.4680 H   0  0  0  0  0  0  0  0  0  0  0  0
    5.1607    0.9977   -0.4211 C   0  0  0  0  0  0  0  0  0  0  0  0
    6.2285    1.1848   -0.6084 H   0  0  0  0  0  0  0  0  0  0  0  0
    4.1946    1.4188   -1.3496 C   0  0  0  0  0  0  0  0  0  0  0  0
    4.5049    1.9295   -2.2744 H   0  0  0  0  0  0  0  0  0  0  0  0
    2.8337    1.1748   -1.1196 C   0  0  0  0  0  0  0  0  0  0  0  0
    2.0797    1.4753   -1.8622 H   0  0  0  0  0  0  0  0  0  0  0  0
    0.9033    3.1315    0.8783 C   0  0  0  0  0  0  0  0  0  0  0  0
    1.5387    2.4001    1.4101 H   0  0  0  0  0  0  0  0  0  0  0  0
    0.2839    3.6310    1.6586 H   0  0  0  0  0  0  0  0  0  0  0  0
    1.7729    4.1701    0.1738 C   0  0  0  0  0  0  0  0  0  0  0  0
    1.1703    4.9601   -0.3174 H   0  0  0  0  0  0  0  0  0  0  0  0
    2.4271    3.7012   -0.5852 H   0  0  0  0  0  0  0  0  0  0  0  0
    2.4232    4.6689    0.9193 H   0  0  0  0  0  0  0  0  0  0  0  0
  1  4  1  0  0  0  0
  1  3  1  0  0  0  0
  2  3  1  0  0  0  0
  2 34  1  0  0  0  0
  3 22  1  0  0  0  0
  4 13  1  0  0  0  0
  5  7  1  0  0  0  0
  5  4  2  0  0  0  0
  6  5  1  0  0  0  0
  7  9  2  0  0  0  0
  8  7  1  0  0  0  0
  9 10  1  0  0  0  0
  9 11  1  0  0  0  0
 11 12  1  0  0  0  0
 13 11  2  0  0  0  0
 13 14  1  0  0  0  0
 15 18  1  0  0  0  0
 15  2  1  0  0  0  0
 16 15  1  0  0  0  0
 17 15  1  0  0  0  0
 18 19  1  0  0  0  0
 18 20  1  0  0  0  0
 21 18  1  0  0  0  0
 23 22  1  0  0  0  0
 23 24  1  0  0  0  0
 24 25  1  0  0  0  0
 26 24  2  0  0  0  0
 26 27  1  0  0  0  0
 28 26  1  0  0  0  0
 29 28  1  0  0  0  0
 30 32  1  0  0  0  0
 30 28  2  0  0  0  0
 31 30  1  0  0  0  0
 32 23  2  0  0  0  0
 33 32  1  0  0  0  0
 34 35  1  0  0  0  0
 34 36  1  0  0  0  0
 37 34  1  0  0  0  0
 37 40  1  0  0  0  0
 38 37  1  0  0  0  0
 39 37  1  0  0  0  0
M  END
