1,3
 OpenBabel05122313053D

 19 18  0  0  0  0  0  0  0  0999 V2000
   -1.8539   -0.2795   -0.1494 N   0  0  0  0  0  0  0  0  0  0  0  0
   -2.0106   -0.7716    0.7627 H   0  0  0  0  0  0  0  0  0  0  0  0
    0.4026   -1.4147   -1.0677 N   0  0  0  0  0  0  0  0  0  0  0  0
    0.5526   -0.9740   -2.0011 H   0  0  0  0  0  0  0  0  0  0  0  0
    1.2684   -1.9302   -0.8004 H   0  0  0  0  0  0  0  0  0  0  0  0
   -0.8102   -2.2541   -1.0854 C   0  0  0  0  0  0  0  0  0  0  0  0
   -0.8701   -2.8214   -0.1351 H   0  0  0  0  0  0  0  0  0  0  0  0
   -0.7881   -2.9881   -1.9178 H   0  0  0  0  0  0  0  0  0  0  0  0
   -2.8563    0.8058   -0.2453 C   0  0  0  0  0  0  0  0  0  0  0  0
   -2.6775    1.4083   -1.1586 H   0  0  0  0  0  0  0  0  0  0  0  0
   -2.7090    1.4769    0.6250 H   0  0  0  0  0  0  0  0  0  0  0  0
   -1.9908   -1.3102   -1.2159 C   0  0  0  0  0  0  0  0  0  0  0  0
   -1.9802   -0.7984   -2.2009 H   0  0  0  0  0  0  0  0  0  0  0  0
   -2.9501   -1.8554   -1.1107 H   0  0  0  0  0  0  0  0  0  0  0  0
   -4.2925    0.2559   -0.2151 C   0  0  0  0  0  0  0  0  0  0  0  0
   -4.9994    1.1078   -0.1022 H   0  0  0  0  0  0  0  0  0  0  0  0
   -4.5348   -0.2215   -1.1876 H   0  0  0  0  0  0  0  0  0  0  0  0
   -4.4397   -0.7357    0.7829 O   0  0  0  0  0  0  0  0  0  0  0  0
   -4.6910   -0.3122    1.6234 H   0  0  0  0  0  0  0  0  0  0  0  0
  1  2  1  0  0  0  0
  3  5  1  0  0  0  0
  4  3  1  0  0  0  0
  6  3  1  0  0  0  0
  6  7  1  0  0  0  0
  8  6  1  0  0  0  0
  9 15  1  0  0  0  0
  9  1  1  0  0  0  0
  9 11  1  0  0  0  0
 10  9  1  0  0  0  0
 12 14  1  0  0  0  0
 12  6  1  0  0  0  0
 12  1  1  0  0  0  0
 13 12  1  0  0  0  0
 15 16  1  0  0  0  0
 15 18  1  0  0  0  0
 17 15  1  0  0  0  0
 18 19  1  0  0  0  0
M  END
