1,2
 OpenBabel05122313053D

 28 30  0  0  0  0  0  0  0  0999 V2000
    2.3339    0.8778    0.0000 N   0  0  0  0  0  2  0  0  0  0  0  0
   -0.2637    0.4359   -0.0005 N   0  0  0  0  0  2  0  0  0  0  0  0
   -1.5215    0.0509   -0.0007 N   0  0  0  0  0  2  0  0  0  0  0  0
   -4.8685    1.3940    0.0003 N   0  0  0  0  0  0  0  0  0  0  0  0
    3.6728    1.0061   -0.0005 C   0  0  0  0  0  3  0  0  0  0  0  0
    4.3053    2.2543   -0.0009 C   0  0  0  0  0  0  0  0  0  0  0  0
    3.5148    3.4121   -0.0010 C   0  0  0  0  0  0  0  0  0  0  0  0
    2.1228    3.2793   -0.0005 C   0  0  0  0  0  0  0  0  0  0  0  0
    1.5512    1.9940   -0.0001 C   0  0  0  0  0  0  0  0  0  0  0  0
    0.1017    1.7500    0.0002 C   0  0  0  0  0  0  0  0  0  0  0  0
   -0.8925    2.7488    0.0009 C   0  0  0  0  0  0  0  0  0  0  0  0
   -2.2233    2.3580    0.0009 C   0  0  0  0  0  0  0  0  0  0  0  0
   -2.5010    0.9706   -0.0000 C   0  0  0  0  0  0  0  0  0  0  0  0
   -3.8951    0.4601   -0.0003 C   0  0  0  0  0  0  0  0  0  0  0  0
   -4.1559   -0.9268   -0.0011 C   0  0  0  0  0  0  0  0  0  0  0  0
   -5.4906   -1.3478   -0.0012 C   0  0  0  0  0  0  0  0  0  0  0  0
   -6.5072   -0.3811   -0.0006 C   0  0  0  0  0  0  0  0  0  0  0  0
   -6.1396    0.9765    0.0002 C   0  0  0  0  0  0  0  0  0  0  0  0
    4.2526    0.0728   -0.0004 H   0  0  0  0  0  0  0  0  0  0  0  0
    5.4028    2.3069   -0.0013 H   0  0  0  0  0  0  0  0  0  0  0  0
    3.9770    4.4100   -0.0014 H   0  0  0  0  0  0  0  0  0  0  0  0
    1.4807    4.1699   -0.0007 H   0  0  0  0  0  0  0  0  0  0  0  0
   -0.6169    3.8122    0.0017 H   0  0  0  0  0  0  0  0  0  0  0  0
   -3.0649    3.0637    0.0015 H   0  0  0  0  0  0  0  0  0  0  0  0
   -3.3162   -1.6355   -0.0015 H   0  0  0  0  0  0  0  0  0  0  0  0
   -5.7341   -2.4209   -0.0018 H   0  0  0  0  0  0  0  0  0  0  0  0
   -7.5692   -0.6681   -0.0007 H   0  0  0  0  0  0  0  0  0  0  0  0
   -6.9145    1.7633    0.0007 H   0  0  0  0  0  0  0  0  0  0  0  0
  2 10  1  0  0  0  0
  3  2  1  0  0  0  0
  3 13  1  0  0  0  0
  5 19  1  0  0  0  0
  5  1  1  0  0  0  0
  6  5  1  0  0  0  0
  7  6  2  0  0  0  0
  7  8  1  0  0  0  0
  8  9  2  0  0  0  0
  9  1  1  0  0  0  0
  9 10  1  0  0  0  0
 10 11  2  0  0  0  0
 11 23  1  0  0  0  0
 12 11  1  0  0  0  0
 12 24  1  0  0  0  0
 13 12  2  0  0  0  0
 14 13  1  0  0  0  0
 14  4  2  0  0  0  0
 15 14  1  0  0  0  0
 16 15  2  0  0  0  0
 16 17  1  0  0  0  0
 17 18  2  0  0  0  0
 18  4  1  0  0  0  0
 18 28  1  0  0  0  0
 20  6  1  0  0  0  0
 21  7  1  0  0  0  0
 22  8  1  0  0  0  0
 25 15  1  0  0  0  0
 26 16  1  0  0  0  0
 27 17  1  0  0  0  0
M  END
