1,6
 OpenBabel05122313053D

 36 38  0  0  1  0  0  0  0  0999 V2000
    0.8008   -0.6165   -0.7183 N   0  0  0  0  0  2  0  0  0  0  0  0
    2.9186    0.0178    1.2224 O   0  0  0  0  0  0  0  0  0  0  0  0
   -2.8091   -1.1543   -1.0165 N   0  0  0  0  0  0  0  0  0  0  0  0
   -2.7380    0.9820   -0.2734 C   0  0  0  0  0  0  0  0  0  0  0  0
   -3.6141   -0.0856   -0.6390 C   0  0  0  0  0  0  0  0  0  0  0  0
   -1.4327    0.5298   -0.4133 N   0  0  0  0  0  2  0  0  0  0  0  0
   -3.2739   -2.5054   -1.2815 C   0  0  0  0  0  0  0  0  0  0  0  0
   -2.9354   -2.8541   -2.2768 H   0  0  0  0  0  0  0  0  0  0  0  0
   -4.3775   -2.5047   -1.2764 H   0  0  0  0  0  0  0  0  0  0  0  0
   -2.9084   -3.1715   -0.4727 H   0  0  0  0  0  0  0  0  0  0  0  0
   -1.5074   -0.7431   -0.8652 C   0  0  1  0  0  3  0  0  0  0  0  0
    2.0545   -1.1361   -0.6810 C   0  0  1  0  0  3  0  0  0  0  0  0
   -0.2511   -1.4371   -1.0577 C   0  0  0  0  0  0  0  0  0  0  0  0
    4.3251   -0.5128   -0.4933 O   0  0  0  0  0  0  0  0  0  0  0  0
    3.1203   -0.3981    0.0907 C   0  0  0  0  0  0  0  0  0  0  0  0
   -0.0487   -2.7662   -1.4664 C   0  0  0  0  0  0  0  0  0  0  0  0
   -0.9006   -3.4053   -1.7181 H   0  0  0  0  0  0  0  0  0  0  0  0
   -5.0119    0.0459   -0.5781 C   0  0  0  0  0  0  0  0  0  0  0  0
   -5.6863   -0.7763   -0.8558 H   0  0  0  0  0  0  0  0  0  0  0  0
    2.3184   -2.4413   -1.1247 C   0  0  0  0  0  0  0  0  0  0  0  0
    3.3558   -2.8005   -1.1063 H   0  0  0  0  0  0  0  0  0  0  0  0
    1.2577   -3.2597   -1.5373 C   0  0  0  0  0  0  0  0  0  0  0  0
    1.4439   -4.2891   -1.8755 H   0  0  0  0  0  0  0  0  0  0  0  0
   -5.5133    1.2789   -0.1499 C   0  0  0  0  0  0  0  0  0  0  0  0
   -6.6025    1.4219   -0.0903 H   0  0  0  0  0  0  0  0  0  0  0  0
   -3.2615    2.2209    0.1477 C   0  0  0  0  0  0  0  0  0  0  0  0
   -2.5661    3.0293    0.4110 H   0  0  0  0  0  0  0  0  0  0  0  0
   -4.6511    2.3476    0.2030 C   0  0  0  0  0  0  0  0  0  0  0  0
   -5.0893    3.3032    0.5268 H   0  0  0  0  0  0  0  0  0  0  0  0
    5.4421    0.0727    0.2255 C   0  0  0  0  0  0  0  0  0  0  0  0
    6.3175   -0.5278   -0.0906 H   0  0  0  0  0  0  0  0  0  0  0  0
    5.2716   -0.0700    1.3118 H   0  0  0  0  0  0  0  0  0  0  0  0
    5.6046    1.5427   -0.1183 C   0  0  0  0  0  0  0  0  0  0  0  0
    6.4836    1.9544    0.4178 H   0  0  0  0  0  0  0  0  0  0  0  0
    4.7035    2.1154    0.1742 H   0  0  0  0  0  0  0  0  0  0  0  0
    5.7592    1.6816   -1.2062 H   0  0  0  0  0  0  0  0  0  0  0  0
  1 12  1  0  0  0  0
  3 11  1  0  0  0  0
  3  5  1  0  0  0  0
  4 26  1  0  0  0  0
  5 18  1  0  0  0  0
  5  4  2  0  0  0  0
  6  4  1  0  0  0  0
  7  9  1  0  0  0  0
  7  3  1  0  0  0  0
  7 10  1  0  0  0  0
  8  7  1  0  0  0  0
 11 13  1  1  0  0  0
 11  6  1  0  0  0  0
 12 15  1  1  0  0  0
 13  1  1  0  0  0  0
 14 15  1  0  0  0  0
 14 30  1  0  0  0  0
 15  2  2  0  0  0  0
 16 13  2  0  0  0  0
 17 16  1  0  0  0  0
 18 24  2  0  0  0  0
 19 18  1  0  0  0  0
 20 21  1  0  0  0  0
 20 12  1  0  0  0  0
 22 16  1  0  0  0  0
 22 20  2  0  0  0  0
 23 22  1  0  0  0  0
 24 25  1  0  0  0  0
 24 28  1  0  0  0  0
 26 28  2  0  0  0  0
 26 27  1  0  0  0  0
 28 29  1  0  0  0  0
 30 32  1  0  0  0  0
 31 30  1  0  0  0  0
 33 35  1  0  0  0  0
 33 30  1  0  0  0  0
 33 34  1  0  0  0  0
 36 33  1  0  0  0  0
M  END
