8,18
 OpenBabel05122313053D

 27 28  0  0  0  0  0  0  0  0999 V2000
   -0.5475    0.0378    1.7526 O   0  0  0  0  0  0  0  0  0  0  0  0
   -0.3446   -0.7930    2.2228 H   0  0  0  0  0  0  0  0  0  0  0  0
   -2.0649    0.1595    1.4897 B   0  0  2  0  0  0  0  0  0  0  0  0
   -2.9225    0.1927    2.8560 C   0  0  0  0  0  0  0  0  0  0  0  0
   -2.6082    1.0319    3.5112 H   0  0  0  0  0  0  0  0  0  0  0  0
   -2.8104   -0.7434    3.4457 H   0  0  0  0  0  0  0  0  0  0  0  0
   -4.0126    0.3155    2.6735 H   0  0  0  0  0  0  0  0  0  0  0  0
   -1.5171   -1.3177   -0.5034 N   0  0  0  0  0  2  0  0  0  0  0  0
   -1.6881   -2.3081   -1.3991 C   0  0  0  0  0  3  0  0  0  0  0  0
   -0.8711   -2.4649   -2.1202 H   0  0  0  0  0  0  0  0  0  0  0  0
   -2.8355   -3.1063   -1.4081 C   0  0  0  0  0  0  0  0  0  0  0  0
   -2.9431   -3.9047   -2.1559 H   0  0  0  0  0  0  0  0  0  0  0  0
   -3.8227   -2.8634   -0.4402 C   0  0  0  0  0  0  0  0  0  0  0  0
   -4.7372   -3.4763   -0.4122 H   0  0  0  0  0  0  0  0  0  0  0  0
   -3.6210   -1.8405    0.4949 C   0  0  0  0  0  0  0  0  0  0  0  0
   -4.3689   -1.6393    1.2759 H   0  0  0  0  0  0  0  0  0  0  0  0
   -2.4481   -1.0599    0.4627 C   0  0  0  0  0  0  0  0  0  0  0  0
   -1.1882    1.6276   -0.3847 N   0  0  0  0  0  2  0  0  0  0  0  0
   -1.1492    2.6888   -1.2117 C   0  0  0  0  0  3  0  0  0  0  0  0
   -0.3240    2.7171   -1.9388 H   0  0  0  0  0  0  0  0  0  0  0  0
   -2.1013    3.7101   -1.1491 C   0  0  0  0  0  0  0  0  0  0  0  0
   -2.0398    4.5607   -1.8426 H   0  0  0  0  0  0  0  0  0  0  0  0
   -3.1151    3.6165   -0.1832 C   0  0  0  0  0  0  0  0  0  0  0  0
   -3.8787    4.4054   -0.0995 H   0  0  0  0  0  0  0  0  0  0  0  0
   -3.1331    2.5127    0.6781 C   0  0  0  0  0  0  0  0  0  0  0  0
   -3.9055    2.4198    1.4553 H   0  0  0  0  0  0  0  0  0  0  0  0
   -2.1522    1.5078    0.5745 C   0  0  0  0  0  0  0  0  0  0  0  0
  1  2  1  0  0  0  0
  3  1  1  1  0  0  0
  3  4  1  0  0  0  0
  4  6  1  0  0  0  0
  4  5  1  0  0  0  0
  7  4  1  0  0  0  0
  8 17  1  0  0  0  0
  9  8  1  0  0  0  0
 10  9  1  0  0  0  0
 11  9  1  0  0  0  0
 11 13  2  0  0  0  0
 12 11  1  0  0  0  0
 13 14  1  0  0  0  0
 13 15  1  0  0  0  0
 15 16  1  0  0  0  0
 17 15  2  0  0  0  0
 17  3  1  0  0  0  0
 18 27  1  0  0  0  0
 19 21  1  0  0  0  0
 19 18  1  0  0  0  0
 20 19  1  0  0  0  0
 21 23  2  0  0  0  0
 22 21  1  0  0  0  0
 23 24  1  0  0  0  0
 23 25  1  0  0  0  0
 25 26  1  0  0  0  0
 27 25  2  0  0  0  0
 27  3  1  0  0  0  0
M  END
