1,3
 OpenBabel05122313053D

 53 57  0  0  1  0  0  0  0  0999 V2000
   -2.6992   -0.1607   -1.1366 N   0  0  0  0  0  2  0  0  0  0  0  0
   -0.1061   -1.3062   -1.4320 N   0  0  0  0  0  0  0  0  0  0  0  0
    1.0163   -0.8678    1.1510 N   0  0  0  0  0  2  0  0  0  0  0  0
   -2.4280   -0.9333   -2.2093 C   0  0  2  0  0  3  0  0  0  0  0  0
   -3.2188   -0.8687   -3.3692 C   0  0  0  0  0  0  0  0  0  0  0  0
   -2.9671   -1.4996   -4.2347 H   0  0  0  0  0  0  0  0  0  0  0  0
   -4.3171    0.0012   -3.4018 C   0  0  0  0  0  0  0  0  0  0  0  0
   -4.9490    0.0658   -4.3005 H   0  0  0  0  0  0  0  0  0  0  0  0
   -4.5899    0.7917   -2.2769 C   0  0  0  0  0  0  0  0  0  0  0  0
   -5.4382    1.4906   -2.2577 H   0  0  0  0  0  0  0  0  0  0  0  0
   -3.7480    0.6835   -1.1615 C   0  0  0  0  0  0  0  0  0  0  0  0
   -3.8871    1.2933   -0.2539 H   0  0  0  0  0  0  0  0  0  0  0  0
   -1.2716   -1.9045   -2.0860 C   0  0  0  0  0  0  0  0  0  0  0  0
   -1.6197   -2.7458   -1.4510 H   0  0  0  0  0  0  0  0  0  0  0  0
   -1.0275   -2.3183   -3.0945 H   0  0  0  0  0  0  0  0  0  0  0  0
    0.7625   -2.3104   -0.8107 C   0  0  0  0  0  0  0  0  0  0  0  0
    1.4402   -2.7990   -1.5504 H   0  0  0  0  0  0  0  0  0  0  0  0
    0.0943   -3.0930   -0.3916 H   0  0  0  0  0  0  0  0  0  0  0  0
    1.5855   -1.7886    0.3512 C   0  0  2  0  0  3  0  0  0  0  0  0
    2.8693   -2.2918    0.6196 C   0  0  0  0  0  0  0  0  0  0  0  0
    3.3115   -3.0434   -0.0490 H   0  0  0  0  0  0  0  0  0  0  0  0
    3.5772   -1.7986    1.7220 C   0  0  0  0  0  0  0  0  0  0  0  0
    4.5899   -2.1683    1.9408 H   0  0  0  0  0  0  0  0  0  0  0  0
    2.9818   -0.8198    2.5301 C   0  0  0  0  0  0  0  0  0  0  0  0
    3.5048   -0.3957    3.3987 H   0  0  0  0  0  0  0  0  0  0  0  0
    1.6903   -0.3831    2.2116 C   0  0  0  0  0  0  0  0  0  0  0  0
    1.1626    0.3804    2.8038 H   0  0  0  0  0  0  0  0  0  0  0  0
    0.5996   -0.3784   -2.3539 C   0  0  0  0  0  0  0  0  0  0  0  0
   -0.1834    0.1873   -2.8944 H   0  0  0  0  0  0  0  0  0  0  0  0
    1.1333   -0.9677   -3.1351 H   0  0  0  0  0  0  0  0  0  0  0  0
    1.5333    0.5785   -1.6480 C   0  0  0  0  0  0  0  0  0  0  0  0
    2.9162    0.2747   -1.5019 C   0  0  0  0  0  0  0  0  0  0  0  0
    3.5666   -0.8113   -2.1799 C   0  0  0  0  0  0  0  0  0  0  0  0
    2.9981   -1.4203   -2.8957 H   0  0  0  0  0  0  0  0  0  0  0  0
    4.9012   -1.1055   -1.9711 C   0  0  0  0  0  0  0  0  0  0  0  0
    5.3678   -1.9378   -2.5198 H   0  0  0  0  0  0  0  0  0  0  0  0
    5.6813   -0.3397   -1.0557 C   0  0  0  0  0  0  0  0  0  0  0  0
    6.7394   -0.5926   -0.8909 H   0  0  0  0  0  0  0  0  0  0  0  0
    5.1062    0.7281   -0.3964 C   0  0  0  0  0  0  0  0  0  0  0  0
    5.6984    1.3424    0.2996 H   0  0  0  0  0  0  0  0  0  0  0  0
    3.7331    1.0797   -0.6056 C   0  0  0  0  0  0  0  0  0  0  0  0
    3.1593    2.1804    0.0525 C   0  0  0  0  0  0  0  0  0  0  0  0
    3.7767    2.7712    0.7476 H   0  0  0  0  0  0  0  0  0  0  0  0
    1.8240    2.5592   -0.1669 C   0  0  0  0  0  0  0  0  0  0  0  0
    1.2682    3.7174    0.4649 C   0  0  0  0  0  0  0  0  0  0  0  0
    1.9110    4.2992    1.1428 H   0  0  0  0  0  0  0  0  0  0  0  0
   -0.0390    4.0966    0.2409 C   0  0  0  0  0  0  0  0  0  0  0  0
   -0.4624    4.9737    0.7494 H   0  0  0  0  0  0  0  0  0  0  0  0
   -0.8533    3.3258   -0.6374 C   0  0  0  0  0  0  0  0  0  0  0  0
   -1.8948    3.6301   -0.8175 H   0  0  0  0  0  0  0  0  0  0  0  0
   -0.3584    2.1866   -1.2467 C   0  0  0  0  0  0  0  0  0  0  0  0
   -1.0151    1.6269   -1.9228 H   0  0  0  0  0  0  0  0  0  0  0  0
    0.9925    1.7496   -1.0409 C   0  0  0  0  0  0  0  0  0  0  0  0
  2 16  1  0  0  0  0
  3 26  1  0  0  0  0
  4 13  1  1  0  0  0
  4  1  1  0  0  0  0
  5  4  1  0  0  0  0
  6  5  1  0  0  0  0
  7  5  2  0  0  0  0
  7  9  1  0  0  0  0
  8  7  1  0  0  0  0
  9 10  1  0  0  0  0
  9 11  2  0  0  0  0
 11  1  1  0  0  0  0
 11 12  1  0  0  0  0
 13 14  1  0  0  0  0
 13  2  1  0  0  0  0
 15 13  1  0  0  0  0
 16 18  1  0  0  0  0
 17 16  1  0  0  0  0
 19 16  1  1  0  0  0
 19 20  1  0  0  0  0
 19  3  1  0  0  0  0
 20 22  2  0  0  0  0
 21 20  1  0  0  0  0
 22 23  1  0  0  0  0
 22 24  1  0  0  0  0
 24 25  1  0  0  0  0
 26 24  2  0  0  0  0
 26 27  1  0  0  0  0
 28 31  1  0  0  0  0
 28  2  1  0  0  0  0
 29 28  1  0  0  0  0
 30 28  1  0  0  0  0
 31 32  2  0  0  0  0
 31 53  1  0  0  0  0
 32 41  1  0  0  0  0
 33 35  2  0  0  0  0
 33 32  1  0  0  0  0
 34 33  1  0  0  0  0
 35 37  1  0  0  0  0
 36 35  1  0  0  0  0
 37 38  1  0  0  0  0
 37 39  2  0  0  0  0
 39 40  1  0  0  0  0
 41 39  1  0  0  0  0
 41 42  2  0  0  0  0
 42 43  1  0  0  0  0
 44 42  1  0  0  0  0
 44 45  1  0  0  0  0
 45 46  1  0  0  0  0
 47 45  2  0  0  0  0
 47 48  1  0  0  0  0
 49 47  1  0  0  0  0
 50 49  1  0  0  0  0
 51 53  1  0  0  0  0
 51 49  2  0  0  0  0
 52 51  1  0  0  0  0
 53 44  2  0  0  0  0
M  END
