1,2
 OpenBabel05122313053D

 36 38  0  0  0  0  0  0  0  0999 V2000
   -0.6246    0.5647   -0.0355 N   0  0  0  0  0  2  0  0  0  0  0  0
   -0.5087   -1.8823   -0.8745 N   0  0  0  0  0  2  0  0  0  0  0  0
   -1.8157    0.0056   -0.2544 C   0  0  0  0  0  0  0  0  0  0  0  0
   -3.0907    0.7157    0.0132 C   0  0  0  0  0  0  0  0  0  0  0  0
    0.6739    3.6566    1.3814 C   0  0  0  0  0  0  0  0  0  0  0  0
    0.1478    3.5640    2.3439 H   0  0  0  0  0  0  0  0  0  0  0  0
   -0.5875    1.7602    0.5817 N   0  0  0  0  0  0  0  0  0  0  0  0
   -1.4996    2.0786    0.9392 H   0  0  0  0  0  0  0  0  0  0  0  0
   -1.7661   -1.3485   -0.7642 C   0  0  0  0  0  0  0  0  0  0  0  0
   -2.8993   -2.0772   -1.1815 C   0  0  0  0  0  0  0  0  0  0  0  0
   -3.8925   -1.6182   -1.0867 H   0  0  0  0  0  0  0  0  0  0  0  0
   -0.3496   -3.0963   -1.4435 C   0  0  0  0  0  0  0  0  0  0  0  0
    0.6845   -3.4414   -1.5740 H   0  0  0  0  0  0  0  0  0  0  0  0
   -2.7332   -3.3518   -1.7267 C   0  0  0  0  0  0  0  0  0  0  0  0
   -3.6063   -3.9321   -2.0585 H   0  0  0  0  0  0  0  0  0  0  0  0
   -1.4342   -3.8686   -1.8671 C   0  0  0  0  0  0  0  0  0  0  0  0
   -1.2524   -4.8564   -2.3121 H   0  0  0  0  0  0  0  0  0  0  0  0
   -3.4237    1.8784   -0.7221 C   0  0  0  0  0  0  0  0  0  0  0  0
   -2.7375    2.2447   -1.5014 H   0  0  0  0  0  0  0  0  0  0  0  0
    0.3926    2.7489    0.3385 C   0  0  0  0  0  0  0  0  0  0  0  0
    1.0553    2.8536   -0.9005 C   0  0  0  0  0  0  0  0  0  0  0  0
    0.8256    2.1477   -1.7133 H   0  0  0  0  0  0  0  0  0  0  0  0
   -3.9842    0.2367    0.9979 C   0  0  0  0  0  0  0  0  0  0  0  0
   -3.7261   -0.6638    1.5764 H   0  0  0  0  0  0  0  0  0  0  0  0
    2.3224    4.7514   -0.0344 C   0  0  0  0  0  0  0  0  0  0  0  0
    3.0794    5.5356   -0.1816 H   0  0  0  0  0  0  0  0  0  0  0  0
    2.0270    3.8498   -1.0705 C   0  0  0  0  0  0  0  0  0  0  0  0
    2.5462    3.9303   -2.0375 H   0  0  0  0  0  0  0  0  0  0  0  0
    1.6337    4.6582    1.1875 C   0  0  0  0  0  0  0  0  0  0  0  0
    1.8517    5.3657    2.0010 H   0  0  0  0  0  0  0  0  0  0  0  0
   -5.5146    2.0616    0.5078 C   0  0  0  0  0  0  0  0  0  0  0  0
   -6.4626    2.5861    0.6987 H   0  0  0  0  0  0  0  0  0  0  0  0
   -5.1906    0.9093    1.2413 C   0  0  0  0  0  0  0  0  0  0  0  0
   -5.8810    0.5316    2.0100 H   0  0  0  0  0  0  0  0  0  0  0  0
   -4.6310    2.5441   -0.4725 C   0  0  0  0  0  0  0  0  0  0  0  0
   -4.8890    3.4408   -1.0552 H   0  0  0  0  0  0  0  0  0  0  0  0
  1  7  1  0  0  0  0
  2  9  1  0  0  0  0
  3  1  1  0  0  0  0
  3  4  1  0  0  0  0
  4 23  1  0  0  0  0
  5  6  1  0  0  0  0
  7  8  1  0  0  0  0
  9  3  2  0  0  0  0
 10 11  1  0  0  0  0
 10  9  1  0  0  0  0
 12  2  1  0  0  0  0
 13 12  1  0  0  0  0
 14 10  2  0  0  0  0
 15 14  1  0  0  0  0
 16 14  1  0  0  0  0
 16 12  2  0  0  0  0
 17 16  1  0  0  0  0
 18 35  1  0  0  0  0
 18  4  2  0  0  0  0
 19 18  1  0  0  0  0
 20  7  1  0  0  0  0
 20  5  2  0  0  0  0
 21 20  1  0  0  0  0
 22 21  1  0  0  0  0
 23 33  2  0  0  0  0
 23 24  1  0  0  0  0
 25 29  2  0  0  0  0
 26 25  1  0  0  0  0
 27 21  2  0  0  0  0
 27 25  1  0  0  0  0
 28 27  1  0  0  0  0
 29  5  1  0  0  0  0
 29 30  1  0  0  0  0
 31 32  1  0  0  0  0
 31 33  1  0  0  0  0
 33 34  1  0  0  0  0
 35 31  2  0  0  0  0
 36 35  1  0  0  0  0
M  END
