2,5
 OpenBabel05122313053D

 10  9  0  0  0  0  0  0  0  0999 V2000
   -0.3728   -4.6634   -1.0348 O   0  0  0  0  0  0  0  0  0  0  0  0
    0.0596   -2.5956   -0.0520 N   0  0  0  0  0  2  0  0  0  0  0  0
    0.5276   -3.1061    0.7069 H   0  0  0  0  0  0  0  0  0  0  0  0
   -0.3997   -3.4261   -1.0146 C   0  0  0  0  0  0  0  0  0  0  0  0
   -0.6184   -1.2701   -2.3277 N   0  0  0  0  0  0  0  0  0  0  0  0
   -1.3458   -0.6598   -2.7250 H   0  0  0  0  0  0  0  0  0  0  0  0
    0.1649   -1.2297   -2.9911 H   0  0  0  0  0  0  0  0  0  0  0  0
   -1.0911   -2.6703   -2.1788 C   0  0  0  0  0  0  0  0  0  0  0  0
   -0.9589   -3.2664   -3.1040 H   0  0  0  0  0  0  0  0  0  0  0  0
   -2.1778   -2.6450   -1.9575 H   0  0  0  0  0  0  0  0  0  0  0  0
  1  4  2  0  0  0  0
  2  3  1  0  0  0  0
  4  2  1  0  0  0  0
  5  8  1  0  0  0  0
  6  5  1  0  0  0  0
  7  5  1  0  0  0  0
  8 10  1  0  0  0  0
  8  4  1  0  0  0  0
  9  8  1  0  0  0  0
M  END
