1,4
 OpenBabel05122313053D

 38 41  0  0  1  0  0  0  0  0999 V2000
   -0.0982    0.5587   -1.6118 N   0  0  0  0  0  2  0  0  0  0  0  0
   -1.2958    2.4664   -1.3088 N   0  0  0  0  0  0  0  0  0  0  0  0
   -1.4696    3.1924   -0.6084 H   0  0  0  0  0  0  0  0  0  0  0  0
    2.1078    1.6326   -0.3453 N   0  0  0  0  0  2  0  0  0  0  0  0
   -1.0950   -1.4637   -0.1040 N   0  0  0  0  0  0  0  0  0  0  0  0
   -2.7835    1.1301    0.8258 N   0  0  0  0  0  0  0  0  0  0  0  0
   -0.0830    1.8069   -1.2630 C   0  0  1  0  0  3  0  0  0  0  0  0
   -2.3499    1.4752   -1.5622 C   0  0  1  0  0  0  0  0  0  0  0  0
   -2.9383    1.7562   -2.4585 H   0  0  0  0  0  0  0  0  0  0  0  0
   -1.4665    0.1696   -1.8927 C   0  0  2  0  0  0  0  0  0  0  0  0
   -1.5714   -0.0447   -2.9783 H   0  0  0  0  0  0  0  0  0  0  0  0
    1.1733    2.4696   -0.8365 C   0  0  2  0  0  3  0  0  0  0  0  0
    1.3809    3.8545   -0.9346 C   0  0  0  0  0  0  0  0  0  0  0  0
    0.6087    4.5049   -1.3709 H   0  0  0  0  0  0  0  0  0  0  0  0
    2.6070    4.3734   -0.4882 C   0  0  0  0  0  0  0  0  0  0  0  0
    2.8077    5.4535   -0.5512 H   0  0  0  0  0  0  0  0  0  0  0  0
    3.5681    3.4983    0.0326 C   0  0  0  0  0  0  0  0  0  0  0  0
    4.5365    3.8673    0.3998 H   0  0  0  0  0  0  0  0  0  0  0  0
    3.2733    2.1228    0.0836 C   0  0  0  0  0  0  0  0  0  0  0  0
    3.9801    1.3873    0.5008 H   0  0  0  0  0  0  0  0  0  0  0  0
   -1.8708   -1.0881   -1.1330 C   0  0  0  0  0  0  0  0  0  0  0  0
   -3.0342   -1.7962   -1.4821 C   0  0  0  0  0  0  0  0  0  0  0  0
   -3.6387   -1.4791   -2.3457 H   0  0  0  0  0  0  0  0  0  0  0  0
   -3.4009   -2.9101   -0.7161 C   0  0  0  0  0  0  0  0  0  0  0  0
   -4.3060   -3.4841   -0.9666 H   0  0  0  0  0  0  0  0  0  0  0  0
   -2.5887   -3.2892    0.3628 C   0  0  0  0  0  0  0  0  0  0  0  0
   -2.8343   -4.1617    0.9850 H   0  0  0  0  0  0  0  0  0  0  0  0
   -1.4325   -2.5412    0.6261 C   0  0  0  0  0  0  0  0  0  0  0  0
   -0.7362   -2.7975    1.4424 H   0  0  0  0  0  0  0  0  0  0  0  0
   -3.3120    1.2962   -0.4045 C   0  0  0  0  0  0  0  0  0  0  0  0
   -4.6997    1.2390   -0.6256 C   0  0  0  0  0  0  0  0  0  0  0  0
   -5.1003    1.3887   -1.6394 H   0  0  0  0  0  0  0  0  0  0  0  0
   -5.5534    0.9866    0.4567 C   0  0  0  0  0  0  0  0  0  0  0  0
   -6.6425    0.9347    0.3075 H   0  0  0  0  0  0  0  0  0  0  0  0
   -4.9964    0.8028    1.7295 C   0  0  0  0  0  0  0  0  0  0  0  0
   -5.6252    0.5974    2.6076 H   0  0  0  0  0  0  0  0  0  0  0  0
   -3.6026    0.8896    1.8618 C   0  0  0  0  0  0  0  0  0  0  0  0
   -3.1181    0.7525    2.8437 H   0  0  0  0  0  0  0  0  0  0  0  0
  2  7  1  0  0  0  0
  2  3  1  0  0  0  0
  4 19  1  0  0  0  0
  5 28  1  0  0  0  0
  6 37  1  0  0  0  0
  7  1  1  1  0  0  0
  7 12  1  0  0  0  0
  8  9  1  6  0  0  0
  8  2  1  0  0  0  0
  8 30  1  0  0  0  0
 10 11  1  6  0  0  0
 10  1  1  0  0  0  0
 10  8  1  0  0  0  0
 10 21  1  0  0  0  0
 12 13  1  6  0  0  0
 12  4  1  0  0  0  0
 13 15  2  0  0  0  0
 14 13  1  0  0  0  0
 15 17  1  0  0  0  0
 16 15  1  0  0  0  0
 17 19  2  0  0  0  0
 17 18  1  0  0  0  0
 19 20  1  0  0  0  0
 21  5  2  0  0  0  0
 22 21  1  0  0  0  0
 22 24  2  0  0  0  0
 23 22  1  0  0  0  0
 24 26  1  0  0  0  0
 25 24  1  0  0  0  0
 26 28  2  0  0  0  0
 26 27  1  0  0  0  0
 28 29  1  0  0  0  0
 30  6  2  0  0  0  0
 31 30  1  0  0  0  0
 31 33  2  0  0  0  0
 32 31  1  0  0  0  0
 33 35  1  0  0  0  0
 34 33  1  0  0  0  0
 35 37  2  0  0  0  0
 35 36  1  0  0  0  0
 37 38  1  0  0  0  0
M  END
