1,2
 OpenBabel05122313053D

 43 45  0  0  1  0  0  0  0  0999 V2000
    0.3491    1.5021    0.3594 N   0  0  0  0  0  2  0  0  0  0  0  0
   -2.2159    0.8222   -0.1876 N   0  0  0  0  0  2  0  0  0  0  0  0
    3.6476    1.0732   -0.3900 N   0  0  0  0  0  0  0  0  0  0  0  0
    1.6364    1.8728    0.5303 C   0  0  1  0  0  3  0  0  0  0  0  0
    2.0065    3.2129    0.7672 C   0  0  0  0  0  0  0  0  0  0  0  0
    1.0154    4.1859    0.9028 C   0  0  0  0  0  0  0  0  0  0  0  0
   -0.3212    3.7932    0.7820 C   0  0  0  0  0  0  0  0  0  0  0  0
   -0.6246    2.4509    0.4845 C   0  0  0  0  0  0  0  0  0  0  0  0
   -2.0265    2.0273    0.2661 C   0  0  2  0  0  3  0  0  0  0  0  0
   -3.1439    2.9825    0.5837 C   0  0  0  0  0  0  0  0  0  0  0  0
   -3.5214    0.3568   -0.5127 C   0  0  0  0  0  0  0  0  0  0  0  0
   -4.1867   -0.5416    0.3428 C   0  0  0  0  0  0  0  0  0  0  0  0
   -5.4491   -1.0293   -0.0238 C   0  0  0  0  0  0  0  0  0  0  0  0
   -6.0432   -0.6420   -1.2359 C   0  0  0  0  0  0  0  0  0  0  0  0
   -5.3662    0.2424   -2.0906 C   0  0  0  0  0  0  0  0  0  0  0  0
   -4.1065    0.7445   -1.7343 C   0  0  0  0  0  0  0  0  0  0  0  0
    2.7418    0.8541    0.5008 C   0  0  0  0  0  0  0  0  0  0  0  0
    2.7081   -0.2131    1.5543 C   0  0  0  0  0  0  0  0  0  0  0  0
    4.8045    0.2903   -0.5059 C   0  0  0  0  0  0  0  0  0  0  0  0
    5.0686   -0.3528   -1.7371 C   0  0  0  0  0  0  0  0  0  0  0  0
    6.2375   -1.1050   -1.9033 C   0  0  0  0  0  0  0  0  0  0  0  0
    7.1789   -1.2004   -0.8642 C   0  0  0  0  0  0  0  0  0  0  0  0
    6.9345   -0.5413    0.3509 C   0  0  0  0  0  0  0  0  0  0  0  0
    5.7542    0.1915    0.5375 C   0  0  0  0  0  0  0  0  0  0  0  0
    3.0753    3.4529    0.8475 H   0  0  0  0  0  0  0  0  0  0  0  0
    1.2762    5.2354    1.1035 H   0  0  0  0  0  0  0  0  0  0  0  0
   -1.1283    4.5280    0.8928 H   0  0  0  0  0  0  0  0  0  0  0  0
   -3.1528    3.8375   -0.1236 H   0  0  0  0  0  0  0  0  0  0  0  0
   -3.0209    3.3972    1.6040 H   0  0  0  0  0  0  0  0  0  0  0  0
   -4.1226    2.4760    0.5204 H   0  0  0  0  0  0  0  0  0  0  0  0
   -3.6848   -0.8601    1.2692 H   0  0  0  0  0  0  0  0  0  0  0  0
   -5.9689   -1.7299    0.6470 H   0  0  0  0  0  0  0  0  0  0  0  0
   -7.0310   -1.0353   -1.5187 H   0  0  0  0  0  0  0  0  0  0  0  0
   -5.8184    0.5436   -3.0476 H   0  0  0  0  0  0  0  0  0  0  0  0
   -3.5588    1.4247   -2.4032 H   0  0  0  0  0  0  0  0  0  0  0  0
    1.6783   -0.6093    1.6894 H   0  0  0  0  0  0  0  0  0  0  0  0
    2.9962    0.2306    2.5320 H   0  0  0  0  0  0  0  0  0  0  0  0
    3.4067   -1.0373    1.3219 H   0  0  0  0  0  0  0  0  0  0  0  0
    4.3346   -0.2547   -2.5501 H   0  0  0  0  0  0  0  0  0  0  0  0
    6.4210   -1.6151   -2.8613 H   0  0  0  0  0  0  0  0  0  0  0  0
    8.1026   -1.7814   -1.0038 H   0  0  0  0  0  0  0  0  0  0  0  0
    7.6687   -0.6020    1.1690 H   0  0  0  0  0  0  0  0  0  0  0  0
    5.5652    0.7115    1.4885 H   0  0  0  0  0  0  0  0  0  0  0  0
  1  8  1  0  0  0  0
  1  4  1  0  0  0  0
  3 17  2  0  0  0  0
  4 17  1  1  0  0  0
  4  5  1  0  0  0  0
  5 25  1  0  0  0  0
  5  6  2  0  0  0  0
  6 26  1  0  0  0  0
  7 27  1  0  0  0  0
  7  6  1  0  0  0  0
  8  7  2  0  0  0  0
  9  2  1  1  0  0  0
  9  8  1  0  0  0  0
  9 10  1  0  0  0  0
 10 29  1  0  0  0  0
 11  2  1  0  0  0  0
 11 12  1  0  0  0  0
 12 31  1  0  0  0  0
 13 12  2  0  0  0  0
 13 32  1  0  0  0  0
 14 13  1  0  0  0  0
 15 16  1  0  0  0  0
 15 14  2  0  0  0  0
 16 11  2  0  0  0  0
 17 18  1  0  0  0  0
 18 36  1  0  0  0  0
 18 37  1  0  0  0  0
 19  3  1  0  0  0  0
 19 24  1  0  0  0  0
 20 19  2  0  0  0  0
 21 20  1  0  0  0  0
 21 22  2  0  0  0  0
 22 23  1  0  0  0  0
 23 24  2  0  0  0  0
 23 42  1  0  0  0  0
 24 43  1  0  0  0  0
 28 10  1  0  0  0  0
 30 10  1  0  0  0  0
 33 14  1  0  0  0  0
 34 15  1  0  0  0  0
 35 16  1  0  0  0  0
 38 18  1  0  0  0  0
 39 20  1  0  0  0  0
 40 21  1  0  0  0  0
 41 22  1  0  0  0  0
M  END
