1,3
 OpenBabel05122313053D

 25 26  0  0  0  0  0  0  0  0999 V2000
    0.7346   -1.9244   -0.2047 N   0  0  0  0  0  0  0  0  0  0  0  0
    0.2552   -2.5287   -1.3608 C   0  0  0  0  0  0  0  0  0  0  0  0
   -1.1906   -0.6849   -1.5753 N   0  0  0  0  0  2  0  0  0  0  0  0
    0.9341   -3.7492   -1.5778 C   0  0  0  0  0  0  0  0  0  0  0  0
    0.7674   -4.4484   -2.4063 H   0  0  0  0  0  0  0  0  0  0  0  0
    1.8521   -3.8821   -0.5104 C   0  0  0  0  0  0  0  0  0  0  0  0
    2.5481   -4.7114   -0.3354 H   0  0  0  0  0  0  0  0  0  0  0  0
    1.6949   -2.7388    0.3054 C   0  0  0  0  0  3  0  0  0  0  0  0
    2.2340   -2.4644    1.2205 H   0  0  0  0  0  0  0  0  0  0  0  0
   -0.7794   -1.8313   -2.0519 C   0  0  0  0  0  3  0  0  0  0  0  0
   -1.2260   -2.2634   -2.9723 H   0  0  0  0  0  0  0  0  0  0  0  0
   -2.3004    0.0073   -2.2013 C   0  0  0  0  0  0  0  0  0  0  0  0
   -2.4926   -0.4183   -3.2158 H   0  0  0  0  0  0  0  0  0  0  0  0
   -2.0300    1.0745   -2.3376 H   0  0  0  0  0  0  0  0  0  0  0  0
   -3.5782   -0.0768   -1.3787 C   0  0  0  0  0  0  0  0  0  0  0  0
   -3.9999   -1.3032   -0.8317 C   0  0  0  0  0  0  0  0  0  0  0  0
   -3.3760   -2.2005   -0.9634 H   0  0  0  0  0  0  0  0  0  0  0  0
   -5.1928   -1.3875   -0.1001 C   0  0  0  0  0  0  0  0  0  0  0  0
   -5.5077   -2.3541    0.3229 H   0  0  0  0  0  0  0  0  0  0  0  0
   -5.9795   -0.2411    0.1026 C   0  0  0  0  0  0  0  0  0  0  0  0
   -6.9131   -0.3052    0.6822 H   0  0  0  0  0  0  0  0  0  0  0  0
   -5.5638    0.9868   -0.4350 C   0  0  0  0  0  0  0  0  0  0  0  0
   -6.1686    1.8928   -0.2756 H   0  0  0  0  0  0  0  0  0  0  0  0
   -4.3699    1.0667   -1.1691 C   0  0  0  0  0  0  0  0  0  0  0  0
   -4.0338    2.0353   -1.5703 H   0  0  0  0  0  0  0  0  0  0  0  0
  1  8  1  0  0  0  0
  2  1  2  0  0  0  0
  4  2  1  0  0  0  0
  4  6  2  0  0  0  0
  5  4  1  0  0  0  0
  6  7  1  0  0  0  0
  6  8  1  0  0  0  0
  8  9  1  0  0  0  0
 10  3  1  0  0  0  0
 10  2  1  0  0  0  0
 11 10  1  0  0  0  0
 12  3  1  0  0  0  0
 12 15  1  0  0  0  0
 13 12  1  0  0  0  0
 14 12  1  0  0  0  0
 15 24  2  0  0  0  0
 15 16  1  0  0  0  0
 16 18  2  0  0  0  0
 17 16  1  0  0  0  0
 18 20  1  0  0  0  0
 18 19  1  0  0  0  0
 20 21  1  0  0  0  0
 22 23  1  0  0  0  0
 22 20  2  0  0  0  0
 24 22  1  0  0  0  0
 25 24  1  0  0  0  0
M  END
