1,6
 OpenBabel05122313053D

 30 32  0  0  1  0  0  0  0  0999 V2000
   -0.1381   -0.4325   -0.0581 N   0  0  0  0  0  2  0  0  0  0  0  0
   -2.2854   -1.4632    0.2678 N   0  0  0  0  0  0  0  0  0  0  0  0
   -0.3384   -2.7127    0.3381 N   0  0  0  0  0  0  0  0  0  0  0  0
   -0.9460   -3.5125    0.5028 H   0  0  0  0  0  0  0  0  0  0  0  0
    0.6863   -2.8188    0.1620 H   0  0  0  0  0  0  0  0  0  0  0  0
    1.4906    1.6499   -0.4008 N   0  0  0  0  0  2  0  0  0  0  0  0
   -4.9275    0.9924   -0.0362 N   0  0  0  0  0  0  0  0  0  0  0  0
   -0.9309   -1.5191    0.1799 C   0  0  2  0  0  3  0  0  0  0  0  0
   -2.8686   -0.2775    0.0725 C   0  0  0  0  0  0  0  0  0  0  0  0
   -2.1312    0.8913   -0.2218 C   0  0  0  0  0  0  0  0  0  0  0  0
   -2.6690    1.8332   -0.3748 H   0  0  0  0  0  0  0  0  0  0  0  0
   -0.7394    0.7577   -0.2651 C   0  0  0  0  0  0  0  0  0  0  0  0
    0.1722    1.9110   -0.5191 C   0  0  1  0  0  3  0  0  0  0  0  0
   -0.2816    3.2005   -0.8541 C   0  0  0  0  0  0  0  0  0  0  0  0
   -1.3557    3.4061   -0.9519 H   0  0  0  0  0  0  0  0  0  0  0  0
    0.6621    4.2138   -1.0656 C   0  0  0  0  0  0  0  0  0  0  0  0
    0.3301    5.2281   -1.3332 H   0  0  0  0  0  0  0  0  0  0  0  0
    2.0278    3.9230   -0.9296 C   0  0  0  0  0  0  0  0  0  0  0  0
    2.7955    4.6948   -1.0825 H   0  0  0  0  0  0  0  0  0  0  0  0
    2.4019    2.6154   -0.5886 C   0  0  0  0  0  0  0  0  0  0  0  0
    3.4487    2.3048   -0.4342 H   0  0  0  0  0  0  0  0  0  0  0  0
   -4.3553   -0.2108    0.1755 C   0  0  0  0  0  0  0  0  0  0  0  0
   -5.1006   -1.3677    0.4821 C   0  0  0  0  0  0  0  0  0  0  0  0
   -4.5640   -2.3130    0.6408 H   0  0  0  0  0  0  0  0  0  0  0  0
   -6.4931   -1.2620    0.5718 C   0  0  0  0  0  0  0  0  0  0  0  0
   -7.1063   -2.1444    0.8104 H   0  0  0  0  0  0  0  0  0  0  0  0
   -7.0913   -0.0122    0.3524 C   0  0  0  0  0  0  0  0  0  0  0  0
   -8.1819    0.1193    0.4123 H   0  0  0  0  0  0  0  0  0  0  0  0
   -6.2597    1.0811    0.0514 C   0  0  0  0  0  0  0  0  0  0  0  0
   -6.6978    2.0793   -0.1273 H   0  0  0  0  0  0  0  0  0  0  0  0
  1  8  1  0  0  0  0
  3  4  1  0  0  0  0
  5  3  1  0  0  0  0
  7 29  2  0  0  0  0
  7 22  1  0  0  0  0
  8  2  1  0  0  0  0
  8  3  1  1  0  0  0
  9 22  1  0  0  0  0
  9  2  2  0  0  0  0
 10  9  1  0  0  0  0
 11 10  1  0  0  0  0
 12 10  2  0  0  0  0
 12  1  1  0  0  0  0
 13  6  1  0  0  0  0
 13 12  1  1  0  0  0
 14 13  1  0  0  0  0
 15 14  1  0  0  0  0
 16 18  1  0  0  0  0
 16 14  2  0  0  0  0
 17 16  1  0  0  0  0
 18 20  2  0  0  0  0
 19 18  1  0  0  0  0
 20 21  1  0  0  0  0
 20  6  1  0  0  0  0
 22 23  2  0  0  0  0
 23 25  1  0  0  0  0
 23 24  1  0  0  0  0
 25 26  1  0  0  0  0
 27 28  1  0  0  0  0
 27 25  2  0  0  0  0
 29 27  1  0  0  0  0
 30 29  1  0  0  0  0
M  END
