1,2
 OpenBabel05122313053D

 55 56  0  0  1  0  0  0  0  0999 V2000
    1.0663   -0.4906    0.5101 N   0  0  0  0  0  2  0  0  0  0  0  0
   -1.7268   -0.9525    0.4710 N   0  0  0  0  0  2  0  0  0  0  0  0
   -2.1870    2.4635    1.3692 N   0  0  0  0  0  0  0  0  0  0  0  0
    0.9887   -1.1284    1.6903 C   0  0  2  0  0  3  0  0  0  0  0  0
   -0.2090   -1.6668    2.2087 C   0  0  0  0  0  0  0  0  0  0  0  0
   -0.1379   -2.1687    3.1816 H   0  0  0  0  0  0  0  0  0  0  0  0
   -1.4962   -1.5305    1.6681 C   0  0  0  0  0  0  0  0  0  0  0  0
    2.2297   -1.2784    2.5481 C   0  0  0  0  0  0  0  0  0  0  0  0
    2.9519   -1.9847    2.0917 H   0  0  0  0  0  0  0  0  0  0  0  0
    1.9658   -1.6569    3.5521 H   0  0  0  0  0  0  0  0  0  0  0  0
    2.7643   -0.3147    2.6565 H   0  0  0  0  0  0  0  0  0  0  0  0
   -2.6660   -2.0086    2.5023 C   0  0  0  0  0  0  0  0  0  0  0  0
   -3.3526   -1.1688    2.7372 H   0  0  0  0  0  0  0  0  0  0  0  0
   -2.3145   -2.4445    3.4544 H   0  0  0  0  0  0  0  0  0  0  0  0
   -3.2724   -2.7682    1.9694 H   0  0  0  0  0  0  0  0  0  0  0  0
    2.3165    0.1187    0.1736 C   0  0  0  0  0  0  0  0  0  0  0  0
    2.4579    1.5213    0.3828 C   0  0  0  0  0  0  0  0  0  0  0  0
    3.6787    2.1274    0.0392 C   0  0  0  0  0  0  0  0  0  0  0  0
    3.8057    3.2091    0.1929 H   0  0  0  0  0  0  0  0  0  0  0  0
    4.7319    1.3785   -0.5051 C   0  0  0  0  0  0  0  0  0  0  0  0
    5.6808    1.8702   -0.7684 H   0  0  0  0  0  0  0  0  0  0  0  0
    4.5694    0.0054   -0.7205 C   0  0  0  0  0  0  0  0  0  0  0  0
    5.3964   -0.5743   -1.1586 H   0  0  0  0  0  0  0  0  0  0  0  0
    3.3696   -0.6523   -0.3843 C   0  0  0  0  0  0  0  0  0  0  0  0
    1.2820    2.3288    0.9182 C   0  0  0  0  0  0  0  0  0  0  0  0
    0.3681    1.8169    0.5416 H   0  0  0  0  0  0  0  0  0  0  0  0
    1.1875    2.2960    2.4536 C   0  0  0  0  0  0  0  0  0  0  0  0
    1.0984    1.2626    2.8382 H   0  0  0  0  0  0  0  0  0  0  0  0
    0.2855    2.8478    2.7855 H   0  0  0  0  0  0  0  0  0  0  0  0
    2.0828    2.7626    2.9161 H   0  0  0  0  0  0  0  0  0  0  0  0
    1.2433    3.7751    0.4115 C   0  0  0  0  0  0  0  0  0  0  0  0
    0.2708    4.2339    0.6802 H   0  0  0  0  0  0  0  0  0  0  0  0
    1.3610    3.8313   -0.6902 H   0  0  0  0  0  0  0  0  0  0  0  0
    2.0410    4.3999    0.8655 H   0  0  0  0  0  0  0  0  0  0  0  0
    3.2148   -2.1482   -0.6512 C   0  0  0  0  0  0  0  0  0  0  0  0
    2.3367   -2.4992   -0.0728 H   0  0  0  0  0  0  0  0  0  0  0  0
    4.4347   -2.9620   -0.1902 C   0  0  0  0  0  0  0  0  0  0  0  0
    5.3332   -2.7422   -0.8030 H   0  0  0  0  0  0  0  0  0  0  0  0
    4.2345   -4.0489   -0.2836 H   0  0  0  0  0  0  0  0  0  0  0  0
    4.6951   -2.7500    0.8667 H   0  0  0  0  0  0  0  0  0  0  0  0
    2.9041   -2.4234   -2.1331 C   0  0  0  0  0  0  0  0  0  0  0  0
    1.9530   -1.9419   -2.4297 H   0  0  0  0  0  0  0  0  0  0  0  0
    2.8074   -3.5126   -2.3219 H   0  0  0  0  0  0  0  0  0  0  0  0
    3.7074   -2.0308   -2.7907 H   0  0  0  0  0  0  0  0  0  0  0  0
   -3.0692   -0.7180    0.0984 C   0  0  0  0  0  0  0  0  0  0  0  0
   -3.6339    0.5744    0.3019 C   0  0  0  0  0  0  0  0  0  0  0  0
   -4.9602    0.8509   -0.1040 C   0  0  0  0  0  0  0  0  0  0  0  0
   -5.3687    1.8593    0.0553 H   0  0  0  0  0  0  0  0  0  0  0  0
   -5.7345   -0.1505   -0.6983 C   0  0  0  0  0  0  0  0  0  0  0  0
   -6.7649    0.0670   -1.0148 H   0  0  0  0  0  0  0  0  0  0  0  0
   -5.1868   -1.4319   -0.8906 C   0  0  0  0  0  0  0  0  0  0  0  0
   -5.7919   -2.2218   -1.3612 H   0  0  0  0  0  0  0  0  0  0  0  0
   -3.8720   -1.7110   -0.4967 C   0  0  0  0  0  0  0  0  0  0  0  0
   -3.4297   -2.7034   -0.6666 H   0  0  0  0  0  0  0  0  0  0  0  0
   -2.8277    1.5997    0.8966 C   0  0  0  0  0  0  0  0  0  0  0  0
  2  7  1  0  0  0  0
  4  1  1  1  0  0  0
  4  5  1  0  0  0  0
  4  8  1  0  0  0  0
  5  6  1  0  0  0  0
  7  5  2  0  0  0  0
  7 12  1  0  0  0  0
  8 11  1  0  0  0  0
  8 10  1  0  0  0  0
  9  8  1  0  0  0  0
 12 13  1  0  0  0  0
 12 14  1  0  0  0  0
 15 12  1  0  0  0  0
 16 17  1  0  0  0  0
 16  1  1  0  0  0  0
 17 25  1  0  0  0  0
 18 19  1  0  0  0  0
 18 17  2  0  0  0  0
 20 18  1  0  0  0  0
 21 20  1  0  0  0  0
 22 20  2  0  0  0  0
 22 24  1  0  0  0  0
 23 22  1  0  0  0  0
 24 16  2  0  0  0  0
 25 27  1  0  0  0  0
 26 25  1  0  0  0  0
 27 29  1  0  0  0  0
 27 28  1  0  0  0  0
 27 30  1  0  0  0  0
 31 32  1  0  0  0  0
 31 34  1  0  0  0  0
 31 25  1  0  0  0  0
 33 31  1  0  0  0  0
 35 24  1  0  0  0  0
 35 37  1  0  0  0  0
 35 36  1  0  0  0  0
 37 40  1  0  0  0  0
 38 37  1  0  0  0  0
 39 37  1  0  0  0  0
 41 35  1  0  0  0  0
 42 41  1  0  0  0  0
 43 41  1  0  0  0  0
 44 41  1  0  0  0  0
 45 46  1  0  0  0  0
 45  2  1  0  0  0  0
 46 55  1  0  0  0  0
 47 48  1  0  0  0  0
 47 46  2  0  0  0  0
 49 47  1  0  0  0  0
 50 49  1  0  0  0  0
 51 49  2  0  0  0  0
 51 53  1  0  0  0  0
 52 51  1  0  0  0  0
 53 45  2  0  0  0  0
 54 53  1  0  0  0  0
 55  3  3  0  0  0  0
M  END
