1,2
 OpenBabel05122313053D

 21 22  0  0  0  0  0  0  0  0999 V2000
    0.6503    1.3839   -0.0002 N   0  0  0  0  0  2  0  0  0  0  0  0
   -1.5159   -0.2367   -0.0008 N   0  0  0  0  0  2  0  0  0  0  0  0
   -1.7182    1.1046   -0.0005 C   0  0  0  0  0  0  0  0  0  0  0  0
   -2.5637   -1.0692   -0.0007 C   0  0  0  0  0  0  0  0  0  0  0  0
   -2.3297   -2.1461   -0.0011 H   0  0  0  0  0  0  0  0  0  0  0  0
   -3.8887   -0.6051   -0.0001 C   0  0  0  0  0  0  0  0  0  0  0  0
   -4.7223   -1.3214   -0.0000 H   0  0  0  0  0  0  0  0  0  0  0  0
   -4.1141    0.7791    0.0002 C   0  0  0  0  0  0  0  0  0  0  0  0
   -5.1392    1.1788    0.0006 H   0  0  0  0  0  0  0  0  0  0  0  0
   -3.0159    1.6491   -0.0000 C   0  0  0  0  0  0  0  0  0  0  0  0
   -3.1522    2.7406    0.0002 H   0  0  0  0  0  0  0  0  0  0  0  0
   -0.5117    1.9448   -0.0005 C   0  0  0  0  0  0  0  0  0  0  0  0
   -0.6380    3.0475   -0.0007 H   0  0  0  0  0  0  0  0  0  0  0  0
    1.8547    2.1083    0.0000 C   0  0  0  0  0  0  0  0  0  0  0  0
    1.7665    3.2112   -0.0001 H   0  0  0  0  0  0  0  0  0  0  0  0
    3.0281    1.4658   -0.7447 C   0  0  0  0  0  0  0  0  0  0  0  0
    2.7913    0.5290   -1.2797 H   0  0  0  0  0  0  0  0  0  0  0  0
    3.6857    2.1670   -1.2814 H   0  0  0  0  0  0  0  0  0  0  0  0
    3.0276    1.4660    0.7458 C   0  0  0  0  0  0  0  0  0  0  0  0
    2.7906    0.5294    1.2810 H   0  0  0  0  0  0  0  0  0  0  0  0
    3.6847    2.1676    1.2826 H   0  0  0  0  0  0  0  0  0  0  0  0
  1 14  1  0  0  0  0
  2  4  1  0  0  0  0
  2  3  1  0  0  0  0
  3 12  2  0  0  0  0
  3 10  1  0  0  0  0
  4  6  2  0  0  0  0
  5  4  1  0  0  0  0
  6  7  1  0  0  0  0
  6  8  1  0  0  0  0
  8  9  1  0  0  0  0
 10  8  2  0  0  0  0
 10 11  1  0  0  0  0
 12  1  1  0  0  0  0
 13 12  1  0  0  0  0
 14 19  1  0  0  0  0
 15 14  1  0  0  0  0
 16 14  1  0  0  0  0
 16 19  1  0  0  0  0
 17 16  1  0  0  0  0
 18 16  1  0  0  0  0
 19 20  1  0  0  0  0
 19 21  1  0  0  0  0
M  END
