5,6
q = 0.0, confidence = 0.996

 26 27  0  0  0  0  0  0  0  0999 V2000
    3.9619   -0.8543    1.6123 S   0  0  0  0  0  0  0  0  0  0  0  0
   -3.5014   -3.0637   -0.3140 S   0  0  0  0  0  0  0  0  0  0  0  0
    4.5582   -1.4806   -0.8449 N   0  0  0  0  0  0  0  0  0  0  0  0
    1.2431   -1.1378    0.4542 N   0  0  0  0  0  0  0  0  0  0  0  0
   -0.0820   -1.1248    0.1801 N   0  0  0  0  0  2  0  0  0  0  0  0
   -2.5919   -0.6680   -0.0382 N   0  0  0  0  0  2  0  0  0  0  0  0
    3.5288   -1.2798   -0.0463 C   0  0  0  0  0  0  0  0  0  0  0  0
    5.7362   -1.3142   -0.1813 C   0  0  0  0  0  0  0  0  0  0  0  0
    6.6910   -1.4488   -0.7096 H   0  0  0  0  0  0  0  0  0  0  0  0
    5.6205   -0.9693    1.1592 C   0  0  0  0  0  0  0  0  0  0  0  0
    6.4220   -0.7829    1.8852 H   0  0  0  0  0  0  0  0  0  0  0  0
    2.1336   -1.3696   -0.4719 C   0  0  0  0  0  0  0  0  0  0  0  0
   -0.7970   -2.2408    0.1105 C   0  0  0  0  0  0  0  0  0  0  0  0
   -2.1977   -1.9546   -0.0485 C   0  0  0  0  0  0  0  0  0  0  0  0
   -3.9372   -0.5320   -0.2691 C   0  0  0  0  0  0  0  0  0  0  0  0
   -4.3889    0.4655   -0.3246 H   0  0  0  0  0  0  0  0  0  0  0  0
   -4.5994   -1.7298   -0.4324 C   0  0  0  0  0  0  0  0  0  0  0  0
   -5.6672   -1.8958   -0.6176 H   0  0  0  0  0  0  0  0  0  0  0  0
   -0.2241   -3.6159    0.2039 C   0  0  0  0  0  0  0  0  0  0  0  0
    0.1024   -3.9806   -0.7930 H   0  0  0  0  0  0  0  0  0  0  0  0
   -0.9710   -4.3324    0.5960 H   0  0  0  0  0  0  0  0  0  0  0  0
    0.6620   -3.6211    0.8681 H   0  0  0  0  0  0  0  0  0  0  0  0
    1.8507   -1.7045   -1.9042 C   0  0  0  0  0  0  0  0  0  0  0  0
    1.8998   -2.8068   -2.0378 H   0  0  0  0  0  0  0  0  0  0  0  0
    2.6433   -1.2850   -2.5501 H   0  0  0  0  0  0  0  0  0  0  0  0
    0.8553   -1.3321   -2.2144 H   0  0  0  0  0  0  0  0  0  0  0  0
  2 14  1  0  0  0  0
  3  8  1  0  0  0  0
  3  7  2  0  0  0  0
  5  4  1  0  0  0  0
  7  1  1  0  0  0  0
  8 10  2  0  0  0  0
  9  8  1  0  0  0  0
 10  1  1  0  0  0  0
 10 11  1  0  0  0  0
 12  7  1  0  0  0  0
 12  4  2  0  0  0  0
 13  5  1  0  0  0  0
 13 19  1  0  0  0  0
 14  6  1  0  0  0  0
 14 13  2  0  0  0  0
 15  6  1  0  0  0  0
 16 15  1  0  0  0  0
 17  2  1  0  0  0  0
 17 15  2  0  0  0  0
 18 17  1  0  0  0  0
 19 21  1  0  0  0  0
 19 22  1  0  0  0  0
 20 19  1  0  0  0  0
 23 12  1  0  0  0  0
 24 23  1  0  0  0  0
 25 23  1  0  0  0  0
 26 23  1  0  0  0  0
M  END
