1,2
 OpenBabel05122313053D

 28 28  0  0  1  0  0  0  0  0999 V2000
   -0.8815   -1.0883    0.6705 N   0  0  0  0  0  0  0  0  0  0  0  0
   -0.6578    1.4742    0.3822 N   0  0  0  0  0  0  0  0  0  0  0  0
   -1.9341   -1.1812   -0.4172 C   0  0  0  0  0  0  0  0  0  0  0  0
   -2.5897    0.2116   -0.5922 C   0  0  0  0  0  0  0  0  0  0  0  0
   -1.6757    1.4423   -0.7258 C   0  0  1  0  0  0  0  0  0  0  0  0
   -1.2074    1.1579    1.7289 C   0  0  0  0  0  0  0  0  0  0  0  0
   -1.3208   -0.3847    1.9090 C   0  0  0  0  0  0  0  0  0  0  0  0
   -3.0092   -2.1994   -0.0008 C   0  0  0  0  0  0  0  0  0  0  0  0
   -1.2532   -1.6574   -1.7075 C   0  0  0  0  0  0  0  0  0  0  0  0
   -2.4910    2.7365   -0.7725 C   0  0  0  0  0  0  0  0  0  0  0  0
   -3.3019    0.3862    0.2434 H   0  0  0  0  0  0  0  0  0  0  0  0
   -3.2206    0.1657   -1.5026 H   0  0  0  0  0  0  0  0  0  0  0  0
   -1.0759    1.3603   -1.6539 H   0  0  0  0  0  0  0  0  0  0  0  0
   -0.1760    2.3889    0.3841 H   0  0  0  0  0  0  0  0  0  0  0  0
   -2.1876    1.6589    1.8888 H   0  0  0  0  0  0  0  0  0  0  0  0
   -0.4927    1.5650    2.4666 H   0  0  0  0  0  0  0  0  0  0  0  0
   -2.3533   -0.6807    2.1964 H   0  0  0  0  0  0  0  0  0  0  0  0
   -0.6367   -0.7132    2.7121 H   0  0  0  0  0  0  0  0  0  0  0  0
   -0.5468   -2.0407    0.8949 H   0  0  0  0  0  0  0  0  0  0  0  0
   -3.8075   -2.2486   -0.7671 H   0  0  0  0  0  0  0  0  0  0  0  0
   -3.4915   -1.9363    0.9623 H   0  0  0  0  0  0  0  0  0  0  0  0
   -2.5709   -3.2139    0.0912 H   0  0  0  0  0  0  0  0  0  0  0  0
   -2.0196   -1.8665   -2.4803 H   0  0  0  0  0  0  0  0  0  0  0  0
   -0.5333   -0.9049   -2.0844 H   0  0  0  0  0  0  0  0  0  0  0  0
   -0.6675   -2.5803   -1.5254 H   0  0  0  0  0  0  0  0  0  0  0  0
   -1.8311    3.6168   -0.9090 H   0  0  0  0  0  0  0  0  0  0  0  0
   -3.1984    2.7147   -1.6248 H   0  0  0  0  0  0  0  0  0  0  0  0
   -3.0875    2.8855    0.1515 H   0  0  0  0  0  0  0  0  0  0  0  0
  1 19  1  0  0  0  0
  1  7  1  0  0  0  0
  2 14  1  0  0  0  0
  2  6  1  0  0  0  0
  3  8  1  0  0  0  0
  3  1  1  0  0  0  0
  4  3  1  0  0  0  0
  4 11  1  0  0  0  0
  5 13  1  6  0  0  0
  5  4  1  0  0  0  0
  5  2  1  0  0  0  0
  6 15  1  0  0  0  0
  6  7  1  0  0  0  0
  6 16  1  0  0  0  0
  7 17  1  0  0  0  0
  7 18  1  0  0  0  0
  8 22  1  0  0  0  0
  8 21  1  0  0  0  0
  9 25  1  0  0  0  0
  9  3  1  0  0  0  0
 10  5  1  0  0  0  0
 10 28  1  0  0  0  0
 12  4  1  0  0  0  0
 20  8  1  0  0  0  0
 23  9  1  0  0  0  0
 24  9  1  0  0  0  0
 26 10  1  0  0  0  0
 27 10  1  0  0  0  0
M  END
