1,2
 OpenBabel05122313053D

 46 47  0  0  0  0  0  0  0  0999 V2000
   -1.2509   -1.1057    0.0118 N   0  0  0  0  0  2  0  0  0  0  0  0
    1.2507   -1.1058   -0.0121 N   0  0  0  0  0  2  0  0  0  0  0  0
   -0.7226   -2.3324    0.0151 C   0  0  0  0  0  0  0  0  0  0  0  0
    0.7224   -2.3324   -0.0150 C   0  0  0  0  0  0  0  0  0  0  0  0
   -2.6670   -0.9383    0.0483 C   0  0  0  0  0  0  0  0  0  0  0  0
   -3.3700   -1.0621    1.2617 C   0  0  0  0  0  0  0  0  0  0  0  0
   -2.8158   -1.3003    2.1815 H   0  0  0  0  0  0  0  0  0  0  0  0
   -4.7546   -0.8611    1.2900 C   0  0  0  0  0  0  0  0  0  0  0  0
   -5.2917   -0.9554    2.2468 H   0  0  0  0  0  0  0  0  0  0  0  0
   -5.4723   -0.5240    0.1226 C   0  0  0  0  0  0  0  0  0  0  0  0
   -4.7499   -0.3954   -1.0802 C   0  0  0  0  0  0  0  0  0  0  0  0
   -5.2823   -0.1230   -2.0048 H   0  0  0  0  0  0  0  0  0  0  0  0
   -3.3632   -0.5901   -1.1234 C   0  0  0  0  0  0  0  0  0  0  0  0
   -2.8029   -0.4639   -2.0609 H   0  0  0  0  0  0  0  0  0  0  0  0
   -6.9557   -0.2635    0.1732 C   0  0  0  0  0  0  0  0  0  0  0  0
   -7.4580   -0.9018    0.9267 H   0  0  0  0  0  0  0  0  0  0  0  0
   -7.4363   -0.4404   -0.8088 H   0  0  0  0  0  0  0  0  0  0  0  0
   -7.1604    0.7924    0.4527 H   0  0  0  0  0  0  0  0  0  0  0  0
    2.6669   -0.9386   -0.0486 C   0  0  0  0  0  0  0  0  0  0  0  0
    3.3697   -1.0616   -1.2621 C   0  0  0  0  0  0  0  0  0  0  0  0
    2.8154   -1.2991   -2.1820 H   0  0  0  0  0  0  0  0  0  0  0  0
    4.7544   -0.8608   -1.2903 C   0  0  0  0  0  0  0  0  0  0  0  0
    5.2915   -0.9545   -2.2472 H   0  0  0  0  0  0  0  0  0  0  0  0
    5.4722   -0.5245   -0.1228 C   0  0  0  0  0  0  0  0  0  0  0  0
    4.7499   -0.3967    1.0802 C   0  0  0  0  0  0  0  0  0  0  0  0
    5.2824   -0.1251    2.0050 H   0  0  0  0  0  0  0  0  0  0  0  0
    3.3632   -0.5913    1.1233 C   0  0  0  0  0  0  0  0  0  0  0  0
    2.8030   -0.4657    2.0610 H   0  0  0  0  0  0  0  0  0  0  0  0
    6.9556   -0.2638   -0.1728 C   0  0  0  0  0  0  0  0  0  0  0  0
    7.4385   -0.4569    0.8049 H   0  0  0  0  0  0  0  0  0  0  0  0
    7.1599    0.7966   -0.4350 H   0  0  0  0  0  0  0  0  0  0  0  0
    7.4558   -0.8898   -0.9379 H   0  0  0  0  0  0  0  0  0  0  0  0
   -1.5428   -3.5944   -0.0445 C   0  0  0  0  0  0  0  0  0  0  0  0
   -1.0058   -4.4030    0.4908 H   0  0  0  0  0  0  0  0  0  0  0  0
   -2.4963   -3.4370    0.4956 H   0  0  0  0  0  0  0  0  0  0  0  0
   -1.8409   -4.0291   -1.4907 C   0  0  0  0  0  0  0  0  0  0  0  0
   -2.4249   -4.9706   -1.5029 H   0  0  0  0  0  0  0  0  0  0  0  0
   -0.9085   -4.1957   -2.0672 H   0  0  0  0  0  0  0  0  0  0  0  0
   -2.4304   -3.2535   -2.0180 H   0  0  0  0  0  0  0  0  0  0  0  0
    1.5425   -3.5945    0.0446 C   0  0  0  0  0  0  0  0  0  0  0  0
    2.4961   -3.4370   -0.4953 H   0  0  0  0  0  0  0  0  0  0  0  0
    1.0055   -4.4030   -0.4910 H   0  0  0  0  0  0  0  0  0  0  0  0
    1.8403   -4.0295    1.4907 C   0  0  0  0  0  0  0  0  0  0  0  0
    2.4241   -4.9711    1.5029 H   0  0  0  0  0  0  0  0  0  0  0  0
    0.9077   -4.1962    2.0671 H   0  0  0  0  0  0  0  0  0  0  0  0
    2.4297   -3.2541    2.0184 H   0  0  0  0  0  0  0  0  0  0  0  0
  1  3  1  0  0  0  0
  1  5  1  0  0  0  0
  4  2  1  0  0  0  0
  4  3  2  0  0  0  0
  4 40  1  0  0  0  0
  5  6  1  0  0  0  0
  6  8  2  0  0  0  0
  6  7  1  0  0  0  0
  8  9  1  0  0  0  0
 10 15  1  0  0  0  0
 10  8  1  0  0  0  0
 11 10  2  0  0  0  0
 12 11  1  0  0  0  0
 13 11  1  0  0  0  0
 13  5  2  0  0  0  0
 14 13  1  0  0  0  0
 15 18  1  0  0  0  0
 15 16  1  0  0  0  0
 17 15  1  0  0  0  0
 19  2  1  0  0  0  0
 19 27  1  0  0  0  0
 20 19  2  0  0  0  0
 21 20  1  0  0  0  0
 22 20  1  0  0  0  0
 22 24  2  0  0  0  0
 23 22  1  0  0  0  0
 24 25  1  0  0  0  0
 25 27  2  0  0  0  0
 25 26  1  0  0  0  0
 27 28  1  0  0  0  0
 29 24  1  0  0  0  0
 29 30  1  0  0  0  0
 31 29  1  0  0  0  0
 32 29  1  0  0  0  0
 33  3  1  0  0  0  0
 33 34  1  0  0  0  0
 33 35  1  0  0  0  0
 36 33  1  0  0  0  0
 37 36  1  0  0  0  0
 38 36  1  0  0  0  0
 39 36  1  0  0  0  0
 40 43  1  0  0  0  0
 41 40  1  0  0  0  0
 42 40  1  0  0  0  0
 43 44  1  0  0  0  0
 43 46  1  0  0  0  0
 43 45  1  0  0  0  0
M  END
