1,3
 OpenBabel05122313053D

 43 47  0  0  1  0  0  0  0  0999 V2000
    0.8504    0.9459   -0.4418 N   0  0  0  0  0  2  0  0  0  0  0  0
   -1.2943    1.4716   -0.8290 N   0  0  0  0  0  0  0  0  0  0  0  0
    0.7436   -1.5899   -0.8230 N   0  0  0  0  0  2  0  0  0  0  0  0
   -1.6371   -1.7138   -1.2473 C   0  0  0  0  0  0  0  0  0  0  0  0
   -2.6191   -1.2297   -1.2847 H   0  0  0  0  0  0  0  0  0  0  0  0
   -1.5260   -3.0867   -1.4871 C   0  0  0  0  0  0  0  0  0  0  0  0
   -2.4221   -3.6762   -1.7282 H   0  0  0  0  0  0  0  0  0  0  0  0
   -0.2622   -3.6922   -1.4239 C   0  0  0  0  0  0  0  0  0  0  0  0
   -0.1257   -4.7633   -1.6264 H   0  0  0  0  0  0  0  0  0  0  0  0
    0.8452   -2.9083   -1.0888 C   0  0  0  0  0  3  0  0  0  0  0  0
    1.8553   -3.3352   -1.0312 H   0  0  0  0  0  0  0  0  0  0  0  0
   -0.4799   -0.9736   -0.9372 C   0  0  0  0  0  0  0  0  0  0  0  0
   -0.3722    0.4572   -0.7268 C   0  0  1  0  0  3  0  0  0  0  0  0
    0.7507    2.3220   -0.3876 C   0  0  0  0  0  0  0  0  0  0  0  0
    1.7220    3.3253   -0.2036 C   0  0  0  0  0  0  0  0  0  0  0  0
    2.7845    3.0683   -0.1097 H   0  0  0  0  0  0  0  0  0  0  0  0
    1.2840    4.6507   -0.1933 C   0  0  0  0  0  0  0  0  0  0  0  0
    2.0158    5.4603   -0.0594 H   0  0  0  0  0  0  0  0  0  0  0  0
   -0.0850    4.9812   -0.3661 C   0  0  0  0  0  0  0  0  0  0  0  0
   -0.3876    6.0382   -0.3447 H   0  0  0  0  0  0  0  0  0  0  0  0
   -1.0576    4.0002   -0.5812 C   0  0  0  0  0  0  0  0  0  0  0  0
   -2.1124    4.2702   -0.7300 H   0  0  0  0  0  0  0  0  0  0  0  0
   -0.6175    2.6662   -0.6040 C   0  0  0  0  0  0  0  0  0  0  0  0
   -2.7253    1.3363   -1.0639 C   0  0  0  0  0  0  0  0  0  0  0  0
   -2.8674    0.7579   -1.9994 H   0  0  0  0  0  0  0  0  0  0  0  0
   -3.1159    2.3506   -1.2841 H   0  0  0  0  0  0  0  0  0  0  0  0
   -3.4707    0.7027    0.0977 C   0  0  0  0  0  0  0  0  0  0  0  0
   -2.9214    0.6994    1.3758 C   0  0  0  0  0  0  0  0  0  0  0  0
   -1.9419    1.1696    1.5522 H   0  0  0  0  0  0  0  0  0  0  0  0
   -3.6017    0.1010    2.4673 C   0  0  0  0  0  0  0  0  0  0  0  0
   -3.1442    0.1204    3.4675 H   0  0  0  0  0  0  0  0  0  0  0  0
   -4.8329   -0.5013    2.2719 C   0  0  0  0  0  0  0  0  0  0  0  0
   -5.3661   -0.9719    3.1119 H   0  0  0  0  0  0  0  0  0  0  0  0
   -5.4374   -0.5189    0.9810 C   0  0  0  0  0  0  0  0  0  0  0  0
   -6.7056   -1.1329    0.7647 C   0  0  0  0  0  0  0  0  0  0  0  0
   -7.2164   -1.5993    1.6210 H   0  0  0  0  0  0  0  0  0  0  0  0
   -7.2908   -1.1420   -0.4920 C   0  0  0  0  0  0  0  0  0  0  0  0
   -8.2712   -1.6172   -0.6431 H   0  0  0  0  0  0  0  0  0  0  0  0
   -6.6271   -0.5303   -1.5867 C   0  0  0  0  0  0  0  0  0  0  0  0
   -7.0994   -0.5310   -2.5804 H   0  0  0  0  0  0  0  0  0  0  0  0
   -5.3912    0.0780   -1.4120 C   0  0  0  0  0  0  0  0  0  0  0  0
   -4.9152    0.5611   -2.2778 H   0  0  0  0  0  0  0  0  0  0  0  0
   -4.7551    0.1002   -0.1334 C   0  0  0  0  0  0  0  0  0  0  0  0
  1 14  1  0  0  0  0
  2 13  1  0  0  0  0
  2 23  1  0  0  0  0
  4 12  2  0  0  0  0
  5  4  1  0  0  0  0
  6  8  2  0  0  0  0
  6  4  1  0  0  0  0
  7  6  1  0  0  0  0
  8 10  1  0  0  0  0
  9  8  1  0  0  0  0
 10 11  1  0  0  0  0
 10  3  1  0  0  0  0
 12  3  1  0  0  0  0
 13 12  1  6  0  0  0
 13  1  1  0  0  0  0
 14 15  1  0  0  0  0
 15 17  2  0  0  0  0
 15 16  1  0  0  0  0
 17 18  1  0  0  0  0
 19 20  1  0  0  0  0
 19 17  1  0  0  0  0
 21 19  2  0  0  0  0
 22 21  1  0  0  0  0
 23 21  1  0  0  0  0
 23 14  2  0  0  0  0
 24  2  1  0  0  0  0
 24 27  1  0  0  0  0
 25 24  1  0  0  0  0
 26 24  1  0  0  0  0
 27 28  1  0  0  0  0
 28 29  1  0  0  0  0
 28 30  2  0  0  0  0
 30 31  1  0  0  0  0
 32 30  1  0  0  0  0
 32 33  1  0  0  0  0
 34 32  2  0  0  0  0
 35 34  1  0  0  0  0
 35 36  1  0  0  0  0
 37 35  2  0  0  0  0
 38 37  1  0  0  0  0
 39 41  2  0  0  0  0
 39 37  1  0  0  0  0
 40 39  1  0  0  0  0
 41 43  1  0  0  0  0
 42 41  1  0  0  0  0
 43 27  2  0  0  0  0
 43 34  1  0  0  0  0
M  END
