5,6
 OpenBabel05122313053D

 50 51  0  0  0  0  0  0  0  0999 V2000
    2.6558    5.2684   -0.2740 O   0  0  0  0  0  0  0  0  0  0  0  0
    3.1826   -4.7696    0.1031 O   0  0  0  0  0  0  0  0  0  0  0  0
    4.2992   -2.7889    0.0291 O   0  0  0  0  0  0  0  0  0  0  0  0
    3.9578    3.4032   -0.3300 O   0  0  0  0  0  0  0  0  0  0  0  0
   -0.5879    1.3531   -0.0586 N   0  0  0  0  0  2  0  0  0  0  0  0
   -0.4502   -1.2169   -0.0390 N   0  0  0  0  0  2  0  0  0  0  0  0
   -0.7561    2.7021   -0.0964 C   0  0  0  0  0  0  0  0  0  0  0  0
   -1.7972    3.0599   -0.0731 H   0  0  0  0  0  0  0  0  0  0  0  0
    0.3066    3.5959   -0.1598 C   0  0  0  0  0  0  0  0  0  0  0  0
    0.1320    4.6805   -0.1789 H   0  0  0  0  0  0  0  0  0  0  0  0
    1.6285    3.0978   -0.2047 C   0  0  0  0  0  0  0  0  0  0  0  0
    1.8112    1.7110   -0.1762 C   0  0  0  0  0  0  0  0  0  0  0  0
    2.8260    1.2966   -0.2170 H   0  0  0  0  0  0  0  0  0  0  0  0
    0.6972    0.8616   -0.1002 C   0  0  0  0  0  0  0  0  0  0  0  0
    0.7763   -0.5922   -0.0629 C   0  0  0  0  0  0  0  0  0  0  0  0
    1.9770   -1.3185   -0.0363 C   0  0  0  0  0  0  0  0  0  0  0  0
    2.9438   -0.8001   -0.0508 H   0  0  0  0  0  0  0  0  0  0  0  0
    1.9428   -2.7160    0.0178 C   0  0  0  0  0  0  0  0  0  0  0  0
    0.6801   -3.3508    0.0427 C   0  0  0  0  0  0  0  0  0  0  0  0
    0.6229   -4.4472    0.0849 H   0  0  0  0  0  0  0  0  0  0  0  0
   -0.4730   -2.5753    0.0193 C   0  0  0  0  0  0  0  0  0  0  0  0
   -1.4705   -3.0409    0.0487 H   0  0  0  0  0  0  0  0  0  0  0  0
    2.7734    4.0555   -0.2733 C   0  0  0  0  0  0  0  0  0  0  0  0
    5.1473    4.2218   -0.3738 C   0  0  0  0  0  0  0  0  0  0  0  0
    5.0828    4.8996   -1.2505 H   0  0  0  0  0  0  0  0  0  0  0  0
    5.1689    4.8637    0.5335 H   0  0  0  0  0  0  0  0  0  0  0  0
    6.3473    3.2941   -0.4484 C   0  0  0  0  0  0  0  0  0  0  0  0
    6.2666    2.6785   -1.3714 H   0  0  0  0  0  0  0  0  0  0  0  0
    7.2537    3.9246   -0.5779 H   0  0  0  0  0  0  0  0  0  0  0  0
    6.5126    2.3830    0.7733 C   0  0  0  0  0  0  0  0  0  0  0  0
    5.5720    1.8109    0.9246 H   0  0  0  0  0  0  0  0  0  0  0  0
    6.6313    3.0132    1.6825 H   0  0  0  0  0  0  0  0  0  0  0  0
    7.6905    1.4173    0.6498 C   0  0  0  0  0  0  0  0  0  0  0  0
    7.7878    0.7754    1.5484 H   0  0  0  0  0  0  0  0  0  0  0  0
    8.6510    1.9589    0.5216 H   0  0  0  0  0  0  0  0  0  0  0  0
    7.5722    0.7457   -0.2259 H   0  0  0  0  0  0  0  0  0  0  0  0
    3.1808   -3.5517    0.0552 C   0  0  0  0  0  0  0  0  0  0  0  0
    5.5540   -3.5011    0.0606 C   0  0  0  0  0  0  0  0  0  0  0  0
    5.5918   -4.2008   -0.8020 H   0  0  0  0  0  0  0  0  0  0  0  0
    5.5893   -4.1265    0.9785 H   0  0  0  0  0  0  0  0  0  0  0  0
    6.6800   -2.4836    0.0197 C   0  0  0  0  0  0  0  0  0  0  0  0
    6.5705   -1.8604   -0.8949 H   0  0  0  0  0  0  0  0  0  0  0  0
    6.5744   -1.7899    0.8822 H   0  0  0  0  0  0  0  0  0  0  0  0
    8.0636   -3.1416    0.0413 C   0  0  0  0  0  0  0  0  0  0  0  0
    8.1493   -3.8412   -0.8195 H   0  0  0  0  0  0  0  0  0  0  0  0
    8.1538   -3.7747    0.9517 H   0  0  0  0  0  0  0  0  0  0  0  0
    9.2124   -2.1336    0.0008 C   0  0  0  0  0  0  0  0  0  0  0  0
   10.1979   -2.6402    0.0099 H   0  0  0  0  0  0  0  0  0  0  0  0
    9.1797   -1.4476    0.8722 H   0  0  0  0  0  0  0  0  0  0  0  0
    9.1671   -1.5059   -0.9135 H   0  0  0  0  0  0  0  0  0  0  0  0
  1 23  2  0  0  0  0
  3 37  1  0  0  0  0
  3 38  1  0  0  0  0
  4 23  1  0  0  0  0
  6 21  1  0  0  0  0
  7  8  1  0  0  0  0
  7  5  1  0  0  0  0
  9  7  2  0  0  0  0
 10  9  1  0  0  0  0
 11 12  2  0  0  0  0
 11  9  1  0  0  0  0
 12 14  1  0  0  0  0
 13 12  1  0  0  0  0
 14 15  2  0  0  0  0
 14  5  1  0  0  0  0
 15  6  1  0  0  0  0
 15 16  1  0  0  0  0
 16 18  2  0  0  0  0
 17 16  1  0  0  0  0
 18 19  1  0  0  0  0
 18 37  1  0  0  0  0
 19 20  1  0  0  0  0
 21 19  2  0  0  0  0
 21 22  1  0  0  0  0
 23 11  1  0  0  0  0
 24  4  1  0  0  0  0
 24 26  1  0  0  0  0
 25 24  1  0  0  0  0
 27 24  1  0  0  0  0
 27 30  1  0  0  0  0
 28 27  1  0  0  0  0
 29 27  1  0  0  0  0
 30 31  1  0  0  0  0
 30 32  1  0  0  0  0
 33 30  1  0  0  0  0
 33 34  1  0  0  0  0
 35 33  1  0  0  0  0
 36 33  1  0  0  0  0
 37  2  2  0  0  0  0
 38 40  1  0  0  0  0
 39 38  1  0  0  0  0
 41 44  1  0  0  0  0
 41 38  1  0  0  0  0
 41 43  1  0  0  0  0
 42 41  1  0  0  0  0
 44 46  1  0  0  0  0
 45 44  1  0  0  0  0
 47 48  1  0  0  0  0
 47 44  1  0  0  0  0
 47 49  1  0  0  0  0
 50 47  1  0  0  0  0
M  END
