2,3
 OpenBabel05122313053D

 27 28  0  0  1  0  0  0  0  0999 V2000
    2.5234   -1.5459    2.1343 O   0  0  0  0  0  0  0  0  0  0  0  0
    0.3284    1.3864   -0.5124 N   0  0  0  0  0  2  0  0  0  0  0  0
   -0.1686   -1.4434   -0.5005 N   0  0  0  0  0  2  0  0  0  0  0  0
    1.7295   -0.3227    0.3597 N   0  0  0  0  0  0  0  0  0  0  0  0
    2.3028   -0.4463    1.6606 C   0  0  0  0  0  0  0  0  0  0  0  0
    2.5438    0.8548    2.3955 C   0  0  0  0  0  0  0  0  0  0  0  0
    1.6355    1.4903    2.3804 H   0  0  0  0  0  0  0  0  0  0  0  0
    3.3705    1.4393    1.9472 H   0  0  0  0  0  0  0  0  0  0  0  0
    2.8087    0.6023    3.4368 H   0  0  0  0  0  0  0  0  0  0  0  0
    1.5844    0.9243   -0.3026 C   0  0  1  0  0  3  0  0  0  0  0  0
    2.7135    1.6384   -0.7352 C   0  0  0  0  0  0  0  0  0  0  0  0
    3.7111    1.2071   -0.5753 H   0  0  0  0  0  0  0  0  0  0  0  0
    2.5364    2.8765   -1.3641 C   0  0  0  0  0  0  0  0  0  0  0  0
    3.4070    3.4541   -1.7080 H   0  0  0  0  0  0  0  0  0  0  0  0
    1.2317    3.3537   -1.5596 C   0  0  0  0  0  0  0  0  0  0  0  0
    1.0414    4.3187   -2.0496 H   0  0  0  0  0  0  0  0  0  0  0  0
    0.1506    2.5800   -1.1291 C   0  0  0  0  0  0  0  0  0  0  0  0
   -0.8991    2.9003   -1.2178 H   0  0  0  0  0  0  0  0  0  0  0  0
    1.1594   -1.4786   -0.2437 C   0  0  1  0  0  3  0  0  0  0  0  0
    1.9429   -2.6075   -0.5225 C   0  0  0  0  0  0  0  0  0  0  0  0
    3.0099   -2.5940   -0.2704 H   0  0  0  0  0  0  0  0  0  0  0  0
    1.3288   -3.7241   -1.1006 C   0  0  0  0  0  0  0  0  0  0  0  0
    1.9189   -4.6245   -1.3261 H   0  0  0  0  0  0  0  0  0  0  0  0
   -0.0425   -3.6720   -1.3903 C   0  0  0  0  0  0  0  0  0  0  0  0
   -0.5653   -4.5233   -1.8482 H   0  0  0  0  0  0  0  0  0  0  0  0
   -0.7620   -2.5162   -1.0776 C   0  0  0  0  0  0  0  0  0  0  0  0
   -1.8488   -2.4240   -1.2218 H   0  0  0  0  0  0  0  0  0  0  0  0
  2 10  1  0  0  0  0
  3 19  1  0  0  0  0
  4  5  1  0  0  0  0
  5  1  2  0  0  0  0
  5  6  1  0  0  0  0
  6  9  1  0  0  0  0
  7  6  1  0  0  0  0
  8  6  1  0  0  0  0
 10  4  1  6  0  0  0
 11 12  1  0  0  0  0
 11 10  1  0  0  0  0
 13 11  2  0  0  0  0
 14 13  1  0  0  0  0
 15 13  1  0  0  0  0
 15 17  2  0  0  0  0
 16 15  1  0  0  0  0
 17  2  1  0  0  0  0
 18 17  1  0  0  0  0
 19  4  1  1  0  0  0
 20 21  1  0  0  0  0
 20 19  1  0  0  0  0
 22 20  2  0  0  0  0
 23 22  1  0  0  0  0
 24 22  1  0  0  0  0
 24 26  2  0  0  0  0
 25 24  1  0  0  0  0
 26  3  1  0  0  0  0
 27 26  1  0  0  0  0
M  END
