1,2
 OpenBabel05122313053D

 29 31  0  0  0  0  0  0  0  0999 V2000
   -1.5286    1.6403   -0.0680 N   0  0  0  0  0  2  0  0  0  0  0  0
    0.8018    0.3485   -0.4668 N   0  0  0  0  0  2  0  0  0  0  0  0
    3.3021    1.5775    0.0309 N   0  0  0  0  0  0  0  0  0  0  0  0
   -2.7253    2.2256    0.0833 C   0  0  0  0  0  3  0  0  0  0  0  0
   -3.4366    1.7054    0.7433 H   0  0  0  0  0  0  0  0  0  0  0  0
   -3.0634    3.4241   -0.5614 C   0  0  0  0  0  0  0  0  0  0  0  0
   -4.0589    3.8632   -0.4056 H   0  0  0  0  0  0  0  0  0  0  0  0
   -2.1178    4.0366   -1.3979 C   0  0  0  0  0  0  0  0  0  0  0  0
   -2.3524    4.9773   -1.9173 H   0  0  0  0  0  0  0  0  0  0  0  0
   -0.8717    3.4233   -1.5652 C   0  0  0  0  0  0  0  0  0  0  0  0
   -0.1010    3.8583   -2.2179 H   0  0  0  0  0  0  0  0  0  0  0  0
   -0.6053    2.2182   -0.8873 C   0  0  0  0  0  0  0  0  0  0  0  0
    0.6496    1.4967   -1.0552 C   0  0  0  0  0  3  0  0  0  0  0  0
    1.4240    1.9173   -1.7187 H   0  0  0  0  0  0  0  0  0  0  0  0
    2.0022   -0.3747   -0.5815 C   0  0  0  0  0  0  0  0  0  0  0  0
    1.9467   -1.7325   -0.8975 C   0  0  0  0  0  0  0  0  0  0  0  0
    0.9578   -2.1750   -1.0996 H   0  0  0  0  0  0  0  0  0  0  0  0
    3.1318   -2.5008   -0.9805 C   0  0  0  0  0  0  0  0  0  0  0  0
    3.0593   -3.5640   -1.2534 H   0  0  0  0  0  0  0  0  0  0  0  0
    4.3692   -1.9303   -0.7159 C   0  0  0  0  0  0  0  0  0  0  0  0
    5.2916   -2.5285   -0.7743 H   0  0  0  0  0  0  0  0  0  0  0  0
    4.4619   -0.5542   -0.3644 C   0  0  0  0  0  0  0  0  0  0  0  0
    5.6975    0.0902   -0.0710 C   0  0  0  0  0  0  0  0  0  0  0  0
    6.6293   -0.4960   -0.1086 H   0  0  0  0  0  0  0  0  0  0  0  0
    5.7099    1.4351    0.2594 C   0  0  0  0  0  0  0  0  0  0  0  0
    6.6478    1.9598    0.4933 H   0  0  0  0  0  0  0  0  0  0  0  0
    4.4728    2.1348    0.3014 C   0  0  0  0  0  0  0  0  0  0  0  0
    4.4577    3.2047    0.5783 H   0  0  0  0  0  0  0  0  0  0  0  0
    3.2692    0.2575   -0.3022 C   0  0  0  0  0  0  0  0  0  0  0  0
  1  4  1  0  0  0  0
  3 27  1  0  0  0  0
  4  5  1  0  0  0  0
  6  7  1  0  0  0  0
  6  4  1  0  0  0  0
  8  6  2  0  0  0  0
  9  8  1  0  0  0  0
 10  8  1  0  0  0  0
 10 12  2  0  0  0  0
 11 10  1  0  0  0  0
 12  1  1  0  0  0  0
 13 12  1  0  0  0  0
 13  2  1  0  0  0  0
 14 13  1  0  0  0  0
 15  2  1  0  0  0  0
 15 29  1  0  0  0  0
 16 15  2  0  0  0  0
 17 16  1  0  0  0  0
 18 16  1  0  0  0  0
 18 20  2  0  0  0  0
 19 18  1  0  0  0  0
 20 22  1  0  0  0  0
 21 20  1  0  0  0  0
 22 29  1  0  0  0  0
 22 23  2  0  0  0  0
 23 25  1  0  0  0  0
 24 23  1  0  0  0  0
 25 27  2  0  0  0  0
 25 26  1  0  0  0  0
 27 28  1  0  0  0  0
 29  3  2  0  0  0  0
M  END
