1,2
 OpenBabel05122313053D

 40 42  0  0  0  0  0  0  0  0999 V2000
   -0.4489    0.6056   -0.0173 N   0  0  0  0  0  2  0  0  0  0  0  0
    2.1974    0.4581    0.0100 N   0  0  0  0  0  2  0  0  0  0  0  0
    0.2322    1.8001   -0.0215 C   0  0  0  0  0  0  0  0  0  0  0  0
   -0.3452    3.0859   -0.0401 C   0  0  0  0  0  0  0  0  0  0  0  0
   -1.4409    3.1757   -0.0505 H   0  0  0  0  0  0  0  0  0  0  0  0
    0.4642    4.2465   -0.0469 C   0  0  0  0  0  0  0  0  0  0  0  0
   -0.0304    5.2304   -0.0622 H   0  0  0  0  0  0  0  0  0  0  0  0
    1.8541    4.1797   -0.0357 C   0  0  0  0  0  3  0  0  0  0  0  0
    2.4725    5.0891   -0.0410 H   0  0  0  0  0  0  0  0  0  0  0  0
    2.4824    2.9020   -0.0168 C   0  0  0  0  0  0  0  0  0  0  0  0
    1.6726    1.7192   -0.0096 C   0  0  0  0  0  0  0  0  0  0  0  0
    3.8889    2.6945   -0.0011 C   0  0  0  0  0  0  0  0  0  0  0  0
    4.5623    3.5663   -0.0027 H   0  0  0  0  0  0  0  0  0  0  0  0
    4.4018    1.4068    0.0186 C   0  0  0  0  0  0  0  0  0  0  0  0
    5.4879    1.2345    0.0334 H   0  0  0  0  0  0  0  0  0  0  0  0
    3.5272    0.2826    0.0209 C   0  0  0  0  0  0  0  0  0  0  0  0
   -1.8732    0.6512   -0.0109 C   0  0  0  0  0  0  0  0  0  0  0  0
   -2.5867    0.6410   -1.2367 C   0  0  0  0  0  0  0  0  0  0  0  0
   -3.9924    0.6619   -1.2049 C   0  0  0  0  0  0  0  0  0  0  0  0
   -4.5428    0.6508   -2.1604 H   0  0  0  0  0  0  0  0  0  0  0  0
   -4.7119    0.7071    0.0039 C   0  0  0  0  0  0  0  0  0  0  0  0
   -3.9788    0.7447    1.2039 C   0  0  0  0  0  0  0  0  0  0  0  0
   -4.5182    0.7968    2.1643 H   0  0  0  0  0  0  0  0  0  0  0  0
   -2.5722    0.7224    1.2209 C   0  0  0  0  0  0  0  0  0  0  0  0
    4.0717   -1.1175    0.0183 C   0  0  0  0  0  0  0  0  0  0  0  0
    3.4423   -1.7695    0.6535 H   0  0  0  0  0  0  0  0  0  0  0  0
    5.1225   -1.1393    0.3633 H   0  0  0  0  0  0  0  0  0  0  0  0
    4.0352   -1.5444   -1.0055 H   0  0  0  0  0  0  0  0  0  0  0  0
   -1.8360    0.6231   -2.5417 C   0  0  0  0  0  0  0  0  0  0  0  0
   -1.1632    1.5018   -2.6318 H   0  0  0  0  0  0  0  0  0  0  0  0
   -2.5286    0.6269   -3.4050 H   0  0  0  0  0  0  0  0  0  0  0  0
   -1.1899   -0.2745   -2.6190 H   0  0  0  0  0  0  0  0  0  0  0  0
   -1.8076    0.7809    2.5169 C   0  0  0  0  0  0  0  0  0  0  0  0
   -2.4911    0.8169    3.3866 H   0  0  0  0  0  0  0  0  0  0  0  0
   -1.1477    1.6730    2.5571 H   0  0  0  0  0  0  0  0  0  0  0  0
   -1.1456   -0.1014    2.6303 H   0  0  0  0  0  0  0  0  0  0  0  0
   -6.2205    0.6865    0.0118 C   0  0  0  0  0  0  0  0  0  0  0  0
   -6.6416    1.1999   -0.8758 H   0  0  0  0  0  0  0  0  0  0  0  0
   -6.6317    1.1737    0.9182 H   0  0  0  0  0  0  0  0  0  0  0  0
   -6.6087   -0.3554   -0.0025 H   0  0  0  0  0  0  0  0  0  0  0  0
  1 17  1  0  0  0  0
  2 16  1  0  0  0  0
  3  1  1  0  0  0  0
  3 11  2  0  0  0  0
  4  3  1  0  0  0  0
  5  4  1  0  0  0  0
  6  4  2  0  0  0  0
  6  8  1  0  0  0  0
  7  6  1  0  0  0  0
  8 10  1  0  0  0  0
  9  8  1  0  0  0  0
 10 11  1  0  0  0  0
 10 12  2  0  0  0  0
 11  2  1  0  0  0  0
 12 14  1  0  0  0  0
 13 12  1  0  0  0  0
 14 16  2  0  0  0  0
 14 15  1  0  0  0  0
 17 24  1  0  0  0  0
 18 19  1  0  0  0  0
 18 17  2  0  0  0  0
 19 21  2  0  0  0  0
 20 19  1  0  0  0  0
 21 37  1  0  0  0  0
 21 22  1  0  0  0  0
 22 24  2  0  0  0  0
 22 23  1  0  0  0  0
 24 33  1  0  0  0  0
 25 16  1  0  0  0  0
 25 27  1  0  0  0  0
 25 26  1  0  0  0  0
 28 25  1  0  0  0  0
 29 18  1  0  0  0  0
 30 29  1  0  0  0  0
 31 29  1  0  0  0  0
 32 29  1  0  0  0  0
 33 35  1  0  0  0  0
 33 36  1  0  0  0  0
 33 34  1  0  0  0  0
 37 39  1  0  0  0  0
 38 37  1  0  0  0  0
 40 37  1  0  0  0  0
M  END
