1,3
 OpenBabel05122313053D

 35 35  0  0  1  0  0  0  0  0999 V2000
    1.4120   -0.2725    0.0178 N   0  0  0  0  0  2  0  0  0  0  0  0
    1.9200    0.8681   -0.5173 N   0  0  0  0  0  0  0  0  0  0  0  0
   -1.1608    1.3389    0.2425 N   0  0  0  0  0  0  0  0  0  0  0  0
    2.4296   -0.9165    0.6313 C   0  0  1  0  0  3  0  0  0  0  0  0
    3.6123   -0.1538    0.4647 C   0  0  0  0  0  0  0  0  0  0  0  0
    4.6114   -0.4108    0.8308 H   0  0  0  0  0  0  0  0  0  0  0  0
    3.2598    0.9874   -0.2571 C   0  0  0  0  0  0  0  0  0  0  0  0
    2.2471   -2.1965    1.3737 C   0  0  0  0  0  0  0  0  0  0  0  0
    1.5137   -2.0683    2.1962 H   0  0  0  0  0  0  0  0  0  0  0  0
    3.2088   -2.5334    1.8022 H   0  0  0  0  0  0  0  0  0  0  0  0
    1.8286   -2.9708    0.6999 H   0  0  0  0  0  0  0  0  0  0  0  0
    4.0815    2.1496   -0.7084 C   0  0  0  0  0  0  0  0  0  0  0  0
    4.0401    2.2873   -1.8088 H   0  0  0  0  0  0  0  0  0  0  0  0
    5.1387    1.9841   -0.4316 H   0  0  0  0  0  0  0  0  0  0  0  0
    3.7608    3.1035   -0.2380 H   0  0  0  0  0  0  0  0  0  0  0  0
    0.9885    1.8827   -0.9694 C   0  0  0  0  0  0  0  0  0  0  0  0
    0.4507    1.5179   -1.8695 H   0  0  0  0  0  0  0  0  0  0  0  0
    1.5801    2.7687   -1.2652 H   0  0  0  0  0  0  0  0  0  0  0  0
    0.0064    2.2530    0.1493 C   0  0  0  0  0  0  0  0  0  0  0  0
    0.5541    2.2355    1.1107 H   0  0  0  0  0  0  0  0  0  0  0  0
   -0.3522    3.2940   -0.0007 H   0  0  0  0  0  0  0  0  0  0  0  0
   -2.1810    1.7135   -0.8002 C   0  0  0  0  0  0  0  0  0  0  0  0
   -2.9150    0.8838   -0.8073 H   0  0  0  0  0  0  0  0  0  0  0  0
   -1.6636    1.6727   -1.7798 H   0  0  0  0  0  0  0  0  0  0  0  0
   -2.8833    3.0585   -0.6191 C   0  0  0  0  0  0  0  0  0  0  0  0
   -3.5641    3.2100   -1.4800 H   0  0  0  0  0  0  0  0  0  0  0  0
   -2.1968    3.9303   -0.5953 H   0  0  0  0  0  0  0  0  0  0  0  0
   -3.5074    3.0877    0.2953 H   0  0  0  0  0  0  0  0  0  0  0  0
   -1.7673    1.3684    1.6090 C   0  0  0  0  0  0  0  0  0  0  0  0
   -2.7349    0.8375    1.5105 H   0  0  0  0  0  0  0  0  0  0  0  0
   -1.9735    2.4259    1.8911 H   0  0  0  0  0  0  0  0  0  0  0  0
   -0.9308    0.6832    2.6807 C   0  0  0  0  0  0  0  0  0  0  0  0
   -1.4380    0.7891    3.6604 H   0  0  0  0  0  0  0  0  0  0  0  0
    0.0857    1.1143    2.7856 H   0  0  0  0  0  0  0  0  0  0  0  0
   -0.8275   -0.3976    2.4548 H   0  0  0  0  0  0  0  0  0  0  0  0
  1  4  1  0  0  0  0
  2  7  1  0  0  0  0
  2  1  1  0  0  0  0
  3 29  1  0  0  0  0
  4  8  1  1  0  0  0
  5  4  1  0  0  0  0
  5  6  1  0  0  0  0
  7  5  2  0  0  0  0
  8 10  1  0  0  0  0
  8  9  1  0  0  0  0
 11  8  1  0  0  0  0
 12 14  1  0  0  0  0
 12  7  1  0  0  0  0
 12 15  1  0  0  0  0
 13 12  1  0  0  0  0
 16  2  1  0  0  0  0
 16 19  1  0  0  0  0
 17 16  1  0  0  0  0
 18 16  1  0  0  0  0
 19  3  1  0  0  0  0
 19 20  1  0  0  0  0
 21 19  1  0  0  0  0
 22 25  1  0  0  0  0
 22  3  1  0  0  0  0
 23 22  1  0  0  0  0
 24 22  1  0  0  0  0
 25 27  1  0  0  0  0
 25 28  1  0  0  0  0
 26 25  1  0  0  0  0
 29 31  1  0  0  0  0
 29 32  1  0  0  0  0
 30 29  1  0  0  0  0
 32 34  1  0  0  0  0
 32 33  1  0  0  0  0
 35 32  1  0  0  0  0
M  END
