2,5
 OpenBabel05122313053D

 26 28  0  0  1  0  0  0  0  0999 V2000
   -1.7188    3.1842   -0.1668 S   0  0  0  0  0  0  0  0  0  0  0  0
    1.6037    0.3202   -1.3279 N   0  0  0  0  0  0  0  0  0  0  0  0
    2.3964   -0.1553   -1.7748 H   0  0  0  0  0  0  0  0  0  0  0  0
    0.8126    0.2911   -2.0015 H   0  0  0  0  0  0  0  0  0  0  0  0
   -0.8435    0.7425    0.0765 N   0  0  0  0  0  2  0  0  0  0  0  0
    1.9544    1.6166   -0.8462 C   0  0  0  0  0  0  0  0  0  0  0  0
    3.2839    2.0592   -0.9127 C   0  0  0  0  0  0  0  0  0  0  0  0
    4.0427    1.4050   -1.3691 H   0  0  0  0  0  0  0  0  0  0  0  0
    3.6454    3.3172   -0.4126 C   0  0  0  0  0  0  0  0  0  0  0  0
    4.6937    3.6447   -0.4714 H   0  0  0  0  0  0  0  0  0  0  0  0
    2.6717    4.1525    0.1560 C   0  0  0  0  0  0  0  0  0  0  0  0
    2.9466    5.1402    0.5527 H   0  0  0  0  0  0  0  0  0  0  0  0
    1.3471    3.7120    0.2373 C   0  0  0  0  0  0  0  0  0  0  0  0
    0.5874    4.3475    0.7171 H   0  0  0  0  0  0  0  0  0  0  0  0
    0.9642    2.4385   -0.2416 C   0  0  0  0  0  0  0  0  0  0  0  0
   -0.4268    1.9918   -0.1054 C   0  0  2  0  0  3  0  0  0  0  0  0
   -2.2328    0.6575    0.1673 C   0  0  0  0  0  0  0  0  0  0  0  0
   -2.8929    1.9174    0.0821 C   0  0  0  0  0  0  0  0  0  0  0  0
   -4.2896    2.0336    0.1705 C   0  0  0  0  0  0  0  0  0  0  0  0
   -4.7824    3.0141    0.1059 H   0  0  0  0  0  0  0  0  0  0  0  0
   -5.0304    0.8595    0.3399 C   0  0  0  0  0  0  0  0  0  0  0  0
   -6.1266    0.9190    0.4121 H   0  0  0  0  0  0  0  0  0  0  0  0
   -4.3909   -0.3986    0.4084 C   0  0  0  0  0  0  0  0  0  0  0  0
   -4.9969   -1.3088    0.5248 H   0  0  0  0  0  0  0  0  0  0  0  0
   -3.0025   -0.5150    0.3198 C   0  0  0  0  0  0  0  0  0  0  0  0
   -2.5098   -1.4939    0.3357 H   0  0  0  0  0  0  0  0  0  0  0  0
  1 16  1  0  0  0  0
  1 18  1  0  0  0  0
  2  6  1  0  0  0  0
  3  2  1  0  0  0  0
  4  2  1  0  0  0  0
  5 17  1  0  0  0  0
  6 15  1  0  0  0  0
  7  6  2  0  0  0  0
  7  9  1  0  0  0  0
  8  7  1  0  0  0  0
  9 11  2  0  0  0  0
 10  9  1  0  0  0  0
 11 13  1  0  0  0  0
 11 12  1  0  0  0  0
 13 14  1  0  0  0  0
 15 13  2  0  0  0  0
 16 15  1  1  0  0  0
 16  5  1  0  0  0  0
 17 25  1  0  0  0  0
 18 17  2  0  0  0  0
 18 19  1  0  0  0  0
 19 21  2  0  0  0  0
 20 19  1  0  0  0  0
 21 23  1  0  0  0  0
 21 22  1  0  0  0  0
 23 24  1  0  0  0  0
 25 26  1  0  0  0  0
 25 23  2  0  0  0  0
M  END
