2,3
 OpenBabel05122313053D

 42 43  0  0  0  0  0  0  0  0999 V2000
   -0.3254    2.0403    2.1203 F   0  0  0  0  0  0  0  0  0  0  0  0
   -0.7282   -0.7493    1.3185 N   0  0  0  0  0  2  0  0  0  0  0  0
    1.9347   -1.5140    1.8755 N   0  0  0  0  0  0  0  0  0  0  0  0
   -1.4335    2.2663    1.3912 C   0  0  0  0  0  0  0  0  0  0  0  0
   -1.7976    3.5882    1.1334 C   0  0  0  0  0  0  0  0  0  0  0  0
   -1.1460    4.3975    1.4905 H   0  0  0  0  0  0  0  0  0  0  0  0
   -2.9844    3.8389    0.4297 C   0  0  0  0  0  0  0  0  0  0  0  0
   -3.2774    4.8768    0.2117 H   0  0  0  0  0  0  0  0  0  0  0  0
   -3.7871    2.7772   -0.0092 C   0  0  0  0  0  0  0  0  0  0  0  0
   -4.6973    2.9751   -0.5939 H   0  0  0  0  0  0  0  0  0  0  0  0
   -3.4129    1.4427    0.2396 C   0  0  0  0  0  0  0  0  0  0  0  0
   -4.2085    0.3153   -0.3020 C   0  0  0  0  0  0  0  0  0  0  0  0
   -5.6093    0.2563   -0.1423 C   0  0  0  0  0  0  0  0  0  0  0  0
   -6.1229    1.0501    0.4221 H   0  0  0  0  0  0  0  0  0  0  0  0
   -6.3431   -0.8159   -0.6655 C   0  0  0  0  0  0  0  0  0  0  0  0
   -7.4341   -0.8505   -0.5155 H   0  0  0  0  0  0  0  0  0  0  0  0
   -5.7109   -1.8579   -1.3755 C   0  0  0  0  0  0  0  0  0  0  0  0
   -4.3121   -1.7864   -1.5434 C   0  0  0  0  0  0  0  0  0  0  0  0
   -3.7946   -2.5764   -2.1111 H   0  0  0  0  0  0  0  0  0  0  0  0
   -3.5680   -0.7219   -1.0206 C   0  0  0  0  0  0  0  0  0  0  0  0
   -2.4839   -0.6500   -1.2122 H   0  0  0  0  0  0  0  0  0  0  0  0
   -2.2136    1.1725    0.9569 C   0  0  0  0  0  0  0  0  0  0  0  0
   -1.8972   -0.1964    1.3835 C   0  0  0  0  0  3  0  0  0  0  0  0
   -2.7374   -0.7717    1.8304 H   0  0  0  0  0  0  0  0  0  0  0  0
   -0.5017   -2.0195    2.0013 C   0  0  0  0  0  0  0  0  0  0  0  0
   -0.4103   -2.8280    1.2446 H   0  0  0  0  0  0  0  0  0  0  0  0
   -1.3334   -2.2850    2.6915 H   0  0  0  0  0  0  0  0  0  0  0  0
    0.8009   -1.8645    2.7842 C   0  0  0  0  0  0  0  0  0  0  0  0
    0.6789   -1.0301    3.5021 H   0  0  0  0  0  0  0  0  0  0  0  0
    1.0450   -2.7855    3.3595 H   0  0  0  0  0  0  0  0  0  0  0  0
   -6.5059   -2.9929   -1.9696 C   0  0  0  0  0  0  0  0  0  0  0  0
   -7.4892   -3.1091   -1.4734 H   0  0  0  0  0  0  0  0  0  0  0  0
   -5.9624   -3.9559   -1.8936 H   0  0  0  0  0  0  0  0  0  0  0  0
   -6.7007   -2.8181   -3.0498 H   0  0  0  0  0  0  0  0  0  0  0  0
    2.5142   -2.7410    1.2781 C   0  0  0  0  0  0  0  0  0  0  0  0
    2.9563   -3.3847    2.0729 H   0  0  0  0  0  0  0  0  0  0  0  0
    3.2926   -2.4520    0.5489 H   0  0  0  0  0  0  0  0  0  0  0  0
    1.7295   -3.3023    0.7390 H   0  0  0  0  0  0  0  0  0  0  0  0
    2.9870   -0.7905    2.6256 C   0  0  0  0  0  0  0  0  0  0  0  0
    2.5621    0.1420    3.0400 H   0  0  0  0  0  0  0  0  0  0  0  0
    3.8028   -0.5240    1.9291 H   0  0  0  0  0  0  0  0  0  0  0  0
    3.3860   -1.4249    3.4498 H   0  0  0  0  0  0  0  0  0  0  0  0
  2 23  1  0  0  0  0
  2 25  1  0  0  0  0
  3 39  1  0  0  0  0
  3 28  1  0  0  0  0
  4  1  1  0  0  0  0
  5  4  1  0  0  0  0
  5  6  1  0  0  0  0
  7  5  2  0  0  0  0
  8  7  1  0  0  0  0
  9 11  2  0  0  0  0
  9  7  1  0  0  0  0
 10  9  1  0  0  0  0
 11 22  1  0  0  0  0
 12 13  1  0  0  0  0
 12 11  1  0  0  0  0
 13 14  1  0  0  0  0
 15 16  1  0  0  0  0
 15 13  2  0  0  0  0
 17 15  1  0  0  0  0
 18 17  2  0  0  0  0
 18 20  1  0  0  0  0
 19 18  1  0  0  0  0
 20 12  2  0  0  0  0
 21 20  1  0  0  0  0
 22 23  1  0  0  0  0
 22  4  2  0  0  0  0
 23 24  1  0  0  0  0
 25 27  1  0  0  0  0
 25 28  1  0  0  0  0
 26 25  1  0  0  0  0
 28 30  1  0  0  0  0
 28 29  1  0  0  0  0
 31 33  1  0  0  0  0
 31 32  1  0  0  0  0
 31 17  1  0  0  0  0
 34 31  1  0  0  0  0
 35  3  1  0  0  0  0
 35 36  1  0  0  0  0
 37 35  1  0  0  0  0
 38 35  1  0  0  0  0
 39 40  1  0  0  0  0
 39 42  1  0  0  0  0
 41 39  1  0  0  0  0
M  END
