1,4
 OpenBabel05122313053D

 28 29  0  0  0  0  0  0  0  0999 V2000
   -1.5207    1.0973    1.8808 N   0  0  0  0  0  0  0  0  0  0  0  0
   -0.9573    2.4371    3.6591 N   0  0  0  0  0  0  0  0  0  0  0  0
    0.7644    1.7268    2.1310 N   0  0  0  0  0  2  0  0  0  0  0  0
    0.9555    1.0570    1.0383 N   0  0  0  0  0  2  0  0  0  0  0  0
    6.3294    0.6001   -0.6660 N   0  0  0  0  0  0  0  0  0  0  0  0
   -0.5190    1.7712    2.5607 C   0  0  0  0  0  0  0  0  0  0  0  0
   -2.2820    2.1838    3.6754 C   0  0  0  0  0  0  0  0  0  0  0  0
   -2.9422    2.5897    4.4551 H   0  0  0  0  0  0  0  0  0  0  0  0
   -2.6499    1.3538    2.5784 C   0  0  0  0  0  3  0  0  0  0  0  0
   -3.6242    0.9474    2.2778 H   0  0  0  0  0  0  0  0  0  0  0  0
    2.3029    0.9502    0.6301 C   0  0  0  0  0  0  0  0  0  0  0  0
    2.6097    0.5434   -0.6851 C   0  0  0  0  0  0  0  0  0  0  0  0
    1.7914    0.3110   -1.3773 H   0  0  0  0  0  0  0  0  0  0  0  0
    3.9299    0.4329   -1.1194 C   0  0  0  0  0  0  0  0  0  0  0  0
    4.1104    0.1133   -2.1535 H   0  0  0  0  0  0  0  0  0  0  0  0
    5.0177    0.7208   -0.2475 C   0  0  0  0  0  0  0  0  0  0  0  0
    4.6974    1.1347    1.0807 C   0  0  0  0  0  0  0  0  0  0  0  0
    5.4973    1.3627    1.7972 H   0  0  0  0  0  0  0  0  0  0  0  0
    3.3769    1.2488    1.5035 C   0  0  0  0  0  0  0  0  0  0  0  0
    3.1400    1.5702    2.5267 H   0  0  0  0  0  0  0  0  0  0  0  0
    7.4138    0.9124    0.2418 C   0  0  0  0  0  0  0  0  0  0  0  0
    8.3788    0.7667   -0.2764 H   0  0  0  0  0  0  0  0  0  0  0  0
    7.4100    0.2585    1.1436 H   0  0  0  0  0  0  0  0  0  0  0  0
    7.3742    1.9673    0.5962 H   0  0  0  0  0  0  0  0  0  0  0  0
    6.6189    0.1591   -2.0145 C   0  0  0  0  0  0  0  0  0  0  0  0
    6.2004   -0.8517   -2.2232 H   0  0  0  0  0  0  0  0  0  0  0  0
    7.7134    0.1090   -2.1576 H   0  0  0  0  0  0  0  0  0  0  0  0
    6.2062    0.8532   -2.7820 H   0  0  0  0  0  0  0  0  0  0  0  0
  1  6  2  0  0  0  0
  1  9  1  0  0  0  0
  2  7  2  0  0  0  0
  3  6  1  0  0  0  0
  4  3  1  0  0  0  0
  5 16  1  0  0  0  0
  5 21  1  0  0  0  0
  6  2  1  0  0  0  0
  7  8  1  0  0  0  0
  9  7  1  0  0  0  0
 10  9  1  0  0  0  0
 11  4  1  0  0  0  0
 11 19  1  0  0  0  0
 12 11  2  0  0  0  0
 13 12  1  0  0  0  0
 14 12  1  0  0  0  0
 14 16  2  0  0  0  0
 15 14  1  0  0  0  0
 16 17  1  0  0  0  0
 17 19  2  0  0  0  0
 17 18  1  0  0  0  0
 19 20  1  0  0  0  0
 21 24  1  0  0  0  0
 21 23  1  0  0  0  0
 22 21  1  0  0  0  0
 25  5  1  0  0  0  0
 26 25  1  0  0  0  0
 27 25  1  0  0  0  0
 28 25  1  0  0  0  0
M  END
