1,2
 OpenBabel05122313053D

 33 34  0  0  0  0  0  0  0  0999 V2000
   -1.6104   -0.6785   -0.1200 N   0  0  0  0  0  2  0  0  0  0  0  0
    0.4130   -0.6018   -0.0889 N   0  0  0  0  0  2  0  0  0  0  0  0
   -0.5801   -1.4794   -0.1135 N   0  0  0  0  0  2  0  0  0  0  0  0
    1.6452   -1.0755   -0.0807 N   0  0  0  0  0  2  0  0  0  0  0  0
    2.5302   -0.1585   -0.0347 N   0  0  0  0  0  2  0  0  0  0  0  0
    3.8548   -0.6221   -0.0407 C   0  0  0  0  0  0  0  0  0  0  0  0
    4.2387   -1.9872   -0.0707 C   0  0  0  0  0  0  0  0  0  0  0  0
    3.4543   -2.7564   -0.0865 H   0  0  0  0  0  0  0  0  0  0  0  0
    5.5898   -2.3306   -0.0764 C   0  0  0  0  0  0  0  0  0  0  0  0
    5.8754   -3.3950   -0.0989 H   0  0  0  0  0  0  0  0  0  0  0  0
    6.6071   -1.3459   -0.0509 C   0  0  0  0  0  0  0  0  0  0  0  0
    6.2142    0.0071   -0.0190 C   0  0  0  0  0  0  0  0  0  0  0  0
    6.9862    0.7924    0.0038 H   0  0  0  0  0  0  0  0  0  0  0  0
    4.8619    0.3671   -0.0123 C   0  0  0  0  0  0  0  0  0  0  0  0
    4.5518    1.4221    0.0191 H   0  0  0  0  0  0  0  0  0  0  0  0
    8.0596   -1.7456   -0.0481 C   0  0  0  0  0  0  0  0  0  0  0  0
    8.3140   -2.3289    0.8623 H   0  0  0  0  0  0  0  0  0  0  0  0
    8.7281   -0.8638   -0.0815 H   0  0  0  0  0  0  0  0  0  0  0  0
    8.3027   -2.3923   -0.9170 H   0  0  0  0  0  0  0  0  0  0  0  0
   -2.9095   -1.1818   -0.1112 C   0  0  0  0  0  0  0  0  0  0  0  0
   -3.1888   -2.5521   -0.3314 C   0  0  0  0  0  0  0  0  0  0  0  0
   -2.3549   -3.2468   -0.5004 H   0  0  0  0  0  0  0  0  0  0  0  0
   -4.5120   -2.9932   -0.3320 C   0  0  0  0  0  0  0  0  0  0  0  0
   -4.7193   -4.0611   -0.5075 H   0  0  0  0  0  0  0  0  0  0  0  0
   -5.5933   -2.1069   -0.1143 C   0  0  0  0  0  0  0  0  0  0  0  0
   -5.2938   -0.7486    0.1106 C   0  0  0  0  0  0  0  0  0  0  0  0
   -6.1153   -0.0389    0.2965 H   0  0  0  0  0  0  0  0  0  0  0  0
   -3.9736   -0.2846    0.1136 C   0  0  0  0  0  0  0  0  0  0  0  0
   -3.7378    0.7689    0.3205 H   0  0  0  0  0  0  0  0  0  0  0  0
   -7.0125   -2.6126   -0.1172 C   0  0  0  0  0  0  0  0  0  0  0  0
   -7.7393   -1.7942    0.0487 H   0  0  0  0  0  0  0  0  0  0  0  0
   -7.1707   -3.3722    0.6773 H   0  0  0  0  0  0  0  0  0  0  0  0
   -7.2657   -3.1029   -1.0807 H   0  0  0  0  0  0  0  0  0  0  0  0
  1  3  1  0  0  0  0
  1 20  1  0  0  0  0
  2  4  1  0  0  0  0
  3  2  1  0  0  0  0
  4  5  1  0  0  0  0
  6  5  1  0  0  0  0
  6 14  1  0  0  0  0
  7  6  2  0  0  0  0
  8  7  1  0  0  0  0
  9  7  1  0  0  0  0
  9 11  2  0  0  0  0
 10  9  1  0  0  0  0
 11 16  1  0  0  0  0
 11 12  1  0  0  0  0
 12 14  2  0  0  0  0
 12 13  1  0  0  0  0
 14 15  1  0  0  0  0
 16 17  1  0  0  0  0
 18 16  1  0  0  0  0
 19 16  1  0  0  0  0
 20 28  1  0  0  0  0
 21 20  2  0  0  0  0
 22 21  1  0  0  0  0
 23 21  1  0  0  0  0
 23 25  2  0  0  0  0
 24 23  1  0  0  0  0
 25 26  1  0  0  0  0
 26 28  2  0  0  0  0
 26 27  1  0  0  0  0
 28 29  1  0  0  0  0
 30 25  1  0  0  0  0
 30 31  1  0  0  0  0
 30 32  1  0  0  0  0
 33 30  1  0  0  0  0
M  END
