1,2
 OpenBabel05122313053D

 32 33  0  0  0  0  0  0  0  0999 V2000
    1.5395    0.1314   -1.4510 N   0  0  0  0  0  0  0  0  0  0  0  0
    1.5399   -0.1327    1.4504 N   0  0  0  0  0  0  0  0  0  0  0  0
    3.6344   -0.6276   -0.4060 C   0  0  0  0  0  0  0  0  0  0  0  0
    2.6107   -0.8335   -1.3623 C   0  0  0  0  0  0  0  0  0  0  0  0
    2.5754   -1.9746   -2.1719 C   0  0  0  0  0  0  0  0  0  0  0  0
    3.5751   -2.9434   -2.0269 C   0  0  0  0  0  0  0  0  0  0  0  0
    4.5775   -2.7751   -1.0650 C   0  0  0  0  0  0  0  0  0  0  0  0
    4.6278   -1.6301   -0.2425 C   0  0  0  0  0  0  0  0  0  0  0  0
    3.6342    0.6282    0.4054 C   0  0  0  0  0  0  0  0  0  0  0  0
    2.6106    0.8329    1.3622 C   0  0  0  0  0  0  0  0  0  0  0  0
    2.5750    1.9733    2.1728 C   0  0  0  0  0  0  0  0  0  0  0  0
    3.5743    2.9426    2.0283 C   0  0  0  0  0  0  0  0  0  0  0  0
    4.5765    2.7755    1.0661 C   0  0  0  0  0  0  0  0  0  0  0  0
    4.6270    1.6313    0.2425 C   0  0  0  0  0  0  0  0  0  0  0  0
    5.7264   -1.4972    0.7802 C   0  0  0  0  0  0  0  0  0  0  0  0
    5.7252    1.5011   -0.7811 C   0  0  0  0  0  0  0  0  0  0  0  0
    1.1375    0.1194   -2.3985 H   0  0  0  0  0  0  0  0  0  0  0  0
    1.8702    1.1001   -1.2771 H   0  0  0  0  0  0  0  0  0  0  0  0
    1.1381   -0.1216    2.3980 H   0  0  0  0  0  0  0  0  0  0  0  0
    1.8712   -1.1011    1.2758 H   0  0  0  0  0  0  0  0  0  0  0  0
    1.7603   -2.1132   -2.8975 H   0  0  0  0  0  0  0  0  0  0  0  0
    3.5589   -3.8445   -2.6567 H   0  0  0  0  0  0  0  0  0  0  0  0
    5.3462   -3.5527   -0.9393 H   0  0  0  0  0  0  0  0  0  0  0  0
    1.7601    2.1109    2.8987 H   0  0  0  0  0  0  0  0  0  0  0  0
    3.5579    3.8431    2.6590 H   0  0  0  0  0  0  0  0  0  0  0  0
    5.3449    3.5535    0.9409 H   0  0  0  0  0  0  0  0  0  0  0  0
    5.4620   -0.7960    1.5938 H   0  0  0  0  0  0  0  0  0  0  0  0
    6.6613   -1.1226    0.3125 H   0  0  0  0  0  0  0  0  0  0  0  0
    5.9681   -2.4812    1.2269 H   0  0  0  0  0  0  0  0  0  0  0  0
    5.4688    0.7870   -1.5859 H   0  0  0  0  0  0  0  0  0  0  0  0
    6.6663    1.1458   -0.3108 H   0  0  0  0  0  0  0  0  0  0  0  0
    5.9521    2.4831   -1.2399 H   0  0  0  0  0  0  0  0  0  0  0  0
  1  4  1  0  0  0  0
  1 18  1  0  0  0  0
  2 19  1  0  0  0  0
  3  8  1  0  0  0  0
  3  9  1  0  0  0  0
  4  3  2  0  0  0  0
  5  6  2  0  0  0  0
  5  4  1  0  0  0  0
  6  7  1  0  0  0  0
  7 23  1  0  0  0  0
  7  8  2  0  0  0  0
  8 15  1  0  0  0  0
  9 10  1  0  0  0  0
 10  2  1  0  0  0  0
 10 11  2  0  0  0  0
 11 24  1  0  0  0  0
 12 11  1  0  0  0  0
 12 25  1  0  0  0  0
 13 12  2  0  0  0  0
 14  9  2  0  0  0  0
 14 13  1  0  0  0  0
 15 29  1  0  0  0  0
 15 27  1  0  0  0  0
 16 31  1  0  0  0  0
 16 14  1  0  0  0  0
 17  1  1  0  0  0  0
 20  2  1  0  0  0  0
 21  5  1  0  0  0  0
 22  6  1  0  0  0  0
 26 13  1  0  0  0  0
 28 15  1  0  0  0  0
 30 16  1  0  0  0  0
 32 16  1  0  0  0  0
M  END
