2,4
 OpenBabel05122313053D

 27 28  0  0  0  0  0  0  0  0999 V2000
    5.8939   -2.1859   -1.9210 O   0  0  0  0  0  0  0  0  0  0  0  0
    0.9052   -1.9113    0.6150 N   0  0  0  0  0  2  0  0  0  0  0  0
    0.5723   -3.0700    1.1882 N   0  0  0  0  0  0  0  0  0  0  0  0
   -1.4149   -1.8723    1.5037 N   0  0  0  0  0  2  0  0  0  0  0  0
    2.1910   -1.9699    0.0093 C   0  0  0  0  0  0  0  0  0  0  0  0
   -1.2538   -4.1349    2.3713 C   0  0  0  0  0  0  0  0  0  0  0  0
   -0.6330   -5.0314    2.5017 H   0  0  0  0  0  0  0  0  0  0  0  0
   -0.6900   -3.0285    1.6819 C   0  0  0  0  0  0  0  0  0  0  0  0
    4.7125   -2.0611   -1.2558 C   0  0  0  0  0  0  0  0  0  0  0  0
   -2.6753   -1.7967    1.9770 C   0  0  0  0  0  0  0  0  0  0  0  0
   -3.2008   -0.8448    1.8078 H   0  0  0  0  0  0  0  0  0  0  0  0
    4.3663   -0.9611   -0.4438 C   0  0  0  0  0  0  0  0  0  0  0  0
    5.0590   -0.1232   -0.2918 H   0  0  0  0  0  0  0  0  0  0  0  0
    3.1123   -0.9221    0.1787 C   0  0  0  0  0  0  0  0  0  0  0  0
    2.8446   -0.0613    0.8047 H   0  0  0  0  0  0  0  0  0  0  0  0
   -3.2932   -2.8577    2.6461 C   0  0  0  0  0  0  0  0  0  0  0  0
   -4.3234   -2.7476    3.0110 H   0  0  0  0  0  0  0  0  0  0  0  0
    2.5571   -3.0876   -0.7752 C   0  0  0  0  0  0  0  0  0  0  0  0
    1.8359   -3.9084   -0.8870 H   0  0  0  0  0  0  0  0  0  0  0  0
    3.7966   -3.1270   -1.4093 C   0  0  0  0  0  0  0  0  0  0  0  0
    4.0867   -3.9754   -2.0458 H   0  0  0  0  0  0  0  0  0  0  0  0
   -2.5586   -4.0476    2.8462 C   0  0  0  0  0  0  0  0  0  0  0  0
   -3.0119   -4.8985    3.3771 H   0  0  0  0  0  0  0  0  0  0  0  0
    6.8304   -1.1307   -1.8245 C   0  0  0  0  0  0  0  0  0  0  0  0
    7.6960   -1.4206   -2.4488 H   0  0  0  0  0  0  0  0  0  0  0  0
    7.1767   -0.9755   -0.7776 H   0  0  0  0  0  0  0  0  0  0  0  0
    6.4145   -0.1703   -2.2047 H   0  0  0  0  0  0  0  0  0  0  0  0
  1 24  1  0  0  0  0
  1  9  1  0  0  0  0
  2  3  1  0  0  0  0
  3  8  2  0  0  0  0
  4  8  1  0  0  0  0
  4 10  1  0  0  0  0
  5 14  1  0  0  0  0
  5  2  1  0  0  0  0
  6  7  1  0  0  0  0
  6 22  2  0  0  0  0
  8  6  1  0  0  0  0
  9 12  1  0  0  0  0
 10 16  2  0  0  0  0
 11 10  1  0  0  0  0
 12 13  1  0  0  0  0
 12 14  2  0  0  0  0
 14 15  1  0  0  0  0
 16 22  1  0  0  0  0
 16 17  1  0  0  0  0
 18  5  2  0  0  0  0
 19 18  1  0  0  0  0
 20  9  2  0  0  0  0
 20 18  1  0  0  0  0
 21 20  1  0  0  0  0
 22 23  1  0  0  0  0
 24 26  1  0  0  0  0
 25 24  1  0  0  0  0
 27 24  1  0  0  0  0
M  END
