1,13
 OpenBabel05122313053D

 26 27  0  0  0  0  0  0  0  0999 V2000
    2.1362    1.3830    0.0105 N   0  0  0  0  0  2  0  0  0  0  0  0
    1.4927    2.5922    0.0882 C   0  0  0  0  0  0  0  0  0  0  0  0
    2.2009    3.8074    0.0755 C   0  0  0  0  0  0  0  0  0  0  0  0
    1.6478    4.7556    0.1343 H   0  0  0  0  0  0  0  0  0  0  0  0
    3.5947    3.7799   -0.0299 C   0  0  0  0  0  0  0  0  0  0  0  0
    4.1735    4.7146   -0.0411 H   0  0  0  0  0  0  0  0  0  0  0  0
    4.2390    2.5364   -0.1417 C   0  0  0  0  0  0  0  0  0  0  0  0
    5.3307    2.4670   -0.2475 H   0  0  0  0  0  0  0  0  0  0  0  0
    3.4774    1.3626   -0.1295 C   0  0  0  0  0  0  0  0  0  0  0  0
    3.9401    0.3734   -0.2482 H   0  0  0  0  0  0  0  0  0  0  0  0
    0.0531    2.4821    0.1245 C   0  0  0  0  0  0  0  0  0  0  0  0
   -0.5989    3.3712    0.1555 H   0  0  0  0  0  0  0  0  0  0  0  0
   -0.4411    1.2725    0.0592 N   0  0  0  0  0  2  0  0  0  0  0  0
   -1.8491    1.0661    0.0293 C   0  0  0  0  0  0  0  0  0  0  0  0
   -2.6443    1.4404    1.1311 C   0  0  0  0  0  0  0  0  0  0  0  0
   -2.1774    1.8962    2.0167 H   0  0  0  0  0  0  0  0  0  0  0  0
   -4.0246    1.2047    1.0944 C   0  0  0  0  0  0  0  0  0  0  0  0
   -4.6866    1.4683    1.9305 H   0  0  0  0  0  0  0  0  0  0  0  0
   -4.5757    0.6142   -0.0479 C   0  0  0  0  0  0  0  0  0  0  0  0
   -3.7975    0.2520   -1.1560 C   0  0  0  0  0  0  0  0  0  0  0  0
   -4.2917   -0.1955   -2.0292 H   0  0  0  0  0  0  0  0  0  0  0  0
   -2.4173    0.4674   -1.1140 C   0  0  0  0  0  0  0  0  0  0  0  0
   -1.7599    0.2003   -1.9557 H   0  0  0  0  0  0  0  0  0  0  0  0
   -6.0455    0.3578   -0.0846 N   0  0  0  0  0  0  0  0  0  0  0  0
   -6.6939    0.7024    0.8993 O   0  0  0  0  0  0  0  0  0  0  0  0
   -6.4893   -0.1810   -1.0941 O   0  0  0  0  0  0  0  0  0  0  0  0
  1  2  1  0  0  0  0
  2 11  2  0  0  0  0
  3  2  1  0  0  0  0
  3  4  1  0  0  0  0
  5  3  2  0  0  0  0
  6  5  1  0  0  0  0
  7  9  2  0  0  0  0
  7  5  1  0  0  0  0
  8  7  1  0  0  0  0
  9  1  1  0  0  0  0
 10  9  1  0  0  0  0
 11 12  1  0  0  0  0
 13 11  1  0  0  0  0
 14 13  1  0  0  0  0
 14 15  1  0  0  0  0
 15 16  1  0  0  0  0
 17 15  2  0  0  0  0
 17 18  1  0  0  0  0
 19 17  1  0  0  0  0
 20 22  1  0  0  0  0
 20 19  2  0  0  0  0
 21 20  1  0  0  0  0
 22 14  2  0  0  0  0
 23 22  1  0  0  0  0
 24 19  1  0  0  0  0
 24 25  2  0  0  0  0
 26 24  2  0  0  0  0
M  END
