1,18
 OpenBabel05122313053D

 46 48  0  0  0  0  0  0  0  0999 V2000
   -1.3563   -1.1073   -0.6866 N   0  0  0  0  0  2  0  0  0  0  0  0
   -1.5138   -2.2967   -1.3053 C   0  0  0  0  0  0  0  0  0  0  0  0
   -2.5510   -2.5199   -1.6087 H   0  0  0  0  0  0  0  0  0  0  0  0
   -0.4407   -3.1731   -1.4727 C   0  0  0  0  0  0  0  0  0  0  0  0
   -0.5991   -4.1306   -1.9887 H   0  0  0  0  0  0  0  0  0  0  0  0
    0.7902   -2.8495   -0.8960 C   0  0  0  0  0  0  0  0  0  0  0  0
    1.6187   -3.5707   -0.8808 H   0  0  0  0  0  0  0  0  0  0  0  0
    0.9713   -1.6064   -0.2587 C   0  0  0  0  0  0  0  0  0  0  0  0
   -0.1100   -0.6897   -0.2627 C   0  0  0  0  0  0  0  0  0  0  0  0
   -0.1101    0.6897    0.2631 C   0  0  0  0  0  0  0  0  0  0  0  0
    0.9712    1.6065    0.2594 C   0  0  0  0  0  0  0  0  0  0  0  0
    0.7899    2.8496    0.8967 C   0  0  0  0  0  0  0  0  0  0  0  0
    1.6182    3.5708    0.8817 H   0  0  0  0  0  0  0  0  0  0  0  0
   -0.4412    3.1731    1.4732 C   0  0  0  0  0  0  0  0  0  0  0  0
   -0.5998    4.1306    1.9891 H   0  0  0  0  0  0  0  0  0  0  0  0
   -1.5143    2.2966    1.3055 C   0  0  0  0  0  0  0  0  0  0  0  0
   -2.5516    2.5198    1.6086 H   0  0  0  0  0  0  0  0  0  0  0  0
   -1.3566    1.1072    0.6868 N   0  0  0  0  0  2  0  0  0  0  0  0
    2.2515   -1.4007    0.5202 C   0  0  0  0  0  0  0  0  0  0  0  0
    2.0943   -0.6437    1.3244 H   0  0  0  0  0  0  0  0  0  0  0  0
    3.0684   -1.0117   -0.1258 H   0  0  0  0  0  0  0  0  0  0  0  0
    2.6238   -2.6503    1.0823 O   0  0  0  0  0  0  0  0  0  0  0  0
    3.7024   -2.5944    1.9965 C   0  0  0  0  0  0  0  0  0  0  0  0
    3.5299   -1.8063    2.7700 H   0  0  0  0  0  0  0  0  0  0  0  0
    3.7133   -3.5783    2.5083 H   0  0  0  0  0  0  0  0  0  0  0  0
    5.0656   -2.3631    1.3591 C   0  0  0  0  0  0  0  0  0  0  0  0
    5.1652   -3.0264    0.4642 H   0  0  0  0  0  0  0  0  0  0  0  0
    5.8685   -2.6608    2.0809 H   0  0  0  0  0  0  0  0  0  0  0  0
    5.1976   -1.0022    0.9955 O   0  0  0  0  0  0  0  0  0  0  0  0
    6.3231   -0.7334    0.1874 C   0  0  0  0  0  0  0  0  0  0  0  0
    7.2749   -0.9707    0.7250 H   0  0  0  0  0  0  0  0  0  0  0  0
    6.3012   -1.3557   -0.7412 H   0  0  0  0  0  0  0  0  0  0  0  0
    6.3231    0.7333   -0.1885 C   0  0  0  0  0  0  0  0  0  0  0  0
    7.2747    0.9705   -0.7267 H   0  0  0  0  0  0  0  0  0  0  0  0
    6.3017    1.3557    0.7401 H   0  0  0  0  0  0  0  0  0  0  0  0
    5.1972    1.0023   -0.9961 O   0  0  0  0  0  0  0  0  0  0  0  0
    5.0652    2.3633   -1.3595 C   0  0  0  0  0  0  0  0  0  0  0  0
    5.1654    3.0265   -0.4647 H   0  0  0  0  0  0  0  0  0  0  0  0
    5.8678    2.6609   -2.0818 H   0  0  0  0  0  0  0  0  0  0  0  0
    3.7017    2.5947   -1.9963 C   0  0  0  0  0  0  0  0  0  0  0  0
    3.5287    1.8067   -2.7697 H   0  0  0  0  0  0  0  0  0  0  0  0
    3.7124    3.5786   -2.5080 H   0  0  0  0  0  0  0  0  0  0  0  0
    2.6236    2.6506   -1.0815 O   0  0  0  0  0  0  0  0  0  0  0  0
    2.2515    1.4010   -0.5193 C   0  0  0  0  0  0  0  0  0  0  0  0
    2.0945    0.6439   -1.3234 H   0  0  0  0  0  0  0  0  0  0  0  0
    3.0684    1.0122    0.1268 H   0  0  0  0  0  0  0  0  0  0  0  0
  1  9  1  0  0  0  0
  2  1  1  0  0  0  0
  3  2  1  0  0  0  0
  4  2  2  0  0  0  0
  4  6  1  0  0  0  0
  5  4  1  0  0  0  0
  6  7  1  0  0  0  0
  6  8  2  0  0  0  0
  8 19  1  0  0  0  0
  9  8  1  0  0  0  0
  9 10  2  0  0  0  0
 10 18  1  0  0  0  0
 11 10  1  0  0  0  0
 11 12  2  0  0  0  0
 12 14  1  0  0  0  0
 13 12  1  0  0  0  0
 14 15  1  0  0  0  0
 16 14  2  0  0  0  0
 16 17  1  0  0  0  0
 18 16  1  0  0  0  0
 19 22  1  0  0  0  0
 19 20  1  0  0  0  0
 21 19  1  0  0  0  0
 22 23  1  0  0  0  0
 23 25  1  0  0  0  0
 23 24  1  0  0  0  0
 26 23  1  0  0  0  0
 26 28  1  0  0  0  0
 27 26  1  0  0  0  0
 29 26  1  0  0  0  0
 30 31  1  0  0  0  0
 30 29  1  0  0  0  0
 32 30  1  0  0  0  0
 33 30  1  0  0  0  0
 33 35  1  0  0  0  0
 34 33  1  0  0  0  0
 36 33  1  0  0  0  0
 37 36  1  0  0  0  0
 37 38  1  0  0  0  0
 39 37  1  0  0  0  0
 40 37  1  0  0  0  0
 40 43  1  0  0  0  0
 41 40  1  0  0  0  0
 42 40  1  0  0  0  0
 43 44  1  0  0  0  0
 44 46  1  0  0  0  0
 44 11  1  0  0  0  0
 45 44  1  0  0  0  0
M  END
