1,2
 OpenBabel05122313053D

 34 36  0  0  0  0  0  0  0  0999 V2000
   -1.9397    1.3975   -0.0040 N   0  0  0  0  0  2  0  0  0  0  0  0
    0.3204    0.1022   -0.0163 N   0  0  0  0  0  2  0  0  0  0  0  0
    1.5763   -0.3938   -0.0557 N   0  0  0  0  0  0  0  0  0  0  0  0
   -3.1651    1.9735    0.0160 C   0  0  0  0  0  0  0  0  0  0  0  0
   -4.0048    1.2582    0.0121 H   0  0  0  0  0  0  0  0  0  0  0  0
   -3.3275    3.3604    0.0351 C   0  0  0  0  0  0  0  0  0  0  0  0
   -4.3437    3.7786    0.0516 H   0  0  0  0  0  0  0  0  0  0  0  0
   -2.1938    4.1903    0.0322 C   0  0  0  0  0  0  0  0  0  0  0  0
   -2.2962    5.2852    0.0462 H   0  0  0  0  0  0  0  0  0  0  0  0
   -0.9277    3.5980    0.0111 C   0  0  0  0  0  0  0  0  0  0  0  0
   -0.0119    4.2052    0.0083 H   0  0  0  0  0  0  0  0  0  0  0  0
   -0.8221    2.1973   -0.0058 C   0  0  0  0  0  0  0  0  0  0  0  0
    0.4253    1.4616   -0.0191 C   0  0  0  0  0  0  0  0  0  0  0  0
    1.7853    1.8341   -0.0515 C   0  0  0  0  0  0  0  0  0  0  0  0
    2.2113    2.8403   -0.0982 H   0  0  0  0  0  0  0  0  0  0  0  0
    2.5001    0.6334   -0.0772 C   0  0  0  0  0  0  0  0  0  0  0  0
    3.9582    0.4312   -0.1330 C   0  0  0  0  0  0  0  0  0  0  0  0
    4.5557   -0.3868   -1.1194 C   0  0  0  0  0  0  0  0  0  0  0  0
    3.9237   -0.8860   -1.8693 H   0  0  0  0  0  0  0  0  0  0  0  0
    5.9482   -0.5354   -1.1681 C   0  0  0  0  0  0  0  0  0  0  0  0
    6.4004   -1.1723   -1.9431 H   0  0  0  0  0  0  0  0  0  0  0  0
    6.7642    0.1365   -0.2436 C   0  0  0  0  0  0  0  0  0  0  0  0
    7.8574    0.0183   -0.2848 H   0  0  0  0  0  0  0  0  0  0  0  0
    6.1810    0.9633    0.7295 C   0  0  0  0  0  0  0  0  0  0  0  0
    6.8152    1.4932    1.4560 H   0  0  0  0  0  0  0  0  0  0  0  0
    4.7882    1.1096    0.7867 C   0  0  0  0  0  0  0  0  0  0  0  0
    4.3271    1.7430    1.5595 H   0  0  0  0  0  0  0  0  0  0  0  0
    1.8446   -1.8112    0.2040 C   0  0  0  0  0  0  0  0  0  0  0  0
    2.8662   -2.0082   -0.1662 H   0  0  0  0  0  0  0  0  0  0  0  0
    1.1131   -2.3989   -0.3868 H   0  0  0  0  0  0  0  0  0  0  0  0
    1.7115   -2.1554    1.6844 C   0  0  0  0  0  0  0  0  0  0  0  0
    1.9479   -3.2275    1.8296 H   0  0  0  0  0  0  0  0  0  0  0  0
    0.6701   -1.9975    2.0251 H   0  0  0  0  0  0  0  0  0  0  0  0
    2.4059   -1.5548    2.3062 H   0  0  0  0  0  0  0  0  0  0  0  0
  1  4  1  0  0  0  0
  3  2  1  0  0  0  0
  3 28  1  0  0  0  0
  4  6  2  0  0  0  0
  5  4  1  0  0  0  0
  6  7  1  0  0  0  0
  8  6  1  0  0  0  0
  8  9  1  0  0  0  0
 10  8  2  0  0  0  0
 11 10  1  0  0  0  0
 12  1  1  0  0  0  0
 12 10  1  0  0  0  0
 13  2  1  0  0  0  0
 13 12  2  0  0  0  0
 14 13  1  0  0  0  0
 15 14  1  0  0  0  0
 16  3  1  0  0  0  0
 16 14  2  0  0  0  0
 17 16  1  0  0  0  0
 17 26  1  0  0  0  0
 18 17  2  0  0  0  0
 19 18  1  0  0  0  0
 20 18  1  0  0  0  0
 20 22  2  0  0  0  0
 21 20  1  0  0  0  0
 22 24  1  0  0  0  0
 23 22  1  0  0  0  0
 24 26  2  0  0  0  0
 24 25  1  0  0  0  0
 26 27  1  0  0  0  0
 28 31  1  0  0  0  0
 29 28  1  0  0  0  0
 30 28  1  0  0  0  0
 31 32  1  0  0  0  0
 31 33  1  0  0  0  0
 31 34  1  0  0  0  0
M  END
