1,2
 OpenBabel05122313053D

 52 54  0  0  0  0  0  0  0  0999 V2000
    3.6114    0.0454   -0.4071 N   0  0  0  0  0  2  0  0  0  0  0  0
    1.1127    0.5907    0.2066 N   0  0  0  0  0  2  0  0  0  0  0  0
   -0.1176    1.0686    0.4737 N   0  0  0  0  0  0  0  0  0  0  0  0
    4.8715   -0.3360   -0.7012 C   0  0  0  0  0  0  0  0  0  0  0  0
    5.8080    0.5570   -1.2323 C   0  0  0  0  0  0  0  0  0  0  0  0
    5.4301    1.8887   -1.4657 C   0  0  0  0  0  0  0  0  0  0  0  0
    4.1237    2.2839   -1.1604 C   0  0  0  0  0  0  0  0  0  0  0  0
    3.2269    1.3398   -0.6305 C   0  0  0  0  0  0  0  0  0  0  0  0
    1.8455    1.6254   -0.2845 C   0  0  0  0  0  0  0  0  0  0  0  0
    1.0509    2.7905   -0.3385 C   0  0  0  0  0  0  0  0  0  0  0  0
   -0.2016    2.4079    0.1536 C   0  0  0  0  0  0  0  0  0  0  0  0
   -1.4157    3.2236    0.3310 C   0  0  0  0  0  0  0  0  0  0  0  0
   -1.8911    4.0035   -0.7462 C   0  0  0  0  0  0  0  0  0  0  0  0
   -3.0258    4.8117   -0.5919 C   0  0  0  0  0  0  0  0  0  0  0  0
   -3.7022    4.8507    0.6375 C   0  0  0  0  0  0  0  0  0  0  0  0
   -3.2320    4.0858    1.7172 C   0  0  0  0  0  0  0  0  0  0  0  0
   -2.0942    3.2814    1.5697 C   0  0  0  0  0  0  0  0  0  0  0  0
   -1.2197    0.1580    0.7825 C   0  0  0  0  0  0  0  0  0  0  0  0
   -1.7102   -0.5881   -0.4600 C   0  0  0  0  0  0  0  0  0  0  0  0
   -2.8090   -1.5925   -0.1118 C   0  0  0  0  0  0  0  0  0  0  0  0
   -3.3209   -2.3623   -1.3323 C   0  0  0  0  0  0  0  0  0  0  0  0
   -4.3683   -3.4386   -1.0098 C   0  0  0  0  0  0  0  0  0  0  0  0
   -5.6511   -2.9378   -0.3289 C   0  0  0  0  0  0  0  0  0  0  0  0
   -6.4371   -1.8914   -1.1262 C   0  0  0  0  0  0  0  0  0  0  0  0
   -6.6462   -2.2907   -2.1442 H   0  0  0  0  0  0  0  0  0  0  0  0
   -5.8060   -0.9893   -1.2845 H   0  0  0  0  0  0  0  0  0  0  0  0
   -7.7471   -1.4789   -0.4534 C   0  0  0  0  0  0  0  0  0  0  0  0
   -8.2963   -0.7201   -1.0469 H   0  0  0  0  0  0  0  0  0  0  0  0
   -7.5635   -1.0472    0.5530 H   0  0  0  0  0  0  0  0  0  0  0  0
   -8.4222   -2.3497   -0.3168 H   0  0  0  0  0  0  0  0  0  0  0  0
    5.0886   -1.3967   -0.4849 H   0  0  0  0  0  0  0  0  0  0  0  0
    6.8231    0.2008   -1.4571 H   0  0  0  0  0  0  0  0  0  0  0  0
    6.1463    2.6127   -1.8813 H   0  0  0  0  0  0  0  0  0  0  0  0
    3.7855    3.3160   -1.3271 H   0  0  0  0  0  0  0  0  0  0  0  0
    1.3411    3.7974   -0.6517 H   0  0  0  0  0  0  0  0  0  0  0  0
   -1.3693    3.9566   -1.7139 H   0  0  0  0  0  0  0  0  0  0  0  0
   -3.3891    5.4096   -1.4412 H   0  0  0  0  0  0  0  0  0  0  0  0
   -4.5958    5.4817    0.7565 H   0  0  0  0  0  0  0  0  0  0  0  0
   -3.7492    4.1239    2.6877 H   0  0  0  0  0  0  0  0  0  0  0  0
   -1.7097    2.7113    2.4288 H   0  0  0  0  0  0  0  0  0  0  0  0
   -2.0280    0.7657    1.2277 H   0  0  0  0  0  0  0  0  0  0  0  0
   -0.8430   -0.5711    1.5286 H   0  0  0  0  0  0  0  0  0  0  0  0
   -2.0731    0.1440   -1.2154 H   0  0  0  0  0  0  0  0  0  0  0  0
   -0.8480   -1.1299   -0.9021 H   0  0  0  0  0  0  0  0  0  0  0  0
   -2.4011   -2.3104    0.6330 H   0  0  0  0  0  0  0  0  0  0  0  0
   -3.6516   -1.0625    0.3863 H   0  0  0  0  0  0  0  0  0  0  0  0
   -2.4557   -2.8477   -1.8336 H   0  0  0  0  0  0  0  0  0  0  0  0
   -3.7313   -1.6429   -2.0761 H   0  0  0  0  0  0  0  0  0  0  0  0
   -4.6424   -3.9602   -1.9533 H   0  0  0  0  0  0  0  0  0  0  0  0
   -3.8986   -4.2110   -0.3623 H   0  0  0  0  0  0  0  0  0  0  0  0
   -5.4104   -2.5234    0.6759 H   0  0  0  0  0  0  0  0  0  0  0  0
   -6.3123   -3.8108   -0.1325 H   0  0  0  0  0  0  0  0  0  0  0  0
  2  3  1  0  0  0  0
  3 18  1  0  0  0  0
  4 31  1  0  0  0  0
  4  1  1  0  0  0  0
  5  4  2  0  0  0  0
  6  5  1  0  0  0  0
  6  7  2  0  0  0  0
  7  8  1  0  0  0  0
  8  1  1  0  0  0  0
  8  9  2  0  0  0  0
  9  2  1  0  0  0  0
 10  9  1  0  0  0  0
 10 11  2  0  0  0  0
 11 12  1  0  0  0  0
 11  3  1  0  0  0  0
 12 17  1  0  0  0  0
 13 14  1  0  0  0  0
 13 12  2  0  0  0  0
 14 15  2  0  0  0  0
 15 38  1  0  0  0  0
 15 16  1  0  0  0  0
 16 39  1  0  0  0  0
 17 16  2  0  0  0  0
 17 40  1  0  0  0  0
 18 41  1  0  0  0  0
 18 42  1  0  0  0  0
 19 20  1  0  0  0  0
 19 18  1  0  0  0  0
 20 46  1  0  0  0  0
 20 45  1  0  0  0  0
 21 22  1  0  0  0  0
 21 20  1  0  0  0  0
 22 50  1  0  0  0  0
 22 23  1  0  0  0  0
 23 52  1  0  0  0  0
 23 51  1  0  0  0  0
 24 27  1  0  0  0  0
 24 23  1  0  0  0  0
 25 24  1  0  0  0  0
 26 24  1  0  0  0  0
 27 30  1  0  0  0  0
 27 29  1  0  0  0  0
 28 27  1  0  0  0  0
 32  5  1  0  0  0  0
 33  6  1  0  0  0  0
 34  7  1  0  0  0  0
 35 10  1  0  0  0  0
 36 13  1  0  0  0  0
 37 14  1  0  0  0  0
 43 19  1  0  0  0  0
 44 19  1  0  0  0  0
 47 21  1  0  0  0  0
 48 21  1  0  0  0  0
 49 22  1  0  0  0  0
M  END
