4,20
 OpenBabel05122313053D

 39 41  0  0  1  0  0  0  0  0999 V2000
   -1.5064   -2.2884   -0.7105 C   0  0  0  0  0  0  0  0  0  0  0  0
   -2.5666   -2.1890   -0.4496 H   0  0  0  0  0  0  0  0  0  0  0  0
   -0.6199   -1.2032   -0.5229 C   0  0  2  0  0  3  0  0  0  0  0  0
    0.6949   -1.3350   -0.8377 N   0  0  0  0  0  2  0  0  0  0  0  0
    1.1295   -2.4534   -1.4726 C   0  0  0  0  0  0  0  0  0  0  0  0
    2.1866   -2.4321   -1.7743 H   0  0  0  0  0  0  0  0  0  0  0  0
    0.2995   -3.5465   -1.7124 C   0  0  0  0  0  0  0  0  0  0  0  0
    0.7002   -4.4376   -2.2141 H   0  0  0  0  0  0  0  0  0  0  0  0
   -1.0369   -3.4690   -1.2912 C   0  0  0  0  0  0  0  0  0  0  0  0
   -1.7266   -4.3121   -1.4432 H   0  0  0  0  0  0  0  0  0  0  0  0
   -0.5976    1.2637   -0.4469 C   0  0  1  0  0  3  0  0  0  0  0  0
   -1.4631    2.3758   -0.5631 C   0  0  0  0  0  0  0  0  0  0  0  0
   -2.5246    2.2801   -0.3060 H   0  0  0  0  0  0  0  0  0  0  0  0
   -0.9723    3.5807   -1.0723 C   0  0  0  0  0  0  0  0  0  0  0  0
   -1.6457    4.4450   -1.1689 H   0  0  0  0  0  0  0  0  0  0  0  0
    0.3634    3.6575   -1.4950 C   0  0  0  0  0  0  0  0  0  0  0  0
    0.7798    4.5698   -1.9428 H   0  0  0  0  0  0  0  0  0  0  0  0
    1.1724    2.5360   -1.3264 C   0  0  0  0  0  0  0  0  0  0  0  0
    2.2267    2.5112   -1.6368 H   0  0  0  0  0  0  0  0  0  0  0  0
    0.7190    1.3901   -0.7577 N   0  0  0  0  0  2  0  0  0  0  0  0
   -3.6339    0.0312    0.0296 C   0  0  0  0  0  0  0  0  0  0  0  0
   -4.8231   -0.0243    0.7736 C   0  0  0  0  0  0  0  0  0  0  0  0
   -4.8207   -0.0973    1.8733 H   0  0  0  0  0  0  0  0  0  0  0  0
   -6.0785   -0.0048    0.1428 C   0  0  0  0  0  0  0  0  0  0  0  0
   -6.1393    0.0490   -1.2639 C   0  0  0  0  0  0  0  0  0  0  0  0
   -7.1058    0.0215   -1.7893 H   0  0  0  0  0  0  0  0  0  0  0  0
   -4.9574    0.0997   -2.0163 C   0  0  0  0  0  0  0  0  0  0  0  0
   -5.0061    0.1341   -3.1147 H   0  0  0  0  0  0  0  0  0  0  0  0
   -3.7086    0.0956   -1.3756 C   0  0  0  0  0  0  0  0  0  0  0  0
   -2.7889    0.1327   -1.9791 H   0  0  0  0  0  0  0  0  0  0  0  0
   -1.0757    0.0197    0.0076 N   0  0  0  0  0  0  0  0  0  0  0  0
   -2.3157    0.0068    0.7920 C   0  0  0  0  0  0  0  0  0  0  0  0
   -2.2692    0.8711    1.4863 H   0  0  0  0  0  0  0  0  0  0  0  0
   -2.2822   -0.8943    1.4388 H   0  0  0  0  0  0  0  0  0  0  0  0
   -7.2822   -0.0915    1.0607 C   0  0  0  0  0  0  0  0  0  0  0  0
   -7.1486   -0.4029    2.2427 O   0  0  0  0  0  0  0  0  0  0  0  0
   -8.4967    0.1815    0.4976 N   0  0  0  0  0  0  0  0  0  0  0  0
   -9.3114    0.1671    1.1126 H   0  0  0  0  0  0  0  0  0  0  0  0
   -8.5962    0.6048   -0.4228 H   0  0  0  0  0  0  0  0  0  0  0  0
  1  3  1  0  0  0  0
  1  2  1  0  0  0  0
  3 31  1  1  0  0  0
  4  3  1  0  0  0  0
  5  4  1  0  0  0  0
  6  5  1  0  0  0  0
  7  5  2  0  0  0  0
  7  9  1  0  0  0  0
  8  7  1  0  0  0  0
  9  1  2  0  0  0  0
 10  9  1  0  0  0  0
 11 31  1  1  0  0  0
 12 11  1  0  0  0  0
 12 13  1  0  0  0  0
 14 12  2  0  0  0  0
 15 14  1  0  0  0  0
 16 18  2  0  0  0  0
 16 14  1  0  0  0  0
 17 16  1  0  0  0  0
 18 20  1  0  0  0  0
 19 18  1  0  0  0  0
 20 11  1  0  0  0  0
 21 22  1  0  0  0  0
 21 32  1  0  0  0  0
 22 23  1  0  0  0  0
 24 22  2  0  0  0  0
 24 35  1  0  0  0  0
 25 24  1  0  0  0  0
 26 25  1  0  0  0  0
 27 29  1  0  0  0  0
 27 25  2  0  0  0  0
 28 27  1  0  0  0  0
 29 21  2  0  0  0  0
 30 29  1  0  0  0  0
 31 32  1  0  0  0  0
 32 34  1  0  0  0  0
 32 33  1  0  0  0  0
 35 36  2  0  0  0  0
 37 35  1  0  0  0  0
 37 38  1  0  0  0  0
 39 37  1  0  0  0  0
M  END
