4,7
 OpenBabel05122313053D

 29 30  0  0  0  0  0  0  0  0999 V2000
   -4.0076    2.2566   -0.4036 C   0  0  0  0  0  0  0  0  0  0  0  0
   -2.6134    2.2059   -0.5365 C   0  0  0  0  0  0  0  0  0  0  0  0
   -1.8883    1.1402    0.0230 C   0  0  0  0  0  0  0  0  0  0  0  0
   -0.4988    0.9955   -0.1491 N   0  0  0  0  0  2  0  0  0  0  0  0
    0.3262    1.9939    0.1230 C   0  0  0  0  0  0  0  0  0  0  0  0
    1.6954    1.6276   -0.0327 C   0  0  0  0  0  0  0  0  0  0  0  0
    1.9281    0.3336   -0.3662 N   0  0  0  0  0  2  0  0  0  0  0  0
    3.2825    0.1584   -0.4230 C   0  0  0  0  0  0  0  0  0  0  0  0
    3.8908    1.3673   -0.1119 C   0  0  0  0  0  0  0  0  0  0  0  0
    2.8847    2.2852    0.1384 N   0  0  0  0  0  0  0  0  0  0  0  0
    3.0450    3.6879    0.4767 C   0  0  0  0  0  0  0  0  0  0  0  0
   -4.6758    1.2301    0.2831 C   0  0  0  0  0  0  0  0  0  0  0  0
   -3.9643    0.1651    0.8560 C   0  0  0  0  0  0  0  0  0  0  0  0
   -2.5626    0.1213    0.7541 C   0  0  0  0  0  0  0  0  0  0  0  0
   -1.7669   -0.7910    1.3553 O   0  0  0  0  0  0  0  0  0  0  0  0
   -2.2939   -2.0842    1.6290 C   0  0  0  0  0  0  0  0  0  0  0  0
    4.1115    3.8901    0.6807 H   0  0  0  0  0  0  0  0  0  0  0  0
    2.4614    3.9356    1.3853 H   0  0  0  0  0  0  0  0  0  0  0  0
    2.7111    4.3397   -0.3561 H   0  0  0  0  0  0  0  0  0  0  0  0
    4.9475    1.6403   -0.0302 H   0  0  0  0  0  0  0  0  0  0  0  0
    3.7178   -0.8148   -0.6672 H   0  0  0  0  0  0  0  0  0  0  0  0
   -0.0287    2.9653    0.5035 H   0  0  0  0  0  0  0  0  0  0  0  0
   -2.0755    2.9610   -1.1292 H   0  0  0  0  0  0  0  0  0  0  0  0
   -4.5736    3.0805   -0.8617 H   0  0  0  0  0  0  0  0  0  0  0  0
   -5.7723    1.2529    0.3726 H   0  0  0  0  0  0  0  0  0  0  0  0
   -4.5004   -0.6296    1.3918 H   0  0  0  0  0  0  0  0  0  0  0  0
   -1.4382   -2.6897    1.9794 H   0  0  0  0  0  0  0  0  0  0  0  0
   -3.0710   -2.0553    2.4235 H   0  0  0  0  0  0  0  0  0  0  0  0
   -2.6979   -2.5308    0.6962 H   0  0  0  0  0  0  0  0  0  0  0  0
  1 12  1  0  0  0  0
  2  1  2  0  0  0  0
  2  3  1  0  0  0  0
  3 14  2  0  0  0  0
  4  3  1  0  0  0  0
  4  5  1  0  0  0  0
  5 22  1  0  0  0  0
  6  5  2  0  0  0  0
  6 10  1  0  0  0  0
  7  6  1  0  0  0  0
  8  7  1  0  0  0  0
  8  9  2  0  0  0  0
  9 20  1  0  0  0  0
  9 10  1  0  0  0  0
 10 11  1  0  0  0  0
 11 17  1  0  0  0  0
 11 18  1  0  0  0  0
 12 25  1  0  0  0  0
 12 13  2  0  0  0  0
 13 26  1  0  0  0  0
 14 13  1  0  0  0  0
 14 15  1  0  0  0  0
 15 16  1  0  0  0  0
 16 27  1  0  0  0  0
 16 28  1  0  0  0  0
 19 11  1  0  0  0  0
 21  8  1  0  0  0  0
 23  2  1  0  0  0  0
 24  1  1  0  0  0  0
 29 16  1  0  0  0  0
M  END
