1,2
 OpenBabel05122313053D

 74 75  0  0  1  0  0  0  0  0999 V2000
    1.4758   -0.3070    0.5848 N   0  0  0  0  0  2  0  0  0  0  0  0
   -1.4539   -0.3428    0.5897 N   0  0  0  0  0  2  0  0  0  0  0  0
   -1.2800   -0.9128    1.7532 C   0  0  1  0  0  3  0  0  0  0  0  0
   -3.7455   -0.8785   -0.1479 C   0  0  0  0  0  0  0  0  0  0  0  0
   -3.4110   -2.3583   -0.3148 C   0  0  0  0  0  0  0  0  0  0  0  0
   -1.7828    3.4744   -0.4462 C   0  0  0  0  0  0  0  0  0  0  0  0
   -3.0933    1.4692    0.3291 C   0  0  0  0  0  0  0  0  0  0  0  0
   -5.0383   -0.4195   -0.4571 C   0  0  0  0  0  0  0  0  0  0  0  0
    2.7997    0.1486    0.2467 C   0  0  0  0  0  0  0  0  0  0  0  0
    3.4796   -2.7276   -1.6580 C   0  0  0  0  0  0  0  0  0  0  0  0
    5.3801    1.0363   -0.3338 C   0  0  0  0  0  0  0  0  0  0  0  0
    2.4184   -0.9243    2.7814 C   0  0  0  0  0  0  0  0  0  0  0  0
    0.0443   -2.6060    2.9336 C   0  0  0  0  0  3  0  0  0  0  0  0
    0.0265   -1.4990    2.1409 C   0  0  0  0  0  0  0  0  0  0  0  0
   -4.4054    1.8692    0.0205 C   0  0  0  0  0  0  0  0  0  0  0  0
    1.9312    2.5440    0.4605 C   0  0  0  0  0  0  0  0  0  0  0  0
    4.3642    1.9627   -0.0664 C   0  0  0  0  0  0  0  0  0  0  0  0
    1.6960    2.7784    1.9633 C   0  0  0  0  0  0  0  0  0  0  0  0
    1.3143   -0.8719    1.7532 C   0  0  0  0  0  0  0  0  0  0  0  0
    3.5088   -2.3047   -0.1767 C   0  0  0  0  0  0  0  0  0  0  0  0
   -2.7883    0.0896    0.2541 C   0  0  0  0  0  0  0  0  0  0  0  0
   -5.3738    0.9366   -0.3678 C   0  0  0  0  0  0  0  0  0  0  0  0
   -2.3899   -1.0097    2.7713 C   0  0  0  0  0  0  0  0  0  0  0  0
    3.8002   -0.8112   -0.0580 C   0  0  0  0  0  0  0  0  0  0  0  0
    3.0519    1.5443    0.2113 C   0  0  0  0  0  0  0  0  0  0  0  0
   -2.4210    3.2388    2.0132 C   0  0  0  0  0  0  0  0  0  0  0  0
    5.0910   -0.3320   -0.3466 C   0  0  0  0  0  0  0  0  0  0  0  0
   -2.0454    2.5033    0.7164 C   0  0  0  0  0  0  0  0  0  0  0  0
    2.1319    3.8679   -0.2840 C   0  0  0  0  0  0  0  0  0  0  0  0
    4.5001   -3.1680    0.6221 C   0  0  0  0  0  0  0  0  0  0  0  0
   -3.4074   -2.7582   -1.8021 C   0  0  0  0  0  0  0  0  0  0  0  0
   -4.3593   -3.2639    0.4910 C   0  0  0  0  0  0  0  0  0  0  0  0
   -4.4022   -2.9859    1.5642 H   0  0  0  0  0  0  0  0  0  0  0  0
   -4.0361   -4.3226    0.4227 H   0  0  0  0  0  0  0  0  0  0  0  0
   -5.3961   -3.2128    0.0996 H   0  0  0  0  0  0  0  0  0  0  0  0
   -6.3937    1.2692   -0.6127 H   0  0  0  0  0  0  0  0  0  0  0  0
   -2.9195   -1.9818    2.6875 H   0  0  0  0  0  0  0  0  0  0  0  0
    0.9876   -3.0759    3.2449 H   0  0  0  0  0  0  0  0  0  0  0  0
   -1.0971    1.9608    0.9067 H   0  0  0  0  0  0  0  0  0  0  0  0
    3.1575   -0.1225    2.6045 H   0  0  0  0  0  0  0  0  0  0  0  0
    4.5917    3.0375   -0.0919 H   0  0  0  0  0  0  0  0  0  0  0  0
   -5.7977   -1.1453   -0.7856 H   0  0  0  0  0  0  0  0  0  0  0  0
    1.2284    4.5012   -0.1824 H   0  0  0  0  0  0  0  0  0  0  0  0
   -2.3810   -2.5237    0.0620 H   0  0  0  0  0  0  0  0  0  0  0  0
    2.3048    3.6905   -1.3636 H   0  0  0  0  0  0  0  0  0  0  0  0
    1.0095    2.0776    0.0427 H   0  0  0  0  0  0  0  0  0  0  0  0
    5.8841   -1.0519   -0.5991 H   0  0  0  0  0  0  0  0  0  0  0  0
   -1.9844   -0.9333    3.7972 H   0  0  0  0  0  0  0  0  0  0  0  0
   -0.8834   -3.1051    3.2462 H   0  0  0  0  0  0  0  0  0  0  0  0
   -4.6677    2.9367    0.0775 H   0  0  0  0  0  0  0  0  0  0  0  0
    2.0008   -0.8386    3.8020 H   0  0  0  0  0  0  0  0  0  0  0  0
    2.5996    3.2086    2.4435 H   0  0  0  0  0  0  0  0  0  0  0  0
   -3.1453   -0.2215    2.6017 H   0  0  0  0  0  0  0  0  0  0  0  0
   -1.4673    2.9188   -1.3514 H   0  0  0  0  0  0  0  0  0  0  0  0
    2.4937   -2.4946    0.2273 H   0  0  0  0  0  0  0  0  0  0  0  0
    4.5668   -2.8626    1.6867 H   0  0  0  0  0  0  0  0  0  0  0  0
   -4.4191   -2.6436   -2.2439 H   0  0  0  0  0  0  0  0  0  0  0  0
   -2.6927    4.0569   -0.6989 H   0  0  0  0  0  0  0  0  0  0  0  0
    3.1974   -3.7967   -1.7509 H   0  0  0  0  0  0  0  0  0  0  0  0
   -3.3580    3.8212    1.8941 H   0  0  0  0  0  0  0  0  0  0  0  0
    2.9847    4.4528    0.1189 H   0  0  0  0  0  0  0  0  0  0  0  0
    2.9710   -1.8851    2.7222 H   0  0  0  0  0  0  0  0  0  0  0  0
   -2.5720    2.5319    2.8549 H   0  0  0  0  0  0  0  0  0  0  0  0
    0.8561    3.4855    2.1229 H   0  0  0  0  0  0  0  0  0  0  0  0
   -0.9867    4.1981   -0.1770 H   0  0  0  0  0  0  0  0  0  0  0  0
    1.4458    1.8398    2.4970 H   0  0  0  0  0  0  0  0  0  0  0  0
   -1.6219    3.9514    2.3046 H   0  0  0  0  0  0  0  0  0  0  0  0
   -2.7082   -2.1187   -2.3745 H   0  0  0  0  0  0  0  0  0  0  0  0
    5.5240   -3.1066    0.1998 H   0  0  0  0  0  0  0  0  0  0  0  0
    6.3995    1.3864   -0.5557 H   0  0  0  0  0  0  0  0  0  0  0  0
    4.1985   -4.2346    0.5883 H   0  0  0  0  0  0  0  0  0  0  0  0
    2.7570   -2.1093   -2.2251 H   0  0  0  0  0  0  0  0  0  0  0  0
   -3.1060   -3.8199   -1.9160 H   0  0  0  0  0  0  0  0  0  0  0  0
    4.4793   -2.5972   -2.1222 H   0  0  0  0  0  0  0  0  0  0  0  0
  1 19  1  0  0  0  0
  3  2  1  1  0  0  0
  3 14  1  0  0  0  0
  3 23  1  0  0  0  0
  4 21  1  0  0  0  0
  5  4  1  0  0  0  0
  5 44  1  0  0  0  0
  5 32  1  0  0  0  0
  6 65  1  0  0  0  0
  6 28  1  0  0  0  0
  7 28  1  0  0  0  0
  8 22  1  0  0  0  0
  8  4  2  0  0  0  0
  9  1  1  0  0  0  0
 10 20  1  0  0  0  0
 11 17  1  0  0  0  0
 12 51  1  0  0  0  0
 13 38  1  0  0  0  0
 13 49  1  0  0  0  0
 14 13  1  0  0  0  0
 15 50  1  0  0  0  0
 15  7  1  0  0  0  0
 16 18  1  0  0  0  0
 17 25  2  0  0  0  0
 18 64  1  0  0  0  0
 18 52  1  0  0  0  0
 18 66  1  0  0  0  0
 19 14  2  0  0  0  0
 19 12  1  0  0  0  0
 20 24  1  0  0  0  0
 20 55  1  0  0  0  0
 20 30  1  0  0  0  0
 21  7  2  0  0  0  0
 21  2  1  0  0  0  0
 22 15  2  0  0  0  0
 23 48  1  0  0  0  0
 24  9  2  0  0  0  0
 25  9  1  0  0  0  0
 25 16  1  0  0  0  0
 26 67  1  0  0  0  0
 26 63  1  0  0  0  0
 27 11  2  0  0  0  0
 27 24  1  0  0  0  0
 28 39  1  0  0  0  0
 28 26  1  0  0  0  0
 29 43  1  0  0  0  0
 29 61  1  0  0  0  0
 29 16  1  0  0  0  0
 30 56  1  0  0  0  0
 31  5  1  0  0  0  0
 32 33  1  0  0  0  0
 34 32  1  0  0  0  0
 35 32  1  0  0  0  0
 36 22  1  0  0  0  0
 37 23  1  0  0  0  0
 40 12  1  0  0  0  0
 41 17  1  0  0  0  0
 42  8  1  0  0  0  0
 45 29  1  0  0  0  0
 46 16  1  0  0  0  0
 47 27  1  0  0  0  0
 53 23  1  0  0  0  0
 54  6  1  0  0  0  0
 57 31  1  0  0  0  0
 58  6  1  0  0  0  0
 59 10  1  0  0  0  0
 60 26  1  0  0  0  0
 62 12  1  0  0  0  0
 68 31  1  0  0  0  0
 69 30  1  0  0  0  0
 70 11  1  0  0  0  0
 71 30  1  0  0  0  0
 72 10  1  0  0  0  0
 73 31  1  0  0  0  0
 74 10  1  0  0  0  0
M  END
