1,27
 OpenBabel05122313053D

 52 56  0  0  0  0  0  0  0  0999 V2000
    1.2945    0.5946   -0.3021 N   0  0  0  0  0  2  0  0  0  0  0  0
    6.2855   -1.1608    1.1862 F   0  0  0  0  0  0  0  0  0  0  0  0
    6.5127   -2.3793   -0.6084 F   0  0  0  0  0  0  0  0  0  0  0  0
    4.8858   -2.7859    0.7939 F   0  0  0  0  0  0  0  0  0  0  0  0
    0.7477    1.7592   -0.0598 C   0  0  0  0  0  0  0  0  0  0  0  0
    1.4423    3.0255    0.2330 C   0  0  0  0  0  0  0  0  0  0  0  0
    0.7061    4.2479    0.2056 C   0  0  0  0  0  0  0  0  0  0  0  0
    1.3602    5.4375    0.5927 C   0  0  0  0  0  0  0  0  0  0  0  0
    0.8045    6.3850    0.6002 H   0  0  0  0  0  0  0  0  0  0  0  0
    2.6963    5.4332    1.0046 C   0  0  0  0  0  0  0  0  0  0  0  0
    3.1771    6.3753    1.3074 H   0  0  0  0  0  0  0  0  0  0  0  0
    3.4110    4.2244    1.0564 C   0  0  0  0  0  0  0  0  0  0  0  0
    4.4523    4.2059    1.4094 H   0  0  0  0  0  0  0  0  0  0  0  0
    2.7881    3.0353    0.6743 C   0  0  0  0  0  0  0  0  0  0  0  0
    3.3451    2.0931    0.7440 H   0  0  0  0  0  0  0  0  0  0  0  0
    2.6189    0.3829   -0.7252 C   0  0  0  0  0  0  0  0  0  0  0  0
    3.4121   -0.5880   -0.0813 C   0  0  0  0  0  0  0  0  0  0  0  0
    3.0062   -1.1305    0.7869 H   0  0  0  0  0  0  0  0  0  0  0  0
    4.7111   -0.8349   -0.5482 C   0  0  0  0  0  0  0  0  0  0  0  0
    5.2125   -0.1586   -1.6737 C   0  0  0  0  0  0  0  0  0  0  0  0
    6.2245   -0.3815   -2.0389 H   0  0  0  0  0  0  0  0  0  0  0  0
    4.4016    0.7775   -2.3336 C   0  0  0  0  0  0  0  0  0  0  0  0
    4.7750    1.2891   -3.2331 H   0  0  0  0  0  0  0  0  0  0  0  0
    3.1142    1.0564   -1.8657 C   0  0  0  0  0  0  0  0  0  0  0  0
    2.4670    1.7750   -2.3887 H   0  0  0  0  0  0  0  0  0  0  0  0
    5.5970   -1.8030    0.2063 C   0  0  0  0  0  0  0  0  0  0  0  0
   -1.2954    0.5944    0.2981 N   0  0  0  0  0  2  0  0  0  0  0  0
   -6.2854   -1.1606   -1.1919 F   0  0  0  0  0  0  0  0  0  0  0  0
   -6.5147   -2.3784    0.6029 F   0  0  0  0  0  0  0  0  0  0  0  0
   -4.8869   -2.7863   -0.7980 F   0  0  0  0  0  0  0  0  0  0  0  0
   -0.7492    1.7589    0.0546 C   0  0  0  0  0  0  0  0  0  0  0  0
   -1.4443    3.0247   -0.2393 C   0  0  0  0  0  0  0  0  0  0  0  0
   -0.7085    4.2474   -0.2135 C   0  0  0  0  0  0  0  0  0  0  0  0
   -1.3629    5.4364   -0.6018 C   0  0  0  0  0  0  0  0  0  0  0  0
   -0.8074    6.3840   -0.6106 H   0  0  0  0  0  0  0  0  0  0  0  0
   -2.6992    5.4313   -1.0132 C   0  0  0  0  0  0  0  0  0  0  0  0
   -3.1803    6.3729   -1.3170 H   0  0  0  0  0  0  0  0  0  0  0  0
   -3.4136    4.2223   -1.0632 C   0  0  0  0  0  0  0  0  0  0  0  0
   -4.4551    4.2032   -1.4156 H   0  0  0  0  0  0  0  0  0  0  0  0
   -2.7903    3.0338   -0.6799 C   0  0  0  0  0  0  0  0  0  0  0  0
   -3.3472    2.0915   -0.7481 H   0  0  0  0  0  0  0  0  0  0  0  0
   -2.6198    0.3825    0.7212 C   0  0  0  0  0  0  0  0  0  0  0  0
   -3.4131   -0.5882    0.0769 C   0  0  0  0  0  0  0  0  0  0  0  0
   -3.0069   -1.1309   -0.7910 H   0  0  0  0  0  0  0  0  0  0  0  0
   -4.7121   -0.8350    0.5437 C   0  0  0  0  0  0  0  0  0  0  0  0
   -5.2135   -0.1590    1.6692 C   0  0  0  0  0  0  0  0  0  0  0  0
   -6.2256   -0.3819    2.0343 H   0  0  0  0  0  0  0  0  0  0  0  0
   -4.4026    0.7769    2.3295 C   0  0  0  0  0  0  0  0  0  0  0  0
   -4.7760    1.2882    3.2291 H   0  0  0  0  0  0  0  0  0  0  0  0
   -3.1152    1.0558    1.8618 C   0  0  0  0  0  0  0  0  0  0  0  0
   -2.4679    1.7740    2.3851 H   0  0  0  0  0  0  0  0  0  0  0  0
   -5.5980   -1.8029   -0.2112 C   0  0  0  0  0  0  0  0  0  0  0  0
  1  5  1  0  0  0  0
  3 26  1  0  0  0  0
  5 31  2  0  0  0  0
  5  6  1  0  0  0  0
  6 14  1  0  0  0  0
  7  6  2  0  0  0  0
  7  8  1  0  0  0  0
  8  9  1  0  0  0  0
  8 10  2  0  0  0  0
 10 12  1  0  0  0  0
 10 11  1  0  0  0  0
 12 13  1  0  0  0  0
 14 15  1  0  0  0  0
 14 12  2  0  0  0  0
 16  1  1  0  0  0  0
 16 17  1  0  0  0  0
 17 18  1  0  0  0  0
 19 17  2  0  0  0  0
 19 26  1  0  0  0  0
 20 19  1  0  0  0  0
 21 20  1  0  0  0  0
 22 24  1  0  0  0  0
 22 20  2  0  0  0  0
 23 22  1  0  0  0  0
 24 16  2  0  0  0  0
 25 24  1  0  0  0  0
 26  4  1  0  0  0  0
 26  2  1  0  0  0  0
 27 42  1  0  0  0  0
 28 52  1  0  0  0  0
 30 52  1  0  0  0  0
 31 27  1  0  0  0  0
 32 33  1  0  0  0  0
 32 31  1  0  0  0  0
 33  7  1  0  0  0  0
 34 33  2  0  0  0  0
 35 34  1  0  0  0  0
 36 34  1  0  0  0  0
 37 36  1  0  0  0  0
 38 36  2  0  0  0  0
 38 40  1  0  0  0  0
 39 38  1  0  0  0  0
 40 32  2  0  0  0  0
 41 40  1  0  0  0  0
 42 50  1  0  0  0  0
 43 45  1  0  0  0  0
 43 42  2  0  0  0  0
 44 43  1  0  0  0  0
 45 46  2  0  0  0  0
 46 47  1  0  0  0  0
 46 48  1  0  0  0  0
 48 49  1  0  0  0  0
 50 48  2  0  0  0  0
 50 51  1  0  0  0  0
 52 45  1  0  0  0  0
 52 29  1  0  0  0  0
M  END
