1,2
 OpenBabel05122313053D

  8  7  0  0  0  0  0  0  0  0999 V2000
   -0.3105    1.3528   -1.3918 N   0  0  0  0  0  0  0  0  0  0  0  0
   -0.1589    1.5395    1.2064 N   0  0  0  0  0  0  0  0  0  0  0  0
   -0.0995    1.2036   -2.5731 O   0  0  0  0  0  0  0  0  0  0  0  0
   -1.0802    2.4458   -0.8292 C   0  0  0  0  0  0  0  0  0  0  0  0
    0.1774    1.5146    2.3714 O   0  0  0  0  0  0  0  0  0  0  0  0
   -0.5311    2.7545    0.5346 C   0  0  0  0  0  0  0  0  0  0  0  0
   -2.2964    2.7038   -1.3285 C   0  0  0  0  0  0  0  0  0  0  0  0
   -0.1023    3.9855    0.8851 C   0  0  0  0  0  0  0  0  0  0  0  0
  1  4  1  0  0  0  0
  2  5  1  0  0  0  0
  3  1  1  0  0  0  0
  4  6  1  0  0  0  0
  6  8  2  0  0  0  0
  6  2  1  0  0  0  0
  7  4  2  0  0  0  0
M  END
