2,4
 OpenBabel05122313053D

 75 81  0  0  1  0  0  0  0  0999 V2000
   -3.1944    0.9582   -0.4875 N   0  0  0  0  0  0  0  0  0  0  0  0
   -2.7492   -0.2503   -0.0191 N   0  0  0  0  0  2  0  0  0  0  0  0
   -1.0039    2.1759   -1.0182 N   0  0  0  0  0  0  0  0  0  0  0  0
   -0.1198    1.2981   -0.4908 N   0  0  0  0  0  2  0  0  0  0  0  0
   -4.4123    1.2388    0.0588 C   0  0  2  0  0  3  0  0  0  0  0  0
   -4.7535    0.1549    0.8869 C   0  0  0  0  0  0  0  0  0  0  0  0
   -3.6905   -0.7650    0.8066 C   0  0  0  0  0  0  0  0  0  0  0  0
   -0.4323    3.3958   -1.0981 C   0  0  0  0  0  3  0  0  0  0  0  0
    0.8768    3.3050   -0.6057 C   0  0  0  0  0  0  0  0  0  0  0  0
    1.0375    1.9552   -0.2204 C   0  0  0  0  0  0  0  0  0  0  0  0
   -3.5822   -2.1522    1.4177 C   0  0  0  0  0  0  0  0  0  0  0  0
   -4.7799   -2.4001    2.3517 C   0  0  0  0  0  0  0  0  0  0  0  0
   -3.5939   -3.1985    0.2796 C   0  0  0  0  0  0  0  0  0  0  0  0
   -2.2780   -2.2764    2.2256 C   0  0  0  0  0  0  0  0  0  0  0  0
   -5.2241    2.4989   -0.2086 C   0  0  0  0  0  0  0  0  0  0  0  0
   -4.3684    3.7579    0.0564 C   0  0  0  0  0  0  0  0  0  0  0  0
   -6.4332    2.5273    0.7478 C   0  0  0  0  0  0  0  0  0  0  0  0
   -5.7550    2.4969   -1.6611 C   0  0  0  0  0  0  0  0  0  0  0  0
    2.2516    1.1497    0.1540 C   0  0  1  0  0  0  0  0  0  0  0  0
    4.3183   -0.4230    0.5731 C   0  0  1  0  0  0  0  0  0  0  0  0
    1.9925    0.0494    1.2135 C   0  0  0  0  0  0  0  0  0  0  0  0
    0.8616   -0.0859    2.0309 C   0  0  0  0  0  0  0  0  0  0  0  0
    0.8272   -1.1065    3.0024 C   0  0  0  0  0  0  0  0  0  0  0  0
    1.9005   -1.9939    3.1435 C   0  0  0  0  0  0  0  0  0  0  0  0
    3.0487   -1.8389    2.3457 C   0  0  0  0  0  0  0  0  0  0  0  0
    3.1004   -0.8075    1.4053 C   0  0  0  0  0  0  0  0  0  0  0  0
    2.7786    0.4233   -1.1174 C   0  0  0  0  0  0  0  0  0  0  0  0
    2.2666    0.5521   -2.4142 C   0  0  0  0  0  0  0  0  0  0  0  0
    2.8423   -0.1891   -3.4615 C   0  0  0  0  0  0  0  0  0  0  0  0
    3.9208   -1.0505   -3.2157 C   0  0  0  0  0  0  0  0  0  0  0  0
    4.4450   -1.1692   -1.9167 C   0  0  0  0  0  0  0  0  0  0  0  0
    3.8746   -0.4276   -0.8777 C   0  0  0  0  0  0  0  0  0  0  0  0
    3.4746    1.8912    0.7443 C   0  0  0  0  0  0  0  0  0  0  0  0
    3.5556    3.2242    1.1650 C   0  0  0  0  0  0  0  0  0  0  0  0
    4.7576    3.7163    1.7099 C   0  0  0  0  0  0  0  0  0  0  0  0
    5.8714    2.8786    1.8502 C   0  0  0  0  0  0  0  0  0  0  0  0
    5.7816    1.5261    1.4729 C   0  0  0  0  0  0  0  0  0  0  0  0
    4.5889    1.0359    0.9345 C   0  0  0  0  0  0  0  0  0  0  0  0
   -2.3269    1.6039   -1.6136 B   0  0  0  0  0  0  0  0  0  0  0  0
   -5.6711    0.0429    1.4673 H   0  0  0  0  0  0  0  0  0  0  0  0
   -0.9852    4.2438   -1.5159 H   0  0  0  0  0  0  0  0  0  0  0  0
    1.6215    4.1029   -0.5859 H   0  0  0  0  0  0  0  0  0  0  0  0
   -4.8160   -1.6577    3.1746 H   0  0  0  0  0  0  0  0  0  0  0  0
   -4.7003   -3.4079    2.8057 H   0  0  0  0  0  0  0  0  0  0  0  0
   -5.7412   -2.3547    1.8018 H   0  0  0  0  0  0  0  0  0  0  0  0
   -4.5218   -3.1175   -0.3213 H   0  0  0  0  0  0  0  0  0  0  0  0
   -3.5400   -4.2229    0.7018 H   0  0  0  0  0  0  0  0  0  0  0  0
   -2.7272   -3.0661   -0.3976 H   0  0  0  0  0  0  0  0  0  0  0  0
   -2.2428   -1.5219    3.0370 H   0  0  0  0  0  0  0  0  0  0  0  0
   -1.3835   -2.1453    1.5847 H   0  0  0  0  0  0  0  0  0  0  0  0
   -2.1973   -3.2837    2.6825 H   0  0  0  0  0  0  0  0  0  0  0  0
   -3.5023    3.8121   -0.6280 H   0  0  0  0  0  0  0  0  0  0  0  0
   -3.9872    3.7643    1.0974 H   0  0  0  0  0  0  0  0  0  0  0  0
   -4.9815    4.6701   -0.0923 H   0  0  0  0  0  0  0  0  0  0  0  0
   -7.1115    1.6679    0.5761 H   0  0  0  0  0  0  0  0  0  0  0  0
   -7.0185    3.4534    0.5804 H   0  0  0  0  0  0  0  0  0  0  0  0
   -6.1145    2.5123    1.8094 H   0  0  0  0  0  0  0  0  0  0  0  0
   -4.9307    2.4918   -2.3976 H   0  0  0  0  0  0  0  0  0  0  0  0
   -6.3746    3.3999   -1.8387 H   0  0  0  0  0  0  0  0  0  0  0  0
   -6.3864    1.6045   -1.8444 H   0  0  0  0  0  0  0  0  0  0  0  0
    5.1883   -1.0779    0.7619 H   0  0  0  0  0  0  0  0  0  0  0  0
    0.0226    0.6212    1.9495 H   0  0  0  0  0  0  0  0  0  0  0  0
   -0.0501   -1.2006    3.6573 H   0  0  0  0  0  0  0  0  0  0  0  0
    1.8569   -2.7977    3.8934 H   0  0  0  0  0  0  0  0  0  0  0  0
    3.9134   -2.5081    2.4747 H   0  0  0  0  0  0  0  0  0  0  0  0
    1.4177    1.2184   -2.6208 H   0  0  0  0  0  0  0  0  0  0  0  0
    2.4329   -0.0960   -4.4784 H   0  0  0  0  0  0  0  0  0  0  0  0
    4.3584   -1.6347   -4.0391 H   0  0  0  0  0  0  0  0  0  0  0  0
    5.2947   -1.8392   -1.7132 H   0  0  0  0  0  0  0  0  0  0  0  0
    2.6837    3.8867    1.1024 H   0  0  0  0  0  0  0  0  0  0  0  0
    4.8138    4.7667    2.0331 H   0  0  0  0  0  0  0  0  0  0  0  0
    6.8088    3.2701    2.2731 H   0  0  0  0  0  0  0  0  0  0  0  0
    6.6384    0.8488    1.6126 H   0  0  0  0  0  0  0  0  0  0  0  0
   -1.9862    0.6707   -2.3564 H   0  0  0  0  0  0  0  0  0  0  0  0
   -2.9055    2.4856   -2.2179 H   0  0  0  0  0  0  0  0  0  0  0  0
  1  2  1  0  0  0  0
  1  5  1  0  0  0  0
  2  7  1  0  0  0  0
  3  4  1  0  0  0  0
  4 10  1  0  0  0  0
  5 15  1  6  0  0  0
  5  6  1  0  0  0  0
  6 40  1  0  0  0  0
  7  6  2  0  0  0  0
  7 11  1  0  0  0  0
  8  3  1  0  0  0  0
  8  9  1  0  0  0  0
  9 42  1  0  0  0  0
  9 10  2  0  0  0  0
 11 14  1  0  0  0  0
 11 12  1  0  0  0  0
 12 44  1  0  0  0  0
 12 43  1  0  0  0  0
 13 47  1  0  0  0  0
 13 11  1  0  0  0  0
 14 51  1  0  0  0  0
 14 49  1  0  0  0  0
 15 16  1  0  0  0  0
 15 17  1  0  0  0  0
 16 53  1  0  0  0  0
 17 57  1  0  0  0  0
 18 15  1  0  0  0  0
 19 10  1  6  0  0  0
 19 33  1  0  0  0  0
 19 21  1  0  0  0  0
 20 61  1  1  0  0  0
 20 38  1  0  0  0  0
 20 26  1  0  0  0  0
 21 26  2  0  0  0  0
 21 22  1  0  0  0  0
 22 23  2  0  0  0  0
 23 24  1  0  0  0  0
 23 63  1  0  0  0  0
 24 64  1  0  0  0  0
 25 65  1  0  0  0  0
 25 24  2  0  0  0  0
 26 25  1  0  0  0  0
 27 32  1  0  0  0  0
 27 19  1  0  0  0  0
 28 27  2  0  0  0  0
 29 30  2  0  0  0  0
 29 28  1  0  0  0  0
 30 31  1  0  0  0  0
 31 69  1  0  0  0  0
 31 32  2  0  0  0  0
 32 20  1  0  0  0  0
 33 38  2  0  0  0  0
 33 34  1  0  0  0  0
 34 35  2  0  0  0  0
 35 36  1  0  0  0  0
 35 71  1  0  0  0  0
 36 72  1  0  0  0  0
 37 73  1  0  0  0  0
 37 36  2  0  0  0  0
 38 37  1  0  0  0  0
 39  3  1  0  0  0  0
 39  1  1  0  0  0  0
 41  8  1  0  0  0  0
 45 12  1  0  0  0  0
 46 13  1  0  0  0  0
 48 13  1  0  0  0  0
 50 14  1  0  0  0  0
 52 16  1  0  0  0  0
 54 16  1  0  0  0  0
 55 17  1  0  0  0  0
 56 17  1  0  0  0  0
 58 18  1  0  0  0  0
 59 18  1  0  0  0  0
 60 18  1  0  0  0  0
 62 22  1  0  0  0  0
 66 28  1  0  0  0  0
 67 29  1  0  0  0  0
 68 30  1  0  0  0  0
 70 34  1  0  0  0  0
 74 39  1  0  0  0  0
 75 39  1  0  0  0  0
M  END
