3,4
 OpenBabel05122313053D

 58 60  0  0  0  0  0  0  0  0999 V2000
    0.0013    2.9483    0.8388 O   0  0  0  0  0  0  0  0  0  0  0  0
   -2.4282    2.0554   -0.1097 O   0  0  0  0  0  0  0  0  0  0  0  0
    1.3451    0.0290   -0.5953 N   0  0  0  0  0  0  0  0  0  0  0  0
   -1.0624   -1.2415   -0.6105 N   0  0  0  0  0  0  0  0  0  0  0  0
    1.5839   -2.2751   -2.4396 O   0  0  0  0  0  0  0  0  0  0  0  0
    0.0636   -3.5042    0.1839 O   0  0  0  0  0  0  0  0  0  0  0  0
   -1.0530    3.8757    0.5962 C   0  0  0  0  0  0  0  0  0  0  0  0
   -2.3630    3.1501    0.8135 C   0  0  0  0  0  0  0  0  0  0  0  0
    1.2868    3.2837    0.5026 C   0  0  0  0  0  0  0  0  0  0  0  0
   -3.4791    1.1778    0.0478 C   0  0  0  0  0  0  0  0  0  0  0  0
    1.7019    4.6054    0.2607 C   0  0  0  0  0  0  0  0  0  0  0  0
   -4.8094    1.6033   -0.1124 C   0  0  0  0  0  0  0  0  0  0  0  0
    3.0470    4.8698   -0.0400 C   0  0  0  0  0  0  0  0  0  0  0  0
   -5.8596    0.6876    0.0313 C   0  0  0  0  0  0  0  0  0  0  0  0
    3.9847    3.8292   -0.0889 C   0  0  0  0  0  0  0  0  0  0  0  0
   -5.5881   -0.6530    0.3497 C   0  0  0  0  0  0  0  0  0  0  0  0
    3.5618    2.5134    0.1482 C   0  0  0  0  0  0  0  0  0  0  0  0
   -4.2612   -1.0703    0.5135 C   0  0  0  0  0  0  0  0  0  0  0  0
    2.2148    2.2099    0.4232 C   0  0  0  0  0  0  0  0  0  0  0  0
   -3.1828   -0.1735    0.3561 C   0  0  0  0  0  0  0  0  0  0  0  0
    1.7693    0.7847    0.6504 C   0  0  0  0  0  0  0  0  0  0  0  0
   -1.7533   -0.6092    0.5779 C   0  0  0  0  0  0  0  0  0  0  0  0
    0.2056    0.7153   -1.3085 C   0  0  0  0  0  0  0  0  0  0  0  0
   -0.8448   -0.2964   -1.7408 C   0  0  0  0  0  0  0  0  0  0  0  0
    2.5227   -0.1976   -1.4881 C   0  0  0  0  0  0  0  0  0  0  0  0
   -1.6880   -2.5343   -1.0294 C   0  0  0  0  0  0  0  0  0  0  0  0
    2.2208   -1.0369   -2.7271 C   0  0  0  0  0  0  0  0  0  0  0  0
   -1.3620   -3.5839    0.0206 C   0  0  0  0  0  0  0  0  0  0  0  0
   -0.9993    4.7415    1.2935 H   0  0  0  0  0  0  0  0  0  0  0  0
   -0.9897    4.2613   -0.4462 H   0  0  0  0  0  0  0  0  0  0  0  0
   -3.2005    3.8660    0.6590 H   0  0  0  0  0  0  0  0  0  0  0  0
   -2.4239    2.7651    1.8559 H   0  0  0  0  0  0  0  0  0  0  0  0
    0.9874    5.4371    0.3223 H   0  0  0  0  0  0  0  0  0  0  0  0
   -5.0148    2.6543   -0.3626 H   0  0  0  0  0  0  0  0  0  0  0  0
    3.3624    5.9079   -0.2224 H   0  0  0  0  0  0  0  0  0  0  0  0
   -6.8982    1.0250   -0.1018 H   0  0  0  0  0  0  0  0  0  0  0  0
    5.0422    4.0411   -0.3009 H   0  0  0  0  0  0  0  0  0  0  0  0
   -6.4114   -1.3693    0.4828 H   0  0  0  0  0  0  0  0  0  0  0  0
    4.2975    1.6940    0.1337 H   0  0  0  0  0  0  0  0  0  0  0  0
   -4.0579   -2.1126    0.8058 H   0  0  0  0  0  0  0  0  0  0  0  0
    0.9095    0.7612    1.3451 H   0  0  0  0  0  0  0  0  0  0  0  0
    2.5843    0.1845    1.0958 H   0  0  0  0  0  0  0  0  0  0  0  0
   -1.1487    0.2656    0.8750 H   0  0  0  0  0  0  0  0  0  0  0  0
   -1.7008   -1.3423    1.4042 H   0  0  0  0  0  0  0  0  0  0  0  0
   -0.2475    1.4373   -0.6096 H   0  0  0  0  0  0  0  0  0  0  0  0
    0.5830    1.2977   -2.1729 H   0  0  0  0  0  0  0  0  0  0  0  0
   -0.5107   -0.9059   -2.6000 H   0  0  0  0  0  0  0  0  0  0  0  0
   -1.7892    0.2175   -2.0225 H   0  0  0  0  0  0  0  0  0  0  0  0
    2.9273    0.7882   -1.8072 H   0  0  0  0  0  0  0  0  0  0  0  0
    3.2947   -0.6954   -0.8681 H   0  0  0  0  0  0  0  0  0  0  0  0
   -2.7790   -2.4194   -1.1983 H   0  0  0  0  0  0  0  0  0  0  0  0
   -1.2107   -2.8236   -1.9859 H   0  0  0  0  0  0  0  0  0  0  0  0
    3.1761   -1.1763   -3.2811 H   0  0  0  0  0  0  0  0  0  0  0  0
    1.5428   -0.4950   -3.4179 H   0  0  0  0  0  0  0  0  0  0  0  0
   -1.6448   -4.5976   -0.3316 H   0  0  0  0  0  0  0  0  0  0  0  0
   -1.8830   -3.4001    0.9853 H   0  0  0  0  0  0  0  0  0  0  0  0
    2.2231   -2.8570   -1.9839 H   0  0  0  0  0  0  0  0  0  0  0  0
    0.4791   -3.7365    1.1032 H   0  0  0  0  0  0  0  0  0  0  0  0
  2 10  1  0  0  0  0
  2  8  1  0  0  0  0
  3 21  1  0  0  0  0
  4 22  1  0  0  0  0
  5 57  1  0  0  0  0
  6 58  1  0  0  0  0
  7  8  1  0  0  0  0
  7  1  1  0  0  0  0
  7 29  1  0  0  0  0
  8 32  1  0  0  0  0
  9  1  1  0  0  0  0
 10 20  1  0  0  0  0
 11 33  1  0  0  0  0
 11  9  2  0  0  0  0
 12 14  1  0  0  0  0
 12 10  2  0  0  0  0
 13 11  1  0  0  0  0
 14 16  2  0  0  0  0
 15 13  2  0  0  0  0
 15 17  1  0  0  0  0
 16 38  1  0  0  0  0
 16 18  1  0  0  0  0
 17 19  2  0  0  0  0
 18 40  1  0  0  0  0
 19  9  1  0  0  0  0
 19 21  1  0  0  0  0
 20 18  2  0  0  0  0
 20 22  1  0  0  0  0
 21 42  1  0  0  0  0
 21 41  1  0  0  0  0
 22 43  1  0  0  0  0
 22 44  1  0  0  0  0
 23 45  1  0  0  0  0
 23  3  1  0  0  0  0
 24 23  1  0  0  0  0
 24  4  1  0  0  0  0
 25 50  1  0  0  0  0
 25  3  1  0  0  0  0
 26  4  1  0  0  0  0
 26 28  1  0  0  0  0
 27  5  1  0  0  0  0
 27 25  1  0  0  0  0
 28  6  1  0  0  0  0
 28 56  1  0  0  0  0
 30  7  1  0  0  0  0
 31  8  1  0  0  0  0
 34 12  1  0  0  0  0
 35 13  1  0  0  0  0
 36 14  1  0  0  0  0
 37 15  1  0  0  0  0
 39 17  1  0  0  0  0
 46 23  1  0  0  0  0
 47 24  1  0  0  0  0
 48 24  1  0  0  0  0
 49 25  1  0  0  0  0
 51 26  1  0  0  0  0
 52 26  1  0  0  0  0
 53 27  1  0  0  0  0
 54 27  1  0  0  0  0
 55 28  1  0  0  0  0
M  END
