28,32
 OpenBabel05122313053D

 40 44  0  0  0  0  0  0  0  0999 V2000
    1.3688    0.2446   -0.6164 C   0  0  0  0  0  0  0  0  0  0  0  0
    1.3579    1.3173   -0.3721 H   0  0  0  0  0  0  0  0  0  0  0  0
    0.1507   -0.4143   -0.8608 C   0  0  0  0  0  0  0  0  0  0  0  0
    0.1394   -1.8037   -1.1405 C   0  0  0  0  0  0  0  0  0  0  0  0
   -0.8194   -2.2822   -1.3862 H   0  0  0  0  0  0  0  0  0  0  0  0
    1.3351   -2.5114   -1.1801 C   0  0  0  0  0  0  0  0  0  0  0  0
    1.3293   -3.5828   -1.4310 H   0  0  0  0  0  0  0  0  0  0  0  0
    2.5726   -1.8725   -0.9130 C   0  0  0  0  0  0  0  0  0  0  0  0
    3.7472   -2.5781   -0.9208 N   0  0  0  0  0  0  0  0  0  0  0  0
    3.7248   -3.5804   -1.1340 H   0  0  0  0  0  0  0  0  0  0  0  0
    5.0563   -2.0819   -0.6543 C   0  0  0  0  0  0  0  0  0  0  0  0
    6.0180   -2.8402   -0.6943 O   0  0  0  0  0  0  0  0  0  0  0  0
    5.0610   -0.6612   -0.3519 C   0  0  0  0  0  0  0  0  0  0  0  0
    6.1530    0.2159   -0.0297 C   0  0  0  0  0  0  0  0  0  0  0  0
    7.5463    0.0373    0.1056 C   0  0  0  0  0  0  0  0  0  0  0  0
    7.9839   -0.9582   -0.0512 H   0  0  0  0  0  0  0  0  0  0  0  0
    8.3243    1.1489    0.4371 C   0  0  0  0  0  0  0  0  0  0  0  0
    9.4128    1.0371    0.5482 H   0  0  0  0  0  0  0  0  0  0  0  0
    7.7393    2.4250    0.6336 C   0  0  0  0  0  0  0  0  0  0  0  0
    8.3843    3.2777    0.8929 H   0  0  0  0  0  0  0  0  0  0  0  0
    6.3604    2.6292    0.5054 C   0  0  0  0  0  0  0  0  0  0  0  0
    5.9149    3.6232    0.6586 H   0  0  0  0  0  0  0  0  0  0  0  0
    5.5779    1.5121    0.1726 C   0  0  0  0  0  0  0  0  0  0  0  0
    4.2032    1.4044   -0.0209 N   0  0  0  0  0  0  0  0  0  0  0  0
    3.5502    2.1824    0.0493 H   0  0  0  0  0  0  0  0  0  0  0  0
    3.8793    0.1031   -0.3384 C   0  0  0  0  0  0  0  0  0  0  0  0
    2.5874   -0.4621   -0.6210 C   0  0  0  0  0  0  0  0  0  0  0  0
   -1.0729    0.2939   -0.8389 N   0  0  0  0  0  2  0  0  0  0  0  0
   -1.1929    1.4479   -1.4595 C   0  0  0  0  0  0  0  0  0  0  0  0
   -0.3671    1.8626   -2.0600 H   0  0  0  0  0  0  0  0  0  0  0  0
   -2.4719    2.0982   -1.3745 C   0  0  0  0  0  0  0  0  0  0  0  0
   -3.3922    1.4081   -0.6255 N   0  0  0  0  0  2  0  0  0  0  0  0
   -4.6514    1.8831   -0.5341 C   0  0  0  0  0  0  0  0  0  0  0  0
   -5.3633    1.2732    0.0385 H   0  0  0  0  0  0  0  0  0  0  0  0
   -5.0411    3.0804   -1.1431 C   0  0  0  0  0  0  0  0  0  0  0  0
   -6.0769    3.4292   -1.0304 H   0  0  0  0  0  0  0  0  0  0  0  0
   -4.1017    3.8087   -1.8943 C   0  0  0  0  0  0  0  0  0  0  0  0
   -4.3864    4.7497   -2.3865 H   0  0  0  0  0  0  0  0  0  0  0  0
   -2.8043    3.3070   -2.0174 C   0  0  0  0  0  0  0  0  0  0  0  0
   -2.0423    3.8271   -2.6149 H   0  0  0  0  0  0  0  0  0  0  0  0
  1  2  1  0  0  0  0
  3 28  1  0  0  0  0
  3  1  2  0  0  0  0
  4  3  1  0  0  0  0
  5  4  1  0  0  0  0
  6  4  2  0  0  0  0
  6  8  1  0  0  0  0
  7  6  1  0  0  0  0
  8 27  2  0  0  0  0
  9  8  1  0  0  0  0
  9 11  1  0  0  0  0
 10  9  1  0  0  0  0
 11 13  1  0  0  0  0
 12 11  2  0  0  0  0
 13 26  2  0  0  0  0
 13 14  1  0  0  0  0
 14 15  2  0  0  0  0
 14 23  1  0  0  0  0
 15 17  1  0  0  0  0
 16 15  1  0  0  0  0
 17 18  1  0  0  0  0
 17 19  2  0  0  0  0
 19 20  1  0  0  0  0
 21 19  1  0  0  0  0
 21 22  1  0  0  0  0
 23 21  2  0  0  0  0
 24 25  1  0  0  0  0
 24 23  1  0  0  0  0
 26 24  1  0  0  0  0
 27  1  1  0  0  0  0
 27 26  1  0  0  0  0
 29 31  2  0  0  0  0
 29 28  1  0  0  0  0
 30 29  1  0  0  0  0
 31 32  1  0  0  0  0
 32 33  1  0  0  0  0
 33 34  1  0  0  0  0
 35 36  1  0  0  0  0
 35 33  2  0  0  0  0
 37 35  1  0  0  0  0
 38 37  1  0  0  0  0
 39 37  2  0  0  0  0
 39 31  1  0  0  0  0
 40 39  1  0  0  0  0
M  END
