1,2
 OpenBabel05122313053D

 40 42  0  0  1  0  0  0  0  0999 V2000
   -0.0002   -0.0045    1.4114 N   0  0  0  0  0  2  0  0  0  0  0  0
    0.0002   -0.0045   -1.4114 N   0  0  0  0  0  2  0  0  0  0  0  0
   -2.9647   -0.4722   -0.0002 N   0  0  0  0  0  0  0  0  0  0  0  0
    2.9647   -0.4720    0.0002 N   0  0  0  0  0  0  0  0  0  0  0  0
    1.1756   -0.5688    1.7845 C   0  0  1  0  0  3  0  0  0  0  0  0
    1.2039   -1.7247    2.5855 C   0  0  0  0  0  0  0  0  0  0  0  0
    2.1727   -2.1474    2.8903 H   0  0  0  0  0  0  0  0  0  0  0  0
    0.0001   -2.3120    2.9928 C   0  0  0  0  0  0  0  0  0  0  0  0
    0.0002   -3.2132    3.6248 H   0  0  0  0  0  0  0  0  0  0  0  0
   -1.2039   -1.7251    2.5853 C   0  0  0  0  0  0  0  0  0  0  0  0
   -2.1726   -2.1481    2.8898 H   0  0  0  0  0  0  0  0  0  0  0  0
   -1.1758   -0.5692    1.7843 C   0  0  0  0  0  0  0  0  0  0  0  0
   -2.4590    0.0596    1.2600 C   0  0  0  0  0  0  0  0  0  0  0  0
   -3.2537   -0.0797    2.0275 H   0  0  0  0  0  0  0  0  0  0  0  0
   -2.2707    1.1471    1.1286 H   0  0  0  0  0  0  0  0  0  0  0  0
   -2.4587    0.0600   -1.2602 C   0  0  0  0  0  0  0  0  0  0  0  0
   -2.2702    1.1474   -1.1283 H   0  0  0  0  0  0  0  0  0  0  0  0
   -3.2534   -0.0789   -2.0278 H   0  0  0  0  0  0  0  0  0  0  0  0
   -1.1756   -0.5689   -1.7845 C   0  0  2  0  0  3  0  0  0  0  0  0
   -1.2038   -1.7248   -2.5855 C   0  0  0  0  0  0  0  0  0  0  0  0
   -2.1725   -2.1476   -2.8902 H   0  0  0  0  0  0  0  0  0  0  0  0
    0.0001   -2.3121   -2.9928 C   0  0  0  0  0  0  0  0  0  0  0  0
    0.0001   -3.2133   -3.6247 H   0  0  0  0  0  0  0  0  0  0  0  0
    1.2040   -1.7250   -2.5853 C   0  0  0  0  0  0  0  0  0  0  0  0
    2.1727   -2.1480   -2.8898 H   0  0  0  0  0  0  0  0  0  0  0  0
    1.1759   -0.5691   -1.7843 C   0  0  0  0  0  0  0  0  0  0  0  0
    2.4590    0.0597   -1.2600 C   0  0  0  0  0  0  0  0  0  0  0  0
    3.2538   -0.0795   -2.0275 H   0  0  0  0  0  0  0  0  0  0  0  0
    2.2706    1.1472   -1.1287 H   0  0  0  0  0  0  0  0  0  0  0  0
    2.4587    0.0602    1.2602 C   0  0  0  0  0  0  0  0  0  0  0  0
    2.2701    1.1476    1.1283 H   0  0  0  0  0  0  0  0  0  0  0  0
    3.2534   -0.0786    2.0278 H   0  0  0  0  0  0  0  0  0  0  0  0
   -3.3361   -1.8664   -0.0004 C   0  0  0  0  0  0  0  0  0  0  0  0
   -3.9542   -2.0883   -0.8969 H   0  0  0  0  0  0  0  0  0  0  0  0
   -3.9544   -2.0885    0.8958 H   0  0  0  0  0  0  0  0  0  0  0  0
   -2.4797   -2.5903   -0.0004 H   0  0  0  0  0  0  0  0  0  0  0  0
    3.3362   -1.8662    0.0005 C   0  0  0  0  0  0  0  0  0  0  0  0
    2.4799   -2.5902    0.0005 H   0  0  0  0  0  0  0  0  0  0  0  0
    3.9544   -2.0879    0.8969 H   0  0  0  0  0  0  0  0  0  0  0  0
    3.9546   -2.0882   -0.8958 H   0  0  0  0  0  0  0  0  0  0  0  0
  1 12  1  0  0  0  0
  3 13  1  0  0  0  0
  4 37  1  0  0  0  0
  4 30  1  0  0  0  0
  5  1  1  6  0  0  0
  5  6  1  0  0  0  0
  6  7  1  0  0  0  0
  6  8  2  0  0  0  0
  8  9  1  0  0  0  0
 10 11  1  0  0  0  0
 10  8  1  0  0  0  0
 12 10  2  0  0  0  0
 13 12  1  0  0  0  0
 13 14  1  0  0  0  0
 15 13  1  0  0  0  0
 16 17  1  0  0  0  0
 16  3  1  0  0  0  0
 18 16  1  0  0  0  0
 19 20  1  1  0  0  0
 19  2  1  0  0  0  0
 19 16  1  0  0  0  0
 21 20  1  0  0  0  0
 22 20  2  0  0  0  0
 22 24  1  0  0  0  0
 23 22  1  0  0  0  0
 24 26  2  0  0  0  0
 25 24  1  0  0  0  0
 26  2  1  0  0  0  0
 26 27  1  0  0  0  0
 27 29  1  0  0  0  0
 27  4  1  0  0  0  0
 28 27  1  0  0  0  0
 30  5  1  0  0  0  0
 30 32  1  0  0  0  0
 31 30  1  0  0  0  0
 33  3  1  0  0  0  0
 33 35  1  0  0  0  0
 34 33  1  0  0  0  0
 36 33  1  0  0  0  0
 37 38  1  0  0  0  0
 37 39  1  0  0  0  0
 40 37  1  0  0  0  0
M  END
