1,2
 OpenBabel05122313053D

 26 27  0  0  1  0  0  0  0  0999 V2000
    2.0061   -0.2291   -0.0974 N   0  0  0  0  0  2  0  0  0  0  0  0
   -0.6300   -0.6758   -0.4423 N   0  0  0  0  0  0  0  0  0  0  0  0
    1.5989   -1.4932    0.1352 C   0  0  1  0  0  3  0  0  0  0  0  0
    2.5128   -2.5582    0.1442 C   0  0  0  0  0  0  0  0  0  0  0  0
    3.8684   -2.2831   -0.0889 C   0  0  0  0  0  0  0  0  0  0  0  0
    4.2708   -0.9637   -0.3476 C   0  0  0  0  0  0  0  0  0  0  0  0
    3.2958    0.0414   -0.3500 C   0  0  0  0  0  0  0  0  0  0  0  0
    0.1154   -1.6527    0.3823 C   0  0  0  0  0  0  0  0  0  0  0  0
   -2.0639   -0.7075   -0.3230 C   0  0  0  0  0  0  0  0  0  0  0  0
   -2.6816   -0.3709    0.8965 C   0  0  0  0  0  0  0  0  0  0  0  0
   -4.0798   -0.3939    0.9879 C   0  0  0  0  0  0  0  0  0  0  0  0
   -4.8676   -0.7371   -0.1234 C   0  0  0  0  0  0  0  0  0  0  0  0
   -4.2470   -1.0576   -1.3400 C   0  0  0  0  0  0  0  0  0  0  0  0
   -2.8477   -1.0528   -1.4388 C   0  0  0  0  0  0  0  0  0  0  0  0
    2.1632   -3.5851    0.3260 H   0  0  0  0  0  0  0  0  0  0  0  0
   -0.3731   -0.7898   -1.4329 H   0  0  0  0  0  0  0  0  0  0  0  0
    4.6064   -3.0994   -0.0831 H   0  0  0  0  0  0  0  0  0  0  0  0
    5.3219   -0.7161   -0.5532 H   0  0  0  0  0  0  0  0  0  0  0  0
    3.5265    1.0963   -0.5729 H   0  0  0  0  0  0  0  0  0  0  0  0
   -0.0874   -1.4011    1.4473 H   0  0  0  0  0  0  0  0  0  0  0  0
   -0.2079   -2.7001    0.1967 H   0  0  0  0  0  0  0  0  0  0  0  0
   -2.0597   -0.0392    1.7432 H   0  0  0  0  0  0  0  0  0  0  0  0
   -4.5591   -0.1212    1.9403 H   0  0  0  0  0  0  0  0  0  0  0  0
   -5.9648   -0.7456   -0.0437 H   0  0  0  0  0  0  0  0  0  0  0  0
   -4.8526   -1.3195   -2.2206 H   0  0  0  0  0  0  0  0  0  0  0  0
   -2.3582   -1.3116   -2.3917 H   0  0  0  0  0  0  0  0  0  0  0  0
  1  3  1  0  0  0  0
  2  9  1  0  0  0  0
  2  8  1  0  0  0  0
  3  4  1  0  0  0  0
  3  8  1  1  0  0  0
  4 15  1  0  0  0  0
  5 17  1  0  0  0  0
  5  4  2  0  0  0  0
  6  5  1  0  0  0  0
  7  6  2  0  0  0  0
  7  1  1  0  0  0  0
  8 20  1  0  0  0  0
  9 10  1  0  0  0  0
 10 11  2  0  0  0  0
 10 22  1  0  0  0  0
 11 23  1  0  0  0  0
 12 24  1  0  0  0  0
 12 11  1  0  0  0  0
 13 12  2  0  0  0  0
 14 13  1  0  0  0  0
 14  9  2  0  0  0  0
 16  2  1  0  0  0  0
 18  6  1  0  0  0  0
 19  7  1  0  0  0  0
 21  8  1  0  0  0  0
 25 13  1  0  0  0  0
 26 14  1  0  0  0  0
M  END
