1,21
 OpenBabel05122313053D

 40 43  0  0  0  0  0  0  0  0999 V2000
    1.3242   -0.4776   -0.4412 N   0  0  0  0  0  2  0  0  0  0  0  0
    2.6266   -0.3743   -0.4964 N   0  0  0  0  0  2  0  0  0  0  0  0
    2.8879    0.7600   -1.1660 N   0  0  0  0  0  0  0  0  0  0  0  0
    0.7225    0.5945   -1.0725 C   0  0  0  0  0  0  0  0  0  0  0  0
    1.7458    1.4086   -1.5393 C   0  0  0  0  0  0  0  0  0  0  0  0
    4.2726    1.2052   -1.3160 C   0  0  0  0  0  0  0  0  0  0  0  0
    4.6185    2.3377   -0.3710 C   0  0  0  0  0  0  0  0  0  0  0  0
    4.4307    2.1791    1.0169 C   0  0  0  0  0  0  0  0  0  0  0  0
    4.7505    3.2234    1.8945 C   0  0  0  0  0  0  0  0  0  0  0  0
    5.2647    4.4328    1.3962 C   0  0  0  0  0  0  0  0  0  0  0  0
    5.4554    4.5950    0.0161 C   0  0  0  0  0  0  0  0  0  0  0  0
    5.1290    3.5514   -0.8649 C   0  0  0  0  0  0  0  0  0  0  0  0
    1.7568    2.3582   -2.0808 H   0  0  0  0  0  0  0  0  0  0  0  0
    4.4307    1.5031   -2.3708 H   0  0  0  0  0  0  0  0  0  0  0  0
    4.8862    0.3046   -1.1184 H   0  0  0  0  0  0  0  0  0  0  0  0
    4.0286    1.2309    1.4080 H   0  0  0  0  0  0  0  0  0  0  0  0
    4.6006    3.0914    2.9766 H   0  0  0  0  0  0  0  0  0  0  0  0
    5.5174    5.2507    2.0876 H   0  0  0  0  0  0  0  0  0  0  0  0
    5.8575    5.5398   -0.3798 H   0  0  0  0  0  0  0  0  0  0  0  0
    5.2775    3.6804   -1.9491 H   0  0  0  0  0  0  0  0  0  0  0  0
   -1.3242   -0.4776   -0.4412 N   0  0  0  0  0  2  0  0  0  0  0  0
   -2.6266   -0.3743   -0.4964 N   0  0  0  0  0  2  0  0  0  0  0  0
   -2.8879    0.7601   -1.1660 N   0  0  0  0  0  0  0  0  0  0  0  0
   -0.7225    0.5945   -1.0726 C   0  0  0  0  0  0  0  0  0  0  0  0
   -1.7458    1.4087   -1.5393 C   0  0  0  0  0  0  0  0  0  0  0  0
   -4.2725    1.2052   -1.3161 C   0  0  0  0  0  0  0  0  0  0  0  0
   -4.6184    2.3378   -0.3710 C   0  0  0  0  0  0  0  0  0  0  0  0
   -4.4306    2.1792    1.0169 C   0  0  0  0  0  0  0  0  0  0  0  0
   -4.7504    3.2235    1.8945 C   0  0  0  0  0  0  0  0  0  0  0  0
   -5.2647    4.4328    1.3962 C   0  0  0  0  0  0  0  0  0  0  0  0
   -5.4554    4.5950    0.0161 C   0  0  0  0  0  0  0  0  0  0  0  0
   -5.1290    3.5515   -0.8649 C   0  0  0  0  0  0  0  0  0  0  0  0
   -1.7568    2.3582   -2.0808 H   0  0  0  0  0  0  0  0  0  0  0  0
   -4.4307    1.5032   -2.3708 H   0  0  0  0  0  0  0  0  0  0  0  0
   -4.8862    0.3046   -1.1184 H   0  0  0  0  0  0  0  0  0  0  0  0
   -4.0285    1.2309    1.4080 H   0  0  0  0  0  0  0  0  0  0  0  0
   -4.6005    3.0914    2.9766 H   0  0  0  0  0  0  0  0  0  0  0  0
   -5.5174    5.2507    2.0877 H   0  0  0  0  0  0  0  0  0  0  0  0
   -5.8575    5.5398   -0.3798 H   0  0  0  0  0  0  0  0  0  0  0  0
   -5.2776    3.6804   -1.9491 H   0  0  0  0  0  0  0  0  0  0  0  0
  2  1  1  0  0  0  0
  3  2  1  0  0  0  0
  4  1  1  0  0  0  0
  5  3  1  0  0  0  0
  5  4  2  0  0  0  0
  6  3  1  0  0  0  0
  6 15  1  0  0  0  0
  6  7  1  0  0  0  0
  7  8  1  0  0  0  0
  8 16  1  0  0  0  0
  8  9  2  0  0  0  0
  9 17  1  0  0  0  0
 10  9  1  0  0  0  0
 10 18  1  0  0  0  0
 11 10  2  0  0  0  0
 12  7  2  0  0  0  0
 12 11  1  0  0  0  0
 13  5  1  0  0  0  0
 14  6  1  0  0  0  0
 19 11  1  0  0  0  0
 20 12  1  0  0  0  0
 22 21  1  0  0  0  0
 23 22  1  0  0  0  0
 24  4  1  0  0  0  0
 24 21  1  0  0  0  0
 25 23  1  0  0  0  0
 25 24  2  0  0  0  0
 26 23  1  0  0  0  0
 26 35  1  0  0  0  0
 26 27  1  0  0  0  0
 27 28  1  0  0  0  0
 28 36  1  0  0  0  0
 28 29  2  0  0  0  0
 29 37  1  0  0  0  0
 30 29  1  0  0  0  0
 30 38  1  0  0  0  0
 31 30  2  0  0  0  0
 32 27  2  0  0  0  0
 32 31  1  0  0  0  0
 33 25  1  0  0  0  0
 34 26  1  0  0  0  0
 39 31  1  0  0  0  0
 40 32  1  0  0  0  0
M  END
