3,4
 OpenBabel05122313053D

 44 45  0  0  1  0  0  0  0  0999 V2000
   -2.1777    1.7544   -0.7561 Si  0  0  0  0  0  0  0  0  0  0  0  0
    2.1780    1.7542    0.7562 Si  0  0  0  0  0  0  0  0  0  0  0  0
   -1.9807   -0.9525    0.3980 N   0  0  0  0  0  2  0  0  0  0  0  0
    1.9806   -0.9526   -0.3979 N   0  0  0  0  0  2  0  0  0  0  0  0
   -2.7750    0.1069    0.0779 C   0  0  2  0  0  3  0  0  0  0  0  0
   -4.1576    0.0134    0.3506 C   0  0  0  0  0  0  0  0  0  0  0  0
   -4.8076    0.8640    0.0976 H   0  0  0  0  0  0  0  0  0  0  0  0
   -4.7085   -1.1346    0.9305 C   0  0  0  0  0  0  0  0  0  0  0  0
   -5.7892   -1.1991    1.1290 H   0  0  0  0  0  0  0  0  0  0  0  0
   -3.8532   -2.1929    1.2621 C   0  0  0  0  0  0  0  0  0  0  0  0
   -4.2238   -3.1142    1.7329 H   0  0  0  0  0  0  0  0  0  0  0  0
   -2.4914   -2.0589    0.9860 C   0  0  0  0  0  0  0  0  0  0  0  0
   -1.7650   -2.8422    1.2438 H   0  0  0  0  0  0  0  0  0  0  0  0
    2.7750    0.1068   -0.0781 C   0  0  2  0  0  3  0  0  0  0  0  0
    4.1575    0.0132   -0.3511 C   0  0  0  0  0  0  0  0  0  0  0  0
    4.8076    0.8639   -0.0983 H   0  0  0  0  0  0  0  0  0  0  0  0
    4.7083   -1.1347   -0.9311 C   0  0  0  0  0  0  0  0  0  0  0  0
    5.7890   -1.1993   -1.1299 H   0  0  0  0  0  0  0  0  0  0  0  0
    3.8529   -2.1931   -1.2625 C   0  0  0  0  0  0  0  0  0  0  0  0
    4.2234   -3.1144   -1.7333 H   0  0  0  0  0  0  0  0  0  0  0  0
    2.4911   -2.0590   -0.9860 C   0  0  0  0  0  0  0  0  0  0  0  0
    1.7647   -2.8424   -1.2436 H   0  0  0  0  0  0  0  0  0  0  0  0
   -2.8204    1.7198   -2.5295 C   0  0  0  0  0  0  0  0  0  0  0  0
   -3.9173    1.5626   -2.5662 H   0  0  0  0  0  0  0  0  0  0  0  0
   -2.3227    0.8894   -3.0690 H   0  0  0  0  0  0  0  0  0  0  0  0
   -2.5903    2.6750   -3.0452 H   0  0  0  0  0  0  0  0  0  0  0  0
   -3.0368    3.1263    0.2373 C   0  0  0  0  0  0  0  0  0  0  0  0
   -2.7211    3.1061    1.3004 H   0  0  0  0  0  0  0  0  0  0  0  0
   -4.1431    3.0636    0.2069 H   0  0  0  0  0  0  0  0  0  0  0  0
   -2.7502    4.1131   -0.1826 H   0  0  0  0  0  0  0  0  0  0  0  0
   -0.3149    2.0905   -0.7062 C   0  0  0  0  0  0  0  0  0  0  0  0
    0.1637    1.3540   -1.3858 H   0  0  0  0  0  0  0  0  0  0  0  0
   -0.1750    3.0816   -1.1939 H   0  0  0  0  0  0  0  0  0  0  0  0
    0.3152    2.0905    0.7063 C   0  0  0  0  0  0  0  0  0  0  0  0
   -0.1635    1.3541    1.3858 H   0  0  0  0  0  0  0  0  0  0  0  0
    0.1753    3.0817    1.1938 H   0  0  0  0  0  0  0  0  0  0  0  0
    3.0372    3.1261   -0.2370 C   0  0  0  0  0  0  0  0  0  0  0  0
    2.7219    3.1060   -1.3002 H   0  0  0  0  0  0  0  0  0  0  0  0
    4.1435    3.0636   -0.2063 H   0  0  0  0  0  0  0  0  0  0  0  0
    2.7504    4.1129    0.1828 H   0  0  0  0  0  0  0  0  0  0  0  0
    2.8206    1.7193    2.5296 C   0  0  0  0  0  0  0  0  0  0  0  0
    2.3228    0.8889    3.0690 H   0  0  0  0  0  0  0  0  0  0  0  0
    2.5906    2.6745    3.0454 H   0  0  0  0  0  0  0  0  0  0  0  0
    3.9175    1.5619    2.5663 H   0  0  0  0  0  0  0  0  0  0  0  0
  1 31  1  0  0  0  0
  1 27  1  0  0  0  0
  2 41  1  0  0  0  0
  3 12  1  0  0  0  0
  4 14  1  0  0  0  0
  5  1  1  6  0  0  0
  5  6  1  0  0  0  0
  5  3  1  0  0  0  0
  6  8  2  0  0  0  0
  7  6  1  0  0  0  0
  8  9  1  0  0  0  0
  8 10  1  0  0  0  0
 10 11  1  0  0  0  0
 12 13  1  0  0  0  0
 12 10  2  0  0  0  0
 14  2  1  1  0  0  0
 15 16  1  0  0  0  0
 15 14  1  0  0  0  0
 17 15  2  0  0  0  0
 18 17  1  0  0  0  0
 19 21  2  0  0  0  0
 19 17  1  0  0  0  0
 20 19  1  0  0  0  0
 21  4  1  0  0  0  0
 22 21  1  0  0  0  0
 23  1  1  0  0  0  0
 24 23  1  0  0  0  0
 25 23  1  0  0  0  0
 26 23  1  0  0  0  0
 27 28  1  0  0  0  0
 29 27  1  0  0  0  0
 30 27  1  0  0  0  0
 31 34  1  0  0  0  0
 32 31  1  0  0  0  0
 33 31  1  0  0  0  0
 34  2  1  0  0  0  0
 34 36  1  0  0  0  0
 34 35  1  0  0  0  0
 37 39  1  0  0  0  0
 37 40  1  0  0  0  0
 37  2  1  0  0  0  0
 38 37  1  0  0  0  0
 41 44  1  0  0  0  0
 41 43  1  0  0  0  0
 41 42  1  0  0  0  0
M  END
