7,8
 OpenBabel05122313053D

 57 58  0  0  1  0  0  0  0  0999 V2000
    2.6050    1.5427   -1.0994 P   0  0  0  0  0  0  0  0  0  0  0  0
    2.4492    1.1727   -2.5500 O   0  0  0  0  0  0  0  0  0  0  0  0
    3.7875    0.8053   -0.2699 O   0  0  0  0  0  0  0  0  0  0  0  0
    2.8556    3.0990   -0.6922 O   0  0  0  0  0  0  0  0  0  0  0  0
   -6.4120    2.3949    0.1006 O   0  0  0  0  0  0  0  0  0  0  0  0
   -7.5563    0.1381   -0.5019 O   0  0  0  0  0  0  0  0  0  0  0  0
    1.3112   -0.2498    1.5965 N   0  0  0  0  0  2  0  0  0  0  0  0
    0.2923    0.1803   -0.8900 N   0  0  0  0  0  0  0  0  0  0  0  0
    0.6756    0.1373   -1.8564 H   0  0  0  0  0  0  0  0  0  0  0  0
    1.5791   -0.5823    2.8833 C   0  0  0  0  0  3  0  0  0  0  0  0
    1.6857   -1.6660    3.0589 H   0  0  0  0  0  0  0  0  0  0  0  0
    1.7242    0.3926    3.8727 C   0  0  0  0  0  0  0  0  0  0  0  0
    1.9448    0.0808    4.9034 H   0  0  0  0  0  0  0  0  0  0  0  0
    1.5857    1.7478    3.5342 C   0  0  0  0  0  0  0  0  0  0  0  0
    1.6934    2.5327    4.2970 H   0  0  0  0  0  0  0  0  0  0  0  0
    1.3067    2.0857    2.2023 C   0  0  0  0  0  0  0  0  0  0  0  0
    1.2061    3.1323    1.8825 H   0  0  0  0  0  0  0  0  0  0  0  0
    1.1744    1.0671    1.2536 C   0  0  0  0  0  0  0  0  0  0  0  0
    0.9707    1.3187   -0.2124 C   0  0  1  0  0  0  0  0  0  0  0  0
    0.4295    2.2746   -0.3850 H   0  0  0  0  0  0  0  0  0  0  0  0
    4.2925   -0.5067   -0.6852 C   0  0  0  0  0  0  0  0  0  0  0  0
    4.7045   -0.9445    0.2443 H   0  0  0  0  0  0  0  0  0  0  0  0
    3.4352   -1.1434   -0.9930 H   0  0  0  0  0  0  0  0  0  0  0  0
    5.3314   -0.3706   -1.7786 C   0  0  0  0  0  0  0  0  0  0  0  0
    6.1746    0.2747   -1.4582 H   0  0  0  0  0  0  0  0  0  0  0  0
    4.8738    0.0559   -2.6928 H   0  0  0  0  0  0  0  0  0  0  0  0
    5.7381   -1.3708   -2.0299 H   0  0  0  0  0  0  0  0  0  0  0  0
    4.1323    3.7208   -0.9880 C   0  0  0  0  0  0  0  0  0  0  0  0
    4.3252    3.6421   -2.0797 H   0  0  0  0  0  0  0  0  0  0  0  0
    4.9304    3.1615   -0.4555 H   0  0  0  0  0  0  0  0  0  0  0  0
    4.0671    5.1656   -0.5407 C   0  0  0  0  0  0  0  0  0  0  0  0
    3.8728    5.2324    0.5483 H   0  0  0  0  0  0  0  0  0  0  0  0
    3.2632    5.7097   -1.0745 H   0  0  0  0  0  0  0  0  0  0  0  0
    5.0301    5.6712   -0.7527 H   0  0  0  0  0  0  0  0  0  0  0  0
   -1.1908    0.2844   -0.9954 C   0  0  0  0  0  0  0  0  0  0  0  0
   -1.4950   -0.5791   -1.6197 H   0  0  0  0  0  0  0  0  0  0  0  0
   -1.4475    1.2179   -1.5453 H   0  0  0  0  0  0  0  0  0  0  0  0
   -1.9151    0.2330    0.3516 C   0  0  0  0  0  0  0  0  0  0  0  0
   -1.6396    1.1111    0.9737 H   0  0  0  0  0  0  0  0  0  0  0  0
   -1.5603   -0.6721    0.8898 H   0  0  0  0  0  0  0  0  0  0  0  0
   -3.4132    0.1789    0.1595 C   0  0  0  0  0  0  0  0  0  0  0  0
   -4.1986    1.3506    0.2491 C   0  0  0  0  0  0  0  0  0  0  0  0
   -3.7092    2.3007    0.5061 H   0  0  0  0  0  0  0  0  0  0  0  0
   -5.5831    1.3184    0.0266 C   0  0  0  0  0  0  0  0  0  0  0  0
   -5.8458    3.6466    0.4229 C   0  0  0  0  0  0  0  0  0  0  0  0
   -6.6779    4.3752    0.4318 H   0  0  0  0  0  0  0  0  0  0  0  0
   -5.0912    3.9703   -0.3304 H   0  0  0  0  0  0  0  0  0  0  0  0
   -5.3611    3.6402    1.4262 H   0  0  0  0  0  0  0  0  0  0  0  0
   -6.2128    0.0793   -0.3037 C   0  0  0  0  0  0  0  0  0  0  0  0
   -8.2289   -1.0600   -0.8318 C   0  0  0  0  0  0  0  0  0  0  0  0
   -9.2965   -0.7973   -0.9515 H   0  0  0  0  0  0  0  0  0  0  0  0
   -8.1328   -1.8264   -0.0293 H   0  0  0  0  0  0  0  0  0  0  0  0
   -7.8551   -1.4987   -1.7849 H   0  0  0  0  0  0  0  0  0  0  0  0
   -5.4289   -1.0808   -0.3946 C   0  0  0  0  0  0  0  0  0  0  0  0
   -5.8973   -2.0425   -0.6426 H   0  0  0  0  0  0  0  0  0  0  0  0
   -4.0415   -1.0310   -0.1659 C   0  0  0  0  0  0  0  0  0  0  0  0
   -3.4457   -1.9540   -0.2415 H   0  0  0  0  0  0  0  0  0  0  0  0
  1  4  1  0  0  0  0
  1  3  1  0  0  0  0
  1 19  1  0  0  0  0
  2  1  2  0  0  0  0
  5 45  1  0  0  0  0
  6 49  1  0  0  0  0
  7 10  1  0  0  0  0
  8 19  1  0  0  0  0
  9  8  1  0  0  0  0
 10 11  1  0  0  0  0
 10 12  1  0  0  0  0
 12 13  1  0  0  0  0
 14 12  2  0  0  0  0
 14 15  1  0  0  0  0
 16 14  1  0  0  0  0
 17 16  1  0  0  0  0
 18  7  1  0  0  0  0
 18 16  2  0  0  0  0
 19 20  1  6  0  0  0
 19 18  1  0  0  0  0
 21  3  1  0  0  0  0
 21 22  1  0  0  0  0
 23 21  1  0  0  0  0
 24 25  1  0  0  0  0
 24 21  1  0  0  0  0
 26 24  1  0  0  0  0
 27 24  1  0  0  0  0
 28  4  1  0  0  0  0
 28 31  1  0  0  0  0
 28 30  1  0  0  0  0
 29 28  1  0  0  0  0
 31 32  1  0  0  0  0
 33 31  1  0  0  0  0
 34 31  1  0  0  0  0
 35  8  1  0  0  0  0
 35 38  1  0  0  0  0
 36 35  1  0  0  0  0
 37 35  1  0  0  0  0
 38 40  1  0  0  0  0
 38 39  1  0  0  0  0
 41 42  1  0  0  0  0
 41 38  1  0  0  0  0
 42 43  1  0  0  0  0
 44  5  1  0  0  0  0
 44 42  2  0  0  0  0
 45 46  1  0  0  0  0
 45 48  1  0  0  0  0
 47 45  1  0  0  0  0
 49 44  1  0  0  0  0
 50  6  1  0  0  0  0
 50 52  1  0  0  0  0
 51 50  1  0  0  0  0
 53 50  1  0  0  0  0
 54 49  2  0  0  0  0
 54 56  1  0  0  0  0
 55 54  1  0  0  0  0
 56 41  2  0  0  0  0
 57 56  1  0  0  0  0
M  END
