1,2
 OpenBabel05122313053D

 24 25  0  0  1  0  0  0  0  0999 V2000
   -1.3152   -0.6972   -0.6189 N   0  0  0  0  0  2  0  0  0  0  0  0
   -1.9322    1.2866    0.2642 N   0  0  0  0  0  2  0  0  0  0  0  0
   -2.3362    3.1139    1.5683 N   0  0  0  0  0  0  0  0  0  0  0  0
   -1.3883    2.9129    1.9278 H   0  0  0  0  0  0  0  0  0  0  0  0
   -2.9685    3.6352    2.1727 H   0  0  0  0  0  0  0  0  0  0  0  0
   -2.3333    0.1946   -0.4069 C   0  0  2  0  0  3  0  0  0  0  0  0
   -2.8412    2.1209    0.7780 C   0  0  1  0  0  3  0  0  0  0  0  0
   -4.2352    1.9728    0.4597 C   0  0  0  0  0  0  0  0  0  0  0  0
   -4.9677    2.7065    0.8289 H   0  0  0  0  0  0  0  0  0  0  0  0
   -4.6389    0.9044   -0.3275 C   0  0  0  0  0  0  0  0  0  0  0  0
   -5.7037    0.7822   -0.5750 H   0  0  0  0  0  0  0  0  0  0  0  0
   -3.6875   -0.0676   -0.7720 C   0  0  0  0  0  0  0  0  0  0  0  0
   -3.9594   -1.2894   -1.4606 C   0  0  0  0  0  0  0  0  0  0  0  0
   -2.8856   -2.1588   -1.6769 C   0  0  0  0  0  0  0  0  0  0  0  0
   -3.0568   -3.1181   -2.1875 H   0  0  0  0  0  0  0  0  0  0  0  0
   -1.5742   -1.8712   -1.2127 C   0  0  0  0  0  0  0  0  0  0  0  0
   -5.3565   -1.6430   -1.8870 C   0  0  0  0  0  0  0  0  0  0  0  0
   -5.7908   -0.8592   -2.5424 H   0  0  0  0  0  0  0  0  0  0  0  0
   -6.0312   -1.7337   -1.0094 H   0  0  0  0  0  0  0  0  0  0  0  0
   -5.3821   -2.6034   -2.4351 H   0  0  0  0  0  0  0  0  0  0  0  0
   -0.4553   -2.8589   -1.3145 C   0  0  0  0  0  0  0  0  0  0  0  0
   -0.1018   -3.0929   -0.2885 H   0  0  0  0  0  0  0  0  0  0  0  0
    0.4121   -2.4215   -1.8468 H   0  0  0  0  0  0  0  0  0  0  0  0
   -0.7739   -3.7863   -1.8244 H   0  0  0  0  0  0  0  0  0  0  0  0
  1  6  1  0  0  0  0
  2  7  1  0  0  0  0
  3  4  1  0  0  0  0
  3  5  1  0  0  0  0
  6 12  1  1  0  0  0
  6  2  1  0  0  0  0
  7  3  1  6  0  0  0
  8  7  1  0  0  0  0
  8  9  1  0  0  0  0
 10  8  2  0  0  0  0
 11 10  1  0  0  0  0
 12 10  1  0  0  0  0
 13 12  2  0  0  0  0
 14 13  1  0  0  0  0
 14 16  2  0  0  0  0
 15 14  1  0  0  0  0
 16  1  1  0  0  0  0
 17 13  1  0  0  0  0
 17 19  1  0  0  0  0
 18 17  1  0  0  0  0
 20 17  1  0  0  0  0
 21 16  1  0  0  0  0
 21 22  1  0  0  0  0
 23 21  1  0  0  0  0
 24 21  1  0  0  0  0
M  END
