1,3
 OpenBabel05122313053D

 44 46  0  0  1  0  0  0  0  0999 V2000
   -0.2111   -0.6722    1.0849 N   0  0  0  0  0  2  0  0  0  0  0  0
   -1.1903    0.2789    1.0835 N   0  0  0  0  0  0  0  0  0  0  0  0
    1.1685    1.6233   -0.2269 N   0  0  0  0  0  2  0  0  0  0  0  0
   -0.0595    2.1418    0.0634 N   0  0  0  0  0  0  0  0  0  0  0  0
   -0.5213   -1.5165    2.0965 C   0  0  2  0  0  3  0  0  0  0  0  0
   -1.7214   -1.0978    2.7214 C   0  0  0  0  0  0  0  0  0  0  0  0
   -2.1350    0.0503    2.0554 C   0  0  0  0  0  0  0  0  0  0  0  0
    0.3203   -2.6887    2.4753 C   0  0  0  0  0  0  0  0  0  0  0  0
   -3.3485    0.8976    2.2487 C   0  0  0  0  0  0  0  0  0  0  0  0
    2.0146    2.6791   -0.2560 C   0  0  1  0  0  3  0  0  0  0  0  0
    1.3014    3.8752    0.0077 C   0  0  0  0  0  0  0  0  0  0  0  0
   -0.0247    3.5078    0.2091 C   0  0  0  0  0  0  0  0  0  0  0  0
    3.4800    2.5506   -0.5052 C   0  0  0  0  0  0  0  0  0  0  0  0
   -1.2290    4.3356    0.5173 C   0  0  0  0  0  0  0  0  0  0  0  0
   -1.2613    1.3278    0.0797 C   0  0  1  0  0  0  0  0  0  0  0  0
   -1.6747    0.8374   -1.3257 C   0  0  0  0  0  0  0  0  0  0  0  0
   -2.9356    0.0134   -1.2712 C   0  0  0  0  0  0  0  0  0  0  0  0
   -2.8724   -1.3614   -0.9631 C   0  0  0  0  0  0  0  0  0  0  0  0
   -4.0471   -2.1146   -0.8270 C   0  0  0  0  0  0  0  0  0  0  0  0
   -5.3015   -1.5073   -1.0001 C   0  0  0  0  0  0  0  0  0  0  0  0
   -5.3760   -0.1416   -1.3168 C   0  0  0  0  0  0  0  0  0  0  0  0
   -4.1993    0.6122   -1.4489 C   0  0  0  0  0  0  0  0  0  0  0  0
   -0.8354    0.2608   -1.7546 H   0  0  0  0  0  0  0  0  0  0  0  0
   -4.0198    0.8587    1.3650 H   0  0  0  0  0  0  0  0  0  0  0  0
   -2.0591    1.9993    0.4419 H   0  0  0  0  0  0  0  0  0  0  0  0
   -1.8899   -1.8392   -0.8261 H   0  0  0  0  0  0  0  0  0  0  0  0
   -6.3551    0.3386   -1.4665 H   0  0  0  0  0  0  0  0  0  0  0  0
   -3.0976    1.9618    2.4446 H   0  0  0  0  0  0  0  0  0  0  0  0
    1.7132    4.8884    0.0521 H   0  0  0  0  0  0  0  0  0  0  0  0
   -1.8135    1.7423   -1.9510 H   0  0  0  0  0  0  0  0  0  0  0  0
    3.6908    2.1285   -1.5064 H   0  0  0  0  0  0  0  0  0  0  0  0
    1.3670   -2.3856    2.6732 H   0  0  0  0  0  0  0  0  0  0  0  0
   -4.2602    1.6836   -1.7014 H   0  0  0  0  0  0  0  0  0  0  0  0
   -1.6997    4.0515    1.4825 H   0  0  0  0  0  0  0  0  0  0  0  0
   -2.2255   -1.5803    3.5646 H   0  0  0  0  0  0  0  0  0  0  0  0
    0.3565   -3.4466    1.6692 H   0  0  0  0  0  0  0  0  0  0  0  0
   -2.0077    4.2649   -0.2714 H   0  0  0  0  0  0  0  0  0  0  0  0
   -3.9813   -3.1865   -0.5867 H   0  0  0  0  0  0  0  0  0  0  0  0
   -0.0885   -3.1651    3.3858 H   0  0  0  0  0  0  0  0  0  0  0  0
    3.9615    3.5436   -0.4338 H   0  0  0  0  0  0  0  0  0  0  0  0
    3.9550    1.8739    0.2323 H   0  0  0  0  0  0  0  0  0  0  0  0
   -3.9172    0.5278    3.1212 H   0  0  0  0  0  0  0  0  0  0  0  0
   -0.9341    5.3980    0.5950 H   0  0  0  0  0  0  0  0  0  0  0  0
   -6.2224   -2.1010   -0.8961 H   0  0  0  0  0  0  0  0  0  0  0  0
  1  5  1  0  0  0  0
  2  1  1  0  0  0  0
  2  7  1  0  0  0  0
  3  4  1  0  0  0  0
  4 15  1  0  0  0  0
  4 12  1  0  0  0  0
  5  8  1  1  0  0  0
  5  6  1  0  0  0  0
  6 35  1  0  0  0  0
  7  9  1  0  0  0  0
  7  6  2  0  0  0  0
  8 32  1  0  0  0  0
  8 39  1  0  0  0  0
  9 28  1  0  0  0  0
  9 42  1  0  0  0  0
 10 13  1  1  0  0  0
 10  3  1  0  0  0  0
 10 11  1  0  0  0  0
 11 29  1  0  0  0  0
 11 12  2  0  0  0  0
 12 14  1  0  0  0  0
 13 40  1  0  0  0  0
 13 41  1  0  0  0  0
 14 43  1  0  0  0  0
 14 34  1  0  0  0  0
 15 25  1  1  0  0  0
 15  2  1  0  0  0  0
 16 17  1  0  0  0  0
 16 15  1  0  0  0  0
 17 18  1  0  0  0  0
 18 19  2  0  0  0  0
 18 26  1  0  0  0  0
 19 38  1  0  0  0  0
 20 44  1  0  0  0  0
 20 19  1  0  0  0  0
 21 20  2  0  0  0  0
 22 21  1  0  0  0  0
 22 17  2  0  0  0  0
 23 16  1  0  0  0  0
 24  9  1  0  0  0  0
 27 21  1  0  0  0  0
 30 16  1  0  0  0  0
 31 13  1  0  0  0  0
 33 22  1  0  0  0  0
 36  8  1  0  0  0  0
 37 14  1  0  0  0  0
M  END
