2,3
 OpenBabel05122313053D

 28 29  0  0  0  0  0  0  0  0999 V2000
   -6.2699   -0.7106   -0.3584 O   0  0  0  0  0  0  0  0  0  0  0  0
    2.3663    1.3317   -0.1980 N   0  0  0  0  0  2  0  0  0  0  0  0
   -0.2072    1.2998   -0.2292 N   0  0  0  0  0  2  0  0  0  0  0  0
   -6.7162    1.4312    0.3068 N   0  0  0  0  0  0  0  0  0  0  0  0
   -6.4240    2.4073    0.3034 H   0  0  0  0  0  0  0  0  0  0  0  0
   -7.7187    1.2356    0.2866 H   0  0  0  0  0  0  0  0  0  0  0  0
    3.7102    1.2373   -0.2741 C   0  0  0  0  0  3  0  0  0  0  0  0
    4.1440    0.2489   -0.0708 H   0  0  0  0  0  0  0  0  0  0  0  0
    4.5143    2.3315   -0.6115 C   0  0  0  0  0  0  0  0  0  0  0  0
    5.6053    2.2046   -0.6491 H   0  0  0  0  0  0  0  0  0  0  0  0
    3.9125    3.5670   -0.9041 C   0  0  0  0  0  0  0  0  0  0  0  0
    4.5248    4.4392   -1.1748 H   0  0  0  0  0  0  0  0  0  0  0  0
    2.5187    3.6611   -0.8642 C   0  0  0  0  0  0  0  0  0  0  0  0
    1.9989    4.5967   -1.1149 H   0  0  0  0  0  0  0  0  0  0  0  0
    1.7654    2.5250   -0.5147 C   0  0  0  0  0  0  0  0  0  0  0  0
    0.3258    2.4660   -0.5012 C   0  0  0  0  0  3  0  0  0  0  0  0
   -0.2983    3.3401   -0.7510 H   0  0  0  0  0  0  0  0  0  0  0  0
   -1.6193    1.1368   -0.1984 C   0  0  0  0  0  0  0  0  0  0  0  0
   -2.2019    0.0877   -0.9407 C   0  0  0  0  0  0  0  0  0  0  0  0
   -1.5507   -0.5421   -1.5638 H   0  0  0  0  0  0  0  0  0  0  0  0
   -3.5838   -0.0970   -0.8941 C   0  0  0  0  0  0  0  0  0  0  0  0
   -4.0714   -0.9117   -1.4498 H   0  0  0  0  0  0  0  0  0  0  0  0
   -4.4024    0.7520   -0.1197 C   0  0  0  0  0  0  0  0  0  0  0  0
   -3.8087    1.7921    0.6208 C   0  0  0  0  0  0  0  0  0  0  0  0
   -4.4213    2.4328    1.2728 H   0  0  0  0  0  0  0  0  0  0  0  0
   -2.4214    1.9924    0.5825 C   0  0  0  0  0  0  0  0  0  0  0  0
   -1.9534    2.7809    1.1910 H   0  0  0  0  0  0  0  0  0  0  0  0
   -5.8797    0.4196   -0.0793 C   0  0  0  0  0  0  0  0  0  0  0  0
  1 28  2  0  0  0  0
  3 18  1  0  0  0  0
  5  4  1  0  0  0  0
  6  4  1  0  0  0  0
  7  2  1  0  0  0  0
  7  8  1  0  0  0  0
  9  7  1  0  0  0  0
 10  9  1  0  0  0  0
 11 13  1  0  0  0  0
 11  9  2  0  0  0  0
 12 11  1  0  0  0  0
 13 15  2  0  0  0  0
 14 13  1  0  0  0  0
 15 16  1  0  0  0  0
 15  2  1  0  0  0  0
 16  3  1  0  0  0  0
 17 16  1  0  0  0  0
 18 26  1  0  0  0  0
 19 21  1  0  0  0  0
 19 18  2  0  0  0  0
 20 19  1  0  0  0  0
 21 23  2  0  0  0  0
 22 21  1  0  0  0  0
 23 28  1  0  0  0  0
 23 24  1  0  0  0  0
 24 25  1  0  0  0  0
 26 24  2  0  0  0  0
 26 27  1  0  0  0  0
 28  4  1  0  0  0  0
M  END
