1,3
 OpenBabel05122313053D

 19 20  0  0  1  0  0  0  0  0999 V2000
    0.5288    1.2836   -0.6650 N   0  0  0  0  0  2  0  0  0  0  0  0
    2.8583    2.7669   -1.1645 N   0  0  0  0  0  0  0  0  0  0  0  0
    0.4876   -1.3751   -0.5625 N   0  0  0  0  0  2  0  0  0  0  0  0
    0.4982    2.6303   -0.7373 C   0  0  0  0  0  3  0  0  0  0  0  0
   -0.4731    3.1177   -0.5710 H   0  0  0  0  0  0  0  0  0  0  0  0
    1.6652    3.3597   -0.9923 C   0  0  0  0  0  0  0  0  0  0  0  0
    1.6286    4.4605   -1.0491 H   0  0  0  0  0  0  0  0  0  0  0  0
    2.8814    1.4345   -1.0918 C   0  0  0  0  0  0  0  0  0  0  0  0
    3.8613    0.9479   -1.2210 H   0  0  0  0  0  0  0  0  0  0  0  0
    1.7250    0.6596   -0.8572 C   0  0  0  0  0  0  0  0  0  0  0  0
    1.7067   -0.8122   -0.8055 C   0  0  2  0  0  3  0  0  0  0  0  0
    2.8498   -1.6093   -0.9947 C   0  0  0  0  0  0  0  0  0  0  0  0
    3.8271   -1.1407   -1.1646 H   0  0  0  0  0  0  0  0  0  0  0  0
    2.7304   -3.0012   -0.9555 C   0  0  0  0  0  0  0  0  0  0  0  0
    3.6162   -3.6375   -1.0948 H   0  0  0  0  0  0  0  0  0  0  0  0
    1.4673   -3.5677   -0.7297 C   0  0  0  0  0  0  0  0  0  0  0  0
    1.3239   -4.6564   -0.6906 H   0  0  0  0  0  0  0  0  0  0  0  0
    0.3738   -2.7194   -0.5341 C   0  0  0  0  0  0  0  0  0  0  0  0
   -0.6315   -3.1149   -0.3303 H   0  0  0  0  0  0  0  0  0  0  0  0
  2  8  1  0  0  0  0
  2  6  2  0  0  0  0
  3 18  1  0  0  0  0
  4  1  1  0  0  0  0
  4  5  1  0  0  0  0
  6  4  1  0  0  0  0
  7  6  1  0  0  0  0
  8 10  2  0  0  0  0
  9  8  1  0  0  0  0
 10  1  1  0  0  0  0
 11 10  1  6  0  0  0
 11  3  1  0  0  0  0
 12 14  2  0  0  0  0
 12 11  1  0  0  0  0
 13 12  1  0  0  0  0
 14 16  1  0  0  0  0
 15 14  1  0  0  0  0
 16 17  1  0  0  0  0
 16 18  2  0  0  0  0
 18 19  1  0  0  0  0
M  END
