1,2
 OpenBabel05122313053D

 19 20  0  0  1  0  0  0  0  0999 V2000
    0.5310    1.3472   -0.5803 N   0  0  0  0  0  2  0  0  0  0  0  0
    0.5232   -1.3283   -0.6076 N   0  0  0  0  0  2  0  0  0  0  0  0
    2.8533   -1.3734   -1.1606 N   0  0  0  0  0  0  0  0  0  0  0  0
    0.4711    2.6948   -0.5587 C   0  0  0  0  0  3  0  0  0  0  0  0
   -0.5123    3.1331   -0.3362 H   0  0  0  0  0  0  0  0  0  0  0  0
    1.5960    3.4953   -0.7868 C   0  0  0  0  0  0  0  0  0  0  0  0
    1.4957    4.5891   -0.7511 H   0  0  0  0  0  0  0  0  0  0  0  0
    2.8320    2.8814   -1.0418 C   0  0  0  0  0  0  0  0  0  0  0  0
    3.7355    3.4858   -1.2089 H   0  0  0  0  0  0  0  0  0  0  0  0
    2.8969    1.4853   -1.0712 C   0  0  0  0  0  0  0  0  0  0  0  0
    3.8268    0.9325   -1.2587 H   0  0  0  0  0  0  0  0  0  0  0  0
    1.7246    0.7489   -0.8432 C   0  0  0  0  0  0  0  0  0  0  0  0
    1.7201   -0.7267   -0.8694 C   0  0  1  0  0  3  0  0  0  0  0  0
    2.8155   -2.7100   -1.1728 C   0  0  0  0  0  0  0  0  0  0  0  0
    3.7603   -3.2324   -1.4013 H   0  0  0  0  0  0  0  0  0  0  0  0
    1.6347   -3.4245   -0.9093 C   0  0  0  0  0  0  0  0  0  0  0  0
    1.6051   -4.5224   -0.9174 H   0  0  0  0  0  0  0  0  0  0  0  0
    0.4888   -2.6778   -0.6300 C   0  0  0  0  0  0  0  0  0  0  0  0
   -0.4809   -3.1470   -0.4072 H   0  0  0  0  0  0  0  0  0  0  0  0
  1  4  1  0  0  0  0
  3 13  1  0  0  0  0
  4  5  1  0  0  0  0
  6  7  1  0  0  0  0
  6  4  1  0  0  0  0
  8  6  2  0  0  0  0
  9  8  1  0  0  0  0
 10  8  1  0  0  0  0
 10 12  2  0  0  0  0
 11 10  1  0  0  0  0
 12  1  1  0  0  0  0
 13 12  1  6  0  0  0
 13  2  1  0  0  0  0
 14  3  2  0  0  0  0
 14 16  1  0  0  0  0
 15 14  1  0  0  0  0
 16 18  2  0  0  0  0
 17 16  1  0  0  0  0
 18  2  1  0  0  0  0
 18 19  1  0  0  0  0
M  END
