1,3
 OpenBabel05122313053D

 19 20  0  0  1  0  0  0  0  0999 V2000
   -0.4834   -1.3281   -0.6619 N   0  0  0  0  0  2  0  0  0  0  0  0
   -1.4241   -3.5050   -0.9240 N   0  0  0  0  0  0  0  0  0  0  0  0
   -0.5180    1.3281   -0.6376 N   0  0  0  0  0  2  0  0  0  0  0  0
   -0.4040   -2.6780   -0.7189 C   0  0  0  0  0  3  0  0  0  0  0  0
    0.5990   -3.1094   -0.5684 H   0  0  0  0  0  0  0  0  0  0  0  0
   -2.6375   -2.9444   -1.0725 C   0  0  0  0  0  0  0  0  0  0  0  0
   -3.4892   -3.6311   -1.2157 H   0  0  0  0  0  0  0  0  0  0  0  0
   -2.8331   -1.5601   -1.0477 C   0  0  0  0  0  0  0  0  0  0  0  0
   -3.8346   -1.1301   -1.1717 H   0  0  0  0  0  0  0  0  0  0  0  0
   -1.7038   -0.7490   -0.8504 C   0  0  0  0  0  0  0  0  0  0  0  0
   -1.7254    0.7256   -0.8415 C   0  0  2  0  0  3  0  0  0  0  0  0
   -2.8934    1.4819   -1.0371 C   0  0  0  0  0  0  0  0  0  0  0  0
   -3.8595    0.9795   -1.1710 H   0  0  0  0  0  0  0  0  0  0  0  0
   -2.8128    2.8775   -1.0515 C   0  0  0  0  0  0  0  0  0  0  0  0
   -3.7182    3.4845   -1.1954 H   0  0  0  0  0  0  0  0  0  0  0  0
   -1.5615    3.4847   -0.8727 C   0  0  0  0  0  0  0  0  0  0  0  0
   -1.4473    4.5776   -0.8772 H   0  0  0  0  0  0  0  0  0  0  0  0
   -0.4408    2.6745   -0.6642 C   0  0  0  0  0  0  0  0  0  0  0  0
    0.5559    3.1050   -0.4911 H   0  0  0  0  0  0  0  0  0  0  0  0
  2  4  1  0  0  0  0
  4  1  1  0  0  0  0
  4  5  1  0  0  0  0
  6  8  1  0  0  0  0
  6  2  2  0  0  0  0
  7  6  1  0  0  0  0
  8 10  2  0  0  0  0
  9  8  1  0  0  0  0
 10  1  1  0  0  0  0
 11 10  1  6  0  0  0
 11  3  1  0  0  0  0
 12 11  1  0  0  0  0
 13 12  1  0  0  0  0
 14 12  2  0  0  0  0
 14 16  1  0  0  0  0
 15 14  1  0  0  0  0
 16 18  2  0  0  0  0
 17 16  1  0  0  0  0
 18  3  1  0  0  0  0
 18 19  1  0  0  0  0
M  END
