5,8
 OpenBabel05122313053D

 50 51  0  0  0  0  0  0  0  0999 V2000
    1.6377    2.9903    1.0145 O   0  0  0  0  0  0  0  0  0  0  0  0
    3.6749    2.0784   -0.7224 O   0  0  0  0  0  0  0  0  0  0  0  0
    5.1743   -0.5378   -0.5592 O   0  0  0  0  0  0  0  0  0  0  0  0
    4.5544   -2.4367    1.4584 O   0  0  0  0  0  0  0  0  0  0  0  0
   -1.9062    1.1444    1.0746 N   0  0  0  0  0  2  0  0  0  0  0  0
   -1.0985    2.9967    1.9781 N   0  0  0  0  0  0  0  0  0  0  0  0
    1.7811   -2.2416    0.2083 N   0  0  0  0  0  0  0  0  0  0  0  0
   -0.0711   -1.0430    0.0339 N   0  0  0  0  0  2  0  0  0  0  0  0
   -1.3820    2.3394    0.8179 C   0  0  0  0  0  3  0  0  0  0  0  0
   -1.1750    2.7210   -0.1904 H   0  0  0  0  0  0  0  0  0  0  0  0
   -1.9707    1.0152    2.4472 C   0  0  0  0  0  0  0  0  0  0  0  0
   -2.3782    0.1033    2.8996 H   0  0  0  0  0  0  0  0  0  0  0  0
   -1.4589    2.1601    3.0275 C   0  0  0  0  0  0  0  0  0  0  0  0
   -1.3299    2.4555    4.0736 H   0  0  0  0  0  0  0  0  0  0  0  0
   -0.2508    4.1742    2.0580 C   0  0  0  0  0  0  0  0  0  0  0  0
   -0.5171    4.7603    2.9610 H   0  0  0  0  0  0  0  0  0  0  0  0
   -0.4646    4.8117    1.1767 H   0  0  0  0  0  0  0  0  0  0  0  0
    1.2380    3.7806    2.1082 C   0  0  0  0  0  0  0  0  0  0  0  0
    1.8562    4.7069    2.1920 H   0  0  0  0  0  0  0  0  0  0  0  0
    1.4146    3.1694    3.0183 H   0  0  0  0  0  0  0  0  0  0  0  0
    2.0155    3.7055   -0.1505 C   0  0  0  0  0  0  0  0  0  0  0  0
    2.8195    4.4390    0.1018 H   0  0  0  0  0  0  0  0  0  0  0  0
    1.1587    4.2754   -0.5869 H   0  0  0  0  0  0  0  0  0  0  0  0
    2.5216    2.7405   -1.2050 C   0  0  0  0  0  0  0  0  0  0  0  0
    1.7188    2.0169   -1.4874 H   0  0  0  0  0  0  0  0  0  0  0  0
    2.7579    3.3404   -2.1199 H   0  0  0  0  0  0  0  0  0  0  0  0
    4.3899    1.4036   -1.7347 C   0  0  0  0  0  0  0  0  0  0  0  0
    4.7551    2.1286   -2.5062 H   0  0  0  0  0  0  0  0  0  0  0  0
    3.7492    0.6552   -2.2619 H   0  0  0  0  0  0  0  0  0  0  0  0
    5.5842    0.6905   -1.1285 C   0  0  0  0  0  0  0  0  0  0  0  0
    6.3520    0.5114   -1.9220 H   0  0  0  0  0  0  0  0  0  0  0  0
    6.0443    1.3589   -0.3608 H   0  0  0  0  0  0  0  0  0  0  0  0
    6.1674   -1.1881    0.2029 C   0  0  0  0  0  0  0  0  0  0  0  0
    6.4119   -0.6062    1.1255 H   0  0  0  0  0  0  0  0  0  0  0  0
    7.1157   -1.3052   -0.3795 H   0  0  0  0  0  0  0  0  0  0  0  0
    5.6570   -2.5661    0.5781 C   0  0  0  0  0  0  0  0  0  0  0  0
    5.3749   -3.0956   -0.3615 H   0  0  0  0  0  0  0  0  0  0  0  0
    6.4792   -3.1512    1.0582 H   0  0  0  0  0  0  0  0  0  0  0  0
    3.6042   -3.4816    1.3933 C   0  0  0  0  0  0  0  0  0  0  0  0
    3.0018   -3.4141    2.3225 H   0  0  0  0  0  0  0  0  0  0  0  0
    4.0992   -4.4830    1.3833 H   0  0  0  0  0  0  0  0  0  0  0  0
    2.6727   -3.3915    0.1781 C   0  0  0  0  0  0  0  0  0  0  0  0
    3.2706   -3.3647   -0.7586 H   0  0  0  0  0  0  0  0  0  0  0  0
    2.0444   -4.3035    0.1354 H   0  0  0  0  0  0  0  0  0  0  0  0
    2.1498   -0.9117    0.3683 C   0  0  0  0  0  0  0  0  0  0  0  0
    3.1927   -0.6105    0.4946 H   0  0  0  0  0  0  0  0  0  0  0  0
    0.4278   -2.2750    0.0107 C   0  0  0  0  0  3  0  0  0  0  0  0
   -0.1521   -3.1932   -0.1363 H   0  0  0  0  0  0  0  0  0  0  0  0
    0.9825   -0.1837    0.2657 C   0  0  0  0  0  0  0  0  0  0  0  0
    0.8522    0.8974    0.3607 H   0  0  0  0  0  0  0  0  0  0  0  0
  1 18  1  0  0  0  0
  3 33  1  0  0  0  0
  5 11  1  0  0  0  0
  6 15  1  0  0  0  0
  6 13  1  0  0  0  0
  7 45  1  0  0  0  0
  8 49  1  0  0  0  0
  9  5  1  0  0  0  0
  9  6  1  0  0  0  0
 10  9  1  0  0  0  0
 11 12  1  0  0  0  0
 11 13  2  0  0  0  0
 13 14  1  0  0  0  0
 15 18  1  0  0  0  0
 15 16  1  0  0  0  0
 17 15  1  0  0  0  0
 18 19  1  0  0  0  0
 18 20  1  0  0  0  0
 21 22  1  0  0  0  0
 21  1  1  0  0  0  0
 23 21  1  0  0  0  0
 24  2  1  0  0  0  0
 24 21  1  0  0  0  0
 25 24  1  0  0  0  0
 26 24  1  0  0  0  0
 27 30  1  0  0  0  0
 27  2  1  0  0  0  0
 28 27  1  0  0  0  0
 29 27  1  0  0  0  0
 30  3  1  0  0  0  0
 30 32  1  0  0  0  0
 31 30  1  0  0  0  0
 33 36  1  0  0  0  0
 33 34  1  0  0  0  0
 35 33  1  0  0  0  0
 36 38  1  0  0  0  0
 36  4  1  0  0  0  0
 37 36  1  0  0  0  0
 39  4  1  0  0  0  0
 39 40  1  0  0  0  0
 41 39  1  0  0  0  0
 42  7  1  0  0  0  0
 42 39  1  0  0  0  0
 43 42  1  0  0  0  0
 44 42  1  0  0  0  0
 45 46  1  0  0  0  0
 47  8  1  0  0  0  0
 47  7  1  0  0  0  0
 48 47  1  0  0  0  0
 49 50  1  0  0  0  0
 49 45  2  0  0  0  0
M  END
