2,3
 OpenBabel05122313053D

 30 31  0  0  0  0  0  0  0  0999 V2000
   -0.1572    3.1387   -0.4441 O   0  0  0  0  0  0  0  0  0  0  0  0
    2.4360    0.7350    0.0609 N   0  0  0  0  0  2  0  0  0  0  0  0
   -0.1811    0.8242   -0.4476 N   0  0  0  0  0  2  0  0  0  0  0  0
    3.7526    0.5626    0.2932 C   0  0  0  0  0  3  0  0  0  0  0  0
    4.0814   -0.4836    0.4104 H   0  0  0  0  0  0  0  0  0  0  0  0
    4.6028    1.6709    0.3749 C   0  0  0  0  0  0  0  0  0  0  0  0
    5.6737    1.5115    0.5635 H   0  0  0  0  0  0  0  0  0  0  0  0
    4.0694    2.9609    0.2166 C   0  0  0  0  0  0  0  0  0  0  0  0
    4.7232    3.8437    0.2792 H   0  0  0  0  0  0  0  0  0  0  0  0
    2.6972    3.1101   -0.0197 C   0  0  0  0  0  0  0  0  0  0  0  0
    2.1977    4.0813   -0.1502 H   0  0  0  0  0  0  0  0  0  0  0  0
    1.8980    1.9652   -0.0956 C   0  0  0  0  0  0  0  0  0  0  0  0
    0.4124    2.0477   -0.3424 C   0  0  0  0  0  0  0  0  0  0  0  0
   -1.6199    0.7402   -0.6377 C   0  0  0  0  0  0  0  0  0  0  0  0
   -1.8464   -0.1798   -1.2099 H   0  0  0  0  0  0  0  0  0  0  0  0
   -1.9334    1.6150   -1.2437 H   0  0  0  0  0  0  0  0  0  0  0  0
   -2.3953    0.7219    0.6958 C   0  0  0  0  0  0  0  0  0  0  0  0
   -1.9992   -0.1122    1.3112 H   0  0  0  0  0  0  0  0  0  0  0  0
   -2.1950    1.6698    1.2355 H   0  0  0  0  0  0  0  0  0  0  0  0
   -3.8764    0.5396    0.4707 C   0  0  0  0  0  0  0  0  0  0  0  0
   -4.7448    1.6470    0.3997 C   0  0  0  0  0  0  0  0  0  0  0  0
   -4.3390    2.6600    0.5533 H   0  0  0  0  0  0  0  0  0  0  0  0
   -6.1135    1.4721    0.1431 C   0  0  0  0  0  0  0  0  0  0  0  0
   -6.7783    2.3485    0.0973 H   0  0  0  0  0  0  0  0  0  0  0  0
   -6.6341    0.1833   -0.0521 C   0  0  0  0  0  0  0  0  0  0  0  0
   -7.7077    0.0443   -0.2509 H   0  0  0  0  0  0  0  0  0  0  0  0
   -5.7775   -0.9281    0.0104 C   0  0  0  0  0  0  0  0  0  0  0  0
   -6.1784   -1.9424   -0.1397 H   0  0  0  0  0  0  0  0  0  0  0  0
   -4.4105   -0.7504    0.2677 C   0  0  0  0  0  0  0  0  0  0  0  0
   -3.7373   -1.6214    0.3145 H   0  0  0  0  0  0  0  0  0  0  0  0
  1 13  2  0  0  0  0
  2  4  1  0  0  0  0
  3 13  1  0  0  0  0
  4  6  1  0  0  0  0
  4  5  1  0  0  0  0
  6  7  1  0  0  0  0
  8  9  1  0  0  0  0
  8  6  2  0  0  0  0
 10  8  1  0  0  0  0
 11 10  1  0  0  0  0
 12 10  2  0  0  0  0
 12  2  1  0  0  0  0
 13 12  1  0  0  0  0
 14  3  1  0  0  0  0
 14 17  1  0  0  0  0
 15 14  1  0  0  0  0
 16 14  1  0  0  0  0
 17 19  1  0  0  0  0
 17 18  1  0  0  0  0
 20 17  1  0  0  0  0
 21 20  1  0  0  0  0
 21 22  1  0  0  0  0
 23 21  2  0  0  0  0
 24 23  1  0  0  0  0
 25 27  2  0  0  0  0
 25 23  1  0  0  0  0
 26 25  1  0  0  0  0
 27 29  1  0  0  0  0
 28 27  1  0  0  0  0
 29 30  1  0  0  0  0
 29 20  2  0  0  0  0
M  END
