1,2
 OpenBabel05122313053D

 30 32  0  0  0  0  0  0  0  0999 V2000
    1.3147    0.6710   -0.0096 N   0  0  0  0  0  2  0  0  0  0  0  0
   -1.2938    0.9363    0.0167 N   0  0  0  0  0  2  0  0  0  0  0  0
    2.6704    0.5208    0.2211 C   0  0  0  0  0  0  0  0  0  0  0  0
    3.1957   -0.6960    0.7364 C   0  0  0  0  0  0  0  0  0  0  0  0
    2.5046   -1.5192    0.9530 H   0  0  0  0  0  0  0  0  0  0  0  0
    4.5620   -0.8340    0.9437 C   0  0  0  0  0  0  0  0  0  0  0  0
    4.9482   -1.7808    1.3496 H   0  0  0  0  0  0  0  0  0  0  0  0
    5.4595    0.2226    0.6488 C   0  0  0  0  0  0  0  0  0  0  0  0
    6.5394    0.0880    0.8105 H   0  0  0  0  0  0  0  0  0  0  0  0
    4.9696    1.4350    0.1846 C   0  0  0  0  0  0  0  0  0  0  0  0
    5.6476    2.2789   -0.0145 H   0  0  0  0  0  0  0  0  0  0  0  0
    3.5755    1.6246   -0.0178 C   0  0  0  0  0  0  0  0  0  0  0  0
    3.0393    2.8846   -0.4105 C   0  0  0  0  0  0  0  0  0  0  0  0
    3.7228    3.7237   -0.6094 H   0  0  0  0  0  0  0  0  0  0  0  0
    1.6720    3.0441   -0.4886 C   0  0  0  0  0  0  0  0  0  0  0  0
    1.2135    4.0139   -0.7277 H   0  0  0  0  0  0  0  0  0  0  0  0
    0.8270    1.9228   -0.2696 C   0  0  0  0  0  0  0  0  0  0  0  0
   -0.6038    2.0358   -0.2256 C   0  0  0  0  0  0  0  0  0  0  0  0
   -1.1008    3.0174   -0.2871 H   0  0  0  0  0  0  0  0  0  0  0  0
   -2.7037    1.0073    0.1804 C   0  0  0  0  0  0  0  0  0  0  0  0
   -3.4873    1.8030   -0.6807 C   0  0  0  0  0  0  0  0  0  0  0  0
   -3.0134    2.3192   -1.5287 H   0  0  0  0  0  0  0  0  0  0  0  0
   -4.8710    1.8854   -0.4824 C   0  0  0  0  0  0  0  0  0  0  0  0
   -5.4830    2.4924   -1.1662 H   0  0  0  0  0  0  0  0  0  0  0  0
   -5.4756    1.1811    0.5718 C   0  0  0  0  0  0  0  0  0  0  0  0
   -6.5634    1.2453    0.7238 H   0  0  0  0  0  0  0  0  0  0  0  0
   -4.6926    0.3809    1.4198 C   0  0  0  0  0  0  0  0  0  0  0  0
   -5.1641   -0.1810    2.2396 H   0  0  0  0  0  0  0  0  0  0  0  0
   -3.3111    0.2755    1.2211 C   0  0  0  0  0  0  0  0  0  0  0  0
   -2.6858   -0.3551    1.8659 H   0  0  0  0  0  0  0  0  0  0  0  0
  1  3  1  0  0  0  0
  2 20  1  0  0  0  0
  3  4  1  0  0  0  0
  4  6  2  0  0  0  0
  4  5  1  0  0  0  0
  6  7  1  0  0  0  0
  8  9  1  0  0  0  0
  8  6  1  0  0  0  0
 10  8  2  0  0  0  0
 11 10  1  0  0  0  0
 12 10  1  0  0  0  0
 12  3  2  0  0  0  0
 13 12  1  0  0  0  0
 14 13  1  0  0  0  0
 15 13  2  0  0  0  0
 15 17  1  0  0  0  0
 16 15  1  0  0  0  0
 17 18  2  0  0  0  0
 17  1  1  0  0  0  0
 18  2  1  0  0  0  0
 19 18  1  0  0  0  0
 20 29  1  0  0  0  0
 21 23  1  0  0  0  0
 21 20  2  0  0  0  0
 22 21  1  0  0  0  0
 23 25  2  0  0  0  0
 24 23  1  0  0  0  0
 25 26  1  0  0  0  0
 25 27  1  0  0  0  0
 27 28  1  0  0  0  0
 29 27  2  0  0  0  0
 29 30  1  0  0  0  0
M  END
