11,12
 OpenBabel05122313053D

 15 16  0  0  0  0  0  0  0  0999 V2000
    2.1927   -2.0395   -0.0363 C   0  0  0  0  0  3  0  0  0  0  0  0
    1.3563   -2.7628   -0.0473 H   0  0  0  0  0  0  0  0  0  0  0  0
    3.5327   -2.4466   -0.0422 C   0  0  0  0  0  0  0  0  0  0  0  0
    3.7629   -3.5213   -0.0621 H   0  0  0  0  0  0  0  0  0  0  0  0
    4.5523   -1.4802   -0.0253 C   0  0  0  0  0  0  0  0  0  0  0  0
    5.6112   -1.7790   -0.0312 H   0  0  0  0  0  0  0  0  0  0  0  0
    4.1971   -0.1264   -0.0033 C   0  0  0  0  0  0  0  0  0  0  0  0
    4.9404    0.6829    0.0062 H   0  0  0  0  0  0  0  0  0  0  0  0
    2.8367    0.2155    0.0009 C   0  0  0  0  0  0  0  0  0  0  0  0
    2.3115    1.5637    0.0089 C   0  0  0  0  0  0  0  0  0  0  0  0
    1.8385   -0.7317   -0.0131 N   0  0  0  0  0  2  0  0  0  0  0  0
    0.9549    1.6809   -0.0042 N   0  0  0  0  0  0  0  0  0  0  0  0
    0.7070    3.0009   -0.0248 N   0  0  0  0  0  0  0  0  0  0  0  0
    1.8684    3.6434   -0.0208 N   0  0  0  0  0  0  0  0  0  0  0  0
    2.8925    2.7712    0.0018 N   0  0  0  0  0  2  0  0  0  0  0  0
  1 11  1  0  0  0  0
  2  1  1  0  0  0  0
  3  1  1  0  0  0  0
  3  5  2  0  0  0  0
  4  3  1  0  0  0  0
  5  7  1  0  0  0  0
  6  5  1  0  0  0  0
  7  9  2  0  0  0  0
  7  8  1  0  0  0  0
  9 10  1  0  0  0  0
 11  9  1  0  0  0  0
 12 10  2  0  0  0  0
 13 14  2  0  0  0  0
 13 12  1  0  0  0  0
 14 15  1  0  0  0  0
 15 10  1  0  0  0  0
M  END
