2,3
 OpenBabel05122313053D

 27 28  0  0  0  0  0  0  0  0999 V2000
   -2.1186    0.0012    1.7445 S   0  0  0  0  0  0  0  0  0  0  0  0
    0.4649    1.5657    1.0535 N   0  0  0  0  0  0  0  0  0  0  0  0
    0.4632   -1.5663    1.0531 N   0  0  0  0  0  0  0  0  0  0  0  0
   -1.9483    1.3529    0.5596 C   0  0  0  0  0  0  0  0  0  0  0  0
   -0.6896    1.9443    0.3024 C   0  0  0  0  0  0  0  0  0  0  0  0
   -0.5615    2.9024   -0.7221 C   0  0  0  0  0  0  0  0  0  0  0  0
    0.4411    3.2964   -0.9481 H   0  0  0  0  0  0  0  0  0  0  0  0
   -1.6864    3.3026   -1.4498 C   0  0  0  0  0  0  0  0  0  0  0  0
   -1.5744    4.0515   -2.2477 H   0  0  0  0  0  0  0  0  0  0  0  0
   -2.9501    2.7573   -1.1638 C   0  0  0  0  0  0  0  0  0  0  0  0
   -3.8378    3.0845   -1.7247 H   0  0  0  0  0  0  0  0  0  0  0  0
   -3.0750    1.7836   -0.1651 C   0  0  0  0  0  0  0  0  0  0  0  0
   -4.0529    1.3346    0.0620 H   0  0  0  0  0  0  0  0  0  0  0  0
   -1.9500   -1.3509    0.5598 C   0  0  0  0  0  0  0  0  0  0  0  0
   -0.6919   -1.9437    0.3024 C   0  0  0  0  0  0  0  0  0  0  0  0
   -0.5652   -2.9022   -0.7219 C   0  0  0  0  0  0  0  0  0  0  0  0
    0.4369   -3.2973   -0.9482 H   0  0  0  0  0  0  0  0  0  0  0  0
   -1.6907   -3.3012   -1.4493 C   0  0  0  0  0  0  0  0  0  0  0  0
   -1.5797   -4.0505   -2.2471 H   0  0  0  0  0  0  0  0  0  0  0  0
   -2.9537   -2.7545   -1.1631 C   0  0  0  0  0  0  0  0  0  0  0  0
   -3.8419   -3.0809   -1.7237 H   0  0  0  0  0  0  0  0  0  0  0  0
   -3.0773   -1.7806   -0.1645 C   0  0  0  0  0  0  0  0  0  0  0  0
   -4.0547   -1.3305    0.0628 H   0  0  0  0  0  0  0  0  0  0  0  0
    1.1997   -2.2952    1.0159 H   0  0  0  0  0  0  0  0  0  0  0  0
    0.2142   -1.3276    2.0236 H   0  0  0  0  0  0  0  0  0  0  0  0
    1.2019    2.2940    1.0172 H   0  0  0  0  0  0  0  0  0  0  0  0
    0.2150    1.3266    2.0237 H   0  0  0  0  0  0  0  0  0  0  0  0
  2 27  1  0  0  0  0
  3 25  1  0  0  0  0
  4  1  1  0  0  0  0
  5  4  1  0  0  0  0
  5  2  1  0  0  0  0
  6  5  2  0  0  0  0
  7  6  1  0  0  0  0
  8 10  2  0  0  0  0
  8  6  1  0  0  0  0
  9  8  1  0  0  0  0
 10 12  1  0  0  0  0
 11 10  1  0  0  0  0
 12 13  1  0  0  0  0
 12  4  2  0  0  0  0
 14  1  1  0  0  0  0
 15 14  1  0  0  0  0
 15  3  1  0  0  0  0
 16 15  2  0  0  0  0
 17 16  1  0  0  0  0
 18 20  2  0  0  0  0
 18 16  1  0  0  0  0
 19 18  1  0  0  0  0
 20 22  1  0  0  0  0
 21 20  1  0  0  0  0
 22 23  1  0  0  0  0
 22 14  2  0  0  0  0
 24  3  1  0  0  0  0
 26  2  1  0  0  0  0
M  END
