20,29
 OpenBabel05122313053D

 48 52  0  0  0  0  0  0  0  0999 V2000
   -1.9647   -3.4835   -0.6716 C   0  0  0  0  0  0  0  0  0  0  0  0
   -1.7601   -4.5010   -1.0514 H   0  0  0  0  0  0  0  0  0  0  0  0
   -2.6116   -2.9558   -1.3968 H   0  0  0  0  0  0  0  0  0  0  0  0
   -2.5403   -3.5901    0.2698 H   0  0  0  0  0  0  0  0  0  0  0  0
   -0.6817   -2.7434   -0.4468 C   0  0  0  0  0  0  0  0  0  0  0  0
    0.5287   -3.4716   -0.3799 C   0  0  0  0  0  0  0  0  0  0  0  0
    0.4861   -4.5631   -0.4991 H   0  0  0  0  0  0  0  0  0  0  0  0
    1.7673   -2.8503   -0.2197 C   0  0  0  0  0  0  0  0  0  0  0  0
    3.0014   -3.6689   -0.1803 C   0  0  0  0  0  0  0  0  0  0  0  0
    3.0804   -4.7757    0.6954 C   0  0  0  0  0  0  0  0  0  0  0  0
    2.2428   -4.9879    1.3773 H   0  0  0  0  0  0  0  0  0  0  0  0
    4.2256   -5.5823    0.7204 C   0  0  0  0  0  0  0  0  0  0  0  0
    4.2797   -6.4318    1.4174 H   0  0  0  0  0  0  0  0  0  0  0  0
    5.2998   -5.3079   -0.1409 C   0  0  0  0  0  0  0  0  0  0  0  0
    6.1961   -5.9457   -0.1252 H   0  0  0  0  0  0  0  0  0  0  0  0
    5.2243   -4.2227   -1.0288 C   0  0  0  0  0  0  0  0  0  0  0  0
    6.0547   -4.0168   -1.7205 H   0  0  0  0  0  0  0  0  0  0  0  0
    4.0872   -3.4043   -1.0475 C   0  0  0  0  0  0  0  0  0  0  0  0
    4.0215   -2.5760   -1.7689 H   0  0  0  0  0  0  0  0  0  0  0  0
   -0.6814   -1.3945   -0.3371 N   0  0  0  0  0  2  0  0  0  0  0  0
    0.5217   -0.7365   -0.2229 C   0  0  0  0  0  0  0  0  0  0  0  0
    1.7727   -1.4183   -0.1287 C   0  0  0  0  0  0  0  0  0  0  0  0
    2.9695   -0.6482    0.0485 C   0  0  0  0  0  0  0  0  0  0  0  0
    3.9217   -1.1785    0.1792 H   0  0  0  0  0  0  0  0  0  0  0  0
    2.9429    0.7255    0.0370 C   0  0  0  0  0  0  0  0  0  0  0  0
    3.8768    1.2939    0.1359 H   0  0  0  0  0  0  0  0  0  0  0  0
    1.7155    1.4440   -0.1483 C   0  0  0  0  0  0  0  0  0  0  0  0
    0.4975    0.7089   -0.2638 C   0  0  0  0  0  0  0  0  0  0  0  0
   -0.7195    1.3126   -0.4826 N   0  0  0  0  0  2  0  0  0  0  0  0
   -2.0377    3.3040   -1.1298 C   0  0  0  0  0  0  0  0  0  0  0  0
   -2.6470    2.6500   -1.7802 H   0  0  0  0  0  0  0  0  0  0  0  0
   -1.8331    4.2502   -1.6640 H   0  0  0  0  0  0  0  0  0  0  0  0
   -2.6507    3.5542   -0.2405 H   0  0  0  0  0  0  0  0  0  0  0  0
   -0.7517    2.6399   -0.7422 C   0  0  0  0  0  0  0  0  0  0  0  0
    0.4229    3.4211   -0.6385 C   0  0  0  0  0  0  0  0  0  0  0  0
    0.3409    4.5049   -0.8019 H   0  0  0  0  0  0  0  0  0  0  0  0
    1.6548    2.8724   -0.2824 C   0  0  0  0  0  0  0  0  0  0  0  0
    2.8326    3.7500   -0.0958 C   0  0  0  0  0  0  0  0  0  0  0  0
    3.1424    4.7335   -1.0627 C   0  0  0  0  0  0  0  0  0  0  0  0
    2.5360    4.8043   -1.9784 H   0  0  0  0  0  0  0  0  0  0  0  0
    4.2350    5.5910   -0.8799 C   0  0  0  0  0  0  0  0  0  0  0  0
    4.4740    6.3409   -1.6485 H   0  0  0  0  0  0  0  0  0  0  0  0
    5.0238    5.4918    0.2773 C   0  0  0  0  0  0  0  0  0  0  0  0
    5.8787    6.1690    0.4217 H   0  0  0  0  0  0  0  0  0  0  0  0
    4.7165    4.5288    1.2520 C   0  0  0  0  0  0  0  0  0  0  0  0
    5.3219    4.4586    2.1680 H   0  0  0  0  0  0  0  0  0  0  0  0
    3.6335    3.6596    1.0668 C   0  0  0  0  0  0  0  0  0  0  0  0
    3.3822    2.9252    1.8469 H   0  0  0  0  0  0  0  0  0  0  0  0
  1  5  1  0  0  0  0
  1  4  1  0  0  0  0
  2  1  1  0  0  0  0
  3  1  1  0  0  0  0
  5  6  2  0  0  0  0
  5 20  1  0  0  0  0
  6  8  1  0  0  0  0
  7  6  1  0  0  0  0
  8  9  1  0  0  0  0
  8 22  2  0  0  0  0
  9 10  1  0  0  0  0
 10 12  2  0  0  0  0
 10 11  1  0  0  0  0
 12 13  1  0  0  0  0
 14 15  1  0  0  0  0
 14 12  1  0  0  0  0
 16 14  2  0  0  0  0
 17 16  1  0  0  0  0
 18 16  1  0  0  0  0
 18  9  2  0  0  0  0
 19 18  1  0  0  0  0
 20 21  1  0  0  0  0
 21 22  1  0  0  0  0
 22 23  1  0  0  0  0
 23 24  1  0  0  0  0
 25 23  2  0  0  0  0
 25 26  1  0  0  0  0
 27 25  1  0  0  0  0
 28 21  2  0  0  0  0
 28 27  1  0  0  0  0
 29 28  1  0  0  0  0
 30 34  1  0  0  0  0
 30 33  1  0  0  0  0
 31 30  1  0  0  0  0
 32 30  1  0  0  0  0
 34 35  2  0  0  0  0
 34 29  1  0  0  0  0
 35 37  1  0  0  0  0
 36 35  1  0  0  0  0
 37 27  2  0  0  0  0
 37 38  1  0  0  0  0
 38 47  1  0  0  0  0
 39 41  1  0  0  0  0
 39 38  2  0  0  0  0
 40 39  1  0  0  0  0
 41 43  2  0  0  0  0
 42 41  1  0  0  0  0
 43 44  1  0  0  0  0
 43 45  1  0  0  0  0
 45 46  1  0  0  0  0
 47 45  2  0  0  0  0
 47 48  1  0  0  0  0
M  END
