1,3
 OpenBabel05122313053D

 55 60  0  0  0  0  0  0  0  0999 V2000
    0.0499    0.9777   -0.2760 N   0  0  0  0  0  0  0  0  0  0  0  0
   -1.6027    2.6645    0.2435 N   0  0  0  0  0  0  0  0  0  0  0  0
   -2.7172    0.5979   -0.4117 N   0  0  0  0  0  2  0  0  0  0  0  0
    2.0591   -0.1301   -0.7583 N   0  0  0  0  0  2  0  0  0  0  0  0
    4.0398   -0.1655    0.4965 N   0  0  0  0  0  0  0  0  0  0  0  0
   -0.3789    2.2378    0.0312 C   0  0  0  0  0  0  0  0  0  0  0  0
    0.7996    3.1307    0.0791 C   0  0  0  0  0  0  0  0  0  0  0  0
    1.9335    2.3454   -0.2242 C   0  0  0  0  0  3  0  0  0  0  0  0
    1.4356    0.9562   -0.4465 C   0  0  0  0  0  0  0  0  0  0  0  0
    0.8968    4.5026    0.3245 C   0  0  0  0  0  0  0  0  0  0  0  0
   -0.0073    5.0872    0.5491 H   0  0  0  0  0  0  0  0  0  0  0  0
    2.1753    5.0864    0.2694 C   0  0  0  0  0  0  0  0  0  0  0  0
    2.2938    6.1630    0.4659 H   0  0  0  0  0  0  0  0  0  0  0  0
    3.3094    4.3104   -0.0416 C   0  0  0  0  0  0  0  0  0  0  0  0
    4.2981    4.7921   -0.0844 H   0  0  0  0  0  0  0  0  0  0  0  0
    3.2038    2.9297   -0.2976 C   0  0  0  0  0  0  0  0  0  0  0  0
    4.0946    2.3344   -0.5384 H   0  0  0  0  0  0  0  0  0  0  0  0
   -2.7214    1.9312   -0.0400 C   0  0  0  0  0  0  0  0  0  0  0  0
   -3.9507    2.6451    0.0063 C   0  0  0  0  0  0  0  0  0  0  0  0
   -3.8856    3.6851    0.3550 H   0  0  0  0  0  0  0  0  0  0  0  0
   -5.1583    2.0893   -0.4213 C   0  0  0  0  0  0  0  0  0  0  0  0
   -5.0930    0.7660   -0.9064 C   0  0  0  0  0  0  0  0  0  0  0  0
   -3.8739    0.0676   -0.8801 C   0  0  0  0  0  0  0  0  0  0  0  0
   -5.5745   -1.5049   -1.4921 C   0  0  0  0  0  0  0  0  0  0  0  0
   -5.9264   -2.1451   -2.3238 H   0  0  0  0  0  0  0  0  0  0  0  0
   -5.8763   -2.0013   -0.5453 H   0  0  0  0  0  0  0  0  0  0  0  0
   -6.1770   -0.0800   -1.5271 C   0  0  0  0  0  0  0  0  0  0  0  0
   -6.3660    0.2543   -2.5738 H   0  0  0  0  0  0  0  0  0  0  0  0
   -7.1502   -0.0039   -0.9989 H   0  0  0  0  0  0  0  0  0  0  0  0
   -4.0459   -1.3004   -1.4974 C   0  0  0  0  0  0  0  0  0  0  0  0
   -3.4751   -2.0897   -0.9790 H   0  0  0  0  0  0  0  0  0  0  0  0
   -3.6136   -1.2705   -2.5206 H   0  0  0  0  0  0  0  0  0  0  0  0
   -6.4501    2.8574   -0.4042 C   0  0  0  0  0  0  0  0  0  0  0  0
   -6.3179    3.8736    0.0125 H   0  0  0  0  0  0  0  0  0  0  0  0
   -7.2197    2.3312    0.1990 H   0  0  0  0  0  0  0  0  0  0  0  0
   -6.8682    2.9543   -1.4284 H   0  0  0  0  0  0  0  0  0  0  0  0
    3.4324   -0.2699   -0.7140 C   0  0  0  0  0  0  0  0  0  0  0  0
    4.1391   -0.6182   -1.8947 C   0  0  0  0  0  0  0  0  0  0  0  0
    3.5721   -0.7195   -2.8314 H   0  0  0  0  0  0  0  0  0  0  0  0
    5.5283   -0.8141   -1.8591 C   0  0  0  0  0  0  0  0  0  0  0  0
    6.1550   -0.6694   -0.6030 C   0  0  0  0  0  0  0  0  0  0  0  0
    5.3619   -0.3674    0.5205 C   0  0  0  0  0  0  0  0  0  0  0  0
    7.5983   -0.8479   -0.2004 C   0  0  0  0  0  0  0  0  0  0  0  0
    8.3179   -0.3818   -0.9057 H   0  0  0  0  0  0  0  0  0  0  0  0
    7.8604   -1.9315   -0.1648 H   0  0  0  0  0  0  0  0  0  0  0  0
    7.6481   -0.2113    1.2146 C   0  0  0  0  0  0  0  0  0  0  0  0
    7.9082    0.8634    1.1149 H   0  0  0  0  0  0  0  0  0  0  0  0
    8.4132   -0.6728    1.8690 H   0  0  0  0  0  0  0  0  0  0  0  0
    6.2115   -0.3321    1.7731 C   0  0  0  0  0  0  0  0  0  0  0  0
    6.0690   -1.2805    2.3398 H   0  0  0  0  0  0  0  0  0  0  0  0
    5.9210    0.4906    2.4563 H   0  0  0  0  0  0  0  0  0  0  0  0
    6.3161   -1.1702   -3.0904 C   0  0  0  0  0  0  0  0  0  0  0  0
    5.6696   -1.2459   -3.9853 H   0  0  0  0  0  0  0  0  0  0  0  0
    6.8421   -2.1394   -2.9596 H   0  0  0  0  0  0  0  0  0  0  0  0
    7.1023   -0.4128   -3.2943 H   0  0  0  0  0  0  0  0  0  0  0  0
  1  6  1  0  0  0  0
  3 18  1  0  0  0  0
  4 37  1  0  0  0  0
  4  9  1  0  0  0  0
  5 42  1  0  0  0  0
  6  7  2  0  0  0  0
  6  2  1  0  0  0  0
  7 10  1  0  0  0  0
  8  7  1  0  0  0  0
  9  1  2  0  0  0  0
  9  8  1  0  0  0  0
 10 11  1  0  0  0  0
 12 10  2  0  0  0  0
 12 13  1  0  0  0  0
 14 12  1  0  0  0  0
 15 14  1  0  0  0  0
 16  8  1  0  0  0  0
 16 14  2  0  0  0  0
 17 16  1  0  0  0  0
 18 19  1  0  0  0  0
 18  2  2  0  0  0  0
 19 20  1  0  0  0  0
 21 33  1  0  0  0  0
 21 19  2  0  0  0  0
 22 23  2  0  0  0  0
 22 21  1  0  0  0  0
 23  3  1  0  0  0  0
 24 26  1  0  0  0  0
 25 24  1  0  0  0  0
 27 24  1  0  0  0  0
 27 29  1  0  0  0  0
 27 22  1  0  0  0  0
 28 27  1  0  0  0  0
 30 24  1  0  0  0  0
 30 31  1  0  0  0  0
 30 23  1  0  0  0  0
 32 30  1  0  0  0  0
 33 34  1  0  0  0  0
 33 35  1  0  0  0  0
 36 33  1  0  0  0  0
 37  5  2  0  0  0  0
 38 40  2  0  0  0  0
 38 37  1  0  0  0  0
 39 38  1  0  0  0  0
 40 41  1  0  0  0  0
 41 43  1  0  0  0  0
 41 42  2  0  0  0  0
 42 49  1  0  0  0  0
 43 45  1  0  0  0  0
 43 46  1  0  0  0  0
 44 43  1  0  0  0  0
 46 49  1  0  0  0  0
 46 48  1  0  0  0  0
 47 46  1  0  0  0  0
 49 50  1  0  0  0  0
 49 51  1  0  0  0  0
 52 54  1  0  0  0  0
 52 40  1  0  0  0  0
 53 52  1  0  0  0  0
 55 52  1  0  0  0  0
M  END
