1,6
 OpenBabel05122313053D

 34 35  0  0  1  0  0  0  0  0999 V2000
   -2.2751   -1.6505    1.0518 N   0  0  0  0  0  2  0  0  0  0  0  0
    0.1474   -2.0027   -3.4928 O   0  0  0  0  0  0  0  0  0  0  0  0
    0.2414   -1.1134   -2.3078 S   0  0  0  0  0  0  0  0  0  0  0  0
   -2.3992   -4.0450    1.0339 C   0  0  0  0  0  0  0  0  0  0  0  0
   -2.1708   -4.9932    0.5255 H   0  0  0  0  0  0  0  0  0  0  0  0
   -0.9223   -1.4297   -1.2084 N   0  0  0  0  0  2  0  0  0  0  0  0
   -1.2115   -2.7920   -0.8440 C   0  0  0  0  0  0  0  0  0  0  0  0
   -0.2891   -3.4050   -0.6810 H   0  0  0  0  0  0  0  0  0  0  0  0
   -1.7891   -3.3364   -1.6306 H   0  0  0  0  0  0  0  0  0  0  0  0
    0.1964    0.3670   -2.5005 O   0  0  0  0  0  0  0  0  0  0  0  0
   -3.0713   -4.0171    2.2589 C   0  0  0  0  0  0  0  0  0  0  0  0
   -3.3930   -4.9543    2.7379 H   0  0  0  0  0  0  0  0  0  0  0  0
   -1.9982   -2.8295    0.4537 C   0  0  2  0  0  3  0  0  0  0  0  0
    1.8169   -1.4926   -1.5014 C   0  0  0  0  0  0  0  0  0  0  0  0
    1.9291   -1.4868   -0.1022 C   0  0  0  0  0  0  0  0  0  0  0  0
    1.0526   -1.3185    0.5401 H   0  0  0  0  0  0  0  0  0  0  0  0
   -2.9030   -1.5996    2.2550 C   0  0  0  0  0  0  0  0  0  0  0  0
   -3.0711   -0.2467    2.8773 C   0  0  0  0  0  0  0  0  0  0  0  0
   -2.0714    0.1376    3.1729 H   0  0  0  0  0  0  0  0  0  0  0  0
   -3.7256   -0.2829    3.7671 H   0  0  0  0  0  0  0  0  0  0  0  0
   -3.4853    0.4777    2.1472 H   0  0  0  0  0  0  0  0  0  0  0  0
    4.3510   -1.7803   -0.2964 C   0  0  0  0  0  0  0  0  0  0  0  0
    3.1890   -1.6381    0.4882 C   0  0  0  0  0  0  0  0  0  0  0  0
    3.2635   -1.6034    1.5862 H   0  0  0  0  0  0  0  0  0  0  0  0
    4.2084   -1.8026   -1.7005 C   0  0  0  0  0  0  0  0  0  0  0  0
    5.1036   -1.9265   -2.3310 H   0  0  0  0  0  0  0  0  0  0  0  0
   -3.3195   -2.7844    2.8816 C   0  0  0  0  0  0  0  0  0  0  0  0
   -3.8276   -2.7338    3.8549 H   0  0  0  0  0  0  0  0  0  0  0  0
    5.7041   -1.8831    0.3590 C   0  0  0  0  0  0  0  0  0  0  0  0
    6.5153   -2.0023   -0.3851 H   0  0  0  0  0  0  0  0  0  0  0  0
    5.7517   -2.7437    1.0581 H   0  0  0  0  0  0  0  0  0  0  0  0
    5.9178   -0.9725    0.9576 H   0  0  0  0  0  0  0  0  0  0  0  0
    2.9517   -1.6700   -2.3076 C   0  0  0  0  0  0  0  0  0  0  0  0
    2.8400   -1.6964   -3.4016 H   0  0  0  0  0  0  0  0  0  0  0  0
  1 17  1  0  0  0  0
  2  3  2  0  0  0  0
  3 14  1  0  0  0  0
  3  6  1  0  0  0  0
  4 11  2  0  0  0  0
  5  4  1  0  0  0  0
  6  7  1  0  0  0  0
  7  8  1  0  0  0  0
  9  7  1  0  0  0  0
 10  3  2  0  0  0  0
 11 12  1  0  0  0  0
 11 27  1  0  0  0  0
 13  7  1  1  0  0  0
 13  4  1  0  0  0  0
 13  1  1  0  0  0  0
 14 15  1  0  0  0  0
 15 23  2  0  0  0  0
 15 16  1  0  0  0  0
 17 18  1  0  0  0  0
 17 27  2  0  0  0  0
 18 19  1  0  0  0  0
 18 20  1  0  0  0  0
 21 18  1  0  0  0  0
 22 29  1  0  0  0  0
 22 23  1  0  0  0  0
 23 24  1  0  0  0  0
 25 22  2  0  0  0  0
 26 25  1  0  0  0  0
 27 28  1  0  0  0  0
 29 32  1  0  0  0  0
 29 31  1  0  0  0  0
 30 29  1  0  0  0  0
 33 25  1  0  0  0  0
 33 14  2  0  0  0  0
 34 33  1  0  0  0  0
M  END
