1,15
 OpenBabel05122313053D

 33 33  0  0  0  0  0  0  0  0999 V2000
   -2.0498   -0.0762   -0.2749 N   0  0  0  0  0  2  0  0  0  0  0  0
   -2.6677   -1.1390   -0.3275 O   0  0  0  0  0  1  0  0  0  0  0  0
   -2.6612    1.1501   -0.3369 C   0  0  0  0  0  0  0  0  0  0  0  0
   -4.1383    1.2142   -0.4701 C   0  0  0  0  0  0  0  0  0  0  0  0
   -4.6326    2.3808    0.0550 O   0  0  0  0  0  0  0  0  0  0  0  0
   -6.0634    2.5513   -0.0288 C   0  0  0  0  0  0  0  0  0  0  0  0
   -6.4173    2.1407   -0.9964 H   0  0  0  0  0  0  0  0  0  0  0  0
   -6.2161    3.6489   -0.0190 H   0  0  0  0  0  0  0  0  0  0  0  0
   -6.7747    1.8770    1.1335 C   0  0  0  0  0  0  0  0  0  0  0  0
   -7.8616    2.0929    1.0917 H   0  0  0  0  0  0  0  0  0  0  0  0
   -6.6385    0.7794    1.0848 H   0  0  0  0  0  0  0  0  0  0  0  0
   -6.3853    2.2438    2.1042 H   0  0  0  0  0  0  0  0  0  0  0  0
   -4.8478    0.3519   -0.9544 O   0  0  0  0  0  0  0  0  0  0  0  0
   -1.7491    2.2735   -0.2836 C   0  0  0  0  0  0  0  0  0  0  0  0
   -0.4623    1.9939   -0.1518 N   0  0  0  0  0  2  0  0  0  0  0  0
    0.5312    3.0067   -0.1021 C   0  0  0  0  0  0  0  0  0  0  0  0
    0.8255    3.6557    1.1100 C   0  0  0  0  0  0  0  0  0  0  0  0
    0.2554    3.3904    2.0126 H   0  0  0  0  0  0  0  0  0  0  0  0
    1.8440    4.6143    1.1610 C   0  0  0  0  0  0  0  0  0  0  0  0
    2.0676    5.1130    2.1173 H   0  0  0  0  0  0  0  0  0  0  0  0
    2.5966    4.9456    0.0161 C   0  0  0  0  0  0  0  0  0  0  0  0
    2.2844    4.2881   -1.1916 C   0  0  0  0  0  0  0  0  0  0  0  0
    2.8566    4.5294   -2.1013 H   0  0  0  0  0  0  0  0  0  0  0  0
    1.2724    3.3242   -1.2544 C   0  0  0  0  0  0  0  0  0  0  0  0
    1.0492    2.7996   -2.1950 H   0  0  0  0  0  0  0  0  0  0  0  0
    3.7283    5.9386    0.0898 C   0  0  0  0  0  0  0  0  0  0  0  0
    3.8697    6.4713   -0.8714 H   0  0  0  0  0  0  0  0  0  0  0  0
    3.5609    6.6932    0.8835 H   0  0  0  0  0  0  0  0  0  0  0  0
    4.6866    5.4261    0.3230 H   0  0  0  0  0  0  0  0  0  0  0  0
   -2.2267    3.6925   -0.4177 C   0  0  0  0  0  0  0  0  0  0  0  0
   -1.3829    4.3695   -0.6389 H   0  0  0  0  0  0  0  0  0  0  0  0
   -2.9973    3.7727   -1.2058 H   0  0  0  0  0  0  0  0  0  0  0  0
   -2.7155    4.0183    0.5216 H   0  0  0  0  0  0  0  0  0  0  0  0
  2  1  1  0  0  0  0
  3 14  2  0  0  0  0
  3  1  1  0  0  0  0
  4  3  1  0  0  0  0
  4  5  1  0  0  0  0
  6  8  1  0  0  0  0
  6  5  1  0  0  0  0
  6  9  1  0  0  0  0
  7  6  1  0  0  0  0
  9 12  1  0  0  0  0
 10  9  1  0  0  0  0
 11  9  1  0  0  0  0
 13  4  2  0  0  0  0
 14 15  1  0  0  0  0
 15 16  1  0  0  0  0
 16 17  1  0  0  0  0
 17 19  2  0  0  0  0
 17 18  1  0  0  0  0
 19 20  1  0  0  0  0
 21 26  1  0  0  0  0
 21 19  1  0  0  0  0
 22 21  2  0  0  0  0
 23 22  1  0  0  0  0
 24 22  1  0  0  0  0
 24 16  2  0  0  0  0
 25 24  1  0  0  0  0
 26 29  1  0  0  0  0
 26 28  1  0  0  0  0
 27 26  1  0  0  0  0
 30 14  1  0  0  0  0
 30 33  1  0  0  0  0
 31 30  1  0  0  0  0
 32 30  1  0  0  0  0
M  END
