19,21
 OpenBabel05122313053D

 24 24  0  0  0  0  0  0  0  0999 V2000
   -1.5557   -1.0350   -1.7977 C   0  0  0  0  0  0  0  0  0  0  0  0
   -2.4218   -1.6970   -2.0122 H   0  0  0  0  0  0  0  0  0  0  0  0
   -0.8825   -1.0706   -2.6773 H   0  0  0  0  0  0  0  0  0  0  0  0
   -2.0334    0.3985   -1.5540 C   0  0  0  0  0  0  0  0  0  0  0  0
   -2.3537    0.8515   -2.5134 H   0  0  0  0  0  0  0  0  0  0  0  0
   -2.9134    0.4121   -0.8889 H   0  0  0  0  0  0  0  0  0  0  0  0
   -1.4598    2.1794    0.1451 C   0  0  0  0  0  0  0  0  0  0  0  0
   -0.5571    2.7106    0.5061 H   0  0  0  0  0  0  0  0  0  0  0  0
   -2.1424    2.9285   -0.3112 H   0  0  0  0  0  0  0  0  0  0  0  0
   -2.1786    1.4430    1.2985 C   0  0  0  0  0  0  0  0  0  0  0  0
   -2.1802    2.1378    2.1629 H   0  0  0  0  0  0  0  0  0  0  0  0
   -3.2521    1.2954    1.0463 H   0  0  0  0  0  0  0  0  0  0  0  0
   -2.2941   -1.0626    1.3483 C   0  0  0  0  0  0  0  0  0  0  0  0
   -3.2241   -0.8105    0.7976 H   0  0  0  0  0  0  0  0  0  0  0  0
   -2.6399   -1.5871    2.2662 H   0  0  0  0  0  0  0  0  0  0  0  0
   -1.4785   -2.0968    0.5548 C   0  0  0  0  0  0  0  0  0  0  0  0
   -0.6779   -2.5260    1.1906 H   0  0  0  0  0  0  0  0  0  0  0  0
   -2.1415   -2.9296    0.2342 H   0  0  0  0  0  0  0  0  0  0  0  0
   -0.7639   -1.5686   -0.6458 N   0  0  0  0  0  0  0  0  0  0  0  0
   -0.1487   -2.3272   -0.9837 H   0  0  0  0  0  0  0  0  0  0  0  0
   -0.9689    1.2519   -0.9191 N   0  0  0  0  0  0  0  0  0  0  0  0
   -0.4855    1.8171   -1.6350 H   0  0  0  0  0  0  0  0  0  0  0  0
   -1.5697    0.1659    1.6569 N   0  0  0  0  0  0  0  0  0  0  0  0
   -1.1652    0.1654    2.5956 H   0  0  0  0  0  0  0  0  0  0  0  0
  1  4  1  0  0  0  0
  1 19  1  0  0  0  0
  2  1  1  0  0  0  0
  3  1  1  0  0  0  0
  4 21  1  0  0  0  0
  4  6  1  0  0  0  0
  5  4  1  0  0  0  0
  7  8  1  0  0  0  0
  7 10  1  0  0  0  0
  9  7  1  0  0  0  0
 10 23  1  0  0  0  0
 10 11  1  0  0  0  0
 12 10  1  0  0  0  0
 13 23  1  0  0  0  0
 13 15  1  0  0  0  0
 14 13  1  0  0  0  0
 16 17  1  0  0  0  0
 16 13  1  0  0  0  0
 18 16  1  0  0  0  0
 19 16  1  0  0  0  0
 20 19  1  0  0  0  0
 21  7  1  0  0  0  0
 22 21  1  0  0  0  0
 23 24  1  0  0  0  0
M  END
