1,4
 OpenBabel05122313053D

 35 37  0  0  0  0  0  0  0  0999 V2000
    0.3024   -1.9273   -0.3507 N   0  0  0  0  0  2  0  0  0  0  0  0
   -0.8706   -1.3622   -0.7189 C   0  0  0  0  0  0  0  0  0  0  0  0
   -0.9727    0.0594   -0.7886 C   0  0  0  0  0  0  0  0  0  0  0  0
    0.1216    0.7262   -0.4709 N   0  0  0  0  0  2  0  0  0  0  0  0
    0.0441    2.1420   -0.4265 C   0  0  0  0  0  0  0  0  0  0  0  0
    1.0916    2.9137   -0.9705 C   0  0  0  0  0  0  0  0  0  0  0  0
    1.0213    4.3109   -0.9348 C   0  0  0  0  0  0  0  0  0  0  0  0
   -0.0779    4.9546   -0.3411 C   0  0  0  0  0  0  0  0  0  0  0  0
   -1.1147    4.1883    0.2142 C   0  0  0  0  0  0  0  0  0  0  0  0
   -1.0612    2.7885    0.1710 C   0  0  0  0  0  0  0  0  0  0  0  0
   -1.8194   -2.3378   -0.9351 N   0  0  0  0  0  0  0  0  0  0  0  0
   -3.2162   -2.1119   -1.2958 C   0  0  0  0  0  0  0  0  0  0  0  0
   -3.9003   -1.1078   -0.3864 C   0  0  0  0  0  0  0  0  0  0  0  0
   -4.7417   -0.1206   -0.9308 C   0  0  0  0  0  0  0  0  0  0  0  0
   -5.3576    0.8280   -0.0990 C   0  0  0  0  0  0  0  0  0  0  0  0
   -5.1298    0.8015    1.2852 C   0  0  0  0  0  0  0  0  0  0  0  0
   -4.2914   -0.1828    1.8353 C   0  0  0  0  0  0  0  0  0  0  0  0
   -3.6824   -1.1341    1.0051 C   0  0  0  0  0  0  0  0  0  0  0  0
   -1.2104   -3.5538   -0.6946 C   0  0  0  0  0  0  0  0  0  0  0  0
    0.1045   -3.2833   -0.3387 C   0  0  0  0  0  0  0  0  0  0  0  0
   -1.9041    0.5675   -1.0868 H   0  0  0  0  0  0  0  0  0  0  0  0
    1.9474    2.3982   -1.4270 H   0  0  0  0  0  0  0  0  0  0  0  0
    1.8402    4.9036   -1.3691 H   0  0  0  0  0  0  0  0  0  0  0  0
   -0.1195    6.0533   -0.3003 H   0  0  0  0  0  0  0  0  0  0  0  0
   -1.9693    4.6834    0.6998 H   0  0  0  0  0  0  0  0  0  0  0  0
   -1.8558    2.1861    0.6373 H   0  0  0  0  0  0  0  0  0  0  0  0
   -3.7214   -3.0984   -1.2461 H   0  0  0  0  0  0  0  0  0  0  0  0
   -3.2781   -1.7716   -2.3512 H   0  0  0  0  0  0  0  0  0  0  0  0
   -4.9066   -0.0847   -2.0196 H   0  0  0  0  0  0  0  0  0  0  0  0
   -6.0089    1.5986   -0.5380 H   0  0  0  0  0  0  0  0  0  0  0  0
   -5.6028    1.5509    1.9374 H   0  0  0  0  0  0  0  0  0  0  0  0
   -4.1056   -0.2072    2.9196 H   0  0  0  0  0  0  0  0  0  0  0  0
   -3.0131   -1.8924    1.4407 H   0  0  0  0  0  0  0  0  0  0  0  0
   -1.7557   -4.4977   -0.7948 H   0  0  0  0  0  0  0  0  0  0  0  0
    0.9061   -3.9798   -0.0709 H   0  0  0  0  0  0  0  0  0  0  0  0
  1 20  1  0  0  0  0
  2  1  1  0  0  0  0
  3  2  2  0  0  0  0
  3  4  1  0  0  0  0
  4  5  1  0  0  0  0
  5 10  1  0  0  0  0
  6  7  1  0  0  0  0
  6  5  2  0  0  0  0
  7  8  2  0  0  0  0
  8 24  1  0  0  0  0
  8  9  1  0  0  0  0
  9 25  1  0  0  0  0
 10  9  2  0  0  0  0
 10 26  1  0  0  0  0
 11  2  1  0  0  0  0
 11 19  1  0  0  0  0
 12 27  1  0  0  0  0
 12 11  1  0  0  0  0
 12 13  1  0  0  0  0
 13 18  1  0  0  0  0
 14 13  2  0  0  0  0
 14 15  1  0  0  0  0
 15 16  2  0  0  0  0
 16 17  1  0  0  0  0
 16 31  1  0  0  0  0
 17 32  1  0  0  0  0
 18 33  1  0  0  0  0
 18 17  2  0  0  0  0
 19 20  2  0  0  0  0
 20 35  1  0  0  0  0
 21  3  1  0  0  0  0
 22  6  1  0  0  0  0
 23  7  1  0  0  0  0
 28 12  1  0  0  0  0
 29 14  1  0  0  0  0
 30 15  1  0  0  0  0
 34 19  1  0  0  0  0
M  END
