1,4
 OpenBabel05122313053D

 44 46  0  0  1  0  0  0  0  0999 V2000
    0.5786   -1.7335   -0.3560 N   0  0  0  0  0  2  0  0  0  0  0  0
   -0.6068   -1.9193    0.2879 N   0  0  0  0  0  0  0  0  0  0  0  0
   -0.2955    1.9039   -0.6718 N   0  0  0  0  0  0  0  0  0  0  0  0
    0.8492    1.5831   -0.0145 N   0  0  0  0  0  2  0  0  0  0  0  0
    1.9967   -2.9722   -1.9845 C   0  0  0  0  0  0  0  0  0  0  0  0
    2.6786   -3.7219   -1.5316 H   0  0  0  0  0  0  0  0  0  0  0  0
    2.5565   -2.0186   -2.0608 H   0  0  0  0  0  0  0  0  0  0  0  0
    1.7332   -3.3350   -2.9975 H   0  0  0  0  0  0  0  0  0  0  0  0
    0.7697   -2.8110   -1.1487 C   0  0  1  0  0  3  0  0  0  0  0  0
   -0.3279   -3.6933   -1.0053 C   0  0  0  0  0  0  0  0  0  0  0  0
   -0.4713   -4.6570   -1.5047 H   0  0  0  0  0  0  0  0  0  0  0  0
   -1.1904   -3.1000   -0.0817 C   0  0  0  0  0  0  0  0  0  0  0  0
   -2.4960   -3.5687    0.4669 C   0  0  0  0  0  0  0  0  0  0  0  0
   -3.3365   -2.9205    0.1442 H   0  0  0  0  0  0  0  0  0  0  0  0
   -2.4954   -3.5742    1.5766 H   0  0  0  0  0  0  0  0  0  0  0  0
   -2.6989   -4.5987    0.1215 H   0  0  0  0  0  0  0  0  0  0  0  0
   -1.1483   -0.9107    1.1964 C   0  0  0  0  0  0  0  0  0  0  0  0
   -0.3162   -0.2198    1.4455 H   0  0  0  0  0  0  0  0  0  0  0  0
   -1.3921   -1.4103    2.1547 H   0  0  0  0  0  0  0  0  0  0  0  0
   -2.3873   -0.2206    0.6542 C   0  0  0  0  0  0  0  0  0  0  0  0
   -3.6006   -0.3858    1.3499 C   0  0  0  0  0  0  0  0  0  0  0  0
   -3.5979   -0.9722    2.2825 H   0  0  0  0  0  0  0  0  0  0  0  0
   -4.8034    0.1599    0.8791 C   0  0  0  0  0  0  0  0  0  0  0  0
   -5.7342    0.0136    1.4472 H   0  0  0  0  0  0  0  0  0  0  0  0
   -4.8107    0.8696   -0.3284 C   0  0  0  0  0  0  0  0  0  0  0  0
   -5.7485    1.2823   -0.7293 H   0  0  0  0  0  0  0  0  0  0  0  0
   -3.6067    1.0567   -1.0229 C   0  0  0  0  0  0  0  0  0  0  0  0
   -3.6095    1.6201   -1.9690 H   0  0  0  0  0  0  0  0  0  0  0  0
   -2.3859    0.5449   -0.5424 C   0  0  0  0  0  0  0  0  0  0  0  0
   -1.1118    0.8729   -1.3072 C   0  0  0  0  0  0  0  0  0  0  0  0
   -0.4537   -0.0062   -1.4319 H   0  0  0  0  0  0  0  0  0  0  0  0
   -1.3779    1.2271   -2.3230 H   0  0  0  0  0  0  0  0  0  0  0  0
   -1.7107    3.9052   -1.2705 C   0  0  0  0  0  0  0  0  0  0  0  0
   -2.6543    3.6624   -0.7399 H   0  0  0  0  0  0  0  0  0  0  0  0
   -1.8376    3.5950   -2.3287 H   0  0  0  0  0  0  0  0  0  0  0  0
   -1.5817    5.0029   -1.2550 H   0  0  0  0  0  0  0  0  0  0  0  0
   -0.5290    3.2539   -0.6337 C   0  0  2  0  0  3  0  0  0  0  0  0
    0.5323    3.8124    0.0812 C   0  0  0  0  0  0  0  0  0  0  0  0
    0.6833    4.8745    0.2997 H   0  0  0  0  0  0  0  0  0  0  0  0
    1.3748    2.7368    0.4480 C   0  0  0  0  0  0  0  0  0  0  0  0
    2.6712    2.7538    1.1875 C   0  0  0  0  0  0  0  0  0  0  0  0
    3.4871    2.3918    0.5266 H   0  0  0  0  0  0  0  0  0  0  0  0
    2.6310    2.0561    2.0501 H   0  0  0  0  0  0  0  0  0  0  0  0
    2.9095    3.7743    1.5388 H   0  0  0  0  0  0  0  0  0  0  0  0
  1  2  1  0  0  0  0
  2 17  1  0  0  0  0
  3 37  1  0  0  0  0
  3  4  1  0  0  0  0
  4 40  1  0  0  0  0
  5  6  1  0  0  0  0
  7  5  1  0  0  0  0
  8  5  1  0  0  0  0
  9  5  1  1  0  0  0
  9 10  1  0  0  0  0
  9  1  1  0  0  0  0
 10 12  2  0  0  0  0
 11 10  1  0  0  0  0
 12  2  1  0  0  0  0
 12 13  1  0  0  0  0
 13 15  1  0  0  0  0
 14 13  1  0  0  0  0
 16 13  1  0  0  0  0
 17 18  1  0  0  0  0
 17 19  1  0  0  0  0
 20 17  1  0  0  0  0
 20 21  1  0  0  0  0
 21 22  1  0  0  0  0
 23 21  2  0  0  0  0
 23 24  1  0  0  0  0
 25 23  1  0  0  0  0
 26 25  1  0  0  0  0
 27 29  1  0  0  0  0
 27 25  2  0  0  0  0
 28 27  1  0  0  0  0
 29 20  2  0  0  0  0
 30  3  1  0  0  0  0
 30 29  1  0  0  0  0
 31 30  1  0  0  0  0
 32 30  1  0  0  0  0
 33 36  1  0  0  0  0
 33 34  1  0  0  0  0
 35 33  1  0  0  0  0
 37 33  1  6  0  0  0
 37 38  1  0  0  0  0
 38 39  1  0  0  0  0
 38 40  2  0  0  0  0
 40 41  1  0  0  0  0
 41 44  1  0  0  0  0
 41 43  1  0  0  0  0
 42 41  1  0  0  0  0
M  END
