1,4
 OpenBabel05122313053D

 34 36  0  0  1  0  0  0  0  0999 V2000
   -2.8030   -0.6326   -0.5652 N   0  0  0  0  0  2  0  0  0  0  0  0
    6.9365   -1.9057   -1.1852 F   0  0  0  0  0  0  0  0  0  0  0  0
   -0.6148    2.6725   -0.0189 N   0  0  0  0  0  0  0  0  0  0  0  0
   -1.2051    1.4699   -0.1826 N   0  0  0  0  0  2  0  0  0  0  0  0
    1.1004    3.9537    0.8129 O   0  0  0  0  0  0  0  0  0  0  0  0
   -3.5109   -1.7481   -0.8423 C   0  0  0  0  0  3  0  0  0  0  0  0
   -3.0660   -2.6982   -0.5143 H   0  0  0  0  0  0  0  0  0  0  0  0
   -3.2976    0.5763   -0.9627 C   0  0  0  0  0  0  0  0  0  0  0  0
   -4.5354    0.6863   -1.6209 C   0  0  0  0  0  0  0  0  0  0  0  0
   -4.9035    1.6762   -1.9234 H   0  0  0  0  0  0  0  0  0  0  0  0
   -5.2692   -0.4720   -1.8933 C   0  0  0  0  0  0  0  0  0  0  0  0
   -6.2378   -0.4090   -2.4103 H   0  0  0  0  0  0  0  0  0  0  0  0
   -4.7426   -1.7128   -1.5028 C   0  0  0  0  0  0  0  0  0  0  0  0
   -5.2762   -2.6521   -1.7033 H   0  0  0  0  0  0  0  0  0  0  0  0
   -2.4417    1.7202   -0.6739 C   0  0  1  0  0  3  0  0  0  0  0  0
   -2.6459    3.1209   -0.8025 C   0  0  0  0  0  0  0  0  0  0  0  0
   -3.5360    3.6415   -1.1671 H   0  0  0  0  0  0  0  0  0  0  0  0
   -1.4617    3.6932   -0.3651 C   0  0  0  0  0  0  0  0  0  0  0  0
   -1.1170    4.7289   -0.2875 H   0  0  0  0  0  0  0  0  0  0  0  0
    0.8120    2.8907    0.2888 C   0  0  0  0  0  0  0  0  0  0  0  0
    1.6860    1.8285   -0.1755 C   0  0  0  0  0  0  0  0  0  0  0  0
    1.2506    1.0292   -0.7982 H   0  0  0  0  0  0  0  0  0  0  0  0
    3.0141    1.8529    0.1488 C   0  0  0  0  0  0  0  0  0  0  0  0
    3.3640    2.7010    0.7636 H   0  0  0  0  0  0  0  0  0  0  0  0
    4.0064    0.8615   -0.2186 C   0  0  0  0  0  0  0  0  0  0  0  0
    3.6727   -0.3310   -0.9186 C   0  0  0  0  0  0  0  0  0  0  0  0
    2.6270   -0.5448   -1.1987 H   0  0  0  0  0  0  0  0  0  0  0  0
    4.6592   -1.2615   -1.2430 C   0  0  0  0  0  0  0  0  0  0  0  0
    4.4145   -2.1908   -1.7767 H   0  0  0  0  0  0  0  0  0  0  0  0
    5.9896   -1.0088   -0.8714 C   0  0  0  0  0  0  0  0  0  0  0  0
    6.3557    0.1524   -0.1763 C   0  0  0  0  0  0  0  0  0  0  0  0
    7.4079    0.3081    0.1003 H   0  0  0  0  0  0  0  0  0  0  0  0
    5.3601    1.0768    0.1479 C   0  0  0  0  0  0  0  0  0  0  0  0
    5.6271    1.9922    0.6980 H   0  0  0  0  0  0  0  0  0  0  0  0
  2 30  1  0  0  0  0
  3 20  1  0  0  0  0
  4  3  1  0  0  0  0
  6  1  1  0  0  0  0
  6  7  1  0  0  0  0
  8  1  1  0  0  0  0
  9  8  2  0  0  0  0
 10  9  1  0  0  0  0
 11  9  1  0  0  0  0
 11 13  2  0  0  0  0
 12 11  1  0  0  0  0
 13  6  1  0  0  0  0
 14 13  1  0  0  0  0
 15  8  1  1  0  0  0
 15  4  1  0  0  0  0
 16 15  1  0  0  0  0
 16 18  2  0  0  0  0
 17 16  1  0  0  0  0
 18 19  1  0  0  0  0
 18  3  1  0  0  0  0
 20  5  2  0  0  0  0
 21 23  2  0  0  0  0
 21 20  1  0  0  0  0
 22 21  1  0  0  0  0
 23 24  1  0  0  0  0
 25 33  1  0  0  0  0
 25 23  1  0  0  0  0
 26 25  2  0  0  0  0
 27 26  1  0  0  0  0
 28 26  1  0  0  0  0
 28 30  2  0  0  0  0
 29 28  1  0  0  0  0
 30 31  1  0  0  0  0
 31 32  1  0  0  0  0
 31 33  2  0  0  0  0
 33 34  1  0  0  0  0
M  END
