10,14
 OpenBabel05122313053D

 34 35  0  0  1  0  0  0  0  0999 V2000
   -3.8000   -1.2887   -0.6957 C   0  0  0  0  0  0  0  0  0  0  0  0
   -3.3502   -2.2340   -1.0302 H   0  0  0  0  0  0  0  0  0  0  0  0
   -5.9409   -2.3720   -0.7023 O   0  0  0  0  0  0  0  0  0  0  0  0
   -6.8732   -2.1208   -0.5385 H   0  0  0  0  0  0  0  0  0  0  0  0
   -0.9128   -1.3074   -0.6043 N   0  0  0  0  0  0  0  0  0  0  0  0
   -1.4071   -2.0925   -0.1609 H   0  0  0  0  0  0  0  0  0  0  0  0
   -5.1905   -1.2575   -0.5140 C   0  0  0  0  0  0  0  0  0  0  0  0
   -7.1666   -0.0564    0.0242 O   0  0  0  0  0  0  0  0  0  0  0  0
   -7.4362    0.8538    0.2663 H   0  0  0  0  0  0  0  0  0  0  0  0
    0.4152   -1.3061   -0.7080 N   0  0  0  0  0  2  0  0  0  0  0  0
   -5.8148   -0.0465   -0.1431 C   0  0  0  0  0  0  0  0  0  0  0  0
   -5.7842    2.2270    0.3868 O   0  0  0  0  0  0  0  0  0  0  0  0
   -5.1903    2.9915    0.4998 H   0  0  0  0  0  0  0  0  0  0  0  0
    3.0100   -0.8760   -0.5894 N   0  0  0  0  0  2  0  0  0  0  0  0
   -0.9363    0.9773   -0.8367 O   0  0  0  0  0  0  0  0  0  0  0  0
   -5.0512    1.1266    0.0335 C   0  0  0  0  0  0  0  0  0  0  0  0
   -3.6674    1.0988   -0.1513 C   0  0  0  0  0  0  0  0  0  0  0  0
   -3.0445    1.9966   -0.0217 H   0  0  0  0  0  0  0  0  0  0  0  0
   -3.0391   -0.1146   -0.5043 C   0  0  0  0  0  0  0  0  0  0  0  0
   -1.5661   -0.0689   -0.6686 C   0  0  0  0  0  0  0  0  0  0  0  0
    0.5118   -3.6744   -0.0430 C   0  0  0  0  0  0  0  0  0  0  0  0
   -0.0348   -3.5341    0.9160 H   0  0  0  0  0  0  0  0  0  0  0  0
    1.2612   -4.4664    0.1241 H   0  0  0  0  0  0  0  0  0  0  0  0
   -0.2161   -4.0439   -0.7968 H   0  0  0  0  0  0  0  0  0  0  0  0
    1.1251   -2.3675   -0.4607 C   0  0  2  0  0  3  0  0  0  0  0  0
    2.5928   -2.1625   -0.5652 C   0  0  1  0  0  3  0  0  0  0  0  0
    3.5181   -3.2228   -0.6540 C   0  0  0  0  0  0  0  0  0  0  0  0
    3.1805   -4.2685   -0.6448 H   0  0  0  0  0  0  0  0  0  0  0  0
    4.8821   -2.9232   -0.7813 C   0  0  0  0  0  0  0  0  0  0  0  0
    5.6194   -3.7368   -0.8549 H   0  0  0  0  0  0  0  0  0  0  0  0
    5.2908   -1.5838   -0.8217 C   0  0  0  0  0  0  0  0  0  0  0  0
    6.3507   -1.3101   -0.9230 H   0  0  0  0  0  0  0  0  0  0  0  0
    4.3073   -0.5843   -0.7225 C   0  0  0  0  0  0  0  0  0  0  0  0
    4.5413    0.4937   -0.7513 H   0  0  0  0  0  0  0  0  0  0  0  0
  1  7  2  0  0  0  0
  1 19  1  0  0  0  0
  2  1  1  0  0  0  0
  3  4  1  0  0  0  0
  3  7  1  0  0  0  0
  5  6  1  0  0  0  0
  7 11  1  0  0  0  0
  8  9  1  0  0  0  0
 10  5  1  0  0  0  0
 11  8  1  0  0  0  0
 11 16  2  0  0  0  0
 12 13  1  0  0  0  0
 14 26  1  0  0  0  0
 15 20  2  0  0  0  0
 16 12  1  0  0  0  0
 17 18  1  0  0  0  0
 17 16  1  0  0  0  0
 19 17  2  0  0  0  0
 20  5  1  0  0  0  0
 20 19  1  0  0  0  0
 21 23  1  0  0  0  0
 21 22  1  0  0  0  0
 24 21  1  0  0  0  0
 25 10  1  1  0  0  0
 25 21  1  0  0  0  0
 26 25  1  6  0  0  0
 27 28  1  0  0  0  0
 27 26  1  0  0  0  0
 29 27  2  0  0  0  0
 30 29  1  0  0  0  0
 31 29  1  0  0  0  0
 31 33  2  0  0  0  0
 32 31  1  0  0  0  0
 33 14  1  0  0  0  0
 34 33  1  0  0  0  0
M  END
