1,2
 OpenBabel05122313053D

 35 34  0  0  0  0  0  0  0  0999 V2000
   -1.0431   -0.0862    2.1083 N   0  0  0  0  0  0  0  0  0  0  0  0
   -2.3467   -1.8300    0.2725 N   0  0  0  0  0  0  0  0  0  0  0  0
   -3.8806    0.8109   -0.6651 N   0  0  0  0  0  0  0  0  0  0  0  0
   -2.0677   -1.0604    2.5767 C   0  0  0  0  0  0  0  0  0  0  0  0
   -2.5868   -0.6676    3.4829 H   0  0  0  0  0  0  0  0  0  0  0  0
   -1.5328   -1.9818    2.8835 H   0  0  0  0  0  0  0  0  0  0  0  0
   -3.0694   -1.3616    1.4736 C   0  0  0  0  0  0  0  0  0  0  0  0
   -3.8159   -2.1135    1.8225 H   0  0  0  0  0  0  0  0  0  0  0  0
   -3.6126   -0.4394    1.1910 H   0  0  0  0  0  0  0  0  0  0  0  0
   -3.0808   -1.5890   -0.9938 C   0  0  0  0  0  0  0  0  0  0  0  0
   -4.1030   -2.0319   -0.9244 H   0  0  0  0  0  0  0  0  0  0  0  0
   -2.5246   -2.1443   -1.7719 H   0  0  0  0  0  0  0  0  0  0  0  0
   -3.1073   -0.1376   -1.4675 C   0  0  0  0  0  0  0  0  0  0  0  0
   -2.0517    0.2053   -1.4926 H   0  0  0  0  0  0  0  0  0  0  0  0
   -3.4661   -0.1468   -2.5325 H   0  0  0  0  0  0  0  0  0  0  0  0
    0.0688   -0.0568    3.0766 C   0  0  0  0  0  0  0  0  0  0  0  0
   -0.2984    0.2164    4.0932 H   0  0  0  0  0  0  0  0  0  0  0  0
    0.8121    0.6925    2.7566 H   0  0  0  0  0  0  0  0  0  0  0  0
    0.5572   -1.0483    3.1160 H   0  0  0  0  0  0  0  0  0  0  0  0
   -1.6359    1.2655    1.9836 C   0  0  0  0  0  0  0  0  0  0  0  0
   -2.0105    1.6183    2.9735 H   0  0  0  0  0  0  0  0  0  0  0  0
   -2.4725    1.2421    1.2602 H   0  0  0  0  0  0  0  0  0  0  0  0
   -0.8658    1.9665    1.6155 H   0  0  0  0  0  0  0  0  0  0  0  0
   -1.9898   -3.2582    0.3674 C   0  0  0  0  0  0  0  0  0  0  0  0
   -2.8985   -3.9035    0.3179 H   0  0  0  0  0  0  0  0  0  0  0  0
   -1.4668   -3.4587    1.3214 H   0  0  0  0  0  0  0  0  0  0  0  0
   -1.3004   -3.5001   -0.4628 H   0  0  0  0  0  0  0  0  0  0  0  0
   -3.5643    2.1832   -1.0389 C   0  0  0  0  0  0  0  0  0  0  0  0
   -4.1040    2.8910   -0.3774 H   0  0  0  0  0  0  0  0  0  0  0  0
   -3.8496    2.4201   -2.0978 H   0  0  0  0  0  0  0  0  0  0  0  0
   -2.4766    2.3665   -0.9322 H   0  0  0  0  0  0  0  0  0  0  0  0
   -5.3126    0.5648   -0.7244 C   0  0  0  0  0  0  0  0  0  0  0  0
   -5.8472    1.2860   -0.0738 H   0  0  0  0  0  0  0  0  0  0  0  0
   -5.5535   -0.4552   -0.3632 H   0  0  0  0  0  0  0  0  0  0  0  0
   -5.7279    0.6635   -1.7623 H   0  0  0  0  0  0  0  0  0  0  0  0
  1  4  1  0  0  0  0
  1 16  1  0  0  0  0
  2 24  1  0  0  0  0
  2  7  1  0  0  0  0
  4  6  1  0  0  0  0
  4  5  1  0  0  0  0
  7  8  1  0  0  0  0
  7  4  1  0  0  0  0
  9  7  1  0  0  0  0
 10 11  1  0  0  0  0
 10  2  1  0  0  0  0
 12 10  1  0  0  0  0
 13 10  1  0  0  0  0
 13  3  1  0  0  0  0
 14 13  1  0  0  0  0
 15 13  1  0  0  0  0
 16 19  1  0  0  0  0
 16 17  1  0  0  0  0
 18 16  1  0  0  0  0
 20  1  1  0  0  0  0
 20 21  1  0  0  0  0
 22 20  1  0  0  0  0
 23 20  1  0  0  0  0
 24 26  1  0  0  0  0
 25 24  1  0  0  0  0
 27 24  1  0  0  0  0
 28 31  1  0  0  0  0
 28  3  1  0  0  0  0
 28 29  1  0  0  0  0
 30 28  1  0  0  0  0
 32  3  1  0  0  0  0
 32 34  1  0  0  0  0
 32 33  1  0  0  0  0
 35 32  1  0  0  0  0
M  END
