2,7
 OpenBabel05122313053D

 13 12  0  0  1  0  0  0  0  0999 V2000
   -4.3018   -1.1463   -0.1697 S   0  0  0  0  0  0  0  0  0  0  0  0
   -1.2834    0.6697   -1.9299 N   0  0  0  0  0  0  0  0  0  0  0  0
   -1.2617    1.7056   -1.8622 H   0  0  0  0  0  0  0  0  0  0  0  0
   -0.9969    0.3652   -2.8708 H   0  0  0  0  0  0  0  0  0  0  0  0
   -2.5283    0.1427   -1.5945 N   0  0  0  0  0  0  0  0  0  0  0  0
   -3.3644    0.4144   -2.1221 H   0  0  0  0  0  0  0  0  0  0  0  0
   -1.6873   -0.5198    0.4649 N   0  0  0  0  0  2  0  0  0  0  0  0
   -1.8690   -1.0775    1.3030 H   0  0  0  0  0  0  0  0  0  0  0  0
   -2.6833   -0.4664   -0.3778 C   0  0  2  0  0  3  0  0  0  0  0  0
   -4.3264   -1.4656    1.6182 C   0  0  0  0  0  0  0  0  0  0  0  0
   -5.3650   -1.7772    1.8384 H   0  0  0  0  0  0  0  0  0  0  0  0
   -4.0976   -0.5468    2.1914 H   0  0  0  0  0  0  0  0  0  0  0  0
   -3.6497   -2.2985    1.8929 H   0  0  0  0  0  0  0  0  0  0  0  0
  1 10  1  0  0  0  0
  2  3  1  0  0  0  0
  2  5  1  0  0  0  0
  4  2  1  0  0  0  0
  5  9  1  0  0  0  0
  6  5  1  0  0  0  0
  7  8  1  0  0  0  0
  9  1  1  6  0  0  0
  9  7  1  0  0  0  0
 10 11  1  0  0  0  0
 10 13  1  0  0  0  0
 10 12  1  0  0  0  0
M  END
