1,2
 OpenBabel05122313053D

 30 32  0  0  1  0  0  0  0  0999 V2000
    0.6635    0.5111    0.1205 N   0  0  0  0  0  2  0  0  0  0  0  0
   -1.5792    1.6705    0.4055 N   0  0  0  0  0  2  0  0  0  0  0  0
   -0.5041    2.5017    0.2106 N   0  0  1  0  0  0  0  0  0  0  0  0
    4.0304   -0.5241   -0.2259 N   0  0  0  0  0  0  0  0  0  0  0  0
    2.9368    0.3273   -0.1293 C   0  0  0  0  0  0  0  0  0  0  0  0
    1.9756    2.5178   -0.0892 C   0  0  0  0  0  0  0  0  0  0  0  0
    2.0459    3.6088   -0.1309 H   0  0  0  0  0  0  0  0  0  0  0  0
    0.7334    1.8694    0.0707 C   0  0  1  0  0  3  0  0  0  0  0  0
    5.2848    0.0061   -0.3156 N   0  0  0  0  0  0  0  0  0  0  0  0
    3.1099    1.7333   -0.1988 C   0  0  0  0  0  0  0  0  0  0  0  0
    4.1189    2.1432   -0.3334 H   0  0  0  0  0  0  0  0  0  0  0  0
    4.0368   -1.9083   -0.2499 C   0  0  0  0  0  0  0  0  0  0  0  0
    3.1056   -2.4792   -0.2023 H   0  0  0  0  0  0  0  0  0  0  0  0
    5.3599   -2.2775   -0.3585 C   0  0  0  0  0  0  0  0  0  0  0  0
    5.7586   -3.2961   -0.4122 H   0  0  0  0  0  0  0  0  0  0  0  0
    6.1029   -1.0438   -0.3959 C   0  0  0  0  0  0  0  0  0  0  0  0
   -0.9127    3.8284    0.1650 C   0  0  2  0  0  3  0  0  0  0  0  0
   -2.2943    3.8036    0.3363 C   0  0  0  0  0  0  0  0  0  0  0  0
   -2.9537    4.6767    0.3574 H   0  0  0  0  0  0  0  0  0  0  0  0
   -2.6643    2.4478    0.4722 C   0  0  0  0  0  0  0  0  0  0  0  0
   -3.6546    1.9988    0.5980 H   0  0  0  0  0  0  0  0  0  0  0  0
    1.7387   -0.2507    0.0301 N   0  0  0  0  0  0  0  0  0  0  0  0
   -0.0182    5.0021   -0.0397 C   0  0  0  0  0  0  0  0  0  0  0  0
   -0.6330    5.9200   -0.0454 H   0  0  0  0  0  0  0  0  0  0  0  0
    0.5166    4.9546   -1.0106 H   0  0  0  0  0  0  0  0  0  0  0  0
    0.7321    5.1108    0.7705 H   0  0  0  0  0  0  0  0  0  0  0  0
    7.5803   -0.8670   -0.5090 C   0  0  0  0  0  0  0  0  0  0  0  0
    7.9637   -1.3270   -1.4426 H   0  0  0  0  0  0  0  0  0  0  0  0
    8.1050   -1.3593    0.3350 H   0  0  0  0  0  0  0  0  0  0  0  0
    7.8398    0.2072   -0.5106 H   0  0  0  0  0  0  0  0  0  0  0  0
  2 20  1  0  0  0  0
  3  2  1  6  0  0  0
  4  5  1  0  0  0  0
  5 22  2  0  0  0  0
  7  6  1  0  0  0  0
  8  6  1  1  0  0  0
  8  1  1  0  0  0  0
  8  3  1  0  0  0  0
  9  4  1  0  0  0  0
 10  5  1  0  0  0  0
 10  6  2  0  0  0  0
 11 10  1  0  0  0  0
 12  4  1  0  0  0  0
 12 13  1  0  0  0  0
 14 12  2  0  0  0  0
 15 14  1  0  0  0  0
 16 14  1  0  0  0  0
 16  9  2  0  0  0  0
 17 23  1  6  0  0  0
 17  3  1  0  0  0  0
 17 18  1  0  0  0  0
 18 19  1  0  0  0  0
 18 20  2  0  0  0  0
 20 21  1  0  0  0  0
 22  1  1  0  0  0  0
 23 26  1  0  0  0  0
 24 23  1  0  0  0  0
 25 23  1  0  0  0  0
 27 16  1  0  0  0  0
 27 29  1  0  0  0  0
 28 27  1  0  0  0  0
 30 27  1  0  0  0  0
M  END
