1,3
 OpenBabel05122313053D

 36 38  0  0  1  0  0  0  0  0999 V2000
    2.3222    0.9310   -0.1619 N   0  0  0  0  0  2  0  0  0  0  0  0
    1.4560    2.0007   -0.1991 N   0  0  0  0  0  0  0  0  0  0  0  0
   -0.1625    0.3589   -0.1755 N   0  0  0  0  0  2  0  0  0  0  0  0
   -1.3903   -0.1256   -0.1414 N   0  0  0  0  0  2  0  0  0  0  0  0
   -3.7050    0.1848   -0.0393 N   0  0  0  0  0  0  0  0  0  0  0  0
   -4.7604    1.0327   -0.2593 N   0  0  0  0  0  0  0  0  0  0  0  0
    4.7593    0.5584    0.1839 C   0  0  0  0  0  0  0  0  0  0  0  0
    4.5932   -0.1527    1.0180 H   0  0  0  0  0  0  0  0  0  0  0  0
    5.6435    1.1766    0.4207 H   0  0  0  0  0  0  0  0  0  0  0  0
    4.9901   -0.0235   -0.7304 H   0  0  0  0  0  0  0  0  0  0  0  0
    3.5598    1.4246    0.0091 C   0  0  2  0  0  3  0  0  0  0  0  0
    3.4860    2.8414    0.0476 C   0  0  0  0  0  0  0  0  0  0  0  0
    4.3264    3.5334    0.1623 H   0  0  0  0  0  0  0  0  0  0  0  0
    2.1499    3.1969   -0.0772 C   0  0  0  0  0  0  0  0  0  0  0  0
    1.5404    4.5565   -0.0720 C   0  0  0  0  0  0  0  0  0  0  0  0
    1.0021    4.7845   -1.0150 H   0  0  0  0  0  0  0  0  0  0  0  0
    2.3454    5.3050    0.0384 H   0  0  0  0  0  0  0  0  0  0  0  0
    0.8387    4.6970    0.7759 H   0  0  0  0  0  0  0  0  0  0  0  0
    0.0980    1.6891   -0.2184 C   0  0  0  0  0  0  0  0  0  0  0  0
   -0.9646    2.6178   -0.2876 C   0  0  0  0  0  0  0  0  0  0  0  0
   -0.7769    3.6929   -0.3637 H   0  0  0  0  0  0  0  0  0  0  0  0
   -2.2563    2.1302   -0.2458 C   0  0  0  0  0  0  0  0  0  0  0  0
   -3.1456    2.7716   -0.2848 H   0  0  0  0  0  0  0  0  0  0  0  0
   -2.4279    0.7214   -0.1394 C   0  0  0  0  0  0  0  0  0  0  0  0
   -3.2233   -2.2502    0.6473 C   0  0  0  0  0  0  0  0  0  0  0  0
   -3.8394   -3.0874    1.0240 H   0  0  0  0  0  0  0  0  0  0  0  0
   -2.4812   -1.9750    1.4226 H   0  0  0  0  0  0  0  0  0  0  0  0
   -2.6551   -2.6074   -0.2349 H   0  0  0  0  0  0  0  0  0  0  0  0
   -4.1206   -1.1090    0.3033 C   0  0  0  0  0  0  0  0  0  0  0  0
   -5.5016   -1.0513    0.2817 C   0  0  0  0  0  0  0  0  0  0  0  0
   -6.1832   -1.8784    0.5086 H   0  0  0  0  0  0  0  0  0  0  0  0
   -5.8514    0.2950   -0.0740 C   0  0  0  0  0  0  0  0  0  0  0  0
   -7.2158    0.8779   -0.2360 C   0  0  0  0  0  0  0  0  0  0  0  0
   -7.1478    1.9473   -0.5062 H   0  0  0  0  0  0  0  0  0  0  0  0
   -7.8004    0.7834    0.7017 H   0  0  0  0  0  0  0  0  0  0  0  0
   -7.7831    0.3461   -1.0269 H   0  0  0  0  0  0  0  0  0  0  0  0
  1 11  1  0  0  0  0
  2  1  1  0  0  0  0
  2 14  1  0  0  0  0
  3  4  1  0  0  0  0
  4 24  1  0  0  0  0
  5 29  1  0  0  0  0
  6 32  2  0  0  0  0
  6  5  1  0  0  0  0
  7  9  1  0  0  0  0
  7  8  1  0  0  0  0
 10  7  1  0  0  0  0
 11 12  1  0  0  0  0
 11  7  1  1  0  0  0
 12 13  1  0  0  0  0
 14 15  1  0  0  0  0
 14 12  2  0  0  0  0
 15 17  1  0  0  0  0
 15 18  1  0  0  0  0
 16 15  1  0  0  0  0
 19  2  1  0  0  0  0
 19  3  1  0  0  0  0
 20 22  1  0  0  0  0
 20 19  2  0  0  0  0
 21 20  1  0  0  0  0
 22 24  2  0  0  0  0
 23 22  1  0  0  0  0
 24  5  1  0  0  0  0
 25 26  1  0  0  0  0
 25 27  1  0  0  0  0
 28 25  1  0  0  0  0
 29 25  1  0  0  0  0
 30 29  2  0  0  0  0
 30 31  1  0  0  0  0
 32 30  1  0  0  0  0
 33 32  1  0  0  0  0
 33 35  1  0  0  0  0
 34 33  1  0  0  0  0
 36 33  1  0  0  0  0
M  END
