3,4
 OpenBabel05122313053D

 82 90  0  0  0  0  0  0  0  0999 V2000
    7.2442    0.5592   -0.8189 Cl  0  0  0  0  0  0  0  0  0  0  0  0
   -7.2396   -0.4611   -0.4204 Cl  0  0  0  0  0  0  0  0  0  0  0  0
    1.3763   -0.0537   -0.0294 N   0  0  0  0  0  2  0  0  0  0  0  0
   -1.2804   -0.2188   -0.2948 N   0  0  0  0  0  2  0  0  0  0  0  0
    3.6099   -1.0417   -0.1156 C   0  0  0  0  0  0  0  0  0  0  0  0
    4.9888   -0.8901   -0.3440 C   0  0  0  0  0  0  0  0  0  0  0  0
    5.6376   -1.7764   -0.3541 H   0  0  0  0  0  0  0  0  0  0  0  0
    5.5354    0.3864   -0.5231 C   0  0  0  0  0  0  0  0  0  0  0  0
    4.7296    1.5298   -0.4479 C   0  0  0  0  0  0  0  0  0  0  0  0
    5.1762    2.5237   -0.5861 H   0  0  0  0  0  0  0  0  0  0  0  0
    3.3426    1.4157   -0.2336 C   0  0  0  0  0  0  0  0  0  0  0  0
    2.7842    0.1120   -0.0934 C   0  0  0  0  0  0  0  0  0  0  0  0
    3.0809   -2.3903    0.2145 C   0  0  0  0  0  0  0  0  0  0  0  0
    2.4161   -2.6052    1.4411 C   0  0  0  0  0  0  0  0  0  0  0  0
    2.2393   -1.7575    2.1207 H   0  0  0  0  0  0  0  0  0  0  0  0
    2.0211   -3.8944    1.8209 C   0  0  0  0  0  0  0  0  0  0  0  0
    1.5106   -4.0457    2.7831 H   0  0  0  0  0  0  0  0  0  0  0  0
    2.2753   -4.9850    0.9751 C   0  0  0  0  0  0  0  0  0  0  0  0
    1.9656   -5.9985    1.2733 H   0  0  0  0  0  0  0  0  0  0  0  0
    2.9159   -4.7777   -0.2572 C   0  0  0  0  0  0  0  0  0  0  0  0
    3.0988   -5.6257   -0.9343 H   0  0  0  0  0  0  0  0  0  0  0  0
    3.3208   -3.4905   -0.6347 C   0  0  0  0  0  0  0  0  0  0  0  0
    3.7955   -3.3171   -1.6108 H   0  0  0  0  0  0  0  0  0  0  0  0
    2.5299    2.6553   -0.1061 C   0  0  0  0  0  0  0  0  0  0  0  0
    2.2007    4.8219    0.9876 C   0  0  0  0  0  0  0  0  0  0  0  0
    2.5559    5.5935    1.6877 H   0  0  0  0  0  0  0  0  0  0  0  0
    2.9690    3.6689    0.7758 C   0  0  0  0  0  0  0  0  0  0  0  0
    3.9134    3.5320    1.3246 H   0  0  0  0  0  0  0  0  0  0  0  0
    0.9775    4.9803    0.3193 C   0  0  0  0  0  0  0  0  0  0  0  0
    0.3625    5.8765    0.4924 H   0  0  0  0  0  0  0  0  0  0  0  0
    0.5436    3.9931   -0.5799 C   0  0  0  0  0  0  0  0  0  0  0  0
   -0.4023    4.1155   -1.1239 H   0  0  0  0  0  0  0  0  0  0  0  0
    1.3145    2.8436   -0.7991 C   0  0  0  0  0  0  0  0  0  0  0  0
    0.9673    2.0866   -1.5187 H   0  0  0  0  0  0  0  0  0  0  0  0
    0.6498    0.4190    0.9555 C   0  0  0  0  0  0  0  0  0  0  0  0
    0.9355    1.0318    2.2540 C   0  0  0  0  0  0  0  0  0  0  0  0
    2.0844    1.3299    2.9826 C   0  0  0  0  0  0  0  0  0  0  0  0
    3.0850    1.1116    2.5849 H   0  0  0  0  0  0  0  0  0  0  0  0
    1.9360    1.9335    4.2632 C   0  0  0  0  0  0  0  0  0  0  0  0
    2.8426    2.1699    4.8400 H   0  0  0  0  0  0  0  0  0  0  0  0
    0.6881    2.2431    4.8060 C   0  0  0  0  0  0  0  0  0  0  0  0
    0.6217    2.7184    5.7967 H   0  0  0  0  0  0  0  0  0  0  0  0
   -0.5099    1.9447    4.0869 C   0  0  0  0  0  0  0  0  0  0  0  0
   -1.8565    2.1850    4.4995 C   0  0  0  0  0  0  0  0  0  0  0  0
   -2.0486    2.6603    5.4737 H   0  0  0  0  0  0  0  0  0  0  0  0
   -2.9247    1.8203    3.6784 C   0  0  0  0  0  0  0  0  0  0  0  0
   -3.9520    2.0170    4.0200 H   0  0  0  0  0  0  0  0  0  0  0  0
   -2.7400    1.1959    2.4119 C   0  0  0  0  0  0  0  0  0  0  0  0
   -3.6095    0.9193    1.8002 H   0  0  0  0  0  0  0  0  0  0  0  0
   -1.4376    0.9498    1.9806 C   0  0  0  0  0  0  0  0  0  0  0  0
   -0.3438    1.3347    2.8206 C   0  0  0  0  0  0  0  0  0  0  0  0
   -0.8195    0.3432    0.7985 C   0  0  0  0  0  0  0  0  0  0  0  0
   -2.6988   -0.3201   -0.4570 C   0  0  0  0  0  0  0  0  0  0  0  0
   -3.4307    0.7186   -1.0893 C   0  0  0  0  0  0  0  0  0  0  0  0
   -4.8398    0.6517   -1.0653 C   0  0  0  0  0  0  0  0  0  0  0  0
   -5.4246    1.4379   -1.5616 H   0  0  0  0  0  0  0  0  0  0  0  0
   -5.4964   -0.4119   -0.4355 C   0  0  0  0  0  0  0  0  0  0  0  0
   -4.7677   -1.4444    0.1679 C   0  0  0  0  0  0  0  0  0  0  0  0
   -5.2880   -2.2888    0.6401 H   0  0  0  0  0  0  0  0  0  0  0  0
   -3.3612   -1.4126    0.1589 C   0  0  0  0  0  0  0  0  0  0  0  0
   -2.6192   -2.5142    0.8343 C   0  0  0  0  0  0  0  0  0  0  0  0
   -2.8158   -2.7557    2.2100 C   0  0  0  0  0  0  0  0  0  0  0  0
   -3.4697   -2.0843    2.7883 H   0  0  0  0  0  0  0  0  0  0  0  0
   -2.1810   -3.8376    2.8391 C   0  0  0  0  0  0  0  0  0  0  0  0
   -2.3401   -4.0157    3.9137 H   0  0  0  0  0  0  0  0  0  0  0  0
   -1.1506   -4.4535    0.7266 C   0  0  0  0  0  0  0  0  0  0  0  0
   -0.4973   -5.1143    0.1388 H   0  0  0  0  0  0  0  0  0  0  0  0
   -1.3526   -4.6922    2.0957 C   0  0  0  0  0  0  0  0  0  0  0  0
   -0.8612   -5.5472    2.5853 H   0  0  0  0  0  0  0  0  0  0  0  0
   -1.7735   -3.3694    0.0955 C   0  0  0  0  0  0  0  0  0  0  0  0
   -1.6258   -3.1873   -0.9804 H   0  0  0  0  0  0  0  0  0  0  0  0
   -2.8144    1.9016   -1.7553 C   0  0  0  0  0  0  0  0  0  0  0  0
   -1.8821    1.7563   -2.8061 C   0  0  0  0  0  0  0  0  0  0  0  0
   -1.5547    0.7489   -3.1044 H   0  0  0  0  0  0  0  0  0  0  0  0
   -1.4270    2.8818   -3.5084 C   0  0  0  0  0  0  0  0  0  0  0  0
   -0.7092    2.7462   -4.3315 H   0  0  0  0  0  0  0  0  0  0  0  0
   -1.8953    4.1647   -3.1810 C   0  0  0  0  0  0  0  0  0  0  0  0
   -1.5409    5.0435   -3.7408 H   0  0  0  0  0  0  0  0  0  0  0  0
   -2.8137    4.3207   -2.1295 C   0  0  0  0  0  0  0  0  0  0  0  0
   -3.1793    5.3226   -1.8575 H   0  0  0  0  0  0  0  0  0  0  0  0
   -3.2659    3.1985   -1.4204 C   0  0  0  0  0  0  0  0  0  0  0  0
   -3.9841    3.3227   -0.5951 H   0  0  0  0  0  0  0  0  0  0  0  0
  1  8  1  0  0  0  0
  3 35  1  0  0  0  0
  4 52  1  0  0  0  0
  5 12  1  0  0  0  0
  5 13  1  0  0  0  0
  6  5  2  0  0  0  0
  7  6  1  0  0  0  0
  8  9  2  0  0  0  0
  8  6  1  0  0  0  0
  9 11  1  0  0  0  0
 10  9  1  0  0  0  0
 11 24  1  0  0  0  0
 11 12  2  0  0  0  0
 12  3  1  0  0  0  0
 13 14  1  0  0  0  0
 14 16  2  0  0  0  0
 14 15  1  0  0  0  0
 16 17  1  0  0  0  0
 18 19  1  0  0  0  0
 18 16  1  0  0  0  0
 20 18  2  0  0  0  0
 21 20  1  0  0  0  0
 22 20  1  0  0  0  0
 22 13  2  0  0  0  0
 23 22  1  0  0  0  0
 24 27  1  0  0  0  0
 25 26  1  0  0  0  0
 27 25  2  0  0  0  0
 27 28  1  0  0  0  0
 29 30  1  0  0  0  0
 29 25  1  0  0  0  0
 31 29  2  0  0  0  0
 32 31  1  0  0  0  0
 33 31  1  0  0  0  0
 33 24  2  0  0  0  0
 34 33  1  0  0  0  0
 35 36  1  0  0  0  0
 36 51  2  0  0  0  0
 36 37  1  0  0  0  0
 37 39  2  0  0  0  0
 38 37  1  0  0  0  0
 39 41  1  0  0  0  0
 39 40  1  0  0  0  0
 41 42  1  0  0  0  0
 43 44  1  0  0  0  0
 43 41  2  0  0  0  0
 44 45  1  0  0  0  0
 46 47  1  0  0  0  0
 46 44  2  0  0  0  0
 48 46  1  0  0  0  0
 49 48  1  0  0  0  0
 50 48  2  0  0  0  0
 50 51  1  0  0  0  0
 51 43  1  0  0  0  0
 52 35  2  0  0  0  0
 52 50  1  0  0  0  0
 53  4  1  0  0  0  0
 53 60  1  0  0  0  0
 54 55  1  0  0  0  0
 54 53  2  0  0  0  0
 55 57  2  0  0  0  0
 56 55  1  0  0  0  0
 57  2  1  0  0  0  0
 57 58  1  0  0  0  0
 58 59  1  0  0  0  0
 60 58  2  0  0  0  0
 60 61  1  0  0  0  0
 61 62  1  0  0  0  0
 62 63  1  0  0  0  0
 62 64  2  0  0  0  0
 64 65  1  0  0  0  0
 66 68  2  0  0  0  0
 67 66  1  0  0  0  0
 68 69  1  0  0  0  0
 68 64  1  0  0  0  0
 70 66  1  0  0  0  0
 70 61  2  0  0  0  0
 71 70  1  0  0  0  0
 72 81  1  0  0  0  0
 72 54  1  0  0  0  0
 73 72  2  0  0  0  0
 74 73  1  0  0  0  0
 75 77  2  0  0  0  0
 75 73  1  0  0  0  0
 76 75  1  0  0  0  0
 77 79  1  0  0  0  0
 78 77  1  0  0  0  0
 79 80  1  0  0  0  0
 79 81  2  0  0  0  0
 81 82  1  0  0  0  0
M  END
