1,35
 OpenBabel05122313053D

 61 62  0  0  1  0  0  0  0  0999 V2000
   -1.4083    0.3977    0.3980 N   0  0  0  0  0  2  0  0  0  0  0  0
   -1.2364    1.6594    0.6679 C   0  0  2  0  0  3  0  0  0  0  0  0
   -0.0000    2.3813    0.0848 C   0  0  0  0  0  0  0  0  0  0  0  0
   -0.0001    3.8827    0.4345 C   0  0  0  0  0  0  0  0  0  0  0  0
   -0.0000    2.2879   -1.4662 C   0  0  0  0  0  0  0  0  0  0  0  0
   -2.1659    2.4216    1.5669 C   0  0  0  0  0  0  0  0  0  0  0  0
   -2.5639   -0.3152    0.8612 C   0  0  0  0  0  0  0  0  0  0  0  0
   -2.3659   -1.2679    1.8782 C   0  0  0  0  0  0  0  0  0  0  0  0
   -3.4416   -2.0132    2.3678 C   0  0  0  0  0  0  0  0  0  0  0  0
   -4.7195   -1.8224    1.8186 C   0  0  0  0  0  0  0  0  0  0  0  0
   -4.9028   -0.8889    0.7920 C   0  0  0  0  0  0  0  0  0  0  0  0
   -3.8421   -0.1099    0.2848 C   0  0  0  0  0  0  0  0  0  0  0  0
   -4.0976    0.8682   -0.8561 C   0  0  0  0  0  0  0  0  0  0  0  0
   -5.1562    1.9209   -0.4806 C   0  0  0  0  0  0  0  0  0  0  0  0
   -4.4868    0.1283   -2.1484 C   0  0  0  0  0  0  0  0  0  0  0  0
    0.8887    4.3729   -0.0055 H   0  0  0  0  0  0  0  0  0  0  0  0
   -0.0001    4.0949    1.5189 H   0  0  0  0  0  0  0  0  0  0  0  0
   -0.0000    1.2353   -1.8200 H   0  0  0  0  0  0  0  0  0  0  0  0
    0.8993    2.7932   -1.8703 H   0  0  0  0  0  0  0  0  0  0  0  0
   -2.6632    3.2472    1.0191 H   0  0  0  0  0  0  0  0  0  0  0  0
   -1.5959    2.8917    2.3934 H   0  0  0  0  0  0  0  0  0  0  0  0
   -2.9424    1.7638    1.9937 H   0  0  0  0  0  0  0  0  0  0  0  0
   -1.3482   -1.4195    2.2658 H   0  0  0  0  0  0  0  0  0  0  0  0
   -3.2787   -2.7522    3.1660 H   0  0  0  0  0  0  0  0  0  0  0  0
   -5.5740   -2.4118    2.1836 H   0  0  0  0  0  0  0  0  0  0  0  0
   -5.9057   -0.7613    0.3561 H   0  0  0  0  0  0  0  0  0  0  0  0
   -3.1473    1.4002   -1.0666 H   0  0  0  0  0  0  0  0  0  0  0  0
   -5.2651    2.6690   -1.2923 H   0  0  0  0  0  0  0  0  0  0  0  0
   -4.9019    2.4605    0.4538 H   0  0  0  0  0  0  0  0  0  0  0  0
   -6.1512    1.4535   -0.3309 H   0  0  0  0  0  0  0  0  0  0  0  0
   -3.6954   -0.5936   -2.4286 H   0  0  0  0  0  0  0  0  0  0  0  0
   -4.6293    0.8509   -2.9783 H   0  0  0  0  0  0  0  0  0  0  0  0
   -5.4387   -0.4272   -2.0184 H   0  0  0  0  0  0  0  0  0  0  0  0
    1.2364    1.6594    0.6679 C   0  0  2  0  0  3  0  0  0  0  0  0
    1.4083    0.3977    0.3980 N   0  0  0  0  0  2  0  0  0  0  0  0
    2.5639   -0.3151    0.8613 C   0  0  0  0  0  0  0  0  0  0  0  0
    2.3659   -1.2678    1.8783 C   0  0  0  0  0  0  0  0  0  0  0  0
    3.4417   -2.0130    2.3679 C   0  0  0  0  0  0  0  0  0  0  0  0
    4.7196   -1.8223    1.8187 C   0  0  0  0  0  0  0  0  0  0  0  0
    4.9028   -0.8888    0.7920 C   0  0  0  0  0  0  0  0  0  0  0  0
    3.8420   -0.1099    0.2848 C   0  0  0  0  0  0  0  0  0  0  0  0
    4.0975    0.8682   -0.8561 C   0  0  0  0  0  0  0  0  0  0  0  0
    5.1561    1.9209   -0.4807 C   0  0  0  0  0  0  0  0  0  0  0  0
    5.2650    2.6690   -1.2925 H   0  0  0  0  0  0  0  0  0  0  0  0
    4.9019    2.4605    0.4536 H   0  0  0  0  0  0  0  0  0  0  0  0
    6.1511    1.4535   -0.3311 H   0  0  0  0  0  0  0  0  0  0  0  0
    4.4867    0.1283   -2.1484 C   0  0  0  0  0  0  0  0  0  0  0  0
    3.6953   -0.5937   -2.4286 H   0  0  0  0  0  0  0  0  0  0  0  0
    4.6292    0.8507   -2.9784 H   0  0  0  0  0  0  0  0  0  0  0  0
    5.4387   -0.4272   -2.0185 H   0  0  0  0  0  0  0  0  0  0  0  0
    3.1472    1.4002   -1.0667 H   0  0  0  0  0  0  0  0  0  0  0  0
    5.9057   -0.7613    0.3561 H   0  0  0  0  0  0  0  0  0  0  0  0
    5.5740   -2.4116    2.1837 H   0  0  0  0  0  0  0  0  0  0  0  0
    3.2787   -2.7519    3.1662 H   0  0  0  0  0  0  0  0  0  0  0  0
    1.3482   -1.4193    2.2660 H   0  0  0  0  0  0  0  0  0  0  0  0
    2.1658    2.4217    1.5669 C   0  0  0  0  0  0  0  0  0  0  0  0
    2.6631    3.2473    1.0190 H   0  0  0  0  0  0  0  0  0  0  0  0
    1.5958    2.8917    2.3934 H   0  0  0  0  0  0  0  0  0  0  0  0
    2.9424    1.7639    1.9937 H   0  0  0  0  0  0  0  0  0  0  0  0
   -0.8889    4.3728   -0.0055 H   0  0  0  0  0  0  0  0  0  0  0  0
   -0.8993    2.7932   -1.8703 H   0  0  0  0  0  0  0  0  0  0  0  0
  1  7  1  0  0  0  0
  2  1  1  1  0  0  0
  2  6  1  0  0  0  0
  3  4  1  0  0  0  0
  3  2  1  0  0  0  0
  3 34  1  0  0  0  0
  4 17  1  0  0  0  0
  5  3  1  0  0  0  0
  6 22  1  0  0  0  0
  6 21  1  0  0  0  0
  7  8  1  0  0  0  0
  8 23  1  0  0  0  0
  8  9  2  0  0  0  0
  9 24  1  0  0  0  0
 10 25  1  0  0  0  0
 10  9  1  0  0  0  0
 11 10  2  0  0  0  0
 12 11  1  0  0  0  0
 12  7  2  0  0  0  0
 13 14  1  0  0  0  0
 13 12  1  0  0  0  0
 14 30  1  0  0  0  0
 14 29  1  0  0  0  0
 15 33  1  0  0  0  0
 15 13  1  0  0  0  0
 16  4  1  0  0  0  0
 18  5  1  0  0  0  0
 19  5  1  0  0  0  0
 20  6  1  0  0  0  0
 26 11  1  0  0  0  0
 27 13  1  0  0  0  0
 28 14  1  0  0  0  0
 31 15  1  0  0  0  0
 32 15  1  0  0  0  0
 34 35  1  1  0  0  0
 34 56  1  0  0  0  0
 35 36  1  0  0  0  0
 36 37  1  0  0  0  0
 37 55  1  0  0  0  0
 37 38  2  0  0  0  0
 38 54  1  0  0  0  0
 39 53  1  0  0  0  0
 39 38  1  0  0  0  0
 40 39  2  0  0  0  0
 41 40  1  0  0  0  0
 41 36  2  0  0  0  0
 42 43  1  0  0  0  0
 42 41  1  0  0  0  0
 43 46  1  0  0  0  0
 43 45  1  0  0  0  0
 44 43  1  0  0  0  0
 47 50  1  0  0  0  0
 47 42  1  0  0  0  0
 48 47  1  0  0  0  0
 49 47  1  0  0  0  0
 51 42  1  0  0  0  0
 52 40  1  0  0  0  0
 56 59  1  0  0  0  0
 56 58  1  0  0  0  0
 57 56  1  0  0  0  0
 60  4  1  0  0  0  0
 61  5  1  0  0  0  0
M  END
