2,3
 OpenBabel05122313053D

 35 36  0  0  0  0  0  0  0  0999 V2000
   -1.8783    0.6453    0.0130 C   0  0  0  0  0  0  0  0  0  0  0  0
   -0.5711    0.9903    0.0065 N   0  0  0  0  0  2  0  0  0  0  0  0
   -0.9880   -1.5661    0.0007 N   0  0  0  0  0  2  0  0  0  0  0  0
   -2.1145   -0.8226   -0.0019 C   0  0  0  0  0  0  0  0  0  0  0  0
   -0.0712    3.0755   -1.1935 C   0  0  0  0  0  0  0  0  0  0  0  0
   -0.3038    2.5617   -2.1381 H   0  0  0  0  0  0  0  0  0  0  0  0
   -4.7080   -0.8492   -0.0272 C   0  0  0  0  0  0  0  0  0  0  0  0
   -5.5168   -1.5989   -0.0579 H   0  0  0  0  0  0  0  0  0  0  0  0
   -5.1267    0.4884    0.0140 C   0  0  0  0  0  0  0  0  0  0  0  0
   -6.2114    0.6770    0.0164 H   0  0  0  0  0  0  0  0  0  0  0  0
    0.0867    3.0105    1.2341 C   0  0  0  0  0  0  0  0  0  0  0  0
   -0.0216    2.4436    2.1708 H   0  0  0  0  0  0  0  0  0  0  0  0
    0.4979    4.3514    1.2400 C   0  0  0  0  0  0  0  0  0  0  0  0
    0.7189    4.8480    2.1973 H   0  0  0  0  0  0  0  0  0  0  0  0
   -0.2001    2.3596    0.0158 C   0  0  0  0  0  0  0  0  0  0  0  0
   -4.2788    1.6016    0.0527 C   0  0  0  0  0  0  0  0  0  0  0  0
   -4.7745    2.5863    0.0873 H   0  0  0  0  0  0  0  0  0  0  0  0
   -3.4220   -1.3971   -0.0297 C   0  0  0  0  0  0  0  0  0  0  0  0
   -3.4264   -2.4901   -0.0604 H   0  0  0  0  0  0  0  0  0  0  0  0
   -2.8821    1.6540    0.0485 C   0  0  0  0  0  3  0  0  0  0  0  0
   -2.4680    2.6725    0.0778 H   0  0  0  0  0  0  0  0  0  0  0  0
    0.6293    5.0586    0.0338 C   0  0  0  0  0  0  0  0  0  0  0  0
    0.9565    6.1090    0.0406 H   0  0  0  0  0  0  0  0  0  0  0  0
    0.3415    4.4160   -1.1813 C   0  0  0  0  0  0  0  0  0  0  0  0
    0.4403    4.9630   -2.1314 H   0  0  0  0  0  0  0  0  0  0  0  0
   -1.6027   -3.6764    1.2591 C   0  0  0  0  0  0  0  0  0  0  0  0
   -1.1399   -3.2142    2.1541 H   0  0  0  0  0  0  0  0  0  0  0  0
   -1.3676   -4.7601    1.2729 H   0  0  0  0  0  0  0  0  0  0  0  0
   -2.6993   -3.5714    1.3616 H   0  0  0  0  0  0  0  0  0  0  0  0
   -1.0179   -3.0418   -0.0161 C   0  0  0  0  0  0  0  0  0  0  0  0
    0.0468   -3.3352    0.0047 H   0  0  0  0  0  0  0  0  0  0  0  0
   -1.5403   -3.6393   -1.3352 C   0  0  0  0  0  0  0  0  0  0  0  0
   -2.6285   -3.5150   -1.4929 H   0  0  0  0  0  0  0  0  0  0  0  0
   -1.3196   -4.7259   -1.3627 H   0  0  0  0  0  0  0  0  0  0  0  0
   -1.0226   -3.1622   -2.1913 H   0  0  0  0  0  0  0  0  0  0  0  0
  1 20  1  0  0  0  0
  2  1  1  0  0  0  0
  2 15  1  0  0  0  0
  4  3  1  0  0  0  0
  4  1  2  0  0  0  0
  5 24  2  0  0  0  0
  5 15  1  0  0  0  0
  6  5  1  0  0  0  0
  7  9  1  0  0  0  0
  8  7  1  0  0  0  0
  9 10  1  0  0  0  0
  9 16  2  0  0  0  0
 11 13  1  0  0  0  0
 11 12  1  0  0  0  0
 13 14  1  0  0  0  0
 15 11  2  0  0  0  0
 16 17  1  0  0  0  0
 18  7  2  0  0  0  0
 18  4  1  0  0  0  0
 19 18  1  0  0  0  0
 20 16  1  0  0  0  0
 20 21  1  0  0  0  0
 22 23  1  0  0  0  0
 22 13  2  0  0  0  0
 24 22  1  0  0  0  0
 25 24  1  0  0  0  0
 26 28  1  0  0  0  0
 26 29  1  0  0  0  0
 26 27  1  0  0  0  0
 30  3  1  0  0  0  0
 30 31  1  0  0  0  0
 30 26  1  0  0  0  0
 32 30  1  0  0  0  0
 33 32  1  0  0  0  0
 34 32  1  0  0  0  0
 35 32  1  0  0  0  0
M  END
