5,6
 OpenBabel05122313053D

 44 48  0  0  0  0  0  0  0  0999 V2000
    2.3544    1.1606   -0.7521 S   0  0  2  0  0  0  0  0  0  0  0  0
   -3.1457    0.5436    0.9513 S   0  0  2  0  0  0  0  0  0  0  0  0
    2.5997    0.2761   -1.9149 O   0  0  0  0  0  1  0  0  0  0  0  0
   -3.1981    0.4865    2.4317 O   0  0  0  0  0  1  0  0  0  0  0  0
    0.8480    1.2676   -0.1443 N   0  0  0  0  0  2  0  0  0  0  0  0
   -1.7153    0.8458    0.2393 N   0  0  0  0  0  2  0  0  0  0  0  0
    2.8092    2.8166   -1.0778 C   0  0  0  0  0  0  0  0  0  0  0  0
    3.8839    2.9717   -1.2493 H   0  0  0  0  0  0  0  0  0  0  0  0
    1.8433    3.7640   -1.2662 C   0  0  0  0  0  0  0  0  0  0  0  0
    2.1683    4.7658   -1.5922 H   0  0  0  0  0  0  0  0  0  0  0  0
    0.4366    3.5522   -1.0478 C   0  0  0  0  0  0  0  0  0  0  0  0
   -0.5236    4.5728   -1.3219 C   0  0  0  0  0  0  0  0  0  0  0  0
   -0.1735    5.5284   -1.7387 H   0  0  0  0  0  0  0  0  0  0  0  0
   -1.8671    4.3674   -1.0705 C   0  0  0  0  0  0  0  0  0  0  0  0
   -2.6032    5.1555   -1.2862 H   0  0  0  0  0  0  0  0  0  0  0  0
   -2.3246    3.1308   -0.5235 C   0  0  0  0  0  0  0  0  0  0  0  0
   -3.7202    2.8785   -0.2836 C   0  0  0  0  0  0  0  0  0  0  0  0
   -4.4417    3.6552   -0.5868 H   0  0  0  0  0  0  0  0  0  0  0  0
   -4.2256    1.7370    0.2757 C   0  0  0  0  0  0  0  0  0  0  0  0
   -5.2919    1.5513    0.4678 H   0  0  0  0  0  0  0  0  0  0  0  0
    0.0047    2.3111   -0.5118 C   0  0  0  0  0  0  0  0  0  0  0  0
   -1.3854    2.1065   -0.2358 C   0  0  0  0  0  0  0  0  0  0  0  0
    3.3197    0.5814    0.6335 C   0  0  0  0  0  0  0  0  0  0  0  0
    2.9765    0.9507    1.9448 C   0  0  0  0  0  0  0  0  0  0  0  0
    2.0966    1.5823    2.1328 H   0  0  0  0  0  0  0  0  0  0  0  0
    3.7741    0.4795    2.9965 C   0  0  0  0  0  0  0  0  0  0  0  0
    3.5211    0.7458    4.0332 H   0  0  0  0  0  0  0  0  0  0  0  0
    4.8985   -0.3215    2.7265 C   0  0  0  0  0  0  0  0  0  0  0  0
    5.5244   -0.6795    3.5574 H   0  0  0  0  0  0  0  0  0  0  0  0
    5.2303   -0.6652    1.4056 C   0  0  0  0  0  0  0  0  0  0  0  0
    6.1107   -1.2923    1.2016 H   0  0  0  0  0  0  0  0  0  0  0  0
    4.4339   -0.2193    0.3402 C   0  0  0  0  0  0  0  0  0  0  0  0
    4.6481   -0.4981   -0.7013 H   0  0  0  0  0  0  0  0  0  0  0  0
   -3.5794   -1.0654    0.3057 C   0  0  0  0  0  0  0  0  0  0  0  0
   -3.3373   -1.3649   -1.0453 C   0  0  0  0  0  0  0  0  0  0  0  0
   -2.8969   -0.6111   -1.7138 H   0  0  0  0  0  0  0  0  0  0  0  0
   -3.6495   -2.6514   -1.5049 C   0  0  0  0  0  0  0  0  0  0  0  0
   -3.4634   -2.9149   -2.5565 H   0  0  0  0  0  0  0  0  0  0  0  0
   -4.1998   -3.6013   -0.6252 C   0  0  0  0  0  0  0  0  0  0  0  0
   -4.4415   -4.6093   -0.9939 H   0  0  0  0  0  0  0  0  0  0  0  0
   -4.4453   -3.2737    0.7185 C   0  0  0  0  0  0  0  0  0  0  0  0
   -4.8763   -4.0212    1.4006 H   0  0  0  0  0  0  0  0  0  0  0  0
   -4.1337   -1.9930    1.1996 C   0  0  0  0  0  0  0  0  0  0  0  0
   -4.2920   -1.7112    2.2506 H   0  0  0  0  0  0  0  0  0  0  0  0
  1  3  1  6  0  0  0
  1  5  1  0  0  0  0
  1 23  1  0  0  0  0
  2  4  1  1  0  0  0
  6  2  1  0  0  0  0
  7  1  1  0  0  0  0
  8  7  1  0  0  0  0
  9  7  2  0  0  0  0
  9 11  1  0  0  0  0
 10  9  1  0  0  0  0
 11 21  1  0  0  0  0
 12 14  1  0  0  0  0
 12 11  2  0  0  0  0
 13 12  1  0  0  0  0
 14 16  2  0  0  0  0
 15 14  1  0  0  0  0
 16 17  1  0  0  0  0
 16 22  1  0  0  0  0
 17 19  2  0  0  0  0
 18 17  1  0  0  0  0
 19 20  1  0  0  0  0
 19  2  1  0  0  0  0
 21 22  2  0  0  0  0
 21  5  1  0  0  0  0
 22  6  1  0  0  0  0
 23 24  1  0  0  0  0
 24 25  1  0  0  0  0
 24 26  2  0  0  0  0
 26 27  1  0  0  0  0
 28 26  1  0  0  0  0
 28 29  1  0  0  0  0
 30 28  2  0  0  0  0
 31 30  1  0  0  0  0
 32 23  2  0  0  0  0
 32 30  1  0  0  0  0
 33 32  1  0  0  0  0
 34  2  1  0  0  0  0
 34 43  1  0  0  0  0
 35 34  2  0  0  0  0
 36 35  1  0  0  0  0
 37 35  1  0  0  0  0
 37 39  2  0  0  0  0
 38 37  1  0  0  0  0
 39 41  1  0  0  0  0
 40 39  1  0  0  0  0
 41 43  2  0  0  0  0
 41 42  1  0  0  0  0
 43 44  1  0  0  0  0
M  END
