4,5
 OpenBabel05122313053D

 37 38  0  0  1  0  0  0  0  0999 V2000
    0.6244   -1.5509   -2.1831 S   0  0  0  0  0  0  0  0  0  0  0  0
    0.8443   -0.4335   -3.1371 O   0  0  0  0  0  0  0  0  0  0  0  0
   -0.6320   -2.3435   -2.2597 O   0  0  0  0  0  0  0  0  0  0  0  0
    0.2683    1.0961    0.8921 N   0  0  0  0  0  0  0  0  0  0  0  0
    0.8565   -1.0792   -0.5729 N   0  0  0  0  0  2  0  0  0  0  0  0
    1.6996    0.7162    0.8555 C   0  0  1  0  0  0  0  0  0  0  0  0
    1.9098   -0.0465   -0.4699 C   0  0  1  0  0  0  0  0  0  0  0  0
    1.9413   -2.7534   -2.5032 C   0  0  0  0  0  0  0  0  0  0  0  0
    2.6330    1.8999    0.9999 C   0  0  0  0  0  0  0  0  0  0  0  0
    3.7043    1.8487    1.9107 C   0  0  0  0  0  0  0  0  0  0  0  0
    4.6043    2.9195    2.0162 C   0  0  0  0  0  0  0  0  0  0  0  0
    4.4377    4.0572    1.2116 C   0  0  0  0  0  0  0  0  0  0  0  0
    3.3712    4.1159    0.2996 C   0  0  0  0  0  0  0  0  0  0  0  0
    2.4746    3.0432    0.1883 C   0  0  0  0  0  0  0  0  0  0  0  0
    3.3184   -0.6181   -0.5012 C   0  0  0  0  0  0  0  0  0  0  0  0
    3.6553   -1.7225    0.3056 C   0  0  0  0  0  0  0  0  0  0  0  0
    4.9610   -2.2320    0.3069 C   0  0  0  0  0  0  0  0  0  0  0  0
    5.9472   -1.6431   -0.5037 C   0  0  0  0  0  0  0  0  0  0  0  0
    5.6180   -0.5439   -1.3119 C   0  0  0  0  0  0  0  0  0  0  0  0
    4.3098   -0.0339   -1.3088 C   0  0  0  0  0  0  0  0  0  0  0  0
    0.0637    1.7629    0.1089 H   0  0  0  0  0  0  0  0  0  0  0  0
    0.0367    1.5688    1.7751 H   0  0  0  0  0  0  0  0  0  0  0  0
    1.8704    0.0073    1.6930 H   0  0  0  0  0  0  0  0  0  0  0  0
    1.8087    0.6956   -1.2950 H   0  0  0  0  0  0  0  0  0  0  0  0
    1.7386   -3.1280   -3.5238 H   0  0  0  0  0  0  0  0  0  0  0  0
    1.8706   -3.5686   -1.7615 H   0  0  0  0  0  0  0  0  0  0  0  0
    2.9264   -2.2581   -2.4560 H   0  0  0  0  0  0  0  0  0  0  0  0
    3.8417    0.9490    2.5311 H   0  0  0  0  0  0  0  0  0  0  0  0
    5.4412    2.8636    2.7289 H   0  0  0  0  0  0  0  0  0  0  0  0
    5.1418    4.8992    1.2930 H   0  0  0  0  0  0  0  0  0  0  0  0
    3.2379    5.0033   -0.3376 H   0  0  0  0  0  0  0  0  0  0  0  0
    1.6509    3.0954   -0.5416 H   0  0  0  0  0  0  0  0  0  0  0  0
    2.8673   -2.1944    0.9129 H   0  0  0  0  0  0  0  0  0  0  0  0
    5.2130   -3.0982    0.9383 H   0  0  0  0  0  0  0  0  0  0  0  0
    6.9716   -2.0456   -0.5082 H   0  0  0  0  0  0  0  0  0  0  0  0
    6.3841   -0.0813   -1.9528 H   0  0  0  0  0  0  0  0  0  0  0  0
    4.0446    0.8249   -1.9446 H   0  0  0  0  0  0  0  0  0  0  0  0
  1  5  1  0  0  0  0
  2  1  2  0  0  0  0
  3  1  2  0  0  0  0
  4 22  1  0  0  0  0
  5  7  1  0  0  0  0
  6  4  1  0  0  0  0
  6  9  1  0  0  0  0
  6 23  1  1  0  0  0
  7 24  1  6  0  0  0
  7  6  1  0  0  0  0
  8 27  1  0  0  0  0
  8  1  1  0  0  0  0
  8 26  1  0  0  0  0
  9 10  1  0  0  0  0
 10 11  2  0  0  0  0
 10 28  1  0  0  0  0
 11 29  1  0  0  0  0
 12 30  1  0  0  0  0
 12 11  1  0  0  0  0
 13 12  2  0  0  0  0
 14 13  1  0  0  0  0
 14  9  2  0  0  0  0
 15  7  1  0  0  0  0
 15 16  1  0  0  0  0
 16 17  2  0  0  0  0
 16 33  1  0  0  0  0
 17 34  1  0  0  0  0
 18 17  1  0  0  0  0
 19 20  1  0  0  0  0
 19 18  2  0  0  0  0
 20 15  2  0  0  0  0
 21  4  1  0  0  0  0
 25  8  1  0  0  0  0
 31 13  1  0  0  0  0
 32 14  1  0  0  0  0
 35 18  1  0  0  0  0
 36 19  1  0  0  0  0
 37 20  1  0  0  0  0
M  END
