19,20
 OpenBabel05122313053D

 25 27  0  0  1  0  0  0  0  0999 V2000
    0.9221    4.2310    1.0811 C   0  0  0  0  0  3  0  0  0  0  0  0
    0.6742    5.2863    1.2383 H   0  0  0  0  0  0  0  0  0  0  0  0
    2.1405    3.5884    0.8857 C   0  0  0  0  0  0  0  0  0  0  0  0
    3.1279    4.0577    0.8378 H   0  0  0  0  0  0  0  0  0  0  0  0
    1.8056    2.2139    0.7375 C   0  0  0  0  0  0  0  0  0  0  0  0
    2.5638    1.0015    0.4645 C   0  0  2  0  0  3  0  0  0  0  0  0
    3.9633    0.9244    0.5220 C   0  0  0  0  0  0  0  0  0  0  0  0
    4.5470    1.8172    0.7856 H   0  0  0  0  0  0  0  0  0  0  0  0
    4.5839   -0.3046    0.2630 C   0  0  0  0  0  0  0  0  0  0  0  0
    5.6774   -0.4025    0.3213 H   0  0  0  0  0  0  0  0  0  0  0  0
    3.7888   -1.4082   -0.0662 C   0  0  0  0  0  0  0  0  0  0  0  0
    4.2450   -2.3854   -0.2732 H   0  0  0  0  0  0  0  0  0  0  0  0
    2.3855   -1.2787   -0.1417 C   0  0  0  0  0  0  0  0  0  0  0  0
    1.5713   -2.4057   -0.6055 C   0  0  0  0  0  0  0  0  0  0  0  0
    1.9931   -3.4995   -1.4255 C   0  0  0  0  0  0  0  0  0  0  0  0
    2.9840   -3.6937   -1.8472 H   0  0  0  0  0  0  0  0  0  0  0  0
    0.8441   -4.2519   -1.6277 C   0  0  0  0  0  0  0  0  0  0  0  0
    0.6606   -5.1671   -2.2011 H   0  0  0  0  0  0  0  0  0  0  0  0
    0.4647    2.0399    0.8513 N   0  0  0  0  0  2  0  0  0  0  0  0
    1.7781   -0.0828    0.1382 N   0  0  0  0  0  2  0  0  0  0  0  0
    0.2546   -2.5007   -0.3160 N   0  0  0  0  0  0  0  0  0  0  0  0
   -0.0445    3.2637    1.0463 N   0  0  0  0  0  0  0  0  0  0  0  0
   -1.0517    3.3710    1.1819 H   0  0  0  0  0  0  0  0  0  0  0  0
   -0.1497   -3.6084   -0.9430 N   0  0  0  0  0  0  0  0  0  0  0  0
   -1.1256   -3.8980   -0.8529 H   0  0  0  0  0  0  0  0  0  0  0  0
  1  2  1  0  0  0  0
  3  1  1  0  0  0  0
  4  3  1  0  0  0  0
  5 19  1  0  0  0  0
  5  3  2  0  0  0  0
  6  7  1  0  0  0  0
  6  5  1  6  0  0  0
  7  8  1  0  0  0  0
  9 10  1  0  0  0  0
  9  7  2  0  0  0  0
 11  9  1  0  0  0  0
 12 11  1  0  0  0  0
 13 11  2  0  0  0  0
 13 20  1  0  0  0  0
 14 21  2  0  0  0  0
 14 13  1  0  0  0  0
 15 14  1  0  0  0  0
 16 15  1  0  0  0  0
 17 15  2  0  0  0  0
 17 24  1  0  0  0  0
 18 17  1  0  0  0  0
 19 22  1  0  0  0  0
 20  6  1  0  0  0  0
 22  1  1  0  0  0  0
 22 23  1  0  0  0  0
 24 25  1  0  0  0  0
 24 21  1  0  0  0  0
M  END
