1,13
 OpenBabel05122313053D

 43 44  0  0  1  0  0  0  0  0999 V2000
   -2.6102    0.4611   -0.2571 N   0  0  0  0  0  0  0  0  0  0  0  0
   -2.3504    1.8179    0.2610 C   0  0  0  0  0  0  0  0  0  0  0  0
   -2.5016    1.7653    1.3630 H   0  0  0  0  0  0  0  0  0  0  0  0
   -3.0621    2.5634   -0.1612 H   0  0  0  0  0  0  0  0  0  0  0  0
    3.6372   -1.8568    1.0438 C   0  0  0  0  0  0  0  0  0  0  0  0
    4.1488   -2.8404    1.0678 H   0  0  0  0  0  0  0  0  0  0  0  0
    2.5487   -2.0598    0.9956 H   0  0  0  0  0  0  0  0  0  0  0  0
    3.8608   -1.3350    1.9962 H   0  0  0  0  0  0  0  0  0  0  0  0
    3.7303   -1.7500   -1.4864 C   0  0  0  0  0  0  0  0  0  0  0  0
    4.2054   -2.7510   -1.5345 H   0  0  0  0  0  0  0  0  0  0  0  0
    4.0669   -1.1705   -2.3699 H   0  0  0  0  0  0  0  0  0  0  0  0
    2.6343   -1.9000   -1.5539 H   0  0  0  0  0  0  0  0  0  0  0  0
   -0.0030    1.2539    0.0783 N   0  0  0  0  0  2  0  0  0  0  0  0
   -0.9203    2.2448    0.0052 C   0  0  2  0  0  3  0  0  0  0  0  0
   -0.5519    3.5700   -0.2369 C   0  0  0  0  0  0  0  0  0  0  0  0
   -1.3169    4.3564   -0.3005 H   0  0  0  0  0  0  0  0  0  0  0  0
    0.8175    3.8571   -0.3830 C   0  0  0  0  0  0  0  0  0  0  0  0
    1.1477    4.8921   -0.5590 H   0  0  0  0  0  0  0  0  0  0  0  0
    1.7670    2.8378   -0.3274 C   0  0  0  0  0  0  0  0  0  0  0  0
    2.8420    3.0112   -0.4484 H   0  0  0  0  0  0  0  0  0  0  0  0
    1.3150    1.5106   -0.1152 C   0  0  0  0  0  0  0  0  0  0  0  0
    2.1377    0.3989   -0.1031 N   0  0  0  0  0  0  0  0  0  0  0  0
    1.6337   -0.5087   -0.1075 H   0  0  0  0  0  0  0  0  0  0  0  0
    4.2120    1.3921   -0.2060 O   0  0  0  0  0  0  0  0  0  0  0  0
    3.5357    0.3708   -0.1597 C   0  0  0  0  0  0  0  0  0  0  0  0
    4.1434   -1.0481   -0.1714 C   0  0  0  0  0  0  0  0  0  0  0  0
    5.6708   -0.9072   -0.1100 C   0  0  0  0  0  0  0  0  0  0  0  0
    6.1399   -1.9107   -0.1415 H   0  0  0  0  0  0  0  0  0  0  0  0
    5.9896   -0.3990    0.8208 H   0  0  0  0  0  0  0  0  0  0  0  0
    6.0528   -0.3096   -0.9597 H   0  0  0  0  0  0  0  0  0  0  0  0
   -3.8853   -0.0852    0.2647 C   0  0  0  0  0  0  0  0  0  0  0  0
   -4.7292    0.5826   -0.0288 H   0  0  0  0  0  0  0  0  0  0  0  0
   -3.8045   -0.1248    1.3706 H   0  0  0  0  0  0  0  0  0  0  0  0
   -4.1098   -1.4847   -0.2968 C   0  0  0  0  0  0  0  0  0  0  0  0
   -3.3108   -2.1649    0.0929 H   0  0  0  0  0  0  0  0  0  0  0  0
   -5.0882   -1.8763    0.0444 H   0  0  0  0  0  0  0  0  0  0  0  0
   -4.1248   -1.4862   -1.7137 O   0  0  0  0  0  0  0  0  0  0  0  0
   -2.8894   -1.0099   -2.2200 C   0  0  0  0  0  0  0  0  0  0  0  0
   -2.9615   -1.0205   -3.3256 H   0  0  0  0  0  0  0  0  0  0  0  0
   -2.0484   -1.6783   -1.9148 H   0  0  0  0  0  0  0  0  0  0  0  0
   -2.5933    0.4090   -1.7377 C   0  0  0  0  0  0  0  0  0  0  0  0
   -1.5944    0.7299   -2.0966 H   0  0  0  0  0  0  0  0  0  0  0  0
   -3.3558    1.1179   -2.1405 H   0  0  0  0  0  0  0  0  0  0  0  0
  1  2  1  0  0  0  0
  1 31  1  0  0  0  0
  2  3  1  0  0  0  0
  4  2  1  0  0  0  0
  5  6  1  0  0  0  0
  5  8  1  0  0  0  0
  7  5  1  0  0  0  0
  9 26  1  0  0  0  0
 10  9  1  0  0  0  0
 11  9  1  0  0  0  0
 12  9  1  0  0  0  0
 14 13  1  0  0  0  0
 14  2  1  1  0  0  0
 15 14  1  0  0  0  0
 16 15  1  0  0  0  0
 17 19  1  0  0  0  0
 17 15  2  0  0  0  0
 18 17  1  0  0  0  0
 19 21  2  0  0  0  0
 20 19  1  0  0  0  0
 21 22  1  0  0  0  0
 21 13  1  0  0  0  0
 23 22  1  0  0  0  0
 24 25  2  0  0  0  0
 25 22  1  0  0  0  0
 26 25  1  0  0  0  0
 26 27  1  0  0  0  0
 26  5  1  0  0  0  0
 27 29  1  0  0  0  0
 28 27  1  0  0  0  0
 30 27  1  0  0  0  0
 31 33  1  0  0  0  0
 32 31  1  0  0  0  0
 34 36  1  0  0  0  0
 34 35  1  0  0  0  0
 34 31  1  0  0  0  0
 37 34  1  0  0  0  0
 38 40  1  0  0  0  0
 38 41  1  0  0  0  0
 38 37  1  0  0  0  0
 39 38  1  0  0  0  0
 41  1  1  0  0  0  0
 42 41  1  0  0  0  0
 43 41  1  0  0  0  0
M  END
