1,5
 OpenBabel05122313053D

 47 48  0  0  1  0  0  0  0  0999 V2000
   -2.3960    0.8049   -0.1546 N   0  0  0  0  0  0  0  0  0  0  0  0
   -1.9763    2.1829    0.1610 C   0  0  0  0  0  0  0  0  0  0  0  0
   -2.0667    2.2931    1.2654 H   0  0  0  0  0  0  0  0  0  0  0  0
   -2.6335    2.9374   -0.3283 H   0  0  0  0  0  0  0  0  0  0  0  0
    0.2895    1.3534   -0.0465 N   0  0  0  0  0  2  0  0  0  0  0  0
   -0.5279    2.4178   -0.2133 C   0  0  2  0  0  3  0  0  0  0  0  0
   -0.0452    3.6535   -0.6502 C   0  0  0  0  0  0  0  0  0  0  0  0
   -0.7316    4.5008   -0.7862 H   0  0  0  0  0  0  0  0  0  0  0  0
    1.3346    3.7728   -0.8960 C   0  0  0  0  0  0  0  0  0  0  0  0
    1.7543    4.7347   -1.2273 H   0  0  0  0  0  0  0  0  0  0  0  0
    2.1805    2.6752   -0.7432 C   0  0  0  0  0  0  0  0  0  0  0  0
    3.2584    2.7165   -0.9344 H   0  0  0  0  0  0  0  0  0  0  0  0
    1.6133    1.4431   -0.3296 C   0  0  0  0  0  0  0  0  0  0  0  0
    2.3239    0.2636   -0.1970 N   0  0  0  0  0  0  0  0  0  0  0  0
    1.7354   -0.5786   -0.0440 H   0  0  0  0  0  0  0  0  0  0  0  0
    4.4745    1.0134   -0.5335 O   0  0  0  0  0  0  0  0  0  0  0  0
    3.7068    0.0843   -0.3090 C   0  0  0  0  0  0  0  0  0  0  0  0
    4.1762   -1.3764   -0.1378 C   0  0  0  0  0  0  0  0  0  0  0  0
    5.7109   -1.3854   -0.1740 C   0  0  0  0  0  0  0  0  0  0  0  0
    6.1349   -0.7818    0.6519 H   0  0  0  0  0  0  0  0  0  0  0  0
    6.0923   -0.9609   -1.1224 H   0  0  0  0  0  0  0  0  0  0  0  0
    6.0806   -2.4255   -0.0758 H   0  0  0  0  0  0  0  0  0  0  0  0
    3.6160   -2.2166   -1.3093 C   0  0  0  0  0  0  0  0  0  0  0  0
    3.9476   -1.8092   -2.2859 H   0  0  0  0  0  0  0  0  0  0  0  0
    2.5088   -2.2630   -1.2987 H   0  0  0  0  0  0  0  0  0  0  0  0
    3.9920   -3.2570   -1.2290 H   0  0  0  0  0  0  0  0  0  0  0  0
    3.6755   -1.9430    1.2095 C   0  0  0  0  0  0  0  0  0  0  0  0
    4.0103   -1.3146    2.0594 H   0  0  0  0  0  0  0  0  0  0  0  0
    4.0910   -2.9607    1.3560 H   0  0  0  0  0  0  0  0  0  0  0  0
    2.5717   -2.0352    1.2472 H   0  0  0  0  0  0  0  0  0  0  0  0
   -3.6804    0.4589    0.4953 C   0  0  0  0  0  0  0  0  0  0  0  0
   -4.4839    1.1364    0.1229 H   0  0  0  0  0  0  0  0  0  0  0  0
   -3.5468    0.5950    1.5873 H   0  0  0  0  0  0  0  0  0  0  0  0
   -4.0375   -0.9896    0.1933 C   0  0  0  0  0  0  0  0  0  0  0  0
   -3.2761   -1.6548    0.6889 H   0  0  0  0  0  0  0  0  0  0  0  0
   -5.0160   -1.2225    0.6619 H   0  0  0  0  0  0  0  0  0  0  0  0
   -4.1253   -1.2211   -1.2407 N   0  0  0  0  0  0  0  0  0  0  0  0
   -4.5716   -2.5636   -1.5628 C   0  0  0  0  0  0  0  0  0  0  0  0
   -5.5580   -2.7566   -1.0939 H   0  0  0  0  0  0  0  0  0  0  0  0
   -3.8642   -3.3620   -1.2158 H   0  0  0  0  0  0  0  0  0  0  0  0
   -4.6894   -2.6698   -2.6606 H   0  0  0  0  0  0  0  0  0  0  0  0
   -2.8692   -0.8824   -1.8972 C   0  0  0  0  0  0  0  0  0  0  0  0
   -2.9876   -1.0071   -2.9939 H   0  0  0  0  0  0  0  0  0  0  0  0
   -2.0271   -1.5507   -1.5761 H   0  0  0  0  0  0  0  0  0  0  0  0
   -2.4788    0.5628   -1.6124 C   0  0  0  0  0  0  0  0  0  0  0  0
   -1.4912    0.7820   -2.0647 H   0  0  0  0  0  0  0  0  0  0  0  0
   -3.2310    1.2576   -2.0558 H   0  0  0  0  0  0  0  0  0  0  0  0
  1  2  1  0  0  0  0
  1 31  1  0  0  0  0
  2  3  1  0  0  0  0
  4  2  1  0  0  0  0
  6  5  1  0  0  0  0
  6  2  1  1  0  0  0
  7  6  1  0  0  0  0
  8  7  1  0  0  0  0
  9 11  1  0  0  0  0
  9  7  2  0  0  0  0
 10  9  1  0  0  0  0
 11 13  2  0  0  0  0
 12 11  1  0  0  0  0
 13 14  1  0  0  0  0
 13  5  1  0  0  0  0
 14 15  1  0  0  0  0
 16 17  2  0  0  0  0
 17 14  1  0  0  0  0
 17 18  1  0  0  0  0
 18 27  1  0  0  0  0
 19 18  1  0  0  0  0
 19 22  1  0  0  0  0
 19 20  1  0  0  0  0
 21 19  1  0  0  0  0
 23 25  1  0  0  0  0
 23 26  1  0  0  0  0
 23 18  1  0  0  0  0
 24 23  1  0  0  0  0
 27 30  1  0  0  0  0
 27 29  1  0  0  0  0
 27 28  1  0  0  0  0
 31 33  1  0  0  0  0
 32 31  1  0  0  0  0
 34 31  1  0  0  0  0
 34 36  1  0  0  0  0
 34 35  1  0  0  0  0
 37 34  1  0  0  0  0
 38 37  1  0  0  0  0
 38 40  1  0  0  0  0
 38 39  1  0  0  0  0
 41 38  1  0  0  0  0
 42 45  1  0  0  0  0
 42 44  1  0  0  0  0
 42 37  1  0  0  0  0
 43 42  1  0  0  0  0
 45  1  1  0  0  0  0
 46 45  1  0  0  0  0
 47 45  1  0  0  0  0
M  END
