1,6
 OpenBabel05122313053D

 33 34  0  0  1  0  0  0  0  0999 V2000
    0.7358   -1.1300    0.3794 N   0  0  0  0  0  0  0  0  0  0  0  0
   -0.4263   -1.7899    1.0037 C   0  0  0  0  0  0  0  0  0  0  0  0
   -0.4693   -1.4183    2.0525 H   0  0  0  0  0  0  0  0  0  0  0  0
   -0.3136   -2.8980    1.0205 H   0  0  0  0  0  0  0  0  0  0  0  0
   -1.7143   -1.3946    0.3119 C   0  0  2  0  0  3  0  0  0  0  0  0
   -1.7536   -0.1078   -0.1036 N   0  0  0  0  0  2  0  0  0  0  0  0
   -2.7925   -2.2625    0.1407 C   0  0  0  0  0  0  0  0  0  0  0  0
   -2.7306   -3.3051    0.4806 H   0  0  0  0  0  0  0  0  0  0  0  0
   -3.9545   -1.7518   -0.4772 C   0  0  0  0  0  0  0  0  0  0  0  0
   -4.8315   -2.4009   -0.6213 H   0  0  0  0  0  0  0  0  0  0  0  0
   -3.9921   -0.4379   -0.9271 C   0  0  0  0  0  0  0  0  0  0  0  0
   -4.8809   -0.0326   -1.4317 H   0  0  0  0  0  0  0  0  0  0  0  0
   -2.8434    0.3878   -0.7462 C   0  0  0  0  0  0  0  0  0  0  0  0
   -2.7819    1.6701   -1.1753 N   0  0  0  0  0  0  0  0  0  0  0  0
    1.9506   -1.2460    1.2148 C   0  0  0  0  0  0  0  0  0  0  0  0
    2.2228   -2.3208    1.3369 H   0  0  0  0  0  0  0  0  0  0  0  0
    1.7180   -0.7991    2.2022 H   0  0  0  0  0  0  0  0  0  0  0  0
    3.0982   -0.4870    0.5640 C   0  0  0  0  0  0  0  0  0  0  0  0
    2.8462    0.6102    0.5725 H   0  0  0  0  0  0  0  0  0  0  0  0
    4.0087   -0.6094    1.1866 H   0  0  0  0  0  0  0  0  0  0  0  0
    3.3649   -0.9845   -0.7776 N   0  0  0  0  0  0  0  0  0  0  0  0
    4.5191   -0.3514   -1.3867 C   0  0  0  0  0  0  0  0  0  0  0  0
    5.4142   -0.5038   -0.7495 H   0  0  0  0  0  0  0  0  0  0  0  0
    4.3911    0.7526   -1.5403 H   0  0  0  0  0  0  0  0  0  0  0  0
    4.7234   -0.8087   -2.3765 H   0  0  0  0  0  0  0  0  0  0  0  0
    2.1741   -0.8834   -1.6122 C   0  0  0  0  0  0  0  0  0  0  0  0
    2.3891   -1.3297   -2.6058 H   0  0  0  0  0  0  0  0  0  0  0  0
    1.8640    0.1811   -1.7857 H   0  0  0  0  0  0  0  0  0  0  0  0
    1.0040   -1.6321   -0.9854 C   0  0  0  0  0  0  0  0  0  0  0  0
    0.0940   -1.4874   -1.6010 H   0  0  0  0  0  0  0  0  0  0  0  0
    1.2274   -2.7249   -0.9385 H   0  0  0  0  0  0  0  0  0  0  0  0
   -3.5350    2.0361   -1.7530 H   0  0  0  0  0  0  0  0  0  0  0  0
   -1.8488    2.1219   -1.2340 H   0  0  0  0  0  0  0  0  0  0  0  0
  1  2  1  0  0  0  0
  1 15  1  0  0  0  0
  2  4  1  0  0  0  0
  2  3  1  0  0  0  0
  5  2  1  1  0  0  0
  6  5  1  0  0  0  0
  7  5  1  0  0  0  0
  7  8  1  0  0  0  0
  9  7  2  0  0  0  0
 10  9  1  0  0  0  0
 11 13  2  0  0  0  0
 11  9  1  0  0  0  0
 12 11  1  0  0  0  0
 13  6  1  0  0  0  0
 14 13  1  0  0  0  0
 15 16  1  0  0  0  0
 15 17  1  0  0  0  0
 18 19  1  0  0  0  0
 18 20  1  0  0  0  0
 18 15  1  0  0  0  0
 21 18  1  0  0  0  0
 22 21  1  0  0  0  0
 22 23  1  0  0  0  0
 24 22  1  0  0  0  0
 25 22  1  0  0  0  0
 26 29  1  0  0  0  0
 26 21  1  0  0  0  0
 27 26  1  0  0  0  0
 28 26  1  0  0  0  0
 29 31  1  0  0  0  0
 29  1  1  0  0  0  0
 30 29  1  0  0  0  0
 32 14  1  0  0  0  0
 33 14  1  0  0  0  0
M  END
