1,2
 OpenBabel05122313053D

 22 23  0  0  0  0  0  0  0  0999 V2000
    0.5013    1.9263   -0.0742 N   0  0  0  0  0  2  0  0  0  0  0  0
    0.2523   -0.6001    0.1097 N   0  0  0  0  0  2  0  0  0  0  0  0
    3.8763   -0.8070    0.0358 N   0  0  0  0  0  0  0  0  0  0  0  0
    0.4668    3.2631   -0.1642 C   0  0  0  0  0  3  0  0  0  0  0  0
    1.6372    4.0264   -0.2538 C   0  0  0  0  0  0  0  0  0  0  0  0
    2.8698    3.3586   -0.2522 C   0  0  0  0  0  0  0  0  0  0  0  0
    2.8983    1.9596   -0.1671 C   0  0  0  0  0  0  0  0  0  0  0  0
    1.6843    1.2541   -0.0819 C   0  0  0  0  0  0  0  0  0  0  0  0
    1.4749   -0.2292    0.0136 C   0  0  0  0  0  0  0  0  0  0  0  0
    2.5949   -1.2270   -0.0029 C   0  0  0  0  0  0  0  0  0  0  0  0
    2.2609   -2.6003   -0.0561 C   0  0  0  0  0  0  0  0  0  0  0  0
    3.2850   -3.5487   -0.0597 C   0  0  0  0  0  0  0  0  0  0  0  0
    4.6182   -3.1077   -0.0113 C   0  0  0  0  0  0  0  0  0  0  0  0
    4.8535   -1.7263    0.0329 C   0  0  0  0  0  0  0  0  0  0  0  0
   -0.5449    3.7009   -0.1680 H   0  0  0  0  0  0  0  0  0  0  0  0
    1.5728    5.1216   -0.3239 H   0  0  0  0  0  0  0  0  0  0  0  0
    3.8116    3.9246   -0.3213 H   0  0  0  0  0  0  0  0  0  0  0  0
    3.8262    1.3732   -0.1588 H   0  0  0  0  0  0  0  0  0  0  0  0
    1.1973   -2.8737   -0.0957 H   0  0  0  0  0  0  0  0  0  0  0  0
    3.0509   -4.6237   -0.1026 H   0  0  0  0  0  0  0  0  0  0  0  0
    5.4590   -3.8171   -0.0118 H   0  0  0  0  0  0  0  0  0  0  0  0
    5.8875   -1.3388    0.0670 H   0  0  0  0  0  0  0  0  0  0  0  0
  4  1  1  0  0  0  0
  5  6  2  0  0  0  0
  5  4  1  0  0  0  0
  6  7  1  0  0  0  0
  7 18  1  0  0  0  0
  7  8  2  0  0  0  0
  8  1  1  0  0  0  0
  8  9  1  0  0  0  0
  9  2  2  0  0  0  0
 10  9  1  0  0  0  0
 10  3  2  0  0  0  0
 11 10  1  0  0  0  0
 12 11  2  0  0  0  0
 12 13  1  0  0  0  0
 13 14  2  0  0  0  0
 14  3  1  0  0  0  0
 14 22  1  0  0  0  0
 15  4  1  0  0  0  0
 16  5  1  0  0  0  0
 17  6  1  0  0  0  0
 19 11  1  0  0  0  0
 20 12  1  0  0  0  0
 21 13  1  0  0  0  0
M  END
