1,2
 OpenBabel05122313053D

 44 43  0  0  1  0  0  0  0  0999 V2000
   -1.3901    0.1940   -1.0100 N   0  0  0  0  0  2  0  0  0  0  0  0
    1.1746   -0.3506   -1.0969 N   0  0  0  0  0  2  0  0  0  0  0  0
    2.0633   -2.8504   -1.3622 O   0  0  0  0  0  0  0  0  0  0  0  0
    4.1382   -2.3606   -0.5906 O   0  0  0  0  0  0  0  0  0  0  0  0
    2.5259    2.3359   -1.0731 O   0  0  0  0  0  0  0  0  0  0  0  0
    3.4765    2.3887    0.9913 O   0  0  0  0  0  0  0  0  0  0  0  0
   -3.4055   -1.5971   -0.6515 O   0  0  0  0  0  0  0  0  0  0  0  0
   -4.7946   -0.0221    0.2045 O   0  0  0  0  0  0  0  0  0  0  0  0
   -1.9933    3.2433   -1.9651 O   0  0  0  0  0  0  0  0  0  0  0  0
   -1.1514    3.6816    0.0964 O   0  0  0  0  0  0  0  0  0  0  0  0
    2.3527   -4.2510   -1.2210 C   0  0  0  0  0  0  0  0  0  0  0  0
    3.1608   -4.5543   -1.9161 H   0  0  0  0  0  0  0  0  0  0  0  0
    1.4117   -4.7770   -1.4568 H   0  0  0  0  0  0  0  0  0  0  0  0
    2.6730   -4.4725   -0.1840 H   0  0  0  0  0  0  0  0  0  0  0  0
    3.0382   -2.0128   -0.9706 C   0  0  0  0  0  0  0  0  0  0  0  0
    2.6207   -0.5376   -1.1095 C   0  0  2  0  0  0  0  0  0  0  0  0
    3.0185   -0.2067   -2.0977 H   0  0  0  0  0  0  0  0  0  0  0  0
    3.3208    0.2830   -0.0243 C   0  0  0  0  0  0  0  0  0  0  0  0
    3.0295   -0.0608    0.9861 H   0  0  0  0  0  0  0  0  0  0  0  0
    4.4119    0.0956   -0.0976 H   0  0  0  0  0  0  0  0  0  0  0  0
    3.0496    1.7682   -0.1277 C   0  0  0  0  0  0  0  0  0  0  0  0
    3.2379    3.7989    1.0807 C   0  0  0  0  0  0  0  0  0  0  0  0
    3.4572    4.3011    0.1182 H   0  0  0  0  0  0  0  0  0  0  0  0
    3.9014    4.1742    1.8798 H   0  0  0  0  0  0  0  0  0  0  0  0
    2.1800    3.9795    1.3581 H   0  0  0  0  0  0  0  0  0  0  0  0
    0.6195    0.0901   -2.2053 C   0  0  0  0  0  0  0  0  0  0  0  0
    1.2164    0.2867   -3.1130 H   0  0  0  0  0  0  0  0  0  0  0  0
   -0.7789    0.3800   -2.1628 C   0  0  0  0  0  0  0  0  0  0  0  0
   -1.3032    0.8153   -3.0310 H   0  0  0  0  0  0  0  0  0  0  0  0
   -4.2670   -2.6227   -0.1304 C   0  0  0  0  0  0  0  0  0  0  0  0
   -4.3590   -2.5173    0.9686 H   0  0  0  0  0  0  0  0  0  0  0  0
   -3.7828   -3.5802   -0.3895 H   0  0  0  0  0  0  0  0  0  0  0  0
   -5.2761   -2.5536   -0.5828 H   0  0  0  0  0  0  0  0  0  0  0  0
   -3.7672   -0.3346   -0.3632 C   0  0  0  0  0  0  0  0  0  0  0  0
   -2.7616    0.6859   -0.9063 C   0  0  1  0  0  0  0  0  0  0  0  0
   -3.1299    0.9615   -1.9226 H   0  0  0  0  0  0  0  0  0  0  0  0
   -2.7867    1.9704   -0.0649 C   0  0  0  0  0  0  0  0  0  0  0  0
   -2.4123    1.7835    0.9581 H   0  0  0  0  0  0  0  0  0  0  0  0
   -3.8422    2.3025    0.0117 H   0  0  0  0  0  0  0  0  0  0  0  0
   -1.9595    3.0316   -0.7640 C   0  0  0  0  0  0  0  0  0  0  0  0
   -0.2381    4.6276   -0.4864 C   0  0  0  0  0  0  0  0  0  0  0  0
    0.6311    4.0868   -0.9144 H   0  0  0  0  0  0  0  0  0  0  0  0
    0.0927    5.2816    0.3402 H   0  0  0  0  0  0  0  0  0  0  0  0
   -0.7349    5.2165   -1.2812 H   0  0  0  0  0  0  0  0  0  0  0  0
  1 35  1  0  0  0  0
  3 11  1  0  0  0  0
  3 15  1  0  0  0  0
  5 21  2  0  0  0  0
  6 22  1  0  0  0  0
  7 34  1  0  0  0  0
  7 30  1  0  0  0  0
  9 40  2  0  0  0  0
 11 14  1  0  0  0  0
 12 11  1  0  0  0  0
 13 11  1  0  0  0  0
 15  4  2  0  0  0  0
 16 17  1  6  0  0  0
 16  2  1  0  0  0  0
 16 15  1  0  0  0  0
 16 18  1  0  0  0  0
 18 19  1  0  0  0  0
 20 18  1  0  0  0  0
 21 18  1  0  0  0  0
 21  6  1  0  0  0  0
 22 25  1  0  0  0  0
 22 24  1  0  0  0  0
 23 22  1  0  0  0  0
 26 28  2  0  0  0  0
 26  2  1  0  0  0  0
 27 26  1  0  0  0  0
 28  1  1  0  0  0  0
 29 28  1  0  0  0  0
 30 31  1  0  0  0  0
 32 30  1  0  0  0  0
 33 30  1  0  0  0  0
 34  8  2  0  0  0  0
 35 36  1  6  0  0  0
 35 34  1  0  0  0  0
 35 37  1  0  0  0  0
 37 39  1  0  0  0  0
 37 38  1  0  0  0  0
 40 37  1  0  0  0  0
 40 10  1  0  0  0  0
 41 10  1  0  0  0  0
 41 43  1  0  0  0  0
 42 41  1  0  0  0  0
 44 41  1  0  0  0  0
M  END
