9,19
 OpenBabel05122313053D

 28 29  0  0  1  0  0  0  0  0999 V2000
    1.4238    1.0095    0.8742 C   0  0  2  0  0  0  0  0  0  0  0  0
    0.6969    0.5497    1.9852 O   0  0  0  0  0  0  0  0  0  0  0  0
    2.5703    1.7207    1.2900 O   0  0  0  0  0  0  0  0  0  0  0  0
    2.2772    2.2413    2.0639 H   0  0  0  0  0  0  0  0  0  0  0  0
    1.2111   -0.6054    2.6590 C   0  0  0  0  0  0  0  0  0  0  0  0
    0.7139   -0.6272    3.6459 H   0  0  0  0  0  0  0  0  0  0  0  0
    2.3108   -0.5364    2.8004 H   0  0  0  0  0  0  0  0  0  0  0  0
    0.9460   -1.5343    2.1104 H   0  0  0  0  0  0  0  0  0  0  0  0
   -0.7108    1.3611   -0.3255 N   0  0  0  0  0  2  0  0  0  0  0  0
    0.4491    1.9167    0.0983 C   0  0  2  0  0  3  0  0  0  0  0  0
    0.7555    3.2574   -0.1635 C   0  0  0  0  0  0  0  0  0  0  0  0
    1.7232    3.6528    0.1719 H   0  0  0  0  0  0  0  0  0  0  0  0
   -0.1761    4.0517   -0.8464 C   0  0  0  0  0  0  0  0  0  0  0  0
    0.0439    5.1081   -1.0610 H   0  0  0  0  0  0  0  0  0  0  0  0
   -1.3898    3.4754   -1.2435 C   0  0  0  0  0  0  0  0  0  0  0  0
   -2.1573    4.0578   -1.7725 H   0  0  0  0  0  0  0  0  0  0  0  0
   -1.6246    2.1242   -0.9678 C   0  0  0  0  0  0  0  0  0  0  0  0
   -2.5635    1.6087   -1.2231 H   0  0  0  0  0  0  0  0  0  0  0  0
    0.9632   -0.9505   -0.5344 N   0  0  0  0  0  2  0  0  0  0  0  0
    1.9108   -0.1099   -0.0563 C   0  0  2  0  0  3  0  0  0  0  0  0
    3.2637   -0.2610   -0.3881 C   0  0  0  0  0  0  0  0  0  0  0  0
    3.9905    0.4425    0.0360 H   0  0  0  0  0  0  0  0  0  0  0  0
    3.6420   -1.3081   -1.2387 C   0  0  0  0  0  0  0  0  0  0  0  0
    4.6976   -1.4444   -1.5172 H   0  0  0  0  0  0  0  0  0  0  0  0
    2.6550   -2.1806   -1.7177 C   0  0  0  0  0  0  0  0  0  0  0  0
    2.9031   -3.0218   -2.3803 H   0  0  0  0  0  0  0  0  0  0  0  0
    1.3246   -1.9786   -1.3382 C   0  0  0  0  0  0  0  0  0  0  0  0
    0.5053   -2.6512   -1.6327 H   0  0  0  0  0  0  0  0  0  0  0  0
  1  3  1  1  0  0  0
  1  2  1  0  0  0  0
  2  5  1  0  0  0  0
  3  4  1  0  0  0  0
  5  7  1  0  0  0  0
  5  6  1  0  0  0  0
  8  5  1  0  0  0  0
  9 10  1  0  0  0  0
 10  1  1  6  0  0  0
 11 10  1  0  0  0  0
 11 12  1  0  0  0  0
 13 11  2  0  0  0  0
 14 13  1  0  0  0  0
 15 17  2  0  0  0  0
 15 13  1  0  0  0  0
 16 15  1  0  0  0  0
 17  9  1  0  0  0  0
 18 17  1  0  0  0  0
 19 20  1  0  0  0  0
 20  1  1  1  0  0  0
 21 20  1  0  0  0  0
 21 22  1  0  0  0  0
 23 21  2  0  0  0  0
 24 23  1  0  0  0  0
 25 27  2  0  0  0  0
 25 23  1  0  0  0  0
 26 25  1  0  0  0  0
 27 19  1  0  0  0  0
 28 27  1  0  0  0  0
M  END
