1,2
 OpenBabel05122313053D

 31 32  0  0  0  0  0  0  0  0999 V2000
   -0.9560   -1.6132   -0.6623 N   0  0  0  0  0  2  0  0  0  0  0  0
    1.4974   -1.1788   -0.1670 N   0  0  0  0  0  2  0  0  0  0  0  0
   -2.1831   -2.0242   -1.0641 C   0  0  0  0  0  3  0  0  0  0  0  0
   -3.0077   -1.3201   -1.2206 H   0  0  0  0  0  0  0  0  0  0  0  0
   -2.2013   -3.4353   -1.2054 C   0  0  0  0  0  0  0  0  0  0  0  0
   -3.0659   -4.0352   -1.5136 H   0  0  0  0  0  0  0  0  0  0  0  0
   -0.9157   -3.9002   -0.8730 C   0  0  0  0  0  0  0  0  0  0  0  0
   -0.5572   -4.9364   -0.8818 H   0  0  0  0  0  0  0  0  0  0  0  0
   -0.1575   -2.7456   -0.5543 C   0  0  0  0  0  0  0  0  0  0  0  0
    1.1993   -2.4803   -0.2346 C   0  0  0  0  0  0  0  0  0  0  0  0
    2.1797   -3.5838    0.0417 C   0  0  0  0  0  0  0  0  0  0  0  0
    2.8924   -3.2957    0.8386 H   0  0  0  0  0  0  0  0  0  0  0  0
    2.7819   -3.8234   -0.8587 H   0  0  0  0  0  0  0  0  0  0  0  0
    1.6436   -4.5025    0.3431 H   0  0  0  0  0  0  0  0  0  0  0  0
    2.7886   -0.7353    0.2067 C   0  0  0  0  0  0  0  0  0  0  0  0
    2.9286    0.0913    1.3359 C   0  0  0  0  0  0  0  0  0  0  0  0
    2.0280    0.3536    1.9105 H   0  0  0  0  0  0  0  0  0  0  0  0
    4.1838    0.6105    1.6971 C   0  0  0  0  0  0  0  0  0  0  0  0
    5.3029    0.2769    0.9098 C   0  0  0  0  0  0  0  0  0  0  0  0
    6.2901    0.6850    1.1814 H   0  0  0  0  0  0  0  0  0  0  0  0
    5.1916   -0.5508   -0.2253 C   0  0  0  0  0  0  0  0  0  0  0  0
    3.9216   -1.0459   -0.5733 C   0  0  0  0  0  0  0  0  0  0  0  0
    3.7976   -1.6549   -1.4812 H   0  0  0  0  0  0  0  0  0  0  0  0
    4.3071    1.5509    2.8694 C   0  0  0  0  0  0  0  0  0  0  0  0
    5.3573    1.6571    3.2038 H   0  0  0  0  0  0  0  0  0  0  0  0
    3.7001    1.2097    3.7318 H   0  0  0  0  0  0  0  0  0  0  0  0
    3.9379    2.5622    2.5944 H   0  0  0  0  0  0  0  0  0  0  0  0
    6.4090   -0.9093   -1.0414 C   0  0  0  0  0  0  0  0  0  0  0  0
    6.1393   -1.1841   -2.0799 H   0  0  0  0  0  0  0  0  0  0  0  0
    6.9429   -1.7782   -0.5993 H   0  0  0  0  0  0  0  0  0  0  0  0
    7.1334   -0.0718   -1.0824 H   0  0  0  0  0  0  0  0  0  0  0  0
  1  9  1  0  0  0  0
  2 15  1  0  0  0  0
  3  1  1  0  0  0  0
  4  3  1  0  0  0  0
  5  3  1  0  0  0  0
  5  7  2  0  0  0  0
  6  5  1  0  0  0  0
  7  9  1  0  0  0  0
  8  7  1  0  0  0  0
  9 10  2  0  0  0  0
 10  2  1  0  0  0  0
 10 11  1  0  0  0  0
 11 14  1  0  0  0  0
 11 12  1  0  0  0  0
 13 11  1  0  0  0  0
 15 16  1  0  0  0  0
 16 18  2  0  0  0  0
 16 17  1  0  0  0  0
 18 24  1  0  0  0  0
 19 20  1  0  0  0  0
 19 18  1  0  0  0  0
 21 19  2  0  0  0  0
 22 21  1  0  0  0  0
 22 15  2  0  0  0  0
 23 22  1  0  0  0  0
 24 25  1  0  0  0  0
 24 26  1  0  0  0  0
 27 24  1  0  0  0  0
 28 30  1  0  0  0  0
 28 21  1  0  0  0  0
 29 28  1  0  0  0  0
 31 28  1  0  0  0  0
M  END
