5,7
 OpenBabel05122313053D

 63 66  0  0  0  0  0  0  0  0999 V2000
   -4.5499   -1.9320    0.1038 C   0  0  0  0  0  0  0  0  0  0  0  0
   -3.7161   -2.5116   -0.3250 H   0  0  0  0  0  0  0  0  0  0  0  0
    1.8814    2.6397   -0.3756 O   0  0  0  0  0  0  0  0  0  0  0  0
    0.8916    3.5689   -0.4388 C   0  0  0  0  0  0  0  0  0  0  0  0
    0.4969   -0.2102    1.5341 N   0  0  0  0  0  2  0  0  0  0  0  0
   -4.3047   -0.9371    1.0696 C   0  0  0  0  0  0  0  0  0  0  0  0
   -0.7461    0.8587   -1.3536 N   0  0  0  0  0  2  0  0  0  0  0  0
   -2.5008    0.7495    1.4349 N   0  0  0  0  0  0  0  0  0  0  0  0
    0.8933    4.7730    0.2985 C   0  0  0  0  0  0  0  0  0  0  0  0
    1.7357    5.0216    0.9568 H   0  0  0  0  0  0  0  0  0  0  0  0
    3.1446    0.7354    1.4475 O   0  0  0  0  0  0  0  0  0  0  0  0
   -2.7606    1.4265    0.2230 C   0  0  0  0  0  0  0  0  0  0  0  0
   -2.4404    2.4819    0.2913 H   0  0  0  0  0  0  0  0  0  0  0  0
   -3.8426    1.3655   -0.0081 H   0  0  0  0  0  0  0  0  0  0  0  0
   -0.2195    1.9736   -2.1156 C   0  0  0  0  0  0  0  0  0  0  0  0
   -0.8391    2.1495   -3.0270 H   0  0  0  0  0  0  0  0  0  0  0  0
    0.8102    1.7171   -2.4336 H   0  0  0  0  0  0  0  0  0  0  0  0
    3.0196    2.8807    0.4468 C   0  0  0  0  0  0  0  0  0  0  0  0
    2.7062    3.1936    1.4686 H   0  0  0  0  0  0  0  0  0  0  0  0
    3.6407    3.6940    0.0079 H   0  0  0  0  0  0  0  0  0  0  0  0
   -0.1927    3.2717   -1.3125 C   0  0  0  0  0  0  0  0  0  0  0  0
    3.8295    1.6062    0.5504 C   0  0  0  0  0  0  0  0  0  0  0  0
    3.9150    1.1343   -0.4530 H   0  0  0  0  0  0  0  0  0  0  0  0
    4.8445    1.8540    0.9381 H   0  0  0  0  0  0  0  0  0  0  0  0
    2.5255   -1.4680    2.0566 C   0  0  0  0  0  0  0  0  0  0  0  0
   -1.5044    1.2077    2.3198 C   0  0  0  0  0  0  0  0  0  0  0  0
   -1.6026    2.2995    2.4810 H   0  0  0  0  0  0  0  0  0  0  0  0
   -1.5871    0.6733    3.2839 H   0  0  0  0  0  0  0  0  0  0  0  0
    1.2069   -0.9191    2.5720 C   0  0  0  0  0  0  0  0  0  0  0  0
    0.6029   -1.7902    2.9237 H   0  0  0  0  0  0  0  0  0  0  0  0
    1.3808   -0.2595    3.4564 H   0  0  0  0  0  0  0  0  0  0  0  0
   -1.2486    4.1946   -1.4047 C   0  0  0  0  0  0  0  0  0  0  0  0
   -2.0758    3.9750   -2.0990 H   0  0  0  0  0  0  0  0  0  0  0  0
   -2.1180    0.7790   -1.1710 C   0  0  0  0  0  0  0  0  0  0  0  0
   -2.4629   -0.2748   -1.1221 H   0  0  0  0  0  0  0  0  0  0  0  0
   -2.7056    1.3199   -1.9516 H   0  0  0  0  0  0  0  0  0  0  0  0
   -2.8936   -0.6567    1.5415 C   0  0  0  0  0  0  0  0  0  0  0  0
   -2.7801   -0.9439    2.6070 H   0  0  0  0  0  0  0  0  0  0  0  0
   -2.1705   -1.2840    0.9566 H   0  0  0  0  0  0  0  0  0  0  0  0
   -1.2598    5.3861   -0.6615 C   0  0  0  0  0  0  0  0  0  0  0  0
   -2.0934    6.0961   -0.7632 H   0  0  0  0  0  0  0  0  0  0  0  0
    3.4776   -0.5897    1.4705 C   0  0  0  0  0  0  0  0  0  0  0  0
   -0.1826    5.6677    0.1896 C   0  0  0  0  0  0  0  0  0  0  0  0
   -0.1650    6.6015    0.7719 H   0  0  0  0  0  0  0  0  0  0  0  0
   -5.3901   -0.2166    1.6120 C   0  0  0  0  0  0  0  0  0  0  0  0
   -5.2020    0.5599    2.3712 H   0  0  0  0  0  0  0  0  0  0  0  0
    0.0562    1.0763    1.8095 C   0  0  0  0  0  0  0  0  0  0  0  0
    0.6073    1.5704    2.6434 H   0  0  0  0  0  0  0  0  0  0  0  0
    0.0944    1.7304    0.9257 H   0  0  0  0  0  0  0  0  0  0  0  0
    2.8122   -2.8411    2.0992 C   0  0  0  0  0  0  0  0  0  0  0  0
    2.0615   -3.5232    2.5288 H   0  0  0  0  0  0  0  0  0  0  0  0
   -6.9394   -1.4686    0.2191 C   0  0  0  0  0  0  0  0  0  0  0  0
   -7.9677   -1.6745   -0.1152 H   0  0  0  0  0  0  0  0  0  0  0  0
   -5.8648   -2.1937   -0.3161 C   0  0  0  0  0  0  0  0  0  0  0  0
   -6.0415   -2.9722   -1.0735 H   0  0  0  0  0  0  0  0  0  0  0  0
    4.6845   -1.0972    0.9575 C   0  0  0  0  0  0  0  0  0  0  0  0
    5.4143   -0.4285    0.4831 H   0  0  0  0  0  0  0  0  0  0  0  0
    4.9405   -2.4757    1.0098 C   0  0  0  0  0  0  0  0  0  0  0  0
    5.8729   -2.8624    0.5730 H   0  0  0  0  0  0  0  0  0  0  0  0
   -6.6996   -0.4775    1.1866 C   0  0  0  0  0  0  0  0  0  0  0  0
   -7.5391    0.0915    1.6147 H   0  0  0  0  0  0  0  0  0  0  0  0
    4.0129   -3.3523    1.5857 C   0  0  0  0  0  0  0  0  0  0  0  0
    4.2096   -4.4335    1.6133 H   0  0  0  0  0  0  0  0  0  0  0  0
  1  6  1  0  0  0  0
  2  1  1  0  0  0  0
  3 18  1  0  0  0  0
  4  3  1  0  0  0  0
  4  9  1  0  0  0  0
  5 47  1  0  0  0  0
  5 29  1  0  0  0  0
  6 37  1  0  0  0  0
  6 45  2  0  0  0  0
  7 34  1  0  0  0  0
  8 37  1  0  0  0  0
  8 26  1  0  0  0  0
  9 10  1  0  0  0  0
 11 42  1  0  0  0  0
 12 13  1  0  0  0  0
 12  8  1  0  0  0  0
 14 12  1  0  0  0  0
 15  7  1  0  0  0  0
 15 21  1  0  0  0  0
 16 15  1  0  0  0  0
 17 15  1  0  0  0  0
 18 22  1  0  0  0  0
 18 19  1  0  0  0  0
 20 18  1  0  0  0  0
 21  4  2  0  0  0  0
 22 24  1  0  0  0  0
 22 11  1  0  0  0  0
 23 22  1  0  0  0  0
 25 50  1  0  0  0  0
 25 29  1  0  0  0  0
 26 27  1  0  0  0  0
 26 28  1  0  0  0  0
 29 30  1  0  0  0  0
 29 31  1  0  0  0  0
 32 21  1  0  0  0  0
 32 40  2  0  0  0  0
 33 32  1  0  0  0  0
 34 35  1  0  0  0  0
 34 12  1  0  0  0  0
 36 34  1  0  0  0  0
 37 38  1  0  0  0  0
 39 37  1  0  0  0  0
 40 43  1  0  0  0  0
 41 40  1  0  0  0  0
 42 25  2  0  0  0  0
 43  9  2  0  0  0  0
 43 44  1  0  0  0  0
 45 46  1  0  0  0  0
 47 26  1  0  0  0  0
 47 48  1  0  0  0  0
 49 47  1  0  0  0  0
 50 51  1  0  0  0  0
 52 60  2  0  0  0  0
 53 52  1  0  0  0  0
 54  1  2  0  0  0  0
 54 52  1  0  0  0  0
 55 54  1  0  0  0  0
 56 58  2  0  0  0  0
 56 42  1  0  0  0  0
 57 56  1  0  0  0  0
 58 62  1  0  0  0  0
 59 58  1  0  0  0  0
 60 45  1  0  0  0  0
 60 61  1  0  0  0  0
 62 63  1  0  0  0  0
 62 50  2  0  0  0  0
M  END
