1,2
 OpenBabel05122313053D

 28 27  0  0  1  0  0  0  0  0999 V2000
   -1.4031   -1.2315   -0.6899 N   0  0  0  0  0  2  0  0  0  0  0  0
   -1.2021    1.4145   -0.5660 N   0  0  0  0  0  2  0  0  0  0  0  0
   -3.7103   -2.1507   -0.7428 C   0  0  0  0  0  0  0  0  0  0  0  0
   -3.2042    0.2410   -0.7370 N   0  0  0  0  0  0  0  0  0  0  0  0
   -2.5044    1.4243   -0.6231 C   0  0  1  0  0  3  0  0  0  0  0  0
   -3.3428    2.6745   -0.5448 C   0  0  0  0  0  0  0  0  0  0  0  0
   -2.6918   -1.0399   -0.7322 C   0  0  1  0  0  3  0  0  0  0  0  0
   -4.6828   -2.1017    0.4543 C   0  0  0  0  0  0  0  0  0  0  0  0
   -3.7122    2.4804    1.9916 C   0  0  0  0  0  0  0  0  0  0  0  0
   -4.3559    2.6660    0.6187 C   0  0  0  0  0  0  0  0  0  0  0  0
   -3.9859   -2.1538    1.8127 C   0  0  0  0  0  0  0  0  0  0  0  0
   -1.1770   -2.2347   -0.6738 H   0  0  0  0  0  0  0  0  0  0  0  0
   -0.8282    2.3675   -0.4658 H   0  0  0  0  0  0  0  0  0  0  0  0
   -4.2775   -2.1016   -1.6985 H   0  0  0  0  0  0  0  0  0  0  0  0
   -3.1652   -3.1161   -0.7512 H   0  0  0  0  0  0  0  0  0  0  0  0
   -4.2231    0.3193   -0.7465 H   0  0  0  0  0  0  0  0  0  0  0  0
   -2.6578    3.5406   -0.4464 H   0  0  0  0  0  0  0  0  0  0  0  0
   -3.8748    2.8032   -1.5134 H   0  0  0  0  0  0  0  0  0  0  0  0
   -5.3238   -1.1934    0.3864 H   0  0  0  0  0  0  0  0  0  0  0  0
   -5.3859   -2.9527    0.3456 H   0  0  0  0  0  0  0  0  0  0  0  0
   -4.4718    2.5184    2.7960 H   0  0  0  0  0  0  0  0  0  0  0  0
   -2.9687    3.2771    2.1996 H   0  0  0  0  0  0  0  0  0  0  0  0
   -3.1883    1.5049    2.0765 H   0  0  0  0  0  0  0  0  0  0  0  0
   -4.9153    3.6229    0.5783 H   0  0  0  0  0  0  0  0  0  0  0  0
   -5.1270    1.8808    0.4467 H   0  0  0  0  0  0  0  0  0  0  0  0
   -4.7231   -2.1529    2.6386 H   0  0  0  0  0  0  0  0  0  0  0  0
   -3.3129   -1.2842    1.9684 H   0  0  0  0  0  0  0  0  0  0  0  0
   -3.3726   -3.0724    1.9167 H   0  0  0  0  0  0  0  0  0  0  0  0
  1 12  1  0  0  0  0
  2 13  1  0  0  0  0
  3  7  1  0  0  0  0
  3  8  1  0  0  0  0
  4  7  1  0  0  0  0
  4  5  1  0  0  0  0
  5  2  1  1  0  0  0
  5  6  1  0  0  0  0
  6 17  1  0  0  0  0
  6 10  1  0  0  0  0
  7  1  1  1  0  0  0
  8 11  1  0  0  0  0
  9 23  1  0  0  0  0
  9 22  1  0  0  0  0
  9 21  1  0  0  0  0
 10  9  1  0  0  0  0
 11 28  1  0  0  0  0
 11 27  1  0  0  0  0
 11 26  1  0  0  0  0
 14  3  1  0  0  0  0
 15  3  1  0  0  0  0
 16  4  1  0  0  0  0
 18  6  1  0  0  0  0
 19  8  1  0  0  0  0
 20  8  1  0  0  0  0
 24 10  1  0  0  0  0
 25 10  1  0  0  0  0
M  END
