1,5
 OpenBabel05122313053D

 49 52  0  0  0  0  0  0  0  0999 V2000
    0.9818    1.7196   -0.1810 N   0  0  0  0  0  2  0  0  0  0  0  0
    3.1802   -0.0723    1.0327 N   0  0  0  0  0  0  0  0  0  0  0  0
    4.3760    0.5434   -0.7624 N   0  0  0  0  0  0  0  0  0  0  0  0
    4.5564    0.9600   -1.6764 H   0  0  0  0  0  0  0  0  0  0  0  0
   -1.4657    1.2482    0.1337 N   0  0  0  0  0  2  0  0  0  0  0  0
    4.2862   -0.8976    0.9353 C   0  0  0  0  0  0  0  0  0  0  0  0
    3.2401    0.7493   -0.0115 C   0  0  0  0  0  0  0  0  0  0  0  0
   -1.2320    2.5404   -0.0091 C   0  0  0  0  0  0  0  0  0  0  0  0
   -3.1973    0.4241    1.6442 C   0  0  0  0  0  0  0  0  0  0  0  0
    0.1752    2.8372   -0.2181 C   0  0  0  0  0  0  0  0  0  0  0  0
   -3.5870    0.4754   -0.8052 C   0  0  0  0  0  0  0  0  0  0  0  0
   -2.7763    0.7355    0.3263 C   0  0  0  0  0  0  0  0  0  0  0  0
    2.3338    1.8800   -0.2662 C   0  0  0  0  0  0  0  0  0  0  0  0
    5.0535   -0.5321   -0.2124 C   0  0  0  0  0  0  0  0  0  0  0  0
    2.8934    3.1478   -0.5226 C   0  0  0  0  0  0  0  0  0  0  0  0
    3.9869    3.2400   -0.5790 H   0  0  0  0  0  0  0  0  0  0  0  0
   -4.8597   -0.0787   -0.5859 C   0  0  0  0  0  0  0  0  0  0  0  0
   -5.5032   -0.2853   -1.4563 H   0  0  0  0  0  0  0  0  0  0  0  0
    0.6958    4.1217   -0.4495 C   0  0  0  0  0  0  0  0  0  0  0  0
    0.0167    4.9839   -0.4850 H   0  0  0  0  0  0  0  0  0  0  0  0
    4.7077   -1.9594    1.7606 C   0  0  0  0  0  0  0  0  0  0  0  0
    4.1300   -2.2399    2.6529 H   0  0  0  0  0  0  0  0  0  0  0  0
   -4.4828   -0.1182    1.8037 C   0  0  0  0  0  0  0  0  0  0  0  0
   -4.8303   -0.3541    2.8223 H   0  0  0  0  0  0  0  0  0  0  0  0
    2.0717    4.2760   -0.6363 C   0  0  0  0  0  0  0  0  0  0  0  0
    2.5059    5.2670   -0.8307 H   0  0  0  0  0  0  0  0  0  0  0  0
   -5.3331   -0.3734    0.7078 C   0  0  0  0  0  0  0  0  0  0  0  0
   -2.2804    3.6059    0.0348 C   0  0  0  0  0  0  0  0  0  0  0  0
   -3.2648    3.1809    0.3005 H   0  0  0  0  0  0  0  0  0  0  0  0
   -2.3720    4.1116   -0.9498 H   0  0  0  0  0  0  0  0  0  0  0  0
   -2.0186    4.3866    0.7779 H   0  0  0  0  0  0  0  0  0  0  0  0
   -3.0818    0.7747   -2.1925 C   0  0  0  0  0  0  0  0  0  0  0  0
   -3.6993    0.2752   -2.9624 H   0  0  0  0  0  0  0  0  0  0  0  0
   -2.0253    0.4568   -2.3176 H   0  0  0  0  0  0  0  0  0  0  0  0
   -3.1072    1.8641   -2.4104 H   0  0  0  0  0  0  0  0  0  0  0  0
    6.2274   -1.2084   -0.5787 C   0  0  0  0  0  0  0  0  0  0  0  0
    6.8110   -0.9264   -1.4665 H   0  0  0  0  0  0  0  0  0  0  0  0
    5.8770   -2.6330    1.3995 C   0  0  0  0  0  0  0  0  0  0  0  0
    6.2332   -3.4689    2.0192 H   0  0  0  0  0  0  0  0  0  0  0  0
   -2.2832    0.6738    2.8124 C   0  0  0  0  0  0  0  0  0  0  0  0
   -2.7299    0.3060    3.7548 H   0  0  0  0  0  0  0  0  0  0  0  0
   -2.0794    1.7585    2.9399 H   0  0  0  0  0  0  0  0  0  0  0  0
   -1.2960    0.1854    2.6656 H   0  0  0  0  0  0  0  0  0  0  0  0
    6.6222   -2.2650    0.2495 C   0  0  0  0  0  0  0  0  0  0  0  0
    7.5373   -2.8237    0.0042 H   0  0  0  0  0  0  0  0  0  0  0  0
   -6.7162   -0.9307    0.9215 C   0  0  0  0  0  0  0  0  0  0  0  0
   -7.1175   -1.4034    0.0043 H   0  0  0  0  0  0  0  0  0  0  0  0
   -7.4242   -0.1243    1.2099 H   0  0  0  0  0  0  0  0  0  0  0  0
   -6.7353   -1.6779    1.7396 H   0  0  0  0  0  0  0  0  0  0  0  0
  3 14  1  0  0  0  0
  3  7  1  0  0  0  0
  4  3  1  0  0  0  0
  5 12  1  0  0  0  0
  6  2  1  0  0  0  0
  6 21  1  0  0  0  0
  7  2  2  0  0  0  0
  8 28  1  0  0  0  0
  8  5  1  0  0  0  0
  9 23  1  0  0  0  0
  9 40  1  0  0  0  0
 10  1  1  0  0  0  0
 10  8  2  0  0  0  0
 11 17  2  0  0  0  0
 11 12  1  0  0  0  0
 12  9  2  0  0  0  0
 13  1  1  0  0  0  0
 13  7  1  0  0  0  0
 14  6  2  0  0  0  0
 15 13  2  0  0  0  0
 16 15  1  0  0  0  0
 17 27  1  0  0  0  0
 18 17  1  0  0  0  0
 19 10  1  0  0  0  0
 20 19  1  0  0  0  0
 21 22  1  0  0  0  0
 23 24  1  0  0  0  0
 25 15  1  0  0  0  0
 25 19  2  0  0  0  0
 26 25  1  0  0  0  0
 27 46  1  0  0  0  0
 27 23  2  0  0  0  0
 28 29  1  0  0  0  0
 28 31  1  0  0  0  0
 30 28  1  0  0  0  0
 32 11  1  0  0  0  0
 33 32  1  0  0  0  0
 34 32  1  0  0  0  0
 35 32  1  0  0  0  0
 36 14  1  0  0  0  0
 36 44  2  0  0  0  0
 37 36  1  0  0  0  0
 38 21  2  0  0  0  0
 38 39  1  0  0  0  0
 40 42  1  0  0  0  0
 40 41  1  0  0  0  0
 43 40  1  0  0  0  0
 44 38  1  0  0  0  0
 45 44  1  0  0  0  0
 46 48  1  0  0  0  0
 46 49  1  0  0  0  0
 47 46  1  0  0  0  0
M  END
