3,4
 OpenBabel05122313053D

 35 38  0  0  0  0  0  0  0  0999 V2000
   -6.1260   -0.6128   -0.2679 Cl  0  0  0  0  0  0  0  0  0  0  0  0
   -0.5461   -2.5548    0.0536 N   0  0  0  0  0  0  0  0  0  0  0  0
    0.2724   -0.3223   -0.2003 N   0  0  0  0  0  2  0  0  0  0  0  0
    2.7894   -1.1886    0.0107 N   0  0  0  0  0  2  0  0  0  0  0  0
    0.4312   -1.6724   -0.0685 C   0  0  0  0  0  0  0  0  0  0  0  0
   -0.9538    0.2081   -0.1878 C   0  0  0  0  0  0  0  0  0  0  0  0
   -3.4412   -0.2190   -0.2214 C   0  0  0  0  0  0  0  0  0  0  0  0
   -3.6636    0.8444   -0.3782 H   0  0  0  0  0  0  0  0  0  0  0  0
   -4.4755   -1.1443   -0.1407 C   0  0  0  0  0  0  0  0  0  0  0  0
   -4.2158   -2.5321    0.0355 C   0  0  0  0  0  0  0  0  0  0  0  0
   -5.0628   -3.2298    0.0981 H   0  0  0  0  0  0  0  0  0  0  0  0
   -2.9095   -2.9854    0.1069 C   0  0  0  0  0  0  0  0  0  0  0  0
   -2.6757   -4.0530    0.2237 H   0  0  0  0  0  0  0  0  0  0  0  0
   -2.0967   -0.6640   -0.1191 C   0  0  0  0  0  0  0  0  0  0  0  0
   -1.8193   -2.0727    0.0177 C   0  0  0  0  0  0  0  0  0  0  0  0
   -1.0308    1.6807   -0.2331 C   0  0  0  0  0  0  0  0  0  0  0  0
   -0.1773    2.3857   -1.1113 C   0  0  0  0  0  0  0  0  0  0  0  0
    0.4776    1.8402   -1.8068 H   0  0  0  0  0  0  0  0  0  0  0  0
   -0.1383    3.7840   -1.0817 C   0  0  0  0  0  0  0  0  0  0  0  0
    0.5524    4.3138   -1.7536 H   0  0  0  0  0  0  0  0  0  0  0  0
   -0.9502    4.4918   -0.1820 C   0  0  0  0  0  0  0  0  0  0  0  0
   -0.9099    5.5911   -0.1511 H   0  0  0  0  0  0  0  0  0  0  0  0
   -1.7981    3.7970    0.6966 C   0  0  0  0  0  0  0  0  0  0  0  0
   -2.4105    4.3492    1.4249 H   0  0  0  0  0  0  0  0  0  0  0  0
   -1.8408    2.3981    0.6758 C   0  0  0  0  0  0  0  0  0  0  0  0
   -2.4527    1.8563    1.4113 H   0  0  0  0  0  0  0  0  0  0  0  0
    1.8407   -2.1475   -0.0506 C   0  0  0  0  0  0  0  0  0  0  0  0
    4.0866   -1.5246   -0.0326 C   0  0  0  0  0  0  0  0  0  0  0  0
    4.7991   -0.6836   -0.0245 H   0  0  0  0  0  0  0  0  0  0  0  0
    4.5021   -2.8615   -0.1029 C   0  0  0  0  0  0  0  0  0  0  0  0
    5.5740   -3.1035   -0.1332 H   0  0  0  0  0  0  0  0  0  0  0  0
    3.5244   -3.8694   -0.1331 C   0  0  0  0  0  0  0  0  0  0  0  0
    3.8173   -4.9289   -0.1830 H   0  0  0  0  0  0  0  0  0  0  0  0
    2.1709   -3.5124   -0.1127 C   0  0  0  0  0  0  0  0  0  0  0  0
    1.3592   -4.2515   -0.1505 H   0  0  0  0  0  0  0  0  0  0  0  0
  1  9  1  0  0  0  0
  3  6  1  0  0  0  0
  3  5  1  0  0  0  0
  5 27  2  0  0  0  0
  5  2  1  0  0  0  0
  6 14  2  0  0  0  0
  7  9  2  0  0  0  0
  7 14  1  0  0  0  0
  8  7  1  0  0  0  0
  9 10  1  0  0  0  0
 10 11  1  0  0  0  0
 10 12  2  0  0  0  0
 12 13  1  0  0  0  0
 14 15  1  0  0  0  0
 15  2  2  0  0  0  0
 15 12  1  0  0  0  0
 16  6  1  0  0  0  0
 16 25  1  0  0  0  0
 17 19  1  0  0  0  0
 17 16  2  0  0  0  0
 18 17  1  0  0  0  0
 19 21  2  0  0  0  0
 20 19  1  0  0  0  0
 21 22  1  0  0  0  0
 21 23  1  0  0  0  0
 23 24  1  0  0  0  0
 25 23  2  0  0  0  0
 25 26  1  0  0  0  0
 27  4  1  0  0  0  0
 28 29  1  0  0  0  0
 28  4  1  0  0  0  0
 30 28  2  0  0  0  0
 31 30  1  0  0  0  0
 32 34  2  0  0  0  0
 32 30  1  0  0  0  0
 33 32  1  0  0  0  0
 34 27  1  0  0  0  0
 35 34  1  0  0  0  0
M  END
