1,4
 OpenBabel05122313053D

 44 47  0  0  1  0  0  0  0  0999 V2000
   -1.2366    0.1433   -1.5876 N   0  0  0  0  0  0  0  0  0  0  0  0
   -1.3490   -0.5873   -2.3085 H   0  0  0  0  0  0  0  0  0  0  0  0
   -1.4911    1.0409   -2.0336 H   0  0  0  0  0  0  0  0  0  0  0  0
   -0.8368   -0.6212    1.0635 N   0  0  0  0  0  0  0  0  0  0  0  0
   -0.6357    0.2525    1.5821 H   0  0  0  0  0  0  0  0  0  0  0  0
   -0.9390   -1.3741    1.7645 H   0  0  0  0  0  0  0  0  0  0  0  0
    0.1626    0.1781   -1.0414 C   0  0  2  0  0  0  0  0  0  0  0  0
    0.8507   -0.1379   -1.8493 H   0  0  0  0  0  0  0  0  0  0  0  0
    0.2484   -0.9127    0.0784 C   0  0  1  0  0  0  0  0  0  0  0  0
   -0.0337   -1.8815   -0.3816 H   0  0  0  0  0  0  0  0  0  0  0  0
    0.5415    1.5635   -0.5553 C   0  0  0  0  0  0  0  0  0  0  0  0
   -0.4130    2.4141    0.0103 C   0  0  0  0  0  0  0  0  0  0  0  0
   -1.4801    2.1366    0.0404 H   0  0  0  0  0  0  0  0  0  0  0  0
   -0.0572    3.6779    0.5462 C   0  0  0  0  0  0  0  0  0  0  0  0
   -0.8376    4.3235    0.9736 H   0  0  0  0  0  0  0  0  0  0  0  0
    1.2655    4.0847    0.5262 C   0  0  0  0  0  0  0  0  0  0  0  0
    1.5548    5.0592    0.9482 H   0  0  0  0  0  0  0  0  0  0  0  0
    3.6389    3.6803   -0.0646 C   0  0  0  0  0  0  0  0  0  0  0  0
    3.8918    4.6589    0.3707 H   0  0  0  0  0  0  0  0  0  0  0  0
    4.6246    2.8808   -0.6193 C   0  0  0  0  0  0  0  0  0  0  0  0
    5.6720    3.2163   -0.6268 H   0  0  0  0  0  0  0  0  0  0  0  0
    4.2788    1.6284   -1.1898 C   0  0  0  0  0  0  0  0  0  0  0  0
    5.0599    0.9978   -1.6395 H   0  0  0  0  0  0  0  0  0  0  0  0
    2.9630    1.1899   -1.1890 C   0  0  0  0  0  0  0  0  0  0  0  0
    2.7463    0.2096   -1.6347 H   0  0  0  0  0  0  0  0  0  0  0  0
    1.9213    1.9771   -0.6131 C   0  0  0  0  0  0  0  0  0  0  0  0
    2.2764    3.2594   -0.0455 C   0  0  0  0  0  0  0  0  0  0  0  0
    1.6087   -1.0412    0.7197 C   0  0  0  0  0  0  0  0  0  0  0  0
    1.9624   -0.2248    1.7940 C   0  0  0  0  0  0  0  0  0  0  0  0
    1.2466    0.4992    2.2142 H   0  0  0  0  0  0  0  0  0  0  0  0
    3.2591   -0.2690    2.3580 C   0  0  0  0  0  0  0  0  0  0  0  0
    3.5062    0.3872    3.2044 H   0  0  0  0  0  0  0  0  0  0  0  0
    4.2102   -1.1263    1.8291 C   0  0  0  0  0  0  0  0  0  0  0  0
    5.2249   -1.1618    2.2537 H   0  0  0  0  0  0  0  0  0  0  0  0
    4.8857   -2.8383    0.1648 C   0  0  0  0  0  0  0  0  0  0  0  0
    5.8900   -2.8526    0.6148 H   0  0  0  0  0  0  0  0  0  0  0  0
    4.5929   -3.6434   -0.9255 C   0  0  0  0  0  0  0  0  0  0  0  0
    5.3617   -4.3063   -1.3485 H   0  0  0  0  0  0  0  0  0  0  0  0
    3.2948   -3.6143   -1.4953 C   0  0  0  0  0  0  0  0  0  0  0  0
    3.0629   -4.2578   -2.3568 H   0  0  0  0  0  0  0  0  0  0  0  0
    2.3112   -2.7865   -0.9689 C   0  0  0  0  0  0  0  0  0  0  0  0
    1.3148   -2.8042   -1.4355 H   0  0  0  0  0  0  0  0  0  0  0  0
    2.5750   -1.9435    0.1517 C   0  0  0  0  0  0  0  0  0  0  0  0
    3.9019   -1.9725    0.7247 C   0  0  0  0  0  0  0  0  0  0  0  0
  1  7  1  0  0  0  0
  2  1  1  0  0  0  0
  3  1  1  0  0  0  0
  4  5  1  0  0  0  0
  4  6  1  0  0  0  0
  7  8  1  6  0  0  0
  7 11  1  0  0  0  0
  7  9  1  0  0  0  0
  9 10  1  6  0  0  0
  9 28  1  0  0  0  0
  9  4  1  0  0  0  0
 11 12  1  0  0  0  0
 12 13  1  0  0  0  0
 12 14  2  0  0  0  0
 14 15  1  0  0  0  0
 16 14  1  0  0  0  0
 16 17  1  0  0  0  0
 18 27  1  0  0  0  0
 18 19  1  0  0  0  0
 20 18  2  0  0  0  0
 21 20  1  0  0  0  0
 22 24  2  0  0  0  0
 22 20  1  0  0  0  0
 23 22  1  0  0  0  0
 24 26  1  0  0  0  0
 25 24  1  0  0  0  0
 26 11  2  0  0  0  0
 26 27  1  0  0  0  0
 27 16  2  0  0  0  0
 28 29  1  0  0  0  0
 29 30  1  0  0  0  0
 29 31  2  0  0  0  0
 31 32  1  0  0  0  0
 33 34  1  0  0  0  0
 33 31  1  0  0  0  0
 35 36  1  0  0  0  0
 35 44  1  0  0  0  0
 37 35  2  0  0  0  0
 38 37  1  0  0  0  0
 39 41  2  0  0  0  0
 39 37  1  0  0  0  0
 40 39  1  0  0  0  0
 41 43  1  0  0  0  0
 42 41  1  0  0  0  0
 43 28  2  0  0  0  0
 43 44  1  0  0  0  0
 44 33  2  0  0  0  0
M  END
