1,3
 OpenBabel05122313053D

 37 38  0  0  0  0  0  0  0  0999 V2000
   -1.9206   -0.8946    0.5333 N   0  0  0  0  0  0  0  0  0  0  0  0
   -1.0738    1.1454   -0.5970 C   0  0  0  0  0  0  0  0  0  0  0  0
    0.1622    0.5149   -0.6919 N   0  0  0  0  0  2  0  0  0  0  0  0
    2.4858    0.6334   -1.0142 N   0  0  0  0  0  0  0  0  0  0  0  0
   -2.7707   -1.9331   -0.0868 C   0  0  0  0  0  0  0  0  0  0  0  0
   -3.8486   -1.7844    0.1466 H   0  0  0  0  0  0  0  0  0  0  0  0
   -2.4474   -2.9266    0.2774 H   0  0  0  0  0  0  0  0  0  0  0  0
   -2.6138   -1.9207   -1.1805 H   0  0  0  0  0  0  0  0  0  0  0  0
   -2.5957    3.0107   -1.0603 C   0  0  0  0  0  0  0  0  0  0  0  0
   -2.7578    4.0184   -1.4723 H   0  0  0  0  0  0  0  0  0  0  0  0
    1.6014    2.1781    0.3461 N   0  0  0  0  0  0  0  0  0  0  0  0
   -3.4429    1.0136    0.0150 C   0  0  0  0  0  0  0  0  0  0  0  0
   -4.2769    0.4518    0.4622 H   0  0  0  0  0  0  0  0  0  0  0  0
   -2.0381   -0.8957    2.0079 C   0  0  0  0  0  0  0  0  0  0  0  0
   -3.0663   -0.6287    2.3404 H   0  0  0  0  0  0  0  0  0  0  0  0
   -1.3072   -0.1833    2.4331 H   0  0  0  0  0  0  0  0  0  0  0  0
   -1.7838   -1.9031    2.3908 H   0  0  0  0  0  0  0  0  0  0  0  0
   -2.1658    0.4322   -0.0264 C   0  0  0  0  0  0  0  0  0  0  0  0
   -3.6683    2.2992   -0.4963 C   0  0  0  0  0  0  0  0  0  0  0  0
   -4.6744    2.7412   -0.4562 H   0  0  0  0  0  0  0  0  0  0  0  0
    3.6289    1.1139   -0.2467 C   0  0  0  0  0  0  0  0  0  0  0  0
    4.4966    1.3180   -0.9049 H   0  0  0  0  0  0  0  0  0  0  0  0
    3.9147    0.3496    0.5123 H   0  0  0  0  0  0  0  0  0  0  0  0
    1.3287    1.1093   -0.4724 C   0  0  0  0  0  3  0  0  0  0  0  0
    3.0566    2.3860    0.4035 C   0  0  0  0  0  0  0  0  0  0  0  0
    3.3864    2.4989    1.4544 H   0  0  0  0  0  0  0  0  0  0  0  0
    3.3417    3.3073   -0.1515 H   0  0  0  0  0  0  0  0  0  0  0  0
    0.7930    2.5054    1.5107 C   0  0  0  0  0  0  0  0  0  0  0  0
   -0.2781    2.5398    1.2434 H   0  0  0  0  0  0  0  0  0  0  0  0
    1.0790    3.5106    1.8757 H   0  0  0  0  0  0  0  0  0  0  0  0
    0.9424    1.7509    2.3147 H   0  0  0  0  0  0  0  0  0  0  0  0
   -1.3196    2.4419   -1.1157 C   0  0  0  0  0  0  0  0  0  0  0  0
   -0.4827    2.9930   -1.5695 H   0  0  0  0  0  0  0  0  0  0  0  0
    2.5677   -0.5621   -1.8226 C   0  0  0  0  0  0  0  0  0  0  0  0
    1.5955   -0.7403   -2.3175 H   0  0  0  0  0  0  0  0  0  0  0  0
    2.7922   -1.4572   -1.2008 H   0  0  0  0  0  0  0  0  0  0  0  0
    3.3589   -0.4448   -2.5907 H   0  0  0  0  0  0  0  0  0  0  0  0
  1 14  1  0  0  0  0
  2 18  1  0  0  0  0
  3  2  1  0  0  0  0
  3 24  1  0  0  0  0
  4 24  1  0  0  0  0
  4 21  1  0  0  0  0
  5  6  1  0  0  0  0
  5  7  1  0  0  0  0
  5  1  1  0  0  0  0
  8  5  1  0  0  0  0
  9 19  2  0  0  0  0
 10  9  1  0  0  0  0
 11 25  1  0  0  0  0
 11 28  1  0  0  0  0
 12 13  1  0  0  0  0
 14 15  1  0  0  0  0
 14 17  1  0  0  0  0
 14 16  1  0  0  0  0
 18 12  2  0  0  0  0
 18  1  1  0  0  0  0
 19 20  1  0  0  0  0
 19 12  1  0  0  0  0
 21 25  1  0  0  0  0
 21 23  1  0  0  0  0
 22 21  1  0  0  0  0
 24 11  1  0  0  0  0
 25 26  1  0  0  0  0
 27 25  1  0  0  0  0
 28 30  1  0  0  0  0
 28 31  1  0  0  0  0
 29 28  1  0  0  0  0
 32  9  1  0  0  0  0
 32  2  2  0  0  0  0
 33 32  1  0  0  0  0
 34 36  1  0  0  0  0
 34  4  1  0  0  0  0
 35 34  1  0  0  0  0
 37 34  1  0  0  0  0
M  END
