1,14
 OpenBabel05122313053D

 22 23  0  0  0  0  0  0  0  0999 V2000
   -1.9786   -0.9499    0.0463 N   0  0  0  0  0  2  0  0  0  0  0  0
   -3.0440   -1.7877   -0.0763 C   0  0  0  0  0  3  0  0  0  0  0  0
   -2.5418   -3.1059   -0.0247 C   0  0  0  0  0  0  0  0  0  0  0  0
   -1.1894   -3.0958    0.1093 N   0  0  0  0  0  0  0  0  0  0  0  0
   -0.8909   -1.7872    0.1578 C   0  0  0  0  0  0  0  0  0  0  0  0
    0.3989   -1.1464    0.2430 C   0  0  0  0  0  0  0  0  0  0  0  0
    1.5387   -1.7947   -0.0126 N   0  0  0  0  0  2  0  0  0  0  0  0
    2.6284   -1.0446   -0.1601 N   0  0  0  0  0  0  0  0  0  0  0  0
    3.8795   -1.7344   -0.4600 C   0  0  0  0  0  0  0  0  0  0  0  0
    2.6723    0.3575   -0.0949 C   0  0  0  0  0  0  0  0  0  0  0  0
    3.6628    1.0185   -0.3582 O   0  0  0  0  0  0  0  0  0  0  0  0
    1.4718    0.8900    0.4391 N   0  0  0  0  0  0  0  0  0  0  0  0
    1.4476    2.2771    0.8622 C   0  0  0  0  0  0  0  0  0  0  0  0
    0.3489    0.1888    0.6024 N   0  0  0  0  0  2  0  0  0  0  0  0
   -4.0673   -1.4178   -0.2120 H   0  0  0  0  0  0  0  0  0  0  0  0
   -3.1095   -4.0443   -0.0870 H   0  0  0  0  0  0  0  0  0  0  0  0
    4.6842   -1.3471    0.1929 H   0  0  0  0  0  0  0  0  0  0  0  0
    3.7034   -2.8103   -0.2949 H   0  0  0  0  0  0  0  0  0  0  0  0
    4.1711   -1.5464   -1.5129 H   0  0  0  0  0  0  0  0  0  0  0  0
    0.6802    2.8202    0.2500 H   0  0  0  0  0  0  0  0  0  0  0  0
    1.1235    2.3266    1.9197 H   0  0  0  0  0  0  0  0  0  0  0  0
    2.4557    2.6996    0.7217 H   0  0  0  0  0  0  0  0  0  0  0  0
  1  5  1  0  0  0  0
  2  3  1  0  0  0  0
  2  1  1  0  0  0  0
  3  4  2  0  0  0  0
  4  5  1  0  0  0  0
  5  6  2  0  0  0  0
  6 14  1  0  0  0  0
  7  6  1  0  0  0  0
  8 10  1  0  0  0  0
  8  7  1  0  0  0  0
  9 18  1  0  0  0  0
  9  8  1  0  0  0  0
  9 17  1  0  0  0  0
 10 12  1  0  0  0  0
 11 10  2  0  0  0  0
 12 14  1  0  0  0  0
 12 13  1  0  0  0  0
 13 21  1  0  0  0  0
 15  2  1  0  0  0  0
 16  3  1  0  0  0  0
 19  9  1  0  0  0  0
 20 13  1  0  0  0  0
 22 13  1  0  0  0  0
M  END
