2,3
 OpenBabel05122313053D

 38 37  0  0  0  0  0  0  0  0999 V2000
   -2.8904    1.0536    0.0350 N   0  0  0  0  0  0  0  0  0  0  0  0
   -0.6416    0.4987   -0.5380 N   0  0  0  0  0  2  0  0  0  0  0  0
    2.1125    0.9468    0.7376 N   0  0  0  0  0  0  0  0  0  0  0  0
   -4.2659    0.8257   -0.3681 C   0  0  0  0  0  0  0  0  0  0  0  0
   -4.3164   -0.0621   -1.0236 H   0  0  0  0  0  0  0  0  0  0  0  0
   -4.6500    1.7045   -0.9321 H   0  0  0  0  0  0  0  0  0  0  0  0
   -4.9420    0.6604    0.5019 H   0  0  0  0  0  0  0  0  0  0  0  0
   -1.8783    0.1475   -0.2459 C   0  0  0  0  0  3  0  0  0  0  0  0
   -2.2341   -1.1785   -0.2214 N   0  0  0  0  0  0  0  0  0  0  0  0
   -0.3067    1.7329   -1.2383 C   0  0  0  0  0  0  0  0  0  0  0  0
   -1.2215    2.3072   -1.5033 H   0  0  0  0  0  0  0  0  0  0  0  0
    0.1765    1.4250   -2.1941 H   0  0  0  0  0  0  0  0  0  0  0  0
    3.4829    0.4165    0.8389 C   0  0  0  0  0  0  0  0  0  0  0  0
    4.1895    1.1825    1.2375 H   0  0  0  0  0  0  0  0  0  0  0  0
    3.8121    0.0831   -0.1646 H   0  0  0  0  0  0  0  0  0  0  0  0
    3.4753   -0.4620    1.5130 H   0  0  0  0  0  0  0  0  0  0  0  0
   -2.9994   -1.7331    0.8864 C   0  0  0  0  0  0  0  0  0  0  0  0
   -3.4048   -0.9204    1.5152 H   0  0  0  0  0  0  0  0  0  0  0  0
   -2.3244   -2.3534    1.5163 H   0  0  0  0  0  0  0  0  0  0  0  0
   -3.8416   -2.3605    0.5230 H   0  0  0  0  0  0  0  0  0  0  0  0
    2.0684    2.0792   -0.2156 C   0  0  0  0  0  0  0  0  0  0  0  0
    2.5016    1.6967   -1.1637 H   0  0  0  0  0  0  0  0  0  0  0  0
    2.7322    2.8983    0.1577 H   0  0  0  0  0  0  0  0  0  0  0  0
   -2.6359    2.2739    0.7742 C   0  0  0  0  0  0  0  0  0  0  0  0
   -1.6233    2.2360    1.2140 H   0  0  0  0  0  0  0  0  0  0  0  0
   -3.3711    2.3744    1.6033 H   0  0  0  0  0  0  0  0  0  0  0  0
   -2.7111    3.1877    0.1424 H   0  0  0  0  0  0  0  0  0  0  0  0
    0.6762    2.6549   -0.4970 C   0  0  0  0  0  0  0  0  0  0  0  0
    0.8333    3.5490   -1.1364 H   0  0  0  0  0  0  0  0  0  0  0  0
    0.2185    3.0394    0.4389 H   0  0  0  0  0  0  0  0  0  0  0  0
   -1.5514   -2.1634   -1.0513 C   0  0  0  0  0  0  0  0  0  0  0  0
   -0.9497   -1.6569   -1.8285 H   0  0  0  0  0  0  0  0  0  0  0  0
   -2.3073   -2.8174   -1.5382 H   0  0  0  0  0  0  0  0  0  0  0  0
   -0.8697   -2.7950   -0.4418 H   0  0  0  0  0  0  0  0  0  0  0  0
    1.5842    1.2747    2.0669 C   0  0  0  0  0  0  0  0  0  0  0  0
    2.1822    2.0755    2.5630 H   0  0  0  0  0  0  0  0  0  0  0  0
    1.5870    0.3556    2.6836 H   0  0  0  0  0  0  0  0  0  0  0  0
    0.5325    1.6074    1.9877 H   0  0  0  0  0  0  0  0  0  0  0  0
  1 24  1  0  0  0  0
  2  8  1  0  0  0  0
  3 13  1  0  0  0  0
  3 35  1  0  0  0  0
  4  1  1  0  0  0  0
  4  7  1  0  0  0  0
  5  4  1  0  0  0  0
  6  4  1  0  0  0  0
  8  9  1  0  0  0  0
  8  1  1  0  0  0  0
  9 17  1  0  0  0  0
 10  2  1  0  0  0  0
 10 28  1  0  0  0  0
 11 10  1  0  0  0  0
 12 10  1  0  0  0  0
 13 14  1  0  0  0  0
 13 16  1  0  0  0  0
 15 13  1  0  0  0  0
 17 18  1  0  0  0  0
 17 19  1  0  0  0  0
 20 17  1  0  0  0  0
 21 23  1  0  0  0  0
 21  3  1  0  0  0  0
 22 21  1  0  0  0  0
 24 25  1  0  0  0  0
 24 26  1  0  0  0  0
 27 24  1  0  0  0  0
 28 21  1  0  0  0  0
 28 30  1  0  0  0  0
 29 28  1  0  0  0  0
 31 34  1  0  0  0  0
 31  9  1  0  0  0  0
 32 31  1  0  0  0  0
 33 31  1  0  0  0  0
 35 36  1  0  0  0  0
 35 37  1  0  0  0  0
 38 35  1  0  0  0  0
M  END
