2,3
 OpenBabel05122313053D

 31 33  0  0  1  0  0  0  0  0999 V2000
    1.6753   -0.0124    0.6155 N   0  0  0  0  0  0  0  0  0  0  0  0
   -0.2020    1.4220    0.7886 N   0  0  0  0  0  2  0  0  0  0  0  0
   -0.2171   -1.4274    0.7836 N   0  0  0  0  0  2  0  0  0  0  0  0
    4.5822   -1.1616   -1.4159 C   0  0  0  0  0  0  0  0  0  0  0  0
    5.0499   -2.0878   -1.7818 H   0  0  0  0  0  0  0  0  0  0  0  0
    1.0945    1.1912    1.1040 C   0  0  1  0  0  3  0  0  0  0  0  0
    1.8229    2.0560    1.9393 C   0  0  0  0  0  0  0  0  0  0  0  0
    2.8667    1.8156    2.1825 H   0  0  0  0  0  0  0  0  0  0  0  0
    1.1922    3.1953    2.4492 C   0  0  0  0  0  0  0  0  0  0  0  0
    1.7442    3.8900    3.0993 H   0  0  0  0  0  0  0  0  0  0  0  0
   -0.1613    3.4130    2.1462 C   0  0  0  0  0  0  0  0  0  0  0  0
   -0.7061    4.2802    2.5443 H   0  0  0  0  0  0  0  0  0  0  0  0
   -0.8286    2.4944    1.3347 C   0  0  0  0  0  0  0  0  0  0  0  0
   -1.9007    2.5788    1.1074 H   0  0  0  0  0  0  0  0  0  0  0  0
    1.0823   -1.2105    1.0986 C   0  0  2  0  0  3  0  0  0  0  0  0
    1.8036   -2.0890    1.9261 C   0  0  0  0  0  0  0  0  0  0  0  0
    2.8491   -1.8582    2.1721 H   0  0  0  0  0  0  0  0  0  0  0  0
    1.1623   -3.2251    2.4306 C   0  0  0  0  0  0  0  0  0  0  0  0
    1.7076   -3.9285    3.0771 H   0  0  0  0  0  0  0  0  0  0  0  0
   -0.1943   -3.4264    2.1301 C   0  0  0  0  0  0  0  0  0  0  0  0
   -0.7476   -4.2895    2.5254 H   0  0  0  0  0  0  0  0  0  0  0  0
   -0.8537   -2.4958    1.3255 C   0  0  0  0  0  0  0  0  0  0  0  0
   -1.9274   -2.5670    1.1007 H   0  0  0  0  0  0  0  0  0  0  0  0
    3.4337   -1.2216   -0.6207 C   0  0  0  0  0  0  0  0  0  0  0  0
    2.9829   -2.1934   -0.3779 H   0  0  0  0  0  0  0  0  0  0  0  0
    2.8508   -0.0181   -0.1692 C   0  0  0  0  0  0  0  0  0  0  0  0
    3.4430    1.1909   -0.6165 C   0  0  0  0  0  0  0  0  0  0  0  0
    2.9792    2.1599   -0.3668 H   0  0  0  0  0  0  0  0  0  0  0  0
    4.5432    1.2417   -1.3713 N   0  0  0  0  0  0  0  0  0  0  0  0
    5.1162    0.0911   -1.7537 C   0  0  0  0  0  0  0  0  0  0  0  0
    6.0284    0.1695   -2.3702 H   0  0  0  0  0  0  0  0  0  0  0  0
  2  6  1  0  0  0  0
  2 13  1  0  0  0  0
  3 15  1  0  0  0  0
  3 22  1  0  0  0  0
  4 24  1  0  0  0  0
  5  4  1  0  0  0  0
  6  1  1  1  0  0  0
  6  7  1  0  0  0  0
  7  8  1  0  0  0  0
  7  9  2  0  0  0  0
  9 10  1  0  0  0  0
 11  9  1  0  0  0  0
 11 12  1  0  0  0  0
 13 11  2  0  0  0  0
 14 13  1  0  0  0  0
 15  1  1  1  0  0  0
 15 16  1  0  0  0  0
 16 17  1  0  0  0  0
 16 18  2  0  0  0  0
 18 19  1  0  0  0  0
 20 18  1  0  0  0  0
 20 21  1  0  0  0  0
 22 20  2  0  0  0  0
 23 22  1  0  0  0  0
 24 25  1  0  0  0  0
 24 26  2  0  0  0  0
 26  1  1  0  0  0  0
 27 28  1  0  0  0  0
 27 26  1  0  0  0  0
 29 27  2  0  0  0  0
 30  4  2  0  0  0  0
 30 29  1  0  0  0  0
 31 30  1  0  0  0  0
M  END
