1,2
 OpenBabel05122313053D

 37 39  0  0  0  0  0  0  0  0999 V2000
   -2.0261   -0.2455    0.0213 N   0  0  0  0  0  2  0  0  0  0  0  0
    0.4990    0.4386    0.0269 N   0  0  0  0  0  2  0  0  0  0  0  0
   -3.3016   -0.6734    0.0241 C   0  0  0  0  0  0  0  0  0  0  0  0
   -3.4185   -1.7709   -0.0058 H   0  0  0  0  0  0  0  0  0  0  0  0
   -4.3697    0.2337    0.0601 C   0  0  0  0  0  0  0  0  0  0  0  0
   -5.3999   -0.1499    0.0561 H   0  0  0  0  0  0  0  0  0  0  0  0
   -4.1109    1.6116    0.0939 C   0  0  0  0  0  0  0  0  0  0  0  0
   -4.9393    2.3364    0.1155 H   0  0  0  0  0  0  0  0  0  0  0  0
   -2.7823    2.0702    0.0945 C   0  0  0  0  0  0  0  0  0  0  0  0
   -2.4050    3.5319    0.1430 C   0  0  0  0  0  0  0  0  0  0  0  0
   -2.3802    3.8559    1.2091 H   0  0  0  0  0  0  0  0  0  0  0  0
   -3.1978    4.1385   -0.3399 H   0  0  0  0  0  0  0  0  0  0  0  0
   -1.0388    3.7935   -0.5023 C   0  0  0  0  0  0  0  0  0  0  0  0
   -0.7572    4.8583   -0.3848 H   0  0  0  0  0  0  0  0  0  0  0  0
   -1.1063    3.5985   -1.5943 H   0  0  0  0  0  0  0  0  0  0  0  0
    0.0516    2.8985    0.1030 C   0  0  0  0  0  0  0  0  0  0  0  0
    1.0290    3.0347   -0.4003 H   0  0  0  0  0  0  0  0  0  0  0  0
    0.2222    3.1738    1.1699 H   0  0  0  0  0  0  0  0  0  0  0  0
   -0.3426    1.4476    0.0552 C   0  0  0  0  0  0  0  0  0  0  0  0
   -1.7593    1.0973    0.0565 C   0  0  0  0  0  0  0  0  0  0  0  0
    1.9087    0.6699    0.0321 C   0  0  0  0  0  0  0  0  0  0  0  0
    2.5810    0.7302    1.2740 C   0  0  0  0  0  0  0  0  0  0  0  0
    3.9670    0.9676    1.2515 C   0  0  0  0  0  0  0  0  0  0  0  0
    4.5125    1.0159    2.2066 H   0  0  0  0  0  0  0  0  0  0  0  0
    4.6543    1.1196    0.0397 C   0  0  0  0  0  0  0  0  0  0  0  0
    5.7393    1.3025    0.0430 H   0  0  0  0  0  0  0  0  0  0  0  0
    3.9667    1.0134   -1.1769 C   0  0  0  0  0  0  0  0  0  0  0  0
    4.5115    1.0993   -2.1299 H   0  0  0  0  0  0  0  0  0  0  0  0
    2.5812    0.7743   -1.2076 C   0  0  0  0  0  0  0  0  0  0  0  0
    1.8373    0.4703    2.5558 C   0  0  0  0  0  0  0  0  0  0  0  0
    1.4360   -0.5664    2.5471 H   0  0  0  0  0  0  0  0  0  0  0  0
    0.9686    1.1478    2.6920 H   0  0  0  0  0  0  0  0  0  0  0  0
    2.5004    0.5828    3.4337 H   0  0  0  0  0  0  0  0  0  0  0  0
    1.8320    0.5773   -2.4970 C   0  0  0  0  0  0  0  0  0  0  0  0
    0.9803    1.2814   -2.6063 H   0  0  0  0  0  0  0  0  0  0  0  0
    1.4049   -0.4486   -2.5255 H   0  0  0  0  0  0  0  0  0  0  0  0
    2.4974    0.7060   -3.3710 H   0  0  0  0  0  0  0  0  0  0  0  0
  1  3  1  0  0  0  0
  1 20  1  0  0  0  0
  2 21  1  0  0  0  0
  2 19  1  0  0  0  0
  3  5  2  0  0  0  0
  4  3  1  0  0  0  0
  5  7  1  0  0  0  0
  6  5  1  0  0  0  0
  7  9  2  0  0  0  0
  7  8  1  0  0  0  0
  9 10  1  0  0  0  0
 10 11  1  0  0  0  0
 12 10  1  0  0  0  0
 13 14  1  0  0  0  0
 13 16  1  0  0  0  0
 13 10  1  0  0  0  0
 15 13  1  0  0  0  0
 16 18  1  0  0  0  0
 17 16  1  0  0  0  0
 19 20  2  0  0  0  0
 19 16  1  0  0  0  0
 20  9  1  0  0  0  0
 21 22  1  0  0  0  0
 22 30  1  0  0  0  0
 23 22  2  0  0  0  0
 23 24  1  0  0  0  0
 25 26  1  0  0  0  0
 25 23  1  0  0  0  0
 27 25  2  0  0  0  0
 28 27  1  0  0  0  0
 29 27  1  0  0  0  0
 29 21  2  0  0  0  0
 30 32  1  0  0  0  0
 30 33  1  0  0  0  0
 31 30  1  0  0  0  0
 34 29  1  0  0  0  0
 35 34  1  0  0  0  0
 36 34  1  0  0  0  0
 37 34  1  0  0  0  0
M  END
