7,8
 OpenBabel05122313053D

 32 35  0  0  0  0  0  0  0  0999 V2000
   -6.2507   -2.0087   -0.9998 O   0  0  0  0  0  0  0  0  0  0  0  0
   -7.0620   -2.5252   -0.7941 H   0  0  0  0  0  0  0  0  0  0  0  0
   -6.3149   -1.7212    1.2553 O   0  0  0  0  0  0  0  0  0  0  0  0
   -6.9166    0.9229   -0.2317 O   0  0  0  0  0  0  0  0  0  0  0  0
   -5.6961    2.8160    0.0220 O   0  0  0  0  0  0  0  0  0  0  0  0
   -6.6032    3.1872   -0.0448 H   0  0  0  0  0  0  0  0  0  0  0  0
    1.4402   -1.3237   -0.0070 N   0  0  0  0  0  2  0  0  0  0  0  0
    1.4546    1.3182    0.0097 N   0  0  0  0  0  2  0  0  0  0  0  0
   -3.4180   -1.3860    0.0106 N   0  0  0  0  0  0  0  0  0  0  0  0
   -3.4005    1.4210   -0.0103 N   0  0  0  0  0  0  0  0  0  0  0  0
    1.4993   -2.6718   -0.0133 C   0  0  0  0  0  0  0  0  0  0  0  0
    2.5225   -3.0842   -0.0169 H   0  0  0  0  0  0  0  0  0  0  0  0
    0.3350   -3.4601   -0.0144 C   0  0  0  0  0  0  0  0  0  0  0  0
    0.4393   -4.5543   -0.0184 H   0  0  0  0  0  0  0  0  0  0  0  0
   -0.9262   -2.8592   -0.0093 C   0  0  0  0  0  0  0  0  0  0  0  0
   -1.8590   -3.4400   -0.0081 H   0  0  0  0  0  0  0  0  0  0  0  0
   -1.0001   -1.4488   -0.0042 C   0  0  0  0  0  0  0  0  0  0  0  0
    0.2095   -0.7153   -0.0024 C   0  0  0  0  0  0  0  0  0  0  0  0
    0.2178    0.7222    0.0066 C   0  0  0  0  0  0  0  0  0  0  0  0
   -0.9839    1.4665    0.0108 C   0  0  0  0  0  0  0  0  0  0  0  0
   -0.8978    2.8756    0.0184 C   0  0  0  0  0  0  0  0  0  0  0  0
   -1.8257    3.4647    0.0206 H   0  0  0  0  0  0  0  0  0  0  0  0
    0.3696    3.4643    0.0226 C   0  0  0  0  0  0  0  0  0  0  0  0
    0.4843    4.5575    0.0291 H   0  0  0  0  0  0  0  0  0  0  0  0
    1.5267    2.6655    0.0181 C   0  0  0  0  0  0  0  0  0  0  0  0
    2.5536    3.0685    0.0203 H   0  0  0  0  0  0  0  0  0  0  0  0
   -2.2536   -0.7025    0.0031 C   0  0  0  0  0  0  0  0  0  0  0  0
   -2.2447    0.7301    0.0041 C   0  0  0  0  0  0  0  0  0  0  0  0
   -4.5419    0.7375   -0.0118 C   0  0  0  0  0  0  0  0  0  0  0  0
   -4.5533   -0.6910    0.0123 C   0  0  0  0  0  0  0  0  0  0  0  0
   -5.8232   -1.5038    0.1683 C   0  0  0  0  0  0  0  0  0  0  0  0
   -5.8440    1.4842   -0.0844 C   0  0  0  0  0  0  0  0  0  0  0  0
  1  2  1  0  0  0  0
  1 31  1  0  0  0  0
  4 32  2  0  0  0  0
  6  5  1  0  0  0  0
  7 18  1  0  0  0  0
  8 25  1  0  0  0  0
  9 30  1  0  0  0  0
 10 28  2  0  0  0  0
 11  7  1  0  0  0  0
 12 11  1  0  0  0  0
 13 11  2  0  0  0  0
 13 15  1  0  0  0  0
 14 13  1  0  0  0  0
 15 16  1  0  0  0  0
 15 17  2  0  0  0  0
 17 18  1  0  0  0  0
 17 27  1  0  0  0  0
 18 19  2  0  0  0  0
 19  8  1  0  0  0  0
 19 20  1  0  0  0  0
 20 21  2  0  0  0  0
 21 22  1  0  0  0  0
 21 23  1  0  0  0  0
 23 24  1  0  0  0  0
 25 26  1  0  0  0  0
 25 23  2  0  0  0  0
 27 28  1  0  0  0  0
 27  9  2  0  0  0  0
 28 20  1  0  0  0  0
 29 10  1  0  0  0  0
 29 30  2  0  0  0  0
 30 31  1  0  0  0  0
 31  3  2  0  0  0  0
 32 29  1  0  0  0  0
 32  5  1  0  0  0  0
M  END
