6,9
 OpenBabel05122313053D

 31 32  0  0  0  0  0  0  0  0999 V2000
    2.1084   -2.5536    0.8160 S   0  0  0  0  0  0  0  0  0  0  0  0
   -0.5601   -3.1840   -1.0200 S   0  0  0  0  0  0  0  0  0  0  0  0
   -1.8083   -0.5326   -1.7823 O   0  0  0  0  0  0  0  0  0  0  0  0
   -2.0655    0.5235   -1.9541 H   0  0  0  0  0  0  0  0  0  0  0  0
    2.1731    0.4689    1.2989 O   0  0  0  0  0  1  0  0  0  0  0  0
   -0.7531   -0.4597   -0.9853 N   0  0  0  0  0  2  0  0  0  0  0  0
    4.8191   -2.5339    1.0453 C   0  0  0  0  0  0  0  0  0  0  0  0
    4.6365   -3.2746    1.8393 H   0  0  0  0  0  0  0  0  0  0  0  0
    1.2198    0.0252    0.5572 N   0  0  0  0  0  2  0  0  0  0  0  0
    1.0528   -1.2595    0.2648 C   0  0  0  0  0  0  0  0  0  0  0  0
    5.2693   -0.6175   -0.9494 C   0  0  0  0  0  0  0  0  0  0  0  0
    5.4352    0.1442   -1.7265 H   0  0  0  0  0  0  0  0  0  0  0  0
   -3.2289   -3.6683   -1.5348 C   0  0  0  0  0  0  0  0  0  0  0  0
   -2.8759   -4.0173   -2.5164 H   0  0  0  0  0  0  0  0  0  0  0  0
   -2.7478   -2.6695    0.6381 C   0  0  0  0  0  0  0  0  0  0  0  0
   -2.0184   -2.2772    1.3625 H   0  0  0  0  0  0  0  0  0  0  0  0
    3.7319   -1.9466    0.3684 C   0  0  0  0  0  0  0  0  0  0  0  0
   -0.1123   -1.5336   -0.5781 C   0  0  0  0  0  0  0  0  0  0  0  0
    3.9530   -0.9837   -0.6345 C   0  0  0  0  0  0  0  0  0  0  0  0
    3.1132   -0.5082   -1.1661 H   0  0  0  0  0  0  0  0  0  0  0  0
    6.1293   -2.1680    0.7064 C   0  0  0  0  0  0  0  0  0  0  0  0
    6.9750   -2.6340    1.2350 H   0  0  0  0  0  0  0  0  0  0  0  0
   -2.3061   -3.1468   -0.6110 C   0  0  0  0  0  0  0  0  0  0  0  0
   -4.1138   -2.7019    0.9496 C   0  0  0  0  0  0  0  0  0  0  0  0
   -4.4548   -2.3259    1.9267 H   0  0  0  0  0  0  0  0  0  0  0  0
   -4.5916   -3.7169   -1.2044 C   0  0  0  0  0  0  0  0  0  0  0  0
   -5.3113   -4.1251   -1.9302 H   0  0  0  0  0  0  0  0  0  0  0  0
    6.3603   -1.2059   -0.2897 C   0  0  0  0  0  0  0  0  0  0  0  0
    7.3888   -0.9121   -0.5479 H   0  0  0  0  0  0  0  0  0  0  0  0
   -5.0395   -3.2294    0.0334 C   0  0  0  0  0  0  0  0  0  0  0  0
   -6.1101   -3.2615    0.2852 H   0  0  0  0  0  0  0  0  0  0  0  0
  2 23  1  0  0  0  0
  2 18  1  0  0  0  0
  3  6  1  0  0  0  0
  4  3  1  0  0  0  0
  6 18  1  0  0  0  0
  7  8  1  0  0  0  0
  9  5  1  0  0  0  0
 10  9  1  0  0  0  0
 10  1  1  0  0  0  0
 11 19  2  0  0  0  0
 11 28  1  0  0  0  0
 12 11  1  0  0  0  0
 13 26  2  0  0  0  0
 13 23  1  0  0  0  0
 14 13  1  0  0  0  0
 15 24  1  0  0  0  0
 15 16  1  0  0  0  0
 17  1  1  0  0  0  0
 17  7  2  0  0  0  0
 18 10  2  0  0  0  0
 19 17  1  0  0  0  0
 20 19  1  0  0  0  0
 21  7  1  0  0  0  0
 21 22  1  0  0  0  0
 23 15  2  0  0  0  0
 24 25  1  0  0  0  0
 26 30  1  0  0  0  0
 27 26  1  0  0  0  0
 28 21  2  0  0  0  0
 29 28  1  0  0  0  0
 30 31  1  0  0  0  0
 30 24  2  0  0  0  0
M  END
