5,7
 OpenBabel05122313053D

 22 21  0  0  0  0  0  0  0  0999 V2000
    3.2965    2.3276    0.4010 S   0  0  0  0  0  0  0  0  0  0  0  0
    3.5577    0.3084   -2.1740 S   0  0  0  0  0  0  0  0  0  0  0  0
    0.9291   -1.2798   -2.3592 O   0  0  0  0  0  1  0  0  0  0  0  0
    0.5868    1.7551    1.7523 O   0  0  0  0  0  1  0  0  0  0  0  0
    0.8520    1.0924    0.6525 N   0  0  0  0  0  2  0  0  0  0  0  0
    1.9851    1.2299   -0.0228 C   0  0  0  0  0  0  0  0  0  0  0  0
    1.0373   -0.4326   -1.3730 N   0  0  0  0  0  2  0  0  0  0  0  0
    2.1066    0.3263   -1.1715 C   0  0  0  0  0  0  0  0  0  0  0  0
    2.3747    3.8986    0.6949 C   0  0  0  0  0  0  0  0  0  0  0  0
    1.9470    4.2221   -0.2759 H   0  0  0  0  0  0  0  0  0  0  0  0
    1.5438    3.6690    1.3907 H   0  0  0  0  0  0  0  0  0  0  0  0
    3.3361    4.9363    1.2598 C   0  0  0  0  0  0  0  0  0  0  0  0
    2.8054    5.8969    1.4182 H   0  0  0  0  0  0  0  0  0  0  0  0
    4.1863    5.1292    0.5737 H   0  0  0  0  0  0  0  0  0  0  0  0
    3.7501    4.6110    2.2354 H   0  0  0  0  0  0  0  0  0  0  0  0
    3.9178   -1.4973   -2.2036 C   0  0  0  0  0  0  0  0  0  0  0  0
    3.0266   -2.0026   -2.6254 H   0  0  0  0  0  0  0  0  0  0  0  0
    4.7475   -1.5782   -2.9351 H   0  0  0  0  0  0  0  0  0  0  0  0
    4.3036   -2.0582   -0.8411 C   0  0  0  0  0  0  0  0  0  0  0  0
    4.5251   -3.1438   -0.9173 H   0  0  0  0  0  0  0  0  0  0  0  0
    3.4752   -1.9377   -0.1141 H   0  0  0  0  0  0  0  0  0  0  0  0
    5.1952   -1.5466   -0.4269 H   0  0  0  0  0  0  0  0  0  0  0  0
  1  9  1  0  0  0  0
  2  8  1  0  0  0  0
  3  7  1  0  0  0  0
  5  4  1  0  0  0  0
  6  1  1  0  0  0  0
  6  5  1  0  0  0  0
  7  8  1  0  0  0  0
  8  6  2  0  0  0  0
  9 12  1  0  0  0  0
  9 11  1  0  0  0  0
 10  9  1  0  0  0  0
 12 13  1  0  0  0  0
 12 15  1  0  0  0  0
 14 12  1  0  0  0  0
 16  2  1  0  0  0  0
 16 19  1  0  0  0  0
 17 16  1  0  0  0  0
 18 16  1  0  0  0  0
 19 22  1  0  0  0  0
 19 21  1  0  0  0  0
 20 19  1  0  0  0  0
M  END
