3,4
 OpenBabel05122313053D

 24 26  0  0  0  0  0  0  0  0999 V2000
   -4.2511   -3.2019    0.0683 Cl  0  0  0  0  0  0  0  0  0  0  0  0
   -5.1666    2.1552   -0.0270 Cl  0  0  0  0  0  0  0  0  0  0  0  0
    1.8394    1.8073    0.0207 N   0  0  0  0  0  2  0  0  0  0  0  0
   -0.4497    0.4147    0.0158 N   0  0  0  0  0  0  0  0  0  0  0  0
    3.0332    2.4369    0.0232 C   0  0  0  0  0  3  0  0  0  0  0  0
    3.9249    1.7923    0.0390 H   0  0  0  0  0  0  0  0  0  0  0  0
    3.1617    3.8262    0.0044 C   0  0  0  0  0  0  0  0  0  0  0  0
    4.1605    4.2836    0.0069 H   0  0  0  0  0  0  0  0  0  0  0  0
    1.9895    4.6069   -0.0182 C   0  0  0  0  0  0  0  0  0  0  0  0
    2.0487    5.7054   -0.0334 H   0  0  0  0  0  0  0  0  0  0  0  0
    0.7509    3.9696   -0.0215 C   0  0  0  0  0  0  0  0  0  0  0  0
   -0.1848    4.5445   -0.0398 H   0  0  0  0  0  0  0  0  0  0  0  0
    0.6874    2.5569   -0.0018 C   0  0  0  0  0  0  0  0  0  0  0  0
   -0.5428    1.8034   -0.0044 C   0  0  0  0  0  0  0  0  0  0  0  0
   -1.8756    2.2395   -0.0171 C   0  0  0  0  0  0  0  0  0  0  0  0
   -2.2483    3.2689   -0.0314 H   0  0  0  0  0  0  0  0  0  0  0  0
   -2.6624    1.0586   -0.0027 C   0  0  0  0  0  0  0  0  0  0  0  0
   -1.7413   -0.0621    0.0191 C   0  0  0  0  0  0  0  0  0  0  0  0
   -2.2302   -1.3882    0.0422 C   0  0  0  0  0  0  0  0  0  0  0  0
   -1.5714   -2.2624    0.0674 H   0  0  0  0  0  0  0  0  0  0  0  0
   -3.6143   -1.5718    0.0394 C   0  0  0  0  0  0  0  0  0  0  0  0
   -4.5409   -0.4973    0.0162 C   0  0  0  0  0  0  0  0  0  0  0  0
   -5.6197   -0.6959    0.0158 H   0  0  0  0  0  0  0  0  0  0  0  0
   -4.0548    0.8078   -0.0031 C   0  0  0  0  0  3  0  0  0  0  0  0
  2 24  1  0  0  0  0
  3  5  1  0  0  0  0
  4 18  1  0  0  0  0
  5  6  1  0  0  0  0
  7  8  1  0  0  0  0
  7  5  1  0  0  0  0
  9  7  2  0  0  0  0
 10  9  1  0  0  0  0
 11  9  1  0  0  0  0
 11 13  2  0  0  0  0
 12 11  1  0  0  0  0
 13  3  1  0  0  0  0
 14 13  1  0  0  0  0
 14  4  2  0  0  0  0
 15 14  1  0  0  0  0
 15 17  2  0  0  0  0
 16 15  1  0  0  0  0
 17 18  1  0  0  0  0
 18 19  2  0  0  0  0
 19 20  1  0  0  0  0
 21 19  1  0  0  0  0
 21  1  1  0  0  0  0
 22 21  2  0  0  0  0
 23 22  1  0  0  0  0
 24 17  1  0  0  0  0
 24 22  1  0  0  0  0
M  END
