2,5
 OpenBabel05122313053D

 53 56  0  0  1  0  0  0  0  0999 V2000
    0.3712    1.7181    0.9507 Si  0  0  0  0  0  0  0  0  0  0  0  0
    1.4448   -1.1148    0.8083 N   0  0  0  0  0  2  0  0  0  0  0  0
    1.8531    1.0872    0.1161 N   0  0  0  0  0  0  0  0  0  0  0  0
    3.4562   -0.6139   -0.3364 N   0  0  1  0  0  0  0  0  0  0  0  0
   -1.9813   -0.0851    1.4355 N   0  0  0  0  0  2  0  0  0  0  0  0
   -1.0556    1.3908   -0.0993 N   0  0  0  0  0  0  0  0  0  0  0  0
   -3.2318    0.5056   -0.5162 N   0  0  2  0  0  0  0  0  0  0  0  0
    2.2417   -0.2457    0.2133 C   0  0  2  0  0  3  0  0  0  0  0  0
    1.9725   -2.4664    0.9779 C   0  0  0  0  0  0  0  0  0  0  0  0
    1.1462   -3.1299    1.2981 H   0  0  0  0  0  0  0  0  0  0  0  0
    2.7423   -2.4905    1.7879 H   0  0  0  0  0  0  0  0  0  0  0  0
    2.5797   -2.9327   -0.3432 C   0  0  0  0  0  0  0  0  0  0  0  0
    2.9278   -3.9844   -0.3060 H   0  0  0  0  0  0  0  0  0  0  0  0
    1.7858   -2.8544   -1.1167 H   0  0  0  0  0  0  0  0  0  0  0  0
    3.7529   -2.0135   -0.6551 C   0  0  0  0  0  0  0  0  0  0  0  0
    4.6547   -2.3234   -0.0760 H   0  0  0  0  0  0  0  0  0  0  0  0
    4.0345   -2.0734   -1.7320 H   0  0  0  0  0  0  0  0  0  0  0  0
    4.5016    0.3169   -0.7422 C   0  0  0  0  0  0  0  0  0  0  0  0
    4.6811    0.1890   -1.8367 H   0  0  0  0  0  0  0  0  0  0  0  0
    5.4569    0.0383   -0.2384 H   0  0  0  0  0  0  0  0  0  0  0  0
    4.1242    1.7627   -0.4533 C   0  0  0  0  0  0  0  0  0  0  0  0
    4.2839    2.0121    0.6164 H   0  0  0  0  0  0  0  0  0  0  0  0
    4.7580    2.4424   -1.0576 H   0  0  0  0  0  0  0  0  0  0  0  0
    2.6439    1.9327   -0.7786 C   0  0  0  0  0  0  0  0  0  0  0  0
    2.3307    2.9833   -0.6502 H   0  0  0  0  0  0  0  0  0  0  0  0
    2.4589    1.6667   -1.8474 H   0  0  0  0  0  0  0  0  0  0  0  0
   -2.1145    0.5548    0.2803 C   0  0  2  0  0  3  0  0  0  0  0  0
   -3.1441   -0.8093    1.9182 C   0  0  0  0  0  0  0  0  0  0  0  0
   -3.8588   -0.1051    2.4118 H   0  0  0  0  0  0  0  0  0  0  0  0
   -2.8153   -1.5203    2.7034 H   0  0  0  0  0  0  0  0  0  0  0  0
   -3.8425   -1.5402    0.7719 C   0  0  0  0  0  0  0  0  0  0  0  0
   -3.1205   -2.2501    0.3151 H   0  0  0  0  0  0  0  0  0  0  0  0
   -4.7317   -2.1073    1.1143 H   0  0  0  0  0  0  0  0  0  0  0  0
   -4.2566   -0.5239   -0.2853 C   0  0  0  0  0  0  0  0  0  0  0  0
   -4.4327   -1.0437   -1.2514 H   0  0  0  0  0  0  0  0  0  0  0  0
   -5.2093   -0.0170   -0.0048 H   0  0  0  0  0  0  0  0  0  0  0  0
   -3.2637    1.0525   -1.8713 C   0  0  0  0  0  0  0  0  0  0  0  0
   -4.2993    1.3993   -2.0813 H   0  0  0  0  0  0  0  0  0  0  0  0
   -3.0311    0.2230   -2.5799 H   0  0  0  0  0  0  0  0  0  0  0  0
   -2.2603    2.1781   -2.0639 C   0  0  0  0  0  0  0  0  0  0  0  0
   -2.5794    3.0921   -1.5195 H   0  0  0  0  0  0  0  0  0  0  0  0
   -2.1909    2.4274   -3.1419 H   0  0  0  0  0  0  0  0  0  0  0  0
   -0.9155    1.7083   -1.5243 C   0  0  0  0  0  0  0  0  0  0  0  0
   -0.5741    0.8019   -2.0788 H   0  0  0  0  0  0  0  0  0  0  0  0
   -0.1451    2.4960   -1.6411 H   0  0  0  0  0  0  0  0  0  0  0  0
    0.3286    1.2385    2.7573 C   0  0  0  0  0  0  0  0  0  0  0  0
   -0.6068    1.6064    3.2194 H   0  0  0  0  0  0  0  0  0  0  0  0
    1.2001    1.7116    3.2582 H   0  0  0  0  0  0  0  0  0  0  0  0
    0.3706    0.1428    2.8717 H   0  0  0  0  0  0  0  0  0  0  0  0
    0.5382    3.6039    0.8955 C   0  0  0  0  0  0  0  0  0  0  0  0
   -0.2867    4.0132    1.5150 H   0  0  0  0  0  0  0  0  0  0  0  0
    0.4440    4.0588   -0.1103 H   0  0  0  0  0  0  0  0  0  0  0  0
    1.4920    3.9476    1.3464 H   0  0  0  0  0  0  0  0  0  0  0  0
  1 46  1  0  0  0  0
  2  9  1  0  0  0  0
  3  8  1  0  0  0  0
  3  1  1  0  0  0  0
  4 18  1  6  0  0  0
  4  8  1  0  0  0  0
  5 28  1  0  0  0  0
  6 27  1  0  0  0  0
  6  1  1  0  0  0  0
  7 37  1  6  0  0  0
  7 34  1  0  0  0  0
  7 27  1  0  0  0  0
  8  2  1  6  0  0  0
  9 10  1  0  0  0  0
  9 11  1  0  0  0  0
 12 13  1  0  0  0  0
 12  9  1  0  0  0  0
 14 12  1  0  0  0  0
 15 12  1  0  0  0  0
 15  4  1  0  0  0  0
 15 16  1  0  0  0  0
 17 15  1  0  0  0  0
 18 21  1  0  0  0  0
 18 20  1  0  0  0  0
 19 18  1  0  0  0  0
 21 22  1  0  0  0  0
 23 21  1  0  0  0  0
 24 25  1  0  0  0  0
 24 21  1  0  0  0  0
 24  3  1  0  0  0  0
 26 24  1  0  0  0  0
 27  5  1  1  0  0  0
 28 29  1  0  0  0  0
 28 30  1  0  0  0  0
 31 33  1  0  0  0  0
 31 28  1  0  0  0  0
 32 31  1  0  0  0  0
 34 36  1  0  0  0  0
 34 31  1  0  0  0  0
 35 34  1  0  0  0  0
 38 37  1  0  0  0  0
 39 37  1  0  0  0  0
 40 37  1  0  0  0  0
 40 43  1  0  0  0  0
 40 41  1  0  0  0  0
 42 40  1  0  0  0  0
 43  6  1  0  0  0  0
 44 43  1  0  0  0  0
 45 43  1  0  0  0  0
 46 49  1  0  0  0  0
 46 47  1  0  0  0  0
 46 48  1  0  0  0  0
 50  1  1  0  0  0  0
 50 53  1  0  0  0  0
 50 51  1  0  0  0  0
 52 50  1  0  0  0  0
M  END
