1,4
 OpenBabel05122313053D

 60 61  0  0  0  0  0  0  0  0999 V2000
   -1.5570   -0.0516   -0.2967 N   0  0  0  0  0  2  0  0  0  0  0  0
   -3.2507   -1.6230    0.1591 N   0  0  0  0  0  0  0  0  0  0  0  0
   -3.6861    0.6477    0.4776 N   0  0  0  0  0  0  0  0  0  0  0  0
    1.5570   -0.0517    0.2967 N   0  0  0  0  0  2  0  0  0  0  0  0
    3.2506   -1.6231   -0.1592 N   0  0  0  0  0  0  0  0  0  0  0  0
    3.6861    0.6476   -0.4776 N   0  0  0  0  0  0  0  0  0  0  0  0
   -1.3043    1.1070   -1.0591 C   0  0  0  0  0  0  0  0  0  0  0  0
   -2.0042    1.2847   -2.2756 C   0  0  0  0  0  0  0  0  0  0  0  0
   -2.7225    0.5066   -2.5749 H   0  0  0  0  0  0  0  0  0  0  0  0
   -1.7821    2.3967   -3.0935 C   0  0  0  0  0  0  0  0  0  0  0  0
   -2.3366    2.5010   -4.0386 H   0  0  0  0  0  0  0  0  0  0  0  0
   -0.8393    3.3635   -2.7103 C   0  0  0  0  0  0  0  0  0  0  0  0
   -0.6446    4.2399   -3.3461 H   0  0  0  0  0  0  0  0  0  0  0  0
   -0.1450    3.2010   -1.5051 C   0  0  0  0  0  0  0  0  0  0  0  0
    0.5866    3.9610   -1.1893 H   0  0  0  0  0  0  0  0  0  0  0  0
   -0.3515    2.0863   -0.6588 C   0  0  0  0  0  0  0  0  0  0  0  0
    0.3516    2.0862    0.6589 C   0  0  0  0  0  0  0  0  0  0  0  0
    0.1452    3.2010    1.5051 C   0  0  0  0  0  0  0  0  0  0  0  0
   -0.5865    3.9610    1.1893 H   0  0  0  0  0  0  0  0  0  0  0  0
    0.8395    3.3635    2.7103 C   0  0  0  0  0  0  0  0  0  0  0  0
    0.6448    4.2400    3.3460 H   0  0  0  0  0  0  0  0  0  0  0  0
    1.7822    2.3967    3.0935 C   0  0  0  0  0  0  0  0  0  0  0  0
    2.3367    2.5010    4.0386 H   0  0  0  0  0  0  0  0  0  0  0  0
    2.0043    1.2847    2.2756 C   0  0  0  0  0  0  0  0  0  0  0  0
    2.7226    0.5065    2.5750 H   0  0  0  0  0  0  0  0  0  0  0  0
    1.3044    1.1070    1.0592 C   0  0  0  0  0  0  0  0  0  0  0  0
   -2.7983   -0.3365    0.0932 C   0  0  0  0  0  3  0  0  0  0  0  0
   -2.7197   -2.6700   -0.7028 C   0  0  0  0  0  0  0  0  0  0  0  0
   -2.1642   -2.2325   -1.5518 H   0  0  0  0  0  0  0  0  0  0  0  0
   -3.5635   -3.2827   -1.0876 H   0  0  0  0  0  0  0  0  0  0  0  0
   -2.0180   -3.3257   -0.1443 H   0  0  0  0  0  0  0  0  0  0  0  0
   -4.0089   -2.1006    1.3077 C   0  0  0  0  0  0  0  0  0  0  0  0
   -4.2499   -1.2594    1.9809 H   0  0  0  0  0  0  0  0  0  0  0  0
   -3.3751   -2.8189    1.8716 H   0  0  0  0  0  0  0  0  0  0  0  0
   -4.9510   -2.5991    0.9932 H   0  0  0  0  0  0  0  0  0  0  0  0
   -5.1014    0.5714    0.1658 C   0  0  0  0  0  0  0  0  0  0  0  0
   -5.3032   -0.3355   -0.4320 H   0  0  0  0  0  0  0  0  0  0  0  0
   -5.4061    1.4605   -0.4303 H   0  0  0  0  0  0  0  0  0  0  0  0
   -5.7340    0.5395    1.0811 H   0  0  0  0  0  0  0  0  0  0  0  0
   -3.2216    1.8899    1.0663 C   0  0  0  0  0  0  0  0  0  0  0  0
   -2.2132    1.7461    1.4940 H   0  0  0  0  0  0  0  0  0  0  0  0
   -3.9127    2.1867    1.8837 H   0  0  0  0  0  0  0  0  0  0  0  0
   -3.1736    2.7205    0.3266 H   0  0  0  0  0  0  0  0  0  0  0  0
    2.7983   -0.3365   -0.0932 C   0  0  0  0  0  3  0  0  0  0  0  0
    2.7197   -2.6701    0.7029 C   0  0  0  0  0  0  0  0  0  0  0  0
    2.1644   -2.2325    1.5520 H   0  0  0  0  0  0  0  0  0  0  0  0
    3.5636   -3.2828    1.0875 H   0  0  0  0  0  0  0  0  0  0  0  0
    2.0178   -3.3256    0.1445 H   0  0  0  0  0  0  0  0  0  0  0  0
    4.0085   -2.1008   -1.3079 C   0  0  0  0  0  0  0  0  0  0  0  0
    4.2494   -1.2597   -1.9812 H   0  0  0  0  0  0  0  0  0  0  0  0
    3.3746   -2.8191   -1.8716 H   0  0  0  0  0  0  0  0  0  0  0  0
    4.9507   -2.5994   -0.9936 H   0  0  0  0  0  0  0  0  0  0  0  0
    5.1013    0.5714   -0.1659 C   0  0  0  0  0  0  0  0  0  0  0  0
    5.3032   -0.3354    0.4320 H   0  0  0  0  0  0  0  0  0  0  0  0
    5.4061    1.4606    0.4302 H   0  0  0  0  0  0  0  0  0  0  0  0
    5.7340    0.5394   -1.0811 H   0  0  0  0  0  0  0  0  0  0  0  0
    3.2216    1.8898   -1.0664 C   0  0  0  0  0  0  0  0  0  0  0  0
    2.2132    1.7459   -1.4941 H   0  0  0  0  0  0  0  0  0  0  0  0
    3.9126    2.1866   -1.8839 H   0  0  0  0  0  0  0  0  0  0  0  0
    3.1735    2.7204   -0.3267 H   0  0  0  0  0  0  0  0  0  0  0  0
  1 27  1  0  0  0  0
  2 32  1  0  0  0  0
  3 40  1  0  0  0  0
  4 26  1  0  0  0  0
  5 44  1  0  0  0  0
  5 45  1  0  0  0  0
  6 53  1  0  0  0  0
  6 44  1  0  0  0  0
  7 16  1  0  0  0  0
  7  1  1  0  0  0  0
  8  7  2  0  0  0  0
  9  8  1  0  0  0  0
 10 12  2  0  0  0  0
 10  8  1  0  0  0  0
 11 10  1  0  0  0  0
 12 14  1  0  0  0  0
 13 12  1  0  0  0  0
 14 15  1  0  0  0  0
 14 16  2  0  0  0  0
 16 17  1  0  0  0  0
 17 26  2  0  0  0  0
 17 18  1  0  0  0  0
 18 20  2  0  0  0  0
 19 18  1  0  0  0  0
 20 22  1  0  0  0  0
 20 21  1  0  0  0  0
 22 23  1  0  0  0  0
 24 25  1  0  0  0  0
 24 22  2  0  0  0  0
 26 24  1  0  0  0  0
 27  2  1  0  0  0  0
 27  3  1  0  0  0  0
 28 31  1  0  0  0  0
 28  2  1  0  0  0  0
 29 28  1  0  0  0  0
 30 28  1  0  0  0  0
 32 34  1  0  0  0  0
 32 33  1  0  0  0  0
 35 32  1  0  0  0  0
 36  3  1  0  0  0  0
 36 39  1  0  0  0  0
 37 36  1  0  0  0  0
 38 36  1  0  0  0  0
 40 41  1  0  0  0  0
 40 42  1  0  0  0  0
 43 40  1  0  0  0  0
 44  4  1  0  0  0  0
 45 47  1  0  0  0  0
 45 46  1  0  0  0  0
 48 45  1  0  0  0  0
 49 52  1  0  0  0  0
 49  5  1  0  0  0  0
 50 49  1  0  0  0  0
 51 49  1  0  0  0  0
 53 55  1  0  0  0  0
 53 54  1  0  0  0  0
 56 53  1  0  0  0  0
 57  6  1  0  0  0  0
 57 60  1  0  0  0  0
 58 57  1  0  0  0  0
 59 57  1  0  0  0  0
M  END
