9,10
 OpenBabel05122313053D

 68 70  0  0  0  0  0  0  0  0999 V2000
   -0.1292    0.1335    0.0011 P   0  0  0  0  0  4  0  0  0  0  0  0
    4.1703   -6.4707    0.0096 O   0  0  0  0  0  0  0  0  0  0  0  0
    6.1185    4.9220   -0.0034 O   0  0  0  0  0  0  0  0  0  0  0  0
    0.5961   -1.3573    0.0038 N   0  0  0  0  0  0  0  0  0  0  0  0
    1.0522    1.2867    0.0008 N   0  0  0  0  0  0  0  0  0  0  0  0
    2.8052   -0.3759    0.0017 N   0  0  0  0  0  2  0  0  0  0  0  0
    3.3050    1.9083   -0.0002 N   0  0  0  0  0  0  0  0  0  0  0  0
    2.5127   -2.6958    0.0048 N   0  0  0  0  0  0  0  0  0  0  0  0
   -1.2742    0.2480   -1.2088 N   0  0  0  0  0  2  0  0  0  0  0  0
   -1.2772    0.2511    1.2079 N   0  0  0  0  0  2  0  0  0  0  0  0
   -0.2954    1.0061   -3.2228 N   0  0  0  0  0  0  0  0  0  0  0  0
   -1.8772   -0.7287   -3.2410 N   0  0  0  0  0  0  0  0  0  0  0  0
   -0.3048    1.0164    3.2223 N   0  0  0  0  0  0  0  0  0  0  0  0
   -1.8857   -0.7192    3.2415 N   0  0  0  0  0  0  0  0  0  0  0  0
    2.3191    0.8749    0.0007 C   0  0  0  0  0  0  0  0  0  0  0  0
    1.9252   -1.3964    0.0033 C   0  0  0  0  0  0  0  0  0  0  0  0
    4.6640    1.6067    0.0002 C   0  0  0  0  0  0  0  0  0  0  0  0
    4.8817    0.5322    0.0014 H   0  0  0  0  0  0  0  0  0  0  0  0
    5.6145    2.5833   -0.0007 C   0  0  0  0  0  0  0  0  0  0  0  0
    6.6790    2.3089   -0.0003 H   0  0  0  0  0  0  0  0  0  0  0  0
    5.2755    4.0177   -0.0023 C   0  0  0  0  0  0  0  0  0  0  0  0
    3.8209    4.2595   -0.0027 C   0  0  0  0  0  0  0  0  0  0  0  0
    3.4754    5.3033   -0.0039 H   0  0  0  0  0  0  0  0  0  0  0  0
    2.9118    3.2440   -0.0017 C   0  0  0  0  0  0  0  0  0  0  0  0
    1.8229    3.3834   -0.0020 H   0  0  0  0  0  0  0  0  0  0  0  0
    3.8953   -2.8615    0.0046 C   0  0  0  0  0  0  0  0  0  0  0  0
    4.4575   -1.9205    0.0031 H   0  0  0  0  0  0  0  0  0  0  0  0
    4.4688   -4.0975    0.0061 C   0  0  0  0  0  0  0  0  0  0  0  0
    5.5641   -4.1912    0.0059 H   0  0  0  0  0  0  0  0  0  0  0  0
    3.6736   -5.3385    0.0082 C   0  0  0  0  0  0  0  0  0  0  0  0
    2.2215   -5.0846    0.0082 C   0  0  0  0  0  0  0  0  0  0  0  0
    1.5499   -5.9550    0.0097 H   0  0  0  0  0  0  0  0  0  0  0  0
    1.6995   -3.8259    0.0066 C   0  0  0  0  0  0  0  0  0  0  0  0
    0.6259   -3.5981    0.0067 H   0  0  0  0  0  0  0  0  0  0  0  0
   -1.1489    0.1791    2.5440 C   0  0  0  0  0  3  0  0  0  0  0  0
   -1.1421    0.1715   -2.5442 C   0  0  0  0  0  3  0  0  0  0  0  0
   -0.0327    2.3696    2.7546 C   0  0  0  0  0  0  0  0  0  0  0  0
    1.0309    2.4944    2.4650 H   0  0  0  0  0  0  0  0  0  0  0  0
   -0.2667    3.0917    3.5665 H   0  0  0  0  0  0  0  0  0  0  0  0
   -0.6635    2.5907    1.8767 H   0  0  0  0  0  0  0  0  0  0  0  0
    0.3401    0.6290    4.4673 C   0  0  0  0  0  0  0  0  0  0  0  0
   -0.0789    1.1626    5.3484 H   0  0  0  0  0  0  0  0  0  0  0  0
    1.4221    0.8719    4.4058 H   0  0  0  0  0  0  0  0  0  0  0  0
    0.2305   -0.4590    4.6244 H   0  0  0  0  0  0  0  0  0  0  0  0
   -2.4043   -1.9132    2.5805 C   0  0  0  0  0  0  0  0  0  0  0  0
   -3.4320   -1.7202    2.2033 H   0  0  0  0  0  0  0  0  0  0  0  0
   -2.4178   -2.7438    3.3150 H   0  0  0  0  0  0  0  0  0  0  0  0
   -1.7499   -2.1814    1.7325 H   0  0  0  0  0  0  0  0  0  0  0  0
   -2.5415   -0.3719    4.4985 C   0  0  0  0  0  0  0  0  0  0  0  0
   -2.2896    0.6619    4.7899 H   0  0  0  0  0  0  0  0  0  0  0  0
   -2.2568   -1.0678    5.3153 H   0  0  0  0  0  0  0  0  0  0  0  0
   -3.6383   -0.4138    4.3345 H   0  0  0  0  0  0  0  0  0  0  0  0
   -0.0250    2.3611   -2.7596 C   0  0  0  0  0  0  0  0  0  0  0  0
   -0.6568    2.5849   -1.8831 H   0  0  0  0  0  0  0  0  0  0  0  0
   -0.2586    3.0803   -3.5741 H   0  0  0  0  0  0  0  0  0  0  0  0
    1.0382    2.4876   -2.4692 H   0  0  0  0  0  0  0  0  0  0  0  0
    0.3530    0.6141   -4.4645 C   0  0  0  0  0  0  0  0  0  0  0  0
    0.2442   -0.4746   -4.6176 H   0  0  0  0  0  0  0  0  0  0  0  0
    1.4347    0.8576   -4.4010 H   0  0  0  0  0  0  0  0  0  0  0  0
   -0.0638    1.1439   -5.3490 H   0  0  0  0  0  0  0  0  0  0  0  0
   -2.3981   -1.9206   -2.5779 C   0  0  0  0  0  0  0  0  0  0  0  0
   -1.7463   -2.1864   -1.7272 H   0  0  0  0  0  0  0  0  0  0  0  0
   -2.4095   -2.7534   -3.3099 H   0  0  0  0  0  0  0  0  0  0  0  0
   -3.4269   -1.7260   -2.2043 H   0  0  0  0  0  0  0  0  0  0  0  0
   -2.5285   -0.3853   -4.5015 C   0  0  0  0  0  0  0  0  0  0  0  0
   -2.2773    0.6484   -4.7938 H   0  0  0  0  0  0  0  0  0  0  0  0
   -3.6258   -0.4289   -4.3419 H   0  0  0  0  0  0  0  0  0  0  0  0
   -2.2393   -1.0823   -5.3158 H   0  0  0  0  0  0  0  0  0  0  0  0
  1  4  1  0  0  0  0
  1 10  1  0  0  0  0
  3 21  2  0  0  0  0
  5  1  1  0  0  0  0
  6 16  1  0  0  0  0
  7 17  1  0  0  0  0
  7 15  1  0  0  0  0
  8 33  1  0  0  0  0
  9  1  1  0  0  0  0
 10 35  1  0  0  0  0
 11 53  1  0  0  0  0
 11 36  1  0  0  0  0
 12 61  1  0  0  0  0
 12 36  1  0  0  0  0
 13 41  1  0  0  0  0
 14 49  1  0  0  0  0
 15  5  2  0  0  0  0
 15  6  1  0  0  0  0
 16  4  2  0  0  0  0
 16  8  1  0  0  0  0
 17 18  1  0  0  0  0
 19 20  1  0  0  0  0
 19 17  2  0  0  0  0
 21 19  1  0  0  0  0
 22 21  1  0  0  0  0
 22 24  2  0  0  0  0
 23 22  1  0  0  0  0
 24  7  1  0  0  0  0
 25 24  1  0  0  0  0
 26  8  1  0  0  0  0
 26 28  2  0  0  0  0
 27 26  1  0  0  0  0
 28 30  1  0  0  0  0
 29 28  1  0  0  0  0
 30 31  1  0  0  0  0
 30  2  2  0  0  0  0
 31 32  1  0  0  0  0
 33 34  1  0  0  0  0
 33 31  2  0  0  0  0
 35 13  1  0  0  0  0
 35 14  1  0  0  0  0
 36  9  1  0  0  0  0
 37 13  1  0  0  0  0
 37 39  1  0  0  0  0
 38 37  1  0  0  0  0
 40 37  1  0  0  0  0
 41 44  1  0  0  0  0
 41 42  1  0  0  0  0
 43 41  1  0  0  0  0
 45 14  1  0  0  0  0
 45 47  1  0  0  0  0
 46 45  1  0  0  0  0
 48 45  1  0  0  0  0
 49 50  1  0  0  0  0
 49 51  1  0  0  0  0
 52 49  1  0  0  0  0
 53 56  1  0  0  0  0
 53 54  1  0  0  0  0
 55 53  1  0  0  0  0
 57 59  1  0  0  0  0
 57 11  1  0  0  0  0
 58 57  1  0  0  0  0
 60 57  1  0  0  0  0
 61 64  1  0  0  0  0
 61 62  1  0  0  0  0
 63 61  1  0  0  0  0
 65 67  1  0  0  0  0
 65 12  1  0  0  0  0
 66 65  1  0  0  0  0
 68 65  1  0  0  0  0
M  END
