1,5
 OpenBabel05122313053D

 50 53  0  0  1  0  0  0  0  0999 V2000
    1.9350   -0.7960    0.5989 N   0  0  0  0  0  2  0  0  0  0  0  0
    2.1926    0.3174    1.3552 N   0  0  0  0  0  0  0  0  0  0  0  0
   -1.3278    0.0845    2.5550 N   0  0  0  0  0  0  0  0  0  0  0  0
   -2.5442    0.0909    1.9465 N   0  0  0  0  0  0  0  0  0  0  0  0
   -0.3390    0.9157    0.2434 N   0  0  0  0  0  0  0  0  0  0  0  0
   -0.3897    0.3920    1.1686 H   0  0  0  0  0  0  0  0  0  0  0  0
    2.4943   -1.8426    1.2482 C   0  0  2  0  0  3  0  0  0  0  0  0
    3.1117   -1.3855    2.4415 C   0  0  0  0  0  0  0  0  0  0  0  0
    3.6330   -1.9975    3.1836 H   0  0  0  0  0  0  0  0  0  0  0  0
    2.8998   -0.0156    2.4772 C   0  0  0  0  0  0  0  0  0  0  0  0
    3.1694    0.7505    3.2105 H   0  0  0  0  0  0  0  0  0  0  0  0
    1.8896    1.6447    0.9351 C   0  0  0  0  0  0  0  0  0  0  0  0
    2.8808    2.6279    1.0799 C   0  0  0  0  0  0  0  0  0  0  0  0
    3.8754    2.3212    1.4357 H   0  0  0  0  0  0  0  0  0  0  0  0
    2.6352    3.9748    0.7600 C   0  0  0  0  0  0  0  0  0  0  0  0
    1.3505    4.3028    0.2906 C   0  0  0  0  0  0  0  0  0  0  0  0
    1.1137    5.3494    0.0444 H   0  0  0  0  0  0  0  0  0  0  0  0
    0.3602    3.3265    0.1211 C   0  0  0  0  0  0  0  0  0  0  0  0
   -0.6342    3.6202   -0.2373 H   0  0  0  0  0  0  0  0  0  0  0  0
    0.6105    1.9790    0.4219 C   0  0  0  0  0  0  0  0  0  0  0  0
    3.7242    5.0102    0.8720 C   0  0  0  0  0  0  0  0  0  0  0  0
    3.3067    6.0207    1.0483 H   0  0  0  0  0  0  0  0  0  0  0  0
    4.3199    5.0603   -0.0647 H   0  0  0  0  0  0  0  0  0  0  0  0
    4.4290    4.7786    1.6947 H   0  0  0  0  0  0  0  0  0  0  0  0
   -1.4076   -0.8089    3.5511 C   0  0  0  0  0  0  0  0  0  0  0  0
   -2.7107   -1.3781    3.5973 C   0  0  0  0  0  0  0  0  0  0  0  0
   -3.0844   -2.1379    4.2909 H   0  0  0  0  0  0  0  0  0  0  0  0
   -3.4041   -0.7908    2.5494 C   0  0  0  0  0  0  0  0  0  0  0  0
   -4.4156   -0.9589    2.1698 H   0  0  0  0  0  0  0  0  0  0  0  0
   -2.7669    0.8429    0.7639 C   0  0  0  0  0  0  0  0  0  0  0  0
   -4.0920    1.1565    0.3996 C   0  0  0  0  0  0  0  0  0  0  0  0
   -4.9086    0.8792    1.0811 H   0  0  0  0  0  0  0  0  0  0  0  0
   -4.3993    1.8205   -0.7962 C   0  0  0  0  0  0  0  0  0  0  0  0
   -3.3311    2.1804   -1.6449 C   0  0  0  0  0  0  0  0  0  0  0  0
   -3.5358    2.6820   -2.6027 H   0  0  0  0  0  0  0  0  0  0  0  0
   -2.0129    1.8923   -1.2906 C   0  0  0  0  0  0  0  0  0  0  0  0
   -1.1893    2.1437   -1.9736 H   0  0  0  0  0  0  0  0  0  0  0  0
   -1.7012    1.2402   -0.0833 C   0  0  0  0  0  0  0  0  0  0  0  0
   -5.8250    2.1290   -1.1751 C   0  0  0  0  0  0  0  0  0  0  0  0
   -6.5332    1.8579   -0.3688 H   0  0  0  0  0  0  0  0  0  0  0  0
   -6.1220    1.5709   -2.0877 H   0  0  0  0  0  0  0  0  0  0  0  0
   -5.9585    3.2070   -1.4005 H   0  0  0  0  0  0  0  0  0  0  0  0
    2.4396   -3.2384    0.7262 C   0  0  0  0  0  0  0  0  0  0  0  0
    1.3865   -3.5310    0.5341 H   0  0  0  0  0  0  0  0  0  0  0  0
    2.8912   -3.9347    1.4566 H   0  0  0  0  0  0  0  0  0  0  0  0
    2.9896   -3.3308   -0.2313 H   0  0  0  0  0  0  0  0  0  0  0  0
   -0.2085   -1.1348    4.3809 C   0  0  0  0  0  0  0  0  0  0  0  0
    0.3604   -1.9691    3.9182 H   0  0  0  0  0  0  0  0  0  0  0  0
   -0.4955   -1.4418    5.4047 H   0  0  0  0  0  0  0  0  0  0  0  0
    0.4739   -0.2659    4.4421 H   0  0  0  0  0  0  0  0  0  0  0  0
  1  7  1  0  0  0  0
  1  2  1  0  0  0  0
  2 10  1  0  0  0  0
  3 25  2  0  0  0  0
  4 28  1  0  0  0  0
  4  3  1  0  0  0  0
  5 20  1  0  0  0  0
  5  6  1  0  0  0  0
  7 43  1  6  0  0  0
  7  8  1  0  0  0  0
  8 10  2  0  0  0  0
  8  9  1  0  0  0  0
 10 11  1  0  0  0  0
 12 13  1  0  0  0  0
 12  2  1  0  0  0  0
 13 14  1  0  0  0  0
 15 21  1  0  0  0  0
 15 13  2  0  0  0  0
 16 15  1  0  0  0  0
 17 16  1  0  0  0  0
 18 16  2  0  0  0  0
 18 20  1  0  0  0  0
 19 18  1  0  0  0  0
 20 12  2  0  0  0  0
 21 22  1  0  0  0  0
 21 24  1  0  0  0  0
 23 21  1  0  0  0  0
 25 26  1  0  0  0  0
 25 47  1  0  0  0  0
 26 27  1  0  0  0  0
 28 26  2  0  0  0  0
 29 28  1  0  0  0  0
 30  4  1  0  0  0  0
 31 30  1  0  0  0  0
 31 32  1  0  0  0  0
 33 31  2  0  0  0  0
 34 36  2  0  0  0  0
 34 33  1  0  0  0  0
 35 34  1  0  0  0  0
 36 38  1  0  0  0  0
 37 36  1  0  0  0  0
 38  5  1  0  0  0  0
 38 30  2  0  0  0  0
 39 33  1  0  0  0  0
 39 40  1  0  0  0  0
 41 39  1  0  0  0  0
 42 39  1  0  0  0  0
 43 45  1  0  0  0  0
 44 43  1  0  0  0  0
 46 43  1  0  0  0  0
 47 50  1  0  0  0  0
 47 49  1  0  0  0  0
 48 47  1  0  0  0  0
M  END
