7,8
 OpenBabel05122313053D

 41 45  0  0  1  0  0  0  0  0999 V2000
    6.0169   -3.9296    0.1266 Cl  0  0  0  0  0  0  0  0  0  0  0  0
    4.4566    1.5205   -0.1823 N   0  0  0  0  0  0  0  0  0  0  0  0
    5.4229    1.2864    0.0425 H   0  0  0  0  0  0  0  0  0  0  0  0
    1.1402   -0.7496   -1.0175 N   0  0  0  0  0  0  0  0  0  0  0  0
    0.2726   -1.2965   -1.2169 H   0  0  0  0  0  0  0  0  0  0  0  0
   -0.0673    1.2998   -1.2461 N   0  0  0  0  0  2  0  0  0  0  0  0
   -1.2518    0.6940   -1.1527 N   0  0  0  0  0  2  0  0  0  0  0  0
   -3.6193   -0.3432   -0.7429 N   0  0  0  0  0  2  0  0  0  0  0  0
    2.4458    5.1431   -0.5117 C   0  0  0  0  0  0  0  0  0  0  0  0
    1.8768    6.0788   -0.6139 H   0  0  0  0  0  0  0  0  0  0  0  0
    3.8194    5.2053   -0.1762 C   0  0  0  0  0  0  0  0  0  0  0  0
    4.2924    6.1859   -0.0196 H   0  0  0  0  0  0  0  0  0  0  0  0
    4.5940    4.0461   -0.0430 C   0  0  0  0  0  0  0  0  0  0  0  0
    5.6620    4.1009    0.2134 H   0  0  0  0  0  0  0  0  0  0  0  0
    3.9502    2.8175   -0.2517 C   0  0  0  0  0  0  0  0  0  0  0  0
    3.4638    0.6154   -0.4550 C   0  0  0  0  0  0  0  0  0  0  0  0
    3.5192   -0.8191   -0.4573 C   0  0  0  0  0  0  0  0  0  0  0  0
    4.6721   -1.5921   -0.1860 C   0  0  0  0  0  0  0  0  0  0  0  0
    5.6335   -1.1109    0.0416 H   0  0  0  0  0  0  0  0  0  0  0  0
    4.5994   -2.9860   -0.2066 C   0  0  0  0  0  0  0  0  0  0  0  0
    3.3795   -3.6419   -0.4969 C   0  0  0  0  0  0  0  0  0  0  0  0
    3.3472   -4.7400   -0.5097 H   0  0  0  0  0  0  0  0  0  0  0  0
    2.2349   -2.8964   -0.7670 C   0  0  0  0  0  0  0  0  0  0  0  0
    1.2802   -3.3940   -0.9940 H   0  0  0  0  0  0  0  0  0  0  0  0
    2.2862   -1.4831   -0.7525 C   0  0  1  0  0  3  0  0  0  0  0  0
    1.0583    0.6187   -0.9959 C   0  0  0  0  0  0  0  0  0  0  0  0
   -2.2061    1.0840   -1.9881 C   0  0  0  0  0  0  0  0  0  0  0  0
   -1.9681    1.8023   -2.7865 H   0  0  0  0  0  0  0  0  0  0  0  0
   -3.5054    0.5091   -1.8134 C   0  0  0  0  0  0  0  0  0  0  0  0
   -4.6010    0.7405   -2.6738 C   0  0  0  0  0  0  0  0  0  0  0  0
   -4.4818    1.4335   -3.5183 H   0  0  0  0  0  0  0  0  0  0  0  0
   -5.8032    0.0708   -2.4455 C   0  0  0  0  0  0  0  0  0  0  0  0
   -6.6666    0.2363   -3.1062 H   0  0  0  0  0  0  0  0  0  0  0  0
   -5.8892   -0.8310   -1.3691 C   0  0  0  0  0  0  0  0  0  0  0  0
   -6.8094   -1.3949   -1.1644 H   0  0  0  0  0  0  0  0  0  0  0  0
   -4.7739   -1.0143   -0.5476 C   0  0  0  0  0  0  0  0  0  0  0  0
   -4.7880   -1.7239    0.2906 H   0  0  0  0  0  0  0  0  0  0  0  0
    2.2690    1.3270   -0.7195 C   0  0  0  0  0  0  0  0  0  0  0  0
    2.5612    2.7341   -0.5893 C   0  0  0  0  0  0  0  0  0  0  0  0
    1.8053    3.9176   -0.7223 C   0  0  0  0  0  0  0  0  0  0  0  0
    0.7437    3.8591   -0.9993 H   0  0  0  0  0  0  0  0  0  0  0  0
  2  3  1  0  0  0  0
  4 26  1  0  0  0  0
  4 25  1  0  0  0  0
  5  4  1  0  0  0  0
  6  7  1  0  0  0  0
  6 26  1  0  0  0  0
  8 36  1  0  0  0  0
  9 11  1  0  0  0  0
 10  9  1  0  0  0  0
 11 13  2  0  0  0  0
 11 12  1  0  0  0  0
 13 14  1  0  0  0  0
 15  2  1  0  0  0  0
 15 13  1  0  0  0  0
 16  2  1  0  0  0  0
 17 16  2  0  0  0  0
 17 18  1  0  0  0  0
 18 19  1  0  0  0  0
 20 18  2  0  0  0  0
 20  1  1  0  0  0  0
 21 20  1  0  0  0  0
 22 21  1  0  0  0  0
 23 21  2  0  0  0  0
 24 23  1  0  0  0  0
 25 23  1  1  0  0  0
 25 17  1  0  0  0  0
 26 38  2  0  0  0  0
 27 29  2  0  0  0  0
 27  7  1  0  0  0  0
 28 27  1  0  0  0  0
 29  8  1  0  0  0  0
 30 32  2  0  0  0  0
 30 29  1  0  0  0  0
 31 30  1  0  0  0  0
 32 34  1  0  0  0  0
 33 32  1  0  0  0  0
 34 35  1  0  0  0  0
 34 36  2  0  0  0  0
 36 37  1  0  0  0  0
 38 39  1  0  0  0  0
 38 16  1  0  0  0  0
 39 15  2  0  0  0  0
 40 39  1  0  0  0  0
 40  9  2  0  0  0  0
 41 40  1  0  0  0  0
M  END
