1,5
 OpenBabel05122313053D

 45 47  0  0  1  0  0  0  0  0999 V2000
    0.8183    0.9707   -1.1426 N   0  0  0  0  0  2  0  0  0  0  0  0
    0.3091    1.9059   -0.2770 N   0  0  0  0  0  0  0  0  0  0  0  0
    0.0969    0.5488    1.8280 N   0  0  0  0  0  0  0  0  0  0  0  0
    1.4377    0.6777    1.9673 N   0  0  0  0  0  0  0  0  0  0  0  0
   -1.5782   -0.4357   -0.5634 N   0  0  0  0  0  2  0  0  0  0  0  0
   -1.8370    0.6782    0.1874 N   0  0  0  0  0  0  0  0  0  0  0  0
    1.5247    1.6190   -2.0962 C   0  0  2  0  0  3  0  0  0  0  0  0
    2.2279    0.9054   -3.2039 C   0  0  0  0  0  0  0  0  0  0  0  0
    1.4624    3.0062   -1.8349 C   0  0  0  0  0  0  0  0  0  0  0  0
    0.6828    3.1607   -0.6850 C   0  0  0  0  0  0  0  0  0  0  0  0
    0.2624    4.4095    0.0170 C   0  0  0  0  0  0  0  0  0  0  0  0
   -0.3144   -0.3884    2.7212 C   0  0  1  0  0  3  0  0  0  0  0  0
   -1.7399   -0.7944    2.8832 C   0  0  0  0  0  0  0  0  0  0  0  0
    0.8208   -0.8620    3.4117 C   0  0  0  0  0  0  0  0  0  0  0  0
    1.9290   -0.1706    2.9049 C   0  0  0  0  0  0  0  0  0  0  0  0
    3.3850   -0.2746    3.2055 C   0  0  0  0  0  0  0  0  0  0  0  0
   -2.7552   -0.9082   -1.0376 C   0  0  2  0  0  3  0  0  0  0  0  0
   -2.8521   -2.1204   -1.9049 C   0  0  0  0  0  0  0  0  0  0  0  0
   -3.7913   -0.0689   -0.5741 C   0  0  0  0  0  0  0  0  0  0  0  0
   -3.1818    0.9281    0.1940 C   0  0  0  0  0  0  0  0  0  0  0  0
   -3.8020    2.0830    0.9081 C   0  0  0  0  0  0  0  0  0  0  0  0
   -0.6930    1.4801    0.8137 B   0  0  2  0  0  0  0  0  0  0  0  0
    1.6637    0.0091   -3.5263 H   0  0  0  0  0  0  0  0  0  0  0  0
    2.3509    1.5745   -4.0757 H   0  0  0  0  0  0  0  0  0  0  0  0
    3.2421    0.5758   -2.8957 H   0  0  0  0  0  0  0  0  0  0  0  0
    1.9213    3.8062   -2.4246 H   0  0  0  0  0  0  0  0  0  0  0  0
    0.5219    4.3929    1.0942 H   0  0  0  0  0  0  0  0  0  0  0  0
    0.7584    5.2826   -0.4442 H   0  0  0  0  0  0  0  0  0  0  0  0
   -0.8338    4.5641   -0.0518 H   0  0  0  0  0  0  0  0  0  0  0  0
   -2.1154   -1.3164    1.9799 H   0  0  0  0  0  0  0  0  0  0  0  0
   -1.8367   -1.4791    3.7446 H   0  0  0  0  0  0  0  0  0  0  0  0
   -2.3967    0.0799    3.0586 H   0  0  0  0  0  0  0  0  0  0  0  0
    0.8319   -1.6236    4.1974 H   0  0  0  0  0  0  0  0  0  0  0  0
    3.5392   -0.7724    4.1797 H   0  0  0  0  0  0  0  0  0  0  0  0
    3.9073   -0.8769    2.4326 H   0  0  0  0  0  0  0  0  0  0  0  0
    3.8689    0.7212    3.2446 H   0  0  0  0  0  0  0  0  0  0  0  0
   -1.9919   -2.1910   -2.5983 H   0  0  0  0  0  0  0  0  0  0  0  0
   -2.8799   -3.0515   -1.3013 H   0  0  0  0  0  0  0  0  0  0  0  0
   -3.7809   -2.0899   -2.5041 H   0  0  0  0  0  0  0  0  0  0  0  0
   -4.8604   -0.1669   -0.7876 H   0  0  0  0  0  0  0  0  0  0  0  0
   -3.5858    2.0666    1.9955 H   0  0  0  0  0  0  0  0  0  0  0  0
   -3.4335    3.0529    0.5175 H   0  0  0  0  0  0  0  0  0  0  0  0
   -4.8989    2.0566    0.7772 H   0  0  0  0  0  0  0  0  0  0  0  0
   -1.1247    2.4577    1.3936 H   0  0  0  0  0  0  0  0  0  0  0  0
    1.9378    1.3077    1.3346 H   0  0  0  0  0  0  0  0  0  0  0  0
  1  2  1  0  0  0  0
  2 22  1  0  0  0  0
  3  4  1  0  0  0  0
  3 12  1  0  0  0  0
  4 15  1  0  0  0  0
  5  6  1  0  0  0  0
  6 20  1  0  0  0  0
  6 22  1  0  0  0  0
  7  8  1  1  0  0  0
  7  9  1  0  0  0  0
  7  1  1  0  0  0  0
  8 25  1  0  0  0  0
  9 10  2  0  0  0  0
 10  2  1  0  0  0  0
 10 11  1  0  0  0  0
 11 27  1  0  0  0  0
 12 13  1  6  0  0  0
 12 14  1  0  0  0  0
 13 32  1  0  0  0  0
 13 31  1  0  0  0  0
 14 33  1  0  0  0  0
 15 16  1  0  0  0  0
 15 14  2  0  0  0  0
 16 36  1  0  0  0  0
 16 34  1  0  0  0  0
 17 18  1  6  0  0  0
 17 19  1  0  0  0  0
 17  5  1  0  0  0  0
 18 38  1  0  0  0  0
 19 20  2  0  0  0  0
 20 21  1  0  0  0  0
 21 41  1  0  0  0  0
 22 44  1  1  0  0  0
 22  3  1  0  0  0  0
 23  8  1  0  0  0  0
 24  8  1  0  0  0  0
 26  9  1  0  0  0  0
 28 11  1  0  0  0  0
 29 11  1  0  0  0  0
 30 13  1  0  0  0  0
 35 16  1  0  0  0  0
 37 18  1  0  0  0  0
 39 18  1  0  0  0  0
 40 19  1  0  0  0  0
 42 21  1  0  0  0  0
 43 21  1  0  0  0  0
 45  4  1  0  0  0  0
M  END
