1,2
 OpenBabel05122313053D

 22 22  0  0  1  0  0  0  0  0999 V2000
    1.7064    1.3832   -0.1332 N   0  0  0  0  0  0  0  0  0  0  0  0
    1.7541   -1.3907    0.0388 N   0  0  0  0  0  0  0  0  0  0  0  0
    3.0329    0.7049   -0.1307 C   0  0  2  0  0  0  0  0  0  0  0  0
    2.8964   -0.6326    0.6215 C   0  0  2  0  0  0  0  0  0  0  0  0
    4.2189   -1.4049    0.6242 C   0  0  0  0  0  0  0  0  0  0  0  0
    5.3572   -0.5531    1.2033 C   0  0  0  0  0  0  0  0  0  0  0  0
    5.4918    0.7819    0.4602 C   0  0  0  0  0  0  0  0  0  0  0  0
    4.1656    1.5552    0.4519 C   0  0  0  0  0  0  0  0  0  0  0  0
    1.6560    2.1131   -0.8614 H   0  0  0  0  0  0  0  0  0  0  0  0
    1.5474    1.8677    0.7656 H   0  0  0  0  0  0  0  0  0  0  0  0
    1.4242   -2.1274    0.6813 H   0  0  0  0  0  0  0  0  0  0  0  0
    2.0445   -1.8787   -0.8254 H   0  0  0  0  0  0  0  0  0  0  0  0
    3.2594    0.4704   -1.1943 H   0  0  0  0  0  0  0  0  0  0  0  0
    2.6059   -0.3989    1.6697 H   0  0  0  0  0  0  0  0  0  0  0  0
    4.0997   -2.3482    1.1972 H   0  0  0  0  0  0  0  0  0  0  0  0
    4.4648   -1.6952   -0.4226 H   0  0  0  0  0  0  0  0  0  0  0  0
    5.1563   -0.3583    2.2800 H   0  0  0  0  0  0  0  0  0  0  0  0
    6.3101   -1.1183    1.1625 H   0  0  0  0  0  0  0  0  0  0  0  0
    5.8095    0.5910   -0.5887 H   0  0  0  0  0  0  0  0  0  0  0  0
    6.2880    1.4028    0.9178 H   0  0  0  0  0  0  0  0  0  0  0  0
    4.2608    2.4978   -0.1266 H   0  0  0  0  0  0  0  0  0  0  0  0
    3.8952    1.8443    1.4932 H   0  0  0  0  0  0  0  0  0  0  0  0
  1  3  1  0  0  0  0
  1 10  1  0  0  0  0
  2  4  1  0  0  0  0
  2 11  1  0  0  0  0
  3 13  1  6  0  0  0
  3  8  1  0  0  0  0
  3  4  1  0  0  0  0
  4  5  1  0  0  0  0
  4 14  1  1  0  0  0
  5 15  1  0  0  0  0
  5  6  1  0  0  0  0
  6 17  1  0  0  0  0
  7 20  1  0  0  0  0
  7  6  1  0  0  0  0
  8  7  1  0  0  0  0
  8 22  1  0  0  0  0
  9  1  1  0  0  0  0
 12  2  1  0  0  0  0
 16  5  1  0  0  0  0
 18  6  1  0  0  0  0
 19  7  1  0  0  0  0
 21  8  1  0  0  0  0
M  END
