1,18
 OpenBabel05122313053D

 33 34  0  0  1  0  0  0  0  0999 V2000
   -1.0991   -0.6594   -0.3023 N   0  0  0  0  0  2  0  0  0  0  0  0
   -0.0875   -2.6679    0.0854 O   0  0  0  0  0  0  0  0  0  0  0  0
    2.4606   -1.0262   -0.2022 C   0  0  0  0  0  0  0  0  0  0  0  0
    2.8824   -2.3212   -0.5933 C   0  0  0  0  0  0  0  0  0  0  0  0
    2.1389   -3.0484   -0.9473 H   0  0  0  0  0  0  0  0  0  0  0  0
    4.2371   -2.6683   -0.5248 C   0  0  0  0  0  0  0  0  0  0  0  0
    4.5472   -3.6788   -0.8332 H   0  0  0  0  0  0  0  0  0  0  0  0
   -3.5598   -1.2694   -0.1525 C   0  0  0  0  0  0  0  0  0  0  0  0
   -4.4803   -2.2816    0.5541 C   0  0  0  0  0  0  0  0  0  0  0  0
   -4.2255   -3.3293    0.2920 H   0  0  0  0  0  0  0  0  0  0  0  0
   -5.5373   -2.1176    0.2615 H   0  0  0  0  0  0  0  0  0  0  0  0
   -4.4165   -2.1787    1.6575 H   0  0  0  0  0  0  0  0  0  0  0  0
    0.0333   -1.3611   -0.2183 C   0  0  2  0  0  3  0  0  0  0  0  0
    5.1970   -1.7467   -0.0739 C   0  0  0  0  0  0  0  0  0  0  0  0
    6.2594   -2.0278   -0.0254 H   0  0  0  0  0  0  0  0  0  0  0  0
    4.7806   -0.4649    0.3205 C   0  0  0  0  0  0  0  0  0  0  0  0
    5.5172    0.2647    0.6911 H   0  0  0  0  0  0  0  0  0  0  0  0
    1.1311   -0.6248   -0.2851 N   0  0  0  0  0  2  0  0  0  0  0  0
   -2.1189   -1.4518    0.3856 C   0  0  1  0  0  0  0  0  0  0  0  0
   -2.1129   -1.1634    1.4647 H   0  0  0  0  0  0  0  0  0  0  0  0
    3.4289   -0.1050    0.2594 C   0  0  0  0  0  0  0  0  0  0  0  0
    3.0872    0.8828    0.5989 H   0  0  0  0  0  0  0  0  0  0  0  0
   -4.0183    0.1582    0.1949 C   0  0  0  0  0  0  0  0  0  0  0  0
   -5.0602    0.3309   -0.1443 H   0  0  0  0  0  0  0  0  0  0  0  0
   -3.3654    0.9070   -0.2917 H   0  0  0  0  0  0  0  0  0  0  0  0
   -3.9736    0.3381    1.2883 H   0  0  0  0  0  0  0  0  0  0  0  0
   -1.5184   -2.8774    0.2476 C   0  0  0  0  0  0  0  0  0  0  0  0
   -1.6669   -3.5107    1.1410 H   0  0  0  0  0  0  0  0  0  0  0  0
   -1.8921   -3.4113   -0.6519 H   0  0  0  0  0  0  0  0  0  0  0  0
   -3.6155   -1.4666   -1.6760 C   0  0  0  0  0  0  0  0  0  0  0  0
   -3.3474   -2.5009   -1.9747 H   0  0  0  0  0  0  0  0  0  0  0  0
   -2.9104   -0.7777   -2.1825 H   0  0  0  0  0  0  0  0  0  0  0  0
   -4.6383   -1.2693   -2.0564 H   0  0  0  0  0  0  0  0  0  0  0  0
  1 13  1  0  0  0  0
  1 19  1  0  0  0  0
  2 27  1  0  0  0  0
  3 21  1  0  0  0  0
  4  6  1  0  0  0  0
  4  3  2  0  0  0  0
  5  4  1  0  0  0  0
  6 14  2  0  0  0  0
  7  6  1  0  0  0  0
  8 23  1  0  0  0  0
  8 19  1  0  0  0  0
  8  9  1  0  0  0  0
  9 12  1  0  0  0  0
 10  9  1  0  0  0  0
 11  9  1  0  0  0  0
 13 18  1  1  0  0  0
 13  2  1  0  0  0  0
 14 15  1  0  0  0  0
 14 16  1  0  0  0  0
 16 17  1  0  0  0  0
 18  3  1  0  0  0  0
 19 20  1  1  0  0  0
 21 16  2  0  0  0  0
 21 22  1  0  0  0  0
 23 26  1  0  0  0  0
 24 23  1  0  0  0  0
 25 23  1  0  0  0  0
 27 19  1  0  0  0  0
 27 28  1  0  0  0  0
 29 27  1  0  0  0  0
 30  8  1  0  0  0  0
 31 30  1  0  0  0  0
 32 30  1  0  0  0  0
 33 30  1  0  0  0  0
M  END
