1,4
 OpenBabel05122313053D

 28 30  0  0  1  0  0  0  0  0999 V2000
    0.9406    0.1454    0.1552 N   0  0  0  0  0  2  0  0  0  0  0  0
    1.9283    1.9871    0.9212 N   0  0  0  0  0  0  0  0  0  0  0  0
    2.0492    2.8640    1.4272 H   0  0  0  0  0  0  0  0  0  0  0  0
   -1.8941    0.2242    0.1847 N   0  0  0  0  0  2  0  0  0  0  0  0
   -2.8993    0.3490   -0.6858 N   0  0  0  0  0  0  0  0  0  0  0  0
   -3.0671   -0.4681   -1.2937 H   0  0  0  0  0  0  0  0  0  0  0  0
    2.2326    0.1782   -0.3445 C   0  0  0  0  0  0  0  0  0  0  0  0
    2.8974   -0.7171   -1.1999 C   0  0  0  0  0  0  0  0  0  0  0  0
    2.3721   -1.6046   -1.5824 H   0  0  0  0  0  0  0  0  0  0  0  0
    4.2202   -0.4142   -1.5401 C   0  0  0  0  0  0  0  0  0  0  0  0
    4.7749   -1.0906   -2.2071 H   0  0  0  0  0  0  0  0  0  0  0  0
    4.8650    0.7477   -1.0482 C   0  0  0  0  0  0  0  0  0  0  0  0
    5.9068    0.9467   -1.3404 H   0  0  0  0  0  0  0  0  0  0  0  0
    4.2111    1.6538   -0.2018 C   0  0  0  0  0  0  0  0  0  0  0  0
    4.7170    2.5557    0.1721 H   0  0  0  0  0  0  0  0  0  0  0  0
    2.8852    1.3477    0.1388 C   0  0  0  0  0  0  0  0  0  0  0  0
    0.7816    1.2339    0.9022 C   0  0  2  0  0  3  0  0  0  0  0  0
   -0.4891    1.5721    1.6369 C   0  0  0  0  0  0  0  0  0  0  0  0
   -0.4344    2.5835    2.0794 H   0  0  0  0  0  0  0  0  0  0  0  0
   -0.5846    0.8186    2.4554 H   0  0  0  0  0  0  0  0  0  0  0  0
   -1.6812    1.4328    0.7229 C   0  0  1  0  0  3  0  0  0  0  0  0
   -2.6043    2.3590    0.1772 C   0  0  0  0  0  0  0  0  0  0  0  0
   -2.7062    3.4256    0.4027 H   0  0  0  0  0  0  0  0  0  0  0  0
   -3.3767    1.6245   -0.7390 C   0  0  0  0  0  0  0  0  0  0  0  0
   -4.5122    2.0262   -1.6210 C   0  0  0  0  0  0  0  0  0  0  0  0
   -5.4864    1.6807   -1.2156 H   0  0  0  0  0  0  0  0  0  0  0  0
   -4.4053    1.6016   -2.6396 H   0  0  0  0  0  0  0  0  0  0  0  0
   -4.5569    3.1269   -1.7116 H   0  0  0  0  0  0  0  0  0  0  0  0
  1 17  1  0  0  0  0
  2  3  1  0  0  0  0
  4 21  1  0  0  0  0
  5  4  1  0  0  0  0
  6  5  1  0  0  0  0
  7 16  1  0  0  0  0
  7  1  1  0  0  0  0
  8  7  2  0  0  0  0
  9  8  1  0  0  0  0
 10  8  1  0  0  0  0
 10 12  2  0  0  0  0
 11 10  1  0  0  0  0
 12 14  1  0  0  0  0
 13 12  1  0  0  0  0
 14 16  2  0  0  0  0
 14 15  1  0  0  0  0
 16  2  1  0  0  0  0
 17  2  1  0  0  0  0
 17 18  1  1  0  0  0
 18 19  1  0  0  0  0
 18 20  1  0  0  0  0
 21 18  1  6  0  0  0
 22 23  1  0  0  0  0
 22 21  1  0  0  0  0
 24  5  1  0  0  0  0
 24 22  2  0  0  0  0
 25 26  1  0  0  0  0
 25 24  1  0  0  0  0
 27 25  1  0  0  0  0
 28 25  1  0  0  0  0
M  END
