2,5
 OpenBabel05122313053D

 29 29  0  0  1  0  0  0  0  0999 V2000
    3.9836   -1.2244   -1.9611 Cl  0  0  0  0  0  0  0  0  0  0  0  0
   -1.2211   -1.0529    1.1349 N   0  0  0  0  0  2  0  0  0  0  0  0
   -2.2118   -0.7655    1.1937 H   0  0  0  0  0  0  0  0  0  0  0  0
   -1.7268   -3.3445    1.5267 N   0  0  0  0  0  0  0  0  0  0  0  0
    1.2953   -1.5383    1.2112 N   0  0  0  0  0  2  0  0  0  0  0  0
    0.4242   -2.6581    1.2621 O   0  0  0  0  0  0  0  0  0  0  0  0
   -1.2523   -4.6853    1.8409 C   0  0  0  0  0  0  0  0  0  0  0  0
   -1.7739   -5.0682    2.7418 H   0  0  0  0  0  0  0  0  0  0  0  0
   -0.1697   -4.6698    2.0496 H   0  0  0  0  0  0  0  0  0  0  0  0
   -1.4465   -5.3833    0.9978 H   0  0  0  0  0  0  0  0  0  0  0  0
   -0.8998   -2.2940    1.3113 C   0  0  1  0  0  3  0  0  0  0  0  0
    4.2162   -0.4310   -0.4196 C   0  0  0  0  0  0  0  0  0  0  0  0
    2.4615   -1.8947    0.7192 C   0  0  2  0  0  3  0  0  0  0  0  0
    5.1308    0.6320   -0.3649 C   0  0  0  0  0  0  0  0  0  0  0  0
    5.6791    0.9129   -1.2750 H   0  0  0  0  0  0  0  0  0  0  0  0
    2.7647   -3.1355    0.2864 N   0  0  0  0  0  0  0  0  0  0  0  0
    2.0056   -3.8064    0.1583 H   0  0  0  0  0  0  0  0  0  0  0  0
    3.6556   -3.3026   -0.1784 H   0  0  0  0  0  0  0  0  0  0  0  0
    3.4899   -0.8212    0.7286 C   0  0  0  0  0  0  0  0  0  0  0  0
    3.7097   -0.1171    1.9323 C   0  0  0  0  0  0  0  0  0  0  0  0
    3.1372   -0.4150    2.8219 H   0  0  0  0  0  0  0  0  0  0  0  0
   -3.1665   -3.1133    1.5325 C   0  0  0  0  0  0  0  0  0  0  0  0
   -3.6811   -4.0633    1.2972 H   0  0  0  0  0  0  0  0  0  0  0  0
   -3.4523   -2.3708    0.7626 H   0  0  0  0  0  0  0  0  0  0  0  0
   -3.5245   -2.7518    2.5211 H   0  0  0  0  0  0  0  0  0  0  0  0
    4.6250    0.9398    1.9955 C   0  0  0  0  0  0  0  0  0  0  0  0
    4.7903    1.4659    2.9469 H   0  0  0  0  0  0  0  0  0  0  0  0
    5.3360    1.3132    0.8434 C   0  0  0  0  0  0  0  0  0  0  0  0
    6.0683    2.1337    0.8831 H   0  0  0  0  0  0  0  0  0  0  0  0
  1 12  1  0  0  0  0
  2  3  1  0  0  0  0
  4 22  1  0  0  0  0
  4  7  1  0  0  0  0
  5  6  1  0  0  0  0
  6 11  1  0  0  0  0
  7  9  1  0  0  0  0
  7  8  1  0  0  0  0
 10  7  1  0  0  0  0
 11  2  1  6  0  0  0
 11  4  1  0  0  0  0
 12 14  2  0  0  0  0
 12 19  1  0  0  0  0
 13 19  1  0  0  0  0
 13  5  1  1  0  0  0
 14 28  1  0  0  0  0
 15 14  1  0  0  0  0
 16 13  1  0  0  0  0
 17 16  1  0  0  0  0
 18 16  1  0  0  0  0
 19 20  2  0  0  0  0
 20 26  1  0  0  0  0
 20 21  1  0  0  0  0
 22 25  1  0  0  0  0
 23 22  1  0  0  0  0
 24 22  1  0  0  0  0
 26 27  1  0  0  0  0
 28 29  1  0  0  0  0
 28 26  2  0  0  0  0
M  END
