1,2
 OpenBabel05122313053D

 30 31  0  0  1  0  0  0  0  0999 V2000
   -0.8698    1.0236    0.4058 N   0  0  0  0  0  2  0  0  0  0  0  0
    1.2261    1.3898   -1.1126 N   0  0  0  0  0  2  0  0  0  0  0  0
   -1.9774    0.7263    1.3296 C   0  0  1  0  0  0  0  0  0  0  0  0
   -2.1092    1.7281    2.4876 C   0  0  0  0  0  0  0  0  0  0  0  0
   -3.2996    0.5489    0.5834 C   0  0  0  0  0  0  0  0  0  0  0  0
   -3.5328    1.1038   -0.6886 C   0  0  0  0  0  0  0  0  0  0  0  0
   -4.7758    0.9403   -1.3213 C   0  0  0  0  0  0  0  0  0  0  0  0
   -5.8025    0.2207   -0.6927 C   0  0  0  0  0  0  0  0  0  0  0  0
   -5.5769   -0.3411    0.5748 C   0  0  0  0  0  0  0  0  0  0  0  0
   -4.3354   -0.1797    1.2043 C   0  0  0  0  0  0  0  0  0  0  0  0
   -0.5548    2.2843    0.1575 C   0  0  0  0  0  0  0  0  0  0  0  0
    0.5727    2.5325   -0.6798 C   0  0  0  0  0  0  0  0  0  0  0  0
    1.0376    3.8234   -1.0228 C   0  0  0  0  0  0  0  0  0  0  0  0
    2.1689    3.9604   -1.8187 C   0  0  0  0  0  0  0  0  0  0  0  0
    2.8356    2.7886   -2.2470 C   0  0  0  0  0  0  0  0  0  0  0  0
    2.3465    1.5440   -1.8668 C   0  0  0  0  0  0  0  0  0  0  0  0
   -1.7147   -0.2507    1.7831 H   0  0  0  0  0  0  0  0  0  0  0  0
   -1.1304    1.8484    2.9933 H   0  0  0  0  0  0  0  0  0  0  0  0
   -2.4811    2.7161    2.1512 H   0  0  0  0  0  0  0  0  0  0  0  0
   -2.8415    1.3419    3.2224 H   0  0  0  0  0  0  0  0  0  0  0  0
   -2.7276    1.6502   -1.2006 H   0  0  0  0  0  0  0  0  0  0  0  0
   -4.9386    1.3759   -2.3190 H   0  0  0  0  0  0  0  0  0  0  0  0
   -6.7748    0.0903   -1.1913 H   0  0  0  0  0  0  0  0  0  0  0  0
   -6.3715   -0.9164    1.0738 H   0  0  0  0  0  0  0  0  0  0  0  0
   -4.1602   -0.6355    2.1921 H   0  0  0  0  0  0  0  0  0  0  0  0
   -1.0991    3.1227    0.6178 H   0  0  0  0  0  0  0  0  0  0  0  0
    0.4926    4.7000   -0.6433 H   0  0  0  0  0  0  0  0  0  0  0  0
    2.5442    4.9551   -2.0988 H   0  0  0  0  0  0  0  0  0  0  0  0
    3.7400    2.8428   -2.8691 H   0  0  0  0  0  0  0  0  0  0  0  0
    2.8632    0.6203   -2.1628 H   0  0  0  0  0  0  0  0  0  0  0  0
  1  3  1  0  0  0  0
  2 12  1  0  0  0  0
  3 17  1  1  0  0  0
  3  4  1  0  0  0  0
  4 18  1  0  0  0  0
  4 20  1  0  0  0  0
  5 10  1  0  0  0  0
  5  3  1  0  0  0  0
  6  5  2  0  0  0  0
  7  8  2  0  0  0  0
  7  6  1  0  0  0  0
  8  9  1  0  0  0  0
  9 24  1  0  0  0  0
  9 10  2  0  0  0  0
 10 25  1  0  0  0  0
 11  1  1  0  0  0  0
 11 26  1  0  0  0  0
 12 11  2  0  0  0  0
 13 12  1  0  0  0  0
 13 27  1  0  0  0  0
 14 13  2  0  0  0  0
 15 16  2  0  0  0  0
 15 14  1  0  0  0  0
 16  2  1  0  0  0  0
 19  4  1  0  0  0  0
 21  6  1  0  0  0  0
 22  7  1  0  0  0  0
 23  8  1  0  0  0  0
 28 14  1  0  0  0  0
 29 15  1  0  0  0  0
 30 16  1  0  0  0  0
M  END
