1,22
 OpenBabel05122313053D

 38 40  0  0  1  0  0  0  0  0999 V2000
   -0.5423    0.3483   -0.6909 N   0  0  0  0  0  2  0  0  0  0  0  0
   -1.8421   -0.1608   -1.0447 C   0  0  0  0  0  0  0  0  0  0  0  0
   -1.7218   -1.2421   -1.2699 H   0  0  0  0  0  0  0  0  0  0  0  0
   -2.2172    0.2848   -1.9985 H   0  0  0  0  0  0  0  0  0  0  0  0
   -2.9245   -0.0095    0.0145 C   0  0  0  0  0  0  0  0  0  0  0  0
   -2.6676    0.6375    1.2173 C   0  0  0  0  0  0  0  0  0  0  0  0
   -1.6580    1.0301    1.3975 H   0  0  0  0  0  0  0  0  0  0  0  0
   -3.6700    0.7859    2.2125 C   0  0  0  0  0  0  0  0  0  0  0  0
   -3.4258    1.3037    3.1527 H   0  0  0  0  0  0  0  0  0  0  0  0
   -4.9421    0.2832    2.0019 C   0  0  0  0  0  0  0  0  0  0  0  0
   -5.7270    0.3936    2.7662 H   0  0  0  0  0  0  0  0  0  0  0  0
   -5.2579   -0.3914    0.7852 C   0  0  0  0  0  0  0  0  0  0  0  0
   -6.5597   -0.9210    0.5450 C   0  0  0  0  0  0  0  0  0  0  0  0
   -7.3285   -0.7973    1.3240 H   0  0  0  0  0  0  0  0  0  0  0  0
   -6.8586   -1.5791   -0.6384 C   0  0  0  0  0  0  0  0  0  0  0  0
   -7.8683   -1.9828   -0.8080 H   0  0  0  0  0  0  0  0  0  0  0  0
   -5.8589   -1.7343   -1.6335 C   0  0  0  0  0  0  0  0  0  0  0  0
   -6.0979   -2.2594   -2.5708 H   0  0  0  0  0  0  0  0  0  0  0  0
   -4.5814   -1.2295   -1.4319 C   0  0  0  0  0  0  0  0  0  0  0  0
   -3.8233   -1.3640   -2.2163 H   0  0  0  0  0  0  0  0  0  0  0  0
   -4.2383   -0.5452   -0.2269 C   0  0  0  0  0  0  0  0  0  0  0  0
    1.1100    1.8179   -0.4946 N   0  0  0  0  0  2  0  0  0  0  0  0
   -0.1825    1.6395   -0.7938 C   0  0  1  0  0  3  0  0  0  0  0  0
   -1.1097    2.7592   -1.2118 C   0  0  0  0  0  0  0  0  0  0  0  0
   -2.1115    2.3413   -1.4233 H   0  0  0  0  0  0  0  0  0  0  0  0
   -0.7312    3.1865   -2.1676 H   0  0  0  0  0  0  0  0  0  0  0  0
   -1.2312    3.8854   -0.1659 C   0  0  0  0  0  0  0  0  0  0  0  0
   -2.1379    4.4784   -0.4071 H   0  0  0  0  0  0  0  0  0  0  0  0
   -1.4220    3.4337    0.8316 H   0  0  0  0  0  0  0  0  0  0  0  0
   -0.0296    4.8346   -0.0982 C   0  0  0  0  0  0  0  0  0  0  0  0
    0.0979    5.3149   -1.0952 H   0  0  0  0  0  0  0  0  0  0  0  0
   -0.2666    5.6604    0.6061 H   0  0  0  0  0  0  0  0  0  0  0  0
    1.3022    4.1935    0.3076 C   0  0  0  0  0  0  0  0  0  0  0  0
    1.2281    3.7732    1.3353 H   0  0  0  0  0  0  0  0  0  0  0  0
    2.0786    4.9874    0.3500 H   0  0  0  0  0  0  0  0  0  0  0  0
    1.7979    3.0846   -0.6341 C   0  0  0  0  0  0  0  0  0  0  0  0
    1.7571    3.4586   -1.6880 H   0  0  0  0  0  0  0  0  0  0  0  0
    2.8703    2.8929   -0.4300 H   0  0  0  0  0  0  0  0  0  0  0  0
  2  1  1  0  0  0  0
  2  5  1  0  0  0  0
  3  2  1  0  0  0  0
  4  2  1  0  0  0  0
  5  6  1  0  0  0  0
  6  7  1  0  0  0  0
  6  8  2  0  0  0  0
  8  9  1  0  0  0  0
 10  8  1  0  0  0  0
 10 11  1  0  0  0  0
 12 10  2  0  0  0  0
 13 12  1  0  0  0  0
 13 14  1  0  0  0  0
 15 13  2  0  0  0  0
 16 15  1  0  0  0  0
 17 19  2  0  0  0  0
 17 15  1  0  0  0  0
 18 17  1  0  0  0  0
 19 21  1  0  0  0  0
 20 19  1  0  0  0  0
 21  5  2  0  0  0  0
 21 12  1  0  0  0  0
 23  1  1  6  0  0  0
 23 22  1  0  0  0  0
 24 23  1  0  0  0  0
 24 27  1  0  0  0  0
 25 24  1  0  0  0  0
 26 24  1  0  0  0  0
 27 30  1  0  0  0  0
 27 29  1  0  0  0  0
 28 27  1  0  0  0  0
 30 33  1  0  0  0  0
 30 32  1  0  0  0  0
 31 30  1  0  0  0  0
 33 35  1  0  0  0  0
 33 34  1  0  0  0  0
 36 22  1  0  0  0  0
 36 38  1  0  0  0  0
 36 33  1  0  0  0  0
 37 36  1  0  0  0  0
M  END
