1,18
 OpenBabel05122313053D

 32 33  0  0  1  0  0  0  0  0999 V2000
    0.1640    1.5916   -0.6045 N   0  0  0  0  0  2  0  0  0  0  0  0
    1.2467    1.2004    0.0756 C   0  0  1  0  0  3  0  0  0  0  0  0
    2.4469    2.0848    0.3281 C   0  0  0  0  0  0  0  0  0  0  0  0
    2.9205    2.3106   -0.6537 H   0  0  0  0  0  0  0  0  0  0  0  0
    3.2029    1.5171    0.9015 H   0  0  0  0  0  0  0  0  0  0  0  0
    2.1087    3.4017    1.0533 C   0  0  0  0  0  0  0  0  0  0  0  0
    1.4636    3.1787    1.9314 H   0  0  0  0  0  0  0  0  0  0  0  0
    3.0528    3.8175    1.4635 H   0  0  0  0  0  0  0  0  0  0  0  0
    1.4478    4.4703    0.1747 C   0  0  0  0  0  0  0  0  0  0  0  0
    1.3614    5.4113    0.7590 H   0  0  0  0  0  0  0  0  0  0  0  0
    2.1321    4.7019   -0.6732 H   0  0  0  0  0  0  0  0  0  0  0  0
    0.0726    4.1028   -0.3918 C   0  0  0  0  0  0  0  0  0  0  0  0
   -0.3116    4.9640   -0.9797 H   0  0  0  0  0  0  0  0  0  0  0  0
   -0.6505    3.9451    0.4385 H   0  0  0  0  0  0  0  0  0  0  0  0
    0.0559    2.8587   -1.2947 C   0  0  0  0  0  0  0  0  0  0  0  0
   -0.8979    2.8379   -1.8593 H   0  0  0  0  0  0  0  0  0  0  0  0
    0.8586    2.9665   -2.0669 H   0  0  0  0  0  0  0  0  0  0  0  0
    1.1254   -0.0641    0.5147 N   0  0  0  0  0  2  0  0  0  0  0  0
    2.1480   -0.7639    1.2496 C   0  0  0  0  0  0  0  0  0  0  0  0
    1.7121   -1.7338    1.5746 H   0  0  0  0  0  0  0  0  0  0  0  0
    2.4145   -0.2345    2.1967 H   0  0  0  0  0  0  0  0  0  0  0  0
    3.4368   -1.0622    0.4899 C   0  0  0  0  0  0  0  0  0  0  0  0
    3.4803   -1.0731   -0.9166 C   0  0  0  0  0  0  0  0  0  0  0  0
    2.5671   -0.8379   -1.4827 H   0  0  0  0  0  0  0  0  0  0  0  0
    4.6708   -1.3787   -1.5946 C   0  0  0  0  0  0  0  0  0  0  0  0
    4.6843   -1.3840   -2.6954 H   0  0  0  0  0  0  0  0  0  0  0  0
    5.8383   -1.6774   -0.8758 C   0  0  0  0  0  0  0  0  0  0  0  0
    6.7725   -1.9142   -1.4073 H   0  0  0  0  0  0  0  0  0  0  0  0
    5.8065   -1.6669    0.5283 C   0  0  0  0  0  0  0  0  0  0  0  0
    6.7180   -1.8937    1.1028 H   0  0  0  0  0  0  0  0  0  0  0  0
    4.6157   -1.3599    1.2023 C   0  0  0  0  0  0  0  0  0  0  0  0
    4.5988   -1.3466    2.3047 H   0  0  0  0  0  0  0  0  0  0  0  0
  1  2  1  0  0  0  0
  2  3  1  0  0  0  0
  2 18  1  1  0  0  0
  3  5  1  0  0  0  0
  3  6  1  0  0  0  0
  4  3  1  0  0  0  0
  6  8  1  0  0  0  0
  6  7  1  0  0  0  0
  9 10  1  0  0  0  0
  9  6  1  0  0  0  0
 11  9  1  0  0  0  0
 12  9  1  0  0  0  0
 12 14  1  0  0  0  0
 13 12  1  0  0  0  0
 15  1  1  0  0  0  0
 15 12  1  0  0  0  0
 16 15  1  0  0  0  0
 17 15  1  0  0  0  0
 18 19  1  0  0  0  0
 19 20  1  0  0  0  0
 19 21  1  0  0  0  0
 22 31  1  0  0  0  0
 22 19  1  0  0  0  0
 23 22  2  0  0  0  0
 24 23  1  0  0  0  0
 25 23  1  0  0  0  0
 25 27  2  0  0  0  0
 26 25  1  0  0  0  0
 27 29  1  0  0  0  0
 28 27  1  0  0  0  0
 29 30  1  0  0  0  0
 29 31  2  0  0  0  0
 31 32  1  0  0  0  0
M  END
