1,8
q = 0.0, confidence = 1.0

 21 21  0  0  0  0  0  0  0  0999 V2000
    1.5778   -0.0972   -0.0196 N   0  0  0  0  0  2  0  0  0  0  0  0
    2.5803   -0.9524    0.2802 C   0  0  0  0  0  0  0  0  0  0  0  0
    3.9149   -0.5353    0.3019 C   0  0  0  0  0  0  0  0  0  0  0  0
    4.2308    0.8028    0.0075 C   0  0  0  0  0  0  0  0  0  0  0  0
    3.1936    1.6886   -0.3015 C   0  0  0  0  0  0  0  0  0  0  0  0
    1.8679    1.2190   -0.3099 C   0  0  0  0  0  0  0  0  0  0  0  0
    0.7018    2.0208   -0.5987 C   0  0  0  0  0  0  0  0  0  0  0  0
   -0.4613    1.4063   -0.5952 N   0  0  0  0  0  2  0  0  0  0  0  0
   -1.6759    2.1924   -0.7163 C   0  0  0  0  0  0  0  0  0  0  0  0
   -2.2218    2.5100    0.6981 C   0  0  0  0  0  0  0  0  0  0  0  0
   -1.2591    3.1363    1.5180 O   0  0  0  0  0  0  0  0  0  0  0  0
   -0.7545    2.4273    1.9577 H   0  0  0  0  0  0  0  0  0  0  0  0
    2.2529   -1.9823    0.5017 H   0  0  0  0  0  0  0  0  0  0  0  0
    4.6985   -1.2650    0.5498 H   0  0  0  0  0  0  0  0  0  0  0  0
    5.2745    1.1490    0.0188 H   0  0  0  0  0  0  0  0  0  0  0  0
    3.3902    2.7441   -0.5376 H   0  0  0  0  0  0  0  0  0  0  0  0
    0.7759    3.1003   -0.8058 H   0  0  0  0  0  0  0  0  0  0  0  0
   -1.4539    3.1347   -1.2594 H   0  0  0  0  0  0  0  0  0  0  0  0
   -2.4352    1.5944   -1.2571 H   0  0  0  0  0  0  0  0  0  0  0  0
   -3.0729    3.2118    0.5705 H   0  0  0  0  0  0  0  0  0  0  0  0
   -2.6128    1.5629    1.1294 H   0  0  0  0  0  0  0  0  0  0  0  0
  1  2  1  0  0  0  0
  2  3  2  0  0  0  0
  2 13  1  0  0  0  0
  3 14  1  0  0  0  0
  4 15  1  0  0  0  0
  4  3  1  0  0  0  0
  5  4  2  0  0  0  0
  6  5  1  0  0  0  0
  6  1  1  0  0  0  0
  7  8  1  0  0  0  0
  7  6  2  0  0  0  0
  9  8  1  0  0  0  0
  9 10  1  0  0  0  0
 10 21  1  0  0  0  0
 10 11  1  0  0  0  0
 11 12  1  0  0  0  0
 16  5  1  0  0  0  0
 17  7  1  0  0  0  0
 18  9  1  0  0  0  0
 19  9  1  0  0  0  0
 20 10  1  0  0  0  0
M  END
