1,8
 OpenBabel05122313053D

 34 37  0  0  0  0  0  0  0  0999 V2000
   -1.6230   -1.9567   -0.5414 N   0  0  0  0  0  2  0  0  0  0  0  0
   -2.6223   -2.8522   -0.4083 C   0  0  0  0  0  3  0  0  0  0  0  0
   -2.4697   -4.1739   -0.8381 C   0  0  0  0  0  0  0  0  0  0  0  0
   -1.2605   -4.5595   -1.4365 C   0  0  0  0  0  0  0  0  0  0  0  0
   -0.2369   -3.6181   -1.5859 C   0  0  0  0  0  0  0  0  0  0  0  0
   -0.4387   -2.3055   -1.1237 C   0  0  0  0  0  0  0  0  0  0  0  0
    0.4659   -1.1700   -1.3894 C   0  0  0  0  0  0  0  0  0  0  0  0
   -0.1517    0.0332   -1.3846 N   0  0  0  0  0  2  0  0  0  0  0  0
    0.4361    1.1065   -1.9940 C   0  0  0  0  0  0  0  0  0  0  0  0
   -0.2636    2.3226   -2.2135 C   0  0  0  0  0  0  0  0  0  0  0  0
    0.3551    3.3453   -2.9162 C   0  0  0  0  0  0  0  0  0  0  0  0
    1.6836    3.2029   -3.4064 C   0  0  0  0  0  0  0  0  0  0  0  0
    2.3882    2.0270   -3.2022 C   0  0  0  0  0  3  0  0  0  0  0  0
    1.7819    0.9482   -2.4999 C   0  0  0  0  0  0  0  0  0  0  0  0
    2.4792   -0.1913   -2.2770 N   0  0  0  0  0  0  0  0  0  0  0  0
    1.8675   -1.2305   -1.7197 C   0  0  0  0  0  0  0  0  0  0  0  0
    2.7239   -2.3819   -1.3234 C   0  0  0  0  0  0  0  0  0  0  0  0
    2.3487   -3.0555   -0.2161 N   0  0  0  0  0  0  0  0  0  0  0  0
    3.1280   -4.0605    0.2033 C   0  0  0  0  0  0  0  0  0  0  0  0
    4.3098   -4.4463   -0.4535 C   0  0  0  0  0  0  0  0  0  0  0  0
    4.7012   -3.7356   -1.5980 C   0  0  0  0  0  0  0  0  0  0  0  0
    3.8999   -2.6764   -2.0425 C   0  0  0  0  0  0  0  0  0  0  0  0
   -3.5390   -2.4741    0.0694 H   0  0  0  0  0  0  0  0  0  0  0  0
   -3.3014   -4.8812   -0.7140 H   0  0  0  0  0  0  0  0  0  0  0  0
   -1.1196   -5.5873   -1.8014 H   0  0  0  0  0  0  0  0  0  0  0  0
    0.7040   -3.8853   -2.0811 H   0  0  0  0  0  0  0  0  0  0  0  0
   -1.3118    2.3923   -1.8989 H   0  0  0  0  0  0  0  0  0  0  0  0
   -0.2009    4.2721   -3.1207 H   0  0  0  0  0  0  0  0  0  0  0  0
    2.1465    4.0306   -3.9643 H   0  0  0  0  0  0  0  0  0  0  0  0
    3.4127    1.8823   -3.5724 H   0  0  0  0  0  0  0  0  0  0  0  0
    2.7968   -4.5847    1.1163 H   0  0  0  0  0  0  0  0  0  0  0  0
    4.9095   -5.2846   -0.0699 H   0  0  0  0  0  0  0  0  0  0  0  0
    5.6214   -4.0037   -2.1384 H   0  0  0  0  0  0  0  0  0  0  0  0
    4.1626   -2.0731   -2.9222 H   0  0  0  0  0  0  0  0  0  0  0  0
  1  2  1  0  0  0  0
  2 23  1  0  0  0  0
  3 24  1  0  0  0  0
  3  2  1  0  0  0  0
  4  3  2  0  0  0  0
  5  4  1  0  0  0  0
  5  6  2  0  0  0  0
  6  1  1  0  0  0  0
  7  8  1  0  0  0  0
  7  6  1  0  0  0  0
  9  8  1  0  0  0  0
 10  9  2  0  0  0  0
 10 27  1  0  0  0  0
 11 10  1  0  0  0  0
 12 13  1  0  0  0  0
 12 11  2  0  0  0  0
 13 14  1  0  0  0  0
 14 15  2  0  0  0  0
 14  9  1  0  0  0  0
 15 16  1  0  0  0  0
 16  7  2  0  0  0  0
 16 17  1  0  0  0  0
 17 18  1  0  0  0  0
 18 19  2  0  0  0  0
 19 31  1  0  0  0  0
 20 32  1  0  0  0  0
 20 19  1  0  0  0  0
 21 20  2  0  0  0  0
 22 21  1  0  0  0  0
 22 17  2  0  0  0  0
 25  4  1  0  0  0  0
 26  5  1  0  0  0  0
 28 11  1  0  0  0  0
 29 12  1  0  0  0  0
 30 13  1  0  0  0  0
 33 21  1  0  0  0  0
 34 22  1  0  0  0  0
M  END
