4,5
 OpenBabel05122313053D

 23 24  0  0  0  0  0  0  0  0999 V2000
    2.8961    1.6146   -0.0268 S   0  0  0  0  0  0  0  0  0  0  0  0
    4.6866   -0.5389    0.0500 C   0  0  0  0  0  0  0  0  0  0  0  0
    5.0606   -1.6962    0.1297 O   0  0  0  0  0  0  0  0  0  0  0  0
    0.9738   -0.1004    0.1566 N   0  0  0  0  0  2  0  0  0  0  0  0
   -1.1110    1.5829    0.2480 N   0  0  0  0  0  2  0  0  0  0  0  0
    5.5391    0.5129   -0.0673 O   0  0  0  0  0  0  0  0  0  0  0  0
    6.4428    0.1296   -0.0742 H   0  0  0  0  0  0  0  0  0  0  0  0
    3.2825   -0.0851    0.0701 C   0  0  0  0  0  0  0  0  0  0  0  0
    2.1232   -0.8588    0.1678 C   0  0  0  0  0  0  0  0  0  0  0  0
    0.2796    3.5610    0.0567 C   0  0  0  0  0  0  0  0  0  0  0  0
    1.2850    3.9917   -0.0589 H   0  0  0  0  0  0  0  0  0  0  0  0
    2.0559   -2.3424    0.2698 C   0  0  0  0  0  0  0  0  0  0  0  0
    3.0601   -2.7654    0.4398 H   0  0  0  0  0  0  0  0  0  0  0  0
    1.6423   -2.7656   -0.6681 H   0  0  0  0  0  0  0  0  0  0  0  0
    1.3659   -2.6323    1.0863 H   0  0  0  0  0  0  0  0  0  0  0  0
    0.1186    2.1635    0.1064 C   0  0  0  0  0  0  0  0  0  0  0  0
    1.2179    1.2141    0.0597 C   0  0  0  0  0  0  0  0  0  0  0  0
   -0.8490    4.3779    0.1510 C   0  0  0  0  0  0  0  0  0  0  0  0
   -0.7495    5.4721    0.1076 H   0  0  0  0  0  0  0  0  0  0  0  0
   -2.1092    3.7753    0.3027 C   0  0  0  0  0  0  0  0  0  0  0  0
   -3.0257    4.3762    0.3812 H   0  0  0  0  0  0  0  0  0  0  0  0
   -2.1950    2.3805    0.3462 C   0  0  0  0  0  0  0  0  0  0  0  0
   -3.1621    1.8681    0.4504 H   0  0  0  0  0  0  0  0  0  0  0  0
  1 17  1  0  0  0  0
  1  8  1  0  0  0  0
  2  8  1  0  0  0  0
  2  3  2  0  0  0  0
  4  9  1  0  0  0  0
  5 22  1  0  0  0  0
  6  2  1  0  0  0  0
  7  6  1  0  0  0  0
  8  9  2  0  0  0  0
  9 12  1  0  0  0  0
 10 16  1  0  0  0  0
 10 18  2  0  0  0  0
 11 10  1  0  0  0  0
 12 13  1  0  0  0  0
 12 15  1  0  0  0  0
 14 12  1  0  0  0  0
 16  5  1  0  0  0  0
 17 16  2  0  0  0  0
 17  4  1  0  0  0  0
 18 20  1  0  0  0  0
 19 18  1  0  0  0  0
 20 22  2  0  0  0  0
 20 21  1  0  0  0  0
 22 23  1  0  0  0  0
M  END
