4,5
 OpenBabel05122313053D

 31 32  0  0  1  0  0  0  0  0999 V2000
   -0.5793    5.1434   -0.6657 O   0  0  0  0  0  0  0  0  0  0  0  0
    0.7378    2.7624    3.3854 O   0  0  0  0  0  0  0  0  0  0  0  0
    0.1868    3.2761    2.7651 H   0  0  0  0  0  0  0  0  0  0  0  0
    0.6549    1.4165    0.7749 N   0  0  0  0  0  2  0  0  0  0  0  0
   -1.3536    1.5983   -1.0151 N   0  0  0  0  0  2  0  0  0  0  0  0
   -0.7456    2.7584   -0.6033 C   0  0  0  0  0  0  0  0  0  0  0  0
   -1.1393    4.1025   -1.0649 C   0  0  0  0  0  0  0  0  0  0  0  0
   -2.2435    4.0732   -2.0263 C   0  0  0  0  0  3  0  0  0  0  0  0
   -2.5882    5.0417   -2.4201 H   0  0  0  0  0  0  0  0  0  0  0  0
   -2.8252    2.8814   -2.4113 C   0  0  0  0  0  0  0  0  0  0  0  0
   -3.6593    2.8672   -3.1305 H   0  0  0  0  0  0  0  0  0  0  0  0
   -2.3641    1.6405   -1.8874 C   0  0  0  0  0  0  0  0  0  0  0  0
   -2.8134    0.6785   -2.1747 H   0  0  0  0  0  0  0  0  0  0  0  0
    0.3177    2.6102    0.3340 C   0  0  0  0  0  0  0  0  0  0  0  0
    0.8161    3.5454    0.6532 H   0  0  0  0  0  0  0  0  0  0  0  0
    1.7312    1.2134    1.7418 C   0  0  2  0  0  0  0  0  0  0  0  0
    1.4163    0.3476    2.3620 H   0  0  0  0  0  0  0  0  0  0  0  0
    1.9281    2.4063    2.7030 C   0  0  0  0  0  0  0  0  0  0  0  0
    2.6674    2.0977    3.4699 H   0  0  0  0  0  0  0  0  0  0  0  0
    2.3782    3.2706    2.1610 H   0  0  0  0  0  0  0  0  0  0  0  0
    3.0351    0.8274    1.0588 C   0  0  0  0  0  0  0  0  0  0  0  0
    3.8123   -0.2262    1.5755 C   0  0  0  0  0  0  0  0  0  0  0  0
    3.4401   -0.7975    2.4403 H   0  0  0  0  0  0  0  0  0  0  0  0
    5.0292   -0.5784    0.9739 C   0  0  0  0  0  0  0  0  0  0  0  0
    5.6184   -1.4129    1.3837 H   0  0  0  0  0  0  0  0  0  0  0  0
    5.4837    0.1196   -0.1562 C   0  0  0  0  0  0  0  0  0  0  0  0
    6.4355   -0.1597   -0.6335 H   0  0  0  0  0  0  0  0  0  0  0  0
    4.7139    1.1711   -0.6796 C   0  0  0  0  0  0  0  0  0  0  0  0
    5.0574    1.7172   -1.5712 H   0  0  0  0  0  0  0  0  0  0  0  0
    3.4978    1.5220   -0.0760 C   0  0  0  0  0  0  0  0  0  0  0  0
    2.8908    2.3324   -0.5074 H   0  0  0  0  0  0  0  0  0  0  0  0
  3  2  1  0  0  0  0
  4 16  1  0  0  0  0
  5  6  1  0  0  0  0
  6 14  2  0  0  0  0
  7  1  2  0  0  0  0
  7  6  1  0  0  0  0
  8  7  1  0  0  0  0
  9  8  1  0  0  0  0
 10  8  1  0  0  0  0
 10 12  2  0  0  0  0
 11 10  1  0  0  0  0
 12  5  1  0  0  0  0
 13 12  1  0  0  0  0
 14 15  1  0  0  0  0
 14  4  1  0  0  0  0
 16 17  1  1  0  0  0
 16 18  1  0  0  0  0
 18  2  1  0  0  0  0
 18 19  1  0  0  0  0
 20 18  1  0  0  0  0
 21 22  1  0  0  0  0
 21 16  1  0  0  0  0
 22 23  1  0  0  0  0
 24 25  1  0  0  0  0
 24 22  2  0  0  0  0
 26 24  1  0  0  0  0
 27 26  1  0  0  0  0
 28 26  2  0  0  0  0
 28 30  1  0  0  0  0
 29 28  1  0  0  0  0
 30 21  2  0  0  0  0
 31 30  1  0  0  0  0
M  END
