1,5
 OpenBabel05122313053D

 65 70  0  0  1  0  0  0  0  0999 V2000
    0.1294    1.9705   -0.8849 N   0  0  0  0  0  2  0  0  0  0  0  0
   -0.8647    2.7724   -0.4317 N   0  0  0  0  0  0  0  0  0  0  0  0
   -1.0039    1.6005    1.8487 N   0  0  0  0  0  0  0  0  0  0  0  0
   -3.0702    1.6318    0.3475 N   0  0  0  0  0  0  0  0  0  0  0  0
   -0.3788    0.4146    1.6013 N   0  0  0  0  0  2  0  0  0  0  0  0
   -3.0249    0.3796   -0.1747 N   0  0  0  0  0  0  0  0  0  0  0  0
   -0.8541    3.9558   -1.1222 C   0  0  1  0  0  3  0  0  0  0  0  0
    0.7894    2.6262   -1.8639 C   0  0  0  0  0  0  0  0  0  0  0  0
   -0.9171    1.8983    3.1825 C   0  0  2  0  0  3  0  0  0  0  0  0
   -4.3718    1.9898    0.6172 C   0  0  0  0  0  0  0  0  0  0  0  0
   -5.1814    0.9172    0.2420 C   0  0  0  0  0  0  0  0  0  0  0  0
   -6.2698    0.8561    0.3410 H   0  0  0  0  0  0  0  0  0  0  0  0
    3.1571    2.6632   -2.6971 C   0  0  0  0  0  0  0  0  0  0  0  0
    3.2377    3.7115   -2.3706 H   0  0  0  0  0  0  0  0  0  0  0  0
    0.2024    3.9001   -2.0397 C   0  0  0  0  0  0  0  0  0  0  0  0
    0.4828    4.6682   -2.7672 H   0  0  0  0  0  0  0  0  0  0  0  0
   -4.5874   -1.4413   -0.7098 C   0  0  0  0  0  0  0  0  0  0  0  0
    0.8771   -1.3060    2.8345 C   0  0  0  0  0  0  0  0  0  0  0  0
   -0.1958    0.8704    3.8004 C   0  0  0  0  0  0  0  0  0  0  0  0
    0.0357    0.7781    4.8660 H   0  0  0  0  0  0  0  0  0  0  0  0
   -4.2910   -0.0790   -0.2388 C   0  0  0  0  0  0  0  0  0  0  0  0
    0.1183   -0.0459    2.7726 C   0  0  0  0  0  0  0  0  0  0  0  0
    2.9548   -0.0289   -3.4710 C   0  0  0  0  0  0  0  0  0  0  0  0
    2.8687   -1.0828   -3.7765 H   0  0  0  0  0  0  0  0  0  0  0  0
    1.8354    0.6321   -2.9459 C   0  0  0  0  0  0  0  0  0  0  0  0
    0.8677    0.1121   -2.8644 H   0  0  0  0  0  0  0  0  0  0  0  0
    1.9336    1.9796   -2.5311 C   0  0  0  0  0  0  0  0  0  0  0  0
    0.4367   -2.4482    2.1314 C   0  0  0  0  0  0  0  0  0  0  0  0
   -0.5005   -2.4094    1.5560 H   0  0  0  0  0  0  0  0  0  0  0  0
    4.2704    2.0008   -3.2329 C   0  0  0  0  0  0  0  0  0  0  0  0
    5.2242    2.5387   -3.3457 H   0  0  0  0  0  0  0  0  0  0  0  0
    1.1900   -3.6298    2.1508 C   0  0  0  0  0  0  0  0  0  0  0  0
    0.8398   -4.4995    1.5753 H   0  0  0  0  0  0  0  0  0  0  0  0
   -1.5299    3.1073    3.8122 C   0  0  0  0  0  0  0  0  0  0  0  0
   -1.1732    4.0460    3.3437 H   0  0  0  0  0  0  0  0  0  0  0  0
   -1.2721    3.1358    4.8871 H   0  0  0  0  0  0  0  0  0  0  0  0
   -2.6355    3.1007    3.7269 H   0  0  0  0  0  0  0  0  0  0  0  0
    2.0764   -1.3804    3.5771 C   0  0  0  0  0  0  0  0  0  0  0  0
    2.4312   -0.4885    4.1161 H   0  0  0  0  0  0  0  0  0  0  0  0
   -3.6088   -2.4582   -0.6282 C   0  0  0  0  0  0  0  0  0  0  0  0
   -2.6195   -2.2254   -0.2101 H   0  0  0  0  0  0  0  0  0  0  0  0
   -1.8466    5.0486   -0.8950 C   0  0  0  0  0  0  0  0  0  0  0  0
   -2.8802    4.7094   -1.1127 H   0  0  0  0  0  0  0  0  0  0  0  0
   -1.6222    5.9041   -1.5584 H   0  0  0  0  0  0  0  0  0  0  0  0
   -1.8356    5.4075    0.1540 H   0  0  0  0  0  0  0  0  0  0  0  0
    4.1759    0.6500   -3.6092 C   0  0  0  0  0  0  0  0  0  0  0  0
    5.0547    0.1281   -4.0172 H   0  0  0  0  0  0  0  0  0  0  0  0
   -4.7813    3.2942    1.2242 C   0  0  0  0  0  0  0  0  0  0  0  0
   -4.4044    3.4123    2.2610 H   0  0  0  0  0  0  0  0  0  0  0  0
   -5.8851    3.3546    1.2591 H   0  0  0  0  0  0  0  0  0  0  0  0
   -4.4098    4.1632    0.6452 H   0  0  0  0  0  0  0  0  0  0  0  0
   -5.8582   -1.7695   -1.2319 C   0  0  0  0  0  0  0  0  0  0  0  0
   -6.6278   -0.9870   -1.3149 H   0  0  0  0  0  0  0  0  0  0  0  0
    2.3903   -3.6881    2.8758 C   0  0  0  0  0  0  0  0  0  0  0  0
    2.9890   -4.6112    2.8760 H   0  0  0  0  0  0  0  0  0  0  0  0
    2.8276   -2.5632    3.5951 C   0  0  0  0  0  0  0  0  0  0  0  0
    3.7693   -2.6040    4.1636 H   0  0  0  0  0  0  0  0  0  0  0  0
   -6.1371   -3.0724   -1.6663 C   0  0  0  0  0  0  0  0  0  0  0  0
   -7.1313   -3.3092   -2.0756 H   0  0  0  0  0  0  0  0  0  0  0  0
   -5.1512   -4.0704   -1.5924 C   0  0  0  0  0  0  0  0  0  0  0  0
   -5.3704   -5.0917   -1.9392 H   0  0  0  0  0  0  0  0  0  0  0  0
   -3.8844   -3.7564   -1.0738 C   0  0  0  0  0  0  0  0  0  0  0  0
   -3.0985   -4.5243   -1.0083 H   0  0  0  0  0  0  0  0  0  0  0  0
   -1.7902    2.3985    0.7661 B   0  0  2  0  0  0  0  0  0  0  0  0
   -2.1444    3.4424    1.2773 H   0  0  0  0  0  0  0  0  0  0  0  0
  1  2  1  0  0  0  0
  2 64  1  0  0  0  0
  3  9  1  0  0  0  0
  4 10  1  0  0  0  0
  4 64  1  0  0  0  0
  5  3  1  0  0  0  0
  5 22  1  0  0  0  0
  6  4  1  0  0  0  0
  7 42  1  6  0  0  0
  7  2  1  0  0  0  0
  8  1  1  0  0  0  0
  9 19  1  0  0  0  0
  9 34  1  1  0  0  0
 10 48  1  0  0  0  0
 11 12  1  0  0  0  0
 11 10  2  0  0  0  0
 13 27  1  0  0  0  0
 13 14  1  0  0  0  0
 15  8  2  0  0  0  0
 15  7  1  0  0  0  0
 16 15  1  0  0  0  0
 17 40  1  0  0  0  0
 17 21  1  0  0  0  0
 18 38  1  0  0  0  0
 19 20  1  0  0  0  0
 21  6  2  0  0  0  0
 21 11  1  0  0  0  0
 22 18  1  0  0  0  0
 22 19  2  0  0  0  0
 23 25  1  0  0  0  0
 24 23  1  0  0  0  0
 25 26  1  0  0  0  0
 25 27  2  0  0  0  0
 27  8  1  0  0  0  0
 28 32  1  0  0  0  0
 28 18  2  0  0  0  0
 29 28  1  0  0  0  0
 30 13  2  0  0  0  0
 31 30  1  0  0  0  0
 32 54  2  0  0  0  0
 33 32  1  0  0  0  0
 34 36  1  0  0  0  0
 35 34  1  0  0  0  0
 37 34  1  0  0  0  0
 38 56  2  0  0  0  0
 38 39  1  0  0  0  0
 40 41  1  0  0  0  0
 42 45  1  0  0  0  0
 43 42  1  0  0  0  0
 44 42  1  0  0  0  0
 46 23  2  0  0  0  0
 46 30  1  0  0  0  0
 47 46  1  0  0  0  0
 48 50  1  0  0  0  0
 48 49  1  0  0  0  0
 51 48  1  0  0  0  0
 52 17  2  0  0  0  0
 53 52  1  0  0  0  0
 54 55  1  0  0  0  0
 54 56  1  0  0  0  0
 56 57  1  0  0  0  0
 58 60  2  0  0  0  0
 58 52  1  0  0  0  0
 59 58  1  0  0  0  0
 60 62  1  0  0  0  0
 61 60  1  0  0  0  0
 62 63  1  0  0  0  0
 62 40  2  0  0  0  0
 64 65  1  1  0  0  0
 64  3  1  0  0  0  0
M  END
