1,4
 OpenBabel05122313053D

 60 62  0  0  0  0  0  0  0  0999 V2000
   -0.9897   -1.2661    0.1264 N   0  0  0  0  0  2  0  0  0  0  0  0
   -1.9274   -3.1910    1.0897 N   0  0  0  0  0  0  0  0  0  0  0  0
   -0.6323   -3.3864   -0.8584 N   0  0  0  0  0  0  0  0  0  0  0  0
   -0.9894    1.2664   -0.1270 N   0  0  0  0  0  2  0  0  0  0  0  0
   -1.9260    3.1932   -1.0875 N   0  0  0  0  0  0  0  0  0  0  0  0
   -0.6316    3.3849    0.8615 N   0  0  0  0  0  0  0  0  0  0  0  0
    3.8946    1.4226   -0.1675 N   0  0  0  0  0  0  0  0  0  0  0  0
    3.8945   -1.4230    0.1666 N   0  0  0  0  0  0  0  0  0  0  0  0
    0.2938   -0.7259    0.0527 C   0  0  0  0  0  0  0  0  0  0  0  0
    0.2939    0.7258   -0.0535 C   0  0  0  0  0  0  0  0  0  0  0  0
    1.4989    1.4146   -0.1494 C   0  0  0  0  0  0  0  0  0  0  0  0
    1.5416    2.5037   -0.2844 H   0  0  0  0  0  0  0  0  0  0  0  0
    2.7477    0.7268   -0.0832 C   0  0  0  0  0  0  0  0  0  0  0  0
    5.0491    0.7218   -0.0863 C   0  0  0  0  0  0  0  0  0  0  0  0
    6.3009    1.4073   -0.1692 C   0  0  0  0  0  0  0  0  0  0  0  0
    6.2701    2.4992   -0.3003 H   0  0  0  0  0  0  0  0  0  0  0  0
    7.4933    0.7080   -0.0857 C   0  0  0  0  0  0  0  0  0  0  0  0
    8.4520    1.2451   -0.1505 H   0  0  0  0  0  0  0  0  0  0  0  0
    7.4932   -0.7088    0.0848 C   0  0  0  0  0  0  0  0  0  0  0  0
    8.4519   -1.2460    0.1496 H   0  0  0  0  0  0  0  0  0  0  0  0
    6.3007   -1.4079    0.1683 C   0  0  0  0  0  0  0  0  0  0  0  0
    6.2698   -2.4998    0.2994 H   0  0  0  0  0  0  0  0  0  0  0  0
    5.0490   -0.7223    0.0855 C   0  0  0  0  0  0  0  0  0  0  0  0
    2.7476   -0.7270    0.0824 C   0  0  0  0  0  0  0  0  0  0  0  0
    1.4987   -1.4148    0.1485 C   0  0  0  0  0  0  0  0  0  0  0  0
    1.5415   -2.5038    0.2836 H   0  0  0  0  0  0  0  0  0  0  0  0
   -1.1843   -2.6080    0.1191 C   0  0  0  0  0  3  0  0  0  0  0  0
   -2.2650   -2.4301    2.2866 C   0  0  0  0  0  0  0  0  0  0  0  0
   -1.4424   -1.7379    2.5371 H   0  0  0  0  0  0  0  0  0  0  0  0
   -2.4229   -3.1367    3.1258 H   0  0  0  0  0  0  0  0  0  0  0  0
   -3.1896   -1.8380    2.1082 H   0  0  0  0  0  0  0  0  0  0  0  0
   -2.8188   -4.3117    0.8065 C   0  0  0  0  0  0  0  0  0  0  0  0
   -2.7319   -4.6072   -0.2522 H   0  0  0  0  0  0  0  0  0  0  0  0
   -3.8629   -3.9714    0.9641 H   0  0  0  0  0  0  0  0  0  0  0  0
   -2.5999   -5.1811    1.4615 H   0  0  0  0  0  0  0  0  0  0  0  0
   -0.3423   -2.8050   -2.1600 C   0  0  0  0  0  0  0  0  0  0  0  0
   -0.9955   -1.9262   -2.3112 H   0  0  0  0  0  0  0  0  0  0  0  0
   -0.5594   -3.5559   -2.9466 H   0  0  0  0  0  0  0  0  0  0  0  0
    0.7216   -2.4894   -2.2444 H   0  0  0  0  0  0  0  0  0  0  0  0
   -0.1409   -4.7335   -0.6192 C   0  0  0  0  0  0  0  0  0  0  0  0
   -0.1988   -4.9684    0.4587 H   0  0  0  0  0  0  0  0  0  0  0  0
    0.9243   -4.7960   -0.9326 H   0  0  0  0  0  0  0  0  0  0  0  0
   -0.7130   -5.4996   -1.1860 H   0  0  0  0  0  0  0  0  0  0  0  0
   -1.1835    2.6084   -0.1175 C   0  0  0  0  0  3  0  0  0  0  0  0
   -2.2630    2.4348   -2.2860 C   0  0  0  0  0  0  0  0  0  0  0  0
   -1.4408    1.7422   -2.5368 H   0  0  0  0  0  0  0  0  0  0  0  0
   -2.4194    3.1429   -3.1241 H   0  0  0  0  0  0  0  0  0  0  0  0
   -3.1884    1.8432   -2.1096 H   0  0  0  0  0  0  0  0  0  0  0  0
   -2.8169    4.3139   -0.8029 C   0  0  0  0  0  0  0  0  0  0  0  0
   -2.7309    4.6072    0.2566 H   0  0  0  0  0  0  0  0  0  0  0  0
   -3.8611    3.9746   -0.9622 H   0  0  0  0  0  0  0  0  0  0  0  0
   -2.5969    5.1846   -1.4558 H   0  0  0  0  0  0  0  0  0  0  0  0
   -0.3415    2.8010    2.1619 C   0  0  0  0  0  0  0  0  0  0  0  0
   -0.9949    1.9221    2.3116 H   0  0  0  0  0  0  0  0  0  0  0  0
   -0.5583    3.5505    2.9500 H   0  0  0  0  0  0  0  0  0  0  0  0
    0.7222    2.4849    2.2456 H   0  0  0  0  0  0  0  0  0  0  0  0
   -0.1391    4.7321    0.6246 C   0  0  0  0  0  0  0  0  0  0  0  0
   -0.1968    4.9688   -0.4530 H   0  0  0  0  0  0  0  0  0  0  0  0
    0.9262    4.7932    0.9381 H   0  0  0  0  0  0  0  0  0  0  0  0
   -0.7107    5.4976    1.1927 H   0  0  0  0  0  0  0  0  0  0  0  0
  2 28  1  0  0  0  0
  3 40  1  0  0  0  0
  3 27  1  0  0  0  0
  4 44  1  0  0  0  0
  4 10  1  0  0  0  0
  5 49  1  0  0  0  0
  5 44  1  0  0  0  0
  6 53  1  0  0  0  0
  7 14  2  0  0  0  0
  7 13  1  0  0  0  0
  9  1  1  0  0  0  0
  9 25  1  0  0  0  0
 10  9  2  0  0  0  0
 11 13  2  0  0  0  0
 11 10  1  0  0  0  0
 12 11  1  0  0  0  0
 13 24  1  0  0  0  0
 14 23  1  0  0  0  0
 15 14  1  0  0  0  0
 15 17  2  0  0  0  0
 16 15  1  0  0  0  0
 17 19  1  0  0  0  0
 18 17  1  0  0  0  0
 19 20  1  0  0  0  0
 19 21  2  0  0  0  0
 21 22  1  0  0  0  0
 23  8  2  0  0  0  0
 23 21  1  0  0  0  0
 24 25  2  0  0  0  0
 24  8  1  0  0  0  0
 25 26  1  0  0  0  0
 27  1  1  0  0  0  0
 27  2  1  0  0  0  0
 28 29  1  0  0  0  0
 28 30  1  0  0  0  0
 31 28  1  0  0  0  0
 32 34  1  0  0  0  0
 32  2  1  0  0  0  0
 32 35  1  0  0  0  0
 33 32  1  0  0  0  0
 36  3  1  0  0  0  0
 37 36  1  0  0  0  0
 38 36  1  0  0  0  0
 39 36  1  0  0  0  0
 40 41  1  0  0  0  0
 42 40  1  0  0  0  0
 43 40  1  0  0  0  0
 44  6  1  0  0  0  0
 45 48  1  0  0  0  0
 45  5  1  0  0  0  0
 46 45  1  0  0  0  0
 47 45  1  0  0  0  0
 49 50  1  0  0  0  0
 51 49  1  0  0  0  0
 52 49  1  0  0  0  0
 53 56  1  0  0  0  0
 53 54  1  0  0  0  0
 53 55  1  0  0  0  0
 57  6  1  0  0  0  0
 57 59  1  0  0  0  0
 57 60  1  0  0  0  0
 58 57  1  0  0  0  0
M  END
