2,3
 OpenBabel05122313053D

 14 16  0  0  1  0  0  0  0  0999 V2000
   -1.4927   -2.9748   -0.0265 O   0  0  0  0  0  0  0  0  0  0  0  0
   -1.8684   -0.6888    0.0193 N   0  0  0  0  0  2  0  0  0  0  0  0
   -0.8721    2.0524   -0.0636 N   0  0  0  0  0  2  0  0  0  0  0  0
   -2.4016   -1.9277    0.1026 C   0  0  1  0  0  3  0  0  0  0  0  0
   -3.7716   -2.2355    0.2916 C   0  0  0  0  0  3  0  0  0  0  0  0
   -4.3353   -1.0540    0.3571 C   0  0  0  0  0  3  0  0  0  0  0  0
   -4.1348    0.2434    0.3109 C   0  0  0  0  0  3  0  0  0  0  0  0
   -2.7367    0.3773    0.1285 C   0  0  0  0  0  0  0  0  0  0  0  0
   -0.8741    3.3730   -0.0945 C   0  0  1  0  0  3  0  0  0  0  0  0
   -1.1544    4.6920   -0.1083 C   0  0  0  0  0  2  0  0  0  0  0  0
   -2.3505    3.9779    0.0207 C   0  0  1  0  0  3  0  0  0  0  0  0
   -3.0684    2.8840    0.1123 C   0  0  0  0  0  3  0  0  0  0  0  0
   -2.2275    1.7416    0.0615 C   0  0  0  0  0  0  0  0  0  0  0  0
   -2.0197   -3.8014    0.0242 H   0  0  0  0  0  0  0  0  0  0  0  0
  1 14  1  0  0  0  0
  2  4  1  0  0  0  0
  2  8  1  0  0  0  0
  3 13  1  0  0  0  0
  4  1  1  6  0  0  0
  4  5  1  0  0  0  0
  5  6  2  0  0  0  0
  7  6  1  0  0  0  0
  8  7  2  0  0  0  0
  9 10  1  6  0  0  0
  9  3  1  0  0  0  0
  9 11  1  0  0  0  0
 11 10  1  6  0  0  0
 11 12  1  0  0  0  0
 13 12  2  0  0  0  0
 13  8  1  0  0  0  0
M  END
