1,2
 OpenBabel05122313053D

 24 25  0  0  0  0  0  0  0  0999 V2000
   -0.8645    1.6032    0.1854 N   0  0  0  0  0  2  0  0  0  0  0  0
    0.8707   -0.4037    0.1974 N   0  0  0  0  0  2  0  0  0  0  0  0
    1.6980   -1.4674    0.2341 C   0  0  0  0  0  3  0  0  0  0  0  0
    3.0872   -1.3614    0.1780 C   0  0  0  0  0  0  0  0  0  0  0  0
   -1.8122    2.5644    0.2220 C   0  0  0  0  0  3  0  0  0  0  0  0
   -0.1579    4.3103    0.0862 C   0  0  0  0  0  0  0  0  0  0  0  0
    3.6717   -0.0797    0.0773 C   0  0  0  0  0  0  0  0  0  0  0  0
    2.8032    1.0320    0.0476 C   0  0  0  0  0  0  0  0  0  0  0  0
    1.4166    0.8460    0.1043 C   0  0  0  0  0  0  0  0  0  0  0  0
    0.8251    3.3178    0.0549 C   0  0  0  0  0  0  0  0  0  0  0  0
   -1.5046    3.9259    0.1745 C   0  0  0  0  0  0  0  0  0  0  0  0
    0.4498    1.9624    0.1029 C   0  0  0  0  0  0  0  0  0  0  0  0
    5.3954    0.2447   -0.0124 S   0  0  0  0  0  0  0  0  0  0  0  0
    6.1340   -1.4112    0.0258 C   0  0  0  0  0  0  0  0  0  0  0  0
   -2.8517    2.2119    0.2808 H   0  0  0  0  0  0  0  0  0  0  0  0
    1.8851    3.5950   -0.0109 H   0  0  0  0  0  0  0  0  0  0  0  0
    0.1239    5.3724    0.0423 H   0  0  0  0  0  0  0  0  0  0  0  0
   -2.3150    4.6675    0.2012 H   0  0  0  0  0  0  0  0  0  0  0  0
    1.2136   -2.4522    0.3013 H   0  0  0  0  0  0  0  0  0  0  0  0
    3.2220    2.0445   -0.0285 H   0  0  0  0  0  0  0  0  0  0  0  0
    3.6886   -2.2782    0.2078 H   0  0  0  0  0  0  0  0  0  0  0  0
    5.8118   -2.0190   -0.8421 H   0  0  0  0  0  0  0  0  0  0  0  0
    7.2259   -1.2457   -0.0390 H   0  0  0  0  0  0  0  0  0  0  0  0
    5.9075   -1.9371    0.9739 H   0  0  0  0  0  0  0  0  0  0  0  0
  1  5  1  0  0  0  0
  2  3  1  0  0  0  0
  3 19  1  0  0  0  0
  4 21  1  0  0  0  0
  4  3  1  0  0  0  0
  5 15  1  0  0  0  0
  6 11  2  0  0  0  0
  7  4  2  0  0  0  0
  8  7  1  0  0  0  0
  8  9  2  0  0  0  0
  9  2  1  0  0  0  0
 10  6  1  0  0  0  0
 10 12  2  0  0  0  0
 11 18  1  0  0  0  0
 11  5  1  0  0  0  0
 12  9  1  0  0  0  0
 12  1  1  0  0  0  0
 13 14  1  0  0  0  0
 13  7  1  0  0  0  0
 14 24  1  0  0  0  0
 16 10  1  0  0  0  0
 17  6  1  0  0  0  0
 20  8  1  0  0  0  0
 22 14  1  0  0  0  0
 23 14  1  0  0  0  0
M  END
