3,4
 OpenBabel05122313053D

 26 28  0  0  0  0  0  0  0  0999 V2000
    4.6312   -0.8831    1.0421 O   0  0  0  0  0  0  0  0  0  0  0  0
    4.8393    1.5334   -0.2814 O   0  0  0  0  0  0  0  0  0  0  0  0
    1.2352   -1.1759   -0.2605 N   0  0  0  0  0  2  0  0  0  0  0  0
    1.1660    1.4182    0.0101 N   0  0  0  0  0  2  0  0  0  0  0  0
    1.0860   -2.5142   -0.2910 C   0  0  0  0  0  0  0  0  0  0  0  0
    0.1016   -2.8824   -0.6087 H   0  0  0  0  0  0  0  0  0  0  0  0
    2.1259   -3.3739    0.0736 C   0  0  0  0  0  0  0  0  0  0  0  0
    1.9671   -4.4607    0.0477 H   0  0  0  0  0  0  0  0  0  0  0  0
    3.3293   -2.8190    0.5168 C   0  0  0  0  0  0  0  0  0  0  0  0
    4.1568   -3.4415    0.8874 H   0  0  0  0  0  0  0  0  0  0  0  0
    3.4887   -1.4240    0.5219 C   0  0  0  0  0  0  0  0  0  0  0  0
    2.4363   -0.5940    0.0623 C   0  0  0  0  0  0  0  0  0  0  0  0
    2.4382    0.8870    0.0126 C   0  0  0  0  0  0  0  0  0  0  0  0
    3.5382    1.7961   -0.0221 C   0  0  0  0  0  0  0  0  0  0  0  0
    3.2786    3.1714    0.1871 C   0  0  0  0  0  0  0  0  0  0  0  0
    4.1459    3.8467    0.2100 H   0  0  0  0  0  0  0  0  0  0  0  0
    1.9749    3.6392    0.2972 C   0  0  0  0  0  0  0  0  0  0  0  0
    1.7612    4.7069    0.4449 H   0  0  0  0  0  0  0  0  0  0  0  0
    0.9199    2.7280    0.1479 C   0  0  0  0  0  0  0  0  0  0  0  0
   -0.1448    3.0122    0.1227 H   0  0  0  0  0  0  0  0  0  0  0  0
    5.6817   -0.6796    0.0963 C   0  0  0  0  0  0  0  0  0  0  0  0
    5.9835   -1.6353   -0.3919 H   0  0  0  0  0  0  0  0  0  0  0  0
    6.5376   -0.2942    0.6827 H   0  0  0  0  0  0  0  0  0  0  0  0
    5.2536    0.3395   -0.9425 C   0  0  0  0  0  0  0  0  0  0  0  0
    6.1106    0.6167   -1.5897 H   0  0  0  0  0  0  0  0  0  0  0  0
    4.4423   -0.0445   -1.5983 H   0  0  0  0  0  0  0  0  0  0  0  0
  2 14  1  0  0  0  0
  3 12  1  0  0  0  0
  4 13  1  0  0  0  0
  4 19  1  0  0  0  0
  5  3  1  0  0  0  0
  5  7  2  0  0  0  0
  6  5  1  0  0  0  0
  7  9  1  0  0  0  0
  8  7  1  0  0  0  0
  9 11  2  0  0  0  0
  9 10  1  0  0  0  0
 11  1  1  0  0  0  0
 12 11  1  0  0  0  0
 13 12  2  0  0  0  0
 14 13  1  0  0  0  0
 14 15  2  0  0  0  0
 15 16  1  0  0  0  0
 15 17  1  0  0  0  0
 17 18  1  0  0  0  0
 19 17  2  0  0  0  0
 20 19  1  0  0  0  0
 21 23  1  0  0  0  0
 21  1  1  0  0  0  0
 22 21  1  0  0  0  0
 24  2  1  0  0  0  0
 24 21  1  0  0  0  0
 25 24  1  0  0  0  0
 26 24  1  0  0  0  0
M  END
