3,4
 OpenBabel05122313053D

 41 43  0  0  1  0  0  0  0  0999 V2000
    1.1487   -3.0961    0.4000 O   0  0  0  0  0  0  0  0  0  0  0  0
    2.0246   -2.9049    0.0039 H   0  0  0  0  0  0  0  0  0  0  0  0
    0.0115    0.2096    1.5027 N   0  0  0  0  0  2  0  0  0  0  0  0
   -2.0257   -1.3309    0.2950 N   0  0  0  0  0  2  0  0  0  0  0  0
    0.3813   -1.9142    0.2419 C   0  0  2  0  0  0  0  0  0  0  0  0
    0.7100   -0.9457    1.3994 C   0  0  1  0  0  3  0  0  0  0  0  0
    1.7162   -1.2540    2.3258 C   0  0  0  0  0  0  0  0  0  0  0  0
    2.2462   -2.2085    2.2257 H   0  0  0  0  0  0  0  0  0  0  0  0
    2.0113   -0.3491    3.3528 C   0  0  0  0  0  0  0  0  0  0  0  0
    2.8064   -0.5763    4.0787 H   0  0  0  0  0  0  0  0  0  0  0  0
    1.2741    0.8386    3.4437 C   0  0  0  0  0  0  0  0  0  0  0  0
    1.4583    1.5738    4.2395 H   0  0  0  0  0  0  0  0  0  0  0  0
    0.2710    1.0874    2.5030 C   0  0  0  0  0  0  0  0  0  0  0  0
   -0.3782    1.9819    2.5210 H   0  0  0  0  0  0  0  0  0  0  0  0
   -1.0950   -2.3160    0.3193 C   0  0  2  0  0  3  0  0  0  0  0  0
   -1.4763   -3.6639    0.3798 C   0  0  0  0  0  0  0  0  0  0  0  0
   -0.6869   -4.4253    0.3925 H   0  0  0  0  0  0  0  0  0  0  0  0
   -2.8375   -3.9912    0.4128 C   0  0  0  0  0  0  0  0  0  0  0  0
   -3.1532   -5.0441    0.4612 H   0  0  0  0  0  0  0  0  0  0  0  0
   -3.7873   -2.9607    0.3755 C   0  0  0  0  0  0  0  0  0  0  0  0
   -4.8662   -3.1692    0.3908 H   0  0  0  0  0  0  0  0  0  0  0  0
   -3.3426   -1.6382    0.3123 C   0  0  0  0  0  0  0  0  0  0  0  0
   -4.0257   -0.7784    0.2458 H   0  0  0  0  0  0  0  0  0  0  0  0
    0.6849   -1.2901   -1.1669 C   0  0  0  0  0  0  0  0  0  0  0  0
    0.5635   -2.1261   -1.8856 H   0  0  0  0  0  0  0  0  0  0  0  0
   -0.0882   -0.5380   -1.4370 H   0  0  0  0  0  0  0  0  0  0  0  0
    2.0732   -0.7158   -1.2155 C   0  0  0  0  0  0  0  0  0  0  0  0
    3.1920   -1.5343   -1.4959 C   0  0  0  0  0  0  0  0  0  0  0  0
    3.0337   -2.5778   -1.8202 H   0  0  0  0  0  0  0  0  0  0  0  0
    4.4967   -1.0329   -1.4254 C   0  0  0  0  0  0  0  0  0  0  0  0
    5.3424   -1.6970   -1.6586 H   0  0  0  0  0  0  0  0  0  0  0  0
    4.7352    0.3173   -1.0802 C   0  0  0  0  0  0  0  0  0  0  0  0
    3.6093    1.1383   -0.8303 C   0  0  0  0  0  0  0  0  0  0  0  0
    3.7696    2.1994   -0.5814 H   0  0  0  0  0  0  0  0  0  0  0  0
    2.3044    0.6387   -0.8928 C   0  0  0  0  0  0  0  0  0  0  0  0
    1.4487    1.3054   -0.6961 H   0  0  0  0  0  0  0  0  0  0  0  0
    6.0834    0.8982   -0.9860 C   0  0  0  0  0  0  0  0  0  0  0  0
    6.1014    1.9738   -0.7358 H   0  0  0  0  0  0  0  0  0  0  0  0
    7.2637    0.2680   -1.1669 C   0  0  0  0  0  0  0  0  0  0  0  0
    7.3306   -0.8027   -1.4177 H   0  0  0  0  0  0  0  0  0  0  0  0
    8.2150    0.8117   -1.0698 H   0  0  0  0  0  0  0  0  0  0  0  0
  2  1  1  0  0  0  0
  3 13  1  0  0  0  0
  4 22  1  0  0  0  0
  4 15  1  0  0  0  0
  5  1  1  1  0  0  0
  6  5  1  6  0  0  0
  6  3  1  0  0  0  0
  6  7  1  0  0  0  0
  7  9  2  0  0  0  0
  8  7  1  0  0  0  0
  9 11  1  0  0  0  0
  9 10  1  0  0  0  0
 11 12  1  0  0  0  0
 13 14  1  0  0  0  0
 13 11  2  0  0  0  0
 15  5  1  6  0  0  0
 15 16  1  0  0  0  0
 16 17  1  0  0  0  0
 16 18  2  0  0  0  0
 18 19  1  0  0  0  0
 20 21  1  0  0  0  0
 20 18  1  0  0  0  0
 22 20  2  0  0  0  0
 23 22  1  0  0  0  0
 24  5  1  0  0  0  0
 25 24  1  0  0  0  0
 26 24  1  0  0  0  0
 27 24  1  0  0  0  0
 27 35  1  0  0  0  0
 28 30  1  0  0  0  0
 28 27  2  0  0  0  0
 29 28  1  0  0  0  0
 30 32  2  0  0  0  0
 31 30  1  0  0  0  0
 32 37  1  0  0  0  0
 32 33  1  0  0  0  0
 33 34  1  0  0  0  0
 35 33  2  0  0  0  0
 35 36  1  0  0  0  0
 37 38  1  0  0  0  0
 39 41  1  0  0  0  0
 39 37  2  0  0  0  0
 40 39  1  0  0  0  0
M  END
