2,3
 OpenBabel05122313053D

 40 42  0  0  1  0  0  0  0  0999 V2000
    2.1176    1.1093   -0.2863 N   0  0  0  0  0  0  0  0  0  0  0  0
    0.7131   -0.5755   -0.8183 N   0  0  0  0  0  2  0  0  0  0  0  0
   -1.5013    0.8360   -0.5139 N   0  0  0  0  0  2  0  0  0  0  0  0
   -0.3833    1.5686   -0.7129 C   0  0  1  0  0  3  0  0  0  0  0  0
    2.8723   -0.0696   -0.2788 C   0  0  0  0  0  0  0  0  0  0  0  0
    0.8302    0.7376   -0.6233 C   0  0  1  0  0  3  0  0  0  0  0  0
    1.9609   -1.1150   -0.6120 C   0  0  0  0  0  0  0  0  0  0  0  0
    2.3646   -2.4629   -0.6592 C   0  0  0  0  0  0  0  0  0  0  0  0
    1.6190   -3.2412   -0.8798 H   0  0  0  0  0  0  0  0  0  0  0  0
   -0.4724    2.9421   -1.0056 C   0  0  0  0  0  0  0  0  0  0  0  0
    0.4206    3.5319   -1.2521 H   0  0  0  0  0  0  0  0  0  0  0  0
   -2.7139    1.3901   -0.5106 C   0  0  0  0  0  0  0  0  0  0  0  0
   -1.7450    3.5371   -1.0210 C   0  0  0  0  0  0  0  0  0  0  0  0
   -1.8442    4.6081   -1.2522 H   0  0  0  0  0  0  0  0  0  0  0  0
   -3.4151   -0.8526   -0.5241 O   0  0  0  0  0  0  0  0  0  0  0  0
   -2.8833    2.7662   -0.7528 C   0  0  0  0  0  0  0  0  0  0  0  0
   -3.8879    3.2141   -0.7483 H   0  0  0  0  0  0  0  0  0  0  0  0
    4.2225   -0.3501    0.0017 C   0  0  0  0  0  0  0  0  0  0  0  0
    4.9465    0.4327    0.2621 H   0  0  0  0  0  0  0  0  0  0  0  0
    3.7053   -2.7330   -0.3797 C   0  0  0  0  0  0  0  0  0  0  0  0
    4.0663   -3.7720   -0.3983 H   0  0  0  0  0  0  0  0  0  0  0  0
   -3.8528    0.4460   -0.1449 C   0  0  1  0  0  0  0  0  0  0  0  0
   -4.7526    0.7368   -0.7381 H   0  0  0  0  0  0  0  0  0  0  0  0
    2.7084    2.0658    1.9091 C   0  0  0  0  0  0  0  0  0  0  0  0
    1.8408    1.5118    2.3214 H   0  0  0  0  0  0  0  0  0  0  0  0
    2.8240    3.0171    2.4650 H   0  0  0  0  0  0  0  0  0  0  0  0
    3.6181    1.4573    2.0768 H   0  0  0  0  0  0  0  0  0  0  0  0
    2.4820    2.3576    0.4204 C   0  0  0  0  0  0  0  0  0  0  0  0
    1.5824    2.9968    0.3519 H   0  0  0  0  0  0  0  0  0  0  0  0
    4.6160   -1.6927   -0.0611 C   0  0  0  0  0  0  0  0  0  0  0  0
    5.6653   -1.9473    0.1507 H   0  0  0  0  0  0  0  0  0  0  0  0
   -4.1554    0.5367    1.3552 C   0  0  0  0  0  0  0  0  0  0  0  0
   -4.9753   -0.1630    1.6200 H   0  0  0  0  0  0  0  0  0  0  0  0
   -4.4799    1.5582    1.6368 H   0  0  0  0  0  0  0  0  0  0  0  0
   -3.2419    0.2717    1.9301 H   0  0  0  0  0  0  0  0  0  0  0  0
    3.6347    3.0889   -0.2698 C   0  0  0  0  0  0  0  0  0  0  0  0
    3.4049    3.2806   -1.3368 H   0  0  0  0  0  0  0  0  0  0  0  0
    4.5796    2.5136   -0.2240 H   0  0  0  0  0  0  0  0  0  0  0  0
    3.8122    4.0622    0.2285 H   0  0  0  0  0  0  0  0  0  0  0  0
   -3.9122   -1.5484   -0.0532 H   0  0  0  0  0  0  0  0  0  0  0  0
  1  5  1  0  0  0  0
  1 28  1  0  0  0  0
  2  7  1  0  0  0  0
  3 12  1  0  0  0  0
  4 10  1  6  0  0  0
  4  6  1  0  0  0  0
  4  3  1  0  0  0  0
  5 18  1  0  0  0  0
  6  2  1  1  0  0  0
  6  1  1  0  0  0  0
  7  5  2  0  0  0  0
  8  7  1  0  0  0  0
  8 20  2  0  0  0  0
  9  8  1  0  0  0  0
 11 10  1  0  0  0  0
 12 22  1  0  0  0  0
 13 10  2  0  0  0  0
 13 16  1  0  0  0  0
 14 13  1  0  0  0  0
 15 22  1  0  0  0  0
 15 40  1  0  0  0  0
 16 17  1  0  0  0  0
 16 12  2  0  0  0  0
 18 19  1  0  0  0  0
 20 30  1  0  0  0  0
 21 20  1  0  0  0  0
 22 23  1  6  0  0  0
 22 32  1  0  0  0  0
 24 27  1  0  0  0  0
 24 25  1  0  0  0  0
 24 26  1  0  0  0  0
 28 24  1  0  0  0  0
 29 28  1  0  0  0  0
 30 18  2  0  0  0  0
 30 31  1  0  0  0  0
 32 33  1  0  0  0  0
 32 34  1  0  0  0  0
 32 35  1  0  0  0  0
 36 38  1  0  0  0  0
 36 39  1  0  0  0  0
 36 28  1  0  0  0  0
 37 36  1  0  0  0  0
M  END
