3,4
 OpenBabel05122313053D

 22 21  0  0  0  0  0  0  0  0999 V2000
    0.0067   -2.7603    0.4115 O   0  0  0  0  0  1  0  0  0  0  0  0
    2.0478   -0.1583   -0.6826 O   0  0  0  0  0  0  0  0  0  0  0  0
    0.3344   -1.6290    0.1293 N   0  0  0  0  0  2  0  0  0  0  0  0
    1.1872    0.8267   -0.1328 N   0  0  0  0  0  2  0  0  0  0  0  0
    1.8713   -1.4153   -0.0517 C   0  0  0  0  0  0  0  0  0  0  0  0
    2.4061   -2.4646   -1.0069 C   0  0  0  0  0  0  0  0  0  0  0  0
    2.4696   -1.4504    1.3523 C   0  0  0  0  0  0  0  0  0  0  0  0
    3.2559    2.1081   -0.2735 C   0  0  0  0  0  0  0  0  0  0  0  0
    1.7946    1.9677    0.0474 C   0  0  0  0  0  3  0  0  0  0  0  0
    1.0540    3.1491    0.5721 C   0  0  0  0  0  0  0  0  0  0  0  0
    2.1826   -3.4690   -0.6029 H   0  0  0  0  0  0  0  0  0  0  0  0
    3.5009   -2.3501   -1.1181 H   0  0  0  0  0  0  0  0  0  0  0  0
    2.2304   -2.4164    1.8361 H   0  0  0  0  0  0  0  0  0  0  0  0
    3.8539    1.3390    0.2543 H   0  0  0  0  0  0  0  0  0  0  0  0
   -0.0088    2.9322    0.7798 H   0  0  0  0  0  0  0  0  0  0  0  0
    1.0992    3.9695   -0.1757 H   0  0  0  0  0  0  0  0  0  0  0  0
    1.9276   -2.3539   -1.9984 H   0  0  0  0  0  0  0  0  0  0  0  0
    2.0527   -0.6339    1.9738 H   0  0  0  0  0  0  0  0  0  0  0  0
    3.5694   -1.3395    1.2904 H   0  0  0  0  0  0  0  0  0  0  0  0
    3.6178    3.1139    0.0046 H   0  0  0  0  0  0  0  0  0  0  0  0
    1.5756    3.5193    1.4802 H   0  0  0  0  0  0  0  0  0  0  0  0
    3.4309    1.9469   -1.3571 H   0  0  0  0  0  0  0  0  0  0  0  0
  2  4  1  0  0  0  0
  2  5  1  0  0  0  0
  3  1  1  0  0  0  0
  4  9  1  0  0  0  0
  5  3  1  0  0  0  0
  5  7  1  0  0  0  0
  6 11  1  0  0  0  0
  6  5  1  0  0  0  0
  7 13  1  0  0  0  0
  7 18  1  0  0  0  0
  8 20  1  0  0  0  0
  8  9  1  0  0  0  0
  8 14  1  0  0  0  0
  9 10  1  0  0  0  0
 10 15  1  0  0  0  0
 10 21  1  0  0  0  0
 12  6  1  0  0  0  0
 16 10  1  0  0  0  0
 17  6  1  0  0  0  0
 19  7  1  0  0  0  0
 22  8  1  0  0  0  0
M  END
