1,3
 OpenBabel05122313053D

 35 36  0  0  1  0  0  0  0  0999 V2000
    1.3228    0.8550   -0.4183 N   0  0  0  0  0  0  0  0  0  0  0  0
    1.4640    0.9374   -1.4391 H   0  0  0  0  0  0  0  0  0  0  0  0
    1.2916   -1.8223    0.4132 N   0  0  0  0  0  0  0  0  0  0  0  0
    1.2927   -1.8927    1.4444 H   0  0  0  0  0  0  0  0  0  0  0  0
    1.1273   -2.7795    0.0616 H   0  0  0  0  0  0  0  0  0  0  0  0
    2.5718    0.2540    0.1573 C   0  0  2  0  0  0  0  0  0  0  0  0
    2.5143    0.4335    1.2545 H   0  0  0  0  0  0  0  0  0  0  0  0
    3.8660    0.8717   -0.3905 C   0  0  0  0  0  0  0  0  0  0  0  0
    3.8734    1.9660   -0.2148 H   0  0  0  0  0  0  0  0  0  0  0  0
    3.8862    0.7260   -1.4947 H   0  0  0  0  0  0  0  0  0  0  0  0
    5.1068    0.2229    0.2377 C   0  0  0  0  0  0  0  0  0  0  0  0
    5.1280    0.4554    1.3255 H   0  0  0  0  0  0  0  0  0  0  0  0
    6.0248    0.6710   -0.1936 H   0  0  0  0  0  0  0  0  0  0  0  0
    5.1078   -1.2973    0.0409 C   0  0  0  0  0  0  0  0  0  0  0  0
    5.2136   -1.5298   -1.0417 H   0  0  0  0  0  0  0  0  0  0  0  0
    5.9820   -1.7567    0.5450 H   0  0  0  0  0  0  0  0  0  0  0  0
    3.8098   -1.9239    0.5656 C   0  0  0  0  0  0  0  0  0  0  0  0
    3.7511   -1.7939    1.6704 H   0  0  0  0  0  0  0  0  0  0  0  0
    3.7905   -3.0167    0.3707 H   0  0  0  0  0  0  0  0  0  0  0  0
    2.5805   -1.2674   -0.0712 C   0  0  1  0  0  0  0  0  0  0  0  0
    2.5968   -1.4457   -1.1688 H   0  0  0  0  0  0  0  0  0  0  0  0
    1.0630    2.2490    0.0875 C   0  0  0  0  0  0  0  0  0  0  0  0
    2.0532    2.7411    0.1975 H   0  0  0  0  0  0  0  0  0  0  0  0
    0.2082    3.0710   -0.8960 C   0  0  0  0  0  0  0  0  0  0  0  0
    0.8180    3.5374   -1.6970 H   0  0  0  0  0  0  0  0  0  0  0  0
   -0.5518    2.4049   -1.3546 H   0  0  0  0  0  0  0  0  0  0  0  0
   -0.5062    4.0811    0.0114 C   0  0  0  0  0  0  0  0  0  0  0  0
    0.1879    4.8963    0.3151 H   0  0  0  0  0  0  0  0  0  0  0  0
   -1.3782    4.5515   -0.4835 H   0  0  0  0  0  0  0  0  0  0  0  0
   -0.8964    3.2236    1.2268 C   0  0  0  0  0  0  0  0  0  0  0  0
   -1.7904    2.6236    0.9651 H   0  0  0  0  0  0  0  0  0  0  0  0
   -1.1482    3.8223    2.1241 H   0  0  0  0  0  0  0  0  0  0  0  0
    0.3189    2.2942    1.4517 C   0  0  0  0  0  0  0  0  0  0  0  0
    0.9898    2.6917    2.2404 H   0  0  0  0  0  0  0  0  0  0  0  0
    0.0109    1.2709    1.7548 H   0  0  0  0  0  0  0  0  0  0  0  0
  1 22  1  0  0  0  0
  1  6  1  0  0  0  0
  2  1  1  0  0  0  0
  3  4  1  0  0  0  0
  5  3  1  0  0  0  0
  6  7  1  1  0  0  0
  8  9  1  0  0  0  0
  8  6  1  0  0  0  0
  8 11  1  0  0  0  0
 10  8  1  0  0  0  0
 11 12  1  0  0  0  0
 13 11  1  0  0  0  0
 14 11  1  0  0  0  0
 14 16  1  0  0  0  0
 14 17  1  0  0  0  0
 15 14  1  0  0  0  0
 17 18  1  0  0  0  0
 19 17  1  0  0  0  0
 20 21  1  6  0  0  0
 20  6  1  0  0  0  0
 20  3  1  0  0  0  0
 20 17  1  0  0  0  0
 22 23  1  0  0  0  0
 22 33  1  0  0  0  0
 24 27  1  0  0  0  0
 24 22  1  0  0  0  0
 25 24  1  0  0  0  0
 26 24  1  0  0  0  0
 27 28  1  0  0  0  0
 27 30  1  0  0  0  0
 29 27  1  0  0  0  0
 30 33  1  0  0  0  0
 30 32  1  0  0  0  0
 31 30  1  0  0  0  0
 33 35  1  0  0  0  0
 33 34  1  0  0  0  0
M  END
