1,2
 OpenBabel05122313053D

 42 41  0  0  0  0  0  0  0  0999 V2000
    2.5952    1.3814   -0.3084 N   0  0  0  0  0  0  0  0  0  0  0  0
    2.1166   -1.3750    0.6496 N   0  0  0  0  0  0  0  0  0  0  0  0
    2.0136   -2.7141   -0.0555 C   0  0  0  0  0  0  0  0  0  0  0  0
    3.4514    0.7428    0.7210 C   0  0  0  0  0  0  0  0  0  0  0  0
    3.0771    1.0440    1.7152 H   0  0  0  0  0  0  0  0  0  0  0  0
    4.5030    1.1080    0.6533 H   0  0  0  0  0  0  0  0  0  0  0  0
    1.2166    3.3177   -1.0419 C   0  0  0  0  0  0  0  0  0  0  0  0
    1.7929    3.5722   -1.9523 H   0  0  0  0  0  0  0  0  0  0  0  0
    0.7093    4.2418   -0.7041 H   0  0  0  0  0  0  0  0  0  0  0  0
    0.4406    2.5656   -1.3016 H   0  0  0  0  0  0  0  0  0  0  0  0
    3.2680    3.7336    0.3705 C   0  0  0  0  0  0  0  0  0  0  0  0
    3.9305    3.8528   -0.5103 H   0  0  0  0  0  0  0  0  0  0  0  0
    3.8845    3.4007    1.2292 H   0  0  0  0  0  0  0  0  0  0  0  0
    2.8730    4.7376    0.6204 H   0  0  0  0  0  0  0  0  0  0  0  0
    3.2960    1.3589   -1.6077 C   0  0  0  0  0  0  0  0  0  0  0  0
    4.2185    1.9860   -1.6041 H   0  0  0  0  0  0  0  0  0  0  0  0
    2.6298    1.6989   -2.4183 H   0  0  0  0  0  0  0  0  0  0  0  0
    3.5915    0.3198   -1.8418 H   0  0  0  0  0  0  0  0  0  0  0  0
    0.6043   -3.2988    0.1400 C   0  0  0  0  0  0  0  0  0  0  0  0
    0.4044   -3.5792    1.1917 H   0  0  0  0  0  0  0  0  0  0  0  0
    0.5165   -4.2232   -0.4632 H   0  0  0  0  0  0  0  0  0  0  0  0
   -0.1861   -2.6047   -0.2049 H   0  0  0  0  0  0  0  0  0  0  0  0
    3.4654   -0.7901    0.6261 C   0  0  0  0  0  0  0  0  0  0  0  0
    3.9677   -1.0957   -0.3106 H   0  0  0  0  0  0  0  0  0  0  0  0
    4.1068   -1.1726    1.4576 H   0  0  0  0  0  0  0  0  0  0  0  0
    2.0978    2.7725    0.0945 C   0  0  0  0  0  0  0  0  0  0  0  0
    1.5684   -1.3622    2.0128 C   0  0  0  0  0  0  0  0  0  0  0  0
    2.0536   -2.1147    2.6807 H   0  0  0  0  0  0  0  0  0  0  0  0
    0.4765   -1.5202    2.0000 H   0  0  0  0  0  0  0  0  0  0  0  0
    1.7277   -0.3630    2.4593 H   0  0  0  0  0  0  0  0  0  0  0  0
    1.2093    2.6416    1.3443 C   0  0  0  0  0  0  0  0  0  0  0  0
    0.3901    1.9058    1.1806 H   0  0  0  0  0  0  0  0  0  0  0  0
    0.7512    3.6254    1.5664 H   0  0  0  0  0  0  0  0  0  0  0  0
    1.7749    2.3466    2.2501 H   0  0  0  0  0  0  0  0  0  0  0  0
    2.2148   -2.4841   -1.5641 C   0  0  0  0  0  0  0  0  0  0  0  0
    1.4651   -1.7517   -1.9337 H   0  0  0  0  0  0  0  0  0  0  0  0
    2.0696   -3.4348   -2.1136 H   0  0  0  0  0  0  0  0  0  0  0  0
    3.2303   -2.1181   -1.8171 H   0  0  0  0  0  0  0  0  0  0  0  0
    3.0610   -3.7123    0.4787 C   0  0  0  0  0  0  0  0  0  0  0  0
    2.9626   -3.8575    1.5738 H   0  0  0  0  0  0  0  0  0  0  0  0
    4.0994   -3.3891    0.2639 H   0  0  0  0  0  0  0  0  0  0  0  0
    2.9186   -4.7024    0.0027 H   0  0  0  0  0  0  0  0  0  0  0  0
  1 26  1  0  0  0  0
  1  4  1  0  0  0  0
  2 27  1  0  0  0  0
  3 19  1  0  0  0  0
  3 39  1  0  0  0  0
  3  2  1  0  0  0  0
  4  5  1  0  0  0  0
  6  4  1  0  0  0  0
  7  9  1  0  0  0  0
  7 26  1  0  0  0  0
  8  7  1  0  0  0  0
 10  7  1  0  0  0  0
 11 14  1  0  0  0  0
 11 13  1  0  0  0  0
 12 11  1  0  0  0  0
 15 16  1  0  0  0  0
 15  1  1  0  0  0  0
 17 15  1  0  0  0  0
 18 15  1  0  0  0  0
 19 20  1  0  0  0  0
 21 19  1  0  0  0  0
 22 19  1  0  0  0  0
 23  2  1  0  0  0  0
 23  4  1  0  0  0  0
 23 25  1  0  0  0  0
 24 23  1  0  0  0  0
 26 11  1  0  0  0  0
 26 31  1  0  0  0  0
 27 30  1  0  0  0  0
 27 28  1  0  0  0  0
 29 27  1  0  0  0  0
 31 33  1  0  0  0  0
 31 34  1  0  0  0  0
 32 31  1  0  0  0  0
 35  3  1  0  0  0  0
 36 35  1  0  0  0  0
 37 35  1  0  0  0  0
 38 35  1  0  0  0  0
 39 40  1  0  0  0  0
 41 39  1  0  0  0  0
 42 39  1  0  0  0  0
M  END
