1,2
 OpenBabel05122313053D

 36 37  0  0  1  0  0  0  0  0999 V2000
   -1.2208    1.7391   -0.3708 N   0  0  0  0  0  2  0  0  0  0  0  0
    1.2667    1.3374   -0.8553 N   0  0  0  0  0  2  0  0  0  0  0  0
   -2.4831    1.9952    0.0364 C   0  0  0  0  0  3  0  0  0  0  0  0
   -3.3136    2.8960   -0.6378 C   0  0  0  0  0  0  0  0  0  0  0  0
   -2.8270    3.5810   -1.7664 C   0  0  0  0  0  0  0  0  0  0  0  0
   -1.5058    3.3587   -2.1624 C   0  0  0  0  0  0  0  0  0  0  0  0
   -0.7227    2.4404   -1.4381 C   0  0  0  0  0  0  0  0  0  0  0  0
    0.6737    2.1718   -1.6709 C   0  0  0  0  0  3  0  0  0  0  0  0
    2.7321    1.1980   -1.0094 C   0  0  1  0  0  0  0  0  0  0  0  0
    3.4448    1.8997    0.1520 C   0  0  0  0  0  0  0  0  0  0  0  0
    3.1281   -0.2772   -1.2305 C   0  0  0  0  0  0  0  0  0  0  0  0
    4.6412   -0.5311   -1.1181 C   0  0  0  0  0  0  0  0  0  0  0  0
    4.9776   -2.0118   -1.3447 C   0  0  0  0  0  0  0  0  0  0  0  0
    4.4417   -2.5253   -2.6860 C   0  0  0  0  0  0  0  0  0  0  0  0
    2.9359   -2.2653   -2.8110 C   0  0  0  0  0  0  0  0  0  0  0  0
    2.6076   -0.7856   -2.5842 C   0  0  0  0  0  0  0  0  0  0  0  0
   -2.7986    1.4518    0.9393 H   0  0  0  0  0  0  0  0  0  0  0  0
   -4.3350    3.0614   -0.2672 H   0  0  0  0  0  0  0  0  0  0  0  0
   -3.4635    4.2941   -2.3100 H   0  0  0  0  0  0  0  0  0  0  0  0
   -1.0591    3.8966   -3.0108 H   0  0  0  0  0  0  0  0  0  0  0  0
    1.2284    2.6936   -2.4712 H   0  0  0  0  0  0  0  0  0  0  0  0
    3.0087    1.7485   -1.9402 H   0  0  0  0  0  0  0  0  0  0  0  0
    3.0453    2.9219    0.2986 H   0  0  0  0  0  0  0  0  0  0  0  0
    4.5255    1.9816   -0.0722 H   0  0  0  0  0  0  0  0  0  0  0  0
    3.3255    1.3474    1.1009 H   0  0  0  0  0  0  0  0  0  0  0  0
    2.6395   -0.8691   -0.4318 H   0  0  0  0  0  0  0  0  0  0  0  0
    5.0131   -0.2166   -0.1228 H   0  0  0  0  0  0  0  0  0  0  0  0
    5.1779    0.0930   -1.8697 H   0  0  0  0  0  0  0  0  0  0  0  0
    6.0747   -2.1671   -1.2788 H   0  0  0  0  0  0  0  0  0  0  0  0
    4.5277   -2.6093   -0.5195 H   0  0  0  0  0  0  0  0  0  0  0  0
    4.6627   -3.6066   -2.8057 H   0  0  0  0  0  0  0  0  0  0  0  0
    4.9708   -2.0039   -3.5152 H   0  0  0  0  0  0  0  0  0  0  0  0
    2.5610   -2.5979   -3.8020 H   0  0  0  0  0  0  0  0  0  0  0  0
    2.3968   -2.8758   -2.0516 H   0  0  0  0  0  0  0  0  0  0  0  0
    3.0720   -0.1779   -3.3950 H   0  0  0  0  0  0  0  0  0  0  0  0
    1.5147   -0.6114   -2.6552 H   0  0  0  0  0  0  0  0  0  0  0  0
  1  3  1  0  0  0  0
  3 17  1  0  0  0  0
  4 18  1  0  0  0  0
  4  3  1  0  0  0  0
  5  4  2  0  0  0  0
  6  5  1  0  0  0  0
  6  7  2  0  0  0  0
  7  1  1  0  0  0  0
  8  7  1  0  0  0  0
  8  2  1  0  0  0  0
  9 22  1  6  0  0  0
  9  2  1  0  0  0  0
  9 10  1  0  0  0  0
 10 23  1  0  0  0  0
 10 25  1  0  0  0  0
 11 12  1  0  0  0  0
 11  9  1  0  0  0  0
 11 26  1  0  0  0  0
 12 27  1  0  0  0  0
 13 29  1  0  0  0  0
 13 12  1  0  0  0  0
 13 30  1  0  0  0  0
 14 13  1  0  0  0  0
 15 14  1  0  0  0  0
 15 16  1  0  0  0  0
 15 34  1  0  0  0  0
 16 11  1  0  0  0  0
 19  5  1  0  0  0  0
 20  6  1  0  0  0  0
 21  8  1  0  0  0  0
 24 10  1  0  0  0  0
 28 12  1  0  0  0  0
 31 14  1  0  0  0  0
 32 14  1  0  0  0  0
 33 15  1  0  0  0  0
 35 16  1  0  0  0  0
 36 16  1  0  0  0  0
M  END
