1,2
 OpenBabel05122313053D

 42 43  0  0  0  0  0  0  0  0999 V2000
    1.0469    1.0549   -0.0053 N   0  0  0  0  0  2  0  0  0  0  0  0
   -1.3921    0.5250    0.0582 N   0  0  0  0  0  2  0  0  0  0  0  0
    2.6759   -0.6978    1.5512 O   0  0  0  0  0  0  0  0  0  0  0  0
    4.4106    0.0014    0.2384 O   0  0  0  0  0  0  0  0  0  0  0  0
    0.2490    2.1563   -0.1590 C   0  0  0  0  0  0  0  0  0  0  0  0
    0.7983    3.4443   -0.2943 C   0  0  0  0  0  0  0  0  0  0  0  0
    0.1376    4.3097   -0.4402 H   0  0  0  0  0  0  0  0  0  0  0  0
    2.1893    3.5930   -0.2427 C   0  0  0  0  0  0  0  0  0  0  0  0
    2.6483    4.5849   -0.3636 H   0  0  0  0  0  0  0  0  0  0  0  0
    2.9885    2.4649    0.0041 C   0  0  0  0  0  0  0  0  0  0  0  0
    4.0792    2.5371    0.1083 H   0  0  0  0  0  0  0  0  0  0  0  0
    2.3831    1.2063    0.1464 C   0  0  0  0  0  0  0  0  0  0  0  0
   -1.1687    1.8202   -0.1090 C   0  0  0  0  0  0  0  0  0  0  0  0
   -2.2304    2.8707   -0.2011 C   0  0  0  0  0  0  0  0  0  0  0  0
   -3.2334    2.4381   -0.0385 H   0  0  0  0  0  0  0  0  0  0  0  0
   -2.2147    3.3568   -1.1997 H   0  0  0  0  0  0  0  0  0  0  0  0
   -2.0578    3.6681    0.5508 H   0  0  0  0  0  0  0  0  0  0  0  0
   -2.7296    0.0355    0.1654 C   0  0  0  0  0  0  0  0  0  0  0  0
   -3.2266   -0.2408    1.4600 C   0  0  0  0  0  0  0  0  0  0  0  0
   -4.5542   -0.6913    1.5675 C   0  0  0  0  0  0  0  0  0  0  0  0
   -4.9625   -0.9078    2.5669 H   0  0  0  0  0  0  0  0  0  0  0  0
   -5.3445   -0.8837    0.4262 C   0  0  0  0  0  0  0  0  0  0  0  0
   -6.3799   -1.2415    0.5288 H   0  0  0  0  0  0  0  0  0  0  0  0
   -4.8094   -0.6467   -0.8479 C   0  0  0  0  0  0  0  0  0  0  0  0
   -5.4174   -0.8344   -1.7463 H   0  0  0  0  0  0  0  0  0  0  0  0
   -3.4892   -0.1903   -1.0066 C   0  0  0  0  0  0  0  0  0  0  0  0
   -2.8600   -0.0269   -2.3630 C   0  0  0  0  0  0  0  0  0  0  0  0
   -1.9815   -0.7031   -2.4419 H   0  0  0  0  0  0  0  0  0  0  0  0
   -2.4941    1.0052   -2.5453 H   0  0  0  0  0  0  0  0  0  0  0  0
   -3.5739   -0.2809   -3.1686 H   0  0  0  0  0  0  0  0  0  0  0  0
   -2.3273   -0.0974    2.6565 C   0  0  0  0  0  0  0  0  0  0  0  0
   -2.8464   -0.3899    3.5883 H   0  0  0  0  0  0  0  0  0  0  0  0
   -1.9517    0.9400    2.7805 H   0  0  0  0  0  0  0  0  0  0  0  0
   -1.4356   -0.7472    2.5255 H   0  0  0  0  0  0  0  0  0  0  0  0
    3.1425    0.0227    0.6882 C   0  0  0  0  0  0  0  0  0  0  0  0
    5.2321   -1.0960    0.7162 C   0  0  0  0  0  0  0  0  0  0  0  0
    4.9517   -1.3113    1.7669 H   0  0  0  0  0  0  0  0  0  0  0  0
    6.2667   -0.7019    0.6852 H   0  0  0  0  0  0  0  0  0  0  0  0
    5.0596   -2.3220   -0.1633 C   0  0  0  0  0  0  0  0  0  0  0  0
    5.7177   -3.1372    0.1995 H   0  0  0  0  0  0  0  0  0  0  0  0
    5.3256   -2.0969   -1.2147 H   0  0  0  0  0  0  0  0  0  0  0  0
    4.0097   -2.6734   -0.1432 H   0  0  0  0  0  0  0  0  0  0  0  0
  1 12  1  0  0  0  0
  2 18  1  0  0  0  0
  4 35  1  0  0  0  0
  4 36  1  0  0  0  0
  5 13  2  0  0  0  0
  5  1  1  0  0  0  0
  6  8  2  0  0  0  0
  6  5  1  0  0  0  0
  7  6  1  0  0  0  0
  8 10  1  0  0  0  0
  9  8  1  0  0  0  0
 10 11  1  0  0  0  0
 10 12  2  0  0  0  0
 12 35  1  0  0  0  0
 13  2  1  0  0  0  0
 14 13  1  0  0  0  0
 14 15  1  0  0  0  0
 14 17  1  0  0  0  0
 16 14  1  0  0  0  0
 18 19  1  0  0  0  0
 19 20  2  0  0  0  0
 19 31  1  0  0  0  0
 20 21  1  0  0  0  0
 22 23  1  0  0  0  0
 22 20  1  0  0  0  0
 24 22  2  0  0  0  0
 25 24  1  0  0  0  0
 26 24  1  0  0  0  0
 26 18  2  0  0  0  0
 27 26  1  0  0  0  0
 28 27  1  0  0  0  0
 29 27  1  0  0  0  0
 30 27  1  0  0  0  0
 31 33  1  0  0  0  0
 31 32  1  0  0  0  0
 34 31  1  0  0  0  0
 35  3  2  0  0  0  0
 36 37  1  0  0  0  0
 38 36  1  0  0  0  0
 39 42  1  0  0  0  0
 39 40  1  0  0  0  0
 39 36  1  0  0  0  0
 41 39  1  0  0  0  0
M  END
