14,24
 OpenBabel05122313053D

 26 26  0  0  1  0  0  0  0  0999 V2000
   -4.0688   -2.6470    1.7249 C   0  0  0  0  0  0  0  0  0  0  0  0
   -3.3139   -3.1868    1.1155 H   0  0  0  0  0  0  0  0  0  0  0  0
   -4.7871   -3.3904    2.1161 H   0  0  0  0  0  0  0  0  0  0  0  0
   -3.5365   -2.2017    2.5895 H   0  0  0  0  0  0  0  0  0  0  0  0
   -4.7698   -1.6111    0.8959 C   0  0  0  0  0  0  0  0  0  0  0  0
   -6.1467   -1.6639    0.5509 C   0  0  0  0  0  0  0  0  0  0  0  0
   -6.8287   -2.4526    0.8964 H   0  0  0  0  0  0  0  0  0  0  0  0
   -6.5485   -0.6266   -0.2763 C   0  0  0  0  0  0  0  0  0  0  0  0
   -7.5508   -0.4366   -0.6815 H   0  0  0  0  0  0  0  0  0  0  0  0
   -5.2596    0.4366   -0.6694 S   0  0  0  0  0  0  0  0  0  0  0  0
   -4.1263   -0.4945    0.3096 C   0  0  0  0  0  0  0  0  0  0  0  0
   -2.7317   -0.2372    0.4786 C   0  0  0  0  0  3  0  0  0  0  0  0
   -2.2032   -0.9249    1.1666 H   0  0  0  0  0  0  0  0  0  0  0  0
   -1.9353    0.6528   -0.0603 N   0  0  0  0  0  2  0  0  0  0  0  0
   -2.4052    1.5947   -1.0719 C   0  0  0  0  0  0  0  0  0  0  0  0
   -3.3297    2.1176   -0.7452 H   0  0  0  0  0  0  0  0  0  0  0  0
   -2.6639    1.0355   -2.0021 H   0  0  0  0  0  0  0  0  0  0  0  0
   -1.3180    2.6293   -1.3713 C   0  0  2  0  0  0  0  0  0  0  0  0
   -1.2575    3.3288   -0.5079 H   0  0  0  0  0  0  0  0  0  0  0  0
   -1.5878    3.4320   -2.6401 C   0  0  0  0  0  0  0  0  0  0  0  0
   -0.7953    4.1862   -2.8160 H   0  0  0  0  0  0  0  0  0  0  0  0
   -2.5518    3.9727   -2.5651 H   0  0  0  0  0  0  0  0  0  0  0  0
   -1.6395    2.7671   -3.5267 H   0  0  0  0  0  0  0  0  0  0  0  0
   -0.0326    1.8908   -1.4001 N   0  0  0  0  0  0  0  0  0  0  0  0
    0.7702    2.5324   -1.4773 H   0  0  0  0  0  0  0  0  0  0  0  0
    0.0085    1.2513   -2.2158 H   0  0  0  0  0  0  0  0  0  0  0  0
  1  3  1  0  0  0  0
  1  4  1  0  0  0  0
  2  1  1  0  0  0  0
  5  1  1  0  0  0  0
  6  5  1  0  0  0  0
  6  7  1  0  0  0  0
  8  6  2  0  0  0  0
  9  8  1  0  0  0  0
 10  8  1  0  0  0  0
 10 11  1  0  0  0  0
 11 12  1  0  0  0  0
 11  5  2  0  0  0  0
 12 13  1  0  0  0  0
 14 12  1  0  0  0  0
 15 16  1  0  0  0  0
 15 14  1  0  0  0  0
 17 15  1  0  0  0  0
 18 15  1  0  0  0  0
 18 19  1  1  0  0  0
 20 22  1  0  0  0  0
 20 18  1  0  0  0  0
 21 20  1  0  0  0  0
 23 20  1  0  0  0  0
 24 18  1  0  0  0  0
 25 24  1  0  0  0  0
 26 24  1  0  0  0  0
M  END
