1,3
 OpenBabel05122313053D

 28 30  0  0  0  0  0  0  0  0999 V2000
   -0.1059   -0.8441   -0.4074 N   0  0  0  0  0  2  0  0  0  0  0  0
    1.7862   -2.7740    0.2747 N   0  0  0  0  0  0  0  0  0  0  0  0
   -2.7056   -1.1686   -0.0592 N   0  0  0  0  0  2  0  0  0  0  0  0
    3.9399    0.0392   -0.5347 N   0  0  0  0  0  0  0  0  0  0  0  0
   -0.4999   -2.0677    0.0163 C   0  0  0  0  0  0  0  0  0  0  0  0
    0.4786   -3.0300    0.3461 C   0  0  0  0  0  0  0  0  0  0  0  0
    0.1891   -4.0354    0.6957 H   0  0  0  0  0  0  0  0  0  0  0  0
    2.1623   -1.5444   -0.1334 C   0  0  0  0  0  0  0  0  0  0  0  0
    1.1982   -0.5731   -0.4868 C   0  0  0  0  0  0  0  0  0  0  0  0
    1.4716    0.4360   -0.8253 H   0  0  0  0  0  0  0  0  0  0  0  0
   -1.9631   -2.2827    0.1102 C   0  0  0  0  0  0  0  0  0  0  0  0
   -2.5702   -3.5324    0.3404 C   0  0  0  0  0  0  0  0  0  0  0  0
   -1.9646   -4.4409    0.4632 H   0  0  0  0  0  0  0  0  0  0  0  0
   -3.9690   -3.5986    0.3920 C   0  0  0  0  0  0  0  0  0  0  0  0
   -4.4678   -4.5631    0.5702 H   0  0  0  0  0  0  0  0  0  0  0  0
   -4.7228   -2.4303    0.2038 C   0  0  0  0  0  0  0  0  0  0  0  0
   -5.8216   -2.4485    0.2304 H   0  0  0  0  0  0  0  0  0  0  0  0
   -4.0425   -1.2250   -0.0267 C   0  0  0  0  0  0  0  0  0  0  0  0
   -4.5494   -0.2614   -0.2130 H   0  0  0  0  0  0  0  0  0  0  0  0
    3.6099   -1.2253   -0.1933 C   0  0  0  0  0  0  0  0  0  0  0  0
    4.5730   -2.2121    0.1062 C   0  0  0  0  0  0  0  0  0  0  0  0
    4.2324   -3.2197    0.3817 H   0  0  0  0  0  0  0  0  0  0  0  0
    5.9270   -1.8649    0.0422 C   0  0  0  0  0  0  0  0  0  0  0  0
    6.7052   -2.6096    0.2689 H   0  0  0  0  0  0  0  0  0  0  0  0
    6.2731   -0.5533   -0.3151 C   0  0  0  0  0  0  0  0  0  0  0  0
    7.3243   -0.2353   -0.3784 H   0  0  0  0  0  0  0  0  0  0  0  0
    5.2377    0.3575   -0.5922 C   0  0  0  0  0  0  0  0  0  0  0  0
    5.4736    1.3992   -0.8736 H   0  0  0  0  0  0  0  0  0  0  0  0
  1  5  1  0  0  0  0
  2  6  2  0  0  0  0
  3 18  1  0  0  0  0
  3 11  1  0  0  0  0
  4 20  1  0  0  0  0
  5 11  2  0  0  0  0
  5  6  1  0  0  0  0
  6  7  1  0  0  0  0
  8  2  1  0  0  0  0
  9  1  1  0  0  0  0
  9  8  2  0  0  0  0
 10  9  1  0  0  0  0
 11 12  1  0  0  0  0
 12 14  2  0  0  0  0
 12 13  1  0  0  0  0
 14 15  1  0  0  0  0
 16 17  1  0  0  0  0
 16 14  1  0  0  0  0
 18 16  2  0  0  0  0
 19 18  1  0  0  0  0
 20  8  1  0  0  0  0
 20 21  2  0  0  0  0
 21 22  1  0  0  0  0
 23 21  1  0  0  0  0
 23 24  1  0  0  0  0
 25 23  2  0  0  0  0
 26 25  1  0  0  0  0
 27  4  2  0  0  0  0
 27 25  1  0  0  0  0
 28 27  1  0  0  0  0
M  END
