1,2
q = -2.0, confidence = 0.632

 40 43  0  0  0  0  0  0  0  0999 V2000
    0.2239    1.3306   -0.0097 N   0  0  0  0  0  2  0  0  0  0  0  0
    0.2253   -1.3302   -0.0097 N   0  0  0  0  0  2  0  0  0  0  0  0
   -0.3142    2.3683    2.1574 C   0  0  0  0  0  0  0  0  0  0  0  0
    0.5695    1.8887    2.6026 H   0  0  0  0  0  0  0  0  0  0  0  0
   -1.1807    3.1332    2.9406 C   0  0  0  0  0  0  0  0  0  0  0  0
   -0.9672    3.2597    4.0133 H   0  0  0  0  0  0  0  0  0  0  0  0
   -2.3305    3.7246    2.3798 C   0  0  0  0  0  0  0  0  0  0  0  0
   -3.0120    4.3181    3.0068 H   0  0  0  0  0  0  0  0  0  0  0  0
   -2.5871    3.5583    1.0126 C   0  0  0  0  0  0  0  0  0  0  0  0
   -3.4676    4.0327    0.5527 H   0  0  0  0  0  0  0  0  0  0  0  0
   -1.7077    2.8160    0.2082 C   0  0  0  0  0  0  0  0  0  0  0  0
   -1.8819    2.7535   -0.8756 H   0  0  0  0  0  0  0  0  0  0  0  0
   -0.5688    2.1854    0.7711 C   0  0  0  0  0  0  0  0  0  0  0  0
    1.6172    1.2758    0.1515 C   0  0  0  0  0  0  0  0  0  0  0  0
    2.3514    2.4650    0.2712 C   0  0  0  0  0  0  0  0  0  0  0  0
    1.8056    3.4193    0.2567 H   0  0  0  0  0  0  0  0  0  0  0  0
    3.7561    2.4456    0.3933 C   0  0  0  0  0  0  0  0  0  0  0  0
    4.3046    3.3968    0.4704 H   0  0  0  0  0  0  0  0  0  0  0  0
    4.4429    1.2405    0.4035 C   0  0  0  0  0  0  0  0  0  0  0  0
    5.5393    1.2182    0.4950 H   0  0  0  0  0  0  0  0  0  0  0  0
    3.7427    0.0021    0.3142 C   0  0  0  0  0  0  0  0  0  0  0  0
    2.3005    0.0013    0.1710 C   0  0  0  0  0  0  0  0  0  0  0  0
    1.6186   -1.2740    0.1512 C   0  0  0  0  0  0  0  0  0  0  0  0
    2.3540   -2.4624    0.2705 C   0  0  0  0  0  0  0  0  0  0  0  0
    1.8093   -3.4172    0.2557 H   0  0  0  0  0  0  0  0  0  0  0  0
    3.7588   -2.4415    0.3925 C   0  0  0  0  0  0  0  0  0  0  0  0
    4.3083   -3.3922    0.4692 H   0  0  0  0  0  0  0  0  0  0  0  0
    4.4443   -1.2356    0.4031 C   0  0  0  0  0  0  0  0  0  0  0  0
    5.5406   -1.2122    0.4946 H   0  0  0  0  0  0  0  0  0  0  0  0
   -0.3111   -2.3693    2.1572 C   0  0  0  0  0  0  0  0  0  0  0  0
    0.5722   -1.8890    2.6023 H   0  0  0  0  0  0  0  0  0  0  0  0
   -1.1767   -3.1354    2.9403 C   0  0  0  0  0  0  0  0  0  0  0  0
   -0.9626   -3.2620    4.0129 H   0  0  0  0  0  0  0  0  0  0  0  0
   -2.3261   -3.7277    2.3797 C   0  0  0  0  0  0  0  0  0  0  0  0
   -3.0067   -4.3221    3.0066 H   0  0  0  0  0  0  0  0  0  0  0  0
   -2.5832   -3.5611    1.0126 C   0  0  0  0  0  0  0  0  0  0  0  0
   -3.4634   -4.0361    0.5528 H   0  0  0  0  0  0  0  0  0  0  0  0
   -1.7048   -2.8176    0.2082 C   0  0  0  0  0  0  0  0  0  0  0  0
   -1.8794   -2.7548   -0.8755 H   0  0  0  0  0  0  0  0  0  0  0  0
   -0.5663   -2.1861    0.7710 C   0  0  0  0  0  0  0  0  0  0  0  0
  1 14  1  0  0  0  0
  1 13  1  0  0  0  0
  2 23  1  0  0  0  0
  2 40  1  0  0  0  0
  3  4  1  0  0  0  0
  3  5  1  0  0  0  0
  5  6  1  0  0  0  0
  7  5  2  0  0  0  0
  7  8  1  0  0  0  0
  9  7  1  0  0  0  0
 10  9  1  0  0  0  0
 11 13  1  0  0  0  0
 11  9  2  0  0  0  0
 12 11  1  0  0  0  0
 13  3  2  0  0  0  0
 14 22  2  0  0  0  0
 14 15  1  0  0  0  0
 15 17  2  0  0  0  0
 16 15  1  0  0  0  0
 17 19  1  0  0  0  0
 17 18  1  0  0  0  0
 19 20  1  0  0  0  0
 21 28  1  0  0  0  0
 21 19  2  0  0  0  0
 22 21  1  0  0  0  0
 23 22  1  0  0  0  0
 23 24  2  0  0  0  0
 24 26  1  0  0  0  0
 25 24  1  0  0  0  0
 26 28  2  0  0  0  0
 26 27  1  0  0  0  0
 28 29  1  0  0  0  0
 30 31  1  0  0  0  0
 30 32  1  0  0  0  0
 32 33  1  0  0  0  0
 34 32  2  0  0  0  0
 34 35  1  0  0  0  0
 36 34  1  0  0  0  0
 37 36  1  0  0  0  0
 38 40  1  0  0  0  0
 38 36  2  0  0  0  0
 39 38  1  0  0  0  0
 40 30  2  0  0  0  0
M  END
