1,7
 OpenBabel05122313053D

 56 56  0  0  1  0  0  0  0  0999 V2000
    0.7962    1.3653   -0.8243 N   0  0  0  0  0  0  0  0  0  0  0  0
    0.7542    0.9020   -1.7466 H   0  0  0  0  0  0  0  0  0  0  0  0
   -2.0254    1.3770    0.0676 N   0  0  0  0  0  0  0  0  0  0  0  0
   -1.9509    1.9103    0.9413 H   0  0  0  0  0  0  0  0  0  0  0  0
    2.0254   -1.3769    0.0675 N   0  0  0  0  0  0  0  0  0  0  0  0
    1.9509   -1.9102    0.9412 H   0  0  0  0  0  0  0  0  0  0  0  0
   -0.7962   -1.3652   -0.8243 N   0  0  0  0  0  0  0  0  0  0  0  0
   -0.7542   -0.9019   -1.7466 H   0  0  0  0  0  0  0  0  0  0  0  0
    3.3093   -0.6651   -0.0102 C   0  0  0  0  0  0  0  0  0  0  0  0
    0.0991   -2.5445   -0.8794 C   0  0  0  0  0  0  0  0  0  0  0  0
   -0.1811   -3.2323   -1.7052 H   0  0  0  0  0  0  0  0  0  0  0  0
   -0.0330   -3.0906    0.0780 H   0  0  0  0  0  0  0  0  0  0  0  0
   -0.0991    2.5446   -0.8793 C   0  0  0  0  0  0  0  0  0  0  0  0
    0.1812    3.2325   -1.7050 H   0  0  0  0  0  0  0  0  0  0  0  0
    0.0330    3.0907    0.0781 H   0  0  0  0  0  0  0  0  0  0  0  0
   -1.5645    2.1580   -1.0563 C   0  0  0  0  0  0  0  0  0  0  0  0
   -2.1403    3.1002   -1.2432 H   0  0  0  0  0  0  0  0  0  0  0  0
   -1.6759    1.5570   -1.9879 H   0  0  0  0  0  0  0  0  0  0  0  0
    3.1766    0.5542   -0.9543 C   0  0  0  0  0  0  0  0  0  0  0  0
    4.1946    0.9818   -1.0562 H   0  0  0  0  0  0  0  0  0  0  0  0
    2.9208    0.2031   -1.9819 H   0  0  0  0  0  0  0  0  0  0  0  0
    2.2399    1.7189   -0.5865 C   0  0  1  0  0  0  0  0  0  0  0  0
    2.3104    1.9399    0.4974 H   0  0  0  0  0  0  0  0  0  0  0  0
   -3.1767   -0.5541   -0.9543 C   0  0  0  0  0  0  0  0  0  0  0  0
   -2.9208   -0.2029   -1.9819 H   0  0  0  0  0  0  0  0  0  0  0  0
   -4.1946   -0.9817   -1.0561 H   0  0  0  0  0  0  0  0  0  0  0  0
    1.5645   -2.1579   -1.0564 C   0  0  0  0  0  0  0  0  0  0  0  0
    2.1403   -3.1001   -1.2434 H   0  0  0  0  0  0  0  0  0  0  0  0
    1.6758   -1.5568   -1.9880 H   0  0  0  0  0  0  0  0  0  0  0  0
    3.6584   -0.2117    1.4158 C   0  0  0  0  0  0  0  0  0  0  0  0
    3.8514   -1.0945    2.0597 H   0  0  0  0  0  0  0  0  0  0  0  0
    2.8325    0.3650    1.8757 H   0  0  0  0  0  0  0  0  0  0  0  0
    4.5751    0.4105    1.4159 H   0  0  0  0  0  0  0  0  0  0  0  0
   -3.3092    0.6652   -0.0101 C   0  0  0  0  0  0  0  0  0  0  0  0
   -4.4450    1.5664   -0.5475 C   0  0  0  0  0  0  0  0  0  0  0  0
   -4.5287    2.4868    0.0658 H   0  0  0  0  0  0  0  0  0  0  0  0
   -5.4222    1.0440   -0.5091 H   0  0  0  0  0  0  0  0  0  0  0  0
   -4.2712    1.8704   -1.6002 H   0  0  0  0  0  0  0  0  0  0  0  0
   -2.2399   -1.7188   -0.5866 C   0  0  1  0  0  0  0  0  0  0  0  0
   -2.3105   -1.9400    0.4972 H   0  0  0  0  0  0  0  0  0  0  0  0
    2.6905    2.9675   -1.3628 C   0  0  0  0  0  0  0  0  0  0  0  0
    2.5926    2.8285   -2.4616 H   0  0  0  0  0  0  0  0  0  0  0  0
    3.7589    3.1639   -1.1482 H   0  0  0  0  0  0  0  0  0  0  0  0
    2.1332    3.8778   -1.0743 H   0  0  0  0  0  0  0  0  0  0  0  0
    4.4450   -1.5663   -0.5477 C   0  0  0  0  0  0  0  0  0  0  0  0
    5.4223   -1.0439   -0.5094 H   0  0  0  0  0  0  0  0  0  0  0  0
    4.2712   -1.8703   -1.6004 H   0  0  0  0  0  0  0  0  0  0  0  0
    4.5288   -2.4867    0.0655 H   0  0  0  0  0  0  0  0  0  0  0  0
   -3.6583    0.2117    1.4159 C   0  0  0  0  0  0  0  0  0  0  0  0
   -2.8323   -0.3649    1.8757 H   0  0  0  0  0  0  0  0  0  0  0  0
   -4.5749   -0.4106    1.4160 H   0  0  0  0  0  0  0  0  0  0  0  0
   -3.8513    1.0945    2.0599 H   0  0  0  0  0  0  0  0  0  0  0  0
   -2.6905   -2.9673   -1.3632 C   0  0  0  0  0  0  0  0  0  0  0  0
   -2.5924   -2.8281   -2.4619 H   0  0  0  0  0  0  0  0  0  0  0  0
   -3.7589   -3.1637   -1.1488 H   0  0  0  0  0  0  0  0  0  0  0  0
   -2.1333   -3.8777   -1.0747 H   0  0  0  0  0  0  0  0  0  0  0  0
  1 22  1  0  0  0  0
  2  1  1  0  0  0  0
  3  4  1  0  0  0  0
  5  6  1  0  0  0  0
  7 39  1  0  0  0  0
  8  7  1  0  0  0  0
  9  5  1  0  0  0  0
  9 30  1  0  0  0  0
 10  7  1  0  0  0  0
 10 12  1  0  0  0  0
 11 10  1  0  0  0  0
 13  1  1  0  0  0  0
 13 15  1  0  0  0  0
 14 13  1  0  0  0  0
 16 13  1  0  0  0  0
 16  3  1  0  0  0  0
 17 16  1  0  0  0  0
 18 16  1  0  0  0  0
 19 22  1  0  0  0  0
 19  9  1  0  0  0  0
 20 19  1  0  0  0  0
 21 19  1  0  0  0  0
 22 23  1  1  0  0  0
 24 39  1  0  0  0  0
 24 34  1  0  0  0  0
 25 24  1  0  0  0  0
 26 24  1  0  0  0  0
 27 10  1  0  0  0  0
 27  5  1  0  0  0  0
 28 27  1  0  0  0  0
 29 27  1  0  0  0  0
 30 33  1  0  0  0  0
 30 32  1  0  0  0  0
 30 31  1  0  0  0  0
 34  3  1  0  0  0  0
 34 49  1  0  0  0  0
 35 37  1  0  0  0  0
 35 34  1  0  0  0  0
 35 36  1  0  0  0  0
 38 35  1  0  0  0  0
 39 40  1  1  0  0  0
 41 43  1  0  0  0  0
 41 44  1  0  0  0  0
 41 22  1  0  0  0  0
 42 41  1  0  0  0  0
 45 46  1  0  0  0  0
 45  9  1  0  0  0  0
 45 48  1  0  0  0  0
 47 45  1  0  0  0  0
 49 51  1  0  0  0  0
 49 50  1  0  0  0  0
 49 52  1  0  0  0  0
 53 55  1  0  0  0  0
 53 56  1  0  0  0  0
 53 39  1  0  0  0  0
 54 53  1  0  0  0  0
M  END
