2,4
 OpenBabel05122313053D

 32 33  0  0  0  0  0  0  0  0999 V2000
    2.8733    3.5836    0.1313 O   0  0  0  0  0  0  0  0  0  0  0  0
   -1.1689    1.4089    0.1328 N   0  0  0  0  0  2  0  0  0  0  0  0
   -0.5354    2.5421    0.0197 N   0  0  0  0  0  0  0  0  0  0  0  0
    1.2894    1.1219    0.1445 N   0  0  0  0  0  2  0  0  0  0  0  0
   -2.5855    1.5388    0.1856 C   0  0  0  0  0  0  0  0  0  0  0  0
   -3.2753    2.2658   -0.8017 C   0  0  0  0  0  0  0  0  0  0  0  0
   -2.7023    2.7438   -1.6081 H   0  0  0  0  0  0  0  0  0  0  0  0
   -4.6746    2.3337   -0.7490 C   0  0  0  0  0  0  0  0  0  0  0  0
   -5.2226    2.8793   -1.5322 H   0  0  0  0  0  0  0  0  0  0  0  0
   -5.3769    1.7090    0.2957 C   0  0  0  0  0  0  0  0  0  0  0  0
   -6.4749    1.7691    0.3342 H   0  0  0  0  0  0  0  0  0  0  0  0
   -4.6734    1.0141    1.2961 C   0  0  0  0  0  0  0  0  0  0  0  0
   -5.2196    0.5448    2.1288 H   0  0  0  0  0  0  0  0  0  0  0  0
   -3.2768    0.9164    1.2420 C   0  0  0  0  0  0  0  0  0  0  0  0
   -2.6908    0.3817    2.0059 H   0  0  0  0  0  0  0  0  0  0  0  0
    0.8202    2.3706    0.0235 C   0  0  0  0  0  0  0  0  0  0  0  0
    1.6575    3.6201   -0.0141 C   0  0  0  0  0  0  0  0  0  0  0  0
    0.9023    4.9172   -0.2237 C   0  0  0  0  0  0  0  0  0  0  0  0
    0.3292    4.8854   -1.1722 H   0  0  0  0  0  0  0  0  0  0  0  0
    1.6259    5.7515   -0.2366 H   0  0  0  0  0  0  0  0  0  0  0  0
    0.1512    5.0637    0.5776 H   0  0  0  0  0  0  0  0  0  0  0  0
    2.6832    0.8410    0.1348 C   0  0  0  0  0  0  0  0  0  0  0  0
    3.3212    0.4924    1.3393 C   0  0  0  0  0  0  0  0  0  0  0  0
    2.7292    0.4734    2.2656 H   0  0  0  0  0  0  0  0  0  0  0  0
    4.6883    0.1809    1.3299 C   0  0  0  0  0  0  0  0  0  0  0  0
    5.1918   -0.0748    2.2749 H   0  0  0  0  0  0  0  0  0  0  0  0
    5.4131    0.1931    0.1267 C   0  0  0  0  0  0  0  0  0  0  0  0
    6.4855   -0.0528    0.1248 H   0  0  0  0  0  0  0  0  0  0  0  0
    4.7618    0.5213   -1.0748 C   0  0  0  0  0  0  0  0  0  0  0  0
    5.3221    0.5279   -2.0222 H   0  0  0  0  0  0  0  0  0  0  0  0
    3.3993    0.8458   -1.0780 C   0  0  0  0  0  0  0  0  0  0  0  0
    2.8682    1.0953   -2.0073 H   0  0  0  0  0  0  0  0  0  0  0  0
  2  5  1  0  0  0  0
  3 16  2  0  0  0  0
  3  2  1  0  0  0  0
  5 14  1  0  0  0  0
  6  8  1  0  0  0  0
  6  5  2  0  0  0  0
  7  6  1  0  0  0  0
  8 10  2  0  0  0  0
  9  8  1  0  0  0  0
 10 11  1  0  0  0  0
 10 12  1  0  0  0  0
 12 13  1  0  0  0  0
 14 12  2  0  0  0  0
 14 15  1  0  0  0  0
 16  4  1  0  0  0  0
 17 16  1  0  0  0  0
 17  1  2  0  0  0  0
 18 17  1  0  0  0  0
 18 21  1  0  0  0  0
 19 18  1  0  0  0  0
 20 18  1  0  0  0  0
 22  4  1  0  0  0  0
 22 23  1  0  0  0  0
 23 24  1  0  0  0  0
 25 23  2  0  0  0  0
 25 26  1  0  0  0  0
 27 25  1  0  0  0  0
 28 27  1  0  0  0  0
 29 27  2  0  0  0  0
 30 29  1  0  0  0  0
 31 29  1  0  0  0  0
 31 22  2  0  0  0  0
 32 31  1  0  0  0  0
M  END
