1,20
 OpenBabel05122313053D

 38 40  0  0  0  0  0  0  0  0999 V2000
    1.3288   -1.0772    0.0540 N   0  0  0  0  0  2  0  0  0  0  0  0
    2.6444   -1.1326    0.0414 N   0  0  0  0  0  2  0  0  0  0  0  0
    3.3037   -0.0462    0.1081 N   0  0  0  0  0  2  0  0  0  0  0  0
    5.4706    0.9554    0.3108 C   0  0  0  0  0  0  0  0  0  0  0  0
    4.9419    1.8840    0.5739 H   0  0  0  0  0  0  0  0  0  0  0  0
    6.8692    0.9095    0.2555 C   0  0  0  0  0  0  0  0  0  0  0  0
    7.4540    1.8153    0.4777 H   0  0  0  0  0  0  0  0  0  0  0  0
    0.7056   -2.3482    0.0387 C   0  0  0  0  0  0  0  0  0  0  0  0
    4.7019   -0.1984    0.0341 C   0  0  0  0  0  0  0  0  0  0  0  0
    5.3670   -1.3990   -0.3159 C   0  0  0  0  0  0  0  0  0  0  0  0
    4.7667   -2.2885   -0.5514 H   0  0  0  0  0  0  0  0  0  0  0  0
    1.4041   -3.5731    0.0939 C   0  0  0  0  0  0  0  0  0  0  0  0
    2.4974   -3.5501    0.1718 H   0  0  0  0  0  0  0  0  0  0  0  0
    6.7641   -1.4349   -0.3695 C   0  0  0  0  0  0  0  0  0  0  0  0
    7.2720   -2.3724   -0.6451 H   0  0  0  0  0  0  0  0  0  0  0  0
    7.5242   -0.2858   -0.0832 C   0  0  0  0  0  0  0  0  0  0  0  0
    8.6229   -0.3225   -0.1309 H   0  0  0  0  0  0  0  0  0  0  0  0
    0.7024   -4.7817    0.0491 C   0  0  0  0  0  0  0  0  0  0  0  0
    1.2564   -5.7315    0.0898 H   0  0  0  0  0  0  0  0  0  0  0  0
   -1.3285   -1.0774   -0.0539 N   0  0  0  0  0  2  0  0  0  0  0  0
   -2.6441   -1.1330   -0.0414 N   0  0  0  0  0  2  0  0  0  0  0  0
   -3.3035   -0.0466   -0.1082 N   0  0  0  0  0  2  0  0  0  0  0  0
   -5.4703    0.9550   -0.3111 C   0  0  0  0  0  0  0  0  0  0  0  0
   -4.9415    1.8835   -0.5742 H   0  0  0  0  0  0  0  0  0  0  0  0
   -6.8689    0.9092   -0.2559 C   0  0  0  0  0  0  0  0  0  0  0  0
   -7.4537    1.8149   -0.4783 H   0  0  0  0  0  0  0  0  0  0  0  0
   -0.7051   -2.3483   -0.0385 C   0  0  0  0  0  0  0  0  0  0  0  0
   -4.7016   -0.1988   -0.0343 C   0  0  0  0  0  0  0  0  0  0  0  0
   -5.3668   -1.3994    0.3158 C   0  0  0  0  0  0  0  0  0  0  0  0
   -4.7666   -2.2889    0.5513 H   0  0  0  0  0  0  0  0  0  0  0  0
   -1.4034   -3.5734   -0.0937 C   0  0  0  0  0  0  0  0  0  0  0  0
   -2.4966   -3.5506   -0.1717 H   0  0  0  0  0  0  0  0  0  0  0  0
   -6.7639   -1.4353    0.3692 C   0  0  0  0  0  0  0  0  0  0  0  0
   -7.2718   -2.3727    0.6449 H   0  0  0  0  0  0  0  0  0  0  0  0
   -7.5239   -0.2862    0.0828 C   0  0  0  0  0  0  0  0  0  0  0  0
   -8.6227   -0.3229    0.1305 H   0  0  0  0  0  0  0  0  0  0  0  0
   -0.7014   -4.7819   -0.0489 C   0  0  0  0  0  0  0  0  0  0  0  0
   -1.2552   -5.7318   -0.0896 H   0  0  0  0  0  0  0  0  0  0  0  0
  2  1  1  0  0  0  0
  2  3  1  0  0  0  0
  4  5  1  0  0  0  0
  6  4  1  0  0  0  0
  6  7  1  0  0  0  0
  8  1  1  0  0  0  0
  8 12  1  0  0  0  0
  9  3  1  0  0  0  0
  9  4  2  0  0  0  0
 10  9  1  0  0  0  0
 11 10  1  0  0  0  0
 12 13  1  0  0  0  0
 14 10  2  0  0  0  0
 14 16  1  0  0  0  0
 15 14  1  0  0  0  0
 16  6  2  0  0  0  0
 17 16  1  0  0  0  0
 18 19  1  0  0  0  0
 18 12  2  0  0  0  0
 20 21  1  0  0  0  0
 20 27  1  0  0  0  0
 22 21  1  0  0  0  0
 22 28  1  0  0  0  0
 23 25  2  0  0  0  0
 23 28  1  0  0  0  0
 24 23  1  0  0  0  0
 25 35  1  0  0  0  0
 26 25  1  0  0  0  0
 27  8  2  0  0  0  0
 28 29  2  0  0  0  0
 29 33  1  0  0  0  0
 29 30  1  0  0  0  0
 31 37  2  0  0  0  0
 31 27  1  0  0  0  0
 32 31  1  0  0  0  0
 33 34  1  0  0  0  0
 35 36  1  0  0  0  0
 35 33  2  0  0  0  0
 37 18  1  0  0  0  0
 38 37  1  0  0  0  0
M  END
