1,15
 OpenBabel05122313053D

 54 55  0  0  0  0  0  0  0  0999 V2000
    1.7901    0.8430    0.5067 N   0  0  0  0  0  2  0  0  0  0  0  0
    1.1566    1.6633    1.4104 C   0  0  0  0  0  0  0  0  0  0  0  0
    1.8758    2.5496    2.2286 C   0  0  0  0  0  0  0  0  0  0  0  0
    1.3491    3.1657    2.9696 H   0  0  0  0  0  0  0  0  0  0  0  0
    3.2623    2.6375    2.0616 C   0  0  0  0  0  0  0  0  0  0  0  0
    3.8585    3.3147    2.6906 H   0  0  0  0  0  0  0  0  0  0  0  0
    3.8726    1.8817    1.0523 C   0  0  0  0  0  0  0  0  0  0  0  0
    4.9501    1.9764    0.8573 H   0  0  0  0  0  0  0  0  0  0  0  0
    3.1175    0.9902    0.2646 C   0  0  0  0  0  0  0  0  0  0  0  0
   -0.2927    1.5484    1.3560 C   0  0  0  0  0  0  0  0  0  0  0  0
   -1.1810    2.3077    2.2914 C   0  0  0  0  0  0  0  0  0  0  0  0
   -2.2402    2.2234    1.9909 H   0  0  0  0  0  0  0  0  0  0  0  0
   -0.8991    3.3798    2.3191 H   0  0  0  0  0  0  0  0  0  0  0  0
   -1.0828    1.9156    3.3263 H   0  0  0  0  0  0  0  0  0  0  0  0
   -0.7212    0.7292    0.4055 N   0  0  0  0  0  2  0  0  0  0  0  0
   -2.1168    0.4858    0.2345 C   0  0  0  0  0  0  0  0  0  0  0  0
   -2.7645    1.1181   -0.8571 C   0  0  0  0  0  0  0  0  0  0  0  0
   -4.1440    0.9038   -1.0110 C   0  0  0  0  0  0  0  0  0  0  0  0
   -4.6761    1.3895   -1.8420 H   0  0  0  0  0  0  0  0  0  0  0  0
   -4.8455    0.0664   -0.1327 C   0  0  0  0  0  0  0  0  0  0  0  0
   -5.9255   -0.0933   -0.2713 H   0  0  0  0  0  0  0  0  0  0  0  0
   -4.1702   -0.5882    0.9048 C   0  0  0  0  0  0  0  0  0  0  0  0
   -4.7224   -1.2734    1.5658 H   0  0  0  0  0  0  0  0  0  0  0  0
   -2.7911   -0.4012    1.1108 C   0  0  0  0  0  0  0  0  0  0  0  0
   -1.9720    2.0085   -1.8030 C   0  0  0  0  0  0  0  0  0  0  0  0
   -0.9159    1.6741   -1.7233 H   0  0  0  0  0  0  0  0  0  0  0  0
   -2.3882    1.8375   -3.2686 C   0  0  0  0  0  0  0  0  0  0  0  0
   -2.3290    0.7717   -3.5644 H   0  0  0  0  0  0  0  0  0  0  0  0
   -1.7118    2.4179   -3.9285 H   0  0  0  0  0  0  0  0  0  0  0  0
   -3.4195    2.2011   -3.4583 H   0  0  0  0  0  0  0  0  0  0  0  0
   -2.0381    3.4812   -1.3599 C   0  0  0  0  0  0  0  0  0  0  0  0
   -3.0808    3.8600   -1.4002 H   0  0  0  0  0  0  0  0  0  0  0  0
   -1.4169    4.1213   -2.0199 H   0  0  0  0  0  0  0  0  0  0  0  0
   -1.6762    3.6142   -0.3202 H   0  0  0  0  0  0  0  0  0  0  0  0
   -2.0527   -1.2036    2.1751 C   0  0  0  0  0  0  0  0  0  0  0  0
   -1.0062   -0.8382    2.2169 H   0  0  0  0  0  0  0  0  0  0  0  0
   -1.9800   -2.6866    1.7667 C   0  0  0  0  0  0  0  0  0  0  0  0
   -2.9933   -3.1372    1.7236 H   0  0  0  0  0  0  0  0  0  0  0  0
   -1.3768   -3.2605    2.4991 H   0  0  0  0  0  0  0  0  0  0  0  0
   -1.5078   -2.7974    0.7709 H   0  0  0  0  0  0  0  0  0  0  0  0
   -2.6655   -1.0286    3.5736 C   0  0  0  0  0  0  0  0  0  0  0  0
   -3.6964   -1.4363    3.6205 H   0  0  0  0  0  0  0  0  0  0  0  0
   -2.7165    0.0382    3.8730 H   0  0  0  0  0  0  0  0  0  0  0  0
   -2.0637   -1.5709    4.3310 H   0  0  0  0  0  0  0  0  0  0  0  0
    3.7279    0.2859   -0.9300 C   0  0  0  0  0  0  0  0  0  0  0  0
    2.9639   -0.4324   -1.2896 H   0  0  0  0  0  0  0  0  0  0  0  0
    4.9876   -0.5124   -0.5763 C   0  0  0  0  0  0  0  0  0  0  0  0
    5.8032    0.1384   -0.1965 H   0  0  0  0  0  0  0  0  0  0  0  0
    5.3700   -1.0301   -1.4785 H   0  0  0  0  0  0  0  0  0  0  0  0
    4.7551   -1.2805    0.1861 H   0  0  0  0  0  0  0  0  0  0  0  0
    3.9799    1.3173   -2.0470 C   0  0  0  0  0  0  0  0  0  0  0  0
    3.0499    1.8588   -2.3134 H   0  0  0  0  0  0  0  0  0  0  0  0
    4.3465    0.8024   -2.9576 H   0  0  0  0  0  0  0  0  0  0  0  0
    4.7426    2.0678   -1.7511 H   0  0  0  0  0  0  0  0  0  0  0  0
  1  2  1  0  0  0  0
  2  3  1  0  0  0  0
  3  4  1  0  0  0  0
  5  3  2  0  0  0  0
  5  6  1  0  0  0  0
  7  5  1  0  0  0  0
  8  7  1  0  0  0  0
  9  1  1  0  0  0  0
  9  7  2  0  0  0  0
 10  2  2  0  0  0  0
 10 11  1  0  0  0  0
 11 13  1  0  0  0  0
 11 14  1  0  0  0  0
 12 11  1  0  0  0  0
 15 10  1  0  0  0  0
 16 15  1  0  0  0  0
 16 24  1  0  0  0  0
 17 16  2  0  0  0  0
 18 17  1  0  0  0  0
 18 20  2  0  0  0  0
 19 18  1  0  0  0  0
 20 22  1  0  0  0  0
 21 20  1  0  0  0  0
 22 24  2  0  0  0  0
 22 23  1  0  0  0  0
 24 35  1  0  0  0  0
 25 26  1  0  0  0  0
 25 31  1  0  0  0  0
 25 17  1  0  0  0  0
 27 25  1  0  0  0  0
 28 27  1  0  0  0  0
 29 27  1  0  0  0  0
 30 27  1  0  0  0  0
 31 34  1  0  0  0  0
 32 31  1  0  0  0  0
 33 31  1  0  0  0  0
 35 36  1  0  0  0  0
 35 41  1  0  0  0  0
 37 35  1  0  0  0  0
 37 39  1  0  0  0  0
 38 37  1  0  0  0  0
 40 37  1  0  0  0  0
 41 42  1  0  0  0  0
 41 43  1  0  0  0  0
 41 44  1  0  0  0  0
 45 47  1  0  0  0  0
 45  9  1  0  0  0  0
 46 45  1  0  0  0  0
 47 48  1  0  0  0  0
 47 50  1  0  0  0  0
 49 47  1  0  0  0  0
 51 54  1  0  0  0  0
 51 45  1  0  0  0  0
 52 51  1  0  0  0  0
 53 51  1  0  0  0  0
M  END
