1,3
 OpenBabel05122313053D

 58 61  0  0  1  0  0  0  0  0999 V2000
    0.3944    1.5129   -0.2786 N   0  0  0  0  0  2  0  0  0  0  0  0
   -0.6480    1.2900   -1.1238 N   0  0  0  0  0  0  0  0  0  0  0  0
    0.4194   -1.4573   -0.7555 N   0  0  0  0  0  2  0  0  0  0  0  0
   -0.7194   -1.0930   -1.3999 N   0  0  0  0  0  0  0  0  0  0  0  0
   -1.1463   -0.2363    1.3496 O   0  0  0  0  0  0  0  0  0  0  0  0
   -1.9704    2.4449   -2.9463 C   0  0  0  0  0  0  0  0  0  0  0  0
   -1.8634    1.6144   -3.6749 H   0  0  0  0  0  0  0  0  0  0  0  0
   -1.8855    3.3925   -3.5087 H   0  0  0  0  0  0  0  0  0  0  0  0
   -2.9910    2.4031   -2.5150 H   0  0  0  0  0  0  0  0  0  0  0  0
   -0.9131    2.3988   -1.8949 C   0  0  2  0  0  3  0  0  0  0  0  0
    0.0041    3.3688   -1.4981 C   0  0  0  0  0  0  0  0  0  0  0  0
    0.0968    4.3795   -1.9079 H   0  0  0  0  0  0  0  0  0  0  0  0
    0.8080    2.7745   -0.4930 C   0  0  0  0  0  0  0  0  0  0  0  0
    1.9990    3.3202    0.2184 C   0  0  0  0  0  0  0  0  0  0  0  0
    2.0987    2.8694    1.2252 H   0  0  0  0  0  0  0  0  0  0  0  0
    1.9353    4.4207    0.3114 H   0  0  0  0  0  0  0  0  0  0  0  0
    2.9218    3.0604   -0.3449 H   0  0  0  0  0  0  0  0  0  0  0  0
   -2.3597   -1.9371   -3.1200 C   0  0  0  0  0  0  0  0  0  0  0  0
   -2.4285   -2.7967   -3.8109 H   0  0  0  0  0  0  0  0  0  0  0  0
   -2.3766   -1.0133   -3.7356 H   0  0  0  0  0  0  0  0  0  0  0  0
   -3.2672   -1.9439   -2.4799 H   0  0  0  0  0  0  0  0  0  0  0  0
   -1.1147   -2.0491   -2.3056 C   0  0  2  0  0  3  0  0  0  0  0  0
   -0.1635   -3.0644   -2.2271 C   0  0  0  0  0  0  0  0  0  0  0  0
   -0.1505   -3.9893   -2.8123 H   0  0  0  0  0  0  0  0  0  0  0  0
    0.7821   -2.6552   -1.2512 C   0  0  0  0  0  0  0  0  0  0  0  0
    2.0397   -3.3200   -0.8047 C   0  0  0  0  0  0  0  0  0  0  0  0
    2.0161   -4.4025   -1.0293 H   0  0  0  0  0  0  0  0  0  0  0  0
    2.2010   -3.1726    0.2818 H   0  0  0  0  0  0  0  0  0  0  0  0
    2.9106   -2.8606   -1.3211 H   0  0  0  0  0  0  0  0  0  0  0  0
   -1.4596    0.0900   -1.0048 C   0  0  1  0  0  0  0  0  0  0  0  0
   -2.2709    0.1984   -1.7434 H   0  0  0  0  0  0  0  0  0  0  0  0
   -2.1822   -0.0191    0.4119 C   0  0  0  0  0  0  0  0  0  0  0  0
   -3.1417   -1.2282    0.4082 C   0  0  0  0  0  0  0  0  0  0  0  0
   -2.5614   -2.5180    0.3679 C   0  0  0  0  0  0  0  0  0  0  0  0
   -1.4677   -2.6203    0.3763 H   0  0  0  0  0  0  0  0  0  0  0  0
   -3.3587   -3.6693    0.3706 C   0  0  0  0  0  0  0  0  0  0  0  0
   -2.8784   -4.6586    0.3323 H   0  0  0  0  0  0  0  0  0  0  0  0
   -4.7570   -3.5624    0.4402 C   0  0  0  0  0  0  0  0  0  0  0  0
   -5.3850   -4.4661    0.4432 H   0  0  0  0  0  0  0  0  0  0  0  0
   -5.3419   -2.2929    0.5423 C   0  0  0  0  0  0  0  0  0  0  0  0
   -6.4334   -2.1927    0.6419 H   0  0  0  0  0  0  0  0  0  0  0  0
   -4.5417   -1.1381    0.5350 C   0  0  0  0  0  0  0  0  0  0  0  0
   -5.0242   -0.1605    0.6574 H   0  0  0  0  0  0  0  0  0  0  0  0
   -2.8384    1.3606    0.6059 C   0  0  0  0  0  0  0  0  0  0  0  0
   -3.9324    1.7880   -0.1765 C   0  0  0  0  0  0  0  0  0  0  0  0
   -4.3924    1.1058   -0.9073 H   0  0  0  0  0  0  0  0  0  0  0  0
   -4.4427    3.0898   -0.0535 C   0  0  0  0  0  0  0  0  0  0  0  0
   -5.3005    3.3991   -0.6700 H   0  0  0  0  0  0  0  0  0  0  0  0
   -3.8563    3.9939    0.8447 C   0  0  0  0  0  0  0  0  0  0  0  0
   -4.2545    5.0150    0.9423 H   0  0  0  0  0  0  0  0  0  0  0  0
   -2.7494    3.5886    1.6051 C   0  0  0  0  0  0  0  0  0  0  0  0
   -2.2650    4.2953    2.2957 H   0  0  0  0  0  0  0  0  0  0  0  0
   -2.2414    2.2872    1.4831 C   0  0  0  0  0  0  0  0  0  0  0  0
   -1.3469    1.9866    2.0448 H   0  0  0  0  0  0  0  0  0  0  0  0
   -1.5404   -0.5898    2.6752 C   0  0  0  0  0  0  0  0  0  0  0  0
   -0.6129   -0.5339    3.2763 H   0  0  0  0  0  0  0  0  0  0  0  0
   -1.9474   -1.6222    2.7208 H   0  0  0  0  0  0  0  0  0  0  0  0
   -2.3031    0.1100    3.0803 H   0  0  0  0  0  0  0  0  0  0  0  0
  2 30  1  0  0  0  0
  2  1  1  0  0  0  0
  4 30  1  0  0  0  0
  4  3  1  0  0  0  0
  5 55  1  0  0  0  0
  6  9  1  0  0  0  0
  7  6  1  0  0  0  0
  8  6  1  0  0  0  0
 10  6  1  6  0  0  0
 10 11  1  0  0  0  0
 10  2  1  0  0  0  0
 11 13  2  0  0  0  0
 12 11  1  0  0  0  0
 13  1  1  0  0  0  0
 13 14  1  0  0  0  0
 14 16  1  0  0  0  0
 14 15  1  0  0  0  0
 17 14  1  0  0  0  0
 18 21  1  0  0  0  0
 19 18  1  0  0  0  0
 20 18  1  0  0  0  0
 22 18  1  1  0  0  0
 22 23  1  0  0  0  0
 22  4  1  0  0  0  0
 23 25  2  0  0  0  0
 24 23  1  0  0  0  0
 25 26  1  0  0  0  0
 25  3  1  0  0  0  0
 26 28  1  0  0  0  0
 27 26  1  0  0  0  0
 29 26  1  0  0  0  0
 30 31  1  6  0  0  0
 30 32  1  0  0  0  0
 32 44  1  0  0  0  0
 32  5  1  0  0  0  0
 33 32  1  0  0  0  0
 33 42  1  0  0  0  0
 34 36  1  0  0  0  0
 34 35  1  0  0  0  0
 34 33  2  0  0  0  0
 36 38  2  0  0  0  0
 37 36  1  0  0  0  0
 38 39  1  0  0  0  0
 38 40  1  0  0  0  0
 40 41  1  0  0  0  0
 42 40  2  0  0  0  0
 42 43  1  0  0  0  0
 44 53  1  0  0  0  0
 45 47  1  0  0  0  0
 45 44  2  0  0  0  0
 46 45  1  0  0  0  0
 47 49  2  0  0  0  0
 48 47  1  0  0  0  0
 49 50  1  0  0  0  0
 49 51  1  0  0  0  0
 51 52  1  0  0  0  0
 53 51  2  0  0  0  0
 53 54  1  0  0  0  0
 55 57  1  0  0  0  0
 55 58  1  0  0  0  0
 55 56  1  0  0  0  0
M  END
