1,4
 OpenBabel05122313053D

 54 55  0  0  1  0  0  0  0  0999 V2000
   -0.5100   -0.1856   -1.1377 N   0  0  0  0  0  2  0  0  0  0  0  0
   -0.5285    1.1697   -0.5668 C   0  0  2  0  0  0  0  0  0  0  0  0
    0.5281    1.1698    0.5669 C   0  0  1  0  0  0  0  0  0  0  0  0
    0.5099   -0.1855    1.1378 N   0  0  0  0  0  2  0  0  0  0  0  0
   -0.8379   -0.3379   -2.5881 C   0  0  0  0  0  0  0  0  0  0  0  0
   -2.0750    0.5037   -2.9589 C   0  0  0  0  0  0  0  0  0  0  0  0
   -1.1425   -1.8128   -2.8968 C   0  0  0  0  0  0  0  0  0  0  0  0
    0.3908    0.1164   -3.4015 C   0  0  0  0  0  0  0  0  0  0  0  0
   -1.8882    1.6215   -0.0422 C   0  0  0  0  0  0  0  0  0  0  0  0
   -2.2148    2.9909   -0.0974 C   0  0  0  0  0  0  0  0  0  0  0  0
   -3.4195    3.4654    0.4413 C   0  0  0  0  0  0  0  0  0  0  0  0
   -4.3186    2.5703    1.0432 C   0  0  0  0  0  0  0  0  0  0  0  0
   -4.0028    1.2039    1.0974 C   0  0  0  0  0  0  0  0  0  0  0  0
   -2.7962    0.7286    0.5586 C   0  0  0  0  0  0  0  0  0  0  0  0
    0.8382   -0.3377    2.5881 C   0  0  0  0  0  0  0  0  0  0  0  0
    2.0751    0.5043    2.9586 C   0  0  0  0  0  0  0  0  0  0  0  0
    1.1433   -1.8125    2.8967 C   0  0  0  0  0  0  0  0  0  0  0  0
   -0.3904    0.1163    3.4017 C   0  0  0  0  0  0  0  0  0  0  0  0
    1.8877    1.6220    0.0422 C   0  0  0  0  0  0  0  0  0  0  0  0
    2.2139    2.9915    0.0974 C   0  0  0  0  0  0  0  0  0  0  0  0
    3.4185    3.4661   -0.4413 C   0  0  0  0  0  0  0  0  0  0  0  0
    4.3178    2.5712   -1.0432 C   0  0  0  0  0  0  0  0  0  0  0  0
    4.0023    1.2048   -1.0974 C   0  0  0  0  0  0  0  0  0  0  0  0
    2.7958    0.7292   -0.5586 C   0  0  0  0  0  0  0  0  0  0  0  0
   -0.2011    1.8972   -1.3384 H   0  0  0  0  0  0  0  0  0  0  0  0
    0.2005    1.8973    1.3385 H   0  0  0  0  0  0  0  0  0  0  0  0
   -2.3111    0.3489   -4.0305 H   0  0  0  0  0  0  0  0  0  0  0  0
   -1.9129    1.5880   -2.8078 H   0  0  0  0  0  0  0  0  0  0  0  0
   -2.9555    0.2040   -2.3590 H   0  0  0  0  0  0  0  0  0  0  0  0
   -1.4059   -1.9134   -3.9683 H   0  0  0  0  0  0  0  0  0  0  0  0
   -1.9956   -2.1813   -2.2939 H   0  0  0  0  0  0  0  0  0  0  0  0
   -0.2662   -2.4634   -2.7061 H   0  0  0  0  0  0  0  0  0  0  0  0
    0.1909    0.0309   -4.4885 H   0  0  0  0  0  0  0  0  0  0  0  0
    0.6557    1.1714   -3.1874 H   0  0  0  0  0  0  0  0  0  0  0  0
    1.2690   -0.5117   -3.1538 H   0  0  0  0  0  0  0  0  0  0  0  0
   -1.5128    3.6947   -0.5747 H   0  0  0  0  0  0  0  0  0  0  0  0
   -3.6605    4.5380    0.3851 H   0  0  0  0  0  0  0  0  0  0  0  0
   -5.2670    2.9376    1.4639 H   0  0  0  0  0  0  0  0  0  0  0  0
   -4.7042    0.4939    1.5618 H   0  0  0  0  0  0  0  0  0  0  0  0
   -2.5692   -0.3471    0.5992 H   0  0  0  0  0  0  0  0  0  0  0  0
    2.3116    0.3496    4.0300 H   0  0  0  0  0  0  0  0  0  0  0  0
    1.9127    1.5886    2.8074 H   0  0  0  0  0  0  0  0  0  0  0  0
    2.9556    0.2048    2.3584 H   0  0  0  0  0  0  0  0  0  0  0  0
    1.4071   -1.9130    3.9682 H   0  0  0  0  0  0  0  0  0  0  0  0
    0.2671   -2.4633    2.7063 H   0  0  0  0  0  0  0  0  0  0  0  0
    1.9963   -2.1807    2.2936 H   0  0  0  0  0  0  0  0  0  0  0  0
   -0.1902    0.0309    4.4887 H   0  0  0  0  0  0  0  0  0  0  0  0
   -0.6557    1.1712    3.1878 H   0  0  0  0  0  0  0  0  0  0  0  0
   -1.2686   -0.5120    3.1544 H   0  0  0  0  0  0  0  0  0  0  0  0
    1.5117    3.6950    0.5746 H   0  0  0  0  0  0  0  0  0  0  0  0
    3.6593    4.5388   -0.3852 H   0  0  0  0  0  0  0  0  0  0  0  0
    5.2661    2.9388   -1.4640 H   0  0  0  0  0  0  0  0  0  0  0  0
    4.7038    0.4950   -1.5618 H   0  0  0  0  0  0  0  0  0  0  0  0
    2.5691   -0.3465   -0.5991 H   0  0  0  0  0  0  0  0  0  0  0  0
  1  2  1  0  0  0  0
  2 25  1  6  0  0  0
  2  9  1  0  0  0  0
  2  3  1  0  0  0  0
  3  4  1  0  0  0  0
  3 26  1  1  0  0  0
  4 15  1  0  0  0  0
  5  1  1  0  0  0  0
  6 28  1  0  0  0  0
  6  5  1  0  0  0  0
  6 29  1  0  0  0  0
  7 32  1  0  0  0  0
  7  5  1  0  0  0  0
  7 31  1  0  0  0  0
  8 34  1  0  0  0  0
  8 35  1  0  0  0  0
  8  5  1  0  0  0  0
  9 14  1  0  0  0  0
 10  9  2  0  0  0  0
 10 11  1  0  0  0  0
 11 12  2  0  0  0  0
 12 13  1  0  0  0  0
 12 38  1  0  0  0  0
 13 39  1  0  0  0  0
 14 40  1  0  0  0  0
 14 13  2  0  0  0  0
 15 17  1  0  0  0  0
 15 16  1  0  0  0  0
 15 18  1  0  0  0  0
 16 41  1  0  0  0  0
 17 44  1  0  0  0  0
 18 47  1  0  0  0  0
 19 20  1  0  0  0  0
 19  3  1  0  0  0  0
 20 50  1  0  0  0  0
 21 51  1  0  0  0  0
 21 20  2  0  0  0  0
 22 21  1  0  0  0  0
 23 22  2  0  0  0  0
 23 24  1  0  0  0  0
 24 19  2  0  0  0  0
 27  6  1  0  0  0  0
 30  7  1  0  0  0  0
 33  8  1  0  0  0  0
 36 10  1  0  0  0  0
 37 11  1  0  0  0  0
 42 16  1  0  0  0  0
 43 16  1  0  0  0  0
 45 17  1  0  0  0  0
 46 17  1  0  0  0  0
 48 18  1  0  0  0  0
 49 18  1  0  0  0  0
 52 22  1  0  0  0  0
 53 23  1  0  0  0  0
 54 24  1  0  0  0  0
M  END
