1,12
 OpenBabel05122313053D

 28 29  0  0  1  0  0  0  0  0999 V2000
    1.7281    0.5134    0.0487 N   0  0  0  0  0  2  0  0  0  0  0  0
    3.0443    0.4287    0.3197 C   0  0  0  0  0  0  0  0  0  0  0  0
    3.4139   -0.6022    0.4641 H   0  0  0  0  0  0  0  0  0  0  0  0
    3.8494    1.5733    0.4043 C   0  0  0  0  0  0  0  0  0  0  0  0
    4.9196    1.4597    0.6286 H   0  0  0  0  0  0  0  0  0  0  0  0
    3.2799    2.8409    0.2020 C   0  0  0  0  0  0  0  0  0  0  0  0
    3.8963    3.7496    0.2638 H   0  0  0  0  0  0  0  0  0  0  0  0
    1.9106    2.9316   -0.0817 C   0  0  0  0  0  0  0  0  0  0  0  0
    1.4077    3.8939   -0.2503 H   0  0  0  0  0  0  0  0  0  0  0  0
    1.1652    1.7472   -0.1501 C   0  0  0  0  0  0  0  0  0  0  0  0
   -0.2634    1.6619   -0.4217 C   0  0  0  0  0  0  0  0  0  0  0  0
   -0.8297    0.4879   -0.4643 N   0  0  0  0  0  2  0  0  0  0  0  0
   -2.2819    0.6681   -0.6054 C   0  0  2  0  0  0  0  0  0  0  0  0
   -2.6313    0.0423   -1.4511 H   0  0  0  0  0  0  0  0  0  0  0  0
   -2.3727    2.1858   -0.9293 C   0  0  0  0  0  0  0  0  0  0  0  0
   -2.5617    2.3929   -2.0016 H   0  0  0  0  0  0  0  0  0  0  0  0
   -3.1135    2.7310   -0.3143 H   0  0  0  0  0  0  0  0  0  0  0  0
   -1.0479    2.7297   -0.6082 O   0  0  0  0  0  0  0  0  0  0  0  0
   -3.0287    0.2061    0.6703 C   0  0  0  0  0  0  0  0  0  0  0  0
   -2.7677   -0.8707    0.7580 H   0  0  0  0  0  0  0  0  0  0  0  0
   -2.5489    0.9274    1.9323 C   0  0  0  0  0  0  0  0  0  0  0  0
   -3.0843    0.5405    2.8219 H   0  0  0  0  0  0  0  0  0  0  0  0
   -2.7342    2.0227    1.8922 H   0  0  0  0  0  0  0  0  0  0  0  0
   -1.4662    0.7626    2.1054 H   0  0  0  0  0  0  0  0  0  0  0  0
   -4.5421    0.3257    0.4666 C   0  0  0  0  0  0  0  0  0  0  0  0
   -5.0838   -0.0904    1.3391 H   0  0  0  0  0  0  0  0  0  0  0  0
   -4.8772   -0.2311   -0.4323 H   0  0  0  0  0  0  0  0  0  0  0  0
   -4.8691    1.3826    0.3562 H   0  0  0  0  0  0  0  0  0  0  0  0
  1  2  1  0  0  0  0
  2  4  2  0  0  0  0
  2  3  1  0  0  0  0
  4  5  1  0  0  0  0
  6  7  1  0  0  0  0
  6  4  1  0  0  0  0
  8  6  2  0  0  0  0
  9  8  1  0  0  0  0
 10  8  1  0  0  0  0
 10  1  1  0  0  0  0
 11 10  2  0  0  0  0
 12 11  1  0  0  0  0
 13 14  1  6  0  0  0
 13 12  1  0  0  0  0
 13 19  1  0  0  0  0
 15 18  1  0  0  0  0
 15 13  1  0  0  0  0
 15 17  1  0  0  0  0
 16 15  1  0  0  0  0
 18 11  1  0  0  0  0
 19 20  1  0  0  0  0
 19 21  1  0  0  0  0
 21 24  1  0  0  0  0
 21 22  1  0  0  0  0
 23 21  1  0  0  0  0
 25 19  1  0  0  0  0
 25 26  1  0  0  0  0
 27 25  1  0  0  0  0
 28 25  1  0  0  0  0
M  END
