1,9
 OpenBabel05122313053D

 19 19  0  0  0  0  0  0  0  0999 V2000
   -0.8554   -1.6073    0.0000 N   0  0  0  0  0  0  0  0  0  0  0  0
   -0.3776   -2.5199    0.0000 H   0  0  0  0  0  0  0  0  0  0  0  0
   -1.6611   -1.3663    1.2139 C   0  0  0  0  0  0  0  0  0  0  0  0
   -1.0410   -1.6153    2.0944 H   0  0  0  0  0  0  0  0  0  0  0  0
   -2.5677   -2.0148    1.2213 H   0  0  0  0  0  0  0  0  0  0  0  0
   -2.0432    0.1388    1.2113 C   0  0  0  0  0  0  0  0  0  0  0  0
   -1.6216    0.6539    2.0941 H   0  0  0  0  0  0  0  0  0  0  0  0
   -3.1502    0.2823    1.2189 H   0  0  0  0  0  0  0  0  0  0  0  0
   -1.4651    0.7776   -0.0000 N   0  0  0  0  0  0  0  0  0  0  0  0
   -1.6326    2.2363   -0.0000 C   0  0  0  0  0  0  0  0  0  0  0  0
   -2.7119    2.5117    0.0001 H   0  0  0  0  0  0  0  0  0  0  0  0
   -1.1269    2.6550    0.8886 H   0  0  0  0  0  0  0  0  0  0  0  0
   -1.6612   -1.3663   -1.2138 C   0  0  0  0  0  0  0  0  0  0  0  0
   -1.0411   -1.6154   -2.0944 H   0  0  0  0  0  0  0  0  0  0  0  0
   -2.5677   -2.0148   -1.2211 H   0  0  0  0  0  0  0  0  0  0  0  0
   -2.0433    0.1387   -1.2113 C   0  0  0  0  0  0  0  0  0  0  0  0
   -1.6217    0.6538   -2.0941 H   0  0  0  0  0  0  0  0  0  0  0  0
   -3.1502    0.2823   -1.2189 H   0  0  0  0  0  0  0  0  0  0  0  0
   -1.1270    2.6549   -0.8888 H   0  0  0  0  0  0  0  0  0  0  0  0
  1  2  1  0  0  0  0
  1  3  1  0  0  0  0
  3  5  1  0  0  0  0
  3  4  1  0  0  0  0
  6  3  1  0  0  0  0
  6  8  1  0  0  0  0
  6  7  1  0  0  0  0
  9  6  1  0  0  0  0
 10  9  1  0  0  0  0
 10 11  1  0  0  0  0
 10 12  1  0  0  0  0
 13 16  1  0  0  0  0
 13  1  1  0  0  0  0
 14 13  1  0  0  0  0
 15 13  1  0  0  0  0
 16  9  1  0  0  0  0
 17 16  1  0  0  0  0
 18 16  1  0  0  0  0
 19 10  1  0  0  0  0
M  END
