2,3
 OpenBabel05122313053D

 27 27  0  0  1  0  0  0  0  0999 V2000
   -3.5131   -1.0812    0.3611 Si  0  0  0  0  0  0  0  0  0  0  0  0
   -1.9597   -0.3241   -0.1158 N   0  0  0  0  0  2  0  0  0  0  0  0
   -0.5132    0.8911   -1.3242 N   0  0  0  0  0  2  0  0  0  0  0  0
   -1.8127    0.7668   -0.9322 C   0  0  2  0  0  3  0  0  0  0  0  0
   -2.7826    1.7128   -1.3545 C   0  0  0  0  0  0  0  0  0  0  0  0
   -3.8302    1.6269   -1.0387 H   0  0  0  0  0  0  0  0  0  0  0  0
   -2.3563    2.7531   -2.1833 C   0  0  0  0  0  0  0  0  0  0  0  0
   -3.0846    3.5022   -2.5312 H   0  0  0  0  0  0  0  0  0  0  0  0
   -1.0097    2.8549   -2.5771 C   0  0  0  0  0  0  0  0  0  0  0  0
   -0.6687    3.6702   -3.2298 H   0  0  0  0  0  0  0  0  0  0  0  0
   -0.0931    1.8902   -2.1195 C   0  0  0  0  0  0  0  0  0  0  0  0
    1.3644    1.9192   -2.4785 C   0  0  0  0  0  0  0  0  0  0  0  0
    1.6786    0.9331   -2.8736 H   0  0  0  0  0  0  0  0  0  0  0  0
    1.9821    2.1110   -1.5771 H   0  0  0  0  0  0  0  0  0  0  0  0
    1.5822    2.7003   -3.2298 H   0  0  0  0  0  0  0  0  0  0  0  0
   -3.1661   -2.7034    1.2375 C   0  0  0  0  0  0  0  0  0  0  0  0
   -2.6287   -3.4114    0.5758 H   0  0  0  0  0  0  0  0  0  0  0  0
   -4.1280   -3.1680    1.5383 H   0  0  0  0  0  0  0  0  0  0  0  0
   -2.5414   -2.5552    2.1393 H   0  0  0  0  0  0  0  0  0  0  0  0
   -4.4808    0.0692    1.5135 C   0  0  0  0  0  0  0  0  0  0  0  0
   -3.9534    0.1928    2.4806 H   0  0  0  0  0  0  0  0  0  0  0  0
   -5.4790   -0.3671    1.7268 H   0  0  0  0  0  0  0  0  0  0  0  0
   -4.6405    1.0782    1.0834 H   0  0  0  0  0  0  0  0  0  0  0  0
   -4.5026   -1.4104   -1.2171 C   0  0  0  0  0  0  0  0  0  0  0  0
   -3.9264   -2.0777   -1.8902 H   0  0  0  0  0  0  0  0  0  0  0  0
   -4.7398   -0.4862   -1.7803 H   0  0  0  0  0  0  0  0  0  0  0  0
   -5.4603   -1.9146   -0.9716 H   0  0  0  0  0  0  0  0  0  0  0  0
  1 16  1  0  0  0  0
  1 20  1  0  0  0  0
  2  1  1  0  0  0  0
  3  4  1  0  0  0  0
  4  2  1  1  0  0  0
  5  6  1  0  0  0  0
  5  4  1  0  0  0  0
  7  5  2  0  0  0  0
  8  7  1  0  0  0  0
  9  7  1  0  0  0  0
  9 11  2  0  0  0  0
 10  9  1  0  0  0  0
 11  3  1  0  0  0  0
 12 11  1  0  0  0  0
 12 14  1  0  0  0  0
 13 12  1  0  0  0  0
 15 12  1  0  0  0  0
 16 18  1  0  0  0  0
 16 19  1  0  0  0  0
 17 16  1  0  0  0  0
 20 22  1  0  0  0  0
 20 21  1  0  0  0  0
 23 20  1  0  0  0  0
 24 27  1  0  0  0  0
 24  1  1  0  0  0  0
 25 24  1  0  0  0  0
 26 24  1  0  0  0  0
M  END
