1,11
 OpenBabel05122313053D

 25 25  0  0  0  0  0  0  0  0999 V2000
    1.4934   -1.3453   -0.3834 N   0  0  0  0  0  2  0  0  0  0  0  0
    1.2728   -2.5805   -0.1850 O   0  0  0  0  0  1  0  0  0  0  0  0
    2.6348   -0.7878   -0.7877 C   0  0  0  0  0  0  0  0  0  0  0  0
    3.8512   -1.6325   -1.0238 C   0  0  0  0  0  0  0  0  0  0  0  0
    4.7930   -1.7479    0.1946 C   0  0  0  0  0  0  0  0  0  0  0  0
    5.5979   -0.4960    0.5817 C   0  0  0  0  0  0  0  0  0  0  0  0
    4.7933    0.7052    1.1324 C   0  0  0  0  0  0  0  0  0  0  0  0
    4.5463    1.8631    0.1524 C   0  0  0  0  0  0  0  0  0  0  0  0
    3.8369    1.4783   -1.1671 C   0  0  0  0  0  0  0  0  0  0  0  0
    2.6071    0.6714   -0.8945 C   0  0  0  0  0  0  0  0  0  0  0  0
    1.4584    1.2417   -0.6050 N   0  0  0  0  0  2  0  0  0  0  0  0
    1.2751    2.5700   -0.6012 O   0  0  0  0  0  0  0  0  0  0  0  0
    0.2843    2.6917   -0.3150 H   0  0  0  0  0  0  0  0  0  0  0  0
    3.5540    2.3950   -1.7202 H   0  0  0  0  0  0  0  0  0  0  0  0
    4.5166    0.8919   -1.8154 H   0  0  0  0  0  0  0  0  0  0  0  0
    5.5105    2.3481   -0.1128 H   0  0  0  0  0  0  0  0  0  0  0  0
    3.9331    2.6351    0.6617 H   0  0  0  0  0  0  0  0  0  0  0  0
    3.8196    0.3524    1.5391 H   0  0  0  0  0  0  0  0  0  0  0  0
    5.3304    1.1328    2.0040 H   0  0  0  0  0  0  0  0  0  0  0  0
    6.3275   -0.8152    1.3547 H   0  0  0  0  0  0  0  0  0  0  0  0
    6.2208   -0.1719   -0.2834 H   0  0  0  0  0  0  0  0  0  0  0  0
    4.1906   -2.0827    1.0665 H   0  0  0  0  0  0  0  0  0  0  0  0
    5.5077   -2.5712   -0.0186 H   0  0  0  0  0  0  0  0  0  0  0  0
    3.4811   -2.6443   -1.2840 H   0  0  0  0  0  0  0  0  0  0  0  0
    4.4115   -1.2521   -1.9035 H   0  0  0  0  0  0  0  0  0  0  0  0
  1  2  1  0  0  0  0
  3  1  1  0  0  0  0
  4  3  1  0  0  0  0
  4  5  1  0  0  0  0
  5  6  1  0  0  0  0
  5 22  1  0  0  0  0
  6  7  1  0  0  0  0
  6 20  1  0  0  0  0
  7 18  1  0  0  0  0
  7 19  1  0  0  0  0
  8 17  1  0  0  0  0
  8  7  1  0  0  0  0
  9 10  1  0  0  0  0
  9  8  1  0  0  0  0
 10  3  2  0  0  0  0
 10 11  1  0  0  0  0
 11 12  1  0  0  0  0
 12 13  1  0  0  0  0
 14  9  1  0  0  0  0
 15  9  1  0  0  0  0
 16  8  1  0  0  0  0
 21  6  1  0  0  0  0
 23  5  1  0  0  0  0
 24  4  1  0  0  0  0
 25  4  1  0  0  0  0
M  END
