1,9
 OpenBabel05122313053D

 43 46  0  0  1  0  0  0  0  0999 V2000
    0.3819   -0.6768    0.4823 N   0  0  0  0  0  2  0  0  0  0  0  0
    1.7926   -0.3131    0.3416 C   0  0  2  0  0  0  0  0  0  0  0  0
    1.9479    0.0387   -0.7042 H   0  0  0  0  0  0  0  0  0  0  0  0
    2.5536   -1.6702    0.5486 C   0  0  1  0  0  0  0  0  0  0  0  0
    2.9603   -1.7074    1.5853 H   0  0  0  0  0  0  0  0  0  0  0  0
    1.4532   -2.6600    0.4461 N   0  0  0  0  0  0  0  0  0  0  0  0
    0.2702   -1.9916    0.5115 C   0  0  0  0  0  0  0  0  0  0  0  0
   -1.1003   -2.5586    0.5811 C   0  0  0  0  0  0  0  0  0  0  0  0
   -2.0780   -1.6071    0.4930 N   0  0  0  0  0  2  0  0  0  0  0  0
   -3.3697   -1.9711    0.5429 C   0  0  0  0  0  0  0  0  0  0  0  0
   -4.1107   -1.1608    0.4559 H   0  0  0  0  0  0  0  0  0  0  0  0
   -3.7671   -3.3085    0.6925 C   0  0  0  0  0  0  0  0  0  0  0  0
   -4.8372   -3.5563    0.7291 H   0  0  0  0  0  0  0  0  0  0  0  0
   -2.7802   -4.2925    0.7972 C   0  0  0  0  0  0  0  0  0  0  0  0
   -3.0496   -5.3513    0.9239 H   0  0  0  0  0  0  0  0  0  0  0  0
   -1.4295   -3.9137    0.7409 C   0  0  0  0  0  0  0  0  0  0  0  0
   -0.6482   -4.6748    0.8288 H   0  0  0  0  0  0  0  0  0  0  0  0
    2.2746    0.7726    1.2771 C   0  0  0  0  0  0  0  0  0  0  0  0
    3.4891    1.4248    0.9896 C   0  0  0  0  0  0  0  0  0  0  0  0
    4.0345    1.1788    0.0655 H   0  0  0  0  0  0  0  0  0  0  0  0
    3.9922    2.3996    1.8618 C   0  0  0  0  0  0  0  0  0  0  0  0
    4.9410    2.9051    1.6273 H   0  0  0  0  0  0  0  0  0  0  0  0
    3.2789    2.7440    3.0216 C   0  0  0  0  0  0  0  0  0  0  0  0
    3.6699    3.5152    3.7021 H   0  0  0  0  0  0  0  0  0  0  0  0
    2.0664    2.0982    3.3113 C   0  0  0  0  0  0  0  0  0  0  0  0
    1.5056    2.3612    4.2210 H   0  0  0  0  0  0  0  0  0  0  0  0
    1.5705    1.1088    2.4475 C   0  0  0  0  0  0  0  0  0  0  0  0
    0.6232    0.5965    2.6753 H   0  0  0  0  0  0  0  0  0  0  0  0
    3.6777   -1.9062   -0.4310 C   0  0  0  0  0  0  0  0  0  0  0  0
    5.0151   -1.8300   -0.0002 C   0  0  0  0  0  0  0  0  0  0  0  0
    5.2328   -1.6400    1.0625 H   0  0  0  0  0  0  0  0  0  0  0  0
    6.0661   -1.9857   -0.9178 C   0  0  0  0  0  0  0  0  0  0  0  0
    7.1085   -1.9222   -0.5717 H   0  0  0  0  0  0  0  0  0  0  0  0
    5.7867   -2.2283   -2.2711 C   0  0  0  0  0  0  0  0  0  0  0  0
    6.6099   -2.3562   -2.9897 H   0  0  0  0  0  0  0  0  0  0  0  0
    4.4531   -2.3125   -2.7070 C   0  0  0  0  0  0  0  0  0  0  0  0
    4.2316   -2.5075   -3.7670 H   0  0  0  0  0  0  0  0  0  0  0  0
    3.4039   -2.1477   -1.7930 C   0  0  0  0  0  0  0  0  0  0  0  0
    2.3590   -2.2131   -2.1365 H   0  0  0  0  0  0  0  0  0  0  0  0
    1.7341   -4.0713    0.6246 C   0  0  0  0  0  0  0  0  0  0  0  0
    1.5010   -4.4298    1.6513 H   0  0  0  0  0  0  0  0  0  0  0  0
    2.8142   -4.2231    0.4418 H   0  0  0  0  0  0  0  0  0  0  0  0
    1.1944   -4.6910   -0.1177 H   0  0  0  0  0  0  0  0  0  0  0  0
  1  7  1  0  0  0  0
  2  3  1  6  0  0  0
  2  1  1  0  0  0  0
  2  4  1  0  0  0  0
  2 18  1  0  0  0  0
  4  5  1  1  0  0  0
  6  7  1  0  0  0  0
  6  4  1  0  0  0  0
  6 40  1  0  0  0  0
  7  8  2  0  0  0  0
  8 16  1  0  0  0  0
  9 10  1  0  0  0  0
  9  8  1  0  0  0  0
 10 12  2  0  0  0  0
 11 10  1  0  0  0  0
 12 13  1  0  0  0  0
 12 14  1  0  0  0  0
 14 15  1  0  0  0  0
 16 14  2  0  0  0  0
 16 17  1  0  0  0  0
 18 27  1  0  0  0  0
 19 18  2  0  0  0  0
 19 21  1  0  0  0  0
 20 19  1  0  0  0  0
 21 23  2  0  0  0  0
 22 21  1  0  0  0  0
 23 25  1  0  0  0  0
 23 24  1  0  0  0  0
 25 26  1  0  0  0  0
 27 28  1  0  0  0  0
 27 25  2  0  0  0  0
 29 30  1  0  0  0  0
 29  4  1  0  0  0  0
 30 31  1  0  0  0  0
 32 33  1  0  0  0  0
 32 30  2  0  0  0  0
 34 32  1  0  0  0  0
 35 34  1  0  0  0  0
 36 34  2  0  0  0  0
 36 38  1  0  0  0  0
 37 36  1  0  0  0  0
 38 29  2  0  0  0  0
 39 38  1  0  0  0  0
 40 41  1  0  0  0  0
 42 40  1  0  0  0  0
 43 40  1  0  0  0  0
M  END
