1,2
 OpenBabel05122313053D

 16 17  0  0  1  0  0  0  0  0999 V2000
   -1.5807    1.7342    0.6524 N   0  0  0  0  0  2  0  0  0  0  0  0
   -1.6749    0.4514   -1.9368 N   0  0  0  0  0  2  0  0  0  0  0  0
   -1.8786    2.5082    1.7447 C   0  0  0  0  0  0  0  0  0  0  0  0
   -1.1158    2.7733    2.4847 H   0  0  0  0  0  0  0  0  0  0  0  0
   -3.2273    2.8282    1.7255 C   0  0  0  0  0  0  0  0  0  0  0  0
   -3.8551    3.4062    2.4097 H   0  0  0  0  0  0  0  0  0  0  0  0
   -3.4292   -0.7330   -2.7321 C   0  0  0  0  0  0  0  0  0  0  0  0
   -4.1028   -1.4152   -3.2596 H   0  0  0  0  0  0  0  0  0  0  0  0
   -2.0765   -0.4637   -2.8820 C   0  0  0  0  0  0  0  0  0  0  0  0
   -1.3677   -0.8895   -3.6014 H   0  0  0  0  0  0  0  0  0  0  0  0
   -3.7347    2.2378    0.5850 N   0  0  0  0  0  0  0  0  0  0  0  0
   -4.7181    2.2032    0.3181 H   0  0  0  0  0  0  0  0  0  0  0  0
   -3.8617    0.0564   -1.6835 N   0  0  0  0  0  0  0  0  0  0  0  0
   -4.6319   -0.1875   -1.0401 H   0  0  0  0  0  0  0  0  0  0  0  0
   -2.7160    1.5727   -0.0351 C   0  0  2  0  0  3  0  0  0  0  0  0
   -2.7697    0.7427   -1.2241 C   0  0  1  0  0  3  0  0  0  0  0  0
  1  3  1  0  0  0  0
  3  4  1  0  0  0  0
  5  3  2  0  0  0  0
  5  6  1  0  0  0  0
  7 13  1  0  0  0  0
  8  7  1  0  0  0  0
  9  7  2  0  0  0  0
  9  2  1  0  0  0  0
 10  9  1  0  0  0  0
 11  5  1  0  0  0  0
 12 11  1  0  0  0  0
 13 16  1  0  0  0  0
 13 14  1  0  0  0  0
 15 11  1  0  0  0  0
 15  1  1  1  0  0  0
 16  2  1  1  0  0  0
 16 15  1  0  0  0  0
M  END
