3,5
 OpenBabel05122313053D

 24 25  0  0  0  0  0  0  0  0999 V2000
    4.7358    0.2811   -0.3165 Cl  0  0  0  0  0  0  0  0  0  0  0  0
   -1.4576    2.0286   -2.2108 Cl  0  0  0  0  0  0  0  0  0  0  0  0
    1.7991   -0.7288   -0.3099 N   0  0  0  0  0  2  0  0  0  0  0  0
    2.6377   -1.2902   -0.5084 H   0  0  0  0  0  0  0  0  0  0  0  0
   -0.2757    0.5700    0.1603 N   0  0  0  0  0  2  0  0  0  0  0  0
    2.0408    0.5546   -0.0113 C   0  0  0  0  0  0  0  0  0  0  0  0
    3.3049    1.2207    0.0258 C   0  0  0  0  0  0  0  0  0  0  0  0
    3.3771    2.5720    0.3241 C   0  0  0  0  0  0  0  0  0  0  0  0
    4.3569    3.0678    0.3544 H   0  0  0  0  0  0  0  0  0  0  0  0
    2.1847    3.3068    0.5975 C   0  0  0  0  0  0  0  0  0  0  0  0
    2.2725    4.3770    0.8366 H   0  0  0  0  0  0  0  0  0  0  0  0
    0.9339    2.7081    0.5756 C   0  0  0  0  0  0  0  0  0  0  0  0
    0.0205    3.2793    0.7906 H   0  0  0  0  0  0  0  0  0  0  0  0
    0.8419    1.3214    0.2662 C   0  0  0  0  0  0  0  0  0  0  0  0
   -1.5584    1.1288    0.3723 C   0  0  0  0  0  0  0  0  0  0  0  0
   -2.2099    0.9482    1.6098 C   0  0  0  0  0  0  0  0  0  0  0  0
   -1.6725    0.3760    2.3817 H   0  0  0  0  0  0  0  0  0  0  0  0
   -3.4963    1.4605    1.8150 C   0  0  0  0  0  0  0  0  0  0  0  0
   -3.9915    1.3132    2.7863 H   0  0  0  0  0  0  0  0  0  0  0  0
   -4.1526    2.1568    0.7851 C   0  0  0  0  0  0  0  0  0  0  0  0
   -5.1643    2.5596    0.9417 H   0  0  0  0  0  0  0  0  0  0  0  0
   -3.5222    2.3382   -0.4535 C   0  0  0  0  0  0  0  0  0  0  0  0
   -4.0206    2.8716   -1.2751 H   0  0  0  0  0  0  0  0  0  0  0  0
   -2.2310    1.8259   -0.6575 C   0  0  0  0  0  0  0  0  0  0  0  0
  1  7  1  0  0  0  0
  2 24  1  0  0  0  0
  3  6  1  0  0  0  0
  4  3  1  0  0  0  0
  5 14  1  0  0  0  0
  5 15  1  0  0  0  0
  6  7  2  0  0  0  0
  6 14  1  0  0  0  0
  7  8  1  0  0  0  0
  8  9  1  0  0  0  0
  8 10  2  0  0  0  0
 10 11  1  0  0  0  0
 12 10  1  0  0  0  0
 12 13  1  0  0  0  0
 14 12  2  0  0  0  0
 15 16  1  0  0  0  0
 16 18  2  0  0  0  0
 16 17  1  0  0  0  0
 18 19  1  0  0  0  0
 20 21  1  0  0  0  0
 20 18  1  0  0  0  0
 22 20  2  0  0  0  0
 23 22  1  0  0  0  0
 24 22  1  0  0  0  0
 24 15  2  0  0  0  0
M  END
