1,4
 OpenBabel05122313053D

 28 30  0  0  1  0  0  0  0  0999 V2000
   -0.7626   -0.0029   -0.0146 N   0  0  0  0  0  2  0  0  0  0  0  0
   -0.5946    2.2288   -0.0702 N   0  0  0  0  0  0  0  0  0  0  0  0
   -0.1876    3.1601   -0.0035 H   0  0  0  0  0  0  0  0  0  0  0  0
    1.8501   -0.5052    0.5361 N   0  0  0  0  0  2  0  0  0  0  0  0
    2.5939    1.5258   -0.0232 N   0  0  0  0  0  0  0  0  0  0  0  0
   -2.0363    0.5162   -0.0935 C   0  0  0  0  0  0  0  0  0  0  0  0
   -3.2796   -0.1420   -0.1093 C   0  0  0  0  0  0  0  0  0  0  0  0
   -3.3122   -1.2377   -0.0246 H   0  0  0  0  0  0  0  0  0  0  0  0
   -4.4206    0.6606   -0.1951 C   0  0  0  0  0  0  0  0  0  0  0  0
   -5.4140    0.1884   -0.2058 H   0  0  0  0  0  0  0  0  0  0  0  0
   -4.3324    2.0749   -0.2597 C   0  0  0  0  0  0  0  0  0  0  0  0
   -5.2580    2.6657   -0.3265 H   0  0  0  0  0  0  0  0  0  0  0  0
   -3.1014    2.7447   -0.2306 C   0  0  0  0  0  0  0  0  0  0  0  0
   -3.0453    3.8422   -0.2701 H   0  0  0  0  0  0  0  0  0  0  0  0
   -1.9560    1.9399   -0.1412 C   0  0  0  0  0  0  0  0  0  0  0  0
    0.0785    1.0278    0.0189 C   0  0  1  0  0  3  0  0  0  0  0  0
    1.4884    0.7392    0.1910 C   0  0  1  0  0  3  0  0  0  0  0  0
    3.7002    0.7273    0.2078 C   0  0  0  0  0  0  0  0  0  0  0  0
    4.7178    1.1176    0.1057 H   0  0  0  0  0  0  0  0  0  0  0  0
    3.2146   -0.5293    0.5405 C   0  0  0  0  0  0  0  0  0  0  0  0
    3.7743   -1.4442    0.7624 H   0  0  0  0  0  0  0  0  0  0  0  0
    2.6185    2.9368   -0.3999 C   0  0  0  0  0  0  0  0  0  0  0  0
    3.5696    3.1154   -0.9385 H   0  0  0  0  0  0  0  0  0  0  0  0
    1.8119    3.1014   -1.1445 H   0  0  0  0  0  0  0  0  0  0  0  0
    2.4888    3.8814    0.7951 C   0  0  0  0  0  0  0  0  0  0  0  0
    1.5443    3.7151    1.3532 H   0  0  0  0  0  0  0  0  0  0  0  0
    3.3212    3.7306    1.5101 H   0  0  0  0  0  0  0  0  0  0  0  0
    2.5116    4.9362    0.4569 H   0  0  0  0  0  0  0  0  0  0  0  0
  2  3  1  0  0  0  0
  2 16  1  0  0  0  0
  4 20  1  0  0  0  0
  5 17  1  0  0  0  0
  5 18  1  0  0  0  0
  6  1  1  0  0  0  0
  7  6  1  0  0  0  0
  7  8  1  0  0  0  0
  9  7  2  0  0  0  0
 10  9  1  0  0  0  0
 11 13  2  0  0  0  0
 11  9  1  0  0  0  0
 12 11  1  0  0  0  0
 13 15  1  0  0  0  0
 14 13  1  0  0  0  0
 15  6  2  0  0  0  0
 15  2  1  0  0  0  0
 16  1  1  1  0  0  0
 16 17  1  0  0  0  0
 17  4  1  6  0  0  0
 18 20  2  0  0  0  0
 19 18  1  0  0  0  0
 20 21  1  0  0  0  0
 22  5  1  0  0  0  0
 22 25  1  0  0  0  0
 23 22  1  0  0  0  0
 24 22  1  0  0  0  0
 25 26  1  0  0  0  0
 25 27  1  0  0  0  0
 28 25  1  0  0  0  0
M  END
