1,3
 OpenBabel05122313053D

 33 35  0  0  0  0  0  0  0  0999 V2000
    1.6174    1.6378   -0.8568 N   0  0  0  0  0  2  0  0  0  0  0  0
    5.2069   -0.0000    0.0616 N   0  0  0  0  0  0  0  0  0  0  0  0
    1.6174   -1.6378   -0.8568 N   0  0  0  0  0  2  0  0  0  0  0  0
    5.9304    3.4612   -0.1098 O   0  0  0  0  0  0  0  0  0  0  0  0
    5.9304   -3.4612   -0.1097 O   0  0  0  0  0  0  0  0  0  0  0  0
    1.4210    2.3111   -2.0058 C   0  0  0  0  0  3  0  0  0  0  0  0
    0.4386    2.1506   -2.4845 H   0  0  0  0  0  0  0  0  0  0  0  0
    2.4119    3.1360   -2.5609 C   0  0  0  0  0  0  0  0  0  0  0  0
    2.2054    3.7013   -3.4812 H   0  0  0  0  0  0  0  0  0  0  0  0
    3.6624    3.2010   -1.9346 C   0  0  0  0  0  0  0  0  0  0  0  0
    4.4798    3.8213   -2.3334 H   0  0  0  0  0  0  0  0  0  0  0  0
    3.8910    2.4289   -0.7795 C   0  0  0  0  0  0  0  0  0  0  0  0
    2.8133    1.6914   -0.2518 C   0  0  0  0  0  0  0  0  0  0  0  0
    2.8787    1.1503    0.7079 H   0  0  0  0  0  0  0  0  0  0  0  0
    5.2355    2.4490   -0.1248 C   0  0  0  0  0  0  0  0  0  0  0  0
    5.7677    1.1556    0.4584 C   0  0  0  0  0  0  0  0  0  0  0  0
    6.8936    1.2056    1.3066 C   0  0  0  0  0  0  0  0  0  0  0  0
    7.3083    2.1868    1.5785 H   0  0  0  0  0  0  0  0  0  0  0  0
    7.4492   -0.0000    1.7536 C   0  0  0  0  0  0  0  0  0  0  0  0
    8.3190   -0.0000    2.4279 H   0  0  0  0  0  0  0  0  0  0  0  0
    6.8936   -1.2056    1.3066 C   0  0  0  0  0  0  0  0  0  0  0  0
    7.3083   -2.1868    1.5786 H   0  0  0  0  0  0  0  0  0  0  0  0
    5.7677   -1.1556    0.4584 C   0  0  0  0  0  0  0  0  0  0  0  0
    5.2355   -2.4490   -0.1248 C   0  0  0  0  0  0  0  0  0  0  0  0
    3.8910   -2.4289   -0.7795 C   0  0  0  0  0  0  0  0  0  0  0  0
    3.6623   -3.2010   -1.9346 C   0  0  0  0  0  0  0  0  0  0  0  0
    4.4797   -3.8213   -2.3333 H   0  0  0  0  0  0  0  0  0  0  0  0
    2.4119   -3.1361   -2.5609 C   0  0  0  0  0  0  0  0  0  0  0  0
    2.2053   -3.7014   -3.4812 H   0  0  0  0  0  0  0  0  0  0  0  0
    1.4210   -2.3111   -2.0058 C   0  0  0  0  0  3  0  0  0  0  0  0
    0.4386   -2.1506   -2.4845 H   0  0  0  0  0  0  0  0  0  0  0  0
    2.8133   -1.6914   -0.2518 C   0  0  0  0  0  0  0  0  0  0  0  0
    2.8787   -1.1502    0.7079 H   0  0  0  0  0  0  0  0  0  0  0  0
  1 13  1  0  0  0  0
  2 16  2  0  0  0  0
  2 23  1  0  0  0  0
  3 32  1  0  0  0  0
  6  1  1  0  0  0  0
  7  6  1  0  0  0  0
  8  6  1  0  0  0  0
  8 10  2  0  0  0  0
  9  8  1  0  0  0  0
 10 12  1  0  0  0  0
 11 10  1  0  0  0  0
 12 13  2  0  0  0  0
 12 15  1  0  0  0  0
 13 14  1  0  0  0  0
 15  4  2  0  0  0  0
 15 16  1  0  0  0  0
 16 17  1  0  0  0  0
 17 18  1  0  0  0  0
 17 19  2  0  0  0  0
 19 20  1  0  0  0  0
 21 22  1  0  0  0  0
 21 19  1  0  0  0  0
 23 21  2  0  0  0  0
 24  5  2  0  0  0  0
 24 23  1  0  0  0  0
 25 32  2  0  0  0  0
 25 24  1  0  0  0  0
 26 25  1  0  0  0  0
 27 26  1  0  0  0  0
 28 30  1  0  0  0  0
 28 26  2  0  0  0  0
 29 28  1  0  0  0  0
 30  3  1  0  0  0  0
 31 30  1  0  0  0  0
 32 33  1  0  0  0  0
M  END
