2,7
 OpenBabel05122313053D

 41 41  0  0  0  0  0  0  0  0999 V2000
   -0.2162   -0.2831    0.0172 P   0  0  0  0  0  4  0  0  0  0  0  0
   -0.8078    1.2073    0.0980 N   0  0  0  0  0  2  0  0  0  0  0  0
    3.5239   -0.3214    2.8565 F   0  0  0  0  0  0  0  0  0  0  0  0
    1.1465   -0.8386    1.5959 S   0  0  0  0  0  0  0  0  0  0  0  0
   -0.0372    2.8343    0.0255 Si  0  0  0  0  0  0  0  0  0  0  0  0
    2.6277   -0.5765    0.6794 C   0  0  0  0  0  0  0  0  0  0  0  0
   -1.5829   -1.1488   -0.0227 N   0  0  0  0  0  2  0  0  0  0  0  0
    4.6981   -1.4760    1.4370 F   0  0  0  0  0  0  0  0  0  0  0  0
    1.1317   -0.6723   -1.6207 S   0  0  0  0  0  0  0  0  0  0  0  0
   -1.8461   -2.9363   -0.1470 Si  0  0  0  0  0  0  0  0  0  0  0  0
    2.6218   -0.5125   -0.6890 C   0  0  0  0  0  0  0  0  0  0  0  0
    4.5634    0.6960    1.2350 F   0  0  0  0  0  0  0  0  0  0  0  0
    3.8726   -0.4193    1.5544 C   0  0  0  0  0  0  0  0  0  0  0  0
    3.8076   -0.1301   -1.5651 C   0  0  0  0  0  0  0  0  0  0  0  0
    4.9754   -0.6008   -1.1006 F   0  0  0  0  0  0  0  0  0  0  0  0
    3.9070    1.2178   -1.6688 F   0  0  0  0  0  0  0  0  0  0  0  0
    1.5901    2.7710    0.9794 C   0  0  0  0  0  0  0  0  0  0  0  0
    1.4615    2.3447    1.9944 H   0  0  0  0  0  0  0  0  0  0  0  0
    1.9805    3.8041    1.0917 H   0  0  0  0  0  0  0  0  0  0  0  0
    2.3655    2.1859    0.4472 H   0  0  0  0  0  0  0  0  0  0  0  0
    3.6365   -0.6168   -2.8162 F   0  0  0  0  0  0  0  0  0  0  0  0
    0.2896    3.2182   -1.7874 C   0  0  0  0  0  0  0  0  0  0  0  0
   -0.6426    3.1237   -2.3785 H   0  0  0  0  0  0  0  0  0  0  0  0
    1.0432    2.5178   -2.2015 H   0  0  0  0  0  0  0  0  0  0  0  0
    0.6776    4.2509   -1.9065 H   0  0  0  0  0  0  0  0  0  0  0  0
   -1.2299    4.0383    0.8310 C   0  0  0  0  0  0  0  0  0  0  0  0
   -1.4598    3.7281    1.8697 H   0  0  0  0  0  0  0  0  0  0  0  0
   -2.1834    4.0892    0.2702 H   0  0  0  0  0  0  0  0  0  0  0  0
   -0.7825    5.0530    0.8573 H   0  0  0  0  0  0  0  0  0  0  0  0
   -0.1736   -3.8040   -0.0008 C   0  0  0  0  0  0  0  0  0  0  0  0
    0.5350   -3.4919   -0.7938 H   0  0  0  0  0  0  0  0  0  0  0  0
   -0.3426   -4.8963   -0.1081 H   0  0  0  0  0  0  0  0  0  0  0  0
    0.3090   -3.6290    0.9811 H   0  0  0  0  0  0  0  0  0  0  0  0
   -2.5720   -3.2892   -1.8446 C   0  0  0  0  0  0  0  0  0  0  0  0
   -1.8670   -2.9648   -2.6372 H   0  0  0  0  0  0  0  0  0  0  0  0
   -3.5310   -2.7564   -1.9899 H   0  0  0  0  0  0  0  0  0  0  0  0
   -2.7492   -4.3775   -1.9695 H   0  0  0  0  0  0  0  0  0  0  0  0
   -2.9380   -3.4571    1.2899 C   0  0  0  0  0  0  0  0  0  0  0  0
   -3.9264   -2.9617    1.2470 H   0  0  0  0  0  0  0  0  0  0  0  0
   -2.4557   -3.1895    2.2522 H   0  0  0  0  0  0  0  0  0  0  0  0
   -3.0907   -4.5560    1.2763 H   0  0  0  0  0  0  0  0  0  0  0  0
  1  2  1  0  0  0  0
  1  4  1  0  0  0  0
  5  2  1  0  0  0  0
  5 26  1  0  0  0  0
  5 17  1  0  0  0  0
  6 13  1  0  0  0  0
  6  4  1  0  0  0  0
  7  1  1  0  0  0  0
  8 13  1  0  0  0  0
  9 11  1  0  0  0  0
  9  1  1  0  0  0  0
 10  7  1  0  0  0  0
 10 30  1  0  0  0  0
 10 38  1  0  0  0  0
 11  6  2  0  0  0  0
 12 13  1  0  0  0  0
 13  3  1  0  0  0  0
 14 15  1  0  0  0  0
 14 11  1  0  0  0  0
 16 14  1  0  0  0  0
 17 19  1  0  0  0  0
 17 18  1  0  0  0  0
 20 17  1  0  0  0  0
 21 14  1  0  0  0  0
 22  5  1  0  0  0  0
 23 22  1  0  0  0  0
 24 22  1  0  0  0  0
 25 22  1  0  0  0  0
 26 29  1  0  0  0  0
 26 27  1  0  0  0  0
 28 26  1  0  0  0  0
 30 33  1  0  0  0  0
 31 30  1  0  0  0  0
 32 30  1  0  0  0  0
 34 10  1  0  0  0  0
 35 34  1  0  0  0  0
 36 34  1  0  0  0  0
 37 34  1  0  0  0  0
 38 40  1  0  0  0  0
 39 38  1  0  0  0  0
 41 38  1  0  0  0  0
M  END
