1,2
 OpenBabel05122313053D

 23 23  0  0  0  0  0  0  0  0999 V2000
    1.2784    1.0608    0.3923 N   0  0  0  0  0  2  0  0  0  0  0  0
   -0.8099    0.3228   -0.9388 N   0  0  0  0  0  2  0  0  0  0  0  0
   -1.9787   -0.1877   -1.6441 C   0  0  0  0  0  0  0  0  0  0  0  0
   -1.6956   -1.1687   -2.0776 H   0  0  0  0  0  0  0  0  0  0  0  0
   -2.2497    0.4979   -2.4744 H   0  0  0  0  0  0  0  0  0  0  0  0
   -3.1813   -0.3610   -0.7171 C   0  0  0  0  0  0  0  0  0  0  0  0
   -4.0222   -0.8087   -1.2891 H   0  0  0  0  0  0  0  0  0  0  0  0
   -2.9765   -1.0664    0.1109 H   0  0  0  0  0  0  0  0  0  0  0  0
   -3.6594    0.9560   -0.1398 C   0  0  0  0  0  0  0  0  0  0  0  0
   -3.3215    2.0593   -0.5326 O   0  0  0  0  0  0  0  0  0  0  0  0
   -4.5317    0.7662    0.8729 O   0  0  0  0  0  0  0  0  0  0  0  0
   -4.7812    1.6630    1.1870 H   0  0  0  0  0  0  0  0  0  0  0  0
    2.3752    1.3862    1.1044 C   0  0  0  0  0  3  0  0  0  0  0  0
    2.7219    0.6443    1.8378 H   0  0  0  0  0  0  0  0  0  0  0  0
    3.0576    2.5955    0.9260 C   0  0  0  0  0  0  0  0  0  0  0  0
    3.9492    2.8045    1.5340 H   0  0  0  0  0  0  0  0  0  0  0  0
    2.5920    3.5157   -0.0272 C   0  0  0  0  0  0  0  0  0  0  0  0
    3.1098    4.4727   -0.1865 H   0  0  0  0  0  0  0  0  0  0  0  0
    1.4564    3.1854   -0.7725 C   0  0  0  0  0  0  0  0  0  0  0  0
    1.0498    3.8654   -1.5349 H   0  0  0  0  0  0  0  0  0  0  0  0
    0.8246    1.9502   -0.5431 C   0  0  0  0  0  0  0  0  0  0  0  0
   -0.3485    1.4941   -1.2576 C   0  0  0  0  0  3  0  0  0  0  0  0
   -0.8274    2.1227   -2.0288 H   0  0  0  0  0  0  0  0  0  0  0  0
  1 13  1  0  0  0  0
  3  2  1  0  0  0  0
  3  6  1  0  0  0  0
  4  3  1  0  0  0  0
  5  3  1  0  0  0  0
  6  9  1  0  0  0  0
  6  8  1  0  0  0  0
  7  6  1  0  0  0  0
  9 11  1  0  0  0  0
 10  9  2  0  0  0  0
 11 12  1  0  0  0  0
 13 14  1  0  0  0  0
 15 13  1  0  0  0  0
 15 16  1  0  0  0  0
 17 15  2  0  0  0  0
 18 17  1  0  0  0  0
 19 21  2  0  0  0  0
 19 17  1  0  0  0  0
 20 19  1  0  0  0  0
 21  1  1  0  0  0  0
 22  2  1  0  0  0  0
 22 21  1  0  0  0  0
 23 22  1  0  0  0  0
M  END
