1,12
 OpenBabel05122313053D

 26 28  0  0  0  0  0  0  0  0999 V2000
   -0.2760   -1.1377   -1.3106 N   0  0  0  0  0  2  0  0  0  0  0  0
    0.0918   -2.0595   -2.2248 C   0  0  0  0  0  3  0  0  0  0  0  0
    1.1761   -2.2250   -2.3228 H   0  0  0  0  0  0  0  0  0  0  0  0
   -0.8346   -2.7547   -3.0063 C   0  0  0  0  0  0  0  0  0  0  0  0
   -0.4864   -3.4972   -3.7375 H   0  0  0  0  0  0  0  0  0  0  0  0
   -2.2010   -2.4709   -2.8351 C   0  0  0  0  0  0  0  0  0  0  0  0
   -2.9599   -2.9864   -3.4424 H   0  0  0  0  0  0  0  0  0  0  0  0
   -2.5900   -1.5249   -1.8855 C   0  0  0  0  0  0  0  0  0  0  0  0
   -3.6482   -1.2744   -1.7397 H   0  0  0  0  0  0  0  0  0  0  0  0
   -1.6088   -0.8688   -1.1097 C   0  0  0  0  0  0  0  0  0  0  0  0
   -1.8789    0.1219   -0.0885 C   0  0  0  0  0  0  0  0  0  0  0  0
   -0.8027    0.7312    0.5054 N   0  0  0  0  0  0  0  0  0  0  0  0
   -1.2263    1.6138    1.4100 N   0  0  0  0  0  0  0  0  0  0  0  0
   -2.5578    1.6099    1.4397 N   0  0  0  0  0  0  0  0  0  0  0  0
   -3.0085    0.6983    0.5344 C   0  0  0  0  0  3  0  0  0  0  0  0
   -4.4425    0.4226    0.3728 C   0  0  0  0  0  0  0  0  0  0  0  0
   -5.3689    1.4628    0.1451 C   0  0  0  0  0  0  0  0  0  0  0  0
   -4.9499    2.7196   -0.0021 F   0  0  0  0  0  0  0  0  0  0  0  0
   -6.7468    1.2084    0.0411 C   0  0  0  0  0  0  0  0  0  0  0  0
   -7.6046    2.2066   -0.1870 F   0  0  0  0  0  0  0  0  0  0  0  0
   -7.2255   -0.1078    0.1576 C   0  0  0  0  0  0  0  0  0  0  0  0
   -8.5323   -0.3560    0.0514 F   0  0  0  0  0  0  0  0  0  0  0  0
   -6.3254   -1.1632    0.3836 C   0  0  0  0  0  0  0  0  0  0  0  0
   -6.7797   -2.4151    0.5045 F   0  0  0  0  0  0  0  0  0  0  0  0
   -4.9549   -0.8855    0.4959 C   0  0  0  0  0  0  0  0  0  0  0  0
   -4.1204   -1.9093    0.7395 F   0  0  0  0  0  0  0  0  0  0  0  0
  1 10  1  0  0  0  0
  2  1  1  0  0  0  0
  3  2  1  0  0  0  0
  4  6  2  0  0  0  0
  4  2  1  0  0  0  0
  5  4  1  0  0  0  0
  6  8  1  0  0  0  0
  7  6  1  0  0  0  0
  8  9  1  0  0  0  0
  8 10  2  0  0  0  0
 10 11  1  0  0  0  0
 11 12  2  0  0  0  0
 11 15  1  0  0  0  0
 12 13  1  0  0  0  0
 13 14  2  0  0  0  0
 15 14  1  0  0  0  0
 16 25  1  0  0  0  0
 16 15  1  0  0  0  0
 17 16  2  0  0  0  0
 18 17  1  0  0  0  0
 19 17  1  0  0  0  0
 19 21  2  0  0  0  0
 20 19  1  0  0  0  0
 21 23  1  0  0  0  0
 22 21  1  0  0  0  0
 23 25  2  0  0  0  0
 23 24  1  0  0  0  0
 25 26  1  0  0  0  0
M  END
