3,4
 OpenBabel05122313053D

 32 36  0  0  1  0  0  0  0  0999 V2000
    7.2757    0.6318   -2.1605 O   0  0  0  0  0  0  0  0  0  0  0  0
    5.8251   -3.5596    1.7470 O   0  0  0  0  0  0  0  0  0  0  0  0
    1.6163    0.9764    1.1863 N   0  0  0  0  0  2  0  0  0  0  0  0
    1.1057   -0.0793   -1.1080 N   0  0  0  0  0  2  0  0  0  0  0  0
    5.9191    0.6255   -0.2532 N   0  0  0  0  0  0  0  0  0  0  0  0
    6.3953    1.3958    0.2155 H   0  0  0  0  0  0  0  0  0  0  0  0
    5.7787   -1.0972   -1.6600 N   0  0  0  0  0  0  0  0  0  0  0  0
    5.7680   -1.4620   -2.6127 H   0  0  0  0  0  0  0  0  0  0  0  0
    5.8263   -1.2597    1.3137 N   0  0  0  0  0  0  0  0  0  0  0  0
    6.1419   -1.0008    2.2487 H   0  0  0  0  0  0  0  0  0  0  0  0
    4.6822   -2.5965   -0.0545 N   0  0  0  0  0  0  0  0  0  0  0  0
    4.5569   -3.4722   -0.5632 H   0  0  0  0  0  0  0  0  0  0  0  0
    1.7765    1.6642    2.3288 C   0  0  0  0  0  3  0  0  0  0  0  0
    0.8693    2.1854    2.6799 H   0  0  0  0  0  0  0  0  0  0  0  0
    3.0253    1.7092    2.9658 C   0  0  0  0  0  0  0  0  0  0  0  0
    3.1351    2.2743    3.9020 H   0  0  0  0  0  0  0  0  0  0  0  0
    4.1215    1.0445    2.3934 C   0  0  0  0  0  0  0  0  0  0  0  0
    5.1035    1.0844    2.8908 H   0  0  0  0  0  0  0  0  0  0  0  0
    3.9557    0.3515    1.1821 C   0  0  0  0  0  0  0  0  0  0  0  0
    5.1043   -0.3308    0.4512 C   0  0  1  0  0  0  0  0  0  0  0  0
    4.6797   -1.3205   -0.7325 C   0  0  1  0  0  0  0  0  0  0  0  0
    3.3162   -1.0540   -1.3606 C   0  0  0  0  0  0  0  0  0  0  0  0
    2.9256   -1.5861   -2.5997 C   0  0  0  0  0  0  0  0  0  0  0  0
    3.6246   -2.1826   -3.2064 H   0  0  0  0  0  0  0  0  0  0  0  0
    1.6229   -1.3501   -3.0687 C   0  0  0  0  0  0  0  0  0  0  0  0
    1.2913   -1.7506   -4.0370 H   0  0  0  0  0  0  0  0  0  0  0  0
    0.7325   -0.5963   -2.2932 C   0  0  0  0  0  3  0  0  0  0  0  0
   -0.3045   -0.3742   -2.5924 H   0  0  0  0  0  0  0  0  0  0  0  0
    2.3709   -0.2932   -0.6562 C   0  0  0  0  0  0  0  0  0  0  0  0
    2.6729    0.3471    0.6150 C   0  0  0  0  0  0  0  0  0  0  0  0
    6.4373    0.1189   -1.4475 C   0  0  0  0  0  0  0  0  0  0  0  0
    5.4948   -2.5953    1.0853 C   0  0  0  0  0  0  0  0  0  0  0  0
  1 31  2  0  0  0  0
  3 13  1  0  0  0  0
  4 29  1  0  0  0  0
  5  6  1  0  0  0  0
  5 20  1  0  0  0  0
  7 31  1  0  0  0  0
  7 21  1  0  0  0  0
  8  7  1  0  0  0  0
  9 10  1  0  0  0  0
 11 32  1  0  0  0  0
 12 11  1  0  0  0  0
 13 14  1  0  0  0  0
 13 15  1  0  0  0  0
 15 16  1  0  0  0  0
 17 18  1  0  0  0  0
 17 15  2  0  0  0  0
 19 17  1  0  0  0  0
 20 19  1  1  0  0  0
 20  9  1  0  0  0  0
 21 22  1  6  0  0  0
 21 11  1  0  0  0  0
 21 20  1  0  0  0  0
 22 29  2  0  0  0  0
 23 22  1  0  0  0  0
 24 23  1  0  0  0  0
 25 23  2  0  0  0  0
 25 27  1  0  0  0  0
 26 25  1  0  0  0  0
 27  4  1  0  0  0  0
 28 27  1  0  0  0  0
 29 30  1  0  0  0  0
 30 19  2  0  0  0  0
 30  3  1  0  0  0  0
 31  5  1  0  0  0  0
 32  9  1  0  0  0  0
 32  2  2  0  0  0  0
M  END
