3,4
 OpenBabel05122313053D

 32 33  0  0  0  0  0  0  0  0999 V2000
   -0.9647    5.2809   -0.5162 O   0  0  0  0  0  0  0  0  0  0  0  0
    0.9665    5.2810    0.5119 O   0  0  0  0  0  0  0  0  0  0  0  0
   -1.2710    1.2862   -0.6347 N   0  0  0  0  0  2  0  0  0  0  0  0
    1.2715    1.2863    0.6339 N   0  0  0  0  0  2  0  0  0  0  0  0
    0.0008    4.7003   -0.0019 N   0  0  0  0  0  0  0  0  0  0  0  0
   -1.0966    2.5991   -0.6032 C   0  0  0  0  0  0  0  0  0  0  0  0
    0.0006    3.2435   -0.0013 C   0  0  0  0  0  0  0  0  0  0  0  0
    1.0976    2.5993    0.6012 C   0  0  0  0  0  3  0  0  0  0  0  0
    2.4619    0.7961    1.2401 C   0  0  0  0  0  0  0  0  0  0  0  0
    3.7162    1.3851    0.9782 C   0  0  0  0  0  0  0  0  0  0  0  0
    4.8722    0.8708    1.5791 C   0  0  0  0  0  0  0  0  0  0  0  0
    4.7927   -0.2366    2.4381 C   0  0  0  0  0  0  0  0  0  0  0  0
    3.5439   -0.8263    2.6990 C   0  0  0  0  0  0  0  0  0  0  0  0
    2.3833   -0.3138    2.1073 C   0  0  0  0  0  0  0  0  0  0  0  0
   -2.4615    0.7958   -1.2405 C   0  0  0  0  0  0  0  0  0  0  0  0
   -3.7156    1.3853   -0.9788 C   0  0  0  0  0  0  0  0  0  0  0  0
   -4.8718    0.8709   -1.5793 C   0  0  0  0  0  0  0  0  0  0  0  0
   -4.7926   -0.2372   -2.4376 C   0  0  0  0  0  0  0  0  0  0  0  0
   -3.5441   -0.8274   -2.6981 C   0  0  0  0  0  0  0  0  0  0  0  0
   -2.3832   -0.3148   -2.1068 C   0  0  0  0  0  0  0  0  0  0  0  0
   -1.8352    3.2600   -1.0897 H   0  0  0  0  0  0  0  0  0  0  0  0
    1.8363    3.2604    1.0872 H   0  0  0  0  0  0  0  0  0  0  0  0
    3.7842    2.2199    0.2657 H   0  0  0  0  0  0  0  0  0  0  0  0
    5.8474    1.3287    1.3553 H   0  0  0  0  0  0  0  0  0  0  0  0
    5.7035   -0.6430    2.9026 H   0  0  0  0  0  0  0  0  0  0  0  0
    3.4712   -1.6902    3.3767 H   0  0  0  0  0  0  0  0  0  0  0  0
    1.4006   -0.7645    2.3103 H   0  0  0  0  0  0  0  0  0  0  0  0
   -3.7834    2.2206   -0.2669 H   0  0  0  0  0  0  0  0  0  0  0  0
   -5.8469    1.3291   -1.3558 H   0  0  0  0  0  0  0  0  0  0  0  0
   -5.7035   -0.6437   -2.9017 H   0  0  0  0  0  0  0  0  0  0  0  0
   -3.4716   -1.6919   -3.3752 H   0  0  0  0  0  0  0  0  0  0  0  0
   -1.4007   -0.7658   -2.3096 H   0  0  0  0  0  0  0  0  0  0  0  0
  1  5  2  0  0  0  0
  3  6  1  0  0  0  0
  4  9  1  0  0  0  0
  5  7  1  0  0  0  0
  5  2  2  0  0  0  0
  6  7  2  0  0  0  0
  7  8  1  0  0  0  0
  8  4  1  0  0  0  0
  8 22  1  0  0  0  0
  9 14  1  0  0  0  0
 10  9  2  0  0  0  0
 10 11  1  0  0  0  0
 11 12  2  0  0  0  0
 12 13  1  0  0  0  0
 12 25  1  0  0  0  0
 13 26  1  0  0  0  0
 14 27  1  0  0  0  0
 14 13  2  0  0  0  0
 15 16  1  0  0  0  0
 15  3  1  0  0  0  0
 16 28  1  0  0  0  0
 17 29  1  0  0  0  0
 17 16  2  0  0  0  0
 18 17  1  0  0  0  0
 19 18  2  0  0  0  0
 19 20  1  0  0  0  0
 20 15  2  0  0  0  0
 21  6  1  0  0  0  0
 23 10  1  0  0  0  0
 24 11  1  0  0  0  0
 30 18  1  0  0  0  0
 31 19  1  0  0  0  0
 32 20  1  0  0  0  0
M  END
