2,3
 OpenBabel05122313053D

 55 59  0  0  1  0  0  0  0  0999 V2000
   -1.7939   -0.1210    0.9211 N   0  0  0  0  0  0  0  0  0  0  0  0
    0.1281   -0.8991    0.0597 N   0  0  0  0  0  2  0  0  0  0  0  0
    1.5284    1.2481    0.2528 N   0  0  0  0  0  2  0  0  0  0  0  0
   -0.4558    0.1202    0.7176 C   0  0  1  0  0  3  0  0  0  0  0  0
   -2.0665   -1.3729    0.3662 C   0  0  0  0  0  0  0  0  0  0  0  0
   -3.2521   -2.1246    0.2660 C   0  0  0  0  0  0  0  0  0  0  0  0
   -4.2015   -1.7639    0.6782 H   0  0  0  0  0  0  0  0  0  0  0  0
   -3.1734   -3.3443   -0.4118 C   0  0  0  0  0  0  0  0  0  0  0  0
   -4.0818   -3.9562   -0.5105 H   0  0  0  0  0  0  0  0  0  0  0  0
   -1.9644   -3.8049   -0.9936 C   0  0  0  0  0  0  0  0  0  0  0  0
   -1.9623   -4.7579   -1.5423 H   0  0  0  0  0  0  0  0  0  0  0  0
   -0.7854   -3.0657   -0.8964 C   0  0  0  0  0  0  0  0  0  0  0  0
    0.1444   -3.3931   -1.3783 H   0  0  0  0  0  0  0  0  0  0  0  0
   -0.8413   -1.8471   -0.1927 C   0  0  0  0  0  0  0  0  0  0  0  0
    0.3693    1.2888    0.9643 C   0  0  0  0  0  0  0  0  0  0  0  0
    0.0758    2.3632    1.8484 C   0  0  0  0  0  0  0  0  0  0  0  0
   -0.8047    2.3130    2.4993 H   0  0  0  0  0  0  0  0  0  0  0  0
    0.9436    3.4376    1.9198 C   0  0  0  0  0  0  0  0  0  0  0  0
    0.7612    4.2582    2.6296 H   0  0  0  0  0  0  0  0  0  0  0  0
    2.0597    3.5041    1.0421 C   0  0  0  0  0  0  0  0  0  0  0  0
    2.9194    4.6365    0.9760 C   0  0  0  0  0  0  0  0  0  0  0  0
    2.7392    5.4765    1.6636 H   0  0  0  0  0  0  0  0  0  0  0  0
    3.9433    4.6905    0.0422 C   0  0  0  0  0  0  0  0  0  0  0  0
    4.5955    5.5743   -0.0123 H   0  0  0  0  0  0  0  0  0  0  0  0
    4.1238    3.6217   -0.8754 C   0  0  0  0  0  0  0  0  0  0  0  0
    4.8899    3.7048   -1.6607 H   0  0  0  0  0  0  0  0  0  0  0  0
    3.3304    2.4844   -0.8128 C   0  0  0  0  0  0  0  0  0  0  0  0
    3.4116    1.6812   -1.5557 H   0  0  0  0  0  0  0  0  0  0  0  0
    2.3075    2.3814    0.1693 C   0  0  2  0  0  3  0  0  0  0  0  0
   -2.8104    0.8599    1.3582 C   0  0  0  0  0  0  0  0  0  0  0  0
   -2.3265    1.8527    1.3118 H   0  0  0  0  0  0  0  0  0  0  0  0
   -3.0591    0.6619    2.4172 H   0  0  0  0  0  0  0  0  0  0  0  0
   -4.0476    0.8595    0.4835 C   0  0  0  0  0  0  0  0  0  0  0  0
   -5.3071    0.5452    1.0594 C   0  0  0  0  0  0  0  0  0  0  0  0
   -6.4468    0.4991    0.2179 C   0  0  0  0  0  0  0  0  0  0  0  0
   -6.2793    0.7515   -1.1550 C   0  0  0  0  0  0  0  0  0  0  0  0
   -7.1644    0.6962   -1.8090 H   0  0  0  0  0  0  0  0  0  0  0  0
   -5.0427    1.0796   -1.7324 C   0  0  0  0  0  0  0  0  0  0  0  0
   -3.9012    1.1573   -0.8956 C   0  0  0  0  0  0  0  0  0  0  0  0
   -5.4354    0.2542    2.5396 C   0  0  0  0  0  0  0  0  0  0  0  0
   -6.4731    0.0049    2.8197 H   0  0  0  0  0  0  0  0  0  0  0  0
   -5.1383    1.1228    3.1643 H   0  0  0  0  0  0  0  0  0  0  0  0
   -4.8056   -0.6040    2.8591 H   0  0  0  0  0  0  0  0  0  0  0  0
   -7.8247    0.1815    0.7480 C   0  0  0  0  0  0  0  0  0  0  0  0
   -7.8693   -0.8175    1.2299 H   0  0  0  0  0  0  0  0  0  0  0  0
   -8.5711    0.1877   -0.0684 H   0  0  0  0  0  0  0  0  0  0  0  0
   -8.1573    0.9198    1.5070 H   0  0  0  0  0  0  0  0  0  0  0  0
   -4.9501    1.3387   -3.2149 C   0  0  0  0  0  0  0  0  0  0  0  0
   -4.6369    2.3818   -3.4333 H   0  0  0  0  0  0  0  0  0  0  0  0
   -5.9261    1.1756   -3.7093 H   0  0  0  0  0  0  0  0  0  0  0  0
   -4.2065    0.6756   -3.7037 H   0  0  0  0  0  0  0  0  0  0  0  0
   -2.5641    1.5378   -1.4860 C   0  0  0  0  0  0  0  0  0  0  0  0
   -2.6855    2.1920   -2.3687 H   0  0  0  0  0  0  0  0  0  0  0  0
   -1.9774    0.6577   -1.8313 H   0  0  0  0  0  0  0  0  0  0  0  0
   -1.9208    2.0880   -0.7711 H   0  0  0  0  0  0  0  0  0  0  0  0
  1 30  1  0  0  0  0
  2  4  1  0  0  0  0
  3 15  1  0  0  0  0
  4  1  1  0  0  0  0
  4 15  1  6  0  0  0
  5  1  1  0  0  0  0
  6  5  1  0  0  0  0
  6  7  1  0  0  0  0
  8  6  2  0  0  0  0
  9  8  1  0  0  0  0
 10 12  2  0  0  0  0
 10  8  1  0  0  0  0
 11 10  1  0  0  0  0
 12 14  1  0  0  0  0
 13 12  1  0  0  0  0
 14  2  1  0  0  0  0
 14  5  2  0  0  0  0
 15 16  2  0  0  0  0
 16 18  1  0  0  0  0
 16 17  1  0  0  0  0
 18 19  1  0  0  0  0
 20 18  2  0  0  0  0
 21 20  1  0  0  0  0
 21 22  1  0  0  0  0
 23 21  2  0  0  0  0
 24 23  1  0  0  0  0
 25 27  2  0  0  0  0
 25 23  1  0  0  0  0
 26 25  1  0  0  0  0
 28 27  1  0  0  0  0
 29 27  1  6  0  0  0
 29  3  1  0  0  0  0
 29 20  1  0  0  0  0
 30 32  1  0  0  0  0
 31 30  1  0  0  0  0
 33 34  1  0  0  0  0
 33 30  1  0  0  0  0
 34 40  1  0  0  0  0
 35 44  1  0  0  0  0
 35 34  2  0  0  0  0
 36 35  1  0  0  0  0
 37 36  1  0  0  0  0
 38 36  2  0  0  0  0
 38 39  1  0  0  0  0
 39 33  2  0  0  0  0
 40 41  1  0  0  0  0
 40 43  1  0  0  0  0
 40 42  1  0  0  0  0
 44 45  1  0  0  0  0
 44 47  1  0  0  0  0
 46 44  1  0  0  0  0
 48 38  1  0  0  0  0
 49 48  1  0  0  0  0
 50 48  1  0  0  0  0
 51 48  1  0  0  0  0
 52 39  1  0  0  0  0
 52 55  1  0  0  0  0
 53 52  1  0  0  0  0
 54 52  1  0  0  0  0
M  END
