2,10
 OpenBabel05122313053D

 25 26  0  0  0  0  0  0  0  0999 V2000
    1.4277   -1.1971   -0.0169 N   0  0  0  0  0  0  0  0  0  0  0  0
    0.1028   -1.4205   -0.1658 N   0  0  0  0  0  2  0  0  0  0  0  0
   -0.0210   -2.5053   -0.9405 C   0  0  0  0  0  3  0  0  0  0  0  0
    1.2512   -3.0116   -1.2877 C   0  0  0  0  0  0  0  0  0  0  0  0
    2.1571   -2.1430   -0.6860 C   0  0  0  0  0  0  0  0  0  0  0  0
    1.8971    0.0001    0.7261 C   0  0  0  0  0  0  0  0  0  0  0  0
    1.3251    0.0001    2.1472 C   0  0  0  0  0  0  0  0  0  0  0  0
    3.4257    0.0001    0.7715 C   0  0  0  0  0  0  0  0  0  0  0  0
    1.4276    1.1972   -0.0170 N   0  0  0  0  0  0  0  0  0  0  0  0
    0.1027    1.4207   -0.1656 N   0  0  0  0  0  2  0  0  0  0  0  0
   -0.0210    2.5054   -0.9405 C   0  0  0  0  0  3  0  0  0  0  0  0
    1.2511    3.0114   -1.2881 C   0  0  0  0  0  0  0  0  0  0  0  0
    2.1571    2.1429   -0.6864 C   0  0  0  0  0  0  0  0  0  0  0  0
   -1.0242   -2.8381   -1.2329 H   0  0  0  0  0  0  0  0  0  0  0  0
    1.4852   -3.8898   -1.8973 H   0  0  0  0  0  0  0  0  0  0  0  0
    3.2500   -2.1447   -0.6847 H   0  0  0  0  0  0  0  0  0  0  0  0
    0.2144    0.0001    2.1719 H   0  0  0  0  0  0  0  0  0  0  0  0
    1.6832    0.9013    2.6808 H   0  0  0  0  0  0  0  0  0  0  0  0
    1.6832   -0.9011    2.6808 H   0  0  0  0  0  0  0  0  0  0  0  0
    3.7722    0.8920    1.3245 H   0  0  0  0  0  0  0  0  0  0  0  0
    3.7722   -0.8917    1.3247 H   0  0  0  0  0  0  0  0  0  0  0  0
    3.8868   -0.0000   -0.2339 H   0  0  0  0  0  0  0  0  0  0  0  0
   -1.0243    2.8383   -1.2327 H   0  0  0  0  0  0  0  0  0  0  0  0
    1.4851    3.8895   -1.8979 H   0  0  0  0  0  0  0  0  0  0  0  0
    3.2500    2.1444   -0.6853 H   0  0  0  0  0  0  0  0  0  0  0  0
  1  6  1  0  0  0  0
  2  1  1  0  0  0  0
  3  2  1  0  0  0  0
  4  3  1  0  0  0  0
  4  5  2  0  0  0  0
  5 16  1  0  0  0  0
  5  1  1  0  0  0  0
  6  8  1  0  0  0  0
  6  7  1  0  0  0  0
  7 17  1  0  0  0  0
  7 18  1  0  0  0  0
  7 19  1  0  0  0  0
  8 20  1  0  0  0  0
  8 21  1  0  0  0  0
  9  6  1  0  0  0  0
 10  9  1  0  0  0  0
 11 10  1  0  0  0  0
 12 11  1  0  0  0  0
 12 13  2  0  0  0  0
 13 25  1  0  0  0  0
 13  9  1  0  0  0  0
 14  3  1  0  0  0  0
 15  4  1  0  0  0  0
 22  8  1  0  0  0  0
 23 11  1  0  0  0  0
 24 12  1  0  0  0  0
M  END
