3,6
 OpenBabel05122313053D

 48 49  0  0  1  0  0  0  0  0999 V2000
   -1.5961    3.8627    0.9862 S   0  0  0  0  0  0  0  0  0  0  0  0
    2.4001    3.5381   -1.0577 S   0  0  0  0  0  0  0  0  0  0  0  0
   -2.1398   -1.0211    0.1525 N   0  0  0  0  0  2  0  0  0  0  0  0
   -2.8764    0.0902   -0.0960 N   0  0  0  0  0  0  0  0  0  0  0  0
    2.8112   -0.5332   -0.5372 N   0  0  0  0  0  0  0  0  0  0  0  0
    1.9081   -1.3416    0.0820 N   0  0  0  0  0  2  0  0  0  0  0  0
   -2.9862   -2.0725    0.2096 C   0  0  1  0  0  3  0  0  0  0  0  0
   -4.3007   -1.6032   -0.0020 C   0  0  0  0  0  0  0  0  0  0  0  0
   -5.2162   -2.2019   -0.0296 H   0  0  0  0  0  0  0  0  0  0  0  0
   -4.1995   -0.2232   -0.2058 C   0  0  0  0  0  0  0  0  0  0  0  0
   -2.4837   -3.4638    0.4116 C   0  0  0  0  0  0  0  0  0  0  0  0
   -3.3269   -4.1660    0.5454 H   0  0  0  0  0  0  0  0  0  0  0  0
   -1.8250   -3.5289    1.3013 H   0  0  0  0  0  0  0  0  0  0  0  0
   -1.8889   -3.7897   -0.4672 H   0  0  0  0  0  0  0  0  0  0  0  0
   -5.2297    0.7928   -0.5641 C   0  0  0  0  0  0  0  0  0  0  0  0
   -5.2289    1.6623    0.1240 H   0  0  0  0  0  0  0  0  0  0  0  0
   -6.2353    0.3356   -0.5379 H   0  0  0  0  0  0  0  0  0  0  0  0
   -5.0505    1.1711   -1.5929 H   0  0  0  0  0  0  0  0  0  0  0  0
   -2.2571    1.4024   -0.2022 C   0  0  0  0  0  0  0  0  0  0  0  0
   -2.8059    1.9821   -0.9677 H   0  0  0  0  0  0  0  0  0  0  0  0
   -1.2360    1.2312   -0.5948 H   0  0  0  0  0  0  0  0  0  0  0  0
   -2.2051    2.1500    1.1347 C   0  0  0  0  0  0  0  0  0  0  0  0
   -1.5960    1.5839    1.8707 H   0  0  0  0  0  0  0  0  0  0  0  0
   -3.2257    2.2512    1.5586 H   0  0  0  0  0  0  0  0  0  0  0  0
    0.2045    3.6220    0.7167 C   0  0  0  0  0  0  0  0  0  0  0  0
    0.6929    4.5108    1.1651 H   0  0  0  0  0  0  0  0  0  0  0  0
    0.5393    2.7467    1.3107 H   0  0  0  0  0  0  0  0  0  0  0  0
    0.5923    3.5157   -0.7581 C   0  0  0  0  0  0  0  0  0  0  0  0
    0.2174    4.3969   -1.3171 H   0  0  0  0  0  0  0  0  0  0  0  0
    0.1390    2.6280   -1.2451 H   0  0  0  0  0  0  0  0  0  0  0  0
    2.9246    1.9571   -0.3119 C   0  0  0  0  0  0  0  0  0  0  0  0
    4.0313    2.0135   -0.3230 H   0  0  0  0  0  0  0  0  0  0  0  0
    2.6207    1.8811    0.7533 H   0  0  0  0  0  0  0  0  0  0  0  0
    2.4308    0.7510   -1.1174 C   0  0  0  0  0  0  0  0  0  0  0  0
    1.3255    0.7325   -1.1812 H   0  0  0  0  0  0  0  0  0  0  0  0
    2.8063    0.7959   -2.1599 H   0  0  0  0  0  0  0  0  0  0  0  0
    4.0609   -1.0846   -0.4858 C   0  0  1  0  0  3  0  0  0  0  0  0
    3.9358   -2.2999    0.1930 C   0  0  0  0  0  0  0  0  0  0  0  0
    4.7385   -3.0104    0.4135 H   0  0  0  0  0  0  0  0  0  0  0  0
    2.5726   -2.4296    0.5322 C   0  0  0  0  0  0  0  0  0  0  0  0
    5.2647   -0.4295   -1.0759 C   0  0  0  0  0  0  0  0  0  0  0  0
    5.0563   -0.0063   -2.0793 H   0  0  0  0  0  0  0  0  0  0  0  0
    6.0787   -1.1702   -1.1788 H   0  0  0  0  0  0  0  0  0  0  0  0
    5.6425    0.3958   -0.4370 H   0  0  0  0  0  0  0  0  0  0  0  0
    1.8749   -3.5400    1.2461 C   0  0  0  0  0  0  0  0  0  0  0  0
    1.0953   -3.9991    0.6036 H   0  0  0  0  0  0  0  0  0  0  0  0
    1.3694   -3.1599    2.1572 H   0  0  0  0  0  0  0  0  0  0  0  0
    2.5972   -4.3253    1.5349 H   0  0  0  0  0  0  0  0  0  0  0  0
  1 22  1  0  0  0  0
  2 28  1  0  0  0  0
  2 31  1  0  0  0  0
  3  7  1  0  0  0  0
  4  3  1  0  0  0  0
  5 37  1  0  0  0  0
  5  6  1  0  0  0  0
  6 40  1  0  0  0  0
  7 11  1  6  0  0  0
  8  7  1  0  0  0  0
  9  8  1  0  0  0  0
 10  4  1  0  0  0  0
 10  8  2  0  0  0  0
 11 12  1  0  0  0  0
 11 13  1  0  0  0  0
 14 11  1  0  0  0  0
 15 17  1  0  0  0  0
 15 10  1  0  0  0  0
 15 16  1  0  0  0  0
 18 15  1  0  0  0  0
 19  4  1  0  0  0  0
 19 22  1  0  0  0  0
 20 19  1  0  0  0  0
 21 19  1  0  0  0  0
 22 24  1  0  0  0  0
 22 23  1  0  0  0  0
 25  1  1  0  0  0  0
 25 26  1  0  0  0  0
 25 27  1  0  0  0  0
 28 25  1  0  0  0  0
 29 28  1  0  0  0  0
 30 28  1  0  0  0  0
 31 33  1  0  0  0  0
 32 31  1  0  0  0  0
 34  5  1  0  0  0  0
 34 31  1  0  0  0  0
 35 34  1  0  0  0  0
 36 34  1  0  0  0  0
 37 41  1  6  0  0  0
 37 38  1  0  0  0  0
 38 39  1  0  0  0  0
 38 40  2  0  0  0  0
 40 45  1  0  0  0  0
 41 44  1  0  0  0  0
 42 41  1  0  0  0  0
 43 41  1  0  0  0  0
 45 48  1  0  0  0  0
 45 47  1  0  0  0  0
 46 45  1  0  0  0  0
M  END
