3,20
 OpenBabel05122313053D

 34 36  0  0  1  0  0  0  0  0999 V2000
   -4.4995   -1.7384   -0.0000 Cl  0  0  0  0  0  0  0  0  0  0  0  0
   -0.2004    1.7736    0.0000 N   0  0  0  0  0  0  0  0  0  0  0  0
    1.3018    0.2393    1.9275 N   0  0  0  0  0  2  0  0  0  0  0  0
   -2.0571    0.9620    1.1866 N   0  0  0  0  0  0  0  0  0  0  0  0
   -3.0761    0.1315    1.1835 N   0  0  0  0  0  0  0  0  0  0  0  0
    0.2511    2.3525    1.2619 C   0  0  0  0  0  0  0  0  0  0  0  0
   -0.5123    3.0402    1.6844 H   0  0  0  0  0  0  0  0  0  0  0  0
    1.1578    2.9503    1.0336 H   0  0  0  0  0  0  0  0  0  0  0  0
    0.6215    1.3338    2.3205 C   0  0  2  0  0  3  0  0  0  0  0  0
    0.3412    1.5719    3.6752 C   0  0  0  0  0  0  0  0  0  0  0  0
   -0.2418    2.4591    3.9612 H   0  0  0  0  0  0  0  0  0  0  0  0
    0.7971    0.6626    4.6363 C   0  0  0  0  0  0  0  0  0  0  0  0
    0.5810    0.8264    5.7028 H   0  0  0  0  0  0  0  0  0  0  0  0
    1.5230   -0.4620    4.2173 C   0  0  0  0  0  0  0  0  0  0  0  0
    1.9030   -1.2018    4.9357 H   0  0  0  0  0  0  0  0  0  0  0  0
    1.7471   -0.6415    2.8496 C   0  0  0  0  0  0  0  0  0  0  0  0
    2.3084   -1.5005    2.4423 H   0  0  0  0  0  0  0  0  0  0  0  0
   -1.4252    1.1479   -0.0000 C   0  0  0  0  0  0  0  0  0  0  0  0
   -3.3958   -0.4231   -0.0000 C   0  0  0  0  0  0  0  0  0  0  0  0
    1.3018    0.2393   -1.9275 N   0  0  0  0  0  2  0  0  0  0  0  0
   -2.0571    0.9620   -1.1866 N   0  0  0  0  0  0  0  0  0  0  0  0
   -3.0761    0.1315   -1.1835 N   0  0  0  0  0  0  0  0  0  0  0  0
    0.2511    2.3525   -1.2619 C   0  0  0  0  0  0  0  0  0  0  0  0
   -0.5123    3.0402   -1.6844 H   0  0  0  0  0  0  0  0  0  0  0  0
    1.1578    2.9503   -1.0336 H   0  0  0  0  0  0  0  0  0  0  0  0
    0.6215    1.3338   -2.3205 C   0  0  1  0  0  3  0  0  0  0  0  0
    0.3412    1.5719   -3.6752 C   0  0  0  0  0  0  0  0  0  0  0  0
   -0.2418    2.4591   -3.9612 H   0  0  0  0  0  0  0  0  0  0  0  0
    0.7971    0.6626   -4.6363 C   0  0  0  0  0  0  0  0  0  0  0  0
    0.5810    0.8264   -5.7028 H   0  0  0  0  0  0  0  0  0  0  0  0
    1.5230   -0.4620   -4.2173 C   0  0  0  0  0  0  0  0  0  0  0  0
    1.9030   -1.2018   -4.9357 H   0  0  0  0  0  0  0  0  0  0  0  0
    1.7471   -0.6415   -2.8496 C   0  0  0  0  0  0  0  0  0  0  0  0
    2.3084   -1.5005   -2.4423 H   0  0  0  0  0  0  0  0  0  0  0  0
  2  6  1  0  0  0  0
  3  9  1  0  0  0  0
  3 16  1  0  0  0  0
  5  4  1  0  0  0  0
  6  7  1  0  0  0  0
  8  6  1  0  0  0  0
  9  6  1  1  0  0  0
  9 10  1  0  0  0  0
 10 11  1  0  0  0  0
 10 12  2  0  0  0  0
 12 13  1  0  0  0  0
 14 12  1  0  0  0  0
 14 15  1  0  0  0  0
 16 14  2  0  0  0  0
 17 16  1  0  0  0  0
 18  2  1  0  0  0  0
 18  4  2  0  0  0  0
 19  1  1  0  0  0  0
 19  5  2  0  0  0  0
 21 22  2  0  0  0  0
 21 18  1  0  0  0  0
 22 19  1  0  0  0  0
 23 25  1  0  0  0  0
 23  2  1  0  0  0  0
 24 23  1  0  0  0  0
 26 20  1  0  0  0  0
 26 23  1  6  0  0  0
 27 26  1  0  0  0  0
 28 27  1  0  0  0  0
 29 31  1  0  0  0  0
 29 27  2  0  0  0  0
 30 29  1  0  0  0  0
 31 33  2  0  0  0  0
 32 31  1  0  0  0  0
 33 34  1  0  0  0  0
 33 20  1  0  0  0  0
M  END
