20,46
 OpenBabel05122313053D

 54 58  0  0  0  0  0  0  0  0999 V2000
    0.7568    0.6805   -0.1028 C   0  0  0  0  0  0  0  0  0  0  0  0
    2.4312    2.7250   -0.2077 C   0  0  0  0  0  0  0  0  0  0  0  0
    3.3701    2.1549   -0.1734 H   0  0  0  0  0  0  0  0  0  0  0  0
    2.7972   -0.5350   -0.0352 C   0  0  0  0  0  0  0  0  0  0  0  0
    3.4741   -0.9332   -1.2147 C   0  0  0  0  0  0  0  0  0  0  0  0
    0.0009    2.8671   -0.2062 C   0  0  0  0  0  0  0  0  0  0  0  0
    1.1948    2.0839   -0.1630 C   0  0  0  0  0  0  0  0  0  0  0  0
    3.4709   -0.2765    1.1861 C   0  0  0  0  0  0  0  0  0  0  0  0
    2.4503    4.1459   -0.2960 C   0  0  0  0  0  0  0  0  0  0  0  0
    3.4243    4.6565   -0.3309 H   0  0  0  0  0  0  0  0  0  0  0  0
    4.8758   -1.0376   -1.1567 C   0  0  0  0  0  0  0  0  0  0  0  0
    5.4216   -1.3368   -2.0649 H   0  0  0  0  0  0  0  0  0  0  0  0
    1.2830    4.9103   -0.3381 C   0  0  0  0  0  0  0  0  0  0  0  0
    1.3465    6.0073   -0.4052 H   0  0  0  0  0  0  0  0  0  0  0  0
    0.0013    4.2818   -0.2961 C   0  0  0  0  0  0  0  0  0  0  0  0
    5.5719   -0.7778    0.0317 C   0  0  0  0  0  0  0  0  0  0  0  0
    6.6675   -0.8767    0.0603 H   0  0  0  0  0  0  0  0  0  0  0  0
    4.8722   -0.4084    1.1891 C   0  0  0  0  0  0  0  0  0  0  0  0
    5.4162   -0.2274    2.1292 H   0  0  0  0  0  0  0  0  0  0  0  0
    1.3790   -0.4520   -0.0823 N   0  0  0  0  0  2  0  0  0  0  0  0
    2.6998   -1.2002   -2.4769 C   0  0  0  0  0  0  0  0  0  0  0  0
    2.2219   -0.2736   -2.8618 H   0  0  0  0  0  0  0  0  0  0  0  0
    1.8805   -1.9315   -2.2993 H   0  0  0  0  0  0  0  0  0  0  0  0
    3.3592   -1.5958   -3.2722 H   0  0  0  0  0  0  0  0  0  0  0  0
    2.7072    0.0935    2.4304 C   0  0  0  0  0  0  0  0  0  0  0  0
    3.3655    0.0588    3.3187 H   0  0  0  0  0  0  0  0  0  0  0  0
    1.8543   -0.6003    2.5937 H   0  0  0  0  0  0  0  0  0  0  0  0
    2.2892    1.1214    2.3667 H   0  0  0  0  0  0  0  0  0  0  0  0
   -0.7565    0.6810   -0.1029 C   0  0  0  0  0  0  0  0  0  0  0  0
   -2.4295    2.7266   -0.2080 C   0  0  0  0  0  0  0  0  0  0  0  0
   -3.3688    2.1571   -0.1737 H   0  0  0  0  0  0  0  0  0  0  0  0
   -2.7975   -0.5337   -0.0358 C   0  0  0  0  0  0  0  0  0  0  0  0
   -3.4744   -0.9331   -1.2148 C   0  0  0  0  0  0  0  0  0  0  0  0
   -1.1936    2.0847   -0.1631 C   0  0  0  0  0  0  0  0  0  0  0  0
   -3.4713   -0.2738    1.1852 C   0  0  0  0  0  0  0  0  0  0  0  0
   -2.4477    4.1475   -0.2964 C   0  0  0  0  0  0  0  0  0  0  0  0
   -3.4213    4.6587   -0.3314 H   0  0  0  0  0  0  0  0  0  0  0  0
   -4.8762   -1.0371   -1.1568 C   0  0  0  0  0  0  0  0  0  0  0  0
   -5.4220   -1.3372   -2.0648 H   0  0  0  0  0  0  0  0  0  0  0  0
   -1.2799    4.9111   -0.3383 C   0  0  0  0  0  0  0  0  0  0  0  0
   -1.3427    6.0082   -0.4054 H   0  0  0  0  0  0  0  0  0  0  0  0
   -5.5723   -0.7759    0.0312 C   0  0  0  0  0  0  0  0  0  0  0  0
   -6.6679   -0.8746    0.0599 H   0  0  0  0  0  0  0  0  0  0  0  0
   -4.8726   -0.4054    1.1883 C   0  0  0  0  0  0  0  0  0  0  0  0
   -5.4166   -0.2234    2.1282 H   0  0  0  0  0  0  0  0  0  0  0  0
   -1.3794   -0.4512   -0.0831 N   0  0  0  0  0  2  0  0  0  0  0  0
   -2.7003   -1.2015   -2.4768 C   0  0  0  0  0  0  0  0  0  0  0  0
   -2.2222   -0.2753   -2.8626 H   0  0  0  0  0  0  0  0  0  0  0  0
   -1.8809   -1.9327   -2.2985 H   0  0  0  0  0  0  0  0  0  0  0  0
   -3.3597   -1.5979   -3.2717 H   0  0  0  0  0  0  0  0  0  0  0  0
   -2.7076    0.0971    2.4294 C   0  0  0  0  0  0  0  0  0  0  0  0
   -3.3661    0.0630    3.3176 H   0  0  0  0  0  0  0  0  0  0  0  0
   -1.8549   -0.5967    2.5932 H   0  0  0  0  0  0  0  0  0  0  0  0
   -2.2897    1.1249    2.3651 H   0  0  0  0  0  0  0  0  0  0  0  0
  1 20  1  0  0  0  0
  2  3  1  0  0  0  0
  2  7  1  0  0  0  0
  4  8  1  0  0  0  0
  5 11  1  0  0  0  0
  5  4  2  0  0  0  0
  6 34  1  0  0  0  0
  6  7  2  0  0  0  0
  7  1  1  0  0  0  0
  8 18  2  0  0  0  0
  8 25  1  0  0  0  0
  9  2  2  0  0  0  0
 10  9  1  0  0  0  0
 11 16  2  0  0  0  0
 12 11  1  0  0  0  0
 13 15  2  0  0  0  0
 13  9  1  0  0  0  0
 14 13  1  0  0  0  0
 15  6  1  0  0  0  0
 16 17  1  0  0  0  0
 16 18  1  0  0  0  0
 18 19  1  0  0  0  0
 20  4  1  0  0  0  0
 21 23  1  0  0  0  0
 21  5  1  0  0  0  0
 22 21  1  0  0  0  0
 24 21  1  0  0  0  0
 25 27  1  0  0  0  0
 25 26  1  0  0  0  0
 28 25  1  0  0  0  0
 29  1  2  0  0  0  0
 29 46  1  0  0  0  0
 30 31  1  0  0  0  0
 30 34  2  0  0  0  0
 32 35  1  0  0  0  0
 33 38  1  0  0  0  0
 33 32  2  0  0  0  0
 34 29  1  0  0  0  0
 35 44  2  0  0  0  0
 35 51  1  0  0  0  0
 36 30  1  0  0  0  0
 37 36  1  0  0  0  0
 38 42  2  0  0  0  0
 39 38  1  0  0  0  0
 40 36  2  0  0  0  0
 40 15  1  0  0  0  0
 41 40  1  0  0  0  0
 42 43  1  0  0  0  0
 42 44  1  0  0  0  0
 44 45  1  0  0  0  0
 46 32  1  0  0  0  0
 47 49  1  0  0  0  0
 47 33  1  0  0  0  0
 48 47  1  0  0  0  0
 50 47  1  0  0  0  0
 51 53  1  0  0  0  0
 51 52  1  0  0  0  0
 54 51  1  0  0  0  0
M  END
