1,2
 OpenBabel05122313053D

 24 26  0  0  1  0  0  0  0  0999 V2000
   -0.5393   -2.0220   -1.3558 N   0  0  0  0  0  2  0  0  0  0  0  0
   -1.1846   -0.5038    0.7470 N   0  0  0  0  0  2  0  0  0  0  0  0
   -3.2557   -1.2647    0.9971 N   0  0  0  0  0  0  0  0  0  0  0  0
   -0.1602   -2.4872   -2.5563 C   0  0  0  0  0  3  0  0  0  0  0  0
    0.9287   -2.4821   -2.7412 H   0  0  0  0  0  0  0  0  0  0  0  0
   -1.0624   -2.9518   -3.5219 C   0  0  0  0  0  0  0  0  0  0  0  0
   -0.6950   -3.3437   -4.4814 H   0  0  0  0  0  0  0  0  0  0  0  0
   -2.4370   -2.8996   -3.2315 C   0  0  0  0  0  0  0  0  0  0  0  0
   -3.1813   -3.2318   -3.9702 H   0  0  0  0  0  0  0  0  0  0  0  0
   -2.8527   -2.3870   -1.9964 C   0  0  0  0  0  0  0  0  0  0  0  0
   -3.9240   -2.2756   -1.7804 H   0  0  0  0  0  0  0  0  0  0  0  0
   -1.8747   -1.9609   -1.0724 C   0  0  0  0  0  0  0  0  0  0  0  0
   -2.1307   -1.3099    0.2020 C   0  0  1  0  0  3  0  0  0  0  0  0
   -4.4626   -1.9338    0.9164 C   0  0  0  0  0  0  0  0  0  0  0  0
   -4.5699   -2.6598    0.1027 H   0  0  0  0  0  0  0  0  0  0  0  0
   -5.4397   -1.6879    1.8526 C   0  0  0  0  0  0  0  0  0  0  0  0
   -6.3916   -2.2302    1.7710 H   0  0  0  0  0  0  0  0  0  0  0  0
   -5.2202   -0.7571    2.9157 C   0  0  0  0  0  0  0  0  0  0  0  0
   -6.0174   -0.5650    3.6472 H   0  0  0  0  0  0  0  0  0  0  0  0
   -3.9980   -0.1185    3.0263 C   0  0  0  0  0  0  0  0  0  0  0  0
   -3.7824    0.5882    3.8395 H   0  0  0  0  0  0  0  0  0  0  0  0
   -2.9818   -0.3734    2.0730 C   0  0  0  0  0  0  0  0  0  0  0  0
   -1.6679    0.0708    1.8764 C   0  0  0  0  0  0  0  0  0  0  0  0
   -1.0844    0.8147    2.4320 H   0  0  0  0  0  0  0  0  0  0  0  0
  1 12  1  0  0  0  0
  2 23  1  0  0  0  0
  3 22  1  0  0  0  0
  4  1  1  0  0  0  0
  5  4  1  0  0  0  0
  6  8  2  0  0  0  0
  6  4  1  0  0  0  0
  7  6  1  0  0  0  0
  8 10  1  0  0  0  0
  9  8  1  0  0  0  0
 10 11  1  0  0  0  0
 10 12  2  0  0  0  0
 13 12  1  6  0  0  0
 13  2  1  0  0  0  0
 13  3  1  0  0  0  0
 14  3  1  0  0  0  0
 14 16  2  0  0  0  0
 15 14  1  0  0  0  0
 16 18  1  0  0  0  0
 17 16  1  0  0  0  0
 18 20  2  0  0  0  0
 18 19  1  0  0  0  0
 20 21  1  0  0  0  0
 22 20  1  0  0  0  0
 23 22  2  0  0  0  0
 23 24  1  0  0  0  0
M  END
