2,4
 OpenBabel05122313053D

 17 17  0  0  1  0  0  0  0  0999 V2000
    5.1421   -0.2838   -0.7594 O   0  0  0  0  0  0  0  0  0  0  0  0
    1.9460    0.4955    0.5006 N   0  0  0  0  0  2  0  0  0  0  0  0
    2.8627   -0.3129   -0.1408 N   0  0  0  0  0  0  0  0  0  0  0  0
    1.1078   -1.5953   -0.9249 N   0  0  0  0  0  2  0  0  0  0  0  0
    0.8251   -2.4373   -1.4316 H   0  0  0  0  0  0  0  0  0  0  0  0
    3.3975   -2.1475   -1.4121 N   0  0  0  0  0  0  0  0  0  0  0  0
    4.3458   -1.6912   -1.3533 H   0  0  0  0  0  0  0  0  0  0  0  0
    3.1633   -2.8389   -2.1213 H   0  0  0  0  0  0  0  0  0  0  0  0
    2.4120   -1.4052   -0.8640 C   0  0  2  0  0  3  0  0  0  0  0  0
    1.9375    2.6857    1.6172 C   0  0  0  0  0  0  0  0  0  0  0  0
    0.8443    2.6315    1.4409 H   0  0  0  0  0  0  0  0  0  0  0  0
    2.2962    3.6870    1.3092 H   0  0  0  0  0  0  0  0  0  0  0  0
    2.1185    2.5993    2.7099 H   0  0  0  0  0  0  0  0  0  0  0  0
    2.6428    1.6055    0.8563 C   0  0  0  0  0  0  0  0  0  0  0  0
    3.9858    1.5353    0.4638 C   0  0  0  0  0  0  0  0  0  0  0  0
    4.7695    2.2806    0.6280 H   0  0  0  0  0  0  0  0  0  0  0  0
    4.1763    0.2837   -0.2059 C   0  0  0  0  0  0  0  0  0  0  0  0
  1 17  2  0  0  0  0
  2 14  1  0  0  0  0
  3  2  1  0  0  0  0
  5  4  1  0  0  0  0
  6  7  1  0  0  0  0
  6  9  1  0  0  0  0
  8  6  1  0  0  0  0
  9  4  1  1  0  0  0
  9  3  1  0  0  0  0
 10 13  1  0  0  0  0
 11 10  1  0  0  0  0
 12 10  1  0  0  0  0
 14 10  1  0  0  0  0
 15 16  1  0  0  0  0
 15 14  2  0  0  0  0
 17  3  1  0  0  0  0
 17 15  1  0  0  0  0
M  END
