4,5
 OpenBabel05122313053D

 25 26  0  0  0  0  0  0  0  0999 V2000
   -5.5888   -0.8335   -0.1861 Cl  0  0  0  0  0  0  0  0  0  0  0  0
    0.5597   -3.2704    0.2946 O   0  0  0  0  0  0  0  0  0  0  0  0
    1.5371   -3.2107    0.2477 H   0  0  0  0  0  0  0  0  0  0  0  0
   -0.5926    0.4918    0.0791 N   0  0  0  0  0  2  0  0  0  0  0  0
    0.1552   -1.9726    0.1850 N   0  0  0  0  0  2  0  0  0  0  0  0
   -1.5834   -0.4073    0.0507 C   0  0  0  0  0  0  0  0  0  0  0  0
   -1.1712   -1.8077    0.1165 C   0  0  0  0  0  0  0  0  0  0  0  0
   -2.1435   -2.8569    0.1169 C   0  0  0  0  0  0  0  0  0  0  0  0
   -1.8029   -3.8984    0.1707 H   0  0  0  0  0  0  0  0  0  0  0  0
   -3.4799   -2.5377    0.0359 C   0  0  0  0  0  0  0  0  0  0  0  0
   -4.2510   -3.3200    0.0220 H   0  0  0  0  0  0  0  0  0  0  0  0
   -3.8880   -1.1610   -0.0518 C   0  0  0  0  0  0  0  0  0  0  0  0
   -2.9834   -0.1174   -0.0458 C   0  0  0  0  0  0  0  0  0  0  0  0
   -3.3205    0.9234   -0.1260 H   0  0  0  0  0  0  0  0  0  0  0  0
   -0.8784    1.8857    0.0752 C   0  0  0  0  0  0  0  0  0  0  0  0
   -1.4891    2.4957    1.1894 C   0  0  0  0  0  0  0  0  0  0  0  0
   -1.7538    1.8816    2.0631 H   0  0  0  0  0  0  0  0  0  0  0  0
   -1.7240    3.8783    1.1808 C   0  0  0  0  0  0  0  0  0  0  0  0
   -2.1897    4.3551    2.0565 H   0  0  0  0  0  0  0  0  0  0  0  0
   -1.3595    4.6510    0.0668 C   0  0  0  0  0  0  0  0  0  0  0  0
   -1.5437    5.7356    0.0645 H   0  0  0  0  0  0  0  0  0  0  0  0
   -0.7524    4.0366   -1.0417 C   0  0  0  0  0  0  0  0  0  0  0  0
   -0.4654    4.6379   -1.9175 H   0  0  0  0  0  0  0  0  0  0  0  0
   -0.5038    2.6580   -1.0431 C   0  0  0  0  0  0  0  0  0  0  0  0
   -0.0267    2.1508   -1.8957 H   0  0  0  0  0  0  0  0  0  0  0  0
  1 12  1  0  0  0  0
  3  2  1  0  0  0  0
  5  2  1  0  0  0  0
  6  4  1  0  0  0  0
  6  7  1  0  0  0  0
  7  8  2  0  0  0  0
  7  5  1  0  0  0  0
  8  9  1  0  0  0  0
 10  8  1  0  0  0  0
 11 10  1  0  0  0  0
 12 13  1  0  0  0  0
 12 10  2  0  0  0  0
 13  6  2  0  0  0  0
 14 13  1  0  0  0  0
 15  4  1  0  0  0  0
 15 16  1  0  0  0  0
 16 17  1  0  0  0  0
 18 16  2  0  0  0  0
 18 19  1  0  0  0  0
 20 18  1  0  0  0  0
 21 20  1  0  0  0  0
 22 20  2  0  0  0  0
 23 22  1  0  0  0  0
 24 22  1  0  0  0  0
 24 15  2  0  0  0  0
 25 24  1  0  0  0  0
M  END
