4,5
 OpenBabel05122313053D

 28 29  0  0  0  0  0  0  0  0999 V2000
    5.1118   -2.3986    0.1173 Cl  0  0  0  0  0  0  0  0  0  0  0  0
   -1.4692   -3.2159    0.1611 O   0  0  0  0  0  0  0  0  0  0  0  0
   -2.3966   -2.9049    0.0953 H   0  0  0  0  0  0  0  0  0  0  0  0
    0.6009    0.1377    0.2375 N   0  0  0  0  0  2  0  0  0  0  0  0
   -0.7463   -2.0595    0.1399 N   0  0  0  0  0  2  0  0  0  0  0  0
    1.3341   -0.9789    0.1537 C   0  0  0  0  0  0  0  0  0  0  0  0
    0.5803   -2.2309    0.1228 C   0  0  0  0  0  0  0  0  0  0  0  0
    1.2567   -3.4913    0.0862 C   0  0  0  0  0  0  0  0  0  0  0  0
    0.6627   -4.4132    0.0594 H   0  0  0  0  0  0  0  0  0  0  0  0
    2.6324   -3.5182    0.0704 C   0  0  0  0  0  0  0  0  0  0  0  0
    3.1817   -4.4686    0.0296 H   0  0  0  0  0  0  0  0  0  0  0  0
    3.3776   -2.2882    0.1099 C   0  0  0  0  0  0  0  0  0  0  0  0
    2.7655   -1.0512    0.1504 C   0  0  0  0  0  0  0  0  0  0  0  0
    3.3586   -0.1295    0.1931 H   0  0  0  0  0  0  0  0  0  0  0  0
    1.2025    1.4206    0.1697 C   0  0  0  0  0  0  0  0  0  0  0  0
    1.0254    2.3317    1.2305 C   0  0  0  0  0  0  0  0  0  0  0  0
    0.4597    2.0153    2.1191 H   0  0  0  0  0  0  0  0  0  0  0  0
    1.5725    3.6150    1.1443 C   0  0  0  0  0  0  0  0  0  0  0  0
    1.4394    4.3131    1.9858 H   0  0  0  0  0  0  0  0  0  0  0  0
    2.2858    4.0361    0.0000 C   0  0  0  0  0  0  0  0  0  0  0  0
    2.4355    3.1174   -1.0577 C   0  0  0  0  0  0  0  0  0  0  0  0
    2.9706    3.4260   -1.9695 H   0  0  0  0  0  0  0  0  0  0  0  0
    1.9050    1.8229   -0.9836 C   0  0  0  0  0  0  0  0  0  0  0  0
    1.9858    1.1263   -1.8301 H   0  0  0  0  0  0  0  0  0  0  0  0
    2.8351    5.4363   -0.0921 C   0  0  0  0  0  0  0  0  0  0  0  0
    3.5453    5.5430   -0.9345 H   0  0  0  0  0  0  0  0  0  0  0  0
    3.3581    5.7301    0.8406 H   0  0  0  0  0  0  0  0  0  0  0  0
    2.0189    6.1737   -0.2486 H   0  0  0  0  0  0  0  0  0  0  0  0
  3  2  1  0  0  0  0
  5  2  1  0  0  0  0
  6  4  1  0  0  0  0
  7  5  1  0  0  0  0
  7  6  2  0  0  0  0
  8  7  1  0  0  0  0
  9  8  1  0  0  0  0
 10  8  2  0  0  0  0
 10 12  1  0  0  0  0
 11 10  1  0  0  0  0
 12  1  1  0  0  0  0
 12 13  2  0  0  0  0
 13  6  1  0  0  0  0
 13 14  1  0  0  0  0
 15  4  1  0  0  0  0
 15 16  1  0  0  0  0
 16 17  1  0  0  0  0
 18 16  2  0  0  0  0
 18 19  1  0  0  0  0
 20 18  1  0  0  0  0
 21 23  1  0  0  0  0
 21 20  2  0  0  0  0
 22 21  1  0  0  0  0
 23 15  2  0  0  0  0
 24 23  1  0  0  0  0
 25 20  1  0  0  0  0
 25 27  1  0  0  0  0
 26 25  1  0  0  0  0
 28 25  1  0  0  0  0
M  END
