23,25
 OpenBabel05122313053D

 36 37  0  0  1  0  0  0  0  0999 V2000
    1.8106    2.1615   -0.4656 C   0  0  1  0  0  3  0  0  0  0  0  0
    0.8704    3.0793    0.1357 C   0  0  0  0  0  0  0  0  0  0  0  0
    1.2679    4.4513    0.4990 C   0  0  0  0  0  0  0  0  0  0  0  0
    3.4911    3.9685   -0.5456 C   0  0  0  0  0  0  0  0  0  0  0  0
    3.9981    1.7873   -1.5428 C   0  0  0  0  0  0  0  0  0  0  0  0
    4.8820    2.4027   -1.7813 H   0  0  0  0  0  0  0  0  0  0  0  0
    3.5494    1.4080   -2.4840 H   0  0  0  0  0  0  0  0  0  0  0  0
    4.3205    0.9362   -0.9095 H   0  0  0  0  0  0  0  0  0  0  0  0
    3.0887    6.1257    0.4676 C   0  0  0  0  0  0  0  0  0  0  0  0
    4.0063    6.0595    1.0826 H   0  0  0  0  0  0  0  0  0  0  0  0
    2.2809    6.6357    1.0195 H   0  0  0  0  0  0  0  0  0  0  0  0
    3.3355    6.6810   -0.4579 H   0  0  0  0  0  0  0  0  0  0  0  0
   -2.3669    1.6837   -0.0671 C   0  0  0  0  0  0  0  0  0  0  0  0
   -3.0082    0.8810   -1.0345 C   0  0  0  0  0  0  0  0  0  0  0  0
   -2.3952    0.2834   -1.7242 H   0  0  0  0  0  0  0  0  0  0  0  0
   -4.4037    0.8339   -1.0928 C   0  0  0  0  0  0  0  0  0  0  0  0
   -4.9210    0.1874   -1.8168 H   0  0  0  0  0  0  0  0  0  0  0  0
   -5.1541    1.5929   -0.1782 C   0  0  0  0  0  0  0  0  0  0  0  0
   -4.5274    2.4142    0.7746 C   0  0  0  0  0  0  0  0  0  0  0  0
   -5.1435    2.9747    1.4932 H   0  0  0  0  0  0  0  0  0  0  0  0
   -3.1306    2.4721    0.8203 C   0  0  0  0  0  0  0  0  0  0  0  0
   -2.6034    3.1090    1.5446 H   0  0  0  0  0  0  0  0  0  0  0  0
    1.4667    0.9117   -0.7122 N   0  0  0  0  0  2  0  0  0  0  0  0
    2.1925    0.3573   -1.1782 H   0  0  0  0  0  0  0  0  0  0  0  0
   -0.9436    1.6553    0.0129 N   0  0  0  0  0  2  0  0  0  0  0  0
   -0.4335    2.8219    0.2307 N   0  0  0  0  0  0  0  0  0  0  0  0
    3.0539    2.6493   -0.8342 N   0  0  0  0  0  0  0  0  0  0  0  0
    2.6014    4.7857    0.1432 N   0  0  0  0  0  0  0  0  0  0  0  0
   -7.5185    2.6059   -1.2931 N   0  0  0  0  0  0  0  0  0  0  0  0
   -7.3158    3.5682   -0.9983 H   0  0  0  0  0  0  0  0  0  0  0  0
   -7.2165    2.4138   -2.2551 H   0  0  0  0  0  0  0  0  0  0  0  0
   -7.2756    0.1476   -0.7799 O   0  0  0  0  0  0  0  0  0  0  0  0
   -7.4300    1.9056    1.1279 O   0  0  0  0  0  0  0  0  0  0  0  0
    0.5405    5.2569    1.0634 O   0  0  0  0  0  0  0  0  0  0  0  0
    4.6028    4.3560   -0.8769 O   0  0  0  0  0  0  0  0  0  0  0  0
   -6.9508    1.4598   -0.1918 S   0  0  0  0  0  0  0  0  0  0  0  0
  1 23  1  6  0  0  0
  1  2  1  0  0  0  0
  2 26  2  0  0  0  0
  2  3  1  0  0  0  0
  3 34  2  0  0  0  0
  4 28  1  0  0  0  0
  5  8  1  0  0  0  0
  5 27  1  0  0  0  0
  6  5  1  0  0  0  0
  7  5  1  0  0  0  0
  9 11  1  0  0  0  0
  9 10  1  0  0  0  0
 12  9  1  0  0  0  0
 13 25  1  0  0  0  0
 13 21  1  0  0  0  0
 14 13  2  0  0  0  0
 15 14  1  0  0  0  0
 16 14  1  0  0  0  0
 16 18  2  0  0  0  0
 17 16  1  0  0  0  0
 18 19  1  0  0  0  0
 19 21  2  0  0  0  0
 19 20  1  0  0  0  0
 21 22  1  0  0  0  0
 24 23  1  0  0  0  0
 25 26  1  0  0  0  0
 27  4  1  0  0  0  0
 27  1  1  0  0  0  0
 28  9  1  0  0  0  0
 28  3  1  0  0  0  0
 29 30  1  0  0  0  0
 29 36  1  0  0  0  0
 31 29  1  0  0  0  0
 32 36  2  0  0  0  0
 35  4  2  0  0  0  0
 36 18  1  0  0  0  0
 36 33  2  0  0  0  0
M  END
