3,4
 OpenBabel05122313053D

 34 35  0  0  0  0  0  0  0  0999 V2000
   -2.7280   -2.3167   -0.5309 I   0  0  0  0  0  0  0  0  0  0  0  0
    2.2102   -2.7749   -0.5036 I   0  0  0  0  0  0  0  0  0  0  0  0
   -1.2561    0.2555    0.9007 N   0  0  0  0  0  2  0  0  0  0  0  0
    1.1985   -0.0687    1.0226 N   0  0  0  0  0  2  0  0  0  0  0  0
   -0.8671   -0.4518    1.9646 C   0  0  0  0  0  0  0  0  0  0  0  0
    0.5600   -0.6340    2.0414 C   0  0  0  0  0  0  0  0  0  0  0  0
    1.2345   -1.3637    3.1616 C   0  0  0  0  0  0  0  0  0  0  0  0
    2.3310   -1.3730    3.0277 H   0  0  0  0  0  0  0  0  0  0  0  0
    0.8814   -2.4144    3.2129 H   0  0  0  0  0  0  0  0  0  0  0  0
    1.0074   -0.8892    4.1391 H   0  0  0  0  0  0  0  0  0  0  0  0
   -1.8248   -0.9867    2.9829 C   0  0  0  0  0  0  0  0  0  0  0  0
   -2.6355   -0.2607    3.1849 H   0  0  0  0  0  0  0  0  0  0  0  0
   -1.3093   -1.2253    3.9306 H   0  0  0  0  0  0  0  0  0  0  0  0
   -2.3057   -1.9176    2.6108 H   0  0  0  0  0  0  0  0  0  0  0  0
   -2.6379    0.5195    0.6963 C   0  0  0  0  0  0  0  0  0  0  0  0
   -3.1655    1.7722    1.0686 C   0  0  0  0  0  0  0  0  0  0  0  0
   -2.4628    2.5191    1.4700 H   0  0  0  0  0  0  0  0  0  0  0  0
   -4.5255    2.0445    0.8905 C   0  0  0  0  0  0  0  0  0  0  0  0
   -4.9240    3.0278    1.1811 H   0  0  0  0  0  0  0  0  0  0  0  0
   -5.3730    1.0721    0.3355 C   0  0  0  0  0  0  0  0  0  0  0  0
   -6.4429    1.2826    0.1885 H   0  0  0  0  0  0  0  0  0  0  0  0
   -4.8580   -0.1746   -0.0493 C   0  0  0  0  0  0  0  0  0  0  0  0
   -5.5135   -0.9333   -0.4995 H   0  0  0  0  0  0  0  0  0  0  0  0
   -3.4935   -0.4500    0.1272 C   0  0  0  0  0  0  0  0  0  0  0  0
    2.6048   -0.0689    0.9102 C   0  0  0  0  0  0  0  0  0  0  0  0
    3.2914   -1.1154    0.2531 C   0  0  0  0  0  0  0  0  0  0  0  0
    4.6840   -1.0585    0.0836 C   0  0  0  0  0  0  0  0  0  0  0  0
    5.2056   -1.8828   -0.4232 H   0  0  0  0  0  0  0  0  0  0  0  0
    5.3991    0.0532    0.5561 C   0  0  0  0  0  0  0  0  0  0  0  0
    6.4898    0.0933    0.4160 H   0  0  0  0  0  0  0  0  0  0  0  0
    4.7237    1.1044    1.1990 C   0  0  0  0  0  0  0  0  0  0  0  0
    5.2810    1.9794    1.5657 H   0  0  0  0  0  0  0  0  0  0  0  0
    3.3367    1.0456    1.3748 C   0  0  0  0  0  0  0  0  0  0  0  0
    2.7673    1.8676    1.8372 H   0  0  0  0  0  0  0  0  0  0  0  0
  1 24  1  0  0  0  0
  2 26  1  0  0  0  0
  3  5  1  0  0  0  0
  4  6  1  0  0  0  0
  5  6  2  0  0  0  0
  5 11  1  0  0  0  0
  6  7  1  0  0  0  0
  7  9  1  0  0  0  0
  7 10  1  0  0  0  0
  8  7  1  0  0  0  0
 11 12  1  0  0  0  0
 11 13  1  0  0  0  0
 14 11  1  0  0  0  0
 15  3  1  0  0  0  0
 15 16  1  0  0  0  0
 16 17  1  0  0  0  0
 18 16  2  0  0  0  0
 18 19  1  0  0  0  0
 20 18  1  0  0  0  0
 21 20  1  0  0  0  0
 22 24  1  0  0  0  0
 22 20  2  0  0  0  0
 23 22  1  0  0  0  0
 24 15  2  0  0  0  0
 25  4  1  0  0  0  0
 25 33  1  0  0  0  0
 26 25  2  0  0  0  0
 27 26  1  0  0  0  0
 27 29  2  0  0  0  0
 28 27  1  0  0  0  0
 29 31  1  0  0  0  0
 30 29  1  0  0  0  0
 31 33  2  0  0  0  0
 31 32  1  0  0  0  0
 33 34  1  0  0  0  0
M  END
