1,2
q = 0.0, confidence = 1.0

 28 29  0  0  0  0  0  0  0  0999 V2000
   -2.3434   -0.6240   -0.3220 N   0  0  0  0  0  2  0  0  0  0  0  0
    0.1221   -1.3576   -0.4594 N   0  0  0  0  0  2  0  0  0  0  0  0
   -3.2496   -2.3417   -1.3881 N   0  0  0  0  0  0  0  0  0  0  0  0
   -3.3466   -3.2242   -1.8941 H   0  0  0  0  0  0  0  0  0  0  0  0
   -2.0829   -1.8105   -0.9194 C   0  0  0  0  0  0  0  0  0  0  0  0
   -0.7207   -2.2369   -0.9542 C   0  0  0  0  0  0  0  0  0  0  0  0
   -0.3897   -3.2260   -1.3102 H   0  0  0  0  0  0  0  0  0  0  0  0
   -3.6871   -0.3877   -0.4380 C   0  0  0  0  0  0  0  0  0  0  0  0
   -4.1611    0.5258   -0.0666 H   0  0  0  0  0  0  0  0  0  0  0  0
    1.4875   -1.7333   -0.2200 C   0  0  0  0  0  0  0  0  0  0  0  0
   -4.2683   -1.4648   -1.0975 C   0  0  0  0  0  0  0  0  0  0  0  0
   -5.3099   -1.6660   -1.3665 H   0  0  0  0  0  0  0  0  0  0  0  0
    2.5000   -1.3277   -1.1249 C   0  0  0  0  0  0  0  0  0  0  0  0
    1.7687   -2.4763    0.9563 C   0  0  0  0  0  0  0  0  0  0  0  0
    3.1202   -2.7310    1.2592 C   0  0  0  0  0  0  0  0  0  0  0  0
    3.3640   -3.2901    2.1756 H   0  0  0  0  0  0  0  0  0  0  0  0
    0.6729   -3.0254    1.8382 C   0  0  0  0  0  0  0  0  0  0  0  0
   -0.2318   -2.3868    1.8462 H   0  0  0  0  0  0  0  0  0  0  0  0
    1.0255   -3.1518    2.8800 H   0  0  0  0  0  0  0  0  0  0  0  0
    0.3511   -4.0300    1.4891 H   0  0  0  0  0  0  0  0  0  0  0  0
    2.1618   -0.6912   -2.4448 C   0  0  0  0  0  0  0  0  0  0  0  0
    1.7778   -1.4561   -3.1542 H   0  0  0  0  0  0  0  0  0  0  0  0
    3.0571   -0.2379   -2.9097 H   0  0  0  0  0  0  0  0  0  0  0  0
    1.3634    0.0733   -2.3627 H   0  0  0  0  0  0  0  0  0  0  0  0
    3.8329   -1.6166   -0.7755 C   0  0  0  0  0  0  0  0  0  0  0  0
    4.6365   -1.3083   -1.4615 H   0  0  0  0  0  0  0  0  0  0  0  0
    4.1451   -2.2924    0.4117 C   0  0  0  0  0  0  0  0  0  0  0  0
    5.1951   -2.4956    0.6690 H   0  0  0  0  0  0  0  0  0  0  0  0
  2 10  1  0  0  0  0
  3 11  1  0  0  0  0
  3  5  1  0  0  0  0
  4  3  1  0  0  0  0
  5  1  1  0  0  0  0
  6  5  2  0  0  0  0
  6  2  1  0  0  0  0
  7  6  1  0  0  0  0
  8  1  1  0  0  0  0
  8  9  1  0  0  0  0
 10 14  1  0  0  0  0
 11  8  2  0  0  0  0
 12 11  1  0  0  0  0
 13 25  1  0  0  0  0
 13 10  2  0  0  0  0
 14 15  2  0  0  0  0
 14 17  1  0  0  0  0
 15 16  1  0  0  0  0
 17 18  1  0  0  0  0
 17 19  1  0  0  0  0
 20 17  1  0  0  0  0
 21 24  1  0  0  0  0
 21 13  1  0  0  0  0
 22 21  1  0  0  0  0
 23 21  1  0  0  0  0
 25 27  2  0  0  0  0
 26 25  1  0  0  0  0
 27 28  1  0  0  0  0
 27 15  1  0  0  0  0
M  END
