1,2
 OpenBabel05122313053D

 45 45  0  0  0  0  0  0  0  0999 V2000
   -1.2010    0.8483    0.5522 N   0  0  0  0  0  2  0  0  0  0  0  0
    1.2535   -0.4736    0.6491 N   0  0  0  0  0  2  0  0  0  0  0  0
   -0.4359    1.8832    0.5918 C   0  0  0  0  0  3  0  0  0  0  0  0
   -0.7674    2.8036    1.1111 H   0  0  0  0  0  0  0  0  0  0  0  0
    0.9673    1.8954    0.0163 C   0  0  0  0  0  0  0  0  0  0  0  0
    1.6931    0.7352    0.6820 C   0  0  0  0  0  3  0  0  0  0  0  0
    2.6033    0.9840    1.2623 H   0  0  0  0  0  0  0  0  0  0  0  0
    1.7085    3.2211    0.3259 C   0  0  0  0  0  0  0  0  0  0  0  0
    0.9896    4.0642    0.2472 H   0  0  0  0  0  0  0  0  0  0  0  0
    2.1282    3.2444    1.3530 H   0  0  0  0  0  0  0  0  0  0  0  0
    2.7516    3.3310   -0.7891 C   0  0  0  0  0  0  0  0  0  0  0  0
    3.5725    2.6008   -0.6148 H   0  0  0  0  0  0  0  0  0  0  0  0
    3.2164    4.3346   -0.8564 H   0  0  0  0  0  0  0  0  0  0  0  0
    1.9449    2.9347   -2.0342 C   0  0  0  0  0  0  0  0  0  0  0  0
    1.3414    3.8032   -2.3718 H   0  0  0  0  0  0  0  0  0  0  0  0
    2.5820    2.6320   -2.8880 H   0  0  0  0  0  0  0  0  0  0  0  0
    1.0171    1.7906   -1.5675 C   0  0  0  0  0  0  0  0  0  0  0  0
    1.3945    0.7913   -1.8609 H   0  0  0  0  0  0  0  0  0  0  0  0
   -0.0027    1.8581   -1.9923 H   0  0  0  0  0  0  0  0  0  0  0  0
   -2.5543    0.8713    1.2172 C   0  0  0  0  0  0  0  0  0  0  0  0
   -2.9585   -0.5792    1.5185 C   0  0  0  0  0  0  0  0  0  0  0  0
   -3.0323   -1.1624    0.5807 H   0  0  0  0  0  0  0  0  0  0  0  0
   -3.9434   -0.5883    2.0263 H   0  0  0  0  0  0  0  0  0  0  0  0
   -2.2190   -1.0660    2.1857 H   0  0  0  0  0  0  0  0  0  0  0  0
   -3.5477    1.5221    0.2382 C   0  0  0  0  0  0  0  0  0  0  0  0
   -3.2648    2.5752    0.0343 H   0  0  0  0  0  0  0  0  0  0  0  0
   -4.5640    1.5137    0.6799 H   0  0  0  0  0  0  0  0  0  0  0  0
   -3.5567    0.9572   -0.7141 H   0  0  0  0  0  0  0  0  0  0  0  0
   -2.4948    1.6633    2.5369 C   0  0  0  0  0  0  0  0  0  0  0  0
   -2.3296    2.7487    2.3848 H   0  0  0  0  0  0  0  0  0  0  0  0
   -1.6999    1.2721    3.2041 H   0  0  0  0  0  0  0  0  0  0  0  0
   -3.4641    1.5577    3.0611 H   0  0  0  0  0  0  0  0  0  0  0  0
    1.9652   -1.5699    1.4006 C   0  0  0  0  0  0  0  0  0  0  0  0
    0.9573   -2.6986    1.6619 C   0  0  0  0  0  0  0  0  0  0  0  0
    0.5821   -3.1111    0.7058 H   0  0  0  0  0  0  0  0  0  0  0  0
    0.0958   -2.3314    2.2552 H   0  0  0  0  0  0  0  0  0  0  0  0
    1.4528   -3.5086    2.2333 H   0  0  0  0  0  0  0  0  0  0  0  0
    3.1224   -2.0667    0.5157 C   0  0  0  0  0  0  0  0  0  0  0  0
    2.7245   -2.4085   -0.4596 H   0  0  0  0  0  0  0  0  0  0  0  0
    3.6395   -2.9087    1.0172 H   0  0  0  0  0  0  0  0  0  0  0  0
    3.8606   -1.2566    0.3439 H   0  0  0  0  0  0  0  0  0  0  0  0
    2.4966   -1.0453    2.7477 C   0  0  0  0  0  0  0  0  0  0  0  0
    2.9024   -1.8961    3.3282 H   0  0  0  0  0  0  0  0  0  0  0  0
    1.6863   -0.5788    3.3441 H   0  0  0  0  0  0  0  0  0  0  0  0
    3.3211   -0.3134    2.6334 H   0  0  0  0  0  0  0  0  0  0  0  0
  1  3  1  0  0  0  0
  1 20  1  0  0  0  0
  2  6  1  0  0  0  0
  2 33  1  0  0  0  0
  3  4  1  0  0  0  0
  5  8  1  0  0  0  0
  5  3  1  0  0  0  0
  5  6  1  0  0  0  0
  6  7  1  0  0  0  0
  8 10  1  0  0  0  0
  9  8  1  0  0  0  0
 11 12  1  0  0  0  0
 11  8  1  0  0  0  0
 13 11  1  0  0  0  0
 14 17  1  0  0  0  0
 14 11  1  0  0  0  0
 15 14  1  0  0  0  0
 16 14  1  0  0  0  0
 17  5  1  0  0  0  0
 18 17  1  0  0  0  0
 19 17  1  0  0  0  0
 20 21  1  0  0  0  0
 20 29  1  0  0  0  0
 21 23  1  0  0  0  0
 21 24  1  0  0  0  0
 22 21  1  0  0  0  0
 25 27  1  0  0  0  0
 25 20  1  0  0  0  0
 26 25  1  0  0  0  0
 28 25  1  0  0  0  0
 29 32  1  0  0  0  0
 29 31  1  0  0  0  0
 30 29  1  0  0  0  0
 33 34  1  0  0  0  0
 33 42  1  0  0  0  0
 34 37  1  0  0  0  0
 34 36  1  0  0  0  0
 35 34  1  0  0  0  0
 38 40  1  0  0  0  0
 38 33  1  0  0  0  0
 39 38  1  0  0  0  0
 41 38  1  0  0  0  0
 42 43  1  0  0  0  0
 42 44  1  0  0  0  0
 45 42  1  0  0  0  0
M  END
