1,39
 OpenBabel05122313053D

 40 42  0  0  1  0  0  0  0  0999 V2000
    0.8989   -0.2249   -0.4453 N   0  0  0  0  0  2  0  0  0  0  0  0
    2.2832   -0.1194   -0.7188 C   0  0  0  0  0  0  0  0  0  0  0  0
    2.7809    0.8177   -1.6502 C   0  0  0  0  0  0  0  0  0  0  0  0
    2.0818    1.4909   -2.1669 H   0  0  0  0  0  0  0  0  0  0  0  0
    4.1520    0.8701   -1.9304 C   0  0  0  0  0  0  0  0  0  0  0  0
    4.5278    1.5989   -2.6646 H   0  0  0  0  0  0  0  0  0  0  0  0
    5.0399   -0.0065   -1.2864 C   0  0  0  0  0  0  0  0  0  0  0  0
    6.1168    0.0351   -1.5084 H   0  0  0  0  0  0  0  0  0  0  0  0
    4.5425   -0.9479   -0.3706 C   0  0  0  0  0  0  0  0  0  0  0  0
    5.2281   -1.6470    0.1312 H   0  0  0  0  0  0  0  0  0  0  0  0
    3.1722   -1.0192   -0.0925 C   0  0  0  0  0  0  0  0  0  0  0  0
    2.7838   -1.7586    0.6224 H   0  0  0  0  0  0  0  0  0  0  0  0
    0.1822    0.8191   -0.1602 C   0  0  2  0  0  3  0  0  0  0  0  0
    0.7273    2.1526    0.2252 C   0  0  0  0  0  0  0  0  0  0  0  0
    1.6255    2.1944    1.3126 C   0  0  0  0  0  0  0  0  0  0  0  0
    1.8855    1.2538    1.8226 H   0  0  0  0  0  0  0  0  0  0  0  0
    2.1306    3.4268    1.7436 C   0  0  0  0  0  0  0  0  0  0  0  0
    2.8246    3.4612    2.5967 H   0  0  0  0  0  0  0  0  0  0  0  0
    1.7499    4.6147    1.0959 C   0  0  0  0  0  0  0  0  0  0  0  0
    2.1566    5.5798    1.4339 H   0  0  0  0  0  0  0  0  0  0  0  0
    0.8471    4.5741    0.0215 C   0  0  0  0  0  0  0  0  0  0  0  0
    0.5502    5.5038   -0.4867 H   0  0  0  0  0  0  0  0  0  0  0  0
    0.3273    3.3447   -0.4103 C   0  0  0  0  0  0  0  0  0  0  0  0
   -0.3661    3.3081   -1.2659 H   0  0  0  0  0  0  0  0  0  0  0  0
   -1.2095    0.7591   -0.0836 N   0  0  0  0  0  0  0  0  0  0  0  0
   -1.6394    1.6201    0.2590 H   0  0  0  0  0  0  0  0  0  0  0  0
   -2.0866   -0.2935   -0.2832 C   0  0  2  0  0  3  0  0  0  0  0  0
   -3.5199    0.0986   -0.3717 C   0  0  0  0  0  0  0  0  0  0  0  0
   -4.5012   -0.7321    0.2110 C   0  0  0  0  0  0  0  0  0  0  0  0
   -4.1917   -1.6340    0.7610 H   0  0  0  0  0  0  0  0  0  0  0  0
   -5.8560   -0.3892    0.1249 C   0  0  0  0  0  0  0  0  0  0  0  0
   -6.6130   -1.0357    0.5931 H   0  0  0  0  0  0  0  0  0  0  0  0
   -6.2456    0.7830   -0.5440 C   0  0  0  0  0  0  0  0  0  0  0  0
   -7.3109    1.0502   -0.6110 H   0  0  0  0  0  0  0  0  0  0  0  0
   -5.2752    1.6153   -1.1245 C   0  0  0  0  0  0  0  0  0  0  0  0
   -5.5783    2.5287   -1.6576 H   0  0  0  0  0  0  0  0  0  0  0  0
   -3.9176    1.2792   -1.0361 C   0  0  0  0  0  0  0  0  0  0  0  0
   -3.1619    1.9201   -1.5158 H   0  0  0  0  0  0  0  0  0  0  0  0
   -1.6676   -1.5182   -0.3728 N   0  0  0  0  0  2  0  0  0  0  0  0
   -2.4231   -2.1746   -0.6022 H   0  0  0  0  0  0  0  0  0  0  0  0
  2  1  1  0  0  0  0
  2 11  1  0  0  0  0
  3  2  2  0  0  0  0
  4  3  1  0  0  0  0
  5  3  1  0  0  0  0
  5  7  2  0  0  0  0
  6  5  1  0  0  0  0
  7  9  1  0  0  0  0
  8  7  1  0  0  0  0
  9 11  2  0  0  0  0
  9 10  1  0  0  0  0
 11 12  1  0  0  0  0
 13  1  1  1  0  0  0
 13 25  1  0  0  0  0
 13 14  1  0  0  0  0
 14 15  1  0  0  0  0
 15 17  2  0  0  0  0
 15 16  1  0  0  0  0
 17 18  1  0  0  0  0
 19 20  1  0  0  0  0
 19 17  1  0  0  0  0
 21 19  2  0  0  0  0
 22 21  1  0  0  0  0
 23 21  1  0  0  0  0
 23 14  2  0  0  0  0
 24 23  1  0  0  0  0
 25 26  1  0  0  0  0
 27 39  1  1  0  0  0
 27 25  1  0  0  0  0
 28 27  1  0  0  0  0
 28 29  1  0  0  0  0
 29 30  1  0  0  0  0
 31 29  2  0  0  0  0
 31 32  1  0  0  0  0
 33 31  1  0  0  0  0
 34 33  1  0  0  0  0
 35 37  1  0  0  0  0
 35 33  2  0  0  0  0
 36 35  1  0  0  0  0
 37 28  2  0  0  0  0
 38 37  1  0  0  0  0
 40 39  1  0  0  0  0
M  END
