1,4
 OpenBabel05122313053D

 18 19  0  0  0  0  0  0  0  0999 V2000
    1.1940   -1.1468   -1.3648 N   0  0  0  0  0  2  0  0  0  0  0  0
    3.1463   -2.1221   -1.7435 N   0  0  0  0  0  0  0  0  0  0  0  0
    4.1085   -2.4344   -1.6215 H   0  0  0  0  0  0  0  0  0  0  0  0
    1.5666   -0.2323    0.9742 N   0  0  0  0  0  2  0  0  0  0  0  0
    1.1575   -1.6793   -2.6284 C   0  0  0  0  0  0  0  0  0  0  0  0
    0.2748   -1.5578   -3.2644 H   0  0  0  0  0  0  0  0  0  0  0  0
    2.3753   -2.2945   -2.8799 C   0  0  0  0  0  0  0  0  0  0  0  0
    2.7524   -2.8217   -3.7612 H   0  0  0  0  0  0  0  0  0  0  0  0
    2.4041   -1.4128   -0.8374 C   0  0  0  0  0  0  0  0  0  0  0  0
    2.6553   -0.9384    0.4993 C   0  0  0  0  0  0  0  0  0  0  0  0
    3.8046   -1.1479    1.2808 C   0  0  0  0  0  0  0  0  0  0  0  0
    4.6549   -1.7117    0.8690 H   0  0  0  0  0  0  0  0  0  0  0  0
    3.8508   -0.6284    2.5779 C   0  0  0  0  0  0  0  0  0  0  0  0
    4.7418   -0.7728    3.2056 H   0  0  0  0  0  0  0  0  0  0  0  0
    2.7364    0.0857    3.0590 C   0  0  0  0  0  0  0  0  0  0  0  0
    2.7302    0.5195    4.0687 H   0  0  0  0  0  0  0  0  0  0  0  0
    1.6253    0.2597    2.2306 C   0  0  0  0  0  0  0  0  0  0  0  0
    0.7441    0.8299    2.5582 H   0  0  0  0  0  0  0  0  0  0  0  0
  1  9  1  0  0  0  0
  2  3  1  0  0  0  0
  2  9  1  0  0  0  0
  4 17  1  0  0  0  0
  5  1  1  0  0  0  0
  6  5  1  0  0  0  0
  7  5  2  0  0  0  0
  7  2  1  0  0  0  0
  8  7  1  0  0  0  0
  9 10  2  0  0  0  0
 10  4  1  0  0  0  0
 10 11  1  0  0  0  0
 11 13  2  0  0  0  0
 12 11  1  0  0  0  0
 13 15  1  0  0  0  0
 13 14  1  0  0  0  0
 15 16  1  0  0  0  0
 17 18  1  0  0  0  0
 17 15  2  0  0  0  0
M  END
