1,2
 OpenBabel05122313053D

 37 37  0  0  1  0  0  0  0  0999 V2000
   -0.6076    0.8519    0.7270 N   0  0  0  0  0  0  0  0  0  0  0  0
   -1.5169   -1.8912   -0.1144 N   0  0  0  0  0  0  0  0  0  0  0  0
   -0.0994    0.0907    1.8788 C   0  0  0  0  0  0  0  0  0  0  0  0
    0.2415   -1.3792    1.5614 C   0  0  0  0  0  0  0  0  0  0  0  0
   -0.9454   -2.2726    1.1889 C   0  0  0  0  0  0  0  0  0  0  0  0
    1.1749   -1.5501    0.4742 O   0  0  0  0  0  0  0  0  0  0  0  0
    2.3715   -0.8427    0.5476 C   0  0  1  0  0  0  0  0  0  0  0  0
    3.4145   -1.5129   -0.3507 C   0  0  1  0  0  0  0  0  0  0  0  0
    4.6837   -0.6619   -0.3422 C   0  0  2  0  0  0  0  0  0  0  0  0
    4.3923    0.7947   -0.7125 C   0  0  1  0  0  0  0  0  0  0  0  0
    3.2759    1.3362    0.1892 C   0  0  1  0  0  0  0  0  0  0  0  0
    2.8041    2.7418   -0.1685 C   0  0  0  0  0  0  0  0  0  0  0  0
    2.1391    0.4788    0.0844 O   0  0  0  0  0  0  0  0  0  0  0  0
    3.7723   -2.8055    0.1015 O   0  0  0  0  0  0  0  0  0  0  0  0
    5.6585   -1.1410   -1.2478 O   0  0  0  0  0  0  0  0  0  0  0  0
    5.5433    1.5949   -0.5521 O   0  0  0  0  0  0  0  0  0  0  0  0
    1.7671    3.1903    0.6868 O   0  0  0  0  0  0  0  0  0  0  0  0
    0.1821    0.9807    0.0697 H   0  0  0  0  0  0  0  0  0  0  0  0
   -0.9036    1.8091    0.9996 H   0  0  0  0  0  0  0  0  0  0  0  0
   -2.3477   -2.4592   -0.3790 H   0  0  0  0  0  0  0  0  0  0  0  0
   -0.8037   -2.0107   -0.8502 H   0  0  0  0  0  0  0  0  0  0  0  0
   -0.8715    0.0882    2.6740 H   0  0  0  0  0  0  0  0  0  0  0  0
    0.8052    0.5934    2.2844 H   0  0  0  0  0  0  0  0  0  0  0  0
    0.6940   -1.7981    2.4918 H   0  0  0  0  0  0  0  0  0  0  0  0
   -0.5902   -3.3269    1.1665 H   0  0  0  0  0  0  0  0  0  0  0  0
   -1.7355   -2.1852    1.9590 H   0  0  0  0  0  0  0  0  0  0  0  0
    2.7533   -0.8146    1.6039 H   0  0  0  0  0  0  0  0  0  0  0  0
    2.9971   -1.5304   -1.3862 H   0  0  0  0  0  0  0  0  0  0  0  0
    5.0804   -0.6657    0.7057 H   0  0  0  0  0  0  0  0  0  0  0  0
    4.0215    0.8083   -1.7687 H   0  0  0  0  0  0  0  0  0  0  0  0
    3.6529    1.3372    1.2443 H   0  0  0  0  0  0  0  0  0  0  0  0
    3.6900    3.4149   -0.1827 H   0  0  0  0  0  0  0  0  0  0  0  0
    2.3829    2.7191   -1.1956 H   0  0  0  0  0  0  0  0  0  0  0  0
    2.9720   -3.3592    0.0345 H   0  0  0  0  0  0  0  0  0  0  0  0
    5.8042   -2.0804   -1.0236 H   0  0  0  0  0  0  0  0  0  0  0  0
    6.2648    1.1091   -0.9989 H   0  0  0  0  0  0  0  0  0  0  0  0
    2.1740    3.4666    1.5278 H   0  0  0  0  0  0  0  0  0  0  0  0
  1 19  1  0  0  0  0
  1  3  1  0  0  0  0
  2  5  1  0  0  0  0
  3 23  1  0  0  0  0
  3 22  1  0  0  0  0
  4  3  1  0  0  0  0
  4 24  1  0  0  0  0
  5  4  1  0  0  0  0
  5 26  1  0  0  0  0
  6  7  1  0  0  0  0
  6  4  1  0  0  0  0
  7 27  1  1  0  0  0
  8 28  1  6  0  0  0
  8  9  1  0  0  0  0
  8 14  1  0  0  0  0
  8  7  1  0  0  0  0
  9 29  1  1  0  0  0
 10 30  1  6  0  0  0
 10 16  1  0  0  0  0
 10  9  1  0  0  0  0
 10 11  1  0  0  0  0
 11 31  1  1  0  0  0
 12 11  1  0  0  0  0
 12 17  1  0  0  0  0
 13 11  1  0  0  0  0
 13  7  1  0  0  0  0
 15 35  1  0  0  0  0
 15  9  1  0  0  0  0
 17 37  1  0  0  0  0
 18  1  1  0  0  0  0
 20  2  1  0  0  0  0
 21  2  1  0  0  0  0
 25  5  1  0  0  0  0
 32 12  1  0  0  0  0
 33 12  1  0  0  0  0
 34 14  1  0  0  0  0
 36 16  1  0  0  0  0
M  END
