1,4
 OpenBabel05122313053D

 37 41  0  0  1  0  0  0  0  0999 V2000
    2.2735    0.1840    0.0733 N   0  0  0  0  0  2  0  0  0  0  0  0
    3.4664    1.9162   -0.6916 N   0  0  0  0  0  0  0  0  0  0  0  0
    3.6756    2.8443   -1.0558 H   0  0  0  0  0  0  0  0  0  0  0  0
   -0.0918    1.3968    0.0308 N   0  0  0  0  0  2  0  0  0  0  0  0
    3.5688   -0.2566   -0.1489 C   0  0  0  0  0  0  0  0  0  0  0  0
   -3.7333    1.6081    0.3320 N   0  0  0  0  0  0  0  0  0  0  0  0
    4.1651   -1.5220    0.0150 C   0  0  0  0  0  0  0  0  0  0  0  0
    3.5864   -2.3768    0.3852 H   0  0  0  0  0  0  0  0  0  0  0  0
   -2.6076   -0.0565   -0.7151 N   0  0  0  0  0  0  0  0  0  0  0  0
   -1.7913   -0.5828   -1.1071 H   0  0  0  0  0  0  0  0  0  0  0  0
    6.2707   -0.5489   -0.8043 C   0  0  0  0  0  0  0  0  0  0  0  0
    7.3320   -0.6948   -1.0543 H   0  0  0  0  0  0  0  0  0  0  0  0
    5.5167   -1.6459   -0.3180 C   0  0  0  0  0  0  0  0  0  0  0  0
    6.0088   -2.6228   -0.2033 H   0  0  0  0  0  0  0  0  0  0  0  0
    4.3406    0.8413   -0.6423 C   0  0  0  0  0  0  0  0  0  0  0  0
    5.6973    0.7158   -0.9770 C   0  0  0  0  0  0  0  0  0  0  0  0
    6.2817    1.5658   -1.3576 H   0  0  0  0  0  0  0  0  0  0  0  0
   -3.9207   -0.4561   -0.6764 C   0  0  0  0  0  0  0  0  0  0  0  0
   -4.5739   -1.6118   -1.1396 C   0  0  0  0  0  0  0  0  0  0  0  0
   -4.0231   -2.4223   -1.6375 H   0  0  0  0  0  0  0  0  0  0  0  0
   -5.9530   -1.6785   -0.9216 C   0  0  0  0  0  0  0  0  0  0  0  0
   -6.5075   -2.5665   -1.2610 H   0  0  0  0  0  0  0  0  0  0  0  0
   -6.6602   -0.6333   -0.2668 C   0  0  0  0  0  0  0  0  0  0  0  0
   -7.7458   -0.7378   -0.1201 H   0  0  0  0  0  0  0  0  0  0  0  0
   -6.0109    0.5126    0.1956 C   0  0  0  0  0  0  0  0  0  0  0  0
   -6.5512    1.3218    0.7074 H   0  0  0  0  0  0  0  0  0  0  0  0
   -4.6167    0.6089   -0.0101 C   0  0  0  0  0  0  0  0  0  0  0  0
   -2.5437    1.1660   -0.0802 C   0  0  0  0  0  0  0  0  0  0  0  0
   -1.3238    1.9727   -0.0121 C   0  0  2  0  0  3  0  0  0  0  0  0
   -1.4838    3.3782   -0.0733 C   0  0  0  0  0  0  0  0  0  0  0  0
   -2.5114    3.7654   -0.0411 H   0  0  0  0  0  0  0  0  0  0  0  0
   -0.3672    4.2004   -0.2097 C   0  0  0  0  0  0  0  0  0  0  0  0
   -0.4762    5.2933   -0.2631 H   0  0  0  0  0  0  0  0  0  0  0  0
    0.8957    3.6006   -0.3196 C   0  0  0  0  0  0  0  0  0  0  0  0
    1.7993    4.2089   -0.4691 H   0  0  0  0  0  0  0  0  0  0  0  0
    0.9897    2.2071   -0.1909 C   0  0  0  0  0  0  0  0  0  0  0  0
    2.2387    1.4744   -0.2647 C   0  0  1  0  0  3  0  0  0  0  0  0
  2 15  1  0  0  0  0
  2 37  1  0  0  0  0
  3  2  1  0  0  0  0
  5  7  1  0  0  0  0
  5  1  1  0  0  0  0
  7  8  1  0  0  0  0
  9 18  1  0  0  0  0
  9 28  1  0  0  0  0
 10  9  1  0  0  0  0
 11 13  1  0  0  0  0
 12 11  1  0  0  0  0
 13 14  1  0  0  0  0
 13  7  2  0  0  0  0
 15  5  2  0  0  0  0
 16 11  2  0  0  0  0
 16 15  1  0  0  0  0
 17 16  1  0  0  0  0
 18 27  1  0  0  0  0
 19 21  1  0  0  0  0
 19 18  2  0  0  0  0
 20 19  1  0  0  0  0
 21 23  2  0  0  0  0
 22 21  1  0  0  0  0
 23 24  1  0  0  0  0
 23 25  1  0  0  0  0
 25 26  1  0  0  0  0
 27 25  2  0  0  0  0
 27  6  1  0  0  0  0
 28  6  2  0  0  0  0
 29 28  1  6  0  0  0
 29  4  1  0  0  0  0
 30 31  1  0  0  0  0
 30 29  1  0  0  0  0
 32 30  2  0  0  0  0
 33 32  1  0  0  0  0
 34 32  1  0  0  0  0
 34 36  2  0  0  0  0
 35 34  1  0  0  0  0
 36  4  1  0  0  0  0
 37 36  1  6  0  0  0
 37  1  1  0  0  0  0
M  END
