1,2
 OpenBabel05122313053D

 42 44  0  0  1  0  0  0  0  0999 V2000
    0.6820    1.5059   -0.3303 N   0  0  0  0  0  2  0  0  0  0  0  0
    0.8078   -1.3410   -0.3872 N   0  0  0  0  0  2  0  0  0  0  0  0
   -0.6433    1.3188   -0.1970 C   0  0  0  0  0  0  0  0  0  0  0  0
   -1.2687   -0.0086   -0.1227 C   0  0  0  0  0  0  0  0  0  0  0  0
   -0.5329   -1.2698   -0.2827 C   0  0  0  0  0  0  0  0  0  0  0  0
    1.4731   -2.6169   -0.6913 C   0  0  0  0  0  0  0  0  0  0  0  0
    2.7401   -2.3502   -1.5136 C   0  0  0  0  0  0  0  0  0  0  0  0
    2.4983   -1.7677   -2.4252 H   0  0  0  0  0  0  0  0  0  0  0  0
    3.2115   -3.3040   -1.8252 H   0  0  0  0  0  0  0  0  0  0  0  0
    3.4891   -1.7804   -0.9253 H   0  0  0  0  0  0  0  0  0  0  0  0
    1.7852   -3.3981    0.5934 C   0  0  0  0  0  0  0  0  0  0  0  0
    2.4439   -2.7980    1.2529 H   0  0  0  0  0  0  0  0  0  0  0  0
    2.3033   -4.3518    0.3655 H   0  0  0  0  0  0  0  0  0  0  0  0
    0.8612   -3.6294    1.1596 H   0  0  0  0  0  0  0  0  0  0  0  0
   -1.3142   -2.4955   -0.3169 C   0  0  0  0  0  0  0  0  0  0  0  0
   -2.6673   -2.5283   -0.1287 C   0  0  0  0  0  0  0  0  0  0  0  0
   -3.2004   -3.4925   -0.1216 H   0  0  0  0  0  0  0  0  0  0  0  0
   -3.4129   -1.3280    0.0691 C   0  0  0  0  0  0  0  0  0  0  0  0
   -4.8115   -1.3752    0.2614 C   0  0  0  0  0  0  0  0  0  0  0  0
   -5.3014   -2.3615    0.2761 H   0  0  0  0  0  0  0  0  0  0  0  0
   -5.5657   -0.2085    0.4210 C   0  0  0  0  0  0  0  0  0  0  0  0
   -6.6539   -0.2596    0.5717 H   0  0  0  0  0  0  0  0  0  0  0  0
   -4.9093    1.0255    0.3689 C   0  0  0  0  0  0  0  0  0  0  0  0
   -5.4779    1.9633    0.4707 H   0  0  0  0  0  0  0  0  0  0  0  0
   -3.5128    1.1099    0.1762 C   0  0  0  0  0  0  0  0  0  0  0  0
   -2.7032   -0.0745    0.0447 C   0  0  2  0  0  3  0  0  0  0  0  0
   -2.8688    2.3807    0.0892 C   0  0  0  0  0  0  0  0  0  0  0  0
   -3.4777    3.2931    0.1918 H   0  0  0  0  0  0  0  0  0  0  0  0
   -1.5207    2.4755   -0.1110 C   0  0  0  0  0  0  0  0  0  0  0  0
    1.2345    2.8444   -0.5833 C   0  0  0  0  0  0  0  0  0  0  0  0
    1.5816    3.5571    0.7319 C   0  0  0  0  0  0  0  0  0  0  0  0
    0.6866    3.6771    1.3743 H   0  0  0  0  0  0  0  0  0  0  0  0
    2.0130    4.5608    0.5414 H   0  0  0  0  0  0  0  0  0  0  0  0
    2.3268    2.9625    1.2987 H   0  0  0  0  0  0  0  0  0  0  0  0
    2.4571    2.7290   -1.5032 C   0  0  0  0  0  0  0  0  0  0  0  0
    3.2929    2.1982   -1.0027 H   0  0  0  0  0  0  0  0  0  0  0  0
    2.8240    3.7352   -1.7900 H   0  0  0  0  0  0  0  0  0  0  0  0
    2.1974    2.1767   -2.4283 H   0  0  0  0  0  0  0  0  0  0  0  0
   -1.0745    3.4749   -0.1523 H   0  0  0  0  0  0  0  0  0  0  0  0
   -0.7900   -3.4481   -0.4469 H   0  0  0  0  0  0  0  0  0  0  0  0
    0.4899    3.4580   -1.1362 H   0  0  0  0  0  0  0  0  0  0  0  0
    0.8122   -3.2378   -1.3352 H   0  0  0  0  0  0  0  0  0  0  0  0
  1  3  1  0  0  0  0
  2  5  1  0  0  0  0
  3  4  2  0  0  0  0
  3 29  1  0  0  0  0
  5  4  1  0  0  0  0
  6  2  1  0  0  0  0
  6 11  1  0  0  0  0
  7 10  1  0  0  0  0
  7  6  1  0  0  0  0
  8  7  1  0  0  0  0
  9  7  1  0  0  0  0
 11 14  1  0  0  0  0
 11 12  1  0  0  0  0
 13 11  1  0  0  0  0
 15  5  2  0  0  0  0
 15 16  1  0  0  0  0
 16 17  1  0  0  0  0
 16 18  2  0  0  0  0
 18 19  1  0  0  0  0
 19 20  1  0  0  0  0
 19 21  2  0  0  0  0
 21 22  1  0  0  0  0
 23 21  1  0  0  0  0
 23 24  1  0  0  0  0
 25 23  2  0  0  0  0
 26  4  1  6  0  0  0
 26 18  1  0  0  0  0
 26 25  1  0  0  0  0
 27 25  1  0  0  0  0
 27 28  1  0  0  0  0
 29 27  2  0  0  0  0
 30  1  1  0  0  0  0
 30 31  1  0  0  0  0
 31 34  1  0  0  0  0
 31 32  1  0  0  0  0
 33 31  1  0  0  0  0
 35 36  1  0  0  0  0
 35 30  1  0  0  0  0
 37 35  1  0  0  0  0
 38 35  1  0  0  0  0
 39 29  1  0  0  0  0
 40 15  1  0  0  0  0
 41 30  1  0  0  0  0
 42  6  1  0  0  0  0
M  END
