1,2
 OpenBabel05122313053D

 43 46  0  0  0  0  0  0  0  0999 V2000
   -3.4643    1.4709   -0.5584 N   0  0  0  0  0  2  0  0  0  0  0  0
   -1.6741   -0.3151   -1.0438 N   0  0  0  0  0  2  0  0  0  0  0  0
    3.9560   -2.7871   -0.4547 N   0  0  0  0  0  0  0  0  0  0  0  0
    5.0373   -2.3604    0.1343 N   0  0  0  0  0  0  0  0  0  0  0  0
    4.7340   -1.1883    0.7500 N   0  0  0  0  0  0  0  0  0  0  0  0
    2.9306   -1.8959   -0.2419 C   0  0  0  0  0  0  0  0  0  0  0  0
    3.4329   -0.8513    0.5379 C   0  0  0  0  0  0  0  0  0  0  0  0
    2.9826    0.0535    0.9568 H   0  0  0  0  0  0  0  0  0  0  0  0
   -4.4489    2.3512   -0.2902 C   0  0  0  0  0  3  0  0  0  0  0  0
   -5.2178    2.0236    0.4242 H   0  0  0  0  0  0  0  0  0  0  0  0
   -4.4989    3.6258   -0.8667 C   0  0  0  0  0  0  0  0  0  0  0  0
   -5.3247    4.3023   -0.6055 H   0  0  0  0  0  0  0  0  0  0  0  0
   -3.4903    4.0167   -1.7632 C   0  0  0  0  0  0  0  0  0  0  0  0
   -3.5047    5.0136   -2.2274 H   0  0  0  0  0  0  0  0  0  0  0  0
   -2.4666    3.1102   -2.0512 C   0  0  0  0  0  0  0  0  0  0  0  0
   -1.6519    3.3635   -2.7447 H   0  0  0  0  0  0  0  0  0  0  0  0
   -2.4789    1.8461   -1.4332 C   0  0  0  0  0  0  0  0  0  0  0  0
   -1.4881    0.8190   -1.6619 C   0  0  0  0  0  3  0  0  0  0  0  0
   -0.6294    0.9808   -2.3374 H   0  0  0  0  0  0  0  0  0  0  0  0
   -0.7007   -1.3434   -1.1588 C   0  0  0  0  0  0  0  0  0  0  0  0
   -1.0605   -2.6038   -1.6730 C   0  0  0  0  0  0  0  0  0  0  0  0
   -2.0934   -2.7818   -2.0044 H   0  0  0  0  0  0  0  0  0  0  0  0
   -0.0799   -3.6000   -1.7676 C   0  0  0  0  0  0  0  0  0  0  0  0
   -0.3451   -4.5815   -2.1883 H   0  0  0  0  0  0  0  0  0  0  0  0
    1.2276   -3.3666   -1.3192 C   0  0  0  0  0  0  0  0  0  0  0  0
    1.9968   -4.1498   -1.3710 H   0  0  0  0  0  0  0  0  0  0  0  0
    1.5779   -2.1170   -0.7633 C   0  0  0  0  0  0  0  0  0  0  0  0
    0.6049   -1.0986   -0.7028 C   0  0  0  0  0  0  0  0  0  0  0  0
    0.8246   -0.1212   -0.2504 H   0  0  0  0  0  0  0  0  0  0  0  0
    5.7731   -0.4363    1.4404 C   0  0  0  0  0  0  0  0  0  0  0  0
    6.6016   -1.1590    1.5828 H   0  0  0  0  0  0  0  0  0  0  0  0
    5.4005   -0.1426    2.4418 H   0  0  0  0  0  0  0  0  0  0  0  0
    6.2344    0.7784    0.6595 C   0  0  0  0  0  0  0  0  0  0  0  0
    6.6240    0.6420   -0.6881 C   0  0  0  0  0  0  0  0  0  0  0  0
    6.5759   -0.3495   -1.1658 H   0  0  0  0  0  0  0  0  0  0  0  0
    7.0630    1.7580   -1.4126 C   0  0  0  0  0  0  0  0  0  0  0  0
    7.3654    1.6417   -2.4644 H   0  0  0  0  0  0  0  0  0  0  0  0
    7.1202    3.0213   -0.7992 C   0  0  0  0  0  0  0  0  0  0  0  0
    7.4662    3.8966   -1.3695 H   0  0  0  0  0  0  0  0  0  0  0  0
    6.7331    3.1632    0.5415 C   0  0  0  0  0  0  0  0  0  0  0  0
    6.7716    4.1501    1.0270 H   0  0  0  0  0  0  0  0  0  0  0  0
    6.2884    2.0457    1.2663 C   0  0  0  0  0  0  0  0  0  0  0  0
    5.9793    2.1598    2.3178 H   0  0  0  0  0  0  0  0  0  0  0  0
  1  9  1  0  0  0  0
  3  6  1  0  0  0  0
  3  4  2  0  0  0  0
  4  5  1  0  0  0  0
  5 30  1  0  0  0  0
  6  7  2  0  0  0  0
  7  5  1  0  0  0  0
  7  8  1  0  0  0  0
  9 10  1  0  0  0  0
 11 12  1  0  0  0  0
 11  9  1  0  0  0  0
 13 11  2  0  0  0  0
 14 13  1  0  0  0  0
 15 13  1  0  0  0  0
 15 17  2  0  0  0  0
 16 15  1  0  0  0  0
 17  1  1  0  0  0  0
 18 17  1  0  0  0  0
 18  2  1  0  0  0  0
 19 18  1  0  0  0  0
 20  2  1  0  0  0  0
 20 28  1  0  0  0  0
 21 20  2  0  0  0  0
 22 21  1  0  0  0  0
 23 21  1  0  0  0  0
 23 25  2  0  0  0  0
 24 23  1  0  0  0  0
 25 27  1  0  0  0  0
 26 25  1  0  0  0  0
 27 28  2  0  0  0  0
 27  6  1  0  0  0  0
 28 29  1  0  0  0  0
 30 31  1  0  0  0  0
 30 32  1  0  0  0  0
 33 42  1  0  0  0  0
 33 30  1  0  0  0  0
 34 33  2  0  0  0  0
 35 34  1  0  0  0  0
 36 38  2  0  0  0  0
 36 34  1  0  0  0  0
 37 36  1  0  0  0  0
 38 40  1  0  0  0  0
 39 38  1  0  0  0  0
 40 41  1  0  0  0  0
 40 42  2  0  0  0  0
 42 43  1  0  0  0  0
M  END
