1,2
 OpenBabel05122313053D

 39 42  0  0  0  0  0  0  0  0999 V2000
   -0.3885    0.4389    1.3279 N   0  0  0  0  0  2  0  0  0  0  0  0
   -2.8543    0.6455    0.2439 N   0  0  0  0  0  2  0  0  0  0  0  0
    2.3114    2.9502    0.3921 C   0  0  0  0  0  0  0  0  0  0  0  0
    1.3084    3.1709    0.7871 H   0  0  0  0  0  0  0  0  0  0  0  0
    3.0687    3.9660   -0.1617 C   0  0  0  0  0  0  0  0  0  0  0  0
    2.6756    4.9935   -0.1815 H   0  0  0  0  0  0  0  0  0  0  0  0
    4.3488    3.6909   -0.7283 C   0  0  0  0  0  0  0  0  0  0  0  0
    4.9348    4.5092   -1.1726 H   0  0  0  0  0  0  0  0  0  0  0  0
    4.8410    2.4001   -0.7332 C   0  0  0  0  0  0  0  0  0  0  0  0
    5.8203    2.1746   -1.1831 H   0  0  0  0  0  0  0  0  0  0  0  0
    4.3202   -2.4090    0.3520 C   0  0  0  0  0  0  0  0  0  0  0  0
    5.2998   -2.5948   -0.1149 H   0  0  0  0  0  0  0  0  0  0  0  0
    3.5883   -3.4455    0.8941 C   0  0  0  0  0  0  0  0  0  0  0  0
    3.9756   -4.4748    0.8605 H   0  0  0  0  0  0  0  0  0  0  0  0
    2.3199   -3.1858    1.4923 C   0  0  0  0  0  0  0  0  0  0  0  0
    1.7276   -4.0175    1.9022 H   0  0  0  0  0  0  0  0  0  0  0  0
    1.8062   -1.9045    1.5421 C   0  0  0  0  0  0  0  0  0  0  0  0
    0.8015   -1.7524    1.9592 H   0  0  0  0  0  0  0  0  0  0  0  0
    2.0394    0.5370    0.9850 C   0  0  0  0  0  0  0  0  0  0  0  0
    4.5656   -0.0023   -0.1707 C   0  0  0  0  0  0  0  0  0  0  0  0
    5.5473   -0.2148   -0.6233 H   0  0  0  0  0  0  0  0  0  0  0  0
    0.7849    0.8538    1.6860 C   0  0  0  0  0  3  0  0  0  0  0  0
    0.8623    1.4785    2.6050 H   0  0  0  0  0  0  0  0  0  0  0  0
   -1.5023    0.6544    2.2517 C   0  0  0  0  0  0  0  0  0  0  0  0
   -1.2421    1.3556    3.0727 H   0  0  0  0  0  0  0  0  0  0  0  0
   -1.7218   -0.3549    2.6796 H   0  0  0  0  0  0  0  0  0  0  0  0
   -3.9790    0.9222   -0.4534 C   0  0  0  0  0  3  0  0  0  0  0  0
   -4.0137    0.5430   -1.4848 H   0  0  0  0  0  0  0  0  0  0  0  0
   -5.0403    1.6453    0.0963 C   0  0  0  0  0  0  0  0  0  0  0  0
   -5.9355    1.8415   -0.5101 H   0  0  0  0  0  0  0  0  0  0  0  0
   -4.9321    2.1087    1.4160 C   0  0  0  0  0  0  0  0  0  0  0  0
   -5.7455    2.6880    1.8774 H   0  0  0  0  0  0  0  0  0  0  0  0
   -3.7667    1.8222    2.1372 C   0  0  0  0  0  0  0  0  0  0  0  0
   -3.6405    2.1650    3.1744 H   0  0  0  0  0  0  0  0  0  0  0  0
   -2.7474    1.0794    1.5241 C   0  0  0  0  0  0  0  0  0  0  0  0
    4.0901    1.3221   -0.1631 C   0  0  0  0  0  0  0  0  0  0  0  0
    3.8240   -1.0650    0.3760 C   0  0  0  0  0  0  0  0  0  0  0  0
    2.5282   -0.8016    0.9787 C   0  0  0  0  0  0  0  0  0  0  0  0
    2.7959    1.6031    0.4270 C   0  0  0  0  0  0  0  0  0  0  0  0
  1 22  1  0  0  0  0
  1 24  1  0  0  0  0
  2 35  1  0  0  0  0
  3 39  1  0  0  0  0
  3  4  1  0  0  0  0
  5  3  2  0  0  0  0
  6  5  1  0  0  0  0
  7  5  1  0  0  0  0
  8  7  1  0  0  0  0
  9  7  2  0  0  0  0
  9 36  1  0  0  0  0
 10  9  1  0  0  0  0
 11 37  2  0  0  0  0
 11 13  1  0  0  0  0
 12 11  1  0  0  0  0
 13 15  2  0  0  0  0
 14 13  1  0  0  0  0
 15 17  1  0  0  0  0
 15 16  1  0  0  0  0
 17 18  1  0  0  0  0
 19 22  1  0  0  0  0
 20 36  2  0  0  0  0
 20 37  1  0  0  0  0
 21 20  1  0  0  0  0
 22 23  1  0  0  0  0
 24 26  1  0  0  0  0
 24 25  1  0  0  0  0
 27 29  1  0  0  0  0
 27  2  1  0  0  0  0
 28 27  1  0  0  0  0
 29 31  2  0  0  0  0
 30 29  1  0  0  0  0
 31 32  1  0  0  0  0
 31 33  1  0  0  0  0
 33 34  1  0  0  0  0
 35 33  2  0  0  0  0
 35 24  1  0  0  0  0
 36 39  1  0  0  0  0
 37 38  1  0  0  0  0
 38 19  1  0  0  0  0
 38 17  2  0  0  0  0
 39 19  2  0  0  0  0
M  END
