2,4
 OpenBabel05122313053D

 32 33  0  0  0  0  0  0  0  0999 V2000
    5.6035    0.4166   -0.0874 O   0  0  0  0  0  1  0  0  0  0  0  0
    2.2430   -0.5754    0.0004 N   0  0  0  0  0  2  0  0  0  0  0  0
    4.4581   -0.0713    0.1670 N   0  0  0  0  0  0  0  0  0  0  0  0
    1.6214    1.4625   -1.4706 N   0  0  0  0  0  2  0  0  0  0  0  0
    3.2564    0.2553   -0.3516 C   0  0  0  0  0  0  0  0  0  0  0  0
    2.7152   -1.3679    1.1644 C   0  0  0  0  0  0  0  0  0  0  0  0
    4.2819   -1.3882    0.9051 C   0  0  0  0  0  0  0  0  0  0  0  0
    2.0882   -2.7650    1.1631 C   0  0  0  0  0  0  0  0  0  0  0  0
    2.5709   -3.4154    1.9207 H   0  0  0  0  0  0  0  0  0  0  0  0
    2.1668   -3.2413    0.1693 H   0  0  0  0  0  0  0  0  0  0  0  0
    1.0119   -2.6902    1.4043 H   0  0  0  0  0  0  0  0  0  0  0  0
    2.3792   -0.6436    2.4818 C   0  0  0  0  0  0  0  0  0  0  0  0
    1.2832   -0.5840    2.6045 H   0  0  0  0  0  0  0  0  0  0  0  0
    2.7820    0.3882    2.4981 H   0  0  0  0  0  0  0  0  0  0  0  0
    2.7811   -1.1964    3.3533 H   0  0  0  0  0  0  0  0  0  0  0  0
    4.7071   -2.4708   -0.0993 C   0  0  0  0  0  0  0  0  0  0  0  0
    4.7028   -3.4728    0.3705 H   0  0  0  0  0  0  0  0  0  0  0  0
    5.7349   -2.2421   -0.4436 H   0  0  0  0  0  0  0  0  0  0  0  0
    4.0327   -2.4876   -0.9774 H   0  0  0  0  0  0  0  0  0  0  0  0
    5.1854   -1.4030    2.1301 C   0  0  0  0  0  0  0  0  0  0  0  0
    6.2366   -1.3034    1.7976 H   0  0  0  0  0  0  0  0  0  0  0  0
    5.0754   -2.3583    2.6800 H   0  0  0  0  0  0  0  0  0  0  0  0
    4.9707   -0.5663    2.8197 H   0  0  0  0  0  0  0  0  0  0  0  0
    2.9674    1.3339   -1.2615 C   0  0  0  0  0  0  0  0  0  0  0  0
    3.8955    2.1832   -1.8925 C   0  0  0  0  0  0  0  0  0  0  0  0
    4.9605    2.0282   -1.6706 H   0  0  0  0  0  0  0  0  0  0  0  0
    3.4092    3.1688   -2.7562 C   0  0  0  0  0  0  0  0  0  0  0  0
    4.1074    3.8481   -3.2677 H   0  0  0  0  0  0  0  0  0  0  0  0
    2.0216    3.2882   -2.9624 C   0  0  0  0  0  0  0  0  0  0  0  0
    1.6049    4.0588   -3.6258 H   0  0  0  0  0  0  0  0  0  0  0  0
    1.1555    2.4143   -2.2949 C   0  0  0  0  0  0  0  0  0  0  0  0
    0.0611    2.4728   -2.3869 H   0  0  0  0  0  0  0  0  0  0  0  0
  1  3  1  0  0  0  0
  2  6  1  0  0  0  0
  3  7  1  0  0  0  0
  4 24  1  0  0  0  0
  5  2  1  0  0  0  0
  5  3  1  0  0  0  0
  6 12  1  0  0  0  0
  7  6  1  0  0  0  0
  7 20  1  0  0  0  0
  8  6  1  0  0  0  0
  8 11  1  0  0  0  0
  8  9  1  0  0  0  0
 10  8  1  0  0  0  0
 12 14  1  0  0  0  0
 12 13  1  0  0  0  0
 12 15  1  0  0  0  0
 16 17  1  0  0  0  0
 16  7  1  0  0  0  0
 18 16  1  0  0  0  0
 19 16  1  0  0  0  0
 20 22  1  0  0  0  0
 20 23  1  0  0  0  0
 21 20  1  0  0  0  0
 24  5  2  0  0  0  0
 25 26  1  0  0  0  0
 25 24  1  0  0  0  0
 27 25  2  0  0  0  0
 28 27  1  0  0  0  0
 29 27  1  0  0  0  0
 29 31  2  0  0  0  0
 30 29  1  0  0  0  0
 31  4  1  0  0  0  0
 32 31  1  0  0  0  0
M  END
