1,3
 OpenBabel05122313053D

 39 42  0  0  1  0  0  0  0  0999 V2000
   -0.7458   -1.7467   -0.5168 N   0  0  0  0  0  2  0  0  0  0  0  0
   -0.6436   -4.0823   -1.0051 N   0  0  0  0  0  0  0  0  0  0  0  0
   -1.8223    0.5587   -0.3496 N   0  0  0  0  0  2  0  0  0  0  0  0
   -2.5203    1.7066   -0.2753 N   0  0  0  0  0  0  0  0  0  0  0  0
   -3.9581    0.0151   -0.3897 N   0  0  0  0  0  0  0  0  0  0  0  0
   -0.0797   -2.9012   -0.7375 C   0  0  0  0  0  3  0  0  0  0  0  0
    1.0179   -2.8443   -0.6560 H   0  0  0  0  0  0  0  0  0  0  0  0
   -1.9865   -4.1267   -1.0570 C   0  0  0  0  0  0  0  0  0  0  0  0
   -2.4452   -5.1081   -1.2691 H   0  0  0  0  0  0  0  0  0  0  0  0
   -2.7868   -2.9962   -0.8597 C   0  0  0  0  0  0  0  0  0  0  0  0
   -3.8817   -3.0413   -0.9147 H   0  0  0  0  0  0  0  0  0  0  0  0
   -2.1168   -1.7918   -0.5952 C   0  0  0  0  0  0  0  0  0  0  0  0
   -2.6759   -0.4729   -0.4342 C   0  0  1  0  0  3  0  0  0  0  0  0
   -3.8193    1.3937   -0.2869 C   0  0  0  0  0  0  0  0  0  0  0  0
   -4.8930    2.3887   -0.2111 C   0  0  0  0  0  0  0  0  0  0  0  0
   -4.6070    3.6985   -0.6646 C   0  0  0  0  0  0  0  0  0  0  0  0
   -3.6091    3.9109   -1.0737 H   0  0  0  0  0  0  0  0  0  0  0  0
   -5.5820    4.6989   -0.5937 C   0  0  0  0  0  0  0  0  0  0  0  0
   -5.3482    5.7122   -0.9532 H   0  0  0  0  0  0  0  0  0  0  0  0
   -6.8531    4.4116   -0.0689 C   0  0  0  0  0  0  0  0  0  0  0  0
   -7.6198    5.1992   -0.0151 H   0  0  0  0  0  0  0  0  0  0  0  0
   -7.1390    3.1179    0.3944 C   0  0  0  0  0  0  0  0  0  0  0  0
   -8.1265    2.8907    0.8231 H   0  0  0  0  0  0  0  0  0  0  0  0
   -6.1693    2.1088    0.3287 C   0  0  0  0  0  0  0  0  0  0  0  0
   -6.4004    1.1107    0.7221 H   0  0  0  0  0  0  0  0  0  0  0  0
   -5.1480   -0.7835   -0.3368 C   0  0  0  0  0  0  0  0  0  0  0  0
   -6.0155   -0.8300   -1.4370 C   0  0  0  0  0  0  0  0  0  0  0  0
   -5.7854   -0.2483   -2.3411 H   0  0  0  0  0  0  0  0  0  0  0  0
   -7.1706   -1.6207   -1.3599 C   0  0  0  0  0  0  0  0  0  0  0  0
   -7.8559   -1.6587   -2.2206 H   0  0  0  0  0  0  0  0  0  0  0  0
   -7.4678   -2.3715   -0.2038 C   0  0  0  0  0  0  0  0  0  0  0  0
   -6.5674   -2.3084    0.8834 C   0  0  0  0  0  0  0  0  0  0  0  0
   -6.7762   -2.8888    1.7959 H   0  0  0  0  0  0  0  0  0  0  0  0
   -5.4126   -1.5197    0.8317 C   0  0  0  0  0  0  0  0  0  0  0  0
   -4.7063   -1.4642    1.6813 H   0  0  0  0  0  0  0  0  0  0  0  0
   -8.7146   -3.2136   -0.1171 C   0  0  0  0  0  0  0  0  0  0  0  0
   -9.2514   -3.2546   -1.0839 H   0  0  0  0  0  0  0  0  0  0  0  0
   -9.4156   -2.8076    0.6423 H   0  0  0  0  0  0  0  0  0  0  0  0
   -8.4781   -4.2525    0.1909 H   0  0  0  0  0  0  0  0  0  0  0  0
  2  6  1  0  0  0  0
  3  4  1  0  0  0  0
  5 26  1  0  0  0  0
  5 14  1  0  0  0  0
  6  7  1  0  0  0  0
  6  1  1  0  0  0  0
  8  2  2  0  0  0  0
  8 10  1  0  0  0  0
  9  8  1  0  0  0  0
 10 12  2  0  0  0  0
 11 10  1  0  0  0  0
 12  1  1  0  0  0  0
 13 12  1  6  0  0  0
 13  5  1  0  0  0  0
 13  3  1  0  0  0  0
 14  4  2  0  0  0  0
 14 15  1  0  0  0  0
 15 24  1  0  0  0  0
 16 18  1  0  0  0  0
 16 15  2  0  0  0  0
 17 16  1  0  0  0  0
 18 20  2  0  0  0  0
 19 18  1  0  0  0  0
 20 21  1  0  0  0  0
 20 22  1  0  0  0  0
 22 23  1  0  0  0  0
 24 22  2  0  0  0  0
 24 25  1  0  0  0  0
 26 34  1  0  0  0  0
 27 29  1  0  0  0  0
 27 26  2  0  0  0  0
 28 27  1  0  0  0  0
 29 31  2  0  0  0  0
 30 29  1  0  0  0  0
 31 36  1  0  0  0  0
 31 32  1  0  0  0  0
 32 33  1  0  0  0  0
 34 32  2  0  0  0  0
 34 35  1  0  0  0  0
 36 39  1  0  0  0  0
 36 38  1  0  0  0  0
 37 36  1  0  0  0  0
M  END
