1,3
 OpenBabel05122313053D

 72 76  0  0  1  0  0  0  0  0999 V2000
    0.9063   -3.0716   -0.6622 N   0  0  0  0  0  2  0  0  0  0  0  0
   -0.3980   -2.7012   -0.7873 N   0  0  0  0  0  0  0  0  0  0  0  0
    0.7302   -1.3414    1.5166 N   0  0  0  0  0  2  0  0  0  0  0  0
   -0.5399   -1.1945    1.0485 N   0  0  0  0  0  0  0  0  0  0  0  0
    0.9980   -4.3525   -1.0718 C   0  0  2  0  0  3  0  0  0  0  0  0
   -0.2876   -4.7916   -1.4838 C   0  0  0  0  0  0  0  0  0  0  0  0
   -0.5439   -5.7800   -1.8783 H   0  0  0  0  0  0  0  0  0  0  0  0
   -1.1623   -3.7242   -1.2865 C   0  0  0  0  0  0  0  0  0  0  0  0
    2.2787   -5.1139   -1.0222 C   0  0  0  0  0  0  0  0  0  0  0  0
    2.5427   -5.3642    0.0264 H   0  0  0  0  0  0  0  0  0  0  0  0
    3.1021   -4.4902   -1.4253 H   0  0  0  0  0  0  0  0  0  0  0  0
    2.1918   -6.0556   -1.5947 H   0  0  0  0  0  0  0  0  0  0  0  0
   -2.6292   -3.5936   -1.5341 C   0  0  0  0  0  0  0  0  0  0  0  0
   -3.1948   -3.3692   -0.6049 H   0  0  0  0  0  0  0  0  0  0  0  0
   -3.0213   -4.5428   -1.9425 H   0  0  0  0  0  0  0  0  0  0  0  0
   -2.8624   -2.7910   -2.2648 H   0  0  0  0  0  0  0  0  0  0  0  0
    0.6858   -1.1703    2.8532 C   0  0  1  0  0  3  0  0  0  0  0  0
   -0.6501   -0.8810    3.2287 C   0  0  0  0  0  0  0  0  0  0  0  0
   -1.0149   -0.6793    4.2407 H   0  0  0  0  0  0  0  0  0  0  0  0
   -1.4148   -0.9032    2.0634 C   0  0  0  0  0  0  0  0  0  0  0  0
    1.8877   -1.3269    3.7218 C   0  0  0  0  0  0  0  0  0  0  0  0
    2.2546   -2.3737    3.6954 H   0  0  0  0  0  0  0  0  0  0  0  0
    1.6440   -1.0646    4.7675 H   0  0  0  0  0  0  0  0  0  0  0  0
    2.7139   -0.6897    3.3485 H   0  0  0  0  0  0  0  0  0  0  0  0
   -2.8646   -0.6441    1.8411 C   0  0  0  0  0  0  0  0  0  0  0  0
   -3.0242    0.2293    1.1763 H   0  0  0  0  0  0  0  0  0  0  0  0
   -3.3571   -0.4301    2.8064 H   0  0  0  0  0  0  0  0  0  0  0  0
   -3.3927   -1.5076    1.3847 H   0  0  0  0  0  0  0  0  0  0  0  0
   -0.8298   -1.3738   -0.3694 C   0  0  1  0  0  0  0  0  0  0  0  0
   -1.9322   -1.3700   -0.4429 H   0  0  0  0  0  0  0  0  0  0  0  0
   -0.2784   -0.2466   -1.2727 C   0  0  0  0  0  0  0  0  0  0  0  0
    0.8278   -0.3320   -1.3226 H   0  0  0  0  0  0  0  0  0  0  0  0
   -0.6767   -0.4295   -2.2918 H   0  0  0  0  0  0  0  0  0  0  0  0
   -0.6984    1.0974   -0.7343 C   0  0  0  0  0  0  0  0  0  0  0  0
    0.1884    1.8148    0.0804 C   0  0  0  0  0  0  0  0  0  0  0  0
    1.2034    1.4259    0.2425 H   0  0  0  0  0  0  0  0  0  0  0  0
   -0.2531    3.0057    0.6987 C   0  0  0  0  0  0  0  0  0  0  0  0
   -1.5718    3.4569    0.5020 C   0  0  0  0  0  0  0  0  0  0  0  0
   -1.9079    4.3883    0.9766 H   0  0  0  0  0  0  0  0  0  0  0  0
   -2.4477    2.7363   -0.3273 C   0  0  0  0  0  0  0  0  0  0  0  0
   -2.0130    1.5520   -0.9561 C   0  0  0  0  0  0  0  0  0  0  0  0
   -2.6809    0.9699   -1.6029 H   0  0  0  0  0  0  0  0  0  0  0  0
    1.9507    3.5627    1.4710 C   0  0  0  0  0  0  0  0  0  0  0  0
    2.2218    2.5041    1.6757 H   0  0  0  0  0  0  0  0  0  0  0  0
    2.3253    4.1741    2.3170 H   0  0  0  0  0  0  0  0  0  0  0  0
    2.5539    4.0338    0.1640 C   0  0  0  0  0  0  0  0  0  0  0  0
    3.4700    3.2335   -0.5438 C   0  0  0  0  0  0  0  0  0  0  0  0
    3.7346    2.2351   -0.1585 H   0  0  0  0  0  0  0  0  0  0  0  0
    4.0264    3.6930   -1.7486 C   0  0  0  0  0  0  0  0  0  0  0  0
    4.7376    3.0540   -2.2941 H   0  0  0  0  0  0  0  0  0  0  0  0
    3.6664    4.9484   -2.2607 C   0  0  0  0  0  0  0  0  0  0  0  0
    4.0996    5.3050   -3.2079 H   0  0  0  0  0  0  0  0  0  0  0  0
    2.7439    5.7471   -1.5631 C   0  0  0  0  0  0  0  0  0  0  0  0
    2.4539    6.7315   -1.9621 H   0  0  0  0  0  0  0  0  0  0  0  0
    2.1920    5.2925   -0.3581 C   0  0  0  0  0  0  0  0  0  0  0  0
    1.4610    5.9111    0.1856 H   0  0  0  0  0  0  0  0  0  0  0  0
   -4.6157    2.6027   -1.3434 C   0  0  0  0  0  0  0  0  0  0  0  0
   -4.1583    2.4149   -2.3412 H   0  0  0  0  0  0  0  0  0  0  0  0
   -5.4381    3.3332   -1.4913 H   0  0  0  0  0  0  0  0  0  0  0  0
   -5.1754    1.3151   -0.7665 C   0  0  0  0  0  0  0  0  0  0  0  0
   -5.3044    0.1578   -1.5574 C   0  0  0  0  0  0  0  0  0  0  0  0
   -4.9774    0.1819   -2.6101 H   0  0  0  0  0  0  0  0  0  0  0  0
   -5.8435   -1.0222   -1.0195 C   0  0  0  0  0  0  0  0  0  0  0  0
   -5.9410   -1.9184   -1.6516 H   0  0  0  0  0  0  0  0  0  0  0  0
   -6.2612   -1.0558    0.3208 C   0  0  0  0  0  0  0  0  0  0  0  0
   -6.6883   -1.9775    0.7443 H   0  0  0  0  0  0  0  0  0  0  0  0
   -6.1363    0.0954    1.1167 C   0  0  0  0  0  0  0  0  0  0  0  0
   -6.4636    0.0757    2.1675 H   0  0  0  0  0  0  0  0  0  0  0  0
   -5.5940    1.2710    0.5778 C   0  0  0  0  0  0  0  0  0  0  0  0
   -5.4792    2.1700    1.2025 H   0  0  0  0  0  0  0  0  0  0  0  0
   -3.7024    3.2685   -0.4807 O   0  0  0  0  0  0  0  0  0  0  0  0
    0.5255    3.7631    1.5153 O   0  0  0  0  0  0  0  0  0  0  0  0
  2  1  1  0  0  0  0
  2 29  1  0  0  0  0
  3 17  1  0  0  0  0
  4  3  1  0  0  0  0
  4 20  1  0  0  0  0
  5  9  1  1  0  0  0
  5  1  1  0  0  0  0
  6  8  2  0  0  0  0
  6  5  1  0  0  0  0
  7  6  1  0  0  0  0
  8  2  1  0  0  0  0
  9 10  1  0  0  0  0
 11  9  1  0  0  0  0
 12  9  1  0  0  0  0
 13  8  1  0  0  0  0
 13 14  1  0  0  0  0
 15 13  1  0  0  0  0
 16 13  1  0  0  0  0
 17 18  1  0  0  0  0
 17 21  1  1  0  0  0
 18 19  1  0  0  0  0
 20 18  2  0  0  0  0
 21 23  1  0  0  0  0
 22 21  1  0  0  0  0
 24 21  1  0  0  0  0
 25 20  1  0  0  0  0
 25 27  1  0  0  0  0
 26 25  1  0  0  0  0
 28 25  1  0  0  0  0
 29 30  1  6  0  0  0
 29  4  1  0  0  0  0
 31 34  1  0  0  0  0
 31 29  1  0  0  0  0
 32 31  1  0  0  0  0
 33 31  1  0  0  0  0
 34 35  1  0  0  0  0
 35 36  1  0  0  0  0
 35 37  2  0  0  0  0
 37 72  1  0  0  0  0
 38 37  1  0  0  0  0
 38 39  1  0  0  0  0
 40 38  2  0  0  0  0
 41 34  2  0  0  0  0
 41 40  1  0  0  0  0
 42 41  1  0  0  0  0
 43 72  1  0  0  0  0
 43 44  1  0  0  0  0
 43 45  1  0  0  0  0
 46 43  1  0  0  0  0
 47 48  1  0  0  0  0
 47 46  2  0  0  0  0
 49 47  1  0  0  0  0
 50 49  1  0  0  0  0
 51 49  2  0  0  0  0
 51 53  1  0  0  0  0
 52 51  1  0  0  0  0
 53 55  2  0  0  0  0
 54 53  1  0  0  0  0
 55 46  1  0  0  0  0
 55 56  1  0  0  0  0
 57 60  1  0  0  0  0
 57 71  1  0  0  0  0
 58 57  1  0  0  0  0
 59 57  1  0  0  0  0
 60 69  1  0  0  0  0
 61 63  1  0  0  0  0
 61 60  2  0  0  0  0
 62 61  1  0  0  0  0
 63 65  2  0  0  0  0
 64 63  1  0  0  0  0
 65 66  1  0  0  0  0
 65 67  1  0  0  0  0
 67 68  1  0  0  0  0
 69 67  2  0  0  0  0
 69 70  1  0  0  0  0
 71 40  1  0  0  0  0
M  END
