1,6
 OpenBabel05122313053D

 53 55  0  0  1  0  0  0  0  0999 V2000
    0.8117   -0.2684   -0.0849 N   0  0  0  0  0  2  0  0  0  0  0  0
    2.2198   -0.4074   -0.1259 N   0  0  0  0  0  0  0  0  0  0  0  0
   -0.8490    1.4422    0.0570 N   0  0  0  0  0  0  0  0  0  0  0  0
   -0.9308    2.4430    0.2367 H   0  0  0  0  0  0  0  0  0  0  0  0
   -3.1894    1.5476   -0.0607 N   0  0  0  0  0  0  0  0  0  0  0  0
   -2.0409   -0.5366   -0.1919 N   0  0  0  0  0  2  0  0  0  0  0  0
   -2.9337   -1.0331   -0.3326 H   0  0  0  0  0  0  0  0  0  0  0  0
    2.6827   -1.1625   -1.2962 C   0  0  0  0  0  0  0  0  0  0  0  0
    2.2322   -0.6883   -2.1944 H   0  0  0  0  0  0  0  0  0  0  0  0
    2.3269   -2.2176   -1.2574 H   0  0  0  0  0  0  0  0  0  0  0  0
    4.2101   -1.1123   -1.3627 C   0  0  0  0  0  0  0  0  0  0  0  0
    4.5478   -1.7347   -2.2169 H   0  0  0  0  0  0  0  0  0  0  0  0
    4.5443   -0.0698   -1.5638 H   0  0  0  0  0  0  0  0  0  0  0  0
    4.8292   -1.5966   -0.0472 C   0  0  0  0  0  0  0  0  0  0  0  0
    5.9371   -1.5525   -0.0962 H   0  0  0  0  0  0  0  0  0  0  0  0
    4.5514   -2.6602    0.1196 H   0  0  0  0  0  0  0  0  0  0  0  0
    4.3046   -0.7462    1.1148 C   0  0  0  0  0  0  0  0  0  0  0  0
    4.6375    0.3071    0.9820 H   0  0  0  0  0  0  0  0  0  0  0  0
    4.7113   -1.0998    2.0846 H   0  0  0  0  0  0  0  0  0  0  0  0
    2.7777   -0.7914    1.1790 C   0  0  0  0  0  0  0  0  0  0  0  0
    2.4214   -1.8052    1.4736 H   0  0  0  0  0  0  0  0  0  0  0  0
    2.3992   -0.0600    1.9241 H   0  0  0  0  0  0  0  0  0  0  0  0
    0.4632    1.0044   -0.0216 C   0  0  1  0  0  3  0  0  0  0  0  0
    1.4441    2.1274    0.0301 C   0  0  0  0  0  0  0  0  0  0  0  0
    2.3700    2.3549   -1.0116 C   0  0  0  0  0  0  0  0  0  0  0  0
    2.3968    1.6726   -1.8720 H   0  0  0  0  0  0  0  0  0  0  0  0
    3.2383    3.4462   -0.9535 C   0  0  0  0  0  0  0  0  0  0  0  0
    3.9510    3.6097   -1.7773 H   0  0  0  0  0  0  0  0  0  0  0  0
    3.2285    4.3419    0.1419 C   0  0  0  0  0  0  0  0  0  0  0  0
    4.1920    5.4990    0.1932 C   0  0  0  0  0  0  0  0  0  0  0  0
    4.1052    6.1362   -0.7113 H   0  0  0  0  0  0  0  0  0  0  0  0
    5.2425    5.1416    0.2314 H   0  0  0  0  0  0  0  0  0  0  0  0
    4.0198    6.1380    1.0803 H   0  0  0  0  0  0  0  0  0  0  0  0
    2.3011    4.1097    1.1721 C   0  0  0  0  0  0  0  0  0  0  0  0
    2.2756    4.7848    2.0417 H   0  0  0  0  0  0  0  0  0  0  0  0
    1.4141    3.0211    1.1183 C   0  0  0  0  0  0  0  0  0  0  0  0
    0.7199    2.8450    1.9557 H   0  0  0  0  0  0  0  0  0  0  0  0
   -2.0490    0.7593   -0.0894 C   0  0  2  0  0  3  0  0  0  0  0  0
   -3.2735    2.7414   -0.9196 C   0  0  0  0  0  0  0  0  0  0  0  0
   -3.5924    2.4341   -1.9469 H   0  0  0  0  0  0  0  0  0  0  0  0
   -2.2692    3.1944   -1.0312 H   0  0  0  0  0  0  0  0  0  0  0  0
   -4.2677    3.7548   -0.3534 C   0  0  0  0  0  0  0  0  0  0  0  0
   -3.8798    4.1374    0.6156 H   0  0  0  0  0  0  0  0  0  0  0  0
   -4.3356    4.6202   -1.0440 H   0  0  0  0  0  0  0  0  0  0  0  0
   -5.6402    3.1060   -0.1436 C   0  0  0  0  0  0  0  0  0  0  0  0
   -6.3469    3.8251    0.3182 H   0  0  0  0  0  0  0  0  0  0  0  0
   -6.0702    2.8311   -1.1328 H   0  0  0  0  0  0  0  0  0  0  0  0
   -5.5058    1.8488    0.7212 C   0  0  0  0  0  0  0  0  0  0  0  0
   -6.4784    1.3245    0.8165 H   0  0  0  0  0  0  0  0  0  0  0  0
   -5.1872    2.1315    1.7474 H   0  0  0  0  0  0  0  0  0  0  0  0
   -4.4762    0.8745    0.1418 C   0  0  0  0  0  0  0  0  0  0  0  0
   -4.3210    0.0250    0.8354 H   0  0  0  0  0  0  0  0  0  0  0  0
   -4.8534    0.4524   -0.8235 H   0  0  0  0  0  0  0  0  0  0  0  0
  2  1  1  0  0  0  0
  2 20  1  0  0  0  0
  3  4  1  0  0  0  0
  5 51  1  0  0  0  0
  7  6  1  0  0  0  0
  8 10  1  0  0  0  0
  8  2  1  0  0  0  0
  9  8  1  0  0  0  0
 11  8  1  0  0  0  0
 11 14  1  0  0  0  0
 12 11  1  0  0  0  0
 13 11  1  0  0  0  0
 14 16  1  0  0  0  0
 14 17  1  0  0  0  0
 15 14  1  0  0  0  0
 17 20  1  0  0  0  0
 17 19  1  0  0  0  0
 18 17  1  0  0  0  0
 20 21  1  0  0  0  0
 20 22  1  0  0  0  0
 23  1  1  1  0  0  0
 23 24  1  0  0  0  0
 23  3  1  0  0  0  0
 24 36  1  0  0  0  0
 25 27  1  0  0  0  0
 25 24  2  0  0  0  0
 26 25  1  0  0  0  0
 27 29  2  0  0  0  0
 28 27  1  0  0  0  0
 29 30  1  0  0  0  0
 29 34  1  0  0  0  0
 30 32  1  0  0  0  0
 30 33  1  0  0  0  0
 31 30  1  0  0  0  0
 34 35  1  0  0  0  0
 36 34  2  0  0  0  0
 36 37  1  0  0  0  0
 38  6  1  1  0  0  0
 38  5  1  0  0  0  0
 38  3  1  0  0  0  0
 39 42  1  0  0  0  0
 39  5  1  0  0  0  0
 40 39  1  0  0  0  0
 41 39  1  0  0  0  0
 42 45  1  0  0  0  0
 42 43  1  0  0  0  0
 44 42  1  0  0  0  0
 45 46  1  0  0  0  0
 45 48  1  0  0  0  0
 47 45  1  0  0  0  0
 48 49  1  0  0  0  0
 48 50  1  0  0  0  0
 51 48  1  0  0  0  0
 51 52  1  0  0  0  0
 53 51  1  0  0  0  0
M  END
