1,3
 OpenBabel05122313053D

 34 37  0  0  1  0  0  0  0  0999 V2000
    0.7282    1.4249   -0.1307 N   0  0  0  0  0  2  0  0  0  0  0  0
   -3.0597   -0.7642    0.4597 O   0  0  0  0  0  0  0  0  0  0  0  0
   -0.7955   -0.9296    0.4149 N   0  0  0  0  0  2  0  0  0  0  0  0
   -0.4528    3.3233   -0.1003 N   0  0  0  0  0  0  0  0  0  0  0  0
   -1.2563    3.9419   -0.0127 H   0  0  0  0  0  0  0  0  0  0  0  0
    2.8841    4.9923   -0.1393 C   0  0  0  0  0  0  0  0  0  0  0  0
    3.4085    5.9595   -0.1334 H   0  0  0  0  0  0  0  0  0  0  0  0
   -4.2533    1.2500   -0.1456 C   0  0  0  0  0  0  0  0  0  0  0  0
    1.4848    4.9742   -0.1020 C   0  0  0  0  0  0  0  0  0  0  0  0
    0.8968    5.9029   -0.0696 H   0  0  0  0  0  0  0  0  0  0  0  0
   -2.9854    1.9102   -0.2863 C   0  0  0  0  0  0  0  0  0  0  0  0
   -2.9964    2.9670   -0.5927 H   0  0  0  0  0  0  0  0  0  0  0  0
   -4.2446   -0.1106    0.2481 C   0  0  0  0  0  0  0  0  0  0  0  0
   -5.5029    1.8785   -0.3632 C   0  0  0  0  0  3  0  0  0  0  0  0
   -5.5230    2.9344   -0.6733 H   0  0  0  0  0  0  0  0  0  0  0  0
   -1.8360   -0.1713    0.2631 C   0  0  0  0  0  0  0  0  0  0  0  0
    3.6364    3.7937   -0.2019 C   0  0  0  0  0  0  0  0  0  0  0  0
    4.7334    3.8540   -0.2594 H   0  0  0  0  0  0  0  0  0  0  0  0
    1.6174    2.4982   -0.1515 C   0  0  0  0  0  0  0  0  0  0  0  0
    3.0241    2.5359   -0.2130 C   0  0  0  0  0  0  0  0  0  0  0  0
    3.5850    1.5969   -0.3347 H   0  0  0  0  0  0  0  0  0  0  0  0
   -5.4227   -0.8581    0.4370 C   0  0  0  0  0  0  0  0  0  0  0  0
    0.8714    3.7122   -0.1161 C   0  0  0  0  0  0  0  0  0  0  0  0
   -1.7902    1.2435   -0.0794 C   0  0  0  0  0  0  0  0  0  0  0  0
   -6.6414   -0.1899    0.2100 C   0  0  0  0  0  0  0  0  0  0  0  0
   -7.5788   -0.7512    0.3450 H   0  0  0  0  0  0  0  0  0  0  0  0
   -0.5140    1.9444   -0.1126 C   0  0  2  0  0  3  0  0  0  0  0  0
   -5.3445   -2.3011    0.8506 C   0  0  0  0  0  0  0  0  0  0  0  0
   -4.7638   -2.8963    0.1161 H   0  0  0  0  0  0  0  0  0  0  0  0
   -6.3534   -2.7442    0.9444 H   0  0  0  0  0  0  0  0  0  0  0  0
   -4.8195   -2.4133    1.8216 H   0  0  0  0  0  0  0  0  0  0  0  0
   -6.6872    1.1602   -0.1857 C   0  0  0  0  0  0  0  0  0  0  0  0
   -7.6583    1.6470   -0.3566 H   0  0  0  0  0  0  0  0  0  0  0  0
   -0.9960   -1.9363    0.5961 H   0  0  0  0  0  0  0  0  0  0  0  0
  1 27  1  0  0  0  0
  3 34  1  0  0  0  0
  4  5  1  0  0  0  0
  6  7  1  0  0  0  0
  6  9  1  0  0  0  0
  8 13  1  0  0  0  0
  9 10  1  0  0  0  0
 11  8  2  0  0  0  0
 11 24  1  0  0  0  0
 12 11  1  0  0  0  0
 13 22  2  0  0  0  0
 13  2  1  0  0  0  0
 14 32  1  0  0  0  0
 14  8  1  0  0  0  0
 15 14  1  0  0  0  0
 16  3  1  0  0  0  0
 16  2  1  0  0  0  0
 17  6  2  0  0  0  0
 18 17  1  0  0  0  0
 19  1  1  0  0  0  0
 19 23  1  0  0  0  0
 20 17  1  0  0  0  0
 20 19  2  0  0  0  0
 21 20  1  0  0  0  0
 22 28  1  0  0  0  0
 23  9  2  0  0  0  0
 23  4  1  0  0  0  0
 24 16  2  0  0  0  0
 25 26  1  0  0  0  0
 25 22  1  0  0  0  0
 27  4  1  0  0  0  0
 27 24  1  1  0  0  0
 28 30  1  0  0  0  0
 28 31  1  0  0  0  0
 29 28  1  0  0  0  0
 32 25  2  0  0  0  0
 33 32  1  0  0  0  0
M  END
