1,3
 OpenBabel05122313053D

 32 32  0  0  0  0  0  0  0  0999 V2000
   -2.2814    0.3565    0.9046 N   0  0  0  0  0  0  0  0  0  0  0  0
   -2.0326   -2.2402   -0.0787 N   0  0  0  0  0  0  0  0  0  0  0  0
   -1.4256    0.1761   -1.7336 N   0  0  0  0  0  2  0  0  0  0  0  0
   -2.1620    1.6148    1.6488 C   0  0  0  0  0  0  0  0  0  0  0  0
   -2.6277   -0.7281    1.8330 C   0  0  0  0  0  0  0  0  0  0  0  0
   -2.8522   -2.0723    1.1297 C   0  0  0  0  0  0  0  0  0  0  0  0
   -1.5742   -3.6220   -0.2277 C   0  0  0  0  0  0  0  0  0  0  0  0
   -2.7758   -1.8102   -1.2787 C   0  0  0  0  0  0  0  0  0  0  0  0
   -2.7887   -0.2725   -1.4816 C   0  0  0  0  0  0  0  0  0  0  0  0
   -3.7883    0.0657   -2.6033 C   0  0  0  0  0  0  0  0  0  0  0  0
   -3.2509    0.4763   -0.2129 C   0  0  0  0  0  0  0  0  0  0  0  0
   -0.9345    0.0824   -3.0876 C   0  0  0  0  0  0  0  0  0  0  0  0
   -1.8303    2.4209    0.9709 H   0  0  0  0  0  0  0  0  0  0  0  0
   -1.4100    1.5001    2.4540 H   0  0  0  0  0  0  0  0  0  0  0  0
   -3.1295    1.9139    2.1203 H   0  0  0  0  0  0  0  0  0  0  0  0
   -3.5435   -0.4683    2.4216 H   0  0  0  0  0  0  0  0  0  0  0  0
   -1.7907   -0.8039    2.5554 H   0  0  0  0  0  0  0  0  0  0  0  0
   -2.6110   -2.8776    1.8526 H   0  0  0  0  0  0  0  0  0  0  0  0
   -3.9330   -2.2038    0.8791 H   0  0  0  0  0  0  0  0  0  0  0  0
   -2.4197   -4.3449   -0.3476 H   0  0  0  0  0  0  0  0  0  0  0  0
   -0.9827   -3.9267    0.6588 H   0  0  0  0  0  0  0  0  0  0  0  0
   -0.9107   -3.7009   -1.1085 H   0  0  0  0  0  0  0  0  0  0  0  0
   -3.8136   -2.2360   -1.2561 H   0  0  0  0  0  0  0  0  0  0  0  0
   -2.2696   -2.2393   -2.1669 H   0  0  0  0  0  0  0  0  0  0  0  0
   -3.7439    1.1474   -2.8409 H   0  0  0  0  0  0  0  0  0  0  0  0
   -4.8274   -0.1845   -2.3061 H   0  0  0  0  0  0  0  0  0  0  0  0
   -3.5606   -0.4950   -3.5308 H   0  0  0  0  0  0  0  0  0  0  0  0
   -3.3174    1.5461   -0.4879 H   0  0  0  0  0  0  0  0  0  0  0  0
   -4.2678    0.1541    0.1163 H   0  0  0  0  0  0  0  0  0  0  0  0
   -1.0579   -0.9306   -3.5578 H   0  0  0  0  0  0  0  0  0  0  0  0
    0.1588    0.2848   -3.1001 H   0  0  0  0  0  0  0  0  0  0  0  0
   -1.3957    0.8184   -3.7921 H   0  0  0  0  0  0  0  0  0  0  0  0
  1  4  1  0  0  0  0
  1  5  1  0  0  0  0
  2  6  1  0  0  0  0
  3  9  1  0  0  0  0
  4 15  1  0  0  0  0
  4 14  1  0  0  0  0
  5 16  1  0  0  0  0
  5 17  1  0  0  0  0
  6  5  1  0  0  0  0
  6 18  1  0  0  0  0
  7  2  1  0  0  0  0
  7 21  1  0  0  0  0
  8 23  1  0  0  0  0
  8  2  1  0  0  0  0
  9  8  1  0  0  0  0
  9 11  1  0  0  0  0
 10 26  1  0  0  0  0
 10  9  1  0  0  0  0
 11 29  1  0  0  0  0
 11  1  1  0  0  0  0
 12  3  1  0  0  0  0
 13  4  1  0  0  0  0
 19  6  1  0  0  0  0
 20  7  1  0  0  0  0
 22  7  1  0  0  0  0
 24  8  1  0  0  0  0
 25 10  1  0  0  0  0
 27 10  1  0  0  0  0
 28 11  1  0  0  0  0
 30 12  1  0  0  0  0
 31 12  1  0  0  0  0
 32 12  1  0  0  0  0
M  END
