4,5
 OpenBabel05122313053D

 34 37  0  0  1  0  0  0  0  0999 V2000
   -2.6328    1.1440    0.2530 O   0  0  0  0  0  0  0  0  0  0  0  0
    2.6329    1.1443   -0.2519 O   0  0  0  0  0  0  0  0  0  0  0  0
    2.9197    2.4806   -0.2426 C   0  0  1  0  0  3  0  0  0  0  0  0
    1.2736    0.9760   -0.1432 N   0  0  0  0  0  2  0  0  0  0  0  0
   -1.2735    0.9759    0.1444 N   0  0  0  0  0  2  0  0  0  0  0  0
    4.6807    4.2312   -0.3597 C   0  0  0  0  0  0  0  0  0  0  0  0
    3.9056    5.0086   -0.2912 H   0  0  0  0  0  0  0  0  0  0  0  0
    1.7326    3.1949   -0.1270 C   0  0  0  0  0  0  0  0  0  0  0  0
    1.6077    4.2799   -0.0858 H   0  0  0  0  0  0  0  0  0  0  0  0
   -1.7326    3.1948    0.1285 C   0  0  0  0  0  0  0  0  0  0  0  0
   -1.6079    4.2798    0.0877 H   0  0  0  0  0  0  0  0  0  0  0  0
   -4.6809    4.2307    0.3610 C   0  0  0  0  0  0  0  0  0  0  0  0
   -3.9059    5.0082    0.2928 H   0  0  0  0  0  0  0  0  0  0  0  0
   -2.9197    2.4803    0.2439 C   0  0  1  0  0  3  0  0  0  0  0  0
   -4.3204    2.8626    0.3489 C   0  0  0  0  0  0  0  0  0  0  0  0
   -5.3306    1.8754    0.4386 C   0  0  0  0  0  0  0  0  0  0  0  0
   -5.0550    0.8113    0.4284 H   0  0  0  0  0  0  0  0  0  0  0  0
   -6.0256    4.6013    0.4607 C   0  0  0  0  0  0  0  0  0  0  0  0
   -6.2984    5.6668    0.4695 H   0  0  0  0  0  0  0  0  0  0  0  0
    6.6730    2.2572   -0.5378 C   0  0  0  0  0  0  0  0  0  0  0  0
    7.4538    1.4857   -0.6075 H   0  0  0  0  0  0  0  0  0  0  0  0
    6.0253    4.6019   -0.4595 C   0  0  0  0  0  0  0  0  0  0  0  0
    6.2981    5.6674   -0.4682 H   0  0  0  0  0  0  0  0  0  0  0  0
    4.3204    2.8630   -0.3478 C   0  0  0  0  0  0  0  0  0  0  0  0
   -7.0244    3.6166    0.5497 C   0  0  0  0  0  0  0  0  0  0  0  0
   -8.0813    3.9117    0.6282 H   0  0  0  0  0  0  0  0  0  0  0  0
    7.0242    3.6173   -0.5489 C   0  0  0  0  0  0  0  0  0  0  0  0
    8.0811    3.9125   -0.6274 H   0  0  0  0  0  0  0  0  0  0  0  0
    0.7254    2.2004   -0.0650 C   0  0  0  0  0  0  0  0  0  0  0  0
    5.3306    1.8759   -0.4379 C   0  0  0  0  0  0  0  0  0  0  0  0
    5.0551    0.8118   -0.4279 H   0  0  0  0  0  0  0  0  0  0  0  0
   -6.6730    2.2565    0.5384 C   0  0  0  0  0  0  0  0  0  0  0  0
   -7.4538    1.4849    0.6078 H   0  0  0  0  0  0  0  0  0  0  0  0
   -0.7254    2.2003    0.0665 C   0  0  0  0  0  0  0  0  0  0  0  0
  2  3  1  0  0  0  0
  2  4  1  0  0  0  0
  3 24  1  1  0  0  0
  3  8  1  0  0  0  0
  4 29  1  0  0  0  0
  5  1  1  0  0  0  0
  6 24  1  0  0  0  0
  6  7  1  0  0  0  0
  8  9  1  0  0  0  0
  8 29  2  0  0  0  0
 10 14  1  0  0  0  0
 11 10  1  0  0  0  0
 12 18  1  0  0  0  0
 13 12  1  0  0  0  0
 14  1  1  0  0  0  0
 14 15  1  6  0  0  0
 15 12  2  0  0  0  0
 15 16  1  0  0  0  0
 16 32  2  0  0  0  0
 17 16  1  0  0  0  0
 18 19  1  0  0  0  0
 18 25  2  0  0  0  0
 20 30  1  0  0  0  0
 21 20  1  0  0  0  0
 22  6  2  0  0  0  0
 23 22  1  0  0  0  0
 25 26  1  0  0  0  0
 27 20  2  0  0  0  0
 27 22  1  0  0  0  0
 28 27  1  0  0  0  0
 29 34  1  0  0  0  0
 30 31  1  0  0  0  0
 30 24  2  0  0  0  0
 32 25  1  0  0  0  0
 32 33  1  0  0  0  0
 34 10  2  0  0  0  0
 34  5  1  0  0  0  0
M  END
