2,3
 OpenBabel05122313053D

 25 26  0  0  1  0  0  0  0  0999 V2000
    0.9356    2.7839   -0.7414 O   0  0  0  0  0  0  0  0  0  0  0  0
   -0.9856    0.4163    1.8216 N   0  0  0  0  0  2  0  0  0  0  0  0
    0.3387    1.9069    0.0785 N   0  0  0  0  0  2  0  0  0  0  0  0
   -1.7148   -0.2937    2.6886 C   0  0  0  0  0  3  0  0  0  0  0  0
   -1.1304   -1.0985    3.6806 C   0  0  0  0  0  0  0  0  0  0  0  0
    0.2693   -1.1669    3.7340 C   0  0  0  0  0  0  0  0  0  0  0  0
    1.0324   -0.4080    2.8357 C   0  0  0  0  0  0  0  0  0  0  0  0
    0.3646    0.4041    1.8925 C   0  0  0  0  0  0  0  0  0  0  0  0
    1.0924    1.2871    0.9451 C   0  0  1  0  0  3  0  0  0  0  0  0
    2.5736    1.4095    0.9751 C   0  0  0  0  0  0  0  0  0  0  0  0
    3.2591    1.8304    2.1336 C   0  0  0  0  0  0  0  0  0  0  0  0
    4.6602    1.9015    2.1393 C   0  0  0  0  0  0  0  0  0  0  0  0
    5.3873    1.5464    0.9922 C   0  0  0  0  0  0  0  0  0  0  0  0
    4.7087    1.1321   -0.1660 C   0  0  0  0  0  0  0  0  0  0  0  0
    3.3098    1.0710   -0.1814 C   0  0  0  0  0  0  0  0  0  0  0  0
    0.1690    3.0391   -1.3588 H   0  0  0  0  0  0  0  0  0  0  0  0
   -2.8083   -0.1990    2.5614 H   0  0  0  0  0  0  0  0  0  0  0  0
   -1.7617   -1.6624    4.3820 H   0  0  0  0  0  0  0  0  0  0  0  0
    0.7705   -1.8056    4.4773 H   0  0  0  0  0  0  0  0  0  0  0  0
    2.1301   -0.4387    2.8553 H   0  0  0  0  0  0  0  0  0  0  0  0
    2.6886    2.1147    3.0310 H   0  0  0  0  0  0  0  0  0  0  0  0
    5.1865    2.2390    3.0450 H   0  0  0  0  0  0  0  0  0  0  0  0
    6.4867    1.5972    0.9997 H   0  0  0  0  0  0  0  0  0  0  0  0
    5.2726    0.8516   -1.0683 H   0  0  0  0  0  0  0  0  0  0  0  0
    2.7741    0.7535   -1.0874 H   0  0  0  0  0  0  0  0  0  0  0  0
  1  3  1  0  0  0  0
  2  8  1  0  0  0  0
  2  4  1  0  0  0  0
  4  5  1  0  0  0  0
  5  6  2  0  0  0  0
  5 18  1  0  0  0  0
  6 19  1  0  0  0  0
  7 20  1  0  0  0  0
  7  6  1  0  0  0  0
  8  7  2  0  0  0  0
  9  3  1  6  0  0  0
  9 10  1  0  0  0  0
  9  8  1  0  0  0  0
 10 11  1  0  0  0  0
 11 12  2  0  0  0  0
 11 21  1  0  0  0  0
 12 22  1  0  0  0  0
 13 23  1  0  0  0  0
 13 12  1  0  0  0  0
 14 13  2  0  0  0  0
 15 14  1  0  0  0  0
 15 10  2  0  0  0  0
 16  1  1  0  0  0  0
 17  4  1  0  0  0  0
 24 14  1  0  0  0  0
 25 15  1  0  0  0  0
M  END
