1,3
 OpenBabel05122313053D

 41 43  0  0  1  0  0  0  0  0999 V2000
   -0.1369    0.6447    0.0330 N   0  0  0  0  0  2  0  0  0  0  0  0
   -2.4805    0.0837    0.0095 N   0  0  0  0  0  0  0  0  0  0  0  0
   -1.2562   -1.9482    0.0836 N   0  0  0  0  0  2  0  0  0  0  0  0
   -1.3308   -2.9701    0.1569 H   0  0  0  0  0  0  0  0  0  0  0  0
   -1.7826    2.2922    0.0572 N   0  0  0  0  0  0  0  0  0  0  0  0
   -0.9861    2.9140    0.2130 H   0  0  0  0  0  0  0  0  0  0  0  0
   -1.4565    0.9441    0.0293 C   0  0  1  0  0  3  0  0  0  0  0  0
   -2.3849   -1.2499    0.0304 C   0  0  0  0  0  0  0  0  0  0  0  0
    0.8193    1.7019    0.0198 C   0  0  0  0  0  0  0  0  0  0  0  0
    1.3767    2.1711    1.2283 C   0  0  0  0  0  0  0  0  0  0  0  0
    1.0598    1.7023    2.1715 H   0  0  0  0  0  0  0  0  0  0  0  0
    2.3229    3.2068    1.2130 C   0  0  0  0  0  0  0  0  0  0  0  0
    2.7519    3.5662    2.1608 H   0  0  0  0  0  0  0  0  0  0  0  0
    2.7221    3.7829   -0.0051 C   0  0  0  0  0  0  0  0  0  0  0  0
    3.4590    4.6004   -0.0146 H   0  0  0  0  0  0  0  0  0  0  0  0
    2.1760    3.3109   -1.2113 C   0  0  0  0  0  0  0  0  0  0  0  0
    2.4893    3.7530   -2.1694 H   0  0  0  0  0  0  0  0  0  0  0  0
    1.2301    2.2756   -1.2021 C   0  0  0  0  0  0  0  0  0  0  0  0
    0.7981    1.8908   -2.1373 H   0  0  0  0  0  0  0  0  0  0  0  0
   -3.0205    2.9485   -0.0236 C   0  0  0  0  0  0  0  0  0  0  0  0
   -3.0558    4.2943    0.4143 C   0  0  0  0  0  0  0  0  0  0  0  0
   -2.1406    4.7508    0.8256 H   0  0  0  0  0  0  0  0  0  0  0  0
   -4.2353    5.0428    0.3358 C   0  0  0  0  0  0  0  0  0  0  0  0
   -4.2357    6.0872    0.6834 H   0  0  0  0  0  0  0  0  0  0  0  0
   -5.4094    4.4654   -0.1738 C   0  0  0  0  0  0  0  0  0  0  0  0
   -6.3394    5.0500   -0.2308 H   0  0  0  0  0  0  0  0  0  0  0  0
   -5.3755    3.1324   -0.6128 C   0  0  0  0  0  0  0  0  0  0  0  0
   -6.2844    2.6667   -1.0245 H   0  0  0  0  0  0  0  0  0  0  0  0
   -4.1999    2.3719   -0.5483 C   0  0  0  0  0  0  0  0  0  0  0  0
   -4.1749    1.3328   -0.8932 H   0  0  0  0  0  0  0  0  0  0  0  0
   -3.6814   -1.9966    0.0045 C   0  0  0  0  0  0  0  0  0  0  0  0
   -3.7622   -3.3241   -0.4685 C   0  0  0  0  0  0  0  0  0  0  0  0
   -2.8666   -3.8261   -0.8666 H   0  0  0  0  0  0  0  0  0  0  0  0
   -4.9880   -4.0036   -0.4751 C   0  0  0  0  0  0  0  0  0  0  0  0
   -5.0372   -5.0347   -0.8563 H   0  0  0  0  0  0  0  0  0  0  0  0
   -6.1496   -3.3674   -0.0089 C   0  0  0  0  0  0  0  0  0  0  0  0
   -7.1115   -3.9025   -0.0134 H   0  0  0  0  0  0  0  0  0  0  0  0
   -6.0792   -2.0441    0.4570 C   0  0  0  0  0  0  0  0  0  0  0  0
   -6.9862   -1.5397    0.8237 H   0  0  0  0  0  0  0  0  0  0  0  0
   -4.8565   -1.3610    0.4591 C   0  0  0  0  0  0  0  0  0  0  0  0
   -4.7817   -0.3251    0.8189 H   0  0  0  0  0  0  0  0  0  0  0  0
  2  8  2  0  0  0  0
  3  4  1  0  0  0  0
  5  6  1  0  0  0  0
  7  2  1  1  0  0  0
  7  1  1  0  0  0  0
  7  5  1  0  0  0  0
  8  3  1  0  0  0  0
  9  1  1  0  0  0  0
  9 10  1  0  0  0  0
 10 11  1  0  0  0  0
 12 10  2  0  0  0  0
 12 13  1  0  0  0  0
 14 12  1  0  0  0  0
 15 14  1  0  0  0  0
 16 18  1  0  0  0  0
 16 14  2  0  0  0  0
 17 16  1  0  0  0  0
 18  9  2  0  0  0  0
 19 18  1  0  0  0  0
 20  5  1  0  0  0  0
 20 21  1  0  0  0  0
 21 22  1  0  0  0  0
 23 21  2  0  0  0  0
 23 24  1  0  0  0  0
 25 23  1  0  0  0  0
 26 25  1  0  0  0  0
 27 29  1  0  0  0  0
 27 25  2  0  0  0  0
 28 27  1  0  0  0  0
 29 20  2  0  0  0  0
 30 29  1  0  0  0  0
 31  8  1  0  0  0  0
 31 40  1  0  0  0  0
 32 31  2  0  0  0  0
 33 32  1  0  0  0  0
 34 32  1  0  0  0  0
 34 36  2  0  0  0  0
 35 34  1  0  0  0  0
 36 38  1  0  0  0  0
 37 36  1  0  0  0  0
 38 40  2  0  0  0  0
 38 39  1  0  0  0  0
 40 41  1  0  0  0  0
M  END
