1,2
 OpenBabel05122313053D

 58 61  0  0  1  0  0  0  0  0999 V2000
   -0.8414   -0.0979    1.1527 N   0  0  0  0  0  0  0  0  0  0  0  0
    0.8414   -0.0983   -1.1525 N   0  0  0  0  0  0  0  0  0  0  0  0
    0.0462   -0.2925    2.3420 C   0  0  0  0  0  0  0  0  0  0  0  0
   -0.0818   -1.7796    2.7401 C   0  0  0  0  0  0  0  0  0  0  0  0
   -0.6490   -2.4788    1.4790 C   0  0  0  0  0  0  0  0  0  0  0  0
   -0.6618   -1.3738    0.4008 C   0  0  2  0  0  0  0  0  0  0  0  0
    0.6618   -1.3739   -0.4001 C   0  0  1  0  0  0  0  0  0  0  0  0
    0.6490   -2.4793   -1.4779 C   0  0  0  0  0  0  0  0  0  0  0  0
    0.0806   -1.7808   -2.7388 C   0  0  0  0  0  0  0  0  0  0  0  0
   -0.0465   -0.2932   -2.3417 C   0  0  0  0  0  0  0  0  0  0  0  0
   -2.2675    0.1575    1.6239 C   0  0  1  0  0  0  0  0  0  0  0  0
   -2.4393    1.6482    1.9250 C   0  0  0  0  0  0  0  0  0  0  0  0
   -3.3188   -0.3723    0.6637 C   0  0  0  0  0  0  0  0  0  0  0  0
   -4.1153   -1.4711    1.0444 C   0  0  0  0  0  0  0  0  0  0  0  0
   -5.0888   -1.9939    0.1787 C   0  0  0  0  0  0  0  0  0  0  0  0
   -5.2775   -1.4215   -1.0882 C   0  0  0  0  0  0  0  0  0  0  0  0
   -4.4976   -0.3185   -1.4729 C   0  0  0  0  0  0  0  0  0  0  0  0
   -3.5304    0.2098   -0.6048 C   0  0  0  0  0  0  0  0  0  0  0  0
    2.2674    0.1568   -1.6241 C   0  0  1  0  0  0  0  0  0  0  0  0
    2.4392    1.6474   -1.9257 C   0  0  0  0  0  0  0  0  0  0  0  0
    3.3188   -0.3727   -0.6639 C   0  0  0  0  0  0  0  0  0  0  0  0
    4.1155   -1.4714   -1.0444 C   0  0  0  0  0  0  0  0  0  0  0  0
    5.0892   -1.9938   -0.1787 C   0  0  0  0  0  0  0  0  0  0  0  0
    5.2780   -1.4211    1.0881 C   0  0  0  0  0  0  0  0  0  0  0  0
    4.4980   -0.3181    1.4726 C   0  0  0  0  0  0  0  0  0  0  0  0
    3.5305    0.2098    0.6045 C   0  0  0  0  0  0  0  0  0  0  0  0
    1.0812   -0.0337    2.0494 H   0  0  0  0  0  0  0  0  0  0  0  0
   -0.2257    0.4269    3.1346 H   0  0  0  0  0  0  0  0  0  0  0  0
    0.9042   -2.1841    3.0404 H   0  0  0  0  0  0  0  0  0  0  0  0
   -0.7577   -1.9147    3.6073 H   0  0  0  0  0  0  0  0  0  0  0  0
   -0.0488   -3.3545    1.1637 H   0  0  0  0  0  0  0  0  0  0  0  0
   -1.6804   -2.8429    1.6510 H   0  0  0  0  0  0  0  0  0  0  0  0
   -1.5110   -1.4883   -0.2976 H   0  0  0  0  0  0  0  0  0  0  0  0
    1.5110   -1.4881    0.2983 H   0  0  0  0  0  0  0  0  0  0  0  0
    1.6806   -2.8426   -1.6505 H   0  0  0  0  0  0  0  0  0  0  0  0
    0.0497   -3.3553   -1.1621 H   0  0  0  0  0  0  0  0  0  0  0  0
    0.7553   -1.9168   -3.6068 H   0  0  0  0  0  0  0  0  0  0  0  0
   -0.9060   -2.1851   -3.0375 H   0  0  0  0  0  0  0  0  0  0  0  0
    0.2259    0.4254   -3.1348 H   0  0  0  0  0  0  0  0  0  0  0  0
   -1.0813   -0.0336   -2.0493 H   0  0  0  0  0  0  0  0  0  0  0  0
   -2.3981   -0.4107    2.5722 H   0  0  0  0  0  0  0  0  0  0  0  0
   -2.4025    2.2489    0.9930 H   0  0  0  0  0  0  0  0  0  0  0  0
   -3.4176    1.8251    2.4126 H   0  0  0  0  0  0  0  0  0  0  0  0
   -1.6383    2.0234    2.5921 H   0  0  0  0  0  0  0  0  0  0  0  0
   -3.9747   -1.9196    2.0415 H   0  0  0  0  0  0  0  0  0  0  0  0
   -5.7030   -2.8497    0.4977 H   0  0  0  0  0  0  0  0  0  0  0  0
   -6.0383   -1.8288   -1.7716 H   0  0  0  0  0  0  0  0  0  0  0  0
   -4.6458    0.1464   -2.4597 H   0  0  0  0  0  0  0  0  0  0  0  0
   -2.9313    1.0802   -0.9241 H   0  0  0  0  0  0  0  0  0  0  0  0
    2.3978   -0.4117   -2.5721 H   0  0  0  0  0  0  0  0  0  0  0  0
    2.4026    2.2484   -0.9938 H   0  0  0  0  0  0  0  0  0  0  0  0
    3.4175    1.8241   -2.4136 H   0  0  0  0  0  0  0  0  0  0  0  0
    1.6380    2.0224   -2.5928 H   0  0  0  0  0  0  0  0  0  0  0  0
    3.9748   -1.9202   -2.0413 H   0  0  0  0  0  0  0  0  0  0  0  0
    5.7035   -2.8496   -0.4975 H   0  0  0  0  0  0  0  0  0  0  0  0
    6.0390   -1.8280    1.7714 H   0  0  0  0  0  0  0  0  0  0  0  0
    4.6462    0.1471    2.4593 H   0  0  0  0  0  0  0  0  0  0  0  0
    2.9314    1.0802    0.9237 H   0  0  0  0  0  0  0  0  0  0  0  0
  1 11  1  0  0  0  0
  1  3  1  0  0  0  0
  2  7  1  0  0  0  0
  3  4  1  0  0  0  0
  3 28  1  0  0  0  0
  4 29  1  0  0  0  0
  4 30  1  0  0  0  0
  5 32  1  0  0  0  0
  5  4  1  0  0  0  0
  6 33  1  6  0  0  0
  6  1  1  0  0  0  0
  6  5  1  0  0  0  0
  7 34  1  1  0  0  0
  7  6  1  0  0  0  0
  8 36  1  0  0  0  0
  8  7  1  0  0  0  0
  9 10  1  0  0  0  0
  9  8  1  0  0  0  0
 10 40  1  0  0  0  0
 10  2  1  0  0  0  0
 11 12  1  0  0  0  0
 11 41  1  1  0  0  0
 12 43  1  0  0  0  0
 12 44  1  0  0  0  0
 13 14  1  0  0  0  0
 13 11  1  0  0  0  0
 14 45  1  0  0  0  0
 15 46  1  0  0  0  0
 15 14  2  0  0  0  0
 16 15  1  0  0  0  0
 17 16  2  0  0  0  0
 17 18  1  0  0  0  0
 18 13  2  0  0  0  0
 19 50  1  6  0  0  0
 19  2  1  0  0  0  0
 19 21  1  0  0  0  0
 20 19  1  0  0  0  0
 20 51  1  0  0  0  0
 21 26  1  0  0  0  0
 22 21  2  0  0  0  0
 22 23  1  0  0  0  0
 23 24  2  0  0  0  0
 24 25  1  0  0  0  0
 24 56  1  0  0  0  0
 25 57  1  0  0  0  0
 26 58  1  0  0  0  0
 26 25  2  0  0  0  0
 27  3  1  0  0  0  0
 31  5  1  0  0  0  0
 35  8  1  0  0  0  0
 37  9  1  0  0  0  0
 38  9  1  0  0  0  0
 39 10  1  0  0  0  0
 42 12  1  0  0  0  0
 47 16  1  0  0  0  0
 48 17  1  0  0  0  0
 49 18  1  0  0  0  0
 52 20  1  0  0  0  0
 53 20  1  0  0  0  0
 54 22  1  0  0  0  0
 55 23  1  0  0  0  0
M  END
