1,8
 OpenBabel05122313053D

 26 27  0  0  1  0  0  0  0  0999 V2000
    1.7204    1.3669    0.0826 N   0  0  0  0  0  0  0  0  0  0  0  0
    2.1408    2.4565   -0.8275 C   0  0  0  0  0  0  0  0  0  0  0  0
    3.5996    2.7334   -0.4397 C   0  0  0  0  0  0  0  0  0  0  0  0
    4.1555    1.3321   -0.0947 C   0  0  0  0  0  0  0  0  0  0  0  0
    2.8981    0.4639    0.2073 C   0  0  2  0  0  0  0  0  0  0  0  0
    1.5378    1.7571    1.0211 H   0  0  0  0  0  0  0  0  0  0  0  0
    2.7727   -0.7201   -0.7724 C   0  0  2  0  0  0  0  0  0  0  0  0
    1.4306   -1.3735   -0.6344 N   0  0  0  0  0  0  0  0  0  0  0  0
    1.6447   -2.5371    0.2758 C   0  0  0  0  0  0  0  0  0  0  0  0
    3.0126   -3.0892   -0.1318 C   0  0  0  0  0  0  0  0  0  0  0  0
    3.8300   -1.8248   -0.4810 C   0  0  0  0  0  0  0  0  0  0  0  0
    2.8493   -0.3300   -1.8085 H   0  0  0  0  0  0  0  0  0  0  0  0
    4.5061   -1.9915   -1.3402 H   0  0  0  0  0  0  0  0  0  0  0  0
    4.4674   -1.5197    0.3730 H   0  0  0  0  0  0  0  0  0  0  0  0
    2.9054   -3.7447   -1.0214 H   0  0  0  0  0  0  0  0  0  0  0  0
    3.4804   -3.6978    0.6655 H   0  0  0  0  0  0  0  0  0  0  0  0
    0.8106   -3.2578    0.1722 H   0  0  0  0  0  0  0  0  0  0  0  0
    1.6277   -2.1576    1.3189 H   0  0  0  0  0  0  0  0  0  0  0  0
    1.1639   -1.7442   -1.5568 H   0  0  0  0  0  0  0  0  0  0  0  0
    2.8921    0.0634    1.2413 H   0  0  0  0  0  0  0  0  0  0  0  0
    4.7207    0.9086   -0.9499 H   0  0  0  0  0  0  0  0  0  0  0  0
    4.8529    1.3633    0.7630 H   0  0  0  0  0  0  0  0  0  0  0  0
    4.1716    3.2428   -1.2389 H   0  0  0  0  0  0  0  0  0  0  0  0
    3.6250    3.3931    0.4521 H   0  0  0  0  0  0  0  0  0  0  0  0
    2.0654    2.0985   -1.8769 H   0  0  0  0  0  0  0  0  0  0  0  0
    1.4697    3.3315   -0.7240 H   0  0  0  0  0  0  0  0  0  0  0  0
  1  5  1  0  0  0  0
  1  6  1  0  0  0  0
  2 26  1  0  0  0  0
  2  3  1  0  0  0  0
  2  1  1  0  0  0  0
  3  4  1  0  0  0  0
  3 24  1  0  0  0  0
  4  5  1  0  0  0  0
  4 22  1  0  0  0  0
  5 20  1  1  0  0  0
  7 12  1  6  0  0  0
  7  8  1  0  0  0  0
  7 11  1  0  0  0  0
  7  5  1  0  0  0  0
  8  9  1  0  0  0  0
  9 18  1  0  0  0  0
 10  9  1  0  0  0  0
 10 16  1  0  0  0  0
 11 10  1  0  0  0  0
 11 14  1  0  0  0  0
 13 11  1  0  0  0  0
 15 10  1  0  0  0  0
 17  9  1  0  0  0  0
 19  8  1  0  0  0  0
 21  4  1  0  0  0  0
 23  3  1  0  0  0  0
 25  2  1  0  0  0  0
M  END
