1,8
 OpenBabel05122313053D

 29 28  0  0  1  0  0  0  0  0999 V2000
   -0.7361   -1.3023    0.1322 N   0  0  0  0  0  0  0  0  0  0  0  0
   -0.4881   -2.2185   -0.2941 H   0  0  0  0  0  0  0  0  0  0  0  0
   -1.1198   -1.5698    1.4899 O   0  0  0  0  0  0  0  0  0  0  0  0
    0.0173   -1.8539    2.3058 C   0  0  0  0  0  0  0  0  0  0  0  0
    0.6221   -2.6903    1.8960 H   0  0  0  0  0  0  0  0  0  0  0  0
   -0.4125   -2.1268    3.2884 H   0  0  0  0  0  0  0  0  0  0  0  0
    0.6786   -0.9648    2.4015 H   0  0  0  0  0  0  0  0  0  0  0  0
   -0.6280    1.4190   -0.1745 N   0  0  0  0  0  0  0  0  0  0  0  0
   -0.5522    1.8510   -1.1103 H   0  0  0  0  0  0  0  0  0  0  0  0
   -0.5705    2.5697    0.6812 O   0  0  0  0  0  0  0  0  0  0  0  0
    0.1284    2.2867    1.8917 C   0  0  0  0  0  0  0  0  0  0  0  0
   -0.3604    1.4731    2.4752 H   0  0  0  0  0  0  0  0  0  0  0  0
    0.0689    3.2297    2.4683 H   0  0  0  0  0  0  0  0  0  0  0  0
    1.1887    2.0306    1.6814 H   0  0  0  0  0  0  0  0  0  0  0  0
   -1.9755    0.7708   -0.0047 C   0  0  1  0  0  0  0  0  0  0  0  0
   -2.0864    0.6640    1.0933 H   0  0  0  0  0  0  0  0  0  0  0  0
   -3.0857    1.6564   -0.5545 C   0  0  0  0  0  0  0  0  0  0  0  0
   -2.9999    2.6627   -0.1025 H   0  0  0  0  0  0  0  0  0  0  0  0
   -4.0848    1.2528   -0.3025 H   0  0  0  0  0  0  0  0  0  0  0  0
   -3.0219    1.7615   -1.6570 H   0  0  0  0  0  0  0  0  0  0  0  0
   -1.9188   -0.6797   -0.5621 C   0  0  0  0  0  0  0  0  0  0  0  0
   -3.2072   -1.4481   -0.2386 C   0  0  0  0  0  0  0  0  0  0  0  0
   -3.4614   -1.3869    0.8351 H   0  0  0  0  0  0  0  0  0  0  0  0
   -3.0863   -2.5171   -0.5050 H   0  0  0  0  0  0  0  0  0  0  0  0
   -4.0506   -1.0483   -0.8330 H   0  0  0  0  0  0  0  0  0  0  0  0
   -1.6313   -0.7401   -2.0702 C   0  0  0  0  0  0  0  0  0  0  0  0
   -1.5391   -1.7936   -2.4027 H   0  0  0  0  0  0  0  0  0  0  0  0
   -0.6866   -0.2258   -2.3407 H   0  0  0  0  0  0  0  0  0  0  0  0
   -2.4693   -0.2862   -2.6326 H   0  0  0  0  0  0  0  0  0  0  0  0
  1  3  1  0  0  0  0
  2  1  1  0  0  0  0
  3  4  1  0  0  0  0
  4  7  1  0  0  0  0
  4  6  1  0  0  0  0
  5  4  1  0  0  0  0
  8 15  1  0  0  0  0
  8 10  1  0  0  0  0
  9  8  1  0  0  0  0
 10 11  1  0  0  0  0
 11 13  1  0  0  0  0
 11 12  1  0  0  0  0
 14 11  1  0  0  0  0
 15 16  1  1  0  0  0
 17 19  1  0  0  0  0
 17 18  1  0  0  0  0
 17 15  1  0  0  0  0
 20 17  1  0  0  0  0
 21 22  1  0  0  0  0
 21 15  1  0  0  0  0
 21  1  1  0  0  0  0
 22 23  1  0  0  0  0
 24 22  1  0  0  0  0
 25 22  1  0  0  0  0
 26 21  1  0  0  0  0
 27 26  1  0  0  0  0
 28 26  1  0  0  0  0
 29 26  1  0  0  0  0
M  END
