5,7
q = -1.0, confidence = 0.016

 35 37  0  0  0  0  0  0  0  0999 V2000
    2.7883    1.1665   -1.7958 S   0  0  0  0  0  0  0  0  0  0  0  0
    0.4634    2.2557    0.4808 B   0  0  1  0  0  0  0  0  0  0  0  0
    1.0241    3.3207    0.7126 H   0  0  0  0  0  0  0  0  0  0  0  0
   -0.1465    2.3204   -0.9348 N   0  0  0  0  0  0  0  0  0  0  0  0
   -0.9215    1.3179   -1.4119 N   0  0  0  0  0  2  0  0  0  0  0  0
   -0.6927    2.0731    1.4938 N   0  0  0  0  0  0  0  0  0  0  0  0
   -1.5926    1.0653    1.3768 N   0  0  0  0  0  2  0  0  0  0  0  0
    1.4324    1.0465    0.6260 N   0  0  0  0  0  0  0  0  0  0  0  0
    1.5211    0.3954    1.8345 N   0  0  0  0  0  0  0  0  0  0  0  0
    3.1864   -0.2463    0.5172 N   0  0  0  0  0  0  0  0  0  0  0  0
   -0.0254    3.2934   -1.8688 C   0  0  0  0  0  3  0  0  0  0  0  0
    0.5994    4.1695   -1.6706 H   0  0  0  0  0  0  0  0  0  0  0  0
   -0.7560    2.9144   -2.9970 C   0  0  0  0  0  0  0  0  0  0  0  0
   -0.8727    3.4662   -3.9343 H   0  0  0  0  0  0  0  0  0  0  0  0
   -1.2982    1.6592   -2.6618 C   0  0  0  0  0  0  0  0  0  0  0  0
   -1.9493    0.9992   -3.2451 H   0  0  0  0  0  0  0  0  0  0  0  0
   -0.9649    2.8091    2.5979 C   0  0  0  0  0  3  0  0  0  0  0  0
   -0.3305    3.6625    2.8583 H   0  0  0  0  0  0  0  0  0  0  0  0
   -2.0921    2.2691    3.2223 C   0  0  0  0  0  0  0  0  0  0  0  0
   -2.5898    2.6235    4.1299 H   0  0  0  0  0  0  0  0  0  0  0  0
   -2.4485    1.1725    2.4145 C   0  0  0  0  0  0  0  0  0  0  0  0
   -3.2822    0.4707    2.5242 H   0  0  0  0  0  0  0  0  0  0  0  0
    2.4464    0.6796   -0.2270 C   0  0  0  0  0  0  0  0  0  0  0  0
    2.5758   -0.3840    1.7498 C   0  0  0  0  0  0  0  0  0  0  0  0
    3.0407   -1.3012    2.8265 C   0  0  0  0  0  0  0  0  0  0  0  0
    2.3612   -1.1991    3.6920 H   0  0  0  0  0  0  0  0  0  0  0  0
    4.0718   -1.0600    3.1592 H   0  0  0  0  0  0  0  0  0  0  0  0
    3.0372   -2.3603    2.4937 H   0  0  0  0  0  0  0  0  0  0  0  0
    4.4174   -0.8607    0.0412 C   0  0  0  0  0  0  0  0  0  0  0  0
    5.0748   -1.0284    0.9182 H   0  0  0  0  0  0  0  0  0  0  0  0
    4.8901   -0.1007   -0.6167 H   0  0  0  0  0  0  0  0  0  0  0  0
    4.1981   -2.1488   -0.7490 C   0  0  0  0  0  0  0  0  0  0  0  0
    3.7153   -2.9365   -0.1366 H   0  0  0  0  0  0  0  0  0  0  0  0
    5.1705   -2.5413   -1.1079 H   0  0  0  0  0  0  0  0  0  0  0  0
    3.5628   -1.9408   -1.6319 H   0  0  0  0  0  0  0  0  0  0  0  0
  1 23  2  0  0  0  0
  2  8  1  0  0  0  0
  2  3  1  1  0  0  0
  2  6  1  0  0  0  0
  4  2  1  0  0  0  0
  5  4  1  0  0  0  0
  6 17  1  0  0  0  0
  7  6  1  0  0  0  0
  7 21  1  0  0  0  0
  8  9  1  0  0  0  0
 10 24  1  0  0  0  0
 11 12  1  0  0  0  0
 11  4  1  0  0  0  0
 13 15  2  0  0  0  0
 13 11  1  0  0  0  0
 14 13  1  0  0  0  0
 15  5  1  0  0  0  0
 16 15  1  0  0  0  0
 17 18  1  0  0  0  0
 17 19  1  0  0  0  0
 19 20  1  0  0  0  0
 21 22  1  0  0  0  0
 21 19  2  0  0  0  0
 23 10  1  0  0  0  0
 23  8  1  0  0  0  0
 24  9  2  0  0  0  0
 24 25  1  0  0  0  0
 25 27  1  0  0  0  0
 25 26  1  0  0  0  0
 28 25  1  0  0  0  0
 29 10  1  0  0  0  0
 29 30  1  0  0  0  0
 31 29  1  0  0  0  0
 32 33  1  0  0  0  0
 32 29  1  0  0  0  0
 34 32  1  0  0  0  0
 35 32  1  0  0  0  0
M  END
