4,18
 OpenBabel05122313053D

 22 23  0  0  1  0  0  0  0  0999 V2000
    1.5456   -2.0789    0.1884 N   0  0  0  0  0  0  0  0  0  0  0  0
    1.6475   -3.0913    0.2534 H   0  0  0  0  0  0  0  0  0  0  0  0
    0.3408   -1.4201    0.1898 C   0  0  2  0  0  3  0  0  0  0  0  0
    0.5094   -0.1060    0.1251 N   0  0  0  0  0  2  0  0  0  0  0  0
    2.5772    1.3381   -0.0413 C   0  0  0  0  0  0  0  0  0  0  0  0
    2.0200    2.2845   -0.1052 H   0  0  0  0  0  0  0  0  0  0  0  0
    3.9732    1.2582   -0.0797 C   0  0  0  0  0  0  0  0  0  0  0  0
    4.5654    2.1815   -0.1634 H   0  0  0  0  0  0  0  0  0  0  0  0
    4.6475    0.0128   -0.0170 C   0  0  0  0  0  0  0  0  0  0  0  0
    5.7472   -0.0023   -0.0487 H   0  0  0  0  0  0  0  0  0  0  0  0
    3.9551   -1.2021    0.0788 C   0  0  0  0  0  0  0  0  0  0  0  0
    4.4877   -2.1632    0.1205 H   0  0  0  0  0  0  0  0  0  0  0  0
    2.5544   -1.1244    0.1149 C   0  0  0  0  0  0  0  0  0  0  0  0
    1.8720    0.1273    0.0650 C   0  0  0  0  0  0  0  0  0  0  0  0
   -0.8913   -2.0897    0.2665 N   0  0  0  0  0  0  0  0  0  0  0  0
   -1.4004   -1.6667    1.1089 H   0  0  0  0  0  0  0  0  0  0  0  0
   -1.7918   -1.8142   -0.8232 C   0  0  2  0  0  3  0  0  0  0  0  0
   -1.9073   -0.6091   -1.2923 N   0  0  0  0  0  2  0  0  0  0  0  0
   -2.5631   -0.5082   -2.0764 H   0  0  0  0  0  0  0  0  0  0  0  0
   -2.4811   -2.9157   -1.2107 N   0  0  0  0  0  0  0  0  0  0  0  0
   -2.2874   -3.7960   -0.7367 H   0  0  0  0  0  0  0  0  0  0  0  0
   -3.2998   -2.8452   -1.8131 H   0  0  0  0  0  0  0  0  0  0  0  0
  1  3  1  0  0  0  0
  1  2  1  0  0  0  0
  3 15  1  1  0  0  0
  4  3  1  0  0  0  0
  5 14  1  0  0  0  0
  6  5  1  0  0  0  0
  7  5  2  0  0  0  0
  7  9  1  0  0  0  0
  8  7  1  0  0  0  0
  9 11  2  0  0  0  0
 10  9  1  0  0  0  0
 11 13  1  0  0  0  0
 11 12  1  0  0  0  0
 13  1  1  0  0  0  0
 14 13  2  0  0  0  0
 14  4  1  0  0  0  0
 15 16  1  0  0  0  0
 17 18  1  1  0  0  0
 17 15  1  0  0  0  0
 19 18  1  0  0  0  0
 20 17  1  0  0  0  0
 20 21  1  0  0  0  0
 22 20  1  0  0  0  0
M  END
