1,2
 OpenBabel05122313053D

 35 36  0  0  1  0  0  0  0  0999 V2000
   -1.7926    1.0763    0.0792 N   0  0  0  0  0  2  0  0  0  0  0  0
    0.8511    0.5559   -0.2843 N   0  0  0  0  0  0  0  0  0  0  0  0
    0.8220    0.7732   -1.2931 H   0  0  0  0  0  0  0  0  0  0  0  0
   -3.1221    1.2599   -0.0485 C   0  0  0  0  0  3  0  0  0  0  0  0
   -3.7276    0.3484   -0.1660 H   0  0  0  0  0  0  0  0  0  0  0  0
   -3.7068    2.5301   -0.0382 C   0  0  0  0  0  0  0  0  0  0  0  0
   -4.7959    2.6356   -0.1409 H   0  0  0  0  0  0  0  0  0  0  0  0
   -2.8716    3.6473    0.0959 C   0  0  0  0  0  0  0  0  0  0  0  0
   -3.2906    4.6643    0.0993 H   0  0  0  0  0  0  0  0  0  0  0  0
   -1.4887    3.4541    0.2224 C   0  0  0  0  0  0  0  0  0  0  0  0
   -0.8166    4.3155    0.3273 H   0  0  0  0  0  0  0  0  0  0  0  0
   -0.9725    2.1488    0.2210 C   0  0  0  0  0  0  0  0  0  0  0  0
    0.4998    1.8401    0.4341 C   0  0  2  0  0  0  0  0  0  0  0  0
    0.6161    1.6162    1.5141 H   0  0  0  0  0  0  0  0  0  0  0  0
    1.4524    2.9752    0.0651 C   0  0  0  0  0  0  0  0  0  0  0  0
    1.3107    3.8428    0.7371 H   0  0  0  0  0  0  0  0  0  0  0  0
    1.2980    3.3183   -0.9781 H   0  0  0  0  0  0  0  0  0  0  0  0
    2.5016    2.6427    0.1811 H   0  0  0  0  0  0  0  0  0  0  0  0
    2.1948    0.0613   -0.0107 C   0  0  0  0  0  0  0  0  0  0  0  0
    2.5476   -0.3942    1.2829 C   0  0  0  0  0  0  0  0  0  0  0  0
    3.8627   -0.8640    1.4704 C   0  0  0  0  0  0  0  0  0  0  0  0
    4.1548   -1.2249    2.4684 H   0  0  0  0  0  0  0  0  0  0  0  0
    4.7865   -0.8966    0.4201 C   0  0  0  0  0  0  0  0  0  0  0  0
    5.8059   -1.2707    0.5939 H   0  0  0  0  0  0  0  0  0  0  0  0
    4.4034   -0.4692   -0.8568 C   0  0  0  0  0  0  0  0  0  0  0  0
    5.1197   -0.5096   -1.6912 H   0  0  0  0  0  0  0  0  0  0  0  0
    3.1053    0.0155   -1.0962 C   0  0  0  0  0  0  0  0  0  0  0  0
    1.5797   -0.4292    2.4390 C   0  0  0  0  0  0  0  0  0  0  0  0
    0.5423   -0.6533    2.1063 H   0  0  0  0  0  0  0  0  0  0  0  0
    1.5552    0.5305    2.9992 H   0  0  0  0  0  0  0  0  0  0  0  0
    1.8763   -1.2081    3.1669 H   0  0  0  0  0  0  0  0  0  0  0  0
    2.6987    0.4615   -2.4809 C   0  0  0  0  0  0  0  0  0  0  0  0
    1.8255   -0.1084   -2.8700 H   0  0  0  0  0  0  0  0  0  0  0  0
    3.5228    0.3045   -3.2008 H   0  0  0  0  0  0  0  0  0  0  0  0
    2.4410    1.5420   -2.5221 H   0  0  0  0  0  0  0  0  0  0  0  0
  1 12  1  0  0  0  0
  2 19  1  0  0  0  0
  2 13  1  0  0  0  0
  3  2  1  0  0  0  0
  4  6  1  0  0  0  0
  4  1  1  0  0  0  0
  5  4  1  0  0  0  0
  6  8  2  0  0  0  0
  7  6  1  0  0  0  0
  8  9  1  0  0  0  0
  8 10  1  0  0  0  0
 10 11  1  0  0  0  0
 12 10  2  0  0  0  0
 12 13  1  0  0  0  0
 13 14  1  1  0  0  0
 15 18  1  0  0  0  0
 15 13  1  0  0  0  0
 15 16  1  0  0  0  0
 17 15  1  0  0  0  0
 19 20  1  0  0  0  0
 20 21  2  0  0  0  0
 20 28  1  0  0  0  0
 21 22  1  0  0  0  0
 23 24  1  0  0  0  0
 23 21  1  0  0  0  0
 25 23  2  0  0  0  0
 26 25  1  0  0  0  0
 27 25  1  0  0  0  0
 27 19  2  0  0  0  0
 28 30  1  0  0  0  0
 28 31  1  0  0  0  0
 29 28  1  0  0  0  0
 32 27  1  0  0  0  0
 33 32  1  0  0  0  0
 34 32  1  0  0  0  0
 35 32  1  0  0  0  0
M  END
