1,2
 OpenBabel05122313053D

 28 28  0  0  0  0  0  0  0  0999 V2000
   -1.4662   -0.8701   -0.0456 N   0  0  0  0  0  2  0  0  0  0  0  0
    0.1089    1.3292   -0.6658 N   0  0  0  0  0  0  0  0  0  0  0  0
    0.8204    1.5874   -1.3626 H   0  0  0  0  0  0  0  0  0  0  0  0
   -2.2183   -1.8030    0.5821 C   0  0  0  0  0  3  0  0  0  0  0  0
   -1.6744   -2.6146    1.0838 H   0  0  0  0  0  0  0  0  0  0  0  0
   -3.6146   -1.7505    0.5910 C   0  0  0  0  0  0  0  0  0  0  0  0
   -4.1819   -2.5320    1.1153 H   0  0  0  0  0  0  0  0  0  0  0  0
   -4.2577   -0.6966   -0.0720 C   0  0  0  0  0  0  0  0  0  0  0  0
   -5.3552   -0.6259   -0.0846 H   0  0  0  0  0  0  0  0  0  0  0  0
   -3.4758    0.2744   -0.7109 C   0  0  0  0  0  0  0  0  0  0  0  0
   -3.9414    1.1236   -1.2317 H   0  0  0  0  0  0  0  0  0  0  0  0
   -2.0790    0.1676   -0.6822 C   0  0  0  0  0  0  0  0  0  0  0  0
   -1.1763    1.1547   -1.3802 C   0  0  0  0  0  0  0  0  0  0  0  0
   -0.9418    0.7488   -2.3879 H   0  0  0  0  0  0  0  0  0  0  0  0
   -1.7140    2.1120   -1.5427 H   0  0  0  0  0  0  0  0  0  0  0  0
    0.1525    2.4058    0.4013 C   0  0  0  0  0  0  0  0  0  0  0  0
   -0.8800    2.1039    1.4942 C   0  0  0  0  0  0  0  0  0  0  0  0
   -1.9205    2.1534    1.1172 H   0  0  0  0  0  0  0  0  0  0  0  0
   -0.7900    2.8551    2.3023 H   0  0  0  0  0  0  0  0  0  0  0  0
   -0.7125    1.1016    1.9361 H   0  0  0  0  0  0  0  0  0  0  0  0
   -0.1097    3.7862   -0.2269 C   0  0  0  0  0  0  0  0  0  0  0  0
    0.6212    4.0099   -1.0314 H   0  0  0  0  0  0  0  0  0  0  0  0
   -0.0091    4.5764    0.5421 H   0  0  0  0  0  0  0  0  0  0  0  0
   -1.1309    3.8775   -0.6473 H   0  0  0  0  0  0  0  0  0  0  0  0
    1.5671    2.3743    0.9957 C   0  0  0  0  0  0  0  0  0  0  0  0
    2.3374    2.5317    0.2120 H   0  0  0  0  0  0  0  0  0  0  0  0
    1.7664    1.4063    1.4955 H   0  0  0  0  0  0  0  0  0  0  0  0
    1.6824    3.1827    1.7429 H   0  0  0  0  0  0  0  0  0  0  0  0
  1  4  1  0  0  0  0
  2 16  1  0  0  0  0
  3  2  1  0  0  0  0
  4  6  1  0  0  0  0
  4  5  1  0  0  0  0
  6  7  1  0  0  0  0
  8  6  2  0  0  0  0
  9  8  1  0  0  0  0
 10 12  2  0  0  0  0
 10  8  1  0  0  0  0
 11 10  1  0  0  0  0
 12  1  1  0  0  0  0
 13 12  1  0  0  0  0
 13  2  1  0  0  0  0
 14 13  1  0  0  0  0
 15 13  1  0  0  0  0
 16 25  1  0  0  0  0
 16 17  1  0  0  0  0
 17 20  1  0  0  0  0
 17 19  1  0  0  0  0
 18 17  1  0  0  0  0
 21 16  1  0  0  0  0
 21 23  1  0  0  0  0
 22 21  1  0  0  0  0
 24 21  1  0  0  0  0
 25 27  1  0  0  0  0
 25 28  1  0  0  0  0
 26 25  1  0  0  0  0
M  END
