1,2
 OpenBabel05122313053D

 70 71  0  0  1  0  0  0  0  0999 V2000
    1.2548    0.3301   -0.0425 N   0  0  0  0  0  2  0  0  0  0  0  0
   -1.3045    0.7957   -1.3991 N   0  0  0  0  0  2  0  0  0  0  0  0
   -3.8493   -0.1908   -0.2287 N   0  0  0  0  0  0  0  0  0  0  0  0
   -1.3564    1.7542   -0.5059 C   0  0  0  0  0  0  0  0  0  0  0  0
   -2.2558    2.4074   -0.5141 H   0  0  0  0  0  0  0  0  0  0  0  0
   -2.4915    0.5469   -2.1919 C   0  0  0  0  0  0  0  0  0  0  0  0
   -2.1965    0.2070   -3.2066 H   0  0  0  0  0  0  0  0  0  0  0  0
   -3.0922    1.4782   -2.3102 H   0  0  0  0  0  0  0  0  0  0  0  0
   -3.3592   -0.5555   -1.5377 C   0  0  0  0  0  0  0  0  0  0  0  0
   -4.1755   -0.8223   -2.2560 H   0  0  0  0  0  0  0  0  0  0  0  0
   -2.7233   -1.4603   -1.4553 H   0  0  0  0  0  0  0  0  0  0  0  0
   -3.6831   -1.1728    0.8546 C   0  0  0  0  0  0  0  0  0  0  0  0
   -4.3029   -0.7978    1.6956 H   0  0  0  0  0  0  0  0  0  0  0  0
   -2.2298   -1.2024    1.3457 C   0  0  0  0  0  0  0  0  0  0  0  0
   -1.8986   -0.1970    1.6694 H   0  0  0  0  0  0  0  0  0  0  0  0
   -1.5456   -1.5375    0.5379 H   0  0  0  0  0  0  0  0  0  0  0  0
   -2.1040   -1.9098    2.1903 H   0  0  0  0  0  0  0  0  0  0  0  0
   -4.1780   -2.5947    0.5223 C   0  0  0  0  0  0  0  0  0  0  0  0
   -5.2254   -2.5941    0.1645 H   0  0  0  0  0  0  0  0  0  0  0  0
   -4.1228   -3.2444    1.4194 H   0  0  0  0  0  0  0  0  0  0  0  0
   -3.5506   -3.0698   -0.2599 H   0  0  0  0  0  0  0  0  0  0  0  0
   -5.0391    0.6675   -0.2160 C   0  0  0  0  0  0  0  0  0  0  0  0
   -4.9367    1.3145   -1.1157 H   0  0  0  0  0  0  0  0  0  0  0  0
   -5.0514    1.6081    0.9966 C   0  0  0  0  0  0  0  0  0  0  0  0
   -5.8769    2.3432    0.9136 H   0  0  0  0  0  0  0  0  0  0  0  0
   -4.0925    2.1567    1.0796 H   0  0  0  0  0  0  0  0  0  0  0  0
   -5.2046    1.0539    1.9455 H   0  0  0  0  0  0  0  0  0  0  0  0
   -6.3778   -0.0841   -0.3532 C   0  0  0  0  0  0  0  0  0  0  0  0
   -6.3733   -0.7630   -1.2301 H   0  0  0  0  0  0  0  0  0  0  0  0
   -7.2199    0.6262   -0.4819 H   0  0  0  0  0  0  0  0  0  0  0  0
   -6.5915   -0.6912    0.5505 H   0  0  0  0  0  0  0  0  0  0  0  0
    0.8829    1.4055    0.7020 C   0  0  1  0  0  3  0  0  0  0  0  0
    1.7278    1.9160    1.7448 C   0  0  0  0  0  0  0  0  0  0  0  0
    2.6893    1.4137    1.9191 H   0  0  0  0  0  0  0  0  0  0  0  0
    1.3617    3.0045    2.5240 C   0  0  0  0  0  0  0  0  0  0  0  0
    2.0470    3.3516    3.3136 H   0  0  0  0  0  0  0  0  0  0  0  0
    0.1284    3.6705    2.3218 C   0  0  0  0  0  0  0  0  0  0  0  0
   -0.1565    4.5305    2.9443 H   0  0  0  0  0  0  0  0  0  0  0  0
   -0.7084    3.2113    1.3155 C   0  0  0  0  0  0  0  0  0  0  0  0
   -1.6729    3.7125    1.1314 H   0  0  0  0  0  0  0  0  0  0  0  0
   -0.3781    2.0975    0.4880 C   0  0  0  0  0  0  0  0  0  0  0  0
    2.5180   -0.2878    0.2033 C   0  0  0  0  0  0  0  0  0  0  0  0
    3.6615    0.1562   -0.5191 C   0  0  0  0  0  0  0  0  0  0  0  0
    4.8843   -0.5090   -0.3202 C   0  0  0  0  0  0  0  0  0  0  0  0
    5.7758   -0.1796   -0.8745 H   0  0  0  0  0  0  0  0  0  0  0  0
    4.9868   -1.5855    0.5719 C   0  0  0  0  0  0  0  0  0  0  0  0
    5.9525   -2.0943    0.7139 H   0  0  0  0  0  0  0  0  0  0  0  0
    3.8574   -2.0090    1.2813 C   0  0  0  0  0  0  0  0  0  0  0  0
    3.9406   -2.8546    1.9821 H   0  0  0  0  0  0  0  0  0  0  0  0
    2.6131   -1.3705    1.1178 C   0  0  0  0  0  0  0  0  0  0  0  0
    3.5294    1.2878   -1.5311 C   0  0  0  0  0  0  0  0  0  0  0  0
    2.6857    1.9245   -1.1947 H   0  0  0  0  0  0  0  0  0  0  0  0
    3.1490    0.7145   -2.9090 C   0  0  0  0  0  0  0  0  0  0  0  0
    2.2359    0.0859   -2.8449 H   0  0  0  0  0  0  0  0  0  0  0  0
    3.9599    0.0677   -3.3037 H   0  0  0  0  0  0  0  0  0  0  0  0
    2.9597    1.5229   -3.6452 H   0  0  0  0  0  0  0  0  0  0  0  0
    4.7718    2.1815   -1.6268 C   0  0  0  0  0  0  0  0  0  0  0  0
    4.5735    3.0468   -2.2914 H   0  0  0  0  0  0  0  0  0  0  0  0
    5.6434    1.6412   -2.0512 H   0  0  0  0  0  0  0  0  0  0  0  0
    5.0663    2.5731   -0.6325 H   0  0  0  0  0  0  0  0  0  0  0  0
    1.3924   -1.8545    1.8883 C   0  0  0  0  0  0  0  0  0  0  0  0
    0.5738   -1.1407    1.6717 H   0  0  0  0  0  0  0  0  0  0  0  0
    0.9420   -3.2379    1.3878 C   0  0  0  0  0  0  0  0  0  0  0  0
    0.0204   -3.5684    1.9104 H   0  0  0  0  0  0  0  0  0  0  0  0
    1.7253   -4.0043    1.5643 H   0  0  0  0  0  0  0  0  0  0  0  0
    0.7325   -3.2199    0.2989 H   0  0  0  0  0  0  0  0  0  0  0  0
    1.6181   -1.8424    3.4077 C   0  0  0  0  0  0  0  0  0  0  0  0
    1.9146   -0.8336    3.7585 H   0  0  0  0  0  0  0  0  0  0  0  0
    2.4116   -2.5559    3.7135 H   0  0  0  0  0  0  0  0  0  0  0  0
    0.6892   -2.1309    3.9420 H   0  0  0  0  0  0  0  0  0  0  0  0
  1 42  1  0  0  0  0
  2  4  1  0  0  0  0
  3 22  1  0  0  0  0
  3 12  1  0  0  0  0
  4 41  2  0  0  0  0
  5  4  1  0  0  0  0
  6  9  1  0  0  0  0
  6  2  1  0  0  0  0
  7  6  1  0  0  0  0
  8  6  1  0  0  0  0
  9 11  1  0  0  0  0
  9  3  1  0  0  0  0
 10  9  1  0  0  0  0
 12 14  1  0  0  0  0
 12 13  1  0  0  0  0
 14 15  1  0  0  0  0
 14 17  1  0  0  0  0
 16 14  1  0  0  0  0
 18 12  1  0  0  0  0
 18 20  1  0  0  0  0
 19 18  1  0  0  0  0
 21 18  1  0  0  0  0
 22 24  1  0  0  0  0
 23 22  1  0  0  0  0
 24 26  1  0  0  0  0
 24 27  1  0  0  0  0
 25 24  1  0  0  0  0
 28 22  1  0  0  0  0
 28 31  1  0  0  0  0
 29 28  1  0  0  0  0
 30 28  1  0  0  0  0
 32  1  1  6  0  0  0
 32 33  1  0  0  0  0
 33 34  1  0  0  0  0
 33 35  2  0  0  0  0
 35 36  1  0  0  0  0
 37 35  1  0  0  0  0
 37 38  1  0  0  0  0
 39 37  2  0  0  0  0
 40 39  1  0  0  0  0
 41 32  1  0  0  0  0
 41 39  1  0  0  0  0
 42 50  1  0  0  0  0
 43 44  1  0  0  0  0
 43 42  2  0  0  0  0
 44 46  2  0  0  0  0
 45 44  1  0  0  0  0
 46 47  1  0  0  0  0
 46 48  1  0  0  0  0
 48 49  1  0  0  0  0
 50 48  2  0  0  0  0
 50 61  1  0  0  0  0
 51 52  1  0  0  0  0
 51 43  1  0  0  0  0
 53 54  1  0  0  0  0
 53 51  1  0  0  0  0
 55 53  1  0  0  0  0
 56 53  1  0  0  0  0
 57 51  1  0  0  0  0
 57 60  1  0  0  0  0
 58 57  1  0  0  0  0
 59 57  1  0  0  0  0
 61 67  1  0  0  0  0
 62 61  1  0  0  0  0
 63 65  1  0  0  0  0
 63 61  1  0  0  0  0
 63 64  1  0  0  0  0
 66 63  1  0  0  0  0
 67 69  1  0  0  0  0
 67 68  1  0  0  0  0
 67 70  1  0  0  0  0
M  END
