1,2
 OpenBabel05122313053D

 72 74  0  0  1  0  0  0  0  0999 V2000
   -1.3994   -0.2373    0.3059 N   0  0  0  0  0  2  0  0  0  0  0  0
    1.6063   -0.2102    0.5454 N   0  0  0  0  0  2  0  0  0  0  0  0
   -1.2991   -0.7069    1.5785 C   0  0  2  0  0  3  0  0  0  0  0  0
   -2.4859   -0.9885    2.3398 C   0  0  0  0  0  0  0  0  0  0  0  0
   -3.4574   -0.8069    1.8603 H   0  0  0  0  0  0  0  0  0  0  0  0
   -2.4394   -1.4850    3.6345 C   0  0  0  0  0  0  0  0  0  0  0  0
   -3.3844   -1.6908    4.1618 H   0  0  0  0  0  0  0  0  0  0  0  0
   -1.2044   -1.7285    4.2816 C   0  0  0  0  0  0  0  0  0  0  0  0
   -1.1711   -2.1213    5.3075 H   0  0  0  0  0  0  0  0  0  0  0  0
   -0.0379   -1.4458    3.5880 C   0  0  0  0  0  0  0  0  0  0  0  0
    0.9390   -1.6080    4.0720 H   0  0  0  0  0  0  0  0  0  0  0  0
   -0.0302   -0.9382    2.2535 C   0  0  0  0  0  0  0  0  0  0  0  0
    1.2792   -0.6526    1.7316 C   0  0  0  0  0  0  0  0  0  0  0  0
    2.1061   -0.8193    2.4587 H   0  0  0  0  0  0  0  0  0  0  0  0
   -2.6879    0.0886   -0.2161 C   0  0  0  0  0  0  0  0  0  0  0  0
   -3.1845    1.4135   -0.0568 C   0  0  0  0  0  0  0  0  0  0  0  0
   -4.4039    1.7532   -0.6708 C   0  0  0  0  0  0  0  0  0  0  0  0
   -4.7947    2.7771   -0.5655 H   0  0  0  0  0  0  0  0  0  0  0  0
   -5.1278    0.8117   -1.4143 C   0  0  0  0  0  0  0  0  0  0  0  0
   -6.0792    1.0963   -1.8888 H   0  0  0  0  0  0  0  0  0  0  0  0
   -4.6386   -0.4940   -1.5478 C   0  0  0  0  0  0  0  0  0  0  0  0
   -5.2141   -1.2320   -2.1280 H   0  0  0  0  0  0  0  0  0  0  0  0
   -3.4242   -0.8810   -0.9511 C   0  0  0  0  0  0  0  0  0  0  0  0
   -2.3833    2.4537    0.7185 C   0  0  0  0  0  0  0  0  0  0  0  0
   -1.6229    1.9035    1.3077 H   0  0  0  0  0  0  0  0  0  0  0  0
   -3.2414    3.2512    1.7108 C   0  0  0  0  0  0  0  0  0  0  0  0
   -3.7781    2.5761    2.4068 H   0  0  0  0  0  0  0  0  0  0  0  0
   -3.9974    3.8803    1.1966 H   0  0  0  0  0  0  0  0  0  0  0  0
   -2.6058    3.9312    2.3142 H   0  0  0  0  0  0  0  0  0  0  0  0
   -1.6282    3.3873   -0.2458 C   0  0  0  0  0  0  0  0  0  0  0  0
   -0.9765    2.8175   -0.9419 H   0  0  0  0  0  0  0  0  0  0  0  0
   -0.9853    4.1018    0.3096 H   0  0  0  0  0  0  0  0  0  0  0  0
   -2.3345    3.9735   -0.8698 H   0  0  0  0  0  0  0  0  0  0  0  0
   -2.8882   -2.2973   -1.1205 C   0  0  0  0  0  0  0  0  0  0  0  0
   -2.0603   -2.4166   -0.3928 H   0  0  0  0  0  0  0  0  0  0  0  0
   -3.9389   -3.3707   -0.8005 C   0  0  0  0  0  0  0  0  0  0  0  0
   -4.3544   -3.2324    0.2177 H   0  0  0  0  0  0  0  0  0  0  0  0
   -3.4885   -4.3831   -0.8521 H   0  0  0  0  0  0  0  0  0  0  0  0
   -4.7851   -3.3511   -1.5183 H   0  0  0  0  0  0  0  0  0  0  0  0
   -2.2967   -2.4902   -2.5287 C   0  0  0  0  0  0  0  0  0  0  0  0
   -1.5005   -1.7456   -2.7414 H   0  0  0  0  0  0  0  0  0  0  0  0
   -3.0761   -2.3671   -3.3092 H   0  0  0  0  0  0  0  0  0  0  0  0
   -1.8551   -3.5020   -2.6420 H   0  0  0  0  0  0  0  0  0  0  0  0
    2.9668    0.0348    0.2250 C   0  0  0  0  0  0  0  0  0  0  0  0
    3.3824    1.3864    0.0718 C   0  0  0  0  0  0  0  0  0  0  0  0
    4.7131    1.6367   -0.3076 C   0  0  0  0  0  0  0  0  0  0  0  0
    5.0564    2.6753   -0.4223 H   0  0  0  0  0  0  0  0  0  0  0  0
    5.6069    0.5838   -0.5392 C   0  0  0  0  0  0  0  0  0  0  0  0
    6.6460    0.7969   -0.8324 H   0  0  0  0  0  0  0  0  0  0  0  0
    5.1748   -0.7423   -0.4072 C   0  0  0  0  0  0  0  0  0  0  0  0
    5.8814   -1.5603   -0.6082 H   0  0  0  0  0  0  0  0  0  0  0  0
    3.8535   -1.0488   -0.0319 C   0  0  0  0  0  0  0  0  0  0  0  0
    2.4094    2.5214    0.3661 C   0  0  0  0  0  0  0  0  0  0  0  0
    1.3885    2.1310    0.1590 H   0  0  0  0  0  0  0  0  0  0  0  0
    2.4377    2.8925    1.8600 C   0  0  0  0  0  0  0  0  0  0  0  0
    1.6877    3.6784    2.0870 H   0  0  0  0  0  0  0  0  0  0  0  0
    3.4381    3.2768    2.1485 H   0  0  0  0  0  0  0  0  0  0  0  0
    2.2168    2.0154    2.5003 H   0  0  0  0  0  0  0  0  0  0  0  0
    2.6089    3.7534   -0.5241 C   0  0  0  0  0  0  0  0  0  0  0  0
    1.7910    4.4831   -0.3558 H   0  0  0  0  0  0  0  0  0  0  0  0
    2.6088    3.4797   -1.5983 H   0  0  0  0  0  0  0  0  0  0  0  0
    3.5619    4.2773   -0.3038 H   0  0  0  0  0  0  0  0  0  0  0  0
    3.3524   -2.4908   -0.0016 C   0  0  0  0  0  0  0  0  0  0  0  0
    2.6048   -2.5748    0.8137 H   0  0  0  0  0  0  0  0  0  0  0  0
    4.4474   -3.5240    0.2897 C   0  0  0  0  0  0  0  0  0  0  0  0
    5.0079   -3.2776    1.2137 H   0  0  0  0  0  0  0  0  0  0  0  0
    5.1785   -3.5996   -0.5415 H   0  0  0  0  0  0  0  0  0  0  0  0
    3.9992   -4.5298    0.4175 H   0  0  0  0  0  0  0  0  0  0  0  0
    2.6236   -2.8214   -1.3186 C   0  0  0  0  0  0  0  0  0  0  0  0
    1.7866   -2.1188   -1.5101 H   0  0  0  0  0  0  0  0  0  0  0  0
    2.2058   -3.8487   -1.2966 H   0  0  0  0  0  0  0  0  0  0  0  0
    3.3197   -2.7470   -2.1791 H   0  0  0  0  0  0  0  0  0  0  0  0
  2 13  1  0  0  0  0
  3  1  1  1  0  0  0
  3 12  1  0  0  0  0
  3  4  1  0  0  0  0
  4  6  2  0  0  0  0
  5  4  1  0  0  0  0
  6  7  1  0  0  0  0
  6  8  1  0  0  0  0
  8  9  1  0  0  0  0
 10 11  1  0  0  0  0
 10  8  2  0  0  0  0
 12 10  1  0  0  0  0
 13 12  2  0  0  0  0
 13 14  1  0  0  0  0
 15 16  1  0  0  0  0
 15  1  1  0  0  0  0
 16 24  1  0  0  0  0
 17 18  1  0  0  0  0
 17 16  2  0  0  0  0
 19 17  1  0  0  0  0
 20 19  1  0  0  0  0
 21 19  2  0  0  0  0
 21 23  1  0  0  0  0
 22 21  1  0  0  0  0
 23 15  2  0  0  0  0
 24 25  1  0  0  0  0
 24 26  1  0  0  0  0
 26 29  1  0  0  0  0
 26 27  1  0  0  0  0
 28 26  1  0  0  0  0
 30 32  1  0  0  0  0
 30 24  1  0  0  0  0
 31 30  1  0  0  0  0
 33 30  1  0  0  0  0
 34 23  1  0  0  0  0
 34 36  1  0  0  0  0
 34 35  1  0  0  0  0
 36 37  1  0  0  0  0
 38 36  1  0  0  0  0
 39 36  1  0  0  0  0
 40 34  1  0  0  0  0
 41 40  1  0  0  0  0
 42 40  1  0  0  0  0
 43 40  1  0  0  0  0
 44  2  1  0  0  0  0
 45 44  1  0  0  0  0
 45 53  1  0  0  0  0
 46 45  2  0  0  0  0
 47 46  1  0  0  0  0
 48 50  2  0  0  0  0
 48 46  1  0  0  0  0
 49 48  1  0  0  0  0
 50 52  1  0  0  0  0
 51 50  1  0  0  0  0
 52 63  1  0  0  0  0
 52 44  2  0  0  0  0
 53 55  1  0  0  0  0
 54 53  1  0  0  0  0
 55 56  1  0  0  0  0
 55 57  1  0  0  0  0
 55 58  1  0  0  0  0
 59 60  1  0  0  0  0
 59 62  1  0  0  0  0
 59 53  1  0  0  0  0
 61 59  1  0  0  0  0
 63 65  1  0  0  0  0
 63 64  1  0  0  0  0
 65 68  1  0  0  0  0
 65 66  1  0  0  0  0
 67 65  1  0  0  0  0
 69 71  1  0  0  0  0
 69 63  1  0  0  0  0
 70 69  1  0  0  0  0
 72 69  1  0  0  0  0
M  END
