1,18
 OpenBabel05122313053D

 43 44  0  0  0  0  0  0  0  0999 V2000
   -2.4134   -1.0085    0.2219 N   0  0  0  0  0  2  0  0  0  0  0  0
   -3.5003   -0.2693   -0.1063 N   0  0  0  0  0  0  0  0  0  0  0  0
   -4.5784   -0.6363    0.6410 C   0  0  0  0  0  3  0  0  0  0  0  0
   -4.1718   -1.6636    1.4904 C   0  0  0  0  0  0  0  0  0  0  0  0
   -2.8098   -1.8601    1.1895 C   0  0  0  0  0  0  0  0  0  0  0  0
   -3.4232    0.7981   -1.0938 C   0  0  0  0  0  0  0  0  0  0  0  0
   -2.7567    2.0686   -0.5797 C   0  0  0  0  0  0  0  0  0  0  0  0
   -1.3645    1.8594   -0.4382 O   0  0  0  0  0  0  0  0  0  0  0  0
   -0.7067    2.9591    0.1880 C   0  0  0  0  0  0  0  0  0  0  0  0
    0.7939    2.7705    0.2045 C   0  0  0  0  0  0  0  0  0  0  0  0
    1.1750    1.7453    1.1032 O   0  0  0  0  0  0  0  0  0  0  0  0
    2.5462    1.8515    1.4764 C   0  0  0  0  0  0  0  0  0  0  0  0
    2.9423    0.7645    2.4629 C   0  0  0  0  0  0  0  0  0  0  0  0
    3.1703   -0.5005    1.8591 O   0  0  0  0  0  0  0  0  0  0  0  0
    2.0364   -1.3112    1.6633 C   0  0  0  0  0  0  0  0  0  0  0  0
    2.2869   -2.1582    0.4174 C   0  0  0  0  0  0  0  0  0  0  0  0
    2.5023   -1.3281   -0.7608 N   0  0  0  0  0  0  0  0  0  0  0  0
    1.4808   -0.6509   -1.3355 N   0  0  0  0  0  2  0  0  0  0  0  0
    2.0254    0.1169   -2.3023 C   0  0  0  0  0  3  0  0  0  0  0  0
    3.4220   -0.0621   -2.3388 C   0  0  0  0  0  0  0  0  0  0  0  0
    3.6883   -0.9873   -1.3290 C   0  0  0  0  0  0  0  0  0  0  0  0
   -5.5510   -0.1500    0.5063 H   0  0  0  0  0  0  0  0  0  0  0  0
   -4.7840   -2.2055    2.2176 H   0  0  0  0  0  0  0  0  0  0  0  0
   -2.0997   -2.5794    1.6131 H   0  0  0  0  0  0  0  0  0  0  0  0
   -4.4591    1.0278   -1.4069 H   0  0  0  0  0  0  0  0  0  0  0  0
   -2.8829    0.4141   -1.9844 H   0  0  0  0  0  0  0  0  0  0  0  0
   -3.2162    2.3638    0.3940 H   0  0  0  0  0  0  0  0  0  0  0  0
   -2.9592    2.8931   -1.3056 H   0  0  0  0  0  0  0  0  0  0  0  0
   -1.0782    3.0826    1.2324 H   0  0  0  0  0  0  0  0  0  0  0  0
   -0.9336    3.8985   -0.3697 H   0  0  0  0  0  0  0  0  0  0  0  0
    1.2384    3.7453    0.5193 H   0  0  0  0  0  0  0  0  0  0  0  0
    1.1674    2.5603   -0.8277 H   0  0  0  0  0  0  0  0  0  0  0  0
    2.7292    2.8475    1.9508 H   0  0  0  0  0  0  0  0  0  0  0  0
    3.2075    1.7843    0.5788 H   0  0  0  0  0  0  0  0  0  0  0  0
    2.1867    0.6998    3.2797 H   0  0  0  0  0  0  0  0  0  0  0  0
    3.9064    1.0602    2.9246 H   0  0  0  0  0  0  0  0  0  0  0  0
    1.1129   -0.7012    1.5215 H   0  0  0  0  0  0  0  0  0  0  0  0
    1.8588   -1.9953    2.5291 H   0  0  0  0  0  0  0  0  0  0  0  0
    1.4367   -2.8444    0.2239 H   0  0  0  0  0  0  0  0  0  0  0  0
    3.1994   -2.7698    0.5509 H   0  0  0  0  0  0  0  0  0  0  0  0
    1.3839    0.7444   -2.9317 H   0  0  0  0  0  0  0  0  0  0  0  0
    4.1416    0.4067   -3.0166 H   0  0  0  0  0  0  0  0  0  0  0  0
    4.6263   -1.4274   -0.9748 H   0  0  0  0  0  0  0  0  0  0  0  0
  1  5  1  0  0  0  0
  2  1  1  0  0  0  0
  2  3  1  0  0  0  0
  3  4  1  0  0  0  0
  4 23  1  0  0  0  0
  5  4  2  0  0  0  0
  5 24  1  0  0  0  0
  6  7  1  0  0  0  0
  6  2  1  0  0  0  0
  7  8  1  0  0  0  0
  7 27  1  0  0  0  0
  8  9  1  0  0  0  0
  9 10  1  0  0  0  0
  9 29  1  0  0  0  0
 10 31  1  0  0  0  0
 10 11  1  0  0  0  0
 11 12  1  0  0  0  0
 12 33  1  0  0  0  0
 12 13  1  0  0  0  0
 13 36  1  0  0  0  0
 13 35  1  0  0  0  0
 14 13  1  0  0  0  0
 15 14  1  0  0  0  0
 15 38  1  0  0  0  0
 16 40  1  0  0  0  0
 16 15  1  0  0  0  0
 17 16  1  0  0  0  0
 18 17  1  0  0  0  0
 19 18  1  0  0  0  0
 20 19  1  0  0  0  0
 20 21  2  0  0  0  0
 21 43  1  0  0  0  0
 21 17  1  0  0  0  0
 22  3  1  0  0  0  0
 25  6  1  0  0  0  0
 26  6  1  0  0  0  0
 28  7  1  0  0  0  0
 30  9  1  0  0  0  0
 32 10  1  0  0  0  0
 34 12  1  0  0  0  0
 37 15  1  0  0  0  0
 39 16  1  0  0  0  0
 41 19  1  0  0  0  0
 42 20  1  0  0  0  0
M  END
