1,2
 OpenBabel05122313053D

 45 47  0  0  1  0  0  0  0  0999 V2000
   -1.6000    0.1060   -0.2892 N   0  0  1  0  0  0  0  0  0  0  0  0
    1.0061   -0.7536   -0.1632 N   0  0  0  0  0  2  0  0  0  0  0  0
    2.9307   -0.7717    1.2304 N   0  0  0  0  0  0  0  0  0  0  0  0
    3.0875   -1.8175   -0.7375 N   0  0  0  0  0  0  0  0  0  0  0  0
   -1.2906   -1.3704   -0.2384 C   0  0  1  0  0  0  0  0  0  0  0  0
   -1.1734   -1.5899    0.8414 H   0  0  0  0  0  0  0  0  0  0  0  0
   -2.4812   -2.1724   -0.8010 C   0  0  0  0  0  0  0  0  0  0  0  0
   -2.6490   -3.0746   -0.1805 H   0  0  0  0  0  0  0  0  0  0  0  0
   -2.2765   -2.5173   -1.8376 H   0  0  0  0  0  0  0  0  0  0  0  0
   -3.7218   -1.2577   -0.8003 C   0  0  2  0  0  0  0  0  0  0  0  0
   -4.6380   -1.8487   -1.0040 H   0  0  0  0  0  0  0  0  0  0  0  0
   -3.5207   -0.1784   -1.8733 C   0  0  0  0  0  0  0  0  0  0  0  0
   -4.3409    0.5669   -1.8214 H   0  0  0  0  0  0  0  0  0  0  0  0
   -3.5572   -0.6304   -2.8853 H   0  0  0  0  0  0  0  0  0  0  0  0
   -2.1475    0.4932   -1.6287 C   0  0  0  0  0  0  0  0  0  0  0  0
   -1.3964    0.2013   -2.3874 H   0  0  0  0  0  0  0  0  0  0  0  0
   -2.1928    1.5990   -1.6272 H   0  0  0  0  0  0  0  0  0  0  0  0
   -2.6285    0.3957    0.7487 C   0  0  0  0  0  0  0  0  0  0  0  0
   -2.8814    1.4676    0.6462 H   0  0  0  0  0  0  0  0  0  0  0  0
   -2.1420    0.2818    1.7346 H   0  0  0  0  0  0  0  0  0  0  0  0
   -3.8545   -0.5454    0.5786 C   0  0  2  0  0  0  0  0  0  0  0  0
   -4.7720    0.0820    0.5155 H   0  0  0  0  0  0  0  0  0  0  0  0
   -4.0952   -1.5449    1.6850 C   0  0  0  0  0  0  0  0  0  0  0  0
   -4.9903   -2.1745    1.5209 H   0  0  0  0  0  0  0  0  0  0  0  0
   -3.3767   -1.7543    2.8015 C   0  0  0  0  0  0  0  0  0  0  0  0
   -2.4782   -1.1673    3.0511 H   0  0  0  0  0  0  0  0  0  0  0  0
   -3.6750   -2.5254    3.5281 H   0  0  0  0  0  0  0  0  0  0  0  0
    0.0761   -1.6154   -0.8770 C   0  0  0  0  0  0  0  0  0  0  0  0
    0.3443   -2.6907   -0.7739 H   0  0  0  0  0  0  0  0  0  0  0  0
    0.0202   -1.3984   -1.9704 H   0  0  0  0  0  0  0  0  0  0  0  0
    2.2586   -1.0889    0.0870 C   0  0  0  0  0  3  0  0  0  0  0  0
    4.3618   -0.9573    1.0330 C   0  0  0  0  0  0  0  0  0  0  0  0
    4.8492   -1.3047    1.9650 H   0  0  0  0  0  0  0  0  0  0  0  0
    4.8331    0.0022    0.7158 H   0  0  0  0  0  0  0  0  0  0  0  0
    4.3832   -2.0192   -0.0838 C   0  0  0  0  0  0  0  0  0  0  0  0
    5.2088   -1.8632   -0.8056 H   0  0  0  0  0  0  0  0  0  0  0  0
    4.4749   -3.0507    0.3274 H   0  0  0  0  0  0  0  0  0  0  0  0
    2.3891   -0.0327    2.3457 C   0  0  0  0  0  0  0  0  0  0  0  0
    1.2884   -0.1468    2.3414 H   0  0  0  0  0  0  0  0  0  0  0  0
    2.6093    1.0523    2.2460 H   0  0  0  0  0  0  0  0  0  0  0  0
    2.8039   -0.4356    3.2928 H   0  0  0  0  0  0  0  0  0  0  0  0
    2.9016   -1.8986   -2.1710 C   0  0  0  0  0  0  0  0  0  0  0  0
    2.4748   -2.8709   -2.5031 H   0  0  0  0  0  0  0  0  0  0  0  0
    3.8772   -1.7617   -2.6800 H   0  0  0  0  0  0  0  0  0  0  0  0
    2.2320   -1.0817   -2.5021 H   0  0  0  0  0  0  0  0  0  0  0  0
  1 15  1  6  0  0  0
  1  5  1  0  0  0  0
  1 18  1  0  0  0  0
  2 31  1  0  0  0  0
  3 38  1  0  0  0  0
  4 35  1  0  0  0  0
  4 31  1  0  0  0  0
  5  6  1  1  0  0  0
  7 10  1  0  0  0  0
  7  5  1  0  0  0  0
  7  8  1  0  0  0  0
  9  7  1  0  0  0  0
 10 11  1  6  0  0  0
 10 21  1  0  0  0  0
 12 13  1  0  0  0  0
 12 15  1  0  0  0  0
 12 10  1  0  0  0  0
 14 12  1  0  0  0  0
 15 17  1  0  0  0  0
 16 15  1  0  0  0  0
 18 20  1  0  0  0  0
 19 18  1  0  0  0  0
 21 22  1  6  0  0  0
 21 18  1  0  0  0  0
 21 23  1  0  0  0  0
 23 25  2  0  0  0  0
 24 23  1  0  0  0  0
 25 26  1  0  0  0  0
 25 27  1  0  0  0  0
 28 29  1  0  0  0  0
 28  5  1  0  0  0  0
 28  2  1  0  0  0  0
 30 28  1  0  0  0  0
 31  3  1  0  0  0  0
 32  3  1  0  0  0  0
 32 33  1  0  0  0  0
 34 32  1  0  0  0  0
 35 37  1  0  0  0  0
 35 32  1  0  0  0  0
 36 35  1  0  0  0  0
 38 41  1  0  0  0  0
 39 38  1  0  0  0  0
 40 38  1  0  0  0  0
 42  4  1  0  0  0  0
 43 42  1  0  0  0  0
 44 42  1  0  0  0  0
 45 42  1  0  0  0  0
M  END
