1,2
 OpenBabel05122313053D

 41 44  0  0  0  0  0  0  0  0999 V2000
    0.2704   -1.3462    0.5568 N   0  0  0  0  0  2  0  0  0  0  0  0
    0.2588    1.3576    0.5271 N   0  0  0  0  0  2  0  0  0  0  0  0
   -2.4941   -3.8115    0.3290 S   0  0  0  0  0  0  0  0  0  0  0  0
   -2.5186    3.8007    0.2414 S   0  0  0  0  0  0  0  0  0  0  0  0
   -3.8232   -0.0039    0.7960 O   0  0  0  0  0  0  0  0  0  0  0  0
   -0.0176   -2.6623    0.6448 C   0  0  0  0  0  0  0  0  0  0  0  0
    0.3823   -3.4155    1.7847 C   0  0  0  0  0  0  0  0  0  0  0  0
    0.1533   -4.4904    1.8064 H   0  0  0  0  0  0  0  0  0  0  0  0
    1.0146   -2.8019    2.8516 C   0  0  0  0  0  0  0  0  0  0  0  0
    1.3436   -3.3848    3.7250 H   0  0  0  0  0  0  0  0  0  0  0  0
    1.1716   -1.3882    2.8456 C   0  0  0  0  0  0  0  0  0  0  0  0
    1.6675   -0.6387    3.9640 C   0  0  0  0  0  0  0  0  0  0  0  0
    2.0162   -1.1868    4.8518 H   0  0  0  0  0  0  0  0  0  0  0  0
    1.6625    0.7382    3.9482 C   0  0  0  0  0  0  0  0  0  0  0  0
    2.0079    1.3091    4.8228 H   0  0  0  0  0  0  0  0  0  0  0  0
    1.1608    1.4582    2.8135 C   0  0  0  0  0  0  0  0  0  0  0  0
    0.9972    2.8707    2.7860 C   0  0  0  0  0  0  0  0  0  0  0  0
    1.3254    3.4760    3.6442 H   0  0  0  0  0  0  0  0  0  0  0  0
    0.3610    3.4560    1.7054 C   0  0  0  0  0  0  0  0  0  0  0  0
    0.1286    4.5303    1.7011 H   0  0  0  0  0  0  0  0  0  0  0  0
   -0.0364    2.6740    0.5842 C   0  0  0  0  0  0  0  0  0  0  0  0
    0.7558    0.7381    1.6545 C   0  0  0  0  0  0  0  0  0  0  0  0
    0.7626   -0.6976    1.6700 C   0  0  0  0  0  0  0  0  0  0  0  0
   -0.8704   -3.3220   -0.4038 C   0  0  0  0  0  0  0  0  0  0  0  0
   -0.4180   -4.2706   -0.7547 H   0  0  0  0  0  0  0  0  0  0  0  0
   -1.0356   -2.6673   -1.2777 H   0  0  0  0  0  0  0  0  0  0  0  0
   -3.4829   -2.2829    0.1688 C   0  0  0  0  0  0  0  0  0  0  0  0
   -3.3806   -1.8839   -0.8589 H   0  0  0  0  0  0  0  0  0  0  0  0
   -4.5321   -2.6269    0.2755 H   0  0  0  0  0  0  0  0  0  0  0  0
   -3.1594   -1.1897    1.1895 C   0  0  0  0  0  0  0  0  0  0  0  0
   -3.4543   -1.5163    2.2155 H   0  0  0  0  0  0  0  0  0  0  0  0
   -2.0612   -1.0111    1.2088 H   0  0  0  0  0  0  0  0  0  0  0  0
   -3.1669    1.1952    1.1618 C   0  0  0  0  0  0  0  0  0  0  0  0
   -2.0676    1.0240    1.1842 H   0  0  0  0  0  0  0  0  0  0  0  0
   -3.4633    1.5430    2.1803 H   0  0  0  0  0  0  0  0  0  0  0  0
   -3.4980    2.2627    0.1167 C   0  0  0  0  0  0  0  0  0  0  0  0
   -4.5493    2.6025    0.2164 H   0  0  0  0  0  0  0  0  0  0  0  0
   -3.3939    1.8411   -0.9018 H   0  0  0  0  0  0  0  0  0  0  0  0
   -0.8917    3.3046   -0.4797 C   0  0  0  0  0  0  0  0  0  0  0  0
   -1.0521    2.6297   -1.3391 H   0  0  0  0  0  0  0  0  0  0  0  0
   -0.4439    4.2474   -0.8514 H   0  0  0  0  0  0  0  0  0  0  0  0
  1  6  1  0  0  0  0
  1 23  1  0  0  0  0
  2 21  1  0  0  0  0
  2 22  1  0  0  0  0
  5 33  1  0  0  0  0
  5 30  1  0  0  0  0
  6  7  2  0  0  0  0
  7  8  1  0  0  0  0
  7  9  1  0  0  0  0
  9 10  1  0  0  0  0
 11  9  2  0  0  0  0
 11 12  1  0  0  0  0
 12 13  1  0  0  0  0
 14 12  2  0  0  0  0
 14 15  1  0  0  0  0
 16 14  1  0  0  0  0
 17 16  2  0  0  0  0
 17 18  1  0  0  0  0
 19 17  1  0  0  0  0
 20 19  1  0  0  0  0
 21 19  2  0  0  0  0
 22 23  2  0  0  0  0
 22 16  1  0  0  0  0
 23 11  1  0  0  0  0
 24  3  1  0  0  0  0
 24  6  1  0  0  0  0
 25 24  1  0  0  0  0
 26 24  1  0  0  0  0
 27 29  1  0  0  0  0
 27  3  1  0  0  0  0
 27 30  1  0  0  0  0
 28 27  1  0  0  0  0
 30 32  1  0  0  0  0
 30 31  1  0  0  0  0
 33 34  1  0  0  0  0
 33 35  1  0  0  0  0
 36 37  1  0  0  0  0
 36  4  1  0  0  0  0
 36 33  1  0  0  0  0
 38 36  1  0  0  0  0
 39  4  1  0  0  0  0
 39 21  1  0  0  0  0
 40 39  1  0  0  0  0
 41 39  1  0  0  0  0
M  END
