2,4
 OpenBabel05122313053D

 25 26  0  0  0  0  0  0  0  0999 V2000
    2.3286    1.7148   -0.9403 N   0  0  0  0  0  0  0  0  0  0  0  0
    1.1042    1.2015   -1.2232 N   0  0  0  0  0  2  0  0  0  0  0  0
    2.3311   -1.7139    0.9390 N   0  0  0  0  0  0  0  0  0  0  0  0
    1.1056   -1.2031    1.2219 N   0  0  0  0  0  2  0  0  0  0  0  0
    0.7577    1.7212   -2.4173 C   0  0  0  0  0  3  0  0  0  0  0  0
   -0.2058    1.4548   -2.8670 H   0  0  0  0  0  0  0  0  0  0  0  0
    1.7698    2.5725   -2.9107 C   0  0  0  0  0  0  0  0  0  0  0  0
    1.7751    3.1435   -3.8443 H   0  0  0  0  0  0  0  0  0  0  0  0
    2.7654    2.5388   -1.9367 C   0  0  0  0  0  0  0  0  0  0  0  0
    3.7384    3.0388   -1.8748 H   0  0  0  0  0  0  0  0  0  0  0  0
    3.0632    1.2743    0.2376 C   0  0  0  0  0  0  0  0  0  0  0  0
    2.3193    1.1202    1.0457 H   0  0  0  0  0  0  0  0  0  0  0  0
    3.7294    2.1044    0.5423 H   0  0  0  0  0  0  0  0  0  0  0  0
    3.8876    0.0013   -0.0012 C   0  0  0  0  0  0  0  0  0  0  0  0
    4.5507    0.1563   -0.8778 H   0  0  0  0  0  0  0  0  0  0  0  0
    4.5515   -0.1530    0.8750 H   0  0  0  0  0  0  0  0  0  0  0  0
    3.0645   -1.2727   -0.2394 C   0  0  0  0  0  0  0  0  0  0  0  0
    2.3199   -1.1195   -1.0470 H   0  0  0  0  0  0  0  0  0  0  0  0
    3.7315   -2.1020   -0.5444 H   0  0  0  0  0  0  0  0  0  0  0  0
    0.7606   -1.7230    2.4163 C   0  0  0  0  0  3  0  0  0  0  0  0
   -0.2035   -1.4586    2.8662 H   0  0  0  0  0  0  0  0  0  0  0  0
    1.7745   -2.5720    2.9099 C   0  0  0  0  0  0  0  0  0  0  0  0
    1.7812   -3.1426    3.8436 H   0  0  0  0  0  0  0  0  0  0  0  0
    2.7698   -2.5366    1.9356 C   0  0  0  0  0  0  0  0  0  0  0  0
    3.7438   -3.0347    1.8737 H   0  0  0  0  0  0  0  0  0  0  0  0
  1 11  1  0  0  0  0
  2  1  1  0  0  0  0
  3  4  1  0  0  0  0
  3 24  1  0  0  0  0
  4 20  1  0  0  0  0
  5  2  1  0  0  0  0
  6  5  1  0  0  0  0
  7  5  1  0  0  0  0
  7  9  2  0  0  0  0
  8  7  1  0  0  0  0
  9 10  1  0  0  0  0
  9  1  1  0  0  0  0
 11 13  1  0  0  0  0
 11 12  1  0  0  0  0
 14 11  1  0  0  0  0
 14 16  1  0  0  0  0
 15 14  1  0  0  0  0
 17 14  1  0  0  0  0
 17  3  1  0  0  0  0
 18 17  1  0  0  0  0
 19 17  1  0  0  0  0
 20 21  1  0  0  0  0
 20 22  1  0  0  0  0
 22 23  1  0  0  0  0
 24 22  2  0  0  0  0
 25 24  1  0  0  0  0
M  END
