1,2
 OpenBabel05122313053D

 56 59  0  0  1  0  0  0  0  0999 V2000
   -1.0963   -0.7454   -0.2409 N   0  0  0  0  0  2  0  0  0  0  0  0
    1.0622    0.4522    0.7901 N   0  0  0  0  0  2  0  0  0  0  0  0
   -2.1955   -1.4757   -0.7121 C   0  0  0  0  0  0  0  0  0  0  0  0
   -2.9691   -2.2101    0.2227 C   0  0  0  0  0  0  0  0  0  0  0  0
   -2.7298   -2.1070    1.2926 H   0  0  0  0  0  0  0  0  0  0  0  0
   -4.0355   -3.0103   -0.2031 C   0  0  0  0  0  0  0  0  0  0  0  0
   -4.6220   -3.5709    0.5410 H   0  0  0  0  0  0  0  0  0  0  0  0
   -4.3750   -3.0776   -1.5647 C   0  0  0  0  0  0  0  0  0  0  0  0
   -5.2193   -3.6989   -1.8984 H   0  0  0  0  0  0  0  0  0  0  0  0
   -3.6342   -2.3292   -2.4947 C   0  0  0  0  0  0  0  0  0  0  0  0
   -3.8944   -2.3685   -3.5637 H   0  0  0  0  0  0  0  0  0  0  0  0
   -2.5582   -1.5341   -2.0801 C   0  0  0  0  0  0  0  0  0  0  0  0
   -1.9806   -0.9721   -2.8276 H   0  0  0  0  0  0  0  0  0  0  0  0
   -0.7720    0.5341   -0.8899 C   0  0  1  0  0  0  0  0  0  0  0  0
   -0.7783    0.3950   -1.9908 H   0  0  0  0  0  0  0  0  0  0  0  0
   -1.7988    1.6079   -0.5640 C   0  0  0  0  0  0  0  0  0  0  0  0
   -2.1596    1.8926    0.7685 C   0  0  0  0  0  0  0  0  0  0  0  0
   -1.7322    1.2969    1.5895 H   0  0  0  0  0  0  0  0  0  0  0  0
   -3.0727    2.9149    1.0484 C   0  0  0  0  0  0  0  0  0  0  0  0
   -3.3419    3.1221    2.0967 H   0  0  0  0  0  0  0  0  0  0  0  0
   -3.6617    3.6808    0.0184 C   0  0  0  0  0  0  0  0  0  0  0  0
   -3.3026    3.3823   -1.3092 C   0  0  0  0  0  0  0  0  0  0  0  0
   -3.7537    3.9567   -2.1340 H   0  0  0  0  0  0  0  0  0  0  0  0
   -2.3860    2.3588   -1.5963 C   0  0  0  0  0  0  0  0  0  0  0  0
   -2.1271    2.1372   -2.6449 H   0  0  0  0  0  0  0  0  0  0  0  0
   -4.6548    4.7690    0.3407 C   0  0  0  0  0  0  0  0  0  0  0  0
   -5.5738    4.3502    0.8028 H   0  0  0  0  0  0  0  0  0  0  0  0
   -4.9587    5.3284   -0.5651 H   0  0  0  0  0  0  0  0  0  0  0  0
   -4.2360    5.4958    1.0673 H   0  0  0  0  0  0  0  0  0  0  0  0
    2.0734    1.0775    1.5235 C   0  0  0  0  0  0  0  0  0  0  0  0
    2.2755    0.6891    2.8759 C   0  0  0  0  0  0  0  0  0  0  0  0
    1.5857   -0.0390    3.3301 H   0  0  0  0  0  0  0  0  0  0  0  0
    3.2925    1.2635    3.6435 C   0  0  0  0  0  0  0  0  0  0  0  0
    3.4216    0.9457    4.6896 H   0  0  0  0  0  0  0  0  0  0  0  0
    4.1282    2.2540    3.0983 C   0  0  0  0  0  0  0  0  0  0  0  0
    4.9249    2.7085    3.7055 H   0  0  0  0  0  0  0  0  0  0  0  0
    3.9233    2.6624    1.7717 C   0  0  0  0  0  0  0  0  0  0  0  0
    4.5644    3.4412    1.3304 H   0  0  0  0  0  0  0  0  0  0  0  0
    2.9150    2.0865    0.9867 C   0  0  0  0  0  0  0  0  0  0  0  0
    2.7978    2.4090   -0.0564 H   0  0  0  0  0  0  0  0  0  0  0  0
    0.6952    0.9777   -0.5263 C   0  0  2  0  0  0  0  0  0  0  0  0
    0.6591    2.0884   -0.4513 H   0  0  0  0  0  0  0  0  0  0  0  0
    1.6743    0.6401   -1.6533 C   0  0  0  0  0  0  0  0  0  0  0  0
    1.4680    1.1940   -2.9345 C   0  0  0  0  0  0  0  0  0  0  0  0
    0.6197    1.8773   -3.1030 H   0  0  0  0  0  0  0  0  0  0  0  0
    2.3338    0.9035   -3.9952 C   0  0  0  0  0  0  0  0  0  0  0  0
    2.1478    1.3521   -4.9842 H   0  0  0  0  0  0  0  0  0  0  0  0
    3.4464    0.0534   -3.8181 C   0  0  0  0  0  0  0  0  0  0  0  0
    3.6642   -0.4729   -2.5311 C   0  0  0  0  0  0  0  0  0  0  0  0
    4.5379   -1.1200   -2.3529 H   0  0  0  0  0  0  0  0  0  0  0  0
    2.7970   -0.1816   -1.4666 C   0  0  0  0  0  0  0  0  0  0  0  0
    3.0037   -0.5829   -0.4665 H   0  0  0  0  0  0  0  0  0  0  0  0
    4.3575   -0.2823   -4.9716 C   0  0  0  0  0  0  0  0  0  0  0  0
    3.9006   -1.0517   -5.6307 H   0  0  0  0  0  0  0  0  0  0  0  0
    5.3290   -0.6827   -4.6222 H   0  0  0  0  0  0  0  0  0  0  0  0
    4.5575    0.6052   -5.6053 H   0  0  0  0  0  0  0  0  0  0  0  0
  2 30  1  0  0  0  0
  3  1  1  0  0  0  0
  3  4  1  0  0  0  0
  4  5  1  0  0  0  0
  6  4  2  0  0  0  0
  6  7  1  0  0  0  0
  8  6  1  0  0  0  0
  9  8  1  0  0  0  0
 10 12  1  0  0  0  0
 10  8  2  0  0  0  0
 11 10  1  0  0  0  0
 12  3  2  0  0  0  0
 13 12  1  0  0  0  0
 14 15  1  6  0  0  0
 14 16  1  0  0  0  0
 14 41  1  0  0  0  0
 14  1  1  0  0  0  0
 16 17  1  0  0  0  0
 17 19  2  0  0  0  0
 17 18  1  0  0  0  0
 19 20  1  0  0  0  0
 21 26  1  0  0  0  0
 21 19  1  0  0  0  0
 22 21  2  0  0  0  0
 23 22  1  0  0  0  0
 24 22  1  0  0  0  0
 24 16  2  0  0  0  0
 25 24  1  0  0  0  0
 26 27  1  0  0  0  0
 26 29  1  0  0  0  0
 28 26  1  0  0  0  0
 30 31  1  0  0  0  0
 31 32  1  0  0  0  0
 31 33  2  0  0  0  0
 33 34  1  0  0  0  0
 35 33  1  0  0  0  0
 35 36  1  0  0  0  0
 37 35  2  0  0  0  0
 38 37  1  0  0  0  0
 39 30  2  0  0  0  0
 39 37  1  0  0  0  0
 40 39  1  0  0  0  0
 41 42  1  1  0  0  0
 41  2  1  0  0  0  0
 43 51  1  0  0  0  0
 43 41  1  0  0  0  0
 44 43  2  0  0  0  0
 45 44  1  0  0  0  0
 46 48  2  0  0  0  0
 46 44  1  0  0  0  0
 47 46  1  0  0  0  0
 48 49  1  0  0  0  0
 49 50  1  0  0  0  0
 49 51  2  0  0  0  0
 51 52  1  0  0  0  0
 53 55  1  0  0  0  0
 53 48  1  0  0  0  0
 54 53  1  0  0  0  0
 56 53  1  0  0  0  0
M  END
