12,45
 OpenBabel05122313053D

 56 61  0  0  1  0  0  0  0  0999 V2000
   -2.4970    1.9858    0.6671 N   0  0  0  0  0  0  0  0  0  0  0  0
   -2.1397    3.0597   -0.0737 C   0  0  0  0  0  0  0  0  0  0  0  0
   -2.7809    4.3082    0.0639 C   0  0  0  0  0  0  0  0  0  0  0  0
   -2.4770    5.1634   -0.5556 H   0  0  0  0  0  0  0  0  0  0  0  0
   -3.8124    4.4403    1.0010 C   0  0  0  0  0  0  0  0  0  0  0  0
   -4.3285    5.4037    1.1262 H   0  0  0  0  0  0  0  0  0  0  0  0
   -4.1720    3.3286    1.7759 C   0  0  0  0  0  0  0  0  0  0  0  0
   -4.9699    3.3884    2.5298 H   0  0  0  0  0  0  0  0  0  0  0  0
   -3.4806    2.1247    1.5667 C   0  0  0  0  0  0  0  0  0  0  0  0
   -3.7280    1.2297    2.1636 H   0  0  0  0  0  0  0  0  0  0  0  0
    0.5293    1.8014   -2.0835 N   0  0  0  0  0  0  0  0  0  0  0  0
   -0.4635    1.6571   -1.1885 N   0  0  0  0  0  2  0  0  0  0  0  0
   -1.0252    2.8745   -1.0212 C   0  0  2  0  0  3  0  0  0  0  0  0
   -0.3563    3.8203   -1.8436 C   0  0  0  0  0  0  0  0  0  0  0  0
   -0.5607    4.8896   -1.9481 H   0  0  0  0  0  0  0  0  0  0  0  0
    0.6345    3.0956   -2.4999 C   0  0  0  0  0  0  0  0  0  0  0  0
    1.3996    3.4000   -3.2224 H   0  0  0  0  0  0  0  0  0  0  0  0
    1.4229    0.6834   -2.3439 C   0  0  0  0  0  0  0  0  0  0  0  0
    1.9746    0.9206   -3.2772 H   0  0  0  0  0  0  0  0  0  0  0  0
    0.7831   -0.1971   -2.5501 H   0  0  0  0  0  0  0  0  0  0  0  0
    2.3733    0.4127   -1.1846 C   0  0  0  0  0  0  0  0  0  0  0  0
    2.7613    1.4527   -0.3475 C   0  0  0  0  0  0  0  0  0  0  0  0
    2.3619    2.4666   -0.5061 H   0  0  0  0  0  0  0  0  0  0  0  0
    3.6640    1.2581    0.7343 C   0  0  0  0  0  0  0  0  0  0  0  0
    4.0601    2.3210    1.5974 C   0  0  0  0  0  0  0  0  0  0  0  0
    3.6515    3.3286    1.4248 H   0  0  0  0  0  0  0  0  0  0  0  0
    4.9487    2.0897    2.6365 C   0  0  0  0  0  0  0  0  0  0  0  0
    5.2502    2.9164    3.2968 H   0  0  0  0  0  0  0  0  0  0  0  0
    5.4774    0.7879    2.8570 C   0  0  0  0  0  0  0  0  0  0  0  0
    6.1819    0.6213    3.6853 H   0  0  0  0  0  0  0  0  0  0  0  0
    5.1108   -0.2669    2.0353 C   0  0  0  0  0  0  0  0  0  0  0  0
    5.5188   -1.2753    2.2037 H   0  0  0  0  0  0  0  0  0  0  0  0
    4.1989   -0.0611    0.9590 C   0  0  0  0  0  0  0  0  0  0  0  0
    3.7888   -1.1095    0.0920 C   0  0  0  0  0  0  0  0  0  0  0  0
    4.1915   -2.1203    0.2684 H   0  0  0  0  0  0  0  0  0  0  0  0
    2.8967   -0.9023   -0.9550 C   0  0  0  0  0  0  0  0  0  0  0  0
    2.4715   -2.0992   -1.7818 C   0  0  0  0  0  0  0  0  0  0  0  0
    2.0818   -1.8153   -2.7787 H   0  0  0  0  0  0  0  0  0  0  0  0
    3.3341   -2.7687   -1.9566 H   0  0  0  0  0  0  0  0  0  0  0  0
    1.4561   -2.9143   -1.1072 N   0  0  0  0  0  0  0  0  0  0  0  0
    0.2687   -2.3939   -0.7699 N   0  0  0  0  0  0  0  0  0  0  0  0
   -0.4105   -3.3958   -0.1685 C   0  0  0  0  0  0  0  0  0  0  0  0
    0.3785   -4.5808   -0.1283 C   0  0  0  0  0  0  0  0  0  0  0  0
    0.1271   -5.5572    0.2961 H   0  0  0  0  0  0  0  0  0  0  0  0
   -2.3008   -1.9451    0.3416 N   0  0  0  0  0  2  0  0  0  0  0  0
    1.5738   -4.2266   -0.7399 C   0  0  0  0  0  0  0  0  0  0  0  0
    2.4850   -4.8001   -0.9418 H   0  0  0  0  0  0  0  0  0  0  0  0
   -1.7786   -3.2004    0.3339 C   0  0  1  0  0  3  0  0  0  0  0  0
   -2.5401   -4.2967    0.7929 C   0  0  0  0  0  0  0  0  0  0  0  0
   -2.1087   -5.3061    0.7717 H   0  0  0  0  0  0  0  0  0  0  0  0
   -3.8421   -4.0940    1.2565 C   0  0  0  0  0  0  0  0  0  0  0  0
   -4.4417   -4.9438    1.6149 H   0  0  0  0  0  0  0  0  0  0  0  0
   -4.3722   -2.7950    1.2477 C   0  0  0  0  0  0  0  0  0  0  0  0
   -5.3936   -2.5855    1.5944 H   0  0  0  0  0  0  0  0  0  0  0  0
   -3.5639   -1.7552    0.7792 C   0  0  0  0  0  0  0  0  0  0  0  0
   -3.9352   -0.7195    0.7469 H   0  0  0  0  0  0  0  0  0  0  0  0
  1  9  1  0  0  0  0
  2  3  1  0  0  0  0
  2  1  2  0  0  0  0
  3  5  2  0  0  0  0
  4  3  1  0  0  0  0
  5  6  1  0  0  0  0
  5  7  1  0  0  0  0
  7  8  1  0  0  0  0
  9  7  2  0  0  0  0
  9 10  1  0  0  0  0
 11 12  1  0  0  0  0
 12 13  1  0  0  0  0
 13  2  1  1  0  0  0
 14 13  1  0  0  0  0
 15 14  1  0  0  0  0
 16 11  1  0  0  0  0
 16 14  2  0  0  0  0
 17 16  1  0  0  0  0
 18 11  1  0  0  0  0
 18 21  1  0  0  0  0
 19 18  1  0  0  0  0
 20 18  1  0  0  0  0
 21 36  2  0  0  0  0
 21 22  1  0  0  0  0
 22 24  2  0  0  0  0
 23 22  1  0  0  0  0
 24 33  1  0  0  0  0
 24 25  1  0  0  0  0
 25 27  2  0  0  0  0
 26 25  1  0  0  0  0
 27 29  1  0  0  0  0
 27 28  1  0  0  0  0
 29 30  1  0  0  0  0
 31 32  1  0  0  0  0
 31 29  2  0  0  0  0
 33 31  1  0  0  0  0
 34 35  1  0  0  0  0
 34 33  2  0  0  0  0
 36 34  1  0  0  0  0
 37 40  1  0  0  0  0
 37 36  1  0  0  0  0
 38 37  1  0  0  0  0
 39 37  1  0  0  0  0
 40 41  1  0  0  0  0
 40 46  1  0  0  0  0
 41 42  2  0  0  0  0
 42 43  1  0  0  0  0
 43 44  1  0  0  0  0
 45 55  1  0  0  0  0
 46 43  2  0  0  0  0
 47 46  1  0  0  0  0
 48 42  1  6  0  0  0
 48 45  1  0  0  0  0
 48 49  1  0  0  0  0
 49 51  2  0  0  0  0
 50 49  1  0  0  0  0
 51 52  1  0  0  0  0
 53 51  1  0  0  0  0
 53 54  1  0  0  0  0
 55 53  2  0  0  0  0
 56 55  1  0  0  0  0
M  END
