1,2
 OpenBabel05122313053D

 36 35  0  0  1  0  0  0  0  0999 V2000
    1.6855    0.3340   -0.4487 N   0  0  0  0  0  2  0  0  0  0  0  0
    0.1587    1.9060    0.0284 N   0  0  0  0  0  2  0  0  0  0  0  0
    1.4434    1.6458   -0.2751 C   0  0  2  0  0  3  0  0  0  0  0  0
    2.5436    2.6728   -0.4605 C   0  0  0  0  0  0  0  0  0  0  0  0
    3.4423    2.3702    0.1091 H   0  0  0  0  0  0  0  0  0  0  0  0
    2.2490    3.6783   -0.1297 H   0  0  0  0  0  0  0  0  0  0  0  0
    2.8369    2.7331   -1.5284 H   0  0  0  0  0  0  0  0  0  0  0  0
    2.9689   -0.1681   -0.8929 C   0  0  0  0  0  0  0  0  0  0  0  0
    3.6269    0.6556   -1.2444 H   0  0  0  0  0  0  0  0  0  0  0  0
    2.8087   -0.8249   -1.7751 H   0  0  0  0  0  0  0  0  0  0  0  0
    3.7681   -0.9916    0.1612 C   0  0  0  0  0  0  0  0  0  0  0  0
    3.8954   -0.2021    1.4737 C   0  0  0  0  0  0  0  0  0  0  0  0
    4.4355   -0.7940    2.2410 H   0  0  0  0  0  0  0  0  0  0  0  0
    2.8964    0.0569    1.8791 H   0  0  0  0  0  0  0  0  0  0  0  0
    4.4610    0.7419    1.3259 H   0  0  0  0  0  0  0  0  0  0  0  0
    5.1652   -1.2651   -0.4203 C   0  0  0  0  0  0  0  0  0  0  0  0
    5.7267   -0.3220   -0.5876 H   0  0  0  0  0  0  0  0  0  0  0  0
    5.0968   -1.7960   -1.3927 H   0  0  0  0  0  0  0  0  0  0  0  0
    5.7644   -1.8976    0.2666 H   0  0  0  0  0  0  0  0  0  0  0  0
    3.0553   -2.3268    0.4226 C   0  0  0  0  0  0  0  0  0  0  0  0
    3.5537   -2.8969    1.2337 H   0  0  0  0  0  0  0  0  0  0  0  0
    3.0500   -2.9601   -0.4879 H   0  0  0  0  0  0  0  0  0  0  0  0
    2.0044   -2.1546    0.7177 H   0  0  0  0  0  0  0  0  0  0  0  0
   -0.4337    3.2560    0.1406 C   0  0  0  0  0  0  0  0  0  0  0  0
    0.1042    4.0075    1.3801 C   0  0  0  0  0  0  0  0  0  0  0  0
   -0.4279    4.9723    1.5061 H   0  0  0  0  0  0  0  0  0  0  0  0
    1.1862    4.2312    1.3247 H   0  0  0  0  0  0  0  0  0  0  0  0
   -0.0657    3.3998    2.2914 H   0  0  0  0  0  0  0  0  0  0  0  0
   -0.2487    4.0836   -1.1537 C   0  0  0  0  0  0  0  0  0  0  0  0
   -0.8102    5.0373   -1.0822 H   0  0  0  0  0  0  0  0  0  0  0  0
   -0.6462    3.5177   -2.0197 H   0  0  0  0  0  0  0  0  0  0  0  0
    0.8057    4.3379   -1.3664 H   0  0  0  0  0  0  0  0  0  0  0  0
   -1.9494    3.0815    0.3427 C   0  0  0  0  0  0  0  0  0  0  0  0
   -2.1579    2.5319    1.2761 H   0  0  0  0  0  0  0  0  0  0  0  0
   -2.3963    2.5225   -0.4993 H   0  0  0  0  0  0  0  0  0  0  0  0
   -2.4455    4.0700    0.4065 H   0  0  0  0  0  0  0  0  0  0  0  0
  2 24  1  0  0  0  0
  3  1  1  6  0  0  0
  3  2  1  0  0  0  0
  4  3  1  0  0  0  0
  4  6  1  0  0  0  0
  4  5  1  0  0  0  0
  7  4  1  0  0  0  0
  8  1  1  0  0  0  0
  8 11  1  0  0  0  0
  9  8  1  0  0  0  0
 10  8  1  0  0  0  0
 11 20  1  0  0  0  0
 11 12  1  0  0  0  0
 12 14  1  0  0  0  0
 12 13  1  0  0  0  0
 15 12  1  0  0  0  0
 16 11  1  0  0  0  0
 16 19  1  0  0  0  0
 17 16  1  0  0  0  0
 18 16  1  0  0  0  0
 20 23  1  0  0  0  0
 20 21  1  0  0  0  0
 22 20  1  0  0  0  0
 24 33  1  0  0  0  0
 24 25  1  0  0  0  0
 25 26  1  0  0  0  0
 25 28  1  0  0  0  0
 27 25  1  0  0  0  0
 29 30  1  0  0  0  0
 29 24  1  0  0  0  0
 31 29  1  0  0  0  0
 32 29  1  0  0  0  0
 33 36  1  0  0  0  0
 33 34  1  0  0  0  0
 35 33  1  0  0  0  0
M  END
