2,3
 OpenBabel05122313053D

 30 31  0  0  0  0  0  0  0  0999 V2000
    2.2264    0.0371   -0.4902 S   0  0  0  0  0  0  0  0  0  0  0  0
   -1.9098   -0.0879   -0.6109 N   0  0  0  0  0  2  0  0  0  0  0  0
   -0.1849   -0.8645    1.4785 N   0  0  0  0  0  2  0  0  0  0  0  0
   -1.9500    0.0235   -1.9512 C   0  0  0  0  0  3  0  0  0  0  0  0
   -1.2962    0.8057   -2.3714 H   0  0  0  0  0  0  0  0  0  0  0  0
   -2.7897   -0.7768   -2.7364 C   0  0  0  0  0  0  0  0  0  0  0  0
   -2.7955   -0.6594   -3.8295 H   0  0  0  0  0  0  0  0  0  0  0  0
   -3.6127   -1.7147   -2.0973 C   0  0  0  0  0  0  0  0  0  0  0  0
   -4.2821   -2.3642   -2.6816 H   0  0  0  0  0  0  0  0  0  0  0  0
   -3.5848   -1.8034   -0.6977 C   0  0  0  0  0  0  0  0  0  0  0  0
   -4.2383   -2.5081   -0.1626 H   0  0  0  0  0  0  0  0  0  0  0  0
   -2.7234   -0.9640    0.0286 C   0  0  0  0  0  0  0  0  0  0  0  0
   -2.6784   -0.9276    1.5377 C   0  0  0  0  0  0  0  0  0  0  0  0
   -3.5042   -1.5346    1.9594 H   0  0  0  0  0  0  0  0  0  0  0  0
   -2.8486    0.1290    1.8365 H   0  0  0  0  0  0  0  0  0  0  0  0
   -1.3527   -1.4021    2.1714 C   0  0  0  0  0  0  0  0  0  0  0  0
   -1.3354   -1.0532    3.2271 H   0  0  0  0  0  0  0  0  0  0  0  0
   -1.3092   -2.5145    2.1843 H   0  0  0  0  0  0  0  0  0  0  0  0
    0.8500   -1.6438    1.3148 C   0  0  0  0  0  3  0  0  0  0  0  0
    0.8264   -2.6539    1.7760 H   0  0  0  0  0  0  0  0  0  0  0  0
    2.0333   -1.3597    0.5568 C   0  0  0  0  0  0  0  0  0  0  0  0
    3.1555   -2.1943    0.4908 C   0  0  0  0  0  0  0  0  0  0  0  0
    3.2299   -3.1273    1.0675 H   0  0  0  0  0  0  0  0  0  0  0  0
    4.1609   -1.7076   -0.3780 C   0  0  0  0  0  0  0  0  0  0  0  0
    5.1204   -2.2128   -0.5591 H   0  0  0  0  0  0  0  0  0  0  0  0
    3.8092   -0.5112   -0.9960 C   0  0  0  0  0  0  0  0  0  0  0  0
    4.6110    0.2976   -1.9657 C   0  0  0  0  0  0  0  0  0  0  0  0
    4.8773    1.2905   -1.5464 H   0  0  0  0  0  0  0  0  0  0  0  0
    4.0528    0.4851   -2.9063 H   0  0  0  0  0  0  0  0  0  0  0  0
    5.5505   -0.2291   -2.2208 H   0  0  0  0  0  0  0  0  0  0  0  0
  1 21  1  0  0  0  0
  2 12  1  0  0  0  0
  3 16  1  0  0  0  0
  4  2  1  0  0  0  0
  5  4  1  0  0  0  0
  6  8  2  0  0  0  0
  6  4  1  0  0  0  0
  7  6  1  0  0  0  0
  8 10  1  0  0  0  0
  9  8  1  0  0  0  0
 10 11  1  0  0  0  0
 10 12  2  0  0  0  0
 12 13  1  0  0  0  0
 13 15  1  0  0  0  0
 13 14  1  0  0  0  0
 13 16  1  0  0  0  0
 16 18  1  0  0  0  0
 16 17  1  0  0  0  0
 19  3  1  0  0  0  0
 19 20  1  0  0  0  0
 21 19  1  0  0  0  0
 22 21  2  0  0  0  0
 22 23  1  0  0  0  0
 24 22  1  0  0  0  0
 25 24  1  0  0  0  0
 26  1  1  0  0  0  0
 26 24  2  0  0  0  0
 27 28  1  0  0  0  0
 27 26  1  0  0  0  0
 29 27  1  0  0  0  0
 30 27  1  0  0  0  0
M  END
