3,34
 OpenBabel05122313053D

 64 69  0  0  1  0  0  0  0  0999 V2000
   -0.0000   -3.6054   -0.0000 O   0  0  0  0  0  0  0  0  0  0  0  0
   -0.0000   -2.3593   -0.0000 C   0  0  0  0  0  0  0  0  0  0  0  0
    1.4611   -0.2922   -0.1808 N   0  0  0  0  0  2  0  0  0  0  0  0
    2.5006   -2.2549    0.0342 N   0  0  0  0  0  0  0  0  0  0  0  0
    1.2736   -1.6188   -0.0540 C   0  0  1  0  0  3  0  0  0  0  0  0
    3.4805   -1.2826   -0.0265 C   0  0  0  0  0  0  0  0  0  0  0  0
    2.8067   -0.0505   -0.1635 C   0  0  0  0  0  0  0  0  0  0  0  0
    2.7463   -3.6941    0.0741 C   0  0  0  0  0  0  0  0  0  0  0  0
    2.3874   -4.1250    1.0274 H   0  0  0  0  0  0  0  0  0  0  0  0
    3.8325   -3.8612   -0.0297 H   0  0  0  0  0  0  0  0  0  0  0  0
    2.1975   -4.1919   -0.7429 H   0  0  0  0  0  0  0  0  0  0  0  0
    4.9268   -1.5514    0.0136 C   0  0  0  0  0  0  0  0  0  0  0  0
    5.5150   -2.2829    1.0710 C   0  0  0  0  0  0  0  0  0  0  0  0
    4.8836   -2.6613    1.8891 H   0  0  0  0  0  0  0  0  0  0  0  0
    6.9003   -2.4967    1.1015 C   0  0  0  0  0  0  0  0  0  0  0  0
    7.3462   -3.0621    1.9336 H   0  0  0  0  0  0  0  0  0  0  0  0
    7.7163   -1.9789    0.0835 C   0  0  0  0  0  0  0  0  0  0  0  0
    8.8038   -2.1445    0.1109 H   0  0  0  0  0  0  0  0  0  0  0  0
    7.1417   -1.2430   -0.9660 C   0  0  0  0  0  0  0  0  0  0  0  0
    7.7772   -0.8315   -1.7643 H   0  0  0  0  0  0  0  0  0  0  0  0
    5.7584   -1.0290   -1.0031 C   0  0  0  0  0  0  0  0  0  0  0  0
    5.3060   -0.4492   -1.8207 H   0  0  0  0  0  0  0  0  0  0  0  0
    3.3832    1.3000   -0.2509 C   0  0  0  0  0  0  0  0  0  0  0  0
    2.8062    2.2609   -1.1092 C   0  0  0  0  0  0  0  0  0  0  0  0
    1.9276    2.0067   -1.7247 H   0  0  0  0  0  0  0  0  0  0  0  0
    3.3349    3.5564   -1.1690 C   0  0  0  0  0  0  0  0  0  0  0  0
    2.8600    4.2968   -1.8299 H   0  0  0  0  0  0  0  0  0  0  0  0
    4.4462    3.9064   -0.3873 C   0  0  0  0  0  0  0  0  0  0  0  0
    4.8569    4.9266   -0.4342 H   0  0  0  0  0  0  0  0  0  0  0  0
    5.0267    2.9531    0.4660 C   0  0  0  0  0  0  0  0  0  0  0  0
    5.8879    3.2257    1.0948 H   0  0  0  0  0  0  0  0  0  0  0  0
    4.4992    1.6586    0.5378 C   0  0  0  0  0  0  0  0  0  0  0  0
    4.9361    0.9257    1.2313 H   0  0  0  0  0  0  0  0  0  0  0  0
   -1.4611   -0.2922    0.1809 N   0  0  0  0  0  2  0  0  0  0  0  0
   -2.5006   -2.2549   -0.0342 N   0  0  0  0  0  0  0  0  0  0  0  0
   -1.2736   -1.6187    0.0540 C   0  0  1  0  0  3  0  0  0  0  0  0
   -3.4805   -1.2826    0.0265 C   0  0  0  0  0  0  0  0  0  0  0  0
   -2.8067   -0.0505    0.1635 C   0  0  0  0  0  0  0  0  0  0  0  0
   -2.7463   -3.6941   -0.0741 C   0  0  0  0  0  0  0  0  0  0  0  0
   -3.8325   -3.8612    0.0296 H   0  0  0  0  0  0  0  0  0  0  0  0
   -2.1977   -4.1918    0.7430 H   0  0  0  0  0  0  0  0  0  0  0  0
   -2.3873   -4.1251   -1.0274 H   0  0  0  0  0  0  0  0  0  0  0  0
   -4.9268   -1.5514   -0.0136 C   0  0  0  0  0  0  0  0  0  0  0  0
   -5.5151   -2.2829   -1.0711 C   0  0  0  0  0  0  0  0  0  0  0  0
   -4.8837   -2.6612   -1.8892 H   0  0  0  0  0  0  0  0  0  0  0  0
   -6.9003   -2.4967   -1.1015 C   0  0  0  0  0  0  0  0  0  0  0  0
   -7.3463   -3.0621   -1.9336 H   0  0  0  0  0  0  0  0  0  0  0  0
   -7.7163   -1.9789   -0.0834 C   0  0  0  0  0  0  0  0  0  0  0  0
   -8.8038   -2.1445   -0.1108 H   0  0  0  0  0  0  0  0  0  0  0  0
   -7.1417   -1.2431    0.9660 C   0  0  0  0  0  0  0  0  0  0  0  0
   -7.7772   -0.8315    1.7644 H   0  0  0  0  0  0  0  0  0  0  0  0
   -5.7584   -1.0290    1.0031 C   0  0  0  0  0  0  0  0  0  0  0  0
   -5.3060   -0.4492    1.8207 H   0  0  0  0  0  0  0  0  0  0  0  0
   -3.3832    1.3000    0.2509 C   0  0  0  0  0  0  0  0  0  0  0  0
   -2.8062    2.2609    1.1092 C   0  0  0  0  0  0  0  0  0  0  0  0
   -1.9276    2.0067    1.7248 H   0  0  0  0  0  0  0  0  0  0  0  0
   -3.3349    3.5565    1.1690 C   0  0  0  0  0  0  0  0  0  0  0  0
   -2.8599    4.2969    1.8299 H   0  0  0  0  0  0  0  0  0  0  0  0
   -4.4462    3.9065    0.3874 C   0  0  0  0  0  0  0  0  0  0  0  0
   -4.8569    4.9267    0.4342 H   0  0  0  0  0  0  0  0  0  0  0  0
   -5.0267    2.9532   -0.4659 C   0  0  0  0  0  0  0  0  0  0  0  0
   -5.8879    3.2257   -1.0947 H   0  0  0  0  0  0  0  0  0  0  0  0
   -4.4992    1.6586   -0.5378 C   0  0  0  0  0  0  0  0  0  0  0  0
   -4.9361    0.9257   -1.2313 H   0  0  0  0  0  0  0  0  0  0  0  0
  1  2  2  0  0  0  0
  3  7  1  0  0  0  0
  3  5  1  0  0  0  0
  4  8  1  0  0  0  0
  5  2  1  1  0  0  0
  5  4  1  0  0  0  0
  6 12  1  0  0  0  0
  6  4  1  0  0  0  0
  7  6  2  0  0  0  0
  8  9  1  0  0  0  0
 10  8  1  0  0  0  0
 11  8  1  0  0  0  0
 12 13  1  0  0  0  0
 13 15  2  0  0  0  0
 13 14  1  0  0  0  0
 15 16  1  0  0  0  0
 17 18  1  0  0  0  0
 17 15  1  0  0  0  0
 19 17  2  0  0  0  0
 20 19  1  0  0  0  0
 21 19  1  0  0  0  0
 21 12  2  0  0  0  0
 22 21  1  0  0  0  0
 23  7  1  0  0  0  0
 23 32  1  0  0  0  0
 24 23  2  0  0  0  0
 25 24  1  0  0  0  0
 26 24  1  0  0  0  0
 26 28  2  0  0  0  0
 27 26  1  0  0  0  0
 28 30  1  0  0  0  0
 29 28  1  0  0  0  0
 30 32  2  0  0  0  0
 30 31  1  0  0  0  0
 32 33  1  0  0  0  0
 35 37  1  0  0  0  0
 35 36  1  0  0  0  0
 36  2  1  6  0  0  0
 36 34  1  0  0  0  0
 37 38  2  0  0  0  0
 38 34  1  0  0  0  0
 38 54  1  0  0  0  0
 39 35  1  0  0  0  0
 39 40  1  0  0  0  0
 39 41  1  0  0  0  0
 42 39  1  0  0  0  0
 43 37  1  0  0  0  0
 43 52  1  0  0  0  0
 44 43  2  0  0  0  0
 45 44  1  0  0  0  0
 46 44  1  0  0  0  0
 46 48  2  0  0  0  0
 47 46  1  0  0  0  0
 48 50  1  0  0  0  0
 49 48  1  0  0  0  0
 50 52  2  0  0  0  0
 50 51  1  0  0  0  0
 52 53  1  0  0  0  0
 54 55  1  0  0  0  0
 55 57  2  0  0  0  0
 55 56  1  0  0  0  0
 57 58  1  0  0  0  0
 59 60  1  0  0  0  0
 59 57  1  0  0  0  0
 61 59  2  0  0  0  0
 62 61  1  0  0  0  0
 63 61  1  0  0  0  0
 63 54  2  0  0  0  0
 64 63  1  0  0  0  0
M  END
