1,13
q = 0.0, confidence = 0.994

 26 27  0  0  0  0  0  0  0  0999 V2000
   -1.7096    1.3644   -0.3633 N   0  0  0  0  0  2  0  0  0  0  0  0
   -2.8926    1.6807    0.2033 C   0  0  0  0  0  3  0  0  0  0  0  0
   -2.9019    1.6399    1.3049 H   0  0  0  0  0  0  0  0  0  0  0  0
   -4.0126    2.0373   -0.5566 C   0  0  0  0  0  0  0  0  0  0  0  0
   -4.9548    2.2631   -0.0382 H   0  0  0  0  0  0  0  0  0  0  0  0
   -3.9134    2.0935   -1.9581 C   0  0  0  0  0  0  0  0  0  0  0  0
   -4.7823    2.3665   -2.5746 H   0  0  0  0  0  0  0  0  0  0  0  0
   -2.6794    1.8130   -2.5513 C   0  0  0  0  0  0  0  0  0  0  0  0
   -2.5379    1.8671   -3.6405 H   0  0  0  0  0  0  0  0  0  0  0  0
   -1.5920    1.4578   -1.7308 C   0  0  0  0  0  0  0  0  0  0  0  0
   -0.2625    1.1556   -2.1891 C   0  0  0  0  0  3  0  0  0  0  0  0
    0.0393    1.2178   -3.2480 H   0  0  0  0  0  0  0  0  0  0  0  0
    0.5774    0.8032   -1.2417 N   0  0  0  0  0  2  0  0  0  0  0  0
    1.9569    0.6204   -1.4866 C   0  0  0  0  0  0  0  0  0  0  0  0
    2.7667    1.7401   -1.7742 C   0  0  0  0  0  0  0  0  0  0  0  0
    2.2867    2.7262   -1.8446 H   0  0  0  0  0  0  0  0  0  0  0  0
    4.1592    1.5879   -1.8717 C   0  0  0  0  0  0  0  0  0  0  0  0
    4.7858    2.4652   -2.0901 H   0  0  0  0  0  0  0  0  0  0  0  0
    4.7611    0.3399   -1.6613 C   0  0  0  0  0  0  0  0  0  0  0  0
    5.8478    0.1919   -1.7034 H   0  0  0  0  0  0  0  0  0  0  0  0
    3.9329   -0.7513   -1.3627 C   0  0  0  0  0  0  0  0  0  0  0  0
    2.5429   -0.6403   -1.2882 C   0  0  0  0  0  0  0  0  0  0  0  0
    1.9442   -1.5242   -1.0422 H   0  0  0  0  0  0  0  0  0  0  0  0
    4.5456   -2.0674   -1.0590 N   0  0  0  0  0  0  0  0  0  0  0  0
    5.7673   -2.1620   -1.1594 O   0  0  0  0  0  0  0  0  0  0  0  0
    3.7903   -2.9777   -0.7094 O   0  0  0  0  0  0  0  0  0  0  0  0
  1  2  1  0  0  0  0
  2  3  1  0  0  0  0
  4  5  1  0  0  0  0
  4  2  1  0  0  0  0
  6  4  2  0  0  0  0
  7  6  1  0  0  0  0
  8  6  1  0  0  0  0
  8 10  2  0  0  0  0
  9  8  1  0  0  0  0
 10  1  1  0  0  0  0
 11 10  1  0  0  0  0
 11 13  1  0  0  0  0
 12 11  1  0  0  0  0
 14 22  1  0  0  0  0
 14 13  1  0  0  0  0
 15 14  2  0  0  0  0
 16 15  1  0  0  0  0
 17 15  1  0  0  0  0
 17 19  2  0  0  0  0
 18 17  1  0  0  0  0
 19 21  1  0  0  0  0
 20 19  1  0  0  0  0
 21 22  2  0  0  0  0
 21 24  1  0  0  0  0
 22 23  1  0  0  0  0
 24 26  2  0  0  0  0
 25 24  2  0  0  0  0
M  END
