1,10
 OpenBabel05122313053D

 20 22  0  0  0  0  0  0  0  0999 V2000
   -0.0862   -1.3778    0.0000 N   0  0  0  0  0  2  0  0  0  0  0  0
   -0.0384   -2.7163    0.0001 C   0  0  0  0  0  0  0  0  0  0  0  0
   -1.0130   -3.2303    0.0001 H   0  0  0  0  0  0  0  0  0  0  0  0
    1.1066    0.7128    0.0001 C   0  0  0  0  0  0  0  0  0  0  0  0
    3.5691    0.6451   -0.0001 N   0  0  0  0  0  0  0  0  0  0  0  0
    1.1758   -3.4459    0.0001 C   0  0  0  0  0  0  0  0  0  0  0  0
    1.1365   -4.5448    0.0001 H   0  0  0  0  0  0  0  0  0  0  0  0
    1.1066   -0.7128    0.0001 C   0  0  0  0  0  0  0  0  0  0  0  0
    2.3726   -1.3546    0.0000 C   0  0  0  0  0  0  0  0  0  0  0  0
   -0.0862    1.3778    0.0002 N   0  0  0  0  0  2  0  0  0  0  0  0
   -0.0384    2.7163    0.0001 C   0  0  0  0  0  0  0  0  0  0  0  0
   -1.0130    3.2303    0.0002 H   0  0  0  0  0  0  0  0  0  0  0  0
    2.3726    1.3546   -0.0001 C   0  0  0  0  0  0  0  0  0  0  0  0
    2.3946    2.7726   -0.0001 C   0  0  0  0  0  0  0  0  0  0  0  0
    3.3657    3.2882   -0.0003 H   0  0  0  0  0  0  0  0  0  0  0  0
    2.3946   -2.7726    0.0000 C   0  0  0  0  0  0  0  0  0  0  0  0
    3.3657   -3.2882    0.0000 H   0  0  0  0  0  0  0  0  0  0  0  0
    3.5691   -0.6451   -0.0001 N   0  0  0  0  0  0  0  0  0  0  0  0
    1.1758    3.4459   -0.0001 C   0  0  0  0  0  0  0  0  0  0  0  0
    1.1365    4.5448   -0.0001 H   0  0  0  0  0  0  0  0  0  0  0  0
  1  8  1  0  0  0  0
  1  2  1  0  0  0  0
  2  6  2  0  0  0  0
  3  2  1  0  0  0  0
  4 10  1  0  0  0  0
  5 13  1  0  0  0  0
  5 18  2  0  0  0  0
  6  7  1  0  0  0  0
  8  4  2  0  0  0  0
  9 16  2  0  0  0  0
  9  8  1  0  0  0  0
 11 10  1  0  0  0  0
 11 12  1  0  0  0  0
 13  4  1  0  0  0  0
 14 19  1  0  0  0  0
 14 13  2  0  0  0  0
 15 14  1  0  0  0  0
 16  6  1  0  0  0  0
 17 16  1  0  0  0  0
 18  9  1  0  0  0  0
 19 11  2  0  0  0  0
 20 19  1  0  0  0  0
M  END
