1,37
 OpenBabel05122313053D

 68 74  0  0  0  0  0  0  0  0999 V2000
   -0.6835    1.0335   -0.7652 N   0  0  0  0  0  2  0  0  0  0  0  0
   -1.8794    0.6101   -0.4054 C   0  0  0  0  0  0  0  0  0  0  0  0
   -3.2663    1.0350   -0.5997 C   0  0  0  0  0  0  0  0  0  0  0  0
   -3.9129    2.1172   -1.1927 C   0  0  0  0  0  0  0  0  0  0  0  0
   -5.3368    2.1421   -1.1856 C   0  0  0  0  0  0  0  0  0  0  0  0
   -6.1031    1.1223   -0.6192 C   0  0  0  0  0  0  0  0  0  0  0  0
   -5.4711   -0.0000    0.0001 C   0  0  0  0  0  0  0  0  0  0  0  0
   -4.0565   -0.0000    0.0001 C   0  0  0  0  0  0  0  0  0  0  0  0
   -0.5273    2.2545   -1.4768 C   0  0  0  0  0  0  0  0  0  0  0  0
   -0.9119    2.3388   -2.8375 C   0  0  0  0  0  0  0  0  0  0  0  0
   -0.7348    3.5744   -3.4874 C   0  0  0  0  0  0  0  0  0  0  0  0
   -0.1756    4.6775   -2.8270 C   0  0  0  0  0  0  0  0  0  0  0  0
    0.2467    4.5582   -1.4976 C   0  0  0  0  0  0  0  0  0  0  0  0
    0.0821    3.3449   -0.8066 C   0  0  0  0  0  0  0  0  0  0  0  0
   -1.4212    1.1298   -3.5735 C   0  0  0  0  0  0  0  0  0  0  0  0
    0.6251    3.1572    0.5634 C   0  0  0  0  0  0  0  0  0  0  0  0
   -0.1675    2.7383    1.6501 C   0  0  0  0  0  0  0  0  0  0  0  0
    0.3865    2.4596    2.9063 C   0  0  0  0  0  0  0  0  0  0  0  0
    1.7681    2.5967    3.1037 C   0  0  0  0  0  0  0  0  0  0  0  0
    2.5813    3.0451    2.0501 C   0  0  0  0  0  0  0  0  0  0  0  0
    2.0049    3.3324    0.8037 C   0  0  0  0  0  0  0  0  0  0  0  0
   -1.4994    2.6097    1.5115 F   0  0  0  0  0  0  0  0  0  0  0  0
   -0.3936    2.0441    3.9143 F   0  0  0  0  0  0  0  0  0  0  0  0
    2.3034    2.3137    4.2891 F   0  0  0  0  0  0  0  0  0  0  0  0
    3.8936    3.1808    2.2358 F   0  0  0  0  0  0  0  0  0  0  0  0
    2.8090    3.7464   -0.1778 F   0  0  0  0  0  0  0  0  0  0  0  0
   -3.3455    2.9360   -1.6569 H   0  0  0  0  0  0  0  0  0  0  0  0
   -5.8482    2.9981   -1.6508 H   0  0  0  0  0  0  0  0  0  0  0  0
   -7.2021    1.1792   -0.6465 H   0  0  0  0  0  0  0  0  0  0  0  0
   -1.0220    3.6571   -4.5472 H   0  0  0  0  0  0  0  0  0  0  0  0
   -0.0442    5.6300   -3.3613 H   0  0  0  0  0  0  0  0  0  0  0  0
    0.7211    5.4060   -0.9833 H   0  0  0  0  0  0  0  0  0  0  0  0
   -1.4907    1.3319   -4.6587 H   0  0  0  0  0  0  0  0  0  0  0  0
   -0.7441    0.2661   -3.4263 H   0  0  0  0  0  0  0  0  0  0  0  0
   -2.4260    0.8127   -3.2252 H   0  0  0  0  0  0  0  0  0  0  0  0
   -1.8793   -0.6101    0.4056 C   0  0  0  0  0  0  0  0  0  0  0  0
   -0.6834   -1.0335    0.7653 N   0  0  0  0  0  2  0  0  0  0  0  0
   -0.5272   -2.2545    1.4768 C   0  0  0  0  0  0  0  0  0  0  0  0
   -0.9116   -2.3388    2.8376 C   0  0  0  0  0  0  0  0  0  0  0  0
   -0.7344   -3.5745    3.4875 C   0  0  0  0  0  0  0  0  0  0  0  0
   -0.1753   -4.6776    2.8270 C   0  0  0  0  0  0  0  0  0  0  0  0
    0.2469   -4.5582    1.4975 C   0  0  0  0  0  0  0  0  0  0  0  0
    0.0822   -3.3449    0.8066 C   0  0  0  0  0  0  0  0  0  0  0  0
    0.6251   -3.1571   -0.5635 C   0  0  0  0  0  0  0  0  0  0  0  0
   -0.1676   -2.7382   -1.6501 C   0  0  0  0  0  0  0  0  0  0  0  0
    0.3864   -2.4595   -2.9064 C   0  0  0  0  0  0  0  0  0  0  0  0
    1.7679   -2.5966   -3.1038 C   0  0  0  0  0  0  0  0  0  0  0  0
    2.5811   -3.0450   -2.0503 C   0  0  0  0  0  0  0  0  0  0  0  0
    2.0048   -3.3324   -0.8038 C   0  0  0  0  0  0  0  0  0  0  0  0
    2.8090   -3.7464    0.1775 F   0  0  0  0  0  0  0  0  0  0  0  0
    3.8934   -3.1808   -2.2361 F   0  0  0  0  0  0  0  0  0  0  0  0
    2.3031   -2.3135   -4.2893 F   0  0  0  0  0  0  0  0  0  0  0  0
   -0.3938   -2.0440   -3.9142 F   0  0  0  0  0  0  0  0  0  0  0  0
   -1.4994   -2.6098   -1.5115 F   0  0  0  0  0  0  0  0  0  0  0  0
    0.7213   -5.4059    0.9832 H   0  0  0  0  0  0  0  0  0  0  0  0
   -0.0439   -5.6301    3.3612 H   0  0  0  0  0  0  0  0  0  0  0  0
   -1.0215   -3.6572    4.5472 H   0  0  0  0  0  0  0  0  0  0  0  0
   -1.4207   -1.1298    3.5738 C   0  0  0  0  0  0  0  0  0  0  0  0
   -1.4914   -1.3325    4.6588 H   0  0  0  0  0  0  0  0  0  0  0  0
   -0.7426   -0.2667    3.4277 H   0  0  0  0  0  0  0  0  0  0  0  0
   -2.4248   -0.8116    3.2246 H   0  0  0  0  0  0  0  0  0  0  0  0
   -3.2662   -1.0350    0.5998 C   0  0  0  0  0  0  0  0  0  0  0  0
   -3.9129   -2.1173    1.1929 C   0  0  0  0  0  0  0  0  0  0  0  0
   -5.3367   -2.1421    1.1859 C   0  0  0  0  0  0  0  0  0  0  0  0
   -6.1031   -1.1224    0.6195 C   0  0  0  0  0  0  0  0  0  0  0  0
   -7.2021   -1.1793    0.6468 H   0  0  0  0  0  0  0  0  0  0  0  0
   -5.8481   -2.9982    1.6511 H   0  0  0  0  0  0  0  0  0  0  0  0
   -3.3454   -2.9360    1.6571 H   0  0  0  0  0  0  0  0  0  0  0  0
  1  2  1  0  0  0  0
  2 36  2  0  0  0  0
  3  2  1  0  0  0  0
  3  8  1  0  0  0  0
  4  5  1  0  0  0  0
  4  3  2  0  0  0  0
  5  6  2  0  0  0  0
  6  7  1  0  0  0  0
  7 65  1  0  0  0  0
  8  7  2  0  0  0  0
  8 62  1  0  0  0  0
  9 14  1  0  0  0  0
  9  1  1  0  0  0  0
 10  9  2  0  0  0  0
 11 10  1  0  0  0  0
 11 12  2  0  0  0  0
 12 13  1  0  0  0  0
 13 32  1  0  0  0  0
 13 14  2  0  0  0  0
 14 16  1  0  0  0  0
 15 34  1  0  0  0  0
 15 35  1  0  0  0  0
 15 10  1  0  0  0  0
 16 21  2  0  0  0  0
 16 17  1  0  0  0  0
 17 18  2  0  0  0  0
 18 19  1  0  0  0  0
 18 23  1  0  0  0  0
 19 24  1  0  0  0  0
 20 25  1  0  0  0  0
 20 19  2  0  0  0  0
 21 20  1  0  0  0  0
 22 17  1  0  0  0  0
 26 21  1  0  0  0  0
 27  4  1  0  0  0  0
 28  5  1  0  0  0  0
 29  6  1  0  0  0  0
 30 11  1  0  0  0  0
 31 12  1  0  0  0  0
 33 15  1  0  0  0  0
 36 62  1  0  0  0  0
 36 37  1  0  0  0  0
 37 38  1  0  0  0  0
 38 39  1  0  0  0  0
 39 40  2  0  0  0  0
 39 58  1  0  0  0  0
 40 57  1  0  0  0  0
 41 56  1  0  0  0  0
 41 40  1  0  0  0  0
 42 41  2  0  0  0  0
 43 38  2  0  0  0  0
 43 42  1  0  0  0  0
 44 43  1  0  0  0  0
 45 54  1  0  0  0  0
 45 44  2  0  0  0  0
 46 45  1  0  0  0  0
 47 46  2  0  0  0  0
 47 48  1  0  0  0  0
 48 49  2  0  0  0  0
 49 44  1  0  0  0  0
 49 50  1  0  0  0  0
 51 48  1  0  0  0  0
 52 47  1  0  0  0  0
 53 46  1  0  0  0  0
 55 42  1  0  0  0  0
 58 59  1  0  0  0  0
 60 58  1  0  0  0  0
 61 58  1  0  0  0  0
 62 63  2  0  0  0  0
 63 68  1  0  0  0  0
 64 63  1  0  0  0  0
 64 67  1  0  0  0  0
 65 66  1  0  0  0  0
 65 64  2  0  0  0  0
M  END
