1,4
 OpenBabel05122313053D

 26 29  0  0  1  0  0  0  0  0999 V2000
    1.4976   -1.6105   -0.1215 N   0  0  0  0  0  0  0  0  0  0  0  0
    3.7110   -2.2616   -0.0333 N   0  0  0  0  0  0  0  0  0  0  0  0
    2.8165   -1.2814   -0.0191 C   0  0  0  0  0  3  0  0  0  0  0  0
    2.2174    1.0481    0.1122 N   0  0  0  0  0  2  0  0  0  0  0  0
    6.7458    1.1136    0.2793 C   0  0  0  0  0  0  0  0  0  0  0  0
    7.7937    0.7781    0.2984 H   0  0  0  0  0  0  0  0  0  0  0  0
    4.4182    0.6658    0.1704 C   0  0  2  0  0  3  0  0  0  0  0  0
    5.7315    0.1593    0.1884 C   0  0  0  0  0  0  0  0  0  0  0  0
    5.9066   -0.9231    0.1339 H   0  0  0  0  0  0  0  0  0  0  0  0
    6.4723    2.5104    0.3499 C   0  0  0  0  0  0  0  0  0  0  0  0
    7.3164    3.2125    0.4214 H   0  0  0  0  0  0  0  0  0  0  0  0
    1.5281   -2.9944   -0.2089 C   0  0  0  0  0  0  0  0  0  0  0  0
    3.1784    0.0772    0.0903 N   0  0  0  0  0  0  0  0  0  0  0  0
    3.2616   -4.7513   -0.2257 C   0  0  0  0  0  0  0  0  0  0  0  0
    4.3172   -5.0574   -0.1857 H   0  0  0  0  0  0  0  0  0  0  0  0
    5.1697    3.0050    0.3316 C   0  0  0  0  0  0  0  0  0  0  0  0
    4.9474    4.0797    0.3865 H   0  0  0  0  0  0  0  0  0  0  0  0
    0.4905   -3.9389   -0.3301 C   0  0  0  0  0  0  0  0  0  0  0  0
   -0.5674   -3.6322   -0.3693 H   0  0  0  0  0  0  0  0  0  0  0  0
    2.2274   -5.6863   -0.3457 C   0  0  0  0  0  0  0  0  0  0  0  0
    2.4715   -6.7581   -0.4018 H   0  0  0  0  0  0  0  0  0  0  0  0
    0.8670   -5.2868   -0.3962 C   0  0  0  0  0  0  0  0  0  0  0  0
    0.0866   -6.0575   -0.4903 H   0  0  0  0  0  0  0  0  0  0  0  0
    2.9120   -3.3873   -0.1547 C   0  0  0  0  0  0  0  0  0  0  0  0
    4.1245    2.0591    0.2393 C   0  0  0  0  0  0  0  0  0  0  0  0
    2.7586    2.2272    0.1986 N   0  0  0  0  0  0  0  0  0  0  0  0
  1  3  1  0  0  0  0
  2  3  1  0  0  0  0
  3 13  1  0  0  0  0
  4 26  1  0  0  0  0
  5  6  1  0  0  0  0
  5 10  1  0  0  0  0
  7  8  1  6  0  0  0
  7 25  1  0  0  0  0
  8  5  2  0  0  0  0
  9  8  1  0  0  0  0
 10 11  1  0  0  0  0
 12 24  1  0  0  0  0
 12  1  2  0  0  0  0
 13  4  1  0  0  0  0
 13  7  1  0  0  0  0
 14 15  1  0  0  0  0
 14 24  1  0  0  0  0
 16 10  2  0  0  0  0
 16 17  1  0  0  0  0
 18 12  1  0  0  0  0
 19 18  1  0  0  0  0
 20 14  2  0  0  0  0
 21 20  1  0  0  0  0
 22 20  1  0  0  0  0
 22 18  2  0  0  0  0
 23 22  1  0  0  0  0
 24  2  2  0  0  0  0
 25 16  1  0  0  0  0
 26 25  2  0  0  0  0
M  END
