2,3
 OpenBabel05122313053D

 26 27  0  0  0  0  0  0  0  0999 V2000
   -2.2264   -2.3342    0.0852 O   0  0  0  0  0  0  0  0  0  0  0  0
    1.7333   -0.3805   -1.3386 N   0  0  0  0  0  0  0  0  0  0  0  0
   -0.8207   -0.2666   -1.0140 N   0  0  0  0  0  2  0  0  0  0  0  0
    3.0274   -0.5263   -1.6908 C   0  0  0  0  0  3  0  0  0  0  0  0
    3.8203    0.0573   -1.2065 H   0  0  0  0  0  0  0  0  0  0  0  0
    3.1360   -1.4788   -2.7413 C   0  0  0  0  0  0  0  0  0  0  0  0
    4.0684   -1.7994   -3.2209 H   0  0  0  0  0  0  0  0  0  0  0  0
    1.8345   -1.9150   -3.0393 C   0  0  0  0  0  0  0  0  0  0  0  0
    1.5299   -2.6404   -3.8025 H   0  0  0  0  0  0  0  0  0  0  0  0
    0.9730   -1.2113   -2.1568 C   0  0  0  0  0  0  0  0  0  0  0  0
   -0.4183   -1.1143   -1.9466 C   0  0  0  0  0  3  0  0  0  0  0  0
   -1.1550   -1.6935   -2.5282 H   0  0  0  0  0  0  0  0  0  0  0  0
   -2.1813   -0.0960   -0.6776 C   0  0  0  0  0  0  0  0  0  0  0  0
   -2.7959    1.1565   -0.8468 C   0  0  0  0  0  0  0  0  0  0  0  0
   -2.1837    1.9578   -1.2897 H   0  0  0  0  0  0  0  0  0  0  0  0
   -4.1277    1.3560   -0.4544 C   0  0  0  0  0  0  0  0  0  0  0  0
   -4.6015    2.3378   -0.6009 H   0  0  0  0  0  0  0  0  0  0  0  0
   -4.8490    0.2986    0.1196 C   0  0  0  0  0  0  0  0  0  0  0  0
   -5.8948    0.4435    0.4298 H   0  0  0  0  0  0  0  0  0  0  0  0
   -4.2473   -0.9573    0.3075 C   0  0  0  0  0  0  0  0  0  0  0  0
   -4.8239   -1.7714    0.7669 H   0  0  0  0  0  0  0  0  0  0  0  0
   -2.9109   -1.1651   -0.0851 C   0  0  0  0  0  0  0  0  0  0  0  0
   -2.8933   -3.4278    0.6850 C   0  0  0  0  0  0  0  0  0  0  0  0
   -3.2396   -3.1884    1.7158 H   0  0  0  0  0  0  0  0  0  0  0  0
   -2.1565   -4.2508    0.7351 H   0  0  0  0  0  0  0  0  0  0  0  0
   -3.7693   -3.7592    0.0838 H   0  0  0  0  0  0  0  0  0  0  0  0
  1 23  1  0  0  0  0
  3 13  1  0  0  0  0
  4  2  1  0  0  0  0
  4  5  1  0  0  0  0
  6  4  1  0  0  0  0
  7  6  1  0  0  0  0
  8  6  2  0  0  0  0
  8 10  1  0  0  0  0
  9  8  1  0  0  0  0
 10 11  1  0  0  0  0
 10  2  2  0  0  0  0
 11  3  1  0  0  0  0
 12 11  1  0  0  0  0
 13 22  1  0  0  0  0
 14 13  2  0  0  0  0
 14 16  1  0  0  0  0
 15 14  1  0  0  0  0
 16 18  2  0  0  0  0
 17 16  1  0  0  0  0
 18 20  1  0  0  0  0
 18 19  1  0  0  0  0
 20 21  1  0  0  0  0
 22  1  1  0  0  0  0
 22 20  2  0  0  0  0
 23 25  1  0  0  0  0
 23 24  1  0  0  0  0
 26 23  1  0  0  0  0
M  END
