4,5
 OpenBabel05122313053D

 72 74  0  0  0  0  0  0  0  0999 V2000
    2.4382   -1.0885    2.4121 C   0  0  0  0  0  0  0  0  0  0  0  0
    3.4097   -0.7152    2.0639 H   0  0  0  0  0  0  0  0  0  0  0  0
    2.7043    0.2176   -0.0010 C   0  0  0  0  0  0  0  0  0  0  0  0
   -1.5773   -0.3029    0.4928 N   0  0  0  0  0  2  0  0  0  0  0  0
    1.4108   -0.2619    0.3633 N   0  0  0  0  0  2  0  0  0  0  0  0
    0.0086   -1.2796    2.1295 C   0  0  0  0  0  0  0  0  0  0  0  0
    3.6575   -0.6479   -0.6070 C   0  0  0  0  0  0  0  0  0  0  0  0
   -0.0200   -1.9817    3.3749 C   0  0  0  0  0  0  0  0  0  0  0  0
   -1.0057   -2.2910    3.7586 H   0  0  0  0  0  0  0  0  0  0  0  0
    2.3602   -1.7718    3.6145 C   0  0  0  0  0  0  0  0  0  0  0  0
    3.2815   -1.9327    4.1966 H   0  0  0  0  0  0  0  0  0  0  0  0
    1.1218   -2.2566    4.1071 C   0  0  0  0  0  0  0  0  0  0  0  0
    1.0667   -2.8025    5.0594 H   0  0  0  0  0  0  0  0  0  0  0  0
   -1.2738   -0.9143    1.6168 C   0  0  0  0  0  3  0  0  0  0  0  0
   -2.1214   -1.1352    2.2980 H   0  0  0  0  0  0  0  0  0  0  0  0
    1.2867   -0.8595    1.5735 C   0  0  0  0  0  0  0  0  0  0  0  0
    4.2658    2.0773   -0.1794 C   0  0  0  0  0  0  0  0  0  0  0  0
    4.5103    3.1383   -0.0160 H   0  0  0  0  0  0  0  0  0  0  0  0
    4.9069   -0.1158   -0.9783 C   0  0  0  0  0  0  0  0  0  0  0  0
    5.6536   -0.7760   -1.4469 H   0  0  0  0  0  0  0  0  0  0  0  0
    3.0045    1.5925    0.2103 C   0  0  0  0  0  0  0  0  0  0  0  0
   -1.8089    2.6115    2.1900 C   0  0  0  0  0  0  0  0  0  0  0  0
   -2.6950    2.9942    2.7375 H   0  0  0  0  0  0  0  0  0  0  0  0
   -0.9651    3.3088    2.3709 H   0  0  0  0  0  0  0  0  0  0  0  0
   -1.5358    1.6316    2.6277 H   0  0  0  0  0  0  0  0  0  0  0  0
   -3.9500   -0.8486    0.0584 C   0  0  0  0  0  0  0  0  0  0  0  0
   -2.9379    0.1050    0.3325 C   0  0  0  0  0  0  0  0  0  0  0  0
   -3.6372   -2.3292   -0.1276 C   0  0  0  0  0  0  0  0  0  0  0  0
   -2.5360   -2.4438   -0.0904 H   0  0  0  0  0  0  0  0  0  0  0  0
    3.3559   -2.1213   -0.8609 C   0  0  0  0  0  0  0  0  0  0  0  0
    2.3007   -2.2889   -0.5677 H   0  0  0  0  0  0  0  0  0  0  0  0
   -2.1123    2.5001    0.6852 C   0  0  0  0  0  0  0  0  0  0  0  0
   -1.1936    2.0891    0.2023 H   0  0  0  0  0  0  0  0  0  0  0  0
    4.2342   -3.0440    0.0033 C   0  0  0  0  0  0  0  0  0  0  0  0
    5.3099   -2.9148   -0.2389 H   0  0  0  0  0  0  0  0  0  0  0  0
    3.9763   -4.1082   -0.1760 H   0  0  0  0  0  0  0  0  0  0  0  0
    4.0990   -2.8398    1.0827 H   0  0  0  0  0  0  0  0  0  0  0  0
   -3.2273    1.4954    0.4170 C   0  0  0  0  0  0  0  0  0  0  0  0
    1.9967    2.5152    0.8857 C   0  0  0  0  0  0  0  0  0  0  0  0
    1.0183    1.9911    0.8608 H   0  0  0  0  0  0  0  0  0  0  0  0
   -5.2752   -0.3869   -0.0751 C   0  0  0  0  0  0  0  0  0  0  0  0
   -6.0780   -1.1114   -0.2822 H   0  0  0  0  0  0  0  0  0  0  0  0
    5.2159    1.2333   -0.7681 C   0  0  0  0  0  0  0  0  0  0  0  0
    6.1985    1.6291   -1.0667 H   0  0  0  0  0  0  0  0  0  0  0  0
    1.8214    3.8540    0.1554 C   0  0  0  0  0  0  0  0  0  0  0  0
    2.7448    4.4685    0.1838 H   0  0  0  0  0  0  0  0  0  0  0  0
    1.0183    4.4530    0.6324 H   0  0  0  0  0  0  0  0  0  0  0  0
    1.5503    3.7029   -0.9091 H   0  0  0  0  0  0  0  0  0  0  0  0
   -4.5634    1.9037    0.2727 C   0  0  0  0  0  0  0  0  0  0  0  0
   -4.8130    2.9723    0.3430 H   0  0  0  0  0  0  0  0  0  0  0  0
   -2.3602    3.8787    0.0640 C   0  0  0  0  0  0  0  0  0  0  0  0
   -3.1891    4.4176    0.5680 H   0  0  0  0  0  0  0  0  0  0  0  0
   -2.6085    3.8015   -1.0134 H   0  0  0  0  0  0  0  0  0  0  0  0
   -1.4544    4.5098    0.1637 H   0  0  0  0  0  0  0  0  0  0  0  0
    2.3543    2.7237    2.3685 C   0  0  0  0  0  0  0  0  0  0  0  0
    2.4184    1.7567    2.9054 H   0  0  0  0  0  0  0  0  0  0  0  0
    1.5908    3.3488    2.8769 H   0  0  0  0  0  0  0  0  0  0  0  0
    3.3350    3.2343    2.4700 H   0  0  0  0  0  0  0  0  0  0  0  0
   -5.5849    0.9717    0.0379 C   0  0  0  0  0  0  0  0  0  0  0  0
   -6.6259    1.3117   -0.0703 H   0  0  0  0  0  0  0  0  0  0  0  0
   -4.0973   -2.8329   -1.5064 C   0  0  0  0  0  0  0  0  0  0  0  0
   -3.7749   -3.8823   -1.6660 H   0  0  0  0  0  0  0  0  0  0  0  0
   -3.6737   -2.2139   -2.3227 H   0  0  0  0  0  0  0  0  0  0  0  0
   -5.2019   -2.8056   -1.6061 H   0  0  0  0  0  0  0  0  0  0  0  0
   -4.2317   -3.1832    1.0052 C   0  0  0  0  0  0  0  0  0  0  0  0
   -3.8571   -2.8608    1.9976 H   0  0  0  0  0  0  0  0  0  0  0  0
   -3.9709   -4.2532    0.8718 H   0  0  0  0  0  0  0  0  0  0  0  0
   -5.3387   -3.1063    1.0278 H   0  0  0  0  0  0  0  0  0  0  0  0
    3.4939   -2.4877   -2.3491 C   0  0  0  0  0  0  0  0  0  0  0  0
    2.8837   -1.8245   -2.9934 H   0  0  0  0  0  0  0  0  0  0  0  0
    3.1689   -3.5338   -2.5251 H   0  0  0  0  0  0  0  0  0  0  0  0
    4.5464   -2.4066   -2.6915 H   0  0  0  0  0  0  0  0  0  0  0  0
  1 10  1  0  0  0  0
  2  1  1  0  0  0  0
  3 21  1  0  0  0  0
  3  5  1  0  0  0  0
  4 14  1  0  0  0  0
  5 16  1  0  0  0  0
  6  8  2  0  0  0  0
  7  3  2  0  0  0  0
  8  9  1  0  0  0  0
  8 12  1  0  0  0  0
 10 12  2  0  0  0  0
 10 11  1  0  0  0  0
 12 13  1  0  0  0  0
 14  6  1  0  0  0  0
 14 15  1  0  0  0  0
 16  6  1  0  0  0  0
 16  1  2  0  0  0  0
 17 18  1  0  0  0  0
 17 21  2  0  0  0  0
 19 43  2  0  0  0  0
 19  7  1  0  0  0  0
 20 19  1  0  0  0  0
 21 39  1  0  0  0  0
 22 24  1  0  0  0  0
 22 25  1  0  0  0  0
 22 23  1  0  0  0  0
 26 27  1  0  0  0  0
 27 38  2  0  0  0  0
 27  4  1  0  0  0  0
 28 29  1  0  0  0  0
 28 26  1  0  0  0  0
 28 65  1  0  0  0  0
 30  7  1  0  0  0  0
 30 31  1  0  0  0  0
 30 34  1  0  0  0  0
 32 22  1  0  0  0  0
 33 32  1  0  0  0  0
 34 37  1  0  0  0  0
 35 34  1  0  0  0  0
 36 34  1  0  0  0  0
 38 32  1  0  0  0  0
 39 55  1  0  0  0  0
 40 39  1  0  0  0  0
 41 59  1  0  0  0  0
 41 26  2  0  0  0  0
 42 41  1  0  0  0  0
 43 17  1  0  0  0  0
 44 43  1  0  0  0  0
 45 46  1  0  0  0  0
 45 47  1  0  0  0  0
 45 39  1  0  0  0  0
 48 45  1  0  0  0  0
 49 50  1  0  0  0  0
 49 38  1  0  0  0  0
 51 54  1  0  0  0  0
 51 52  1  0  0  0  0
 51 32  1  0  0  0  0
 53 51  1  0  0  0  0
 55 58  1  0  0  0  0
 55 57  1  0  0  0  0
 55 56  1  0  0  0  0
 59 49  2  0  0  0  0
 60 59  1  0  0  0  0
 61 28  1  0  0  0  0
 62 61  1  0  0  0  0
 63 61  1  0  0  0  0
 64 61  1  0  0  0  0
 65 68  1  0  0  0  0
 65 66  1  0  0  0  0
 67 65  1  0  0  0  0
 69 30  1  0  0  0  0
 70 69  1  0  0  0  0
 71 69  1  0  0  0  0
 72 69  1  0  0  0  0
M  END
