4,22
 OpenBabel05122313053D

 30 30  0  0  0  0  0  0  0  0999 V2000
    2.1842    1.4183   -0.2099 N   0  0  0  0  0  0  0  0  0  0  0  0
    2.6071    0.1588   -0.0518 N   0  0  0  0  0  0  0  0  0  0  0  0
    1.6432   -0.7532   -0.0397 N   0  0  0  0  0  2  0  0  0  0  0  0
    0.5341   -0.0635   -0.2067 N   0  0  0  0  0  2  0  0  0  0  0  0
    0.8689    1.2586   -0.3090 C   0  0  0  0  0  0  0  0  0  0  0  0
    4.0549   -0.1771    0.1069 C   0  0  0  0  0  0  0  0  0  0  0  0
    4.5580    0.5613    1.3574 C   0  0  0  0  0  0  0  0  0  0  0  0
    4.4188    1.6543    1.2534 H   0  0  0  0  0  0  0  0  0  0  0  0
    5.6365    0.3541    1.4974 H   0  0  0  0  0  0  0  0  0  0  0  0
    4.0179    0.2169    2.2614 H   0  0  0  0  0  0  0  0  0  0  0  0
    4.1818   -1.6942    0.2676 C   0  0  0  0  0  0  0  0  0  0  0  0
    3.6358   -2.0568    1.1584 H   0  0  0  0  0  0  0  0  0  0  0  0
    5.2545   -1.9426    0.3830 H   0  0  0  0  0  0  0  0  0  0  0  0
    3.7863   -2.2317   -0.6144 H   0  0  0  0  0  0  0  0  0  0  0  0
    4.7761    0.3132   -1.1586 C   0  0  0  0  0  0  0  0  0  0  0  0
    4.3925   -0.2089   -2.0573 H   0  0  0  0  0  0  0  0  0  0  0  0
    5.8591    0.1010   -1.0696 H   0  0  0  0  0  0  0  0  0  0  0  0
    4.6394    1.4030   -1.2938 H   0  0  0  0  0  0  0  0  0  0  0  0
   -0.2116    2.2536   -0.5672 C   0  0  0  0  0  0  0  0  0  0  0  0
   -0.3404    2.3530   -1.6650 H   0  0  0  0  0  0  0  0  0  0  0  0
    0.0542    3.2575   -0.1698 H   0  0  0  0  0  0  0  0  0  0  0  0
   -1.4969    1.7548   -0.0044 N   0  0  0  0  0  0  0  0  0  0  0  0
   -2.6411    2.3280   -0.7449 C   0  0  0  0  0  0  0  0  0  0  0  0
   -3.5664    1.8615   -0.3579 H   0  0  0  0  0  0  0  0  0  0  0  0
   -2.5500    2.0684   -1.8159 H   0  0  0  0  0  0  0  0  0  0  0  0
   -2.6696    3.4348   -0.6248 H   0  0  0  0  0  0  0  0  0  0  0  0
   -1.6112    2.0687    1.4385 C   0  0  0  0  0  0  0  0  0  0  0  0
   -1.6580    3.1708    1.5987 H   0  0  0  0  0  0  0  0  0  0  0  0
   -0.7422    1.6534    1.9830 H   0  0  0  0  0  0  0  0  0  0  0  0
   -2.5297    1.5856    1.8210 H   0  0  0  0  0  0  0  0  0  0  0  0
  1  2  1  0  0  0  0
  2  3  1  0  0  0  0
  2  6  1  0  0  0  0
  4  3  1  0  0  0  0
  5  1  2  0  0  0  0
  5  4  1  0  0  0  0
  6 11  1  0  0  0  0
  6  7  1  0  0  0  0
  7  9  1  0  0  0  0
  7 10  1  0  0  0  0
  8  7  1  0  0  0  0
 11 13  1  0  0  0  0
 11 12  1  0  0  0  0
 14 11  1  0  0  0  0
 15 17  1  0  0  0  0
 15  6  1  0  0  0  0
 16 15  1  0  0  0  0
 18 15  1  0  0  0  0
 19  5  1  0  0  0  0
 19 21  1  0  0  0  0
 19 22  1  0  0  0  0
 20 19  1  0  0  0  0
 22 27  1  0  0  0  0
 23 26  1  0  0  0  0
 23 24  1  0  0  0  0
 23 22  1  0  0  0  0
 25 23  1  0  0  0  0
 27 28  1  0  0  0  0
 27 30  1  0  0  0  0
 27 29  1  0  0  0  0
M  END
