1,18
 OpenBabel05122313053D

 19 19  0  0  0  0  0  0  0  0999 V2000
    1.9298    0.3007   -1.0823 N   0  0  0  0  0  0  0  0  0  0  0  0
    1.7954    0.3901   -2.0981 H   0  0  0  0  0  0  0  0  0  0  0  0
    2.8865   -0.8118   -0.8089 C   0  0  0  0  0  0  0  0  0  0  0  0
    3.7827   -0.6962   -1.4571 H   0  0  0  0  0  0  0  0  0  0  0  0
    2.3958   -1.7600   -1.0943 H   0  0  0  0  0  0  0  0  0  0  0  0
    3.3479   -0.8170    0.6547 C   0  0  0  0  0  0  0  0  0  0  0  0
    3.8581   -1.7789    0.8610 H   0  0  0  0  0  0  0  0  0  0  0  0
    4.1317   -0.0437    0.7842 H   0  0  0  0  0  0  0  0  0  0  0  0
    2.2638   -0.6051    1.7201 C   0  0  0  0  0  0  0  0  0  0  0  0
    1.6629   -1.5178    1.8833 H   0  0  0  0  0  0  0  0  0  0  0  0
    2.7646   -0.3638    2.6832 H   0  0  0  0  0  0  0  0  0  0  0  0
    2.4415    1.5994   -0.5554 C   0  0  0  0  0  0  0  0  0  0  0  0
    1.9481    2.4045   -1.1257 H   0  0  0  0  0  0  0  0  0  0  0  0
    3.5375    1.6629   -0.7187 H   0  0  0  0  0  0  0  0  0  0  0  0
    2.0623    1.7271    0.9371 C   0  0  0  0  0  0  0  0  0  0  0  0
    2.9505    1.8753    1.5862 H   0  0  0  0  0  0  0  0  0  0  0  0
    1.3771    2.5826    1.0656 H   0  0  0  0  0  0  0  0  0  0  0  0
    1.3258    0.5017    1.3611 N   0  0  0  0  0  0  0  0  0  0  0  0
    0.7520    0.7320    2.1833 H   0  0  0  0  0  0  0  0  0  0  0  0
  1  3  1  0  0  0  0
  1 12  1  0  0  0  0
  2  1  1  0  0  0  0
  3  6  1  0  0  0  0
  4  3  1  0  0  0  0
  5  3  1  0  0  0  0
  6  8  1  0  0  0  0
  6  7  1  0  0  0  0
  6  9  1  0  0  0  0
  9 10  1  0  0  0  0
  9 11  1  0  0  0  0
 12 15  1  0  0  0  0
 13 12  1  0  0  0  0
 14 12  1  0  0  0  0
 15 17  1  0  0  0  0
 15 18  1  0  0  0  0
 15 16  1  0  0  0  0
 18  9  1  0  0  0  0
 18 19  1  0  0  0  0
M  END
