1,2
 OpenBabel05122313053D

 37 39  0  0  1  0  0  0  0  0999 V2000
   -2.8523    0.2425   -0.0008 N   0  0  0  0  0  2  0  0  0  0  0  0
   -0.5574    1.5586   -0.0007 N   0  0  0  0  0  2  0  0  0  0  0  0
   -3.9544   -0.5810   -0.0003 C   0  0  2  0  0  3  0  0  0  0  0  0
   -3.7913   -1.9940   -0.0001 C   0  0  0  0  0  0  0  0  0  0  0  0
   -4.9053   -2.8213    0.0004 C   0  0  0  0  0  0  0  0  0  0  0  0
   -6.2188   -2.2819    0.0008 C   0  0  0  0  0  0  0  0  0  0  0  0
   -6.4055   -0.9080    0.0006 C   0  0  0  0  0  0  0  0  0  0  0  0
   -5.2849   -0.0298   -0.0000 C   0  0  0  0  0  0  0  0  0  0  0  0
   -5.4199    1.3881   -0.0004 C   0  0  0  0  0  0  0  0  0  0  0  0
   -4.2920    2.1849   -0.0011 C   0  0  0  0  0  0  0  0  0  0  0  0
   -3.0119    1.5614   -0.0013 C   0  0  0  0  0  0  0  0  0  0  0  0
   -1.7540    2.3788   -0.0024 C   0  0  0  0  0  0  0  0  0  0  0  0
    0.6541    2.3126   -0.0001 C   0  0  0  0  0  0  0  0  0  0  0  0
    1.2468    2.6727   -1.2382 C   0  0  0  0  0  0  0  0  0  0  0  0
    2.4529    3.3991   -1.2127 C   0  0  0  0  0  0  0  0  0  0  0  0
    3.0526    3.7619    0.0013 C   0  0  0  0  0  0  0  0  0  0  0  0
    2.4510    3.3999    1.2145 C   0  0  0  0  0  0  0  0  0  0  0  0
    1.2449    2.6734    1.2386 C   0  0  0  0  0  0  0  0  0  0  0  0
    0.6197    2.2425   -2.5382 C   0  0  0  0  0  0  0  0  0  0  0  0
    0.6161    2.2433    2.5379 C   0  0  0  0  0  0  0  0  0  0  0  0
   -2.7762   -2.4083   -0.0004 H   0  0  0  0  0  0  0  0  0  0  0  0
   -4.7670   -3.9130    0.0006 H   0  0  0  0  0  0  0  0  0  0  0  0
   -7.0872   -2.9577    0.0013 H   0  0  0  0  0  0  0  0  0  0  0  0
   -7.4179   -0.4751    0.0008 H   0  0  0  0  0  0  0  0  0  0  0  0
   -6.4274    1.8326   -0.0001 H   0  0  0  0  0  0  0  0  0  0  0  0
   -4.3626    3.2825   -0.0015 H   0  0  0  0  0  0  0  0  0  0  0  0
   -1.7644    3.0592   -0.8893 H   0  0  0  0  0  0  0  0  0  0  0  0
   -1.7648    3.0625    0.8820 H   0  0  0  0  0  0  0  0  0  0  0  0
    2.9283    3.6748   -2.1672 H   0  0  0  0  0  0  0  0  0  0  0  0
    3.9969    4.3273    0.0018 H   0  0  0  0  0  0  0  0  0  0  0  0
    2.9249    3.6762    2.1696 H   0  0  0  0  0  0  0  0  0  0  0  0
   -0.3769    2.7081   -2.6932 H   0  0  0  0  0  0  0  0  0  0  0  0
    0.4495    1.1461   -2.5611 H   0  0  0  0  0  0  0  0  0  0  0  0
    1.2559    2.5233   -3.3989 H   0  0  0  0  0  0  0  0  0  0  0  0
    0.4516    1.1461    2.5629 H   0  0  0  0  0  0  0  0  0  0  0  0
   -0.3834    2.7037    2.6887 H   0  0  0  0  0  0  0  0  0  0  0  0
    1.2485    2.5294    3.3998 H   0  0  0  0  0  0  0  0  0  0  0  0
  2 13  1  0  0  0  0
  3  1  1  6  0  0  0
  3  4  1  0  0  0  0
  3  8  1  0  0  0  0
  4  5  2  0  0  0  0
  5 22  1  0  0  0  0
  5  6  1  0  0  0  0
  6 23  1  0  0  0  0
  7  6  2  0  0  0  0
  7 24  1  0  0  0  0
  8  7  1  0  0  0  0
  9 25  1  0  0  0  0
  9  8  2  0  0  0  0
 10  9  1  0  0  0  0
 11 10  2  0  0  0  0
 11  1  1  0  0  0  0
 12 11  1  0  0  0  0
 12  2  1  0  0  0  0
 12 28  1  0  0  0  0
 13 18  1  0  0  0  0
 14 15  1  0  0  0  0
 14 13  2  0  0  0  0
 15 16  2  0  0  0  0
 16 30  1  0  0  0  0
 16 17  1  0  0  0  0
 17 18  2  0  0  0  0
 17 31  1  0  0  0  0
 18 20  1  0  0  0  0
 19 14  1  0  0  0  0
 20 35  1  0  0  0  0
 20 36  1  0  0  0  0
 20 37  1  0  0  0  0
 21  4  1  0  0  0  0
 26 10  1  0  0  0  0
 27 12  1  0  0  0  0
 29 15  1  0  0  0  0
 32 19  1  0  0  0  0
 33 19  1  0  0  0  0
 34 19  1  0  0  0  0
M  END
