3,4
 OpenBabel05122313053D

 30 30  0  0  1  0  0  0  0  0999 V2000
    2.3296    3.8940   -0.0138 O   0  0  0  0  0  0  0  0  0  0  0  0
   -5.7132    0.5227   -0.1205 O   0  0  0  0  0  0  0  0  0  0  0  0
    2.1690    0.6010    1.2824 N   0  0  0  0  0  2  0  0  0  0  0  0
   -0.1663    1.3384    0.0597 N   0  0  0  0  0  2  0  0  0  0  0  0
   -2.2005    0.8937   -1.2627 C   0  0  0  0  0  0  0  0  0  0  0  0
   -1.5769    0.8110   -2.1635 H   0  0  0  0  0  0  0  0  0  0  0  0
   -3.5839    0.6690   -1.3324 C   0  0  0  0  0  0  0  0  0  0  0  0
   -4.0372    0.4340   -2.3046 H   0  0  0  0  0  0  0  0  0  0  0  0
   -1.5906    1.1963   -0.0359 C   0  0  0  0  0  0  0  0  0  0  0  0
    3.8185    2.3751    1.7556 C   0  0  0  0  0  0  0  0  0  0  0  0
    4.2878    1.6204    2.4164 H   0  0  0  0  0  0  0  0  0  0  0  0
    3.6066    3.2965    2.3353 H   0  0  0  0  0  0  0  0  0  0  0  0
    4.5459    2.6737    0.9725 H   0  0  0  0  0  0  0  0  0  0  0  0
    0.3735    2.5407   -0.0451 C   0  0  2  0  0  3  0  0  0  0  0  0
    1.8157    2.7944    0.2655 C   0  0  0  0  0  0  0  0  0  0  0  0
   -2.3780    1.2872    1.1295 C   0  0  0  0  0  0  0  0  0  0  0  0
   -1.8906    1.5142    2.0884 H   0  0  0  0  0  0  0  0  0  0  0  0
    2.5742    1.8424    1.1121 C   0  0  1  0  0  3  0  0  0  0  0  0
   -4.3690    0.7407   -0.1628 C   0  0  0  0  0  0  0  0  0  0  0  0
   -0.4367    3.7537   -0.4029 C   0  0  0  0  0  0  0  0  0  0  0  0
   -1.1464    3.5391   -1.2241 H   0  0  0  0  0  0  0  0  0  0  0  0
    0.2576    4.5642   -0.6893 H   0  0  0  0  0  0  0  0  0  0  0  0
   -1.0413    4.0975    0.4636 H   0  0  0  0  0  0  0  0  0  0  0  0
   -3.7535    1.0600    1.0672 C   0  0  0  0  0  0  0  0  0  0  0  0
   -4.3830    1.1162    1.9669 H   0  0  0  0  0  0  0  0  0  0  0  0
   -6.3726    0.1747   -1.3214 C   0  0  0  0  0  0  0  0  0  0  0  0
   -6.2929    0.9774   -2.0893 H   0  0  0  0  0  0  0  0  0  0  0  0
   -7.4385    0.0303   -1.0647 H   0  0  0  0  0  0  0  0  0  0  0  0
   -5.9743   -0.7706   -1.7555 H   0  0  0  0  0  0  0  0  0  0  0  0
    2.7298    0.0592    1.9600 H   0  0  0  0  0  0  0  0  0  0  0  0
  1 15  2  0  0  0  0
  3 30  1  0  0  0  0
  5  9  1  0  0  0  0
  6  5  1  0  0  0  0
  7  5  2  0  0  0  0
  7 19  1  0  0  0  0
  8  7  1  0  0  0  0
  9  4  1  0  0  0  0
  9 16  2  0  0  0  0
 10 12  1  0  0  0  0
 10 11  1  0  0  0  0
 13 10  1  0  0  0  0
 14  4  1  1  0  0  0
 14 15  1  0  0  0  0
 16 17  1  0  0  0  0
 18 15  1  6  0  0  0
 18  3  1  0  0  0  0
 18 10  1  0  0  0  0
 19  2  1  0  0  0  0
 19 24  2  0  0  0  0
 20 14  1  0  0  0  0
 20 23  1  0  0  0  0
 21 20  1  0  0  0  0
 22 20  1  0  0  0  0
 24 16  1  0  0  0  0
 24 25  1  0  0  0  0
 26 28  1  0  0  0  0
 26  2  1  0  0  0  0
 27 26  1  0  0  0  0
 29 26  1  0  0  0  0
M  END
