1,5
 OpenBabel05122313053D

 29 30  0  0  1  0  0  0  0  0999 V2000
   -0.2277   -2.1824   -1.2266 N   0  0  0  0  0  2  0  0  0  0  0  0
   -3.4106   -1.9925    0.5448 N   0  0  0  0  0  0  0  0  0  0  0  0
   -4.0229   -0.7885    0.5195 N   0  0  0  0  0  0  0  0  0  0  0  0
   -4.9212   -0.6651    0.9898 H   0  0  0  0  0  0  0  0  0  0  0  0
   -2.2016   -0.4618   -0.6164 N   0  0  0  0  0  2  0  0  0  0  0  0
    0.8311   -2.9682   -1.5083 C   0  0  0  0  0  3  0  0  0  0  0  0
    1.6143   -2.5137   -2.1355 H   0  0  0  0  0  0  0  0  0  0  0  0
    0.9500   -4.2805   -1.0352 C   0  0  0  0  0  0  0  0  0  0  0  0
    1.8367   -4.8766   -1.2948 H   0  0  0  0  0  0  0  0  0  0  0  0
   -0.0818   -4.8127   -0.2400 C   0  0  0  0  0  0  0  0  0  0  0  0
   -0.0211   -5.8420    0.1435 H   0  0  0  0  0  0  0  0  0  0  0  0
   -1.1858   -4.0075    0.0587 C   0  0  0  0  0  0  0  0  0  0  0  0
   -2.0181   -4.3599    0.6840 H   0  0  0  0  0  0  0  0  0  0  0  0
   -1.2187   -2.6963   -0.4473 C   0  0  0  0  0  0  0  0  0  0  0  0
   -2.3003   -1.7530   -0.1604 C   0  0  0  0  0  0  0  0  0  0  0  0
   -3.3059    0.1425   -0.1763 C   0  0  2  0  0  3  0  0  0  0  0  0
   -3.6675    1.5893   -0.4067 C   0  0  0  0  0  0  0  0  0  0  0  0
   -3.6368    1.8568   -1.9294 C   0  0  0  0  0  0  0  0  0  0  0  0
   -4.3737    1.2225   -2.4622 H   0  0  0  0  0  0  0  0  0  0  0  0
   -2.6289    1.6560   -2.3501 H   0  0  0  0  0  0  0  0  0  0  0  0
   -3.8896    2.9190   -2.1225 H   0  0  0  0  0  0  0  0  0  0  0  0
   -5.0596    1.8931    0.1724 C   0  0  0  0  0  0  0  0  0  0  0  0
   -5.8495    1.2832   -0.3137 H   0  0  0  0  0  0  0  0  0  0  0  0
   -5.3126    2.9571   -0.0007 H   0  0  0  0  0  0  0  0  0  0  0  0
   -5.0983    1.7233    1.2695 H   0  0  0  0  0  0  0  0  0  0  0  0
   -2.5927    2.4591    0.2838 C   0  0  0  0  0  0  0  0  0  0  0  0
   -1.5886    2.2062   -0.1094 H   0  0  0  0  0  0  0  0  0  0  0  0
   -2.5891    2.3028    1.3814 H   0  0  0  0  0  0  0  0  0  0  0  0
   -2.7831    3.5320    0.0812 H   0  0  0  0  0  0  0  0  0  0  0  0
  1 14  1  0  0  0  0
  3  2  1  0  0  0  0
  3  4  1  0  0  0  0
  5 16  1  0  0  0  0
  5 15  1  0  0  0  0
  6  1  1  0  0  0  0
  6  8  1  0  0  0  0
  7  6  1  0  0  0  0
  8 10  2  0  0  0  0
  9  8  1  0  0  0  0
 10 12  1  0  0  0  0
 10 11  1  0  0  0  0
 12 13  1  0  0  0  0
 14 15  1  0  0  0  0
 14 12  2  0  0  0  0
 15  2  2  0  0  0  0
 16 17  1  1  0  0  0
 16  3  1  0  0  0  0
 17 22  1  0  0  0  0
 17 26  1  0  0  0  0
 18 17  1  0  0  0  0
 19 18  1  0  0  0  0
 20 18  1  0  0  0  0
 21 18  1  0  0  0  0
 22 25  1  0  0  0  0
 23 22  1  0  0  0  0
 24 22  1  0  0  0  0
 26 28  1  0  0  0  0
 27 26  1  0  0  0  0
 29 26  1  0  0  0  0
M  END
