1,9
 OpenBabel05122313053D

 31 32  0  0  1  0  0  0  0  0999 V2000
    0.4459   -0.7217   -0.0192 N   0  0  0  0  0  2  0  0  0  0  0  0
    1.2969   -1.7650   -0.0235 C   0  0  0  0  0  3  0  0  0  0  0  0
    0.8459   -2.7648    0.0376 H   0  0  0  0  0  0  0  0  0  0  0  0
   -0.7255    3.9748    0.0313 C   0  0  0  0  0  0  0  0  0  0  0  0
   -2.3308    2.1551    0.0839 C   0  0  0  0  0  3  0  0  0  0  0  0
   -3.3632    1.7819    0.1284 H   0  0  0  0  0  0  0  0  0  0  0  0
    2.3246    0.7752   -0.1612 C   0  0  0  0  0  0  0  0  0  0  0  0
    2.7332    1.7923   -0.1988 H   0  0  0  0  0  0  0  0  0  0  0  0
   -1.3588    1.2250    0.0259 N   0  0  0  0  0  2  0  0  0  0  0  0
   -2.0599    3.5236    0.0879 C   0  0  0  0  0  0  0  0  0  0  0  0
   -2.8958    4.2367    0.1368 H   0  0  0  0  0  0  0  0  0  0  0  0
   -0.3965    5.4415    0.0387 C   0  0  0  0  0  0  0  0  0  0  0  0
    0.6931    5.6204   -0.0268 H   0  0  0  0  0  0  0  0  0  0  0  0
   -0.7706    5.9237    0.9654 H   0  0  0  0  0  0  0  0  0  0  0  0
   -0.8853    5.9599   -0.8117 H   0  0  0  0  0  0  0  0  0  0  0  0
    0.9418    0.5442   -0.0744 C   0  0  0  0  0  0  0  0  0  0  0  0
    4.7045   -0.0803   -0.3350 C   0  0  2  0  0  0  0  0  0  0  0  0
    3.2114   -0.3064   -0.1862 C   0  0  0  0  0  0  0  0  0  0  0  0
   -0.0613    1.6264   -0.0286 C   0  0  0  0  0  0  0  0  0  0  0  0
    2.6819   -1.6042   -0.1025 C   0  0  0  0  0  0  0  0  0  0  0  0
    3.3464   -2.4777   -0.0902 H   0  0  0  0  0  0  0  0  0  0  0  0
    0.2741    2.9914   -0.0271 C   0  0  0  0  0  0  0  0  0  0  0  0
    1.3294    3.2930   -0.0672 H   0  0  0  0  0  0  0  0  0  0  0  0
    4.9757   -0.1793   -1.4230 H   0  0  0  0  0  0  0  0  0  0  0  0
    5.3537   -1.0959    0.3860 O   0  0  0  0  0  0  0  0  0  0  0  0
    5.0179    1.2213    0.1056 O   0  0  0  0  0  0  0  0  0  0  0  0
    5.8063    1.5260   -0.3768 H   0  0  0  0  0  0  0  0  0  0  0  0
    6.7542   -1.1320    0.1966 C   0  0  0  0  0  0  0  0  0  0  0  0
    7.1384   -2.0160    0.7389 H   0  0  0  0  0  0  0  0  0  0  0  0
    7.2540   -0.2250    0.6067 H   0  0  0  0  0  0  0  0  0  0  0  0
    7.0221   -1.2295   -0.8840 H   0  0  0  0  0  0  0  0  0  0  0  0
  2  1  1  0  0  0  0
  2  3  1  0  0  0  0
  4 12  1  0  0  0  0
  4 10  2  0  0  0  0
  5 10  1  0  0  0  0
  5  6  1  0  0  0  0
  7 16  2  0  0  0  0
  8  7  1  0  0  0  0
  9  5  1  0  0  0  0
 10 11  1  0  0  0  0
 12 14  1  0  0  0  0
 13 12  1  0  0  0  0
 15 12  1  0  0  0  0
 16 19  1  0  0  0  0
 16  1  1  0  0  0  0
 17 24  1  6  0  0  0
 17 18  1  0  0  0  0
 17 26  1  0  0  0  0
 17 25  1  0  0  0  0
 18  7  1  0  0  0  0
 18 20  2  0  0  0  0
 19 22  2  0  0  0  0
 19  9  1  0  0  0  0
 20 21  1  0  0  0  0
 20  2  1  0  0  0  0
 22  4  1  0  0  0  0
 23 22  1  0  0  0  0
 27 26  1  0  0  0  0
 28 25  1  0  0  0  0
 28 30  1  0  0  0  0
 28 29  1  0  0  0  0
 31 28  1  0  0  0  0
M  END
