1,24
 OpenBabel05122313053D

 46 50  0  0  1  0  0  0  0  0999 V2000
   -0.0816    1.8768    0.7832 N   0  0  0  0  0  2  0  0  0  0  0  0
   -4.5383   -1.2666    0.7424 C   0  0  0  0  0  0  0  0  0  0  0  0
    1.0318    2.6643    0.7583 C   0  0  1  0  0  3  0  0  0  0  0  0
   -1.2996    3.6479    1.8942 C   0  0  0  0  0  0  0  0  0  0  0  0
   -2.2480    3.9862    2.3308 H   0  0  0  0  0  0  0  0  0  0  0  0
   -3.3134   -1.7764    0.2475 C   0  0  0  0  0  0  0  0  0  0  0  0
   -0.1670    4.4643    1.8642 C   0  0  0  0  0  0  0  0  0  0  0  0
   -0.2010    5.4803    2.2839 H   0  0  0  0  0  0  0  0  0  0  0  0
   -4.5961    0.0656    1.2797 C   0  0  0  0  0  0  0  0  0  0  0  0
   -1.2348    2.3494    1.3399 C   0  0  0  0  0  0  0  0  0  0  0  0
   -2.2256   -2.1540   -0.1883 C   0  0  0  0  0  0  0  0  0  0  0  0
    1.0089    3.9735    1.2940 C   0  0  0  0  0  0  0  0  0  0  0  0
    1.9253    4.5756    1.2458 H   0  0  0  0  0  0  0  0  0  0  0  0
   -3.4260    0.8628    1.3205 C   0  0  0  0  0  0  0  0  0  0  0  0
   -5.8318    0.5624    1.7583 C   0  0  0  0  0  0  0  0  0  0  0  0
   -5.8675    1.5831    2.1646 H   0  0  0  0  0  0  0  0  0  0  0  0
   -6.9287   -1.5311    1.1881 C   0  0  0  0  0  0  0  0  0  0  0  0
   -7.8370   -2.1507    1.1522 H   0  0  0  0  0  0  0  0  0  0  0  0
   -6.9850   -0.2266    1.7129 C   0  0  0  0  0  0  0  0  0  0  0  0
   -7.9372    0.1769    2.0878 H   0  0  0  0  0  0  0  0  0  0  0  0
   -2.3832    1.5174    1.3332 C   0  0  0  0  0  0  0  0  0  0  0  0
   -5.7200   -2.0449    0.7092 C   0  0  0  0  0  0  0  0  0  0  0  0
   -5.6688   -3.0623    0.2962 H   0  0  0  0  0  0  0  0  0  0  0  0
    0.0822   -1.8765   -0.7835 N   0  0  0  0  0  2  0  0  0  0  0  0
    4.5388    1.2671   -0.7431 C   0  0  0  0  0  0  0  0  0  0  0  0
   -1.0313   -2.6639   -0.7587 C   0  0  2  0  0  3  0  0  0  0  0  0
    1.3003   -3.6479   -1.8938 C   0  0  0  0  0  0  0  0  0  0  0  0
    2.2489   -3.9864   -2.3300 H   0  0  0  0  0  0  0  0  0  0  0  0
    3.3138    1.7769   -0.2482 C   0  0  0  0  0  0  0  0  0  0  0  0
    0.1677   -4.4642   -1.8639 C   0  0  0  0  0  0  0  0  0  0  0  0
    0.2017   -5.4803   -2.2833 H   0  0  0  0  0  0  0  0  0  0  0  0
    4.5967   -0.0653   -1.2798 C   0  0  0  0  0  0  0  0  0  0  0  0
    1.2355   -2.3493   -1.3398 C   0  0  0  0  0  0  0  0  0  0  0  0
    2.2261    2.1545    0.1877 C   0  0  0  0  0  0  0  0  0  0  0  0
   -1.0083   -3.9732   -1.2941 C   0  0  0  0  0  0  0  0  0  0  0  0
   -1.9248   -4.5752   -1.2461 H   0  0  0  0  0  0  0  0  0  0  0  0
    3.4267   -0.8626   -1.3205 C   0  0  0  0  0  0  0  0  0  0  0  0
    5.8325   -0.5621   -1.7583 C   0  0  0  0  0  0  0  0  0  0  0  0
    5.8683   -1.5830   -2.1643 H   0  0  0  0  0  0  0  0  0  0  0  0
    6.9291    1.5317   -1.1890 C   0  0  0  0  0  0  0  0  0  0  0  0
    7.8373    2.1515   -1.1533 H   0  0  0  0  0  0  0  0  0  0  0  0
    6.9855    0.2270   -1.7132 C   0  0  0  0  0  0  0  0  0  0  0  0
    7.9378   -0.1765   -2.0881 H   0  0  0  0  0  0  0  0  0  0  0  0
    2.3839   -1.5173   -1.3331 C   0  0  0  0  0  0  0  0  0  0  0  0
    5.7204    2.0456   -0.7101 C   0  0  0  0  0  0  0  0  0  0  0  0
    5.6691    3.0631   -0.2975 H   0  0  0  0  0  0  0  0  0  0  0  0
  1 10  1  0  0  0  0
  2  9  1  0  0  0  0
  3 34  1  1  0  0  0
  3  1  1  0  0  0  0
  3 12  1  0  0  0  0
  4  5  1  0  0  0  0
  6  2  1  0  0  0  0
  7  4  1  0  0  0  0
  7  8  1  0  0  0  0
  9 14  1  0  0  0  0
  9 15  2  0  0  0  0
 10  4  2  0  0  0  0
 11  6  3  0  0  0  0
 12  7  2  0  0  0  0
 13 12  1  0  0  0  0
 14 21  3  0  0  0  0
 15 16  1  0  0  0  0
 17 19  2  0  0  0  0
 18 17  1  0  0  0  0
 19 15  1  0  0  0  0
 19 20  1  0  0  0  0
 21 10  1  0  0  0  0
 22  2  2  0  0  0  0
 22 17  1  0  0  0  0
 23 22  1  0  0  0  0
 24 26  1  0  0  0  0
 25 45  1  0  0  0  0
 25 29  1  0  0  0  0
 26 11  1  6  0  0  0
 27 30  1  0  0  0  0
 27 33  2  0  0  0  0
 28 27  1  0  0  0  0
 29 34  3  0  0  0  0
 30 35  2  0  0  0  0
 31 30  1  0  0  0  0
 32 25  2  0  0  0  0
 33 44  1  0  0  0  0
 33 24  1  0  0  0  0
 35 36  1  0  0  0  0
 35 26  1  0  0  0  0
 37 32  1  0  0  0  0
 38 42  2  0  0  0  0
 38 32  1  0  0  0  0
 39 38  1  0  0  0  0
 40 41  1  0  0  0  0
 40 45  2  0  0  0  0
 42 40  1  0  0  0  0
 43 42  1  0  0  0  0
 44 37  3  0  0  0  0
 45 46  1  0  0  0  0
M  END
