6,7
 OpenBabel05122313053D

 28 30  0  0  1  0  0  0  0  0999 V2000
   -3.4546    3.2937    1.4488 O   0  0  0  0  0  0  0  0  0  0  0  0
   -4.4335    2.8396   -0.4564 O   0  0  0  0  0  0  0  0  0  0  0  0
   -3.6118    2.6138    0.4234 N   0  0  0  0  0  0  0  0  0  0  0  0
   -5.4140    0.1656    0.0158 N   0  0  0  0  0  0  0  0  0  0  0  0
   -1.8913   -0.5204   -0.4182 N   0  0  0  0  0  0  0  0  0  0  0  0
   -0.8897    0.2445    0.0114 N   0  0  0  0  0  2  0  0  0  0  0  0
    0.9950    1.8207    0.8214 N   0  0  0  0  0  2  0  0  0  0  0  0
   -6.6225   -0.3477   -0.2434 C   0  0  0  0  0  0  0  0  0  0  0  0
   -7.4739    0.1214    0.2808 H   0  0  0  0  0  0  0  0  0  0  0  0
   -6.8379   -1.4252   -1.1209 C   0  0  0  0  0  0  0  0  0  0  0  0
   -7.8548   -1.8056   -1.2967 H   0  0  0  0  0  0  0  0  0  0  0  0
   -5.7251   -1.9970   -1.7555 C   0  0  0  0  0  0  0  0  0  0  0  0
   -5.8478   -2.8442   -2.4474 H   0  0  0  0  0  0  0  0  0  0  0  0
   -4.4551   -1.4669   -1.5004 C   0  0  0  0  0  0  0  0  0  0  0  0
   -3.5501   -1.8748   -1.9720 H   0  0  0  0  0  0  0  0  0  0  0  0
   -4.3494   -0.3760   -0.6098 C   0  0  0  0  0  0  0  0  0  0  0  0
   -3.0350    0.2083   -0.2953 C   0  0  0  0  0  0  0  0  0  0  0  0
   -2.7219    1.4848    0.2421 C   0  0  0  0  0  0  0  0  0  0  0  0
   -1.3203    1.4704    0.4525 C   0  0  0  0  0  0  0  0  0  0  0  0
   -0.2736    2.3645    0.9104 C   0  0  1  0  0  3  0  0  0  0  0  0
   -0.4588    3.6682    1.4158 C   0  0  0  0  0  0  0  0  0  0  0  0
   -1.4846    4.0499    1.5078 H   0  0  0  0  0  0  0  0  0  0  0  0
    0.6506    4.4227    1.8037 C   0  0  0  0  0  0  0  0  0  0  0  0
    0.5128    5.4403    2.1977 H   0  0  0  0  0  0  0  0  0  0  0  0
    1.9364    3.8661    1.6906 C   0  0  0  0  0  0  0  0  0  0  0  0
    2.8360    4.4251    1.9831 H   0  0  0  0  0  0  0  0  0  0  0  0
    2.0603    2.5652    1.1994 C   0  0  0  0  0  0  0  0  0  0  0  0
    3.0442    2.0833    1.1044 H   0  0  0  0  0  0  0  0  0  0  0  0
  2  3  2  0  0  0  0
  3  1  2  0  0  0  0
  5 17  2  0  0  0  0
  5  6  1  0  0  0  0
  6 19  1  0  0  0  0
  7 20  1  0  0  0  0
  7 27  1  0  0  0  0
  8  4  1  0  0  0  0
  8  9  1  0  0  0  0
 10  8  2  0  0  0  0
 11 10  1  0  0  0  0
 12 14  2  0  0  0  0
 12 10  1  0  0  0  0
 13 12  1  0  0  0  0
 14 16  1  0  0  0  0
 15 14  1  0  0  0  0
 16 17  1  0  0  0  0
 16  4  2  0  0  0  0
 17 18  1  0  0  0  0
 18  3  1  0  0  0  0
 18 19  2  0  0  0  0
 20 19  1  1  0  0  0
 20 21  1  0  0  0  0
 21 22  1  0  0  0  0
 21 23  2  0  0  0  0
 23 24  1  0  0  0  0
 25 23  1  0  0  0  0
 25 26  1  0  0  0  0
 27 25  2  0  0  0  0
 28 27  1  0  0  0  0
M  END
