1,2
 OpenBabel05122313053D

 41 44  0  0  0  0  0  0  0  0999 V2000
   -2.7029   -1.1620   -0.1721 N   0  0  0  0  0  2  0  0  0  0  0  0
   -0.2663   -0.1674   -0.0184 N   0  0  0  0  0  2  0  0  0  0  0  0
    0.8595   -2.0939   -0.0054 N   0  0  0  0  0  0  0  0  0  0  0  0
   -3.9910   -1.5441   -0.2795 C   0  0  0  0  0  0  0  0  0  0  0  0
   -4.7079   -0.7038   -0.3141 H   0  0  0  0  0  0  0  0  0  0  0  0
   -4.3671   -2.8909   -0.3125 C   0  0  0  0  0  0  0  0  0  0  0  0
   -5.4302   -3.1534   -0.4048 H   0  0  0  0  0  0  0  0  0  0  0  0
   -3.3730   -3.8748   -0.2101 C   0  0  0  0  0  0  0  0  0  0  0  0
   -3.6342   -4.9433   -0.2115 H   0  0  0  0  0  0  0  0  0  0  0  0
   -2.0339   -3.4837   -0.1008 C   0  0  0  0  0  0  0  0  0  0  0  0
   -1.2512   -4.2435   -0.0068 H   0  0  0  0  0  0  0  0  0  0  0  0
   -1.7099   -2.1111   -0.1003 C   0  0  0  0  0  0  0  0  0  0  0  0
   -0.3873   -1.5158   -0.0300 C   0  0  0  0  0  0  0  0  0  0  0  0
    1.0745    0.1396   -0.0056 C   0  0  0  0  0  0  0  0  0  0  0  0
    1.7974   -1.0655    0.0143 C   0  0  0  0  0  0  0  0  0  0  0  0
    1.1683   -3.5070   -0.1571 C   0  0  0  0  0  0  0  0  0  0  0  0
    0.6309   -3.9243   -1.0300 H   0  0  0  0  0  0  0  0  0  0  0  0
    0.8955   -4.0798    0.7517 H   0  0  0  0  0  0  0  0  0  0  0  0
    2.2533   -3.6137   -0.3283 H   0  0  0  0  0  0  0  0  0  0  0  0
    1.6558    1.4914   -0.0796 C   0  0  0  0  0  0  0  0  0  0  0  0
    2.6732    1.8769    0.8173 C   0  0  0  0  0  0  0  0  0  0  0  0
    2.9783    1.1882    1.6191 H   0  0  0  0  0  0  0  0  0  0  0  0
    3.2797    3.1347    0.6999 C   0  0  0  0  0  0  0  0  0  0  0  0
    4.0632    3.4322    1.4130 H   0  0  0  0  0  0  0  0  0  0  0  0
    2.8827    4.0133   -0.3203 C   0  0  0  0  0  0  0  0  0  0  0  0
    3.3586    5.0014   -0.4127 H   0  0  0  0  0  0  0  0  0  0  0  0
    1.8714    3.6335   -1.2175 C   0  0  0  0  0  0  0  0  0  0  0  0
    1.5469    4.3245   -2.0097 H   0  0  0  0  0  0  0  0  0  0  0  0
    1.2549    2.3826   -1.0971 C   0  0  0  0  0  0  0  0  0  0  0  0
    0.4504    2.0907   -1.7862 H   0  0  0  0  0  0  0  0  0  0  0  0
    3.2530   -1.2780    0.0174 C   0  0  0  0  0  0  0  0  0  0  0  0
    3.8738   -2.1161    0.9731 C   0  0  0  0  0  0  0  0  0  0  0  0
    3.2625   -2.6123    1.7423 H   0  0  0  0  0  0  0  0  0  0  0  0
    5.2653   -2.2874    0.9722 C   0  0  0  0  0  0  0  0  0  0  0  0
    5.7351   -2.9376    1.7256 H   0  0  0  0  0  0  0  0  0  0  0  0
    6.0572   -1.6179    0.0263 C   0  0  0  0  0  0  0  0  0  0  0  0
    7.1497   -1.7487    0.0299 H   0  0  0  0  0  0  0  0  0  0  0  0
    5.4510   -0.7741   -0.9192 C   0  0  0  0  0  0  0  0  0  0  0  0
    6.0672   -0.2430   -1.6601 H   0  0  0  0  0  0  0  0  0  0  0  0
    4.0613   -0.6042   -0.9273 C   0  0  0  0  0  0  0  0  0  0  0  0
    3.5861    0.0584   -1.6648 H   0  0  0  0  0  0  0  0  0  0  0  0
  1 12  1  0  0  0  0
  2 14  1  0  0  0  0
  3 15  1  0  0  0  0
  4  1  1  0  0  0  0
  5  4  1  0  0  0  0
  6  4  2  0  0  0  0
  6  8  1  0  0  0  0
  7  6  1  0  0  0  0
  8 10  2  0  0  0  0
  9  8  1  0  0  0  0
 10 12  1  0  0  0  0
 10 11  1  0  0  0  0
 12 13  2  0  0  0  0
 13  2  1  0  0  0  0
 13  3  1  0  0  0  0
 14 15  2  0  0  0  0
 15 31  1  0  0  0  0
 16  3  1  0  0  0  0
 16 18  1  0  0  0  0
 17 16  1  0  0  0  0
 19 16  1  0  0  0  0
 20 14  1  0  0  0  0
 20 21  1  0  0  0  0
 21 22  1  0  0  0  0
 23 21  2  0  0  0  0
 23 24  1  0  0  0  0
 25 23  1  0  0  0  0
 26 25  1  0  0  0  0
 27 29  1  0  0  0  0
 27 25  2  0  0  0  0
 28 27  1  0  0  0  0
 29 20  2  0  0  0  0
 30 29  1  0  0  0  0
 31 32  1  0  0  0  0
 32 33  1  0  0  0  0
 34 32  2  0  0  0  0
 34 35  1  0  0  0  0
 36 37  1  0  0  0  0
 36 34  1  0  0  0  0
 38 36  2  0  0  0  0
 39 38  1  0  0  0  0
 40 38  1  0  0  0  0
 40 31  2  0  0  0  0
 41 40  1  0  0  0  0
M  END
