1,2
 OpenBabel05122313053D

 36 40  0  0  0  0  0  0  0  0999 V2000
    0.2149    0.1790   -0.0978 N   0  0  0  0  0  2  0  0  0  0  0  0
    2.7333    1.1315   -0.2501 N   0  0  0  0  0  2  0  0  0  0  0  0
   -0.7574    2.1860    0.0694 N   0  0  0  0  0  0  0  0  0  0  0  0
   -0.8659    3.1962    0.1422 H   0  0  0  0  0  0  0  0  0  0  0  0
    0.4261    1.5118   -0.0355 C   0  0  0  0  0  0  0  0  0  0  0  0
    1.7502    2.0787   -0.1592 C   0  0  0  0  0  0  0  0  0  0  0  0
   -1.7770    1.2598    0.0501 C   0  0  0  0  0  0  0  0  0  0  0  0
    4.0126    1.5203   -0.4256 C   0  0  0  0  0  0  0  0  0  0  0  0
    4.7385    0.6895   -0.4627 H   0  0  0  0  0  0  0  0  0  0  0  0
   -1.1632   -0.0034   -0.0874 C   0  0  0  0  0  0  0  0  0  0  0  0
   -4.2245   -2.1547   -0.4061 C   0  0  0  0  0  0  0  0  0  0  0  0
   -5.3176   -2.0657   -0.3505 H   0  0  0  0  0  0  0  0  0  0  0  0
   -4.0157    0.3069    0.0590 C   0  0  0  0  0  0  0  0  0  0  0  0
   -3.4143   -1.0093   -0.1981 C   0  0  0  0  0  0  0  0  0  0  0  0
   -3.6721   -3.3992   -0.7012 C   0  0  0  0  0  0  0  0  0  0  0  0
   -4.3330   -4.2649   -0.8583 H   0  0  0  0  0  0  0  0  0  0  0  0
    2.0451    3.4532   -0.2256 C   0  0  0  0  0  0  0  0  0  0  0  0
    1.2426    4.2008   -0.1439 H   0  0  0  0  0  0  0  0  0  0  0  0
   -1.4433   -2.4440   -0.6060 C   0  0  0  0  0  0  0  0  0  0  0  0
   -0.3532   -2.5639   -0.6570 H   0  0  0  0  0  0  0  0  0  0  0  0
   -3.1874    1.4746    0.1556 C   0  0  0  0  0  0  0  0  0  0  0  0
   -1.9847   -1.1789   -0.2809 C   0  0  0  0  0  0  0  0  0  0  0  0
   -5.1399    2.9016    0.4841 C   0  0  0  0  0  0  0  0  0  0  0  0
   -5.5783    3.8969    0.6479 H   0  0  0  0  0  0  0  0  0  0  0  0
   -5.4145    0.4986    0.1984 C   0  0  0  0  0  0  0  0  0  0  0  0
   -6.0887   -0.3664    0.1467 H   0  0  0  0  0  0  0  0  0  0  0  0
    3.3727    3.8543   -0.4058 C   0  0  0  0  0  0  0  0  0  0  0  0
    3.6264    4.9228   -0.4634 H   0  0  0  0  0  0  0  0  0  0  0  0
   -2.2750   -3.5420   -0.8101 C   0  0  0  0  0  0  0  0  0  0  0  0
   -1.8310   -4.5191   -1.0520 H   0  0  0  0  0  0  0  0  0  0  0  0
   -3.7619    2.7541    0.3609 C   0  0  0  0  0  0  0  0  0  0  0  0
   -3.1147    3.6425    0.4356 H   0  0  0  0  0  0  0  0  0  0  0  0
    4.3693    2.8706   -0.5142 C   0  0  0  0  0  0  0  0  0  0  0  0
    5.4246    3.1397   -0.6615 H   0  0  0  0  0  0  0  0  0  0  0  0
   -5.9676    1.7611    0.4059 C   0  0  0  0  0  0  0  0  0  0  0  0
   -7.0577    1.8662    0.5108 H   0  0  0  0  0  0  0  0  0  0  0  0
  1 10  1  0  0  0  0
  1  5  1  0  0  0  0
  2  6  1  0  0  0  0
  3  4  1  0  0  0  0
  5  3  1  0  0  0  0
  6  5  2  0  0  0  0
  7  3  1  0  0  0  0
  7 21  1  0  0  0  0
  8  2  1  0  0  0  0
  9  8  1  0  0  0  0
 10  7  2  0  0  0  0
 11 12  1  0  0  0  0
 11 14  1  0  0  0  0
 13 21  2  0  0  0  0
 13 25  1  0  0  0  0
 14 13  1  0  0  0  0
 15 11  2  0  0  0  0
 16 15  1  0  0  0  0
 17  6  1  0  0  0  0
 17 18  1  0  0  0  0
 19 22  1  0  0  0  0
 20 19  1  0  0  0  0
 21 31  1  0  0  0  0
 22 14  2  0  0  0  0
 22 10  1  0  0  0  0
 23 24  1  0  0  0  0
 25 35  2  0  0  0  0
 26 25  1  0  0  0  0
 27 17  2  0  0  0  0
 28 27  1  0  0  0  0
 29 15  1  0  0  0  0
 29 19  2  0  0  0  0
 30 29  1  0  0  0  0
 31 32  1  0  0  0  0
 31 23  2  0  0  0  0
 33  8  2  0  0  0  0
 33 27  1  0  0  0  0
 34 33  1  0  0  0  0
 35 23  1  0  0  0  0
 35 36  1  0  0  0  0
M  END
