1,2
 OpenBabel05122313053D

 35 38  0  0  0  0  0  0  0  0999 V2000
    0.1522   -3.1150   -2.0872 N   0  0  0  0  0  2  0  0  0  0  0  0
   -1.5632   -1.0590   -1.3435 N   0  0  0  0  0  2  0  0  0  0  0  0
    0.9788   -4.1012   -2.4703 C   0  0  0  0  0  3  0  0  0  0  0  0
    1.6529   -4.5035   -1.6971 H   0  0  0  0  0  0  0  0  0  0  0  0
    1.0049   -4.6104   -3.7786 C   0  0  0  0  0  0  0  0  0  0  0  0
    1.7013   -5.4200   -4.0389 H   0  0  0  0  0  0  0  0  0  0  0  0
    0.1301   -4.0631   -4.7290 C   0  0  0  0  0  0  0  0  0  0  0  0
    0.1207   -4.4348   -5.7643 H   0  0  0  0  0  0  0  0  0  0  0  0
   -0.7310   -3.0328   -4.3363 C   0  0  0  0  0  0  0  0  0  0  0  0
   -1.4314   -2.5743   -5.0503 H   0  0  0  0  0  0  0  0  0  0  0  0
   -0.6991   -2.5764   -3.0013 C   0  0  0  0  0  0  0  0  0  0  0  0
   -1.5843   -1.4942   -2.5667 C   0  0  0  0  0  3  0  0  0  0  0  0
   -2.2472   -1.0591   -3.3417 H   0  0  0  0  0  0  0  0  0  0  0  0
   -2.3918   -0.0372   -0.8651 C   0  0  0  0  0  0  0  0  0  0  0  0
   -3.5640    0.4068   -1.5366 C   0  0  0  0  0  0  0  0  0  0  0  0
   -3.8941   -0.0748   -2.4691 H   0  0  0  0  0  0  0  0  0  0  0  0
   -4.3165    1.4352   -0.9815 C   0  0  0  0  0  0  0  0  0  0  0  0
   -5.5963    2.0677   -1.4819 C   0  0  0  0  0  0  0  0  0  0  0  0
   -6.4163    1.3216   -1.5712 H   0  0  0  0  0  0  0  0  0  0  0  0
   -5.4721    2.5128   -2.4935 H   0  0  0  0  0  0  0  0  0  0  0  0
   -5.8945    3.1147   -0.4315 C   0  0  0  0  0  0  0  0  0  0  0  0
   -6.9518    4.0262   -0.3551 C   0  0  0  0  0  0  0  0  0  0  0  0
   -7.7290    4.0566   -1.1339 H   0  0  0  0  0  0  0  0  0  0  0  0
   -7.0088    4.9083    0.7389 C   0  0  0  0  0  0  0  0  0  0  0  0
   -7.8359    5.6302    0.8119 H   0  0  0  0  0  0  0  0  0  0  0  0
   -6.0213    4.8806    1.7441 C   0  0  0  0  0  0  0  0  0  0  0  0
   -6.0879    5.5811    2.5898 H   0  0  0  0  0  0  0  0  0  0  0  0
   -4.9577    3.9709    1.6750 C   0  0  0  0  0  0  0  0  0  0  0  0
   -4.1871    3.9517    2.4604 H   0  0  0  0  0  0  0  0  0  0  0  0
   -4.8966    3.0870    0.5819 C   0  0  0  0  0  0  0  0  0  0  0  0
   -3.9231    2.0500    0.2451 C   0  0  0  0  0  0  0  0  0  0  0  0
   -2.7686    1.6084    0.9178 C   0  0  0  0  0  0  0  0  0  0  0  0
   -2.4581    2.0693    1.8670 H   0  0  0  0  0  0  0  0  0  0  0  0
   -2.0227    0.5647    0.3666 C   0  0  0  0  0  0  0  0  0  0  0  0
   -1.1147    0.1948    0.8688 H   0  0  0  0  0  0  0  0  0  0  0  0
  2 14  1  0  0  0  0
  3  1  1  0  0  0  0
  3  4  1  0  0  0  0
  5  3  1  0  0  0  0
  6  5  1  0  0  0  0
  7  9  1  0  0  0  0
  7  5  2  0  0  0  0
  8  7  1  0  0  0  0
  9 11  2  0  0  0  0
 10  9  1  0  0  0  0
 11 12  1  0  0  0  0
 11  1  1  0  0  0  0
 12  2  1  0  0  0  0
 13 12  1  0  0  0  0
 14 34  1  0  0  0  0
 15 17  1  0  0  0  0
 15 14  2  0  0  0  0
 16 15  1  0  0  0  0
 17 31  2  0  0  0  0
 18 17  1  0  0  0  0
 18 21  1  0  0  0  0
 19 18  1  0  0  0  0
 20 18  1  0  0  0  0
 21 22  2  0  0  0  0
 21 30  1  0  0  0  0
 22 24  1  0  0  0  0
 23 22  1  0  0  0  0
 24 25  1  0  0  0  0
 24 26  2  0  0  0  0
 26 27  1  0  0  0  0
 28 26  1  0  0  0  0
 28 29  1  0  0  0  0
 30 28  2  0  0  0  0
 31 30  1  0  0  0  0
 31 32  1  0  0  0  0
 32 33  1  0  0  0  0
 34 35  1  0  0  0  0
 34 32  2  0  0  0  0
M  END
