11,12
 OpenBabel05122313053D

 46 47  0  0  0  0  0  0  0  0999 V2000
   -6.6090   -0.8548   -1.6337 F   0  0  0  0  0  0  0  0  0  0  0  0
   -8.1635   -0.8856   -0.0610 F   0  0  0  0  0  0  0  0  0  0  0  0
   -6.0547   -1.0829    1.8413 F   0  0  0  0  0  0  0  0  0  0  0  0
   -6.3316   -2.7552    0.4153 F   0  0  0  0  0  0  0  0  0  0  0  0
    8.1636   -0.8857   -0.0604 F   0  0  0  0  0  0  0  0  0  0  0  0
    6.6102   -0.8536   -1.6343 F   0  0  0  0  0  0  0  0  0  0  0  0
    6.0532   -1.0842    1.8401 F   0  0  0  0  0  0  0  0  0  0  0  0
    6.3313   -2.7555    0.4133 F   0  0  0  0  0  0  0  0  0  0  0  0
   -5.3287    1.2420   -0.2303 O   0  0  0  0  0  0  0  0  0  0  0  0
    5.3290    1.2423   -0.2304 O   0  0  0  0  0  0  0  0  0  0  0  0
   -1.3269    1.7273   -0.0033 N   0  0  0  0  0  2  0  0  0  0  0  0
    1.3270    1.7273   -0.0027 N   0  0  0  0  0  2  0  0  0  0  0  0
   -0.7351    2.9566    0.0611 C   0  0  0  0  0  0  0  0  0  0  0  0
   -1.5211    4.1233    0.1193 C   0  0  0  0  0  0  0  0  0  0  0  0
   -1.0406    5.1092    0.1672 H   0  0  0  0  0  0  0  0  0  0  0  0
   -2.9133    4.0244    0.1127 C   0  0  0  0  0  0  0  0  0  0  0  0
   -3.5313    4.9348    0.1550 H   0  0  0  0  0  0  0  0  0  0  0  0
   -3.5109    2.7528    0.0486 C   0  0  0  0  0  0  0  0  0  0  0  0
   -2.6701    1.6327   -0.0122 C   0  0  0  0  0  0  0  0  0  0  0  0
   -3.0784    0.6118   -0.0721 H   0  0  0  0  0  0  0  0  0  0  0  0
   -5.0081    2.5761    0.0670 C   0  0  0  0  0  0  0  0  0  0  0  0
   -5.3983    2.8644    1.0774 H   0  0  0  0  0  0  0  0  0  0  0  0
   -5.4813    3.2817   -0.6624 H   0  0  0  0  0  0  0  0  0  0  0  0
   -6.6876    0.9207   -0.0628 C   0  0  0  0  0  0  0  0  0  0  0  0
   -7.3446    1.4674   -0.7810 H   0  0  0  0  0  0  0  0  0  0  0  0
   -7.0392    1.1334    0.9737 H   0  0  0  0  0  0  0  0  0  0  0  0
   -6.8591   -0.5713   -0.3211 C   0  0  0  0  0  0  0  0  0  0  0  0
   -5.9339   -1.4653    0.5330 C   0  0  0  0  0  0  0  0  0  0  0  0
   -4.8704   -1.3674    0.2165 H   0  0  0  0  0  0  0  0  0  0  0  0
    0.7351    2.9566    0.0613 C   0  0  0  0  0  0  0  0  0  0  0  0
    1.5211    4.1233    0.1195 C   0  0  0  0  0  0  0  0  0  0  0  0
    1.0406    5.1092    0.1670 H   0  0  0  0  0  0  0  0  0  0  0  0
    2.9134    4.0244    0.1132 C   0  0  0  0  0  0  0  0  0  0  0  0
    3.5314    4.9348    0.1554 H   0  0  0  0  0  0  0  0  0  0  0  0
    3.5110    2.7528    0.0495 C   0  0  0  0  0  0  0  0  0  0  0  0
    2.6702    1.6327   -0.0112 C   0  0  0  0  0  0  0  0  0  0  0  0
    3.0785    0.6117   -0.0708 H   0  0  0  0  0  0  0  0  0  0  0  0
    5.0082    2.5760    0.0684 C   0  0  0  0  0  0  0  0  0  0  0  0
    5.4817    3.2825   -0.6599 H   0  0  0  0  0  0  0  0  0  0  0  0
    5.3979    2.8632    1.0793 H   0  0  0  0  0  0  0  0  0  0  0  0
    6.6877    0.9207   -0.0620 C   0  0  0  0  0  0  0  0  0  0  0  0
    7.0384    1.1326    0.9750 H   0  0  0  0  0  0  0  0  0  0  0  0
    7.3453    1.4679   -0.7792 H   0  0  0  0  0  0  0  0  0  0  0  0
    6.8594   -0.5711   -0.3213 C   0  0  0  0  0  0  0  0  0  0  0  0
    5.9335   -1.4657    0.5315 C   0  0  0  0  0  0  0  0  0  0  0  0
    4.8703   -1.3676    0.2142 H   0  0  0  0  0  0  0  0  0  0  0  0
  1 27  1  0  0  0  0
  4 28  1  0  0  0  0
  6 44  1  0  0  0  0
  8 45  1  0  0  0  0
  9 24  1  0  0  0  0
  9 21  1  0  0  0  0
 10 41  1  0  0  0  0
 10 38  1  0  0  0  0
 11 13  1  0  0  0  0
 12 30  1  0  0  0  0
 13 30  2  0  0  0  0
 13 14  1  0  0  0  0
 14 15  1  0  0  0  0
 16 14  2  0  0  0  0
 16 17  1  0  0  0  0
 18 21  1  0  0  0  0
 18 16  1  0  0  0  0
 19 11  1  0  0  0  0
 19 18  2  0  0  0  0
 20 19  1  0  0  0  0
 21 22  1  0  0  0  0
 23 21  1  0  0  0  0
 24 26  1  0  0  0  0
 25 24  1  0  0  0  0
 27 24  1  0  0  0  0
 27  2  1  0  0  0  0
 27 28  1  0  0  0  0
 28  3  1  0  0  0  0
 29 28  1  0  0  0  0
 30 31  1  0  0  0  0
 31 32  1  0  0  0  0
 33 31  2  0  0  0  0
 33 34  1  0  0  0  0
 35 38  1  0  0  0  0
 35 33  1  0  0  0  0
 36 12  1  0  0  0  0
 36 35  2  0  0  0  0
 37 36  1  0  0  0  0
 38 40  1  0  0  0  0
 39 38  1  0  0  0  0
 41 42  1  0  0  0  0
 43 41  1  0  0  0  0
 44 41  1  0  0  0  0
 44  5  1  0  0  0  0
 44 45  1  0  0  0  0
 45  7  1  0  0  0  0
 46 45  1  0  0  0  0
M  END
