4,5
 OpenBabel05122313053D

 50 50  0  0  0  0  0  0  0  0999 V2000
   12.9047   -0.1166    1.1103 O   0  0  0  0  0  0  0  0  0  0  0  0
   13.6314    0.5436    1.0899 H   0  0  0  0  0  0  0  0  0  0  0  0
   11.8482    1.7010    0.2795 O   0  0  0  0  0  0  0  0  0  0  0  0
   -3.2454    1.6513   -0.4703 N   0  0  0  0  0  2  0  0  0  0  0  0
   -1.2470    0.0744    0.2655 N   0  0  0  0  0  2  0  0  0  0  0  0
   -4.2841    2.4216   -0.8552 C   0  0  0  0  0  3  0  0  0  0  0  0
   -5.2292    1.8961   -1.0540 H   0  0  0  0  0  0  0  0  0  0  0  0
   -4.1802    3.8105   -0.9866 C   0  0  0  0  0  0  0  0  0  0  0  0
   -5.0599    4.3896   -1.3002 H   0  0  0  0  0  0  0  0  0  0  0  0
   -2.9538    4.4371   -0.7084 C   0  0  0  0  0  0  0  0  0  0  0  0
   -2.8460    5.5277   -0.8005 H   0  0  0  0  0  0  0  0  0  0  0  0
   -1.8732    3.6462   -0.3085 C   0  0  0  0  0  0  0  0  0  0  0  0
   -0.8936    4.0880   -0.0762 H   0  0  0  0  0  0  0  0  0  0  0  0
   -2.0470    2.2546   -0.1937 C   0  0  0  0  0  0  0  0  0  0  0  0
   -0.9866    1.3483    0.2055 C   0  0  0  0  0  3  0  0  0  0  0  0
    0.0180    1.7447    0.4428 H   0  0  0  0  0  0  0  0  0  0  0  0
   -0.1944   -0.8564    0.6633 C   0  0  0  0  0  0  0  0  0  0  0  0
   -0.5727   -1.3991    1.5551 H   0  0  0  0  0  0  0  0  0  0  0  0
    0.7091   -0.2871    0.9742 H   0  0  0  0  0  0  0  0  0  0  0  0
    0.1514   -1.8596   -0.4461 C   0  0  0  0  0  0  0  0  0  0  0  0
    0.9191   -2.5458   -0.0305 H   0  0  0  0  0  0  0  0  0  0  0  0
   -0.7384   -2.4877   -0.6521 H   0  0  0  0  0  0  0  0  0  0  0  0
    0.6378   -1.2276   -1.7572 C   0  0  0  0  0  0  0  0  0  0  0  0
   -0.1948   -0.6475   -2.2088 H   0  0  0  0  0  0  0  0  0  0  0  0
    0.8448   -2.0490   -2.4767 H   0  0  0  0  0  0  0  0  0  0  0  0
    1.8803   -0.3318   -1.6509 C   0  0  0  0  0  0  0  0  0  0  0  0
    1.6577    0.5657   -1.0297 H   0  0  0  0  0  0  0  0  0  0  0  0
    2.1098    0.0709   -2.6615 H   0  0  0  0  0  0  0  0  0  0  0  0
    3.1302   -1.0218   -1.0963 C   0  0  0  0  0  0  0  0  0  0  0  0
    3.3407   -1.9352   -1.6978 H   0  0  0  0  0  0  0  0  0  0  0  0
    2.9390   -1.3863   -0.0621 H   0  0  0  0  0  0  0  0  0  0  0  0
    4.3702   -0.1243   -1.0822 C   0  0  0  0  0  0  0  0  0  0  0  0
    4.5746    0.2374   -2.1154 H   0  0  0  0  0  0  0  0  0  0  0  0
    4.1545    0.7913   -0.4853 H   0  0  0  0  0  0  0  0  0  0  0  0
    5.6236   -0.8052   -0.5267 C   0  0  0  0  0  0  0  0  0  0  0  0
    5.8406   -1.7190   -1.1250 H   0  0  0  0  0  0  0  0  0  0  0  0
    5.4183   -1.1685    0.5059 H   0  0  0  0  0  0  0  0  0  0  0  0
    6.8611    0.0954   -0.5100 C   0  0  0  0  0  0  0  0  0  0  0  0
    7.0651    0.4611   -1.5417 H   0  0  0  0  0  0  0  0  0  0  0  0
    6.6454    1.0079    0.0908 H   0  0  0  0  0  0  0  0  0  0  0  0
    8.1165   -0.5856    0.0409 C   0  0  0  0  0  0  0  0  0  0  0  0
    8.3350   -1.4966   -0.5615 H   0  0  0  0  0  0  0  0  0  0  0  0
    7.9129   -0.9540    1.0722 H   0  0  0  0  0  0  0  0  0  0  0  0
    9.3464    0.3241    0.0570 C   0  0  0  0  0  0  0  0  0  0  0  0
    9.5575    0.6971   -0.9681 H   0  0  0  0  0  0  0  0  0  0  0  0
    9.1395    1.2343    0.6594 H   0  0  0  0  0  0  0  0  0  0  0  0
   10.5948   -0.3613    0.6045 C   0  0  0  0  0  0  0  0  0  0  0  0
   10.8568   -1.2669    0.0142 H   0  0  0  0  0  0  0  0  0  0  0  0
   10.4330   -0.7382    1.6386 H   0  0  0  0  0  0  0  0  0  0  0  0
   11.8133    0.5372    0.6318 C   0  0  0  0  0  0  0  0  0  0  0  0
  2  1  1  0  0  0  0
  3 50  2  0  0  0  0
  4 14  1  0  0  0  0
  5 17  1  0  0  0  0
  6  4  1  0  0  0  0
  7  6  1  0  0  0  0
  8  6  1  0  0  0  0
  8 10  2  0  0  0  0
  9  8  1  0  0  0  0
 10 12  1  0  0  0  0
 11 10  1  0  0  0  0
 12 14  2  0  0  0  0
 12 13  1  0  0  0  0
 14 15  1  0  0  0  0
 15  5  1  0  0  0  0
 15 16  1  0  0  0  0
 17 19  1  0  0  0  0
 17 18  1  0  0  0  0
 20 21  1  0  0  0  0
 20 17  1  0  0  0  0
 22 20  1  0  0  0  0
 23 26  1  0  0  0  0
 23 20  1  0  0  0  0
 24 23  1  0  0  0  0
 25 23  1  0  0  0  0
 26 29  1  0  0  0  0
 26 27  1  0  0  0  0
 28 26  1  0  0  0  0
 29 32  1  0  0  0  0
 29 31  1  0  0  0  0
 30 29  1  0  0  0  0
 32 35  1  0  0  0  0
 32 34  1  0  0  0  0
 33 32  1  0  0  0  0
 35 38  1  0  0  0  0
 35 37  1  0  0  0  0
 36 35  1  0  0  0  0
 38 41  1  0  0  0  0
 38 40  1  0  0  0  0
 39 38  1  0  0  0  0
 41 44  1  0  0  0  0
 41 43  1  0  0  0  0
 42 41  1  0  0  0  0
 44 47  1  0  0  0  0
 44 46  1  0  0  0  0
 45 44  1  0  0  0  0
 47 50  1  0  0  0  0
 47 49  1  0  0  0  0
 48 47  1  0  0  0  0
 50  1  1  0  0  0  0
M  END
