3,4
 OpenBabel05122313053D

 20 21  0  0  1  0  0  0  0  0999 V2000
    0.8847    4.2441    1.2573 S   0  0  0  0  0  0  0  0  0  0  0  0
    4.4644    0.3203   -0.6964 S   0  0  0  0  0  0  0  0  0  0  0  0
   -0.4091    2.0813    0.6758 N   0  0  0  0  0  2  0  0  0  0  0  0
    1.7437    0.6370   -0.2787 N   0  0  0  0  0  2  0  0  0  0  0  0
    2.5479   -1.3234   -1.3486 N   0  0  0  0  0  0  0  0  0  0  0  0
    3.1449    2.4110    0.2575 O   0  0  0  0  0  0  0  0  0  0  0  0
   -0.8264    4.1974    1.5173 C   0  0  0  0  0  0  0  0  0  0  0  0
   -1.3382    2.9648    1.1495 C   0  0  0  0  0  0  0  0  0  0  0  0
    0.8022    2.6056    0.6682 C   0  0  1  0  0  3  0  0  0  0  0  0
    2.0177    1.8947    0.1997 C   0  0  0  0  0  0  0  0  0  0  0  0
    2.7501   -0.1377   -0.7833 C   0  0  0  0  0  0  0  0  0  0  0  0
    3.7300   -1.9111   -1.7290 C   0  0  0  0  0  0  0  0  0  0  0  0
    4.8835   -1.2056   -1.4647 C   0  0  0  0  0  0  0  0  0  0  0  0
    6.2994   -1.5746   -1.7715 C   0  0  0  0  0  0  0  0  0  0  0  0
   -1.3636    5.0652    1.9186 H   0  0  0  0  0  0  0  0  0  0  0  0
   -2.3952    2.6686    1.2068 H   0  0  0  0  0  0  0  0  0  0  0  0
    3.7012   -2.8921   -2.2260 H   0  0  0  0  0  0  0  0  0  0  0  0
    6.9244   -1.6330   -0.8554 H   0  0  0  0  0  0  0  0  0  0  0  0
    6.3334   -2.5640   -2.2683 H   0  0  0  0  0  0  0  0  0  0  0  0
    6.7823   -0.8387   -2.4485 H   0  0  0  0  0  0  0  0  0  0  0  0
  1  7  1  0  0  0  0
  3  8  1  0  0  0  0
  4 10  1  0  0  0  0
  5 11  2  0  0  0  0
  7 15  1  0  0  0  0
  8 16  1  0  0  0  0
  8  7  2  0  0  0  0
  9 10  1  6  0  0  0
  9  3  1  0  0  0  0
  9  1  1  0  0  0  0
 10  6  2  0  0  0  0
 11  2  1  0  0  0  0
 11  4  1  0  0  0  0
 12 13  2  0  0  0  0
 12  5  1  0  0  0  0
 13  2  1  0  0  0  0
 14 13  1  0  0  0  0
 14 18  1  0  0  0  0
 17 12  1  0  0  0  0
 19 14  1  0  0  0  0
 20 14  1  0  0  0  0
M  END
