3,4
 OpenBabel05122313053D

 34 35  0  0  0  0  0  0  0  0999 V2000
    7.3092   -0.0506   -0.1085 Br  0  0  0  0  0  0  0  0  0  0  0  0
   -7.3091   -0.0506   -0.1085 Br  0  0  0  0  0  0  0  0  0  0  0  0
    1.2824    0.9285   -0.4999 N   0  0  0  0  0  2  0  0  0  0  0  0
   -1.2824    0.9284   -0.5000 N   0  0  0  0  0  2  0  0  0  0  0  0
    0.7337    2.1221   -0.6108 C   0  0  0  0  0  0  0  0  0  0  0  0
   -0.7337    2.1221   -0.6108 C   0  0  0  0  0  0  0  0  0  0  0  0
    1.5022    3.3989   -0.7604 C   0  0  0  0  0  0  0  0  0  0  0  0
    2.5836    3.2091   -0.8783 H   0  0  0  0  0  0  0  0  0  0  0  0
    1.3595    4.0442    0.1318 H   0  0  0  0  0  0  0  0  0  0  0  0
    1.1416    3.9778   -1.6346 H   0  0  0  0  0  0  0  0  0  0  0  0
   -1.5022    3.3989   -0.7604 C   0  0  0  0  0  0  0  0  0  0  0  0
   -1.1409    3.9783   -1.6339 H   0  0  0  0  0  0  0  0  0  0  0  0
   -1.3605    4.0436    0.1324 H   0  0  0  0  0  0  0  0  0  0  0  0
   -2.5835    3.2090   -0.8793 H   0  0  0  0  0  0  0  0  0  0  0  0
    2.6936    0.7493   -0.4280 C   0  0  0  0  0  0  0  0  0  0  0  0
    3.3937    1.1379    0.7305 C   0  0  0  0  0  0  0  0  0  0  0  0
    2.8378    1.5859    1.5670 H   0  0  0  0  0  0  0  0  0  0  0  0
    4.7699    0.8955    0.8285 C   0  0  0  0  0  0  0  0  0  0  0  0
    5.3197    1.1836    1.7353 H   0  0  0  0  0  0  0  0  0  0  0  0
    5.4403    0.2703   -0.2351 C   0  0  0  0  0  0  0  0  0  0  0  0
    4.7453   -0.1316   -1.3886 C   0  0  0  0  0  0  0  0  0  0  0  0
    5.2792   -0.6302   -2.2094 H   0  0  0  0  0  0  0  0  0  0  0  0
    3.3673    0.0988   -1.4784 C   0  0  0  0  0  0  0  0  0  0  0  0
    2.8021   -0.2298   -2.3626 H   0  0  0  0  0  0  0  0  0  0  0  0
   -2.6936    0.7493   -0.4280 C   0  0  0  0  0  0  0  0  0  0  0  0
   -3.3937    1.1382    0.7303 C   0  0  0  0  0  0  0  0  0  0  0  0
   -2.8379    1.5865    1.5667 H   0  0  0  0  0  0  0  0  0  0  0  0
   -4.7699    0.8958    0.8283 C   0  0  0  0  0  0  0  0  0  0  0  0
   -5.3198    1.1842    1.7350 H   0  0  0  0  0  0  0  0  0  0  0  0
   -5.4403    0.2702   -0.2352 C   0  0  0  0  0  0  0  0  0  0  0  0
   -4.7452   -0.1320   -1.3885 C   0  0  0  0  0  0  0  0  0  0  0  0
   -5.2791   -0.6308   -2.2091 H   0  0  0  0  0  0  0  0  0  0  0  0
   -3.3673    0.0984   -1.4783 C   0  0  0  0  0  0  0  0  0  0  0  0
   -2.8020   -0.2304   -2.3624 H   0  0  0  0  0  0  0  0  0  0  0  0
  3 15  1  0  0  0  0
  4 25  1  0  0  0  0
  5  3  1  0  0  0  0
  6  5  2  0  0  0  0
  6  4  1  0  0  0  0
  7  5  1  0  0  0  0
  7  9  1  0  0  0  0
  8  7  1  0  0  0  0
 10  7  1  0  0  0  0
 11  6  1  0  0  0  0
 11 13  1  0  0  0  0
 12 11  1  0  0  0  0
 14 11  1  0  0  0  0
 15 16  1  0  0  0  0
 16 18  2  0  0  0  0
 16 17  1  0  0  0  0
 18 19  1  0  0  0  0
 20  1  1  0  0  0  0
 20 18  1  0  0  0  0
 21 20  2  0  0  0  0
 22 21  1  0  0  0  0
 23 21  1  0  0  0  0
 23 15  2  0  0  0  0
 24 23  1  0  0  0  0
 25 26  1  0  0  0  0
 26 28  2  0  0  0  0
 26 27  1  0  0  0  0
 28 29  1  0  0  0  0
 30  2  1  0  0  0  0
 30 28  1  0  0  0  0
 31 30  2  0  0  0  0
 32 31  1  0  0  0  0
 33 31  1  0  0  0  0
 33 25  2  0  0  0  0
 34 33  1  0  0  0  0
M  END
