23,26
 OpenBabel05122313053D

 28 28  0  0  1  0  0  0  0  0999 V2000
   -3.0979   -0.7053    0.9341 C   0  0  2  0  0  0  0  0  0  0  0  0
   -3.5941   -0.1456   -0.4531 C   0  0  0  0  0  0  0  0  0  0  0  0
   -2.6160   -0.8006   -1.4884 C   0  0  2  0  0  0  0  0  0  0  0  0
   -3.1884   -1.0142   -2.4162 H   0  0  0  0  0  0  0  0  0  0  0  0
   -2.1200   -2.1186   -0.8381 C   0  0  0  0  0  0  0  0  0  0  0  0
   -2.4256   -3.0064   -1.4238 H   0  0  0  0  0  0  0  0  0  0  0  0
   -1.0091   -2.1270   -0.8325 H   0  0  0  0  0  0  0  0  0  0  0  0
   -2.6949   -2.1547    0.5941 C   0  0  0  0  0  0  0  0  0  0  0  0
   -1.9835   -2.5671    1.3388 H   0  0  0  0  0  0  0  0  0  0  0  0
   -3.5920   -2.8013    0.6392 H   0  0  0  0  0  0  0  0  0  0  0  0
   -4.1273   -0.6242    2.0663 C   0  0  0  0  0  0  0  0  0  0  0  0
   -3.6908   -1.0153    3.0086 H   0  0  0  0  0  0  0  0  0  0  0  0
   -5.0328   -1.2224    1.8540 H   0  0  0  0  0  0  0  0  0  0  0  0
   -4.4421    0.4231    2.2522 H   0  0  0  0  0  0  0  0  0  0  0  0
   -3.6475    1.3883   -0.5201 C   0  0  0  0  0  0  0  0  0  0  0  0
   -2.6829    1.8975   -0.3148 H   0  0  0  0  0  0  0  0  0  0  0  0
   -4.3825    1.7786    0.2122 H   0  0  0  0  0  0  0  0  0  0  0  0
   -4.0026    1.7224   -1.5173 H   0  0  0  0  0  0  0  0  0  0  0  0
   -5.0049   -0.6857   -0.7730 C   0  0  0  0  0  0  0  0  0  0  0  0
   -5.3039   -0.3680   -1.7915 H   0  0  0  0  0  0  0  0  0  0  0  0
   -5.7602   -0.2859   -0.0708 H   0  0  0  0  0  0  0  0  0  0  0  0
   -5.0603   -1.7920   -0.7421 H   0  0  0  0  0  0  0  0  0  0  0  0
   -1.8613    0.0292    1.3418 N   0  0  0  0  0  0  0  0  0  0  0  0
   -1.5622   -0.3357    2.2582 H   0  0  0  0  0  0  0  0  0  0  0  0
   -2.0740    1.0255    1.5205 H   0  0  0  0  0  0  0  0  0  0  0  0
   -1.4605    0.0672   -1.8497 N   0  0  0  0  0  0  0  0  0  0  0  0
   -1.8038    0.9789   -2.1885 H   0  0  0  0  0  0  0  0  0  0  0  0
   -0.9715   -0.3524   -2.6530 H   0  0  0  0  0  0  0  0  0  0  0  0
  1 23  1  1  0  0  0
  1 11  1  0  0  0  0
  2  1  1  0  0  0  0
  3  4  1  6  0  0  0
  3  5  1  0  0  0  0
  3  2  1  0  0  0  0
  5  7  1  0  0  0  0
  5  8  1  0  0  0  0
  6  5  1  0  0  0  0
  8 10  1  0  0  0  0
  8  1  1  0  0  0  0
  8  9  1  0  0  0  0
 11 14  1  0  0  0  0
 11 12  1  0  0  0  0
 13 11  1  0  0  0  0
 15  2  1  0  0  0  0
 15 16  1  0  0  0  0
 15 17  1  0  0  0  0
 18 15  1  0  0  0  0
 19 22  1  0  0  0  0
 19  2  1  0  0  0  0
 19 21  1  0  0  0  0
 20 19  1  0  0  0  0
 23 25  1  0  0  0  0
 23 24  1  0  0  0  0
 26  3  1  0  0  0  0
 27 26  1  0  0  0  0
 28 26  1  0  0  0  0
M  END
