1,2
q = -1.0, confidence = 0.0

 34 35  0  0  1  0  0  0  0  0999 V2000
    0.4790   -2.4824    0.3632 N   0  0  0  0  0  0  0  0  0  0  0  0
   -1.9208   -1.5269    0.1742 N   0  0  0  0  0  2  0  0  0  0  0  0
   -3.0971   -3.7106    0.1447 C   0  0  0  0  0  0  0  0  0  0  0  0
   -1.8677   -2.8533    0.2441 C   0  0  1  0  0  3  0  0  0  0  0  0
   -0.5611   -3.4040    0.3912 C   0  0  0  0  0  0  0  0  0  0  0  0
   -0.0462   -4.7078    0.6032 C   0  0  0  0  0  0  0  0  0  0  0  0
    1.3496   -4.5605    0.7174 C   0  0  0  0  0  0  0  0  0  0  0  0
    1.6258   -3.1798    0.5614 C   0  0  0  0  0  3  0  0  0  0  0  0
   -3.1464   -0.8566   -0.0756 C   0  0  0  0  0  0  0  0  0  0  0  0
   -3.5055   -0.5680   -1.4137 C   0  0  0  0  0  0  0  0  0  0  0  0
   -4.6691    0.1845   -1.6502 C   0  0  0  0  0  0  0  0  0  0  0  0
   -5.4721    0.6602   -0.5984 C   0  0  0  0  0  0  0  0  0  0  0  0
   -5.0905    0.3481    0.7203 C   0  0  0  0  0  0  0  0  0  0  0  0
   -3.9398   -0.4040    1.0064 C   0  0  0  0  0  0  0  0  0  0  0  0
   -3.5329   -0.7178    2.4208 C   0  0  0  0  0  0  0  0  0  0  0  0
   -2.6162   -1.0257   -2.5399 C   0  0  0  0  0  0  0  0  0  0  0  0
   -6.6847    1.5169   -0.8663 C   0  0  0  0  0  0  0  0  0  0  0  0
   -0.6234   -5.6376    0.6758 H   0  0  0  0  0  0  0  0  0  0  0  0
    2.0895   -5.3522    0.8853 H   0  0  0  0  0  0  0  0  0  0  0  0
    2.6046   -2.6836    0.5616 H   0  0  0  0  0  0  0  0  0  0  0  0
   -4.9462    0.4205   -2.6909 H   0  0  0  0  0  0  0  0  0  0  0  0
   -5.7036    0.7138    1.5605 H   0  0  0  0  0  0  0  0  0  0  0  0
   -7.5383    1.2335   -0.2174 H   0  0  0  0  0  0  0  0  0  0  0  0
   -7.0152    1.4418   -1.9208 H   0  0  0  0  0  0  0  0  0  0  0  0
   -6.4675    2.5878   -0.6623 H   0  0  0  0  0  0  0  0  0  0  0  0
   -2.9456   -0.6110   -3.5116 H   0  0  0  0  0  0  0  0  0  0  0  0
   -2.5900   -2.1324   -2.6305 H   0  0  0  0  0  0  0  0  0  0  0  0
   -1.5651   -0.7137   -2.3531 H   0  0  0  0  0  0  0  0  0  0  0  0
   -3.5710   -3.5904   -0.8512 H   0  0  0  0  0  0  0  0  0  0  0  0
   -2.8577   -4.7781    0.2961 H   0  0  0  0  0  0  0  0  0  0  0  0
   -3.8578   -3.3984    0.8877 H   0  0  0  0  0  0  0  0  0  0  0  0
   -2.4729   -0.4407    2.5882 H   0  0  0  0  0  0  0  0  0  0  0  0
   -3.6157   -1.8031    2.6445 H   0  0  0  0  0  0  0  0  0  0  0  0
   -4.1596   -0.1708    3.1505 H   0  0  0  0  0  0  0  0  0  0  0  0
  1  5  2  0  0  0  0
  1  8  1  0  0  0  0
  3  4  1  0  0  0  0
  3 30  1  0  0  0  0
  3 31  1  0  0  0  0
  4  2  1  6  0  0  0
  4  5  1  0  0  0  0
  5  6  1  0  0  0  0
  6 18  1  0  0  0  0
  6  7  2  0  0  0  0
  7 19  1  0  0  0  0
  8 20  1  0  0  0  0
  8  7  1  0  0  0  0
  9  2  1  0  0  0  0
  9 14  1  0  0  0  0
 10  9  2  0  0  0  0
 11 10  1  0  0  0  0
 11 12  2  0  0  0  0
 12 13  1  0  0  0  0
 13 14  2  0  0  0  0
 13 22  1  0  0  0  0
 14 15  1  0  0  0  0
 15 32  1  0  0  0  0
 15 33  1  0  0  0  0
 15 34  1  0  0  0  0
 16 28  1  0  0  0  0
 16 10  1  0  0  0  0
 17 25  1  0  0  0  0
 17 12  1  0  0  0  0
 17 23  1  0  0  0  0
 21 11  1  0  0  0  0
 24 17  1  0  0  0  0
 26 16  1  0  0  0  0
 27 16  1  0  0  0  0
 29  3  1  0  0  0  0
M  END
