1,2
 OpenBabel05122313053D

 50 51  0  0  0  0  0  0  0  0999 V2000
   -1.3622    2.3667    0.3529 N   0  0  0  0  0  2  0  0  0  0  0  0
    1.3622    2.3653   -0.3609 N   0  0  0  0  0  2  0  0  0  0  0  0
   -2.6579    2.4534    0.3565 C   0  0  0  0  0  3  0  0  0  0  0  0
   -3.1130    3.4682    0.4151 H   0  0  0  0  0  0  0  0  0  0  0  0
   -3.6069    1.3608    0.2896 C   0  0  0  0  0  0  0  0  0  0  0  0
   -4.9663    1.6795    0.0813 C   0  0  0  0  0  0  0  0  0  0  0  0
   -5.2730    2.7324   -0.0131 H   0  0  0  0  0  0  0  0  0  0  0  0
   -5.9264    0.6662   -0.0237 C   0  0  0  0  0  0  0  0  0  0  0  0
   -6.9778    0.9307   -0.1953 H   0  0  0  0  0  0  0  0  0  0  0  0
   -5.5481   -0.6842    0.0902 C   0  0  0  0  0  0  0  0  0  0  0  0
   -4.1711   -1.0221    0.3241 C   0  0  0  0  0  0  0  0  0  0  0  0
   -3.9074   -2.3381    0.4365 O   0  0  0  0  0  0  0  0  0  0  0  0
   -2.5479   -2.7245    0.6344 C   0  0  0  0  0  0  0  0  0  0  0  0
   -1.9038   -2.3792   -0.2039 H   0  0  0  0  0  0  0  0  0  0  0  0
   -2.5480   -3.8288    0.6750 H   0  0  0  0  0  0  0  0  0  0  0  0
   -2.1390   -2.3170    1.5844 H   0  0  0  0  0  0  0  0  0  0  0  0
   -6.3920   -1.7334    0.0075 O   0  0  0  0  0  0  0  0  0  0  0  0
   -7.7675   -1.4817   -0.2192 C   0  0  0  0  0  0  0  0  0  0  0  0
   -8.2165   -0.8793    0.6016 H   0  0  0  0  0  0  0  0  0  0  0  0
   -8.2620   -2.4695   -0.2549 H   0  0  0  0  0  0  0  0  0  0  0  0
   -7.9356   -0.9552   -1.1849 H   0  0  0  0  0  0  0  0  0  0  0  0
    0.5757    3.5811   -0.5114 C   0  0  0  0  0  0  0  0  0  0  0  0
    0.1459    3.5930   -1.5385 H   0  0  0  0  0  0  0  0  0  0  0  0
    1.1984    4.4961   -0.3902 H   0  0  0  0  0  0  0  0  0  0  0  0
    2.6579    2.4517   -0.3638 C   0  0  0  0  0  3  0  0  0  0  0  0
    3.1132    3.4664   -0.4242 H   0  0  0  0  0  0  0  0  0  0  0  0
    3.6070    1.3594   -0.2942 C   0  0  0  0  0  0  0  0  0  0  0  0
    3.2263   -0.0018   -0.4228 C   0  0  0  0  0  0  0  0  0  0  0  0
    2.1802   -0.2539   -0.6371 H   0  0  0  0  0  0  0  0  0  0  0  0
    4.1715   -1.0235   -0.3209 C   0  0  0  0  0  0  0  0  0  0  0  0
    5.5488   -0.6847   -0.0901 C   0  0  0  0  0  0  0  0  0  0  0  0
    5.9270    0.6662    0.0188 C   0  0  0  0  0  0  0  0  0  0  0  0
    6.9785    0.9314    0.1882 H   0  0  0  0  0  0  0  0  0  0  0  0
    6.3930   -1.7335   -0.0048 O   0  0  0  0  0  0  0  0  0  0  0  0
    7.7690   -1.4807    0.2177 C   0  0  0  0  0  0  0  0  0  0  0  0
    8.2157   -0.8806   -0.6059 H   0  0  0  0  0  0  0  0  0  0  0  0
    8.2637   -2.4684    0.2550 H   0  0  0  0  0  0  0  0  0  0  0  0
    7.9393   -0.9515    1.1815 H   0  0  0  0  0  0  0  0  0  0  0  0
    3.9077   -2.3400   -0.4279 O   0  0  0  0  0  0  0  0  0  0  0  0
    2.5479   -2.7272   -0.6216 C   0  0  0  0  0  0  0  0  0  0  0  0
    1.9054   -2.3784    0.2165 H   0  0  0  0  0  0  0  0  0  0  0  0
    2.5478   -3.8316   -0.6575 H   0  0  0  0  0  0  0  0  0  0  0  0
    2.1371   -2.3237   -1.5725 H   0  0  0  0  0  0  0  0  0  0  0  0
    4.9666    1.6789   -0.0884 C   0  0  0  0  0  0  0  0  0  0  0  0
    5.2732    2.7321    0.0022 H   0  0  0  0  0  0  0  0  0  0  0  0
   -0.5753    3.5825    0.5008 C   0  0  0  0  0  0  0  0  0  0  0  0
   -0.1457    3.5965    1.5280 H   0  0  0  0  0  0  0  0  0  0  0  0
   -1.1975    4.4975    0.3773 H   0  0  0  0  0  0  0  0  0  0  0  0
   -3.2261    0.0002    0.4234 C   0  0  0  0  0  0  0  0  0  0  0  0
   -2.1802   -0.2508    0.6397 H   0  0  0  0  0  0  0  0  0  0  0  0
  1  3  1  0  0  0  0
  1 46  1  0  0  0  0
  3  4  1  0  0  0  0
  5  3  1  0  0  0  0
  5 49  1  0  0  0  0
  6  5  2  0  0  0  0
  7  6  1  0  0  0  0
  8  6  1  0  0  0  0
  8 10  2  0  0  0  0
  9  8  1  0  0  0  0
 10 11  1  0  0  0  0
 11 49  2  0  0  0  0
 11 12  1  0  0  0  0
 12 13  1  0  0  0  0
 13 15  1  0  0  0  0
 13 16  1  0  0  0  0
 14 13  1  0  0  0  0
 17 10  1  0  0  0  0
 18 17  1  0  0  0  0
 18 19  1  0  0  0  0
 20 18  1  0  0  0  0
 21 18  1  0  0  0  0
 22 24  1  0  0  0  0
 22  2  1  0  0  0  0
 22 46  1  0  0  0  0
 23 22  1  0  0  0  0
 25  2  1  0  0  0  0
 25 27  1  0  0  0  0
 26 25  1  0  0  0  0
 27 44  1  0  0  0  0
 28 30  1  0  0  0  0
 28 27  2  0  0  0  0
 29 28  1  0  0  0  0
 30 31  2  0  0  0  0
 31 34  1  0  0  0  0
 31 32  1  0  0  0  0
 32 33  1  0  0  0  0
 34 35  1  0  0  0  0
 35 37  1  0  0  0  0
 35 38  1  0  0  0  0
 36 35  1  0  0  0  0
 39 30  1  0  0  0  0
 40 39  1  0  0  0  0
 40 41  1  0  0  0  0
 42 40  1  0  0  0  0
 43 40  1  0  0  0  0
 44 45  1  0  0  0  0
 44 32  2  0  0  0  0
 46 47  1  0  0  0  0
 48 46  1  0  0  0  0
 49 50  1  0  0  0  0
M  END
