1,22
 OpenBabel05122313053D

 42 45  0  0  0  0  0  0  0  0999 V2000
    1.3999   -1.2361   -0.4160 N   0  0  0  0  0  2  0  0  0  0  0  0
   -0.7879   -1.6917   -0.2977 N   0  0  0  0  0  0  0  0  0  0  0  0
    0.1787   -0.7040   -0.1720 C   0  0  0  0  0  0  0  0  0  0  0  0
    1.2178   -2.5582   -0.7334 C   0  0  0  0  0  0  0  0  0  0  0  0
    2.0668   -3.2079   -0.9696 H   0  0  0  0  0  0  0  0  0  0  0  0
   -0.1261   -2.8597   -0.6696 C   0  0  0  0  0  0  0  0  0  0  0  0
   -0.6738   -3.7978   -0.7938 H   0  0  0  0  0  0  0  0  0  0  0  0
   -2.1706   -1.6675    0.0448 C   0  0  0  0  0  0  0  0  0  0  0  0
   -2.5953   -1.0795    1.2487 C   0  0  0  0  0  0  0  0  0  0  0  0
   -1.8555   -0.6337    1.9290 H   0  0  0  0  0  0  0  0  0  0  0  0
   -3.9558   -1.0653    1.5673 C   0  0  0  0  0  0  0  0  0  0  0  0
   -4.2806   -0.5858    2.5036 H   0  0  0  0  0  0  0  0  0  0  0  0
   -4.9183   -1.6543    0.7199 C   0  0  0  0  0  0  0  0  0  0  0  0
   -4.4653   -2.2698   -0.4634 C   0  0  0  0  0  0  0  0  0  0  0  0
   -5.1939   -2.7401   -1.1419 H   0  0  0  0  0  0  0  0  0  0  0  0
   -3.1075   -2.2749   -0.8075 C   0  0  0  0  0  0  0  0  0  0  0  0
   -2.7735   -2.7249   -1.7537 H   0  0  0  0  0  0  0  0  0  0  0  0
   -6.3800   -1.6135    1.0816 C   0  0  0  0  0  0  0  0  0  0  0  0
   -7.0101   -2.0813    0.3010 H   0  0  0  0  0  0  0  0  0  0  0  0
   -6.7258   -0.5679    1.2204 H   0  0  0  0  0  0  0  0  0  0  0  0
   -6.5741   -2.1439    2.0371 H   0  0  0  0  0  0  0  0  0  0  0  0
    1.3998    1.2362    0.4159 N   0  0  0  0  0  2  0  0  0  0  0  0
   -0.7880    1.6917    0.2977 N   0  0  0  0  0  0  0  0  0  0  0  0
    0.1787    0.7040    0.1719 C   0  0  0  0  0  0  0  0  0  0  0  0
    1.2177    2.5583    0.7333 C   0  0  0  0  0  0  0  0  0  0  0  0
    2.0667    3.2080    0.9695 H   0  0  0  0  0  0  0  0  0  0  0  0
   -0.1263    2.8597    0.6696 C   0  0  0  0  0  0  0  0  0  0  0  0
   -0.6740    3.7977    0.7939 H   0  0  0  0  0  0  0  0  0  0  0  0
   -2.1707    1.6674   -0.0448 C   0  0  0  0  0  0  0  0  0  0  0  0
   -2.5954    1.0797   -1.2488 C   0  0  0  0  0  0  0  0  0  0  0  0
   -1.8555    0.6341   -1.9292 H   0  0  0  0  0  0  0  0  0  0  0  0
   -3.9559    1.0656   -1.5674 C   0  0  0  0  0  0  0  0  0  0  0  0
   -4.2806    0.5862   -2.5038 H   0  0  0  0  0  0  0  0  0  0  0  0
   -4.9184    1.6543   -0.7199 C   0  0  0  0  0  0  0  0  0  0  0  0
   -4.4654    2.2695    0.4636 C   0  0  0  0  0  0  0  0  0  0  0  0
   -5.1940    2.7397    1.1422 H   0  0  0  0  0  0  0  0  0  0  0  0
   -3.1076    2.2746    0.8077 C   0  0  0  0  0  0  0  0  0  0  0  0
   -2.7736    2.7244    1.7540 H   0  0  0  0  0  0  0  0  0  0  0  0
   -6.3801    1.6135   -1.0815 C   0  0  0  0  0  0  0  0  0  0  0  0
   -7.0102    2.0810   -0.3009 H   0  0  0  0  0  0  0  0  0  0  0  0
   -6.7258    0.5679   -1.2206 H   0  0  0  0  0  0  0  0  0  0  0  0
   -6.5742    2.1441   -2.0370 H   0  0  0  0  0  0  0  0  0  0  0  0
  1  3  1  0  0  0  0
  2  3  1  0  0  0  0
  2  8  1  0  0  0  0
  3 24  2  0  0  0  0
  4  6  2  0  0  0  0
  4  1  1  0  0  0  0
  5  4  1  0  0  0  0
  6  2  1  0  0  0  0
  7  6  1  0  0  0  0
  8  9  1  0  0  0  0
  9 11  2  0  0  0  0
  9 10  1  0  0  0  0
 11 12  1  0  0  0  0
 13 18  1  0  0  0  0
 13 11  1  0  0  0  0
 14 13  2  0  0  0  0
 15 14  1  0  0  0  0
 16 14  1  0  0  0  0
 16  8  2  0  0  0  0
 17 16  1  0  0  0  0
 18 20  1  0  0  0  0
 18 21  1  0  0  0  0
 19 18  1  0  0  0  0
 22 25  1  0  0  0  0
 23 27  1  0  0  0  0
 24 23  1  0  0  0  0
 24 22  1  0  0  0  0
 25 26  1  0  0  0  0
 27 25  2  0  0  0  0
 27 28  1  0  0  0  0
 29 23  1  0  0  0  0
 29 37  1  0  0  0  0
 30 29  2  0  0  0  0
 31 30  1  0  0  0  0
 32 30  1  0  0  0  0
 32 34  2  0  0  0  0
 33 32  1  0  0  0  0
 34 35  1  0  0  0  0
 35 37  2  0  0  0  0
 35 36  1  0  0  0  0
 37 38  1  0  0  0  0
 39 34  1  0  0  0  0
 39 40  1  0  0  0  0
 41 39  1  0  0  0  0
 42 39  1  0  0  0  0
M  END
