2,3
 OpenBabel05122313053D

 29 30  0  0  1  0  0  0  0  0999 V2000
    3.2956    0.0002    0.0006 N   0  0  0  0  0  0  0  0  0  0  0  0
    1.3104    1.3006   -0.1170 N   0  0  0  0  0  2  0  0  0  0  0  0
    1.3105   -1.3006    0.1157 N   0  0  0  0  0  2  0  0  0  0  0  0
    2.6332   -1.1678    0.0477 C   0  0  2  0  0  3  0  0  0  0  0  0
    4.8220   -2.3146    0.4916 C   0  0  0  0  0  0  0  0  0  0  0  0
    2.6331    1.1680   -0.0477 C   0  0  0  0  0  0  0  0  0  0  0  0
    5.6351   -3.4545    0.5153 C   0  0  0  0  0  0  0  0  0  0  0  0
    4.8221    2.3149   -0.4904 C   0  0  0  0  0  0  0  0  0  0  0  0
    3.4855   -2.3978    0.0472 C   0  0  0  0  0  0  0  0  0  0  0  0
    2.9942   -3.6426   -0.4016 C   0  0  0  0  0  0  0  0  0  0  0  0
    5.1323   -4.6926    0.0812 C   0  0  0  0  0  0  0  0  0  0  0  0
    3.4851    2.3982   -0.0473 C   0  0  0  0  0  0  0  0  0  0  0  0
    5.1316    4.6933   -0.0815 C   0  0  0  0  0  0  0  0  0  0  0  0
    5.6350    3.4550   -0.5141 C   0  0  0  0  0  0  0  0  0  0  0  0
    3.8103   -4.7820   -0.3830 C   0  0  0  0  0  0  0  0  0  0  0  0
    2.9931    3.6433    0.4001 C   0  0  0  0  0  0  0  0  0  0  0  0
    3.8091    4.7827    0.3815 C   0  0  0  0  0  0  0  0  0  0  0  0
    6.6728    3.3782   -0.8730 H   0  0  0  0  0  0  0  0  0  0  0  0
    3.4139    5.7441    0.7432 H   0  0  0  0  0  0  0  0  0  0  0  0
    1.9721   -3.7186   -0.8059 H   0  0  0  0  0  0  0  0  0  0  0  0
    5.1934   -1.3330    0.8182 H   0  0  0  0  0  0  0  0  0  0  0  0
    3.4157   -5.7432   -0.7459 H   0  0  0  0  0  0  0  0  0  0  0  0
    5.1939    1.3332   -0.8160 H   0  0  0  0  0  0  0  0  0  0  0  0
    6.6726   -3.3778    0.8752 H   0  0  0  0  0  0  0  0  0  0  0  0
    1.9707    3.7193    0.8033 H   0  0  0  0  0  0  0  0  0  0  0  0
    5.7726    5.5878   -0.0967 H   0  0  0  0  0  0  0  0  0  0  0  0
    5.7736   -5.5870    0.0964 H   0  0  0  0  0  0  0  0  0  0  0  0
    1.0212   -2.2774    0.2468 H   0  0  0  0  0  0  0  0  0  0  0  0
    1.0210    2.2772   -0.2498 H   0  0  0  0  0  0  0  0  0  0  0  0
  2  6  1  0  0  0  0
  3 28  1  0  0  0  0
  4  1  1  1  0  0  0
  4  3  1  0  0  0  0
  5  7  1  0  0  0  0
  5 21  1  0  0  0  0
  6 12  1  0  0  0  0
  6  1  2  0  0  0  0
  7 24  1  0  0  0  0
  8 12  1  0  0  0  0
  9  4  1  0  0  0  0
  9  5  2  0  0  0  0
 10 15  2  0  0  0  0
 10  9  1  0  0  0  0
 11 27  1  0  0  0  0
 11  7  2  0  0  0  0
 12 16  2  0  0  0  0
 13 17  2  0  0  0  0
 14  8  2  0  0  0  0
 14 13  1  0  0  0  0
 15 11  1  0  0  0  0
 16 25  1  0  0  0  0
 17 16  1  0  0  0  0
 17 19  1  0  0  0  0
 18 14  1  0  0  0  0
 20 10  1  0  0  0  0
 22 15  1  0  0  0  0
 23  8  1  0  0  0  0
 26 13  1  0  0  0  0
 29  2  1  0  0  0  0
M  END
