11,18
 OpenBabel05122313053D

 28 29  0  0  0  0  0  0  0  0999 V2000
   -3.1143   -1.4353    0.9173 S   0  0  0  0  0  0  0  0  0  0  0  0
   -4.5806   -2.2514    1.3300 C   0  0  0  0  0  0  0  0  0  0  0  0
   -5.0759   -2.0250    2.2830 H   0  0  0  0  0  0  0  0  0  0  0  0
   -4.9887   -3.1395    0.3481 C   0  0  0  0  0  0  0  0  0  0  0  0
   -5.8989   -3.7491    0.4241 H   0  0  0  0  0  0  0  0  0  0  0  0
   -4.0996   -3.1589   -0.7571 C   0  0  0  0  0  0  0  0  0  0  0  0
   -4.2340   -3.7844   -1.6509 H   0  0  0  0  0  0  0  0  0  0  0  0
   -3.0129   -2.2918   -0.6050 C   0  0  0  0  0  0  0  0  0  0  0  0
   -1.9820   -2.0778   -1.5840 C   0  0  0  0  0  3  0  0  0  0  0  0
   -2.1565   -2.6211   -2.5392 H   0  0  0  0  0  0  0  0  0  0  0  0
   -0.9277   -1.3288   -1.4672 N   0  0  0  0  0  2  0  0  0  0  0  0
   -0.0669   -1.2025   -2.6396 C   0  0  0  0  0  0  0  0  0  0  0  0
   -0.5556   -1.5878   -3.5619 H   0  0  0  0  0  0  0  0  0  0  0  0
    0.8586   -1.7952   -2.4693 H   0  0  0  0  0  0  0  0  0  0  0  0
    0.3090    0.2682   -2.8187 C   0  0  0  0  0  0  0  0  0  0  0  0
    1.0165    0.3858   -3.6679 H   0  0  0  0  0  0  0  0  0  0  0  0
   -0.6090    0.8466   -3.0661 H   0  0  0  0  0  0  0  0  0  0  0  0
    0.8697    0.7822   -1.5695 N   0  0  0  0  0  2  0  0  0  0  0  0
    1.7337    1.7511   -1.6569 C   0  0  0  0  0  3  0  0  0  0  0  0
    1.9935    2.1673   -2.6545 H   0  0  0  0  0  0  0  0  0  0  0  0
    2.4463    2.3457   -0.5631 C   0  0  0  0  0  0  0  0  0  0  0  0
    3.3610    3.4000   -0.6545 C   0  0  0  0  0  0  0  0  0  0  0  0
    3.5908    3.9009   -1.6055 H   0  0  0  0  0  0  0  0  0  0  0  0
    3.9466    3.7383    0.5919 C   0  0  0  0  0  0  0  0  0  0  0  0
    4.6855    4.5381    0.7342 H   0  0  0  0  0  0  0  0  0  0  0  0
    3.4820    2.9358    1.6223 C   0  0  0  0  0  0  0  0  0  0  0  0
    3.7647    2.9699    2.6823 H   0  0  0  0  0  0  0  0  0  0  0  0
    2.3251    1.7689    1.0853 S   0  0  0  0  0  0  0  0  0  0  0  0
  1  2  1  0  0  0  0
  2  3  1  0  0  0  0
  4  5  1  0  0  0  0
  4  2  2  0  0  0  0
  6  8  2  0  0  0  0
  6  4  1  0  0  0  0
  7  6  1  0  0  0  0
  8  1  1  0  0  0  0
  9 11  1  0  0  0  0
  9  8  1  0  0  0  0
 10  9  1  0  0  0  0
 12 14  1  0  0  0  0
 12 11  1  0  0  0  0
 13 12  1  0  0  0  0
 15 12  1  0  0  0  0
 15 18  1  0  0  0  0
 16 15  1  0  0  0  0
 17 15  1  0  0  0  0
 19 18  1  0  0  0  0
 19 21  1  0  0  0  0
 20 19  1  0  0  0  0
 21 28  1  0  0  0  0
 22 21  2  0  0  0  0
 22 24  1  0  0  0  0
 23 22  1  0  0  0  0
 24 25  1  0  0  0  0
 24 26  2  0  0  0  0
 26 27  1  0  0  0  0
 28 26  1  0  0  0  0
M  END
