1,2
 OpenBabel05122313053D

 33 35  0  0  1  0  0  0  0  0999 V2000
    2.2186    0.2294   -0.7199 N   0  0  0  0  0  2  0  0  0  0  0  0
   -0.1540    1.3919   -0.3473 N   0  0  0  0  0  2  0  0  0  0  0  0
   -3.2751    0.6993    0.7681 N   0  0  0  0  0  0  0  0  0  0  0  0
    3.3781   -0.4273   -0.9467 C   0  0  0  0  0  3  0  0  0  0  0  0
    3.3012   -1.5098   -1.1174 H   0  0  0  0  0  0  0  0  0  0  0  0
    4.6179    0.2171   -0.9548 C   0  0  0  0  0  0  0  0  0  0  0  0
    5.5303   -0.3664   -1.1404 H   0  0  0  0  0  0  0  0  0  0  0  0
    4.6644    1.5982   -0.7174 C   0  0  0  0  0  0  0  0  0  0  0  0
    5.6222    2.1378   -0.7090 H   0  0  0  0  0  0  0  0  0  0  0  0
    3.4665    2.2821   -0.4916 C   0  0  0  0  0  0  0  0  0  0  0  0
    3.4826    3.3635   -0.3066 H   0  0  0  0  0  0  0  0  0  0  0  0
    2.2495    1.5755   -0.4984 C   0  0  0  0  0  0  0  0  0  0  0  0
    0.9387    2.2182   -0.2983 C   0  0  1  0  0  3  0  0  0  0  0  0
    0.7952    3.6049   -0.0987 C   0  0  0  0  0  0  0  0  0  0  0  0
    1.6833    4.2474   -0.0579 H   0  0  0  0  0  0  0  0  0  0  0  0
   -0.4744    4.1646    0.0418 C   0  0  0  0  0  0  0  0  0  0  0  0
   -0.5979    5.2462    0.1940 H   0  0  0  0  0  0  0  0  0  0  0  0
   -1.5896    3.3183   -0.0312 C   0  0  0  0  0  0  0  0  0  0  0  0
   -2.6120    3.7149    0.0483 H   0  0  0  0  0  0  0  0  0  0  0  0
   -1.3876    1.9447   -0.2244 C   0  0  0  0  0  0  0  0  0  0  0  0
   -2.5871    1.0641   -0.3630 C   0  0  2  0  0  3  0  0  0  0  0  0
   -4.4354   -0.0102    0.6730 C   0  0  0  0  0  0  0  0  0  0  0  0
   -4.9105   -0.2835    1.6244 H   0  0  0  0  0  0  0  0  0  0  0  0
   -4.9639   -0.3736   -0.5595 C   0  0  0  0  0  0  0  0  0  0  0  0
   -5.9014   -0.9453   -0.5899 H   0  0  0  0  0  0  0  0  0  0  0  0
   -4.2768   -0.0196   -1.7304 C   0  0  0  0  0  0  0  0  0  0  0  0
   -4.6632   -0.3075   -2.7188 H   0  0  0  0  0  0  0  0  0  0  0  0
   -3.0855    0.7085   -1.6221 C   0  0  0  0  0  0  0  0  0  0  0  0
   -2.5146    1.0041   -2.5128 H   0  0  0  0  0  0  0  0  0  0  0  0
   -2.7033    0.9762    2.0970 C   0  0  0  0  0  0  0  0  0  0  0  0
   -1.6982    0.4904    2.1795 H   0  0  0  0  0  0  0  0  0  0  0  0
   -3.3761    0.5641    2.8672 H   0  0  0  0  0  0  0  0  0  0  0  0
   -2.5889    2.0648    2.2437 H   0  0  0  0  0  0  0  0  0  0  0  0
  1 12  1  0  0  0  0
  2 13  1  0  0  0  0
  2 20  1  0  0  0  0
  3 30  1  0  0  0  0
  4  1  1  0  0  0  0
  5  4  1  0  0  0  0
  6  4  1  0  0  0  0
  6  8  2  0  0  0  0
  7  6  1  0  0  0  0
  8  9  1  0  0  0  0
  8 10  1  0  0  0  0
 10 11  1  0  0  0  0
 12 10  2  0  0  0  0
 13 12  1  6  0  0  0
 13 14  1  0  0  0  0
 14 15  1  0  0  0  0
 14 16  2  0  0  0  0
 16 17  1  0  0  0  0
 18 16  1  0  0  0  0
 18 19  1  0  0  0  0
 20 18  2  0  0  0  0
 21 20  1  6  0  0  0
 21  3  1  0  0  0  0
 22  3  1  0  0  0  0
 22 23  1  0  0  0  0
 24 22  2  0  0  0  0
 25 24  1  0  0  0  0
 26 28  2  0  0  0  0
 26 24  1  0  0  0  0
 27 26  1  0  0  0  0
 28 21  1  0  0  0  0
 29 28  1  0  0  0  0
 30 31  1  0  0  0  0
 30 33  1  0  0  0  0
 30 32  1  0  0  0  0
M  END
