2,4
 OpenBabel05122313053D

 13 12  0  0  0  0  0  0  0  0999 V2000
    2.8079   -3.4517   -0.8153 O   0  0  0  0  0  0  0  0  0  0  0  0
    1.4676   -1.5108   -1.1596 N   0  0  0  0  0  2  0  0  0  0  0  0
    1.8603   -1.3590   -2.0949 H   0  0  0  0  0  0  0  0  0  0  0  0
    0.2428   -1.8023    1.0180 N   0  0  0  0  0  2  0  0  0  0  0  0
   -0.2698   -1.9087    1.9065 H   0  0  0  0  0  0  0  0  0  0  0  0
    1.8171   -4.5586    2.5464 N   0  0  0  0  0  0  0  0  0  0  0  0
    3.4628   -3.2785   -2.0677 C   0  0  0  0  0  0  0  0  0  0  0  0
    4.1983   -4.0981   -2.1471 H   0  0  0  0  0  0  0  0  0  0  0  0
    3.9932   -2.3021   -2.1140 H   0  0  0  0  0  0  0  0  0  0  0  0
    2.7431   -3.3490   -2.9123 H   0  0  0  0  0  0  0  0  0  0  0  0
    1.8731   -2.5539   -0.4699 C   0  0  0  0  0  0  0  0  0  0  0  0
    1.2092   -2.7298    0.8087 C   0  0  0  0  0  0  0  0  0  0  0  0
    1.5513   -3.7368    1.7447 C   0  0  0  0  0  0  0  0  0  0  0  0
  1 11  1  0  0  0  0
  2 11  1  0  0  0  0
  3  2  1  0  0  0  0
  4  5  1  0  0  0  0
  7  1  1  0  0  0  0
  8  7  1  0  0  0  0
  9  7  1  0  0  0  0
 10  7  1  0  0  0  0
 11 12  2  0  0  0  0
 12  4  1  0  0  0  0
 12 13  1  0  0  0  0
 13  6  3  0  0  0  0
M  END
