1,4
 OpenBabel05122313053D

 23 24  0  0  1  0  0  0  0  0999 V2000
   -0.6673   -1.5616    0.4880 N   0  0  0  0  0  2  0  0  0  0  0  0
   -2.0201   -1.3581    0.3529 N   0  0  0  0  0  0  0  0  0  0  0  0
   -1.6107    1.9340   -0.9139 N   0  0  0  0  0  0  0  0  0  0  0  0
   -1.3246    0.7392   -0.3954 N   0  0  0  0  0  2  0  0  0  0  0  0
   -3.6620    0.1757   -0.3842 N   0  0  0  0  0  0  0  0  0  0  0  0
   -3.9728    1.3735   -0.8860 N   0  0  0  0  0  2  0  0  0  0  0  0
   -3.2149    3.4299   -1.6272 N   0  0  0  0  0  0  0  0  0  0  0  0
   -4.1734    3.6107   -1.9175 H   0  0  0  0  0  0  0  0  0  0  0  0
   -2.4545    4.0263   -1.9453 H   0  0  0  0  0  0  0  0  0  0  0  0
    0.8454   -3.3802    1.2203 C   0  0  0  0  0  0  0  0  0  0  0  0
    1.4137   -3.5005    0.2736 H   0  0  0  0  0  0  0  0  0  0  0  0
    0.7622   -4.3678    1.7097 H   0  0  0  0  0  0  0  0  0  0  0  0
    1.4399   -2.6985    1.8601 H   0  0  0  0  0  0  0  0  0  0  0  0
   -0.5079   -2.8106    0.9598 C   0  0  2  0  0  3  0  0  0  0  0  0
   -1.7892   -3.4083    1.1259 C   0  0  0  0  0  0  0  0  0  0  0  0
   -1.9950   -4.4183    1.4948 H   0  0  0  0  0  0  0  0  0  0  0  0
   -2.7429   -2.4731    0.7346 C   0  0  0  0  0  0  0  0  0  0  0  0
   -4.2296   -2.5528    0.6978 C   0  0  0  0  0  0  0  0  0  0  0  0
   -4.6970   -1.7633    1.3196 H   0  0  0  0  0  0  0  0  0  0  0  0
   -4.5508   -3.5443    1.0677 H   0  0  0  0  0  0  0  0  0  0  0  0
   -4.6223   -2.3999   -0.3270 H   0  0  0  0  0  0  0  0  0  0  0  0
   -2.3983   -0.1116   -0.1519 C   0  0  0  0  0  0  0  0  0  0  0  0
   -2.9199    2.2015   -1.1298 C   0  0  0  0  0  0  0  0  0  0  0  0
  1 14  1  0  0  0  0
  2  1  1  0  0  0  0
  2 17  1  0  0  0  0
  3  4  1  0  0  0  0
  4 22  1  0  0  0  0
  5 22  2  0  0  0  0
  6  5  1  0  0  0  0
  7 23  1  0  0  0  0
  8  7  1  0  0  0  0
  9  7  1  0  0  0  0
 10 12  1  0  0  0  0
 10 13  1  0  0  0  0
 11 10  1  0  0  0  0
 14 15  1  0  0  0  0
 14 10  1  6  0  0  0
 15 16  1  0  0  0  0
 17 15  2  0  0  0  0
 18 17  1  0  0  0  0
 18 20  1  0  0  0  0
 18 19  1  0  0  0  0
 21 18  1  0  0  0  0
 22  2  1  0  0  0  0
 23  3  2  0  0  0  0
 23  6  1  0  0  0  0
M  END
