39,41
 OpenBabel05122313053D

 46 50  0  0  1  0  0  0  0  0999 V2000
   -0.6949    1.7358    1.8679 C   0  0  2  0  0  0  0  0  0  0  0  0
   -0.7329    2.3181    2.8108 H   0  0  0  0  0  0  0  0  0  0  0  0
    4.0250    0.2651    0.7570 C   0  0  0  0  0  0  0  0  0  0  0  0
    4.7032    0.4882    1.6055 H   0  0  0  0  0  0  0  0  0  0  0  0
    0.6369    2.0012    1.1696 C   0  0  0  0  0  0  0  0  0  0  0  0
    0.8301    3.1885    0.4429 C   0  0  0  0  0  0  0  0  0  0  0  0
    0.0033    3.9036    0.3159 H   0  0  0  0  0  0  0  0  0  0  0  0
    2.0779    3.4459   -0.1395 C   0  0  0  0  0  0  0  0  0  0  0  0
    2.2332    4.3732   -0.7101 H   0  0  0  0  0  0  0  0  0  0  0  0
    3.1197    2.5136   -0.0311 C   0  0  0  0  0  0  0  0  0  0  0  0
    4.0844    2.7044   -0.5226 H   0  0  0  0  0  0  0  0  0  0  0  0
    2.9189    1.3132    0.6711 C   0  0  0  0  0  0  0  0  0  0  0  0
    1.6862    1.0798    1.2976 C   0  0  0  0  0  0  0  0  0  0  0  0
    1.5320    0.1396    1.8414 H   0  0  0  0  0  0  0  0  0  0  0  0
   -0.7154   -0.1519    3.5401 C   0  0  0  0  0  3  0  0  0  0  0  0
   -0.6226    0.5155    4.4036 H   0  0  0  0  0  0  0  0  0  0  0  0
   -0.7231   -1.5375    3.4312 C   0  0  0  0  0  0  0  0  0  0  0  0
   -0.6511   -2.2674    4.2426 H   0  0  0  0  0  0  0  0  0  0  0  0
   -0.8628   -1.7962    2.0495 C   0  0  0  0  0  0  0  0  0  0  0  0
   -0.9522   -2.7507    1.5215 H   0  0  0  0  0  0  0  0  0  0  0  0
   -2.6392    3.2735    1.3861 C   0  0  0  0  0  3  0  0  0  0  0  0
   -2.4742    3.8731    2.2878 H   0  0  0  0  0  0  0  0  0  0  0  0
   -3.5634    3.3818    0.3531 C   0  0  0  0  0  0  0  0  0  0  0  0
   -4.3559    4.1284    0.2471 H   0  0  0  0  0  0  0  0  0  0  0  0
   -3.2680    2.3075   -0.5151 C   0  0  0  0  0  0  0  0  0  0  0  0
   -3.7716    1.9889   -1.4339 H   0  0  0  0  0  0  0  0  0  0  0  0
    4.5377    0.1482   -1.7210 C   0  0  0  0  0  0  0  0  0  0  0  0
    3.4851    0.0693   -2.0163 H   0  0  0  0  0  0  0  0  0  0  0  0
    5.7293    0.1518   -2.4373 C   0  0  0  0  0  0  0  0  0  0  0  0
    5.8451    0.0667   -3.5228 H   0  0  0  0  0  0  0  0  0  0  0  0
    6.7451    0.2880   -1.4509 C   0  0  0  0  0  0  0  0  0  0  0  0
    7.8327    0.3392   -1.5906 H   0  0  0  0  0  0  0  0  0  0  0  0
    3.8576   -1.9511    1.9814 C   0  0  0  0  0  0  0  0  0  0  0  0
    4.6092   -1.6876    2.7340 H   0  0  0  0  0  0  0  0  0  0  0  0
    3.1205   -3.1103    1.7620 C   0  0  0  0  0  0  0  0  0  0  0  0
    3.1484   -4.0337    2.3496 H   0  0  0  0  0  0  0  0  0  0  0  0
    2.3440   -2.8248    0.6055 C   0  0  0  0  0  0  0  0  0  0  0  0
    1.6219   -3.4632    0.0799 H   0  0  0  0  0  0  0  0  0  0  0  0
   -0.9187   -0.6468    1.3556 N   0  0  0  0  0  2  0  0  0  0  0  0
   -0.8443    0.3486    2.2734 N   0  0  0  0  0  0  0  0  0  0  0  0
   -2.2222    1.5994   -0.0549 N   0  0  0  0  0  2  0  0  0  0  0  0
   -1.8511    2.1912    1.1060 N   0  0  0  0  0  0  0  0  0  0  0  0
    6.2336    0.3622   -0.2164 N   0  0  0  0  0  0  0  0  0  0  0  0
    4.8945    0.2833   -0.4035 N   0  0  0  0  0  0  0  0  0  0  0  0
    2.5743   -1.5869    0.1508 N   0  0  0  0  0  0  0  0  0  0  0  0
    3.4883   -1.0703    0.9984 N   0  0  0  0  0  0  0  0  0  0  0  0
  1 40  1  0  0  0  0
  1  2  1  1  0  0  0
  3 46  1  0  0  0  0
  3  4  1  0  0  0  0
  5 13  1  0  0  0  0
  5  1  1  0  0  0  0
  6  5  2  0  0  0  0
  7  6  1  0  0  0  0
  8 10  2  0  0  0  0
  8  6  1  0  0  0  0
  9  8  1  0  0  0  0
 10 12  1  0  0  0  0
 11 10  1  0  0  0  0
 12  3  1  0  0  0  0
 12 13  2  0  0  0  0
 13 14  1  0  0  0  0
 15 16  1  0  0  0  0
 17 15  1  0  0  0  0
 17 18  1  0  0  0  0
 19 17  2  0  0  0  0
 20 19  1  0  0  0  0
 21 22  1  0  0  0  0
 23 21  1  0  0  0  0
 24 23  1  0  0  0  0
 25 41  1  0  0  0  0
 25 23  2  0  0  0  0
 26 25  1  0  0  0  0
 27 44  1  0  0  0  0
 28 27  1  0  0  0  0
 29 27  2  0  0  0  0
 29 31  1  0  0  0  0
 30 29  1  0  0  0  0
 31 43  2  0  0  0  0
 32 31  1  0  0  0  0
 33 34  1  0  0  0  0
 35 33  2  0  0  0  0
 35 36  1  0  0  0  0
 37 35  1  0  0  0  0
 38 37  1  0  0  0  0
 39 19  1  0  0  0  0
 39 40  1  0  0  0  0
 40 15  1  0  0  0  0
 41 42  1  0  0  0  0
 42 21  1  0  0  0  0
 42  1  1  0  0  0  0
 44 43  1  0  0  0  0
 44  3  1  0  0  0  0
 45 37  2  0  0  0  0
 45 46  1  0  0  0  0
 46 33  1  0  0  0  0
M  END
