8,10
 OpenBabel05122313053D

 34 34  0  0  1  0  0  0  0  0999 V2000
    2.4049   -0.7881    1.5516 S   0  0  0  0  0  0  0  0  0  0  0  0
    4.4186   -0.1301   -0.0901 N   0  0  0  0  0  0  0  0  0  0  0  0
    4.6958    0.3924   -0.9257 H   0  0  0  0  0  0  0  0  0  0  0  0
    2.7348    1.4357    0.0469 N   0  0  0  0  0  0  0  0  0  0  0  0
    3.2993    1.9645   -0.6329 H   0  0  0  0  0  0  0  0  0  0  0  0
   -2.4220    1.6283   -0.7105 N   0  0  0  0  0  0  0  0  0  0  0  0
   -3.0500    2.3984   -0.4480 H   0  0  0  0  0  0  0  0  0  0  0  0
    1.4196    1.6887    0.1106 N   0  0  0  0  0  2  0  0  0  0  0  0
   -1.1055    1.7584   -0.6421 N   0  0  0  0  0  0  0  0  0  0  0  0
   -2.1465   -0.6940   -0.8560 N   0  0  0  0  0  2  0  0  0  0  0  0
    3.2180    0.1877    0.4501 C   0  0  0  0  0  0  0  0  0  0  0  0
    0.9438    2.8353   -0.2955 C   0  0  2  0  0  3  0  0  0  0  0  0
   -0.5279    2.9057   -0.4046 C   0  0  0  0  0  0  0  0  0  0  0  0
   -2.9844    0.3538   -0.8452 C   0  0  2  0  0  3  0  0  0  0  0  0
   -4.3822    0.2076   -0.9698 C   0  0  0  0  0  0  0  0  0  0  0  0
   -5.0431    1.0871   -0.9488 H   0  0  0  0  0  0  0  0  0  0  0  0
   -4.8920   -1.0841   -1.1197 C   0  0  0  0  0  0  0  0  0  0  0  0
   -5.9778   -1.2352   -1.2138 H   0  0  0  0  0  0  0  0  0  0  0  0
   -4.0130   -2.1814   -1.1494 C   0  0  0  0  0  0  0  0  0  0  0  0
   -4.3825   -3.2093   -1.2658 H   0  0  0  0  0  0  0  0  0  0  0  0
   -2.6430   -1.9342   -1.0068 C   0  0  0  0  0  0  0  0  0  0  0  0
   -1.8941   -2.7432   -0.9998 H   0  0  0  0  0  0  0  0  0  0  0  0
    1.8295    3.9775   -0.7133 C   0  0  0  0  0  0  0  0  0  0  0  0
    2.6188    4.1688    0.0441 H   0  0  0  0  0  0  0  0  0  0  0  0
    1.2639    4.9125   -0.8719 H   0  0  0  0  0  0  0  0  0  0  0  0
    2.3368    3.7479   -1.6780 H   0  0  0  0  0  0  0  0  0  0  0  0
   -1.3008    4.1822   -0.2172 C   0  0  0  0  0  0  0  0  0  0  0  0
   -1.9169    4.4282   -1.1096 H   0  0  0  0  0  0  0  0  0  0  0  0
   -0.6480    5.0472   -0.0058 H   0  0  0  0  0  0  0  0  0  0  0  0
   -1.9900    4.0803    0.6509 H   0  0  0  0  0  0  0  0  0  0  0  0
    5.0072   -1.4545    0.0409 C   0  0  0  0  0  0  0  0  0  0  0  0
    4.9758   -1.7703    1.0999 H   0  0  0  0  0  0  0  0  0  0  0  0
    6.0579   -1.4125   -0.3021 H   0  0  0  0  0  0  0  0  0  0  0  0
    4.4400   -2.1950   -0.5653 H   0  0  0  0  0  0  0  0  0  0  0  0
  2 31  1  0  0  0  0
  2 11  1  0  0  0  0
  3  2  1  0  0  0  0
  4  8  1  0  0  0  0
  4 11  1  0  0  0  0
  5  4  1  0  0  0  0
  6  9  1  0  0  0  0
  6  7  1  0  0  0  0
  9 13  2  0  0  0  0
 10 14  1  0  0  0  0
 11  1  2  0  0  0  0
 12 13  1  6  0  0  0
 12  8  1  0  0  0  0
 13 27  1  0  0  0  0
 14  6  1  6  0  0  0
 15 16  1  0  0  0  0
 15 14  1  0  0  0  0
 17 15  2  0  0  0  0
 18 17  1  0  0  0  0
 19 17  1  0  0  0  0
 19 21  2  0  0  0  0
 20 19  1  0  0  0  0
 21 22  1  0  0  0  0
 21 10  1  0  0  0  0
 23 12  1  0  0  0  0
 23 24  1  0  0  0  0
 25 23  1  0  0  0  0
 26 23  1  0  0  0  0
 27 29  1  0  0  0  0
 27 30  1  0  0  0  0
 28 27  1  0  0  0  0
 31 32  1  0  0  0  0
 33 31  1  0  0  0  0
 34 31  1  0  0  0  0
M  END
