5,11
 OpenBabel05122313053D

 36 39  0  0  1  0  0  0  0  0999 V2000
    0.5259   -2.6388    1.8568 N   0  0  0  0  0  0  0  0  0  0  0  0
    2.4094    1.4087    0.0099 N   0  0  0  0  0  0  0  0  0  0  0  0
    0.5256    2.6390    1.8568 N   0  0  0  0  0  0  0  0  0  0  0  0
    3.4641    0.7201   -0.5074 C   0  0  0  0  0  0  0  0  0  0  0  0
   -1.0333    1.4514    0.7948 N   0  0  0  0  0  2  0  0  0  0  0  0
    2.4096   -1.4084    0.0105 N   0  0  0  0  0  0  0  0  0  0  0  0
   -0.6916   -3.2211    2.1377 C   0  0  0  0  0  0  0  0  0  0  0  0
   -0.7729   -4.1010    2.7834 H   0  0  0  0  0  0  0  0  0  0  0  0
    5.6521    0.7110   -1.5708 C   0  0  0  0  0  0  0  0  0  0  0  0
    6.5105    1.2518   -1.9968 H   0  0  0  0  0  0  0  0  0  0  0  0
   -1.0331   -1.4514    0.7947 N   0  0  0  0  0  2  0  0  0  0  0  0
    1.3630    0.7274    0.4699 C   0  0  0  0  0  0  0  0  0  0  0  0
    0.2843   -1.5511    1.0436 C   0  0  2  0  0  3  0  0  0  0  0  0
   -0.6920    3.2208    2.1382 C   0  0  0  0  0  0  0  0  0  0  0  0
   -0.7734    4.1006    2.7840 H   0  0  0  0  0  0  0  0  0  0  0  0
    4.5792    1.4196   -1.0450 C   0  0  0  0  0  0  0  0  0  0  0  0
    4.5512    2.5189   -1.0392 H   0  0  0  0  0  0  0  0  0  0  0  0
    1.3631   -0.7271    0.4701 C   0  0  0  0  0  0  0  0  0  0  0  0
    3.4642   -0.7199   -0.5070 C   0  0  0  0  0  0  0  0  0  0  0  0
    1.8142    3.1105    2.3406 C   0  0  0  0  0  0  0  0  0  0  0  0
    2.3912    3.5773    1.5209 H   0  0  0  0  0  0  0  0  0  0  0  0
    2.4076    2.2657    2.7387 H   0  0  0  0  0  0  0  0  0  0  0  0
    1.6404    3.8401    3.1526 H   0  0  0  0  0  0  0  0  0  0  0  0
   -1.6489   -2.4761    1.4737 C   0  0  0  0  0  0  0  0  0  0  0  0
   -2.7330   -2.6185    1.4274 H   0  0  0  0  0  0  0  0  0  0  0  0
    0.2842    1.5513    1.0434 C   0  0  1  0  0  3  0  0  0  0  0  0
    4.5795   -1.4194   -1.0443 C   0  0  0  0  0  0  0  0  0  0  0  0
    4.5517   -2.5188   -1.0379 H   0  0  0  0  0  0  0  0  0  0  0  0
    5.6523   -0.7108   -1.5704 C   0  0  0  0  0  0  0  0  0  0  0  0
    6.5108   -1.2517   -1.9961 H   0  0  0  0  0  0  0  0  0  0  0  0
   -1.6493    2.4757    1.4741 C   0  0  0  0  0  0  0  0  0  0  0  0
   -2.7333    2.6179    1.4280 H   0  0  0  0  0  0  0  0  0  0  0  0
    1.8145   -3.1107    2.3402 C   0  0  0  0  0  0  0  0  0  0  0  0
    2.3889   -3.5829    1.5218 H   0  0  0  0  0  0  0  0  0  0  0  0
    1.6409   -3.8358    3.1562 H   0  0  0  0  0  0  0  0  0  0  0  0
    2.4104   -2.2651    2.7326 H   0  0  0  0  0  0  0  0  0  0  0  0
  1  7  1  0  0  0  0
  1 33  1  0  0  0  0
  2 12  1  0  0  0  0
  3 14  1  0  0  0  0
  3 20  1  0  0  0  0
  4 19  1  0  0  0  0
  4  2  2  0  0  0  0
  5 26  1  0  0  0  0
  5 31  1  0  0  0  0
  6 18  1  0  0  0  0
  7  8  1  0  0  0  0
  9 29  1  0  0  0  0
  9 16  2  0  0  0  0
 10  9  1  0  0  0  0
 11 13  1  0  0  0  0
 11 24  1  0  0  0  0
 12 18  2  0  0  0  0
 13 18  1  6  0  0  0
 13  1  1  0  0  0  0
 14 15  1  0  0  0  0
 16 17  1  0  0  0  0
 16  4  1  0  0  0  0
 19  6  2  0  0  0  0
 20 22  1  0  0  0  0
 20 23  1  0  0  0  0
 21 20  1  0  0  0  0
 24  7  2  0  0  0  0
 25 24  1  0  0  0  0
 26 12  1  6  0  0  0
 26  3  1  0  0  0  0
 27 28  1  0  0  0  0
 27 19  1  0  0  0  0
 29 27  2  0  0  0  0
 30 29  1  0  0  0  0
 31 14  2  0  0  0  0
 32 31  1  0  0  0  0
 33 36  1  0  0  0  0
 33 35  1  0  0  0  0
 34 33  1  0  0  0  0
M  END
