2,3
 OpenBabel05122313053D

 49 50  0  0  0  0  0  0  0  0999 V2000
   -1.6245   -1.2376   -1.7243 O   0  0  0  0  0  0  0  0  0  0  0  0
   -1.9083    1.0669   -0.5251 N   0  0  0  0  0  2  0  0  0  0  0  0
    0.9095   -0.6649   -1.4189 N   0  0  0  0  0  2  0  0  0  0  0  0
   -2.9745    0.7326   -1.4624 C   0  0  0  0  0  0  0  0  0  0  0  0
   -2.8528    1.2777   -2.4306 H   0  0  0  0  0  0  0  0  0  0  0  0
   -3.9673    1.0473   -1.0645 H   0  0  0  0  0  0  0  0  0  0  0  0
   -2.9760   -0.7769   -1.6700 C   0  0  0  0  0  0  0  0  0  0  0  0
   -3.4214   -1.2956   -0.7999 H   0  0  0  0  0  0  0  0  0  0  0  0
   -3.5277   -1.0764   -2.5883 H   0  0  0  0  0  0  0  0  0  0  0  0
    0.5102   -1.3204   -2.6617 C   0  0  0  0  0  0  0  0  0  0  0  0
    0.6491   -2.4264   -2.5848 H   0  0  0  0  0  0  0  0  0  0  0  0
    1.1409   -0.9868   -3.5177 H   0  0  0  0  0  0  0  0  0  0  0  0
   -0.9411   -1.0036   -2.9520 C   0  0  0  0  0  0  0  0  0  0  0  0
   -1.0494    0.0619   -3.2631 H   0  0  0  0  0  0  0  0  0  0  0  0
   -1.3566   -1.6518   -3.7569 H   0  0  0  0  0  0  0  0  0  0  0  0
   -1.9608    2.4096   -0.0349 C   0  0  0  0  0  0  0  0  0  0  0  0
   -2.5206    2.6675    1.2475 C   0  0  0  0  0  0  0  0  0  0  0  0
   -2.5394    3.9889    1.7302 C   0  0  0  0  0  0  0  0  0  0  0  0
   -2.9683    4.1870    2.7251 H   0  0  0  0  0  0  0  0  0  0  0  0
   -2.0239    5.0445    0.9673 C   0  0  0  0  0  0  0  0  0  0  0  0
   -2.0376    6.0711    1.3636 H   0  0  0  0  0  0  0  0  0  0  0  0
   -1.4959    4.7883   -0.3041 C   0  0  0  0  0  0  0  0  0  0  0  0
   -1.0951    5.6162   -0.9104 H   0  0  0  0  0  0  0  0  0  0  0  0
   -1.4639    3.4825   -0.8286 C   0  0  0  0  0  0  0  0  0  0  0  0
    2.3336   -0.6352   -1.2583 C   0  0  0  0  0  0  0  0  0  0  0  0
    3.0657    0.4477   -1.8237 C   0  0  0  0  0  0  0  0  0  0  0  0
    4.4694    0.4351   -1.7575 C   0  0  0  0  0  0  0  0  0  0  0  0
    5.0320    1.2743   -2.1965 H   0  0  0  0  0  0  0  0  0  0  0  0
    5.1516   -0.6211   -1.1393 C   0  0  0  0  0  0  0  0  0  0  0  0
    6.2513   -0.6182   -1.0937 H   0  0  0  0  0  0  0  0  0  0  0  0
    4.4273   -1.6741   -0.5732 C   0  0  0  0  0  0  0  0  0  0  0  0
    4.9573   -2.5005   -0.0747 H   0  0  0  0  0  0  0  0  0  0  0  0
    3.0199   -1.7053   -0.6237 C   0  0  0  0  0  0  0  0  0  0  0  0
   -3.0733    1.5435    2.0840 C   0  0  0  0  0  0  0  0  0  0  0  0
   -3.6240    0.8051    1.4702 H   0  0  0  0  0  0  0  0  0  0  0  0
   -3.7466    1.9291    2.8735 H   0  0  0  0  0  0  0  0  0  0  0  0
   -2.2627    0.9768    2.5907 H   0  0  0  0  0  0  0  0  0  0  0  0
   -0.9236    3.2386   -2.2140 C   0  0  0  0  0  0  0  0  0  0  0  0
   -0.1371    3.9726   -2.4766 H   0  0  0  0  0  0  0  0  0  0  0  0
   -1.7233    3.3316   -2.9804 H   0  0  0  0  0  0  0  0  0  0  0  0
   -0.4990    2.2204   -2.3036 H   0  0  0  0  0  0  0  0  0  0  0  0
    2.3463    1.6100   -2.4546 C   0  0  0  0  0  0  0  0  0  0  0  0
    3.0614    2.3200   -2.9125 H   0  0  0  0  0  0  0  0  0  0  0  0
    1.7519    2.1651   -1.6999 H   0  0  0  0  0  0  0  0  0  0  0  0
    1.6301    1.2908   -3.2391 H   0  0  0  0  0  0  0  0  0  0  0  0
    2.2851   -2.8552    0.0130 C   0  0  0  0  0  0  0  0  0  0  0  0
    1.2799   -2.9983   -0.4230 H   0  0  0  0  0  0  0  0  0  0  0  0
    2.1498   -2.6685    1.1002 H   0  0  0  0  0  0  0  0  0  0  0  0
    2.8572   -3.7982   -0.0859 H   0  0  0  0  0  0  0  0  0  0  0  0
  1  7  1  0  0  0  0
  2 16  1  0  0  0  0
  3 25  1  0  0  0  0
  4  6  1  0  0  0  0
  4  2  1  0  0  0  0
  5  4  1  0  0  0  0
  7  4  1  0  0  0  0
  7  8  1  0  0  0  0
  9  7  1  0  0  0  0
 10 11  1  0  0  0  0
 10  3  1  0  0  0  0
 12 10  1  0  0  0  0
 13 10  1  0  0  0  0
 13  1  1  0  0  0  0
 14 13  1  0  0  0  0
 15 13  1  0  0  0  0
 16 17  1  0  0  0  0
 17 18  2  0  0  0  0
 17 34  1  0  0  0  0
 18 19  1  0  0  0  0
 20 21  1  0  0  0  0
 20 18  1  0  0  0  0
 22 20  2  0  0  0  0
 23 22  1  0  0  0  0
 24 22  1  0  0  0  0
 24 16  2  0  0  0  0
 25 33  1  0  0  0  0
 26 27  1  0  0  0  0
 26 25  2  0  0  0  0
 27 29  2  0  0  0  0
 28 27  1  0  0  0  0
 29 30  1  0  0  0  0
 29 31  1  0  0  0  0
 31 32  1  0  0  0  0
 33 31  2  0  0  0  0
 33 46  1  0  0  0  0
 34 37  1  0  0  0  0
 34 36  1  0  0  0  0
 35 34  1  0  0  0  0
 38 24  1  0  0  0  0
 39 38  1  0  0  0  0
 40 38  1  0  0  0  0
 41 38  1  0  0  0  0
 42 26  1  0  0  0  0
 42 44  1  0  0  0  0
 43 42  1  0  0  0  0
 45 42  1  0  0  0  0
 46 48  1  0  0  0  0
 47 46  1  0  0  0  0
 49 46  1  0  0  0  0
M  END
