13,14
 OpenBabel05122313053D

 30 31  0  0  0  0  0  0  0  0999 V2000
   -3.2653    3.1644    0.8294 F   0  0  0  0  0  0  0  0  0  0  0  0
   -5.5058    4.5788    0.2569 F   0  0  0  0  0  0  0  0  0  0  0  0
   -7.4088    3.5273   -1.4078 F   0  0  0  0  0  0  0  0  0  0  0  0
   -7.0251    1.0667   -2.5513 F   0  0  0  0  0  0  0  0  0  0  0  0
   -4.7480   -0.3219   -2.0653 F   0  0  0  0  0  0  0  0  0  0  0  0
   -4.6057    0.3447    2.0074 F   0  0  0  0  0  0  0  0  0  0  0  0
   -6.8846   -0.9384    2.6646 F   0  0  0  0  0  0  0  0  0  0  0  0
   -7.3927   -3.4558    1.7079 F   0  0  0  0  0  0  0  0  0  0  0  0
   -5.5784   -4.6736    0.0440 F   0  0  0  0  0  0  0  0  0  0  0  0
   -3.3299   -3.3724   -0.7171 F   0  0  0  0  0  0  0  0  0  0  0  0
   -1.3963    2.3507   -1.1398 O   0  0  0  0  0  0  0  0  0  0  0  0
   -1.2678   -2.5100    0.8164 O   0  0  0  0  0  0  0  0  0  0  0  0
   -1.4524    1.1058   -0.5144 N   0  0  0  0  0  2  0  0  0  0  0  0
   -1.4287   -1.2659    0.1292 N   0  0  0  0  0  2  0  0  0  0  0  0
   -2.6983    0.6158   -0.3091 C   0  0  0  0  0  0  0  0  0  0  0  0
   -2.6872   -0.7282    0.1617 C   0  0  0  0  0  0  0  0  0  0  0  0
   -3.9173    1.3793   -0.6110 C   0  0  0  0  0  0  0  0  0  0  0  0
   -4.1488    2.6465   -0.0354 C   0  0  0  0  0  0  0  0  0  0  0  0
   -5.3089    3.3832   -0.3088 C   0  0  0  0  0  0  0  0  0  0  0  0
   -6.2933    2.8397   -1.1532 C   0  0  0  0  0  0  0  0  0  0  0  0
   -6.0979    1.5745   -1.7324 C   0  0  0  0  0  0  0  0  0  0  0  0
   -4.9180    0.8645   -1.4624 C   0  0  0  0  0  0  0  0  0  0  0  0
   -3.8848   -1.4464    0.5920 C   0  0  0  0  0  0  0  0  0  0  0  0
   -4.8367   -0.8591    1.4630 C   0  0  0  0  0  0  0  0  0  0  0  0
   -6.0173   -1.5203    1.8307 C   0  0  0  0  0  0  0  0  0  0  0  0
   -6.2759   -2.8171    1.3525 C   0  0  0  0  0  0  0  0  0  0  0  0
   -5.3395   -3.4440    0.5104 C   0  0  0  0  0  0  0  0  0  0  0  0
   -4.1834   -2.7510    0.1379 C   0  0  0  0  0  0  0  0  0  0  0  0
   -0.4398    2.6114   -1.0005 H   0  0  0  0  0  0  0  0  0  0  0  0
   -1.6900   -3.1723    0.2214 H   0  0  0  0  0  0  0  0  0  0  0  0
  3 20  1  0  0  0  0
  4 21  1  0  0  0  0
  5 22  1  0  0  0  0
  9 27  1  0  0  0  0
 10 28  1  0  0  0  0
 11 29  1  0  0  0  0
 11 13  1  0  0  0  0
 13 15  1  0  0  0  0
 14 16  1  0  0  0  0
 14 12  1  0  0  0  0
 15 16  2  0  0  0  0
 16 23  1  0  0  0  0
 17 15  1  0  0  0  0
 17 18  1  0  0  0  0
 18  1  1  0  0  0  0
 19 18  2  0  0  0  0
 19  2  1  0  0  0  0
 20 19  1  0  0  0  0
 21 22  1  0  0  0  0
 21 20  2  0  0  0  0
 22 17  2  0  0  0  0
 23 24  1  0  0  0  0
 24 25  2  0  0  0  0
 24  6  1  0  0  0  0
 25  7  1  0  0  0  0
 26  8  1  0  0  0  0
 26 25  1  0  0  0  0
 27 26  2  0  0  0  0
 28 27  1  0  0  0  0
 28 23  2  0  0  0  0
 30 12  1  0  0  0  0
M  END
