1,2
 OpenBabel05122313053D

 37 41  0  0  0  0  0  0  0  0999 V2000
   -2.7504   -0.6139   -0.7082 N   0  0  0  0  0  2  0  0  0  0  0  0
   -1.0317   -0.4115    1.3035 N   0  0  0  0  0  2  0  0  0  0  0  0
    2.2271   -0.4816    1.9756 N   0  0  0  0  0  0  0  0  0  0  0  0
   -3.2177   -0.9958    0.5273 C   0  0  0  0  0  0  0  0  0  0  0  0
   -2.2878   -0.8992    1.6073 C   0  0  0  0  0  0  0  0  0  0  0  0
   -0.1453   -0.2844    2.3171 C   0  0  0  0  0  0  0  0  0  0  0  0
   -0.4559   -0.6935    3.6357 C   0  0  0  0  0  0  0  0  0  0  0  0
   -1.7120   -1.1997    3.9467 C   0  0  0  0  0  0  0  0  0  0  0  0
   -2.6811   -1.2966    2.9174 C   0  0  0  0  0  0  0  0  0  0  0  0
   -4.0228   -1.7746    3.1199 C   0  0  0  0  0  0  0  0  0  0  0  0
   -4.9219   -1.8479    2.0807 C   0  0  0  0  0  0  0  0  0  0  0  0
   -4.5480   -1.4570    0.7484 C   0  0  0  0  0  0  0  0  0  0  0  0
   -5.4163   -1.5007   -0.3725 C   0  0  0  0  0  0  0  0  0  0  0  0
   -4.9316   -1.1014   -1.6165 C   0  0  0  0  0  0  0  0  0  0  0  0
   -3.5981   -0.6670   -1.7547 C   0  0  0  0  0  0  0  0  0  0  0  0
    1.1888    0.3398    2.0538 C   0  0  0  0  0  0  0  0  0  0  0  0
    3.4667    0.0602    1.7846 C   0  0  0  0  0  0  0  0  0  0  0  0
    4.5829   -0.8155    1.6547 C   0  0  0  0  0  0  0  0  0  0  0  0
    5.8531   -0.3035    1.4347 C   0  0  0  0  0  0  0  0  0  0  0  0
    6.0625    1.1006    1.3417 C   0  0  0  0  0  0  0  0  0  0  0  0
    4.9975    1.9799    1.4746 C   0  0  0  0  0  0  0  0  0  0  0  0
    3.6800    1.4859    1.6960 C   0  0  0  0  0  0  0  0  0  0  0  0
    2.5404    2.3278    1.8224 C   0  0  0  0  0  0  0  0  0  0  0  0
    1.2884    1.7617    1.9913 C   0  0  0  0  0  0  0  0  0  0  0  0
    0.3226   -0.5883    4.4038 H   0  0  0  0  0  0  0  0  0  0  0  0
   -1.9612   -1.5124    4.9714 H   0  0  0  0  0  0  0  0  0  0  0  0
   -4.3190   -2.0799    4.1345 H   0  0  0  0  0  0  0  0  0  0  0  0
   -5.9463   -2.2101    2.2540 H   0  0  0  0  0  0  0  0  0  0  0  0
   -6.4533   -1.8469   -0.2495 H   0  0  0  0  0  0  0  0  0  0  0  0
   -5.5746   -1.1205   -2.5077 H   0  0  0  0  0  0  0  0  0  0  0  0
   -3.1639   -0.3647   -2.7212 H   0  0  0  0  0  0  0  0  0  0  0  0
    4.3935   -1.8959    1.7280 H   0  0  0  0  0  0  0  0  0  0  0  0
    6.7109   -0.9857    1.3363 H   0  0  0  0  0  0  0  0  0  0  0  0
    7.0782    1.4881    1.1723 H   0  0  0  0  0  0  0  0  0  0  0  0
    5.1566    3.0679    1.4131 H   0  0  0  0  0  0  0  0  0  0  0  0
    2.6625    3.4211    1.7714 H   0  0  0  0  0  0  0  0  0  0  0  0
    0.3843    2.3807    2.0797 H   0  0  0  0  0  0  0  0  0  0  0  0
  1  4  1  0  0  0  0
  2  5  1  0  0  0  0
  2  6  1  0  0  0  0
  3 16  1  0  0  0  0
  4 12  1  0  0  0  0
  4  5  2  0  0  0  0
  5  9  1  0  0  0  0
  6  7  2  0  0  0  0
  7  8  1  0  0  0  0
  7 25  1  0  0  0  0
  8 26  1  0  0  0  0
  9 10  1  0  0  0  0
  9  8  2  0  0  0  0
 10 27  1  0  0  0  0
 11 28  1  0  0  0  0
 11 10  2  0  0  0  0
 12 11  1  0  0  0  0
 13 29  1  0  0  0  0
 13 12  2  0  0  0  0
 14 13  1  0  0  0  0
 15 14  2  0  0  0  0
 15  1  1  0  0  0  0
 16  6  1  0  0  0  0
 17  3  2  0  0  0  0
 18 32  1  0  0  0  0
 18 17  1  0  0  0  0
 19 18  2  0  0  0  0
 20 19  1  0  0  0  0
 20 21  2  0  0  0  0
 21 22  1  0  0  0  0
 22 17  1  0  0  0  0
 22 23  2  0  0  0  0
 23 24  1  0  0  0  0
 24 16  2  0  0  0  0
 24 37  1  0  0  0  0
 30 14  1  0  0  0  0
 31 15  1  0  0  0  0
 33 19  1  0  0  0  0
 34 20  1  0  0  0  0
 35 21  1  0  0  0  0
 36 23  1  0  0  0  0
M  END
