1,9
 OpenBabel05122313053D

 27 28  0  0  0  0  0  0  0  0999 V2000
    1.1120   -1.3500   -0.6264 N   0  0  0  0  0  2  0  0  0  0  0  0
    1.7958   -0.3965   -1.2990 C   0  0  0  0  0  0  0  0  0  0  0  0
    2.8950   -0.9393   -1.9108 N   0  0  0  0  0  0  0  0  0  0  0  0
    2.9032   -2.2794   -1.5979 C   0  0  0  0  0  0  0  0  0  0  0  0
    3.6857   -2.9523   -1.9619 H   0  0  0  0  0  0  0  0  0  0  0  0
    1.4172    0.8989   -1.3644 N   0  0  0  0  0  0  0  0  0  0  0  0
    1.7854   -2.5240   -0.8023 C   0  0  0  0  0  0  0  0  0  0  0  0
    1.4440   -3.4662   -0.3620 H   0  0  0  0  0  0  0  0  0  0  0  0
    0.3147    1.1033   -0.7090 N   0  0  0  0  0  2  0  0  0  0  0  0
   -0.1322    2.4500   -0.7064 C   0  0  0  0  0  0  0  0  0  0  0  0
   -1.5141    2.7132   -0.7992 C   0  0  0  0  0  0  0  0  0  0  0  0
   -2.2151    1.8747   -0.9223 H   0  0  0  0  0  0  0  0  0  0  0  0
   -1.9596    4.0400   -0.7962 C   0  0  0  0  0  0  0  0  0  0  0  0
   -3.0360    4.2485   -0.8848 H   0  0  0  0  0  0  0  0  0  0  0  0
   -1.0412    5.0972   -0.6825 C   0  0  0  0  0  0  0  0  0  0  0  0
   -1.3995    6.1373   -0.6627 H   0  0  0  0  0  0  0  0  0  0  0  0
    0.3355    4.8267   -0.5886 C   0  0  0  0  0  0  0  0  0  0  0  0
    1.0543    5.6535   -0.4861 H   0  0  0  0  0  0  0  0  0  0  0  0
    0.7975    3.5070   -0.6102 C   0  0  0  0  0  0  0  0  0  0  0  0
    1.8657    3.2678   -0.5222 H   0  0  0  0  0  0  0  0  0  0  0  0
    3.9124   -0.1775   -2.6361 C   0  0  0  0  0  0  0  0  0  0  0  0
    4.3206   -0.8397   -3.4252 H   0  0  0  0  0  0  0  0  0  0  0  0
    3.3851    0.6578   -3.1362 H   0  0  0  0  0  0  0  0  0  0  0  0
    5.0106    0.3467   -1.7136 C   0  0  0  0  0  0  0  0  0  0  0  0
    5.7492    0.9286   -2.2990 H   0  0  0  0  0  0  0  0  0  0  0  0
    5.5445   -0.4825   -1.2086 H   0  0  0  0  0  0  0  0  0  0  0  0
    4.5838    1.0093   -0.9352 H   0  0  0  0  0  0  0  0  0  0  0  0
  2  1  1  0  0  0  0
  3  4  1  0  0  0  0
  3  2  1  0  0  0  0
  4  7  2  0  0  0  0
  5  4  1  0  0  0  0
  6  2  2  0  0  0  0
  6  9  1  0  0  0  0
  7  1  1  0  0  0  0
  7  8  1  0  0  0  0
  9 10  1  0  0  0  0
 10 19  1  0  0  0  0
 11 13  1  0  0  0  0
 11 10  2  0  0  0  0
 12 11  1  0  0  0  0
 13 15  2  0  0  0  0
 14 13  1  0  0  0  0
 15 16  1  0  0  0  0
 15 17  1  0  0  0  0
 17 18  1  0  0  0  0
 19 17  2  0  0  0  0
 19 20  1  0  0  0  0
 21  3  1  0  0  0  0
 21 24  1  0  0  0  0
 22 21  1  0  0  0  0
 23 21  1  0  0  0  0
 24 26  1  0  0  0  0
 24 27  1  0  0  0  0
 25 24  1  0  0  0  0
M  END
