1,2
 OpenBabel05122313053D

 20 20  0  0  0  0  0  0  0  0999 V2000
   -1.4397   -0.1458    0.0214 N   0  0  0  0  0  2  0  0  0  0  0  0
    0.5304    1.5597   -0.2623 N   0  0  0  0  0  2  0  0  0  0  0  0
   -1.7959    1.1698   -0.1366 C   0  0  0  0  0  0  0  0  0  0  0  0
   -3.1450    1.5650   -0.1384 C   0  0  0  0  0  0  0  0  0  0  0  0
   -3.3986    2.6268   -0.2694 H   0  0  0  0  0  0  0  0  0  0  0  0
   -4.1379    0.5919    0.0282 C   0  0  0  0  0  0  0  0  0  0  0  0
   -5.2006    0.8756    0.0304 H   0  0  0  0  0  0  0  0  0  0  0  0
   -3.7538   -0.7489    0.1917 C   0  0  0  0  0  0  0  0  0  0  0  0
   -4.5008   -1.5440    0.3262 H   0  0  0  0  0  0  0  0  0  0  0  0
   -2.3928   -1.0827    0.1820 C   0  0  0  0  0  0  0  0  0  0  0  0
   -2.0076   -2.1112    0.2982 H   0  0  0  0  0  0  0  0  0  0  0  0
   -0.6693    2.0731   -0.2821 C   0  0  0  0  0  0  0  0  0  0  0  0
   -0.8275    3.1619   -0.3925 H   0  0  0  0  0  0  0  0  0  0  0  0
    1.7054    2.4250   -0.3221 C   0  0  0  0  0  0  0  0  0  0  0  0
    1.4137    3.4060   -0.7576 H   0  0  0  0  0  0  0  0  0  0  0  0
    2.4372    1.9231   -0.9868 H   0  0  0  0  0  0  0  0  0  0  0  0
    2.3323    2.5958    1.0631 C   0  0  0  0  0  0  0  0  0  0  0  0
    1.6158    3.0462    1.7793 H   0  0  0  0  0  0  0  0  0  0  0  0
    3.2173    3.2580    0.9865 H   0  0  0  0  0  0  0  0  0  0  0  0
    2.6643    1.6102    1.4421 H   0  0  0  0  0  0  0  0  0  0  0  0
  1 10  1  0  0  0  0
  3  1  1  0  0  0  0
  4  3  1  0  0  0  0
  4  6  2  0  0  0  0
  5  4  1  0  0  0  0
  6  7  1  0  0  0  0
  6  8  1  0  0  0  0
  8  9  1  0  0  0  0
 10  8  2  0  0  0  0
 10 11  1  0  0  0  0
 12  2  1  0  0  0  0
 12  3  2  0  0  0  0
 13 12  1  0  0  0  0
 14  2  1  0  0  0  0
 14 17  1  0  0  0  0
 15 14  1  0  0  0  0
 16 14  1  0  0  0  0
 17 20  1  0  0  0  0
 17 18  1  0  0  0  0
 19 17  1  0  0  0  0
M  END
