3,29
 OpenBabel05122313053D

 55 54  0  0  0  0  0  0  0  0999 V2000
    0.0001    1.5791   -0.0009 Si  0  0  0  0  0  0  0  0  0  0  0  0
    2.8962    0.4493    0.0003 P   0  0  0  0  0  4  0  0  0  0  0  0
    1.2746    0.3809   -0.0001 N   0  0  0  0  0  2  0  0  0  0  0  0
    3.2032    0.3167   -2.7895 C   0  0  0  0  0  0  0  0  0  0  0  0
    3.6549   -0.2198   -3.6472 H   0  0  0  0  0  0  0  0  0  0  0  0
    3.5172    1.3787   -2.8585 H   0  0  0  0  0  0  0  0  0  0  0  0
    2.1025    0.2518   -2.8994 H   0  0  0  0  0  0  0  0  0  0  0  0
    3.6335   -0.3403   -1.4775 C   0  0  0  0  0  0  0  0  0  0  0  0
    4.7357   -0.3443   -1.3382 H   0  0  0  0  0  0  0  0  0  0  0  0
    3.2843   -1.3932   -1.4267 H   0  0  0  0  0  0  0  0  0  0  0  0
    3.6328   -0.3396    1.4788 C   0  0  0  0  0  0  0  0  0  0  0  0
    3.2843   -1.3928    1.4280 H   0  0  0  0  0  0  0  0  0  0  0  0
    4.7352   -0.3429    1.3401 H   0  0  0  0  0  0  0  0  0  0  0  0
    3.2013    0.3176    2.7902 C   0  0  0  0  0  0  0  0  0  0  0  0
    3.6527   -0.2183    3.6484 H   0  0  0  0  0  0  0  0  0  0  0  0
    2.1005    0.2521    2.8994 H   0  0  0  0  0  0  0  0  0  0  0  0
    3.5146    1.3798    2.8590 H   0  0  0  0  0  0  0  0  0  0  0  0
    3.4571    2.2048    0.0000 C   0  0  0  0  0  0  0  0  0  0  0  0
    2.9889    2.6752   -0.8888 H   0  0  0  0  0  0  0  0  0  0  0  0
    2.9880    2.6758    0.8881 H   0  0  0  0  0  0  0  0  0  0  0  0
    4.9738    2.4043    0.0008 C   0  0  0  0  0  0  0  0  0  0  0  0
    5.2228    3.4842   -0.0003 H   0  0  0  0  0  0  0  0  0  0  0  0
    5.4496    1.9555   -0.8940 H   0  0  0  0  0  0  0  0  0  0  0  0
    5.4483    1.9575    0.8972 H   0  0  0  0  0  0  0  0  0  0  0  0
   -0.0001    2.6390    1.5595 C   0  0  0  0  0  0  0  0  0  0  0  0
    0.8915    3.2970    1.6141 H   0  0  0  0  0  0  0  0  0  0  0  0
    0.0004    1.9678    2.4416 H   0  0  0  0  0  0  0  0  0  0  0  0
   -0.8926    3.2958    1.6143 H   0  0  0  0  0  0  0  0  0  0  0  0
   -1.2745    0.3810   -0.0002 N   0  0  0  0  0  2  0  0  0  0  0  0
   -2.8961    0.4494    0.0001 P   0  0  0  0  0  4  0  0  0  0  0  0
   -3.6325   -0.3400    1.4785 C   0  0  0  0  0  0  0  0  0  0  0  0
   -3.2023    0.3179    2.7900 C   0  0  0  0  0  0  0  0  0  0  0  0
   -3.6530   -0.2188    3.6480 H   0  0  0  0  0  0  0  0  0  0  0  0
   -3.5174    1.3796    2.8588 H   0  0  0  0  0  0  0  0  0  0  0  0
   -2.1015    0.2542    2.8994 H   0  0  0  0  0  0  0  0  0  0  0  0
   -4.7348   -0.3447    1.3394 H   0  0  0  0  0  0  0  0  0  0  0  0
   -3.2827   -1.3927    1.4280 H   0  0  0  0  0  0  0  0  0  0  0  0
   -3.6335   -0.3398   -1.4779 C   0  0  0  0  0  0  0  0  0  0  0  0
   -3.2854   -1.3931   -1.4270 H   0  0  0  0  0  0  0  0  0  0  0  0
   -4.7358   -0.3426   -1.3388 H   0  0  0  0  0  0  0  0  0  0  0  0
   -3.2021    0.3169   -2.7897 C   0  0  0  0  0  0  0  0  0  0  0  0
   -3.6542   -0.2190   -3.6475 H   0  0  0  0  0  0  0  0  0  0  0  0
   -2.1015    0.2508   -2.8993 H   0  0  0  0  0  0  0  0  0  0  0  0
   -3.5150    1.3792   -2.8586 H   0  0  0  0  0  0  0  0  0  0  0  0
   -3.4570    2.2048    0.0003 C   0  0  0  0  0  0  0  0  0  0  0  0
   -2.9887    2.6753    0.8890 H   0  0  0  0  0  0  0  0  0  0  0  0
   -2.9880    2.6759   -0.8879 H   0  0  0  0  0  0  0  0  0  0  0  0
   -4.9737    2.4043   -0.0003 C   0  0  0  0  0  0  0  0  0  0  0  0
   -5.2228    3.4842    0.0010 H   0  0  0  0  0  0  0  0  0  0  0  0
   -5.4493    1.9554    0.8945 H   0  0  0  0  0  0  0  0  0  0  0  0
   -5.4483    1.9577   -0.8967 H   0  0  0  0  0  0  0  0  0  0  0  0
    0.0003    2.6370   -1.5625 C   0  0  0  0  0  0  0  0  0  0  0  0
   -0.8917    3.2943   -1.6185 H   0  0  0  0  0  0  0  0  0  0  0  0
    0.0007    1.9645   -2.4436 H   0  0  0  0  0  0  0  0  0  0  0  0
    0.8924    3.2943   -1.6178 H   0  0  0  0  0  0  0  0  0  0  0  0
  1 29  1  0  0  0  0
  1  3  1  0  0  0  0
  1 25  1  0  0  0  0
  2 11  1  0  0  0  0
  3  2  1  0  0  0  0
  4  8  1  0  0  0  0
  5  4  1  0  0  0  0
  6  4  1  0  0  0  0
  7  4  1  0  0  0  0
  8 10  1  0  0  0  0
  8  9  1  0  0  0  0
  8  2  1  0  0  0  0
 11 14  1  0  0  0  0
 12 11  1  0  0  0  0
 13 11  1  0  0  0  0
 14 17  1  0  0  0  0
 14 16  1  0  0  0  0
 14 15  1  0  0  0  0
 18  2  1  0  0  0  0
 18 21  1  0  0  0  0
 18 20  1  0  0  0  0
 19 18  1  0  0  0  0
 21 24  1  0  0  0  0
 22 21  1  0  0  0  0
 23 21  1  0  0  0  0
 25 26  1  0  0  0  0
 25 28  1  0  0  0  0
 25 27  1  0  0  0  0
 29 30  1  0  0  0  0
 30 45  1  0  0  0  0
 30 31  1  0  0  0  0
 31 32  1  0  0  0  0
 32 34  1  0  0  0  0
 32 35  1  0  0  0  0
 32 33  1  0  0  0  0
 36 31  1  0  0  0  0
 37 31  1  0  0  0  0
 38 39  1  0  0  0  0
 38 40  1  0  0  0  0
 38 30  1  0  0  0  0
 41 38  1  0  0  0  0
 42 41  1  0  0  0  0
 43 41  1  0  0  0  0
 44 41  1  0  0  0  0
 45 46  1  0  0  0  0
 47 45  1  0  0  0  0
 48 45  1  0  0  0  0
 48 49  1  0  0  0  0
 48 50  1  0  0  0  0
 51 48  1  0  0  0  0
 52  1  1  0  0  0  0
 53 52  1  0  0  0  0
 54 52  1  0  0  0  0
 55 52  1  0  0  0  0
M  END
