2,22
 OpenBabel05122313053D

 25 24  0  0  0  0  0  0  0  0999 V2000
    1.0279   -2.4775   -0.2883 O   0  0  0  0  0  1  0  0  0  0  0  0
    1.4002   -1.3139    0.2877 N   0  0  0  0  0  0  0  0  0  0  0  0
    1.5483   -1.4578    1.3106 H   0  0  0  0  0  0  0  0  0  0  0  0
    2.7203   -0.7763   -0.2722 C   0  0  0  0  0  0  0  0  0  0  0  0
    2.6524   -0.8842   -1.8013 C   0  0  0  0  0  0  0  0  0  0  0  0
    1.8220   -0.2999   -2.2482 H   0  0  0  0  0  0  0  0  0  0  0  0
    2.4704   -1.9389   -2.0733 H   0  0  0  0  0  0  0  0  0  0  0  0
    3.6042   -0.5557   -2.2568 H   0  0  0  0  0  0  0  0  0  0  0  0
    3.8539   -1.6650    0.2471 C   0  0  0  0  0  0  0  0  0  0  0  0
    3.9286   -1.6528    1.3520 H   0  0  0  0  0  0  0  0  0  0  0  0
    4.8291   -1.3473   -0.1682 H   0  0  0  0  0  0  0  0  0  0  0  0
    3.6614   -2.7063   -0.0734 H   0  0  0  0  0  0  0  0  0  0  0  0
    2.7885    0.6997    0.2468 C   0  0  0  0  0  0  0  0  0  0  0  0
    2.7609    0.7998    1.7791 C   0  0  0  0  0  0  0  0  0  0  0  0
    1.8541    0.3409    2.2225 H   0  0  0  0  0  0  0  0  0  0  0  0
    2.7646    1.8611    2.0842 H   0  0  0  0  0  0  0  0  0  0  0  0
    3.6542    0.3140    2.2116 H   0  0  0  0  0  0  0  0  0  0  0  0
    3.9873    1.4801   -0.3015 C   0  0  0  0  0  0  0  0  0  0  0  0
    4.0313    1.4579   -1.4080 H   0  0  0  0  0  0  0  0  0  0  0  0
    4.9353    1.0611    0.0859 H   0  0  0  0  0  0  0  0  0  0  0  0
    3.9230    2.5358    0.0229 H   0  0  0  0  0  0  0  0  0  0  0  0
    1.5011    1.3017   -0.2841 N   0  0  0  0  0  0  0  0  0  0  0  0
    1.6538    1.4449   -1.2998 H   0  0  0  0  0  0  0  0  0  0  0  0
    1.3467    2.6055    0.2670 O   0  0  0  0  0  0  0  0  0  0  0  0
    0.4115    2.8364    0.0433 H   0  0  0  0  0  0  0  0  0  0  0  0
  1  2  1  0  0  0  0
  2  3  1  0  0  0  0
  4 13  1  0  0  0  0
  4  9  1  0  0  0  0
  4  2  1  0  0  0  0
  5  4  1  0  0  0  0
  6  5  1  0  0  0  0
  7  5  1  0  0  0  0
  8  5  1  0  0  0  0
  9 10  1  0  0  0  0
 11  9  1  0  0  0  0
 12  9  1  0  0  0  0
 13 14  1  0  0  0  0
 14 16  1  0  0  0  0
 14 17  1  0  0  0  0
 14 15  1  0  0  0  0
 18 21  1  0  0  0  0
 18 20  1  0  0  0  0
 18 13  1  0  0  0  0
 19 18  1  0  0  0  0
 22 13  1  0  0  0  0
 22 24  1  0  0  0  0
 23 22  1  0  0  0  0
 25 24  1  0  0  0  0
M  END
