1,2
 OpenBabel05122313053D

 50 51  0  0  1  0  0  0  0  0999 V2000
    1.8196   -0.5117   -0.9534 N   0  0  0  0  0  2  0  0  0  0  0  0
   -0.7794   -0.3264   -0.6133 N   0  0  0  0  0  2  0  0  0  0  0  0
    4.5219   -0.8301    0.8527 O   0  0  0  0  0  0  0  0  0  0  0  0
   -2.1740   -0.1689   -0.3004 C   0  0  0  0  0  0  0  0  0  0  0  0
    4.0659   -0.0712    0.0134 C   0  0  0  0  0  0  0  0  0  0  0  0
   -2.8531    1.0018   -0.7259 C   0  0  0  0  0  0  0  0  0  0  0  0
    3.7623   -1.3461   -2.1302 C   0  0  0  0  0  0  0  0  0  0  0  0
    4.8571   -1.4438   -2.1553 H   0  0  0  0  0  0  0  0  0  0  0  0
   -0.4208   -0.9413   -1.7196 C   0  0  1  0  0  3  0  0  0  0  0  0
   -2.8250   -1.1722    0.4636 C   0  0  0  0  0  0  0  0  0  0  0  0
   -2.1614    2.0921   -1.5334 C   0  0  0  0  0  0  0  0  0  0  0  0
   -1.0883    1.8237   -1.6016 H   0  0  0  0  0  0  0  0  0  0  0  0
    3.1607   -0.6470   -1.0719 C   0  0  1  0  0  3  0  0  0  0  0  0
    1.0219   -1.0772   -1.9220 C   0  0  0  0  0  0  0  0  0  0  0  0
   -1.3849   -1.4974   -2.7275 C   0  0  0  0  0  0  0  0  0  0  0  0
   -2.4280   -1.2993   -2.4247 H   0  0  0  0  0  0  0  0  0  0  0  0
   -1.2549   -2.5941   -2.8368 H   0  0  0  0  0  0  0  0  0  0  0  0
   -1.2159   -1.0464   -3.7270 H   0  0  0  0  0  0  0  0  0  0  0  0
   -4.8759    0.1597    0.3641 C   0  0  0  0  0  0  0  0  0  0  0  0
   -5.9371    0.2884    0.6247 H   0  0  0  0  0  0  0  0  0  0  0  0
    1.5703   -1.7612   -3.0245 C   0  0  0  0  0  0  0  0  0  0  0  0
    0.9042   -2.1885   -3.7852 H   0  0  0  0  0  0  0  0  0  0  0  0
   -2.1036   -2.4263    0.9399 C   0  0  0  0  0  0  0  0  0  0  0  0
   -1.0362   -2.3228    0.6604 H   0  0  0  0  0  0  0  0  0  0  0  0
   -4.2100    1.1397   -0.3801 C   0  0  0  0  0  0  0  0  0  0  0  0
   -4.7535    2.0410   -0.7024 H   0  0  0  0  0  0  0  0  0  0  0  0
   -2.2463    3.4532   -0.8231 C   0  0  0  0  0  0  0  0  0  0  0  0
   -1.6270    4.2074   -1.3488 H   0  0  0  0  0  0  0  0  0  0  0  0
   -1.8837    3.3807    0.2207 H   0  0  0  0  0  0  0  0  0  0  0  0
   -3.2889    3.8317   -0.7940 H   0  0  0  0  0  0  0  0  0  0  0  0
   -4.1823   -0.9817    0.7815 C   0  0  0  0  0  0  0  0  0  0  0  0
   -4.7039   -1.7493    1.3733 H   0  0  0  0  0  0  0  0  0  0  0  0
    2.9560   -1.9026   -3.1323 C   0  0  0  0  0  0  0  0  0  0  0  0
    3.4015   -2.4427   -3.9803 H   0  0  0  0  0  0  0  0  0  0  0  0
    4.4710    1.3758   -0.1358 C   0  0  0  0  0  0  0  0  0  0  0  0
    4.8908    1.7482    0.8160 H   0  0  0  0  0  0  0  0  0  0  0  0
    3.6292    2.0124   -0.4676 H   0  0  0  0  0  0  0  0  0  0  0  0
    5.2549    1.4271   -0.9236 H   0  0  0  0  0  0  0  0  0  0  0  0
   -2.7128    2.1708   -2.9677 C   0  0  0  0  0  0  0  0  0  0  0  0
   -2.1701    2.9397   -3.5549 H   0  0  0  0  0  0  0  0  0  0  0  0
   -3.7885    2.4439   -2.9703 H   0  0  0  0  0  0  0  0  0  0  0  0
   -2.6156    1.2020   -3.4982 H   0  0  0  0  0  0  0  0  0  0  0  0
   -2.6447   -3.6884    0.2458 C   0  0  0  0  0  0  0  0  0  0  0  0
   -2.0781   -4.5860    0.5677 H   0  0  0  0  0  0  0  0  0  0  0  0
   -2.5706   -3.6130   -0.8579 H   0  0  0  0  0  0  0  0  0  0  0  0
   -3.7127   -3.8581    0.4954 H   0  0  0  0  0  0  0  0  0  0  0  0
   -2.1616   -2.5590    2.4708 C   0  0  0  0  0  0  0  0  0  0  0  0
   -1.5241   -3.3985    2.8137 H   0  0  0  0  0  0  0  0  0  0  0  0
   -3.1958   -2.7532    2.8226 H   0  0  0  0  0  0  0  0  0  0  0  0
   -1.8046   -1.6346    2.9650 H   0  0  0  0  0  0  0  0  0  0  0  0
  2  4  1  0  0  0  0
  4 10  1  0  0  0  0
  5  3  2  0  0  0  0
  6 25  1  0  0  0  0
  6  4  2  0  0  0  0
  7 13  1  0  0  0  0
  8  7  1  0  0  0  0
  9  2  1  1  0  0  0
 10 31  2  0  0  0  0
 10 23  1  0  0  0  0
 11 27  1  0  0  0  0
 11  6  1  0  0  0  0
 12 11  1  0  0  0  0
 13  1  1  0  0  0  0
 13  5  1  1  0  0  0
 14  9  1  0  0  0  0
 14  1  1  0  0  0  0
 15 16  1  0  0  0  0
 15  9  1  0  0  0  0
 17 15  1  0  0  0  0
 18 15  1  0  0  0  0
 19 20  1  0  0  0  0
 19 31  1  0  0  0  0
 21 14  2  0  0  0  0
 22 21  1  0  0  0  0
 23 47  1  0  0  0  0
 24 23  1  0  0  0  0
 25 19  2  0  0  0  0
 26 25  1  0  0  0  0
 27 30  1  0  0  0  0
 27 29  1  0  0  0  0
 28 27  1  0  0  0  0
 31 32  1  0  0  0  0
 33 21  1  0  0  0  0
 33  7  2  0  0  0  0
 34 33  1  0  0  0  0
 35  5  1  0  0  0  0
 35 36  1  0  0  0  0
 37 35  1  0  0  0  0
 38 35  1  0  0  0  0
 39 11  1  0  0  0  0
 40 39  1  0  0  0  0
 41 39  1  0  0  0  0
 42 39  1  0  0  0  0
 43 46  1  0  0  0  0
 43 44  1  0  0  0  0
 43 23  1  0  0  0  0
 45 43  1  0  0  0  0
 47 48  1  0  0  0  0
 47 49  1  0  0  0  0
 47 50  1  0  0  0  0
M  END
