3,4
 OpenBabel05122313053D

 33 34  0  0  0  0  0  0  0  0999 V2000
    1.8414   -0.5971    2.7698 Cl  0  0  0  0  0  0  0  0  0  0  0  0
    2.7356    1.1435   -2.2997 Cl  0  0  0  0  0  0  0  0  0  0  0  0
   -1.4989    0.9442    0.1160 N   0  0  0  0  0  2  0  0  0  0  0  0
    1.0755    0.6252    0.1779 N   0  0  0  0  0  2  0  0  0  0  0  0
   -3.3066   -0.8812    1.5529 O   0  0  0  0  0  0  0  0  0  0  0  0
   -4.7383   -0.3478   -0.1431 O   0  0  0  0  0  0  0  0  0  0  0  0
   -2.8455    1.0243    0.1961 C   0  0  0  0  0  0  0  0  0  0  0  0
   -3.5084    2.2622    0.1240 C   0  0  0  0  0  0  0  0  0  0  0  0
   -4.6066    2.2728    0.1477 H   0  0  0  0  0  0  0  0  0  0  0  0
   -2.7593    3.4437    0.0492 C   0  0  0  0  0  0  0  0  0  0  0  0
   -3.2591    4.4212   -0.0123 H   0  0  0  0  0  0  0  0  0  0  0  0
   -1.3627    3.3611    0.0899 C   0  0  0  0  0  0  0  0  0  0  0  0
   -0.7431    4.2676    0.0801 H   0  0  0  0  0  0  0  0  0  0  0  0
   -0.7522    2.0948    0.1273 C   0  0  0  0  0  0  0  0  0  0  0  0
    0.6971    1.8849    0.2186 C   0  0  0  0  0  0  0  0  0  0  0  0
    1.6399    3.0356    0.3780 C   0  0  0  0  0  0  0  0  0  0  0  0
    2.6324    2.6863    0.7155 H   0  0  0  0  0  0  0  0  0  0  0  0
    1.2515    3.7720    1.1080 H   0  0  0  0  0  0  0  0  0  0  0  0
    1.7775    3.5541   -0.5944 H   0  0  0  0  0  0  0  0  0  0  0  0
    2.4342    0.2404    0.2561 C   0  0  0  0  0  0  0  0  0  0  0  0
    2.9113   -0.4106    1.4162 C   0  0  0  0  0  0  0  0  0  0  0  0
    4.2265   -0.8877    1.4862 C   0  0  0  0  0  0  0  0  0  0  0  0
    4.5656   -1.3870    2.4036 H   0  0  0  0  0  0  0  0  0  0  0  0
    5.0752   -0.7314    0.3820 C   0  0  0  0  0  0  0  0  0  0  0  0
    6.1046   -1.1155    0.4287 H   0  0  0  0  0  0  0  0  0  0  0  0
    4.6250   -0.0989   -0.7846 C   0  0  0  0  0  0  0  0  0  0  0  0
    5.2769    0.0176   -1.6607 H   0  0  0  0  0  0  0  0  0  0  0  0
    3.3106    0.3831   -0.8428 C   0  0  0  0  0  0  0  0  0  0  0  0
   -3.6128   -0.2190    0.5821 C   0  0  0  0  0  0  0  0  0  0  0  0
   -5.4899   -1.5401    0.1331 C   0  0  0  0  0  0  0  0  0  0  0  0
   -6.3869   -1.4923   -0.5084 H   0  0  0  0  0  0  0  0  0  0  0  0
   -5.7705   -1.5922    1.2037 H   0  0  0  0  0  0  0  0  0  0  0  0
   -4.8711   -2.4242   -0.1221 H   0  0  0  0  0  0  0  0  0  0  0  0
  2 28  1  0  0  0  0
  3 14  1  0  0  0  0
  3  7  1  0  0  0  0
  4 15  1  0  0  0  0
  4 20  1  0  0  0  0
  6 30  1  0  0  0  0
  6 29  1  0  0  0  0
  7 29  1  0  0  0  0
  8  9  1  0  0  0  0
  8  7  2  0  0  0  0
 10 12  2  0  0  0  0
 10  8  1  0  0  0  0
 11 10  1  0  0  0  0
 12 14  1  0  0  0  0
 13 12  1  0  0  0  0
 14 15  2  0  0  0  0
 15 16  1  0  0  0  0
 16 17  1  0  0  0  0
 16 18  1  0  0  0  0
 19 16  1  0  0  0  0
 20 21  1  0  0  0  0
 21 22  2  0  0  0  0
 21  1  1  0  0  0  0
 22 23  1  0  0  0  0
 24 25  1  0  0  0  0
 24 22  1  0  0  0  0
 26 24  2  0  0  0  0
 27 26  1  0  0  0  0
 28 26  1  0  0  0  0
 28 20  2  0  0  0  0
 29  5  2  0  0  0  0
 30 32  1  0  0  0  0
 31 30  1  0  0  0  0
 33 30  1  0  0  0  0
M  END
