1,2
 OpenBabel05122313053D

 42 43  0  0  0  0  0  0  0  0999 V2000
   -1.6997    0.9285    0.0208 N   0  0  0  0  0  2  0  0  0  0  0  0
    0.9016    0.7322    0.0572 N   0  0  0  0  0  2  0  0  0  0  0  0
   -1.0051    2.1105   -0.0405 C   0  0  0  0  0  0  0  0  0  0  0  0
   -1.6738    3.3449   -0.1174 C   0  0  0  0  0  0  0  0  0  0  0  0
   -1.0961    4.2764   -0.1833 H   0  0  0  0  0  0  0  0  0  0  0  0
   -3.0742    3.3651   -0.1226 C   0  0  0  0  0  0  0  0  0  0  0  0
   -3.6187    4.3161   -0.2140 H   0  0  0  0  0  0  0  0  0  0  0  0
   -3.7653    2.1577    0.0299 C   0  0  0  0  0  0  0  0  0  0  0  0
   -4.8615    2.1040    0.0857 H   0  0  0  0  0  0  0  0  0  0  0  0
   -3.0457    0.9558    0.1420 C   0  0  0  0  0  0  0  0  0  0  0  0
    0.4552    1.9701    0.0337 C   0  0  0  0  0  0  0  0  0  0  0  0
    1.3344    3.1796    0.1325 C   0  0  0  0  0  0  0  0  0  0  0  0
    2.3853    2.8874    0.3050 H   0  0  0  0  0  0  0  0  0  0  0  0
    1.0025    3.8404    0.9590 H   0  0  0  0  0  0  0  0  0  0  0  0
    1.2859    3.7756   -0.8031 H   0  0  0  0  0  0  0  0  0  0  0  0
    2.2910    0.4357    0.1800 C   0  0  0  0  0  0  0  0  0  0  0  0
    2.7660   -0.0030    1.4380 C   0  0  0  0  0  0  0  0  0  0  0  0
    4.1335   -0.2963    1.5541 C   0  0  0  0  0  0  0  0  0  0  0  0
    4.5188   -0.6269    2.5322 H   0  0  0  0  0  0  0  0  0  0  0  0
    5.0144   -0.1984    0.4600 C   0  0  0  0  0  0  0  0  0  0  0  0
    4.4885    0.1978   -0.7829 C   0  0  0  0  0  0  0  0  0  0  0  0
    5.1541    0.2483   -1.6595 H   0  0  0  0  0  0  0  0  0  0  0  0
    3.1296    0.5114   -0.9557 C   0  0  0  0  0  0  0  0  0  0  0  0
    1.8139   -0.1797    2.5890 C   0  0  0  0  0  0  0  0  0  0  0  0
    2.3469   -0.4896    3.5073 H   0  0  0  0  0  0  0  0  0  0  0  0
    1.0621   -0.9594    2.3378 H   0  0  0  0  0  0  0  0  0  0  0  0
    1.2453    0.7465    2.8136 H   0  0  0  0  0  0  0  0  0  0  0  0
    6.4706   -0.5588    0.6113 C   0  0  0  0  0  0  0  0  0  0  0  0
    7.0765   -0.1808   -0.2349 H   0  0  0  0  0  0  0  0  0  0  0  0
    6.6033   -1.6613    0.6478 H   0  0  0  0  0  0  0  0  0  0  0  0
    6.8963   -0.1524    1.5509 H   0  0  0  0  0  0  0  0  0  0  0  0
    2.5604    0.8290   -2.3118 C   0  0  0  0  0  0  0  0  0  0  0  0
    1.8110    0.0552   -2.5857 H   0  0  0  0  0  0  0  0  0  0  0  0
    3.3522    0.8373   -3.0838 H   0  0  0  0  0  0  0  0  0  0  0  0
    2.0442    1.8107   -2.3455 H   0  0  0  0  0  0  0  0  0  0  0  0
   -3.8251   -0.2904    0.4965 C   0  0  0  0  0  0  0  0  0  0  0  0
   -3.7209   -2.2952    1.7274 C   0  0  0  0  0  0  0  0  0  0  0  0
   -3.1876   -2.6518    2.6256 H   0  0  0  0  0  0  0  0  0  0  0  0
   -3.5370   -2.9764    0.8715 H   0  0  0  0  0  0  0  0  0  0  0  0
   -4.8091   -2.2071    1.9132 H   0  0  0  0  0  0  0  0  0  0  0  0
   -4.9710   -0.4726    0.1327 O   0  0  0  0  0  0  0  0  0  0  0  0
   -3.1543   -1.0162    1.4082 O   0  0  0  0  0  0  0  0  0  0  0  0
  1 10  1  0  0  0  0
  2 16  1  0  0  0  0
  3  1  1  0  0  0  0
  3 11  2  0  0  0  0
  4  3  1  0  0  0  0
  5  4  1  0  0  0  0
  6  4  2  0  0  0  0
  6  8  1  0  0  0  0
  7  6  1  0  0  0  0
  8  9  1  0  0  0  0
  8 10  2  0  0  0  0
 10 36  1  0  0  0  0
 11  2  1  0  0  0  0
 11 12  1  0  0  0  0
 12 13  1  0  0  0  0
 12 14  1  0  0  0  0
 15 12  1  0  0  0  0
 16 17  1  0  0  0  0
 17 18  2  0  0  0  0
 17 24  1  0  0  0  0
 18 19  1  0  0  0  0
 20 28  1  0  0  0  0
 20 18  1  0  0  0  0
 21 20  2  0  0  0  0
 22 21  1  0  0  0  0
 23 21  1  0  0  0  0
 23 16  2  0  0  0  0
 24 27  1  0  0  0  0
 24 25  1  0  0  0  0
 26 24  1  0  0  0  0
 28 30  1  0  0  0  0
 28 31  1  0  0  0  0
 29 28  1  0  0  0  0
 32 23  1  0  0  0  0
 33 32  1  0  0  0  0
 34 32  1  0  0  0  0
 35 32  1  0  0  0  0
 36 42  1  0  0  0  0
 37 40  1  0  0  0  0
 37 38  1  0  0  0  0
 39 37  1  0  0  0  0
 41 36  2  0  0  0  0
 42 37  1  0  0  0  0
M  END
