4,7
 OpenBabel05122313053D

 11 10  0  0  1  0  0  0  0  0999 V2000
    4.2991    0.0342    0.0219 N   0  0  0  0  0  0  0  0  0  0  0  0
    4.6748    0.9823    0.0305 H   0  0  0  0  0  0  0  0  0  0  0  0
    4.9387   -0.7117    0.2955 H   0  0  0  0  0  0  0  0  0  0  0  0
    1.1176   -1.6663   -0.0605 N   0  0  0  0  0  0  0  0  0  0  0  0
    0.7501   -2.2728    0.6950 H   0  0  0  0  0  0  0  0  0  0  0  0
    0.8888   -2.1354   -0.9562 H   0  0  0  0  0  0  0  0  0  0  0  0
    2.0538    0.8008   -0.0177 N   0  0  0  0  0  2  0  0  0  0  0  0
    2.3554    1.7788    0.0242 H   0  0  0  0  0  0  0  0  0  0  0  0
    2.9599   -0.1502    0.0268 C   0  0  1  0  0  3  0  0  0  0  0  0
    2.5090   -1.4588    0.0821 N   0  0  0  0  0  0  0  0  0  0  0  0
    3.1208   -2.2214   -0.2204 H   0  0  0  0  0  0  0  0  0  0  0  0
  1  9  1  0  0  0  0
  1  2  1  0  0  0  0
  1  3  1  0  0  0  0
  4 10  1  0  0  0  0
  4  5  1  0  0  0  0
  6  4  1  0  0  0  0
  7  8  1  0  0  0  0
  9  7  1  6  0  0  0
  9 10  1  0  0  0  0
 11 10  1  0  0  0  0
M  END
