1,4
 OpenBabel05122313053D

 41 43  0  0  1  0  0  0  0  0999 V2000
   -2.4532    0.5396   -0.1942 N   0  0  0  0  0  2  0  0  0  0  0  0
   -2.1379    1.7859   -0.0601 N   0  0  0  0  0  2  0  0  0  0  0  0
    3.6481    0.3181   -0.1194 N   0  0  0  0  0  0  0  0  0  0  0  0
    0.1067    0.9880   -0.1263 N   0  0  0  0  0  2  0  0  0  0  0  0
   -0.7725    2.0299   -0.0531 C   0  0  1  0  0  3  0  0  0  0  0  0
   -0.3442    3.3716    0.0267 C   0  0  0  0  0  0  0  0  0  0  0  0
   -1.1075    4.1581    0.0972 H   0  0  0  0  0  0  0  0  0  0  0  0
    1.0273    3.6388    0.0170 C   0  0  0  0  0  0  0  0  0  0  0  0
    1.3961    4.6723    0.0956 H   0  0  0  0  0  0  0  0  0  0  0  0
    1.9251    2.5721   -0.1226 C   0  0  0  0  0  0  0  0  0  0  0  0
    3.0129    2.7146   -0.1667 H   0  0  0  0  0  0  0  0  0  0  0  0
    1.4299    1.2552   -0.2289 C   0  0  0  0  0  0  0  0  0  0  0  0
    2.3717    0.1381   -0.5091 C   0  0  0  0  0  0  0  0  0  0  0  0
    1.9438   -1.0126   -1.2044 C   0  0  0  0  0  0  0  0  0  0  0  0
    0.8954   -1.1075   -1.5248 H   0  0  0  0  0  0  0  0  0  0  0  0
    2.8825   -2.0201   -1.4508 C   0  0  0  0  0  0  0  0  0  0  0  0
    2.5865   -2.9359   -1.9846 H   0  0  0  0  0  0  0  0  0  0  0  0
    4.2008   -1.8459   -1.0097 C   0  0  0  0  0  0  0  0  0  0  0  0
    4.9625   -2.6217   -1.1804 H   0  0  0  0  0  0  0  0  0  0  0  0
    4.5516   -0.6489   -0.3503 C   0  0  0  0  0  0  0  0  0  0  0  0
    5.9669   -0.3883    0.1430 C   0  0  0  0  0  0  0  0  0  0  0  0
    6.5789   -1.2757   -0.1273 H   0  0  0  0  0  0  0  0  0  0  0  0
    5.9768   -0.2314    1.6722 C   0  0  0  0  0  0  0  0  0  0  0  0
    5.3234    0.6143    1.9670 H   0  0  0  0  0  0  0  0  0  0  0  0
    7.0024   -0.0315    2.0434 H   0  0  0  0  0  0  0  0  0  0  0  0
    5.5972   -1.1432    2.1756 H   0  0  0  0  0  0  0  0  0  0  0  0
    6.5631    0.8462   -0.5517 C   0  0  0  0  0  0  0  0  0  0  0  0
    6.5976    0.7169   -1.6523 H   0  0  0  0  0  0  0  0  0  0  0  0
    7.5944    1.0412   -0.1938 H   0  0  0  0  0  0  0  0  0  0  0  0
    5.9439    1.7396   -0.3332 H   0  0  0  0  0  0  0  0  0  0  0  0
   -3.8532    0.2995   -0.2137 C   0  0  0  0  0  0  0  0  0  0  0  0
   -4.7692    1.1514    0.4405 C   0  0  0  0  0  0  0  0  0  0  0  0
   -4.3793    2.0197    0.9887 H   0  0  0  0  0  0  0  0  0  0  0  0
   -6.1371    0.8679    0.3828 C   0  0  0  0  0  0  0  0  0  0  0  0
   -6.8526    1.5216    0.9044 H   0  0  0  0  0  0  0  0  0  0  0  0
   -6.6009   -0.2500   -0.3351 C   0  0  0  0  0  0  0  0  0  0  0  0
   -7.6787   -0.4685   -0.3765 H   0  0  0  0  0  0  0  0  0  0  0  0
   -5.6877   -1.0902   -0.9935 C   0  0  0  0  0  0  0  0  0  0  0  0
   -6.0478   -1.9623   -1.5594 H   0  0  0  0  0  0  0  0  0  0  0  0
   -4.3146   -0.8261   -0.9256 C   0  0  0  0  0  0  0  0  0  0  0  0
   -3.5798   -1.4686   -1.4296 H   0  0  0  0  0  0  0  0  0  0  0  0
  1  2  1  0  0  0  0
  4  5  1  0  0  0  0
  5  2  1  6  0  0  0
  5  6  1  0  0  0  0
  6  7  1  0  0  0  0
  8  6  2  0  0  0  0
  8  9  1  0  0  0  0
 10  8  1  0  0  0  0
 11 10  1  0  0  0  0
 12  4  1  0  0  0  0
 12 10  2  0  0  0  0
 13 12  1  0  0  0  0
 13  3  2  0  0  0  0
 14 13  1  0  0  0  0
 15 14  1  0  0  0  0
 16 14  2  0  0  0  0
 16 18  1  0  0  0  0
 17 16  1  0  0  0  0
 18 20  2  0  0  0  0
 19 18  1  0  0  0  0
 20  3  1  0  0  0  0
 20 21  1  0  0  0  0
 21 23  1  0  0  0  0
 22 21  1  0  0  0  0
 23 24  1  0  0  0  0
 23 25  1  0  0  0  0
 23 26  1  0  0  0  0
 27 30  1  0  0  0  0
 27 29  1  0  0  0  0
 27 21  1  0  0  0  0
 28 27  1  0  0  0  0
 31  1  1  0  0  0  0
 31 32  1  0  0  0  0
 32 33  1  0  0  0  0
 34 32  2  0  0  0  0
 34 35  1  0  0  0  0
 36 34  1  0  0  0  0
 37 36  1  0  0  0  0
 38 40  1  0  0  0  0
 38 36  2  0  0  0  0
 39 38  1  0  0  0  0
 40 31  2  0  0  0  0
 41 40  1  0  0  0  0
M  END
