1,3
 OpenBabel05122313053D

 34 36  0  0  0  0  0  0  0  0999 V2000
   -1.8296   -0.8303    0.5746 N   0  0  0  0  0  0  0  0  0  0  0  0
   -3.5083   -3.8333   -1.4059 Cl  0  0  0  0  0  0  0  0  0  0  0  0
    0.5059   -1.6474   -0.4621 N   0  0  0  0  0  2  0  0  0  0  0  0
   -1.7943   -1.9794   -0.2167 C   0  0  0  0  0  0  0  0  0  0  0  0
   -0.5359   -2.4043   -0.7150 C   0  0  0  0  0  3  0  0  0  0  0  0
   -0.4572   -3.3267   -1.3185 H   0  0  0  0  0  0  0  0  0  0  0  0
   -3.0928   -2.4589   -0.4577 C   0  0  0  0  0  0  0  0  0  0  0  0
    1.8145   -2.0898   -0.8176 C   0  0  0  0  0  0  0  0  0  0  0  0
    2.5733   -1.3268   -1.7438 C   0  0  0  0  0  0  0  0  0  0  0  0
   -3.7793    0.4876    1.5305 C   0  0  0  0  0  0  0  0  0  0  0  0
   -3.1629    1.2552    2.0133 H   0  0  0  0  0  0  0  0  0  0  0  0
   -3.9999   -1.5670    0.1855 C   0  0  0  0  0  0  0  0  0  0  0  0
   -3.1732   -0.5664    0.8192 C   0  0  0  0  0  0  0  0  0  0  0  0
    1.9452   -0.2216   -2.5492 C   0  0  0  0  0  0  0  0  0  0  0  0
    2.6553    0.6097   -2.7212 H   0  0  0  0  0  0  0  0  0  0  0  0
    1.0405    0.1804   -2.0643 H   0  0  0  0  0  0  0  0  0  0  0  0
    1.6349   -0.6049   -3.5456 H   0  0  0  0  0  0  0  0  0  0  0  0
   -5.4087   -1.5086    0.2624 C   0  0  0  0  0  3  0  0  0  0  0  0
   -6.0186   -2.2833   -0.2257 H   0  0  0  0  0  0  0  0  0  0  0  0
    2.3617   -3.2533   -0.2049 C   0  0  0  0  0  0  0  0  0  0  0  0
    3.9151   -1.6804   -1.9694 C   0  0  0  0  0  0  0  0  0  0  0  0
    4.5114   -1.0760   -2.6703 H   0  0  0  0  0  0  0  0  0  0  0  0
   -5.1743    0.5323    1.5859 C   0  0  0  0  0  0  0  0  0  0  0  0
   -5.6567    1.3591    2.1289 H   0  0  0  0  0  0  0  0  0  0  0  0
   -5.9865   -0.4503    0.9609 C   0  0  0  0  0  0  0  0  0  0  0  0
   -7.0816   -0.3730    1.0333 H   0  0  0  0  0  0  0  0  0  0  0  0
    3.7092   -3.5657   -0.4679 C   0  0  0  0  0  0  0  0  0  0  0  0
    4.1490   -4.4483    0.0221 H   0  0  0  0  0  0  0  0  0  0  0  0
    1.5504   -4.1666    0.6810 C   0  0  0  0  0  0  0  0  0  0  0  0
    2.2121   -4.7291    1.3674 H   0  0  0  0  0  0  0  0  0  0  0  0
    0.9945   -4.9181    0.0806 H   0  0  0  0  0  0  0  0  0  0  0  0
    0.8164   -3.6143    1.2968 H   0  0  0  0  0  0  0  0  0  0  0  0
    4.4908   -2.7787   -1.3217 C   0  0  0  0  0  0  0  0  0  0  0  0
    5.5482   -3.0302   -1.4921 H   0  0  0  0  0  0  0  0  0  0  0  0
  1 13  1  0  0  0  0
  2  7  1  0  0  0  0
  4  1  2  0  0  0  0
  5  3  1  0  0  0  0
  5  4  1  0  0  0  0
  6  5  1  0  0  0  0
  7  4  1  0  0  0  0
  7 12  2  0  0  0  0
  8  3  1  0  0  0  0
  8 20  1  0  0  0  0
  9  8  2  0  0  0  0
 10 23  1  0  0  0  0
 10 11  1  0  0  0  0
 12 18  1  0  0  0  0
 12 13  1  0  0  0  0
 13 10  2  0  0  0  0
 14 16  1  0  0  0  0
 14  9  1  0  0  0  0
 15 14  1  0  0  0  0
 17 14  1  0  0  0  0
 18 25  1  0  0  0  0
 19 18  1  0  0  0  0
 20 29  1  0  0  0  0
 21  9  1  0  0  0  0
 21 33  2  0  0  0  0
 22 21  1  0  0  0  0
 23 24  1  0  0  0  0
 25 26  1  0  0  0  0
 25 23  2  0  0  0  0
 27 20  2  0  0  0  0
 27 28  1  0  0  0  0
 29 32  1  0  0  0  0
 29 30  1  0  0  0  0
 31 29  1  0  0  0  0
 33 27  1  0  0  0  0
 34 33  1  0  0  0  0
M  END
