1,2
 OpenBabel05122313053D

 40 41  0  0  1  0  0  0  0  0999 V2000
   -0.8783   -0.1963    1.6802 N   0  0  0  0  0  2  0  0  0  0  0  0
   -2.0398    1.0992   -0.6178 N   0  0  0  0  0  2  0  0  0  0  0  0
    3.5281   -0.4482   -0.8280 N   0  0  0  0  0  0  0  0  0  0  0  0
    1.0082    0.3034   -0.8188 S   0  0  0  0  0  0  0  0  0  0  0  0
    3.3028    1.8368    0.5671 S   0  0  0  0  0  0  0  0  0  0  0  0
   -1.1174   -0.8310    2.8489 C   0  0  0  0  0  3  0  0  0  0  0  0
   -1.7467   -1.7302    2.7764 H   0  0  0  0  0  0  0  0  0  0  0  0
   -0.5548   -0.3874    4.0503 C   0  0  0  0  0  0  0  0  0  0  0  0
   -0.7749   -0.9295    4.9808 H   0  0  0  0  0  0  0  0  0  0  0  0
    0.2872    0.7330    4.0360 C   0  0  0  0  0  0  0  0  0  0  0  0
    0.7528    1.0988    4.9633 H   0  0  0  0  0  0  0  0  0  0  0  0
    0.5385    1.3772    2.8172 C   0  0  0  0  0  0  0  0  0  0  0  0
    1.2188    2.2363    2.7443 H   0  0  0  0  0  0  0  0  0  0  0  0
   -0.0635    0.8867    1.6481 C   0  0  0  0  0  0  0  0  0  0  0  0
   -1.0661    2.0132   -0.3705 C   0  0  2  0  0  3  0  0  0  0  0  0
   -1.2275    3.3588   -0.7354 C   0  0  0  0  0  0  0  0  0  0  0  0
   -0.4144    4.0702   -0.5333 H   0  0  0  0  0  0  0  0  0  0  0  0
   -2.4145    3.7633   -1.3595 C   0  0  0  0  0  0  0  0  0  0  0  0
   -2.5595    4.8143   -1.6506 H   0  0  0  0  0  0  0  0  0  0  0  0
   -3.4060    2.8051   -1.6127 C   0  0  0  0  0  0  0  0  0  0  0  0
   -4.3508    3.0728   -2.1061 H   0  0  0  0  0  0  0  0  0  0  0  0
   -3.1816    1.4771   -1.2367 C   0  0  0  0  0  0  0  0  0  0  0  0
   -3.8891    0.6626   -1.4524 H   0  0  0  0  0  0  0  0  0  0  0  0
    0.1914    1.5243    0.3026 C   0  0  2  0  0  0  0  0  0  0  0  0
    0.9304    2.3460    0.4189 H   0  0  0  0  0  0  0  0  0  0  0  0
    2.7438    0.5486   -0.3503 C   0  0  0  0  0  0  0  0  0  0  0  0
    3.0072   -1.5762   -1.6218 C   0  0  0  0  0  0  0  0  0  0  0  0
    2.1950   -1.2101   -2.2841 H   0  0  0  0  0  0  0  0  0  0  0  0
    3.8279   -1.8861   -2.3011 H   0  0  0  0  0  0  0  0  0  0  0  0
    2.5237   -2.7532   -0.7745 C   0  0  0  0  0  0  0  0  0  0  0  0
    3.3242   -3.1135   -0.0970 H   0  0  0  0  0  0  0  0  0  0  0  0
    2.2306   -3.5927   -1.4354 H   0  0  0  0  0  0  0  0  0  0  0  0
    1.6319   -2.4877   -0.1727 H   0  0  0  0  0  0  0  0  0  0  0  0
    4.9679   -0.4639   -0.5417 C   0  0  0  0  0  0  0  0  0  0  0  0
    5.2764   -1.5287   -0.4912 H   0  0  0  0  0  0  0  0  0  0  0  0
    5.1113   -0.0151    0.4614 H   0  0  0  0  0  0  0  0  0  0  0  0
    5.7849    0.2989   -1.5825 C   0  0  0  0  0  0  0  0  0  0  0  0
    5.6373   -0.1140   -2.6012 H   0  0  0  0  0  0  0  0  0  0  0  0
    6.8651    0.2368   -1.3421 H   0  0  0  0  0  0  0  0  0  0  0  0
    5.4917    1.3669   -1.5868 H   0  0  0  0  0  0  0  0  0  0  0  0
  1  6  1  0  0  0  0
  2 15  1  0  0  0  0
  3 34  1  0  0  0  0
  3 26  1  0  0  0  0
  4 26  1  0  0  0  0
  4 24  1  0  0  0  0
  6  8  1  0  0  0  0
  7  6  1  0  0  0  0
  8  9  1  0  0  0  0
 10  8  2  0  0  0  0
 10 11  1  0  0  0  0
 12 10  1  0  0  0  0
 13 12  1  0  0  0  0
 14  1  1  0  0  0  0
 14 12  2  0  0  0  0
 15 24  1  6  0  0  0
 16 17  1  0  0  0  0
 16 15  1  0  0  0  0
 18 16  2  0  0  0  0
 19 18  1  0  0  0  0
 20 18  1  0  0  0  0
 20 22  2  0  0  0  0
 21 20  1  0  0  0  0
 22  2  1  0  0  0  0
 23 22  1  0  0  0  0
 24 25  1  1  0  0  0
 24 14  1  0  0  0  0
 26  5  2  0  0  0  0
 27  3  1  0  0  0  0
 27 30  1  0  0  0  0
 28 27  1  0  0  0  0
 29 27  1  0  0  0  0
 30 33  1  0  0  0  0
 30 31  1  0  0  0  0
 32 30  1  0  0  0  0
 34 35  1  0  0  0  0
 34 36  1  0  0  0  0
 37 39  1  0  0  0  0
 37 34  1  0  0  0  0
 38 37  1  0  0  0  0
 40 37  1  0  0  0  0
M  END
