1,2
 OpenBabel05122313053D

 38 40  0  0  0  0  0  0  0  0999 V2000
   -2.9886   -0.7614   -0.2974 N   0  0  0  0  0  2  0  0  0  0  0  0
   -0.8197    0.5973   -0.0831 N   0  0  0  0  0  2  0  0  0  0  0  0
    4.2090    2.9297    0.7313 O   0  0  0  0  0  0  0  0  0  0  0  0
   -3.1455    0.5979   -0.3863 C   0  0  0  0  0  0  0  0  0  0  0  0
   -4.4119    1.1589   -0.6830 C   0  0  0  0  0  0  0  0  0  0  0  0
   -5.5008    0.3147   -0.8813 C   0  0  0  0  0  0  0  0  0  0  0  0
   -5.3184   -1.0808   -0.7892 C   0  0  0  0  0  0  0  0  0  0  0  0
   -4.0465   -1.5752   -0.5014 C   0  0  0  0  0  0  0  0  0  0  0  0
   -1.9239    1.3478   -0.2293 C   0  0  0  0  0  0  0  0  0  0  0  0
    0.4481    1.2510    0.0789 C   0  0  0  0  0  0  0  0  0  0  0  0
    0.7661    1.8842    1.2954 C   0  0  0  0  0  0  0  0  0  0  0  0
    2.0288    2.4516    1.4716 C   0  0  0  0  0  0  0  0  0  0  0  0
    2.9944    2.3866    0.4425 C   0  0  0  0  0  0  0  0  0  0  0  0
    2.6666    1.7651   -0.7795 C   0  0  0  0  0  0  0  0  0  0  0  0
    1.3963    1.1945   -0.9523 C   0  0  0  0  0  0  0  0  0  0  0  0
    5.2449    2.8106   -0.2255 C   0  0  0  0  0  0  0  0  0  0  0  0
   -1.9030    2.8306   -0.2561 C   0  0  0  0  0  0  0  0  0  0  0  0
   -2.6371    3.5534    0.7114 C   0  0  0  0  0  0  0  0  0  0  0  0
   -2.6277    4.9555    0.7120 C   0  0  0  0  0  0  0  0  0  0  0  0
   -1.8846    5.6554   -0.2517 C   0  0  0  0  0  0  0  0  0  0  0  0
   -1.1545    4.9455   -1.2188 C   0  0  0  0  0  0  0  0  0  0  0  0
   -1.1638    3.5446   -1.2247 C   0  0  0  0  0  0  0  0  0  0  0  0
   -4.5076    2.2496   -0.7658 H   0  0  0  0  0  0  0  0  0  0  0  0
   -6.4903    0.7348   -1.1158 H   0  0  0  0  0  0  0  0  0  0  0  0
   -6.1515   -1.7810   -0.9385 H   0  0  0  0  0  0  0  0  0  0  0  0
   -3.8341   -2.6514   -0.4102 H   0  0  0  0  0  0  0  0  0  0  0  0
    0.0209    1.8977    2.1031 H   0  0  0  0  0  0  0  0  0  0  0  0
    2.3076    2.9370    2.4179 H   0  0  0  0  0  0  0  0  0  0  0  0
    3.4006    1.6888   -1.5921 H   0  0  0  0  0  0  0  0  0  0  0  0
    1.1351    0.6733   -1.8851 H   0  0  0  0  0  0  0  0  0  0  0  0
    6.1253    3.3249    0.2029 H   0  0  0  0  0  0  0  0  0  0  0  0
    5.5087    1.7460   -0.4155 H   0  0  0  0  0  0  0  0  0  0  0  0
    4.9802    3.2981   -1.1908 H   0  0  0  0  0  0  0  0  0  0  0  0
   -3.1985    3.0012    1.4805 H   0  0  0  0  0  0  0  0  0  0  0  0
   -3.1967    5.5045    1.4776 H   0  0  0  0  0  0  0  0  0  0  0  0
   -1.8737    6.7559   -0.2489 H   0  0  0  0  0  0  0  0  0  0  0  0
   -0.5739    5.4886   -1.9799 H   0  0  0  0  0  0  0  0  0  0  0  0
   -0.5970    2.9917   -1.9868 H   0  0  0  0  0  0  0  0  0  0  0  0
  2 10  1  0  0  0  0
  4  1  1  0  0  0  0
  4  9  2  0  0  0  0
  5  4  1  0  0  0  0
  6  7  1  0  0  0  0
  6  5  2  0  0  0  0
  7  8  2  0  0  0  0
  8 26  1  0  0  0  0
  8  1  1  0  0  0  0
  9  2  1  0  0  0  0
 10 11  1  0  0  0  0
 11 12  2  0  0  0  0
 11 27  1  0  0  0  0
 12 28  1  0  0  0  0
 13  3  1  0  0  0  0
 13 12  1  0  0  0  0
 14 13  2  0  0  0  0
 15 14  1  0  0  0  0
 15 10  2  0  0  0  0
 16 31  1  0  0  0  0
 16  3  1  0  0  0  0
 17  9  1  0  0  0  0
 17 18  1  0  0  0  0
 18 19  2  0  0  0  0
 18 34  1  0  0  0  0
 19 35  1  0  0  0  0
 20 36  1  0  0  0  0
 20 19  1  0  0  0  0
 21 20  2  0  0  0  0
 22 21  1  0  0  0  0
 22 17  2  0  0  0  0
 23  5  1  0  0  0  0
 24  6  1  0  0  0  0
 25  7  1  0  0  0  0
 29 14  1  0  0  0  0
 30 15  1  0  0  0  0
 32 16  1  0  0  0  0
 33 16  1  0  0  0  0
 37 21  1  0  0  0  0
 38 22  1  0  0  0  0
M  END
