1,2
 OpenBabel05122313053D

 14 14  0  0  0  0  0  0  0  0999 V2000
    1.3479    0.1964   -0.0000 N   0  0  0  0  0  2  0  0  0  0  0  0
   -0.0814   -1.9267   -0.0004 N   0  0  0  0  0  2  0  0  0  0  0  0
   -0.7431   -2.7178   -0.0007 H   0  0  0  0  0  0  0  0  0  0  0  0
    2.0152    1.3708    0.0000 C   0  0  0  0  0  0  0  0  0  0  0  0
    1.3687    2.2649    0.0000 H   0  0  0  0  0  0  0  0  0  0  0  0
    3.4130    1.4179    0.0001 C   0  0  0  0  0  0  0  0  0  0  0  0
    3.9152    2.3956    0.0001 H   0  0  0  0  0  0  0  0  0  0  0  0
    4.1500    0.2200    0.0002 C   0  0  0  0  0  0  0  0  0  0  0  0
    5.2495    0.2379    0.0003 H   0  0  0  0  0  0  0  0  0  0  0  0
    3.4612   -0.9971    0.0001 C   0  0  0  0  0  0  0  0  0  0  0  0
    3.9948   -1.9584    0.0001 H   0  0  0  0  0  0  0  0  0  0  0  0
    2.0549   -0.9912    0.0000 C   0  0  0  0  0  0  0  0  0  0  0  0
    1.2088   -2.1656   -0.0001 C   0  0  0  0  0  0  0  0  0  0  0  0
    1.6222   -3.1866   -0.0001 H   0  0  0  0  0  0  0  0  0  0  0  0
  1 12  1  0  0  0  0
  1  4  1  0  0  0  0
  2 13  1  0  0  0  0
  3  2  1  0  0  0  0
  4  6  2  0  0  0  0
  5  4  1  0  0  0  0
  6  8  1  0  0  0  0
  7  6  1  0  0  0  0
  8  9  1  0  0  0  0
 10 11  1  0  0  0  0
 10  8  2  0  0  0  0
 12 10  1  0  0  0  0
 13 12  2  0  0  0  0
 14 13  1  0  0  0  0
M  END
