1,2
 OpenBabel05122313053D

 43 45  0  0  1  0  0  0  0  0999 V2000
    0.4178    1.2504    0.4366 N   0  0  0  0  0  2  0  0  0  0  0  0
   -2.5570    0.6167   -0.2520 N   0  0  0  0  0  2  0  0  0  0  0  0
   -2.5471    1.9725   -0.1440 N   0  0  0  0  0  0  0  0  0  0  0  0
    3.8688   -0.1113    0.0589 N   0  0  0  0  0  0  0  0  0  0  0  0
    4.7356    0.3946    0.9719 N   0  0  0  0  0  0  0  0  0  0  0  0
   -3.5609    0.3095   -1.1100 C   0  0  1  0  0  3  0  0  0  0  0  0
   -3.9437   -1.0853   -1.4725 C   0  0  0  0  0  0  0  0  0  0  0  0
   -4.1706    1.5056   -1.5570 C   0  0  0  0  0  0  0  0  0  0  0  0
   -3.5035    2.5562   -0.9288 C   0  0  0  0  0  0  0  0  0  0  0  0
   -3.7078    4.0325   -1.0138 C   0  0  0  0  0  0  0  0  0  0  0  0
   -1.6170    2.6184    0.7593 C   0  0  0  0  0  0  0  0  0  0  0  0
   -0.1689    2.4771    0.3503 C   0  0  1  0  0  3  0  0  0  0  0  0
    0.5219    3.6207   -0.0708 C   0  0  0  0  0  0  0  0  0  0  0  0
    1.8787    3.5217   -0.3925 C   0  0  0  0  0  0  0  0  0  0  0  0
    2.4992    2.2820   -0.2484 C   0  0  0  0  0  0  0  0  0  0  0  0
    1.7532    1.1647    0.1717 C   0  0  0  0  0  0  0  0  0  0  0  0
    2.4637   -0.1562    0.3819 C   0  0  0  0  0  0  0  0  0  0  0  0
    4.4640   -0.3957   -1.1494 C   0  0  0  0  0  0  0  0  0  0  0  0
    3.7205   -0.9555   -2.3164 C   0  0  0  0  0  0  0  0  0  0  0  0
    5.8083   -0.0620   -0.9846 C   0  0  0  0  0  0  0  0  0  0  0  0
    5.9258    0.4201    0.3517 C   0  0  0  0  0  0  0  0  0  0  0  0
    7.1503    0.8939    1.0719 C   0  0  0  0  0  0  0  0  0  0  0  0
   -4.6682   -1.0697   -2.3075 H   0  0  0  0  0  0  0  0  0  0  0  0
   -4.4142   -1.6106   -0.6178 H   0  0  0  0  0  0  0  0  0  0  0  0
   -3.0544   -1.6721   -1.7788 H   0  0  0  0  0  0  0  0  0  0  0  0
   -5.0058    1.5893   -2.2594 H   0  0  0  0  0  0  0  0  0  0  0  0
   -4.5185    4.2518   -1.7321 H   0  0  0  0  0  0  0  0  0  0  0  0
   -2.7971    4.5604   -1.3662 H   0  0  0  0  0  0  0  0  0  0  0  0
   -3.9995    4.4748   -0.0378 H   0  0  0  0  0  0  0  0  0  0  0  0
   -1.7623    2.2046    1.7782 H   0  0  0  0  0  0  0  0  0  0  0  0
   -1.8821    3.6889    0.7910 H   0  0  0  0  0  0  0  0  0  0  0  0
   -0.0097    4.5811   -0.1311 H   0  0  0  0  0  0  0  0  0  0  0  0
    2.4476    4.4010   -0.7287 H   0  0  0  0  0  0  0  0  0  0  0  0
    3.5727    2.1596   -0.4385 H   0  0  0  0  0  0  0  0  0  0  0  0
    2.3772   -0.4433    1.4475 H   0  0  0  0  0  0  0  0  0  0  0  0
    1.9586   -0.9394   -0.2220 H   0  0  0  0  0  0  0  0  0  0  0  0
    4.4028   -1.0670   -3.1790 H   0  0  0  0  0  0  0  0  0  0  0  0
    2.8712   -0.3108   -2.6250 H   0  0  0  0  0  0  0  0  0  0  0  0
    3.2837   -1.9510   -2.0920 H   0  0  0  0  0  0  0  0  0  0  0  0
    6.6007   -0.1750   -1.7327 H   0  0  0  0  0  0  0  0  0  0  0  0
    7.6569    1.7133    0.5217 H   0  0  0  0  0  0  0  0  0  0  0  0
    7.8915    0.0768    1.1943 H   0  0  0  0  0  0  0  0  0  0  0  0
    6.8737    1.2621    2.0777 H   0  0  0  0  0  0  0  0  0  0  0  0
  2  3  1  0  0  0  0
  3 11  1  0  0  0  0
  4 17  1  0  0  0  0
  4  5  1  0  0  0  0
  6  7  1  1  0  0  0
  6  2  1  0  0  0  0
  7 24  1  0  0  0  0
  8  6  1  0  0  0  0
  8  9  2  0  0  0  0
  9  3  1  0  0  0  0
 10  9  1  0  0  0  0
 10 29  1  0  0  0  0
 11 31  1  0  0  0  0
 11 30  1  0  0  0  0
 12  1  1  0  0  0  0
 12 11  1  1  0  0  0
 13 12  1  0  0  0  0
 14 15  1  0  0  0  0
 14 13  2  0  0  0  0
 15 16  2  0  0  0  0
 16 17  1  0  0  0  0
 16  1  1  0  0  0  0
 17 35  1  0  0  0  0
 18 20  2  0  0  0  0
 18  4  1  0  0  0  0
 19 39  1  0  0  0  0
 19 18  1  0  0  0  0
 20 21  1  0  0  0  0
 21  5  2  0  0  0  0
 21 22  1  0  0  0  0
 22 42  1  0  0  0  0
 22 43  1  0  0  0  0
 23  7  1  0  0  0  0
 25  7  1  0  0  0  0
 26  8  1  0  0  0  0
 27 10  1  0  0  0  0
 28 10  1  0  0  0  0
 32 13  1  0  0  0  0
 33 14  1  0  0  0  0
 34 15  1  0  0  0  0
 36 17  1  0  0  0  0
 37 19  1  0  0  0  0
 38 19  1  0  0  0  0
 40 20  1  0  0  0  0
 41 22  1  0  0  0  0
M  END
