1
 OpenBabel05122313053D

 40 43  0  0  1  0  0  0  0  0999 V2000
   -1.2346    1.0207   -1.5568 N   0  0  0  0  0  2  0  0  0  0  0  0
   -2.4101    1.5821   -1.9085 C   0  0  0  0  0  3  0  0  0  0  0  0
   -3.3043    1.0893   -1.4913 H   0  0  0  0  0  0  0  0  0  0  0  0
   -2.4641    2.6852   -2.7679 C   0  0  0  0  0  0  0  0  0  0  0  0
   -3.4401    3.1157   -3.0328 H   0  0  0  0  0  0  0  0  0  0  0  0
   -1.2697    3.2183   -3.2720 C   0  0  0  0  0  0  0  0  0  0  0  0
   -1.2825    4.0869   -3.9469 H   0  0  0  0  0  0  0  0  0  0  0  0
   -0.0521    2.6296   -2.8975 C   0  0  0  0  0  0  0  0  0  0  0  0
    0.9070    3.0191   -3.2683 H   0  0  0  0  0  0  0  0  0  0  0  0
   -0.0649    1.5247   -2.0387 C   0  0  0  0  0  0  0  0  0  0  0  0
    1.1725    0.7922   -1.5828 C   0  0  0  0  0  0  0  0  0  0  0  0
    1.3388   -0.1065   -2.2165 H   0  0  0  0  0  0  0  0  0  0  0  0
    2.0785    1.4292   -1.6642 H   0  0  0  0  0  0  0  0  0  0  0  0
    0.9288    0.3287   -0.2045 N   0  0  0  0  0  0  0  0  0  0  0  0
    1.4238    1.2367    0.8871 C   0  0  2  0  0  0  0  0  0  0  0  0
    1.9750    2.0970    0.4670 H   0  0  0  0  0  0  0  0  0  0  0  0
    2.0620   -0.0966    0.6557 C   0  0  2  0  0  0  0  0  0  0  0  0
    1.7232   -0.9267    1.3059 H   0  0  0  0  0  0  0  0  0  0  0  0
    3.4097   -0.2954    0.0461 C   0  0  0  0  0  0  0  0  0  0  0  0
    3.6868   -1.5521   -0.5351 C   0  0  0  0  0  0  0  0  0  0  0  0
    2.9171   -2.3397   -0.4940 H   0  0  0  0  0  0  0  0  0  0  0  0
    4.9235   -1.7896   -1.1498 C   0  0  0  0  0  0  0  0  0  0  0  0
    5.1295   -2.7717   -1.6016 H   0  0  0  0  0  0  0  0  0  0  0  0
    5.9000   -0.7797   -1.1834 C   0  0  0  0  0  0  0  0  0  0  0  0
    6.8725   -0.9682   -1.6627 H   0  0  0  0  0  0  0  0  0  0  0  0
    5.6360    0.4672   -0.5960 C   0  0  0  0  0  0  0  0  0  0  0  0
    6.4033    1.2562   -0.6073 H   0  0  0  0  0  0  0  0  0  0  0  0
    4.3956    0.7096    0.0153 C   0  0  0  0  0  0  0  0  0  0  0  0
    4.2009    1.6836    0.4899 H   0  0  0  0  0  0  0  0  0  0  0  0
    0.5454    1.6171    2.0277 C   0  0  0  0  0  0  0  0  0  0  0  0
   -0.1464    0.6685    2.8084 C   0  0  0  0  0  0  0  0  0  0  0  0
   -0.0556   -0.4072    2.5907 H   0  0  0  0  0  0  0  0  0  0  0  0
   -0.9848    1.0936    3.8483 C   0  0  0  0  0  0  0  0  0  0  0  0
   -1.5286    0.3429    4.4409 H   0  0  0  0  0  0  0  0  0  0  0  0
   -1.1350    2.4610    4.1302 C   0  0  0  0  0  0  0  0  0  0  0  0
   -1.7940    2.7875    4.9490 H   0  0  0  0  0  0  0  0  0  0  0  0
   -0.4422    3.4103    3.3630 C   0  0  0  0  0  0  0  0  0  0  0  0
   -0.5528    4.4842    3.5770 H   0  0  0  0  0  0  0  0  0  0  0  0
    0.3903    2.9885    2.3168 C   0  0  0  0  0  0  0  0  0  0  0  0
    0.9289    3.7346    1.7103 H   0  0  0  0  0  0  0  0  0  0  0  0
  2  1  1  0  0  0  0
  2  3  1  0  0  0  0
  4  2  1  0  0  0  0
  5  4  1  0  0  0  0
  6  8  1  0  0  0  0
  6  4  2  0  0  0  0
  7  6  1  0  0  0  0
  8 10  2  0  0  0  0
  9  8  1  0  0  0  0
 10 11  1  0  0  0  0
 10  1  1  0  0  0  0
 11 14  1  0  0  0  0
 12 11  1  0  0  0  0
 13 11  1  0  0  0  0
 14 17  1  0  0  0  0
 14 15  1  0  0  0  0
 15 16  1  6  0  0  0
 15 30  1  0  0  0  0
 17 15  1  0  0  0  0
 17 18  1  1  0  0  0
 19 17  1  0  0  0  0
 20 21  1  0  0  0  0
 20 19  2  0  0  0  0
 22 20  1  0  0  0  0
 23 22  1  0  0  0  0
 24 22  2  0  0  0  0
 24 26  1  0  0  0  0
 25 24  1  0  0  0  0
 26 28  2  0  0  0  0
 27 26  1  0  0  0  0
 28 19  1  0  0  0  0
 28 29  1  0  0  0  0
 30 39  2  0  0  0  0
 30 31  1  0  0  0  0
 31 33  2  0  0  0  0
 32 31  1  0  0  0  0
 33 35  1  0  0  0  0
 33 34  1  0  0  0  0
 35 36  1  0  0  0  0
 37 38  1  0  0  0  0
 37 35  2  0  0  0  0
 39 37  1  0  0  0  0
 40 39  1  0  0  0  0
M  END
