1,2
 OpenBabel05122313053D

 45 47  0  0  1  0  0  0  0  0999 V2000
   -0.7499   -1.9233    0.1665 N   0  0  0  0  0  2  0  0  0  0  0  0
   -0.3073    0.5601   -0.6483 N   0  0  0  0  0  0  0  0  0  0  0  0
   -0.5581    1.2063   -1.4153 H   0  0  0  0  0  0  0  0  0  0  0  0
   -1.0186   -2.9912    0.9479 O   0  0  0  0  0  0  0  0  0  0  0  0
   -2.0200   -2.8666    1.1019 H   0  0  0  0  0  0  0  0  0  0  0  0
    0.5477    3.0127   -1.2427 O   0  0  0  0  0  0  0  0  0  0  0  0
    2.8935   -0.3212   -0.0420 C   0  0  1  0  0  0  0  0  0  0  0  0
    2.0868   -0.0984   -1.3113 C   0  0  0  0  0  0  0  0  0  0  0  0
    0.5972   -0.5340   -1.2179 C   0  0  1  0  0  0  0  0  0  0  0  0
    0.4467   -1.7563   -0.3196 C   0  0  1  0  0  3  0  0  0  0  0  0
    1.6465   -2.5884    0.0170 C   0  0  0  0  0  0  0  0  0  0  0  0
    2.6755   -1.6573    0.6611 C   0  0  1  0  0  0  0  0  0  0  0  0
    4.0280   -1.3367    0.0433 C   0  0  0  0  0  0  0  0  0  0  0  0
    4.5212   -2.0747   -1.1853 C   0  0  0  0  0  0  0  0  0  0  0  0
    5.1407   -1.0032    1.0237 C   0  0  0  0  0  0  0  0  0  0  0  0
    0.0527   -0.8481   -2.6232 C   0  0  0  0  0  0  0  0  0  0  0  0
    0.2501    1.3699    0.4107 C   0  0  0  0  0  0  0  0  0  0  0  0
    0.3572    0.9165    1.7315 C   0  0  0  0  0  0  0  0  0  0  0  0
    0.9214    1.7403    2.7163 C   0  0  0  0  0  0  0  0  0  0  0  0
    1.3539    3.0316    2.3809 C   0  0  0  0  0  0  0  0  0  0  0  0
    1.2316    3.5086    1.0660 C   0  0  0  0  0  0  0  0  0  0  0  0
    0.6876    2.6748    0.0728 C   0  0  0  0  0  0  0  0  0  0  0  0
    0.7598    4.3637   -1.6253 C   0  0  0  0  0  0  0  0  0  0  0  0
    2.6209   -1.6253    1.7616 H   0  0  0  0  0  0  0  0  0  0  0  0
    2.0504   -3.0598   -0.9045 H   0  0  0  0  0  0  0  0  0  0  0  0
    1.3516   -3.4073    0.6971 H   0  0  0  0  0  0  0  0  0  0  0  0
    2.1147    0.9640   -1.6238 H   0  0  0  0  0  0  0  0  0  0  0  0
    2.5319   -0.6661   -2.1525 H   0  0  0  0  0  0  0  0  0  0  0  0
    2.9941    0.5595    0.6113 H   0  0  0  0  0  0  0  0  0  0  0  0
    3.7183   -2.3440   -1.8984 H   0  0  0  0  0  0  0  0  0  0  0  0
    5.0281   -3.0179   -0.8933 H   0  0  0  0  0  0  0  0  0  0  0  0
    5.2583   -1.4572   -1.7400 H   0  0  0  0  0  0  0  0  0  0  0  0
    4.7529   -0.4611    1.9093 H   0  0  0  0  0  0  0  0  0  0  0  0
    5.6444   -1.9248    1.3833 H   0  0  0  0  0  0  0  0  0  0  0  0
    5.9101   -0.3613    0.5454 H   0  0  0  0  0  0  0  0  0  0  0  0
    0.2202    0.0146   -3.3009 H   0  0  0  0  0  0  0  0  0  0  0  0
   -1.0329   -1.0678   -2.5798 H   0  0  0  0  0  0  0  0  0  0  0  0
    0.5744   -1.7273   -3.0476 H   0  0  0  0  0  0  0  0  0  0  0  0
   -0.0252   -0.0811    1.9866 H   0  0  0  0  0  0  0  0  0  0  0  0
    0.9986    1.3786    3.7514 H   0  0  0  0  0  0  0  0  0  0  0  0
    1.7810    3.6893    3.1525 H   0  0  0  0  0  0  0  0  0  0  0  0
    1.5633    4.5258    0.8193 H   0  0  0  0  0  0  0  0  0  0  0  0
    1.8203    4.6671   -1.4835 H   0  0  0  0  0  0  0  0  0  0  0  0
    0.1019    5.0523   -1.0528 H   0  0  0  0  0  0  0  0  0  0  0  0
    0.5060    4.4260   -2.6990 H   0  0  0  0  0  0  0  0  0  0  0  0
  1  4  1  0  0  0  0
  2 17  1  0  0  0  0
  3  2  1  0  0  0  0
  4  5  1  0  0  0  0
  6 22  1  0  0  0  0
  7 13  1  0  0  0  0
  7 29  1  1  0  0  0
  7 12  1  0  0  0  0
  8  9  1  0  0  0  0
  8  7  1  0  0  0  0
  9 16  1  6  0  0  0
  9  2  1  0  0  0  0
  9 10  1  0  0  0  0
 10 11  1  0  0  0  0
 10  1  1  1  0  0  0
 11 12  1  0  0  0  0
 11 26  1  0  0  0  0
 12 24  1  1  0  0  0
 13 12  1  0  0  0  0
 13 15  1  0  0  0  0
 14 31  1  0  0  0  0
 14 13  1  0  0  0  0
 15 34  1  0  0  0  0
 15 33  1  0  0  0  0
 16 37  1  0  0  0  0
 17 18  1  0  0  0  0
 18 39  1  0  0  0  0
 18 19  2  0  0  0  0
 19 40  1  0  0  0  0
 20 19  1  0  0  0  0
 20 41  1  0  0  0  0
 21 20  2  0  0  0  0
 22 17  2  0  0  0  0
 22 21  1  0  0  0  0
 23 43  1  0  0  0  0
 23  6  1  0  0  0  0
 23 44  1  0  0  0  0
 25 11  1  0  0  0  0
 27  8  1  0  0  0  0
 28  8  1  0  0  0  0
 30 14  1  0  0  0  0
 32 14  1  0  0  0  0
 35 15  1  0  0  0  0
 36 16  1  0  0  0  0
 38 16  1  0  0  0  0
 42 21  1  0  0  0  0
 45 23  1  0  0  0  0
M  END
