1,19
 OpenBabel05122313053D

 35 39  0  0  1  0  0  0  0  0999 V2000
    0.4699   -0.7418   -1.5041 N   0  0  0  0  0  2  0  0  0  0  0  0
   -0.6643   -1.2048   -2.1045 C   0  0  2  0  0  3  0  0  0  0  0  0
    1.6698   -1.0970   -2.0910 C   0  0  0  0  0  0  0  0  0  0  0  0
   -0.6320   -2.1164   -3.1730 C   0  0  0  0  0  0  0  0  0  0  0  0
   -1.5840   -2.4762   -3.5871 H   0  0  0  0  0  0  0  0  0  0  0  0
    1.7661   -1.9567   -3.1984 C   0  0  0  0  0  0  0  0  0  0  0  0
    2.7592   -2.1919   -3.6058 H   0  0  0  0  0  0  0  0  0  0  0  0
    0.5968   -2.5052   -3.7286 C   0  0  0  0  0  0  0  0  0  0  0  0
    0.6344   -3.2029   -4.5769 H   0  0  0  0  0  0  0  0  0  0  0  0
    3.8842    0.5991    0.0993 C   0  0  0  0  0  0  0  0  0  0  0  0
    4.7914    0.1324   -0.8843 C   0  0  0  0  0  0  0  0  0  0  0  0
    2.7944   -0.5191   -1.4114 C   0  0  1  0  0  3  0  0  0  0  0  0
   -3.6804    0.5653   -1.3470 C   0  0  0  0  0  0  0  0  0  0  0  0
   -4.0367   -0.7712   -1.0446 C   0  0  0  0  0  0  0  0  0  0  0  0
   -1.9632   -0.6547   -1.6800 C   0  0  0  0  0  0  0  0  0  0  0  0
   -2.9302   -1.5552   -1.2793 O   0  0  0  0  0  0  0  0  0  0  0  0
   -2.3465    0.5911   -1.7474 N   0  0  0  0  0  0  0  0  0  0  0  0
    4.0806   -0.5794   -1.8341 O   0  0  0  0  0  0  0  0  0  0  0  0
    2.6121    0.1520   -0.2767 N   0  0  0  0  0  2  0  0  0  0  0  0
    6.6061    1.1461    0.2417 C   0  0  0  0  0  0  0  0  0  0  0  0
    7.6778    1.3792    0.3257 H   0  0  0  0  0  0  0  0  0  0  0  0
    6.1614    0.3838   -0.8506 C   0  0  0  0  0  0  0  0  0  0  0  0
    6.8420    0.0111   -1.6276 H   0  0  0  0  0  0  0  0  0  0  0  0
    4.3410    1.3619    1.1885 C   0  0  0  0  0  0  0  0  0  0  0  0
    3.6325    1.7065    1.9541 H   0  0  0  0  0  0  0  0  0  0  0  0
    5.7161    1.6225    1.2353 C   0  0  0  0  0  0  0  0  0  0  0  0
    6.1197    2.2143    2.0698 H   0  0  0  0  0  0  0  0  0  0  0  0
   -4.6243    1.5965   -1.1918 C   0  0  0  0  0  0  0  0  0  0  0  0
   -4.3665    2.6360   -1.4388 H   0  0  0  0  0  0  0  0  0  0  0  0
   -5.8922    1.2358   -0.7155 C   0  0  0  0  0  0  0  0  0  0  0  0
   -6.6607    2.0116   -0.5827 H   0  0  0  0  0  0  0  0  0  0  0  0
   -6.2178   -0.1077   -0.4078 C   0  0  0  0  0  0  0  0  0  0  0  0
   -7.2283   -0.3429   -0.0423 H   0  0  0  0  0  0  0  0  0  0  0  0
   -5.2912   -1.1517   -0.5692 C   0  0  0  0  0  0  0  0  0  0  0  0
   -5.5391   -2.1971   -0.3407 H   0  0  0  0  0  0  0  0  0  0  0  0
  2 15  1  6  0  0  0
  2  1  1  0  0  0  0
  3  1  1  0  0  0  0
  4  2  1  0  0  0  0
  5  4  1  0  0  0  0
  6  3  2  0  0  0  0
  7  6  1  0  0  0  0
  8  6  1  0  0  0  0
  8  4  2  0  0  0  0
  9  8  1  0  0  0  0
 10 24  1  0  0  0  0
 11 22  1  0  0  0  0
 11 10  2  0  0  0  0
 12  3  1  6  0  0  0
 12 19  1  0  0  0  0
 13 28  2  0  0  0  0
 13 14  1  0  0  0  0
 14 34  2  0  0  0  0
 15 16  1  0  0  0  0
 16 14  1  0  0  0  0
 17 15  2  0  0  0  0
 17 13  1  0  0  0  0
 18 12  1  0  0  0  0
 18 11  1  0  0  0  0
 19 10  1  0  0  0  0
 20 21  1  0  0  0  0
 20 26  1  0  0  0  0
 22 20  2  0  0  0  0
 23 22  1  0  0  0  0
 24 26  2  0  0  0  0
 24 25  1  0  0  0  0
 26 27  1  0  0  0  0
 28 30  1  0  0  0  0
 29 28  1  0  0  0  0
 30 31  1  0  0  0  0
 30 32  2  0  0  0  0
 32 33  1  0  0  0  0
 34 32  1  0  0  0  0
 34 35  1  0  0  0  0
M  END
