1,3
 OpenBabel05122313053D

 34 36  0  0  1  0  0  0  0  0999 V2000
   -0.3329   -0.4450   -0.0517 N   0  0  0  0  0  2  0  0  0  0  0  0
   -2.3703    0.4706    0.1594 N   0  0  0  0  0  0  0  0  0  0  0  0
    1.6821    1.5180    0.4666 N   0  0  0  0  0  2  0  0  0  0  0  0
    0.6412    2.3557    0.2524 N   0  0  0  0  0  0  0  0  0  0  0  0
   -1.0556    0.6646   -0.1967 C   0  0  1  0  0  3  0  0  0  0  0  0
   -1.1948   -1.4351    0.4124 C   0  0  0  0  0  0  0  0  0  0  0  0
   -0.9624   -2.7805    0.7522 C   0  0  0  0  0  0  0  0  0  0  0  0
    0.0458   -3.2006    0.6280 H   0  0  0  0  0  0  0  0  0  0  0  0
   -2.0609   -3.5229    1.1950 C   0  0  0  0  0  0  0  0  0  0  0  0
   -1.9195   -4.5801    1.4642 H   0  0  0  0  0  0  0  0  0  0  0  0
   -3.3551   -2.9542    1.3016 C   0  0  0  0  0  0  0  0  0  0  0  0
   -4.1903   -3.5795    1.6509 H   0  0  0  0  0  0  0  0  0  0  0  0
   -3.5987   -1.6158    0.9726 C   0  0  0  0  0  0  0  0  0  0  0  0
   -4.6046   -1.1799    1.0559 H   0  0  0  0  0  0  0  0  0  0  0  0
   -2.4940   -0.8666    0.5340 C   0  0  0  0  0  0  0  0  0  0  0  0
   -3.4715    1.4158    0.0437 C   0  0  0  0  0  0  0  0  0  0  0  0
   -3.0867    2.4353    0.2550 H   0  0  0  0  0  0  0  0  0  0  0  0
   -4.1890    1.1876    0.8586 H   0  0  0  0  0  0  0  0  0  0  0  0
   -4.1725    1.3706   -1.3191 C   0  0  0  0  0  0  0  0  0  0  0  0
   -3.4280    1.5953   -2.1135 H   0  0  0  0  0  0  0  0  0  0  0  0
   -4.5139    0.3306   -1.5066 H   0  0  0  0  0  0  0  0  0  0  0  0
   -5.3480    2.3430   -1.3987 C   0  0  0  0  0  0  0  0  0  0  0  0
   -6.1182    2.1125   -0.6337 H   0  0  0  0  0  0  0  0  0  0  0  0
   -5.8391    2.2959   -2.3899 H   0  0  0  0  0  0  0  0  0  0  0  0
   -5.0229    3.3920   -1.2374 H   0  0  0  0  0  0  0  0  0  0  0  0
   -0.4354    1.9525   -0.6441 C   0  0  0  0  0  0  0  0  0  0  0  0
   -0.0107    1.8152   -1.6628 H   0  0  0  0  0  0  0  0  0  0  0  0
   -1.1706    2.7757   -0.6800 H   0  0  0  0  0  0  0  0  0  0  0  0
    2.5502    2.1694    1.2588 C   0  0  0  0  0  3  0  0  0  0  0  0
    3.4860    1.6648    1.5259 H   0  0  0  0  0  0  0  0  0  0  0  0
    2.0517    3.4568    1.5614 C   0  0  0  0  0  0  0  0  0  0  0  0
    2.5233    4.2258    2.1808 H   0  0  0  0  0  0  0  0  0  0  0  0
    0.8286    3.5434    0.9001 C   0  0  0  0  0  0  0  0  0  0  0  0
    0.0905    4.3497    0.8291 H   0  0  0  0  0  0  0  0  0  0  0  0
  1  6  1  0  0  0  0
  2 15  1  0  0  0  0
  3 29  1  0  0  0  0
  4  3  1  0  0  0  0
  4 33  1  0  0  0  0
  5 26  1  1  0  0  0
  5  1  1  0  0  0  0
  5  2  1  0  0  0  0
  6 15  2  0  0  0  0
  6  7  1  0  0  0  0
  7  9  2  0  0  0  0
  8  7  1  0  0  0  0
  9 11  1  0  0  0  0
  9 10  1  0  0  0  0
 11 12  1  0  0  0  0
 13 14  1  0  0  0  0
 13 11  2  0  0  0  0
 15 13  1  0  0  0  0
 16  2  1  0  0  0  0
 16 17  1  0  0  0  0
 16 18  1  0  0  0  0
 19 16  1  0  0  0  0
 20 19  1  0  0  0  0
 21 19  1  0  0  0  0
 22 19  1  0  0  0  0
 22 25  1  0  0  0  0
 22 23  1  0  0  0  0
 24 22  1  0  0  0  0
 26  4  1  0  0  0  0
 27 26  1  0  0  0  0
 28 26  1  0  0  0  0
 29 30  1  0  0  0  0
 29 31  1  0  0  0  0
 31 32  1  0  0  0  0
 33 31  2  0  0  0  0
 34 33  1  0  0  0  0
M  END
