1,4
 OpenBabel05122313053D

 44 45  0  0  0  0  0  0  0  0999 V2000
   -1.2060   -1.2536    0.0662 N   0  0  0  0  0  2  0  0  0  0  0  0
   -0.6564   -2.4509    0.0320 N   0  0  0  0  0  0  0  0  0  0  0  0
    0.6560   -2.4510   -0.0311 N   0  0  0  0  0  0  0  0  0  0  0  0
    1.2058   -1.2538   -0.0659 N   0  0  0  0  0  2  0  0  0  0  0  0
   -2.6444   -1.3659    0.0706 C   0  0  0  0  0  0  0  0  0  0  0  0
   -3.3029   -1.6795   -1.1447 C   0  0  0  0  0  0  0  0  0  0  0  0
   -2.5265   -1.9791   -2.3986 C   0  0  0  0  0  0  0  0  0  0  0  0
   -4.7074   -1.7172   -1.1400 C   0  0  0  0  0  0  0  0  0  0  0  0
   -5.4618   -1.4875    0.0260 C   0  0  0  0  0  0  0  0  0  0  0  0
   -6.9692   -1.4876   -0.0172 C   0  0  0  0  0  0  0  0  0  0  0  0
   -4.7650   -1.2671    1.2269 C   0  0  0  0  0  0  0  0  0  0  0  0
   -3.3581   -1.2229    1.2824 C   0  0  0  0  0  0  0  0  0  0  0  0
   -2.6471   -1.1102    2.6016 C   0  0  0  0  0  0  0  0  0  0  0  0
    2.6442   -1.3662   -0.0703 C   0  0  0  0  0  0  0  0  0  0  0  0
    3.3578   -1.2235   -1.2824 C   0  0  0  0  0  0  0  0  0  0  0  0
    2.6466   -1.1113   -2.6015 C   0  0  0  0  0  0  0  0  0  0  0  0
    4.7646   -1.2680   -1.2270 C   0  0  0  0  0  0  0  0  0  0  0  0
    5.4617   -1.4882   -0.0262 C   0  0  0  0  0  0  0  0  0  0  0  0
    6.9691   -1.4863    0.0165 C   0  0  0  0  0  0  0  0  0  0  0  0
    4.7073   -1.7178    1.1399 C   0  0  0  0  0  0  0  0  0  0  0  0
    3.3027   -1.6799    1.1448 C   0  0  0  0  0  0  0  0  0  0  0  0
    2.5266   -1.9795    2.3989 C   0  0  0  0  0  0  0  0  0  0  0  0
   -1.9364   -2.9104   -2.2732 H   0  0  0  0  0  0  0  0  0  0  0  0
   -1.7981   -1.1747   -2.6294 H   0  0  0  0  0  0  0  0  0  0  0  0
   -3.2060   -2.1102   -3.2620 H   0  0  0  0  0  0  0  0  0  0  0  0
   -5.2275   -1.9361   -2.0867 H   0  0  0  0  0  0  0  0  0  0  0  0
   -7.3566   -0.5497   -0.4700 H   0  0  0  0  0  0  0  0  0  0  0  0
   -7.4078   -1.5722    0.9961 H   0  0  0  0  0  0  0  0  0  0  0  0
   -7.3579   -2.3242   -0.6324 H   0  0  0  0  0  0  0  0  0  0  0  0
   -5.3295   -1.1433    2.1653 H   0  0  0  0  0  0  0  0  0  0  0  0
   -3.3631   -0.9255    3.4251 H   0  0  0  0  0  0  0  0  0  0  0  0
   -1.8708   -0.3191    2.6069 H   0  0  0  0  0  0  0  0  0  0  0  0
   -2.1055   -2.0539    2.8248 H   0  0  0  0  0  0  0  0  0  0  0  0
    1.8703   -0.3201   -2.6069 H   0  0  0  0  0  0  0  0  0  0  0  0
    2.1048   -2.0550   -2.8243 H   0  0  0  0  0  0  0  0  0  0  0  0
    3.3624   -0.9269   -3.4251 H   0  0  0  0  0  0  0  0  0  0  0  0
    5.3290   -1.1448   -2.1656 H   0  0  0  0  0  0  0  0  0  0  0  0
    7.3559   -0.5348    0.4407 H   0  0  0  0  0  0  0  0  0  0  0  0
    7.4073   -1.6000   -0.9941 H   0  0  0  0  0  0  0  0  0  0  0  0
    7.3587   -2.3039    0.6561 H   0  0  0  0  0  0  0  0  0  0  0  0
    5.2276   -1.9369    2.0865 H   0  0  0  0  0  0  0  0  0  0  0  0
    1.9371   -2.9112    2.2739 H   0  0  0  0  0  0  0  0  0  0  0  0
    1.7978   -1.1755    2.6294 H   0  0  0  0  0  0  0  0  0  0  0  0
    3.2063   -2.1098    3.2622 H   0  0  0  0  0  0  0  0  0  0  0  0
  1  5  1  0  0  0  0
  2  1  1  0  0  0  0
  3  2  2  0  0  0  0
  4  3  1  0  0  0  0
  5 12  1  0  0  0  0
  6  8  1  0  0  0  0
  6  5  2  0  0  0  0
  7 23  1  0  0  0  0
  7  6  1  0  0  0  0
  8  9  2  0  0  0  0
  9 11  1  0  0  0  0
 10  9  1  0  0  0  0
 10 28  1  0  0  0  0
 11 12  2  0  0  0  0
 11 30  1  0  0  0  0
 12 13  1  0  0  0  0
 13 32  1  0  0  0  0
 13 33  1  0  0  0  0
 13 31  1  0  0  0  0
 14  4  1  0  0  0  0
 14 21  1  0  0  0  0
 15 17  1  0  0  0  0
 15 14  2  0  0  0  0
 16 15  1  0  0  0  0
 17 18  2  0  0  0  0
 18 19  1  0  0  0  0
 18 20  1  0  0  0  0
 19 38  1  0  0  0  0
 19 40  1  0  0  0  0
 20 21  2  0  0  0  0
 20 41  1  0  0  0  0
 21 22  1  0  0  0  0
 22 43  1  0  0  0  0
 22 44  1  0  0  0  0
 24  7  1  0  0  0  0
 25  7  1  0  0  0  0
 26  8  1  0  0  0  0
 27 10  1  0  0  0  0
 29 10  1  0  0  0  0
 34 16  1  0  0  0  0
 35 16  1  0  0  0  0
 36 16  1  0  0  0  0
 37 17  1  0  0  0  0
 39 19  1  0  0  0  0
 42 22  1  0  0  0  0
M  END
