1,3
 OpenBabel05122313053D

 40 42  0  0  1  0  0  0  0  0999 V2000
    0.4418   -0.6552   -0.0082 N   0  0  0  0  0  2  0  0  0  0  0  0
    2.4352    0.3624    0.1044 N   0  0  0  0  0  0  0  0  0  0  0  0
   -1.6263    1.2347    0.3267 N   0  0  0  0  0  2  0  0  0  0  0  0
   -0.6406    2.1054   -0.0251 N   0  0  0  0  0  0  0  0  0  0  0  0
    1.1198    0.4565   -0.2868 C   0  0  2  0  0  3  0  0  0  0  0  0
    1.3337   -1.5475    0.5736 C   0  0  0  0  0  0  0  0  0  0  0  0
    1.1493   -2.8571    1.0520 C   0  0  0  0  0  0  0  0  0  0  0  0
    0.1639   -3.3335    0.9531 H   0  0  0  0  0  0  0  0  0  0  0  0
    2.2688   -3.4992    1.5891 C   0  0  0  0  0  0  0  0  0  0  0  0
    2.1681   -4.5270    1.9679 H   0  0  0  0  0  0  0  0  0  0  0  0
    3.5359   -2.8659    1.6506 C   0  0  0  0  0  0  0  0  0  0  0  0
    4.3895   -3.4128    2.0781 H   0  0  0  0  0  0  0  0  0  0  0  0
    3.7322   -1.5634    1.1759 C   0  0  0  0  0  0  0  0  0  0  0  0
    4.7193   -1.0813    1.2205 H   0  0  0  0  0  0  0  0  0  0  0  0
    2.6069   -0.9144    0.6410 C   0  0  0  0  0  0  0  0  0  0  0  0
    3.4949    1.3356   -0.1153 C   0  0  0  0  0  0  0  0  0  0  0  0
    4.2151    1.2353    0.7228 H   0  0  0  0  0  0  0  0  0  0  0  0
    3.0624    2.3543   -0.0253 H   0  0  0  0  0  0  0  0  0  0  0  0
    4.2083    1.1665   -1.4616 C   0  0  0  0  0  0  0  0  0  0  0  0
    3.4601    1.2614   -2.2782 H   0  0  0  0  0  0  0  0  0  0  0  0
    4.6001    0.1293   -1.5263 H   0  0  0  0  0  0  0  0  0  0  0  0
    5.3365    2.1788   -1.6509 C   0  0  0  0  0  0  0  0  0  0  0  0
    4.9601    3.2224   -1.6136 H   0  0  0  0  0  0  0  0  0  0  0  0
    5.8373    2.0410   -2.6287 H   0  0  0  0  0  0  0  0  0  0  0  0
    6.1108    2.0765   -0.8625 H   0  0  0  0  0  0  0  0  0  0  0  0
    0.4327    1.6439   -0.8940 C   0  0  0  0  0  0  0  0  0  0  0  0
    1.1262    2.4853   -1.0655 H   0  0  0  0  0  0  0  0  0  0  0  0
   -0.0049    1.3414   -1.8702 H   0  0  0  0  0  0  0  0  0  0  0  0
   -0.7649    3.2996    0.6360 C   0  0  2  0  0  3  0  0  0  0  0  0
   -1.8994    3.1737    1.4369 C   0  0  0  0  0  0  0  0  0  0  0  0
   -2.3170    3.9389    2.0990 H   0  0  0  0  0  0  0  0  0  0  0  0
   -2.4080    1.8655    1.2275 C   0  0  0  0  0  0  0  0  0  0  0  0
    0.1793    4.4403    0.4458 C   0  0  0  0  0  0  0  0  0  0  0  0
    1.2176    4.1835    0.7481 H   0  0  0  0  0  0  0  0  0  0  0  0
   -0.1420    5.2942    1.0695 H   0  0  0  0  0  0  0  0  0  0  0  0
    0.2105    4.7900   -0.6076 H   0  0  0  0  0  0  0  0  0  0  0  0
   -3.5706    1.1977    1.8802 C   0  0  0  0  0  0  0  0  0  0  0  0
   -3.2228    0.4771    2.6498 H   0  0  0  0  0  0  0  0  0  0  0  0
   -4.1419    0.6187    1.1262 H   0  0  0  0  0  0  0  0  0  0  0  0
   -4.2211    1.9450    2.3711 H   0  0  0  0  0  0  0  0  0  0  0  0
  1  6  1  0  0  0  0
  2 15  1  0  0  0  0
  3 32  1  0  0  0  0
  4  3  1  0  0  0  0
  4 29  1  0  0  0  0
  5 26  1  1  0  0  0
  5  1  1  0  0  0  0
  5  2  1  0  0  0  0
  6 15  2  0  0  0  0
  6  7  1  0  0  0  0
  7  9  2  0  0  0  0
  8  7  1  0  0  0  0
  9 11  1  0  0  0  0
  9 10  1  0  0  0  0
 11 12  1  0  0  0  0
 13 14  1  0  0  0  0
 13 11  2  0  0  0  0
 15 13  1  0  0  0  0
 16 18  1  0  0  0  0
 16  2  1  0  0  0  0
 16 17  1  0  0  0  0
 19 16  1  0  0  0  0
 20 19  1  0  0  0  0
 21 19  1  0  0  0  0
 22 23  1  0  0  0  0
 22 19  1  0  0  0  0
 22 25  1  0  0  0  0
 24 22  1  0  0  0  0
 26  4  1  0  0  0  0
 27 26  1  0  0  0  0
 28 26  1  0  0  0  0
 29 33  1  6  0  0  0
 29 30  1  0  0  0  0
 30 31  1  0  0  0  0
 32 30  2  0  0  0  0
 32 37  1  0  0  0  0
 33 34  1  0  0  0  0
 33 35  1  0  0  0  0
 36 33  1  0  0  0  0
 37 40  1  0  0  0  0
 37 38  1  0  0  0  0
 39 37  1  0  0  0  0
M  END
