3,5
 OpenBabel05122313053D

 32 35  0  0  1  0  0  0  0  0999 V2000
    4.0945   -1.6958    0.2590 O   0  0  0  0  0  0  0  0  0  0  0  0
    2.9611   -3.6125    0.5591 O   0  0  0  0  0  0  0  0  0  0  0  0
   -1.4415    1.5676    0.1310 N   0  0  0  0  0  2  0  0  0  0  0  0
    0.4632    0.2464    0.1478 N   0  0  0  0  0  0  0  0  0  0  0  0
   -0.4122   -0.8333    0.2434 N   0  0  0  0  0  2  0  0  0  0  0  0
   -2.0983    2.7396    0.2870 C   0  0  0  0  0  3  0  0  0  0  0  0
   -3.1789    2.6785    0.0659 H   0  0  0  0  0  0  0  0  0  0  0  0
   -1.4433    3.8972    0.7117 C   0  0  0  0  0  0  0  0  0  0  0  0
   -2.0106    4.8319    0.8195 H   0  0  0  0  0  0  0  0  0  0  0  0
   -0.0796    3.8247    1.0384 C   0  0  0  0  0  0  0  0  0  0  0  0
    0.4518    4.7005    1.4386 H   0  0  0  0  0  0  0  0  0  0  0  0
    0.6036    2.6138    0.8753 C   0  0  0  0  0  0  0  0  0  0  0  0
    1.6562    2.5111    1.1643 H   0  0  0  0  0  0  0  0  0  0  0  0
   -0.1053    1.5167    0.3630 C   0  0  0  0  0  0  0  0  0  0  0  0
    1.7668   -0.1972    0.0907 C   0  0  2  0  0  3  0  0  0  0  0  0
    3.0181    0.4611   -0.2118 C   0  0  0  0  0  0  0  0  0  0  0  0
    3.2071    1.7726   -0.7164 C   0  0  0  0  0  0  0  0  0  0  0  0
    2.3347    2.4049   -0.9245 H   0  0  0  0  0  0  0  0  0  0  0  0
    4.4858    2.2574   -0.9934 C   0  0  0  0  0  0  0  0  0  0  0  0
    4.6077    3.2758   -1.3893 H   0  0  0  0  0  0  0  0  0  0  0  0
    5.6135    1.4401   -0.7796 C   0  0  0  0  0  0  0  0  0  0  0  0
    6.6227    1.8259   -0.9863 H   0  0  0  0  0  0  0  0  0  0  0  0
    5.4550    0.1247   -0.3383 C   0  0  0  0  0  0  0  0  0  0  0  0
    6.3101   -0.5526   -0.2055 H   0  0  0  0  0  0  0  0  0  0  0  0
    4.1671   -0.3779   -0.0823 C   0  0  0  0  0  0  0  0  0  0  0  0
    2.8922   -2.4212    0.3651 C   0  0  0  0  0  0  0  0  0  0  0  0
    1.7022   -1.5896    0.2600 C   0  0  0  0  0  0  0  0  0  0  0  0
    0.3206   -1.9529    0.3332 C   0  0  0  0  0  0  0  0  0  0  0  0
   -0.2536   -3.3146    0.4709 C   0  0  0  0  0  0  0  0  0  0  0  0
   -0.9634   -3.3529    1.3197 H   0  0  0  0  0  0  0  0  0  0  0  0
    0.5620   -4.0456    0.6081 H   0  0  0  0  0  0  0  0  0  0  0  0
   -0.8643   -3.5628   -0.4206 H   0  0  0  0  0  0  0  0  0  0  0  0
  1 26  1  0  0  0  0
  3  6  1  0  0  0  0
  3 14  1  0  0  0  0
  4  5  1  0  0  0  0
  4 14  1  0  0  0  0
  5 28  1  0  0  0  0
  6  8  1  0  0  0  0
  7  6  1  0  0  0  0
  8  9  1  0  0  0  0
  8 10  2  0  0  0  0
 10 11  1  0  0  0  0
 12 10  1  0  0  0  0
 12 13  1  0  0  0  0
 14 12  2  0  0  0  0
 15 16  1  6  0  0  0
 15  4  1  0  0  0  0
 15 27  1  0  0  0  0
 16 25  1  0  0  0  0
 17 16  2  0  0  0  0
 18 17  1  0  0  0  0
 19 21  2  0  0  0  0
 19 17  1  0  0  0  0
 20 19  1  0  0  0  0
 21 23  1  0  0  0  0
 22 21  1  0  0  0  0
 23 24  1  0  0  0  0
 23 25  2  0  0  0  0
 25  1  1  0  0  0  0
 26  2  2  0  0  0  0
 27 28  2  0  0  0  0
 27 26  1  0  0  0  0
 28 29  1  0  0  0  0
 29 31  1  0  0  0  0
 29 30  1  0  0  0  0
 32 29  1  0  0  0  0
M  END
