1,25
 OpenBabel05122313053D

 27 27  0  0  0  0  0  0  0  0999 V2000
    1.3917    1.3005   -0.0000 N   0  0  0  0  0  2  0  0  0  0  0  0
    1.2233    2.5860   -0.0001 O   0  0  0  0  0  1  0  0  0  0  0  0
    2.5810    0.7231   -0.0000 C   0  0  0  0  0  0  0  0  0  0  0  0
    3.9699    1.2921   -0.0000 C   0  0  0  0  0  0  0  0  0  0  0  0
    4.2968    2.0993   -1.2684 C   0  0  0  0  0  0  0  0  0  0  0  0
    3.6826    3.0201   -1.2800 H   0  0  0  0  0  0  0  0  0  0  0  0
    4.0689    1.5112   -2.1785 H   0  0  0  0  0  0  0  0  0  0  0  0
    5.3712    2.3668   -1.2742 H   0  0  0  0  0  0  0  0  0  0  0  0
    4.2967    2.0998    1.2680 C   0  0  0  0  0  0  0  0  0  0  0  0
    5.3711    2.3672    1.2738 H   0  0  0  0  0  0  0  0  0  0  0  0
    4.0687    1.5120    2.1783 H   0  0  0  0  0  0  0  0  0  0  0  0
    3.6825    3.0205    1.2793 H   0  0  0  0  0  0  0  0  0  0  0  0
    4.7511    0.0014    0.0002 N   0  0  0  0  0  0  0  0  0  0  0  0
    6.0030   -0.0042    0.0005 O   0  0  0  0  0  1  0  0  0  0  0  0
    3.9640   -1.2872   -0.0000 C   0  0  0  0  0  0  0  0  0  0  0  0
    4.2899   -2.0942   -1.2691 C   0  0  0  0  0  0  0  0  0  0  0  0
    3.6935   -3.0264   -1.2766 H   0  0  0  0  0  0  0  0  0  0  0  0
    4.0483   -1.5116   -2.1792 H   0  0  0  0  0  0  0  0  0  0  0  0
    5.3688   -2.3421   -1.2795 H   0  0  0  0  0  0  0  0  0  0  0  0
    4.2899   -2.0947    1.2688 C   0  0  0  0  0  0  0  0  0  0  0  0
    5.3689   -2.3424    1.2790 H   0  0  0  0  0  0  0  0  0  0  0  0
    4.0482   -1.5124    2.1790 H   0  0  0  0  0  0  0  0  0  0  0  0
    3.6936   -3.0269    1.2758 H   0  0  0  0  0  0  0  0  0  0  0  0
    2.5755   -0.7141    0.0000 C   0  0  0  0  0  0  0  0  0  0  0  0
    1.3890   -1.2772    0.0000 N   0  0  0  0  0  2  0  0  0  0  0  0
    1.2457   -2.6041   -0.0000 O   0  0  0  0  0  0  0  0  0  0  0  0
    0.1611   -2.7308   -0.0001 H   0  0  0  0  0  0  0  0  0  0  0  0
  1  3  1  0  0  0  0
  2  1  1  0  0  0  0
  3 24  2  0  0  0  0
  4  3  1  0  0  0  0
  4 13  1  0  0  0  0
  4  9  1  0  0  0  0
  5  4  1  0  0  0  0
  6  5  1  0  0  0  0
  7  5  1  0  0  0  0
  8  5  1  0  0  0  0
  9 10  1  0  0  0  0
  9 12  1  0  0  0  0
  9 11  1  0  0  0  0
 13 14  1  0  0  0  0
 15 24  1  0  0  0  0
 15 13  1  0  0  0  0
 15 20  1  0  0  0  0
 16 15  1  0  0  0  0
 17 16  1  0  0  0  0
 18 16  1  0  0  0  0
 19 16  1  0  0  0  0
 20 23  1  0  0  0  0
 20 21  1  0  0  0  0
 20 22  1  0  0  0  0
 24 25  1  0  0  0  0
 26 25  1  0  0  0  0
 27 26  1  0  0  0  0
M  END
