3,5
 OpenBabel05122313053D

 39 42  0  0  1  0  0  0  0  0999 V2000
    0.6246   -0.1719    2.8371 N   0  0  0  0  0  0  0  0  0  0  0  0
   -2.1480   -2.7316   -0.1615 N   0  0  0  0  0  0  0  0  0  0  0  0
   -1.1661   -0.7566    0.0588 N   0  0  0  0  0  2  0  0  0  0  0  0
    3.3766   -1.1758    0.6156 N   0  0  0  0  0  0  0  0  0  0  0  0
    1.5202   -0.0298    0.2128 N   0  0  0  0  0  2  0  0  0  0  0  0
    1.5315   -1.2302    2.3965 C   0  0  1  0  0  0  0  0  0  0  0  0
    0.7563   -2.5639    2.1850 C   0  0  0  0  0  0  0  0  0  0  0  0
    0.1511   -2.8393    0.7948 C   0  0  0  0  0  0  0  0  0  0  0  0
   -1.0370   -2.0715    0.2937 C   0  0  2  0  0  3  0  0  0  0  0  0
   -2.3881   -0.5600   -0.5969 C   0  0  0  0  0  0  0  0  0  0  0  0
   -3.0264   -1.8215   -0.7298 C   0  0  0  0  0  0  0  0  0  0  0  0
   -4.2777   -1.9689   -1.3480 C   0  0  0  0  0  0  0  0  0  0  0  0
   -4.8671   -0.8022   -1.8459 C   0  0  0  0  0  0  0  0  0  0  0  0
   -4.2255    0.4570   -1.7404 C   0  0  0  0  0  0  0  0  0  0  0  0
   -2.9808    0.6034   -1.1213 C   0  0  0  0  0  0  0  0  0  0  0  0
    2.1665   -0.7797    1.1077 C   0  0  1  0  0  3  0  0  0  0  0  0
    2.3343    0.0908   -0.9111 C   0  0  0  0  0  0  0  0  0  0  0  0
    3.5290   -0.6427   -0.6640 C   0  0  0  0  0  0  0  0  0  0  0  0
    4.5646   -0.7147   -1.6076 C   0  0  0  0  0  0  0  0  0  0  0  0
    4.3585   -0.0309   -2.8118 C   0  0  0  0  0  0  0  0  0  0  0  0
    3.1723    0.7042   -3.0612 C   0  0  0  0  0  0  0  0  0  0  0  0
    2.1413    0.7826   -2.1194 C   0  0  0  0  0  0  0  0  0  0  0  0
    2.3492   -1.4430    3.1275 H   0  0  0  0  0  0  0  0  0  0  0  0
    1.4636   -3.3949    2.3798 H   0  0  0  0  0  0  0  0  0  0  0  0
   -0.0227   -2.6418    2.9719 H   0  0  0  0  0  0  0  0  0  0  0  0
    0.9513   -2.7529    0.0269 H   0  0  0  0  0  0  0  0  0  0  0  0
   -0.1401   -3.9086    0.7818 H   0  0  0  0  0  0  0  0  0  0  0  0
   -2.2825   -3.7422   -0.1134 H   0  0  0  0  0  0  0  0  0  0  0  0
   -4.7671   -2.9485   -1.4438 H   0  0  0  0  0  0  0  0  0  0  0  0
   -5.8475   -0.8661   -2.3401 H   0  0  0  0  0  0  0  0  0  0  0  0
   -4.7213    1.3432   -2.1630 H   0  0  0  0  0  0  0  0  0  0  0  0
   -2.4636    1.5697   -1.0580 H   0  0  0  0  0  0  0  0  0  0  0  0
    4.0680   -1.7299    1.1232 H   0  0  0  0  0  0  0  0  0  0  0  0
    5.4904   -1.2755   -1.4163 H   0  0  0  0  0  0  0  0  0  0  0  0
    5.1422   -0.0611   -3.5829 H   0  0  0  0  0  0  0  0  0  0  0  0
    3.0655    1.2294   -4.0216 H   0  0  0  0  0  0  0  0  0  0  0  0
    1.2248    1.3727   -2.2755 H   0  0  0  0  0  0  0  0  0  0  0  0
    0.0291   -0.4991    3.6067 H   0  0  0  0  0  0  0  0  0  0  0  0
    1.1470    0.6449    3.1798 H   0  0  0  0  0  0  0  0  0  0  0  0
  1 39  1  0  0  0  0
  1 38  1  0  0  0  0
  2 28  1  0  0  0  0
  2  9  1  0  0  0  0
  3  9  1  0  0  0  0
  4 16  1  0  0  0  0
  4 33  1  0  0  0  0
  5 16  1  0  0  0  0
  6  1  1  0  0  0  0
  6 23  1  1  0  0  0
  7 24  1  0  0  0  0
  7  6  1  0  0  0  0
  7 25  1  0  0  0  0
  8  7  1  0  0  0  0
  9  8  1  6  0  0  0
 10  3  1  0  0  0  0
 11 10  1  0  0  0  0
 11  2  1  0  0  0  0
 12 11  2  0  0  0  0
 13 14  2  0  0  0  0
 13 12  1  0  0  0  0
 14 15  1  0  0  0  0
 15 32  1  0  0  0  0
 15 10  2  0  0  0  0
 16  6  1  6  0  0  0
 17 18  1  0  0  0  0
 17  5  1  0  0  0  0
 18  4  1  0  0  0  0
 19 34  1  0  0  0  0
 19 18  2  0  0  0  0
 20 19  1  0  0  0  0
 21 20  2  0  0  0  0
 21 22  1  0  0  0  0
 22 17  2  0  0  0  0
 26  8  1  0  0  0  0
 27  8  1  0  0  0  0
 29 12  1  0  0  0  0
 30 13  1  0  0  0  0
 31 14  1  0  0  0  0
 35 20  1  0  0  0  0
 36 21  1  0  0  0  0
 37 22  1  0  0  0  0
M  END
