1,2
 OpenBabel05122313053D

 26 26  0  0  0  0  0  0  0  0999 V2000
   -0.4263   -2.0028   -0.0001 N   0  0  0  0  0  2  0  0  0  0  0  0
    1.9011   -0.8012   -0.0001 N   0  0  0  0  0  2  0  0  0  0  0  0
    0.4414   -4.1257   -0.0000 N   0  0  0  0  0  0  0  0  0  0  0  0
   -1.4653   -2.8813   -0.0001 C   0  0  0  0  0  3  0  0  0  0  0  0
   -0.9108   -4.1824   -0.0001 C   0  0  0  0  0  0  0  0  0  0  0  0
    0.7028   -2.8038   -0.0001 C   0  0  0  0  0  0  0  0  0  0  0  0
    1.9442   -2.1163   -0.0001 C   0  0  0  0  0  0  0  0  0  0  0  0
    3.1128    0.0099   -0.0000 C   0  0  0  0  0  0  0  0  0  0  0  0
    4.4479   -0.7308    0.0001 C   0  0  0  0  0  0  0  0  0  0  0  0
    5.6331    0.2402    0.0001 C   0  0  0  0  0  0  0  0  0  0  0  0
    6.9965   -0.4583    0.0002 C   0  0  0  0  0  0  0  0  0  0  0  0
    8.1755    0.5149    0.0002 C   0  0  0  0  0  0  0  0  0  0  0  0
   -2.5144   -2.5749   -0.0001 H   0  0  0  0  0  0  0  0  0  0  0  0
   -1.4559   -5.1362   -0.0000 H   0  0  0  0  0  0  0  0  0  0  0  0
    2.8922   -2.6744   -0.0001 H   0  0  0  0  0  0  0  0  0  0  0  0
    3.0616    0.6784    0.8870 H   0  0  0  0  0  0  0  0  0  0  0  0
    3.0617    0.6784   -0.8871 H   0  0  0  0  0  0  0  0  0  0  0  0
    4.5162   -1.3931   -0.8907 H   0  0  0  0  0  0  0  0  0  0  0  0
    4.5161   -1.3931    0.8908 H   0  0  0  0  0  0  0  0  0  0  0  0
    5.5632    0.9096   -0.8870 H   0  0  0  0  0  0  0  0  0  0  0  0
    5.5631    0.9096    0.8872 H   0  0  0  0  0  0  0  0  0  0  0  0
    7.0616   -1.1280   -0.8860 H   0  0  0  0  0  0  0  0  0  0  0  0
    7.0615   -1.1280    0.8864 H   0  0  0  0  0  0  0  0  0  0  0  0
    9.1468   -0.0189    0.0003 H   0  0  0  0  0  0  0  0  0  0  0  0
    8.1556    1.1729   -0.8935 H   0  0  0  0  0  0  0  0  0  0  0  0
    8.1555    1.1729    0.8940 H   0  0  0  0  0  0  0  0  0  0  0  0
  1  6  1  0  0  0  0
  1  4  1  0  0  0  0
  2  8  1  0  0  0  0
  4  5  1  0  0  0  0
  5  3  2  0  0  0  0
  5 14  1  0  0  0  0
  6  7  2  0  0  0  0
  6  3  1  0  0  0  0
  7 15  1  0  0  0  0
  7  2  1  0  0  0  0
  8  9  1  0  0  0  0
  8 16  1  0  0  0  0
  9 10  1  0  0  0  0
  9 19  1  0  0  0  0
 10 11  1  0  0  0  0
 10 21  1  0  0  0  0
 11 12  1  0  0  0  0
 11 23  1  0  0  0  0
 12 24  1  0  0  0  0
 12 26  1  0  0  0  0
 13  4  1  0  0  0  0
 17  8  1  0  0  0  0
 18  9  1  0  0  0  0
 20 10  1  0  0  0  0
 22 11  1  0  0  0  0
 25 12  1  0  0  0  0
M  END
