1,2
 OpenBabel05122313053D

 40 42  0  0  1  0  0  0  0  0999 V2000
   -2.6435    0.3112   -0.1031 N   0  0  0  0  0  2  0  0  0  0  0  0
    0.0291    0.6715    0.0056 N   0  0  0  0  0  2  0  0  0  0  0  0
   -3.8860    0.0657   -0.5483 C   0  0  0  0  0  3  0  0  0  0  0  0
   -4.1084   -0.9913   -0.7715 H   0  0  0  0  0  0  0  0  0  0  0  0
   -4.8138    1.0975   -0.7342 C   0  0  0  0  0  0  0  0  0  0  0  0
   -5.8267    0.8723   -1.0966 H   0  0  0  0  0  0  0  0  0  0  0  0
   -4.4123    2.4138   -0.4579 C   0  0  0  0  0  0  0  0  0  0  0  0
   -5.1129    3.2508   -0.5985 H   0  0  0  0  0  0  0  0  0  0  0  0
   -3.1031    2.6580   -0.0178 C   0  0  0  0  0  0  0  0  0  0  0  0
   -2.7535    3.6808    0.1864 H   0  0  0  0  0  0  0  0  0  0  0  0
   -2.2339    1.5693    0.1504 C   0  0  0  0  0  0  0  0  0  0  0  0
   -0.8061    1.6914    0.6378 C   0  0  0  0  0  0  0  0  0  0  0  0
   -0.4264    2.7223    0.4766 H   0  0  0  0  0  0  0  0  0  0  0  0
   -0.8054    1.4875    1.7366 H   0  0  0  0  0  0  0  0  0  0  0  0
    1.3105    0.7738    0.0741 C   0  0  1  0  0  3  0  0  0  0  0  0
    2.1135    1.8557    0.7740 C   0  0  0  0  0  0  0  0  0  0  0  0
    1.7727    1.9817    1.8234 H   0  0  0  0  0  0  0  0  0  0  0  0
    1.9848    2.8388    0.2735 H   0  0  0  0  0  0  0  0  0  0  0  0
    3.5479    1.3034    0.6540 C   0  0  1  0  0  0  0  0  0  0  0  0
    4.3360    2.0649    0.8159 H   0  0  0  0  0  0  0  0  0  0  0  0
    3.6273    0.0791    1.5968 C   0  0  0  0  0  0  0  0  0  0  0  0
    4.6723   -0.2653    1.7208 H   0  0  0  0  0  0  0  0  0  0  0  0
    3.2472    0.3231    2.6086 H   0  0  0  0  0  0  0  0  0  0  0  0
    2.7472   -0.9796    0.8741 C   0  0  0  0  0  0  0  0  0  0  0  0
    1.8699   -1.3063    1.4691 H   0  0  0  0  0  0  0  0  0  0  0  0
    3.3197   -1.8889    0.6028 H   0  0  0  0  0  0  0  0  0  0  0  0
    2.2896   -0.2630   -0.4447 C   0  0  1  0  0  0  0  0  0  0  0  0
    1.7861   -1.1821   -1.5403 C   0  0  0  0  0  0  0  0  0  0  0  0
    0.9575   -1.8386   -1.2046 H   0  0  0  0  0  0  0  0  0  0  0  0
    2.6019   -1.8463   -1.8889 H   0  0  0  0  0  0  0  0  0  0  0  0
    1.4037   -0.6098   -2.4089 H   0  0  0  0  0  0  0  0  0  0  0  0
    3.5344    0.6542   -0.7659 C   0  0  0  0  0  0  0  0  0  0  0  0
    4.8126   -0.1240   -1.0997 C   0  0  0  0  0  0  0  0  0  0  0  0
    5.6710    0.5744   -1.1811 H   0  0  0  0  0  0  0  0  0  0  0  0
    4.7135   -0.6380   -2.0770 H   0  0  0  0  0  0  0  0  0  0  0  0
    5.0752   -0.8893   -0.3465 H   0  0  0  0  0  0  0  0  0  0  0  0
    3.2701    1.6430   -1.9122 C   0  0  0  0  0  0  0  0  0  0  0  0
    2.3030    2.1760   -1.8239 H   0  0  0  0  0  0  0  0  0  0  0  0
    3.2531    1.1099   -2.8840 H   0  0  0  0  0  0  0  0  0  0  0  0
    4.0748    2.4049   -1.9668 H   0  0  0  0  0  0  0  0  0  0  0  0
  1 11  1  0  0  0  0
  2 12  1  0  0  0  0
  3  1  1  0  0  0  0
  4  3  1  0  0  0  0
  5  3  1  0  0  0  0
  5  7  2  0  0  0  0
  6  5  1  0  0  0  0
  7  9  1  0  0  0  0
  8  7  1  0  0  0  0
  9 11  2  0  0  0  0
  9 10  1  0  0  0  0
 11 12  1  0  0  0  0
 12 14  1  0  0  0  0
 13 12  1  0  0  0  0
 15  2  1  1  0  0  0
 15 16  1  0  0  0  0
 16 17  1  0  0  0  0
 18 16  1  0  0  0  0
 19 16  1  0  0  0  0
 19 20  1  1  0  0  0
 19 21  1  0  0  0  0
 21 22  1  0  0  0  0
 21 23  1  0  0  0  0
 24 25  1  0  0  0  0
 24 21  1  0  0  0  0
 26 24  1  0  0  0  0
 27 28  1  6  0  0  0
 27 15  1  0  0  0  0
 27 24  1  0  0  0  0
 28 29  1  0  0  0  0
 30 28  1  0  0  0  0
 31 28  1  0  0  0  0
 32 27  1  0  0  0  0
 32 19  1  0  0  0  0
 33 32  1  0  0  0  0
 33 36  1  0  0  0  0
 34 33  1  0  0  0  0
 35 33  1  0  0  0  0
 37 38  1  0  0  0  0
 37 32  1  0  0  0  0
 39 37  1  0  0  0  0
 40 37  1  0  0  0  0
M  END
