9,16
 OpenBabel05122313053D

 64 68  0  0  0  0  0  0  0  0999 V2000
   -1.9670   -0.9335   -1.1738 N   0  0  0  0  0  0  0  0  0  0  0  0
   -0.5792   -0.6373   -0.8664 C   0  0  0  0  0  0  0  0  0  0  0  0
   -0.2445    0.1371    0.2592 C   0  0  0  0  0  0  0  0  0  0  0  0
    1.0897    0.4319    0.5550 C   0  0  0  0  0  0  0  0  0  0  0  0
    2.1493   -0.0439   -0.2635 C   0  0  0  0  0  0  0  0  0  0  0  0
    1.8008   -0.8308   -1.3961 C   0  0  0  0  0  0  0  0  0  0  0  0
    0.4625   -1.1125   -1.6845 C   0  0  0  0  0  0  0  0  0  0  0  0
    3.4770    0.2497    0.0287 N   0  0  0  0  0  0  0  0  0  0  0  0
   -2.9357    1.6009   -0.9874 N   0  0  0  0  0  2  0  0  0  0  0  0
   -3.0496    2.9072   -0.7000 C   0  0  0  0  0  3  0  0  0  0  0  0
   -2.7569    3.8979   -1.6468 C   0  0  0  0  0  0  0  0  0  0  0  0
   -2.3255    3.4995   -2.9206 C   0  0  0  0  0  0  0  0  0  0  0  0
   -2.1970    2.1319   -3.2038 C   0  0  0  0  0  0  0  0  0  0  0  0
   -2.5189    1.2014   -2.2050 C   0  0  0  0  0  0  0  0  0  0  0  0
   -2.4556   -0.2970   -2.4013 C   0  0  0  0  0  0  0  0  0  0  0  0
   -2.7285   -1.7846    1.2954 N   0  0  0  0  0  2  0  0  0  0  0  0
   -2.7512   -2.0142    2.6178 C   0  0  0  0  0  3  0  0  0  0  0  0
   -2.3237   -3.2329    3.1614 C   0  0  0  0  0  0  0  0  0  0  0  0
   -1.8528   -4.2257    2.2895 C   0  0  0  0  0  0  0  0  0  0  0  0
   -1.8208   -3.9683    0.9113 C   0  0  0  0  0  0  0  0  0  0  0  0
   -2.2759   -2.7264    0.4446 C   0  0  0  0  0  0  0  0  0  0  0  0
   -2.3260   -2.3468   -1.0187 C   0  0  0  0  0  0  0  0  0  0  0  0
    6.0538   -1.7525   -1.7372 N   0  0  0  0  0  0  0  0  0  0  0  0
    6.5897   -2.9810   -1.7274 C   0  0  0  0  0  0  0  0  0  0  0  0
    6.1922   -3.9949   -0.8392 C   0  0  0  0  0  0  0  0  0  0  0  0
    5.1785   -3.7034    0.0838 C   0  0  0  0  0  0  0  0  0  0  0  0
    4.6106   -2.4214    0.0838 C   0  0  0  0  0  0  0  0  0  0  0  0
    5.0837   -1.4770   -0.8456 C   0  0  0  0  0  0  0  0  0  0  0  0
    4.5352   -0.0571   -0.9099 C   0  0  0  0  0  0  0  0  0  0  0  0
    4.2100    2.9719    2.4401 N   0  0  0  0  0  0  0  0  0  0  0  0
    4.1734    4.3085    2.5301 C   0  0  0  0  0  0  0  0  0  0  0  0
    3.7110    5.1439    1.4989 C   0  0  0  0  0  0  0  0  0  0  0  0
    3.2639    4.5438    0.3140 C   0  0  0  0  0  0  0  0  0  0  0  0
    3.2978    3.1460    0.2077 C   0  0  0  0  0  0  0  0  0  0  0  0
    3.7799    2.4013    1.2995 C   0  0  0  0  0  0  0  0  0  0  0  0
    3.8500    0.8798    1.2784 C   0  0  0  0  0  0  0  0  0  0  0  0
   -1.0362    0.5320    0.9173 H   0  0  0  0  0  0  0  0  0  0  0  0
    1.2999    1.0665    1.4259 H   0  0  0  0  0  0  0  0  0  0  0  0
    2.5815   -1.2478   -2.0458 H   0  0  0  0  0  0  0  0  0  0  0  0
    0.2299   -1.7288   -2.5675 H   0  0  0  0  0  0  0  0  0  0  0  0
   -3.3678    3.1277    0.3341 H   0  0  0  0  0  0  0  0  0  0  0  0
   -2.8592    4.9603   -1.3830 H   0  0  0  0  0  0  0  0  0  0  0  0
   -2.0793    4.2497   -3.6875 H   0  0  0  0  0  0  0  0  0  0  0  0
   -1.8447    1.7826   -4.1856 H   0  0  0  0  0  0  0  0  0  0  0  0
   -3.5028   -0.6508   -2.5477 H   0  0  0  0  0  0  0  0  0  0  0  0
   -1.8536   -0.5459   -3.3054 H   0  0  0  0  0  0  0  0  0  0  0  0
   -3.1097   -1.1671    3.2287 H   0  0  0  0  0  0  0  0  0  0  0  0
   -2.3533   -3.3925    4.2487 H   0  0  0  0  0  0  0  0  0  0  0  0
   -1.5014   -5.1925    2.6811 H   0  0  0  0  0  0  0  0  0  0  0  0
   -1.4417   -4.7161    0.1991 H   0  0  0  0  0  0  0  0  0  0  0  0
   -1.6938   -3.0383   -1.6218 H   0  0  0  0  0  0  0  0  0  0  0  0
   -3.3883   -2.4424   -1.3433 H   0  0  0  0  0  0  0  0  0  0  0  0
    7.3842   -3.1745   -2.4708 H   0  0  0  0  0  0  0  0  0  0  0  0
    6.6672   -4.9865   -0.8754 H   0  0  0  0  0  0  0  0  0  0  0  0
    4.8308   -4.4665    0.7971 H   0  0  0  0  0  0  0  0  0  0  0  0
    3.8074   -2.1489    0.7834 H   0  0  0  0  0  0  0  0  0  0  0  0
    5.3800    0.6429   -0.7411 H   0  0  0  0  0  0  0  0  0  0  0  0
    4.2061    0.1407   -1.9529 H   0  0  0  0  0  0  0  0  0  0  0  0
    4.5333    4.7454    3.4792 H   0  0  0  0  0  0  0  0  0  0  0  0
    3.7019    6.2363    1.6274 H   0  0  0  0  0  0  0  0  0  0  0  0
    2.8885    5.1566   -0.5199 H   0  0  0  0  0  0  0  0  0  0  0  0
    2.9491    2.6312   -0.6989 H   0  0  0  0  0  0  0  0  0  0  0  0
    4.8873    0.5835    1.5387 H   0  0  0  0  0  0  0  0  0  0  0  0
    3.2247    0.4911    2.1109 H   0  0  0  0  0  0  0  0  0  0  0  0
  1 22  1  0  0  0  0
  1  2  1  0  0  0  0
  2  3  1  0  0  0  0
  3  4  2  0  0  0  0
  3 37  1  0  0  0  0
  4 38  1  0  0  0  0
  5  8  1  0  0  0  0
  5  4  1  0  0  0  0
  6  5  2  0  0  0  0
  7  6  1  0  0  0  0
  7  2  2  0  0  0  0
  8 36  1  0  0  0  0
  9 10  1  0  0  0  0
 10 41  1  0  0  0  0
 11 42  1  0  0  0  0
 11 10  1  0  0  0  0
 12 11  2  0  0  0  0
 13 12  1  0  0  0  0
 13 14  2  0  0  0  0
 14  9  1  0  0  0  0
 15 14  1  0  0  0  0
 15  1  1  0  0  0  0
 16 17  1  0  0  0  0
 17 18  1  0  0  0  0
 17 47  1  0  0  0  0
 18 48  1  0  0  0  0
 19 49  1  0  0  0  0
 19 18  2  0  0  0  0
 20 19  1  0  0  0  0
 21 20  2  0  0  0  0
 21 16  1  0  0  0  0
 22 21  1  0  0  0  0
 23 24  2  0  0  0  0
 23 28  1  0  0  0  0
 24 25  1  0  0  0  0
 25 26  2  0  0  0  0
 26 27  1  0  0  0  0
 26 55  1  0  0  0  0
 27 56  1  0  0  0  0
 28 27  2  0  0  0  0
 29 28  1  0  0  0  0
 29 57  1  0  0  0  0
 29  8  1  0  0  0  0
 30 31  1  0  0  0  0
 31 59  1  0  0  0  0
 32 60  1  0  0  0  0
 32 31  2  0  0  0  0
 33 32  1  0  0  0  0
 34 33  2  0  0  0  0
 34 35  1  0  0  0  0
 35 30  2  0  0  0  0
 36 35  1  0  0  0  0
 36 63  1  0  0  0  0
 36 64  1  0  0  0  0
 39  6  1  0  0  0  0
 40  7  1  0  0  0  0
 43 12  1  0  0  0  0
 44 13  1  0  0  0  0
 45 15  1  0  0  0  0
 46 15  1  0  0  0  0
 50 20  1  0  0  0  0
 51 22  1  0  0  0  0
 52 22  1  0  0  0  0
 53 24  1  0  0  0  0
 54 25  1  0  0  0  0
 58 29  1  0  0  0  0
 61 33  1  0  0  0  0
 62 34  1  0  0  0  0
M  END
