1,2
 OpenBabel05122313053D

 58 61  0  0  0  0  0  0  0  0999 V2000
    0.0548    1.3054   -0.0094 N   0  0  0  0  0  2  0  0  0  0  0  0
    0.0548   -1.3054    0.0091 N   0  0  0  0  0  2  0  0  0  0  0  0
   -0.0690    2.6531   -0.0133 C   0  0  0  0  0  0  0  0  0  0  0  0
   -1.1154    3.0287   -0.0185 H   0  0  0  0  0  0  0  0  0  0  0  0
    1.0519    3.4865   -0.0129 C   0  0  0  0  0  0  0  0  0  0  0  0
    0.9088    4.5765   -0.0214 H   0  0  0  0  0  0  0  0  0  0  0  0
    2.3510    2.9367   -0.0077 C   0  0  0  0  0  0  0  0  0  0  0  0
    2.4544    1.5336   -0.0026 C   0  0  0  0  0  0  0  0  0  0  0  0
    3.4482    1.0653    0.0075 H   0  0  0  0  0  0  0  0  0  0  0  0
    1.3020    0.7353   -0.0038 C   0  0  0  0  0  0  0  0  0  0  0  0
    1.3020   -0.7353    0.0035 C   0  0  0  0  0  0  0  0  0  0  0  0
    2.4544   -1.5337    0.0020 C   0  0  0  0  0  0  0  0  0  0  0  0
    3.4481   -1.0653   -0.0083 H   0  0  0  0  0  0  0  0  0  0  0  0
    2.3509   -2.9367    0.0071 C   0  0  0  0  0  0  0  0  0  0  0  0
    1.0519   -3.4865    0.0125 C   0  0  0  0  0  0  0  0  0  0  0  0
    0.9087   -4.5765    0.0210 H   0  0  0  0  0  0  0  0  0  0  0  0
   -0.0690   -2.6531    0.0130 C   0  0  0  0  0  0  0  0  0  0  0  0
   -1.1154   -3.0287    0.0183 H   0  0  0  0  0  0  0  0  0  0  0  0
    3.5678    3.7982   -0.0066 C   0  0  0  0  0  0  0  0  0  0  0  0
    4.2600    4.0364   -1.2200 C   0  0  0  0  0  0  0  0  0  0  0  0
    5.4051    4.8527   -1.1933 C   0  0  0  0  0  0  0  0  0  0  0  0
    5.9423    5.0417   -2.1369 H   0  0  0  0  0  0  0  0  0  0  0  0
    5.8795    5.4332   -0.0036 C   0  0  0  0  0  0  0  0  0  0  0  0
    5.1739    5.1743    1.1861 C   0  0  0  0  0  0  0  0  0  0  0  0
    5.5321    5.6121    2.1320 H   0  0  0  0  0  0  0  0  0  0  0  0
    4.0221    4.3692    1.2095 C   0  0  0  0  0  0  0  0  0  0  0  0
    3.7732    3.4390   -2.5180 C   0  0  0  0  0  0  0  0  0  0  0  0
    4.3909    3.7768   -3.3715 H   0  0  0  0  0  0  0  0  0  0  0  0
    2.7195    3.7181   -2.7252 H   0  0  0  0  0  0  0  0  0  0  0  0
    3.8013    2.3296   -2.4984 H   0  0  0  0  0  0  0  0  0  0  0  0
    7.0910    6.3308   -0.0030 C   0  0  0  0  0  0  0  0  0  0  0  0
    7.7064    6.1847    0.9070 H   0  0  0  0  0  0  0  0  0  0  0  0
    6.7915    7.4008   -0.0220 H   0  0  0  0  0  0  0  0  0  0  0  0
    7.7328    6.1536   -0.8879 H   0  0  0  0  0  0  0  0  0  0  0  0
    3.2934    4.1069    2.5050 C   0  0  0  0  0  0  0  0  0  0  0  0
    3.8127    4.5790    3.3603 H   0  0  0  0  0  0  0  0  0  0  0  0
    3.2070    3.0202    2.7129 H   0  0  0  0  0  0  0  0  0  0  0  0
    2.2560    4.4998    2.4797 H   0  0  0  0  0  0  0  0  0  0  0  0
    3.5678   -3.7983    0.0058 C   0  0  0  0  0  0  0  0  0  0  0  0
    4.0210   -4.3702   -1.2098 C   0  0  0  0  0  0  0  0  0  0  0  0
    5.1733   -5.1752   -1.1866 C   0  0  0  0  0  0  0  0  0  0  0  0
    5.5310   -5.6137   -2.1323 H   0  0  0  0  0  0  0  0  0  0  0  0
    5.8797   -5.4329    0.0025 C   0  0  0  0  0  0  0  0  0  0  0  0
    5.4063   -4.8510    1.1923 C   0  0  0  0  0  0  0  0  0  0  0  0
    5.9445   -5.0385    2.1357 H   0  0  0  0  0  0  0  0  0  0  0  0
    4.2613   -4.0351    1.2192 C   0  0  0  0  0  0  0  0  0  0  0  0
    3.2917   -4.1093   -2.5052 C   0  0  0  0  0  0  0  0  0  0  0  0
    2.2547   -4.5034   -2.4795 H   0  0  0  0  0  0  0  0  0  0  0  0
    3.8113   -4.5812   -3.3604 H   0  0  0  0  0  0  0  0  0  0  0  0
    3.2040   -3.0228   -2.7136 H   0  0  0  0  0  0  0  0  0  0  0  0
    7.0899   -6.3322    0.0052 C   0  0  0  0  0  0  0  0  0  0  0  0
    6.7924   -7.3958    0.1299 H   0  0  0  0  0  0  0  0  0  0  0  0
    7.7803   -6.0873    0.8360 H   0  0  0  0  0  0  0  0  0  0  0  0
    7.6529   -6.2628   -0.9465 H   0  0  0  0  0  0  0  0  0  0  0  0
    3.7755   -3.4361    2.5167 C   0  0  0  0  0  0  0  0  0  0  0  0
    3.8033   -2.3267    2.4957 H   0  0  0  0  0  0  0  0  0  0  0  0
    4.3939   -3.7727    3.3702 H   0  0  0  0  0  0  0  0  0  0  0  0
    2.7219   -3.7151    2.7250 H   0  0  0  0  0  0  0  0  0  0  0  0
  1 10  1  0  0  0  0
  2 17  1  0  0  0  0
  3  5  2  0  0  0  0
  3  1  1  0  0  0  0
  4  3  1  0  0  0  0
  5  7  1  0  0  0  0
  6  5  1  0  0  0  0
  7 19  1  0  0  0  0
  7  8  2  0  0  0  0
  8  9  1  0  0  0  0
 10  8  1  0  0  0  0
 10 11  2  0  0  0  0
 11  2  1  0  0  0  0
 12 11  1  0  0  0  0
 12 14  2  0  0  0  0
 13 12  1  0  0  0  0
 14 15  1  0  0  0  0
 15 17  2  0  0  0  0
 15 16  1  0  0  0  0
 17 18  1  0  0  0  0
 19 26  1  0  0  0  0
 20 21  1  0  0  0  0
 20 19  2  0  0  0  0
 21 23  2  0  0  0  0
 22 21  1  0  0  0  0
 23 31  1  0  0  0  0
 23 24  1  0  0  0  0
 24 26  2  0  0  0  0
 24 25  1  0  0  0  0
 26 35  1  0  0  0  0
 27 30  1  0  0  0  0
 27 20  1  0  0  0  0
 28 27  1  0  0  0  0
 29 27  1  0  0  0  0
 31 32  1  0  0  0  0
 33 31  1  0  0  0  0
 34 31  1  0  0  0  0
 35 37  1  0  0  0  0
 35 36  1  0  0  0  0
 38 35  1  0  0  0  0
 39 14  1  0  0  0  0
 39 46  1  0  0  0  0
 40 41  1  0  0  0  0
 40 39  2  0  0  0  0
 41 43  2  0  0  0  0
 42 41  1  0  0  0  0
 43 51  1  0  0  0  0
 43 44  1  0  0  0  0
 44 46  2  0  0  0  0
 44 45  1  0  0  0  0
 46 55  1  0  0  0  0
 47 48  1  0  0  0  0
 47 40  1  0  0  0  0
 49 47  1  0  0  0  0
 50 47  1  0  0  0  0
 51 52  1  0  0  0  0
 51 53  1  0  0  0  0
 54 51  1  0  0  0  0
 55 58  1  0  0  0  0
 55 57  1  0  0  0  0
 56 55  1  0  0  0  0
M  END
