2,3
 OpenBabel05122313053D

 27 29  0  0  0  0  0  0  0  0999 V2000
   -0.5277    3.5341   -0.2926 S   0  0  0  0  0  0  0  0  0  0  0  0
    0.1010    1.0401   -0.1181 N   0  0  0  0  0  2  0  0  0  0  0  0
   -2.2734   -0.0649    0.0042 N   0  0  0  0  0  2  0  0  0  0  0  0
   -2.2834    1.3002   -0.0787 C   0  0  0  0  0  0  0  0  0  0  0  0
   -0.9547    1.8644   -0.1717 C   0  0  0  0  0  0  0  0  0  0  0  0
    2.6230    1.0663    0.0463 C   0  0  0  0  0  0  0  0  0  0  0  0
   -3.4809    2.0351   -0.0186 C   0  0  0  0  0  0  0  0  0  0  0  0
   -3.4527    3.1322   -0.0885 H   0  0  0  0  0  0  0  0  0  0  0  0
    1.3096    1.7221   -0.1200 C   0  0  0  0  0  0  0  0  0  0  0  0
   -3.4392   -0.7165    0.2025 C   0  0  0  0  0  0  0  0  0  0  0  0
   -3.3750   -1.8069    0.3154 H   0  0  0  0  0  0  0  0  0  0  0  0
   -4.6879    1.3525    0.1517 C   0  0  0  0  0  0  0  0  0  0  0  0
   -5.6370    1.9050    0.2044 H   0  0  0  0  0  0  0  0  0  0  0  0
    1.1385    3.0942   -0.2329 C   0  0  0  0  0  0  0  0  0  0  0  0
    1.9230    3.8598   -0.2359 H   0  0  0  0  0  0  0  0  0  0  0  0
   -4.6638   -0.0466    0.2744 C   0  0  0  0  0  0  0  0  0  0  0  0
   -5.5856   -0.6236    0.4319 H   0  0  0  0  0  0  0  0  0  0  0  0
    3.6646    1.3251   -0.8714 C   0  0  0  0  0  0  0  0  0  0  0  0
    3.4765    1.9719   -1.7423 H   0  0  0  0  0  0  0  0  0  0  0  0
    2.8650    0.2428    1.1685 C   0  0  0  0  0  0  0  0  0  0  0  0
    2.0530    0.0543    1.8889 H   0  0  0  0  0  0  0  0  0  0  0  0
    4.9285    0.7473   -0.6824 C   0  0  0  0  0  0  0  0  0  0  0  0
    5.7337    0.9450   -1.4053 H   0  0  0  0  0  0  0  0  0  0  0  0
    5.1648   -0.0770    0.4296 C   0  0  0  0  0  0  0  0  0  0  0  0
    6.1591   -0.5229    0.5816 H   0  0  0  0  0  0  0  0  0  0  0  0
    4.1350   -0.3217    1.3541 C   0  0  0  0  0  0  0  0  0  0  0  0
    4.3254   -0.9503    2.2372 H   0  0  0  0  0  0  0  0  0  0  0  0
  1 14  1  0  0  0  0
  1  5  1  0  0  0  0
  3 10  1  0  0  0  0
  4  7  1  0  0  0  0
  4  3  1  0  0  0  0
  5  2  1  0  0  0  0
  5  4  2  0  0  0  0
  6 20  1  0  0  0  0
  7 12  2  0  0  0  0
  8  7  1  0  0  0  0
  9  2  1  0  0  0  0
  9  6  1  0  0  0  0
 10 16  2  0  0  0  0
 10 11  1  0  0  0  0
 12 13  1  0  0  0  0
 12 16  1  0  0  0  0
 14  9  2  0  0  0  0
 15 14  1  0  0  0  0
 16 17  1  0  0  0  0
 18 22  1  0  0  0  0
 18  6  2  0  0  0  0
 19 18  1  0  0  0  0
 20 26  2  0  0  0  0
 20 21  1  0  0  0  0
 22 24  2  0  0  0  0
 23 22  1  0  0  0  0
 24 25  1  0  0  0  0
 24 26  1  0  0  0  0
 26 27  1  0  0  0  0
M  END
