2,4
 OpenBabel05122313053D

 27 28  0  0  1  0  0  0  0  0999 V2000
   -0.1072    1.7999    1.0805 Si  0  0  1  0  0  0  0  0  0  0  0  0
   -1.5864    0.1606   -0.5232 N   0  0  0  0  0  2  0  0  0  0  0  0
   -1.6022    1.4333   -0.0302 C   0  0  2  0  0  3  0  0  0  0  0  0
    1.5396    0.3343   -0.5399 N   0  0  0  0  0  2  0  0  0  0  0  0
    1.4125    1.5932   -0.0302 C   0  0  1  0  0  3  0  0  0  0  0  0
    2.3332    2.5999   -0.3602 C   0  0  0  0  0  0  0  0  0  0  0  0
    2.2228    3.6087    0.0650 H   0  0  0  0  0  0  0  0  0  0  0  0
    2.5569    0.0468   -1.3730 C   0  0  0  0  0  0  0  0  0  0  0  0
    2.6073   -0.9861   -1.7504 H   0  0  0  0  0  0  0  0  0  0  0  0
   -2.6319    2.3246   -0.3719 C   0  0  0  0  0  0  0  0  0  0  0  0
   -2.6355    3.3457    0.0386 H   0  0  0  0  0  0  0  0  0  0  0  0
   -3.6546    1.9006   -1.2360 C   0  0  0  0  0  0  0  0  0  0  0  0
   -4.4714    2.5833   -1.5143 H   0  0  0  0  0  0  0  0  0  0  0  0
   -0.1972    3.3852    2.0455 C   0  0  0  0  0  0  0  0  0  0  0  0
   -0.2375    4.2570    1.3600 H   0  0  0  0  0  0  0  0  0  0  0  0
    0.6924    3.4998    2.6966 H   0  0  0  0  0  0  0  0  0  0  0  0
   -1.1013    3.4190    2.6863 H   0  0  0  0  0  0  0  0  0  0  0  0
    3.3962    2.3053   -1.2293 C   0  0  0  0  0  0  0  0  0  0  0  0
    4.1307    3.0795   -1.4974 H   0  0  0  0  0  0  0  0  0  0  0  0
    3.5065    1.0081   -1.7460 C   0  0  0  0  0  0  0  0  0  0  0  0
    4.3208    0.7323   -2.4311 H   0  0  0  0  0  0  0  0  0  0  0  0
   -2.5646   -0.2504   -1.3511 C   0  0  0  0  0  0  0  0  0  0  0  0
   -2.4980   -1.2870   -1.7158 H   0  0  0  0  0  0  0  0  0  0  0  0
   -3.6172    0.5924   -1.7354 C   0  0  0  0  0  0  0  0  0  0  0  0
   -4.3949    0.2174   -2.4160 H   0  0  0  0  0  0  0  0  0  0  0  0
    0.0562    0.3731    2.0358 O   0  0  0  0  0  0  0  0  0  0  0  0
   -0.6360    0.1743    2.6961 H   0  0  0  0  0  0  0  0  0  0  0  0
  1 26  1  1  0  0  0
  1 14  1  0  0  0  0
  2  3  1  0  0  0  0
  3  1  1  6  0  0  0
  4  5  1  0  0  0  0
  5  1  1  6  0  0  0
  6  5  1  0  0  0  0
  6  7  1  0  0  0  0
  8  4  1  0  0  0  0
  9  8  1  0  0  0  0
 10  3  1  0  0  0  0
 10 11  1  0  0  0  0
 12 10  2  0  0  0  0
 13 12  1  0  0  0  0
 14 17  1  0  0  0  0
 14 16  1  0  0  0  0
 15 14  1  0  0  0  0
 18  6  2  0  0  0  0
 19 18  1  0  0  0  0
 20  8  2  0  0  0  0
 20 18  1  0  0  0  0
 21 20  1  0  0  0  0
 22  2  1  0  0  0  0
 23 22  1  0  0  0  0
 24 22  2  0  0  0  0
 24 12  1  0  0  0  0
 25 24  1  0  0  0  0
 26 27  1  0  0  0  0
M  END
