2,5
 OpenBabel05122313053D

 49 50  0  0  1  0  0  0  0  0999 V2000
    1.8268    3.5149    1.1814 O   0  0  0  0  0  0  0  0  0  0  0  0
   -2.3169    0.0437    0.0040 N   0  0  0  0  0  2  0  0  0  0  0  0
   -2.3906    0.8509   -1.0783 N   0  0  0  0  0  0  0  0  0  0  0  0
    2.2072    0.1546   -1.4464 N   0  0  0  0  0  0  0  0  0  0  0  0
    2.0672   -0.5741   -0.3145 N   0  0  0  0  0  2  0  0  0  0  0  0
   -0.0373    0.9387   -1.4759 N   0  0  0  0  0  0  0  0  0  0  0  0
   -3.3931    0.3166    0.7628 C   0  0  2  0  0  3  0  0  0  0  0  0
   -3.6535   -0.4079    2.0432 C   0  0  0  0  0  0  0  0  0  0  0  0
   -4.0189   -1.4373    1.8466 H   0  0  0  0  0  0  0  0  0  0  0  0
   -4.4209    0.1183    2.6407 H   0  0  0  0  0  0  0  0  0  0  0  0
   -2.7218   -0.4972    2.6386 H   0  0  0  0  0  0  0  0  0  0  0  0
   -4.1669    1.3298    0.1364 C   0  0  0  0  0  0  0  0  0  0  0  0
   -5.1016    1.7702    0.4993 H   0  0  0  0  0  0  0  0  0  0  0  0
   -3.4988    1.6571   -1.0453 C   0  0  0  0  0  0  0  0  0  0  0  0
   -3.8310    2.6548   -2.1066 C   0  0  0  0  0  0  0  0  0  0  0  0
   -3.0327    3.4163   -2.2304 H   0  0  0  0  0  0  0  0  0  0  0  0
   -4.7605    3.1875   -1.8340 H   0  0  0  0  0  0  0  0  0  0  0  0
   -3.9955    2.1784   -3.0955 H   0  0  0  0  0  0  0  0  0  0  0  0
   -1.3442    0.7734   -2.0845 C   0  0  0  0  0  0  0  0  0  0  0  0
   -1.3738   -0.2336   -2.5575 H   0  0  0  0  0  0  0  0  0  0  0  0
   -1.5750    1.5510   -2.8499 H   0  0  0  0  0  0  0  0  0  0  0  0
    1.0411    0.3836   -2.2822 C   0  0  0  0  0  0  0  0  0  0  0  0
    1.3650    1.0480   -3.1166 H   0  0  0  0  0  0  0  0  0  0  0  0
    0.6910   -0.5884   -2.6964 H   0  0  0  0  0  0  0  0  0  0  0  0
    3.4981    0.5807   -1.6272 C   0  0  1  0  0  3  0  0  0  0  0  0
    3.9377    1.4197   -2.7821 C   0  0  0  0  0  0  0  0  0  0  0  0
    3.7955    0.9049   -3.7551 H   0  0  0  0  0  0  0  0  0  0  0  0
    5.0134    1.6526   -2.6806 H   0  0  0  0  0  0  0  0  0  0  0  0
    3.3900    2.3843   -2.8278 H   0  0  0  0  0  0  0  0  0  0  0  0
    4.2170    0.0766   -0.5424 C   0  0  0  0  0  0  0  0  0  0  0  0
    5.2858    0.2155   -0.3494 H   0  0  0  0  0  0  0  0  0  0  0  0
    3.2842   -0.6390    0.2545 C   0  0  0  0  0  0  0  0  0  0  0  0
    3.5208   -1.3981    1.5196 C   0  0  0  0  0  0  0  0  0  0  0  0
    2.6621   -1.2874    2.2124 H   0  0  0  0  0  0  0  0  0  0  0  0
    4.4421   -1.0452    2.0202 H   0  0  0  0  0  0  0  0  0  0  0  0
    3.6422   -2.4817    1.3112 H   0  0  0  0  0  0  0  0  0  0  0  0
    0.2559    2.2777   -0.9414 C   0  0  0  0  0  0  0  0  0  0  0  0
   -0.0404    3.0619   -1.6836 H   0  0  0  0  0  0  0  0  0  0  0  0
    1.3564    2.3485   -0.8264 H   0  0  0  0  0  0  0  0  0  0  0  0
   -0.3348    2.5866    0.4378 C   0  0  0  0  0  0  0  0  0  0  0  0
   -0.2684    1.6815    1.0775 H   0  0  0  0  0  0  0  0  0  0  0  0
   -1.4118    2.8497    0.3896 H   0  0  0  0  0  0  0  0  0  0  0  0
    0.4315    3.7401    1.1004 C   0  0  0  0  0  0  0  0  0  0  0  0
    0.3140    4.6710    0.5034 H   0  0  0  0  0  0  0  0  0  0  0  0
    0.0000    3.9371    2.1119 H   0  0  0  0  0  0  0  0  0  0  0  0
    2.1990    2.5675    2.1682 C   0  0  0  0  0  0  0  0  0  0  0  0
    3.3033    2.4895    2.1439 H   0  0  0  0  0  0  0  0  0  0  0  0
    1.7699    1.5545    1.9950 H   0  0  0  0  0  0  0  0  0  0  0  0
    1.8836    2.8959    3.1877 H   0  0  0  0  0  0  0  0  0  0  0  0
  1 46  1  0  0  0  0
  2  7  1  0  0  0  0
  3 14  1  0  0  0  0
  3  2  1  0  0  0  0
  4  5  1  0  0  0  0
  5 32  1  0  0  0  0
  6 37  1  0  0  0  0
  7  8  1  6  0  0  0
  8 11  1  0  0  0  0
  8 10  1  0  0  0  0
  9  8  1  0  0  0  0
 12 13  1  0  0  0  0
 12  7  1  0  0  0  0
 14 12  2  0  0  0  0
 15 17  1  0  0  0  0
 15 14  1  0  0  0  0
 16 15  1  0  0  0  0
 18 15  1  0  0  0  0
 19  6  1  0  0  0  0
 19  3  1  0  0  0  0
 20 19  1  0  0  0  0
 21 19  1  0  0  0  0
 22  6  1  0  0  0  0
 22  4  1  0  0  0  0
 23 22  1  0  0  0  0
 24 22  1  0  0  0  0
 25 26  1  1  0  0  0
 25  4  1  0  0  0  0
 25 30  1  0  0  0  0
 26 28  1  0  0  0  0
 27 26  1  0  0  0  0
 29 26  1  0  0  0  0
 30 31  1  0  0  0  0
 30 32  2  0  0  0  0
 32 33  1  0  0  0  0
 33 35  1  0  0  0  0
 33 34  1  0  0  0  0
 36 33  1  0  0  0  0
 37 39  1  0  0  0  0
 37 40  1  0  0  0  0
 38 37  1  0  0  0  0
 40 41  1  0  0  0  0
 40 43  1  0  0  0  0
 42 40  1  0  0  0  0
 43  1  1  0  0  0  0
 43 45  1  0  0  0  0
 44 43  1  0  0  0  0
 46 49  1  0  0  0  0
 47 46  1  0  0  0  0
 48 46  1  0  0  0  0
M  END
