2,3
 OpenBabel05122313053D

 44 44  0  0  0  0  0  0  0  0999 V2000
   -0.9678    0.4729    0.0171 Si  0  0  0  0  0  0  0  0  0  0  0  0
    0.6847    1.1646    0.1472 N   0  0  0  0  0  2  0  0  0  0  0  0
   -0.2608   -1.1656   -0.1703 N   0  0  0  0  0  2  0  0  0  0  0  0
   -1.9758    1.1428   -1.4375 C   0  0  0  0  0  0  0  0  0  0  0  0
   -1.8078    2.2434   -1.4351 H   0  0  0  0  0  0  0  0  0  0  0  0
   -1.5628    0.7715   -2.3982 H   0  0  0  0  0  0  0  0  0  0  0  0
   -3.4887    0.8670   -1.3115 C   0  0  0  0  0  0  0  0  0  0  0  0
   -4.0303    1.4028   -2.1205 H   0  0  0  0  0  0  0  0  0  0  0  0
   -3.6881   -0.2128   -1.4879 H   0  0  0  0  0  0  0  0  0  0  0  0
   -4.0889    1.2630    0.0476 C   0  0  0  0  0  0  0  0  0  0  0  0
   -3.9095    2.3482    0.2276 H   0  0  0  0  0  0  0  0  0  0  0  0
   -5.1916    1.1423    0.0006 H   0  0  0  0  0  0  0  0  0  0  0  0
   -3.5485    0.4583    1.2420 C   0  0  0  0  0  0  0  0  0  0  0  0
   -3.7136   -0.6254    1.0451 H   0  0  0  0  0  0  0  0  0  0  0  0
   -4.1549    0.6898    2.1440 H   0  0  0  0  0  0  0  0  0  0  0  0
   -2.0570    0.7160    1.5432 C   0  0  0  0  0  0  0  0  0  0  0  0
   -1.6859    0.0899    2.3804 H   0  0  0  0  0  0  0  0  0  0  0  0
   -1.9237    1.7721    1.8647 H   0  0  0  0  0  0  0  0  0  0  0  0
    1.1968    2.5446    0.1145 C   0  0  0  0  0  0  0  0  0  0  0  0
    0.3121    3.4633    0.9751 C   0  0  0  0  0  0  0  0  0  0  0  0
   -0.7212    3.5170    0.5742 H   0  0  0  0  0  0  0  0  0  0  0  0
    0.7193    4.4942    0.9865 H   0  0  0  0  0  0  0  0  0  0  0  0
    0.2648    3.0960    2.0196 H   0  0  0  0  0  0  0  0  0  0  0  0
    1.2319    3.0401   -1.3451 C   0  0  0  0  0  0  0  0  0  0  0  0
    1.8255    2.3419   -1.9678 H   0  0  0  0  0  0  0  0  0  0  0  0
    1.6892    4.0487   -1.4050 H   0  0  0  0  0  0  0  0  0  0  0  0
    0.2117    3.1009   -1.7728 H   0  0  0  0  0  0  0  0  0  0  0  0
    2.6297    2.5158    0.6825 C   0  0  0  0  0  0  0  0  0  0  0  0
    2.6335    2.1068    1.7122 H   0  0  0  0  0  0  0  0  0  0  0  0
    3.0694    3.5331    0.7004 H   0  0  0  0  0  0  0  0  0  0  0  0
    3.2806    1.8759    0.0500 H   0  0  0  0  0  0  0  0  0  0  0  0
   -0.8015   -2.5333   -0.1706 C   0  0  0  0  0  0  0  0  0  0  0  0
    0.3559   -3.4846   -0.5374 C   0  0  0  0  0  0  0  0  0  0  0  0
    0.7783   -3.2209   -1.5278 H   0  0  0  0  0  0  0  0  0  0  0  0
    0.0089   -4.5366   -0.5704 H   0  0  0  0  0  0  0  0  0  0  0  0
    1.1651   -3.4180    0.2203 H   0  0  0  0  0  0  0  0  0  0  0  0
   -1.3276   -2.8802    1.2356 C   0  0  0  0  0  0  0  0  0  0  0  0
   -0.5258   -2.7351    1.9865 H   0  0  0  0  0  0  0  0  0  0  0  0
   -1.6672   -3.9349    1.2774 H   0  0  0  0  0  0  0  0  0  0  0  0
   -2.1856   -2.2356    1.5116 H   0  0  0  0  0  0  0  0  0  0  0  0
   -1.9237   -2.6561   -1.2149 C   0  0  0  0  0  0  0  0  0  0  0  0
   -2.7854   -2.0107   -0.9505 H   0  0  0  0  0  0  0  0  0  0  0  0
   -2.2915   -3.7004   -1.2726 H   0  0  0  0  0  0  0  0  0  0  0  0
   -1.5583   -2.3567   -2.2173 H   0  0  0  0  0  0  0  0  0  0  0  0
  1  2  1  0  0  0  0
  1 16  1  0  0  0  0
  3  1  1  0  0  0  0
  4  5  1  0  0  0  0
  4  7  1  0  0  0  0
  4  1  1  0  0  0  0
  6  4  1  0  0  0  0
  7 10  1  0  0  0  0
  8  7  1  0  0  0  0
  9  7  1  0  0  0  0
 10 11  1  0  0  0  0
 10 13  1  0  0  0  0
 12 10  1  0  0  0  0
 13 16  1  0  0  0  0
 13 15  1  0  0  0  0
 14 13  1  0  0  0  0
 16 18  1  0  0  0  0
 16 17  1  0  0  0  0
 19  2  1  0  0  0  0
 19 28  1  0  0  0  0
 19 20  1  0  0  0  0
 20 22  1  0  0  0  0
 20 23  1  0  0  0  0
 21 20  1  0  0  0  0
 24 19  1  0  0  0  0
 25 24  1  0  0  0  0
 26 24  1  0  0  0  0
 27 24  1  0  0  0  0
 28 30  1  0  0  0  0
 28 29  1  0  0  0  0
 31 28  1  0  0  0  0
 32  3  1  0  0  0  0
 32 37  1  0  0  0  0
 33 32  1  0  0  0  0
 33 36  1  0  0  0  0
 34 33  1  0  0  0  0
 35 33  1  0  0  0  0
 37 39  1  0  0  0  0
 37 40  1  0  0  0  0
 37 38  1  0  0  0  0
 41 42  1  0  0  0  0
 41 32  1  0  0  0  0
 43 41  1  0  0  0  0
 44 41  1  0  0  0  0
M  END
