1,4
 OpenBabel05122313053D

 25 25  0  0  1  0  0  0  0  0999 V2000
   -0.8202   -1.3116   -0.2928 N   0  0  0  0  0  0  0  0  0  0  0  0
   -0.8498   -1.6257   -1.2772 H   0  0  0  0  0  0  0  0  0  0  0  0
   -0.6867   -2.1646    0.2718 H   0  0  0  0  0  0  0  0  0  0  0  0
   -0.7588    1.4353    0.0429 N   0  0  0  0  0  0  0  0  0  0  0  0
   -0.8728    1.7583    1.0182 H   0  0  0  0  0  0  0  0  0  0  0  0
   -0.5178    2.2747   -0.5062 H   0  0  0  0  0  0  0  0  0  0  0  0
   -2.0919   -0.6253    0.0689 C   0  0  1  0  0  0  0  0  0  0  0  0
   -2.1090   -0.5871    1.1793 H   0  0  0  0  0  0  0  0  0  0  0  0
   -2.0232    0.8207   -0.4485 C   0  0  1  0  0  0  0  0  0  0  0  0
   -1.9322    0.7758   -1.5567 H   0  0  0  0  0  0  0  0  0  0  0  0
   -3.2870    1.6003   -0.0778 C   0  0  0  0  0  0  0  0  0  0  0  0
   -3.2308    2.6265   -0.4971 H   0  0  0  0  0  0  0  0  0  0  0  0
   -3.3288    1.7139    1.0284 H   0  0  0  0  0  0  0  0  0  0  0  0
   -4.5442    0.8807   -0.5887 C   0  0  0  0  0  0  0  0  0  0  0  0
   -4.5279    0.8816   -1.7003 H   0  0  0  0  0  0  0  0  0  0  0  0
   -5.4505    1.4468   -0.2911 H   0  0  0  0  0  0  0  0  0  0  0  0
   -4.6427   -0.5764   -0.0896 C   0  0  1  0  0  0  0  0  0  0  0  0
   -5.4698   -1.0643   -0.6480 H   0  0  0  0  0  0  0  0  0  0  0  0
   -3.3465   -1.3357   -0.4480 C   0  0  0  0  0  0  0  0  0  0  0  0
   -3.3814   -2.3714   -0.0484 H   0  0  0  0  0  0  0  0  0  0  0  0
   -3.2669   -1.4223   -1.5551 H   0  0  0  0  0  0  0  0  0  0  0  0
   -4.9855   -0.6713    1.4039 C   0  0  0  0  0  0  0  0  0  0  0  0
   -4.2214   -0.1972    2.0534 H   0  0  0  0  0  0  0  0  0  0  0  0
   -5.0783   -1.7283    1.7253 H   0  0  0  0  0  0  0  0  0  0  0  0
   -5.9506   -0.1702    1.6184 H   0  0  0  0  0  0  0  0  0  0  0  0
  1  7  1  0  0  0  0
  1  3  1  0  0  0  0
  2  1  1  0  0  0  0
  4  5  1  0  0  0  0
  6  4  1  0  0  0  0
  7  8  1  1  0  0  0
  9 10  1  6  0  0  0
  9 11  1  0  0  0  0
  9  4  1  0  0  0  0
  9  7  1  0  0  0  0
 11 13  1  0  0  0  0
 12 11  1  0  0  0  0
 14 16  1  0  0  0  0
 14 17  1  0  0  0  0
 14 11  1  0  0  0  0
 15 14  1  0  0  0  0
 17 18  1  6  0  0  0
 17 22  1  0  0  0  0
 19 17  1  0  0  0  0
 19 20  1  0  0  0  0
 19  7  1  0  0  0  0
 21 19  1  0  0  0  0
 22 25  1  0  0  0  0
 22 24  1  0  0  0  0
 22 23  1  0  0  0  0
M  END
