3,5
 OpenBabel05122313053D

 33 34  0  0  0  0  0  0  0  0999 V2000
    4.2026    0.8736   -0.0673 O   0  0  0  0  0  0  0  0  0  0  0  0
    4.7345    0.9098   -0.8871 H   0  0  0  0  0  0  0  0  0  0  0  0
    0.9903   -0.4846   -0.0119 N   0  0  0  0  0  2  0  0  0  0  0  0
    3.1367    0.0245   -0.4230 N   0  0  0  0  0  0  0  0  0  0  0  0
   -0.0072    1.8514    0.0575 N   0  0  0  0  0  2  0  0  0  0  0  0
    1.8558    0.4818   -0.1835 C   0  0  0  0  0  0  0  0  0  0  0  0
    1.6856   -1.7946   -0.1144 C   0  0  0  0  0  0  0  0  0  0  0  0
    3.1898   -1.3580    0.1593 C   0  0  0  0  0  0  0  0  0  0  0  0
    1.1673   -2.8008    0.9148 C   0  0  0  0  0  0  0  0  0  0  0  0
    1.1277   -2.3658    1.9295 H   0  0  0  0  0  0  0  0  0  0  0  0
    1.8241   -3.6940    0.9314 H   0  0  0  0  0  0  0  0  0  0  0  0
    0.1448   -3.1111    0.6396 H   0  0  0  0  0  0  0  0  0  0  0  0
    1.4610   -2.3192   -1.5440 C   0  0  0  0  0  0  0  0  0  0  0  0
    0.3733   -2.4473   -1.6991 H   0  0  0  0  0  0  0  0  0  0  0  0
    1.9549   -3.3002   -1.6863 H   0  0  0  0  0  0  0  0  0  0  0  0
    1.8334   -1.6057   -2.3039 H   0  0  0  0  0  0  0  0  0  0  0  0
    3.4941   -1.2471    1.6622 C   0  0  0  0  0  0  0  0  0  0  0  0
    3.5853   -2.2509    2.1173 H   0  0  0  0  0  0  0  0  0  0  0  0
    2.6953   -0.6902    2.1917 H   0  0  0  0  0  0  0  0  0  0  0  0
    4.4525   -0.7131    1.8054 H   0  0  0  0  0  0  0  0  0  0  0  0
    4.2448   -2.1942   -0.5561 C   0  0  0  0  0  0  0  0  0  0  0  0
    5.2558   -1.8019   -0.3249 H   0  0  0  0  0  0  0  0  0  0  0  0
    4.1064   -2.1842   -1.6530 H   0  0  0  0  0  0  0  0  0  0  0  0
    4.2095   -3.2440   -0.2039 H   0  0  0  0  0  0  0  0  0  0  0  0
    1.3468    1.8466   -0.1235 C   0  0  0  0  0  0  0  0  0  0  0  0
    2.0847    3.0381   -0.1793 C   0  0  0  0  0  0  0  0  0  0  0  0
    3.1720    2.9842   -0.3049 H   0  0  0  0  0  0  0  0  0  0  0  0
    1.4051    4.2551   -0.0502 C   0  0  0  0  0  0  0  0  0  0  0  0
    1.9583    5.2048   -0.0903 H   0  0  0  0  0  0  0  0  0  0  0  0
    0.0147    4.2441    0.1383 C   0  0  0  0  0  0  0  0  0  0  0  0
   -0.5554    5.1772    0.2484 H   0  0  0  0  0  0  0  0  0  0  0  0
   -0.6589    3.0176    0.1867 C   0  0  0  0  0  0  0  0  0  0  0  0
   -1.7475    2.9283    0.3171 H   0  0  0  0  0  0  0  0  0  0  0  0
  2  1  1  0  0  0  0
  4  6  1  0  0  0  0
  4  1  1  0  0  0  0
  4  8  1  0  0  0  0
  5 32  1  0  0  0  0
  6 25  2  0  0  0  0
  6  3  1  0  0  0  0
  7  3  1  0  0  0  0
  7  8  1  0  0  0  0
  7  9  1  0  0  0  0
  8 17  1  0  0  0  0
  9 11  1  0  0  0  0
  9 10  1  0  0  0  0
 12  9  1  0  0  0  0
 13  7  1  0  0  0  0
 14 13  1  0  0  0  0
 15 13  1  0  0  0  0
 16 13  1  0  0  0  0
 17 20  1  0  0  0  0
 17 18  1  0  0  0  0
 17 19  1  0  0  0  0
 21 22  1  0  0  0  0
 21 24  1  0  0  0  0
 21  8  1  0  0  0  0
 23 21  1  0  0  0  0
 25  5  1  0  0  0  0
 26 25  1  0  0  0  0
 26 28  2  0  0  0  0
 27 26  1  0  0  0  0
 28 30  1  0  0  0  0
 29 28  1  0  0  0  0
 30 32  2  0  0  0  0
 30 31  1  0  0  0  0
 32 33  1  0  0  0  0
M  END
