14,18
 OpenBabel05122313053D

 50 52  0  0  0  0  0  0  0  0999 V2000
    3.0545   -2.2192   -0.2306 C   0  0  0  0  0  0  0  0  0  0  0  0
    1.8572   -2.7967   -0.5618 O   0  0  0  0  0  0  0  0  0  0  0  0
    1.7884   -4.2119   -0.6747 C   0  0  0  0  0  0  0  0  0  0  0  0
    0.5182   -4.6228   -1.4086 C   0  0  0  0  0  0  0  0  0  0  0  0
   -0.8108   -4.5031   -0.6736 C   0  0  0  0  0  0  0  0  0  0  0  0
   -1.1913   -3.1382   -0.5613 O   0  0  0  0  0  0  0  0  0  0  0  0
   -2.4870   -2.8401   -0.2308 C   0  0  0  0  0  0  0  0  0  0  0  0
   -3.4401   -3.8069    0.1491 C   0  0  0  0  0  0  0  0  0  0  0  0
   -4.7523   -3.4115    0.4557 C   0  0  0  0  0  0  0  0  0  0  0  0
   -5.1253   -2.0622    0.3910 C   0  0  0  0  0  0  0  0  0  0  0  0
   -4.1702   -1.1013    0.0249 C   0  0  0  0  0  0  0  0  0  0  0  0
   -2.8489   -1.4688   -0.2844 C   0  0  0  0  0  0  0  0  0  0  0  0
   -1.8184   -0.4109   -0.6116 C   0  0  0  0  0  0  0  0  0  0  0  0
   -1.5529    0.5071    0.5309 N   0  0  0  0  0  0  0  0  0  0  0  0
   -1.2678   -0.1515    1.8181 C   0  0  0  0  0  0  0  0  0  0  0  0
    0.0940   -0.8382    1.8872 C   0  0  0  0  0  0  0  0  0  0  0  0
    1.2690    0.1339    1.8188 C   0  0  0  0  0  0  0  0  0  0  0  0
    1.4017    0.8384    0.5312 N   0  0  0  0  0  0  0  0  0  0  0  0
    1.8643    0.0013   -0.6107 C   0  0  0  0  0  0  0  0  0  0  0  0
    3.1036   -0.8018   -0.2831 C   0  0  0  0  0  0  0  0  0  0  0  0
    4.3105   -0.1508    0.0270 C   0  0  0  0  0  0  0  0  0  0  0  0
    5.4547   -0.8765    0.3928 C   0  0  0  0  0  0  0  0  0  0  0  0
    5.3900   -2.2750    0.4562 C   0  0  0  0  0  0  0  0  0  0  0  0
    4.1982   -2.9511    0.1489 C   0  0  0  0  0  0  0  0  0  0  0  0
    2.6670   -4.5826   -1.2498 H   0  0  0  0  0  0  0  0  0  0  0  0
    1.8332   -4.6822    0.3371 H   0  0  0  0  0  0  0  0  0  0  0  0
    0.6381   -5.6939   -1.6766 H   0  0  0  0  0  0  0  0  0  0  0  0
    0.4551   -4.0631   -2.3654 H   0  0  0  0  0  0  0  0  0  0  0  0
   -3.1685   -4.8685    0.2174 H   0  0  0  0  0  0  0  0  0  0  0  0
   -0.7494   -4.9709    0.3385 H   0  0  0  0  0  0  0  0  0  0  0  0
   -1.5859   -5.0594   -1.2477 H   0  0  0  0  0  0  0  0  0  0  0  0
   -5.4866   -4.1766    0.7509 H   0  0  0  0  0  0  0  0  0  0  0  0
   -6.1543   -1.7558    0.6290 H   0  0  0  0  0  0  0  0  0  0  0  0
   -4.4371   -0.0319   -0.0086 H   0  0  0  0  0  0  0  0  0  0  0  0
   -2.1766    0.2335   -1.4388 H   0  0  0  0  0  0  0  0  0  0  0  0
   -0.8800   -0.8898   -0.9436 H   0  0  0  0  0  0  0  0  0  0  0  0
   -2.4222    1.1309    0.6288 H   0  0  0  0  0  0  0  0  0  0  0  0
   -2.0721   -0.8899    2.0280 H   0  0  0  0  0  0  0  0  0  0  0  0
   -1.3356    0.6358    2.5976 H   0  0  0  0  0  0  0  0  0  0  0  0
    0.1819   -1.6152    1.0987 H   0  0  0  0  0  0  0  0  0  0  0  0
    0.1548   -1.3813    2.8532 H   0  0  0  0  0  0  0  0  0  0  0  0
    1.1596    0.9172    2.5976 H   0  0  0  0  0  0  0  0  0  0  0  0
    2.2170   -0.4074    2.0298 H   0  0  0  0  0  0  0  0  0  0  0  0
    2.1113    1.6392    0.6288 H   0  0  0  0  0  0  0  0  0  0  0  0
    1.0556   -0.6740   -0.9422 H   0  0  0  0  0  0  0  0  0  0  0  0
    2.0706    0.7087   -1.4383 H   0  0  0  0  0  0  0  0  0  0  0  0
    4.3339    0.9511   -0.0058 H   0  0  0  0  0  0  0  0  0  0  0  0
    6.3902   -0.3498    0.6313 H   0  0  0  0  0  0  0  0  0  0  0  0
    6.2756   -2.8585    0.7511 H   0  0  0  0  0  0  0  0  0  0  0  0
    4.1685   -4.0465    0.2161 H   0  0  0  0  0  0  0  0  0  0  0  0
  1 24  1  0  0  0  0
  2  1  1  0  0  0  0
  3  2  1  0  0  0  0
  3 26  1  0  0  0  0
  4  3  1  0  0  0  0
  4  5  1  0  0  0  0
  5  6  1  0  0  0  0
  5 30  1  0  0  0  0
  6  7  1  0  0  0  0
  7  8  1  0  0  0  0
  8 29  1  0  0  0  0
  8  9  2  0  0  0  0
  9 32  1  0  0  0  0
 10  9  1  0  0  0  0
 10 33  1  0  0  0  0
 11 10  2  0  0  0  0
 12  7  2  0  0  0  0
 12 11  1  0  0  0  0
 13 12  1  0  0  0  0
 13 14  1  0  0  0  0
 14 37  1  0  0  0  0
 14 15  1  0  0  0  0
 15 16  1  0  0  0  0
 15 38  1  0  0  0  0
 15 39  1  0  0  0  0
 16 41  1  0  0  0  0
 17 16  1  0  0  0  0
 17 43  1  0  0  0  0
 17 42  1  0  0  0  0
 18 44  1  0  0  0  0
 18 17  1  0  0  0  0
 19 20  1  0  0  0  0
 19 18  1  0  0  0  0
 20  1  2  0  0  0  0
 20 21  1  0  0  0  0
 21 22  2  0  0  0  0
 22 23  1  0  0  0  0
 22 48  1  0  0  0  0
 23 49  1  0  0  0  0
 24 50  1  0  0  0  0
 24 23  2  0  0  0  0
 25  3  1  0  0  0  0
 27  4  1  0  0  0  0
 28  4  1  0  0  0  0
 31  5  1  0  0  0  0
 34 11  1  0  0  0  0
 35 13  1  0  0  0  0
 36 13  1  0  0  0  0
 40 16  1  0  0  0  0
 45 19  1  0  0  0  0
 46 19  1  0  0  0  0
 47 21  1  0  0  0  0
M  END
