1,2
 OpenBabel05122313053D

 44 45  0  0  1  0  0  0  0  0999 V2000
    1.4393    1.0460    1.2381 N   0  0  0  0  0  2  0  0  0  0  0  0
   -1.2278   -0.2764    1.3549 N   0  0  0  0  0  2  0  0  0  0  0  0
    2.1940    1.5821   -1.2275 O   0  0  0  0  0  0  0  0  0  0  0  0
   -1.9200   -1.0608   -1.0824 O   0  0  0  0  0  0  0  0  0  0  0  0
   -2.2900   -1.3748   -2.4253 C   0  0  0  0  0  0  0  0  0  0  0  0
   -1.9148   -2.3789   -2.7103 H   0  0  0  0  0  0  0  0  0  0  0  0
   -1.8178   -0.6055   -3.0602 H   0  0  0  0  0  0  0  0  0  0  0  0
   -3.3925   -1.3250   -2.5407 H   0  0  0  0  0  0  0  0  0  0  0  0
   -2.4204   -1.8404   -0.0556 C   0  0  0  0  0  0  0  0  0  0  0  0
   -2.0364   -1.4154    1.2483 C   0  0  0  0  0  0  0  0  0  0  0  0
   -2.6686    0.6667    3.1707 C   0  0  0  0  0  0  0  0  0  0  0  0
   -3.5070    0.1738    2.6456 H   0  0  0  0  0  0  0  0  0  0  0  0
   -2.9278    1.7310    3.3352 H   0  0  0  0  0  0  0  0  0  0  0  0
   -2.5713    0.1997    4.1721 H   0  0  0  0  0  0  0  0  0  0  0  0
   -1.3757    0.5960    2.3745 C   0  0  0  0  0  0  0  0  0  0  0  0
   -0.3910    1.5414    2.7439 C   0  0  0  0  0  0  0  0  0  0  0  0
   -0.6866    2.2198    3.5566 H   0  0  0  0  0  0  0  0  0  0  0  0
    0.9613    1.6567    2.3319 C   0  0  2  0  0  3  0  0  0  0  0  0
    1.8404    2.5593    3.1764 C   0  0  0  0  0  0  0  0  0  0  0  0
    2.2399    2.0255    4.0634 H   0  0  0  0  0  0  0  0  0  0  0  0
    1.2424    3.4100    3.5559 H   0  0  0  0  0  0  0  0  0  0  0  0
    2.7032    2.9489    2.6041 H   0  0  0  0  0  0  0  0  0  0  0  0
   -2.4245   -2.2335    2.3328 C   0  0  0  0  0  0  0  0  0  0  0  0
   -2.0744   -1.9706    3.3403 H   0  0  0  0  0  0  0  0  0  0  0  0
   -3.2138   -3.3769    2.1404 C   0  0  0  0  0  0  0  0  0  0  0  0
   -3.4972   -3.9939    3.0059 H   0  0  0  0  0  0  0  0  0  0  0  0
   -3.6266   -3.7376    0.8514 C   0  0  0  0  0  0  0  0  0  0  0  0
   -4.2474   -4.6310    0.6916 H   0  0  0  0  0  0  0  0  0  0  0  0
   -3.2219   -2.9696   -0.2556 C   0  0  0  0  0  0  0  0  0  0  0  0
   -3.5211   -3.2708   -1.2675 H   0  0  0  0  0  0  0  0  0  0  0  0
    2.8105    0.9528    0.9597 C   0  0  0  0  0  0  0  0  0  0  0  0
    3.2209    1.2016   -0.3820 C   0  0  0  0  0  0  0  0  0  0  0  0
    4.5550    1.0526   -0.7777 C   0  0  0  0  0  0  0  0  0  0  0  0
    4.8573    1.2493   -1.8144 H   0  0  0  0  0  0  0  0  0  0  0  0
    5.5138    0.6377    0.1656 C   0  0  0  0  0  0  0  0  0  0  0  0
    6.5606    0.5137   -0.1483 H   0  0  0  0  0  0  0  0  0  0  0  0
    5.1322    0.3714    1.4869 C   0  0  0  0  0  0  0  0  0  0  0  0
    5.8768    0.0269    2.2195 H   0  0  0  0  0  0  0  0  0  0  0  0
    3.7923    0.5230    1.8765 C   0  0  0  0  0  0  0  0  0  0  0  0
    3.4810    0.2756    2.9010 H   0  0  0  0  0  0  0  0  0  0  0  0
    2.5069    1.8819   -2.5877 C   0  0  0  0  0  0  0  0  0  0  0  0
    3.2247    2.7268   -2.6418 H   0  0  0  0  0  0  0  0  0  0  0  0
    1.5509    2.1693   -3.0599 H   0  0  0  0  0  0  0  0  0  0  0  0
    2.9250    0.9925   -3.1043 H   0  0  0  0  0  0  0  0  0  0  0  0
  2 15  1  0  0  0  0
  3 32  1  0  0  0  0
  4  9  1  0  0  0  0
  5  4  1  0  0  0  0
  6  5  1  0  0  0  0
  7  5  1  0  0  0  0
  8  5  1  0  0  0  0
  9 10  1  0  0  0  0
 10  2  1  0  0  0  0
 10 23  2  0  0  0  0
 11 13  1  0  0  0  0
 11 14  1  0  0  0  0
 12 11  1  0  0  0  0
 15 16  2  0  0  0  0
 15 11  1  0  0  0  0
 16 17  1  0  0  0  0
 18  1  1  6  0  0  0
 18 16  1  0  0  0  0
 18 19  1  0  0  0  0
 19 21  1  0  0  0  0
 19 20  1  0  0  0  0
 22 19  1  0  0  0  0
 23 24  1  0  0  0  0
 25 23  1  0  0  0  0
 25 26  1  0  0  0  0
 27 25  2  0  0  0  0
 28 27  1  0  0  0  0
 29  9  2  0  0  0  0
 29 27  1  0  0  0  0
 30 29  1  0  0  0  0
 31  1  1  0  0  0  0
 31 39  1  0  0  0  0
 32 31  2  0  0  0  0
 33 32  1  0  0  0  0
 33 35  2  0  0  0  0
 34 33  1  0  0  0  0
 35 37  1  0  0  0  0
 36 35  1  0  0  0  0
 37 39  2  0  0  0  0
 37 38  1  0  0  0  0
 39 40  1  0  0  0  0
 41  3  1  0  0  0  0
 42 41  1  0  0  0  0
 43 41  1  0  0  0  0
 44 41  1  0  0  0  0
M  END
