1,2
 OpenBabel05122313053D

 39 42  0  0  1  0  0  0  0  0999 V2000
    1.2849    0.1130    0.0021 N   0  0  0  0  0  2  0  0  0  0  0  0
   -1.4118    0.2934    0.1283 N   0  0  0  0  0  2  0  0  0  0  0  0
   -2.6752   -1.7641    0.4086 C   0  0  0  0  0  0  0  0  0  0  0  0
   -3.2460   -2.0369    1.3241 H   0  0  0  0  0  0  0  0  0  0  0  0
   -1.6623   -2.1948    0.6485 H   0  0  0  0  0  0  0  0  0  0  0  0
    3.4198    0.8857   -0.1924 C   0  0  0  0  0  0  0  0  0  0  0  0
   -1.2590    1.6591   -0.0285 C   0  0  0  0  0  0  0  0  0  0  0  0
    2.5304    1.9413   -0.2644 N   0  0  0  0  0  0  0  0  0  0  0  0
   -2.4300    2.5031   -0.0508 C   0  0  0  0  0  0  0  0  0  0  0  0
    0.0428    2.2570   -0.1695 C   0  0  0  0  0  0  0  0  0  0  0  0
    4.8204    0.8145   -0.2558 C   0  0  0  0  0  0  0  0  0  0  0  0
    5.4400    1.7134   -0.3861 H   0  0  0  0  0  0  0  0  0  0  0  0
   -2.6448   -0.2610    0.2847 C   0  0  0  0  0  0  0  0  0  0  0  0
    0.1319    3.6559   -0.3345 C   0  0  0  0  0  0  0  0  0  0  0  0
    1.1160    4.1341   -0.4461 H   0  0  0  0  0  0  0  0  0  0  0  0
    2.6209   -0.2789   -0.0245 C   0  0  0  0  0  0  0  0  0  0  0  0
   -3.8062    0.5283    0.2778 C   0  0  0  0  0  0  0  0  0  0  0  0
   -4.7803    0.0357    0.4117 H   0  0  0  0  0  0  0  0  0  0  0  0
    3.2054   -1.5511    0.0809 C   0  0  0  0  0  0  0  0  0  0  0  0
    2.5788   -2.4455    0.1969 H   0  0  0  0  0  0  0  0  0  0  0  0
    1.2405    1.4525   -0.1424 C   0  0  1  0  0  3  0  0  0  0  0  0
   -3.7104    1.9043    0.1075 C   0  0  0  0  0  0  0  0  0  0  0  0
   -4.6062    2.5418    0.0999 H   0  0  0  0  0  0  0  0  0  0  0  0
   -3.0859   -4.0027   -0.7199 C   0  0  0  0  0  0  0  0  0  0  0  0
   -3.5434   -4.5149   -1.5895 H   0  0  0  0  0  0  0  0  0  0  0  0
   -3.5577   -4.4076    0.1998 H   0  0  0  0  0  0  0  0  0  0  0  0
   -2.0089   -4.2680   -0.7025 H   0  0  0  0  0  0  0  0  0  0  0  0
    4.6012   -1.6216    0.0196 C   0  0  0  0  0  0  0  0  0  0  0  0
    5.0956   -2.6008    0.0980 H   0  0  0  0  0  0  0  0  0  0  0  0
   -1.0122    4.4708   -0.3619 C   0  0  0  0  0  0  0  0  0  0  0  0
   -0.9012    5.5571   -0.4937 H   0  0  0  0  0  0  0  0  0  0  0  0
   -3.2442   -2.4873   -0.8211 C   0  0  0  0  0  0  0  0  0  0  0  0
   -4.3130   -2.2050   -0.9393 H   0  0  0  0  0  0  0  0  0  0  0  0
   -2.7060   -2.1189   -1.7185 H   0  0  0  0  0  0  0  0  0  0  0  0
    5.3935   -0.4591   -0.1453 C   0  0  0  0  0  0  0  0  0  0  0  0
    6.4883   -0.5577   -0.1897 H   0  0  0  0  0  0  0  0  0  0  0  0
   -2.2749    3.9072   -0.2216 C   0  0  0  0  0  3  0  0  0  0  0  0
   -3.1777    4.5357   -0.2385 H   0  0  0  0  0  0  0  0  0  0  0  0
    2.7758    2.9209   -0.3849 H   0  0  0  0  0  0  0  0  0  0  0  0
  2 13  1  0  0  0  0
  3  5  1  0  0  0  0
  3  4  1  0  0  0  0
  6 16  1  0  0  0  0
  7  2  1  0  0  0  0
  8  6  1  0  0  0  0
  8 21  1  0  0  0  0
  9  7  1  0  0  0  0
  9 22  2  0  0  0  0
 10  7  2  0  0  0  0
 11  6  2  0  0  0  0
 11 35  1  0  0  0  0
 12 11  1  0  0  0  0
 13  3  1  0  0  0  0
 14 10  1  0  0  0  0
 15 14  1  0  0  0  0
 16  1  1  0  0  0  0
 16 19  2  0  0  0  0
 17 13  2  0  0  0  0
 17 18  1  0  0  0  0
 19 20  1  0  0  0  0
 21 10  1  6  0  0  0
 21  1  1  0  0  0  0
 22 17  1  0  0  0  0
 23 22  1  0  0  0  0
 24 27  1  0  0  0  0
 24 26  1  0  0  0  0
 25 24  1  0  0  0  0
 28 19  1  0  0  0  0
 28 29  1  0  0  0  0
 30 14  2  0  0  0  0
 30 37  1  0  0  0  0
 31 30  1  0  0  0  0
 32 24  1  0  0  0  0
 32  3  1  0  0  0  0
 33 32  1  0  0  0  0
 34 32  1  0  0  0  0
 35 28  2  0  0  0  0
 36 35  1  0  0  0  0
 37  9  1  0  0  0  0
 38 37  1  0  0  0  0
 39  8  1  0  0  0  0
M  END
