1,2
 OpenBabel05122313053D

 54 58  0  0  0  0  0  0  0  0999 V2000
    1.9970   -0.2743   -0.0477 N   0  0  0  0  0  2  0  0  0  0  0  0
   -0.7037   -0.2474   -0.0184 N   0  0  0  0  0  2  0  0  0  0  0  0
   -5.0652   -0.9621   -2.0941 O   0  0  0  0  0  0  0  0  0  0  0  0
   -6.2960   -0.1619    0.1779 O   0  0  0  0  0  0  0  0  0  0  0  0
   -4.9054    0.4215    2.3849 O   0  0  0  0  0  0  0  0  0  0  0  0
    6.0262   -2.3666   -1.5449 F   0  0  0  0  0  0  0  0  0  0  0  0
    6.1969    0.5853    2.1326 F   0  0  0  0  0  0  0  0  0  0  0  0
   -0.0734    0.9059   -0.1020 C   0  0  0  0  0  0  0  0  0  0  0  0
    1.4126    0.8943   -0.1143 C   0  0  0  0  0  0  0  0  0  0  0  0
    1.8631    2.2907   -0.2844 C   0  0  0  0  0  0  0  0  0  0  0  0
    0.6688    3.0744   -0.3662 C   0  0  0  0  0  0  0  0  0  0  0  0
   -0.5254    2.2931   -0.2539 C   0  0  0  0  0  0  0  0  0  0  0  0
   -1.7607    2.9348   -0.3471 C   0  0  0  0  0  0  0  0  0  0  0  0
   -2.7026    2.3750   -0.2737 H   0  0  0  0  0  0  0  0  0  0  0  0
   -1.7807    4.3449   -0.5436 C   0  0  0  0  0  0  0  0  0  0  0  0
   -2.7563    4.8489   -0.6147 H   0  0  0  0  0  0  0  0  0  0  0  0
   -0.6158    5.1042   -0.6536 C   0  0  0  0  0  0  0  0  0  0  0  0
   -0.6777    6.1922   -0.8098 H   0  0  0  0  0  0  0  0  0  0  0  0
    0.6650    4.4761   -0.5752 C   0  0  0  0  0  0  0  0  0  0  0  0
    1.9419    5.1015   -0.7031 C   0  0  0  0  0  0  0  0  0  0  0  0
    2.0000    6.1893   -0.8627 H   0  0  0  0  0  0  0  0  0  0  0  0
    3.1092    4.3408   -0.6359 C   0  0  0  0  0  0  0  0  0  0  0  0
    4.0824    4.8426   -0.7454 H   0  0  0  0  0  0  0  0  0  0  0  0
    3.0927    2.9329   -0.4269 C   0  0  0  0  0  0  0  0  0  0  0  0
    4.0376    2.3755   -0.3795 H   0  0  0  0  0  0  0  0  0  0  0  0
    3.3892   -0.4409    0.0517 C   0  0  0  0  0  0  0  0  0  0  0  0
    4.0260   -1.3422   -0.8255 C   0  0  0  0  0  0  0  0  0  0  0  0
    3.4504   -1.8952   -1.5766 H   0  0  0  0  0  0  0  0  0  0  0  0
    5.4052   -1.5296   -0.6993 C   0  0  0  0  0  0  0  0  0  0  0  0
    6.1670   -0.8902    0.2873 C   0  0  0  0  0  0  0  0  0  0  0  0
    7.2456   -1.0700    0.3803 H   0  0  0  0  0  0  0  0  0  0  0  0
    5.4942   -0.0304    1.1648 C   0  0  0  0  0  0  0  0  0  0  0  0
    4.1223    0.2140    1.0671 C   0  0  0  0  0  0  0  0  0  0  0  0
    3.6299    0.8790    1.7885 H   0  0  0  0  0  0  0  0  0  0  0  0
   -2.1291   -0.2496    0.0351 C   0  0  0  0  0  0  0  0  0  0  0  0
   -2.8521   -0.6328   -1.1041 C   0  0  0  0  0  0  0  0  0  0  0  0
   -2.3025   -0.9302   -2.0046 H   0  0  0  0  0  0  0  0  0  0  0  0
   -4.2604   -0.6177   -1.0548 C   0  0  0  0  0  0  0  0  0  0  0  0
   -4.9343   -0.2251    0.1297 C   0  0  0  0  0  0  0  0  0  0  0  0
   -4.1780    0.1125    1.2815 C   0  0  0  0  0  0  0  0  0  0  0  0
   -2.7690    0.1163    1.2309 C   0  0  0  0  0  0  0  0  0  0  0  0
   -2.1577    0.3792    2.1023 H   0  0  0  0  0  0  0  0  0  0  0  0
   -4.4548   -1.3896   -3.2991 C   0  0  0  0  0  0  0  0  0  0  0  0
   -5.2779   -1.6332   -3.9956 H   0  0  0  0  0  0  0  0  0  0  0  0
   -3.8266   -2.2952   -3.1462 H   0  0  0  0  0  0  0  0  0  0  0  0
   -3.8254   -0.5895   -3.7485 H   0  0  0  0  0  0  0  0  0  0  0  0
   -6.9538   -1.4185    0.3243 C   0  0  0  0  0  0  0  0  0  0  0  0
   -8.0395   -1.2072    0.3620 H   0  0  0  0  0  0  0  0  0  0  0  0
   -6.6512   -1.9239    1.2683 H   0  0  0  0  0  0  0  0  0  0  0  0
   -6.7447   -2.0913   -0.5353 H   0  0  0  0  0  0  0  0  0  0  0  0
   -4.2078    0.7784    3.5635 C   0  0  0  0  0  0  0  0  0  0  0  0
   -4.9768    0.9862    4.3301 H   0  0  0  0  0  0  0  0  0  0  0  0
   -3.5875    1.6912    3.4167 H   0  0  0  0  0  0  0  0  0  0  0  0
   -3.5504   -0.0448    3.9230 H   0  0  0  0  0  0  0  0  0  0  0  0
  1 26  1  0  0  0  0
  2 35  1  0  0  0  0
  3 38  1  0  0  0  0
  4 47  1  0  0  0  0
  5 51  1  0  0  0  0
  6 29  1  0  0  0  0
  8  2  1  0  0  0  0
  9  8  2  0  0  0  0
  9  1  1  0  0  0  0
 10  9  1  0  0  0  0
 11 10  1  0  0  0  0
 11 12  1  0  0  0  0
 12  8  1  0  0  0  0
 13 14  1  0  0  0  0
 13 12  2  0  0  0  0
 15 13  1  0  0  0  0
 16 15  1  0  0  0  0
 17 19  1  0  0  0  0
 17 15  2  0  0  0  0
 18 17  1  0  0  0  0
 19 11  2  0  0  0  0
 20 22  2  0  0  0  0
 20 19  1  0  0  0  0
 21 20  1  0  0  0  0
 22 24  1  0  0  0  0
 23 22  1  0  0  0  0
 24 25  1  0  0  0  0
 24 10  2  0  0  0  0
 26 33  1  0  0  0  0
 27 29  1  0  0  0  0
 27 26  2  0  0  0  0
 28 27  1  0  0  0  0
 29 30  2  0  0  0  0
 30 31  1  0  0  0  0
 30 32  1  0  0  0  0
 32  7  1  0  0  0  0
 33 32  2  0  0  0  0
 33 34  1  0  0  0  0
 35 41  1  0  0  0  0
 36 38  1  0  0  0  0
 36 35  2  0  0  0  0
 37 36  1  0  0  0  0
 38 39  2  0  0  0  0
 39  4  1  0  0  0  0
 39 40  1  0  0  0  0
 40  5  1  0  0  0  0
 41 40  2  0  0  0  0
 41 42  1  0  0  0  0
 43 45  1  0  0  0  0
 43  3  1  0  0  0  0
 44 43  1  0  0  0  0
 46 43  1  0  0  0  0
 47 48  1  0  0  0  0
 47 49  1  0  0  0  0
 50 47  1  0  0  0  0
 51 54  1  0  0  0  0
 51 52  1  0  0  0  0
 53 51  1  0  0  0  0
M  END
