1,2
 OpenBabel05122313053D

 27 29  0  0  0  0  0  0  0  0999 V2000
    1.8330    1.2721   -0.0243 N   0  0  0  0  0  2  0  0  0  0  0  0
   -0.4490    0.0201    0.0193 N   0  0  0  0  0  2  0  0  0  0  0  0
   -1.6392   -0.5199    0.0371 N   0  0  0  0  0  2  0  0  0  0  0  0
   -2.5125    0.5112    0.0062 N   0  0  0  0  0  0  0  0  0  0  0  0
    3.0780    1.8046   -0.0422 C   0  0  0  0  0  3  0  0  0  0  0  0
    3.8894    1.0563   -0.0272 H   0  0  0  0  0  0  0  0  0  0  0  0
    3.2885    3.1848   -0.0782 C   0  0  0  0  0  0  0  0  0  0  0  0
    4.3187    3.5678   -0.0916 H   0  0  0  0  0  0  0  0  0  0  0  0
    2.1859    4.0559   -0.0966 C   0  0  0  0  0  0  0  0  0  0  0  0
    2.3281    5.1459   -0.1249 H   0  0  0  0  0  0  0  0  0  0  0  0
    0.8977    3.5099   -0.0780 C   0  0  0  0  0  0  0  0  0  0  0  0
    0.0063    4.1529   -0.0907 H   0  0  0  0  0  0  0  0  0  0  0  0
    0.7443    2.1156   -0.0419 C   0  0  0  0  0  0  0  0  0  0  0  0
   -0.5209    1.4057   -0.0186 C   0  0  0  0  0  0  0  0  0  0  0  0
   -1.8714    1.7220   -0.0306 C   0  0  0  0  0  0  0  0  0  0  0  0
   -2.4003    2.6757   -0.0875 H   0  0  0  0  0  0  0  0  0  0  0  0
   -3.9132    0.2420   -0.0004 C   0  0  0  0  0  0  0  0  0  0  0  0
   -4.8286    1.2603    0.3192 C   0  0  0  0  0  0  0  0  0  0  0  0
   -4.4815    2.2621    0.6086 H   0  0  0  0  0  0  0  0  0  0  0  0
   -6.2012    0.9789    0.2924 C   0  0  0  0  0  0  0  0  0  0  0  0
   -6.9192    1.7734    0.5436 H   0  0  0  0  0  0  0  0  0  0  0  0
   -6.6563   -0.3073   -0.0370 C   0  0  0  0  0  0  0  0  0  0  0  0
   -7.7347   -0.5232   -0.0523 H   0  0  0  0  0  0  0  0  0  0  0  0
   -5.7296   -1.3180   -0.3404 C   0  0  0  0  0  0  0  0  0  0  0  0
   -6.0785   -2.3295   -0.5957 H   0  0  0  0  0  0  0  0  0  0  0  0
   -4.3547   -1.0532   -0.3278 C   0  0  0  0  0  0  0  0  0  0  0  0
   -3.6146   -1.8296   -0.5630 H   0  0  0  0  0  0  0  0  0  0  0  0
  2  3  1  0  0  0  0
  4  3  1  0  0  0  0
  5  6  1  0  0  0  0
  5  1  1  0  0  0  0
  7  5  1  0  0  0  0
  8  7  1  0  0  0  0
  9  7  2  0  0  0  0
  9 11  1  0  0  0  0
 10  9  1  0  0  0  0
 11 13  2  0  0  0  0
 12 11  1  0  0  0  0
 13  1  1  0  0  0  0
 13 14  1  0  0  0  0
 14  2  1  0  0  0  0
 15 14  2  0  0  0  0
 15  4  1  0  0  0  0
 16 15  1  0  0  0  0
 17  4  1  0  0  0  0
 17 18  1  0  0  0  0
 18 19  1  0  0  0  0
 20 18  2  0  0  0  0
 20 21  1  0  0  0  0
 22 20  1  0  0  0  0
 23 22  1  0  0  0  0
 24 26  1  0  0  0  0
 24 22  2  0  0  0  0
 25 24  1  0  0  0  0
 26 17  2  0  0  0  0
 27 26  1  0  0  0  0
M  END
