4,5
 OpenBabel05122313053D

 27 29  0  0  1  0  0  0  0  0999 V2000
    0.3394   -0.6237   -3.1727 O   0  0  0  0  0  0  0  0  0  0  0  0
   -4.9569   -1.7999    0.0491 O   0  0  0  0  0  0  0  0  0  0  0  0
   -4.5881   -3.9471   -0.7340 O   0  0  0  0  0  0  0  0  0  0  0  0
    1.5762    1.2386   -0.4038 N   0  0  0  0  0  2  0  0  0  0  0  0
   -0.3822   -0.3355   -0.9610 N   0  0  0  0  0  2  0  0  0  0  0  0
   -1.4377   -1.2655   -1.0398 C   0  0  0  0  0  0  0  0  0  0  0  0
   -3.4657   -3.1834   -0.9555 C   0  0  0  0  0  0  0  0  0  0  0  0
    1.5476    0.8041   -1.6858 C   0  0  2  0  0  3  0  0  0  0  0  0
   -2.2438   -3.5524   -1.5088 C   0  0  0  0  0  0  0  0  0  0  0  0
   -2.0686   -4.5696   -1.8842 H   0  0  0  0  0  0  0  0  0  0  0  0
   -3.6893   -1.8782   -0.4859 C   0  0  0  0  0  0  0  0  0  0  0  0
   -2.7145   -0.8956   -0.5290 C   0  0  0  0  0  0  0  0  0  0  0  0
   -2.9058    0.1210   -0.1668 H   0  0  0  0  0  0  0  0  0  0  0  0
   -1.2313   -2.5727   -1.5402 C   0  0  0  0  0  0  0  0  0  0  0  0
   -0.2541   -2.8212   -1.9700 H   0  0  0  0  0  0  0  0  0  0  0  0
    2.4602    1.2646   -2.6423 C   0  0  0  0  0  0  0  0  0  0  0  0
    2.3786    0.8431   -3.6543 H   0  0  0  0  0  0  0  0  0  0  0  0
   -5.5999   -3.0141   -0.3441 C   0  0  0  0  0  0  0  0  0  0  0  0
   -6.1759   -3.4255    0.5112 H   0  0  0  0  0  0  0  0  0  0  0  0
   -6.2789   -2.8156   -1.2117 H   0  0  0  0  0  0  0  0  0  0  0  0
    0.4507   -0.1605   -2.0306 C   0  0  0  0  0  0  0  0  0  0  0  0
    2.4536    2.1951   -0.0434 C   0  0  0  0  0  0  0  0  0  0  0  0
    2.4172    2.5374    1.0001 H   0  0  0  0  0  0  0  0  0  0  0  0
    3.4043    2.2257   -2.2663 C   0  0  0  0  0  0  0  0  0  0  0  0
    4.1433    2.6011   -2.9898 H   0  0  0  0  0  0  0  0  0  0  0  0
    3.3853    2.7137   -0.9493 C   0  0  0  0  0  0  0  0  0  0  0  0
    4.0934    3.4829   -0.6119 H   0  0  0  0  0  0  0  0  0  0  0  0
  1 21  2  0  0  0  0
  3 18  1  0  0  0  0
  4 22  1  0  0  0  0
  6  5  1  0  0  0  0
  6 12  1  0  0  0  0
  7  3  1  0  0  0  0
  7 11  1  0  0  0  0
  8 21  1  6  0  0  0
  8  4  1  0  0  0  0
  9  7  2  0  0  0  0
 10  9  1  0  0  0  0
 11  2  1  0  0  0  0
 12 11  2  0  0  0  0
 12 13  1  0  0  0  0
 14  9  1  0  0  0  0
 14  6  2  0  0  0  0
 15 14  1  0  0  0  0
 16 24  2  0  0  0  0
 16  8  1  0  0  0  0
 17 16  1  0  0  0  0
 18  2  1  0  0  0  0
 18 19  1  0  0  0  0
 20 18  1  0  0  0  0
 21  5  1  0  0  0  0
 22 23  1  0  0  0  0
 24 26  1  0  0  0  0
 25 24  1  0  0  0  0
 26 27  1  0  0  0  0
 26 22  2  0  0  0  0
M  END
