4,5
 OpenBabel05122313053D

 32 34  0  0  0  0  0  0  0  0999 V2000
   -0.6054    3.2570   -0.3290 O   0  0  0  0  0  0  0  0  0  0  0  0
   -6.9065   -0.6218   -0.9251 O   0  0  0  0  0  0  0  0  0  0  0  0
   -7.1005    1.2379    0.2094 O   0  0  0  0  0  0  0  0  0  0  0  0
    1.8152    0.6605   -0.5614 N   0  0  0  0  0  2  0  0  0  0  0  0
   -0.7822    0.9147   -0.4115 N   0  0  0  0  0  2  0  0  0  0  0  0
   -6.4352    0.3753   -0.3704 N   0  0  0  0  0  0  0  0  0  0  0  0
    3.1395    0.4171   -0.8644 C   0  0  0  0  0  0  0  0  0  0  0  0
    3.6065   -0.9083   -1.0824 C   0  0  0  0  0  0  0  0  0  0  0  0
    2.8675   -1.7191   -1.0835 H   0  0  0  0  0  0  0  0  0  0  0  0
    4.9459   -1.1392   -1.3629 C   0  0  0  0  0  0  0  0  0  0  0  0
    5.2902   -2.1673   -1.5509 H   0  0  0  0  0  0  0  0  0  0  0  0
    5.8721   -0.0652   -1.4308 C   0  0  0  0  0  0  0  0  0  0  0  0
    6.9322   -0.2687   -1.6426 H   0  0  0  0  0  0  0  0  0  0  0  0
    5.4336    1.2390   -1.2599 C   0  0  0  0  0  3  0  0  0  0  0  0
    6.1341    2.0840   -1.3426 H   0  0  0  0  0  0  0  0  0  0  0  0
    4.0620    1.5182   -0.9958 C   0  0  0  0  0  0  0  0  0  0  0  0
    3.5584    2.8460   -0.8833 C   0  0  0  0  0  0  0  0  0  0  0  0
    4.2535    3.6948   -0.9747 H   0  0  0  0  0  0  0  0  0  0  0  0
    2.2046    3.0453   -0.6946 C   0  0  0  0  0  0  0  0  0  0  0  0
    1.7262    4.0336   -0.6440 H   0  0  0  0  0  0  0  0  0  0  0  0
    1.3578    1.9217   -0.5455 C   0  0  0  0  0  0  0  0  0  0  0  0
   -0.1244    2.1170   -0.3937 C   0  0  0  0  0  0  0  0  0  0  0  0
   -2.1817    0.8427   -0.4167 C   0  0  0  0  0  0  0  0  0  0  0  0
   -2.7991   -0.2518   -1.0814 C   0  0  0  0  0  0  0  0  0  0  0  0
   -2.1514   -0.9578   -1.6230 H   0  0  0  0  0  0  0  0  0  0  0  0
   -4.1838   -0.4039   -1.0739 C   0  0  0  0  0  0  0  0  0  0  0  0
   -4.6801   -1.2368   -1.5895 H   0  0  0  0  0  0  0  0  0  0  0  0
   -4.9728    0.5429   -0.3984 C   0  0  0  0  0  0  0  0  0  0  0  0
   -4.3932    1.6452    0.2457 C   0  0  0  0  0  0  0  0  0  0  0  0
   -5.0494    2.3641    0.7543 H   0  0  0  0  0  0  0  0  0  0  0  0
   -3.0050    1.8024    0.2320 C   0  0  0  0  0  0  0  0  0  0  0  0
   -2.5388    2.6714    0.7099 H   0  0  0  0  0  0  0  0  0  0  0  0
  2  6  2  0  0  0  0
  4 21  1  0  0  0  0
  5 22  1  0  0  0  0
  6  3  2  0  0  0  0
  7  4  1  0  0  0  0
  8  7  2  0  0  0  0
  9  8  1  0  0  0  0
 10  8  1  0  0  0  0
 11 10  1  0  0  0  0
 12 10  2  0  0  0  0
 12 14  1  0  0  0  0
 13 12  1  0  0  0  0
 14 16  1  0  0  0  0
 15 14  1  0  0  0  0
 16 17  2  0  0  0  0
 16  7  1  0  0  0  0
 17 19  1  0  0  0  0
 18 17  1  0  0  0  0
 19 20  1  0  0  0  0
 19 21  2  0  0  0  0
 21 22  1  0  0  0  0
 22  1  2  0  0  0  0
 23  5  1  0  0  0  0
 23 31  1  0  0  0  0
 24 26  1  0  0  0  0
 24 23  2  0  0  0  0
 25 24  1  0  0  0  0
 26 28  2  0  0  0  0
 27 26  1  0  0  0  0
 28  6  1  0  0  0  0
 28 29  1  0  0  0  0
 29 30  1  0  0  0  0
 31 29  2  0  0  0  0
 31 32  1  0  0  0  0
M  END
