1,2
 OpenBabel05122313053D

 34 35  0  0  0  0  0  0  0  0999 V2000
    0.5556   -1.4442   -0.6306 N   0  0  0  0  0  2  0  0  0  0  0  0
    0.3012    1.3899   -0.7196 N   0  0  0  0  0  2  0  0  0  0  0  0
   -1.4638   -0.1919   -0.4970 N   0  0  0  0  0  0  0  0  0  0  0  0
    1.2355   -2.5649   -0.9786 C   0  0  0  0  0  3  0  0  0  0  0  0
    2.3061   -2.5494   -0.7247 H   0  0  0  0  0  0  0  0  0  0  0  0
    0.6030   -3.6752   -1.5382 C   0  0  0  0  0  0  0  0  0  0  0  0
    1.1944   -4.5659   -1.7908 H   0  0  0  0  0  0  0  0  0  0  0  0
   -0.7819   -3.6211   -1.7573 C   0  0  0  0  0  0  0  0  0  0  0  0
   -1.3166   -4.4714   -2.2062 H   0  0  0  0  0  0  0  0  0  0  0  0
   -1.4781   -2.4578   -1.4211 C   0  0  0  0  0  0  0  0  0  0  0  0
   -2.5540   -2.3702   -1.6206 H   0  0  0  0  0  0  0  0  0  0  0  0
   -0.7806   -1.3693   -0.8518 C   0  0  0  0  0  0  0  0  0  0  0  0
    0.7733    2.5889   -1.1431 C   0  0  0  0  0  3  0  0  0  0  0  0
    1.8336    2.7722   -0.9140 H   0  0  0  0  0  0  0  0  0  0  0  0
   -0.0491    3.5408   -1.7457 C   0  0  0  0  0  0  0  0  0  0  0  0
    0.3757    4.5039   -2.0597 H   0  0  0  0  0  0  0  0  0  0  0  0
   -1.4089    3.2407   -1.9198 C   0  0  0  0  0  0  0  0  0  0  0  0
   -2.0912    3.9644   -2.3900 H   0  0  0  0  0  0  0  0  0  0  0  0
   -1.8894    1.9970   -1.5047 C   0  0  0  0  0  0  0  0  0  0  0  0
   -2.9422    1.7245   -1.6526 H   0  0  0  0  0  0  0  0  0  0  0  0
   -1.0035    1.0724   -0.9096 C   0  0  0  0  0  0  0  0  0  0  0  0
   -2.8277   -0.3017    0.0389 C   0  0  0  0  0  0  0  0  0  0  0  0
   -2.9622   -1.3595    0.3304 H   0  0  0  0  0  0  0  0  0  0  0  0
   -3.6014   -0.0915   -0.7374 H   0  0  0  0  0  0  0  0  0  0  0  0
   -3.0370    0.5884    1.2687 C   0  0  0  0  0  0  0  0  0  0  0  0
   -2.2513    0.3357    2.0131 H   0  0  0  0  0  0  0  0  0  0  0  0
   -2.8675    1.6497    0.9924 H   0  0  0  0  0  0  0  0  0  0  0  0
   -4.4326    0.4422    1.8899 C   0  0  0  0  0  0  0  0  0  0  0  0
   -4.5317    1.2040    2.6913 H   0  0  0  0  0  0  0  0  0  0  0  0
   -5.2038    0.7063    1.1314 H   0  0  0  0  0  0  0  0  0  0  0  0
   -4.7316   -0.9421    2.4721 C   0  0  0  0  0  0  0  0  0  0  0  0
   -5.7200   -0.9620    2.9727 H   0  0  0  0  0  0  0  0  0  0  0  0
   -3.9694   -1.2326    3.2248 H   0  0  0  0  0  0  0  0  0  0  0  0
   -4.7487   -1.7343    1.6951 H   0  0  0  0  0  0  0  0  0  0  0  0
  3 22  1  0  0  0  0
  4  5  1  0  0  0  0
  4  1  1  0  0  0  0
  6  4  1  0  0  0  0
  7  6  1  0  0  0  0
  8  6  2  0  0  0  0
  8 10  1  0  0  0  0
  9  8  1  0  0  0  0
 10 12  2  0  0  0  0
 11 10  1  0  0  0  0
 12  1  1  0  0  0  0
 12  3  1  0  0  0  0
 13 14  1  0  0  0  0
 13  2  1  0  0  0  0
 15 13  1  0  0  0  0
 16 15  1  0  0  0  0
 17 15  2  0  0  0  0
 17 19  1  0  0  0  0
 18 17  1  0  0  0  0
 19 21  2  0  0  0  0
 20 19  1  0  0  0  0
 21  2  1  0  0  0  0
 21  3  1  0  0  0  0
 22 23  1  0  0  0  0
 22 25  1  0  0  0  0
 24 22  1  0  0  0  0
 25 28  1  0  0  0  0
 25 26  1  0  0  0  0
 27 25  1  0  0  0  0
 28 31  1  0  0  0  0
 28 29  1  0  0  0  0
 30 28  1  0  0  0  0
 31 32  1  0  0  0  0
 31 33  1  0  0  0  0
 34 31  1  0  0  0  0
M  END
