1,11
 OpenBabel05122313053D

 28 29  0  0  0  0  0  0  0  0999 V2000
    0.3257    1.4838   -0.3697 N   0  0  0  0  0  2  0  0  0  0  0  0
    1.1814    2.4032   -0.8929 C   0  0  0  0  0  3  0  0  0  0  0  0
    2.2016    2.0313   -1.0665 H   0  0  0  0  0  0  0  0  0  0  0  0
    0.8083    3.7278   -1.1146 C   0  0  0  0  0  0  0  0  0  0  0  0
    1.5445    4.4330   -1.5240 H   0  0  0  0  0  0  0  0  0  0  0  0
   -0.5021    4.1233   -0.8074 C   0  0  0  0  0  0  0  0  0  0  0  0
   -0.8381    5.1561   -0.9820 H   0  0  0  0  0  0  0  0  0  0  0  0
   -1.3917    3.1735   -0.2982 C   0  0  0  0  0  0  0  0  0  0  0  0
   -2.4362    3.4390   -0.0890 H   0  0  0  0  0  0  0  0  0  0  0  0
   -0.9544    1.8505   -0.0808 C   0  0  0  0  0  0  0  0  0  0  0  0
   -0.8910   -1.0917   -0.4906 N   0  0  0  0  0  2  0  0  0  0  0  0
   -1.0370   -2.2893   -1.1199 C   0  0  0  0  0  3  0  0  0  0  0  0
   -0.0952   -2.8237   -1.3109 H   0  0  0  0  0  0  0  0  0  0  0  0
   -2.2879   -2.8233   -1.4243 C   0  0  0  0  0  0  0  0  0  0  0  0
   -2.3497   -3.8027   -1.9180 H   0  0  0  0  0  0  0  0  0  0  0  0
   -3.4370   -2.0933   -1.0850 C   0  0  0  0  0  0  0  0  0  0  0  0
   -4.4414   -2.4781   -1.3153 H   0  0  0  0  0  0  0  0  0  0  0  0
   -3.2880   -0.8501   -0.4651 C   0  0  0  0  0  0  0  0  0  0  0  0
   -4.1651   -0.2400   -0.2139 H   0  0  0  0  0  0  0  0  0  0  0  0
   -1.9975   -0.3615   -0.1772 C   0  0  0  0  0  0  0  0  0  0  0  0
   -1.8266    0.8852    0.4514 N   0  0  0  0  0  0  0  0  0  0  0  0
   -2.8162    1.3068    1.4560 C   0  0  0  0  0  0  0  0  0  0  0  0
   -3.8083    1.5222    0.9938 H   0  0  0  0  0  0  0  0  0  0  0  0
   -2.4493    2.2675    1.8638 H   0  0  0  0  0  0  0  0  0  0  0  0
   -2.9457    0.2973    2.5940 C   0  0  0  0  0  0  0  0  0  0  0  0
   -3.6327    0.6919    3.3684 H   0  0  0  0  0  0  0  0  0  0  0  0
   -1.9565    0.1116    3.0563 H   0  0  0  0  0  0  0  0  0  0  0  0
   -3.3482   -0.6746    2.2483 H   0  0  0  0  0  0  0  0  0  0  0  0
  1 10  1  0  0  0  0
  2  1  1  0  0  0  0
  3  2  1  0  0  0  0
  4  2  1  0  0  0  0
  4  6  2  0  0  0  0
  5  4  1  0  0  0  0
  6  8  1  0  0  0  0
  7  6  1  0  0  0  0
  8  9  1  0  0  0  0
  8 10  2  0  0  0  0
 10 21  1  0  0  0  0
 11 20  1  0  0  0  0
 12 11  1  0  0  0  0
 13 12  1  0  0  0  0
 14 12  1  0  0  0  0
 14 16  2  0  0  0  0
 15 14  1  0  0  0  0
 16 18  1  0  0  0  0
 17 16  1  0  0  0  0
 18 19  1  0  0  0  0
 18 20  2  0  0  0  0
 20 21  1  0  0  0  0
 21 22  1  0  0  0  0
 22 24  1  0  0  0  0
 22 25  1  0  0  0  0
 23 22  1  0  0  0  0
 25 27  1  0  0  0  0
 25 26  1  0  0  0  0
 28 25  1  0  0  0  0
M  END
