1,4
 OpenBabel05122313053D

 46 45  0  0  0  0  0  0  0  0999 V2000
   -1.3232    1.0464   -0.3653 N   0  0  0  0  0  2  0  0  0  0  0  0
   -3.1135    0.0483   -1.4739 N   0  0  0  0  0  0  0  0  0  0  0  0
   -3.5562    1.5669    0.2673 N   0  0  0  0  0  0  0  0  0  0  0  0
    1.3231    1.0468    0.3660 N   0  0  0  0  0  2  0  0  0  0  0  0
    3.1140    0.0482    1.4729 N   0  0  0  0  0  0  0  0  0  0  0  0
    3.5557    1.5677   -0.2678 N   0  0  0  0  0  0  0  0  0  0  0  0
   -2.6213    0.8942   -0.5078 C   0  0  0  0  0  3  0  0  0  0  0  0
   -2.2407   -0.3896   -2.5537 C   0  0  0  0  0  0  0  0  0  0  0  0
   -1.4860    0.3881   -2.7627 H   0  0  0  0  0  0  0  0  0  0  0  0
   -2.8551   -0.5783   -3.4590 H   0  0  0  0  0  0  0  0  0  0  0  0
   -1.6905   -1.3165   -2.2878 H   0  0  0  0  0  0  0  0  0  0  0  0
   -4.2095   -0.8650   -1.1782 C   0  0  0  0  0  0  0  0  0  0  0  0
   -3.7991   -1.8820   -0.9934 H   0  0  0  0  0  0  0  0  0  0  0  0
   -4.9338   -0.9019   -2.0196 H   0  0  0  0  0  0  0  0  0  0  0  0
   -4.7416   -0.5440   -0.2655 H   0  0  0  0  0  0  0  0  0  0  0  0
   -3.3432    1.7140    1.6963 C   0  0  0  0  0  0  0  0  0  0  0  0
   -2.5138    1.0552    2.0195 H   0  0  0  0  0  0  0  0  0  0  0  0
   -4.2610    1.3998    2.2423 H   0  0  0  0  0  0  0  0  0  0  0  0
   -3.1163    2.7629    1.9955 H   0  0  0  0  0  0  0  0  0  0  0  0
   -4.8014    2.0736   -0.2724 C   0  0  0  0  0  0  0  0  0  0  0  0
   -4.7949    1.9713   -1.3731 H   0  0  0  0  0  0  0  0  0  0  0  0
   -4.9223    3.1506   -0.0183 H   0  0  0  0  0  0  0  0  0  0  0  0
   -5.6941    1.5348    0.1239 H   0  0  0  0  0  0  0  0  0  0  0  0
   -0.7431    2.2565    0.1913 C   0  0  0  0  0  0  0  0  0  0  0  0
   -0.8067    2.2897    1.3033 H   0  0  0  0  0  0  0  0  0  0  0  0
   -1.2528    3.1673   -0.1969 H   0  0  0  0  0  0  0  0  0  0  0  0
    0.7423    2.2570   -0.1898 C   0  0  0  0  0  0  0  0  0  0  0  0
    0.8060    2.2913   -1.3017 H   0  0  0  0  0  0  0  0  0  0  0  0
    1.2516    3.1678    0.1993 H   0  0  0  0  0  0  0  0  0  0  0  0
    2.6212    0.8946    0.5076 C   0  0  0  0  0  3  0  0  0  0  0  0
    2.2421   -0.3902    2.5532 C   0  0  0  0  0  0  0  0  0  0  0  0
    1.4870    0.3872    2.7625 H   0  0  0  0  0  0  0  0  0  0  0  0
    2.8570   -0.5786    3.4582 H   0  0  0  0  0  0  0  0  0  0  0  0
    1.6922   -1.3174    2.2875 H   0  0  0  0  0  0  0  0  0  0  0  0
    4.2102   -0.8646    1.1764 C   0  0  0  0  0  0  0  0  0  0  0  0
    3.8001   -1.8819    0.9928 H   0  0  0  0  0  0  0  0  0  0  0  0
    4.9358   -0.9005    2.0167 H   0  0  0  0  0  0  0  0  0  0  0  0
    4.7408   -0.5438    0.2626 H   0  0  0  0  0  0  0  0  0  0  0  0
    3.3418    1.7156   -1.6966 C   0  0  0  0  0  0  0  0  0  0  0  0
    2.5126    1.0565   -2.0196 H   0  0  0  0  0  0  0  0  0  0  0  0
    4.2595    1.4023   -2.2433 H   0  0  0  0  0  0  0  0  0  0  0  0
    3.1142    2.7646   -1.9951 H   0  0  0  0  0  0  0  0  0  0  0  0
    4.8011    2.0743    0.2715 C   0  0  0  0  0  0  0  0  0  0  0  0
    4.7952    1.9715    1.3721 H   0  0  0  0  0  0  0  0  0  0  0  0
    4.9218    3.1515    0.0178 H   0  0  0  0  0  0  0  0  0  0  0  0
    5.6937    1.5358   -0.1255 H   0  0  0  0  0  0  0  0  0  0  0  0
  1 24  1  0  0  0  0
  2 12  1  0  0  0  0
  2  7  1  0  0  0  0
  3 16  1  0  0  0  0
  4 30  1  0  0  0  0
  5 31  1  0  0  0  0
  6 43  1  0  0  0  0
  6 30  1  0  0  0  0
  7  1  1  0  0  0  0
  7  3  1  0  0  0  0
  8 11  1  0  0  0  0
  8  2  1  0  0  0  0
  9  8  1  0  0  0  0
 10  8  1  0  0  0  0
 12 13  1  0  0  0  0
 12 15  1  0  0  0  0
 14 12  1  0  0  0  0
 16 19  1  0  0  0  0
 16 17  1  0  0  0  0
 16 18  1  0  0  0  0
 20 22  1  0  0  0  0
 20 23  1  0  0  0  0
 20  3  1  0  0  0  0
 21 20  1  0  0  0  0
 24 25  1  0  0  0  0
 26 24  1  0  0  0  0
 27 24  1  0  0  0  0
 27 29  1  0  0  0  0
 27  4  1  0  0  0  0
 28 27  1  0  0  0  0
 30  5  1  0  0  0  0
 31 32  1  0  0  0  0
 31 33  1  0  0  0  0
 34 31  1  0  0  0  0
 35  5  1  0  0  0  0
 35 37  1  0  0  0  0
 36 35  1  0  0  0  0
 38 35  1  0  0  0  0
 39  6  1  0  0  0  0
 40 39  1  0  0  0  0
 41 39  1  0  0  0  0
 42 39  1  0  0  0  0
 43 44  1  0  0  0  0
 45 43  1  0  0  0  0
 46 43  1  0  0  0  0
M  END
