17,18
 OpenBabel05122313053D

 23 23  0  0  1  0  0  0  0  0999 V2000
   -2.7681   -0.4512    0.7355 C   0  0  0  0  0  3  0  0  0  0  0  0
   -2.9077    0.5842    1.0929 H   0  0  0  0  0  0  0  0  0  0  0  0
   -3.7443   -1.4532    0.8615 C   0  0  0  0  0  0  0  0  0  0  0  0
   -4.7037   -1.2292    1.3489 H   0  0  0  0  0  0  0  0  0  0  0  0
   -3.4602   -2.7278    0.3552 C   0  0  0  0  0  0  0  0  0  0  0  0
   -4.2005   -3.5389    0.4281 H   0  0  0  0  0  0  0  0  0  0  0  0
   -2.2185   -2.9655   -0.2505 C   0  0  0  0  0  0  0  0  0  0  0  0
   -1.9850   -3.9579   -0.6591 H   0  0  0  0  0  0  0  0  0  0  0  0
   -1.2855   -1.9130   -0.3344 C   0  0  0  0  0  0  0  0  0  0  0  0
    0.0631   -2.0597   -0.9286 C   0  0  2  0  0  3  0  0  0  0  0  0
    0.6672   -3.3849   -1.2883 C   0  0  0  0  0  0  0  0  0  0  0  0
    1.5607   -3.5697   -0.6501 H   0  0  0  0  0  0  0  0  0  0  0  0
    0.9989   -3.3999   -2.3484 H   0  0  0  0  0  0  0  0  0  0  0  0
   -0.0227   -4.2313   -1.1354 H   0  0  0  0  0  0  0  0  0  0  0  0
    2.6846    0.2866   -1.1995 C   0  0  0  0  0  0  0  0  0  0  0  0
    2.0919    1.3455   -1.0387 O   0  0  0  0  0  0  0  0  0  0  0  0
   -1.5828   -0.6835    0.1557 N   0  0  0  0  0  2  0  0  0  0  0  0
    0.7259   -0.9452   -1.0484 N   0  0  0  0  0  2  0  0  0  0  0  0
    1.9807   -0.9116   -1.4949 N   0  0  0  0  0  0  0  0  0  0  0  0
    4.0506    0.1265   -1.2282 N   0  0  0  0  0  0  0  0  0  0  0  0
    2.5189   -1.7872   -1.4999 H   0  0  0  0  0  0  0  0  0  0  0  0
    4.5302    0.9816   -0.9352 H   0  0  0  0  0  0  0  0  0  0  0  0
    4.3869   -0.6939   -0.7136 H   0  0  0  0  0  0  0  0  0  0  0  0
  1  3  1  0  0  0  0
  1  2  1  0  0  0  0
  3  4  1  0  0  0  0
  5  6  1  0  0  0  0
  5  3  2  0  0  0  0
  7  5  1  0  0  0  0
  8  7  1  0  0  0  0
  9  7  2  0  0  0  0
  9 17  1  0  0  0  0
 10 18  1  1  0  0  0
 10  9  1  0  0  0  0
 11 14  1  0  0  0  0
 11 10  1  0  0  0  0
 11 12  1  0  0  0  0
 13 11  1  0  0  0  0
 15 16  2  0  0  0  0
 17  1  1  0  0  0  0
 19 15  1  0  0  0  0
 19 18  1  0  0  0  0
 20 15  1  0  0  0  0
 20 22  1  0  0  0  0
 20 23  1  0  0  0  0
 21 19  1  0  0  0  0
M  END
