2,3
 OpenBabel05122313053D

 35 39  0  0  1  0  0  0  0  0999 V2000
   -0.8824    3.1081   -0.0818 S   0  0  0  0  0  0  0  0  0  0  0  0
   -0.7489    0.5266   -0.2947 N   0  0  0  0  0  2  0  0  0  0  0  0
    1.9431    0.2499   -0.1686 N   0  0  0  0  0  2  0  0  0  0  0  0
    5.6208    0.8162   -0.1840 C   0  0  0  0  0  3  0  0  0  0  0  0
    6.3401    1.6494   -0.1915 H   0  0  0  0  0  0  0  0  0  0  0  0
    3.2866    0.0155   -0.1774 C   0  0  0  0  0  0  0  0  0  0  0  0
    4.2286    1.1080   -0.1954 C   0  0  0  0  0  0  0  0  0  0  0  0
   -3.1534   -0.1496   -0.2661 C   0  0  0  0  0  0  0  0  0  0  0  0
    2.3348    2.6354   -0.2495 C   0  0  0  0  0  0  0  0  0  0  0  0
    1.9108    3.6493   -0.2904 H   0  0  0  0  0  0  0  0  0  0  0  0
   -2.0873    0.8126   -0.2271 C   0  0  0  0  0  0  0  0  0  0  0  0
   -3.6969    2.6891   -0.0085 C   0  0  0  0  0  0  0  0  0  0  0  0
   -3.8970    3.7654    0.0858 H   0  0  0  0  0  0  0  0  0  0  0  0
    3.7582   -1.3283   -0.1742 C   0  0  0  0  0  0  0  0  0  0  0  0
    3.0185   -2.1446   -0.2098 H   0  0  0  0  0  0  0  0  0  0  0  0
   -2.9353   -1.5439   -0.4120 C   0  0  0  0  0  0  0  0  0  0  0  0
   -1.9165   -1.9401   -0.5449 H   0  0  0  0  0  0  0  0  0  0  0  0
    0.0108    1.6064   -0.2283 C   0  0  2  0  0  3  0  0  0  0  0  0
   -2.3720    2.1973   -0.1067 C   0  0  0  0  0  0  0  0  0  0  0  0
    1.4718    1.5030   -0.2173 C   0  0  0  0  0  0  0  0  0  0  0  0
    5.1231   -1.5724   -0.1677 C   0  0  0  0  0  0  0  0  0  0  0  0
    5.4879   -2.6104   -0.1692 H   0  0  0  0  0  0  0  0  0  0  0  0
   -4.0160   -2.4188   -0.4181 C   0  0  0  0  0  0  0  0  0  0  0  0
   -3.8335   -3.4977   -0.5312 H   0  0  0  0  0  0  0  0  0  0  0  0
    6.0583   -0.5008   -0.1659 C   0  0  0  0  0  0  0  0  0  0  0  0
    7.1361   -0.7211   -0.1566 H   0  0  0  0  0  0  0  0  0  0  0  0
   -4.4976    0.3563   -0.1453 C   0  0  0  0  0  0  0  0  0  0  0  0
   -4.7291    1.7663   -0.0223 C   0  0  0  0  0  0  0  0  0  0  0  0
   -5.7694    2.1160    0.0634 H   0  0  0  0  0  0  0  0  0  0  0  0
    3.7027    2.4309   -0.2278 C   0  0  0  0  0  0  0  0  0  0  0  0
    4.3961    3.2859   -0.2425 H   0  0  0  0  0  0  0  0  0  0  0  0
   -5.5768   -0.5712   -0.1559 C   0  0  0  0  0  0  0  0  0  0  0  0
   -6.6045   -0.1884   -0.0600 H   0  0  0  0  0  0  0  0  0  0  0  0
   -5.3406   -1.9341   -0.2846 C   0  0  0  0  0  0  0  0  0  0  0  0
   -6.1845   -2.6403   -0.2882 H   0  0  0  0  0  0  0  0  0  0  0  0
  2 18  1  0  0  0  0
  2 11  1  0  0  0  0
  4 25  1  0  0  0  0
  5  4  1  0  0  0  0
  6 14  2  0  0  0  0
  6  3  1  0  0  0  0
  7  4  1  0  0  0  0
  7  6  1  0  0  0  0
  8 11  2  0  0  0  0
  8 27  1  0  0  0  0
  9 30  1  0  0  0  0
  9 20  2  0  0  0  0
 10  9  1  0  0  0  0
 11 19  1  0  0  0  0
 12 13  1  0  0  0  0
 14 21  1  0  0  0  0
 15 14  1  0  0  0  0
 16  8  1  0  0  0  0
 17 16  1  0  0  0  0
 18 20  1  1  0  0  0
 18  1  1  0  0  0  0
 19  1  1  0  0  0  0
 19 12  2  0  0  0  0
 20  3  1  0  0  0  0
 21 25  2  0  0  0  0
 22 21  1  0  0  0  0
 23 16  2  0  0  0  0
 23 34  1  0  0  0  0
 24 23  1  0  0  0  0
 25 26  1  0  0  0  0
 27 28  2  0  0  0  0
 28 12  1  0  0  0  0
 28 29  1  0  0  0  0
 30  7  2  0  0  0  0
 31 30  1  0  0  0  0
 32 27  1  0  0  0  0
 32 33  1  0  0  0  0
 34 32  2  0  0  0  0
 35 34  1  0  0  0  0
M  END
