2,4
 OpenBabel05122313053D

 31 33  0  0  1  0  0  0  0  0999 V2000
    1.7736    0.6247    0.5428 N   0  0  0  0  0  0  0  0  0  0  0  0
   -0.1578    1.6608   -0.3833 N   0  0  0  0  0  2  0  0  0  0  0  0
    4.1186    1.1072    0.5101 N   0  0  0  0  0  0  0  0  0  0  0  0
   -0.1102   -0.3802    1.6092 N   0  0  0  0  0  2  0  0  0  0  0  0
    1.1554    1.7381   -0.0782 C   0  0  1  0  0  3  0  0  0  0  0  0
    1.9002    2.9038   -0.3647 C   0  0  0  0  0  0  0  0  0  0  0  0
    2.9547    2.9437   -0.0643 H   0  0  0  0  0  0  0  0  0  0  0  0
    1.2562    3.9773   -0.9840 C   0  0  0  0  0  0  0  0  0  0  0  0
    1.8233    4.8920   -1.2142 H   0  0  0  0  0  0  0  0  0  0  0  0
   -0.1160    3.8951   -1.2734 C   0  0  0  0  0  0  0  0  0  0  0  0
   -0.6597    4.7264   -1.7429 H   0  0  0  0  0  0  0  0  0  0  0  0
   -0.7858    2.7179   -0.9400 C   0  0  0  0  0  0  0  0  0  0  0  0
   -1.8666    2.5824   -1.1162 H   0  0  0  0  0  0  0  0  0  0  0  0
    3.1268    0.2707    0.1822 C   0  0  0  0  0  0  0  0  0  0  0  0
    3.3183   -0.9556   -0.4810 C   0  0  0  0  0  0  0  0  0  0  0  0
    2.4429   -1.5695   -0.7529 H   0  0  0  0  0  0  0  0  0  0  0  0
    4.6302   -1.3218   -0.8062 C   0  0  0  0  0  0  0  0  0  0  0  0
    4.8243   -2.2695   -1.3308 H   0  0  0  0  0  0  0  0  0  0  0  0
    5.6819   -0.4554   -0.4696 C   0  0  0  0  0  0  0  0  0  0  0  0
    6.7263   -0.7027   -0.7098 H   0  0  0  0  0  0  0  0  0  0  0  0
    5.3714    0.7504    0.1773 C   0  0  0  0  0  0  0  0  0  0  0  0
    6.1692    1.4636    0.4481 H   0  0  0  0  0  0  0  0  0  0  0  0
    1.2106   -0.1075    1.6089 C   0  0  2  0  0  3  0  0  0  0  0  0
    2.0398   -0.5338    2.6736 C   0  0  0  0  0  0  0  0  0  0  0  0
    3.1069   -0.2765    2.6700 H   0  0  0  0  0  0  0  0  0  0  0  0
    1.4667   -1.2381    3.7332 C   0  0  0  0  0  0  0  0  0  0  0  0
    2.0975   -1.5722    4.5707 H   0  0  0  0  0  0  0  0  0  0  0  0
    0.0823   -1.4848    3.7374 C   0  0  0  0  0  0  0  0  0  0  0  0
   -0.4058   -2.0233    4.5612 H   0  0  0  0  0  0  0  0  0  0  0  0
   -0.6679   -1.0268    2.6545 C   0  0  0  0  0  0  0  0  0  0  0  0
   -1.7588   -1.1775    2.5836 H   0  0  0  0  0  0  0  0  0  0  0  0
  2  5  1  0  0  0  0
  4 30  1  0  0  0  0
  5  1  1  1  0  0  0
  6  5  1  0  0  0  0
  6  7  1  0  0  0  0
  8  6  2  0  0  0  0
  9  8  1  0  0  0  0
 10  8  1  0  0  0  0
 10 12  2  0  0  0  0
 11 10  1  0  0  0  0
 12  2  1  0  0  0  0
 13 12  1  0  0  0  0
 14  3  1  0  0  0  0
 14  1  1  0  0  0  0
 15 14  2  0  0  0  0
 16 15  1  0  0  0  0
 17 15  1  0  0  0  0
 17 19  2  0  0  0  0
 18 17  1  0  0  0  0
 19 21  1  0  0  0  0
 20 19  1  0  0  0  0
 21 22  1  0  0  0  0
 21  3  2  0  0  0  0
 23  1  1  1  0  0  0
 23  4  1  0  0  0  0
 23 24  1  0  0  0  0
 24 26  2  0  0  0  0
 25 24  1  0  0  0  0
 26 28  1  0  0  0  0
 26 27  1  0  0  0  0
 28 29  1  0  0  0  0
 30 28  2  0  0  0  0
 31 30  1  0  0  0  0
M  END
