1,2
 OpenBabel05122313053D

 32 33  0  0  1  0  0  0  0  0999 V2000
    2.1326   -0.1372    0.2344 N   0  0  0  0  0  2  0  0  0  0  0  0
   -0.3631    0.8634   -0.1001 N   0  0  0  0  0  2  0  0  0  0  0  0
    3.3384   -0.6515    0.5729 C   0  0  0  0  0  0  0  0  0  0  0  0
    3.3705   -1.7400    0.7174 H   0  0  0  0  0  0  0  0  0  0  0  0
    4.4850    0.1301    0.7209 C   0  0  0  0  0  0  0  0  0  0  0  0
    5.4335   -0.3491    1.0016 H   0  0  0  0  0  0  0  0  0  0  0  0
    4.3936    1.5135    0.5067 C   0  0  0  0  0  0  0  0  0  0  0  0
    5.2736    2.1646    0.6117 H   0  0  0  0  0  0  0  0  0  0  0  0
    3.1497    2.0516    0.1678 C   0  0  0  0  0  0  0  0  0  0  0  0
    3.0440    3.1337    0.0184 H   0  0  0  0  0  0  0  0  0  0  0  0
    2.0238    1.2145    0.0408 C   0  0  0  0  0  0  0  0  0  0  0  0
    0.6710    1.7408   -0.2493 C   0  0  0  0  0  0  0  0  0  0  0  0
    0.4590    3.0811   -0.6184 C   0  0  0  0  0  0  0  0  0  0  0  0
    1.3058    3.7622   -0.7711 H   0  0  0  0  0  0  0  0  0  0  0  0
   -0.8514    3.5335   -0.8042 C   0  0  0  0  0  0  0  0  0  0  0  0
   -1.0442    4.5724   -1.1108 H   0  0  0  0  0  0  0  0  0  0  0  0
   -1.9043    2.6472   -0.5735 C   0  0  0  0  0  0  0  0  0  0  0  0
   -2.9484    2.9762   -0.6737 H   0  0  0  0  0  0  0  0  0  0  0  0
   -1.6380    1.3094   -0.2066 C   0  0  0  0  0  0  0  0  0  0  0  0
   -2.7779    0.3769    0.1295 C   0  0  1  0  0  0  0  0  0  0  0  0
   -2.3230   -0.6072    0.3580 H   0  0  0  0  0  0  0  0  0  0  0  0
   -3.5078    0.8782    1.3986 C   0  0  0  0  0  0  0  0  0  0  0  0
   -4.0211    1.8439    1.1865 H   0  0  0  0  0  0  0  0  0  0  0  0
   -2.7437    1.1034    2.1740 H   0  0  0  0  0  0  0  0  0  0  0  0
   -4.5108   -0.1307    1.9604 C   0  0  0  0  0  0  0  0  0  0  0  0
   -5.3451   -0.3228    1.2563 H   0  0  0  0  0  0  0  0  0  0  0  0
   -4.9554    0.2342    2.9081 H   0  0  0  0  0  0  0  0  0  0  0  0
   -4.0200   -1.1041    2.1662 H   0  0  0  0  0  0  0  0  0  0  0  0
   -3.7102    0.1658   -1.0722 C   0  0  0  0  0  0  0  0  0  0  0  0
   -4.2264    1.1014   -1.3766 H   0  0  0  0  0  0  0  0  0  0  0  0
   -4.4855   -0.5866   -0.8294 H   0  0  0  0  0  0  0  0  0  0  0  0
   -3.1393   -0.2289   -1.9345 H   0  0  0  0  0  0  0  0  0  0  0  0
  1  3  1  0  0  0  0
  3  4  1  0  0  0  0
  3  5  2  0  0  0  0
  5  6  1  0  0  0  0
  7  8  1  0  0  0  0
  7  5  1  0  0  0  0
  9  7  2  0  0  0  0
 10  9  1  0  0  0  0
 11  9  1  0  0  0  0
 11  1  1  0  0  0  0
 12  2  1  0  0  0  0
 12 11  2  0  0  0  0
 13 12  1  0  0  0  0
 14 13  1  0  0  0  0
 15 13  2  0  0  0  0
 15 17  1  0  0  0  0
 16 15  1  0  0  0  0
 17 19  2  0  0  0  0
 18 17  1  0  0  0  0
 19  2  1  0  0  0  0
 19 20  1  0  0  0  0
 20 21  1  1  0  0  0
 20 22  1  0  0  0  0
 22 25  1  0  0  0  0
 22 24  1  0  0  0  0
 23 22  1  0  0  0  0
 25 28  1  0  0  0  0
 25 27  1  0  0  0  0
 26 25  1  0  0  0  0
 29 31  1  0  0  0  0
 29 20  1  0  0  0  0
 30 29  1  0  0  0  0
 32 29  1  0  0  0  0
M  END
