1,2
 OpenBabel05122313053D

 30 31  0  0  1  0  0  0  0  0999 V2000
    2.1525   -0.1126    0.1142 N   0  0  0  0  0  2  0  0  0  0  0  0
   -0.3749    0.8648    0.0080 N   0  0  0  0  0  2  0  0  0  0  0  0
   -4.0022    0.9616    0.0995 O   0  0  0  0  0  0  0  0  0  0  0  0
    3.3880   -0.6205    0.3343 C   0  0  0  0  0  0  0  0  0  0  0  0
    3.4460   -1.7132    0.4302 H   0  0  0  0  0  0  0  0  0  0  0  0
    4.5325    0.1728    0.4254 C   0  0  0  0  0  0  0  0  0  0  0  0
    5.5065   -0.3023    0.6089 H   0  0  0  0  0  0  0  0  0  0  0  0
    4.4058    1.5621    0.2805 C   0  0  0  0  0  0  0  0  0  0  0  0
    5.2822    2.2230    0.3456 H   0  0  0  0  0  0  0  0  0  0  0  0
    3.1321    2.0931    0.0628 C   0  0  0  0  0  0  0  0  0  0  0  0
    3.0003    3.1785   -0.0305 H   0  0  0  0  0  0  0  0  0  0  0  0
    2.0110    1.2435   -0.0135 C   0  0  0  0  0  0  0  0  0  0  0  0
    0.6343    1.7594   -0.1830 C   0  0  0  0  0  0  0  0  0  0  0  0
    0.3802    3.1086   -0.4937 C   0  0  0  0  0  0  0  0  0  0  0  0
    1.2071    3.8066   -0.6757 H   0  0  0  0  0  0  0  0  0  0  0  0
   -0.9445    3.5463   -0.5868 C   0  0  0  0  0  0  0  0  0  0  0  0
   -1.1673    4.5921   -0.8463 H   0  0  0  0  0  0  0  0  0  0  0  0
   -1.9747    2.6396   -0.3283 C   0  0  0  0  0  0  0  0  0  0  0  0
   -3.0349    2.9192   -0.3585 H   0  0  0  0  0  0  0  0  0  0  0  0
   -1.6556    1.3030   -0.0178 C   0  0  0  0  0  0  0  0  0  0  0  0
   -2.7511    0.3280    0.3450 C   0  0  1  0  0  0  0  0  0  0  0  0
   -2.6262   -0.5731   -0.3048 H   0  0  0  0  0  0  0  0  0  0  0  0
   -2.6149   -0.1313    1.8035 C   0  0  0  0  0  0  0  0  0  0  0  0
   -3.3760   -0.9017    2.0343 H   0  0  0  0  0  0  0  0  0  0  0  0
   -2.7462    0.7280    2.4915 H   0  0  0  0  0  0  0  0  0  0  0  0
   -1.6225   -0.5934    1.9664 H   0  0  0  0  0  0  0  0  0  0  0  0
   -5.0618    0.0571   -0.1184 C   0  0  0  0  0  0  0  0  0  0  0  0
   -5.2839   -0.5698    0.7771 H   0  0  0  0  0  0  0  0  0  0  0  0
   -4.8532   -0.6316   -0.9711 H   0  0  0  0  0  0  0  0  0  0  0  0
   -5.9633    0.6560   -0.3532 H   0  0  0  0  0  0  0  0  0  0  0  0
  1  4  1  0  0  0  0
  3 21  1  0  0  0  0
  4  6  2  0  0  0  0
  4  5  1  0  0  0  0
  6  7  1  0  0  0  0
  8  9  1  0  0  0  0
  8  6  1  0  0  0  0
 10  8  2  0  0  0  0
 11 10  1  0  0  0  0
 12 10  1  0  0  0  0
 12  1  1  0  0  0  0
 13 12  2  0  0  0  0
 13  2  1  0  0  0  0
 14 13  1  0  0  0  0
 15 14  1  0  0  0  0
 16 14  2  0  0  0  0
 16 18  1  0  0  0  0
 17 16  1  0  0  0  0
 18 20  2  0  0  0  0
 19 18  1  0  0  0  0
 20  2  1  0  0  0  0
 20 21  1  0  0  0  0
 21 22  1  6  0  0  0
 21 23  1  0  0  0  0
 23 26  1  0  0  0  0
 23 24  1  0  0  0  0
 23 25  1  0  0  0  0
 27  3  1  0  0  0  0
 27 28  1  0  0  0  0
 29 27  1  0  0  0  0
 30 27  1  0  0  0  0
M  END
