1,2
 OpenBabel05122313053D

 32 33  0  0  1  0  0  0  0  0999 V2000
   -2.4431    0.2449   -1.0776 N   0  0  0  0  0  2  0  0  0  0  0  0
   -1.1088   -1.4909    0.5037 N   0  0  0  0  0  2  0  0  0  0  0  0
   -3.0702    1.2227   -1.7704 C   0  0  0  0  0  0  0  0  0  0  0  0
   -2.4241    1.9459   -2.2839 H   0  0  0  0  0  0  0  0  0  0  0  0
   -4.4607    1.3221   -1.8514 C   0  0  0  0  0  0  0  0  0  0  0  0
   -4.9109    2.1409   -2.4297 H   0  0  0  0  0  0  0  0  0  0  0  0
   -5.2458    0.3675   -1.1914 C   0  0  0  0  0  0  0  0  0  0  0  0
   -6.3437    0.4068   -1.2354 H   0  0  0  0  0  0  0  0  0  0  0  0
   -4.6021   -0.6361   -0.4623 C   0  0  0  0  0  0  0  0  0  0  0  0
   -5.1959   -1.3823    0.0800 H   0  0  0  0  0  0  0  0  0  0  0  0
   -3.1961   -0.6814   -0.4064 C   0  0  0  0  0  0  0  0  0  0  0  0
   -2.4606   -1.6727    0.4079 C   0  0  0  0  0  0  0  0  0  0  0  0
   -3.1141   -2.7124    1.0893 C   0  0  0  0  0  0  0  0  0  0  0  0
   -4.1951   -2.8640    0.9792 H   0  0  0  0  0  0  0  0  0  0  0  0
   -2.3674   -3.5598    1.9149 C   0  0  0  0  0  0  0  0  0  0  0  0
   -2.8541   -4.3899    2.4475 H   0  0  0  0  0  0  0  0  0  0  0  0
   -1.0032   -3.3119    2.0692 C   0  0  0  0  0  0  0  0  0  0  0  0
   -0.3959   -3.9282    2.7467 H   0  0  0  0  0  0  0  0  0  0  0  0
   -0.3894   -2.2570    1.3602 C   0  0  0  0  0  0  0  0  0  0  0  0
    1.0708   -1.9390    1.5942 C   0  0  2  0  0  0  0  0  0  0  0  0
    1.2963   -1.0524    0.9711 H   0  0  0  0  0  0  0  0  0  0  0  0
    1.9787   -3.1143    1.1667 C   0  0  0  0  0  0  0  0  0  0  0  0
    1.7455   -4.0042    1.7923 H   0  0  0  0  0  0  0  0  0  0  0  0
    1.7168   -3.4038    0.1270 H   0  0  0  0  0  0  0  0  0  0  0  0
    3.4747   -2.8112    1.2512 C   0  0  0  0  0  0  0  0  0  0  0  0
    3.8075   -2.6453    2.2949 H   0  0  0  0  0  0  0  0  0  0  0  0
    3.7368   -1.9051    0.6684 H   0  0  0  0  0  0  0  0  0  0  0  0
    4.0718   -3.6525    0.8473 H   0  0  0  0  0  0  0  0  0  0  0  0
    1.2856   -1.5272    3.0629 C   0  0  0  0  0  0  0  0  0  0  0  0
    0.5715   -0.7359    3.3629 H   0  0  0  0  0  0  0  0  0  0  0  0
    2.3073   -1.1256    3.2075 H   0  0  0  0  0  0  0  0  0  0  0  0
    1.1603   -2.3832    3.7578 H   0  0  0  0  0  0  0  0  0  0  0  0
  1 11  1  0  0  0  0
  2 19  1  0  0  0  0
  3  1  1  0  0  0  0
  4  3  1  0  0  0  0
  5  3  2  0  0  0  0
  5  7  1  0  0  0  0
  6  5  1  0  0  0  0
  7  9  2  0  0  0  0
  8  7  1  0  0  0  0
  9 11  1  0  0  0  0
  9 10  1  0  0  0  0
 11 12  2  0  0  0  0
 12  2  1  0  0  0  0
 12 13  1  0  0  0  0
 13 15  2  0  0  0  0
 14 13  1  0  0  0  0
 15 17  1  0  0  0  0
 15 16  1  0  0  0  0
 17 18  1  0  0  0  0
 19 20  1  0  0  0  0
 19 17  2  0  0  0  0
 20 21  1  6  0  0  0
 20 29  1  0  0  0  0
 22 25  1  0  0  0  0
 22 20  1  0  0  0  0
 22 23  1  0  0  0  0
 24 22  1  0  0  0  0
 25 26  1  0  0  0  0
 27 25  1  0  0  0  0
 28 25  1  0  0  0  0
 29 31  1  0  0  0  0
 29 30  1  0  0  0  0
 29 32  1  0  0  0  0
M  END
