1,3
 OpenBabel05122313053D

 31 32  0  0  1  0  0  0  0  0999 V2000
   -1.2802    1.3216   -0.4160 N   0  0  0  0  0  2  0  0  0  0  0  0
   -3.1801    2.4003   -0.5096 N   0  0  0  0  0  0  0  0  0  0  0  0
   -1.2799   -1.3222   -0.4150 N   0  0  0  0  0  2  0  0  0  0  0  0
   -3.1799   -2.4005   -0.5095 N   0  0  0  0  0  0  0  0  0  0  0  0
   -2.5737    1.2676   -0.0179 C   0  0  1  0  0  3  0  0  0  0  0  0
   -1.0667    2.4631   -1.1621 C   0  0  0  0  0  0  0  0  0  0  0  0
   -0.0894    2.7045   -1.5905 H   0  0  0  0  0  0  0  0  0  0  0  0
   -2.2558    3.1516   -1.2263 C   0  0  0  0  0  0  0  0  0  0  0  0
   -2.5271    4.0943   -1.7113 H   0  0  0  0  0  0  0  0  0  0  0  0
   -4.5654    2.8030   -0.3272 C   0  0  0  0  0  0  0  0  0  0  0  0
   -4.8097    2.9117    0.7459 H   0  0  0  0  0  0  0  0  0  0  0  0
   -4.7181    3.7768   -0.8275 H   0  0  0  0  0  0  0  0  0  0  0  0
   -5.2581    2.0622   -0.7675 H   0  0  0  0  0  0  0  0  0  0  0  0
   -2.5735   -1.2680   -0.0174 C   0  0  2  0  0  3  0  0  0  0  0  0
   -1.0663   -2.4635   -1.1614 C   0  0  0  0  0  0  0  0  0  0  0  0
   -0.0888   -2.7051   -1.5893 H   0  0  0  0  0  0  0  0  0  0  0  0
   -2.2555   -3.1518   -1.2261 C   0  0  0  0  0  0  0  0  0  0  0  0
   -2.5268   -4.0944   -1.7114 H   0  0  0  0  0  0  0  0  0  0  0  0
   -4.5654   -2.8029   -0.3280 C   0  0  0  0  0  0  0  0  0  0  0  0
   -4.7180   -3.7767   -0.8284 H   0  0  0  0  0  0  0  0  0  0  0  0
   -4.8105   -2.9115    0.7450 H   0  0  0  0  0  0  0  0  0  0  0  0
   -5.2577   -2.0620   -0.7688 H   0  0  0  0  0  0  0  0  0  0  0  0
   -4.7701   -0.0002    1.0949 C   0  0  0  0  0  0  0  0  0  0  0  0
   -5.0747    0.8803    1.6995 H   0  0  0  0  0  0  0  0  0  0  0  0
   -5.4095   -0.0004    0.1853 H   0  0  0  0  0  0  0  0  0  0  0  0
   -5.0746   -0.8805    1.6998 H   0  0  0  0  0  0  0  0  0  0  0  0
   -2.3813    0.0003    2.3125 C   0  0  0  0  0  0  0  0  0  0  0  0
   -1.2727    0.0002    2.2082 H   0  0  0  0  0  0  0  0  0  0  0  0
   -2.6540    0.8952    2.9141 H   0  0  0  0  0  0  0  0  0  0  0  0
   -2.6540   -0.8943    2.9145 H   0  0  0  0  0  0  0  0  0  0  0  0
   -3.1508   -0.0001    0.8523 B   0  0  0  0  0  0  0  0  0  0  0  0
  1  5  1  0  0  0  0
  2 10  1  0  0  0  0
  2  5  1  0  0  0  0
  3 14  1  0  0  0  0
  4 19  1  0  0  0  0
  4 14  1  0  0  0  0
  5 31  1  6  0  0  0
  6  1  1  0  0  0  0
  7  6  1  0  0  0  0
  8  6  2  0  0  0  0
  8  2  1  0  0  0  0
  9  8  1  0  0  0  0
 10 11  1  0  0  0  0
 12 10  1  0  0  0  0
 13 10  1  0  0  0  0
 14 31  1  6  0  0  0
 15  3  1  0  0  0  0
 16 15  1  0  0  0  0
 17 15  2  0  0  0  0
 17  4  1  0  0  0  0
 18 17  1  0  0  0  0
 19 21  1  0  0  0  0
 20 19  1  0  0  0  0
 22 19  1  0  0  0  0
 23 24  1  0  0  0  0
 23 26  1  0  0  0  0
 25 23  1  0  0  0  0
 27 29  1  0  0  0  0
 27 30  1  0  0  0  0
 28 27  1  0  0  0  0
 31 23  1  0  0  0  0
 31 27  1  0  0  0  0
M  END
