1,3
 OpenBabel05122313053D

 42 44  0  0  0  0  0  0  0  0999 V2000
    2.3492    0.8839    0.0690 N   0  0  0  0  0  2  0  0  0  0  0  0
   -1.2405    3.1512   -0.7330 N   0  0  0  0  0  0  0  0  0  0  0  0
   -0.0812   -0.0423    0.0985 N   0  0  0  0  0  2  0  0  0  0  0  0
    3.6430    1.2596    0.0737 C   0  0  0  0  0  0  0  0  0  0  0  0
    4.3614    0.4218    0.0353 H   0  0  0  0  0  0  0  0  0  0  0  0
    4.0147    2.6083    0.1168 C   0  0  0  0  0  0  0  0  0  0  0  0
    5.0818    2.8724    0.1202 H   0  0  0  0  0  0  0  0  0  0  0  0
    3.0157    3.5935    0.1497 C   0  0  0  0  0  0  0  0  0  0  0  0
    3.2793    4.6610    0.1764 H   0  0  0  0  0  0  0  0  0  0  0  0
    1.6726    3.2011    0.1441 C   0  0  0  0  0  0  0  0  0  0  0  0
    0.8577    3.9347    0.1401 H   0  0  0  0  0  0  0  0  0  0  0  0
    1.3574    1.8304    0.1065 C   0  0  0  0  0  0  0  0  0  0  0  0
   -0.0001    1.2753    0.1292 C   0  0  0  0  0  0  0  0  0  0  0  0
   -1.2025    2.1603    0.1815 C   0  0  0  0  0  0  0  0  0  0  0  0
   -2.2290    1.9551    1.1276 C   0  0  0  0  0  0  0  0  0  0  0  0
   -2.1545    1.1484    1.8677 H   0  0  0  0  0  0  0  0  0  0  0  0
   -3.3426    2.8020    1.0965 C   0  0  0  0  0  0  0  0  0  0  0  0
   -4.1604    2.6671    1.8201 H   0  0  0  0  0  0  0  0  0  0  0  0
   -3.3984    3.8163    0.1293 C   0  0  0  0  0  0  0  0  0  0  0  0
   -4.2592    4.4979    0.0644 H   0  0  0  0  0  0  0  0  0  0  0  0
   -2.3174    3.9511   -0.7563 C   0  0  0  0  0  0  0  0  0  0  0  0
   -2.3180    4.7445   -1.5240 H   0  0  0  0  0  0  0  0  0  0  0  0
   -1.3488   -0.6947    0.0130 C   0  0  0  0  0  0  0  0  0  0  0  0
   -2.0348   -0.6748   -1.2243 C   0  0  0  0  0  0  0  0  0  0  0  0
   -3.2853   -1.3131   -1.2842 C   0  0  0  0  0  0  0  0  0  0  0  0
   -3.8307   -1.3092   -2.2416 H   0  0  0  0  0  0  0  0  0  0  0  0
   -3.8484   -1.9638   -0.1719 C   0  0  0  0  0  0  0  0  0  0  0  0
   -3.1124   -1.9862    1.0284 C   0  0  0  0  0  0  0  0  0  0  0  0
   -3.5264   -2.5067    1.9072 H   0  0  0  0  0  0  0  0  0  0  0  0
   -1.8518   -1.3804    1.1437 C   0  0  0  0  0  0  0  0  0  0  0  0
   -1.4159   -0.0408   -2.4419 C   0  0  0  0  0  0  0  0  0  0  0  0
   -2.0354   -0.2261   -3.3392 H   0  0  0  0  0  0  0  0  0  0  0  0
   -0.4049   -0.4635   -2.6240 H   0  0  0  0  0  0  0  0  0  0  0  0
   -1.2910    1.0577   -2.3370 H   0  0  0  0  0  0  0  0  0  0  0  0
   -5.1781   -2.6670   -0.2738 C   0  0  0  0  0  0  0  0  0  0  0  0
   -5.7545   -2.5914    0.6698 H   0  0  0  0  0  0  0  0  0  0  0  0
   -5.0369   -3.7498   -0.4806 H   0  0  0  0  0  0  0  0  0  0  0  0
   -5.7982   -2.2551   -1.0939 H   0  0  0  0  0  0  0  0  0  0  0  0
   -1.0494   -1.4667    2.4128 C   0  0  0  0  0  0  0  0  0  0  0  0
   -1.6504   -1.8869    3.2411 H   0  0  0  0  0  0  0  0  0  0  0  0
   -0.6475   -0.4829    2.7340 H   0  0  0  0  0  0  0  0  0  0  0  0
   -0.1718   -2.1266    2.2391 H   0  0  0  0  0  0  0  0  0  0  0  0
  1  4  1  0  0  0  0
  1 12  1  0  0  0  0
  2 14  1  0  0  0  0
  3 13  1  0  0  0  0
  4  6  2  0  0  0  0
  5  4  1  0  0  0  0
  6  7  1  0  0  0  0
  6  8  1  0  0  0  0
  8  9  1  0  0  0  0
 10  8  2  0  0  0  0
 11 10  1  0  0  0  0
 12 13  2  0  0  0  0
 12 10  1  0  0  0  0
 13 14  1  0  0  0  0
 14 15  2  0  0  0  0
 15 16  1  0  0  0  0
 17 15  1  0  0  0  0
 17 18  1  0  0  0  0
 19 17  2  0  0  0  0
 20 19  1  0  0  0  0
 21  2  2  0  0  0  0
 21 19  1  0  0  0  0
 22 21  1  0  0  0  0
 23  3  1  0  0  0  0
 23 30  1  0  0  0  0
 24 23  2  0  0  0  0
 25 24  1  0  0  0  0
 25 27  2  0  0  0  0
 26 25  1  0  0  0  0
 27 28  1  0  0  0  0
 28 30  2  0  0  0  0
 28 29  1  0  0  0  0
 30 39  1  0  0  0  0
 31 34  1  0  0  0  0
 31 24  1  0  0  0  0
 32 31  1  0  0  0  0
 33 31  1  0  0  0  0
 35 27  1  0  0  0  0
 35 36  1  0  0  0  0
 37 35  1  0  0  0  0
 38 35  1  0  0  0  0
 39 41  1  0  0  0  0
 39 40  1  0  0  0  0
 42 39  1  0  0  0  0
M  END
