1,2
 OpenBabel05122313053D

 26 27  0  0  0  0  0  0  0  0999 V2000
   -1.3193   -0.9966    0.3764 N   0  0  0  0  0  2  0  0  0  0  0  0
    1.3189   -0.9972    0.3766 N   0  0  0  0  0  2  0  0  0  0  0  0
   -3.2495    0.0738    1.4926 C   0  0  0  0  0  0  0  0  0  0  0  0
   -2.4830    0.7727    1.8667 H   0  0  0  0  0  0  0  0  0  0  0  0
   -3.7914   -0.3887    2.3426 H   0  0  0  0  0  0  0  0  0  0  0  0
   -3.9858    0.6557    0.9030 H   0  0  0  0  0  0  0  0  0  0  0  0
   -2.6484   -1.0005    0.6381 C   0  0  0  0  0  0  0  0  0  0  0  0
   -3.4583   -2.0406    0.1383 C   0  0  0  0  0  0  0  0  0  0  0  0
   -4.5357   -2.0207    0.3559 H   0  0  0  0  0  0  0  0  0  0  0  0
   -2.8991   -3.0643   -0.6279 C   0  0  0  0  0  0  0  0  0  0  0  0
   -3.5311   -3.8598   -1.0491 H   0  0  0  0  0  0  0  0  0  0  0  0
   -1.5139   -3.0818   -0.8255 C   0  0  0  0  0  0  0  0  0  0  0  0
   -1.0384   -3.8982   -1.3836 H   0  0  0  0  0  0  0  0  0  0  0  0
   -0.7384   -2.0466   -0.2847 C   0  0  0  0  0  0  0  0  0  0  0  0
    0.7376   -2.0467   -0.2849 C   0  0  0  0  0  0  0  0  0  0  0  0
    1.5129   -3.0818   -0.8264 C   0  0  0  0  0  0  0  0  0  0  0  0
    1.0371   -3.8977   -1.3849 H   0  0  0  0  0  0  0  0  0  0  0  0
    2.8981   -3.0647   -0.6291 C   0  0  0  0  0  0  0  0  0  0  0  0
    3.5298   -3.8601   -1.0509 H   0  0  0  0  0  0  0  0  0  0  0  0
    3.4577   -2.0416    0.1377 C   0  0  0  0  0  0  0  0  0  0  0  0
    4.5351   -2.0220    0.3551 H   0  0  0  0  0  0  0  0  0  0  0  0
    2.6481   -1.0015    0.6381 C   0  0  0  0  0  0  0  0  0  0  0  0
    3.2495    0.0724    1.4929 C   0  0  0  0  0  0  0  0  0  0  0  0
    3.9846    0.6554    0.9028 H   0  0  0  0  0  0  0  0  0  0  0  0
    3.7929   -0.3906    2.3416 H   0  0  0  0  0  0  0  0  0  0  0  0
    2.4831    0.7704    1.8687 H   0  0  0  0  0  0  0  0  0  0  0  0
  1  7  1  0  0  0  0
  2 22  1  0  0  0  0
  3  4  1  0  0  0  0
  3  5  1  0  0  0  0
  6  3  1  0  0  0  0
  7  3  1  0  0  0  0
  8  9  1  0  0  0  0
  8  7  2  0  0  0  0
 10  8  1  0  0  0  0
 11 10  1  0  0  0  0
 12 10  2  0  0  0  0
 12 14  1  0  0  0  0
 13 12  1  0  0  0  0
 14  1  1  0  0  0  0
 15 14  2  0  0  0  0
 15  2  1  0  0  0  0
 16 18  2  0  0  0  0
 16 15  1  0  0  0  0
 17 16  1  0  0  0  0
 18 20  1  0  0  0  0
 19 18  1  0  0  0  0
 20 21  1  0  0  0  0
 20 22  2  0  0  0  0
 22 23  1  0  0  0  0
 23 26  1  0  0  0  0
 23 25  1  0  0  0  0
 24 23  1  0  0  0  0
M  END
