15,41
 OpenBabel05122313053D

 49 50  0  0  1  0  0  0  0  0999 V2000
    2.2001    0.8027    1.1882 N   0  0  0  0  0  0  0  0  0  0  0  0
    2.2428    0.1880    2.5233 C   0  0  0  0  0  0  0  0  0  0  0  0
    3.1605    0.5048    3.0805 H   0  0  0  0  0  0  0  0  0  0  0  0
    2.3232   -0.9076    2.3773 H   0  0  0  0  0  0  0  0  0  0  0  0
    1.0386    0.4730    3.4284 C   0  0  0  0  0  0  0  0  0  0  0  0
    1.0633    1.5115    3.8158 H   0  0  0  0  0  0  0  0  0  0  0  0
    1.1021   -0.1818    4.3208 H   0  0  0  0  0  0  0  0  0  0  0  0
   -0.6405    0.3157    2.7002 S   0  0  0  0  0  0  0  0  0  0  0  0
   -1.1137   -1.4288    3.0231 C   0  0  0  0  0  0  0  0  0  0  0  0
   -0.7335   -1.7171    4.0230 H   0  0  0  0  0  0  0  0  0  0  0  0
   -2.2183   -1.3612    3.0858 H   0  0  0  0  0  0  0  0  0  0  0  0
   -0.7163   -2.4763    1.9797 C   0  0  0  0  0  0  0  0  0  0  0  0
    0.3804   -2.6605    1.9722 H   0  0  0  0  0  0  0  0  0  0  0  0
   -1.2003   -3.4342    2.2825 H   0  0  0  0  0  0  0  0  0  0  0  0
   -1.1386   -2.0946    0.6276 N   0  0  0  0  0  0  0  0  0  0  0  0
   -2.0903   -1.6513    0.6611 H   0  0  0  0  0  0  0  0  0  0  0  0
   -1.0593   -3.1550   -0.3755 C   0  0  0  0  0  0  0  0  0  0  0  0
   -1.7597   -3.9826   -0.1144 H   0  0  0  0  0  0  0  0  0  0  0  0
   -0.0368   -3.5917   -0.3499 H   0  0  0  0  0  0  0  0  0  0  0  0
   -1.4232   -2.6764   -1.7812 C   0  0  0  0  0  0  0  0  0  0  0  0
   -2.3944   -2.1408   -1.7756 H   0  0  0  0  0  0  0  0  0  0  0  0
   -1.5066   -3.5409   -2.4686 H   0  0  0  0  0  0  0  0  0  0  0  0
   -0.3083   -1.4461   -2.5610 S   0  0  0  0  0  0  0  0  0  0  0  0
    1.2255   -2.4145   -2.8621 C   0  0  0  0  0  0  0  0  0  0  0  0
    1.0508   -3.4716   -2.5745 H   0  0  0  0  0  0  0  0  0  0  0  0
    1.4002   -2.4006   -3.9571 H   0  0  0  0  0  0  0  0  0  0  0  0
    2.4574   -1.8441   -2.1644 C   0  0  0  0  0  0  0  0  0  0  0  0
    2.5640   -0.7614   -2.3843 H   0  0  0  0  0  0  0  0  0  0  0  0
    3.3662   -2.3659   -2.5299 H   0  0  0  0  0  0  0  0  0  0  0  0
    2.3637   -2.0860   -0.3472 S   0  0  0  0  0  0  0  0  0  0  0  0
    3.7144   -0.9951    0.2260 C   0  0  0  0  0  0  0  0  0  0  0  0
    4.0452   -1.4350    1.1870 H   0  0  0  0  0  0  0  0  0  0  0  0
    4.5693   -1.1080   -0.4703 H   0  0  0  0  0  0  0  0  0  0  0  0
    3.3760    0.4897    0.3657 C   0  0  0  0  0  0  0  0  0  0  0  0
    4.2858    0.9936    0.7804 H   0  0  0  0  0  0  0  0  0  0  0  0
    3.2048    0.9342   -0.6372 H   0  0  0  0  0  0  0  0  0  0  0  0
    1.9299    2.2397    1.1759 C   0  0  0  0  0  0  0  0  0  0  0  0
    2.8358    2.8391    1.4308 H   0  0  0  0  0  0  0  0  0  0  0  0
    1.1752    2.4640    1.9575 H   0  0  0  0  0  0  0  0  0  0  0  0
    1.3438    2.7549   -0.1291 C   0  0  1  0  0  3  0  0  0  0  0  0
    0.4418    1.9843   -0.7677 N   0  0  0  0  0  2  0  0  0  0  0  0
   -0.2424    2.4456   -1.8328 C   0  0  0  0  0  0  0  0  0  0  0  0
   -1.0069    1.7656   -2.2423 H   0  0  0  0  0  0  0  0  0  0  0  0
   -0.0151    3.7300   -2.3395 C   0  0  0  0  0  0  0  0  0  0  0  0
   -0.5913    4.0856   -3.2051 H   0  0  0  0  0  0  0  0  0  0  0  0
    0.9482    4.5369   -1.7178 C   0  0  0  0  0  0  0  0  0  0  0  0
    1.1590    5.5485   -2.0956 H   0  0  0  0  0  0  0  0  0  0  0  0
    1.6333    4.0460   -0.5969 C   0  0  0  0  0  0  0  0  0  0  0  0
    2.3792    4.6621   -0.0732 H   0  0  0  0  0  0  0  0  0  0  0  0
  1  2  1  0  0  0  0
  2  3  1  0  0  0  0
  2  5  1  0  0  0  0
  4  2  1  0  0  0  0
  5  6  1  0  0  0  0
  5  7  1  0  0  0  0
  8  9  1  0  0  0  0
  8  5  1  0  0  0  0
  9 11  1  0  0  0  0
  9 10  1  0  0  0  0
 12 14  1  0  0  0  0
 12  9  1  0  0  0  0
 13 12  1  0  0  0  0
 15 16  1  0  0  0  0
 15 12  1  0  0  0  0
 17 19  1  0  0  0  0
 17 18  1  0  0  0  0
 17 15  1  0  0  0  0
 20 21  1  0  0  0  0
 20 17  1  0  0  0  0
 22 20  1  0  0  0  0
 23 20  1  0  0  0  0
 24 25  1  0  0  0  0
 24 23  1  0  0  0  0
 24 27  1  0  0  0  0
 26 24  1  0  0  0  0
 27 30  1  0  0  0  0
 28 27  1  0  0  0  0
 29 27  1  0  0  0  0
 30 31  1  0  0  0  0
 31 34  1  0  0  0  0
 31 32  1  0  0  0  0
 33 31  1  0  0  0  0
 34 35  1  0  0  0  0
 34  1  1  0  0  0  0
 36 34  1  0  0  0  0
 37  1  1  0  0  0  0
 37 38  1  0  0  0  0
 37 39  1  0  0  0  0
 40 37  1  1  0  0  0
 41 40  1  0  0  0  0
 42 41  1  0  0  0  0
 43 42  1  0  0  0  0
 44 42  2  0  0  0  0
 44 46  1  0  0  0  0
 45 44  1  0  0  0  0
 46 48  2  0  0  0  0
 47 46  1  0  0  0  0
 48 40  1  0  0  0  0
 48 49  1  0  0  0  0
M  END
