2,5
 OpenBabel05122313053D

 30 32  0  0  1  0  0  0  0  0999 V2000
   -1.5927   -1.7909   -0.6042 N   0  0  0  0  0  0  0  0  0  0  0  0
   -0.9453   -0.8611    0.0410 N   0  0  0  0  0  2  0  0  0  0  0  0
   -1.8414    0.0339    0.5977 N   0  0  0  0  0  0  0  0  0  0  0  0
   -0.6186    2.0827    0.4537 N   0  0  0  0  0  0  0  0  0  0  0  0
    0.5431    1.6505   -0.1209 N   0  0  0  0  0  2  0  0  0  0  0  0
   -2.9360   -1.5253   -0.4988 C   0  0  0  0  0  0  0  0  0  0  0  0
   -4.0496   -2.2208   -1.0164 C   0  0  0  0  0  3  0  0  0  0  0  0
   -3.9059   -3.1377   -1.6043 H   0  0  0  0  0  0  0  0  0  0  0  0
   -5.3147   -1.6941   -0.7507 C   0  0  0  0  0  0  0  0  0  0  0  0
   -6.2073   -2.2068   -1.1384 H   0  0  0  0  0  0  0  0  0  0  0  0
   -5.4828   -0.5068    0.0101 C   0  0  0  0  0  0  0  0  0  0  0  0
   -6.4996   -0.1286    0.1923 H   0  0  0  0  0  0  0  0  0  0  0  0
   -4.3924    0.1964    0.5359 C   0  0  0  0  0  0  0  0  0  0  0  0
   -4.5344    1.1127    1.1274 H   0  0  0  0  0  0  0  0  0  0  0  0
   -3.1203   -0.3364    0.2660 C   0  0  0  0  0  0  0  0  0  0  0  0
   -1.3400    1.1804    1.3176 C   0  0  0  0  0  0  0  0  0  0  0  0
   -0.6521    0.8201    2.1109 H   0  0  0  0  0  0  0  0  0  0  0  0
   -2.1928    1.7137    1.7724 H   0  0  0  0  0  0  0  0  0  0  0  0
   -2.1941    4.0500    0.5073 C   0  0  0  0  0  0  0  0  0  0  0  0
   -3.1160    3.4882    0.2458 H   0  0  0  0  0  0  0  0  0  0  0  0
   -2.2607    5.0400    0.0208 H   0  0  0  0  0  0  0  0  0  0  0  0
   -2.1982    4.2189    1.6049 H   0  0  0  0  0  0  0  0  0  0  0  0
   -0.9604    3.3482    0.0449 C   0  0  1  0  0  3  0  0  0  0  0  0
    0.0564    3.7486   -0.8187 C   0  0  0  0  0  0  0  0  0  0  0  0
    0.1318    4.7121   -1.3329 H   0  0  0  0  0  0  0  0  0  0  0  0
    0.9713    2.6675   -0.9019 C   0  0  0  0  0  0  0  0  0  0  0  0
    2.2196    2.5778   -1.7133 C   0  0  0  0  0  0  0  0  0  0  0  0
    3.1001    2.3611   -1.0776 H   0  0  0  0  0  0  0  0  0  0  0  0
    2.3951    3.5267   -2.2528 H   0  0  0  0  0  0  0  0  0  0  0  0
    2.1527    1.7572   -2.4560 H   0  0  0  0  0  0  0  0  0  0  0  0
  1  6  2  0  0  0  0
  1  2  1  0  0  0  0
  2  3  1  0  0  0  0
  3 16  1  0  0  0  0
  4 16  1  0  0  0  0
  5  4  1  0  0  0  0
  6 15  1  0  0  0  0
  7  9  1  0  0  0  0
  7  6  1  0  0  0  0
  8  7  1  0  0  0  0
  9 11  2  0  0  0  0
 10  9  1  0  0  0  0
 11 12  1  0  0  0  0
 11 13  1  0  0  0  0
 13 14  1  0  0  0  0
 15 13  2  0  0  0  0
 15  3  1  0  0  0  0
 16 18  1  0  0  0  0
 16 17  1  0  0  0  0
 19 22  1  0  0  0  0
 20 19  1  0  0  0  0
 21 19  1  0  0  0  0
 23  4  1  0  0  0  0
 23 19  1  1  0  0  0
 24 23  1  0  0  0  0
 25 24  1  0  0  0  0
 26 24  2  0  0  0  0
 26  5  1  0  0  0  0
 27 28  1  0  0  0  0
 27 26  1  0  0  0  0
 29 27  1  0  0  0  0
 30 27  1  0  0  0  0
M  END
