1,3
 OpenBabel05122313053D

 26 26  0  0  0  0  0  0  0  0999 V2000
    1.5384   -1.6938   -0.0002 N   0  0  0  0  0  2  0  0  0  0  0  0
    1.4855   -2.7172   -0.0003 H   0  0  0  0  0  0  0  0  0  0  0  0
    1.5378    0.8250    0.0001 N   0  0  0  0  0  2  0  0  0  0  0  0
    1.4825    1.8483    0.0003 H   0  0  0  0  0  0  0  0  0  0  0  0
    2.7812   -1.1549   -0.0002 C   0  0  0  0  0  0  0  0  0  0  0  0
    2.7831    0.2899    0.0000 C   0  0  0  0  0  0  0  0  0  0  0  0
    4.0143    0.9977    0.0001 C   0  0  0  0  0  0  0  0  0  0  0  0
    3.9784    2.0962    0.0002 H   0  0  0  0  0  0  0  0  0  0  0  0
    5.2336    0.3165   -0.0001 C   0  0  0  0  0  0  0  0  0  0  0  0
    5.2099   -1.1155   -0.0003 C   0  0  0  0  0  0  0  0  0  0  0  0
    6.1612   -1.6680   -0.0004 H   0  0  0  0  0  0  0  0  0  0  0  0
    4.0239   -1.8399   -0.0003 C   0  0  0  0  0  0  0  0  0  0  0  0
    4.0385   -2.9410   -0.0005 H   0  0  0  0  0  0  0  0  0  0  0  0
    6.5894    1.0423   -0.0000 C   0  0  0  0  0  0  0  0  0  0  0  0
    7.3848    0.6373    1.2626 C   0  0  0  0  0  0  0  0  0  0  0  0
    8.3726    1.1433    1.2777 H   0  0  0  0  0  0  0  0  0  0  0  0
    7.5661   -0.4550    1.3035 H   0  0  0  0  0  0  0  0  0  0  0  0
    6.8361    0.9221    2.1829 H   0  0  0  0  0  0  0  0  0  0  0  0
    7.3849    0.6373   -1.2626 C   0  0  0  0  0  0  0  0  0  0  0  0
    6.8362    0.9223   -2.1829 H   0  0  0  0  0  0  0  0  0  0  0  0
    7.5662   -0.4550   -1.3035 H   0  0  0  0  0  0  0  0  0  0  0  0
    8.3727    1.1433   -1.2776 H   0  0  0  0  0  0  0  0  0  0  0  0
    6.4294    2.5719    0.0000 C   0  0  0  0  0  0  0  0  0  0  0  0
    5.8860    2.9287    0.8982 H   0  0  0  0  0  0  0  0  0  0  0  0
    5.8861    2.9287   -0.8982 H   0  0  0  0  0  0  0  0  0  0  0  0
    7.4272    3.0551    0.0001 H   0  0  0  0  0  0  0  0  0  0  0  0
  1  5  1  0  0  0  0
  2  1  1  0  0  0  0
  3  4  1  0  0  0  0
  5  6  1  0  0  0  0
  6  7  2  0  0  0  0
  6  3  1  0  0  0  0
  7  8  1  0  0  0  0
  9 14  1  0  0  0  0
  9  7  1  0  0  0  0
 10  9  2  0  0  0  0
 11 10  1  0  0  0  0
 12 10  1  0  0  0  0
 12  5  2  0  0  0  0
 13 12  1  0  0  0  0
 14 23  1  0  0  0  0
 14 15  1  0  0  0  0
 15 16  1  0  0  0  0
 15 17  1  0  0  0  0
 15 18  1  0  0  0  0
 19 14  1  0  0  0  0
 20 19  1  0  0  0  0
 21 19  1  0  0  0  0
 22 19  1  0  0  0  0
 23 26  1  0  0  0  0
 23 24  1  0  0  0  0
 25 23  1  0  0  0  0
M  END
