1,2
 OpenBabel05122313053D

 37 40  0  0  1  0  0  0  0  0999 V2000
   -2.3033    0.8409    0.1394 N   0  0  0  0  0  2  0  0  0  0  0  0
    0.3209    0.6318    0.0798 N   0  0  0  0  0  2  0  0  0  0  0  0
   -3.6461    0.8533    0.3266 C   0  0  0  0  0  0  0  0  0  0  0  0
   -4.3899    2.0290    0.2251 C   0  0  0  0  0  0  0  0  0  0  0  0
   -3.7358    3.2322   -0.0871 C   0  0  0  0  0  0  0  0  0  0  0  0
   -2.3503    3.2166   -0.2689 C   0  0  0  0  0  0  0  0  0  0  0  0
   -1.6420    2.0080   -0.1413 C   0  0  0  0  0  0  0  0  0  0  0  0
   -0.1836    1.8837   -0.2175 C   0  0  0  0  0  0  0  0  0  0  0  0
    0.6612    2.9649   -0.4986 C   0  0  0  0  0  0  0  0  0  0  0  0
    2.0466    2.7974   -0.4238 C   0  0  0  0  0  0  0  0  0  0  0  0
    2.5560    1.5703    0.0106 C   0  0  0  0  0  0  0  0  0  0  0  0
    1.6596    0.4977    0.2787 C   0  0  0  0  0  0  0  0  0  0  0  0
    2.2448   -0.7788    0.8159 C   0  0  0  0  0  0  0  0  0  0  0  0
    3.7648   -0.6730    0.9785 C   0  0  2  0  0  0  0  0  0  0  0  0
    4.1275    0.6647    1.6743 C   0  0  0  0  0  0  0  0  0  0  0  0
    4.0153    1.3059    0.2575 C   0  0  1  0  0  0  0  0  0  0  0  0
    4.4236   -0.1040   -0.3314 C   0  0  0  0  0  0  0  0  0  0  0  0
    3.8556   -0.5280   -1.6844 C   0  0  0  0  0  0  0  0  0  0  0  0
    5.9452   -0.2894   -0.3487 C   0  0  0  0  0  0  0  0  0  0  0  0
   -4.0895   -0.1369    0.5211 H   0  0  0  0  0  0  0  0  0  0  0  0
   -5.4765    1.9907    0.3850 H   0  0  0  0  0  0  0  0  0  0  0  0
   -4.2976    4.1726   -0.1829 H   0  0  0  0  0  0  0  0  0  0  0  0
   -1.8106    4.1439   -0.5006 H   0  0  0  0  0  0  0  0  0  0  0  0
    0.2315    3.9378   -0.7696 H   0  0  0  0  0  0  0  0  0  0  0  0
    2.7279    3.6281   -0.6611 H   0  0  0  0  0  0  0  0  0  0  0  0
    1.9471   -1.6260    0.1616 H   0  0  0  0  0  0  0  0  0  0  0  0
    1.7508   -1.0076    1.7860 H   0  0  0  0  0  0  0  0  0  0  0  0
    4.1810   -1.6150    1.3889 H   0  0  0  0  0  0  0  0  0  0  0  0
    5.1599    0.6886    2.0664 H   0  0  0  0  0  0  0  0  0  0  0  0
    3.4347    1.0438    2.4526 H   0  0  0  0  0  0  0  0  0  0  0  0
    4.6428    2.1836    0.0023 H   0  0  0  0  0  0  0  0  0  0  0  0
    2.7574   -0.4212   -1.7625 H   0  0  0  0  0  0  0  0  0  0  0  0
    4.3106    0.0706   -2.5009 H   0  0  0  0  0  0  0  0  0  0  0  0
    4.0923   -1.5942   -1.8795 H   0  0  0  0  0  0  0  0  0  0  0  0
    6.4332    0.0009    0.6015 H   0  0  0  0  0  0  0  0  0  0  0  0
    6.1959   -1.3527   -0.5416 H   0  0  0  0  0  0  0  0  0  0  0  0
    6.4017    0.3141   -1.1604 H   0  0  0  0  0  0  0  0  0  0  0  0
  1  3  1  0  0  0  0
  2 12  1  0  0  0  0
  3 20  1  0  0  0  0
  4  3  2  0  0  0  0
  4 21  1  0  0  0  0
  5  4  1  0  0  0  0
  6  7  1  0  0  0  0
  6  5  2  0  0  0  0
  7  1  1  0  0  0  0
  8  7  2  0  0  0  0
  8  2  1  0  0  0  0
  9 10  2  0  0  0  0
  9  8  1  0  0  0  0
 10 11  1  0  0  0  0
 11 16  1  0  0  0  0
 11 12  2  0  0  0  0
 12 13  1  0  0  0  0
 13 14  1  0  0  0  0
 13 27  1  0  0  0  0
 14 28  1  1  0  0  0
 14 15  1  0  0  0  0
 15 29  1  0  0  0  0
 15 30  1  0  0  0  0
 16 31  1  6  0  0  0
 16 15  1  0  0  0  0
 17 16  1  0  0  0  0
 17 14  1  0  0  0  0
 18 17  1  0  0  0  0
 19 17  1  0  0  0  0
 19 35  1  0  0  0  0
 22  5  1  0  0  0  0
 23  6  1  0  0  0  0
 24  9  1  0  0  0  0
 25 10  1  0  0  0  0
 26 13  1  0  0  0  0
 32 18  1  0  0  0  0
 33 18  1  0  0  0  0
 34 18  1  0  0  0  0
 36 19  1  0  0  0  0
 37 19  1  0  0  0  0
M  END
