1,2
 OpenBabel05122313053D

 19 19  0  0  1  0  0  0  0  0999 V2000
   -0.5837   -1.4473   -1.3841 N   0  0  0  0  0  0  0  0  0  0  0  0
   -1.8573   -0.1782    0.4868 N   0  0  0  0  0  2  0  0  0  0  0  0
   -1.9950   -1.0969   -1.7430 C   0  0  2  0  0  0  0  0  0  0  0  0
   -0.5432   -2.4370   -1.0902 H   0  0  0  0  0  0  0  0  0  0  0  0
    0.0063   -1.3795   -2.2272 H   0  0  0  0  0  0  0  0  0  0  0  0
   -2.3495    0.2967    1.6506 C   0  0  0  0  0  3  0  0  0  0  0  0
   -2.6856   -0.7112   -0.4513 C   0  0  0  0  0  0  0  0  0  0  0  0
   -2.6867   -2.1707   -2.5737 C   0  0  0  0  0  0  0  0  0  0  0  0
   -1.9052   -0.1534   -2.3248 H   0  0  0  0  0  0  0  0  0  0  0  0
   -3.7166    0.2398    1.9402 C   0  0  0  0  0  0  0  0  0  0  0  0
   -1.6106    0.7519    2.3288 H   0  0  0  0  0  0  0  0  0  0  0  0
   -4.0619   -0.8056   -0.2144 C   0  0  0  0  0  0  0  0  0  0  0  0
   -2.0942   -2.4010   -3.4809 H   0  0  0  0  0  0  0  0  0  0  0  0
   -3.6780   -1.8234   -2.9230 H   0  0  0  0  0  0  0  0  0  0  0  0
   -2.8345   -3.1077   -1.9980 H   0  0  0  0  0  0  0  0  0  0  0  0
   -4.5849   -0.3241    0.9956 C   0  0  0  0  0  0  0  0  0  0  0  0
   -4.0866    0.6416    2.8938 H   0  0  0  0  0  0  0  0  0  0  0  0
   -4.7222   -1.2416   -0.9761 H   0  0  0  0  0  0  0  0  0  0  0  0
   -5.6652   -0.3840    1.1935 H   0  0  0  0  0  0  0  0  0  0  0  0
  1  4  1  0  0  0  0
  2  6  1  0  0  0  0
  3  9  1  6  0  0  0
  3  1  1  0  0  0  0
  3  7  1  0  0  0  0
  5  1  1  0  0  0  0
  6 10  1  0  0  0  0
  6 11  1  0  0  0  0
  7 12  2  0  0  0  0
  7  2  1  0  0  0  0
  8 15  1  0  0  0  0
  8  3  1  0  0  0  0
 10 17  1  0  0  0  0
 12 16  1  0  0  0  0
 13  8  1  0  0  0  0
 14  8  1  0  0  0  0
 16 19  1  0  0  0  0
 16 10  2  0  0  0  0
 18 12  1  0  0  0  0
M  END
