1,2
 OpenBabel05122313053D

 48 52  0  0  0  0  0  0  0  0999 V2000
   -1.9642    1.6857    0.1739 N   0  0  0  0  0  2  0  0  0  0  0  0
   -2.1019   -1.0623    1.1667 N   0  0  0  0  0  2  0  0  0  0  0  0
    1.3001   -1.2081    0.6956 N   0  0  0  0  0  0  0  0  0  0  0  0
    1.5734    1.4922    0.4037 N   0  0  0  0  0  0  0  0  0  0  0  0
   -2.9148    2.6566    0.1216 C   0  0  0  0  0  0  0  0  0  0  0  0
   -3.8565    2.3625   -0.3608 H   0  0  0  0  0  0  0  0  0  0  0  0
   -2.6951    3.9455    0.6084 C   0  0  0  0  0  0  0  0  0  0  0  0
   -3.5041    4.6868    0.5471 H   0  0  0  0  0  0  0  0  0  0  0  0
   -1.4412    4.2643    1.1505 C   0  0  0  0  0  0  0  0  0  0  0  0
   -1.2325    5.2715    1.5403 H   0  0  0  0  0  0  0  0  0  0  0  0
   -0.4540    3.2766    1.1722 C   0  0  0  0  0  0  0  0  0  0  0  0
    0.5585    3.4710    1.5485 H   0  0  0  0  0  0  0  0  0  0  0  0
   -0.7358    1.9854    0.6822 C   0  0  0  0  0  0  0  0  0  0  0  0
    0.3609    0.9835    0.6539 C   0  0  0  0  0  0  0  0  0  0  0  0
    0.2624   -0.4089    0.9564 C   0  0  0  0  0  0  0  0  0  0  0  0
   -0.8525   -1.0684    1.6983 C   0  0  0  0  0  0  0  0  0  0  0  0
   -0.5751   -1.7607    2.8889 C   0  0  0  0  0  0  0  0  0  0  0  0
    0.4552   -1.7605    3.2698 H   0  0  0  0  0  0  0  0  0  0  0  0
   -1.6027   -2.4447    3.5479 C   0  0  0  0  0  0  0  0  0  0  0  0
   -1.4035   -2.9840    4.4857 H   0  0  0  0  0  0  0  0  0  0  0  0
   -2.8840   -2.4426    2.9775 C   0  0  0  0  0  0  0  0  0  0  0  0
   -3.7215   -2.9814    3.4423 H   0  0  0  0  0  0  0  0  0  0  0  0
   -3.0956   -1.7537    1.7818 C   0  0  0  0  0  0  0  0  0  0  0  0
   -4.0598   -1.7577    1.2560 H   0  0  0  0  0  0  0  0  0  0  0  0
    4.0582    2.6721   -0.3732 C   0  0  0  0  0  0  0  0  0  0  0  0
    3.1503    3.1250   -0.7968 H   0  0  0  0  0  0  0  0  0  0  0  0
    5.2848    3.3477   -0.4056 C   0  0  0  0  0  0  0  0  0  0  0  0
    5.3474    4.3442   -0.8685 H   0  0  0  0  0  0  0  0  0  0  0  0
    6.4314    2.7561    0.1492 C   0  0  0  0  0  0  0  0  0  0  0  0
    7.3949    3.2874    0.1244 H   0  0  0  0  0  0  0  0  0  0  0  0
    6.3429    1.4850    0.7413 C   0  0  0  0  0  0  0  0  0  0  0  0
    7.2341    1.0228    1.1921 H   0  0  0  0  0  0  0  0  0  0  0  0
    5.1212    0.8013    0.7656 C   0  0  0  0  0  0  0  0  0  0  0  0
    5.0580   -0.1901    1.2368 H   0  0  0  0  0  0  0  0  0  0  0  0
    3.9647    1.3845    0.2001 C   0  0  0  0  0  0  0  0  0  0  0  0
    2.6483    0.7038    0.2524 C   0  0  0  0  0  0  0  0  0  0  0  0
    2.4534   -0.7173    0.2113 C   0  0  0  0  0  0  0  0  0  0  0  0
    3.4165   -1.6969   -0.3396 C   0  0  0  0  0  0  0  0  0  0  0  0
    4.2797   -1.3609   -1.4075 C   0  0  0  0  0  0  0  0  0  0  0  0
    4.2540   -0.3479   -1.8336 H   0  0  0  0  0  0  0  0  0  0  0  0
    5.1499   -2.3186   -1.9415 C   0  0  0  0  0  0  0  0  0  0  0  0
    5.8083   -2.0475   -2.7804 H   0  0  0  0  0  0  0  0  0  0  0  0
    5.1764   -3.6218   -1.4173 C   0  0  0  0  0  0  0  0  0  0  0  0
    5.8652   -4.3710   -1.8361 H   0  0  0  0  0  0  0  0  0  0  0  0
    4.3110   -3.9688   -0.3666 C   0  0  0  0  0  0  0  0  0  0  0  0
    4.3188   -4.9916    0.0394 H   0  0  0  0  0  0  0  0  0  0  0  0
    3.4302   -3.0177    0.1621 C   0  0  0  0  0  0  0  0  0  0  0  0
    2.7319   -3.2782    0.9700 H   0  0  0  0  0  0  0  0  0  0  0  0
  1 13  1  0  0  0  0
  2 16  1  0  0  0  0
  2 23  1  0  0  0  0
  3 15  1  0  0  0  0
  4 14  1  0  0  0  0
  5  1  1  0  0  0  0
  5  7  2  0  0  0  0
  6  5  1  0  0  0  0
  7  9  1  0  0  0  0
  8  7  1  0  0  0  0
  9 11  2  0  0  0  0
  9 10  1  0  0  0  0
 11 12  1  0  0  0  0
 13 11  1  0  0  0  0
 14 13  2  0  0  0  0
 14 15  1  0  0  0  0
 15 16  2  0  0  0  0
 16 17  1  0  0  0  0
 17 18  1  0  0  0  0
 17 19  2  0  0  0  0
 19 20  1  0  0  0  0
 21 22  1  0  0  0  0
 21 19  1  0  0  0  0
 23 21  2  0  0  0  0
 24 23  1  0  0  0  0
 25 35  1  0  0  0  0
 26 25  1  0  0  0  0
 27 25  2  0  0  0  0
 27 29  1  0  0  0  0
 28 27  1  0  0  0  0
 29 31  2  0  0  0  0
 30 29  1  0  0  0  0
 31 33  1  0  0  0  0
 31 32  1  0  0  0  0
 33 34  1  0  0  0  0
 35 36  1  0  0  0  0
 35 33  2  0  0  0  0
 36  4  2  0  0  0  0
 37 36  1  0  0  0  0
 37  3  2  0  0  0  0
 38 47  1  0  0  0  0
 38 37  1  0  0  0  0
 39 38  2  0  0  0  0
 40 39  1  0  0  0  0
 41 43  2  0  0  0  0
 41 39  1  0  0  0  0
 42 41  1  0  0  0  0
 43 45  1  0  0  0  0
 44 43  1  0  0  0  0
 45 46  1  0  0  0  0
 45 47  2  0  0  0  0
 47 48  1  0  0  0  0
M  END
