1,2
 OpenBabel05122313053D

 32 35  0  0  1  0  0  0  0  0999 V2000
   -1.8739   -0.4050    0.0037 N   0  0  0  0  0  2  0  0  0  0  0  0
    0.7632   -0.3670    0.1433 N   0  0  0  0  0  2  0  0  0  0  0  0
    0.8543   -2.7050   -0.1745 O   0  0  0  0  0  0  0  0  0  0  0  0
   -3.2374   -0.3388    0.0381 C   0  0  0  0  0  0  0  0  0  0  0  0
   -3.8573    0.9300    0.2240 C   0  0  0  0  0  0  0  0  0  0  0  0
   -3.2016    1.8015    0.3939 H   0  0  0  0  0  0  0  0  0  0  0  0
   -5.2412    1.0163    0.2406 C   0  0  0  0  0  0  0  0  0  0  0  0
   -5.7238    1.9934    0.3932 H   0  0  0  0  0  0  0  0  0  0  0  0
   -6.0460   -0.1451    0.0753 C   0  0  0  0  0  0  0  0  0  0  0  0
   -7.1423   -0.0513    0.0864 H   0  0  0  0  0  0  0  0  0  0  0  0
   -5.4610   -1.3942   -0.0833 C   0  0  0  0  0  3  0  0  0  0  0  0
   -6.0819   -2.2964   -0.1953 H   0  0  0  0  0  0  0  0  0  0  0  0
   -4.0443   -1.5271   -0.0952 C   0  0  0  0  0  0  0  0  0  0  0  0
   -3.3692   -2.7764   -0.2199 C   0  0  0  0  0  0  0  0  0  0  0  0
   -3.9598   -3.6999   -0.3219 H   0  0  0  0  0  0  0  0  0  0  0  0
   -1.9854   -2.8220   -0.1924 C   0  0  0  0  0  0  0  0  0  0  0  0
   -1.4305   -3.7672   -0.2575 H   0  0  0  0  0  0  0  0  0  0  0  0
   -1.2674   -1.6001   -0.0781 C   0  0  0  0  0  0  0  0  0  0  0  0
    0.2030   -1.5346   -0.0184 C   0  0  2  0  0  3  0  0  0  0  0  0
    2.2336   -2.7641    0.2578 C   0  0  0  0  0  0  0  0  0  0  0  0
    2.7050   -3.5657   -0.3433 H   0  0  0  0  0  0  0  0  0  0  0  0
    2.2382   -3.0911    1.3245 H   0  0  0  0  0  0  0  0  0  0  0  0
    2.9479   -1.4446    0.1066 C   0  0  0  0  0  0  0  0  0  0  0  0
    4.3407   -1.3440    0.0369 C   0  0  0  0  0  0  0  0  0  0  0  0
    4.9744   -2.2424    0.0018 H   0  0  0  0  0  0  0  0  0  0  0  0
    4.9398   -0.0696    0.0305 C   0  0  0  0  0  0  0  0  0  0  0  0
    6.6752    0.0514   -0.0521 Cl  0  0  0  0  0  0  0  0  0  0  0  0
    4.1620    1.1000    0.1051 C   0  0  0  0  0  0  0  0  0  0  0  0
    4.6547    2.0819    0.1216 H   0  0  0  0  0  0  0  0  0  0  0  0
    2.7685    0.9957    0.1598 C   0  0  0  0  0  0  0  0  0  0  0  0
    2.1206    1.8830    0.2432 H   0  0  0  0  0  0  0  0  0  0  0  0
    2.1574   -0.2730    0.1414 C   0  0  0  0  0  0  0  0  0  0  0  0
  1  4  1  0  0  0  0
  3 19  1  0  0  0  0
  3 20  1  0  0  0  0
  4  5  2  0  0  0  0
  5  7  1  0  0  0  0
  5  6  1  0  0  0  0
  7  8  1  0  0  0  0
  9 10  1  0  0  0  0
  9  7  2  0  0  0  0
 11  9  1  0  0  0  0
 12 11  1  0  0  0  0
 13 11  1  0  0  0  0
 13  4  1  0  0  0  0
 14 16  1  0  0  0  0
 14 13  2  0  0  0  0
 15 14  1  0  0  0  0
 16 18  2  0  0  0  0
 17 16  1  0  0  0  0
 18  1  1  0  0  0  0
 19 18  1  6  0  0  0
 19  2  1  0  0  0  0
 20 22  1  0  0  0  0
 21 20  1  0  0  0  0
 23 32  1  0  0  0  0
 23 20  1  0  0  0  0
 24 23  2  0  0  0  0
 25 24  1  0  0  0  0
 26 24  1  0  0  0  0
 26 28  2  0  0  0  0
 27 26  1  0  0  0  0
 28 29  1  0  0  0  0
 28 30  1  0  0  0  0
 30 31  1  0  0  0  0
 32  2  1  0  0  0  0
 32 30  2  0  0  0  0
M  END
