1,3
 OpenBabel05122313053D

 48 50  0  0  1  0  0  0  0  0999 V2000
   -0.0028   -1.3046    0.4387 N   0  0  0  0  0  0  0  0  0  0  0  0
    0.5691   -1.8868    1.0736 H   0  0  0  0  0  0  0  0  0  0  0  0
   -1.9731    0.6806    0.4307 N   0  0  0  0  0  0  0  0  0  0  0  0
   -2.5518    0.8155    1.2752 H   0  0  0  0  0  0  0  0  0  0  0  0
   -1.4313   -1.7370    0.4735 C   0  0  2  0  0  0  0  0  0  0  0  0
   -1.6886   -1.7716    1.5552 H   0  0  0  0  0  0  0  0  0  0  0  0
   -1.7257   -3.1188   -0.1295 C   0  0  0  0  0  0  0  0  0  0  0  0
   -1.4518   -3.1317   -1.2061 H   0  0  0  0  0  0  0  0  0  0  0  0
   -1.0952   -3.8826    0.3722 H   0  0  0  0  0  0  0  0  0  0  0  0
   -3.2162   -3.4576    0.0064 C   0  0  0  0  0  0  0  0  0  0  0  0
   -3.4212   -4.4513   -0.4411 H   0  0  0  0  0  0  0  0  0  0  0  0
   -3.4809   -3.5382    1.0839 H   0  0  0  0  0  0  0  0  0  0  0  0
   -4.0869   -2.3813   -0.6528 C   0  0  0  0  0  0  0  0  0  0  0  0
   -3.8928   -2.3708   -1.7484 H   0  0  0  0  0  0  0  0  0  0  0  0
   -5.1630   -2.6193   -0.5289 H   0  0  0  0  0  0  0  0  0  0  0  0
   -3.7892   -0.9921   -0.0737 C   0  0  0  0  0  0  0  0  0  0  0  0
   -4.3943   -0.2159   -0.5865 H   0  0  0  0  0  0  0  0  0  0  0  0
   -4.0827   -0.9683    1.0006 H   0  0  0  0  0  0  0  0  0  0  0  0
   -2.2987   -0.6439   -0.1753 C   0  0  1  0  0  0  0  0  0  0  0  0
   -2.0135   -0.5772   -1.2467 H   0  0  0  0  0  0  0  0  0  0  0  0
    0.6475   -1.2896   -0.9118 C   0  0  0  0  0  0  0  0  0  0  0  0
    0.3212   -2.1842   -1.4826 H   0  0  0  0  0  0  0  0  0  0  0  0
    0.2913   -0.3930   -1.4547 H   0  0  0  0  0  0  0  0  0  0  0  0
    2.1520   -1.2992   -0.8150 C   0  0  0  0  0  0  0  0  0  0  0  0
    2.8526   -2.5182   -0.8981 C   0  0  0  0  0  0  0  0  0  0  0  0
    2.2958   -3.4551   -1.0660 H   0  0  0  0  0  0  0  0  0  0  0  0
    4.2499   -2.5494   -0.7769 C   0  0  0  0  0  0  0  0  0  0  0  0
    4.7866   -3.5078   -0.8463 H   0  0  0  0  0  0  0  0  0  0  0  0
    4.9588   -1.3559   -0.5701 C   0  0  0  0  0  0  0  0  0  0  0  0
    6.0550   -1.3765   -0.4722 H   0  0  0  0  0  0  0  0  0  0  0  0
    4.2676   -0.1370   -0.4849 C   0  0  0  0  0  0  0  0  0  0  0  0
    4.8179    0.7993   -0.3091 H   0  0  0  0  0  0  0  0  0  0  0  0
    2.8723   -0.1081   -0.6046 C   0  0  0  0  0  0  0  0  0  0  0  0
    2.3267    0.8415   -0.5164 H   0  0  0  0  0  0  0  0  0  0  0  0
   -2.2123    1.8601   -0.4570 C   0  0  0  0  0  0  0  0  0  0  0  0
   -3.2508    1.8255   -0.8539 H   0  0  0  0  0  0  0  0  0  0  0  0
   -2.1086    2.7390    0.2093 H   0  0  0  0  0  0  0  0  0  0  0  0
   -1.2159    1.9345   -1.5871 C   0  0  0  0  0  0  0  0  0  0  0  0
    0.0585    2.4983   -1.3611 C   0  0  0  0  0  0  0  0  0  0  0  0
    0.2873    2.9165   -0.3670 H   0  0  0  0  0  0  0  0  0  0  0  0
    1.0154    2.5111   -2.3863 C   0  0  0  0  0  0  0  0  0  0  0  0
    2.0051    2.9555   -2.2019 H   0  0  0  0  0  0  0  0  0  0  0  0
    0.7178    1.9570   -3.6430 C   0  0  0  0  0  0  0  0  0  0  0  0
    1.4756    1.9606   -4.4411 H   0  0  0  0  0  0  0  0  0  0  0  0
   -0.5522    1.4102   -3.8817 C   0  0  0  0  0  0  0  0  0  0  0  0
   -0.7973    0.9900   -4.8689 H   0  0  0  0  0  0  0  0  0  0  0  0
   -1.5151    1.4063   -2.8587 C   0  0  0  0  0  0  0  0  0  0  0  0
   -2.5188    0.9938   -3.0540 H   0  0  0  0  0  0  0  0  0  0  0  0
  1  5  1  0  0  0  0
  1  2  1  0  0  0  0
  3  4  1  0  0  0  0
  5  6  1  1  0  0  0
  7 10  1  0  0  0  0
  7  9  1  0  0  0  0
  7  5  1  0  0  0  0
  8  7  1  0  0  0  0
 10 12  1  0  0  0  0
 11 10  1  0  0  0  0
 13 15  1  0  0  0  0
 13 16  1  0  0  0  0
 13 10  1  0  0  0  0
 14 13  1  0  0  0  0
 16 18  1  0  0  0  0
 17 16  1  0  0  0  0
 19 20  1  6  0  0  0
 19 16  1  0  0  0  0
 19  3  1  0  0  0  0
 19  5  1  0  0  0  0
 21 24  1  0  0  0  0
 21  1  1  0  0  0  0
 22 21  1  0  0  0  0
 23 21  1  0  0  0  0
 24 33  1  0  0  0  0
 25 24  2  0  0  0  0
 25 27  1  0  0  0  0
 26 25  1  0  0  0  0
 27 29  2  0  0  0  0
 28 27  1  0  0  0  0
 29 31  1  0  0  0  0
 29 30  1  0  0  0  0
 31 32  1  0  0  0  0
 33 34  1  0  0  0  0
 33 31  2  0  0  0  0
 35 37  1  0  0  0  0
 35  3  1  0  0  0  0
 36 35  1  0  0  0  0
 38 39  1  0  0  0  0
 38 35  1  0  0  0  0
 39 40  1  0  0  0  0
 41 42  1  0  0  0  0
 41 39  2  0  0  0  0
 43 41  1  0  0  0  0
 44 43  1  0  0  0  0
 45 43  2  0  0  0  0
 45 47  1  0  0  0  0
 46 45  1  0  0  0  0
 47 38  2  0  0  0  0
 48 47  1  0  0  0  0
M  END
