4,5
 OpenBabel05122313053D

 56 60  0  0  1  0  0  0  0  0999 V2000
   -1.7353   -1.7700    1.8158 S   0  0  0  0  0  0  0  0  0  0  0  0
   -2.4044   -2.9668    1.2737 O   0  0  0  0  0  0  0  0  0  0  0  0
   -1.2877   -1.6907    3.2179 O   0  0  0  0  0  0  0  0  0  0  0  0
    2.0312    1.2139    1.4873 N   0  0  0  0  0  2  0  0  0  0  0  0
    0.7219    0.0216   -0.3834 N   0  0  0  0  0  2  0  0  0  0  0  0
   -0.2802   -1.6119    0.8270 N   0  0  0  0  0  0  0  0  0  0  0  0
    2.7922    1.8908    2.3671 C   0  0  0  0  0  0  0  0  0  0  0  0
    3.3710    2.7213    1.9254 H   0  0  0  0  0  0  0  0  0  0  0  0
    2.8481    1.5284    3.7194 C   0  0  0  0  0  0  0  0  0  0  0  0
    3.4796    2.1101    4.4059 H   0  0  0  0  0  0  0  0  0  0  0  0
    2.1136    0.4189    4.1631 C   0  0  0  0  0  0  0  0  0  0  0  0
    2.1587    0.0979    5.2142 H   0  0  0  0  0  0  0  0  0  0  0  0
    1.3205   -0.2880    3.2495 C   0  0  0  0  0  0  0  0  0  0  0  0
    0.7201   -1.1575    3.5458 H   0  0  0  0  0  0  0  0  0  0  0  0
    1.2795    0.1455    1.9152 C   0  0  0  0  0  0  0  0  0  0  0  0
    0.5245   -0.4733    0.8223 C   0  0  0  0  0  0  0  0  0  0  0  0
   -0.3925   -2.0245   -0.6228 C   0  0  1  0  0  0  0  0  0  0  0  0
   -1.4265   -2.3703   -0.7982 H   0  0  0  0  0  0  0  0  0  0  0  0
   -0.0783   -0.7078   -1.3739 C   0  0  1  0  0  0  0  0  0  0  0  0
    0.5695   -0.8814   -2.2578 H   0  0  0  0  0  0  0  0  0  0  0  0
   -1.2890    0.0778   -1.8630 C   0  0  0  0  0  0  0  0  0  0  0  0
   -1.4357    1.4550   -1.6234 C   0  0  0  0  0  0  0  0  0  0  0  0
   -0.6848    1.9882   -1.0234 H   0  0  0  0  0  0  0  0  0  0  0  0
   -2.5192    2.1565   -2.1723 C   0  0  0  0  0  0  0  0  0  0  0  0
   -2.6094    3.2377   -1.9876 H   0  0  0  0  0  0  0  0  0  0  0  0
   -3.4719    1.4933   -2.9599 C   0  0  0  0  0  0  0  0  0  0  0  0
   -4.3160    2.0489   -3.3964 H   0  0  0  0  0  0  0  0  0  0  0  0
   -3.3345    0.1163   -3.1980 C   0  0  0  0  0  0  0  0  0  0  0  0
   -4.0697   -0.4148   -3.8216 H   0  0  0  0  0  0  0  0  0  0  0  0
   -2.2475   -0.5842   -2.6568 C   0  0  0  0  0  0  0  0  0  0  0  0
   -2.1335   -1.6581   -2.8750 H   0  0  0  0  0  0  0  0  0  0  0  0
    0.5749   -3.1691   -0.8658 C   0  0  0  0  0  0  0  0  0  0  0  0
    1.8619   -2.9689   -1.4027 C   0  0  0  0  0  0  0  0  0  0  0  0
    2.1993   -1.9644   -1.7027 H   0  0  0  0  0  0  0  0  0  0  0  0
    2.7362   -4.0563   -1.5597 C   0  0  0  0  0  0  0  0  0  0  0  0
    3.7383   -3.8883   -1.9822 H   0  0  0  0  0  0  0  0  0  0  0  0
    2.3357   -5.3468   -1.1831 C   0  0  0  0  0  0  0  0  0  0  0  0
    3.0221   -6.1973   -1.3122 H   0  0  0  0  0  0  0  0  0  0  0  0
    1.0559   -5.5497   -0.6399 C   0  0  0  0  0  0  0  0  0  0  0  0
    0.7364   -6.5594   -0.3402 H   0  0  0  0  0  0  0  0  0  0  0  0
    0.1822   -4.4666   -0.4787 C   0  0  0  0  0  0  0  0  0  0  0  0
   -0.8133   -4.6130   -0.0309 H   0  0  0  0  0  0  0  0  0  0  0  0
   -2.7082   -0.3244    1.4428 C   0  0  0  0  0  0  0  0  0  0  0  0
   -2.3862    0.8948    2.0591 C   0  0  0  0  0  0  0  0  0  0  0  0
   -1.5767    0.9473    2.8013 H   0  0  0  0  0  0  0  0  0  0  0  0
   -3.1299    2.0324    1.7222 C   0  0  0  0  0  0  0  0  0  0  0  0
   -2.8835    2.9962    2.1935 H   0  0  0  0  0  0  0  0  0  0  0  0
   -4.1917    1.9648    0.7967 C   0  0  0  0  0  0  0  0  0  0  0  0
   -4.4959    0.7172    0.2096 C   0  0  0  0  0  0  0  0  0  0  0  0
   -5.3194    0.6465   -0.5165 H   0  0  0  0  0  0  0  0  0  0  0  0
   -3.7597   -0.4294    0.5180 C   0  0  0  0  0  0  0  0  0  0  0  0
   -3.9934   -1.4005    0.0609 H   0  0  0  0  0  0  0  0  0  0  0  0
   -4.9856    3.1878    0.4258 C   0  0  0  0  0  0  0  0  0  0  0  0
   -4.9308    3.3696   -0.6677 H   0  0  0  0  0  0  0  0  0  0  0  0
   -4.6181    4.0930    0.9448 H   0  0  0  0  0  0  0  0  0  0  0  0
   -6.0591    3.0590    0.6758 H   0  0  0  0  0  0  0  0  0  0  0  0
  1  3  2  0  0  0  0
  2  1  2  0  0  0  0
  4 15  1  0  0  0  0
  4  7  1  0  0  0  0
  5 16  1  0  0  0  0
  6  1  1  0  0  0  0
  7  9  2  0  0  0  0
  8  7  1  0  0  0  0
  9 11  1  0  0  0  0
  9 10  1  0  0  0  0
 11 12  1  0  0  0  0
 13 14  1  0  0  0  0
 13 11  2  0  0  0  0
 15 13  1  0  0  0  0
 16  6  1  0  0  0  0
 16 15  2  0  0  0  0
 17 18  1  6  0  0  0
 17  6  1  0  0  0  0
 19 20  1  6  0  0  0
 19 17  1  0  0  0  0
 19  5  1  0  0  0  0
 21 22  1  0  0  0  0
 21 19  1  0  0  0  0
 22 23  1  0  0  0  0
 24 25  1  0  0  0  0
 24 22  2  0  0  0  0
 26 24  1  0  0  0  0
 27 26  1  0  0  0  0
 28 26  2  0  0  0  0
 28 30  1  0  0  0  0
 29 28  1  0  0  0  0
 30 21  2  0  0  0  0
 31 30  1  0  0  0  0
 32 17  1  0  0  0  0
 32 41  1  0  0  0  0
 33 32  2  0  0  0  0
 34 33  1  0  0  0  0
 35 33  1  0  0  0  0
 35 37  2  0  0  0  0
 36 35  1  0  0  0  0
 37 39  1  0  0  0  0
 38 37  1  0  0  0  0
 39 41  2  0  0  0  0
 39 40  1  0  0  0  0
 41 42  1  0  0  0  0
 43  1  1  0  0  0  0
 43 44  1  0  0  0  0
 44 45  1  0  0  0  0
 46 44  2  0  0  0  0
 46 47  1  0  0  0  0
 48 46  1  0  0  0  0
 49 51  1  0  0  0  0
 49 48  2  0  0  0  0
 50 49  1  0  0  0  0
 51 43  2  0  0  0  0
 52 51  1  0  0  0  0
 53 56  1  0  0  0  0
 53 48  1  0  0  0  0
 53 55  1  0  0  0  0
 54 53  1  0  0  0  0
M  END
