1,2
 OpenBabel05122313053D

 43 46  0  0  1  0  0  0  0  0999 V2000
    2.6417   -1.0750    0.1838 N   0  0  0  0  0  2  0  0  0  0  0  0
    0.2538   -0.0640   -0.0410 N   0  0  0  0  0  2  0  0  0  0  0  0
   -0.9325   -1.8842    0.6121 N   0  0  0  0  0  0  0  0  0  0  0  0
    3.9228   -1.4673    0.2629 C   0  0  0  0  0  0  0  0  0  0  0  0
    4.6519   -0.6998   -0.0571 H   0  0  0  0  0  0  0  0  0  0  0  0
    4.2820   -2.7486    0.7040 C   0  0  0  0  0  0  0  0  0  0  0  0
    5.3426   -3.0333    0.7569 H   0  0  0  0  0  0  0  0  0  0  0  0
    3.2653   -3.6436    1.0669 C   0  0  0  0  0  0  0  0  0  0  0  0
    3.5071   -4.6591    1.4139 H   0  0  0  0  0  0  0  0  0  0  0  0
    1.9272   -3.2344    0.9838 C   0  0  0  0  0  0  0  0  0  0  0  0
    1.1281   -3.9279    1.2647 H   0  0  0  0  0  0  0  0  0  0  0  0
    1.6364   -1.9308    0.5364 C   0  0  0  0  0  0  0  0  0  0  0  0
    0.3048   -1.3144    0.3897 C   0  0  0  0  0  0  0  0  0  0  0  0
   -1.9336   -0.8033    0.5663 C   0  0  1  0  0  0  0  0  0  0  0  0
   -2.1631   -0.4778    1.6094 H   0  0  0  0  0  0  0  0  0  0  0  0
   -1.1477    0.3509   -0.1474 C   0  0  1  0  0  0  0  0  0  0  0  0
   -1.4171    0.3645   -1.2272 H   0  0  0  0  0  0  0  0  0  0  0  0
   -1.4591    1.7027    0.4527 C   0  0  0  0  0  0  0  0  0  0  0  0
   -2.5219    2.4663   -0.0639 C   0  0  0  0  0  0  0  0  0  0  0  0
   -3.0754    2.1003   -0.9430 H   0  0  0  0  0  0  0  0  0  0  0  0
   -2.8695    3.6902    0.5274 C   0  0  0  0  0  0  0  0  0  0  0  0
   -3.6986    4.2828    0.1117 H   0  0  0  0  0  0  0  0  0  0  0  0
   -2.1509    4.1639    1.6362 C   0  0  0  0  0  0  0  0  0  0  0  0
   -2.4148    5.1295    2.0937 H   0  0  0  0  0  0  0  0  0  0  0  0
   -1.0864    3.4069    2.1523 C   0  0  0  0  0  0  0  0  0  0  0  0
   -0.5096    3.7806    3.0119 H   0  0  0  0  0  0  0  0  0  0  0  0
   -0.7450    2.1791    1.5678 C   0  0  0  0  0  0  0  0  0  0  0  0
    0.1063    1.5971    1.9524 H   0  0  0  0  0  0  0  0  0  0  0  0
   -3.2236   -1.1796   -0.1225 C   0  0  0  0  0  0  0  0  0  0  0  0
   -3.2213   -2.0176   -1.2552 C   0  0  0  0  0  0  0  0  0  0  0  0
   -2.2689   -2.4476   -1.6024 H   0  0  0  0  0  0  0  0  0  0  0  0
   -4.4177   -2.3038   -1.9275 C   0  0  0  0  0  0  0  0  0  0  0  0
   -4.4057   -2.9636   -2.8084 H   0  0  0  0  0  0  0  0  0  0  0  0
   -5.6284   -1.7483   -1.4810 C   0  0  0  0  0  0  0  0  0  0  0  0
   -6.5668   -1.9719   -2.0105 H   0  0  0  0  0  0  0  0  0  0  0  0
   -5.6372   -0.9097   -0.3555 C   0  0  0  0  0  0  0  0  0  0  0  0
   -6.5825   -0.4729    0.0004 H   0  0  0  0  0  0  0  0  0  0  0  0
   -4.4410   -0.6307    0.3231 C   0  0  0  0  0  0  0  0  0  0  0  0
   -4.4456    0.0275    1.2061 H   0  0  0  0  0  0  0  0  0  0  0  0
   -1.2256   -3.0519    1.4190 C   0  0  0  0  0  0  0  0  0  0  0  0
   -0.8316   -2.9765    2.4584 H   0  0  0  0  0  0  0  0  0  0  0  0
   -0.8406   -3.9791    0.9512 H   0  0  0  0  0  0  0  0  0  0  0  0
   -2.3255   -3.1584    1.4709 H   0  0  0  0  0  0  0  0  0  0  0  0
  1  4  1  0  0  0  0
  1 12  1  0  0  0  0
  2 13  1  0  0  0  0
  3 40  1  0  0  0  0
  4  6  2  0  0  0  0
  5  4  1  0  0  0  0
  6  7  1  0  0  0  0
  6  8  1  0  0  0  0
  8  9  1  0  0  0  0
 10  8  2  0  0  0  0
 10 11  1  0  0  0  0
 12 10  1  0  0  0  0
 13 12  2  0  0  0  0
 13  3  1  0  0  0  0
 14  3  1  0  0  0  0
 14 15  1  1  0  0  0
 16 17  1  6  0  0  0
 16  2  1  0  0  0  0
 16 18  1  0  0  0  0
 16 14  1  0  0  0  0
 18 27  1  0  0  0  0
 19 18  2  0  0  0  0
 19 21  1  0  0  0  0
 20 19  1  0  0  0  0
 21 23  2  0  0  0  0
 22 21  1  0  0  0  0
 23 24  1  0  0  0  0
 23 25  1  0  0  0  0
 25 26  1  0  0  0  0
 27 28  1  0  0  0  0
 27 25  2  0  0  0  0
 29 38  1  0  0  0  0
 29 14  1  0  0  0  0
 30 29  2  0  0  0  0
 31 30  1  0  0  0  0
 32 34  2  0  0  0  0
 32 30  1  0  0  0  0
 33 32  1  0  0  0  0
 34 36  1  0  0  0  0
 35 34  1  0  0  0  0
 36 37  1  0  0  0  0
 36 38  2  0  0  0  0
 38 39  1  0  0  0  0
 40 43  1  0  0  0  0
 40 41  1  0  0  0  0
 42 40  1  0  0  0  0
M  END
