1,2
 OpenBabel05122313053D

 52 55  0  0  0  0  0  0  0  0999 V2000
    2.3570    1.9667   -0.3006 N   0  0  0  0  0  2  0  0  0  0  0  0
    0.8520   -0.1462   -0.7039 N   0  0  0  0  0  2  0  0  0  0  0  0
   -2.7334    0.2364    0.6753 N   0  0  0  0  0  0  0  0  0  0  0  0
   -6.1852    1.0564    0.1733 N   0  0  0  0  0  0  0  0  0  0  0  0
    3.1909    3.0044   -0.1002 C   0  0  0  0  0  0  0  0  0  0  0  0
    4.2633    2.7449   -0.1438 H   0  0  0  0  0  0  0  0  0  0  0  0
    2.7073    4.2952    0.1522 C   0  0  0  0  0  0  0  0  0  0  0  0
    3.4229    5.1149    0.3081 H   0  0  0  0  0  0  0  0  0  0  0  0
    1.3211    4.5177    0.2063 C   0  0  0  0  0  0  0  0  0  0  0  0
    0.9214    5.5219    0.4099 H   0  0  0  0  0  0  0  0  0  0  0  0
    0.4554    3.4381   -0.0009 C   0  0  0  0  0  0  0  0  0  0  0  0
   -0.6370    3.5559    0.0379 H   0  0  0  0  0  0  0  0  0  0  0  0
    0.9999    2.1668   -0.2578 C   0  0  0  0  0  0  0  0  0  0  0  0
    0.2103    0.9771   -0.4862 C   0  0  0  0  0  0  0  0  0  0  0  0
   -0.8950    1.0044   -0.4828 H   0  0  0  0  0  0  0  0  0  0  0  0
    0.0972   -1.3436   -0.8345 C   0  0  0  0  0  0  0  0  0  0  0  0
    0.2475   -2.1230   -1.9956 C   0  0  0  0  0  0  0  0  0  0  0  0
    0.9692   -1.8069   -2.7595 H   0  0  0  0  0  0  0  0  0  0  0  0
   -0.5336   -3.2713   -2.1482 C   0  0  0  0  0  0  0  0  0  0  0  0
   -0.4350   -3.8811   -3.0584 H   0  0  0  0  0  0  0  0  0  0  0  0
   -1.4271   -3.6553   -1.1372 C   0  0  0  0  0  0  0  0  0  0  0  0
   -2.0318   -4.5673   -1.2596 H   0  0  0  0  0  0  0  0  0  0  0  0
   -1.5550   -2.9098    0.0500 C   0  0  0  0  0  0  0  0  0  0  0  0
   -2.4890   -3.3539    1.1470 C   0  0  0  0  0  0  0  0  0  0  0  0
   -2.9862   -4.3084    0.8897 H   0  0  0  0  0  0  0  0  0  0  0  0
   -3.2770   -2.5956    1.3366 H   0  0  0  0  0  0  0  0  0  0  0  0
   -1.9506   -3.4905    2.1072 H   0  0  0  0  0  0  0  0  0  0  0  0
   -0.7816   -1.7319    0.2089 C   0  0  0  0  0  0  0  0  0  0  0  0
   -0.8196   -0.9746    1.4976 C   0  0  0  0  0  0  0  0  0  0  0  0
    0.1410   -1.2466    2.5039 C   0  0  0  0  0  0  0  0  0  0  0  0
    1.2004   -2.2947    2.2896 C   0  0  0  0  0  0  0  0  0  0  0  0
    0.7437   -3.2823    2.0706 H   0  0  0  0  0  0  0  0  0  0  0  0
    1.8453   -2.4005    3.1821 H   0  0  0  0  0  0  0  0  0  0  0  0
    1.8532   -2.0700    1.4189 H   0  0  0  0  0  0  0  0  0  0  0  0
    0.0753   -0.5172    3.7093 C   0  0  0  0  0  0  0  0  0  0  0  0
    0.8311   -0.7090    4.4863 H   0  0  0  0  0  0  0  0  0  0  0  0
   -0.9231    0.4436    3.9292 C   0  0  0  0  0  0  0  0  0  0  0  0
   -0.9425    1.0087    4.8735 H   0  0  0  0  0  0  0  0  0  0  0  0
   -1.8908    0.6911    2.9504 C   0  0  0  0  0  0  0  0  0  0  0  0
   -2.6620    1.4612    3.1009 H   0  0  0  0  0  0  0  0  0  0  0  0
   -1.8466   -0.0206    1.7299 C   0  0  0  0  0  0  0  0  0  0  0  0
   -3.9874    0.4457    0.8825 C   0  0  0  0  0  0  0  0  0  0  0  0
   -4.4614    0.3823    1.8893 H   0  0  0  0  0  0  0  0  0  0  0  0
   -4.9212    0.7700   -0.2100 C   0  0  0  0  0  0  0  0  0  0  0  0
   -4.5087    0.7630   -1.5618 C   0  0  0  0  0  0  0  0  0  0  0  0
   -3.4683    0.5005   -1.8023 H   0  0  0  0  0  0  0  0  0  0  0  0
   -5.4498    1.0745   -2.5471 C   0  0  0  0  0  0  0  0  0  0  0  0
   -5.1680    1.0736   -3.6111 H   0  0  0  0  0  0  0  0  0  0  0  0
   -6.7624    1.3828   -2.1533 C   0  0  0  0  0  0  0  0  0  0  0  0
   -7.5364    1.6336   -2.8939 H   0  0  0  0  0  0  0  0  0  0  0  0
   -7.0737    1.3572   -0.7822 C   0  0  0  0  0  0  0  0  0  0  0  0
   -8.0989    1.5897   -0.4423 H   0  0  0  0  0  0  0  0  0  0  0  0
  1 13  1  0  0  0  0
  1  5  1  0  0  0  0
  2 14  1  0  0  0  0
  3 42  2  0  0  0  0
  3 41  1  0  0  0  0
  5  7  2  0  0  0  0
  6  5  1  0  0  0  0
  7  9  1  0  0  0  0
  7  8  1  0  0  0  0
  9 10  1  0  0  0  0
 11 12  1  0  0  0  0
 11  9  2  0  0  0  0
 13 11  1  0  0  0  0
 14 15  1  0  0  0  0
 14 13  2  0  0  0  0
 16  2  1  0  0  0  0
 16 28  1  0  0  0  0
 17 16  2  0  0  0  0
 18 17  1  0  0  0  0
 19 17  1  0  0  0  0
 19 21  2  0  0  0  0
 20 19  1  0  0  0  0
 21 23  1  0  0  0  0
 22 21  1  0  0  0  0
 23 28  2  0  0  0  0
 23 24  1  0  0  0  0
 24 26  1  0  0  0  0
 24 27  1  0  0  0  0
 25 24  1  0  0  0  0
 28 29  1  0  0  0  0
 29 41  2  0  0  0  0
 29 30  1  0  0  0  0
 30 35  2  0  0  0  0
 31 30  1  0  0  0  0
 31 33  1  0  0  0  0
 32 31  1  0  0  0  0
 34 31  1  0  0  0  0
 35 37  1  0  0  0  0
 35 36  1  0  0  0  0
 37 38  1  0  0  0  0
 39 40  1  0  0  0  0
 39 37  2  0  0  0  0
 41 39  1  0  0  0  0
 42 43  1  0  0  0  0
 44  4  1  0  0  0  0
 44 42  1  0  0  0  0
 45 44  2  0  0  0  0
 46 45  1  0  0  0  0
 47 49  2  0  0  0  0
 47 45  1  0  0  0  0
 48 47  1  0  0  0  0
 49 51  1  0  0  0  0
 50 49  1  0  0  0  0
 51 52  1  0  0  0  0
 51  4  2  0  0  0  0
M  END
