2,8
 OpenBabel05122313053D

 52 54  0  0  1  0  0  0  0  0999 V2000
   -0.4121   -0.1017    2.6089 P   0  0  2  0  0  0  0  0  0  0  0  0
    1.2856   -1.0929    0.4864 N   0  0  0  0  0  2  0  0  0  0  0  0
    2.4024   -2.7080    1.4492 N   0  0  0  0  0  0  0  0  0  0  0  0
    3.0730   -3.4681    1.5767 H   0  0  0  0  0  0  0  0  0  0  0  0
   -2.2800    0.0790    0.3479 N   0  0  0  0  0  0  0  0  0  0  0  0
   -3.8702   -1.2872    1.0441 N   0  0  0  0  0  0  0  0  0  0  0  0
   -4.7373   -1.8272    1.0461 H   0  0  0  0  0  0  0  0  0  0  0  0
    0.6549    1.5051    0.5406 N   0  0  0  0  0  2  0  0  0  0  0  0
    0.9371    3.4826    1.4323 N   0  0  0  0  0  0  0  0  0  0  0  0
    1.2011    4.4651    1.5241 H   0  0  0  0  0  0  0  0  0  0  0  0
    0.8243   -1.2022    1.8031 C   0  0  0  0  0  0  0  0  0  0  0  0
    1.5360   -2.2248    2.4065 C   0  0  0  0  0  0  0  0  0  0  0  0
    1.4900   -2.6281    3.4226 H   0  0  0  0  0  0  0  0  0  0  0  0
    2.2428   -2.0084    0.2859 C   0  0  2  0  0  3  0  0  0  0  0  0
   -1.9334   -0.3947    1.6111 C   0  0  0  0  0  0  0  0  0  0  0  0
   -2.9420   -1.2391    2.0590 C   0  0  0  0  0  0  0  0  0  0  0  0
   -3.0607   -1.7918    2.9963 H   0  0  0  0  0  0  0  0  0  0  0  0
   -3.4454   -0.4840    0.0208 C   0  0  0  0  0  0  0  0  0  0  0  0
    0.2142    1.4424    1.8590 C   0  0  0  0  0  0  0  0  0  0  0  0
    0.3971    2.6920    2.4261 C   0  0  0  0  0  0  0  0  0  0  0  0
    0.1904    3.0651    3.4335 H   0  0  0  0  0  0  0  0  0  0  0  0
    1.0883    2.7483    0.2908 C   0  0  2  0  0  3  0  0  0  0  0  0
    3.0523   -2.2192   -0.9581 C   0  0  0  0  0  0  0  0  0  0  0  0
    2.5900   -1.5414   -1.7038 H   0  0  0  0  0  0  0  0  0  0  0  0
    4.5182   -1.8028   -0.7371 C   0  0  0  0  0  0  0  0  0  0  0  0
    4.5934   -0.7529   -0.3906 H   0  0  0  0  0  0  0  0  0  0  0  0
    5.0852   -1.8943   -1.6842 H   0  0  0  0  0  0  0  0  0  0  0  0
    5.0215   -2.4484    0.0129 H   0  0  0  0  0  0  0  0  0  0  0  0
    2.9139   -3.6581   -1.4808 C   0  0  0  0  0  0  0  0  0  0  0  0
    1.8525   -3.8986   -1.6821 H   0  0  0  0  0  0  0  0  0  0  0  0
    3.3203   -4.4025   -0.7634 H   0  0  0  0  0  0  0  0  0  0  0  0
    3.4796   -3.7734   -2.4258 H   0  0  0  0  0  0  0  0  0  0  0  0
   -4.1660   -0.3033   -1.2900 C   0  0  0  0  0  0  0  0  0  0  0  0
   -3.4402   -0.6414   -2.0655 H   0  0  0  0  0  0  0  0  0  0  0  0
   -4.4915    1.1798   -1.5475 C   0  0  0  0  0  0  0  0  0  0  0  0
   -3.5825    1.8111   -1.5130 H   0  0  0  0  0  0  0  0  0  0  0  0
   -5.2041    1.5647   -0.7904 H   0  0  0  0  0  0  0  0  0  0  0  0
   -4.9527    1.3018   -2.5471 H   0  0  0  0  0  0  0  0  0  0  0  0
   -5.4145   -1.1870   -1.3958 C   0  0  0  0  0  0  0  0  0  0  0  0
   -5.1783   -2.2632   -1.2691 H   0  0  0  0  0  0  0  0  0  0  0  0
   -5.8790   -1.0718   -2.3934 H   0  0  0  0  0  0  0  0  0  0  0  0
   -6.1828   -0.8961   -0.6479 H   0  0  0  0  0  0  0  0  0  0  0  0
    1.6284    3.2488   -1.0189 C   0  0  0  0  0  0  0  0  0  0  0  0
    0.7709    3.1919   -1.7269 H   0  0  0  0  0  0  0  0  0  0  0  0
    2.1038    4.7034   -0.9344 C   0  0  0  0  0  0  0  0  0  0  0  0
    1.2918    5.3934   -0.6246 H   0  0  0  0  0  0  0  0  0  0  0  0
    2.4526    5.0460   -1.9268 H   0  0  0  0  0  0  0  0  0  0  0  0
    2.9575    4.8147   -0.2329 H   0  0  0  0  0  0  0  0  0  0  0  0
    2.7246    2.3050   -1.5461 C   0  0  0  0  0  0  0  0  0  0  0  0
    3.6082    2.3009   -0.8757 H   0  0  0  0  0  0  0  0  0  0  0  0
    3.0510    2.6207   -2.5556 H   0  0  0  0  0  0  0  0  0  0  0  0
    2.3418    1.2639   -1.6194 H   0  0  0  0  0  0  0  0  0  0  0  0
  1 15  1  6  0  0  0
  2 11  1  0  0  0  0
  3  4  1  0  0  0  0
  3 12  1  0  0  0  0
  5 15  1  0  0  0  0
  6  7  1  0  0  0  0
  6 16  1  0  0  0  0
  8 19  1  0  0  0  0
  9 10  1  0  0  0  0
  9 20  1  0  0  0  0
 11 12  2  0  0  0  0
 11  1  1  0  0  0  0
 12 13  1  0  0  0  0
 14 23  1  1  0  0  0
 14  2  1  0  0  0  0
 14  3  1  0  0  0  0
 15 16  2  0  0  0  0
 16 17  1  0  0  0  0
 18  5  2  0  0  0  0
 18  6  1  0  0  0  0
 19 20  2  0  0  0  0
 19  1  1  0  0  0  0
 20 21  1  0  0  0  0
 22 43  1  6  0  0  0
 22  8  1  0  0  0  0
 22  9  1  0  0  0  0
 23 25  1  0  0  0  0
 24 23  1  0  0  0  0
 25 26  1  0  0  0  0
 25 28  1  0  0  0  0
 27 25  1  0  0  0  0
 29 23  1  0  0  0  0
 29 31  1  0  0  0  0
 30 29  1  0  0  0  0
 32 29  1  0  0  0  0
 33 18  1  0  0  0  0
 34 33  1  0  0  0  0
 35 36  1  0  0  0  0
 35 33  1  0  0  0  0
 35 37  1  0  0  0  0
 38 35  1  0  0  0  0
 39 33  1  0  0  0  0
 39 40  1  0  0  0  0
 39 42  1  0  0  0  0
 41 39  1  0  0  0  0
 43 45  1  0  0  0  0
 44 43  1  0  0  0  0
 45 46  1  0  0  0  0
 45 48  1  0  0  0  0
 47 45  1  0  0  0  0
 49 43  1  0  0  0  0
 49 50  1  0  0  0  0
 51 49  1  0  0  0  0
 52 49  1  0  0  0  0
M  END
