2,5
 OpenBabel05122313053D

 30 32  0  0  0  0  0  0  0  0999 V2000
   -2.3471    3.1991   -0.0309 S   0  0  0  0  0  0  0  0  0  0  0  0
    0.7912    0.7671    0.0931 N   0  0  0  0  0  2  0  0  0  0  0  0
    2.1321    0.6835    0.1169 N   0  0  0  0  0  0  0  0  0  0  0  0
    2.8224    2.9031    0.0379 O   0  0  0  0  0  0  0  0  0  0  0  0
   -1.8621    0.6353    0.1090 N   0  0  0  0  0  2  0  0  0  0  0  0
    3.0705    1.6994    0.0766 C   0  0  0  0  0  0  0  0  0  0  0  0
    4.4678    1.1314    0.0853 C   0  0  0  0  0  0  0  0  0  0  0  0
    5.5700    1.9999    0.0365 C   0  0  0  0  0  0  0  0  0  0  0  0
    5.3973    3.0846   -0.0034 H   0  0  0  0  0  0  0  0  0  0  0  0
    6.8507    1.4309    0.0388 C   0  0  0  0  0  0  0  0  0  0  0  0
    7.7458    2.0698    0.0006 H   0  0  0  0  0  0  0  0  0  0  0  0
    6.9725    0.0341    0.0887 C   0  0  0  0  0  0  0  0  0  0  0  0
    7.9594   -0.4513    0.0901 H   0  0  0  0  0  0  0  0  0  0  0  0
    5.8030   -0.7465    0.1365 C   0  0  0  0  0  0  0  0  0  0  0  0
    5.8570   -1.8477    0.1753 H   0  0  0  0  0  0  0  0  0  0  0  0
    4.5773   -0.2097    0.1358 N   0  0  0  0  0  0  0  0  0  0  0  0
    0.1647    1.9285    0.0174 C   0  0  0  0  0  0  0  0  0  0  0  0
    0.7126    2.8798   -0.0221 H   0  0  0  0  0  0  0  0  0  0  0  0
   -1.2639    1.8274    0.0216 C   0  0  0  0  0  0  0  0  0  0  0  0
   -3.7049    2.0981    0.0679 C   0  0  0  0  0  0  0  0  0  0  0  0
   -3.2407    0.7488    0.1377 C   0  0  0  0  0  0  0  0  0  0  0  0
   -4.1754   -0.3038    0.2292 C   0  0  0  0  0  0  0  0  0  0  0  0
   -3.8264   -1.3423    0.2790 H   0  0  0  0  0  0  0  0  0  0  0  0
   -5.5356    0.0086    0.2478 C   0  0  0  0  0  0  0  0  0  0  0  0
   -6.2727   -0.8047    0.3168 H   0  0  0  0  0  0  0  0  0  0  0  0
   -5.9825    1.3480    0.1756 C   0  0  0  0  0  0  0  0  0  0  0  0
   -7.0611    1.5633    0.1897 H   0  0  0  0  0  0  0  0  0  0  0  0
   -5.0737    2.4081    0.0846 C   0  0  0  0  0  0  0  0  0  0  0  0
   -5.4201    3.4497    0.0280 H   0  0  0  0  0  0  0  0  0  0  0  0
    2.5342   -0.2685    0.1403 H   0  0  0  0  0  0  0  0  0  0  0  0
  1 19  1  0  0  0  0
  1 20  1  0  0  0  0
  2  3  1  0  0  0  0
  3 30  1  0  0  0  0
  4  6  2  0  0  0  0
  5 21  1  0  0  0  0
  6  7  1  0  0  0  0
  6  3  1  0  0  0  0
  7 16  1  0  0  0  0
  8 10  1  0  0  0  0
  8  7  2  0  0  0  0
  9  8  1  0  0  0  0
 10 12  2  0  0  0  0
 11 10  1  0  0  0  0
 12 13  1  0  0  0  0
 12 14  1  0  0  0  0
 14 15  1  0  0  0  0
 16 14  2  0  0  0  0
 17 19  2  0  0  0  0
 17  2  1  0  0  0  0
 18 17  1  0  0  0  0
 19  5  1  0  0  0  0
 20 28  2  0  0  0  0
 20 21  1  0  0  0  0
 21 22  2  0  0  0  0
 22 24  1  0  0  0  0
 22 23  1  0  0  0  0
 24 25  1  0  0  0  0
 26 27  1  0  0  0  0
 26 24  2  0  0  0  0
 28 26  1  0  0  0  0
 29 28  1  0  0  0  0
M  END
