1,2
 OpenBabel05122313053D

 45 46  0  0  0  0  0  0  0  0999 V2000
   -1.5601   -1.2065    1.3720 N   0  0  0  0  0  0  0  0  0  0  0  0
    1.5608   -1.2056    1.3727 N   0  0  0  0  0  0  0  0  0  0  0  0
   -4.2935    1.8272   -1.2546 N   0  0  0  0  0  0  0  0  0  0  0  0
    4.2921    1.8294   -1.2546 N   0  0  0  0  0  0  0  0  0  0  0  0
   -1.9117    0.1530    1.0542 C   0  0  0  0  0  0  0  0  0  0  0  0
   -2.9155    0.3419    0.0944 C   0  0  0  0  0  0  0  0  0  0  0  0
   -3.3342    1.6430   -0.2799 C   0  0  0  0  0  0  0  0  0  0  0  0
   -2.7292    2.7400    0.3990 C   0  0  0  0  0  0  0  0  0  0  0  0
   -1.7153    2.5209    1.3323 C   0  0  0  0  0  0  0  0  0  0  0  0
   -1.2492    1.2356    1.6750 C   0  0  0  0  0  0  0  0  0  0  0  0
   -0.0005    1.0813    2.5316 C   0  0  0  0  0  0  0  0  0  0  0  0
    1.2480    1.2363    1.6749 C   0  0  0  0  0  0  0  0  0  0  0  0
    1.7132    2.5219    1.3319 C   0  0  0  0  0  0  0  0  0  0  0  0
    2.7269    2.7415    0.3986 C   0  0  0  0  0  0  0  0  0  0  0  0
    3.3328    1.6447   -0.2799 C   0  0  0  0  0  0  0  0  0  0  0  0
    2.9152    0.3434    0.0948 C   0  0  0  0  0  0  0  0  0  0  0  0
    1.9115    0.1540    1.0546 C   0  0  0  0  0  0  0  0  0  0  0  0
   -4.8588    0.6766   -1.9318 C   0  0  0  0  0  0  0  0  0  0  0  0
   -4.7372    3.1633   -1.5896 C   0  0  0  0  0  0  0  0  0  0  0  0
    4.8580    0.6791   -1.9318 C   0  0  0  0  0  0  0  0  0  0  0  0
    4.7347    3.1658   -1.5900 C   0  0  0  0  0  0  0  0  0  0  0  0
   -3.3335   -0.5536   -0.3829 H   0  0  0  0  0  0  0  0  0  0  0  0
   -3.0396    3.7702    0.1848 H   0  0  0  0  0  0  0  0  0  0  0  0
   -1.2489    3.3952    1.8131 H   0  0  0  0  0  0  0  0  0  0  0  0
   -0.0002    0.1147    3.0798 H   0  0  0  0  0  0  0  0  0  0  0  0
   -0.0007    1.8648    3.3163 H   0  0  0  0  0  0  0  0  0  0  0  0
    1.2460    3.3960    1.8123 H   0  0  0  0  0  0  0  0  0  0  0  0
    3.0364    3.7719    0.1840 H   0  0  0  0  0  0  0  0  0  0  0  0
    3.3340   -0.5519   -0.3822 H   0  0  0  0  0  0  0  0  0  0  0  0
   -5.4359    0.0195   -1.2407 H   0  0  0  0  0  0  0  0  0  0  0  0
   -4.0729    0.0482   -2.4063 H   0  0  0  0  0  0  0  0  0  0  0  0
   -5.5459    1.0198   -2.7260 H   0  0  0  0  0  0  0  0  0  0  0  0
   -5.1974    3.6872   -0.7203 H   0  0  0  0  0  0  0  0  0  0  0  0
   -5.4979    3.1065   -2.3889 H   0  0  0  0  0  0  0  0  0  0  0  0
   -3.9034    3.8023   -1.9603 H   0  0  0  0  0  0  0  0  0  0  0  0
    4.0723    0.0501   -2.4059 H   0  0  0  0  0  0  0  0  0  0  0  0
    5.5445    1.0227   -2.7264 H   0  0  0  0  0  0  0  0  0  0  0  0
    5.4357    0.0225   -1.2408 H   0  0  0  0  0  0  0  0  0  0  0  0
    5.1940    3.6905   -0.7208 H   0  0  0  0  0  0  0  0  0  0  0  0
    3.9004    3.8038   -1.9615 H   0  0  0  0  0  0  0  0  0  0  0  0
    5.4959    3.1093   -2.3889 H   0  0  0  0  0  0  0  0  0  0  0  0
   -2.2964   -1.8619    1.0476 H   0  0  0  0  0  0  0  0  0  0  0  0
   -1.4102   -1.3404    2.3807 H   0  0  0  0  0  0  0  0  0  0  0  0
    1.4106   -1.3393    2.3813 H   0  0  0  0  0  0  0  0  0  0  0  0
    2.2978   -1.8606    1.0488 H   0  0  0  0  0  0  0  0  0  0  0  0
  1 43  1  0  0  0  0
  2 44  1  0  0  0  0
  3  7  1  0  0  0  0
  4 15  1  0  0  0  0
  5  1  1  0  0  0  0
  5 10  1  0  0  0  0
  6  5  2  0  0  0  0
  7  6  1  0  0  0  0
  7  8  2  0  0  0  0
  8  9  1  0  0  0  0
  9 10  2  0  0  0  0
  9 24  1  0  0  0  0
 10 11  1  0  0  0  0
 11 25  1  0  0  0  0
 11 26  1  0  0  0  0
 12 11  1  0  0  0  0
 13 12  1  0  0  0  0
 13 27  1  0  0  0  0
 14 13  2  0  0  0  0
 15 16  2  0  0  0  0
 15 14  1  0  0  0  0
 16 17  1  0  0  0  0
 17  2  1  0  0  0  0
 17 12  2  0  0  0  0
 18  3  1  0  0  0  0
 18 30  1  0  0  0  0
 19  3  1  0  0  0  0
 19 33  1  0  0  0  0
 20  4  1  0  0  0  0
 20 38  1  0  0  0  0
 21  4  1  0  0  0  0
 21 39  1  0  0  0  0
 22  6  1  0  0  0  0
 23  8  1  0  0  0  0
 28 14  1  0  0  0  0
 29 16  1  0  0  0  0
 31 18  1  0  0  0  0
 32 18  1  0  0  0  0
 34 19  1  0  0  0  0
 35 19  1  0  0  0  0
 36 20  1  0  0  0  0
 37 20  1  0  0  0  0
 40 21  1  0  0  0  0
 41 21  1  0  0  0  0
 42  1  1  0  0  0  0
 45  2  1  0  0  0  0
M  END
