1,3
 OpenBabel05122313053D

 44 47  0  0  1  0  0  0  0  0999 V2000
   -0.4512   -1.3436   -1.3482 N   0  0  0  0  0  2  0  0  0  0  0  0
   -1.2722   -0.3977   -1.9047 N   0  0  0  0  0  0  0  0  0  0  0  0
    0.9735    0.9036   -0.4762 N   0  0  0  0  0  2  0  0  0  0  0  0
    0.3916    2.7628   -1.5479 N   0  0  0  0  0  0  0  0  0  0  0  0
   -0.1814    3.4262   -2.0698 H   0  0  0  0  0  0  0  0  0  0  0  0
   -2.3587    1.0549   -0.3317 N   0  0  0  0  0  0  0  0  0  0  0  0
   -2.9679   -0.0686    0.1177 N   0  0  0  0  0  0  0  0  0  0  0  0
   -1.3701    0.9536   -1.4258 C   0  0  1  0  0  0  0  0  0  0  0  0
   -1.7716    1.5457   -2.2754 H   0  0  0  0  0  0  0  0  0  0  0  0
   -2.0577   -0.9316   -2.9007 C   0  0  1  0  0  3  0  0  0  0  0  0
   -1.6829   -2.2616   -3.0079 C   0  0  0  0  0  0  0  0  0  0  0  0
   -2.0788   -2.9970   -3.7150 H   0  0  0  0  0  0  0  0  0  0  0  0
   -0.6754   -2.4849   -2.0356 C   0  0  0  0  0  0  0  0  0  0  0  0
   -3.0923   -0.1405   -3.6250 C   0  0  0  0  0  0  0  0  0  0  0  0
   -3.8659    0.2466   -2.9296 H   0  0  0  0  0  0  0  0  0  0  0  0
   -3.5981   -0.7849   -4.3663 H   0  0  0  0  0  0  0  0  0  0  0  0
   -2.6594    0.7191   -4.1798 H   0  0  0  0  0  0  0  0  0  0  0  0
    0.0666   -3.7577   -1.8031 C   0  0  0  0  0  0  0  0  0  0  0  0
    1.1238   -3.5455   -1.5563 H   0  0  0  0  0  0  0  0  0  0  0  0
    0.0313   -4.3771   -2.7185 H   0  0  0  0  0  0  0  0  0  0  0  0
   -0.3895   -4.3559   -0.9884 H   0  0  0  0  0  0  0  0  0  0  0  0
   -0.0105    1.5242   -1.1223 C   0  0  1  0  0  3  0  0  0  0  0  0
    2.0751    1.7602   -0.4757 C   0  0  0  0  0  0  0  0  0  0  0  0
    3.3757    1.6006    0.0363 C   0  0  0  0  0  0  0  0  0  0  0  0
    3.6804    0.6548    0.5002 H   0  0  0  0  0  0  0  0  0  0  0  0
    4.2593    2.6708   -0.1194 C   0  0  0  0  0  0  0  0  0  0  0  0
    5.2865    2.5796    0.2622 H   0  0  0  0  0  0  0  0  0  0  0  0
    3.8739    3.8693   -0.7732 C   0  0  0  0  0  0  0  0  0  0  0  0
    4.6056    4.6840   -0.8740 H   0  0  0  0  0  0  0  0  0  0  0  0
    2.5920    4.0363   -1.3047 C   0  0  0  0  0  0  0  0  0  0  0  0
    2.2986    4.9602   -1.8229 H   0  0  0  0  0  0  0  0  0  0  0  0
    1.7053    2.9587   -1.1471 C   0  0  0  0  0  0  0  0  0  0  0  0
   -2.9227    2.2101    0.1744 C   0  0  0  0  0  0  0  0  0  0  0  0
   -3.9328    1.7788    1.0308 C   0  0  0  0  0  0  0  0  0  0  0  0
   -4.5988    2.4187    1.6199 H   0  0  0  0  0  0  0  0  0  0  0  0
   -3.9226    0.3559    0.9612 C   0  0  0  0  0  0  0  0  0  0  0  0
   -2.4859    3.5922   -0.1845 C   0  0  0  0  0  0  0  0  0  0  0  0
   -1.4692    3.8268    0.1925 H   0  0  0  0  0  0  0  0  0  0  0  0
   -3.1830    4.3248    0.2617 H   0  0  0  0  0  0  0  0  0  0  0  0
   -2.4992    3.7678   -1.2828 H   0  0  0  0  0  0  0  0  0  0  0  0
   -4.7810   -0.6227    1.6983 C   0  0  0  0  0  0  0  0  0  0  0  0
   -4.6672   -1.6347    1.2668 H   0  0  0  0  0  0  0  0  0  0  0  0
   -5.8502   -0.3371    1.6494 H   0  0  0  0  0  0  0  0  0  0  0  0
   -4.5060   -0.6693    2.7730 H   0  0  0  0  0  0  0  0  0  0  0  0
  2  8  1  0  0  0  0
  2  1  1  0  0  0  0
  3 23  1  0  0  0  0
  4 32  1  0  0  0  0
  4 22  1  0  0  0  0
  5  4  1  0  0  0  0
  6  7  1  0  0  0  0
  6 33  1  0  0  0  0
  7 36  2  0  0  0  0
  8  9  1  6  0  0  0
  8  6  1  0  0  0  0
 10 14  1  1  0  0  0
 10  2  1  0  0  0  0
 11 10  1  0  0  0  0
 11 13  2  0  0  0  0
 12 11  1  0  0  0  0
 13 18  1  0  0  0  0
 13  1  1  0  0  0  0
 14 15  1  0  0  0  0
 16 14  1  0  0  0  0
 17 14  1  0  0  0  0
 18 19  1  0  0  0  0
 18 21  1  0  0  0  0
 20 18  1  0  0  0  0
 22  8  1  6  0  0  0
 22  3  1  0  0  0  0
 23 24  1  0  0  0  0
 24 25  1  0  0  0  0
 26 24  2  0  0  0  0
 26 27  1  0  0  0  0
 28 26  1  0  0  0  0
 29 28  1  0  0  0  0
 30 32  1  0  0  0  0
 30 28  2  0  0  0  0
 31 30  1  0  0  0  0
 32 23  2  0  0  0  0
 33 34  2  0  0  0  0
 34 35  1  0  0  0  0
 36 34  1  0  0  0  0
 36 41  1  0  0  0  0
 37 33  1  0  0  0  0
 37 38  1  0  0  0  0
 37 39  1  0  0  0  0
 40 37  1  0  0  0  0
 41 44  1  0  0  0  0
 42 41  1  0  0  0  0
 43 41  1  0  0  0  0
M  END
