1,4
 OpenBabel05122313053D

 32 32  0  0  0  0  0  0  0  0999 V2000
   -3.4732    1.0909    0.1123 N   0  0  0  0  0  0  0  0  0  0  0  0
   -4.2467    0.7016   -0.4494 H   0  0  0  0  0  0  0  0  0  0  0  0
   -3.7519    1.1112    1.1098 H   0  0  0  0  0  0  0  0  0  0  0  0
   -0.6980    1.5270   -0.1445 N   0  0  0  0  0  0  0  0  0  0  0  0
   -0.4652    1.5613   -1.1680 H   0  0  0  0  0  0  0  0  0  0  0  0
    2.6949    0.3527   -0.0089 N   0  0  0  0  0  0  0  0  0  0  0  0
    2.5997   -0.0409    0.9302 H   0  0  0  0  0  0  0  0  0  0  0  0
    1.4772    1.3568   -1.6803 O   0  0  0  0  0  0  0  0  0  0  0  0
   -2.9808    2.4018   -0.3759 C   0  0  0  0  0  0  0  0  0  0  0  0
   -3.6792    3.2219   -0.1103 H   0  0  0  0  0  0  0  0  0  0  0  0
   -2.9134    2.3248   -1.4797 H   0  0  0  0  0  0  0  0  0  0  0  0
   -1.5998    2.6469    0.2250 C   0  0  0  0  0  0  0  0  0  0  0  0
   -1.6616    2.6658    1.3326 H   0  0  0  0  0  0  0  0  0  0  0  0
   -1.1786    3.6115   -0.1292 H   0  0  0  0  0  0  0  0  0  0  0  0
    0.6122    1.5284    0.5366 C   0  0  0  0  0  0  0  0  0  0  0  0
    0.5555    0.9176    1.4584 H   0  0  0  0  0  0  0  0  0  0  0  0
    0.8831    2.5711    0.8139 H   0  0  0  0  0  0  0  0  0  0  0  0
    1.6367    1.0442   -0.4974 C   0  0  0  0  0  0  0  0  0  0  0  0
    3.6741   -0.2635   -0.8903 C   0  0  0  0  0  0  0  0  0  0  0  0
    3.6088    0.2885   -1.8514 H   0  0  0  0  0  0  0  0  0  0  0  0
    3.3746   -1.3120   -1.1117 H   0  0  0  0  0  0  0  0  0  0  0  0
    5.0779   -0.2251   -0.3269 C   0  0  0  0  0  0  0  0  0  0  0  0
    5.5686    0.9295    0.3151 C   0  0  0  0  0  0  0  0  0  0  0  0
    4.9057    1.8008    0.4329 H   0  0  0  0  0  0  0  0  0  0  0  0
    6.8811    0.9706    0.8063 C   0  0  0  0  0  0  0  0  0  0  0  0
    7.2500    1.8794    1.3061 H   0  0  0  0  0  0  0  0  0  0  0  0
    7.7245   -0.1430    0.6602 C   0  0  0  0  0  0  0  0  0  0  0  0
    8.7545   -0.1115    1.0466 H   0  0  0  0  0  0  0  0  0  0  0  0
    7.2443   -1.2980    0.0242 C   0  0  0  0  0  0  0  0  0  0  0  0
    7.8957   -2.1780   -0.0882 H   0  0  0  0  0  0  0  0  0  0  0  0
    5.9283   -1.3388   -0.4615 C   0  0  0  0  0  0  0  0  0  0  0  0
    5.5510   -2.2505   -0.9516 H   0  0  0  0  0  0  0  0  0  0  0  0
  1  3  1  0  0  0  0
  2  1  1  0  0  0  0
  4 12  1  0  0  0  0
  4 15  1  0  0  0  0
  5  4  1  0  0  0  0
  6  7  1  0  0  0  0
  8 18  2  0  0  0  0
  9 10  1  0  0  0  0
  9  1  1  0  0  0  0
  9 12  1  0  0  0  0
 11  9  1  0  0  0  0
 12 13  1  0  0  0  0
 14 12  1  0  0  0  0
 15 17  1  0  0  0  0
 15 16  1  0  0  0  0
 18  6  1  0  0  0  0
 18 15  1  0  0  0  0
 19 22  1  0  0  0  0
 19  6  1  0  0  0  0
 20 19  1  0  0  0  0
 21 19  1  0  0  0  0
 22 23  1  0  0  0  0
 23 24  1  0  0  0  0
 23 25  2  0  0  0  0
 25 26  1  0  0  0  0
 27 25  1  0  0  0  0
 27 28  1  0  0  0  0
 29 27  2  0  0  0  0
 30 29  1  0  0  0  0
 31 22  2  0  0  0  0
 31 29  1  0  0  0  0
 32 31  1  0  0  0  0
M  END
