2,3
 OpenBabel05122313053D

 28 30  0  0  1  0  0  0  0  0999 V2000
   -7.3965   -0.1800   -0.0610 Br  0  0  0  0  0  0  0  0  0  0  0  0
    3.1836    1.1485    0.1974 N   0  0  0  0  0  2  0  0  0  0  0  0
    0.8755    0.0771    0.3985 N   0  0  0  0  0  2  0  0  0  0  0  0
   -0.3893   -0.3430    0.4066 N   0  0  0  0  0  0  0  0  0  0  0  0
   -0.5865   -1.3314    0.5753 H   0  0  0  0  0  0  0  0  0  0  0  0
    4.4440    1.6154    0.0925 C   0  0  0  0  0  3  0  0  0  0  0  0
    5.2489    0.8752    0.2055 H   0  0  0  0  0  0  0  0  0  0  0  0
    4.7334    2.9607   -0.1583 C   0  0  0  0  0  0  0  0  0  0  0  0
    5.7812    3.2824   -0.2376 H   0  0  0  0  0  0  0  0  0  0  0  0
    3.6745    3.8700   -0.3070 C   0  0  0  0  0  0  0  0  0  0  0  0
    3.8694    4.9340   -0.5058 H   0  0  0  0  0  0  0  0  0  0  0  0
    2.3635    3.3961   -0.2022 C   0  0  0  0  0  0  0  0  0  0  0  0
    1.5017    4.0684   -0.3171 H   0  0  0  0  0  0  0  0  0  0  0  0
    2.1476    2.0305    0.0475 C   0  0  0  0  0  0  0  0  0  0  0  0
    0.8398    1.4072    0.1560 C   0  0  1  0  0  3  0  0  0  0  0  0
   -0.5038    1.8343    0.0224 C   0  0  0  0  0  0  0  0  0  0  0  0
   -0.8709    2.8384   -0.2078 H   0  0  0  0  0  0  0  0  0  0  0  0
   -1.2821    0.6779    0.1805 C   0  0  0  0  0  0  0  0  0  0  0  0
   -2.7276    0.4643    0.1208 C   0  0  0  0  0  0  0  0  0  0  0  0
   -3.2721   -0.8007   -0.2006 C   0  0  0  0  0  0  0  0  0  0  0  0
   -2.6112   -1.6451   -0.4503 H   0  0  0  0  0  0  0  0  0  0  0  0
   -4.6563   -0.9992   -0.2516 C   0  0  0  0  0  0  0  0  0  0  0  0
   -5.0679   -1.9852   -0.5080 H   0  0  0  0  0  0  0  0  0  0  0  0
   -5.5177    0.0790    0.0100 C   0  0  0  0  0  0  0  0  0  0  0  0
   -5.0016    1.3487    0.3216 C   0  0  0  0  0  0  0  0  0  0  0  0
   -5.6841    2.1848    0.5285 H   0  0  0  0  0  0  0  0  0  0  0  0
   -3.6167    1.5327    0.3786 C   0  0  0  0  0  0  0  0  0  0  0  0
   -3.2165    2.5210    0.6486 H   0  0  0  0  0  0  0  0  0  0  0  0
  1 24  1  0  0  0  0
  3  4  1  0  0  0  0
  4  5  1  0  0  0  0
  6  2  1  0  0  0  0
  6  7  1  0  0  0  0
  8  6  1  0  0  0  0
  9  8  1  0  0  0  0
 10 12  1  0  0  0  0
 10  8  2  0  0  0  0
 11 10  1  0  0  0  0
 12 14  2  0  0  0  0
 13 12  1  0  0  0  0
 14  2  1  0  0  0  0
 15 14  1  6  0  0  0
 15  3  1  0  0  0  0
 16 15  1  0  0  0  0
 16 18  2  0  0  0  0
 17 16  1  0  0  0  0
 18  4  1  0  0  0  0
 19 18  1  0  0  0  0
 19 27  1  0  0  0  0
 20 19  2  0  0  0  0
 21 20  1  0  0  0  0
 22 20  1  0  0  0  0
 22 24  2  0  0  0  0
 23 22  1  0  0  0  0
 24 25  1  0  0  0  0
 25 27  2  0  0  0  0
 25 26  1  0  0  0  0
 27 28  1  0  0  0  0
M  END
