2,3
 OpenBabel05122313053D

 25 27  0  0  1  0  0  0  0  0999 V2000
   -4.9351    1.1107   -0.0904 O   0  0  0  0  0  0  0  0  0  0  0  0
    1.7227    1.2309    0.2740 N   0  0  0  0  0  2  0  0  0  0  0  0
   -0.4825   -0.0509    0.3770 N   0  0  0  0  0  2  0  0  0  0  0  0
   -1.7063   -0.5836    0.3532 N   0  0  0  0  0  0  0  0  0  0  0  0
   -1.8095   -1.5987    0.4023 H   0  0  0  0  0  0  0  0  0  0  0  0
    2.9368    1.8139    0.2162 C   0  0  0  0  0  3  0  0  0  0  0  0
    3.8039    1.1437    0.3024 H   0  0  0  0  0  0  0  0  0  0  0  0
    3.1066    3.1916    0.0444 C   0  0  0  0  0  0  0  0  0  0  0  0
    4.1218    3.6098    0.0009 H   0  0  0  0  0  0  0  0  0  0  0  0
    1.9716    4.0093   -0.0726 C   0  0  0  0  0  0  0  0  0  0  0  0
    2.0719    5.0959   -0.2093 H   0  0  0  0  0  0  0  0  0  0  0  0
    0.7076    3.4148   -0.0166 C   0  0  0  0  0  0  0  0  0  0  0  0
   -0.2103    4.0119   -0.1095 H   0  0  0  0  0  0  0  0  0  0  0  0
    0.6132    2.0235    0.1545 C   0  0  0  0  0  0  0  0  0  0  0  0
   -0.6347    1.2814    0.2046 C   0  0  1  0  0  3  0  0  0  0  0  0
   -2.0082    1.5988    0.0728 C   0  0  0  0  0  0  0  0  0  0  0  0
   -2.4753    2.5749   -0.0813 H   0  0  0  0  0  0  0  0  0  0  0  0
   -2.6780    0.3698    0.1644 C   0  0  0  0  0  0  0  0  0  0  0  0
   -4.0828    0.0544    0.0899 C   0  0  0  0  0  0  0  0  0  0  0  0
   -4.8066   -1.1257    0.1571 C   0  0  0  0  0  0  0  0  0  0  0  0
   -4.4069   -2.1367    0.2939 H   0  0  0  0  0  0  0  0  0  0  0  0
   -6.1820   -0.7600    0.0077 C   0  0  0  0  0  0  0  0  0  0  0  0
   -7.0487   -1.4293    0.0079 H   0  0  0  0  0  0  0  0  0  0  0  0
   -6.2005    0.6083   -0.1391 C   0  0  0  0  0  0  0  0  0  0  0  0
   -6.9990    1.3427   -0.2821 H   0  0  0  0  0  0  0  0  0  0  0  0
  1 19  1  0  0  0  0
  4  3  1  0  0  0  0
  4  5  1  0  0  0  0
  6  2  1  0  0  0  0
  6  7  1  0  0  0  0
  8  6  1  0  0  0  0
  9  8  1  0  0  0  0
 10 12  1  0  0  0  0
 10  8  2  0  0  0  0
 11 10  1  0  0  0  0
 12 14  2  0  0  0  0
 13 12  1  0  0  0  0
 14  2  1  0  0  0  0
 15 14  1  6  0  0  0
 15  3  1  0  0  0  0
 16 18  2  0  0  0  0
 16 15  1  0  0  0  0
 17 16  1  0  0  0  0
 18  4  1  0  0  0  0
 19 20  2  0  0  0  0
 19 18  1  0  0  0  0
 20 21  1  0  0  0  0
 22 23  1  0  0  0  0
 22 20  1  0  0  0  0
 24  1  1  0  0  0  0
 24 22  2  0  0  0  0
 25 24  1  0  0  0  0
M  END
