2,3
 OpenBabel05122313053D

 28 30  0  0  1  0  0  0  0  0999 V2000
   -5.9951   -1.2432   -0.2755 Br  0  0  0  0  0  0  0  0  0  0  0  0
    3.1460    0.9104    0.0863 N   0  0  0  0  0  2  0  0  0  0  0  0
    0.6847    0.3256    0.4309 N   0  0  0  0  0  2  0  0  0  0  0  0
   -0.6357    0.1625    0.5071 N   0  0  0  0  0  0  0  0  0  0  0  0
   -1.0131   -0.7540    0.7565 H   0  0  0  0  0  0  0  0  0  0  0  0
    4.4671    1.1142   -0.0893 C   0  0  0  0  0  3  0  0  0  0  0  0
    5.1187    0.2413    0.0592 H   0  0  0  0  0  0  0  0  0  0  0  0
    4.9988    2.3558   -0.4524 C   0  0  0  0  0  0  0  0  0  0  0  0
    6.0846    2.4608   -0.5853 H   0  0  0  0  0  0  0  0  0  0  0  0
    4.1291    3.4411   -0.6430 C   0  0  0  0  0  0  0  0  0  0  0  0
    4.5163    4.4297   -0.9297 H   0  0  0  0  0  0  0  0  0  0  0  0
    2.7570    3.2403   -0.4658 C   0  0  0  0  0  0  0  0  0  0  0  0
    2.0365    4.0576   -0.6097 H   0  0  0  0  0  0  0  0  0  0  0  0
    2.2935    1.9642   -0.1042 C   0  0  0  0  0  0  0  0  0  0  0  0
    0.8961    1.6170    0.0882 C   0  0  1  0  0  3  0  0  0  0  0  0
   -0.3443    2.2883   -0.0391 C   0  0  0  0  0  0  0  0  0  0  0  0
   -0.5211    3.3264   -0.3339 H   0  0  0  0  0  0  0  0  0  0  0  0
   -1.3227    1.3203    0.2297 C   0  0  0  0  0  0  0  0  0  0  0  0
   -2.7849    1.3933    0.2302 C   0  0  0  0  0  0  0  0  0  0  0  0
   -3.5649    0.2351    0.0089 C   0  0  0  0  0  0  0  0  0  0  0  0
   -3.0928   -0.7337   -0.2093 H   0  0  0  0  0  0  0  0  0  0  0  0
   -4.9635    0.3244    0.0225 C   0  0  0  0  0  0  0  0  0  0  0  0
   -5.6122    1.5510    0.2385 C   0  0  0  0  0  0  0  0  0  0  0  0
   -6.7097    1.6025    0.2424 H   0  0  0  0  0  0  0  0  0  0  0  0
   -4.8331    2.7002    0.4455 C   0  0  0  0  0  0  0  0  0  0  0  0
   -5.3316    3.6655    0.6191 H   0  0  0  0  0  0  0  0  0  0  0  0
   -3.4354    2.6291    0.4472 C   0  0  0  0  0  0  0  0  0  0  0  0
   -2.8380    3.5317    0.6393 H   0  0  0  0  0  0  0  0  0  0  0  0
  1 22  1  0  0  0  0
  3  4  1  0  0  0  0
  4  5  1  0  0  0  0
  6  7  1  0  0  0  0
  6  2  1  0  0  0  0
  8  6  1  0  0  0  0
  9  8  1  0  0  0  0
 10 12  1  0  0  0  0
 10  8  2  0  0  0  0
 11 10  1  0  0  0  0
 12 14  2  0  0  0  0
 13 12  1  0  0  0  0
 14  2  1  0  0  0  0
 15 14  1  6  0  0  0
 15  3  1  0  0  0  0
 16 15  1  0  0  0  0
 16 18  2  0  0  0  0
 17 16  1  0  0  0  0
 18 19  1  0  0  0  0
 18  4  1  0  0  0  0
 19 27  1  0  0  0  0
 20 22  1  0  0  0  0
 20 19  2  0  0  0  0
 21 20  1  0  0  0  0
 22 23  2  0  0  0  0
 23 24  1  0  0  0  0
 23 25  1  0  0  0  0
 25 27  2  0  0  0  0
 25 26  1  0  0  0  0
 27 28  1  0  0  0  0
M  END
