1,2
 OpenBabel05122313053D

 66 70  0  0  0  0  0  0  0  0999 V2000
    1.2068    0.1130   -0.1200 N   0  0  0  0  0  2  0  0  0  0  0  0
    2.5877   -1.3564    1.5537 N   0  0  0  0  0  2  0  0  0  0  0  0
   -5.1886   -0.7723   -0.9759 N   0  0  0  0  0  0  0  0  0  0  0  0
   -5.1784    1.3931    0.2760 N   0  0  0  0  0  0  0  0  0  0  0  0
   -6.8811    0.9209   -1.3900 F   0  0  0  0  0  0  0  0  0  0  0  0
   -6.9538   -0.2330    0.6020 F   0  0  0  0  0  0  0  0  0  0  0  0
   -6.1185    0.3290   -0.3743 B   0  0  0  0  0  0  0  0  0  0  0  0
    0.5688    0.9039   -1.0216 C   0  0  0  0  0  0  0  0  0  0  0  0
    1.2201    1.4837   -1.6939 H   0  0  0  0  0  0  0  0  0  0  0  0
   -0.8158    0.9838   -1.1010 C   0  0  0  0  0  0  0  0  0  0  0  0
   -1.2839    1.6366   -1.8507 H   0  0  0  0  0  0  0  0  0  0  0  0
   -1.6119    0.2130   -0.2188 C   0  0  0  0  0  0  0  0  0  0  0  0
   -0.9540   -0.6022    0.7061 C   0  0  0  0  0  0  0  0  0  0  0  0
   -1.5453   -1.2106    1.4032 H   0  0  0  0  0  0  0  0  0  0  0  0
    0.4529   -0.6451    0.7517 C   0  0  0  0  0  0  0  0  0  0  0  0
    1.2219   -1.4625    1.6822 C   0  0  0  0  0  0  0  0  0  0  0  0
    0.6539   -2.3119    2.6546 C   0  0  0  0  0  0  0  0  0  0  0  0
   -0.4400   -2.3789    2.7377 H   0  0  0  0  0  0  0  0  0  0  0  0
    1.4589   -3.0671    3.5128 C   0  0  0  0  0  0  0  0  0  0  0  0
    2.8621   -2.9334    3.3534 C   0  0  0  0  0  0  0  0  0  0  0  0
    3.5571   -3.4965    3.9934 H   0  0  0  0  0  0  0  0  0  0  0  0
    3.3782   -2.0855    2.3826 C   0  0  0  0  0  0  0  0  0  0  0  0
    4.4629   -1.9636    2.2383 H   0  0  0  0  0  0  0  0  0  0  0  0
   -3.0979    0.2578   -0.2752 C   0  0  0  0  0  3  0  0  0  0  0  0
   -3.7931   -0.7827   -0.9290 C   0  0  0  0  0  0  0  0  0  0  0  0
   -3.3290   -1.9490   -1.6401 C   0  0  0  0  0  0  0  0  0  0  0  0
   -4.4801   -2.6194   -2.0965 C   0  0  0  0  0  0  0  0  0  0  0  0
   -5.6112   -1.8631   -1.6602 C   0  0  0  0  0  0  0  0  0  0  0  0
   -5.5923    2.5065    0.9282 C   0  0  0  0  0  0  0  0  0  0  0  0
   -4.4578    3.2080    1.4417 C   0  0  0  0  0  0  0  0  0  0  0  0
   -3.3131    2.4783    1.0683 C   0  0  0  0  0  0  0  0  0  0  0  0
   -3.7842    1.3335    0.3275 C   0  0  0  0  0  0  0  0  0  0  0  0
   -7.0350    2.8604    1.0453 C   0  0  0  0  0  0  0  0  0  0  0  0
   -7.4792    3.0037    0.0394 H   0  0  0  0  0  0  0  0  0  0  0  0
   -7.1773    3.7803    1.6402 H   0  0  0  0  0  0  0  0  0  0  0  0
   -7.5981    2.0271    1.5121 H   0  0  0  0  0  0  0  0  0  0  0  0
   -4.5042    4.5125    2.1844 C   0  0  0  0  0  0  0  0  0  0  0  0
   -3.6651    4.5548    2.9108 H   0  0  0  0  0  0  0  0  0  0  0  0
   -5.4291    4.5573    2.7976 H   0  0  0  0  0  0  0  0  0  0  0  0
   -4.4419    5.7397    1.2604 C   0  0  0  0  0  0  0  0  0  0  0  0
   -3.5067    5.7405    0.6645 H   0  0  0  0  0  0  0  0  0  0  0  0
   -4.4804    6.6848    1.8393 H   0  0  0  0  0  0  0  0  0  0  0  0
   -5.2882    5.7423    0.5438 H   0  0  0  0  0  0  0  0  0  0  0  0
   -1.9011    2.8469    1.4043 C   0  0  0  0  0  0  0  0  0  0  0  0
   -1.3323    3.1873    0.5143 H   0  0  0  0  0  0  0  0  0  0  0  0
   -1.3328    1.9966    1.8300 H   0  0  0  0  0  0  0  0  0  0  0  0
   -1.8797    3.6722    2.1416 H   0  0  0  0  0  0  0  0  0  0  0  0
   -7.0583   -2.1438   -1.8787 C   0  0  0  0  0  0  0  0  0  0  0  0
   -7.5820   -2.2411   -0.9062 H   0  0  0  0  0  0  0  0  0  0  0  0
   -7.2057   -3.0677   -2.4661 H   0  0  0  0  0  0  0  0  0  0  0  0
   -7.5405   -1.2929   -2.4011 H   0  0  0  0  0  0  0  0  0  0  0  0
   -4.5375   -3.9169   -2.8509 C   0  0  0  0  0  0  0  0  0  0  0  0
   -3.6624   -3.9884   -3.5311 H   0  0  0  0  0  0  0  0  0  0  0  0
   -5.4284   -3.9214   -3.5137 H   0  0  0  0  0  0  0  0  0  0  0  0
   -4.5739   -5.1511   -1.9350 C   0  0  0  0  0  0  0  0  0  0  0  0
   -3.6733   -5.1923   -1.2891 H   0  0  0  0  0  0  0  0  0  0  0  0
   -4.6172   -6.0906   -2.5226 H   0  0  0  0  0  0  0  0  0  0  0  0
   -5.4579   -5.1246   -1.2657 H   0  0  0  0  0  0  0  0  0  0  0  0
   -1.9182   -2.3903   -1.8839 C   0  0  0  0  0  0  0  0  0  0  0  0
   -1.8894   -3.1882   -2.6507 H   0  0  0  0  0  0  0  0  0  0  0  0
   -1.4405   -2.7998   -0.9693 H   0  0  0  0  0  0  0  0  0  0  0  0
   -1.2693   -1.5632   -2.2320 H   0  0  0  0  0  0  0  0  0  0  0  0
    0.8796   -3.9789    4.5575 C   0  0  0  0  0  0  0  0  0  0  0  0
   -0.2267   -3.9669    4.5483 H   0  0  0  0  0  0  0  0  0  0  0  0
    1.2193   -3.6852    5.5726 H   0  0  0  0  0  0  0  0  0  0  0  0
    1.2149   -5.0254    4.4007 H   0  0  0  0  0  0  0  0  0  0  0  0
  1 15  1  0  0  0  0
  2 16  1  0  0  0  0
  2 22  1  0  0  0  0
  3 25  1  0  0  0  0
  3  7  1  0  0  0  0
  4 32  1  0  0  0  0
  4 29  1  0  0  0  0
  5  7  1  0  0  0  0
  7  4  1  0  0  0  0
  7  6  1  0  0  0  0
  8  1  1  0  0  0  0
  9  8  1  0  0  0  0
 10  8  2  0  0  0  0
 10 12  1  0  0  0  0
 11 10  1  0  0  0  0
 12 13  2  0  0  0  0
 13 15  1  0  0  0  0
 13 14  1  0  0  0  0
 15 16  2  0  0  0  0
 16 17  1  0  0  0  0
 17 18  1  0  0  0  0
 17 19  2  0  0  0  0
 19 63  1  0  0  0  0
 20 19  1  0  0  0  0
 20 21  1  0  0  0  0
 22 20  2  0  0  0  0
 23 22  1  0  0  0  0
 24 12  1  0  0  0  0
 24 32  1  0  0  0  0
 25 24  1  0  0  0  0
 26 25  2  0  0  0  0
 27 28  2  0  0  0  0
 27 26  1  0  0  0  0
 28  3  1  0  0  0  0
 29 33  1  0  0  0  0
 29 30  2  0  0  0  0
 30 37  1  0  0  0  0
 31 44  1  0  0  0  0
 31 30  1  0  0  0  0
 32 31  2  0  0  0  0
 33 36  1  0  0  0  0
 33 35  1  0  0  0  0
 34 33  1  0  0  0  0
 37 39  1  0  0  0  0
 37 38  1  0  0  0  0
 40 42  1  0  0  0  0
 40 37  1  0  0  0  0
 41 40  1  0  0  0  0
 43 40  1  0  0  0  0
 44 46  1  0  0  0  0
 44 47  1  0  0  0  0
 45 44  1  0  0  0  0
 48 28  1  0  0  0  0
 48 49  1  0  0  0  0
 50 48  1  0  0  0  0
 51 48  1  0  0  0  0
 52 27  1  0  0  0  0
 52 55  1  0  0  0  0
 53 52  1  0  0  0  0
 54 52  1  0  0  0  0
 55 56  1  0  0  0  0
 55 58  1  0  0  0  0
 57 55  1  0  0  0  0
 59 26  1  0  0  0  0
 59 61  1  0  0  0  0
 60 59  1  0  0  0  0
 62 59  1  0  0  0  0
 63 65  1  0  0  0  0
 64 63  1  0  0  0  0
 66 63  1  0  0  0  0
M  END
