1,26
 OpenBabel05122313053D

 48 52  0  0  1  0  0  0  0  0999 V2000
    0.1682   -0.9529   -0.5361 N   0  0  0  0  0  2  0  0  0  0  0  0
    1.3096   -0.7136   -1.4661 C   0  0  2  0  0  0  0  0  0  0  0  0
    1.2957    0.3771   -1.6818 H   0  0  0  0  0  0  0  0  0  0  0  0
    0.8807   -1.5304   -2.7096 C   0  0  0  0  0  0  0  0  0  0  0  0
    0.9619   -0.9693   -3.6588 H   0  0  0  0  0  0  0  0  0  0  0  0
    1.4357   -2.4863   -2.7983 H   0  0  0  0  0  0  0  0  0  0  0  0
   -0.5223   -1.8426   -2.4875 O   0  0  0  0  0  0  0  0  0  0  0  0
   -0.7928   -1.5073   -1.2069 C   0  0  0  0  0  0  0  0  0  0  0  0
   -2.1710   -1.8009   -0.7539 C   0  0  0  0  0  0  0  0  0  0  0  0
   -2.6641   -3.1059   -0.9408 C   0  0  0  0  0  0  0  0  0  0  0  0
   -1.9916   -3.8741   -1.3481 H   0  0  0  0  0  0  0  0  0  0  0  0
   -3.9883   -3.4249   -0.6141 C   0  0  0  0  0  0  0  0  0  0  0  0
   -4.3505   -4.4551   -0.7454 H   0  0  0  0  0  0  0  0  0  0  0  0
   -4.8507   -2.4263   -0.1372 C   0  0  0  0  0  0  0  0  0  0  0  0
   -5.8954   -2.6667    0.1088 H   0  0  0  0  0  0  0  0  0  0  0  0
   -4.3837   -1.1159    0.0195 C   0  0  0  0  0  0  0  0  0  0  0  0
   -5.0555   -0.3219    0.3745 H   0  0  0  0  0  0  0  0  0  0  0  0
   -3.0417   -0.7909   -0.2634 C   0  0  0  0  0  0  0  0  0  0  0  0
   -2.6143    0.6076   -0.0761 C   0  0  0  0  0  0  0  0  0  0  0  0
   -3.4776    1.5707   -0.4720 O   0  0  0  0  0  0  0  0  0  0  0  0
   -2.9084    2.8425   -0.0386 C   0  0  0  0  0  0  0  0  0  0  0  0
   -3.5303    3.2198    0.7978 H   0  0  0  0  0  0  0  0  0  0  0  0
   -2.9652    3.5498   -0.8871 H   0  0  0  0  0  0  0  0  0  0  0  0
   -1.4701    2.5021    0.4079 C   0  0  1  0  0  0  0  0  0  0  0  0
   -1.2527    2.8486    1.4387 H   0  0  0  0  0  0  0  0  0  0  0  0
   -1.5130    1.0212    0.4705 N   0  0  0  0  0  2  0  0  0  0  0  0
   -0.3296    2.8959   -0.5144 C   0  0  0  0  0  0  0  0  0  0  0  0
    0.9301    3.1801    0.0481 C   0  0  0  0  0  0  0  0  0  0  0  0
    1.0435    3.1522    1.1435 H   0  0  0  0  0  0  0  0  0  0  0  0
    2.0286    3.4503   -0.7819 C   0  0  0  0  0  0  0  0  0  0  0  0
    3.0071    3.6766   -0.3319 H   0  0  0  0  0  0  0  0  0  0  0  0
    1.8833    3.4228   -2.1790 C   0  0  0  0  0  0  0  0  0  0  0  0
    2.7464    3.6329   -2.8289 H   0  0  0  0  0  0  0  0  0  0  0  0
    0.6334    3.1214   -2.7452 C   0  0  0  0  0  0  0  0  0  0  0  0
    0.5145    3.0945   -3.8392 H   0  0  0  0  0  0  0  0  0  0  0  0
   -0.4682    2.8582   -1.9155 C   0  0  0  0  0  0  0  0  0  0  0  0
   -1.4407    2.6087   -2.3701 H   0  0  0  0  0  0  0  0  0  0  0  0
    2.6704   -1.0738   -0.9173 C   0  0  0  0  0  0  0  0  0  0  0  0
    3.0044   -2.4078   -0.6188 C   0  0  0  0  0  0  0  0  0  0  0  0
    2.2591   -3.2072   -0.7529 H   0  0  0  0  0  0  0  0  0  0  0  0
    4.2664   -2.7220   -0.1017 C   0  0  0  0  0  0  0  0  0  0  0  0
    4.5116   -3.7656    0.1465 H   0  0  0  0  0  0  0  0  0  0  0  0
    5.2076   -1.7045    0.1245 C   0  0  0  0  0  0  0  0  0  0  0  0
    6.1964   -1.9514    0.5399 H   0  0  0  0  0  0  0  0  0  0  0  0
    4.8798   -0.3728   -0.1674 C   0  0  0  0  0  0  0  0  0  0  0  0
    5.6091    0.4298    0.0193 H   0  0  0  0  0  0  0  0  0  0  0  0
    3.6150   -0.0604   -0.6866 C   0  0  0  0  0  0  0  0  0  0  0  0
    3.3423    0.9850   -0.8977 H   0  0  0  0  0  0  0  0  0  0  0  0
  2  3  1  6  0  0  0
  2 38  1  0  0  0  0
  2  1  1  0  0  0  0
  4  7  1  0  0  0  0
  4  2  1  0  0  0  0
  5  4  1  0  0  0  0
  6  4  1  0  0  0  0
  7  8  1  0  0  0  0
  8  9  2  0  0  0  0
  8  1  1  0  0  0  0
  9 18  1  0  0  0  0
 10  9  1  0  0  0  0
 10 12  2  0  0  0  0
 11 10  1  0  0  0  0
 12 14  1  0  0  0  0
 13 12  1  0  0  0  0
 14 16  2  0  0  0  0
 14 15  1  0  0  0  0
 16 17  1  0  0  0  0
 18 19  2  0  0  0  0
 18 16  1  0  0  0  0
 19 26  1  0  0  0  0
 20 19  1  0  0  0  0
 20 21  1  0  0  0  0
 21 24  1  0  0  0  0
 21 22  1  0  0  0  0
 23 21  1  0  0  0  0
 24 26  1  0  0  0  0
 24 25  1  1  0  0  0
 27 28  1  0  0  0  0
 27 24  1  0  0  0  0
 28 29  1  0  0  0  0
 30 31  1  0  0  0  0
 30 28  2  0  0  0  0
 32 30  1  0  0  0  0
 33 32  1  0  0  0  0
 34 32  2  0  0  0  0
 34 36  1  0  0  0  0
 35 34  1  0  0  0  0
 36 27  2  0  0  0  0
 37 36  1  0  0  0  0
 38 47  2  0  0  0  0
 38 39  1  0  0  0  0
 39 41  2  0  0  0  0
 40 39  1  0  0  0  0
 41 43  1  0  0  0  0
 41 42  1  0  0  0  0
 43 44  1  0  0  0  0
 45 46  1  0  0  0  0
 45 43  2  0  0  0  0
 47 45  1  0  0  0  0
 48 47  1  0  0  0  0
M  END
