3,4
 OpenBabel05122313053D

 48 50  0  0  0  0  0  0  0  0999 V2000
   -0.1662    1.6071   -0.7376 C   0  0  0  0  0  0  0  0  0  0  0  0
   -0.7228    2.4686   -1.1472 H   0  0  0  0  0  0  0  0  0  0  0  0
    1.8498    0.4724   -0.2091 N   0  0  0  0  0  2  0  0  0  0  0  0
   -0.7927    0.5247   -0.3564 N   0  0  0  0  0  2  0  0  0  0  0  0
    1.2785    1.6180   -0.6678 C   0  0  0  0  0  0  0  0  0  0  0  0
    5.4566    1.2865   -0.7648 C   0  0  0  0  0  0  0  0  0  0  0  0
    6.0721    2.1417   -1.0831 H   0  0  0  0  0  0  0  0  0  0  0  0
    2.0341    2.7371   -1.1079 C   0  0  0  0  0  0  0  0  0  0  0  0
    1.5043    3.6408   -1.4407 H   0  0  0  0  0  0  0  0  0  0  0  0
    3.4127    2.6627   -1.0992 C   0  0  0  0  0  0  0  0  0  0  0  0
    4.0306    3.5186   -1.4103 H   0  0  0  0  0  0  0  0  0  0  0  0
    3.2183    0.3365   -0.2870 C   0  0  0  0  0  0  0  0  0  0  0  0
    6.0397    0.0713   -0.4390 C   0  0  0  0  0  0  0  0  0  0  0  0
    7.1324   -0.0476   -0.4868 H   0  0  0  0  0  0  0  0  0  0  0  0
    3.8437   -0.9058    0.0137 C   0  0  0  0  0  0  0  0  0  0  0  0
    3.2111   -1.7461    0.3304 H   0  0  0  0  0  0  0  0  0  0  0  0
    5.2237   -1.0274   -0.0633 C   0  0  0  0  0  0  0  0  0  0  0  0
    5.6893   -1.9969    0.1690 H   0  0  0  0  0  0  0  0  0  0  0  0
    4.0443    1.4480   -0.7150 C   0  0  0  0  0  0  0  0  0  0  0  0
   -2.4039    1.9007    1.6791 C   0  0  0  0  0  0  0  0  0  0  0  0
   -1.3003    1.8253    1.6064 H   0  0  0  0  0  0  0  0  0  0  0  0
   -1.9043   -1.1595   -2.4150 C   0  0  0  0  0  0  0  0  0  0  0  0
   -0.8540   -1.0380   -2.0779 H   0  0  0  0  0  0  0  0  0  0  0  0
   -4.1795   -0.3641   -1.5874 C   0  0  0  0  0  0  0  0  0  0  0  0
   -4.6445   -0.9702   -2.3798 H   0  0  0  0  0  0  0  0  0  0  0  0
   -2.2296   -2.6587   -2.3218 C   0  0  0  0  0  0  0  0  0  0  0  0
   -2.1156   -3.0086   -1.2770 H   0  0  0  0  0  0  0  0  0  0  0  0
   -1.5423   -3.2434   -2.9670 H   0  0  0  0  0  0  0  0  0  0  0  0
   -3.2662   -2.8744   -2.6542 H   0  0  0  0  0  0  0  0  0  0  0  0
   -3.0087    1.1760    0.4825 C   0  0  0  0  0  0  0  0  0  0  0  0
   -2.7793   -0.3452   -1.4719 C   0  0  0  0  0  0  0  0  0  0  0  0
   -2.2182    0.4623   -0.4526 C   0  0  0  0  0  0  0  0  0  0  0  0
   -4.9879    0.3662   -0.7066 C   0  0  0  0  0  0  0  0  0  0  0  0
   -6.0829    0.3369   -0.8126 H   0  0  0  0  0  0  0  0  0  0  0  0
   -2.8020    1.1908    2.9861 C   0  0  0  0  0  0  0  0  0  0  0  0
   -3.8973    1.2438    3.1561 H   0  0  0  0  0  0  0  0  0  0  0  0
   -2.3006    1.6662    3.8539 H   0  0  0  0  0  0  0  0  0  0  0  0
   -2.5070    0.1235    2.9487 H   0  0  0  0  0  0  0  0  0  0  0  0
   -4.4054    1.1149    0.3230 C   0  0  0  0  0  0  0  0  0  0  0  0
   -5.0490    1.6542    1.0346 H   0  0  0  0  0  0  0  0  0  0  0  0
   -2.7664    3.3940    1.6972 C   0  0  0  0  0  0  0  0  0  0  0  0
   -2.4400    3.9067    0.7689 H   0  0  0  0  0  0  0  0  0  0  0  0
   -2.2859    3.9018    2.5583 H   0  0  0  0  0  0  0  0  0  0  0  0
   -3.8615    3.5460    1.7918 H   0  0  0  0  0  0  0  0  0  0  0  0
   -1.9932   -0.6321   -3.8570 C   0  0  0  0  0  0  0  0  0  0  0  0
   -1.3178   -1.2042   -4.5257 H   0  0  0  0  0  0  0  0  0  0  0  0
   -1.7110    0.4391   -3.9174 H   0  0  0  0  0  0  0  0  0  0  0  0
   -3.0233   -0.7278   -4.2590 H   0  0  0  0  0  0  0  0  0  0  0  0
  1  5  2  0  0  0  0
  1  4  1  0  0  0  0
  2  1  1  0  0  0  0
  5  3  1  0  0  0  0
  6 19  2  0  0  0  0
  6 13  1  0  0  0  0
  7  6  1  0  0  0  0
  8 10  2  0  0  0  0
  8  5  1  0  0  0  0
  9  8  1  0  0  0  0
 10 19  1  0  0  0  0
 11 10  1  0  0  0  0
 12  3  1  0  0  0  0
 12 15  2  0  0  0  0
 13 17  2  0  0  0  0
 14 13  1  0  0  0  0
 15 16  1  0  0  0  0
 17 15  1  0  0  0  0
 17 18  1  0  0  0  0
 19 12  1  0  0  0  0
 20 41  1  0  0  0  0
 20 35  1  0  0  0  0
 21 20  1  0  0  0  0
 22 26  1  0  0  0  0
 22 23  1  0  0  0  0
 22 31  1  0  0  0  0
 24 31  2  0  0  0  0
 24 33  1  0  0  0  0
 25 24  1  0  0  0  0
 26 27  1  0  0  0  0
 28 26  1  0  0  0  0
 29 26  1  0  0  0  0
 30 20  1  0  0  0  0
 31 32  1  0  0  0  0
 32  4  1  0  0  0  0
 32 30  2  0  0  0  0
 33 39  2  0  0  0  0
 34 33  1  0  0  0  0
 35 36  1  0  0  0  0
 35 37  1  0  0  0  0
 38 35  1  0  0  0  0
 39 30  1  0  0  0  0
 39 40  1  0  0  0  0
 41 44  1  0  0  0  0
 41 43  1  0  0  0  0
 42 41  1  0  0  0  0
 45 22  1  0  0  0  0
 46 45  1  0  0  0  0
 47 45  1  0  0  0  0
 48 45  1  0  0  0  0
M  END
