1,2
 OpenBabel05122313053D

 42 43  0  0  0  0  0  0  0  0999 V2000
   -1.9431    0.2454   -0.0004 N   0  0  0  0  0  2  0  0  0  0  0  0
    0.4861    0.8270   -0.0003 N   0  0  0  0  0  2  0  0  0  0  0  0
   -1.6901    1.5961   -0.0003 C   0  0  0  0  0  0  0  0  0  0  0  0
   -2.7911    2.4868   -0.0002 C   0  0  0  0  0  0  0  0  0  0  0  0
   -2.6241    3.5677   -0.0001 H   0  0  0  0  0  0  0  0  0  0  0  0
   -4.0965    1.9961   -0.0004 C   0  0  0  0  0  0  0  0  0  0  0  0
   -4.9448    2.6962   -0.0004 H   0  0  0  0  0  0  0  0  0  0  0  0
   -4.3114    0.6074   -0.0006 C   0  0  0  0  0  0  0  0  0  0  0  0
   -5.3218    0.1766   -0.0008 H   0  0  0  0  0  0  0  0  0  0  0  0
   -3.2042   -0.2387   -0.0006 C   0  0  0  0  0  0  0  0  0  0  0  0
   -3.2901   -1.3330   -0.0006 H   0  0  0  0  0  0  0  0  0  0  0  0
   -0.2528    1.9239   -0.0003 C   0  0  0  0  0  0  0  0  0  0  0  0
    0.2371    3.3897   -0.0003 C   0  0  0  0  0  0  0  0  0  0  0  0
   -0.2738    4.0963    1.2832 C   0  0  0  0  0  0  0  0  0  0  0  0
    0.0553    5.1551    1.2755 H   0  0  0  0  0  0  0  0  0  0  0  0
    0.1585    3.6150    2.1834 H   0  0  0  0  0  0  0  0  0  0  0  0
   -1.3715    4.0846    1.4010 H   0  0  0  0  0  0  0  0  0  0  0  0
   -0.2743    4.0966   -1.2834 C   0  0  0  0  0  0  0  0  0  0  0  0
    0.1579    3.6157   -2.1838 H   0  0  0  0  0  0  0  0  0  0  0  0
    0.0546    5.1555   -1.2755 H   0  0  0  0  0  0  0  0  0  0  0  0
   -1.3721    4.0848   -1.4010 H   0  0  0  0  0  0  0  0  0  0  0  0
    1.7697    3.5627   -0.0006 C   0  0  0  0  0  0  0  0  0  0  0  0
    2.2506    3.1262    0.8924 H   0  0  0  0  0  0  0  0  0  0  0  0
    1.9865    4.6501   -0.0007 H   0  0  0  0  0  0  0  0  0  0  0  0
    2.2501    3.1261   -0.8939 H   0  0  0  0  0  0  0  0  0  0  0  0
    1.8971    0.7147   -0.0003 C   0  0  0  0  0  0  0  0  0  0  0  0
    2.5675    0.5582    1.2402 C   0  0  0  0  0  0  0  0  0  0  0  0
    3.9522    0.3117    1.2133 C   0  0  0  0  0  0  0  0  0  0  0  0
    4.4879    0.2040    2.1696 H   0  0  0  0  0  0  0  0  0  0  0  0
    4.6472    0.1967   -0.0005 C   0  0  0  0  0  0  0  0  0  0  0  0
    5.7318    0.0096   -0.0006 H   0  0  0  0  0  0  0  0  0  0  0  0
    3.9520    0.3113   -1.2143 C   0  0  0  0  0  0  0  0  0  0  0  0
    4.4875    0.2033   -2.1707 H   0  0  0  0  0  0  0  0  0  0  0  0
    2.5673    0.5578   -1.2410 C   0  0  0  0  0  0  0  0  0  0  0  0
    1.7965    0.6344    2.5294 C   0  0  0  0  0  0  0  0  0  0  0  0
    2.4420    0.4023    3.3972 H   0  0  0  0  0  0  0  0  0  0  0  0
    0.9386   -0.0739    2.5211 H   0  0  0  0  0  0  0  0  0  0  0  0
    1.3640    1.6456    2.6902 H   0  0  0  0  0  0  0  0  0  0  0  0
    1.7960    0.6334   -2.5299 C   0  0  0  0  0  0  0  0  0  0  0  0
    2.4418    0.4035   -3.3981 H   0  0  0  0  0  0  0  0  0  0  0  0
    1.3610    1.6437   -2.6898 H   0  0  0  0  0  0  0  0  0  0  0  0
    0.9396   -0.0767   -2.5221 H   0  0  0  0  0  0  0  0  0  0  0  0
  1  3  1  0  0  0  0
  2 12  1  0  0  0  0
  3 12  2  0  0  0  0
  3  4  1  0  0  0  0
  4  5  1  0  0  0  0
  6  7  1  0  0  0  0
  6  4  2  0  0  0  0
  8 10  2  0  0  0  0
  8  6  1  0  0  0  0
  9  8  1  0  0  0  0
 10  1  1  0  0  0  0
 11 10  1  0  0  0  0
 13 12  1  0  0  0  0
 13 14  1  0  0  0  0
 14 17  1  0  0  0  0
 14 16  1  0  0  0  0
 15 14  1  0  0  0  0
 18 20  1  0  0  0  0
 18 13  1  0  0  0  0
 19 18  1  0  0  0  0
 21 18  1  0  0  0  0
 22 13  1  0  0  0  0
 22 23  1  0  0  0  0
 24 22  1  0  0  0  0
 25 22  1  0  0  0  0
 26  2  1  0  0  0  0
 26 27  1  0  0  0  0
 27 35  1  0  0  0  0
 28 27  2  0  0  0  0
 28 29  1  0  0  0  0
 30 28  1  0  0  0  0
 31 30  1  0  0  0  0
 32 30  2  0  0  0  0
 33 32  1  0  0  0  0
 34 32  1  0  0  0  0
 34 26  2  0  0  0  0
 35 38  1  0  0  0  0
 35 36  1  0  0  0  0
 37 35  1  0  0  0  0
 39 42  1  0  0  0  0
 39 34  1  0  0  0  0
 40 39  1  0  0  0  0
 41 39  1  0  0  0  0
M  END
