39,78
 OpenBabel05122313053D

 78 83  0  0  0  0  0  0  0  0999 V2000
    7.4466    2.1950    0.0295 C   0  0  0  0  0  0  0  0  0  0  0  0
    6.3819    2.4295    0.1679 H   0  0  0  0  0  0  0  0  0  0  0  0
    8.3726    3.2234   -0.0706 C   0  0  0  0  0  0  0  0  0  0  0  0
    8.0353    4.2700   -0.0195 H   0  0  0  0  0  0  0  0  0  0  0  0
    9.7539    2.9359   -0.2295 C   0  0  0  0  0  0  0  0  0  0  0  0
   10.4799    3.7587   -0.3134 H   0  0  0  0  0  0  0  0  0  0  0  0
   10.1848    1.6192   -0.2629 C   0  0  0  0  0  0  0  0  0  0  0  0
   11.2557    1.3844   -0.3675 H   0  0  0  0  0  0  0  0  0  0  0  0
    9.2609    0.5376   -0.1537 C   0  0  0  0  0  0  0  0  0  0  0  0
    9.7040   -0.8168   -0.1509 C   0  0  0  0  0  0  0  0  0  0  0  0
   10.7812   -1.0216   -0.2523 H   0  0  0  0  0  0  0  0  0  0  0  0
    8.7955   -1.8542   -0.0176 C   0  0  0  0  0  0  0  0  0  0  0  0
    9.1415   -2.8988   -0.0135 H   0  0  0  0  0  0  0  0  0  0  0  0
    7.4100   -1.5781    0.0931 C   0  0  0  0  0  0  0  0  0  0  0  0
    6.6939   -2.4111    0.1610 H   0  0  0  0  0  0  0  0  0  0  0  0
    6.9197   -0.2709    0.0737 C   0  0  0  0  0  0  0  0  0  0  0  0
    7.8499    0.8265   -0.0272 C   0  0  0  0  0  0  0  0  0  0  0  0
    5.4508   -0.0522    0.1520 C   0  0  0  0  0  0  0  0  0  0  0  0
    4.6976   -0.6502    1.1828 C   0  0  0  0  0  0  0  0  0  0  0  0
    5.2165   -1.2461    1.9494 H   0  0  0  0  0  0  0  0  0  0  0  0
    3.3041   -0.5037    1.2652 C   0  0  0  0  0  0  0  0  0  0  0  0
    2.6631    0.2819    0.2799 C   0  0  0  0  0  0  0  0  0  0  0  0
    3.3750    0.8684   -0.7927 C   0  0  0  0  0  0  0  0  0  0  0  0
    4.7671    0.6935   -0.8312 C   0  0  0  0  0  0  0  0  0  0  0  0
    5.3317    1.1193   -1.6746 H   0  0  0  0  0  0  0  0  0  0  0  0
    2.4946   -1.1960    2.3270 C   0  0  0  0  0  0  0  0  0  0  0  0
    3.1440   -1.7321    3.0440 H   0  0  0  0  0  0  0  0  0  0  0  0
    1.8103   -1.9336    1.8531 H   0  0  0  0  0  0  0  0  0  0  0  0
    1.8563   -0.4898    2.8977 H   0  0  0  0  0  0  0  0  0  0  0  0
    2.6385    1.5930   -1.8869 C   0  0  0  0  0  0  0  0  0  0  0  0
    1.8605    0.9274   -2.3172 H   0  0  0  0  0  0  0  0  0  0  0  0
    3.3272    1.8998   -2.6961 H   0  0  0  0  0  0  0  0  0  0  0  0
    2.1221    2.5046   -1.5185 H   0  0  0  0  0  0  0  0  0  0  0  0
    0.7476    1.5547    0.9014 C   0  0  0  0  0  0  0  0  0  0  0  0
    1.5606    2.6888    1.4441 C   0  0  0  0  0  0  0  0  0  0  0  0
    2.6264    2.4105    1.5291 H   0  0  0  0  0  0  0  0  0  0  0  0
    1.1855    3.0058    2.4379 H   0  0  0  0  0  0  0  0  0  0  0  0
    1.4903    3.5764    0.7785 H   0  0  0  0  0  0  0  0  0  0  0  0
    1.2490    0.4569    0.3550 N   0  0  0  0  0  2  0  0  0  0  0  0
   -7.3374    2.1701   -0.6282 C   0  0  0  0  0  0  0  0  0  0  0  0
   -6.2663    2.3978   -0.5358 H   0  0  0  0  0  0  0  0  0  0  0  0
   -8.2084    3.1339   -1.1158 C   0  0  0  0  0  0  0  0  0  0  0  0
   -7.8208    4.1194   -1.4160 H   0  0  0  0  0  0  0  0  0  0  0  0
   -9.5976    2.8613   -1.2226 C   0  0  0  0  0  0  0  0  0  0  0  0
  -10.2794    3.6305   -1.6159 H   0  0  0  0  0  0  0  0  0  0  0  0
  -10.0924    1.6321   -0.8167 C   0  0  0  0  0  0  0  0  0  0  0  0
  -11.1706    1.4161   -0.8783 H   0  0  0  0  0  0  0  0  0  0  0  0
   -9.2265    0.6217   -0.3025 C   0  0  0  0  0  0  0  0  0  0  0  0
   -9.7362   -0.6300    0.1497 C   0  0  0  0  0  0  0  0  0  0  0  0
  -10.8192   -0.8166    0.0806 H   0  0  0  0  0  0  0  0  0  0  0  0
   -8.8841   -1.5901    0.6705 C   0  0  0  0  0  0  0  0  0  0  0  0
   -9.2815   -2.5548    1.0205 H   0  0  0  0  0  0  0  0  0  0  0  0
   -7.4899   -1.3451    0.7363 C   0  0  0  0  0  0  0  0  0  0  0  0
   -6.8179   -2.1292    1.1169 H   0  0  0  0  0  0  0  0  0  0  0  0
   -6.9350   -0.1451    0.2870 C   0  0  0  0  0  0  0  0  0  0  0  0
   -7.8067    0.8833   -0.2252 C   0  0  0  0  0  0  0  0  0  0  0  0
   -5.4596    0.0320    0.3459 C   0  0  0  0  0  0  0  0  0  0  0  0
   -4.7645   -0.1958    1.5507 C   0  0  0  0  0  0  0  0  0  0  0  0
   -5.3320   -0.4708    2.4532 H   0  0  0  0  0  0  0  0  0  0  0  0
   -3.3682   -0.0780    1.6361 C   0  0  0  0  0  0  0  0  0  0  0  0
   -2.6634    0.2857    0.4658 C   0  0  0  0  0  0  0  0  0  0  0  0
   -3.3166    0.4829   -0.7734 C   0  0  0  0  0  0  0  0  0  0  0  0
   -4.7142    0.3612   -0.8061 C   0  0  0  0  0  0  0  0  0  0  0  0
   -5.2351    0.4906   -1.7669 H   0  0  0  0  0  0  0  0  0  0  0  0
   -2.6237   -0.3783    2.9090 C   0  0  0  0  0  0  0  0  0  0  0  0
   -3.3093   -0.7453    3.6955 H   0  0  0  0  0  0  0  0  0  0  0  0
   -1.8557   -1.1570    2.7166 H   0  0  0  0  0  0  0  0  0  0  0  0
   -2.0945    0.5117    3.3105 H   0  0  0  0  0  0  0  0  0  0  0  0
   -2.5144    0.7450   -2.0184 C   0  0  0  0  0  0  0  0  0  0  0  0
   -1.8618   -0.1294   -2.2339 H   0  0  0  0  0  0  0  0  0  0  0  0
   -3.1704    0.9152   -2.8925 H   0  0  0  0  0  0  0  0  0  0  0  0
   -1.8446    1.6234   -1.9103 H   0  0  0  0  0  0  0  0  0  0  0  0
   -0.7076    1.5625    0.9371 C   0  0  0  0  0  0  0  0  0  0  0  0
   -1.4831    2.7585    1.3952 C   0  0  0  0  0  0  0  0  0  0  0  0
   -2.5582    2.6489    1.1659 H   0  0  0  0  0  0  0  0  0  0  0  0
   -1.3790    2.8972    2.4932 H   0  0  0  0  0  0  0  0  0  0  0  0
   -1.1008    3.6844    0.9202 H   0  0  0  0  0  0  0  0  0  0  0  0
   -1.2444    0.4242    0.5234 N   0  0  0  0  0  2  0  0  0  0  0  0
  1  2  1  0  0  0  0
  3  4  1  0  0  0  0
  3  1  2  0  0  0  0
  5  3  1  0  0  0  0
  6  5  1  0  0  0  0
  7  5  2  0  0  0  0
  7  9  1  0  0  0  0
  8  7  1  0  0  0  0
  9 10  2  0  0  0  0
  9 17  1  0  0  0  0
 10 12  1  0  0  0  0
 11 10  1  0  0  0  0
 12 13  1  0  0  0  0
 12 14  2  0  0  0  0
 14 15  1  0  0  0  0
 16 14  1  0  0  0  0
 16 18  1  0  0  0  0
 17  1  1  0  0  0  0
 17 16  2  0  0  0  0
 18 19  1  0  0  0  0
 19 21  2  0  0  0  0
 19 20  1  0  0  0  0
 21 26  1  0  0  0  0
 22 39  1  0  0  0  0
 22 21  1  0  0  0  0
 23 22  2  0  0  0  0
 24 23  1  0  0  0  0
 24 18  2  0  0  0  0
 25 24  1  0  0  0  0
 26 29  1  0  0  0  0
 26 27  1  0  0  0  0
 28 26  1  0  0  0  0
 30 33  1  0  0  0  0
 30 23  1  0  0  0  0
 31 30  1  0  0  0  0
 32 30  1  0  0  0  0
 34 73  2  0  0  0  0
 34 35  1  0  0  0  0
 35 36  1  0  0  0  0
 35 37  1  0  0  0  0
 38 35  1  0  0  0  0
 39 34  1  0  0  0  0
 40 41  1  0  0  0  0
 40 56  1  0  0  0  0
 42 40  2  0  0  0  0
 43 42  1  0  0  0  0
 44 42  1  0  0  0  0
 44 46  2  0  0  0  0
 45 44  1  0  0  0  0
 46 48  1  0  0  0  0
 47 46  1  0  0  0  0
 48 56  2  0  0  0  0
 48 49  1  0  0  0  0
 49 51  2  0  0  0  0
 50 49  1  0  0  0  0
 51 53  1  0  0  0  0
 51 52  1  0  0  0  0
 53 54  1  0  0  0  0
 55 57  1  0  0  0  0
 55 53  2  0  0  0  0
 56 55  1  0  0  0  0
 57 58  1  0  0  0  0
 58 60  2  0  0  0  0
 58 59  1  0  0  0  0
 60 65  1  0  0  0  0
 61 78  1  0  0  0  0
 61 60  1  0  0  0  0
 62 61  2  0  0  0  0
 63 62  1  0  0  0  0
 63 57  2  0  0  0  0
 64 63  1  0  0  0  0
 65 68  1  0  0  0  0
 65 66  1  0  0  0  0
 67 65  1  0  0  0  0
 69 72  1  0  0  0  0
 69 62  1  0  0  0  0
 70 69  1  0  0  0  0
 71 69  1  0  0  0  0
 73 74  1  0  0  0  0
 74 76  1  0  0  0  0
 75 74  1  0  0  0  0
 77 74  1  0  0  0  0
 78 73  1  0  0  0  0
M  END
