1,2
 OpenBabel05122313053D

 28 29  0  0  1  0  0  0  0  0999 V2000
   -0.6482    1.1592   -0.0354 N   0  0  0  0  0  2  0  0  0  0  0  0
   -0.7122   -1.4373   -0.3967 N   0  0  0  0  0  2  0  0  0  0  0  0
   -5.4623    1.2290    0.4662 O   0  0  0  0  0  0  0  0  0  0  0  0
   -1.3936    3.3712   -0.1183 O   0  0  0  0  0  0  0  0  0  0  0  0
    0.7862    2.8543   -0.4763 O   0  0  0  0  0  0  0  0  0  0  0  0
   -1.9085    0.5862    0.0298 C   0  0  0  0  0  0  0  0  0  0  0  0
   -3.1396    1.2207    0.2403 C   0  0  0  0  0  0  0  0  0  0  0  0
   -3.1798    2.3044    0.3868 H   0  0  0  0  0  0  0  0  0  0  0  0
   -4.3525    0.4787    0.2326 C   0  0  0  0  0  0  0  0  0  0  0  0
   -4.3788   -0.8999   -0.0089 C   0  0  0  0  0  0  0  0  0  0  0  0
   -5.3135   -1.4730   -0.0448 H   0  0  0  0  0  0  0  0  0  0  0  0
   -3.1520   -1.5744   -0.2424 C   0  0  0  0  0  0  0  0  0  0  0  0
   -3.0542   -2.9595   -0.5581 C   0  0  0  0  0  0  0  0  0  0  0  0
   -3.9719   -3.5656   -0.6071 H   0  0  0  0  0  0  0  0  0  0  0  0
   -1.8148   -3.5244   -0.8288 C   0  0  0  0  0  0  0  0  0  0  0  0
   -1.7190   -4.5828   -1.1094 H   0  0  0  0  0  0  0  0  0  0  0  0
   -0.6519   -2.7302   -0.7427 C   0  0  0  0  0  0  0  0  0  0  0  0
    0.3455   -3.1327   -0.9595 H   0  0  0  0  0  0  0  0  0  0  0  0
   -1.9229   -0.8361   -0.1892 C   0  0  1  0  0  3  0  0  0  0  0  0
   -6.7219    0.5869    0.4611 C   0  0  0  0  0  0  0  0  0  0  0  0
   -6.9467    0.1237   -0.5260 H   0  0  0  0  0  0  0  0  0  0  0  0
   -7.4742    1.3696    0.6707 H   0  0  0  0  0  0  0  0  0  0  0  0
   -6.7892   -0.2003    1.2457 H   0  0  0  0  0  0  0  0  0  0  0  0
   -0.5119    2.5192   -0.1966 C   0  0  0  0  0  0  0  0  0  0  0  0
    0.9882    4.2392   -0.7360 C   0  0  0  0  0  0  0  0  0  0  0  0
    0.3833    4.5770   -1.6019 H   0  0  0  0  0  0  0  0  0  0  0  0
    2.0647    4.3539   -0.9626 H   0  0  0  0  0  0  0  0  0  0  0  0
    0.7099    4.8635    0.1389 H   0  0  0  0  0  0  0  0  0  0  0  0
  1  6  1  0  0  0  0
  5 24  1  0  0  0  0
  6  7  2  0  0  0  0
  7  8  1  0  0  0  0
  9  7  1  0  0  0  0
  9  3  1  0  0  0  0
 10  9  2  0  0  0  0
 11 10  1  0  0  0  0
 12 19  1  0  0  0  0
 12 10  1  0  0  0  0
 13 12  2  0  0  0  0
 14 13  1  0  0  0  0
 15 17  2  0  0  0  0
 15 13  1  0  0  0  0
 16 15  1  0  0  0  0
 17  2  1  0  0  0  0
 18 17  1  0  0  0  0
 19  2  1  6  0  0  0
 19  6  1  0  0  0  0
 20  3  1  0  0  0  0
 20 22  1  0  0  0  0
 20 23  1  0  0  0  0
 21 20  1  0  0  0  0
 24  4  2  0  0  0  0
 24  1  1  0  0  0  0
 25  5  1  0  0  0  0
 25 28  1  0  0  0  0
 26 25  1  0  0  0  0
 27 25  1  0  0  0  0
M  END
