3,4
 OpenBabel05122313053D

 39 39  0  0  1  0  0  0  0  0999 V2000
   -2.9923    0.5654    0.3890 O   0  0  0  0  0  0  0  0  0  0  0  0
    0.2538    3.2248   -0.1426 O   0  0  0  0  0  0  0  0  0  0  0  0
    2.2575    0.2411   -0.2298 N   0  0  0  0  0  2  0  0  0  0  0  0
   -0.3179    0.9098    0.3518 N   0  0  0  0  0  0  0  0  0  0  0  0
    3.5414   -0.1527   -0.1072 C   0  0  0  0  0  3  0  0  0  0  0  0
    4.5898    0.7665    0.0040 C   0  0  0  0  0  0  0  0  0  0  0  0
    4.2932    2.1368    0.0064 C   0  0  0  0  0  0  0  0  0  0  0  0
    2.9574    2.5428   -0.1133 C   0  0  0  0  0  0  0  0  0  0  0  0
    1.9653    1.5635   -0.2313 C   0  0  0  0  0  0  0  0  0  0  0  0
    0.5020    1.8758   -0.4296 C   0  0  2  0  0  0  0  0  0  0  0  0
   -0.5148    1.2810    1.7784 C   0  0  0  0  0  0  0  0  0  0  0  0
   -1.6832    0.5167    2.3996 C   0  0  0  0  0  0  0  0  0  0  0  0
   -3.0510    0.8125    1.7894 C   0  0  0  0  0  0  0  0  0  0  0  0
   -4.2358    0.5456   -0.3335 C   0  0  0  0  0  0  0  0  0  0  0  0
   -3.8803    0.8194   -1.7904 C   0  0  0  0  0  0  0  0  0  0  0  0
   -4.9543   -0.7888   -0.1388 C   0  0  0  0  0  0  0  0  0  0  0  0
   -0.9539    3.7083   -0.7117 C   0  0  0  0  0  0  0  0  0  0  0  0
    3.7210   -1.2367   -0.0869 H   0  0  0  0  0  0  0  0  0  0  0  0
    5.6222    0.4019    0.0978 H   0  0  0  0  0  0  0  0  0  0  0  0
   -1.2614    0.8454   -0.0789 H   0  0  0  0  0  0  0  0  0  0  0  0
    5.0957    2.8832    0.1043 H   0  0  0  0  0  0  0  0  0  0  0  0
    2.6543    3.5978   -0.1139 H   0  0  0  0  0  0  0  0  0  0  0  0
    0.2611    1.6319   -1.4944 H   0  0  0  0  0  0  0  0  0  0  0  0
    0.4160    1.0371    2.3284 H   0  0  0  0  0  0  0  0  0  0  0  0
   -0.6854    2.3770    1.8415 H   0  0  0  0  0  0  0  0  0  0  0  0
   -1.7251    0.7754    3.4780 H   0  0  0  0  0  0  0  0  0  0  0  0
   -1.4647   -0.5696    2.3548 H   0  0  0  0  0  0  0  0  0  0  0  0
   -3.3461    1.8771    1.9708 H   0  0  0  0  0  0  0  0  0  0  0  0
   -3.8226    0.1707    2.2739 H   0  0  0  0  0  0  0  0  0  0  0  0
   -4.8783    1.3732    0.0570 H   0  0  0  0  0  0  0  0  0  0  0  0
   -4.7777    0.7483   -2.4355 H   0  0  0  0  0  0  0  0  0  0  0  0
   -3.1255    0.0867   -2.1440 H   0  0  0  0  0  0  0  0  0  0  0  0
   -3.4470    1.8327   -1.9084 H   0  0  0  0  0  0  0  0  0  0  0  0
   -5.9264   -0.7875   -0.6713 H   0  0  0  0  0  0  0  0  0  0  0  0
   -5.1615   -0.9905    0.9312 H   0  0  0  0  0  0  0  0  0  0  0  0
   -4.3340   -1.6188   -0.5304 H   0  0  0  0  0  0  0  0  0  0  0  0
   -1.0195    4.7859   -0.4719 H   0  0  0  0  0  0  0  0  0  0  0  0
   -1.8478    3.1915   -0.2931 H   0  0  0  0  0  0  0  0  0  0  0  0
   -0.9631    3.5758   -1.8177 H   0  0  0  0  0  0  0  0  0  0  0  0
  1 13  1  0  0  0  0
  3  5  1  0  0  0  0
  4 11  1  0  0  0  0
  5 18  1  0  0  0  0
  5  6  1  0  0  0  0
  6  7  2  0  0  0  0
  6 19  1  0  0  0  0
  7 21  1  0  0  0  0
  8  7  1  0  0  0  0
  9  3  1  0  0  0  0
  9  8  2  0  0  0  0
 10 23  1  6  0  0  0
 10  9  1  0  0  0  0
 10  2  1  0  0  0  0
 10  4  1  0  0  0  0
 11 25  1  0  0  0  0
 11 24  1  0  0  0  0
 11 12  1  0  0  0  0
 12 26  1  0  0  0  0
 13 28  1  0  0  0  0
 13 29  1  0  0  0  0
 13 12  1  0  0  0  0
 14 16  1  0  0  0  0
 14 30  1  0  0  0  0
 14  1  1  0  0  0  0
 15 14  1  0  0  0  0
 16 35  1  0  0  0  0
 17 37  1  0  0  0  0
 17 38  1  0  0  0  0
 17  2  1  0  0  0  0
 20  4  1  0  0  0  0
 22  8  1  0  0  0  0
 27 12  1  0  0  0  0
 31 15  1  0  0  0  0
 32 15  1  0  0  0  0
 33 15  1  0  0  0  0
 34 16  1  0  0  0  0
 36 16  1  0  0  0  0
 39 17  1  0  0  0  0
M  END
