2,3
 OpenBabel05122313053D

 34 35  0  0  1  0  0  0  0  0999 V2000
   -1.3153    2.4282   -1.1095 O   0  0  0  0  0  0  0  0  0  0  0  0
   -0.9120    0.3416   -0.3628 N   0  0  0  0  0  2  0  0  0  0  0  0
    1.6435    0.7604    0.1624 N   0  0  0  0  0  2  0  0  0  0  0  0
   -2.3713    0.3573   -0.5474 C   0  0  2  0  0  0  0  0  0  0  0  0
   -2.6504   -0.5495   -1.1211 H   0  0  0  0  0  0  0  0  0  0  0  0
   -2.5396    1.6588   -1.3700 C   0  0  0  0  0  0  0  0  0  0  0  0
   -2.5824    1.4733   -2.4628 H   0  0  0  0  0  0  0  0  0  0  0  0
   -3.3970    2.2855   -1.0666 H   0  0  0  0  0  0  0  0  0  0  0  0
   -0.4477    1.5287   -0.6273 C   0  0  0  0  0  0  0  0  0  0  0  0
    0.9508    1.8287   -0.3540 C   0  0  0  0  0  0  0  0  0  0  0  0
    1.5063    3.0979   -0.5457 C   0  0  0  0  0  0  0  0  0  0  0  0
    0.8875    3.8956   -0.9782 H   0  0  0  0  0  0  0  0  0  0  0  0
    2.8394    3.2935   -0.1644 C   0  0  0  0  0  0  0  0  0  0  0  0
    3.3286    4.2681   -0.3067 H   0  0  0  0  0  0  0  0  0  0  0  0
    3.5253    2.2311    0.4288 C   0  0  0  0  0  0  0  0  0  0  0  0
    4.5585    2.3589    0.7814 H   0  0  0  0  0  0  0  0  0  0  0  0
    2.9110    0.9678    0.6081 C   0  0  0  0  0  0  0  0  0  0  0  0
   -3.1412    0.3363    0.8163 C   0  0  0  0  0  0  0  0  0  0  0  0
   -2.7456   -0.9114    1.6251 C   0  0  0  0  0  0  0  0  0  0  0  0
   -1.6848   -0.8694    1.9419 H   0  0  0  0  0  0  0  0  0  0  0  0
   -2.8608   -1.8389    1.0320 H   0  0  0  0  0  0  0  0  0  0  0  0
   -3.3754   -0.9815    2.5353 H   0  0  0  0  0  0  0  0  0  0  0  0
   -2.8317    1.5944    1.6478 C   0  0  0  0  0  0  0  0  0  0  0  0
   -1.7508    1.6616    1.8873 H   0  0  0  0  0  0  0  0  0  0  0  0
   -3.3773    1.5511    2.6118 H   0  0  0  0  0  0  0  0  0  0  0  0
   -3.1351    2.5336    1.1416 H   0  0  0  0  0  0  0  0  0  0  0  0
   -4.6450    0.2708    0.4908 C   0  0  0  0  0  0  0  0  0  0  0  0
   -5.2365    0.2406    1.4277 H   0  0  0  0  0  0  0  0  0  0  0  0
   -4.8874   -0.6420   -0.0909 H   0  0  0  0  0  0  0  0  0  0  0  0
   -4.9946    1.1507   -0.0887 H   0  0  0  0  0  0  0  0  0  0  0  0
    3.6259   -0.1296    1.3190 C   0  0  0  0  0  0  0  0  0  0  0  0
    3.0500   -0.4342    2.2173 H   0  0  0  0  0  0  0  0  0  0  0  0
    4.6390    0.1880    1.6242 H   0  0  0  0  0  0  0  0  0  0  0  0
    3.6636   -1.0444    0.6872 H   0  0  0  0  0  0  0  0  0  0  0  0
  1  9  1  0  0  0  0
  3 17  1  0  0  0  0
  4  5  1  6  0  0  0
  4  2  1  0  0  0  0
  4 18  1  0  0  0  0
  6  1  1  0  0  0  0
  6  8  1  0  0  0  0
  6  4  1  0  0  0  0
  7  6  1  0  0  0  0
  9  2  1  0  0  0  0
  9 10  2  0  0  0  0
 10  3  1  0  0  0  0
 11 10  1  0  0  0  0
 11 13  2  0  0  0  0
 12 11  1  0  0  0  0
 13 15  1  0  0  0  0
 14 13  1  0  0  0  0
 15 17  2  0  0  0  0
 15 16  1  0  0  0  0
 17 31  1  0  0  0  0
 18 19  1  0  0  0  0
 18 23  1  0  0  0  0
 19 20  1  0  0  0  0
 19 22  1  0  0  0  0
 21 19  1  0  0  0  0
 23 24  1  0  0  0  0
 23 25  1  0  0  0  0
 26 23  1  0  0  0  0
 27 18  1  0  0  0  0
 27 28  1  0  0  0  0
 29 27  1  0  0  0  0
 30 27  1  0  0  0  0
 31 33  1  0  0  0  0
 31 32  1  0  0  0  0
 34 31  1  0  0  0  0
M  END
