1,2
 OpenBabel05122313053D

 60 64  0  0  0  0  0  0  0  0999 V2000
   -1.9572   -0.5810    1.6492 N   0  0  0  0  0  2  0  0  0  0  0  0
   -2.2201   -1.6675   -0.7026 N   0  0  0  0  0  0  0  0  0  0  0  0
   -2.0519    0.9173   -1.4670 N   0  0  0  0  0  0  0  0  0  0  0  0
    0.4336   -2.7667    0.0550 N   0  0  0  0  0  0  0  0  0  0  0  0
   -1.5675   -0.2152    2.8916 C   0  0  0  0  0  3  0  0  0  0  0  0
   -2.4354   -0.3285    3.9810 C   0  0  0  0  0  0  0  0  0  0  0  0
   -3.7293   -0.8348    3.7782 C   0  0  0  0  0  0  0  0  0  0  0  0
   -4.1243   -1.2037    2.4822 C   0  0  0  0  0  0  0  0  0  0  0  0
   -3.2155   -1.0569    1.4304 C   0  0  0  0  0  0  0  0  0  0  0  0
   -3.4975   -1.3004   -0.0241 C   0  0  0  0  0  0  0  0  0  0  0  0
   -2.2690   -1.4009   -2.1585 C   0  0  0  0  0  0  0  0  0  0  0  0
   -2.2353    0.0800   -2.4972 C   0  0  0  0  0  0  0  0  0  0  0  0
   -2.2912    0.5195   -3.8291 C   0  0  0  0  0  0  0  0  0  0  0  0
   -2.1027    1.8875   -4.0763 C   0  0  0  0  0  0  0  0  0  0  0  0
   -1.8461    2.7524   -3.0051 C   0  0  0  0  0  0  0  0  0  0  0  0
   -1.8237    2.2319   -1.6938 C   0  0  0  0  0  0  0  0  0  0  0  0
   -1.5032    3.0545   -0.5033 C   0  0  0  0  0  0  0  0  0  0  0  0
   -2.1034    2.7666    0.7417 C   0  0  0  0  0  0  0  0  0  0  0  0
   -1.7464    3.4859    1.8874 C   0  0  0  0  0  0  0  0  0  0  0  0
   -0.7758    4.4992    1.8098 C   0  0  0  0  0  0  0  0  0  0  0  0
   -0.1736    4.7947    0.5766 C   0  0  0  0  0  0  0  0  0  0  0  0
   -0.5380    4.0817   -0.5740 C   0  0  0  0  0  0  0  0  0  0  0  0
   -1.8914   -3.1019   -0.4274 C   0  0  0  0  0  0  0  0  0  0  0  0
   -0.4441   -3.4128   -0.7297 C   0  0  0  0  0  0  0  0  0  0  0  0
   -0.0571   -4.2735   -1.7673 C   0  0  0  0  0  0  0  0  0  0  0  0
    1.3189   -4.4605   -1.9857 C   0  0  0  0  0  0  0  0  0  0  0  0
    2.2335   -3.7719   -1.1865 C   0  0  0  0  0  0  0  0  0  0  0  0
    1.7584   -2.9113   -0.1661 C   0  0  0  0  0  0  0  0  0  0  0  0
    2.6744   -2.1297    0.6987 C   0  0  0  0  0  0  0  0  0  0  0  0
    3.9637   -1.7549    0.2577 C   0  0  0  0  0  0  0  0  0  0  0  0
    4.8000   -0.9820    1.0725 C   0  0  0  0  0  0  0  0  0  0  0  0
    4.3654   -0.5772    2.3446 C   0  0  0  0  0  0  0  0  0  0  0  0
    3.0879   -0.9485    2.7962 C   0  0  0  0  0  0  0  0  0  0  0  0
    2.2477   -1.7131    1.9790 C   0  0  0  0  0  0  0  0  0  0  0  0
   -0.5441    0.1810    2.9722 H   0  0  0  0  0  0  0  0  0  0  0  0
   -2.0920   -0.0247    4.9798 H   0  0  0  0  0  0  0  0  0  0  0  0
   -4.4267   -0.9413    4.6218 H   0  0  0  0  0  0  0  0  0  0  0  0
   -5.1320   -1.5963    2.2841 H   0  0  0  0  0  0  0  0  0  0  0  0
   -4.2796   -2.0727   -0.1867 H   0  0  0  0  0  0  0  0  0  0  0  0
   -3.8465   -0.3492   -0.4764 H   0  0  0  0  0  0  0  0  0  0  0  0
   -3.1580   -1.9005   -2.6073 H   0  0  0  0  0  0  0  0  0  0  0  0
   -1.3699   -1.8768   -2.6026 H   0  0  0  0  0  0  0  0  0  0  0  0
   -2.4601   -0.1904   -4.6524 H   0  0  0  0  0  0  0  0  0  0  0  0
   -2.1449    2.2760   -5.1046 H   0  0  0  0  0  0  0  0  0  0  0  0
   -1.6877    3.8264   -3.1751 H   0  0  0  0  0  0  0  0  0  0  0  0
   -2.8617    1.9731    0.7956 H   0  0  0  0  0  0  0  0  0  0  0  0
   -2.2317    3.2602    2.8493 H   0  0  0  0  0  0  0  0  0  0  0  0
   -0.4917    5.0625    2.7113 H   0  0  0  0  0  0  0  0  0  0  0  0
    0.5925    5.5815    0.5103 H   0  0  0  0  0  0  0  0  0  0  0  0
   -0.0369    4.2971   -1.5298 H   0  0  0  0  0  0  0  0  0  0  0  0
   -2.0793   -3.2733    0.6512 H   0  0  0  0  0  0  0  0  0  0  0  0
   -2.5788   -3.7550   -1.0073 H   0  0  0  0  0  0  0  0  0  0  0  0
   -0.8086   -4.7907   -2.3823 H   0  0  0  0  0  0  0  0  0  0  0  0
    1.6712   -5.1411   -2.7749 H   0  0  0  0  0  0  0  0  0  0  0  0
    3.3133   -3.9157   -1.3287 H   0  0  0  0  0  0  0  0  0  0  0  0
    4.3050   -2.0360   -0.7494 H   0  0  0  0  0  0  0  0  0  0  0  0
    5.7919   -0.6800    0.7057 H   0  0  0  0  0  0  0  0  0  0  0  0
    5.0234    0.0298    2.9843 H   0  0  0  0  0  0  0  0  0  0  0  0
    2.7470   -0.6395    3.7959 H   0  0  0  0  0  0  0  0  0  0  0  0
    1.2428   -2.0047    2.3155 H   0  0  0  0  0  0  0  0  0  0  0  0
  1  5  1  0  0  0  0
  2 23  1  0  0  0  0
  2 10  1  0  0  0  0
  5 35  1  0  0  0  0
  5  6  1  0  0  0  0
  6 36  1  0  0  0  0
  7  6  2  0  0  0  0
  7 37  1  0  0  0  0
  8  7  1  0  0  0  0
  9  1  1  0  0  0  0
  9  8  2  0  0  0  0
 10  9  1  0  0  0  0
 11  2  1  0  0  0  0
 12 11  1  0  0  0  0
 12  3  2  0  0  0  0
 13 12  1  0  0  0  0
 14 13  2  0  0  0  0
 14 15  1  0  0  0  0
 15 16  2  0  0  0  0
 16  3  1  0  0  0  0
 16 17  1  0  0  0  0
 17 18  1  0  0  0  0
 18 46  1  0  0  0  0
 18 19  2  0  0  0  0
 19 47  1  0  0  0  0
 20 19  1  0  0  0  0
 20 48  1  0  0  0  0
 21 20  2  0  0  0  0
 22 17  2  0  0  0  0
 22 21  1  0  0  0  0
 23 51  1  0  0  0  0
 24 23  1  0  0  0  0
 24  4  2  0  0  0  0
 25 24  1  0  0  0  0
 26 25  2  0  0  0  0
 26 27  1  0  0  0  0
 27 28  2  0  0  0  0
 28  4  1  0  0  0  0
 28 29  1  0  0  0  0
 29 34  1  0  0  0  0
 30 29  2  0  0  0  0
 30 31  1  0  0  0  0
 31 32  2  0  0  0  0
 32 33  1  0  0  0  0
 32 58  1  0  0  0  0
 33 59  1  0  0  0  0
 34 60  1  0  0  0  0
 34 33  2  0  0  0  0
 38  8  1  0  0  0  0
 39 10  1  0  0  0  0
 40 10  1  0  0  0  0
 41 11  1  0  0  0  0
 42 11  1  0  0  0  0
 43 13  1  0  0  0  0
 44 14  1  0  0  0  0
 45 15  1  0  0  0  0
 49 21  1  0  0  0  0
 50 22  1  0  0  0  0
 52 23  1  0  0  0  0
 53 25  1  0  0  0  0
 54 26  1  0  0  0  0
 55 27  1  0  0  0  0
 56 30  1  0  0  0  0
 57 31  1  0  0  0  0
M  END
