3,6
 OpenBabel05122313053D

 13 12  0  0  1  0  0  0  0  0999 V2000
   -2.1307    2.3016   -0.3845 O   0  0  0  0  0  0  0  0  0  0  0  0
   -4.0805    1.3644   -0.1364 O   0  0  0  0  0  0  0  0  0  0  0  0
   -0.6615   -2.0804   -0.3226 N   0  0  0  0  0  0  0  0  0  0  0  0
   -2.0383   -2.1695   -0.2534 N   0  0  0  0  0  0  0  0  0  0  0  0
   -4.1236   -1.1997    0.0751 N   0  0  0  0  0  0  0  0  0  0  0  0
   -2.2039    0.1048   -0.5198 N   0  0  0  0  0  2  0  0  0  0  0  0
   -2.8468    1.3039   -0.3252 N   0  0  0  0  0  0  0  0  0  0  0  0
   -2.8173   -1.0462   -0.2073 C   0  0  2  0  0  3  0  0  0  0  0  0
   -2.4969   -3.0837   -0.2162 H   0  0  0  0  0  0  0  0  0  0  0  0
   -4.6277   -0.2957    0.1238 H   0  0  0  0  0  0  0  0  0  0  0  0
   -4.4386   -2.0147    0.6007 H   0  0  0  0  0  0  0  0  0  0  0  0
   -0.2642   -2.2269   -1.2668 H   0  0  0  0  0  0  0  0  0  0  0  0
   -0.1722   -2.6168    0.4051 H   0  0  0  0  0  0  0  0  0  0  0  0
  1  7  2  0  0  0  0
  3  4  1  0  0  0  0
  3 13  1  0  0  0  0
  4  9  1  0  0  0  0
  4  8  1  0  0  0  0
  5 10  1  0  0  0  0
  5 11  1  0  0  0  0
  6  7  1  0  0  0  0
  7  2  2  0  0  0  0
  8  6  1  6  0  0  0
  8  5  1  0  0  0  0
 12  3  1  0  0  0  0
M  END
