2,3
 OpenBabel05122313053D

 26 27  0  0  0  0  0  0  0  0999 V2000
    7.0886    0.3110   -1.4226 N   0  0  0  0  0  0  0  0  0  0  0  0
    1.9925   -1.2798    0.2894 N   0  0  0  0  0  2  0  0  0  0  0  0
   -0.6460   -1.8464    1.0997 N   0  0  0  0  0  2  0  0  0  0  0  0
    3.2787   -0.9031   -0.0927 C   0  0  0  0  0  0  0  0  0  0  0  0
    4.4626   -1.3946    0.5258 C   0  0  0  0  0  0  0  0  0  0  0  0
    5.7170   -0.9898    0.0937 C   0  0  0  0  0  0  0  0  0  0  0  0
    5.8582   -0.0782   -0.9956 C   0  0  0  0  0  0  0  0  0  0  0  0
    4.6737    0.4259   -1.6027 C   0  0  0  0  0  0  0  0  0  0  0  0
    3.4199    0.0309   -1.1553 C   0  0  0  0  0  0  0  0  0  0  0  0
    1.7317   -2.3373    1.0042 C   0  0  0  0  0  0  0  0  0  0  0  0
    0.3746   -2.6835    1.4231 C   0  0  0  0  0  0  0  0  0  0  0  0
    0.1348   -3.8734    2.1459 C   0  0  0  0  0  0  0  0  0  0  0  0
   -1.1724   -4.1920    2.5271 C   0  0  0  0  0  0  0  0  0  0  0  0
   -2.2147   -3.3183    2.1804 C   0  0  0  0  0  0  0  0  0  0  0  0
   -1.9003   -2.1542    1.4630 C   0  0  0  0  0  0  0  0  0  0  0  0
    4.3989   -2.0814    1.3823 H   0  0  0  0  0  0  0  0  0  0  0  0
    6.6180   -1.3674    0.6012 H   0  0  0  0  0  0  0  0  0  0  0  0
    4.7520    1.1319   -2.4434 H   0  0  0  0  0  0  0  0  0  0  0  0
    2.5199    0.4225   -1.6579 H   0  0  0  0  0  0  0  0  0  0  0  0
    2.5265   -3.0470    1.3068 H   0  0  0  0  0  0  0  0  0  0  0  0
    0.9767   -4.5358    2.3955 H   0  0  0  0  0  0  0  0  0  0  0  0
   -1.3782   -5.1157    3.0881 H   0  0  0  0  0  0  0  0  0  0  0  0
   -3.2572   -3.5286    2.4572 H   0  0  0  0  0  0  0  0  0  0  0  0
   -2.6860   -1.4417    1.1633 H   0  0  0  0  0  0  0  0  0  0  0  0
    7.1921    0.9253   -2.2280 H   0  0  0  0  0  0  0  0  0  0  0  0
    7.9348   -0.0924   -1.0257 H   0  0  0  0  0  0  0  0  0  0  0  0
  1 26  1  0  0  0  0
  1  7  1  0  0  0  0
  2 10  1  0  0  0  0
  3 11  1  0  0  0  0
  3 15  1  0  0  0  0
  4  2  1  0  0  0  0
  4  5  1  0  0  0  0
  5 16  1  0  0  0  0
  6  5  2  0  0  0  0
  6 17  1  0  0  0  0
  7  6  1  0  0  0  0
  8  9  1  0  0  0  0
  8  7  2  0  0  0  0
  9  4  2  0  0  0  0
 10 20  1  0  0  0  0
 10 11  2  0  0  0  0
 11 12  1  0  0  0  0
 12 21  1  0  0  0  0
 12 13  2  0  0  0  0
 13 22  1  0  0  0  0
 14 23  1  0  0  0  0
 14 13  1  0  0  0  0
 15 14  2  0  0  0  0
 18  8  1  0  0  0  0
 19  9  1  0  0  0  0
 24 15  1  0  0  0  0
 25  1  1  0  0  0  0
M  END
