1,2
 OpenBabel05122313053D

 30 31  0  0  0  0  0  0  0  0999 V2000
    1.5012   -1.6580    0.2659 N   0  0  0  0  0  2  0  0  0  0  0  0
   -0.9621   -0.8647   -0.5856 N   0  0  0  0  0  2  0  0  0  0  0  0
    2.7437   -1.9983    0.6314 C   0  0  0  0  0  3  0  0  0  0  0  0
    3.3908   -1.1737    0.9719 H   0  0  0  0  0  0  0  0  0  0  0  0
    3.1983   -3.3245    0.5709 C   0  0  0  0  0  0  0  0  0  0  0  0
    4.2208   -3.5684    0.8919 H   0  0  0  0  0  0  0  0  0  0  0  0
    2.3270   -4.3162    0.0927 C   0  0  0  0  0  0  0  0  0  0  0  0
    2.6554   -5.3641    0.0271 H   0  0  0  0  0  0  0  0  0  0  0  0
    1.0350   -3.9537   -0.3061 C   0  0  0  0  0  0  0  0  0  0  0  0
    0.3257   -4.6986   -0.6958 H   0  0  0  0  0  0  0  0  0  0  0  0
    0.6501   -2.6017   -0.2058 C   0  0  0  0  0  0  0  0  0  0  0  0
   -0.6795   -2.1341   -0.5933 C   0  0  0  0  0  3  0  0  0  0  0  0
   -1.4283   -2.8962   -0.8856 H   0  0  0  0  0  0  0  0  0  0  0  0
   -2.2798   -0.4130   -0.8004 C   0  0  0  0  0  0  0  0  0  0  0  0
   -2.4886    0.8682   -1.3818 C   0  0  0  0  0  0  0  0  0  0  0  0
   -1.3503    1.7720   -1.7491 C   0  0  0  0  0  0  0  0  0  0  0  0
   -0.5754    1.2718   -2.3623 H   0  0  0  0  0  0  0  0  0  0  0  0
   -0.8389    2.1441   -0.8323 H   0  0  0  0  0  0  0  0  0  0  0  0
   -1.7096    2.6605   -2.3015 H   0  0  0  0  0  0  0  0  0  0  0  0
   -3.8224    1.2659   -1.5930 C   0  0  0  0  0  0  0  0  0  0  0  0
   -4.0073    2.2470   -2.0567 H   0  0  0  0  0  0  0  0  0  0  0  0
   -4.9071    0.4638   -1.2234 C   0  0  0  0  0  0  0  0  0  0  0  0
   -5.9333    0.8255   -1.3942 H   0  0  0  0  0  0  0  0  0  0  0  0
   -4.7057   -0.7904   -0.6068 C   0  0  0  0  0  0  0  0  0  0  0  0
   -5.8743   -1.6245   -0.1476 C   0  0  0  0  0  0  0  0  0  0  0  0
   -6.4222   -1.1229    0.6776 H   0  0  0  0  0  0  0  0  0  0  0  0
   -5.5518   -2.6178    0.2192 H   0  0  0  0  0  0  0  0  0  0  0  0
   -6.6036   -1.7819   -0.9686 H   0  0  0  0  0  0  0  0  0  0  0  0
   -3.3842   -1.2088   -0.4091 C   0  0  0  0  0  0  0  0  0  0  0  0
   -3.2004   -2.1570    0.1187 H   0  0  0  0  0  0  0  0  0  0  0  0
  1  3  1  0  0  0  0
  3  4  1  0  0  0  0
  5  3  1  0  0  0  0
  5  6  1  0  0  0  0
  7  5  2  0  0  0  0
  8  7  1  0  0  0  0
  9 11  2  0  0  0  0
  9  7  1  0  0  0  0
 10  9  1  0  0  0  0
 11  1  1  0  0  0  0
 12  2  1  0  0  0  0
 12 11  1  0  0  0  0
 13 12  1  0  0  0  0
 14  2  1  0  0  0  0
 14 29  1  0  0  0  0
 15 14  2  0  0  0  0
 16 15  1  0  0  0  0
 16 18  1  0  0  0  0
 17 16  1  0  0  0  0
 19 16  1  0  0  0  0
 20 15  1  0  0  0  0
 20 22  2  0  0  0  0
 21 20  1  0  0  0  0
 22 24  1  0  0  0  0
 23 22  1  0  0  0  0
 24 29  2  0  0  0  0
 24 25  1  0  0  0  0
 25 27  1  0  0  0  0
 25 26  1  0  0  0  0
 28 25  1  0  0  0  0
 29 30  1  0  0  0  0
M  END
