1,2
 OpenBabel05122313053D

 25 26  0  0  0  0  0  0  0  0999 V2000
   -1.1503    0.3996   -1.5476 N   0  0  0  0  0  2  0  0  0  0  0  0
    1.0060   -0.8457   -1.0624 N   0  0  0  0  0  2  0  0  0  0  0  0
   -2.3426    0.9272   -1.9690 C   0  0  0  0  0  0  0  0  0  0  0  0
   -0.6290   -0.3145   -2.5715 C   0  0  0  0  0  0  0  0  0  0  0  0
    0.5847   -1.0114   -2.3053 C   0  0  0  0  0  0  0  0  0  0  0  0
    2.2025   -1.4601   -0.6075 C   0  0  0  0  0  0  0  0  0  0  0  0
   -2.5591    0.5266   -3.2817 C   0  0  0  0  0  0  0  0  0  0  0  0
   -2.9604    1.5710   -1.3300 H   0  0  0  0  0  0  0  0  0  0  0  0
   -1.4776   -0.2512   -3.6455 N   0  0  0  0  0  0  0  0  0  0  0  0
    1.1049   -1.6631   -3.0257 H   0  0  0  0  0  0  0  0  0  0  0  0
    2.0879   -2.4088    0.4319 C   0  0  0  0  0  0  0  0  0  0  0  0
    3.4764   -1.0943   -1.1199 C   0  0  0  0  0  0  0  0  0  0  0  0
   -3.3800    0.7414   -3.9719 H   0  0  0  0  0  0  0  0  0  0  0  0
   -1.3305   -0.6890   -4.5538 H   0  0  0  0  0  0  0  0  0  0  0  0
    3.2233   -3.0154    0.9750 C   0  0  0  0  0  0  0  0  0  0  0  0
    1.0826   -2.6648    0.7939 H   0  0  0  0  0  0  0  0  0  0  0  0
    4.6028   -1.7231   -0.5431 C   0  0  0  0  0  0  0  0  0  0  0  0
    3.6850   -0.0483   -2.1826 C   0  0  0  0  0  0  0  0  0  0  0  0
    4.4928   -2.6651    0.4857 C   0  0  0  0  0  0  0  0  0  0  0  0
    3.1177   -3.7630    1.7757 H   0  0  0  0  0  0  0  0  0  0  0  0
    5.5996   -1.4474   -0.9224 H   0  0  0  0  0  0  0  0  0  0  0  0
    4.0427    0.9050   -1.7322 H   0  0  0  0  0  0  0  0  0  0  0  0
    2.7626    0.2082   -2.7315 H   0  0  0  0  0  0  0  0  0  0  0  0
    4.4523   -0.3789   -2.9109 H   0  0  0  0  0  0  0  0  0  0  0  0
    5.3983   -3.1292    0.9048 H   0  0  0  0  0  0  0  0  0  0  0  0
  2  6  1  0  0  0  0
  3  1  1  0  0  0  0
  3  8  1  0  0  0  0
  4  5  2  0  0  0  0
  4  1  1  0  0  0  0
  5  2  1  0  0  0  0
  6 11  1  0  0  0  0
  7  3  2  0  0  0  0
  9  7  1  0  0  0  0
  9  4  1  0  0  0  0
 10  5  1  0  0  0  0
 11 16  1  0  0  0  0
 11 15  2  0  0  0  0
 12  6  2  0  0  0  0
 12 17  1  0  0  0  0
 13  7  1  0  0  0  0
 14  9  1  0  0  0  0
 15 20  1  0  0  0  0
 17 19  2  0  0  0  0
 18 22  1  0  0  0  0
 18 12  1  0  0  0  0
 19 25  1  0  0  0  0
 19 15  1  0  0  0  0
 21 17  1  0  0  0  0
 23 18  1  0  0  0  0
 24 18  1  0  0  0  0
M  END
