1,2
 OpenBabel05122313053D

 19 20  0  0  1  0  0  0  0  0999 V2000
    0.9702    1.6789    0.9813 N   0  0  0  0  0  2  0  0  0  0  0  0
    1.6147    0.3590   -1.1118 N   0  0  0  0  0  2  0  0  0  0  0  0
    1.2007   -1.2664   -2.7744 N   0  0  0  0  0  0  0  0  0  0  0  0
    0.2802   -1.4007   -2.2877 H   0  0  0  0  0  0  0  0  0  0  0  0
    1.6073   -2.0627   -3.2640 H   0  0  0  0  0  0  0  0  0  0  0  0
    3.7412   -0.2482   -2.4552 S   0  0  0  0  0  0  0  0  0  0  0  0
    0.4879    2.3812    2.0337 C   0  0  0  0  0  3  0  0  0  0  0  0
   -0.5495    2.1575    2.3193 H   0  0  0  0  0  0  0  0  0  0  0  0
    1.2533    3.3186    2.7289 C   0  0  0  0  0  0  0  0  0  0  0  0
    0.8088    3.8531    3.5803 H   0  0  0  0  0  0  0  0  0  0  0  0
    2.5817    3.5536    2.3292 C   0  0  0  0  0  0  0  0  0  0  0  0
    3.2110    4.2821    2.8604 H   0  0  0  0  0  0  0  0  0  0  0  0
    3.0857    2.8408    1.2376 C   0  0  0  0  0  0  0  0  0  0  0  0
    4.1147    2.9962    0.8838 H   0  0  0  0  0  0  0  0  0  0  0  0
    2.2638    1.9124    0.5770 C   0  0  0  0  0  0  0  0  0  0  0  0
    2.6547    1.1085   -0.5719 C   0  0  0  0  0  0  0  0  0  0  0  0
    3.8788    0.9233   -1.1740 C   0  0  0  0  0  0  0  0  0  0  0  0
    4.8502    1.3528   -0.9107 H   0  0  0  0  0  0  0  0  0  0  0  0
    2.0210   -0.4422   -2.0951 C   0  0  1  0  0  3  0  0  0  0  0  0
  1  7  1  0  0  0  0
  2 16  1  0  0  0  0
  3  4  1  0  0  0  0
  5  3  1  0  0  0  0
  6 19  1  0  0  0  0
  6 17  1  0  0  0  0
  7  8  1  0  0  0  0
  7  9  1  0  0  0  0
  9 10  1  0  0  0  0
 11  9  2  0  0  0  0
 11 12  1  0  0  0  0
 13 11  1  0  0  0  0
 14 13  1  0  0  0  0
 15  1  1  0  0  0  0
 15 13  2  0  0  0  0
 16 15  1  0  0  0  0
 17 18  1  0  0  0  0
 17 16  2  0  0  0  0
 19  3  1  6  0  0  0
 19  2  1  0  0  0  0
M  END
