6,7
 OpenBabel05122313053D

 44 48  0  0  1  0  0  0  0  0999 V2000
    4.1674   -3.9599    0.2019 Br  0  0  0  0  0  0  0  0  0  0  0  0
    4.3609    2.0332   -0.5242 N   0  0  0  0  0  0  0  0  0  0  0  0
    5.0174    2.6743   -0.9671 H   0  0  0  0  0  0  0  0  0  0  0  0
    0.2135    3.1595   -0.2672 N   0  0  0  0  0  0  0  0  0  0  0  0
   -0.5934    3.6057   -0.7069 H   0  0  0  0  0  0  0  0  0  0  0  0
   -0.9665    1.1507   -0.4231 N   0  0  0  0  0  2  0  0  0  0  0  0
   -2.5494   -0.5291   -1.6859 N   0  0  0  0  0  2  0  0  0  0  0  0
    4.2877   -2.0761   -0.0541 C   0  0  0  0  0  0  0  0  0  0  0  0
    5.4757   -1.5351   -0.6099 C   0  0  0  0  0  0  0  0  0  0  0  0
    6.3022   -2.2084   -0.8754 H   0  0  0  0  0  0  0  0  0  0  0  0
    5.6001   -0.1582   -0.8168 C   0  0  0  0  0  0  0  0  0  0  0  0
    6.5237    0.2607   -1.2420 H   0  0  0  0  0  0  0  0  0  0  0  0
    4.5158    0.6610   -0.4573 C   0  0  0  0  0  0  0  0  0  0  0  0
    3.0997    2.3851   -0.0644 C   0  0  0  0  0  0  0  0  0  0  0  0
    2.6363    3.7552    0.0619 C   0  0  0  0  0  0  0  0  0  0  0  0
    3.5613    4.8166    0.2344 C   0  0  0  0  0  0  0  0  0  0  0  0
    4.6319    4.5726    0.3043 H   0  0  0  0  0  0  0  0  0  0  0  0
    3.1534    6.1459    0.3500 C   0  0  0  0  0  0  0  0  0  0  0  0
    3.9009    6.9401    0.4886 H   0  0  0  0  0  0  0  0  0  0  0  0
    1.7835    6.4586    0.3045 C   0  0  0  0  0  0  0  0  0  0  0  0
    1.4433    7.4996    0.4018 H   0  0  0  0  0  0  0  0  0  0  0  0
    0.8480    5.4345    0.1436 C   0  0  0  0  0  0  0  0  0  0  0  0
   -0.2266    5.6760    0.1077 H   0  0  0  0  0  0  0  0  0  0  0  0
    1.2492    4.0867    0.0178 C   0  0  0  0  0  0  0  0  0  0  0  0
    0.0550    1.8416    0.0593 C   0  0  2  0  0  3  0  0  0  0  0  0
   -1.7839    1.7578   -1.4684 C   0  0  0  0  0  0  0  0  0  0  0  0
   -1.1559    2.3531   -2.1689 H   0  0  0  0  0  0  0  0  0  0  0  0
   -2.5430    2.4566   -1.0340 H   0  0  0  0  0  0  0  0  0  0  0  0
   -2.4941    0.6971   -2.2629 C   0  0  1  0  0  3  0  0  0  0  0  0
   -3.0562    0.9347   -3.5235 C   0  0  0  0  0  0  0  0  0  0  0  0
   -2.9950    1.9402   -3.9643 H   0  0  0  0  0  0  0  0  0  0  0  0
   -3.6723   -0.1186   -4.2105 C   0  0  0  0  0  0  0  0  0  0  0  0
   -4.1176    0.0473   -5.2023 H   0  0  0  0  0  0  0  0  0  0  0  0
   -3.6871   -1.3916   -3.6215 C   0  0  0  0  0  0  0  0  0  0  0  0
   -4.1317   -2.2561   -4.1335 H   0  0  0  0  0  0  0  0  0  0  0  0
   -3.1097   -1.5616   -2.3627 C   0  0  0  0  0  0  0  0  0  0  0  0
   -3.0667   -2.5406   -1.8676 H   0  0  0  0  0  0  0  0  0  0  0  0
    1.0763    1.2226    0.9758 C   0  0  0  0  0  0  0  0  0  0  0  0
    1.0902    1.7912    1.9340 H   0  0  0  0  0  0  0  0  0  0  0  0
    0.7641    0.1865    1.1792 H   0  0  0  0  0  0  0  0  0  0  0  0
    2.4276    1.2243    0.3279 C   0  0  0  0  0  0  0  0  0  0  0  0
    3.3080    0.1157    0.0894 C   0  0  0  0  0  0  0  0  0  0  0  0
    3.2022   -1.2760    0.3002 C   0  0  0  0  0  0  0  0  0  0  0  0
    2.2820   -1.7211    0.6981 H   0  0  0  0  0  0  0  0  0  0  0  0
  2 13  1  0  0  0  0
  2 14  1  0  0  0  0
  3  2  1  0  0  0  0
  4 24  1  0  0  0  0
  4 25  1  0  0  0  0
  5  4  1  0  0  0  0
  8  1  1  0  0  0  0
  8 43  1  0  0  0  0
  9  8  2  0  0  0  0
 10  9  1  0  0  0  0
 11  9  1  0  0  0  0
 11 13  2  0  0  0  0
 12 11  1  0  0  0  0
 13 42  1  0  0  0  0
 14 15  1  0  0  0  0
 14 41  2  0  0  0  0
 15 16  1  0  0  0  0
 16 17  1  0  0  0  0
 16 18  2  0  0  0  0
 18 19  1  0  0  0  0
 20 18  1  0  0  0  0
 20 21  1  0  0  0  0
 22 20  2  0  0  0  0
 23 22  1  0  0  0  0
 24 15  2  0  0  0  0
 24 22  1  0  0  0  0
 25  6  1  1  0  0  0
 25 38  1  0  0  0  0
 26 28  1  0  0  0  0
 26  6  1  0  0  0  0
 27 26  1  0  0  0  0
 29  7  1  0  0  0  0
 29 26  1  6  0  0  0
 30 29  1  0  0  0  0
 31 30  1  0  0  0  0
 32 34  1  0  0  0  0
 32 30  2  0  0  0  0
 33 32  1  0  0  0  0
 34 36  2  0  0  0  0
 35 34  1  0  0  0  0
 36 37  1  0  0  0  0
 36  7  1  0  0  0  0
 38 40  1  0  0  0  0
 38 39  1  0  0  0  0
 41 38  1  0  0  0  0
 42 43  2  0  0  0  0
 42 41  1  0  0  0  0
 43 44  1  0  0  0  0
M  END
