3,4
 OpenBabel05122313053D

 22 24  0  0  0  0  0  0  0  0999 V2000
   -3.8784   -3.8000    0.1792 Cl  0  0  0  0  0  0  0  0  0  0  0  0
   -3.8348    3.8160    0.1001 Cl  0  0  0  0  0  0  0  0  0  0  0  0
   -0.0831   -1.3585   -0.4073 N   0  0  0  0  0  2  0  0  0  0  0  0
   -0.0587    1.3212   -0.3803 N   0  0  0  0  0  2  0  0  0  0  0  0
   -2.5162   -1.4299   -0.0289 C   0  0  0  0  0  0  0  0  0  0  0  0
   -1.2225   -3.4875   -0.2340 C   0  0  0  0  0  0  0  0  0  0  0  0
   -1.1543   -4.5834   -0.2556 H   0  0  0  0  0  0  0  0  0  0  0  0
   -2.4531   -2.8560   -0.0395 C   0  0  0  0  0  0  0  0  0  0  0  0
   -3.7179    0.6946    0.1390 C   0  0  0  0  0  0  0  0  0  0  0  0
   -4.6504    1.2606    0.2700 H   0  0  0  0  0  0  0  0  0  0  0  0
   -1.2861   -0.7286   -0.2152 C   0  0  0  0  0  0  0  0  0  0  0  0
   -2.4982    1.4268   -0.0464 C   0  0  0  0  0  0  0  0  0  0  0  0
   -1.2746    0.7086   -0.2122 C   0  0  0  0  0  0  0  0  0  0  0  0
   -1.1790    3.4645   -0.2828 C   0  0  0  0  0  0  0  0  0  0  0  0
   -1.0978    4.5587   -0.3293 H   0  0  0  0  0  0  0  0  0  0  0  0
   -3.7261   -0.6803    0.1510 C   0  0  0  0  0  0  0  0  0  0  0  0
   -4.6649   -1.2328    0.2939 H   0  0  0  0  0  0  0  0  0  0  0  0
   -0.0707   -2.7042   -0.4155 C   0  0  0  0  0  0  0  0  0  0  0  0
    0.9057   -3.1835   -0.5869 H   0  0  0  0  0  0  0  0  0  0  0  0
   -2.4187    2.8513   -0.0853 C   0  0  0  0  0  0  0  0  0  0  0  0
   -0.0329    2.6653   -0.4211 C   0  0  0  0  0  0  0  0  0  0  0  0
    0.9526    3.1313   -0.5676 H   0  0  0  0  0  0  0  0  0  0  0  0
  3 11  1  0  0  0  0
  4 13  1  0  0  0  0
  5 16  1  0  0  0  0
  6  8  1  0  0  0  0
  7  6  1  0  0  0  0
  8  5  2  0  0  0  0
  8  1  1  0  0  0  0
  9 16  2  0  0  0  0
  9 10  1  0  0  0  0
 11 13  2  0  0  0  0
 11  5  1  0  0  0  0
 12  9  1  0  0  0  0
 13 12  1  0  0  0  0
 14 20  1  0  0  0  0
 15 14  1  0  0  0  0
 16 17  1  0  0  0  0
 18  3  1  0  0  0  0
 18  6  2  0  0  0  0
 19 18  1  0  0  0  0
 20 12  2  0  0  0  0
 20  2  1  0  0  0  0
 21  4  1  0  0  0  0
 21 14  2  0  0  0  0
 22 21  1  0  0  0  0
M  END
