3,5
 OpenBabel05122313053D

 48 50  0  0  1  0  0  0  0  0999 V2000
   -2.8984   -1.8060    0.6346 S   0  0  0  0  0  0  0  0  0  0  0  0
    2.8954   -1.8113   -0.6279 S   0  0  0  0  0  0  0  0  0  0  0  0
    1.4301    1.2902   -0.0920 N   0  0  0  0  0  0  0  0  0  0  0  0
    1.8204    1.3341    0.8623 H   0  0  0  0  0  0  0  0  0  0  0  0
   -1.4313    1.2939    0.0871 N   0  0  0  0  0  0  0  0  0  0  0  0
   -1.8184    1.3379   -0.8686 H   0  0  0  0  0  0  0  0  0  0  0  0
    0.6699    2.5202   -0.3910 C   0  0  2  0  0  0  0  0  0  0  0  0
    0.4237    2.4710   -1.4767 H   0  0  0  0  0  0  0  0  0  0  0  0
    1.4675    3.8040   -0.1069 C   0  0  0  0  0  0  0  0  0  0  0  0
    1.7687    3.7910    0.9657 H   0  0  0  0  0  0  0  0  0  0  0  0
    2.4062    3.7992   -0.6977 H   0  0  0  0  0  0  0  0  0  0  0  0
    0.6610    5.0739   -0.3947 C   0  0  0  0  0  0  0  0  0  0  0  0
    0.4378    5.1289   -1.4834 H   0  0  0  0  0  0  0  0  0  0  0  0
    1.2659    5.9722   -0.1543 H   0  0  0  0  0  0  0  0  0  0  0  0
   -0.6518    5.0753    0.3941 C   0  0  0  0  0  0  0  0  0  0  0  0
   -1.2541    5.9756    0.1548 H   0  0  0  0  0  0  0  0  0  0  0  0
   -0.4283    5.1284    1.4828 H   0  0  0  0  0  0  0  0  0  0  0  0
   -1.4620    3.8080    0.1049 C   0  0  0  0  0  0  0  0  0  0  0  0
   -1.7633    3.7971   -0.9677 H   0  0  0  0  0  0  0  0  0  0  0  0
   -2.4005    3.8055    0.6958 H   0  0  0  0  0  0  0  0  0  0  0  0
   -0.6681    2.5216    0.3876 C   0  0  1  0  0  0  0  0  0  0  0  0
   -0.4220    2.4701    1.4732 H   0  0  0  0  0  0  0  0  0  0  0  0
   -2.5260    0.9768    1.0425 C   0  0  0  0  0  0  0  0  0  0  0  0
   -3.1731    1.8638    1.2229 H   0  0  0  0  0  0  0  0  0  0  0  0
   -2.0362    0.6900    1.9968 H   0  0  0  0  0  0  0  0  0  0  0  0
   -3.3845   -0.1300    0.5205 C   0  0  0  0  0  0  0  0  0  0  0  0
   -4.5673   -0.0134   -0.1909 C   0  0  0  0  0  0  0  0  0  0  0  0
   -5.0510    0.9563   -0.3807 H   0  0  0  0  0  0  0  0  0  0  0  0
   -5.0803   -1.2668   -0.6403 C   0  0  0  0  0  0  0  0  0  0  0  0
   -6.0103   -1.3838   -1.2147 H   0  0  0  0  0  0  0  0  0  0  0  0
   -4.2844   -2.3417   -0.2807 C   0  0  0  0  0  0  0  0  0  0  0  0
   -4.4852   -3.7947   -0.5814 C   0  0  0  0  0  0  0  0  0  0  0  0
   -4.5223   -4.4106    0.3411 H   0  0  0  0  0  0  0  0  0  0  0  0
   -3.6667   -4.1988   -1.2133 H   0  0  0  0  0  0  0  0  0  0  0  0
   -5.4382   -3.9394   -1.1261 H   0  0  0  0  0  0  0  0  0  0  0  0
    2.5209    0.9692   -1.0507 C   0  0  0  0  0  0  0  0  0  0  0  0
    3.1668    1.8556   -1.2377 H   0  0  0  0  0  0  0  0  0  0  0  0
    2.0272    0.6777   -2.0016 H   0  0  0  0  0  0  0  0  0  0  0  0
    3.3823   -0.1347   -0.5273 C   0  0  0  0  0  0  0  0  0  0  0  0
    4.5700   -0.0139    0.1753 C   0  0  0  0  0  0  0  0  0  0  0  0
    5.0550    0.9569    0.3559 H   0  0  0  0  0  0  0  0  0  0  0  0
    5.0861   -1.2645    0.6287 C   0  0  0  0  0  0  0  0  0  0  0  0
    6.0201   -1.3781    1.1973 H   0  0  0  0  0  0  0  0  0  0  0  0
    4.2878   -2.3416    0.2810 C   0  0  0  0  0  0  0  0  0  0  0  0
    4.4910   -3.7928    0.5886 C   0  0  0  0  0  0  0  0  0  0  0  0
    5.4471   -3.9340    1.1288 H   0  0  0  0  0  0  0  0  0  0  0  0
    4.5235   -4.4137   -0.3307 H   0  0  0  0  0  0  0  0  0  0  0  0
    3.6763   -4.1939    1.2272 H   0  0  0  0  0  0  0  0  0  0  0  0
  2 39  1  0  0  0  0
  2 44  1  0  0  0  0
  3  4  1  0  0  0  0
  5 21  1  0  0  0  0
  5 23  1  0  0  0  0
  6  5  1  0  0  0  0
  7  8  1  6  0  0  0
  7  9  1  0  0  0  0
  7  3  1  0  0  0  0
  7 21  1  0  0  0  0
  9 10  1  0  0  0  0
 11  9  1  0  0  0  0
 12 14  1  0  0  0  0
 12  9  1  0  0  0  0
 12 15  1  0  0  0  0
 13 12  1  0  0  0  0
 15 17  1  0  0  0  0
 16 15  1  0  0  0  0
 18 21  1  0  0  0  0
 18 15  1  0  0  0  0
 18 20  1  0  0  0  0
 19 18  1  0  0  0  0
 21 22  1  1  0  0  0
 23 24  1  0  0  0  0
 23 25  1  0  0  0  0
 26  1  1  0  0  0  0
 26 23  1  0  0  0  0
 27 26  2  0  0  0  0
 28 27  1  0  0  0  0
 29 31  2  0  0  0  0
 29 27  1  0  0  0  0
 30 29  1  0  0  0  0
 31  1  1  0  0  0  0
 32 31  1  0  0  0  0
 32 33  1  0  0  0  0
 34 32  1  0  0  0  0
 35 32  1  0  0  0  0
 36 39  1  0  0  0  0
 36  3  1  0  0  0  0
 37 36  1  0  0  0  0
 38 36  1  0  0  0  0
 39 40  2  0  0  0  0
 40 41  1  0  0  0  0
 40 42  1  0  0  0  0
 42 43  1  0  0  0  0
 44 45  1  0  0  0  0
 44 42  2  0  0  0  0
 45 46  1  0  0  0  0
 45 48  1  0  0  0  0
 47 45  1  0  0  0  0
M  END
