1,2
 OpenBabel05122313053D

 46 49  0  0  0  0  0  0  0  0999 V2000
   -2.1114   -0.2547   -0.0618 N   0  0  0  0  0  2  0  0  0  0  0  0
    0.5716   -0.5399   -0.2105 N   0  0  0  0  0  2  0  0  0  0  0  0
   -3.2769    2.3245    0.0189 N   0  0  0  0  0  0  0  0  0  0  0  0
    5.0029    1.2226   -0.4998 O   0  0  0  0  0  0  0  0  0  0  0  0
    4.8158   -0.9981   -0.1268 O   0  0  0  0  0  0  0  0  0  0  0  0
   -3.4586   -0.1211   -0.0767 C   0  0  0  0  0  0  0  0  0  0  0  0
   -4.2920   -1.2739   -0.1563 C   0  0  0  0  0  0  0  0  0  0  0  0
   -3.8092   -2.2591   -0.2571 H   0  0  0  0  0  0  0  0  0  0  0  0
   -5.6662   -1.1114   -0.1568 C   0  0  0  0  0  0  0  0  0  0  0  0
   -6.3187   -1.9945   -0.2261 H   0  0  0  0  0  0  0  0  0  0  0  0
   -6.2535    0.1888   -0.0775 C   0  0  0  0  0  0  0  0  0  0  0  0
   -7.3500    0.2824   -0.0745 H   0  0  0  0  0  0  0  0  0  0  0  0
   -5.4669    1.3255   -0.0161 C   0  0  0  0  0  0  0  0  0  0  0  0
   -5.8956    2.3365    0.0338 H   0  0  0  0  0  0  0  0  0  0  0  0
   -4.0424    1.2111   -0.0233 C   0  0  0  0  0  0  0  0  0  0  0  0
   -1.9431    2.1646   -0.0058 C   0  0  0  0  0  0  0  0  0  0  0  0
   -1.0699    3.3065    0.0383 C   0  0  0  0  0  0  0  0  0  0  0  0
   -1.5623    4.2867    0.1010 H   0  0  0  0  0  0  0  0  0  0  0  0
    0.3089    3.1948    0.0595 C   0  0  0  0  0  0  0  0  0  0  0  0
    0.9154    1.8649   -0.0474 C   0  0  0  0  0  0  0  0  0  0  0  0
    0.0839    0.7120   -0.0949 C   0  0  0  0  0  0  0  0  0  0  0  0
   -1.3589    0.8497   -0.0497 C   0  0  0  0  0  0  0  0  0  0  0  0
    2.2983    1.6074   -0.1599 C   0  0  0  0  0  0  0  0  0  0  0  0
    3.0246    2.4310   -0.1895 H   0  0  0  0  0  0  0  0  0  0  0  0
    2.8049    0.3017   -0.2400 C   0  0  0  0  0  0  0  0  0  0  0  0
    1.8895   -0.8000   -0.2573 C   0  0  0  0  0  0  0  0  0  0  0  0
    2.2168   -2.2606   -0.3056 C   0  0  0  0  0  0  0  0  0  0  0  0
    1.9720   -2.6857    0.6949 H   0  0  0  0  0  0  0  0  0  0  0  0
    3.2658   -2.4718   -0.5535 H   0  0  0  0  0  0  0  0  0  0  0  0
    1.5310   -2.7621   -1.0200 H   0  0  0  0  0  0  0  0  0  0  0  0
    4.3090    0.2354   -0.3168 C   0  0  0  0  0  0  0  0  0  0  0  0
    6.2604   -1.0998   -0.1573 C   0  0  0  0  0  0  0  0  0  0  0  0
    6.6750   -0.4222    0.6183 H   0  0  0  0  0  0  0  0  0  0  0  0
    6.6204   -0.7220   -1.1371 H   0  0  0  0  0  0  0  0  0  0  0  0
    6.6301   -2.5482    0.0803 C   0  0  0  0  0  0  0  0  0  0  0  0
    6.2452   -2.9032    1.0566 H   0  0  0  0  0  0  0  0  0  0  0  0
    7.7325   -2.6577    0.0828 H   0  0  0  0  0  0  0  0  0  0  0  0
    6.2216   -3.2034   -0.7145 H   0  0  0  0  0  0  0  0  0  0  0  0
    1.1517    4.4179    0.1817 C   0  0  0  0  0  0  0  0  0  0  0  0
    0.7928    5.5882   -0.7002 C   0  0  0  0  0  0  0  0  0  0  0  0
    1.4990    6.4278   -0.5577 H   0  0  0  0  0  0  0  0  0  0  0  0
   -0.2289    5.9646   -0.4830 H   0  0  0  0  0  0  0  0  0  0  0  0
    0.7988    5.2956   -1.7709 H   0  0  0  0  0  0  0  0  0  0  0  0
    2.1662    4.4826    1.0755 C   0  0  0  0  0  0  0  0  0  0  0  0
    2.7694    5.3980    1.1772 H   0  0  0  0  0  0  0  0  0  0  0  0
    2.4017    3.6482    1.7530 H   0  0  0  0  0  0  0  0  0  0  0  0
  1 22  1  0  0  0  0
  2 21  1  0  0  0  0
  4 31  2  0  0  0  0
  6  1  1  0  0  0  0
  6 15  1  0  0  0  0
  7  6  2  0  0  0  0
  8  7  1  0  0  0  0
  9  7  1  0  0  0  0
  9 11  2  0  0  0  0
 10  9  1  0  0  0  0
 11 12  1  0  0  0  0
 11 13  1  0  0  0  0
 13 14  1  0  0  0  0
 15 13  2  0  0  0  0
 15  3  1  0  0  0  0
 16  3  2  0  0  0  0
 16 17  1  0  0  0  0
 17 19  2  0  0  0  0
 17 18  1  0  0  0  0
 19 39  1  0  0  0  0
 20 19  1  0  0  0  0
 21 22  2  0  0  0  0
 21 20  1  0  0  0  0
 22 16  1  0  0  0  0
 23 20  2  0  0  0  0
 24 23  1  0  0  0  0
 25 23  1  0  0  0  0
 26 25  2  0  0  0  0
 26  2  1  0  0  0  0
 27 26  1  0  0  0  0
 27 28  1  0  0  0  0
 29 27  1  0  0  0  0
 30 27  1  0  0  0  0
 31 25  1  0  0  0  0
 31  5  1  0  0  0  0
 32  5  1  0  0  0  0
 32 35  1  0  0  0  0
 32 33  1  0  0  0  0
 34 32  1  0  0  0  0
 35 37  1  0  0  0  0
 35 36  1  0  0  0  0
 38 35  1  0  0  0  0
 39 44  2  0  0  0  0
 40 41  1  0  0  0  0
 40 42  1  0  0  0  0
 40 39  1  0  0  0  0
 43 40  1  0  0  0  0
 44 45  1  0  0  0  0
 44 46  1  0  0  0  0
M  END
