5,6
 OpenBabel05122313053D

 24 25  0  0  1  0  0  0  0  0999 V2000
   -3.4608   -4.9273    0.0782 O   0  0  0  0  0  0  0  0  0  0  0  0
   -4.6622   -3.1024    0.2394 O   0  0  0  0  0  0  0  0  0  0  0  0
   -4.6617    3.1031    0.2392 O   0  0  0  0  0  0  0  0  0  0  0  0
   -3.4600    4.9278    0.0778 O   0  0  0  0  0  0  0  0  0  0  0  0
   -0.1205   -1.3493   -0.5185 N   0  0  0  0  0  2  0  0  0  0  0  0
   -0.1203    1.3491   -0.5188 N   0  0  0  0  0  2  0  0  0  0  0  0
   -3.6053   -3.7086    0.0827 N   0  0  0  0  0  0  0  0  0  0  0  0
   -3.6047    3.7091    0.0824 N   0  0  0  0  0  0  0  0  0  0  0  0
   -0.0347   -2.6924   -0.5120 C   0  0  0  0  0  3  0  0  0  0  0  0
    0.9719   -3.1102   -0.6601 H   0  0  0  0  0  0  0  0  0  0  0  0
   -1.1465   -3.5166   -0.3154 C   0  0  0  0  0  0  0  0  0  0  0  0
   -1.0724   -4.6114   -0.3061 H   0  0  0  0  0  0  0  0  0  0  0  0
   -2.3795   -2.8860   -0.1252 C   0  0  0  0  0  0  0  0  0  0  0  0
   -2.4911   -1.4975   -0.1262 C   0  0  0  0  0  0  0  0  0  0  0  0
   -3.4786   -1.0468    0.0320 H   0  0  0  0  0  0  0  0  0  0  0  0
   -1.3240   -0.7398   -0.3243 C   0  0  0  0  0  0  0  0  0  0  0  0
   -1.3238    0.7399   -0.3244 C   0  0  1  0  0  3  0  0  0  0  0  0
   -2.4909    1.4978   -0.1263 C   0  0  0  0  0  0  0  0  0  0  0  0
   -3.4784    1.0472    0.0320 H   0  0  0  0  0  0  0  0  0  0  0  0
   -2.3790    2.8862   -0.1255 C   0  0  0  0  0  0  0  0  0  0  0  0
   -1.1460    3.5166   -0.3159 C   0  0  0  0  0  0  0  0  0  0  0  0
   -1.0717    4.6115   -0.3067 H   0  0  0  0  0  0  0  0  0  0  0  0
   -0.0343    2.6923   -0.5125 C   0  0  0  0  0  0  0  0  0  0  0  0
    0.9723    3.1099   -0.6608 H   0  0  0  0  0  0  0  0  0  0  0  0
  1  7  2  0  0  0  0
  4  8  2  0  0  0  0
  5  9  1  0  0  0  0
  5 16  1  0  0  0  0
  6 23  1  0  0  0  0
  6 17  1  0  0  0  0
  7  2  2  0  0  0  0
  8  3  2  0  0  0  0
  9 11  1  0  0  0  0
 10  9  1  0  0  0  0
 11 12  1  0  0  0  0
 11 13  2  0  0  0  0
 13  7  1  0  0  0  0
 14 13  1  0  0  0  0
 14 15  1  0  0  0  0
 16 14  2  0  0  0  0
 17 16  1  1  0  0  0
 17 18  1  0  0  0  0
 18 20  2  0  0  0  0
 18 19  1  0  0  0  0
 20  8  1  0  0  0  0
 21 22  1  0  0  0  0
 21 20  1  0  0  0  0
 23 21  2  0  0  0  0
 24 23  1  0  0  0  0
M  END
