35,36
 OpenBabel05122313053D

 40 42  0  0  0  0  0  0  0  0999 V2000
    2.2877    1.5688    0.5798 S   0  0  0  0  0  0  0  0  0  0  0  0
    2.2680   -1.3836    0.8771 S   0  0  0  0  0  0  0  0  0  0  0  0
   -2.6617    2.6356    0.7599 C   0  0  0  0  0  3  0  0  0  0  0  0
   -3.6105    2.6053    0.2040 H   0  0  0  0  0  0  0  0  0  0  0  0
   -2.2904    3.7280    1.5485 C   0  0  0  0  0  0  0  0  0  0  0  0
   -2.9452    4.6091    1.5980 H   0  0  0  0  0  0  0  0  0  0  0  0
   -1.0859    3.6665    2.2640 C   0  0  0  0  0  0  0  0  0  0  0  0
   -0.7625    4.5057    2.8979 H   0  0  0  0  0  0  0  0  0  0  0  0
   -0.3140    2.5016    2.1859 C   0  0  0  0  0  0  0  0  0  0  0  0
    0.6077    2.3925    2.7748 H   0  0  0  0  0  0  0  0  0  0  0  0
   -0.7378    1.4387    1.3637 C   0  0  0  0  0  0  0  0  0  0  0  0
   -2.6594   -2.3819    1.3373 C   0  0  0  0  0  3  0  0  0  0  0  0
   -3.6108   -2.4769    0.7933 H   0  0  0  0  0  0  0  0  0  0  0  0
   -2.2831   -3.2688    2.3496 C   0  0  0  0  0  0  0  0  0  0  0  0
   -2.9369   -4.1159    2.5997 H   0  0  0  0  0  0  0  0  0  0  0  0
   -1.0752   -3.0479    3.0271 C   0  0  0  0  0  0  0  0  0  0  0  0
   -0.7479   -3.7227    3.8322 H   0  0  0  0  0  0  0  0  0  0  0  0
   -0.3057   -1.9296    2.6860 C   0  0  0  0  0  0  0  0  0  0  0  0
    0.6172   -1.6895    3.2330 H   0  0  0  0  0  0  0  0  0  0  0  0
   -0.7344   -1.0788    1.6475 C   0  0  0  0  0  0  0  0  0  0  0  0
    0.0119    0.1583    1.3055 C   0  0  0  0  0  0  0  0  0  0  0  0
    1.3554    0.1278    1.0094 C   0  0  0  0  0  0  0  0  0  0  0  0
    3.7467    0.7021    0.1105 C   0  0  0  0  0  0  0  0  0  0  0  0
    3.7203   -0.6621    0.2109 C   0  0  0  0  0  0  0  0  0  0  0  0
    4.7743   -1.6667   -0.1398 C   0  0  0  0  0  0  0  0  0  0  0  0
    6.4081   -2.2869   -1.7055 C   0  0  0  0  0  0  0  0  0  0  0  0
    7.2600   -2.2097   -0.9999 H   0  0  0  0  0  0  0  0  0  0  0  0
    6.7156   -1.9737   -2.7183 H   0  0  0  0  0  0  0  0  0  0  0  0
    6.0501   -3.3354   -1.7108 H   0  0  0  0  0  0  0  0  0  0  0  0
    4.8515    1.6184   -0.2824 C   0  0  0  0  0  0  0  0  0  0  0  0
    7.1622    1.8703   -0.6126 C   0  0  0  0  0  0  0  0  0  0  0  0
    7.0547    2.1773   -1.6723 H   0  0  0  0  0  0  0  0  0  0  0  0
    8.0716    1.2593   -0.4768 H   0  0  0  0  0  0  0  0  0  0  0  0
    7.2089    2.7841    0.0126 H   0  0  0  0  0  0  0  0  0  0  0  0
   -1.8861    1.5337    0.6385 N   0  0  0  0  0  2  0  0  0  0  0  0
   -1.8852   -1.3357    0.9671 N   0  0  0  0  0  2  0  0  0  0  0  0
    5.0073   -2.6444    0.5475 O   0  0  0  0  0  0  0  0  0  0  0  0
    5.3556   -1.3918   -1.3188 O   0  0  0  0  0  0  0  0  0  0  0  0
    4.6584    2.7874   -0.5728 O   0  0  0  0  0  0  0  0  0  0  0  0
    6.0650    1.0374   -0.2130 O   0  0  0  0  0  0  0  0  0  0  0  0
  1 22  1  0  0  0  0
  2 22  1  0  0  0  0
  3  5  1  0  0  0  0
  4  3  1  0  0  0  0
  5  6  1  0  0  0  0
  5  7  2  0  0  0  0
  7  8  1  0  0  0  0
  9  7  1  0  0  0  0
  9 10  1  0  0  0  0
 11  9  2  0  0  0  0
 12 14  1  0  0  0  0
 13 12  1  0  0  0  0
 14 15  1  0  0  0  0
 14 16  2  0  0  0  0
 16 17  1  0  0  0  0
 18 16  1  0  0  0  0
 18 19  1  0  0  0  0
 20 18  2  0  0  0  0
 21 11  1  0  0  0  0
 21 20  1  0  0  0  0
 22 21  2  0  0  0  0
 23 24  2  0  0  0  0
 23  1  1  0  0  0  0
 24  2  1  0  0  0  0
 25 24  1  0  0  0  0
 25 37  2  0  0  0  0
 26 38  1  0  0  0  0
 26 27  1  0  0  0  0
 28 26  1  0  0  0  0
 29 26  1  0  0  0  0
 30 40  1  0  0  0  0
 30 23  1  0  0  0  0
 31 33  1  0  0  0  0
 31 40  1  0  0  0  0
 31 34  1  0  0  0  0
 32 31  1  0  0  0  0
 35  3  1  0  0  0  0
 35 11  1  0  0  0  0
 36 12  1  0  0  0  0
 36 20  1  0  0  0  0
 38 25  1  0  0  0  0
 39 30  2  0  0  0  0
M  END
