1,4
 OpenBabel05122313053D

 32 33  0  0  1  0  0  0  0  0999 V2000
    0.5835   -1.4957    0.3193 N   0  0  0  0  0  0  0  0  0  0  0  0
    0.5523   -2.1768    1.0913 H   0  0  0  0  0  0  0  0  0  0  0  0
    0.7294   -2.0685   -0.5264 H   0  0  0  0  0  0  0  0  0  0  0  0
    0.2843    1.2087   -0.2624 N   0  0  0  0  0  0  0  0  0  0  0  0
    0.0666    1.8162   -1.0658 H   0  0  0  0  0  0  0  0  0  0  0  0
    0.3065    1.8436    0.5518 H   0  0  0  0  0  0  0  0  0  0  0  0
    1.7682   -0.6064    0.5127 C   0  0  2  0  0  0  0  0  0  0  0  0
    1.6976   -0.2122    1.5483 H   0  0  0  0  0  0  0  0  0  0  0  0
    1.6350    0.5908   -0.4547 C   0  0  2  0  0  0  0  0  0  0  0  0
    1.6477    0.1910   -1.4903 H   0  0  0  0  0  0  0  0  0  0  0  0
    3.0933   -1.3245    0.3544 C   0  0  0  0  0  0  0  0  0  0  0  0
    3.4076   -1.9895   -0.8490 C   0  0  0  0  0  0  0  0  0  0  0  0
    2.6920   -2.0005   -1.6892 H   0  0  0  0  0  0  0  0  0  0  0  0
    4.6394   -2.6408   -1.0023 C   0  0  0  0  0  0  0  0  0  0  0  0
    4.8732   -3.1568   -1.9454 H   0  0  0  0  0  0  0  0  0  0  0  0
    5.5751   -2.6280    0.0450 C   0  0  0  0  0  0  0  0  0  0  0  0
    6.5429   -3.1367   -0.0755 H   0  0  0  0  0  0  0  0  0  0  0  0
    5.2732   -1.9640    1.2435 C   0  0  0  0  0  0  0  0  0  0  0  0
    6.0038   -1.9495    2.0658 H   0  0  0  0  0  0  0  0  0  0  0  0
    4.0382   -1.3162    1.3965 C   0  0  0  0  0  0  0  0  0  0  0  0
    3.8073   -0.7894    2.3358 H   0  0  0  0  0  0  0  0  0  0  0  0
    2.7583    1.5950   -0.3040 C   0  0  0  0  0  0  0  0  0  0  0  0
    3.6612    1.8178   -1.3595 C   0  0  0  0  0  0  0  0  0  0  0  0
    3.5440    1.2611   -2.3025 H   0  0  0  0  0  0  0  0  0  0  0  0
    4.7128    2.7349   -1.2143 C   0  0  0  0  0  0  0  0  0  0  0  0
    5.4134    2.8995   -2.0462 H   0  0  0  0  0  0  0  0  0  0  0  0
    4.8690    3.4406   -0.0117 C   0  0  0  0  0  0  0  0  0  0  0  0
    5.6922    4.1614    0.1020 H   0  0  0  0  0  0  0  0  0  0  0  0
    3.9728    3.2251    1.0480 C   0  0  0  0  0  0  0  0  0  0  0  0
    4.0933    3.7742    1.9935 H   0  0  0  0  0  0  0  0  0  0  0  0
    2.9260    2.3041    0.9038 C   0  0  0  0  0  0  0  0  0  0  0  0
    2.2412    2.1393    1.7532 H   0  0  0  0  0  0  0  0  0  0  0  0
  1  7  1  0  0  0  0
  1  2  1  0  0  0  0
  3  1  1  0  0  0  0
  4  6  1  0  0  0  0
  5  4  1  0  0  0  0
  7  8  1  1  0  0  0
  9 10  1  6  0  0  0
  9 22  1  0  0  0  0
  9  4  1  0  0  0  0
  9  7  1  0  0  0  0
 11  7  1  0  0  0  0
 11 20  1  0  0  0  0
 12 11  2  0  0  0  0
 13 12  1  0  0  0  0
 14 12  1  0  0  0  0
 14 16  2  0  0  0  0
 15 14  1  0  0  0  0
 16 18  1  0  0  0  0
 17 16  1  0  0  0  0
 18 20  2  0  0  0  0
 18 19  1  0  0  0  0
 20 21  1  0  0  0  0
 22 31  1  0  0  0  0
 23 25  1  0  0  0  0
 23 22  2  0  0  0  0
 24 23  1  0  0  0  0
 25 27  2  0  0  0  0
 26 25  1  0  0  0  0
 27 28  1  0  0  0  0
 27 29  1  0  0  0  0
 29 30  1  0  0  0  0
 31 29  2  0  0  0  0
 31 32  1  0  0  0  0
M  END
