1,16
 OpenBabel05122313053D

 43 45  0  0  1  0  0  0  0  0999 V2000
    0.0302   -0.3945    0.1368 N   0  0  0  0  0  2  0  0  0  0  0  0
    1.1165   -1.2349    0.1450 N   0  0  0  0  0  0  0  0  0  0  0  0
    2.1714   -0.4554    0.2255 C   0  0  0  0  0  0  0  0  0  0  0  0
    1.8148    0.8790    0.2837 O   0  0  0  0  0  0  0  0  0  0  0  0
    0.4590    0.8626    0.2328 C   0  0  1  0  0  3  0  0  0  0  0  0
   -0.3215    2.0760    0.1808 C   0  0  0  0  0  0  0  0  0  0  0  0
    0.3113    3.2680   -0.2398 C   0  0  0  0  0  0  0  0  0  0  0  0
    1.3943    3.2443   -0.4271 H   0  0  0  0  0  0  0  0  0  0  0  0
   -0.4237    4.4374   -0.4504 C   0  0  0  0  0  0  0  0  0  0  0  0
    0.0804    5.3528   -0.7919 H   0  0  0  0  0  0  0  0  0  0  0  0
   -1.8096    4.4182   -0.2451 C   0  0  0  0  0  0  0  0  0  0  0  0
   -2.4120    5.3195   -0.4314 H   0  0  0  0  0  0  0  0  0  0  0  0
   -2.4449    3.2560    0.2211 C   0  0  0  0  0  0  0  0  0  0  0  0
   -3.5250    3.2857    0.4000 H   0  0  0  0  0  0  0  0  0  0  0  0
   -1.7222    2.0773    0.4694 C   0  0  0  0  0  0  0  0  0  0  0  0
   -2.3573    0.9068    1.0838 N   0  0  0  0  0  0  0  0  0  0  0  0
   -3.8222    1.0701    1.2580 C   0  0  0  0  0  0  0  0  0  0  0  0
   -4.0331    1.9137    1.9495 H   0  0  0  0  0  0  0  0  0  0  0  0
   -4.2227    0.1289    1.6687 H   0  0  0  0  0  0  0  0  0  0  0  0
   -4.3068    1.2186    0.2787 H   0  0  0  0  0  0  0  0  0  0  0  0
   -1.7841    0.6575    2.4440 C   0  0  0  0  0  0  0  0  0  0  0  0
   -0.6940    0.5030    2.3934 H   0  0  0  0  0  0  0  0  0  0  0  0
   -2.2484   -0.2590    2.8491 H   0  0  0  0  0  0  0  0  0  0  0  0
   -2.0020    1.5230    3.1067 H   0  0  0  0  0  0  0  0  0  0  0  0
    3.5636   -0.8520    0.3718 C   0  0  0  0  0  0  0  0  0  0  0  0
    3.8022   -2.0754    1.0422 C   0  0  0  0  0  0  0  0  0  0  0  0
    2.9307   -2.6884    1.3143 H   0  0  0  0  0  0  0  0  0  0  0  0
    5.0945   -2.4647    1.3949 C   0  0  0  0  0  0  0  0  0  0  0  0
    5.2627   -3.4105    1.9290 H   0  0  0  0  0  0  0  0  0  0  0  0
    6.1690   -1.6125    1.0830 C   0  0  0  0  0  0  0  0  0  0  0  0
    7.1945   -1.8912    1.3702 H   0  0  0  0  0  0  0  0  0  0  0  0
    5.9622   -0.4256    0.3749 C   0  0  0  0  0  0  0  0  0  0  0  0
    6.8301    0.1843    0.0925 H   0  0  0  0  0  0  0  0  0  0  0  0
    4.6647   -0.0318   -0.0463 C   0  0  0  0  0  0  0  0  0  0  0  0
    4.4790    1.0967   -0.8383 N   0  0  0  0  0  0  0  0  0  0  0  0
    3.5851    1.0694   -1.9870 C   0  0  0  0  0  0  0  0  0  0  0  0
    4.1695    1.1541   -2.9319 H   0  0  0  0  0  0  0  0  0  0  0  0
    2.8475    1.9012   -1.9656 H   0  0  0  0  0  0  0  0  0  0  0  0
    3.0282    0.1161   -2.0347 H   0  0  0  0  0  0  0  0  0  0  0  0
    5.5270    2.0928   -0.9275 C   0  0  0  0  0  0  0  0  0  0  0  0
    5.9724    2.2809    0.0681 H   0  0  0  0  0  0  0  0  0  0  0  0
    5.0890    3.0462   -1.2864 H   0  0  0  0  0  0  0  0  0  0  0  0
    6.3463    1.8132   -1.6348 H   0  0  0  0  0  0  0  0  0  0  0  0
  1  2  1  0  0  0  0
  1  5  1  0  0  0  0
  2  3  2  0  0  0  0
  3  4  1  0  0  0  0
  3 25  1  0  0  0  0
  5  6  1  6  0  0  0
  5  4  1  0  0  0  0
  6 15  1  0  0  0  0
  7  6  2  0  0  0  0
  8  7  1  0  0  0  0
  9 11  2  0  0  0  0
  9  7  1  0  0  0  0
 10  9  1  0  0  0  0
 11 13  1  0  0  0  0
 12 11  1  0  0  0  0
 13 14  1  0  0  0  0
 13 15  2  0  0  0  0
 15 16  1  0  0  0  0
 16 17  1  0  0  0  0
 16 21  1  0  0  0  0
 17 19  1  0  0  0  0
 17 18  1  0  0  0  0
 20 17  1  0  0  0  0
 21 23  1  0  0  0  0
 21 24  1  0  0  0  0
 22 21  1  0  0  0  0
 25 26  1  0  0  0  0
 26 27  1  0  0  0  0
 26 28  2  0  0  0  0
 28 29  1  0  0  0  0
 30 31  1  0  0  0  0
 30 28  1  0  0  0  0
 32 30  2  0  0  0  0
 33 32  1  0  0  0  0
 34 25  2  0  0  0  0
 34 32  1  0  0  0  0
 35 34  1  0  0  0  0
 36 38  1  0  0  0  0
 36 35  1  0  0  0  0
 37 36  1  0  0  0  0
 39 36  1  0  0  0  0
 40 35  1  0  0  0  0
 40 41  1  0  0  0  0
 42 40  1  0  0  0  0
 43 40  1  0  0  0  0
M  END
