3,15
 OpenBabel05122313053D

 31 31  0  0  1  0  0  0  0  0999 V2000
   -2.4241   -0.1365    0.7455 N   0  0  0  0  0  0  0  0  0  0  0  0
   -1.1563   -0.5555    0.3700 C   0  0  2  0  0  3  0  0  0  0  0  0
   -0.3417    0.2489   -0.2975 N   0  0  0  0  0  2  0  0  0  0  0  0
   -0.7728    1.4846   -0.8547 C   0  0  0  0  0  0  0  0  0  0  0  0
   -0.0831    2.0823   -1.6708 O   0  0  0  0  0  0  0  0  0  0  0  0
   -2.0680    1.9844   -0.3598 C   0  0  0  0  0  0  0  0  0  0  0  0
   -2.8264    1.1567    0.4100 C   0  0  0  0  0  0  0  0  0  0  0  0
   -2.4580    3.3807   -0.7243 C   0  0  0  0  0  0  0  0  0  0  0  0
   -3.4362   -1.0490    1.2868 C   0  0  0  0  0  0  0  0  0  0  0  0
   -4.1607   -1.8277    0.1794 C   0  0  0  0  0  0  0  0  0  0  0  0
   -4.8742   -0.9748   -0.6854 O   0  0  0  0  0  0  0  0  0  0  0  0
   -0.8280   -1.8531    0.6608 N   0  0  0  0  0  0  0  0  0  0  0  0
    0.3927   -2.5757    0.2920 C   0  0  0  0  0  0  0  0  0  0  0  0
    0.7808   -2.4969   -1.1958 C   0  0  0  0  0  0  0  0  0  0  0  0
    1.7985   -1.4541   -1.4480 N   0  0  0  0  0  0  0  0  0  0  0  0
   -3.8078    1.4488    0.8102 H   0  0  0  0  0  0  0  0  0  0  0  0
   -3.4631    3.6464   -0.3449 H   0  0  0  0  0  0  0  0  0  0  0  0
   -2.4302    3.5118   -1.8249 H   0  0  0  0  0  0  0  0  0  0  0  0
   -1.7161    4.0970   -0.3139 H   0  0  0  0  0  0  0  0  0  0  0  0
   -4.1710   -0.4259    1.8328 H   0  0  0  0  0  0  0  0  0  0  0  0
   -2.9944   -1.7286    2.0450 H   0  0  0  0  0  0  0  0  0  0  0  0
   -3.4236   -2.4718   -0.3581 H   0  0  0  0  0  0  0  0  0  0  0  0
   -4.9008   -2.5056    0.6549 H   0  0  0  0  0  0  0  0  0  0  0  0
   -4.2304   -0.4893   -1.2346 H   0  0  0  0  0  0  0  0  0  0  0  0
   -1.3316   -2.2650    1.4452 H   0  0  0  0  0  0  0  0  0  0  0  0
    0.1839   -3.6338    0.5496 H   0  0  0  0  0  0  0  0  0  0  0  0
    1.2627   -2.2360    0.9023 H   0  0  0  0  0  0  0  0  0  0  0  0
    1.1553   -3.4905   -1.5241 H   0  0  0  0  0  0  0  0  0  0  0  0
   -0.1191   -2.2732   -1.8019 H   0  0  0  0  0  0  0  0  0  0  0  0
    1.7555   -1.0950   -2.4110 H   0  0  0  0  0  0  0  0  0  0  0  0
    2.7718   -1.7705   -1.2712 H   0  0  0  0  0  0  0  0  0  0  0  0
  1  9  1  0  0  0  0
  2 12  1  6  0  0  0
  2  1  1  0  0  0  0
  3  2  1  0  0  0  0
  4  6  1  0  0  0  0
  4  3  1  0  0  0  0
  5  4  2  0  0  0  0
  6  7  2  0  0  0  0
  7  1  1  0  0  0  0
  7 16  1  0  0  0  0
  8  6  1  0  0  0  0
  8 17  1  0  0  0  0
  8 19  1  0  0  0  0
  9 20  1  0  0  0  0
  9 21  1  0  0  0  0
 10 23  1  0  0  0  0
 10  9  1  0  0  0  0
 11 10  1  0  0  0  0
 12 25  1  0  0  0  0
 13 26  1  0  0  0  0
 13 12  1  0  0  0  0
 13 27  1  0  0  0  0
 14 13  1  0  0  0  0
 15 31  1  0  0  0  0
 15 14  1  0  0  0  0
 18  8  1  0  0  0  0
 22 10  1  0  0  0  0
 24 11  1  0  0  0  0
 28 14  1  0  0  0  0
 29 14  1  0  0  0  0
 30 15  1  0  0  0  0
M  END
