2,3
 OpenBabel05122313053D

 37 38  0  0  0  0  0  0  0  0999 V2000
    3.7998    0.7370    0.2221 O   0  0  0  0  0  0  0  0  0  0  0  0
    2.0180   -0.4926   -0.3350 N   0  0  0  0  0  2  0  0  0  0  0  0
   -0.6715   -0.4752   -0.4948 N   0  0  0  0  0  2  0  0  0  0  0  0
    1.4095   -1.6138   -0.7792 C   0  0  0  0  0  0  0  0  0  0  0  0
    2.1393   -2.7467   -1.1758 C   0  0  0  0  0  0  0  0  0  0  0  0
    1.6194   -3.6476   -1.5301 H   0  0  0  0  0  0  0  0  0  0  0  0
    3.5396   -2.6842   -1.1018 C   0  0  0  0  0  0  0  0  0  0  0  0
    4.1495   -3.5487   -1.4039 H   0  0  0  0  0  0  0  0  0  0  0  0
    4.1682   -1.5243   -0.6380 C   0  0  0  0  0  0  0  0  0  0  0  0
    5.2618   -1.4699   -0.5688 H   0  0  0  0  0  0  0  0  0  0  0  0
    3.3526   -0.4294   -0.2528 C   0  0  0  0  0  0  0  0  0  0  0  0
   -0.0585   -1.5724   -0.7972 C   0  0  0  0  0  0  0  0  0  0  0  0
   -0.6048   -2.4963   -1.0708 H   0  0  0  0  0  0  0  0  0  0  0  0
    5.1983    0.9474    0.3718 C   0  0  0  0  0  0  0  0  0  0  0  0
    5.3075    1.9720    0.7686 H   0  0  0  0  0  0  0  0  0  0  0  0
    5.7256    0.8748   -0.6037 H   0  0  0  0  0  0  0  0  0  0  0  0
    5.6419    0.2256    1.0908 H   0  0  0  0  0  0  0  0  0  0  0  0
   -2.0789   -0.4228   -0.3715 C   0  0  0  0  0  0  0  0  0  0  0  0
   -2.7697    0.5490   -1.1458 C   0  0  0  0  0  0  0  0  0  0  0  0
   -4.1614    0.6380   -1.0015 C   0  0  0  0  0  0  0  0  0  0  0  0
   -4.7061    1.3736   -1.6153 H   0  0  0  0  0  0  0  0  0  0  0  0
   -4.8738   -0.1717   -0.0951 C   0  0  0  0  0  0  0  0  0  0  0  0
   -4.1505   -1.0999    0.6740 C   0  0  0  0  0  0  0  0  0  0  0  0
   -4.6861   -1.7202    1.4105 H   0  0  0  0  0  0  0  0  0  0  0  0
   -2.7577   -1.2582    0.5569 C   0  0  0  0  0  0  0  0  0  0  0  0
   -2.0213    1.4149   -2.1211 C   0  0  0  0  0  0  0  0  0  0  0  0
   -2.6961    2.1509   -2.5973 H   0  0  0  0  0  0  0  0  0  0  0  0
   -1.5544    0.8079   -2.9256 H   0  0  0  0  0  0  0  0  0  0  0  0
   -1.1907    1.9681   -1.6276 H   0  0  0  0  0  0  0  0  0  0  0  0
   -6.3642   -0.0154    0.0657 C   0  0  0  0  0  0  0  0  0  0  0  0
   -6.8011   -0.8379    0.6642 H   0  0  0  0  0  0  0  0  0  0  0  0
   -6.8781    0.0080   -0.9170 H   0  0  0  0  0  0  0  0  0  0  0  0
   -6.6107    0.9391    0.5782 H   0  0  0  0  0  0  0  0  0  0  0  0
   -2.0201   -2.2132    1.4640 C   0  0  0  0  0  0  0  0  0  0  0  0
   -1.0937   -1.7417    1.8579 H   0  0  0  0  0  0  0  0  0  0  0  0
   -1.7426   -3.1603    0.9560 H   0  0  0  0  0  0  0  0  0  0  0  0
   -2.6561   -2.4865    2.3273 H   0  0  0  0  0  0  0  0  0  0  0  0
  1 14  1  0  0  0  0
  2 11  1  0  0  0  0
  3 18  1  0  0  0  0
  4  2  1  0  0  0  0
  5  7  2  0  0  0  0
  5  4  1  0  0  0  0
  6  5  1  0  0  0  0
  7  9  1  0  0  0  0
  8  7  1  0  0  0  0
  9 10  1  0  0  0  0
  9 11  2  0  0  0  0
 11  1  1  0  0  0  0
 12  4  2  0  0  0  0
 12  3  1  0  0  0  0
 13 12  1  0  0  0  0
 14 15  1  0  0  0  0
 14 17  1  0  0  0  0
 16 14  1  0  0  0  0
 18 25  1  0  0  0  0
 19 20  1  0  0  0  0
 19 18  2  0  0  0  0
 20 22  2  0  0  0  0
 21 20  1  0  0  0  0
 22 30  1  0  0  0  0
 22 23  1  0  0  0  0
 23 24  1  0  0  0  0
 25 23  2  0  0  0  0
 25 34  1  0  0  0  0
 26 29  1  0  0  0  0
 26 19  1  0  0  0  0
 27 26  1  0  0  0  0
 28 26  1  0  0  0  0
 30 33  1  0  0  0  0
 30 31  1  0  0  0  0
 32 30  1  0  0  0  0
 34 35  1  0  0  0  0
 34 37  1  0  0  0  0
 36 34  1  0  0  0  0
M  END
