2,3
 OpenBabel05122313053D

 35 35  0  0  0  0  0  0  0  0999 V2000
   -2.0130   -0.1142   -0.6614 Si  0  0  0  0  0  0  0  0  0  0  0  0
    2.1415    0.1985    0.0985 N   0  0  0  0  0  2  0  0  0  0  0  0
   -0.2620    0.3138   -0.4047 N   0  0  0  0  0  2  0  0  0  0  0  0
    3.4343   -0.0224    0.4407 C   0  0  0  0  0  3  0  0  0  0  0  0
    3.6664   -1.0250    0.8289 H   0  0  0  0  0  0  0  0  0  0  0  0
    4.4040    0.9692    0.3073 C   0  0  0  0  0  0  0  0  0  0  0  0
    5.4404    0.7473    0.5975 H   0  0  0  0  0  0  0  0  0  0  0  0
    4.0394    2.2390   -0.1963 C   0  0  0  0  0  0  0  0  0  0  0  0
    4.7936    3.0312   -0.3083 H   0  0  0  0  0  0  0  0  0  0  0  0
    2.7105    2.4723   -0.5480 C   0  0  0  0  0  0  0  0  0  0  0  0
    2.3825    3.4450   -0.9427 H   0  0  0  0  0  0  0  0  0  0  0  0
    1.7583    1.4415   -0.3966 C   0  0  0  0  0  0  0  0  0  0  0  0
    0.3606    1.4624   -0.6814 C   0  0  0  0  0  3  0  0  0  0  0  0
   -0.1638    2.3363   -1.0979 H   0  0  0  0  0  0  0  0  0  0  0  0
   -2.3394    0.1814   -2.4919 C   0  0  0  0  0  0  0  0  0  0  0  0
   -2.2585    1.2525   -2.7654 H   0  0  0  0  0  0  0  0  0  0  0  0
   -3.3479   -0.1745   -2.7844 H   0  0  0  0  0  0  0  0  0  0  0  0
   -1.5869   -0.3848   -3.0778 H   0  0  0  0  0  0  0  0  0  0  0  0
   -2.1396   -1.9394   -0.2270 C   0  0  0  0  0  0  0  0  0  0  0  0
   -1.5754   -2.5557   -0.9549 H   0  0  0  0  0  0  0  0  0  0  0  0
   -3.2018   -2.2591   -0.2417 H   0  0  0  0  0  0  0  0  0  0  0  0
   -1.7377   -2.1441    0.7873 H   0  0  0  0  0  0  0  0  0  0  0  0
   -3.0863    0.9694    0.5033 C   0  0  0  0  0  0  0  0  0  0  0  0
   -2.7325    0.6368    1.9654 C   0  0  0  0  0  0  0  0  0  0  0  0
   -3.3242    1.2770    2.6567 H   0  0  0  0  0  0  0  0  0  0  0  0
   -1.6574    0.7959    2.1839 H   0  0  0  0  0  0  0  0  0  0  0  0
   -2.9589   -0.4191    2.2160 H   0  0  0  0  0  0  0  0  0  0  0  0
   -4.5649    0.6307    0.2249 C   0  0  0  0  0  0  0  0  0  0  0  0
   -5.2246    1.2145    0.9046 H   0  0  0  0  0  0  0  0  0  0  0  0
   -4.7885   -0.4425    0.3970 H   0  0  0  0  0  0  0  0  0  0  0  0
   -4.8633    0.8787   -0.8151 H   0  0  0  0  0  0  0  0  0  0  0  0
   -2.8468    2.4667    0.2388 C   0  0  0  0  0  0  0  0  0  0  0  0
   -3.5315    3.0785    0.8670 H   0  0  0  0  0  0  0  0  0  0  0  0
   -3.0369    2.7462   -0.8189 H   0  0  0  0  0  0  0  0  0  0  0  0
   -1.8127    2.7706    0.4982 H   0  0  0  0  0  0  0  0  0  0  0  0
  1  3  1  0  0  0  0
  1 19  1  0  0  0  0
  1 23  1  0  0  0  0
  2  4  1  0  0  0  0
  4  5  1  0  0  0  0
  6  4  1  0  0  0  0
  6  7  1  0  0  0  0
  8  6  2  0  0  0  0
  9  8  1  0  0  0  0
 10 12  2  0  0  0  0
 10  8  1  0  0  0  0
 11 10  1  0  0  0  0
 12  2  1  0  0  0  0
 13  3  1  0  0  0  0
 13 12  1  0  0  0  0
 14 13  1  0  0  0  0
 15  1  1  0  0  0  0
 16 15  1  0  0  0  0
 17 15  1  0  0  0  0
 18 15  1  0  0  0  0
 19 22  1  0  0  0  0
 20 19  1  0  0  0  0
 21 19  1  0  0  0  0
 23 24  1  0  0  0  0
 24 26  1  0  0  0  0
 24 27  1  0  0  0  0
 24 25  1  0  0  0  0
 28 30  1  0  0  0  0
 28 23  1  0  0  0  0
 28 29  1  0  0  0  0
 31 28  1  0  0  0  0
 32 35  1  0  0  0  0
 32 23  1  0  0  0  0
 32 33  1  0  0  0  0
 34 32  1  0  0  0  0
M  END
