2,3
 OpenBabel05122313053D

 44 44  0  0  0  0  0  0  0  0999 V2000
   -1.7888    0.4085    0.0119 Si  0  0  0  0  0  0  0  0  0  0  0  0
    2.4537    0.0386   -0.0368 N   0  0  0  0  0  2  0  0  0  0  0  0
    0.0297    0.4559   -0.1584 N   0  0  0  0  0  2  0  0  0  0  0  0
    3.7449   -0.3454    0.1092 C   0  0  0  0  0  3  0  0  0  0  0  0
    3.9063   -1.3871    0.4229 H   0  0  0  0  0  0  0  0  0  0  0  0
    4.7981    0.5372   -0.1232 C   0  0  0  0  0  0  0  0  0  0  0  0
    5.8308    0.1852    0.0077 H   0  0  0  0  0  0  0  0  0  0  0  0
    4.5208    1.8649   -0.5215 C   0  0  0  0  0  0  0  0  0  0  0  0
    5.3411    2.5722   -0.7109 H   0  0  0  0  0  0  0  0  0  0  0  0
    3.1934    2.2654   -0.6697 C   0  0  0  0  0  0  0  0  0  0  0  0
    2.9320    3.2889   -0.9754 H   0  0  0  0  0  0  0  0  0  0  0  0
    2.1558    1.3412   -0.4216 C   0  0  0  0  0  0  0  0  0  0  0  0
    0.7444    1.5392   -0.4797 C   0  0  0  0  0  3  0  0  0  0  0  0
    0.2761    2.4987   -0.7495 H   0  0  0  0  0  0  0  0  0  0  0  0
   -2.2016    1.5768    1.4711 C   0  0  0  0  0  0  0  0  0  0  0  0
   -3.2686    1.3489    1.7002 H   0  0  0  0  0  0  0  0  0  0  0  0
   -2.1095    3.0704    1.1255 C   0  0  0  0  0  0  0  0  0  0  0  0
   -2.4190    3.6925    1.9927 H   0  0  0  0  0  0  0  0  0  0  0  0
   -2.7537    3.3549    0.2690 H   0  0  0  0  0  0  0  0  0  0  0  0
   -1.0683    3.3683    0.8809 H   0  0  0  0  0  0  0  0  0  0  0  0
   -1.3564    1.2391    2.7108 C   0  0  0  0  0  0  0  0  0  0  0  0
   -1.6673    1.8571    3.5802 H   0  0  0  0  0  0  0  0  0  0  0  0
   -0.2799    1.4325    2.5276 H   0  0  0  0  0  0  0  0  0  0  0  0
   -1.4289    0.1739    3.0065 H   0  0  0  0  0  0  0  0  0  0  0  0
   -2.2534   -1.3974    0.4432 C   0  0  0  0  0  0  0  0  0  0  0  0
   -1.3827   -1.7716    1.0360 H   0  0  0  0  0  0  0  0  0  0  0  0
   -3.4813   -1.4557    1.3726 C   0  0  0  0  0  0  0  0  0  0  0  0
   -3.7176   -2.5105    1.6274 H   0  0  0  0  0  0  0  0  0  0  0  0
   -4.3850   -1.0312    0.8854 H   0  0  0  0  0  0  0  0  0  0  0  0
   -3.3261   -0.9142    2.3261 H   0  0  0  0  0  0  0  0  0  0  0  0
   -2.4483   -2.3232   -0.7687 C   0  0  0  0  0  0  0  0  0  0  0  0
   -2.6397   -3.3624   -0.4257 H   0  0  0  0  0  0  0  0  0  0  0  0
   -1.5584   -2.3512   -1.4270 H   0  0  0  0  0  0  0  0  0  0  0  0
   -3.3254   -2.0170   -1.3758 H   0  0  0  0  0  0  0  0  0  0  0  0
   -2.4694    1.0915   -1.6346 C   0  0  0  0  0  0  0  0  0  0  0  0
   -2.1023    2.1448   -1.6429 H   0  0  0  0  0  0  0  0  0  0  0  0
   -1.9090    0.3938   -2.8850 C   0  0  0  0  0  0  0  0  0  0  0  0
   -2.1778    0.9600   -3.8025 H   0  0  0  0  0  0  0  0  0  0  0  0
   -2.3213   -0.6277   -2.9977 H   0  0  0  0  0  0  0  0  0  0  0  0
   -0.8060    0.2910   -2.8547 H   0  0  0  0  0  0  0  0  0  0  0  0
   -4.0071    1.1347   -1.6278 C   0  0  0  0  0  0  0  0  0  0  0  0
   -4.3972    1.6221   -2.5471 H   0  0  0  0  0  0  0  0  0  0  0  0
   -4.4128    1.6943   -0.7594 H   0  0  0  0  0  0  0  0  0  0  0  0
   -4.4400    0.1132   -1.5951 H   0  0  0  0  0  0  0  0  0  0  0  0
  1 25  1  0  0  0  0
  1 15  1  0  0  0  0
  2  4  1  0  0  0  0
  3  1  1  0  0  0  0
  4  5  1  0  0  0  0
  6  7  1  0  0  0  0
  6  4  1  0  0  0  0
  8  6  2  0  0  0  0
  9  8  1  0  0  0  0
 10  8  1  0  0  0  0
 10 12  2  0  0  0  0
 11 10  1  0  0  0  0
 12  2  1  0  0  0  0
 13 12  1  0  0  0  0
 13  3  1  0  0  0  0
 14 13  1  0  0  0  0
 15 16  1  0  0  0  0
 15 21  1  0  0  0  0
 17 15  1  0  0  0  0
 17 18  1  0  0  0  0
 19 17  1  0  0  0  0
 20 17  1  0  0  0  0
 21 24  1  0  0  0  0
 21 22  1  0  0  0  0
 23 21  1  0  0  0  0
 25 26  1  0  0  0  0
 25 27  1  0  0  0  0
 27 28  1  0  0  0  0
 27 30  1  0  0  0  0
 29 27  1  0  0  0  0
 31 32  1  0  0  0  0
 31 25  1  0  0  0  0
 33 31  1  0  0  0  0
 34 31  1  0  0  0  0
 35 41  1  0  0  0  0
 35  1  1  0  0  0  0
 36 35  1  0  0  0  0
 37 40  1  0  0  0  0
 37 35  1  0  0  0  0
 38 37  1  0  0  0  0
 39 37  1  0  0  0  0
 41 44  1  0  0  0  0
 41 43  1  0  0  0  0
 42 41  1  0  0  0  0
M  END
