2,7
 OpenBabel05122313053D

 30 31  0  0  0  0  0  0  0  0999 V2000
    2.6222   -0.3809   -2.0722 F   0  0  0  0  0  0  0  0  0  0  0  0
    1.3466   -1.8111   -0.0275 N   0  0  0  0  0  2  0  0  0  0  0  0
    0.6809   -3.0507    0.3732 C   0  0  0  0  0  0  0  0  0  0  0  0
    0.5462   -3.1349    1.4767 H   0  0  0  0  0  0  0  0  0  0  0  0
    1.2738   -3.9274    0.0348 H   0  0  0  0  0  0  0  0  0  0  0  0
    5.2821   -0.0190   -2.1053 F   0  0  0  0  0  0  0  0  0  0  0  0
   -1.2875   -1.7440    0.0399 N   0  0  0  0  0  2  0  0  0  0  0  0
   -0.6918   -3.0348   -0.2987 C   0  0  0  0  0  0  0  0  0  0  0  0
   -0.5674   -3.1799   -1.3973 H   0  0  0  0  0  0  0  0  0  0  0  0
   -1.3253   -3.8624    0.0855 H   0  0  0  0  0  0  0  0  0  0  0  0
    5.7420   -2.8366    1.6924 F   0  0  0  0  0  0  0  0  0  0  0  0
    2.7113   -1.7257   -0.0848 C   0  0  0  0  0  0  0  0  0  0  0  0
    3.0680   -3.0797    1.8622 F   0  0  0  0  0  0  0  0  0  0  0  0
    3.3607   -0.9631   -1.1060 C   0  0  0  0  0  0  0  0  0  0  0  0
   -2.3760   -0.1536    2.0772 F   0  0  0  0  0  0  0  0  0  0  0  0
    4.7470   -0.7842   -1.1335 C   0  0  0  0  0  0  0  0  0  0  0  0
   -5.0073    0.3709    2.2141 F   0  0  0  0  0  0  0  0  0  0  0  0
    5.5840   -1.4213   -0.2086 C   0  0  0  0  0  0  0  0  0  0  0  0
    6.6735   -1.3023   -0.2500 H   0  0  0  0  0  0  0  0  0  0  0  0
   -5.8116   -2.5916   -1.4153 F   0  0  0  0  0  0  0  0  0  0  0  0
    4.9798   -2.2240    0.7674 C   0  0  0  0  0  0  0  0  0  0  0  0
   -3.1637   -3.0097   -1.6858 F   0  0  0  0  0  0  0  0  0  0  0  0
    3.5884   -2.3700    0.8396 C   0  0  0  0  0  0  0  0  0  0  0  0
   -2.6399   -1.5847    0.1667 C   0  0  0  0  0  0  0  0  0  0  0  0
   -3.1934   -0.7360    1.1771 C   0  0  0  0  0  0  0  0  0  0  0  0
   -4.5633   -0.4731    1.2563 C   0  0  0  0  0  0  0  0  0  0  0  0
   -5.4804   -1.0975    0.4014 C   0  0  0  0  0  0  0  0  0  0  0  0
   -6.5580   -0.9115    0.4861 H   0  0  0  0  0  0  0  0  0  0  0  0
   -4.9714   -1.9848   -0.5564 C   0  0  0  0  0  0  0  0  0  0  0  0
   -3.5964   -2.2219   -0.6799 C   0  0  0  0  0  0  0  0  0  0  0  0
  1 14  1  0  0  0  0
  2  3  1  0  0  0  0
  3  4  1  0  0  0  0
  5  3  1  0  0  0  0
  6 16  1  0  0  0  0
  7 24  1  0  0  0  0
  8  7  1  0  0  0  0
  8 10  1  0  0  0  0
  8  3  1  0  0  0  0
  9  8  1  0  0  0  0
 12  2  1  0  0  0  0
 12 23  1  0  0  0  0
 14 12  2  0  0  0  0
 16 14  1  0  0  0  0
 16 18  2  0  0  0  0
 18 21  1  0  0  0  0
 19 18  1  0  0  0  0
 20 29  1  0  0  0  0
 21 23  2  0  0  0  0
 21 11  1  0  0  0  0
 22 30  1  0  0  0  0
 23 13  1  0  0  0  0
 24 25  1  0  0  0  0
 25 26  2  0  0  0  0
 25 15  1  0  0  0  0
 26 17  1  0  0  0  0
 27 28  1  0  0  0  0
 27 26  1  0  0  0  0
 29 27  2  0  0  0  0
 30 29  1  0  0  0  0
 30 24  2  0  0  0  0
M  END
