1,2
 OpenBabel05122313053D

 37 38  0  0  0  0  0  0  0  0999 V2000
    0.0242    1.9004    0.1999 N   0  0  0  0  0  0  0  0  0  0  0  0
    0.4270   -0.7221   -1.1455 N   0  0  0  0  0  0  0  0  0  0  0  0
    0.9704    2.2659    1.1195 C   0  0  0  0  0  3  0  0  0  0  0  0
    1.6355    3.1209    0.9371 H   0  0  0  0  0  0  0  0  0  0  0  0
    0.9386    1.4110    2.2549 C   0  0  0  0  0  0  0  0  0  0  0  0
    1.5872    1.4577    3.1385 H   0  0  0  0  0  0  0  0  0  0  0  0
   -0.1118    0.4845    2.0126 C   0  0  0  0  0  0  0  0  0  0  0  0
   -0.4142   -0.3425    2.6632 H   0  0  0  0  0  0  0  0  0  0  0  0
   -0.6376    0.8073    0.7304 C   0  0  0  0  0  0  0  0  0  0  0  0
    0.8689   -1.3543   -2.3018 C   0  0  0  0  0  0  0  0  0  0  0  0
    1.9371   -1.5452   -2.4600 H   0  0  0  0  0  0  0  0  0  0  0  0
   -0.2207   -1.6367   -3.1130 C   0  0  0  0  0  0  0  0  0  0  0  0
   -0.1919   -2.1343   -4.0902 H   0  0  0  0  0  0  0  0  0  0  0  0
   -1.3887   -1.1393   -2.4380 C   0  0  0  0  0  0  0  0  0  0  0  0
   -2.4193   -1.1716   -2.8104 H   0  0  0  0  0  0  0  0  0  0  0  0
   -0.9590   -0.5866   -1.2357 C   0  0  0  0  0  3  0  0  0  0  0  0
   -1.6978    0.0730   -0.0828 C   0  0  0  0  0  0  0  0  0  0  0  0
   -2.7210    1.1049   -0.6284 C   0  0  0  0  0  0  0  0  0  0  0  0
   -2.1480    1.8421   -1.2272 H   0  0  0  0  0  0  0  0  0  0  0  0
   -3.4015    0.5911   -1.3398 H   0  0  0  0  0  0  0  0  0  0  0  0
   -3.5417    1.8394    0.4342 C   0  0  0  0  0  0  0  0  0  0  0  0
   -2.8528    2.2903    1.1821 H   0  0  0  0  0  0  0  0  0  0  0  0
   -4.1713    1.1173    0.9986 H   0  0  0  0  0  0  0  0  0  0  0  0
   -4.4332    2.9288   -0.1636 C   0  0  0  0  0  0  0  0  0  0  0  0
   -3.8292    3.6927   -0.6962 H   0  0  0  0  0  0  0  0  0  0  0  0
   -5.0255    3.4511    0.6148 H   0  0  0  0  0  0  0  0  0  0  0  0
   -5.1485    2.5052   -0.8998 H   0  0  0  0  0  0  0  0  0  0  0  0
   -2.3653   -1.0026    0.8234 C   0  0  0  0  0  0  0  0  0  0  0  0
   -1.5739   -1.7195    1.1344 H   0  0  0  0  0  0  0  0  0  0  0  0
   -2.7251   -0.5148    1.7561 H   0  0  0  0  0  0  0  0  0  0  0  0
   -3.5152   -1.7917    0.1968 C   0  0  0  0  0  0  0  0  0  0  0  0
   -4.3397   -1.1005   -0.0822 H   0  0  0  0  0  0  0  0  0  0  0  0
   -3.1653   -2.2534   -0.7501 H   0  0  0  0  0  0  0  0  0  0  0  0
   -4.0563   -2.8750    1.1313 C   0  0  0  0  0  0  0  0  0  0  0  0
   -3.2657   -3.6079    1.3976 H   0  0  0  0  0  0  0  0  0  0  0  0
   -4.8899   -3.4389    0.6663 H   0  0  0  0  0  0  0  0  0  0  0  0
   -4.4351   -2.4416    2.0810 H   0  0  0  0  0  0  0  0  0  0  0  0
  1  9  2  0  0  0  0
  1  3  1  0  0  0  0
  3  5  1  0  0  0  0
  4  3  1  0  0  0  0
  5  6  1  0  0  0  0
  7  5  2  0  0  0  0
  7  8  1  0  0  0  0
  9  7  1  0  0  0  0
 10  2  2  0  0  0  0
 11 10  1  0  0  0  0
 12 14  2  0  0  0  0
 12 10  1  0  0  0  0
 13 12  1  0  0  0  0
 14 16  1  0  0  0  0
 15 14  1  0  0  0  0
 16  2  1  0  0  0  0
 16 17  1  0  0  0  0
 17  9  1  0  0  0  0
 17 28  1  0  0  0  0
 18 17  1  0  0  0  0
 18 21  1  0  0  0  0
 19 18  1  0  0  0  0
 20 18  1  0  0  0  0
 21 23  1  0  0  0  0
 21 22  1  0  0  0  0
 24 21  1  0  0  0  0
 24 26  1  0  0  0  0
 25 24  1  0  0  0  0
 27 24  1  0  0  0  0
 28 29  1  0  0  0  0
 28 30  1  0  0  0  0
 31 28  1  0  0  0  0
 31 34  1  0  0  0  0
 32 31  1  0  0  0  0
 33 31  1  0  0  0  0
 34 35  1  0  0  0  0
 34 37  1  0  0  0  0
 36 34  1  0  0  0  0
M  END
