2,3
 OpenBabel05122313053D

 58 59  0  0  1  0  0  0  0  0999 V2000
    6.6869    0.3242   -0.6583 O   0  0  0  0  0  0  0  0  0  0  0  0
    1.3793   -0.1346    1.1184 N   0  0  0  0  0  2  0  0  0  0  0  0
   -1.5305   -0.0612    0.6761 N   0  0  0  0  0  2  0  0  0  0  0  0
    2.0452   -0.2279    3.4968 C   0  0  0  0  0  0  0  0  0  0  0  0
    2.5023    0.7659    3.6802 H   0  0  0  0  0  0  0  0  0  0  0  0
    2.8733   -0.9065    3.2113 H   0  0  0  0  0  0  0  0  0  0  0  0
    1.6000   -0.5747    4.4471 H   0  0  0  0  0  0  0  0  0  0  0  0
    0.9987   -0.1633    2.4026 C   0  0  2  0  0  3  0  0  0  0  0  0
   -0.3591   -0.1586    2.8083 C   0  0  0  0  0  0  0  0  0  0  0  0
   -0.5258   -0.2052    3.8924 H   0  0  0  0  0  0  0  0  0  0  0  0
   -1.5313   -0.0975    2.0196 C   0  0  0  0  0  0  0  0  0  0  0  0
   -2.8618   -0.0764    2.7404 C   0  0  0  0  0  0  0  0  0  0  0  0
   -3.4934   -0.9320    2.4249 H   0  0  0  0  0  0  0  0  0  0  0  0
   -3.4350    0.8360    2.4769 H   0  0  0  0  0  0  0  0  0  0  0  0
   -2.7307   -0.1125    3.8366 H   0  0  0  0  0  0  0  0  0  0  0  0
    2.7437   -0.0574    0.7363 C   0  0  0  0  0  0  0  0  0  0  0  0
    3.5365    1.0811    1.0122 C   0  0  0  0  0  0  0  0  0  0  0  0
    3.1005    1.9134    1.5845 H   0  0  0  0  0  0  0  0  0  0  0  0
    4.8454    1.1766    0.5377 C   0  0  0  0  0  0  0  0  0  0  0  0
    5.4628    2.0635    0.7414 H   0  0  0  0  0  0  0  0  0  0  0  0
    5.4038    0.1371   -0.2379 C   0  0  0  0  0  0  0  0  0  0  0  0
    4.6205   -0.9979   -0.5311 C   0  0  0  0  0  0  0  0  0  0  0  0
    5.0199   -1.8203   -1.1393 H   0  0  0  0  0  0  0  0  0  0  0  0
    3.3060   -1.0830   -0.0474 C   0  0  0  0  0  0  0  0  0  0  0  0
    2.6902   -1.9628   -0.2878 H   0  0  0  0  0  0  0  0  0  0  0  0
    7.2782   -0.6759   -1.4631 C   0  0  0  0  0  0  0  0  0  0  0  0
    8.3015   -0.3276   -1.6969 H   0  0  0  0  0  0  0  0  0  0  0  0
    6.7217   -0.8265   -2.4160 H   0  0  0  0  0  0  0  0  0  0  0  0
    7.3429   -1.6536   -0.9334 H   0  0  0  0  0  0  0  0  0  0  0  0
   -2.7592    0.0042   -0.0464 C   0  0  0  0  0  0  0  0  0  0  0  0
   -3.2992    1.2731   -0.3935 C   0  0  0  0  0  0  0  0  0  0  0  0
   -4.4702    1.3131   -1.1721 C   0  0  0  0  0  0  0  0  0  0  0  0
   -4.8994    2.2865   -1.4526 H   0  0  0  0  0  0  0  0  0  0  0  0
   -5.0983    0.1353   -1.5964 C   0  0  0  0  0  0  0  0  0  0  0  0
   -6.0140    0.1867   -2.2048 H   0  0  0  0  0  0  0  0  0  0  0  0
   -4.5586   -1.1078   -1.2436 C   0  0  0  0  0  0  0  0  0  0  0  0
   -5.0568   -2.0294   -1.5801 H   0  0  0  0  0  0  0  0  0  0  0  0
   -3.3899   -1.1989   -0.4654 C   0  0  0  0  0  0  0  0  0  0  0  0
   -2.5836    2.5543    0.0201 C   0  0  0  0  0  0  0  0  0  0  0  0
   -1.9799    2.3157    0.9202 H   0  0  0  0  0  0  0  0  0  0  0  0
   -3.5367    3.6972    0.3935 C   0  0  0  0  0  0  0  0  0  0  0  0
   -4.2680    3.3829    1.1656 H   0  0  0  0  0  0  0  0  0  0  0  0
   -4.1091    4.0650   -0.4830 H   0  0  0  0  0  0  0  0  0  0  0  0
   -2.9659    4.5605    0.7918 H   0  0  0  0  0  0  0  0  0  0  0  0
   -1.5982    2.9859   -1.0819 C   0  0  0  0  0  0  0  0  0  0  0  0
   -0.8826    2.1727   -1.3218 H   0  0  0  0  0  0  0  0  0  0  0  0
   -1.0159    3.8788   -0.7738 H   0  0  0  0  0  0  0  0  0  0  0  0
   -2.1393    3.2309   -2.0192 H   0  0  0  0  0  0  0  0  0  0  0  0
   -2.7741   -2.5519   -0.1272 C   0  0  0  0  0  0  0  0  0  0  0  0
   -2.1357   -2.4058    0.7685 H   0  0  0  0  0  0  0  0  0  0  0  0
   -1.8498   -3.0119   -1.2701 C   0  0  0  0  0  0  0  0  0  0  0  0
   -1.0688   -2.2540   -1.4866 H   0  0  0  0  0  0  0  0  0  0  0  0
   -2.4272   -3.1634   -2.2056 H   0  0  0  0  0  0  0  0  0  0  0  0
   -1.3439   -3.9667   -1.0170 H   0  0  0  0  0  0  0  0  0  0  0  0
   -3.8124   -3.6282    0.2168 C   0  0  0  0  0  0  0  0  0  0  0  0
   -3.3088   -4.5543    0.5612 H   0  0  0  0  0  0  0  0  0  0  0  0
   -4.4323   -3.9042   -0.6611 H   0  0  0  0  0  0  0  0  0  0  0  0
   -4.4982   -3.2909    1.0202 H   0  0  0  0  0  0  0  0  0  0  0  0
  1 21  1  0  0  0  0
  3 11  1  0  0  0  0
  4  5  1  0  0  0  0
  4  7  1  0  0  0  0
  6  4  1  0  0  0  0
  8  2  1  6  0  0  0
  8  9  1  0  0  0  0
  8  4  1  0  0  0  0
  9 10  1  0  0  0  0
 11 12  1  0  0  0  0
 11  9  2  0  0  0  0
 12 15  1  0  0  0  0
 13 12  1  0  0  0  0
 14 12  1  0  0  0  0
 16 17  1  0  0  0  0
 16  2  1  0  0  0  0
 17 18  1  0  0  0  0
 19 20  1  0  0  0  0
 19 17  2  0  0  0  0
 21 19  1  0  0  0  0
 22 21  2  0  0  0  0
 22 24  1  0  0  0  0
 23 22  1  0  0  0  0
 24 16  2  0  0  0  0
 25 24  1  0  0  0  0
 26 29  1  0  0  0  0
 26  1  1  0  0  0  0
 27 26  1  0  0  0  0
 28 26  1  0  0  0  0
 30  3  1  0  0  0  0
 31 30  1  0  0  0  0
 31 39  1  0  0  0  0
 32 31  2  0  0  0  0
 33 32  1  0  0  0  0
 34 36  2  0  0  0  0
 34 32  1  0  0  0  0
 35 34  1  0  0  0  0
 36 38  1  0  0  0  0
 37 36  1  0  0  0  0
 38 49  1  0  0  0  0
 38 30  2  0  0  0  0
 39 41  1  0  0  0  0
 39 40  1  0  0  0  0
 41 44  1  0  0  0  0
 41 42  1  0  0  0  0
 43 41  1  0  0  0  0
 45 47  1  0  0  0  0
 45 39  1  0  0  0  0
 46 45  1  0  0  0  0
 48 45  1  0  0  0  0
 49 55  1  0  0  0  0
 49 50  1  0  0  0  0
 51 54  1  0  0  0  0
 51 49  1  0  0  0  0
 52 51  1  0  0  0  0
 53 51  1  0  0  0  0
 55 56  1  0  0  0  0
 55 58  1  0  0  0  0
 57 55  1  0  0  0  0
M  END
