4,13
 OpenBabel05122313053D

 22 23  0  0  0  0  0  0  0  0999 V2000
   -5.3175   -0.7703    0.0271 C   0  0  0  0  0  0  0  0  0  0  0  0
   -6.5407   -0.8141   -0.0257 C   0  0  0  0  0  0  0  0  0  0  0  0
   -7.6206   -0.8543   -0.0741 H   0  0  0  0  0  0  0  0  0  0  0  0
   -1.0773   -0.6244    0.1982 N   0  0  0  0  0  2  0  0  0  0  0  0
   -1.8020    0.5304    0.1037 C   0  0  0  0  0  0  0  0  0  0  0  0
   -3.2034    0.5054    0.0500 C   0  0  0  0  0  0  0  0  0  0  0  0
   -3.7768    1.4372   -0.0266 H   0  0  0  0  0  0  0  0  0  0  0  0
   -3.8939   -0.7241    0.0882 C   0  0  0  0  0  0  0  0  0  0  0  0
   -3.1193   -1.9063    0.1918 C   0  0  0  0  0  0  0  0  0  0  0  0
   -3.6028   -2.8914    0.2249 H   0  0  0  0  0  0  0  0  0  0  0  0
   -1.7319   -1.8063    0.2428 C   0  0  0  0  0  0  0  0  0  0  0  0
   -1.1008   -2.7035    0.3114 H   0  0  0  0  0  0  0  0  0  0  0  0
    0.3382    1.6192    0.1951 N   0  0  0  0  0  2  0  0  0  0  0  0
   -1.0145    1.7781    0.1029 C   0  0  0  0  0  0  0  0  0  0  0  0
   -1.5885    3.0620    0.0492 C   0  0  0  0  0  0  0  0  0  0  0  0
   -2.6775    3.1772   -0.0259 H   0  0  0  0  0  0  0  0  0  0  0  0
   -0.7648    4.1899    0.0862 C   0  0  0  0  0  0  0  0  0  0  0  0
   -1.2015    5.1980    0.0376 H   0  0  0  0  0  0  0  0  0  0  0  0
    0.6235    4.0112    0.1868 C   0  0  0  0  0  0  0  0  0  0  0  0
    1.3135    4.8657    0.2190 H   0  0  0  0  0  0  0  0  0  0  0  0
    1.1313    2.7111    0.2384 C   0  0  0  0  0  0  0  0  0  0  0  0
    2.2114    2.5188    0.3058 H   0  0  0  0  0  0  0  0  0  0  0  0
  1  8  1  0  0  0  0
  2  1  3  0  0  0  0
  3  2  1  0  0  0  0
  4 11  1  0  0  0  0
  5  4  1  0  0  0  0
  6  8  2  0  0  0  0
  6  5  1  0  0  0  0
  7  6  1  0  0  0  0
  8  9  1  0  0  0  0
  9 10  1  0  0  0  0
  9 11  2  0  0  0  0
 11 12  1  0  0  0  0
 13 21  1  0  0  0  0
 14  5  2  0  0  0  0
 14 13  1  0  0  0  0
 15 17  2  0  0  0  0
 15 14  1  0  0  0  0
 16 15  1  0  0  0  0
 17 19  1  0  0  0  0
 18 17  1  0  0  0  0
 19 20  1  0  0  0  0
 19 21  2  0  0  0  0
 21 22  1  0  0  0  0
M  END
