1,6
 OpenBabel05122313053D

 45 46  0  0  1  0  0  0  0  0999 V2000
    1.5967    0.3659    0.6093 N   0  0  0  0  0  2  0  0  0  0  0  0
    0.8227    0.8924    1.6046 C   0  0  1  0  0  3  0  0  0  0  0  0
    3.6086    0.4905   -0.8785 C   0  0  0  0  0  0  0  0  0  0  0  0
    4.3002    1.3175   -1.1478 H   0  0  0  0  0  0  0  0  0  0  0  0
    4.2277   -0.3618   -0.5117 H   0  0  0  0  0  0  0  0  0  0  0  0
   -0.9359   -0.3718    0.5285 N   0  0  0  0  0  0  0  0  0  0  0  0
    2.7720    0.9771    0.2950 C   0  0  0  0  0  0  0  0  0  0  0  0
   -0.4511    0.1272    1.8564 C   0  0  1  0  0  0  0  0  0  0  0  0
   -1.2100    0.8055    2.3026 H   0  0  0  0  0  0  0  0  0  0  0  0
   -1.9075    0.4813   -0.1587 C   0  0  0  0  0  0  0  0  0  0  0  0
   -1.5574    1.3131   -1.2481 C   0  0  0  0  0  0  0  0  0  0  0  0
    1.2098    2.0015    2.3573 C   0  0  0  0  0  0  0  0  0  0  0  0
    0.5405    2.3860    3.1401 H   0  0  0  0  0  0  0  0  0  0  0  0
    2.8717    0.1367   -2.0157 O   0  0  0  0  0  0  0  0  0  0  0  0
   -3.2469    0.4243    0.3213 C   0  0  0  0  0  0  0  0  0  0  0  0
   -2.5675    2.1300   -1.8029 C   0  0  0  0  0  0  0  0  0  0  0  0
   -2.3048    2.7752   -2.6558 H   0  0  0  0  0  0  0  0  0  0  0  0
    3.2175    2.0833    1.0414 C   0  0  0  0  0  0  0  0  0  0  0  0
    4.1730    2.5508    0.7609 H   0  0  0  0  0  0  0  0  0  0  0  0
    2.4484    2.6005    2.0864 C   0  0  0  0  0  0  0  0  0  0  0  0
    2.7906    3.4740    2.6606 H   0  0  0  0  0  0  0  0  0  0  0  0
   -3.8755    2.1217   -1.3157 C   0  0  0  0  0  0  0  0  0  0  0  0
   -4.6409    2.7700   -1.7683 H   0  0  0  0  0  0  0  0  0  0  0  0
   -0.1923    1.3559   -1.8895 C   0  0  0  0  0  0  0  0  0  0  0  0
   -0.3245    1.2227   -2.9837 H   0  0  0  0  0  0  0  0  0  0  0  0
    0.4234    0.4913   -1.5652 H   0  0  0  0  0  0  0  0  0  0  0  0
   -3.6888   -0.5796    1.3689 C   0  0  0  0  0  0  0  0  0  0  0  0
   -2.9581   -0.6462    2.2017 H   0  0  0  0  0  0  0  0  0  0  0  0
   -4.6246   -0.2091    1.8348 H   0  0  0  0  0  0  0  0  0  0  0  0
   -4.2126    1.2583   -0.2655 C   0  0  0  0  0  0  0  0  0  0  0  0
   -5.2483    1.2148    0.1064 H   0  0  0  0  0  0  0  0  0  0  0  0
   -3.9347   -1.9791    0.7757 C   0  0  0  0  0  0  0  0  0  0  0  0
   -4.2453   -2.6957    1.5625 H   0  0  0  0  0  0  0  0  0  0  0  0
   -3.0335   -2.3891    0.2704 H   0  0  0  0  0  0  0  0  0  0  0  0
   -4.7354   -1.9373    0.0107 H   0  0  0  0  0  0  0  0  0  0  0  0
    0.5828    2.6519   -1.6313 C   0  0  0  0  0  0  0  0  0  0  0  0
    1.5847    2.5871   -2.0985 H   0  0  0  0  0  0  0  0  0  0  0  0
    0.7176    2.8367   -0.5461 H   0  0  0  0  0  0  0  0  0  0  0  0
    0.0579    3.5352   -2.0501 H   0  0  0  0  0  0  0  0  0  0  0  0
   -0.1896   -1.0593    2.7960 C   0  0  0  0  0  0  0  0  0  0  0  0
    0.1916   -0.6986    3.7702 H   0  0  0  0  0  0  0  0  0  0  0  0
    0.5626   -1.7390    2.3455 H   0  0  0  0  0  0  0  0  0  0  0  0
   -1.1203   -1.6348    2.9736 H   0  0  0  0  0  0  0  0  0  0  0  0
    2.6506   -0.8214   -1.8835 H   0  0  0  0  0  0  0  0  0  0  0  0
   -1.3939   -1.2907    0.6594 H   0  0  0  0  0  0  0  0  0  0  0  0
  1  2  1  0  0  0  0
  2  8  1  1  0  0  0
  2 12  1  0  0  0  0
  3  5  1  0  0  0  0
  3  7  1  0  0  0  0
  4  3  1  0  0  0  0
  6 45  1  0  0  0  0
  6  8  1  0  0  0  0
  7  1  1  0  0  0  0
  7 18  2  0  0  0  0
  8  9  1  1  0  0  0
  8 40  1  0  0  0  0
 10 15  1  0  0  0  0
 10  6  1  0  0  0  0
 11 10  2  0  0  0  0
 12 13  1  0  0  0  0
 14 44  1  0  0  0  0
 14  3  1  0  0  0  0
 15 27  1  0  0  0  0
 16 22  2  0  0  0  0
 16 11  1  0  0  0  0
 17 16  1  0  0  0  0
 18 20  1  0  0  0  0
 19 18  1  0  0  0  0
 20 12  2  0  0  0  0
 20 21  1  0  0  0  0
 22 30  1  0  0  0  0
 23 22  1  0  0  0  0
 24 36  1  0  0  0  0
 24 26  1  0  0  0  0
 24 11  1  0  0  0  0
 25 24  1  0  0  0  0
 27 29  1  0  0  0  0
 27 28  1  0  0  0  0
 30 31  1  0  0  0  0
 30 15  2  0  0  0  0
 32 27  1  0  0  0  0
 32 33  1  0  0  0  0
 34 32  1  0  0  0  0
 35 32  1  0  0  0  0
 36 38  1  0  0  0  0
 37 36  1  0  0  0  0
 39 36  1  0  0  0  0
 40 43  1  0  0  0  0
 40 41  1  0  0  0  0
 42 40  1  0  0  0  0
M  END
