1,4
 OpenBabel05122313053D

 26 28  0  0  0  0  0  0  0  0999 V2000
   -1.5386   -1.3587   -0.6172 N   0  0  0  0  0  2  0  0  0  0  0  0
   -2.5756   -1.2023    0.2039 N   0  0  0  0  0  0  0  0  0  0  0  0
   -3.3302   -2.0469   -1.7785 N   0  0  0  0  0  2  0  0  0  0  0  0
    0.2556   -1.7065   -2.3654 N   0  0  0  0  0  2  0  0  0  0  0  0
   -8.8546   -2.3677   -1.4743 Br  0  0  0  0  0  0  0  0  0  0  0  0
   -6.9373   -0.3895    3.5198 Br  0  0  0  0  0  0  0  0  0  0  0  0
   -3.6493   -1.6201   -0.5259 C   0  0  0  0  0  0  0  0  0  0  0  0
   -2.0036   -1.8651   -1.7975 C   0  0  0  0  0  0  0  0  0  0  0  0
   -0.9874   -2.0958   -2.7974 C   0  0  0  0  0  0  0  0  0  0  0  0
   -1.1830   -2.6681   -4.0643 C   0  0  0  0  0  0  0  0  0  0  0  0
   -2.2029   -2.9521   -4.3581 H   0  0  0  0  0  0  0  0  0  0  0  0
   -0.0744   -2.8609   -4.8950 C   0  0  0  0  0  0  0  0  0  0  0  0
   -0.1981   -3.3063   -5.8933 H   0  0  0  0  0  0  0  0  0  0  0  0
    1.1994   -2.4878   -4.4323 C   0  0  0  0  0  0  0  0  0  0  0  0
    2.0990   -2.6351   -5.0458 H   0  0  0  0  0  0  0  0  0  0  0  0
    1.3236   -1.9138   -3.1618 C   0  0  0  0  0  0  0  0  0  0  0  0
    2.2984   -1.6146   -2.7523 H   0  0  0  0  0  0  0  0  0  0  0  0
   -5.0202   -1.5623   -0.0084 C   0  0  0  0  0  0  0  0  0  0  0  0
   -6.0940   -1.9444   -0.8405 C   0  0  0  0  0  0  0  0  0  0  0  0
   -5.8806   -2.2980   -1.8578 H   0  0  0  0  0  0  0  0  0  0  0  0
   -7.4019   -1.8559   -0.3515 C   0  0  0  0  0  0  0  0  0  0  0  0
   -7.6811   -1.3955    0.9463 C   0  0  0  0  0  0  0  0  0  0  0  0
   -8.7124   -1.3289    1.3154 H   0  0  0  0  0  0  0  0  0  0  0  0
   -6.5943   -1.0236    1.7550 C   0  0  0  0  0  0  0  0  0  0  0  0
   -5.2731   -1.1022    1.3021 C   0  0  0  0  0  0  0  0  0  0  0  0
   -4.4347   -0.8123    1.9482 H   0  0  0  0  0  0  0  0  0  0  0  0
  1  2  1  0  0  0  0
  3  7  1  0  0  0  0
  5 21  1  0  0  0  0
  7 18  1  0  0  0  0
  7  2  2  0  0  0  0
  8  3  1  0  0  0  0
  8  1  1  0  0  0  0
  9  4  1  0  0  0  0
  9  8  2  0  0  0  0
 10  9  1  0  0  0  0
 11 10  1  0  0  0  0
 12 14  1  0  0  0  0
 12 10  2  0  0  0  0
 13 12  1  0  0  0  0
 14 16  2  0  0  0  0
 15 14  1  0  0  0  0
 16 17  1  0  0  0  0
 16  4  1  0  0  0  0
 18 25  1  0  0  0  0
 19 21  1  0  0  0  0
 19 18  2  0  0  0  0
 20 19  1  0  0  0  0
 21 22  2  0  0  0  0
 22 23  1  0  0  0  0
 22 24  1  0  0  0  0
 24  6  1  0  0  0  0
 25 24  2  0  0  0  0
 25 26  1  0  0  0  0
M  END
