1,2
 OpenBabel05122313053D

 38 39  0  0  0  0  0  0  0  0999 V2000
    1.0002    0.1761   -1.3363 N   0  0  0  0  0  2  0  0  0  0  0  0
    1.1748   -0.7973    0.6690 N   0  0  0  0  0  2  0  0  0  0  0  0
    3.1671   -0.7056   -0.7115 N   0  0  0  0  0  0  0  0  0  0  0  0
    1.7876   -0.4414   -0.4564 C   0  0  0  0  0  3  0  0  0  0  0  0
    1.4758    1.0498   -2.4010 C   0  0  0  0  0  0  0  0  0  0  0  0
    2.4581    0.6698   -2.7680 H   0  0  0  0  0  0  0  0  0  0  0  0
    1.6991    2.4824   -1.8882 C   0  0  0  0  0  0  0  0  0  0  0  0
    2.3947    2.4875   -1.0251 H   0  0  0  0  0  0  0  0  0  0  0  0
    0.7414    2.9368   -1.5652 H   0  0  0  0  0  0  0  0  0  0  0  0
    2.1324    3.1221   -2.6841 H   0  0  0  0  0  0  0  0  0  0  0  0
    0.4810    1.0220   -3.5649 C   0  0  0  0  0  0  0  0  0  0  0  0
   -0.5249    1.3347   -3.2175 H   0  0  0  0  0  0  0  0  0  0  0  0
    0.3899    0.0025   -3.9918 H   0  0  0  0  0  0  0  0  0  0  0  0
    0.8011    1.7048   -4.3770 H   0  0  0  0  0  0  0  0  0  0  0  0
    1.6578   -1.8052    1.6022 C   0  0  0  0  0  0  0  0  0  0  0  0
    2.7573   -1.9241    1.4662 H   0  0  0  0  0  0  0  0  0  0  0  0
    1.3948   -1.3428    3.0397 C   0  0  0  0  0  0  0  0  0  0  0  0
    0.3159   -1.1237    3.1783 H   0  0  0  0  0  0  0  0  0  0  0  0
    1.9715   -0.4261    3.2775 H   0  0  0  0  0  0  0  0  0  0  0  0
    1.6900   -2.1233    3.7690 H   0  0  0  0  0  0  0  0  0  0  0  0
    0.9962   -3.1659    1.3312 C   0  0  0  0  0  0  0  0  0  0  0  0
    1.1528   -3.4800    0.2800 H   0  0  0  0  0  0  0  0  0  0  0  0
   -0.0949   -3.1112    1.5174 H   0  0  0  0  0  0  0  0  0  0  0  0
    1.4203   -3.9474    1.9941 H   0  0  0  0  0  0  0  0  0  0  0  0
    3.6537   -1.4526   -1.7836 C   0  0  0  0  0  0  0  0  0  0  0  0
    2.9456   -1.9270   -2.4724 H   0  0  0  0  0  0  0  0  0  0  0  0
    5.0338   -1.4732   -1.7537 C   0  0  0  0  0  0  0  0  0  0  0  0
    5.6844   -1.9953   -2.4636 H   0  0  0  0  0  0  0  0  0  0  0  0
    5.4446   -0.6919   -0.6149 C   0  0  0  0  0  0  0  0  0  0  0  0
    4.2494   -0.2210    0.0198 C   0  0  0  0  0  0  0  0  0  0  0  0
    4.2756    0.6005    1.1595 C   0  0  0  0  0  0  0  0  0  0  0  0
    3.3442    0.9576    1.6192 H   0  0  0  0  0  0  0  0  0  0  0  0
    5.5294    0.9437    1.6777 C   0  0  0  0  0  0  0  0  0  0  0  0
    5.5863    1.5843    2.5707 H   0  0  0  0  0  0  0  0  0  0  0  0
    6.7252    0.4814    1.0748 C   0  0  0  0  0  0  0  0  0  0  0  0
    7.6933    0.7696    1.5114 H   0  0  0  0  0  0  0  0  0  0  0  0
    6.6943   -0.3285   -0.0642 C   0  0  0  0  0  0  0  0  0  0  0  0
    7.6283   -0.6773   -0.5307 H   0  0  0  0  0  0  0  0  0  0  0  0
  1  4  1  0  0  0  0
  2 15  1  0  0  0  0
  3  4  1  0  0  0  0
  3 30  1  0  0  0  0
  4  2  1  0  0  0  0
  5  7  1  0  0  0  0
  5  1  1  0  0  0  0
  6  5  1  0  0  0  0
  7  9  1  0  0  0  0
  7  8  1  0  0  0  0
 10  7  1  0  0  0  0
 11 12  1  0  0  0  0
 11  5  1  0  0  0  0
 13 11  1  0  0  0  0
 14 11  1  0  0  0  0
 15 17  1  0  0  0  0
 16 15  1  0  0  0  0
 17 18  1  0  0  0  0
 17 19  1  0  0  0  0
 17 20  1  0  0  0  0
 21 23  1  0  0  0  0
 21 15  1  0  0  0  0
 21 24  1  0  0  0  0
 22 21  1  0  0  0  0
 25 27  2  0  0  0  0
 25  3  1  0  0  0  0
 26 25  1  0  0  0  0
 27 29  1  0  0  0  0
 28 27  1  0  0  0  0
 29 37  2  0  0  0  0
 29 30  1  0  0  0  0
 30 31  2  0  0  0  0
 31 32  1  0  0  0  0
 31 33  1  0  0  0  0
 33 34  1  0  0  0  0
 35 36  1  0  0  0  0
 35 33  2  0  0  0  0
 37 35  1  0  0  0  0
 38 37  1  0  0  0  0
M  END
