3,4
 OpenBabel05122313053D

 13 13  0  0  0  0  0  0  0  0999 V2000
   -0.2580    2.8715    0.0745 O   0  0  0  0  0  0  0  0  0  0  0  0
   -1.2343    2.4506    0.0147 H   0  0  0  0  0  0  0  0  0  0  0  0
    0.5270    1.8047    0.0795 N   0  0  0  0  0  2  0  0  0  0  0  0
    1.9679   -0.4368    0.1171 N   0  0  0  0  0  2  0  0  0  0  0  0
    4.1191   -0.8311   -0.1232 N   0  0  0  0  0  0  0  0  0  0  0  0
    4.9957   -1.3457   -0.2126 H   0  0  0  0  0  0  0  0  0  0  0  0
    1.8198    1.9837    0.0069 C   0  0  0  0  0  3  0  0  0  0  0  0
    2.2417    2.9975   -0.0741 H   0  0  0  0  0  0  0  0  0  0  0  0
    2.6230    0.7841   -0.0008 C   0  0  0  0  0  0  0  0  0  0  0  0
    3.9848    0.5439   -0.1481 C   0  0  0  0  0  0  0  0  0  0  0  0
    4.8365    1.2169   -0.2783 H   0  0  0  0  0  0  0  0  0  0  0  0
    2.8832   -1.3893    0.0359 C   0  0  0  0  0  3  0  0  0  0  0  0
    2.6956   -2.4676    0.0772 H   0  0  0  0  0  0  0  0  0  0  0  0
  1  3  1  0  0  0  0
  2  1  1  0  0  0  0
  5 12  1  0  0  0  0
  6  5  1  0  0  0  0
  7  3  1  0  0  0  0
  8  7  1  0  0  0  0
  9  7  1  0  0  0  0
  9  4  1  0  0  0  0
 10  5  1  0  0  0  0
 10  9  2  0  0  0  0
 11 10  1  0  0  0  0
 12 13  1  0  0  0  0
 12  4  1  0  0  0  0
M  END
