1,2
 OpenBabel05122313053D

 31 32  0  0  0  0  0  0  0  0999 V2000
   -0.8004   -1.7210   -0.4353 N   0  0  0  0  0  2  0  0  0  0  0  0
    1.6149   -1.0173   -0.0592 N   0  0  0  0  0  2  0  0  0  0  0  0
   -1.9888   -2.2943   -0.7487 C   0  0  0  0  0  3  0  0  0  0  0  0
   -2.8739   -1.7007   -0.9965 H   0  0  0  0  0  0  0  0  0  0  0  0
   -1.8851   -3.7063   -0.6813 C   0  0  0  0  0  0  0  0  0  0  0  0
   -2.6955   -4.4155   -0.8868 H   0  0  0  0  0  0  0  0  0  0  0  0
   -0.5637   -4.0051   -0.3055 C   0  0  0  0  0  0  0  0  0  0  0  0
   -0.1176   -4.9968   -0.1645 H   0  0  0  0  0  0  0  0  0  0  0  0
    0.0913   -2.7558   -0.1711 C   0  0  0  0  0  0  0  0  0  0  0  0
    1.4206   -2.3322    0.0728 C   0  0  0  0  0  0  0  0  0  0  0  0
    2.5153   -3.2761    0.4756 C   0  0  0  0  0  0  0  0  0  0  0  0
    3.3543   -3.2588   -0.2483 H   0  0  0  0  0  0  0  0  0  0  0  0
    2.1355   -4.3097    0.5599 H   0  0  0  0  0  0  0  0  0  0  0  0
    2.9443   -2.9712    1.4522 H   0  0  0  0  0  0  0  0  0  0  0  0
    2.9122   -0.4870    0.1582 C   0  0  0  0  0  0  0  0  0  0  0  0
    3.2179    0.1062    1.4082 C   0  0  0  0  0  0  0  0  0  0  0  0
    4.5029    0.6484    1.5904 C   0  0  0  0  0  0  0  0  0  0  0  0
    4.7521    1.1175    2.5550 H   0  0  0  0  0  0  0  0  0  0  0  0
    5.4555    0.6082    0.5625 C   0  0  0  0  0  0  0  0  0  0  0  0
    6.4549    1.0403    0.7218 H   0  0  0  0  0  0  0  0  0  0  0  0
    5.1299    0.0338   -0.6745 C   0  0  0  0  0  0  0  0  0  0  0  0
    5.8694    0.0239   -1.4905 H   0  0  0  0  0  0  0  0  0  0  0  0
    3.8543   -0.5165   -0.9021 C   0  0  0  0  0  0  0  0  0  0  0  0
    3.4596   -1.0653   -2.2483 C   0  0  0  0  0  0  0  0  0  0  0  0
    4.2377   -0.8609   -3.0078 H   0  0  0  0  0  0  0  0  0  0  0  0
    2.5022   -0.6166   -2.5861 H   0  0  0  0  0  0  0  0  0  0  0  0
    3.2901   -2.1625   -2.2245 H   0  0  0  0  0  0  0  0  0  0  0  0
    2.1648    0.1791    2.4794 C   0  0  0  0  0  0  0  0  0  0  0  0
    1.2827    0.7434    2.1072 H   0  0  0  0  0  0  0  0  0  0  0  0
    2.5476    0.6773    3.3901 H   0  0  0  0  0  0  0  0  0  0  0  0
    1.7910   -0.8275    2.7615 H   0  0  0  0  0  0  0  0  0  0  0  0
  1  9  1  0  0  0  0
  2 10  1  0  0  0  0
  2 15  1  0  0  0  0
  3  5  1  0  0  0  0
  3  1  1  0  0  0  0
  4  3  1  0  0  0  0
  5  7  2  0  0  0  0
  6  5  1  0  0  0  0
  7  9  1  0  0  0  0
  7  8  1  0  0  0  0
  9 10  2  0  0  0  0
 10 11  1  0  0  0  0
 11 13  1  0  0  0  0
 11 14  1  0  0  0  0
 12 11  1  0  0  0  0
 15 16  1  0  0  0  0
 16 17  2  0  0  0  0
 16 28  1  0  0  0  0
 17 18  1  0  0  0  0
 19 20  1  0  0  0  0
 19 17  1  0  0  0  0
 21 19  2  0  0  0  0
 22 21  1  0  0  0  0
 23 21  1  0  0  0  0
 23 15  2  0  0  0  0
 24 27  1  0  0  0  0
 24 23  1  0  0  0  0
 25 24  1  0  0  0  0
 26 24  1  0  0  0  0
 28 31  1  0  0  0  0
 28 30  1  0  0  0  0
 29 28  1  0  0  0  0
M  END
