1,6
 OpenBabel05122313053D

 70 73  0  0  1  0  0  0  0  0999 V2000
    1.3071   -0.2100    0.0722 N   0  0  0  0  0  2  0  0  0  0  0  0
    1.3551    2.1361    0.5237 N   0  0  0  0  0  0  0  0  0  0  0  0
    2.3660    2.0024    0.6354 H   0  0  0  0  0  0  0  0  0  0  0  0
   -1.3552    2.1356   -0.5252 N   0  0  0  0  0  0  0  0  0  0  0  0
   -2.3661    2.0017   -0.6368 H   0  0  0  0  0  0  0  0  0  0  0  0
   -1.3069   -0.2102   -0.0721 N   0  0  0  0  0  2  0  0  0  0  0  0
    0.7218    0.9725    0.1451 C   0  0  2  0  0  3  0  0  0  0  0  0
   -0.7218    0.9723   -0.1458 C   0  0  1  0  0  3  0  0  0  0  0  0
    2.7162   -0.2796    0.2455 C   0  0  0  0  0  0  0  0  0  0  0  0
    3.2800   -0.9141    1.3711 C   0  0  0  0  0  0  0  0  0  0  0  0
    2.6167   -1.3626    2.1234 H   0  0  0  0  0  0  0  0  0  0  0  0
    4.6704   -0.9829    1.5125 C   0  0  0  0  0  0  0  0  0  0  0  0
    5.0926   -1.4821    2.3990 H   0  0  0  0  0  0  0  0  0  0  0  0
    5.5405   -0.4396    0.5431 C   0  0  0  0  0  0  0  0  0  0  0  0
    4.9617    0.1885   -0.5772 C   0  0  0  0  0  0  0  0  0  0  0  0
    5.6145    0.6141   -1.3560 H   0  0  0  0  0  0  0  0  0  0  0  0
    3.5707    0.2728   -0.7319 C   0  0  0  0  0  0  0  0  0  0  0  0
    3.1303    0.7474   -1.6221 H   0  0  0  0  0  0  0  0  0  0  0  0
    7.0357   -0.5642    0.6895 C   0  0  0  0  0  0  0  0  0  0  0  0
    7.3610   -0.3758    1.7326 H   0  0  0  0  0  0  0  0  0  0  0  0
    7.3769   -1.5885    0.4265 H   0  0  0  0  0  0  0  0  0  0  0  0
    7.5726    0.1426    0.0273 H   0  0  0  0  0  0  0  0  0  0  0  0
   -2.7160   -0.2802   -0.2452 C   0  0  0  0  0  0  0  0  0  0  0  0
   -3.2799   -0.9155   -1.3704 C   0  0  0  0  0  0  0  0  0  0  0  0
   -2.6166   -1.3643   -2.1224 H   0  0  0  0  0  0  0  0  0  0  0  0
   -4.6703   -0.9845   -1.5115 C   0  0  0  0  0  0  0  0  0  0  0  0
   -5.0925   -1.4843   -2.3976 H   0  0  0  0  0  0  0  0  0  0  0  0
   -5.5404   -0.4407   -0.5424 C   0  0  0  0  0  0  0  0  0  0  0  0
   -4.9615    0.1882    0.5774 C   0  0  0  0  0  0  0  0  0  0  0  0
   -5.6142    0.6143    1.3560 H   0  0  0  0  0  0  0  0  0  0  0  0
   -3.5705    0.2728    0.7319 C   0  0  0  0  0  0  0  0  0  0  0  0
   -3.1301    0.7481    1.6217 H   0  0  0  0  0  0  0  0  0  0  0  0
   -7.0356   -0.5655   -0.6885 C   0  0  0  0  0  0  0  0  0  0  0  0
   -7.5724    0.1427   -0.0278 H   0  0  0  0  0  0  0  0  0  0  0  0
   -7.3609   -0.3796   -1.7320 H   0  0  0  0  0  0  0  0  0  0  0  0
   -7.3767   -1.5892   -0.4231 H   0  0  0  0  0  0  0  0  0  0  0  0
   -0.7595    3.0706   -1.5036 C   0  0  2  0  0  0  0  0  0  0  0  0
   -0.1399    3.8169   -0.9600 H   0  0  0  0  0  0  0  0  0  0  0  0
   -1.9017    3.8246   -2.1936 C   0  0  0  0  0  0  0  0  0  0  0  0
   -2.5423    4.3383   -1.4476 H   0  0  0  0  0  0  0  0  0  0  0  0
   -1.4941    4.5842   -2.8868 H   0  0  0  0  0  0  0  0  0  0  0  0
   -2.5306    3.1271   -2.7845 H   0  0  0  0  0  0  0  0  0  0  0  0
    0.1579    2.3873   -2.5114 C   0  0  0  0  0  0  0  0  0  0  0  0
    1.3976    2.9697   -2.8332 C   0  0  0  0  0  0  0  0  0  0  0  0
    1.6995    3.9040   -2.3330 H   0  0  0  0  0  0  0  0  0  0  0  0
    2.2573    2.3600   -3.7593 C   0  0  0  0  0  0  0  0  0  0  0  0
    3.2254    2.8265   -3.9979 H   0  0  0  0  0  0  0  0  0  0  0  0
    1.8908    1.1465   -4.3641 C   0  0  0  0  0  0  0  0  0  0  0  0
    2.5711    0.6547   -5.0755 H   0  0  0  0  0  0  0  0  0  0  0  0
    0.6575    0.5555   -4.0473 C   0  0  0  0  0  0  0  0  0  0  0  0
    0.3703   -0.4060   -4.4964 H   0  0  0  0  0  0  0  0  0  0  0  0
   -0.2062    1.1770   -3.1330 C   0  0  0  0  0  0  0  0  0  0  0  0
   -1.1665    0.6990   -2.8853 H   0  0  0  0  0  0  0  0  0  0  0  0
    0.7593    3.0717    1.5015 C   0  0  1  0  0  0  0  0  0  0  0  0
    0.1398    3.8177    0.9573 H   0  0  0  0  0  0  0  0  0  0  0  0
   -0.1584    2.3892    2.5095 C   0  0  0  0  0  0  0  0  0  0  0  0
   -1.3981    2.9720    2.8308 C   0  0  0  0  0  0  0  0  0  0  0  0
   -1.6998    3.9059    2.3299 H   0  0  0  0  0  0  0  0  0  0  0  0
   -2.2580    2.3630    3.7571 C   0  0  0  0  0  0  0  0  0  0  0  0
   -3.2261    2.8298    3.9953 H   0  0  0  0  0  0  0  0  0  0  0  0
   -1.8917    1.1499    4.3629 C   0  0  0  0  0  0  0  0  0  0  0  0
   -2.5722    0.6587    5.0746 H   0  0  0  0  0  0  0  0  0  0  0  0
   -0.6585    0.5585    4.0467 C   0  0  0  0  0  0  0  0  0  0  0  0
   -0.3714   -0.4028    4.4965 H   0  0  0  0  0  0  0  0  0  0  0  0
    0.2055    1.1792    3.1321 C   0  0  0  0  0  0  0  0  0  0  0  0
    1.1657    0.7009    2.8848 H   0  0  0  0  0  0  0  0  0  0  0  0
    1.9014    3.8261    2.1912 C   0  0  0  0  0  0  0  0  0  0  0  0
    2.5422    4.3392    1.4450 H   0  0  0  0  0  0  0  0  0  0  0  0
    1.4937    4.5861    2.8839 H   0  0  0  0  0  0  0  0  0  0  0  0
    2.5300    3.1289    2.7827 H   0  0  0  0  0  0  0  0  0  0  0  0
  1  9  1  0  0  0  0
  2  3  1  0  0  0  0
  2 54  1  0  0  0  0
  4  8  1  0  0  0  0
  5  4  1  0  0  0  0
  7  1  1  1  0  0  0
  7  2  1  0  0  0  0
  8  6  1  6  0  0  0
  8  7  1  0  0  0  0
  9 10  1  0  0  0  0
 10 12  2  0  0  0  0
 10 11  1  0  0  0  0
 12 13  1  0  0  0  0
 14 19  1  0  0  0  0
 14 12  1  0  0  0  0
 15 14  2  0  0  0  0
 16 15  1  0  0  0  0
 17 15  1  0  0  0  0
 17  9  2  0  0  0  0
 18 17  1  0  0  0  0
 19 20  1  0  0  0  0
 21 19  1  0  0  0  0
 22 19  1  0  0  0  0
 23  6  1  0  0  0  0
 23 31  1  0  0  0  0
 24 23  2  0  0  0  0
 25 24  1  0  0  0  0
 26 24  1  0  0  0  0
 26 28  2  0  0  0  0
 27 26  1  0  0  0  0
 28 29  1  0  0  0  0
 29 31  2  0  0  0  0
 29 30  1  0  0  0  0
 31 32  1  0  0  0  0
 33 28  1  0  0  0  0
 33 36  1  0  0  0  0
 33 34  1  0  0  0  0
 35 33  1  0  0  0  0
 37 38  1  1  0  0  0
 37  4  1  0  0  0  0
 39 37  1  0  0  0  0
 39 40  1  0  0  0  0
 41 39  1  0  0  0  0
 42 39  1  0  0  0  0
 43 37  1  0  0  0  0
 44 43  1  0  0  0  0
 44 45  1  0  0  0  0
 46 44  2  0  0  0  0
 47 46  1  0  0  0  0
 48 50  2  0  0  0  0
 48 46  1  0  0  0  0
 49 48  1  0  0  0  0
 50 52  1  0  0  0  0
 51 50  1  0  0  0  0
 52 53  1  0  0  0  0
 52 43  2  0  0  0  0
 54 55  1  6  0  0  0
 54 67  1  0  0  0  0
 54 56  1  0  0  0  0
 56 57  2  0  0  0  0
 56 65  1  0  0  0  0
 57 59  1  0  0  0  0
 58 57  1  0  0  0  0
 59 60  1  0  0  0  0
 59 61  2  0  0  0  0
 61 62  1  0  0  0  0
 63 61  1  0  0  0  0
 63 64  1  0  0  0  0
 65 63  2  0  0  0  0
 66 65  1  0  0  0  0
 67 70  1  0  0  0  0
 67 69  1  0  0  0  0
 68 67  1  0  0  0  0
M  END
