3,4
 OpenBabel05122313053D

 30 31  0  0  1  0  0  0  0  0999 V2000
    3.3428    0.0434   -0.4577 N   0  0  0  0  0  0  0  0  0  0  0  0
    2.7862   -0.6567   -0.9737 H   0  0  0  0  0  0  0  0  0  0  0  0
   -1.1739    0.6720   -0.7814 N   0  0  0  0  0  2  0  0  0  0  0  0
    1.2854    1.0924   -0.1820 N   0  0  0  0  0  2  0  0  0  0  0  0
   -2.4473   -0.9451   -1.8656 N   0  0  0  0  0  0  0  0  0  0  0  0
   -1.5301   -1.3913   -2.0282 H   0  0  0  0  0  0  0  0  0  0  0  0
   -2.3406    0.3299   -1.4076 C   0  0  1  0  0  3  0  0  0  0  0  0
    1.0753    3.4804    0.0851 C   0  0  0  0  0  0  0  0  0  0  0  0
    0.4434    4.3757    0.1306 H   0  0  0  0  0  0  0  0  0  0  0  0
    2.6495    1.1834   -0.1999 C   0  0  1  0  0  3  0  0  0  0  0  0
   -3.3713    1.3024   -1.5380 C   0  0  0  0  0  0  0  0  0  0  0  0
   -4.3285    1.0237   -1.9957 H   0  0  0  0  0  0  0  0  0  0  0  0
   -1.8737    2.9737   -0.6151 C   0  0  0  0  0  0  0  0  0  0  0  0
   -1.6483    4.0150   -0.3548 H   0  0  0  0  0  0  0  0  0  0  0  0
   -3.1366    2.6078   -1.1138 C   0  0  0  0  0  0  0  0  0  0  0  0
   -3.9291    3.3639   -1.2121 H   0  0  0  0  0  0  0  0  0  0  0  0
    3.2669    2.4403    0.0533 C   0  0  0  0  0  0  0  0  0  0  0  0
    4.3610    2.5129    0.0863 H   0  0  0  0  0  0  0  0  0  0  0  0
    4.7833    0.0129   -0.6208 C   0  0  0  0  0  0  0  0  0  0  0  0
    5.1372    0.6544   -1.4588 H   0  0  0  0  0  0  0  0  0  0  0  0
    5.0940   -1.0270   -0.8297 H   0  0  0  0  0  0  0  0  0  0  0  0
    5.2975    0.3364    0.3072 H   0  0  0  0  0  0  0  0  0  0  0  0
   -0.8991    1.9789   -0.4870 C   0  0  0  0  0  0  0  0  0  0  0  0
    0.5134    2.2205   -0.1462 C   0  0  0  0  0  0  0  0  0  0  0  0
   -3.5749   -1.4102   -2.6503 C   0  0  0  0  0  0  0  0  0  0  0  0
   -3.7077   -0.8386   -3.5961 H   0  0  0  0  0  0  0  0  0  0  0  0
   -4.5183   -1.3480   -2.0702 H   0  0  0  0  0  0  0  0  0  0  0  0
   -3.4121   -2.4718   -2.9103 H   0  0  0  0  0  0  0  0  0  0  0  0
    2.4721    3.5707    0.2217 C   0  0  0  0  0  0  0  0  0  0  0  0
    2.9436    4.5449    0.4170 H   0  0  0  0  0  0  0  0  0  0  0  0
  2  1  1  0  0  0  0
  3 23  1  0  0  0  0
  4 24  1  0  0  0  0
  6  5  1  0  0  0  0
  7  5  1  1  0  0  0
  7  3  1  0  0  0  0
  8  9  1  0  0  0  0
  8 29  1  0  0  0  0
 10  1  1  1  0  0  0
 10  4  1  0  0  0  0
 10 17  1  0  0  0  0
 11  7  1  0  0  0  0
 11 15  2  0  0  0  0
 12 11  1  0  0  0  0
 13 23  2  0  0  0  0
 13 14  1  0  0  0  0
 15 13  1  0  0  0  0
 16 15  1  0  0  0  0
 17 18  1  0  0  0  0
 17 29  2  0  0  0  0
 19  1  1  0  0  0  0
 19 22  1  0  0  0  0
 20 19  1  0  0  0  0
 21 19  1  0  0  0  0
 23 24  1  0  0  0  0
 24  8  2  0  0  0  0
 25 27  1  0  0  0  0
 25  5  1  0  0  0  0
 26 25  1  0  0  0  0
 28 25  1  0  0  0  0
 29 30  1  0  0  0  0
M  END
