2,17
 OpenBabel05122313053D

 22 21  0  0  1  0  0  0  0  0999 V2000
    1.1632    2.5871   -0.3883 O   0  0  0  0  0  1  0  0  0  0  0  0
    1.3765    1.3151   -0.1948 N   0  0  0  0  0  2  0  0  0  0  0  0
    2.5923    0.8789    0.0529 C   0  0  1  0  0  3  0  0  0  0  0  0
    3.7434    1.8169    0.1911 C   0  0  0  0  0  0  0  0  0  0  0  0
    3.3720    2.8180    0.4786 H   0  0  0  0  0  0  0  0  0  0  0  0
    4.4724    1.4583    0.9436 H   0  0  0  0  0  0  0  0  0  0  0  0
    4.2898    1.9333   -0.7702 H   0  0  0  0  0  0  0  0  0  0  0  0
    2.7039   -0.6206    0.2661 C   0  0  0  0  0  0  0  0  0  0  0  0
    4.0209   -1.1657   -0.3091 C   0  0  0  0  0  0  0  0  0  0  0  0
    4.1279   -0.9189   -1.3851 H   0  0  0  0  0  0  0  0  0  0  0  0
    4.8857   -0.7260    0.2217 H   0  0  0  0  0  0  0  0  0  0  0  0
    4.0957   -2.2634   -0.1842 H   0  0  0  0  0  0  0  0  0  0  0  0
    2.5785   -0.9443    1.7652 C   0  0  0  0  0  0  0  0  0  0  0  0
    2.7535   -2.0171    1.9787 H   0  0  0  0  0  0  0  0  0  0  0  0
    1.5795   -0.6500    2.1446 H   0  0  0  0  0  0  0  0  0  0  0  0
    3.3353   -0.3682    2.3307 H   0  0  0  0  0  0  0  0  0  0  0  0
    1.5169   -1.2074   -0.4890 N   0  0  0  0  0  0  0  0  0  0  0  0
    1.7582   -1.0920   -1.4881 H   0  0  0  0  0  0  0  0  0  0  0  0
    1.2781   -2.6463   -0.2562 C   0  0  0  0  0  0  0  0  0  0  0  0
    2.2091   -3.2424   -0.3387 H   0  0  0  0  0  0  0  0  0  0  0  0
    0.8488   -2.8083    0.7496 H   0  0  0  0  0  0  0  0  0  0  0  0
    0.5735   -3.0279   -1.0193 H   0  0  0  0  0  0  0  0  0  0  0  0
  1  2  1  0  0  0  0
  3  2  1  1  0  0  0
  3  4  1  0  0  0  0
  3  8  1  0  0  0  0
  4  5  1  0  0  0  0
  4  6  1  0  0  0  0
  7  4  1  0  0  0  0
  8 13  1  0  0  0  0
  9 12  1  0  0  0  0
  9 11  1  0  0  0  0
  9  8  1  0  0  0  0
 10  9  1  0  0  0  0
 13 14  1  0  0  0  0
 13 15  1  0  0  0  0
 13 16  1  0  0  0  0
 17 19  1  0  0  0  0
 17  8  1  0  0  0  0
 18 17  1  0  0  0  0
 19 21  1  0  0  0  0
 20 19  1  0  0  0  0
 22 19  1  0  0  0  0
M  END
