2,5
 OpenBabel05122313053D

 32 33  0  0  1  0  0  0  0  0999 V2000
   -4.1680    0.3652    0.5351 O   0  0  0  0  0  0  0  0  0  0  0  0
    0.3903    1.5068   -0.3657 N   0  0  0  0  0  2  0  0  0  0  0  0
   -1.5250    2.4544   -0.9386 N   0  0  0  0  0  0  0  0  0  0  0  0
   -2.0246   -0.3397    1.0251 N   0  0  0  0  0  0  0  0  0  0  0  0
    0.8363   -1.4577   -0.3013 N   0  0  0  0  0  2  0  0  0  0  0  0
   -0.7662   -2.8667   -0.8789 N   0  0  0  0  0  0  0  0  0  0  0  0
   -0.8946    1.6537   -0.0209 C   0  0  2  0  0  3  0  0  0  0  0  0
    0.6003    2.2136   -1.5243 C   0  0  0  0  0  0  0  0  0  0  0  0
    1.5902    2.2130   -1.9972 H   0  0  0  0  0  0  0  0  0  0  0  0
   -0.5870    2.8184   -1.8910 C   0  0  0  0  0  0  0  0  0  0  0  0
   -0.8482    3.4704   -2.7303 H   0  0  0  0  0  0  0  0  0  0  0  0
   -1.5119    1.0309    1.1966 C   0  0  0  0  0  0  0  0  0  0  0  0
   -0.7165    0.9966    1.9730 H   0  0  0  0  0  0  0  0  0  0  0  0
   -2.3573    1.6465    1.5585 H   0  0  0  0  0  0  0  0  0  0  0  0
   -2.9059    2.9204   -0.8964 C   0  0  0  0  0  0  0  0  0  0  0  0
   -3.5369    2.1663   -0.3858 H   0  0  0  0  0  0  0  0  0  0  0  0
   -3.2724    3.0542   -1.9311 H   0  0  0  0  0  0  0  0  0  0  0  0
   -2.9755    3.8918   -0.3655 H   0  0  0  0  0  0  0  0  0  0  0  0
   -0.3602   -1.9370    0.0478 C   0  0  2  0  0  3  0  0  0  0  0  0
    1.2142   -2.0680   -1.4718 C   0  0  0  0  0  0  0  0  0  0  0  0
    2.1681   -1.8031   -1.9450 H   0  0  0  0  0  0  0  0  0  0  0  0
    0.2240   -2.9559   -1.8460 C   0  0  0  0  0  0  0  0  0  0  0  0
    0.1366   -3.6424   -2.6939 H   0  0  0  0  0  0  0  0  0  0  0  0
   -1.1320   -1.4858    1.2537 C   0  0  0  0  0  0  0  0  0  0  0  0
   -1.7370   -2.3200    1.6622 H   0  0  0  0  0  0  0  0  0  0  0  0
   -0.3804   -1.1926    2.0204 H   0  0  0  0  0  0  0  0  0  0  0  0
   -2.0212   -3.5998   -0.8951 C   0  0  0  0  0  0  0  0  0  0  0  0
   -2.3034   -3.9059    0.1296 H   0  0  0  0  0  0  0  0  0  0  0  0
   -1.9008   -4.5128   -1.5061 H   0  0  0  0  0  0  0  0  0  0  0  0
   -2.8411   -2.9881   -1.3239 H   0  0  0  0  0  0  0  0  0  0  0  0
   -3.3500   -0.5245    0.7503 C   0  0  0  0  0  0  0  0  0  0  0  0
   -3.6361   -1.6138    0.7628 H   0  0  0  0  0  0  0  0  0  0  0  0
  1 31  2  0  0  0  0
  2  7  1  0  0  0  0
  3 15  1  0  0  0  0
  3  7  1  0  0  0  0
  4 12  1  0  0  0  0
  4 24  1  0  0  0  0
  5 19  1  0  0  0  0
  6 19  1  0  0  0  0
  7 12  1  1  0  0  0
  8  2  1  0  0  0  0
  9  8  1  0  0  0  0
 10  8  2  0  0  0  0
 10  3  1  0  0  0  0
 11 10  1  0  0  0  0
 12 14  1  0  0  0  0
 12 13  1  0  0  0  0
 15 16  1  0  0  0  0
 15 18  1  0  0  0  0
 17 15  1  0  0  0  0
 19 24  1  6  0  0  0
 20  5  1  0  0  0  0
 21 20  1  0  0  0  0
 22 20  2  0  0  0  0
 22  6  1  0  0  0  0
 23 22  1  0  0  0  0
 24 25  1  0  0  0  0
 24 26  1  0  0  0  0
 27  6  1  0  0  0  0
 27 28  1  0  0  0  0
 29 27  1  0  0  0  0
 30 27  1  0  0  0  0
 31 32  1  0  0  0  0
 31  4  1  0  0  0  0
M  END
