1,2
 OpenBabel05122313053D

 27 28  0  0  0  0  0  0  0  0999 V2000
   -0.4589    0.0176   -0.0559 N   0  0  0  0  0  2  0  0  0  0  0  0
    1.8914    1.2070    0.0435 N   0  0  0  0  0  2  0  0  0  0  0  0
   -1.7367   -0.3930   -0.1187 N   0  0  0  0  0  0  0  0  0  0  0  0
    3.1381    1.7193    0.1018 C   0  0  0  0  0  0  0  0  0  0  0  0
    3.3662    3.0976    0.1720 C   0  0  0  0  0  0  0  0  0  0  0  0
    2.2709    3.9753    0.1818 C   0  0  0  0  0  0  0  0  0  0  0  0
    0.9784    3.4436    0.1216 C   0  0  0  0  0  0  0  0  0  0  0  0
    0.8144    2.0499    0.0534 C   0  0  0  0  0  0  0  0  0  0  0  0
   -0.4738    1.3789   -0.0081 C   0  0  0  0  0  0  0  0  0  0  0  0
   -1.8054    1.8454   -0.0359 C   0  0  0  0  0  0  0  0  0  0  0  0
   -2.5789    0.6895   -0.1021 C   0  0  0  0  0  0  0  0  0  0  0  0
   -4.0758    0.5791   -0.1454 C   0  0  0  0  0  0  0  0  0  0  0  0
   -2.1075   -1.8131   -0.0906 C   0  0  0  0  0  0  0  0  0  0  0  0
   -2.1552   -2.3728    1.3272 C   0  0  0  0  0  0  0  0  0  0  0  0
   -2.4644   -3.4351    1.2801 H   0  0  0  0  0  0  0  0  0  0  0  0
   -2.8788   -1.8232    1.9597 H   0  0  0  0  0  0  0  0  0  0  0  0
   -1.1459   -2.3435    1.7805 H   0  0  0  0  0  0  0  0  0  0  0  0
   -4.6235    1.8096   -0.1242 F   0  0  0  0  0  0  0  0  0  0  0  0
   -4.5050   -0.0515   -1.2661 F   0  0  0  0  0  0  0  0  0  0  0  0
   -4.5643   -0.1151    0.9114 F   0  0  0  0  0  0  0  0  0  0  0  0
   -2.1726    2.8749   -0.0180 H   0  0  0  0  0  0  0  0  0  0  0  0
    4.3993    3.4696    0.2180 H   0  0  0  0  0  0  0  0  0  0  0  0
    3.9427    0.9635    0.0874 H   0  0  0  0  0  0  0  0  0  0  0  0
    0.0931    4.0945    0.1275 H   0  0  0  0  0  0  0  0  0  0  0  0
   -1.3328   -2.3495   -0.6759 H   0  0  0  0  0  0  0  0  0  0  0  0
   -3.0810   -1.8895   -0.6085 H   0  0  0  0  0  0  0  0  0  0  0  0
    2.4215    5.0635    0.2360 H   0  0  0  0  0  0  0  0  0  0  0  0
  1  9  1  0  0  0  0
  2  8  1  0  0  0  0
  2  4  1  0  0  0  0
  3 11  1  0  0  0  0
  3 13  1  0  0  0  0
  3  1  1  0  0  0  0
  4  5  2  0  0  0  0
  5  6  1  0  0  0  0
  5 22  1  0  0  0  0
  6 27  1  0  0  0  0
  7 24  1  0  0  0  0
  7  6  2  0  0  0  0
  8  7  1  0  0  0  0
  9  8  2  0  0  0  0
 10 21  1  0  0  0  0
 10  9  1  0  0  0  0
 11 10  2  0  0  0  0
 12 18  1  0  0  0  0
 12 11  1  0  0  0  0
 12 20  1  0  0  0  0
 13 14  1  0  0  0  0
 14 17  1  0  0  0  0
 14 16  1  0  0  0  0
 15 14  1  0  0  0  0
 19 12  1  0  0  0  0
 23  4  1  0  0  0  0
 25 13  1  0  0  0  0
 26 13  1  0  0  0  0
M  END
