1,2
 OpenBabel05122313053D

 32 35  0  0  0  0  0  0  0  0999 V2000
    0.0846   -1.2167   -0.4459 N   0  0  0  0  0  2  0  0  0  0  0  0
    0.0899    1.2214    0.3562 N   0  0  0  0  0  2  0  0  0  0  0  0
    0.2433   -2.5428   -0.7329 C   0  0  0  0  0  3  0  0  0  0  0  0
   -0.8222   -3.4176   -0.7638 C   0  0  0  0  0  0  0  0  0  0  0  0
   -2.1078   -2.9771   -0.3492 C   0  0  0  0  0  0  0  0  0  0  0  0
   -3.2014   -3.8779   -0.2107 C   0  0  0  0  0  0  0  0  0  0  0  0
   -4.3952   -3.4496    0.3475 C   0  0  0  0  0  0  0  0  0  0  0  0
   -4.5211   -2.1140    0.8130 C   0  0  0  0  0  0  0  0  0  0  0  0
   -3.4876   -1.2028    0.6525 C   0  0  0  0  0  0  0  0  0  0  0  0
   -2.2693   -1.5902    0.0198 C   0  0  0  0  0  0  0  0  0  0  0  0
   -1.1474   -0.7093   -0.1798 C   0  0  0  0  0  0  0  0  0  0  0  0
   -1.1356    0.7461    0.0129 C   0  0  0  0  0  0  0  0  0  0  0  0
   -2.2297    1.6584   -0.1946 C   0  0  0  0  0  0  0  0  0  0  0  0
   -3.4065    1.3316   -0.9308 C   0  0  0  0  0  3  0  0  0  0  0  0
   -4.4151    2.2696   -1.0984 C   0  0  0  0  0  0  0  0  0  0  0  0
   -4.3034    3.5676   -0.5335 C   0  0  0  0  0  0  0  0  0  0  0  0
   -3.1491    3.9352    0.1409 C   0  0  0  0  0  0  0  0  0  0  0  0
   -2.0796    3.0087    0.2928 C   0  0  0  0  0  0  0  0  0  0  0  0
   -0.8313    3.3805    0.8645 C   0  0  0  0  0  0  0  0  0  0  0  0
    0.2281    2.4981    0.8269 C   0  0  0  0  0  0  0  0  0  0  0  0
    1.2703   -2.8750   -0.9273 H   0  0  0  0  0  0  0  0  0  0  0  0
   -0.6582   -4.4688   -1.0403 H   0  0  0  0  0  0  0  0  0  0  0  0
   -3.0679   -4.9248   -0.5211 H   0  0  0  0  0  0  0  0  0  0  0  0
   -5.2336   -4.1515    0.4666 H   0  0  0  0  0  0  0  0  0  0  0  0
   -5.4446   -1.8002    1.3215 H   0  0  0  0  0  0  0  0  0  0  0  0
   -3.5997   -0.1878    1.0514 H   0  0  0  0  0  0  0  0  0  0  0  0
   -3.5034    0.3422   -1.3950 H   0  0  0  0  0  0  0  0  0  0  0  0
   -5.3074    2.0071   -1.6856 H   0  0  0  0  0  0  0  0  0  0  0  0
   -5.1229    4.2903   -0.6600 H   0  0  0  0  0  0  0  0  0  0  0  0
   -3.0307    4.9530    0.5413 H   0  0  0  0  0  0  0  0  0  0  0  0
   -0.6883    4.3874    1.2818 H   0  0  0  0  0  0  0  0  0  0  0  0
    1.2271    2.7702    1.1896 H   0  0  0  0  0  0  0  0  0  0  0  0
  1 11  1  0  0  0  0
  2 20  1  0  0  0  0
  3  1  1  0  0  0  0
  4  3  1  0  0  0  0
  4  5  2  0  0  0  0
  5  6  1  0  0  0  0
  5 10  1  0  0  0  0
  6  7  2  0  0  0  0
  7 24  1  0  0  0  0
  7  8  1  0  0  0  0
  8 25  1  0  0  0  0
  9  8  2  0  0  0  0
  9 26  1  0  0  0  0
 10  9  1  0  0  0  0
 11 12  1  0  0  0  0
 11 10  2  0  0  0  0
 12  2  1  0  0  0  0
 13 12  2  0  0  0  0
 13 18  1  0  0  0  0
 14 13  1  0  0  0  0
 15 14  1  0  0  0  0
 15 16  2  0  0  0  0
 16 17  1  0  0  0  0
 17 18  2  0  0  0  0
 17 30  1  0  0  0  0
 18 19  1  0  0  0  0
 19 31  1  0  0  0  0
 20 19  2  0  0  0  0
 20 32  1  0  0  0  0
 21  3  1  0  0  0  0
 22  4  1  0  0  0  0
 23  6  1  0  0  0  0
 27 14  1  0  0  0  0
 28 15  1  0  0  0  0
 29 16  1  0  0  0  0
M  END
