6,29
 OpenBabel05122313053D

 46 47  0  0  0  0  0  0  0  0999 V2000
   -8.2373   -3.8466    0.7072 F   0  0  0  0  0  0  0  0  0  0  0  0
   -7.7247   -1.7355    1.1323 F   0  0  0  0  0  0  0  0  0  0  0  0
   -7.0491   -3.5148   -1.8370 F   0  0  0  0  0  0  0  0  0  0  0  0
   -8.8129   -2.2569   -1.3791 F   0  0  0  0  0  0  0  0  0  0  0  0
   -5.0736   -2.2624    0.4406 O   0  0  0  0  0  0  0  0  0  0  0  0
   -1.3003    0.9724    0.2220 N   0  0  0  0  0  2  0  0  0  0  0  0
   -0.7257   -0.2655    0.1254 C   0  0  0  0  0  0  0  0  0  0  0  0
   -1.5011   -1.4291    0.2551 C   0  0  0  0  0  0  0  0  0  0  0  0
   -1.0261   -2.4162    0.1635 H   0  0  0  0  0  0  0  0  0  0  0  0
   -2.8796   -1.3340    0.4949 C   0  0  0  0  0  0  0  0  0  0  0  0
   -3.4456   -0.0499    0.5869 C   0  0  0  0  0  0  0  0  0  0  0  0
   -4.5230    0.0661    0.7651 H   0  0  0  0  0  0  0  0  0  0  0  0
   -2.6272    1.0725    0.4442 C   0  0  0  0  0  0  0  0  0  0  0  0
   -3.0066    2.1081    0.5049 H   0  0  0  0  0  0  0  0  0  0  0  0
   -3.7211   -2.5709    0.6807 C   0  0  0  0  0  0  0  0  0  0  0  0
   -3.3645   -3.3871    0.0045 H   0  0  0  0  0  0  0  0  0  0  0  0
   -3.5847   -2.9474    1.7273 H   0  0  0  0  0  0  0  0  0  0  0  0
   -5.9683   -3.2894    0.7954 C   0  0  0  0  0  0  0  0  0  0  0  0
   -5.9653   -3.4918    1.8933 H   0  0  0  0  0  0  0  0  0  0  0  0
   -5.7499   -4.2416    0.2585 H   0  0  0  0  0  0  0  0  0  0  0  0
   -7.3698   -2.8386    0.4062 C   0  0  0  0  0  0  0  0  0  0  0  0
   -7.5087   -2.4693   -1.0861 C   0  0  0  0  0  0  0  0  0  0  0  0
   -6.9134   -1.5601   -1.3225 H   0  0  0  0  0  0  0  0  0  0  0  0
    8.2373   -3.8467   -0.7072 F   0  0  0  0  0  0  0  0  0  0  0  0
    7.7246   -1.7356   -1.1323 F   0  0  0  0  0  0  0  0  0  0  0  0
    7.0491   -3.5148    1.8370 F   0  0  0  0  0  0  0  0  0  0  0  0
    8.8129   -2.2570    1.3791 F   0  0  0  0  0  0  0  0  0  0  0  0
    5.0736   -2.2625   -0.4406 O   0  0  0  0  0  0  0  0  0  0  0  0
    1.3003    0.9724   -0.2220 N   0  0  0  0  0  2  0  0  0  0  0  0
    0.7257   -0.2655   -0.1254 C   0  0  0  0  0  0  0  0  0  0  0  0
    1.5011   -1.4291   -0.2551 C   0  0  0  0  0  0  0  0  0  0  0  0
    1.0260   -2.4163   -0.1635 H   0  0  0  0  0  0  0  0  0  0  0  0
    2.8795   -1.3340   -0.4949 C   0  0  0  0  0  0  0  0  0  0  0  0
    3.4455   -0.0499   -0.5869 C   0  0  0  0  0  0  0  0  0  0  0  0
    4.5229    0.0661   -0.7650 H   0  0  0  0  0  0  0  0  0  0  0  0
    2.6272    1.0725   -0.4441 C   0  0  0  0  0  0  0  0  0  0  0  0
    3.0066    2.1081   -0.5049 H   0  0  0  0  0  0  0  0  0  0  0  0
    3.7210   -2.5709   -0.6807 C   0  0  0  0  0  0  0  0  0  0  0  0
    3.3644   -3.3871   -0.0044 H   0  0  0  0  0  0  0  0  0  0  0  0
    3.5846   -2.9474   -1.7273 H   0  0  0  0  0  0  0  0  0  0  0  0
    5.9683   -3.2894   -0.7954 C   0  0  0  0  0  0  0  0  0  0  0  0
    5.9652   -3.4919   -1.8933 H   0  0  0  0  0  0  0  0  0  0  0  0
    5.7499   -4.2416   -0.2585 H   0  0  0  0  0  0  0  0  0  0  0  0
    7.3697   -2.8386   -0.4062 C   0  0  0  0  0  0  0  0  0  0  0  0
    7.5087   -2.4694    1.0861 C   0  0  0  0  0  0  0  0  0  0  0  0
    6.9134   -1.5601    1.3225 H   0  0  0  0  0  0  0  0  0  0  0  0
  3 22  1  0  0  0  0
  4 22  1  0  0  0  0
  5 15  1  0  0  0  0
  5 18  1  0  0  0  0
  6 13  1  0  0  0  0
  7  6  1  0  0  0  0
  7  8  1  0  0  0  0
  8 10  2  0  0  0  0
  9  8  1  0  0  0  0
 10 11  1  0  0  0  0
 10 15  1  0  0  0  0
 11 12  1  0  0  0  0
 13 14  1  0  0  0  0
 13 11  2  0  0  0  0
 15 17  1  0  0  0  0
 16 15  1  0  0  0  0
 18 19  1  0  0  0  0
 20 18  1  0  0  0  0
 21  1  1  0  0  0  0
 21 18  1  0  0  0  0
 21  2  1  0  0  0  0
 22 21  1  0  0  0  0
 23 22  1  0  0  0  0
 24 44  1  0  0  0  0
 25 44  1  0  0  0  0
 29 30  1  0  0  0  0
 30  7  2  0  0  0  0
 31 32  1  0  0  0  0
 31 30  1  0  0  0  0
 33 31  2  0  0  0  0
 34 33  1  0  0  0  0
 34 36  2  0  0  0  0
 35 34  1  0  0  0  0
 36 29  1  0  0  0  0
 37 36  1  0  0  0  0
 38 33  1  0  0  0  0
 38 28  1  0  0  0  0
 38 39  1  0  0  0  0
 40 38  1  0  0  0  0
 41 28  1  0  0  0  0
 41 44  1  0  0  0  0
 41 43  1  0  0  0  0
 42 41  1  0  0  0  0
 44 45  1  0  0  0  0
 45 46  1  0  0  0  0
 45 27  1  0  0  0  0
 45 26  1  0  0  0  0
M  END
