1,3
 OpenBabel05122313053D

 35 39  0  0  1  0  0  0  0  0999 V2000
   -1.3231    0.9177   -1.4560 N   0  0  0  0  0  0  0  0  0  0  0  0
   -2.1251    1.6210   -3.4917 N   0  0  0  0  0  0  0  0  0  0  0  0
    0.8651    2.4006   -1.5219 N   0  0  0  0  0  2  0  0  0  0  0  0
   -1.5123   -0.6488    0.8775 O   0  0  0  0  0  0  0  0  0  0  0  0
   -6.2840   -2.5714   -0.9428 O   0  0  0  0  0  0  0  0  0  0  0  0
   -2.4996    0.2785   -1.6591 C   0  0  0  0  0  0  0  0  0  0  0  0
   -3.1760   -0.6524   -0.8424 C   0  0  0  0  0  0  0  0  0  0  0  0
   -2.6045   -1.0768    0.4437 C   0  0  0  0  0  0  0  0  0  0  0  0
   -3.3863   -2.0622    1.2411 C   0  0  0  0  0  0  0  0  0  0  0  0
   -2.8833   -2.4997    2.4812 C   0  0  0  0  0  0  0  0  0  0  0  0
   -1.9185   -2.0936    2.8188 H   0  0  0  0  0  0  0  0  0  0  0  0
   -3.6040   -3.4248    3.2461 C   0  0  0  0  0  0  0  0  0  0  0  0
   -3.2067   -3.7649    4.2145 H   0  0  0  0  0  0  0  0  0  0  0  0
   -4.8347   -3.9202    2.7765 C   0  0  0  0  0  0  0  0  0  0  0  0
   -5.3999   -4.6480    3.3786 H   0  0  0  0  0  0  0  0  0  0  0  0
   -5.3415   -3.4896    1.5435 C   0  0  0  0  0  0  0  0  0  0  0  0
   -6.2994   -3.8565    1.1459 H   0  0  0  0  0  0  0  0  0  0  0  0
   -4.6264   -2.5610    0.7669 C   0  0  0  0  0  0  0  0  0  0  0  0
   -5.2031   -2.1260   -0.5491 C   0  0  0  0  0  0  0  0  0  0  0  0
   -4.4145   -1.1443   -1.3394 C   0  0  0  0  0  0  0  0  0  0  0  0
   -4.9195   -0.7110   -2.5926 C   0  0  0  0  0  0  0  0  0  0  0  0
   -5.8831   -1.1374   -2.9082 H   0  0  0  0  0  0  0  0  0  0  0  0
   -4.2389    0.2099   -3.4002 C   0  0  0  0  0  3  0  0  0  0  0  0
   -4.6491    0.5297   -4.3695 H   0  0  0  0  0  0  0  0  0  0  0  0
   -3.0074    0.7217   -2.9398 C   0  0  0  0  0  0  0  0  0  0  0  0
   -1.1511    1.6963   -2.5705 C   0  0  0  0  0  0  0  0  0  0  0  0
    0.0688    2.5065   -2.6188 C   0  0  2  0  0  3  0  0  0  0  0  0
    2.0130    3.0889   -1.4771 C   0  0  0  0  0  0  0  0  0  0  0  0
    2.6211    2.9581   -0.5658 H   0  0  0  0  0  0  0  0  0  0  0  0
    2.4307    3.9281   -2.5213 C   0  0  0  0  0  0  0  0  0  0  0  0
    3.3816    4.4742   -2.4441 H   0  0  0  0  0  0  0  0  0  0  0  0
    1.6077    4.0473   -3.6544 C   0  0  0  0  0  0  0  0  0  0  0  0
    1.9042    4.6973   -4.4917 H   0  0  0  0  0  0  0  0  0  0  0  0
    0.4086    3.3286   -3.7098 C   0  0  0  0  0  0  0  0  0  0  0  0
   -0.2759    3.3751   -4.5683 H   0  0  0  0  0  0  0  0  0  0  0  0
  2 25  2  0  0  0  0
  2 26  1  0  0  0  0
  3 28  1  0  0  0  0
  5 19  2  0  0  0  0
  6  1  1  0  0  0  0
  6  7  2  0  0  0  0
  7  8  1  0  0  0  0
  8  4  2  0  0  0  0
  8  9  1  0  0  0  0
  9 10  1  0  0  0  0
 10 11  1  0  0  0  0
 10 12  2  0  0  0  0
 12 13  1  0  0  0  0
 14 12  1  0  0  0  0
 14 15  1  0  0  0  0
 16 14  2  0  0  0  0
 17 16  1  0  0  0  0
 18  9  2  0  0  0  0
 18 16  1  0  0  0  0
 19 18  1  0  0  0  0
 20  7  1  0  0  0  0
 20 19  1  0  0  0  0
 21 20  2  0  0  0  0
 22 21  1  0  0  0  0
 23 25  1  0  0  0  0
 23 21  1  0  0  0  0
 24 23  1  0  0  0  0
 25  6  1  0  0  0  0
 26  1  2  0  0  0  0
 27 26  1  6  0  0  0
 27  3  1  0  0  0  0
 28 29  1  0  0  0  0
 30 31  1  0  0  0  0
 30 28  2  0  0  0  0
 32 30  1  0  0  0  0
 33 32  1  0  0  0  0
 34 32  2  0  0  0  0
 34 27  1  0  0  0  0
 35 34  1  0  0  0  0
M  END
