1,2
 OpenBabel05122313053D

 40 42  0  0  1  0  0  0  0  0999 V2000
   -0.5663    1.5525    0.4037 N   0  0  0  0  0  2  0  0  0  0  0  0
    1.3893   -0.2077    0.1344 N   0  0  0  0  0  2  0  0  0  0  0  0
    0.6913    1.9476    0.8365 C   0  0  0  0  0  0  0  0  0  0  0  0
    1.0111    3.1937    1.4056 C   0  0  0  0  0  0  0  0  0  0  0  0
    0.2153    3.9379    1.5485 H   0  0  0  0  0  0  0  0  0  0  0  0
    2.3408    3.4929    1.7825 C   0  0  0  0  0  0  0  0  0  0  0  0
    2.5539    4.4800    2.2212 H   0  0  0  0  0  0  0  0  0  0  0  0
    3.3785    2.5823    1.6092 C   0  0  0  0  0  0  0  0  0  0  0  0
    4.4037    2.8447    1.9019 H   0  0  0  0  0  0  0  0  0  0  0  0
    3.0995    1.3039    1.0467 C   0  0  0  0  0  0  0  0  0  0  0  0
    1.7551    0.9939    0.6758 C   0  0  2  0  0  3  0  0  0  0  0  0
    4.0910    0.2957    0.8032 C   0  0  0  0  0  0  0  0  0  0  0  0
    3.6755   -0.9094    0.2494 C   0  0  0  0  0  0  0  0  0  0  0  0
    4.4104   -1.7017    0.0462 H   0  0  0  0  0  0  0  0  0  0  0  0
    2.3174   -1.1552   -0.0723 C   0  0  0  0  0  0  0  0  0  0  0  0
   -1.6165    2.5100    0.5835 C   0  0  0  0  0  0  0  0  0  0  0  0
   -1.8809    3.4647   -0.4324 C   0  0  0  0  0  0  0  0  0  0  0  0
   -2.9446    4.3691   -0.2528 C   0  0  0  0  0  0  0  0  0  0  0  0
   -3.1577    5.1041   -1.0450 H   0  0  0  0  0  0  0  0  0  0  0  0
   -3.7253    4.3458    0.9101 C   0  0  0  0  0  0  0  0  0  0  0  0
   -4.5552    5.0577    1.0339 H   0  0  0  0  0  0  0  0  0  0  0  0
   -3.4380    3.4161    1.9182 C   0  0  0  0  0  0  0  0  0  0  0  0
   -4.0393    3.3999    2.8410 H   0  0  0  0  0  0  0  0  0  0  0  0
   -2.3828    2.4947    1.7777 C   0  0  0  0  0  0  0  0  0  0  0  0
   -1.0405    3.5053   -1.6803 C   0  0  0  0  0  0  0  0  0  0  0  0
   -1.3683    4.3159   -2.3581 H   0  0  0  0  0  0  0  0  0  0  0  0
   -1.0938    2.5489   -2.2411 H   0  0  0  0  0  0  0  0  0  0  0  0
    0.0309    3.6691   -1.4406 H   0  0  0  0  0  0  0  0  0  0  0  0
   -2.0798    1.5007    2.8664 C   0  0  0  0  0  0  0  0  0  0  0  0
   -2.2639    0.4579    2.5310 H   0  0  0  0  0  0  0  0  0  0  0  0
   -2.7063    1.6822    3.7601 H   0  0  0  0  0  0  0  0  0  0  0  0
   -1.0151    1.5460    3.1743 H   0  0  0  0  0  0  0  0  0  0  0  0
    5.5362    0.5443    1.1231 C   0  0  0  0  0  0  0  0  0  0  0  0
    6.1613   -0.3363    0.8851 H   0  0  0  0  0  0  0  0  0  0  0  0
    5.6730    0.7895    2.1966 H   0  0  0  0  0  0  0  0  0  0  0  0
    5.9229    1.4105    0.5466 H   0  0  0  0  0  0  0  0  0  0  0  0
    1.9050   -2.4920   -0.6067 C   0  0  0  0  0  0  0  0  0  0  0  0
    1.7622   -3.1981    0.2378 H   0  0  0  0  0  0  0  0  0  0  0  0
    2.6798   -2.8988   -1.2816 H   0  0  0  0  0  0  0  0  0  0  0  0
    0.9518   -2.4409   -1.1695 H   0  0  0  0  0  0  0  0  0  0  0  0
  1 16  1  0  0  0  0
  1  3  1  0  0  0  0
  3  4  2  0  0  0  0
  4  5  1  0  0  0  0
  4  6  1  0  0  0  0
  6  7  1  0  0  0  0
  8  6  2  0  0  0  0
  8  9  1  0  0  0  0
 10  8  1  0  0  0  0
 11  2  1  6  0  0  0
 11  3  1  0  0  0  0
 11 10  1  0  0  0  0
 12 10  2  0  0  0  0
 12 33  1  0  0  0  0
 13 12  1  0  0  0  0
 14 13  1  0  0  0  0
 15  2  1  0  0  0  0
 15 13  2  0  0  0  0
 16 24  1  0  0  0  0
 17 18  1  0  0  0  0
 17 16  2  0  0  0  0
 18 20  2  0  0  0  0
 19 18  1  0  0  0  0
 20 21  1  0  0  0  0
 20 22  1  0  0  0  0
 22 23  1  0  0  0  0
 24 22  2  0  0  0  0
 24 29  1  0  0  0  0
 25 28  1  0  0  0  0
 25 17  1  0  0  0  0
 26 25  1  0  0  0  0
 27 25  1  0  0  0  0
 29 32  1  0  0  0  0
 29 31  1  0  0  0  0
 30 29  1  0  0  0  0
 33 35  1  0  0  0  0
 34 33  1  0  0  0  0
 36 33  1  0  0  0  0
 37 15  1  0  0  0  0
 37 38  1  0  0  0  0
 39 37  1  0  0  0  0
 40 37  1  0  0  0  0
M  END
