1,2
 OpenBabel05122313053D

 76 79  0  0  0  0  0  0  0  0999 V2000
    0.6211   -3.1389    0.1073 N   0  0  0  0  0  2  0  0  0  0  0  0
   -2.0072   -2.8647    0.2744 N   0  0  0  0  0  2  0  0  0  0  0  0
    8.4865    4.4193   -0.4021 N   0  0  0  0  0  0  0  0  0  0  0  0
   -6.1928    7.2227    0.3401 N   0  0  0  0  0  0  0  0  0  0  0  0
    0.1677   -1.8516    0.1094 C   0  0  0  0  0  0  0  0  0  0  0  0
    1.0586   -0.7713    0.0594 C   0  0  0  0  0  0  0  0  0  0  0  0
    0.6707    0.2564    0.0647 H   0  0  0  0  0  0  0  0  0  0  0  0
    2.4569   -0.9712   -0.0024 C   0  0  0  0  0  0  0  0  0  0  0  0
    2.8892   -2.3243   -0.0026 C   0  0  0  0  0  0  0  0  0  0  0  0
    3.9555   -2.5833   -0.0505 H   0  0  0  0  0  0  0  0  0  0  0  0
    1.9569   -3.3519    0.0521 C   0  0  0  0  0  0  0  0  0  0  0  0
    2.2726   -4.4047    0.0438 H   0  0  0  0  0  0  0  0  0  0  0  0
    3.3495    0.1741   -0.0592 C   0  0  0  0  0  0  0  0  0  0  0  0
    2.8486    1.1566   -0.0533 H   0  0  0  0  0  0  0  0  0  0  0  0
    4.7147    0.1253   -0.1193 C   0  0  0  0  0  0  0  0  0  0  0  0
    5.1985   -0.8669   -0.1254 H   0  0  0  0  0  0  0  0  0  0  0  0
    5.6396    1.2411   -0.1807 C   0  0  0  0  0  0  0  0  0  0  0  0
    5.2416    2.6033   -0.1803 C   0  0  0  0  0  0  0  0  0  0  0  0
    4.1726    2.8594   -0.1307 H   0  0  0  0  0  0  0  0  0  0  0  0
    6.1640    3.6419   -0.2357 C   0  0  0  0  0  0  0  0  0  0  0  0
    5.7874    4.6723   -0.2237 H   0  0  0  0  0  0  0  0  0  0  0  0
    7.5695    3.3897   -0.3073 C   0  0  0  0  0  0  0  0  0  0  0  0
    7.9733    2.0218   -0.2951 C   0  0  0  0  0  0  0  0  0  0  0  0
    9.0368    1.7552   -0.3298 H   0  0  0  0  0  0  0  0  0  0  0  0
    7.0347    0.9951   -0.2392 C   0  0  0  0  0  0  0  0  0  0  0  0
    7.3902   -0.0477   -0.2364 H   0  0  0  0  0  0  0  0  0  0  0  0
    8.0592    5.8136   -0.3465 C   0  0  0  0  0  0  0  0  0  0  0  0
    7.1650    5.9424   -0.9928 H   0  0  0  0  0  0  0  0  0  0  0  0
    8.8586    6.4192   -0.8203 H   0  0  0  0  0  0  0  0  0  0  0  0
    7.7710    6.3462    1.0620 C   0  0  0  0  0  0  0  0  0  0  0  0
    7.4188    7.3966    1.0142 H   0  0  0  0  0  0  0  0  0  0  0  0
    8.6780    6.3198    1.6974 H   0  0  0  0  0  0  0  0  0  0  0  0
    6.9888    5.7453    1.5669 H   0  0  0  0  0  0  0  0  0  0  0  0
    9.9201    4.1452   -0.4150 C   0  0  0  0  0  0  0  0  0  0  0  0
   10.4161    5.0204   -0.8821 H   0  0  0  0  0  0  0  0  0  0  0  0
   10.1160    3.2913   -1.0978 H   0  0  0  0  0  0  0  0  0  0  0  0
   10.5386    3.8711    0.9607 C   0  0  0  0  0  0  0  0  0  0  0  0
   11.6171    3.6340    0.8597 H   0  0  0  0  0  0  0  0  0  0  0  0
   10.0452    3.0137    1.4600 H   0  0  0  0  0  0  0  0  0  0  0  0
   10.4443    4.7498    1.6287 H   0  0  0  0  0  0  0  0  0  0  0  0
   -1.3004   -1.6963    0.1969 C   0  0  0  0  0  0  0  0  0  0  0  0
   -1.9418   -0.4534    0.2258 C   0  0  0  0  0  0  0  0  0  0  0  0
   -1.3382    0.4602    0.1591 H   0  0  0  0  0  0  0  0  0  0  0  0
   -3.3497   -0.3594    0.3322 C   0  0  0  0  0  0  0  0  0  0  0  0
   -4.0470   -1.5921    0.4167 C   0  0  0  0  0  0  0  0  0  0  0  0
   -5.1433   -1.6053    0.5015 H   0  0  0  0  0  0  0  0  0  0  0  0
   -3.3521   -2.7965    0.3833 C   0  0  0  0  0  0  0  0  0  0  0  0
   -3.8792   -3.7597    0.4350 H   0  0  0  0  0  0  0  0  0  0  0  0
   -4.0836    0.8954    0.3561 C   0  0  0  0  0  0  0  0  0  0  0  0
   -5.1770    0.7889    0.4478 H   0  0  0  0  0  0  0  0  0  0  0  0
   -3.5459    2.1494    0.2711 C   0  0  0  0  0  0  0  0  0  0  0  0
   -2.4496    2.2417    0.1763 H   0  0  0  0  0  0  0  0  0  0  0  0
   -4.2518    3.4168    0.2872 C   0  0  0  0  0  0  0  0  0  0  0  0
   -3.5260    4.6298    0.1791 C   0  0  0  0  0  0  0  0  0  0  0  0
   -2.4291    4.5852    0.0855 H   0  0  0  0  0  0  0  0  0  0  0  0
   -4.1474    5.8758    0.1793 C   0  0  0  0  0  0  0  0  0  0  0  0
   -3.5216    6.7715    0.0821 H   0  0  0  0  0  0  0  0  0  0  0  0
   -5.5638    5.9929    0.3011 C   0  0  0  0  0  0  0  0  0  0  0  0
   -6.2998    4.7713    0.3998 C   0  0  0  0  0  0  0  0  0  0  0  0
   -7.3938    4.7898    0.4789 H   0  0  0  0  0  0  0  0  0  0  0  0
   -5.6618    3.5365    0.3973 C   0  0  0  0  0  0  0  0  0  0  0  0
   -6.2818    2.6312    0.4786 H   0  0  0  0  0  0  0  0  0  0  0  0
   -7.6481    7.3212    0.3997 C   0  0  0  0  0  0  0  0  0  0  0  0
   -7.8908    8.3225    0.8105 H   0  0  0  0  0  0  0  0  0  0  0  0
   -8.0277    6.5925    1.1471 H   0  0  0  0  0  0  0  0  0  0  0  0
   -8.3656    7.1223   -0.9403 C   0  0  0  0  0  0  0  0  0  0  0  0
   -9.4645    7.1753   -0.8024 H   0  0  0  0  0  0  0  0  0  0  0  0
   -8.1237    6.1360   -1.3839 H   0  0  0  0  0  0  0  0  0  0  0  0
   -8.0765    7.9011   -1.6732 H   0  0  0  0  0  0  0  0  0  0  0  0
   -5.4326    8.4571    0.1715 C   0  0  0  0  0  0  0  0  0  0  0  0
   -4.5098    8.3973    0.7872 H   0  0  0  0  0  0  0  0  0  0  0  0
   -6.0351    9.2754    0.6159 H   0  0  0  0  0  0  0  0  0  0  0  0
   -5.0756    8.8039   -1.2786 C   0  0  0  0  0  0  0  0  0  0  0  0
   -4.4669    9.7300   -1.3164 H   0  0  0  0  0  0  0  0  0  0  0  0
   -5.9845    8.9686   -1.8901 H   0  0  0  0  0  0  0  0  0  0  0  0
   -4.4923    7.9909   -1.7546 H   0  0  0  0  0  0  0  0  0  0  0  0
  1  5  1  0  0  0  0
  2 47  1  0  0  0  0
  3 27  1  0  0  0  0
  3 22  1  0  0  0  0
  4 63  1  0  0  0  0
  5 41  2  0  0  0  0
  6  7  1  0  0  0  0
  6  5  1  0  0  0  0
  8  6  2  0  0  0  0
  9  8  1  0  0  0  0
  9 11  2  0  0  0  0
 10  9  1  0  0  0  0
 11  1  1  0  0  0  0
 12 11  1  0  0  0  0
 13 14  1  0  0  0  0
 13  8  1  0  0  0  0
 15 13  2  0  0  0  0
 16 15  1  0  0  0  0
 17 18  1  0  0  0  0
 17 15  1  0  0  0  0
 18 19  1  0  0  0  0
 20 21  1  0  0  0  0
 20 18  2  0  0  0  0
 22 23  2  0  0  0  0
 22 20  1  0  0  0  0
 23 25  1  0  0  0  0
 24 23  1  0  0  0  0
 25 26  1  0  0  0  0
 25 17  2  0  0  0  0
 27 30  1  0  0  0  0
 28 27  1  0  0  0  0
 29 27  1  0  0  0  0
 30 33  1  0  0  0  0
 30 32  1  0  0  0  0
 31 30  1  0  0  0  0
 34  3  1  0  0  0  0
 34 37  1  0  0  0  0
 35 34  1  0  0  0  0
 36 34  1  0  0  0  0
 37 39  1  0  0  0  0
 37 40  1  0  0  0  0
 38 37  1  0  0  0  0
 41 42  1  0  0  0  0
 41  2  1  0  0  0  0
 42 44  2  0  0  0  0
 43 42  1  0  0  0  0
 44 49  1  0  0  0  0
 44 45  1  0  0  0  0
 45 46  1  0  0  0  0
 47 45  2  0  0  0  0
 47 48  1  0  0  0  0
 49 50  1  0  0  0  0
 51 53  1  0  0  0  0
 51 49  2  0  0  0  0
 52 51  1  0  0  0  0
 53 61  1  0  0  0  0
 54 56  1  0  0  0  0
 54 53  2  0  0  0  0
 55 54  1  0  0  0  0
 56 58  2  0  0  0  0
 57 56  1  0  0  0  0
 58  4  1  0  0  0  0
 58 59  1  0  0  0  0
 59 60  1  0  0  0  0
 61 59  2  0  0  0  0
 61 62  1  0  0  0  0
 63 64  1  0  0  0  0
 63 65  1  0  0  0  0
 66 67  1  0  0  0  0
 66 63  1  0  0  0  0
 68 66  1  0  0  0  0
 69 66  1  0  0  0  0
 70  4  1  0  0  0  0
 70 72  1  0  0  0  0
 70 71  1  0  0  0  0
 73 70  1  0  0  0  0
 74 73  1  0  0  0  0
 75 73  1  0  0  0  0
 76 73  1  0  0  0  0
M  END
