1,2
 OpenBabel05122313053D

 46 47  0  0  0  0  0  0  0  0999 V2000
    1.2769    0.2496    0.0272 N   0  0  0  0  0  2  0  0  0  0  0  0
   -1.2769    0.2495   -0.0272 N   0  0  0  0  0  2  0  0  0  0  0  0
    0.7256    1.4591    0.0536 C   0  0  0  0  0  0  0  0  0  0  0  0
   -0.7257    1.4591   -0.0538 C   0  0  0  0  0  0  0  0  0  0  0  0
   -2.6958    0.0298    0.0108 C   0  0  0  0  0  0  0  0  0  0  0  0
   -3.3337    0.1023    1.2701 C   0  0  0  0  0  0  0  0  0  0  0  0
   -4.7128   -0.1725    1.3066 C   0  0  0  0  0  0  0  0  0  0  0  0
   -5.4149   -0.5092    0.1427 C   0  0  0  0  0  0  0  0  0  0  0  0
   -4.7433   -0.5965   -1.0843 C   0  0  0  0  0  0  0  0  0  0  0  0
   -3.3652   -0.3419   -1.1775 C   0  0  0  0  0  0  0  0  0  0  0  0
   -2.5511    0.3924    2.5239 C   0  0  0  0  0  0  0  0  0  0  0  0
   -2.6210   -0.4501   -2.4789 C   0  0  0  0  0  0  0  0  0  0  0  0
    2.6958    0.0299   -0.0107 C   0  0  0  0  0  0  0  0  0  0  0  0
    3.3651   -0.3419    1.1778 C   0  0  0  0  0  0  0  0  0  0  0  0
    4.7432   -0.5965    1.0847 C   0  0  0  0  0  0  0  0  0  0  0  0
    5.4149   -0.5091   -0.1422 C   0  0  0  0  0  0  0  0  0  0  0  0
    4.7130   -0.1724   -1.3062 C   0  0  0  0  0  0  0  0  0  0  0  0
    3.3339    0.1025   -1.2699 C   0  0  0  0  0  0  0  0  0  0  0  0
    2.6207   -0.4501    2.4791 C   0  0  0  0  0  0  0  0  0  0  0  0
    2.5515    0.3927   -2.5238 C   0  0  0  0  0  0  0  0  0  0  0  0
    1.5519    2.7395    0.2445 C   0  0  0  0  0  0  0  0  0  0  0  0
   -1.5521    2.7394   -0.2446 C   0  0  0  0  0  0  0  0  0  0  0  0
    2.6944    2.5134    0.9134 F   0  0  0  0  0  0  0  0  0  0  0  0
    1.8722    3.3072   -0.9387 F   0  0  0  0  0  0  0  0  0  0  0  0
    0.8483    3.6342    0.9713 F   0  0  0  0  0  0  0  0  0  0  0  0
   -0.8486    3.6342   -0.9714 F   0  0  0  0  0  0  0  0  0  0  0  0
   -1.8723    3.3070    0.9386 F   0  0  0  0  0  0  0  0  0  0  0  0
   -2.6946    2.5131   -0.9134 F   0  0  0  0  0  0  0  0  0  0  0  0
   -5.2334   -0.1335    2.2757 H   0  0  0  0  0  0  0  0  0  0  0  0
   -6.4934   -0.7198    0.1942 H   0  0  0  0  0  0  0  0  0  0  0  0
   -5.2917   -0.8769   -1.9965 H   0  0  0  0  0  0  0  0  0  0  0  0
   -3.2012    0.3297    3.4161 H   0  0  0  0  0  0  0  0  0  0  0  0
   -2.0951    1.4030    2.5101 H   0  0  0  0  0  0  0  0  0  0  0  0
   -1.7249   -0.3406    2.6458 H   0  0  0  0  0  0  0  0  0  0  0  0
   -3.3085   -0.6856   -3.3123 H   0  0  0  0  0  0  0  0  0  0  0  0
   -2.0905    0.4923   -2.7273 H   0  0  0  0  0  0  0  0  0  0  0  0
   -1.8555   -1.2530   -2.4218 H   0  0  0  0  0  0  0  0  0  0  0  0
    5.2914   -0.8769    1.9970 H   0  0  0  0  0  0  0  0  0  0  0  0
    6.4935   -0.7197   -0.1936 H   0  0  0  0  0  0  0  0  0  0  0  0
    5.2338   -0.1333   -2.2752 H   0  0  0  0  0  0  0  0  0  0  0  0
    3.3081   -0.6856    3.3125 H   0  0  0  0  0  0  0  0  0  0  0  0
    2.0901    0.4923    2.7274 H   0  0  0  0  0  0  0  0  0  0  0  0
    1.8552   -1.2530    2.4218 H   0  0  0  0  0  0  0  0  0  0  0  0
    3.2018    0.3303   -3.4158 H   0  0  0  0  0  0  0  0  0  0  0  0
    2.0952    1.4032   -2.5098 H   0  0  0  0  0  0  0  0  0  0  0  0
    1.7255   -0.3405   -2.6459 H   0  0  0  0  0  0  0  0  0  0  0  0
  1  3  1  0  0  0  0
  2  5  1  0  0  0  0
  3 21  1  0  0  0  0
  4  2  1  0  0  0  0
  4  3  2  0  0  0  0
  5  6  1  0  0  0  0
  6  7  2  0  0  0  0
  6 11  1  0  0  0  0
  7 29  1  0  0  0  0
  8 30  1  0  0  0  0
  8  7  1  0  0  0  0
  9  8  2  0  0  0  0
 10  9  1  0  0  0  0
 10  5  2  0  0  0  0
 11 34  1  0  0  0  0
 11 32  1  0  0  0  0
 12 37  1  0  0  0  0
 12 10  1  0  0  0  0
 13  1  1  0  0  0  0
 13 14  1  0  0  0  0
 14 19  1  0  0  0  0
 15 14  2  0  0  0  0
 15 38  1  0  0  0  0
 16 15  1  0  0  0  0
 17 18  1  0  0  0  0
 17 16  2  0  0  0  0
 18 13  2  0  0  0  0
 19 42  1  0  0  0  0
 19 41  1  0  0  0  0
 20 45  1  0  0  0  0
 20 18  1  0  0  0  0
 21 23  1  0  0  0  0
 21 25  1  0  0  0  0
 22  4  1  0  0  0  0
 22 27  1  0  0  0  0
 24 21  1  0  0  0  0
 26 22  1  0  0  0  0
 28 22  1  0  0  0  0
 31  9  1  0  0  0  0
 33 11  1  0  0  0  0
 35 12  1  0  0  0  0
 36 12  1  0  0  0  0
 39 16  1  0  0  0  0
 40 17  1  0  0  0  0
 43 19  1  0  0  0  0
 44 20  1  0  0  0  0
 46 20  1  0  0  0  0
M  END
