1,2
 OpenBabel05122313053D

 47 48  0  0  0  0  0  0  0  0999 V2000
    1.1145   -0.6669    0.3489 N   0  0  0  0  0  2  0  0  0  0  0  0
   -1.0927   -0.6957    0.3507 N   0  0  0  0  0  2  0  0  0  0  0  0
   -2.4196   -1.1175    0.1850 C   0  0  0  0  0  0  0  0  0  0  0  0
    0.0206   -1.4406    0.3089 C   0  0  0  0  0  3  0  0  0  0  0  0
    4.6387   -1.5289    1.1195 C   0  0  0  0  0  0  0  0  0  0  0  0
    5.2914   -1.6171    2.0041 H   0  0  0  0  0  0  0  0  0  0  0  0
    2.4448   -1.0774    0.1696 C   0  0  0  0  0  0  0  0  0  0  0  0
   -5.1569   -1.7965   -0.1286 C   0  0  0  0  0  0  0  0  0  0  0  0
   -2.9168   -1.4716   -1.0972 C   0  0  0  0  0  0  0  0  0  0  0  0
   -4.6410   -1.4247    1.1292 C   0  0  0  0  0  0  0  0  0  0  0  0
   -5.3142   -1.3991    2.0023 H   0  0  0  0  0  0  0  0  0  0  0  0
   -3.2920   -1.0818    1.3072 C   0  0  0  0  0  0  0  0  0  0  0  0
    5.1799   -1.7540   -0.1621 C   0  0  0  0  0  0  0  0  0  0  0  0
   -4.2775   -1.8079   -1.2254 C   0  0  0  0  0  0  0  0  0  0  0  0
   -4.6643   -2.0788   -2.2218 H   0  0  0  0  0  0  0  0  0  0  0  0
    3.2902   -1.1879    1.3070 C   0  0  0  0  0  0  0  0  0  0  0  0
    2.9670   -1.2851   -1.1341 C   0  0  0  0  0  0  0  0  0  0  0  0
    4.3267   -1.6216   -1.2716 C   0  0  0  0  0  0  0  0  0  0  0  0
    4.7335   -1.7797   -2.2843 H   0  0  0  0  0  0  0  0  0  0  0  0
    0.0509   -2.9414    0.2505 C   0  0  0  0  0  0  0  0  0  0  0  0
    0.4517   -3.2840   -0.7251 H   0  0  0  0  0  0  0  0  0  0  0  0
   -0.9628   -3.3608    0.3890 H   0  0  0  0  0  0  0  0  0  0  0  0
    0.7312   -3.3370    1.0306 H   0  0  0  0  0  0  0  0  0  0  0  0
    6.6352   -2.1166   -0.3285 C   0  0  0  0  0  0  0  0  0  0  0  0
    7.2993   -1.3401    0.1059 H   0  0  0  0  0  0  0  0  0  0  0  0
    6.9073   -2.2351   -1.3953 H   0  0  0  0  0  0  0  0  0  0  0  0
    6.8776   -3.0687    0.1892 H   0  0  0  0  0  0  0  0  0  0  0  0
   -6.6101   -2.1718   -0.2833 C   0  0  0  0  0  0  0  0  0  0  0  0
   -6.8384   -3.1268    0.2366 H   0  0  0  0  0  0  0  0  0  0  0  0
   -6.8888   -2.2972   -1.3478 H   0  0  0  0  0  0  0  0  0  0  0  0
   -7.2784   -1.4025    0.1558 H   0  0  0  0  0  0  0  0  0  0  0  0
    2.7196   -0.9362    2.6779 C   0  0  0  0  0  0  0  0  0  0  0  0
    1.9658   -1.7040    2.9537 H   0  0  0  0  0  0  0  0  0  0  0  0
    2.1826    0.0348    2.7117 H   0  0  0  0  0  0  0  0  0  0  0  0
    3.5094   -0.9394    3.4534 H   0  0  0  0  0  0  0  0  0  0  0  0
   -2.7450   -0.6850    2.6526 C   0  0  0  0  0  0  0  0  0  0  0  0
   -2.0044   -1.4258    3.0216 H   0  0  0  0  0  0  0  0  0  0  0  0
   -3.5487   -0.5956    3.4083 H   0  0  0  0  0  0  0  0  0  0  0  0
   -2.1961    0.2781    2.5903 H   0  0  0  0  0  0  0  0  0  0  0  0
   -2.0010   -1.4592   -2.2934 C   0  0  0  0  0  0  0  0  0  0  0  0
   -1.3692   -0.5457   -2.3013 H   0  0  0  0  0  0  0  0  0  0  0  0
   -2.5737   -1.5084   -3.2393 H   0  0  0  0  0  0  0  0  0  0  0  0
   -1.2980   -2.3197   -2.2875 H   0  0  0  0  0  0  0  0  0  0  0  0
    2.0764   -1.1298   -2.3394 C   0  0  0  0  0  0  0  0  0  0  0  0
    1.3576   -1.9719   -2.4374 H   0  0  0  0  0  0  0  0  0  0  0  0
    2.6667   -1.0899   -3.2747 H   0  0  0  0  0  0  0  0  0  0  0  0
    1.4569   -0.2108   -2.2616 H   0  0  0  0  0  0  0  0  0  0  0  0
  3  2  1  0  0  0  0
  3 12  1  0  0  0  0
  4  1  1  0  0  0  0
  4  2  1  0  0  0  0
  5 16  1  0  0  0  0
  5  6  1  0  0  0  0
  7  1  1  0  0  0  0
  7 16  2  0  0  0  0
  8 10  1  0  0  0  0
  9  3  2  0  0  0  0
 10 12  2  0  0  0  0
 10 11  1  0  0  0  0
 12 36  1  0  0  0  0
 13  5  2  0  0  0  0
 14  9  1  0  0  0  0
 14  8  2  0  0  0  0
 15 14  1  0  0  0  0
 16 32  1  0  0  0  0
 17  7  1  0  0  0  0
 18 17  2  0  0  0  0
 18 13  1  0  0  0  0
 19 18  1  0  0  0  0
 20  4  1  0  0  0  0
 20 22  1  0  0  0  0
 20 23  1  0  0  0  0
 21 20  1  0  0  0  0
 24 13  1  0  0  0  0
 24 25  1  0  0  0  0
 24 27  1  0  0  0  0
 26 24  1  0  0  0  0
 28  8  1  0  0  0  0
 28 31  1  0  0  0  0
 28 29  1  0  0  0  0
 30 28  1  0  0  0  0
 32 34  1  0  0  0  0
 32 33  1  0  0  0  0
 32 35  1  0  0  0  0
 36 37  1  0  0  0  0
 36 38  1  0  0  0  0
 39 36  1  0  0  0  0
 40 43  1  0  0  0  0
 40  9  1  0  0  0  0
 41 40  1  0  0  0  0
 42 40  1  0  0  0  0
 44 47  1  0  0  0  0
 44 17  1  0  0  0  0
 45 44  1  0  0  0  0
 46 44  1  0  0  0  0
M  END
