11,18
 OpenBabel05122313053D

 23 25  0  0  0  0  0  0  0  0999 V2000
    2.5981    0.0142    2.6497 N   0  0  0  0  0  0  0  0  0  0  0  0
    2.1679    0.0067    1.4161 N   0  0  0  0  0  0  0  0  0  0  0  0
    3.2325    0.0019    0.5759 N   0  0  0  0  0  0  0  0  0  0  0  0
    3.9648    0.0143    2.6286 C   0  0  0  0  0  0  0  0  0  0  0  0
    4.5572    0.0198    3.5505 H   0  0  0  0  0  0  0  0  0  0  0  0
    4.3853    0.0065    1.3039 C   0  0  0  0  0  0  0  0  0  0  0  0
    5.3728    0.0038    0.8329 H   0  0  0  0  0  0  0  0  0  0  0  0
    3.0116   -0.0065   -0.9454 B   0  0  1  0  0  0  0  0  0  0  0  0
    4.0744   -0.0103   -1.5431 H   0  0  0  0  0  0  0  0  0  0  0  0
    0.3317   -2.4418   -1.4776 N   0  0  0  0  0  2  0  0  0  0  0  0
    0.8572   -1.3374   -1.0237 N   0  0  0  0  0  2  0  0  0  0  0  0
    2.1635   -1.2467   -1.3545 N   0  0  0  0  0  0  0  0  0  0  0  0
    1.3178   -3.1100   -2.1289 C   0  0  0  0  0  0  0  0  0  0  0  0
    1.1311   -4.0760   -2.6092 H   0  0  0  0  0  0  0  0  0  0  0  0
    2.4895   -2.3582   -2.0601 C   0  0  0  0  0  0  0  0  0  0  0  0
    3.5009   -2.5145   -2.4459 H   0  0  0  0  0  0  0  0  0  0  0  0
    0.3341    2.4256   -1.5039 N   0  0  0  0  0  2  0  0  0  0  0  0
    0.8584    1.3254   -1.0385 N   0  0  0  0  0  2  0  0  0  0  0  0
    2.1646    1.2298   -1.3683 N   0  0  0  0  0  0  0  0  0  0  0  0
    1.3209    3.0858   -2.1621 C   0  0  0  0  0  0  0  0  0  0  0  0
    1.1353    4.0470   -2.6525 H   0  0  0  0  0  0  0  0  0  0  0  0
    2.4918    2.3335   -2.0854 C   0  0  0  0  0  0  0  0  0  0  0  0
    3.5034    2.4846   -2.4728 H   0  0  0  0  0  0  0  0  0  0  0  0
  2  1  2  0  0  0  0
  3  6  1  0  0  0  0
  3  2  1  0  0  0  0
  4  1  1  0  0  0  0
  4  5  1  0  0  0  0
  6  4  2  0  0  0  0
  7  6  1  0  0  0  0
  8  9  1  6  0  0  0
  8  3  1  0  0  0  0
 10 11  1  0  0  0  0
 12 11  1  0  0  0  0
 12  8  1  0  0  0  0
 13 15  2  0  0  0  0
 13 10  1  0  0  0  0
 14 13  1  0  0  0  0
 15 12  1  0  0  0  0
 16 15  1  0  0  0  0
 17 18  1  0  0  0  0
 19 18  1  0  0  0  0
 19  8  1  0  0  0  0
 20 22  2  0  0  0  0
 20 17  1  0  0  0  0
 21 20  1  0  0  0  0
 22 19  1  0  0  0  0
 23 22  1  0  0  0  0
M  END
