1,2
 OpenBabel05122313053D

 30 31  0  0  0  0  0  0  0  0999 V2000
   -1.4465    1.9742   -0.1820 N   0  0  0  0  0  2  0  0  0  0  0  0
    1.2876    2.0336   -0.7160 N   0  0  0  0  0  0  0  0  0  0  0  0
    0.9412    2.0012   -1.6834 H   0  0  0  0  0  0  0  0  0  0  0  0
   -2.7819    1.9443   -0.3157 C   0  0  0  0  0  3  0  0  0  0  0  0
   -3.2436    0.9478   -0.4033 H   0  0  0  0  0  0  0  0  0  0  0  0
   -3.5566    3.1117   -0.3432 C   0  0  0  0  0  0  0  0  0  0  0  0
   -4.6496    3.0430   -0.4405 H   0  0  0  0  0  0  0  0  0  0  0  0
   -2.9008    4.3475   -0.2492 C   0  0  0  0  0  0  0  0  0  0  0  0
   -3.4712    5.2885   -0.2743 H   0  0  0  0  0  0  0  0  0  0  0  0
   -1.5037    4.3718   -0.1364 C   0  0  0  0  0  0  0  0  0  0  0  0
   -0.9550    5.3237   -0.0794 H   0  0  0  0  0  0  0  0  0  0  0  0
   -0.8012    3.1546   -0.0981 C   0  0  0  0  0  0  0  0  0  0  0  0
    0.7038    3.1065    0.0775 C   0  0  0  0  0  0  0  0  0  0  0  0
    1.1467    4.1037   -0.1501 H   0  0  0  0  0  0  0  0  0  0  0  0
    0.8945    2.8810    1.1527 H   0  0  0  0  0  0  0  0  0  0  0  0
    2.6598    1.7026   -0.6225 C   0  0  0  0  0  0  0  0  0  0  0  0
    3.4160    1.9267    0.5424 C   0  0  0  0  0  0  0  0  0  0  0  0
    2.9630    2.4168    1.4144 H   0  0  0  0  0  0  0  0  0  0  0  0
    4.7471    1.4806    0.6314 C   0  0  0  0  0  0  0  0  0  0  0  0
    5.3010    1.6664    1.5610 H   0  0  0  0  0  0  0  0  0  0  0  0
    5.3459    0.8037   -0.4483 C   0  0  0  0  0  0  0  0  0  0  0  0
    6.6265    0.3255   -0.4567 O   0  0  0  0  0  0  0  0  0  0  0  0
    7.4154    0.5263    0.6971 C   0  0  0  0  0  0  0  0  0  0  0  0
    7.5555    1.6077    0.9254 H   0  0  0  0  0  0  0  0  0  0  0  0
    8.4031    0.0746    0.4874 H   0  0  0  0  0  0  0  0  0  0  0  0
    6.9769    0.0332    1.5953 H   0  0  0  0  0  0  0  0  0  0  0  0
    4.5891    0.5835   -1.6203 C   0  0  0  0  0  0  0  0  0  0  0  0
    5.0618    0.0498   -2.4574 H   0  0  0  0  0  0  0  0  0  0  0  0
    3.2689    1.0235   -1.7060 C   0  0  0  0  0  0  0  0  0  0  0  0
    2.6739    0.8087   -2.6076 H   0  0  0  0  0  0  0  0  0  0  0  0
  1 12  1  0  0  0  0
  2 16  1  0  0  0  0
  2 13  1  0  0  0  0
  3  2  1  0  0  0  0
  4  1  1  0  0  0  0
  5  4  1  0  0  0  0
  6  4  1  0  0  0  0
  6  8  2  0  0  0  0
  7  6  1  0  0  0  0
  8 10  1  0  0  0  0
  9  8  1  0  0  0  0
 10 12  2  0  0  0  0
 10 11  1  0  0  0  0
 12 13  1  0  0  0  0
 13 15  1  0  0  0  0
 14 13  1  0  0  0  0
 16 17  1  0  0  0  0
 17 19  2  0  0  0  0
 17 18  1  0  0  0  0
 19 20  1  0  0  0  0
 21 19  1  0  0  0  0
 22 21  1  0  0  0  0
 22 23  1  0  0  0  0
 23 24  1  0  0  0  0
 23 26  1  0  0  0  0
 25 23  1  0  0  0  0
 27 21  2  0  0  0  0
 28 27  1  0  0  0  0
 29 27  1  0  0  0  0
 29 16  2  0  0  0  0
 30 29  1  0  0  0  0
M  END
