1,2
 OpenBabel05122313053D

 34 35  0  0  0  0  0  0  0  0999 V2000
   -1.4565   -2.2494   -1.2453 N   0  0  0  0  0  2  0  0  0  0  0  0
    1.2896   -2.7025   -0.7889 N   0  0  0  0  0  2  0  0  0  0  0  0
   -6.3966    0.8424    1.5209 F   0  0  0  0  0  0  0  0  0  0  0  0
    6.1510    0.9222    1.3125 F   0  0  0  0  0  0  0  0  0  0  0  0
   -5.5240    0.0622    0.8597 C   0  0  0  0  0  0  0  0  0  0  0  0
   -4.2265   -0.0941    1.3666 C   0  0  0  0  0  0  0  0  0  0  0  0
   -3.9449    0.4015    2.3060 H   0  0  0  0  0  0  0  0  0  0  0  0
   -3.3071   -0.8630    0.6536 C   0  0  0  0  0  0  0  0  0  0  0  0
   -2.2857   -1.0015    1.0489 H   0  0  0  0  0  0  0  0  0  0  0  0
   -3.6854   -1.4910   -0.5579 C   0  0  0  0  0  0  0  0  0  0  0  0
   -5.0170   -1.3561   -1.0164 C   0  0  0  0  0  0  0  0  0  0  0  0
   -5.3242   -1.8582   -1.9478 H   0  0  0  0  0  0  0  0  0  0  0  0
   -5.9407   -0.5715   -0.3189 C   0  0  0  0  0  0  0  0  0  0  0  0
   -6.9732   -0.4355   -0.6701 H   0  0  0  0  0  0  0  0  0  0  0  0
   -2.7441   -2.2489   -1.3767 C   0  0  0  0  0  3  0  0  0  0  0  0
   -3.2051   -2.8462   -2.1987 H   0  0  0  0  0  0  0  0  0  0  0  0
   -0.6772   -3.0541   -2.1763 C   0  0  0  0  0  0  0  0  0  0  0  0
   -0.2490   -2.3793   -2.9520 H   0  0  0  0  0  0  0  0  0  0  0  0
   -1.2983   -3.8198   -2.6959 H   0  0  0  0  0  0  0  0  0  0  0  0
    0.4794   -3.7251   -1.4307 C   0  0  0  0  0  0  0  0  0  0  0  0
    0.0585   -4.3811   -0.6368 H   0  0  0  0  0  0  0  0  0  0  0  0
    1.0736   -4.3618   -2.1269 H   0  0  0  0  0  0  0  0  0  0  0  0
    2.5785   -2.8195   -0.8221 C   0  0  0  0  0  3  0  0  0  0  0  0
    3.0387   -3.6665   -1.3824 H   0  0  0  0  0  0  0  0  0  0  0  0
    3.5065   -1.8755   -0.2058 C   0  0  0  0  0  0  0  0  0  0  0  0
    3.0994   -0.9925    0.8248 C   0  0  0  0  0  0  0  0  0  0  0  0
    2.0803   -1.0792    1.2408 H   0  0  0  0  0  0  0  0  0  0  0  0
    3.9922   -0.0505    1.3420 C   0  0  0  0  0  0  0  0  0  0  0  0
    3.6910    0.6435    2.1394 H   0  0  0  0  0  0  0  0  0  0  0  0
    5.2941    0.0075    0.8273 C   0  0  0  0  0  0  0  0  0  0  0  0
    5.7374   -0.8720   -0.1721 C   0  0  0  0  0  0  0  0  0  0  0  0
    6.7724   -0.7998   -0.5351 H   0  0  0  0  0  0  0  0  0  0  0  0
    4.8406   -1.8186   -0.6758 C   0  0  0  0  0  0  0  0  0  0  0  0
    5.1703   -2.5165   -1.4619 H   0  0  0  0  0  0  0  0  0  0  0  0
  5  6  1  0  0  0  0
  5  3  1  0  0  0  0
  6  7  1  0  0  0  0
  8  9  1  0  0  0  0
  8  6  2  0  0  0  0
 10  8  1  0  0  0  0
 11 10  2  0  0  0  0
 11 13  1  0  0  0  0
 12 11  1  0  0  0  0
 13  5  2  0  0  0  0
 14 13  1  0  0  0  0
 15  1  1  0  0  0  0
 15 10  1  0  0  0  0
 16 15  1  0  0  0  0
 17 20  1  0  0  0  0
 17  1  1  0  0  0  0
 18 17  1  0  0  0  0
 19 17  1  0  0  0  0
 20  2  1  0  0  0  0
 20 21  1  0  0  0  0
 22 20  1  0  0  0  0
 23  2  1  0  0  0  0
 23 25  1  0  0  0  0
 24 23  1  0  0  0  0
 25 26  1  0  0  0  0
 26 27  1  0  0  0  0
 26 28  2  0  0  0  0
 28 29  1  0  0  0  0
 30  4  1  0  0  0  0
 30 28  1  0  0  0  0
 31 30  2  0  0  0  0
 32 31  1  0  0  0  0
 33 25  2  0  0  0  0
 33 31  1  0  0  0  0
 34 33  1  0  0  0  0
M  END
