1,2
 OpenBabel05122313053D

 55 56  0  0  1  0  0  0  0  0999 V2000
   -0.0878   -1.5416   -0.6880 N   0  0  0  0  0  2  0  0  0  0  0  0
   -0.1266    0.4553    0.2307 N   0  0  0  0  0  2  0  0  0  0  0  0
   -2.7575   -1.5961    0.8738 N   0  0  0  0  0  0  0  0  0  0  0  0
   -3.2034    0.2324   -0.5214 N   0  0  0  0  0  0  0  0  0  0  0  0
   -0.8701   -0.5918   -0.1944 C   0  0  2  0  0  3  0  0  0  0  0  0
   -2.3735   -0.6160   -0.0024 C   0  0  0  0  0  0  0  0  0  0  0  0
   -0.4204   -2.8233   -1.3514 C   0  0  0  0  0  0  0  0  0  0  0  0
    0.6477   -3.0523   -2.4387 C   0  0  0  0  0  0  0  0  0  0  0  0
   -0.3536   -3.9677   -0.3206 C   0  0  0  0  0  0  0  0  0  0  0  0
   -1.8006   -2.7981   -2.0358 C   0  0  0  0  0  0  0  0  0  0  0  0
   -0.6227    1.6428    0.8010 C   0  0  0  0  0  0  0  0  0  0  0  0
   -1.4900    1.6290    1.9132 C   0  0  0  0  0  0  0  0  0  0  0  0
   -1.9575    2.8354    2.4525 C   0  0  0  0  0  0  0  0  0  0  0  0
   -1.5539    4.0626    1.9022 C   0  0  0  0  0  0  0  0  0  0  0  0
   -0.6781    4.0763    0.8037 C   0  0  0  0  0  0  0  0  0  0  0  0
   -0.2135    2.8758    0.2532 C   0  0  0  0  0  0  0  0  0  0  0  0
   -4.1181   -1.8299    1.4074 C   0  0  0  0  0  0  0  0  0  0  0  0
   -4.0087   -3.0520    2.3313 C   0  0  0  0  0  0  0  0  0  0  0  0
   -5.0905   -2.1306    0.2519 C   0  0  0  0  0  0  0  0  0  0  0  0
   -4.5935   -0.6006    2.2065 C   0  0  0  0  0  0  0  0  0  0  0  0
   -2.8112    1.2488   -1.3971 C   0  0  0  0  0  0  0  0  0  0  0  0
   -3.4483    2.5052   -1.2492 C   0  0  0  0  0  0  0  0  0  0  0  0
   -3.0858    3.5913   -2.0520 C   0  0  0  0  0  0  0  0  0  0  0  0
   -2.0965    3.4473   -3.0406 C   0  0  0  0  0  0  0  0  0  0  0  0
   -1.4817    2.1986   -3.2201 C   0  0  0  0  0  0  0  0  0  0  0  0
   -1.8366    1.1073   -2.4155 C   0  0  0  0  0  0  0  0  0  0  0  0
   -1.9923   -2.0949    1.3321 H   0  0  0  0  0  0  0  0  0  0  0  0
   -1.7848    0.6668    2.3544 H   0  0  0  0  0  0  0  0  0  0  0  0
   -2.6380    2.8143    3.3176 H   0  0  0  0  0  0  0  0  0  0  0  0
    0.4427    2.8681   -0.6272 H   0  0  0  0  0  0  0  0  0  0  0  0
   -0.3657    5.0328    0.3581 H   0  0  0  0  0  0  0  0  0  0  0  0
   -1.9218    5.0075    2.3293 H   0  0  0  0  0  0  0  0  0  0  0  0
   -5.6217   -0.7653    2.5860 H   0  0  0  0  0  0  0  0  0  0  0  0
   -4.5906    0.2984    1.5619 H   0  0  0  0  0  0  0  0  0  0  0  0
   -3.9307   -0.4187    3.0768 H   0  0  0  0  0  0  0  0  0  0  0  0
   -4.9951   -3.2808    2.7785 H   0  0  0  0  0  0  0  0  0  0  0  0
   -3.6698   -3.9480    1.7715 H   0  0  0  0  0  0  0  0  0  0  0  0
   -3.2963   -2.8644    3.1619 H   0  0  0  0  0  0  0  0  0  0  0  0
   -6.1072   -2.3120    0.6535 H   0  0  0  0  0  0  0  0  0  0  0  0
   -5.1294   -1.2767   -0.4497 H   0  0  0  0  0  0  0  0  0  0  0  0
   -4.7729   -3.0362   -0.3031 H   0  0  0  0  0  0  0  0  0  0  0  0
   -1.3472    0.1377   -2.5790 H   0  0  0  0  0  0  0  0  0  0  0  0
   -0.7090    2.0651   -3.9924 H   0  0  0  0  0  0  0  0  0  0  0  0
   -1.8141    4.3016   -3.6740 H   0  0  0  0  0  0  0  0  0  0  0  0
   -3.5799    4.5638   -1.9038 H   0  0  0  0  0  0  0  0  0  0  0  0
   -4.2117    2.6081   -0.4647 H   0  0  0  0  0  0  0  0  0  0  0  0
    0.4377   -3.9955   -2.9801 H   0  0  0  0  0  0  0  0  0  0  0  0
    0.6492   -2.2183   -3.1673 H   0  0  0  0  0  0  0  0  0  0  0  0
    1.6604   -3.1251   -1.9990 H   0  0  0  0  0  0  0  0  0  0  0  0
   -1.9200   -3.7292   -2.6239 H   0  0  0  0  0  0  0  0  0  0  0  0
   -1.8903   -1.9453   -2.7366 H   0  0  0  0  0  0  0  0  0  0  0  0
   -2.6327   -2.7494   -1.3126 H   0  0  0  0  0  0  0  0  0  0  0  0
   -0.4961   -4.9430   -0.8276 H   0  0  0  0  0  0  0  0  0  0  0  0
   -1.1493   -3.8646    0.4437 H   0  0  0  0  0  0  0  0  0  0  0  0
    0.6236   -3.9756    0.1986 H   0  0  0  0  0  0  0  0  0  0  0  0
  2 11  1  0  0  0  0
  3 27  1  0  0  0  0
  3 17  1  0  0  0  0
  4  6  2  0  0  0  0
  5  1  1  1  0  0  0
  5  6  1  0  0  0  0
  5  2  1  0  0  0  0
  6  3  1  0  0  0  0
  7  1  1  0  0  0  0
  7  9  1  0  0  0  0
  8 49  1  0  0  0  0
  8  7  1  0  0  0  0
  9 55  1  0  0  0  0
  9 54  1  0  0  0  0
 10  7  1  0  0  0  0
 10 52  1  0  0  0  0
 11 12  1  0  0  0  0
 12 28  1  0  0  0  0
 12 13  2  0  0  0  0
 13 29  1  0  0  0  0
 14 32  1  0  0  0  0
 14 13  1  0  0  0  0
 15 14  2  0  0  0  0
 16 11  2  0  0  0  0
 16 15  1  0  0  0  0
 17 20  1  0  0  0  0
 17 18  1  0  0  0  0
 18 36  1  0  0  0  0
 18 38  1  0  0  0  0
 19 39  1  0  0  0  0
 19 17  1  0  0  0  0
 20 33  1  0  0  0  0
 20 35  1  0  0  0  0
 21 22  1  0  0  0  0
 21  4  1  0  0  0  0
 22 46  1  0  0  0  0
 23 45  1  0  0  0  0
 23 22  2  0  0  0  0
 24 23  1  0  0  0  0
 25 24  2  0  0  0  0
 25 26  1  0  0  0  0
 26 21  2  0  0  0  0
 30 16  1  0  0  0  0
 31 15  1  0  0  0  0
 34 20  1  0  0  0  0
 37 18  1  0  0  0  0
 40 19  1  0  0  0  0
 41 19  1  0  0  0  0
 42 26  1  0  0  0  0
 43 25  1  0  0  0  0
 44 24  1  0  0  0  0
 47  8  1  0  0  0  0
 48  8  1  0  0  0  0
 50 10  1  0  0  0  0
 51 10  1  0  0  0  0
 53  9  1  0  0  0  0
M  END
