1,2
 OpenBabel05122313053D

 61 63  0  0  0  0  0  0  0  0999 V2000
   -0.1248    1.7412   -0.7732 N   0  0  0  0  0  2  0  0  0  0  0  0
   -2.2553    0.2367   -0.3612 N   0  0  0  0  0  2  0  0  0  0  0  0
   -3.2931   -0.6824   -0.0208 C   0  0  0  0  0  0  0  0  0  0  0  0
    2.1483    2.0905   -0.0094 C   0  0  0  0  0  0  0  0  0  0  0  0
   -2.4189    1.1782   -1.2470 C   0  0  0  0  0  0  0  0  0  0  0  0
   -4.0452   -0.4362    1.1576 C   0  0  0  0  0  0  0  0  0  0  0  0
   -5.0385   -1.3696    1.5033 C   0  0  0  0  0  0  0  0  0  0  0  0
   -5.6474   -1.2004    2.4025 H   0  0  0  0  0  0  0  0  0  0  0  0
    1.0203    3.6398   -1.6861 C   0  0  0  0  0  0  0  0  0  0  0  0
    1.9308    4.2539   -1.7285 H   0  0  0  0  0  0  0  0  0  0  0  0
   -1.2664    3.1797   -2.3293 C   0  0  0  0  0  0  0  0  0  0  0  0
   -2.1716    3.4324   -2.8972 H   0  0  0  0  0  0  0  0  0  0  0  0
   -3.4942   -1.8361   -0.8251 C   0  0  0  0  0  0  0  0  0  0  0  0
   -0.1137    3.9745   -2.4335 C   0  0  0  0  0  0  0  0  0  0  0  0
   -0.1086    4.8585   -3.0881 H   0  0  0  0  0  0  0  0  0  0  0  0
    0.7694    2.6455    2.0737 C   0  0  0  0  0  0  0  0  0  0  0  0
    0.9415    2.8501    3.1468 H   0  0  0  0  0  0  0  0  0  0  0  0
   -0.0448    1.8902    2.0096 H   0  0  0  0  0  0  0  0  0  0  0  0
    0.3812    3.5702    1.6015 H   0  0  0  0  0  0  0  0  0  0  0  0
    0.9875    2.5007   -0.8514 C   0  0  0  0  0  0  0  0  0  0  0  0
    2.0299    2.1533    1.4064 C   0  0  0  0  0  0  0  0  0  0  0  0
   -1.2403    2.0660   -1.4747 C   0  0  0  0  0  0  0  0  0  0  0  0
    3.3452    1.6415   -0.6271 C   0  0  0  0  0  0  0  0  0  0  0  0
   -3.6933    1.4226   -1.9939 C   0  0  0  0  0  0  0  0  0  0  0  0
   -4.4654    0.6856   -1.7096 H   0  0  0  0  0  0  0  0  0  0  0  0
   -3.5266    1.3633   -3.0892 H   0  0  0  0  0  0  0  0  0  0  0  0
   -4.0788    2.4411   -1.7807 H   0  0  0  0  0  0  0  0  0  0  0  0
   -4.4976   -2.7379   -0.4269 C   0  0  0  0  0  0  0  0  0  0  0  0
   -4.6828   -3.6383   -1.0292 H   0  0  0  0  0  0  0  0  0  0  0  0
    3.1304    1.7568    2.1875 C   0  0  0  0  0  0  0  0  0  0  0  0
    3.0542    1.8146    3.2841 H   0  0  0  0  0  0  0  0  0  0  0  0
   -3.7251    0.7689    2.0360 C   0  0  0  0  0  0  0  0  0  0  0  0
   -3.4102    1.5966    1.3640 H   0  0  0  0  0  0  0  0  0  0  0  0
   -2.5880   -2.1146   -2.0203 C   0  0  0  0  0  0  0  0  0  0  0  0
   -2.3662   -1.1414   -2.5097 H   0  0  0  0  0  0  0  0  0  0  0  0
    4.4193    1.2490    0.1947 C   0  0  0  0  0  0  0  0  0  0  0  0
    5.3470    0.8852   -0.2734 H   0  0  0  0  0  0  0  0  0  0  0  0
    3.4762    1.5499   -2.1284 C   0  0  0  0  0  0  0  0  0  0  0  0
    4.3400    0.9181   -2.4112 H   0  0  0  0  0  0  0  0  0  0  0  0
    3.6417    2.5452   -2.5914 H   0  0  0  0  0  0  0  0  0  0  0  0
    2.5677    1.1279   -2.6045 H   0  0  0  0  0  0  0  0  0  0  0  0
   -5.2674   -2.5079    0.7202 C   0  0  0  0  0  0  0  0  0  0  0  0
   -6.0523   -3.2231    1.0068 H   0  0  0  0  0  0  0  0  0  0  0  0
   -4.9155    1.2774    2.8568 C   0  0  0  0  0  0  0  0  0  0  0  0
   -4.6471    2.2164    3.3804 H   0  0  0  0  0  0  0  0  0  0  0  0
   -5.2205    0.5501    3.6362 H   0  0  0  0  0  0  0  0  0  0  0  0
   -5.7973    1.4808    2.2172 H   0  0  0  0  0  0  0  0  0  0  0  0
   -1.2469   -2.6916   -1.5266 C   0  0  0  0  0  0  0  0  0  0  0  0
   -0.5267   -2.8103   -2.3621 H   0  0  0  0  0  0  0  0  0  0  0  0
   -1.3986   -3.6844   -1.0566 H   0  0  0  0  0  0  0  0  0  0  0  0
   -0.7862   -2.0345   -0.7556 H   0  0  0  0  0  0  0  0  0  0  0  0
    4.3155    1.3075    1.5897 C   0  0  0  0  0  0  0  0  0  0  0  0
    5.1674    1.0047    2.2169 H   0  0  0  0  0  0  0  0  0  0  0  0
   -3.2167   -3.0189   -3.0860 C   0  0  0  0  0  0  0  0  0  0  0  0
   -4.1988   -2.6328   -3.4242 H   0  0  0  0  0  0  0  0  0  0  0  0
   -3.3673   -4.0523   -2.7133 H   0  0  0  0  0  0  0  0  0  0  0  0
   -2.5526   -3.0888   -3.9703 H   0  0  0  0  0  0  0  0  0  0  0  0
   -2.5275    0.4414    2.9489 C   0  0  0  0  0  0  0  0  0  0  0  0
   -2.2128    1.3285    3.5349 H   0  0  0  0  0  0  0  0  0  0  0  0
   -1.6465    0.0911    2.3623 H   0  0  0  0  0  0  0  0  0  0  0  0
   -2.7843   -0.3720    3.6570 H   0  0  0  0  0  0  0  0  0  0  0  0
  2  3  1  0  0  0  0
  3  6  1  0  0  0  0
  4 21  1  0  0  0  0
  5  2  1  0  0  0  0
  6  7  2  0  0  0  0
  6 32  1  0  0  0  0
  7  8  1  0  0  0  0
  9 20  2  0  0  0  0
 10  9  1  0  0  0  0
 11 22  1  0  0  0  0
 12 11  1  0  0  0  0
 13 28  1  0  0  0  0
 13  3  2  0  0  0  0
 14 11  2  0  0  0  0
 14  9  1  0  0  0  0
 15 14  1  0  0  0  0
 16 17  1  0  0  0  0
 18 16  1  0  0  0  0
 19 16  1  0  0  0  0
 20  1  1  0  0  0  0
 20  4  1  0  0  0  0
 21 16  1  0  0  0  0
 21 30  2  0  0  0  0
 22  5  2  0  0  0  0
 22  1  1  0  0  0  0
 23  4  2  0  0  0  0
 23 36  1  0  0  0  0
 24 27  1  0  0  0  0
 24 25  1  0  0  0  0
 24  5  1  0  0  0  0
 26 24  1  0  0  0  0
 28 42  2  0  0  0  0
 29 28  1  0  0  0  0
 30 31  1  0  0  0  0
 32 44  1  0  0  0  0
 32 58  1  0  0  0  0
 33 32  1  0  0  0  0
 34 48  1  0  0  0  0
 34 13  1  0  0  0  0
 35 34  1  0  0  0  0
 36 52  2  0  0  0  0
 37 36  1  0  0  0  0
 38 23  1  0  0  0  0
 39 38  1  0  0  0  0
 40 38  1  0  0  0  0
 41 38  1  0  0  0  0
 42 43  1  0  0  0  0
 42  7  1  0  0  0  0
 44 45  1  0  0  0  0
 44 46  1  0  0  0  0
 47 44  1  0  0  0  0
 48 50  1  0  0  0  0
 48 51  1  0  0  0  0
 49 48  1  0  0  0  0
 52 30  1  0  0  0  0
 52 53  1  0  0  0  0
 54 56  1  0  0  0  0
 54 34  1  0  0  0  0
 55 54  1  0  0  0  0
 57 54  1  0  0  0  0
 58 59  1  0  0  0  0
 58 61  1  0  0  0  0
 60 58  1  0  0  0  0
M  END
