1,2
 OpenBabel05122313053D

 33 33  0  0  0  0  0  0  0  0999 V2000
    0.4224   -0.6045    1.5154 N   0  0  0  0  0  2  0  0  0  0  0  0
   -2.2787   -1.5222    1.1381 N   0  0  0  0  0  0  0  0  0  0  0  0
    4.4208   -0.7129    1.3486 O   0  0  0  0  0  0  0  0  0  0  0  0
    2.4661    0.4396    0.6642 C   0  0  0  0  0  0  0  0  0  0  0  0
    3.8858    0.2767    0.5885 C   0  0  0  0  0  0  0  0  0  0  0  0
    4.6431    1.1128   -0.2536 C   0  0  0  0  0  0  0  0  0  0  0  0
    5.7314    0.9929   -0.3286 H   0  0  0  0  0  0  0  0  0  0  0  0
    4.0017    2.1034   -1.0123 C   0  0  0  0  0  0  0  0  0  0  0  0
    4.6069    2.7473   -1.6688 H   0  0  0  0  0  0  0  0  0  0  0  0
    2.6110    2.2829   -0.9397 C   0  0  0  0  0  0  0  0  0  0  0  0
    2.1125    3.0663   -1.5275 H   0  0  0  0  0  0  0  0  0  0  0  0
    1.8568    1.4547   -0.1069 C   0  0  0  0  0  0  0  0  0  0  0  0
    0.7715    1.6212   -0.0218 H   0  0  0  0  0  0  0  0  0  0  0  0
    1.7102   -0.4494    1.5292 C   0  0  0  0  0  3  0  0  0  0  0  0
    2.3137   -1.0507    2.2407 H   0  0  0  0  0  0  0  0  0  0  0  0
   -0.1775   -1.5239    2.4734 C   0  0  0  0  0  0  0  0  0  0  0  0
   -0.6254   -0.9294    3.3006 H   0  0  0  0  0  0  0  0  0  0  0  0
    0.5815   -2.1945    2.9346 H   0  0  0  0  0  0  0  0  0  0  0  0
   -1.2569   -2.3670    1.7903 C   0  0  0  0  0  0  0  0  0  0  0  0
   -0.7829   -2.9776    0.9943 H   0  0  0  0  0  0  0  0  0  0  0  0
   -1.7242   -3.0611    2.5292 H   0  0  0  0  0  0  0  0  0  0  0  0
   -3.1313   -0.8203    2.1108 C   0  0  0  0  0  0  0  0  0  0  0  0
   -3.7013   -1.5445    2.7389 H   0  0  0  0  0  0  0  0  0  0  0  0
   -3.8360   -0.1633    1.5681 H   0  0  0  0  0  0  0  0  0  0  0  0
   -2.5261   -0.1649    2.7638 H   0  0  0  0  0  0  0  0  0  0  0  0
   -3.1046   -2.3112    0.2085 C   0  0  0  0  0  0  0  0  0  0  0  0
   -2.4565   -2.7705   -0.5629 H   0  0  0  0  0  0  0  0  0  0  0  0
   -3.8203   -1.6380   -0.3008 H   0  0  0  0  0  0  0  0  0  0  0  0
   -3.6750   -3.1027    0.7480 H   0  0  0  0  0  0  0  0  0  0  0  0
    5.8229   -0.9222    1.3190 C   0  0  0  0  0  0  0  0  0  0  0  0
    6.1736   -1.1986    0.3006 H   0  0  0  0  0  0  0  0  0  0  0  0
    6.0260   -1.7602    2.0105 H   0  0  0  0  0  0  0  0  0  0  0  0
    6.3809   -0.0233    1.6623 H   0  0  0  0  0  0  0  0  0  0  0  0
  1 14  1  0  0  0  0
  1 16  1  0  0  0  0
  2 19  1  0  0  0  0
  2 22  1  0  0  0  0
  4 14  1  0  0  0  0
  5  4  1  0  0  0  0
  5  3  1  0  0  0  0
  6  5  2  0  0  0  0
  7  6  1  0  0  0  0
  8 10  2  0  0  0  0
  8  6  1  0  0  0  0
  9  8  1  0  0  0  0
 10 12  1  0  0  0  0
 11 10  1  0  0  0  0
 12 13  1  0  0  0  0
 12  4  2  0  0  0  0
 14 15  1  0  0  0  0
 16 18  1  0  0  0  0
 16 17  1  0  0  0  0
 19 16  1  0  0  0  0
 19 21  1  0  0  0  0
 20 19  1  0  0  0  0
 22 23  1  0  0  0  0
 22 25  1  0  0  0  0
 24 22  1  0  0  0  0
 26 29  1  0  0  0  0
 26  2  1  0  0  0  0
 27 26  1  0  0  0  0
 28 26  1  0  0  0  0
 30  3  1  0  0  0  0
 30 33  1  0  0  0  0
 30 32  1  0  0  0  0
 31 30  1  0  0  0  0
M  END
