2,4
 OpenBabel05122313053D

 31 33  0  0  0  0  0  0  0  0999 V2000
   -6.2009   -0.7347    0.6954 F   0  0  0  0  0  0  0  0  0  0  0  0
    2.5319   -0.0583    0.2508 N   0  0  0  0  0  2  0  0  0  0  0  0
    0.8379    2.2683   -0.4447 N   0  0  0  0  0  0  0  0  0  0  0  0
   -0.0357    1.2555   -0.1962 N   0  0  0  0  0  2  0  0  0  0  0  0
    3.2873   -0.8508    1.0507 C   0  0  0  0  0  3  0  0  0  0  0  0
    2.8203   -1.7876    1.3808 H   0  0  0  0  0  0  0  0  0  0  0  0
    4.5713   -0.4862    1.4653 C   0  0  0  0  0  0  0  0  0  0  0  0
    5.1455   -1.1732    2.1023 H   0  0  0  0  0  0  0  0  0  0  0  0
    5.0859    0.7554    1.0739 C   0  0  0  0  0  0  0  0  0  0  0  0
    6.0871    1.0794    1.3936 H   0  0  0  0  0  0  0  0  0  0  0  0
    4.2896    1.5856    0.2744 C   0  0  0  0  0  0  0  0  0  0  0  0
    4.6460    2.5759   -0.0432 H   0  0  0  0  0  0  0  0  0  0  0  0
    3.0197    1.1491   -0.1280 C   0  0  0  0  0  0  0  0  0  0  0  0
    2.1452    1.9935   -1.0165 C   0  0  0  0  0  0  0  0  0  0  0  0
    2.6281    2.9674   -1.2095 H   0  0  0  0  0  0  0  0  0  0  0  0
    2.0049    1.4840   -1.9959 H   0  0  0  0  0  0  0  0  0  0  0  0
    0.2183    3.4801   -0.3673 C   0  0  0  0  0  3  0  0  0  0  0  0
    0.7706    4.4090   -0.5466 H   0  0  0  0  0  0  0  0  0  0  0  0
   -1.1100    3.2415   -0.0517 C   0  0  0  0  0  0  0  0  0  0  0  0
   -1.8993    3.9795    0.1188 H   0  0  0  0  0  0  0  0  0  0  0  0
   -1.2457    1.8305    0.0449 C   0  0  0  0  0  0  0  0  0  0  0  0
   -2.5201    1.1117    0.2518 C   0  0  0  0  0  0  0  0  0  0  0  0
   -3.6059    1.4537   -0.5905 C   0  0  0  0  0  0  0  0  0  0  0  0
   -3.4681    2.2117   -1.3767 H   0  0  0  0  0  0  0  0  0  0  0  0
   -4.8513    0.8305   -0.4505 C   0  0  0  0  0  0  0  0  0  0  0  0
   -5.6992    1.0813   -1.1034 H   0  0  0  0  0  0  0  0  0  0  0  0
   -5.0149   -0.1338    0.5540 C   0  0  0  0  0  0  0  0  0  0  0  0
   -3.9634   -0.4768    1.4156 C   0  0  0  0  0  0  0  0  0  0  0  0
   -4.1373   -1.2185    2.2086 H   0  0  0  0  0  0  0  0  0  0  0  0
   -2.7196    0.1487    1.2646 C   0  0  0  0  0  0  0  0  0  0  0  0
   -1.8891   -0.1098    1.9370 H   0  0  0  0  0  0  0  0  0  0  0  0
  2  5  1  0  0  0  0
  3 17  1  0  0  0  0
  3  4  1  0  0  0  0
  4 21  1  0  0  0  0
  5  6  1  0  0  0  0
  5  7  1  0  0  0  0
  7  8  1  0  0  0  0
  9 10  1  0  0  0  0
  9  7  2  0  0  0  0
 11  9  1  0  0  0  0
 12 11  1  0  0  0  0
 13  2  1  0  0  0  0
 13 11  2  0  0  0  0
 14  3  1  0  0  0  0
 14 13  1  0  0  0  0
 15 14  1  0  0  0  0
 16 14  1  0  0  0  0
 17 19  1  0  0  0  0
 18 17  1  0  0  0  0
 19 21  2  0  0  0  0
 19 20  1  0  0  0  0
 21 22  1  0  0  0  0
 22 30  1  0  0  0  0
 23 25  1  0  0  0  0
 23 22  2  0  0  0  0
 24 23  1  0  0  0  0
 25 27  2  0  0  0  0
 26 25  1  0  0  0  0
 27  1  1  0  0  0  0
 27 28  1  0  0  0  0
 28 29  1  0  0  0  0
 30 28  2  0  0  0  0
 30 31  1  0  0  0  0
M  END
