1,4
 OpenBabel05122313053D

 40 44  0  0  1  0  0  0  0  0999 V2000
    0.2357   -0.5623    0.0343 N   0  0  0  0  0  2  0  0  0  0  0  0
    1.5196   -0.4426   -0.3428 N   0  0  2  0  0  0  0  0  0  0  0  0
    1.3852   -2.4056    0.6852 N   0  0  0  0  0  0  0  0  0  0  0  0
   -2.0966   -1.2808    1.0309 N   0  0  0  0  0  2  0  0  0  0  0  0
    3.3786    0.4357   -1.4427 N   0  0  0  0  0  0  0  0  0  0  0  0
    3.8440    1.2129   -1.9122 H   0  0  0  0  0  0  0  0  0  0  0  0
    2.2161   -1.5529    0.0716 C   0  0  2  0  0  3  0  0  0  0  0  0
    0.1909   -1.7681    0.6423 C   0  0  0  0  0  0  0  0  0  0  0  0
   -1.0917   -2.1943    1.1793 C   0  0  1  0  0  3  0  0  0  0  0  0
   -1.2838   -3.4323    1.8112 C   0  0  0  0  0  0  0  0  0  0  0  0
   -0.4294   -4.1179    1.8942 H   0  0  0  0  0  0  0  0  0  0  0  0
   -2.5551   -3.7444    2.3021 C   0  0  0  0  0  0  0  0  0  0  0  0
   -2.7410   -4.7083    2.7982 H   0  0  0  0  0  0  0  0  0  0  0  0
   -3.5896   -2.8074    2.1463 C   0  0  0  0  0  0  0  0  0  0  0  0
   -4.6057   -3.0098    2.5124 H   0  0  0  0  0  0  0  0  0  0  0  0
   -3.3201   -1.5929    1.5065 C   0  0  0  0  0  0  0  0  0  0  0  0
   -4.1050   -0.8376    1.3580 H   0  0  0  0  0  0  0  0  0  0  0  0
    3.6395   -1.6213   -0.1730 C   0  0  0  0  0  0  0  0  0  0  0  0
    4.2029   -0.5545   -0.9359 C   0  0  0  0  0  0  0  0  0  0  0  0
    5.5882   -0.5846   -1.2103 C   0  0  0  0  0  0  0  0  0  0  0  0
    6.0407    0.2292   -1.7976 H   0  0  0  0  0  0  0  0  0  0  0  0
    6.3764   -1.6408   -0.7411 C   0  0  0  0  0  0  0  0  0  0  0  0
    7.4538   -1.6425   -0.9657 H   0  0  0  0  0  0  0  0  0  0  0  0
    5.8166   -2.6896    0.0150 C   0  0  0  0  0  0  0  0  0  0  0  0
    6.4495   -3.5110    0.3793 H   0  0  0  0  0  0  0  0  0  0  0  0
    4.4476   -2.6744    0.2957 C   0  0  0  0  0  0  0  0  0  0  0  0
    3.9700   -3.4746    0.8795 H   0  0  0  0  0  0  0  0  0  0  0  0
    2.0965    0.8033   -0.8437 C   0  0  2  0  0  0  0  0  0  0  0  0
    1.4321    1.1802   -1.6484 H   0  0  0  0  0  0  0  0  0  0  0  0
    2.1868    1.8545    0.2581 C   0  0  0  0  0  0  0  0  0  0  0  0
    1.8244    3.1833   -0.0259 C   0  0  0  0  0  0  0  0  0  0  0  0
    1.4317    3.4420   -1.0211 H   0  0  0  0  0  0  0  0  0  0  0  0
    1.9231    4.1691    0.9672 C   0  0  0  0  0  0  0  0  0  0  0  0
    1.6209    5.2027    0.7419 H   0  0  0  0  0  0  0  0  0  0  0  0
    2.3830    3.8316    2.2483 C   0  0  0  0  0  0  0  0  0  0  0  0
    2.4457    4.6013    3.0321 H   0  0  0  0  0  0  0  0  0  0  0  0
    2.7493    2.5061    2.5346 C   0  0  0  0  0  0  0  0  0  0  0  0
    3.1026    2.2367    3.5412 H   0  0  0  0  0  0  0  0  0  0  0  0
    2.6538    1.5198    1.5445 C   0  0  0  0  0  0  0  0  0  0  0  0
    2.9317    0.4814    1.7822 H   0  0  0  0  0  0  0  0  0  0  0  0
  1  8  1  0  0  0  0
  2  1  1  1  0  0  0
  2  7  1  0  0  0  0
  4  9  1  0  0  0  0
  4 16  1  0  0  0  0
  5 19  1  0  0  0  0
  5 28  1  0  0  0  0
  6  5  1  0  0  0  0
  7 18  1  1  0  0  0
  7  3  1  0  0  0  0
  8  3  2  0  0  0  0
  9  8  1  1  0  0  0
  9 10  1  0  0  0  0
 10 11  1  0  0  0  0
 10 12  2  0  0  0  0
 12 13  1  0  0  0  0
 14 12  1  0  0  0  0
 14 15  1  0  0  0  0
 16 14  2  0  0  0  0
 17 16  1  0  0  0  0
 18 26  1  0  0  0  0
 19 18  2  0  0  0  0
 20 19  1  0  0  0  0
 20 22  2  0  0  0  0
 21 20  1  0  0  0  0
 22 24  1  0  0  0  0
 23 22  1  0  0  0  0
 24 26  2  0  0  0  0
 24 25  1  0  0  0  0
 26 27  1  0  0  0  0
 28 29  1  6  0  0  0
 28  2  1  0  0  0  0
 28 30  1  0  0  0  0
 30 39  1  0  0  0  0
 31 30  2  0  0  0  0
 31 33  1  0  0  0  0
 32 31  1  0  0  0  0
 33 35  2  0  0  0  0
 34 33  1  0  0  0  0
 35 37  1  0  0  0  0
 35 36  1  0  0  0  0
 37 38  1  0  0  0  0
 39 40  1  0  0  0  0
 39 37  2  0  0  0  0
M  END
