1,12
 OpenBabel05122313053D

 43 44  0  0  1  0  0  0  0  0999 V2000
   -0.9280    2.1057   -0.1303 N   0  0  0  0  0  2  0  0  0  0  0  0
   -1.8933    2.7622    0.5344 N   0  0  0  0  0  0  0  0  0  0  0  0
   -1.6924    4.1167    0.4537 C   0  0  1  0  0  3  0  0  0  0  0  0
   -2.6057    5.1141    1.0882 C   0  0  0  0  0  0  0  0  0  0  0  0
   -0.5251    4.3240   -0.2941 C   0  0  0  0  0  0  0  0  0  0  0  0
   -0.0856    3.0279   -0.6473 C   0  0  0  0  0  0  0  0  0  0  0  0
    1.0864    2.5455   -1.3932 C   0  0  0  0  0  0  0  0  0  0  0  0
    1.2110    1.4013   -1.8178 O   0  0  0  0  0  0  0  0  0  0  0  0
    2.0331    3.5007   -1.5244 O   0  0  0  0  0  0  0  0  0  0  0  0
    3.2695    3.0798   -2.1383 C   0  0  0  0  0  0  0  0  0  0  0  0
    4.2745    4.1997   -1.9686 C   0  0  0  0  0  0  0  0  0  0  0  0
   -2.8059   -0.1367   -0.0292 N   0  0  0  0  0  2  0  0  0  0  0  0
   -3.5729    0.8390    0.5029 N   0  0  0  0  0  0  0  0  0  0  0  0
   -4.8877    0.6547    0.1565 C   0  0  2  0  0  3  0  0  0  0  0  0
   -5.9844    1.5685    0.5966 C   0  0  0  0  0  0  0  0  0  0  0  0
   -4.9559   -0.4949   -0.6374 C   0  0  0  0  0  0  0  0  0  0  0  0
   -3.6232   -0.9525   -0.7341 C   0  0  0  0  0  0  0  0  0  0  0  0
   -3.1314   -2.1120   -1.4997 C   0  0  0  0  0  0  0  0  0  0  0  0
   -3.8496   -2.8894   -2.1071 O   0  0  0  0  0  0  0  0  0  0  0  0
   -1.7700   -2.2045   -1.4569 O   0  0  0  0  0  0  0  0  0  0  0  0
   -1.1775   -3.2686   -2.2363 C   0  0  0  0  0  0  0  0  0  0  0  0
   -0.9424   -2.8257   -3.6703 C   0  0  0  0  0  0  0  0  0  0  0  0
   -2.9224    1.9437    1.3934 B   0  0  0  0  0  0  0  0  0  0  0  0
   -2.6358    4.9983    2.1905 H   0  0  0  0  0  0  0  0  0  0  0  0
   -3.6475    5.0013    0.7259 H   0  0  0  0  0  0  0  0  0  0  0  0
   -2.2649    6.1401    0.8552 H   0  0  0  0  0  0  0  0  0  0  0  0
   -0.0662    5.2805   -0.5609 H   0  0  0  0  0  0  0  0  0  0  0  0
    3.0788    2.8424   -3.2072 H   0  0  0  0  0  0  0  0  0  0  0  0
    3.6056    2.1419   -1.6485 H   0  0  0  0  0  0  0  0  0  0  0  0
    5.2372    3.9196   -2.4403 H   0  0  0  0  0  0  0  0  0  0  0  0
    4.4592    4.3975   -0.8941 H   0  0  0  0  0  0  0  0  0  0  0  0
    3.9166    5.1365   -2.4400 H   0  0  0  0  0  0  0  0  0  0  0  0
   -5.8089    2.6104    0.2604 H   0  0  0  0  0  0  0  0  0  0  0  0
   -6.0747    1.5983    1.7012 H   0  0  0  0  0  0  0  0  0  0  0  0
   -6.9488    1.2260    0.1774 H   0  0  0  0  0  0  0  0  0  0  0  0
   -5.8405   -0.9465   -1.0957 H   0  0  0  0  0  0  0  0  0  0  0  0
   -1.8471   -4.1511   -2.1960 H   0  0  0  0  0  0  0  0  0  0  0  0
   -0.2264   -3.4991   -1.7219 H   0  0  0  0  0  0  0  0  0  0  0  0
   -0.3987   -3.6168   -4.2251 H   0  0  0  0  0  0  0  0  0  0  0  0
   -0.3278   -1.9042   -3.6978 H   0  0  0  0  0  0  0  0  0  0  0  0
   -1.9039   -2.6353   -4.1862 H   0  0  0  0  0  0  0  0  0  0  0  0
   -3.7892    2.6988    1.8057 H   0  0  0  0  0  0  0  0  0  0  0  0
   -2.3006    1.3956    2.3073 H   0  0  0  0  0  0  0  0  0  0  0  0
  1  2  1  0  0  0  0
  2 23  1  0  0  0  0
  3  2  1  0  0  0  0
  3  4  1  1  0  0  0
  4 24  1  0  0  0  0
  5  3  1  0  0  0  0
  6  5  2  0  0  0  0
  6  1  1  0  0  0  0
  7  6  1  0  0  0  0
  8  7  2  0  0  0  0
  9  7  1  0  0  0  0
 10 11  1  0  0  0  0
 10 29  1  0  0  0  0
 10  9  1  0  0  0  0
 11 31  1  0  0  0  0
 12 13  1  0  0  0  0
 13 23  1  0  0  0  0
 14 13  1  0  0  0  0
 14 15  1  1  0  0  0
 15 34  1  0  0  0  0
 16 14  1  0  0  0  0
 17 16  2  0  0  0  0
 17 12  1  0  0  0  0
 18 20  1  0  0  0  0
 18 17  1  0  0  0  0
 19 18  2  0  0  0  0
 21 37  1  0  0  0  0
 21 38  1  0  0  0  0
 21 20  1  0  0  0  0
 22 21  1  0  0  0  0
 23 42  1  0  0  0  0
 23 43  1  0  0  0  0
 25  4  1  0  0  0  0
 26  4  1  0  0  0  0
 27  5  1  0  0  0  0
 28 10  1  0  0  0  0
 30 11  1  0  0  0  0
 32 11  1  0  0  0  0
 33 15  1  0  0  0  0
 35 15  1  0  0  0  0
 36 16  1  0  0  0  0
 39 22  1  0  0  0  0
 40 22  1  0  0  0  0
 41 22  1  0  0  0  0
M  END
