27,28
 OpenBabel05122313053D

 32 33  0  0  0  0  0  0  0  0999 V2000
   -2.3248   -1.0944    0.3659 C   0  0  0  0  0  0  0  0  0  0  0  0
   -3.1726   -1.9410    1.0966 C   0  0  0  0  0  0  0  0  0  0  0  0
   -4.2544   -1.7580    1.1292 H   0  0  0  0  0  0  0  0  0  0  0  0
   -2.6363   -3.0261    1.8028 C   0  0  0  0  0  0  0  0  0  0  0  0
   -1.2400   -3.2253    1.7638 C   0  0  0  0  0  0  0  0  0  0  0  0
   -0.7996   -4.0618    2.3249 H   0  0  0  0  0  0  0  0  0  0  0  0
   -0.4472   -2.3629    1.0157 C   0  0  0  0  0  0  0  0  0  0  0  0
    0.6433   -2.4877    0.9576 H   0  0  0  0  0  0  0  0  0  0  0  0
   -2.7695    0.1092   -0.3452 C   0  0  0  0  0  0  0  0  0  0  0  0
   -4.0872    0.5944   -0.3608 C   0  0  0  0  0  0  0  0  0  0  0  0
   -4.8967    0.0446    0.1361 H   0  0  0  0  0  0  0  0  0  0  0  0
   -4.3717    1.8049   -1.0088 C   0  0  0  0  0  0  0  0  0  0  0  0
   -3.3153    2.5110   -1.6203 C   0  0  0  0  0  0  0  0  0  0  0  0
   -3.5225    3.4674   -2.1212 H   0  0  0  0  0  0  0  0  0  0  0  0
   -2.0282    1.9810   -1.5818 C   0  0  0  0  0  0  0  0  0  0  0  0
   -1.1639    2.4854   -2.0406 H   0  0  0  0  0  0  0  0  0  0  0  0
   -3.4709   -3.9774    2.6051 C   0  0  0  0  0  0  0  0  0  0  0  0
   -5.6566   -4.5204    3.3026 C   0  0  0  0  0  0  0  0  0  0  0  0
   -5.5840   -5.5617    2.9318 H   0  0  0  0  0  0  0  0  0  0  0  0
   -6.6752   -4.1233    3.1536 H   0  0  0  0  0  0  0  0  0  0  0  0
   -5.3855   -4.5096    4.3767 H   0  0  0  0  0  0  0  0  0  0  0  0
   -5.7516    2.3928   -1.0716 C   0  0  0  0  0  0  0  0  0  0  0  0
   -8.0091    2.1007   -0.4592 C   0  0  0  0  0  0  0  0  0  0  0  0
   -8.0668    3.0872    0.0414 H   0  0  0  0  0  0  0  0  0  0  0  0
   -8.6089    1.3512    0.0848 H   0  0  0  0  0  0  0  0  0  0  0  0
   -8.3712    2.2122   -1.5001 H   0  0  0  0  0  0  0  0  0  0  0  0
   -0.9619   -1.3201    0.3053 N   0  0  0  0  0  2  0  0  0  0  0  0
   -1.7557    0.7949   -0.9749 N   0  0  0  0  0  2  0  0  0  0  0  0
   -3.0081   -4.9193    3.2215 O   0  0  0  0  0  0  0  0  0  0  0  0
   -4.7805   -3.6577    2.5544 O   0  0  0  0  0  0  0  0  0  0  0  0
   -6.0052    3.4471   -1.6224 O   0  0  0  0  0  0  0  0  0  0  0  0
   -6.6554    1.6103   -0.4480 O   0  0  0  0  0  0  0  0  0  0  0  0
  1  2  1  0  0  0  0
  2  3  1  0  0  0  0
  2  4  2  0  0  0  0
  4 17  1  0  0  0  0
  5  4  1  0  0  0  0
  5  6  1  0  0  0  0
  7  5  2  0  0  0  0
  8  7  1  0  0  0  0
  9  1  2  0  0  0  0
 10  9  1  0  0  0  0
 10 11  1  0  0  0  0
 12 10  2  0  0  0  0
 13 15  2  0  0  0  0
 13 12  1  0  0  0  0
 14 13  1  0  0  0  0
 15 28  1  0  0  0  0
 16 15  1  0  0  0  0
 17 29  2  0  0  0  0
 18 21  1  0  0  0  0
 19 18  1  0  0  0  0
 20 18  1  0  0  0  0
 22 12  1  0  0  0  0
 22 32  1  0  0  0  0
 23 32  1  0  0  0  0
 23 24  1  0  0  0  0
 23 25  1  0  0  0  0
 26 23  1  0  0  0  0
 27  1  1  0  0  0  0
 27  7  1  0  0  0  0
 28  9  1  0  0  0  0
 30 17  1  0  0  0  0
 30 18  1  0  0  0  0
 31 22  2  0  0  0  0
M  END
