1,2
 OpenBabel05122313053D

 63 64  0  0  0  0  0  0  0  0999 V2000
   -2.0875    0.6622   -0.2376 N   0  0  0  0  0  0  0  0  0  0  0  0
    1.6788   -0.2574   -0.2709 N   0  0  0  0  0  0  0  0  0  0  0  0
    0.0458    1.2543   -2.2150 N   0  0  0  0  0  0  0  0  0  0  0  0
   -2.1330    0.2037   -1.6399 C   0  0  0  0  0  0  0  0  0  0  0  0
   -3.1840    0.1018   -1.9940 H   0  0  0  0  0  0  0  0  0  0  0  0
   -1.6969   -0.8163   -1.6765 H   0  0  0  0  0  0  0  0  0  0  0  0
    0.8347    0.0659   -2.5751 C   0  0  0  0  0  0  0  0  0  0  0  0
    1.1539    0.1108   -3.6443 H   0  0  0  0  0  0  0  0  0  0  0  0
    0.1942   -0.8333   -2.4813 H   0  0  0  0  0  0  0  0  0  0  0  0
   -3.8392   -1.0421    0.4890 C   0  0  0  0  0  0  0  0  0  0  0  0
    4.0354   -0.7571    0.5397 C   0  0  0  0  0  0  0  0  0  0  0  0
    2.7968    0.1012    0.6631 C   0  0  0  0  0  0  0  0  0  0  0  0
    2.3679    0.0409    1.6815 H   0  0  0  0  0  0  0  0  0  0  0  0
    3.0334    1.1656    0.4726 H   0  0  0  0  0  0  0  0  0  0  0  0
    4.1819   -1.9449    1.2928 C   0  0  0  0  0  0  0  0  0  0  0  0
    3.3991   -2.2247    2.0152 H   0  0  0  0  0  0  0  0  0  0  0  0
   -7.6964   -2.5928   -0.1130 O   0  0  0  0  0  0  0  0  0  0  0  0
   -4.0221   -2.1635   -0.3407 C   0  0  0  0  0  0  0  0  0  0  0  0
   -3.1458   -2.6365   -0.8129 H   0  0  0  0  0  0  0  0  0  0  0  0
   -6.4232   -2.1426    0.0401 C   0  0  0  0  0  0  0  0  0  0  0  0
    7.3934   -3.2611    0.1926 O   0  0  0  0  0  0  0  0  0  0  0  0
   -4.9857   -0.4939    1.1092 C   0  0  0  0  0  0  0  0  0  0  0  0
   -4.8738    0.3631    1.7913 H   0  0  0  0  0  0  0  0  0  0  0  0
    2.0605   -0.0847   -1.6796 C   0  0  0  0  0  0  0  0  0  0  0  0
    2.6914   -0.9288   -2.0440 H   0  0  0  0  0  0  0  0  0  0  0  0
    2.6820    0.8298   -1.7503 H   0  0  0  0  0  0  0  0  0  0  0  0
   -1.3715    1.1295   -2.5827 C   0  0  0  0  0  0  0  0  0  0  0  0
   -1.4947    0.7653   -3.6318 H   0  0  0  0  0  0  0  0  0  0  0  0
   -1.8130    2.1443   -2.5471 H   0  0  0  0  0  0  0  0  0  0  0  0
   -2.4690   -0.4398    0.7060 C   0  0  0  0  0  0  0  0  0  0  0  0
   -2.3989   -0.0194    1.7251 H   0  0  0  0  0  0  0  0  0  0  0  0
   -1.6897   -1.2219    0.6265 H   0  0  0  0  0  0  0  0  0  0  0  0
   -5.2908   -2.7172   -0.5737 C   0  0  0  0  0  0  0  0  0  0  0  0
   -5.3843   -3.5980   -1.2226 H   0  0  0  0  0  0  0  0  0  0  0  0
    6.3361   -2.4071    0.2578 C   0  0  0  0  0  0  0  0  0  0  0  0
    6.2196   -1.2177   -0.4907 C   0  0  0  0  0  0  0  0  0  0  0  0
    7.0133   -0.9035   -1.1814 H   0  0  0  0  0  0  0  0  0  0  0  0
    5.0789   -0.4131   -0.3396 C   0  0  0  0  0  0  0  0  0  0  0  0
    5.0131    0.5239   -0.9152 H   0  0  0  0  0  0  0  0  0  0  0  0
    5.3065   -2.7606    1.1575 C   0  0  0  0  0  0  0  0  0  0  0  0
    5.4245   -3.6804    1.7484 H   0  0  0  0  0  0  0  0  0  0  0  0
   -7.9188   -3.7191   -0.9403 C   0  0  0  0  0  0  0  0  0  0  0  0
   -7.6015   -3.5318   -1.9910 H   0  0  0  0  0  0  0  0  0  0  0  0
   -9.0077   -3.9101   -0.9233 H   0  0  0  0  0  0  0  0  0  0  0  0
   -7.3879   -4.6222   -0.5637 H   0  0  0  0  0  0  0  0  0  0  0  0
   -6.2564   -1.0273    0.8908 C   0  0  0  0  0  0  0  0  0  0  0  0
   -7.1476   -0.6053    1.3771 H   0  0  0  0  0  0  0  0  0  0  0  0
    8.4641   -2.9408   -0.6746 C   0  0  0  0  0  0  0  0  0  0  0  0
    8.1364   -2.8845   -1.7374 H   0  0  0  0  0  0  0  0  0  0  0  0
    9.2060   -3.7541   -0.5710 H   0  0  0  0  0  0  0  0  0  0  0  0
    8.9463   -1.9754   -0.4008 H   0  0  0  0  0  0  0  0  0  0  0  0
    1.1707   -1.6119   -0.0055 C   0  0  0  0  0  0  0  0  0  0  0  0
    0.2906   -1.8232   -0.6440 H   0  0  0  0  0  0  0  0  0  0  0  0
    0.8501   -1.6716    1.0509 H   0  0  0  0  0  0  0  0  0  0  0  0
    1.9372   -2.3941   -0.2084 H   0  0  0  0  0  0  0  0  0  0  0  0
   -2.9502    1.8473   -0.0368 C   0  0  0  0  0  0  0  0  0  0  0  0
   -2.5862    2.6897   -0.6485 H   0  0  0  0  0  0  0  0  0  0  0  0
   -2.8704    2.1638    1.0187 H   0  0  0  0  0  0  0  0  0  0  0  0
   -4.0072    1.6207   -0.2977 H   0  0  0  0  0  0  0  0  0  0  0  0
    0.6415    2.4648   -2.7966 C   0  0  0  0  0  0  0  0  0  0  0  0
    1.6631    2.6128   -2.4005 H   0  0  0  0  0  0  0  0  0  0  0  0
    0.0415    3.3445   -2.5048 H   0  0  0  0  0  0  0  0  0  0  0  0
    0.6909    2.3985   -3.9096 H   0  0  0  0  0  0  0  0  0  0  0  0
  1 56  1  0  0  0  0
  1 30  1  0  0  0  0
  2 52  1  0  0  0  0
  2 12  1  0  0  0  0
  4  1  1  0  0  0  0
  5  4  1  0  0  0  0
  6  4  1  0  0  0  0
  7  9  1  0  0  0  0
  7  3  1  0  0  0  0
  7 24  1  0  0  0  0
  8  7  1  0  0  0  0
 10 30  1  0  0  0  0
 10 22  1  0  0  0  0
 11 12  1  0  0  0  0
 11 15  1  0  0  0  0
 12 13  1  0  0  0  0
 14 12  1  0  0  0  0
 15 16  1  0  0  0  0
 17 20  1  0  0  0  0
 18 10  2  0  0  0  0
 19 18  1  0  0  0  0
 20 46  1  0  0  0  0
 21 35  1  0  0  0  0
 22 23  1  0  0  0  0
 24  2  1  0  0  0  0
 25 24  1  0  0  0  0
 26 24  1  0  0  0  0
 27 29  1  0  0  0  0
 27  3  1  0  0  0  0
 27  4  1  0  0  0  0
 28 27  1  0  0  0  0
 30 31  1  0  0  0  0
 32 30  1  0  0  0  0
 33 18  1  0  0  0  0
 33 20  2  0  0  0  0
 34 33  1  0  0  0  0
 35 40  1  0  0  0  0
 36 38  1  0  0  0  0
 36 35  2  0  0  0  0
 37 36  1  0  0  0  0
 38 11  2  0  0  0  0
 39 38  1  0  0  0  0
 40 15  2  0  0  0  0
 40 41  1  0  0  0  0
 42 44  1  0  0  0  0
 42 45  1  0  0  0  0
 42 17  1  0  0  0  0
 43 42  1  0  0  0  0
 46 22  2  0  0  0  0
 46 47  1  0  0  0  0
 48 50  1  0  0  0  0
 48 51  1  0  0  0  0
 48 21  1  0  0  0  0
 49 48  1  0  0  0  0
 52 54  1  0  0  0  0
 53 52  1  0  0  0  0
 55 52  1  0  0  0  0
 56 58  1  0  0  0  0
 57 56  1  0  0  0  0
 59 56  1  0  0  0  0
 60 62  1  0  0  0  0
 60 61  1  0  0  0  0
 60  3  1  0  0  0  0
 63 60  1  0  0  0  0
M  END
