1,7
 OpenBabel05122313053D

 27 29  0  0  0  0  0  0  0  0999 V2000
    0.0112    1.2855   -0.1354 N   0  0  0  0  0  2  0  0  0  0  0  0
   -0.1931    2.6109   -0.2167 C   0  0  0  0  0  0  0  0  0  0  0  0
    0.8712    3.5129   -0.1797 C   0  0  0  0  0  0  0  0  0  0  0  0
    2.1531    3.0030    0.0029 C   0  0  0  0  0  0  0  0  0  0  0  0
    2.3951    1.6139    0.0960 C   0  0  0  0  0  0  0  0  0  0  0  0
    1.2783    0.7409   -0.0376 C   0  0  0  0  0  0  0  0  0  0  0  0
    0.0052   -1.2923    0.0243 N   0  0  0  0  0  2  0  0  0  0  0  0
   -0.1933   -2.6251    0.0160 C   0  0  0  0  0  0  0  0  0  0  0  0
    0.8670   -3.5183   -0.1276 C   0  0  0  0  0  0  0  0  0  0  0  0
    2.1523   -2.9969   -0.2883 C   0  0  0  0  0  0  0  0  0  0  0  0
    2.3778   -1.6081   -0.2783 C   0  0  0  0  0  0  0  0  0  0  0  0
    1.2642   -0.7472   -0.0812 C   0  0  0  0  0  0  0  0  0  0  0  0
    3.8480    1.2646    0.3681 C   0  0  0  0  0  0  0  0  0  0  0  0
    4.2371   -0.1736    0.6620 C   0  0  0  0  0  0  0  0  0  0  0  0
    3.7893   -1.1195   -0.4574 C   0  0  0  0  0  0  0  0  0  0  0  0
   -1.2553    2.9072   -0.2902 H   0  0  0  0  0  0  0  0  0  0  0  0
    0.6813    4.5923   -0.2603 H   0  0  0  0  0  0  0  0  0  0  0  0
    3.0108    3.6882    0.0929 H   0  0  0  0  0  0  0  0  0  0  0  0
   -1.2507   -2.9289    0.1187 H   0  0  0  0  0  0  0  0  0  0  0  0
    0.6763   -4.6006   -0.1281 H   0  0  0  0  0  0  0  0  0  0  0  0
    3.0124   -3.6691   -0.4306 H   0  0  0  0  0  0  0  0  0  0  0  0
    4.4358    1.6155   -0.5094 H   0  0  0  0  0  0  0  0  0  0  0  0
    4.1776    1.9120    1.2088 H   0  0  0  0  0  0  0  0  0  0  0  0
    5.3395   -0.2148    0.7735 H   0  0  0  0  0  0  0  0  0  0  0  0
    3.8127   -0.5126    1.6306 H   0  0  0  0  0  0  0  0  0  0  0  0
    3.8906   -0.6030   -1.4383 H   0  0  0  0  0  0  0  0  0  0  0  0
    4.4528   -2.0045   -0.5090 H   0  0  0  0  0  0  0  0  0  0  0  0
  1  6  1  0  0  0  0
  2  3  2  0  0  0  0
  2  1  1  0  0  0  0
  3  4  1  0  0  0  0
  4 18  1  0  0  0  0
  4  5  2  0  0  0  0
  5 13  1  0  0  0  0
  6  5  1  0  0  0  0
  8  7  1  0  0  0  0
  8 19  1  0  0  0  0
  9  8  2  0  0  0  0
 10 11  2  0  0  0  0
 10  9  1  0  0  0  0
 11 12  1  0  0  0  0
 12  6  2  0  0  0  0
 12  7  1  0  0  0  0
 13 14  1  0  0  0  0
 13 23  1  0  0  0  0
 14 24  1  0  0  0  0
 14 25  1  0  0  0  0
 15 11  1  0  0  0  0
 15 14  1  0  0  0  0
 16  2  1  0  0  0  0
 17  3  1  0  0  0  0
 20  9  1  0  0  0  0
 21 10  1  0  0  0  0
 22 13  1  0  0  0  0
 26 15  1  0  0  0  0
 27 15  1  0  0  0  0
M  END
