3,4
q = 0.0, confidence = 0.998

 31 32  0  0  0  0  0  0  0  0999 V2000
   -7.5322    0.0839   -0.6289 Cl  0  0  0  0  0  0  0  0  0  0  0  0
   -1.3671    0.2770    2.1266 O   0  0  0  0  0  0  0  0  0  0  0  0
    2.9669    0.5483   -0.0198 N   0  0  0  0  0  2  0  0  0  0  0  0
    0.4642    1.1457    0.3476 N   0  0  0  0  0  2  0  0  0  0  0  0
   -0.9052    1.3779    0.1708 N   0  0  0  0  0  0  0  0  0  0  0  0
   -1.1082    1.3102   -0.8424 H   0  0  0  0  0  0  0  0  0  0  0  0
    2.6759    1.8757    0.1602 C   0  0  0  0  0  0  0  0  0  0  0  0
    3.6941    2.8472    0.2077 C   0  0  0  0  0  0  0  0  0  0  0  0
    3.4331    3.9039    0.3515 H   0  0  0  0  0  0  0  0  0  0  0  0
    5.0283    2.4550    0.0707 C   0  0  0  0  0  0  0  0  0  0  0  0
    5.8356    3.2008    0.1061 H   0  0  0  0  0  0  0  0  0  0  0  0
    5.3137    1.0926   -0.1163 C   0  0  0  0  0  0  0  0  0  0  0  0
    6.3453    0.7338   -0.2378 H   0  0  0  0  0  0  0  0  0  0  0  0
    4.2592    0.1769   -0.1555 C   0  0  0  0  0  0  0  0  0  0  0  0
    4.4375   -0.8972   -0.3077 H   0  0  0  0  0  0  0  0  0  0  0  0
    1.2492    2.1965    0.2669 C   0  0  0  0  0  0  0  0  0  0  0  0
   -1.7663    0.7153    1.0549 C   0  0  0  0  0  0  0  0  0  0  0  0
   -3.1860    0.6129    0.5940 C   0  0  0  0  0  0  0  0  0  0  0  0
   -4.0195   -0.2853    1.2908 C   0  0  0  0  0  0  0  0  0  0  0  0
   -3.5848   -0.8517    2.1270 H   0  0  0  0  0  0  0  0  0  0  0  0
   -5.3548   -0.4572    0.9183 C   0  0  0  0  0  0  0  0  0  0  0  0
   -6.0057   -1.1648    1.4505 H   0  0  0  0  0  0  0  0  0  0  0  0
   -5.8685    0.2878   -0.1583 C   0  0  0  0  0  0  0  0  0  0  0  0
   -5.0590    1.1987   -0.8586 C   0  0  0  0  0  0  0  0  0  0  0  0
   -5.4835    1.7782   -1.6899 H   0  0  0  0  0  0  0  0  0  0  0  0
   -3.7211    1.3560   -0.4789 C   0  0  0  0  0  0  0  0  0  0  0  0
   -3.1035    2.0892   -1.0191 H   0  0  0  0  0  0  0  0  0  0  0  0
    0.7572    3.6065    0.2241 C   0  0  0  0  0  0  0  0  0  0  0  0
   -0.3156    3.6416    0.4819 H   0  0  0  0  0  0  0  0  0  0  0  0
    0.8874    4.0280   -0.7950 H   0  0  0  0  0  0  0  0  0  0  0  0
    1.3255    4.2486    0.9255 H   0  0  0  0  0  0  0  0  0  0  0  0
  1 23  1  0  0  0  0
  3  7  1  0  0  0  0
  5  4  1  0  0  0  0
  5 17  1  0  0  0  0
  6  5  1  0  0  0  0
  7  8  1  0  0  0  0
  7 16  2  0  0  0  0
  8  9  1  0  0  0  0
 10 11  1  0  0  0  0
 10  8  2  0  0  0  0
 12 10  1  0  0  0  0
 13 12  1  0  0  0  0
 14 12  2  0  0  0  0
 14  3  1  0  0  0  0
 15 14  1  0  0  0  0
 16  4  1  0  0  0  0
 17  2  2  0  0  0  0
 18 17  1  0  0  0  0
 18 19  1  0  0  0  0
 19 20  1  0  0  0  0
 21 19  2  0  0  0  0
 21 22  1  0  0  0  0
 23 21  1  0  0  0  0
 24 26  1  0  0  0  0
 24 23  2  0  0  0  0
 25 24  1  0  0  0  0
 26 18  2  0  0  0  0
 27 26  1  0  0  0  0
 28 16  1  0  0  0  0
 28 29  1  0  0  0  0
 28 31  1  0  0  0  0
 30 28  1  0  0  0  0
M  END
