4,12
 OpenBabel05122313053D

 20 21  0  0  1  0  0  0  0  0999 V2000
    4.3635   -0.3297   -1.7001 S   0  0  0  0  0  0  0  0  0  0  0  0
    2.4382   -1.7418   -0.4959 N   0  0  1  0  0  0  0  0  0  0  0  0
    2.7291   -0.4575   -1.0334 C   0  0  2  0  0  3  0  0  0  0  0  0
    1.8136    0.4388   -0.9953 N   0  0  0  0  0  2  0  0  0  0  0  0
    2.5305   -3.7899    0.3432 C   0  0  0  0  0  0  0  0  0  0  0  0
    2.8791   -4.7715    0.6789 H   0  0  0  0  0  0  0  0  0  0  0  0
    3.2878   -2.7978   -0.2604 C   0  0  0  0  0  3  0  0  0  0  0  0
    4.3500   -2.7438   -0.5195 H   0  0  0  0  0  0  0  0  0  0  0  0
    4.5684    1.5116   -1.7839 C   0  0  0  0  0  0  0  0  0  0  0  0
    5.5401    1.7103   -1.2912 H   0  0  0  0  0  0  0  0  0  0  0  0
    4.6646    1.7491   -2.8621 H   0  0  0  0  0  0  0  0  0  0  0  0
    1.1824   -2.0088   -0.0650 N   0  0  0  0  0  2  0  0  0  0  0  0
    3.4383    2.2963   -1.1323 C   0  0  0  0  0  0  0  0  0  0  0  0
    3.5195    2.2760   -0.0257 H   0  0  0  0  0  0  0  0  0  0  0  0
    3.5354    3.3564   -1.4452 H   0  0  0  0  0  0  0  0  0  0  0  0
    1.2252   -3.2376    0.4531 C   0  0  0  0  0  0  0  0  0  0  0  0
    0.3138   -3.6491    0.9048 H   0  0  0  0  0  0  0  0  0  0  0  0
    2.0601    1.7642   -1.5367 C   0  0  0  0  0  0  0  0  0  0  0  0
    1.2584    2.4272   -1.1646 H   0  0  0  0  0  0  0  0  0  0  0  0
    1.9716    1.7227   -2.6482 H   0  0  0  0  0  0  0  0  0  0  0  0
  2  7  1  1  0  0  0
  2 12  1  0  0  0  0
  3  1  1  6  0  0  0
  3  4  1  0  0  0  0
  3  2  1  0  0  0  0
  5 16  2  0  0  0  0
  5  6  1  0  0  0  0
  7  5  1  0  0  0  0
  8  7  1  0  0  0  0
  9  1  1  0  0  0  0
  9 10  1  0  0  0  0
  9 13  1  0  0  0  0
 11  9  1  0  0  0  0
 12 16  1  0  0  0  0
 13 14  1  0  0  0  0
 15 13  1  0  0  0  0
 16 17  1  0  0  0  0
 18 19  1  0  0  0  0
 18 13  1  0  0  0  0
 18  4  1  0  0  0  0
 20 18  1  0  0  0  0
M  END
