2,3
 OpenBabel05122313053D

 52 54  0  0  1  0  0  0  0  0999 V2000
   -1.2174   -1.4166   -0.6843 O   0  0  0  0  0  0  0  0  0  0  0  0
    1.8068   -1.7340    0.4903 N   0  0  0  0  0  2  0  0  0  0  0  0
    0.0158    0.4604    0.0522 N   0  0  0  0  0  2  0  0  0  0  0  0
   -2.3332    0.2733    0.2562 N   0  0  0  0  0  0  0  0  0  0  0  0
   -2.3942    1.2832    0.3935 H   0  0  0  0  0  0  0  0  0  0  0  0
   -1.1053   -0.1889   -0.1303 C   0  0  2  0  0  3  0  0  0  0  0  0
   -0.0900   -2.2722   -0.9338 C   0  0  0  0  0  0  0  0  0  0  0  0
    0.5608   -1.8268   -1.7209 H   0  0  0  0  0  0  0  0  0  0  0  0
   -0.5549   -3.2016   -1.3133 H   0  0  0  0  0  0  0  0  0  0  0  0
    0.7586   -2.5707    0.2767 C   0  0  1  0  0  3  0  0  0  0  0  0
    0.5318   -3.6683    1.1191 C   0  0  0  0  0  0  0  0  0  0  0  0
   -0.3235   -4.3316    0.9246 H   0  0  0  0  0  0  0  0  0  0  0  0
    1.4104   -3.9101    2.1855 C   0  0  0  0  0  0  0  0  0  0  0  0
    1.2490   -4.7649    2.8588 H   0  0  0  0  0  0  0  0  0  0  0  0
    2.5089   -3.0570    2.3624 C   0  0  0  0  0  0  0  0  0  0  0  0
    3.2379   -3.2217    3.1685 H   0  0  0  0  0  0  0  0  0  0  0  0
    2.6818   -1.9779    1.4874 C   0  0  0  0  0  0  0  0  0  0  0  0
    3.5385   -1.2902    1.5422 H   0  0  0  0  0  0  0  0  0  0  0  0
   -0.0534    1.7209    0.8236 C   0  0  0  0  0  0  0  0  0  0  0  0
   -0.8101    1.5693    1.6337 H   0  0  0  0  0  0  0  0  0  0  0  0
   -0.4927    2.9248   -0.0369 C   0  0  0  0  0  0  0  0  0  0  0  0
   -1.4600    2.7203   -0.5477 H   0  0  0  0  0  0  0  0  0  0  0  0
    0.2582    3.0314   -0.8480 H   0  0  0  0  0  0  0  0  0  0  0  0
   -0.5908    4.2047    0.8016 C   0  0  0  0  0  0  0  0  0  0  0  0
   -0.8821    5.0569    0.1529 H   0  0  0  0  0  0  0  0  0  0  0  0
   -1.4017    4.0985    1.5598 H   0  0  0  0  0  0  0  0  0  0  0  0
    0.7310    4.5017    1.5206 C   0  0  0  0  0  0  0  0  0  0  0  0
    1.5146    4.7164    0.7613 H   0  0  0  0  0  0  0  0  0  0  0  0
    0.6360    5.4127    2.1480 H   0  0  0  0  0  0  0  0  0  0  0  0
    1.1745    3.3053    2.3714 C   0  0  0  0  0  0  0  0  0  0  0  0
    0.4433    3.1499    3.1979 H   0  0  0  0  0  0  0  0  0  0  0  0
    2.1518    3.5115    2.8549 H   0  0  0  0  0  0  0  0  0  0  0  0
    1.2775    2.0294    1.5261 C   0  0  0  0  0  0  0  0  0  0  0  0
    2.0603    2.1549    0.7472 H   0  0  0  0  0  0  0  0  0  0  0  0
    1.5748    1.1609    2.1506 H   0  0  0  0  0  0  0  0  0  0  0  0
   -3.6003   -0.4231    0.0441 C   0  0  0  0  0  0  0  0  0  0  0  0
   -3.4109   -1.5013    0.2285 H   0  0  0  0  0  0  0  0  0  0  0  0
   -4.1289   -0.2667   -1.3939 C   0  0  0  0  0  0  0  0  0  0  0  0
   -3.3759   -0.6635   -2.1043 H   0  0  0  0  0  0  0  0  0  0  0  0
   -4.2364    0.8202   -1.6106 H   0  0  0  0  0  0  0  0  0  0  0  0
   -5.4817   -0.9669   -1.5729 C   0  0  0  0  0  0  0  0  0  0  0  0
   -5.8537   -0.8171   -2.6073 H   0  0  0  0  0  0  0  0  0  0  0  0
   -5.3433   -2.0649   -1.4494 H   0  0  0  0  0  0  0  0  0  0  0  0
   -6.5105   -0.4696   -0.5494 C   0  0  0  0  0  0  0  0  0  0  0  0
   -6.7322    0.6035   -0.7464 H   0  0  0  0  0  0  0  0  0  0  0  0
   -7.4708   -1.0131   -0.6674 H   0  0  0  0  0  0  0  0  0  0  0  0
   -5.9861   -0.6205    0.8846 C   0  0  0  0  0  0  0  0  0  0  0  0
   -5.8731   -1.7023    1.1213 H   0  0  0  0  0  0  0  0  0  0  0  0
   -6.7188   -0.2186    1.6146 H   0  0  0  0  0  0  0  0  0  0  0  0
   -4.6305    0.0739    1.0685 C   0  0  0  0  0  0  0  0  0  0  0  0
   -4.7601    1.1734    0.9371 H   0  0  0  0  0  0  0  0  0  0  0  0
   -4.2370   -0.0802    2.0947 H   0  0  0  0  0  0  0  0  0  0  0  0
  2 17  1  0  0  0  0
  3 19  1  0  0  0  0
  4  5  1  0  0  0  0
  6  1  1  1  0  0  0
  6  3  1  0  0  0  0
  6  4  1  0  0  0  0
  7  1  1  0  0  0  0
  8  7  1  0  0  0  0
  9  7  1  0  0  0  0
 10  7  1  6  0  0  0
 10  2  1  0  0  0  0
 10 11  1  0  0  0  0
 11 13  2  0  0  0  0
 12 11  1  0  0  0  0
 13 15  1  0  0  0  0
 13 14  1  0  0  0  0
 15 16  1  0  0  0  0
 17 18  1  0  0  0  0
 17 15  2  0  0  0  0
 19 33  1  0  0  0  0
 19 20  1  0  0  0  0
 21 24  1  0  0  0  0
 21 19  1  0  0  0  0
 22 21  1  0  0  0  0
 23 21  1  0  0  0  0
 24 27  1  0  0  0  0
 24 26  1  0  0  0  0
 25 24  1  0  0  0  0
 27 29  1  0  0  0  0
 27 30  1  0  0  0  0
 28 27  1  0  0  0  0
 30 32  1  0  0  0  0
 30 31  1  0  0  0  0
 33 35  1  0  0  0  0
 33 30  1  0  0  0  0
 34 33  1  0  0  0  0
 36 37  1  0  0  0  0
 36  4  1  0  0  0  0
 36 50  1  0  0  0  0
 38 36  1  0  0  0  0
 39 38  1  0  0  0  0
 40 38  1  0  0  0  0
 41 43  1  0  0  0  0
 41 38  1  0  0  0  0
 41 44  1  0  0  0  0
 42 41  1  0  0  0  0
 44 47  1  0  0  0  0
 45 44  1  0  0  0  0
 46 44  1  0  0  0  0
 47 50  1  0  0  0  0
 47 48  1  0  0  0  0
 47 49  1  0  0  0  0
 50 52  1  0  0  0  0
 51 50  1  0  0  0  0
M  END
