2,6
 OpenBabel05122313053D

 43 45  0  0  1  0  0  0  0  0999 V2000
   -2.0390    1.2235   -0.4501 N   0  0  0  0  0  0  0  0  0  0  0  0
   -0.7420   -1.0359   -1.3629 N   0  0  0  0  0  2  0  0  0  0  0  0
    1.8629   -1.6944   -0.3769 N   0  0  0  0  0  0  0  0  0  0  0  0
    3.2941   -0.3333    1.0726 N   0  0  0  0  0  0  0  0  0  0  0  0
    2.5061    0.2084    1.4719 H   0  0  0  0  0  0  0  0  0  0  0  0
    1.2173    0.9496   -0.9115 N   0  0  0  0  0  2  0  0  0  0  0  0
   -2.7417    2.0841    0.3065 C   0  0  0  0  0  0  0  0  0  0  0  0
   -2.1505    2.8214    0.8791 H   0  0  0  0  0  0  0  0  0  0  0  0
   -4.1444    2.0635    0.3848 C   0  0  0  0  0  0  0  0  0  0  0  0
   -4.6660    2.7878    1.0275 H   0  0  0  0  0  0  0  0  0  0  0  0
   -4.8560    1.1259   -0.3796 C   0  0  0  0  0  0  0  0  0  0  0  0
   -5.9547    1.0878   -0.3476 H   0  0  0  0  0  0  0  0  0  0  0  0
   -4.1344    0.2193   -1.1681 C   0  0  0  0  0  0  0  0  0  0  0  0
   -4.6433   -0.5617   -1.7517 H   0  0  0  0  0  0  0  0  0  0  0  0
   -2.7287    0.2871   -1.1533 C   0  0  0  0  0  0  0  0  0  0  0  0
   -1.9310   -0.7563   -1.7988 C   0  0  0  0  0  3  0  0  0  0  0  0
   -2.3950   -1.3760   -2.5902 H   0  0  0  0  0  0  0  0  0  0  0  0
   -0.0436   -2.2225   -1.8413 C   0  0  0  0  0  0  0  0  0  0  0  0
   -0.3399   -2.4683   -2.8844 H   0  0  0  0  0  0  0  0  0  0  0  0
   -0.3862   -3.0665   -1.1991 H   0  0  0  0  0  0  0  0  0  0  0  0
    1.4726   -2.0515   -1.7342 C   0  0  0  0  0  0  0  0  0  0  0  0
    1.7938   -1.2500   -2.4312 H   0  0  0  0  0  0  0  0  0  0  0  0
    1.9701   -2.9899   -2.0843 H   0  0  0  0  0  0  0  0  0  0  0  0
    2.0395   -2.8612    0.4885 C   0  0  0  0  0  0  0  0  0  0  0  0
    2.8571   -3.5215    0.0875 H   0  0  0  0  0  0  0  0  0  0  0  0
    1.1028   -3.4557    0.4619 H   0  0  0  0  0  0  0  0  0  0  0  0
    2.3626   -2.4591    1.9247 C   0  0  0  0  0  0  0  0  0  0  0  0
    1.4762   -1.9597    2.3688 H   0  0  0  0  0  0  0  0  0  0  0  0
    2.5765   -3.3694    2.5226 H   0  0  0  0  0  0  0  0  0  0  0  0
    3.5513   -1.4938    1.9241 C   0  0  0  0  0  0  0  0  0  0  0  0
    3.7820   -1.1323    2.9467 H   0  0  0  0  0  0  0  0  0  0  0  0
    4.4653   -2.0126    1.5519 H   0  0  0  0  0  0  0  0  0  0  0  0
    2.9426   -0.6952   -0.2810 C   0  0  2  0  0  0  0  0  0  0  0  0
    2.5198    0.5845   -0.9931 C   0  0  2  0  0  3  0  0  0  0  0  0
    3.4576    1.4073   -1.6315 C   0  0  0  0  0  0  0  0  0  0  0  0
    4.5085    1.0862   -1.6641 H   0  0  0  0  0  0  0  0  0  0  0  0
    3.0424    2.6188   -2.1975 C   0  0  0  0  0  0  0  0  0  0  0  0
    3.7671    3.2791   -2.6967 H   0  0  0  0  0  0  0  0  0  0  0  0
    1.6885    2.9748   -2.1119 C   0  0  0  0  0  0  0  0  0  0  0  0
    1.3129    3.9155   -2.5384 H   0  0  0  0  0  0  0  0  0  0  0  0
    0.8046    2.1126   -1.4572 C   0  0  0  0  0  0  0  0  0  0  0  0
   -0.2712    2.3201   -1.3386 H   0  0  0  0  0  0  0  0  0  0  0  0
    3.8727   -1.0791   -0.7852 H   0  0  0  0  0  0  0  0  0  0  0  0
  1  7  1  0  0  0  0
  3 33  1  0  0  0  0
  3 24  1  0  0  0  0
  4  5  1  0  0  0  0
  4 30  1  0  0  0  0
  7  9  2  0  0  0  0
  7  8  1  0  0  0  0
  9 10  1  0  0  0  0
 11 12  1  0  0  0  0
 11  9  1  0  0  0  0
 13 15  1  0  0  0  0
 13 11  2  0  0  0  0
 14 13  1  0  0  0  0
 15  1  2  0  0  0  0
 16  2  1  0  0  0  0
 16 15  1  0  0  0  0
 17 16  1  0  0  0  0
 18 21  1  0  0  0  0
 18  2  1  0  0  0  0
 18 20  1  0  0  0  0
 19 18  1  0  0  0  0
 21  3  1  0  0  0  0
 22 21  1  0  0  0  0
 23 21  1  0  0  0  0
 24 27  1  0  0  0  0
 25 24  1  0  0  0  0
 26 24  1  0  0  0  0
 27 28  1  0  0  0  0
 27 29  1  0  0  0  0
 30 27  1  0  0  0  0
 30 31  1  0  0  0  0
 32 30  1  0  0  0  0
 33 43  1  6  0  0  0
 33  4  1  0  0  0  0
 34 35  1  1  0  0  0
 34  6  1  0  0  0  0
 34 33  1  0  0  0  0
 36 35  1  0  0  0  0
 37 39  1  0  0  0  0
 37 35  2  0  0  0  0
 38 37  1  0  0  0  0
 39 41  2  0  0  0  0
 40 39  1  0  0  0  0
 41 42  1  0  0  0  0
 41  6  1  0  0  0  0
M  END
