3,4
 OpenBabel05122313053D

 27 28  0  0  0  0  0  0  0  0999 V2000
   -3.1795    2.3129   -0.1435 N   0  0  0  0  0  0  0  0  0  0  0  0
   -3.5475    3.0573    0.4455 H   0  0  0  0  0  0  0  0  0  0  0  0
   -1.7000    0.7759   -0.8968 N   0  0  0  0  0  2  0  0  0  0  0  0
    0.3985    1.7279    0.1218 N   0  0  0  0  0  2  0  0  0  0  0  0
    1.6273    2.2245    0.4874 N   0  0  0  0  0  0  0  0  0  0  0  0
    1.9692    3.0635    0.0036 H   0  0  0  0  0  0  0  0  0  0  0  0
    3.8025    2.0058    1.1935 N   0  0  0  0  0  0  0  0  0  0  0  0
    4.4416    1.4599    1.7753 H   0  0  0  0  0  0  0  0  0  0  0  0
    4.1567    2.1365    0.2363 H   0  0  0  0  0  0  0  0  0  0  0  0
    2.0387    0.3281    2.3478 S   0  0  0  0  0  0  0  0  0  0  0  0
   -3.9257    1.2831   -0.6912 C   0  0  0  0  0  0  0  0  0  0  0  0
   -2.9754    0.3367   -1.1913 C   0  0  0  0  0  0  0  0  0  0  0  0
   -3.4064   -0.8157   -1.8677 C   0  0  0  0  0  0  0  0  0  0  0  0
   -2.6635   -1.5163   -2.2761 H   0  0  0  0  0  0  0  0  0  0  0  0
   -4.7904   -1.0354   -1.9825 C   0  0  0  0  0  0  0  0  0  0  0  0
   -5.1587   -1.9281   -2.5108 H   0  0  0  0  0  0  0  0  0  0  0  0
   -5.7228   -0.1154   -1.4477 C   0  0  0  0  0  0  0  0  0  0  0  0
   -6.7996   -0.3166   -1.5514 H   0  0  0  0  0  0  0  0  0  0  0  0
   -5.3064    1.0638   -0.8037 C   0  0  0  0  0  0  0  0  0  0  0  0
   -6.0387    1.7778   -0.3988 H   0  0  0  0  0  0  0  0  0  0  0  0
   -1.8360    1.9654   -0.2389 C   0  0  0  0  0  0  0  0  0  0  0  0
   -0.6628    2.5754    0.2565 C   0  0  0  0  0  0  0  0  0  0  0  0
   -0.5805    3.9155    0.9145 C   0  0  0  0  0  0  0  0  0  0  0  0
    0.0406    3.8590    1.8324 H   0  0  0  0  0  0  0  0  0  0  0  0
   -1.5855    4.2799    1.2052 H   0  0  0  0  0  0  0  0  0  0  0  0
   -0.1353    4.6992    0.2605 H   0  0  0  0  0  0  0  0  0  0  0  0
    2.5040    1.5360    1.2974 C   0  0  0  0  0  0  0  0  0  0  0  0
  1  2  1  0  0  0  0
  3 21  1  0  0  0  0
  4 22  1  0  0  0  0
  4  5  1  0  0  0  0
  5 27  1  0  0  0  0
  6  5  1  0  0  0  0
  7 27  1  0  0  0  0
  7  8  1  0  0  0  0
  9  7  1  0  0  0  0
 11  1  1  0  0  0  0
 12  3  1  0  0  0  0
 12 11  2  0  0  0  0
 13 12  1  0  0  0  0
 14 13  1  0  0  0  0
 15 13  2  0  0  0  0
 15 17  1  0  0  0  0
 16 15  1  0  0  0  0
 17 19  2  0  0  0  0
 18 17  1  0  0  0  0
 19 11  1  0  0  0  0
 19 20  1  0  0  0  0
 21  1  1  0  0  0  0
 21 22  2  0  0  0  0
 22 23  1  0  0  0  0
 23 25  1  0  0  0  0
 23 24  1  0  0  0  0
 26 23  1  0  0  0  0
 27 10  2  0  0  0  0
M  END
