1,2
 OpenBabel05122313053D

 25 27  0  0  1  0  0  0  0  0999 V2000
   -1.8906    0.3781   -0.0050 N   0  0  0  0  0  2  0  0  0  0  0  0
   -0.7809    1.1649   -2.5571 N   0  0  0  0  0  2  0  0  0  0  0  0
   -0.3590    1.1336   -3.4993 H   0  0  0  0  0  0  0  0  0  0  0  0
   -2.3473    2.2219    1.7737 S   0  0  0  0  0  0  0  0  0  0  0  0
   -2.6846   -0.2285    0.9788 C   0  0  0  0  0  0  0  0  0  0  0  0
   -3.1563   -1.5567    0.9930 C   0  0  0  0  0  0  0  0  0  0  0  0
   -2.8818   -2.2436    0.1829 H   0  0  0  0  0  0  0  0  0  0  0  0
   -3.9333   -1.9801    2.0761 C   0  0  0  0  0  0  0  0  0  0  0  0
   -4.3016   -3.0165    2.0936 H   0  0  0  0  0  0  0  0  0  0  0  0
   -4.2554   -1.1091    3.1387 C   0  0  0  0  0  0  0  0  0  0  0  0
   -4.8729   -1.4693    3.9751 H   0  0  0  0  0  0  0  0  0  0  0  0
   -3.8032    0.2155    3.1363 C   0  0  0  0  0  0  0  0  0  0  0  0
   -4.0531    0.9057    3.9546 H   0  0  0  0  0  0  0  0  0  0  0  0
   -3.0248    0.6400    2.0494 C   0  0  0  0  0  0  0  0  0  0  0  0
   -1.6437    1.6717    0.2509 C   0  0  2  0  0  3  0  0  0  0  0  0
   -0.9313    2.6301   -0.5738 C   0  0  0  0  0  0  0  0  0  0  0  0
   -0.5788    2.3695   -1.9466 C   0  0  0  0  0  0  0  0  0  0  0  0
    0.0525    3.4195   -2.6778 C   0  0  0  0  0  0  0  0  0  0  0  0
    0.3192    3.2187   -3.7270 H   0  0  0  0  0  0  0  0  0  0  0  0
    0.3539    4.6481   -2.1005 C   0  0  0  0  0  0  0  0  0  0  0  0
    0.8557    5.4221   -2.7013 H   0  0  0  0  0  0  0  0  0  0  0  0
    0.0342    4.8939   -0.7475 C   0  0  0  0  0  0  0  0  0  0  0  0
    0.2840    5.8538   -0.2742 H   0  0  0  0  0  0  0  0  0  0  0  0
   -0.5993    3.8943   -0.0158 C   0  0  0  0  0  0  0  0  0  0  0  0
   -0.8376    4.0829    1.0427 H   0  0  0  0  0  0  0  0  0  0  0  0
  1 15  1  0  0  0  0
  1  5  1  0  0  0  0
  2 17  1  0  0  0  0
  3  2  1  0  0  0  0
  4 14  1  0  0  0  0
  5  6  2  0  0  0  0
  5 14  1  0  0  0  0
  6  8  1  0  0  0  0
  7  6  1  0  0  0  0
  8  9  1  0  0  0  0
  8 10  2  0  0  0  0
 10 11  1  0  0  0  0
 12 10  1  0  0  0  0
 12 13  1  0  0  0  0
 14 12  2  0  0  0  0
 15 16  1  6  0  0  0
 15  4  1  0  0  0  0
 16 24  1  0  0  0  0
 17 16  2  0  0  0  0
 18 20  2  0  0  0  0
 18 17  1  0  0  0  0
 19 18  1  0  0  0  0
 20 22  1  0  0  0  0
 21 20  1  0  0  0  0
 22 23  1  0  0  0  0
 22 24  2  0  0  0  0
 24 25  1  0  0  0  0
M  END
