1,2
 OpenBabel05122313053D

 32 33  0  0  0  0  0  0  0  0999 V2000
   -1.2137    1.3156   -0.1162 N   0  0  0  0  0  2  0  0  0  0  0  0
    0.3691   -0.2926    1.4250 N   0  0  0  0  0  0  0  0  0  0  0  0
   -1.7305    2.0501   -1.1252 C   0  0  0  0  0  3  0  0  0  0  0  0
   -2.2404    1.4598   -1.9056 H   0  0  0  0  0  0  0  0  0  0  0  0
   -1.6333    3.4454   -1.1334 C   0  0  0  0  0  0  0  0  0  0  0  0
   -2.0674    4.0109   -1.9701 H   0  0  0  0  0  0  0  0  0  0  0  0
   -0.9818    4.0939   -0.0745 C   0  0  0  0  0  0  0  0  0  0  0  0
   -0.8878    5.1898   -0.0585 H   0  0  0  0  0  0  0  0  0  0  0  0
   -0.4443    3.3208    0.9655 C   0  0  0  0  0  0  0  0  0  0  0  0
    0.0771    3.7893    1.8129 H   0  0  0  0  0  0  0  0  0  0  0  0
   -0.5790    1.9289    0.9181 C   0  0  0  0  0  0  0  0  0  0  0  0
   -0.1067    0.9936    1.9978 C   0  0  0  0  0  0  0  0  0  0  0  0
   -0.9737    0.7386    2.6418 H   0  0  0  0  0  0  0  0  0  0  0  0
    0.6609    1.4651    2.6500 H   0  0  0  0  0  0  0  0  0  0  0  0
    0.5025   -1.3050    2.5043 C   0  0  0  0  0  0  0  0  0  0  0  0
    0.6856   -2.2944    2.0518 H   0  0  0  0  0  0  0  0  0  0  0  0
   -0.4535   -1.3646    3.0563 H   0  0  0  0  0  0  0  0  0  0  0  0
    1.3295   -1.0203    3.1900 H   0  0  0  0  0  0  0  0  0  0  0  0
    1.6100   -0.1868    0.6465 C   0  0  0  0  0  0  0  0  0  0  0  0
    2.4072    0.9684    0.6464 C   0  0  0  0  0  0  0  0  0  0  0  0
    2.1312    1.8579    1.2264 H   0  0  0  0  0  0  0  0  0  0  0  0
    3.5876    1.0079   -0.1165 C   0  0  0  0  0  0  0  0  0  0  0  0
    4.1946    1.9268   -0.1109 H   0  0  0  0  0  0  0  0  0  0  0  0
    4.0068   -0.0929   -0.8810 C   0  0  0  0  0  0  0  0  0  0  0  0
    5.2663   -0.0509   -1.7069 C   0  0  0  0  0  0  0  0  0  0  0  0
    5.9597   -0.8705   -1.4255 H   0  0  0  0  0  0  0  0  0  0  0  0
    5.8051    0.9084   -1.5856 H   0  0  0  0  0  0  0  0  0  0  0  0
    5.0417   -0.1802   -2.7865 H   0  0  0  0  0  0  0  0  0  0  0  0
    3.1931   -1.2485   -0.8608 C   0  0  0  0  0  0  0  0  0  0  0  0
    3.4831   -2.1270   -1.4585 H   0  0  0  0  0  0  0  0  0  0  0  0
    2.0127   -1.3016   -0.1182 C   0  0  0  0  0  0  0  0  0  0  0  0
    1.3635   -2.1919   -0.1522 H   0  0  0  0  0  0  0  0  0  0  0  0
  1 11  1  0  0  0  0
  2 12  1  0  0  0  0
  2 15  1  0  0  0  0
  3  1  1  0  0  0  0
  4  3  1  0  0  0  0
  5  3  1  0  0  0  0
  5  7  2  0  0  0  0
  6  5  1  0  0  0  0
  7  8  1  0  0  0  0
  7  9  1  0  0  0  0
  9 10  1  0  0  0  0
 11  9  2  0  0  0  0
 11 12  1  0  0  0  0
 12 13  1  0  0  0  0
 12 14  1  0  0  0  0
 15 17  1  0  0  0  0
 15 18  1  0  0  0  0
 16 15  1  0  0  0  0
 19  2  1  0  0  0  0
 20 19  1  0  0  0  0
 20 21  1  0  0  0  0
 22 23  1  0  0  0  0
 22 20  2  0  0  0  0
 24 29  2  0  0  0  0
 24 22  1  0  0  0  0
 25 27  1  0  0  0  0
 25 26  1  0  0  0  0
 25 24  1  0  0  0  0
 28 25  1  0  0  0  0
 29 31  1  0  0  0  0
 30 29  1  0  0  0  0
 31 19  2  0  0  0  0
 32 31  1  0  0  0  0
M  END
