7,8
 OpenBabel05122313053D

 44 48  0  0  1  0  0  0  0  0999 V2000
    5.1037   -3.0263   -0.0709 Br  0  0  0  0  0  0  0  0  0  0  0  0
   -0.2512    2.1140   -0.9997 N   0  0  0  0  0  0  0  0  0  0  0  0
   -1.2574    1.8806   -1.1528 H   0  0  0  0  0  0  0  0  0  0  0  0
    3.7016    2.8567   -0.1597 N   0  0  0  0  0  0  0  0  0  0  0  0
    4.2211    3.7076    0.0524 H   0  0  0  0  0  0  0  0  0  0  0  0
    0.3509   -0.1944   -1.1715 N   0  0  0  0  0  2  0  0  0  0  0  0
   -0.9160   -0.6198   -1.0869 N   0  0  0  0  0  2  0  0  0  0  0  0
   -3.2766   -1.5735   -0.5811 N   0  0  0  0  0  2  0  0  0  0  0  0
    1.6714    5.2362   -0.3312 C   0  0  0  0  0  0  0  0  0  0  0  0
    2.7033    5.5654   -0.1364 H   0  0  0  0  0  0  0  0  0  0  0  0
    0.6456    6.1785   -0.3816 C   0  0  0  0  0  0  0  0  0  0  0  0
    0.8699    7.2437   -0.2283 H   0  0  0  0  0  0  0  0  0  0  0  0
   -0.6815    5.7641   -0.6303 C   0  0  0  0  0  0  0  0  0  0  0  0
   -1.4896    6.5093   -0.6680 H   0  0  0  0  0  0  0  0  0  0  0  0
   -0.9818    4.4171   -0.8338 C   0  0  0  0  0  0  0  0  0  0  0  0
   -2.0127    4.0845   -1.0264 H   0  0  0  0  0  0  0  0  0  0  0  0
    0.0516    3.4536   -0.7927 C   0  0  1  0  0  3  0  0  0  0  0  0
    0.6561    1.0862   -0.9587 C   0  0  0  0  0  0  0  0  0  0  0  0
    2.0128    1.4481   -0.6819 C   0  0  0  0  0  0  0  0  0  0  0  0
    3.1924    0.6499   -0.4604 C   0  0  0  0  0  0  0  0  0  0  0  0
    3.4516   -0.7347   -0.4735 C   0  0  0  0  0  0  0  0  0  0  0  0
    2.6622   -1.4477   -0.7419 H   0  0  0  0  0  0  0  0  0  0  0  0
    4.7395   -1.1599   -0.1324 C   0  0  0  0  0  0  0  0  0  0  0  0
    5.7740   -0.2464    0.1842 C   0  0  0  0  0  0  0  0  0  0  0  0
    6.7728   -0.6279    0.4370 H   0  0  0  0  0  0  0  0  0  0  0  0
    5.5328    1.1331    0.1827 C   0  0  0  0  0  0  0  0  0  0  0  0
    6.3383    1.8392    0.4313 H   0  0  0  0  0  0  0  0  0  0  0  0
    4.2368    1.5707   -0.1293 C   0  0  0  0  0  0  0  0  0  0  0  0
    2.3654    2.8002   -0.4717 C   0  0  0  0  0  0  0  0  0  0  0  0
    1.3993    3.8614   -0.5317 C   0  0  0  0  0  0  0  0  0  0  0  0
   -1.3293   -1.5431   -1.9565 C   0  0  0  0  0  0  0  0  0  0  0  0
   -0.4928   -1.9976   -3.1076 C   0  0  0  0  0  0  0  0  0  0  0  0
    0.5443   -1.6408   -2.9795 H   0  0  0  0  0  0  0  0  0  0  0  0
   -0.8811   -1.5905   -4.0656 H   0  0  0  0  0  0  0  0  0  0  0  0
   -0.4930   -3.1026   -3.1916 H   0  0  0  0  0  0  0  0  0  0  0  0
   -2.6627   -2.0492   -1.7120 C   0  0  0  0  0  0  0  0  0  0  0  0
   -4.5542   -1.9197   -0.3176 C   0  0  0  0  0  0  0  0  0  0  0  0
   -5.0071   -1.4622    0.5720 H   0  0  0  0  0  0  0  0  0  0  0  0
   -5.2723   -2.7982   -1.1327 C   0  0  0  0  0  0  0  0  0  0  0  0
   -6.3073   -3.0562   -0.8702 H   0  0  0  0  0  0  0  0  0  0  0  0
   -4.6493   -3.3240   -2.2771 C   0  0  0  0  0  0  0  0  0  0  0  0
   -5.1878   -4.0165   -2.9401 H   0  0  0  0  0  0  0  0  0  0  0  0
   -3.3396   -2.9407   -2.5717 C   0  0  0  0  0  0  0  0  0  0  0  0
   -2.8332   -3.3108   -3.4728 H   0  0  0  0  0  0  0  0  0  0  0  0
  2 18  1  0  0  0  0
  2 17  1  0  0  0  0
  3  2  1  0  0  0  0
  4 28  1  0  0  0  0
  4  5  1  0  0  0  0
  6  7  1  0  0  0  0
  6 18  1  0  0  0  0
  8 37  1  0  0  0  0
  9 10  1  0  0  0  0
 11  9  2  0  0  0  0
 11 12  1  0  0  0  0
 13 11  1  0  0  0  0
 14 13  1  0  0  0  0
 15 13  2  0  0  0  0
 16 15  1  0  0  0  0
 17 15  1  1  0  0  0
 17 30  1  0  0  0  0
 18 19  2  0  0  0  0
 19 29  1  0  0  0  0
 19 20  1  0  0  0  0
 20 28  1  0  0  0  0
 21 20  2  0  0  0  0
 21 23  1  0  0  0  0
 22 21  1  0  0  0  0
 23  1  1  0  0  0  0
 23 24  2  0  0  0  0
 24 25  1  0  0  0  0
 26 24  1  0  0  0  0
 26 27  1  0  0  0  0
 28 26  2  0  0  0  0
 29  4  1  0  0  0  0
 30 29  2  0  0  0  0
 30  9  1  0  0  0  0
 31 36  2  0  0  0  0
 31  7  1  0  0  0  0
 32 33  1  0  0  0  0
 32 31  1  0  0  0  0
 34 32  1  0  0  0  0
 35 32  1  0  0  0  0
 36  8  1  0  0  0  0
 37 38  1  0  0  0  0
 39 40  1  0  0  0  0
 39 37  2  0  0  0  0
 41 39  1  0  0  0  0
 42 41  1  0  0  0  0
 43 41  2  0  0  0  0
 43 36  1  0  0  0  0
 44 43  1  0  0  0  0
M  END
