26,27
 OpenBabel05122313053D

 28 29  0  0  0  0  0  0  0  0999 V2000
    2.9535   -0.8724   -0.4587 C   0  0  0  0  0  0  0  0  0  0  0  0
    3.3973    0.0202   -1.4782 C   0  0  0  0  0  0  0  0  0  0  0  0
    4.7714    0.3609   -1.4883 C   0  0  0  0  0  0  0  0  0  0  0  0
    5.1109    1.0401   -2.2838 H   0  0  0  0  0  0  0  0  0  0  0  0
    5.6550   -0.1301   -0.5273 C   0  0  0  0  0  0  0  0  0  0  0  0
    6.7134    0.1733   -0.5668 H   0  0  0  0  0  0  0  0  0  0  0  0
    5.2187   -0.9955    0.5034 C   0  0  0  0  0  0  0  0  0  0  0  0
    3.8643   -1.3566    0.5076 C   0  0  0  0  0  0  0  0  0  0  0  0
    3.4620   -1.9889    1.3138 H   0  0  0  0  0  0  0  0  0  0  0  0
    6.1743   -1.5002    1.5556 C   0  0  0  0  0  0  0  0  0  0  0  0
    6.9690   -2.1356    1.1100 H   0  0  0  0  0  0  0  0  0  0  0  0
    5.6526   -2.1039    2.3230 H   0  0  0  0  0  0  0  0  0  0  0  0
    6.6875   -0.6643    2.0753 H   0  0  0  0  0  0  0  0  0  0  0  0
    1.2982   -2.5257   -0.2738 C   0  0  0  0  0  0  0  0  0  0  0  0
    2.0851   -3.2980   -0.3059 H   0  0  0  0  0  0  0  0  0  0  0  0
   -0.0980   -2.8812   -0.2655 C   0  0  0  0  0  0  0  0  0  0  0  0
   -0.5750   -4.2029   -0.3250 C   0  0  0  0  0  0  0  0  0  0  0  0
    0.1376   -5.0353   -0.2339 H   0  0  0  0  0  0  0  0  0  0  0  0
   -1.9415   -4.4276   -0.5253 C   0  0  0  0  0  0  0  0  0  0  0  0
   -2.3419   -5.4509   -0.5687 H   0  0  0  0  0  0  0  0  0  0  0  0
   -2.7795   -3.3161   -0.7060 C   0  0  0  0  0  0  0  0  0  0  0  0
   -3.8526   -3.4326   -0.9121 H   0  0  0  0  0  0  0  0  0  0  0  0
   -2.2433   -2.0252   -0.6181 C   0  0  0  0  0  0  0  0  0  0  0  0
   -2.8711   -1.1387   -0.7689 H   0  0  0  0  0  0  0  0  0  0  0  0
    2.6253    0.5529   -2.4292 O   0  0  0  0  0  0  0  0  0  0  0  0
    1.5898   -1.2456   -0.3797 N   0  0  0  0  0  2  0  0  0  0  0  0
   -0.9434   -1.7959   -0.3379 N   0  0  0  0  0  2  0  0  0  0  0  0
    1.6412    0.3849   -2.3147 H   0  0  0  0  0  0  0  0  0  0  0  0
  1 26  1  0  0  0  0
  1  8  1  0  0  0  0
  2  1  2  0  0  0  0
  3  2  1  0  0  0  0
  3  5  2  0  0  0  0
  4  3  1  0  0  0  0
  5  7  1  0  0  0  0
  6  5  1  0  0  0  0
  7  8  2  0  0  0  0
  7 10  1  0  0  0  0
  8  9  1  0  0  0  0
 10 13  1  0  0  0  0
 10 12  1  0  0  0  0
 11 10  1  0  0  0  0
 14 16  2  0  0  0  0
 15 14  1  0  0  0  0
 17 16  1  0  0  0  0
 17 18  1  0  0  0  0
 19 17  2  0  0  0  0
 20 19  1  0  0  0  0
 21 23  2  0  0  0  0
 21 19  1  0  0  0  0
 22 21  1  0  0  0  0
 23 27  1  0  0  0  0
 24 23  1  0  0  0  0
 25 28  1  0  0  0  0
 25  2  1  0  0  0  0
 26 14  1  0  0  0  0
 27 16  1  0  0  0  0
M  END
