10,15
 OpenBabel05122313053D

 72 78  0  0  1  0  0  0  0  0999 V2000
    0.1564    0.1629    1.7354 P   0  0  0  0  0  4  0  0  0  0  0  0
    0.5942   -0.3134   -1.0283 P   0  0  0  0  0  4  0  0  0  0  0  0
    2.5748    0.8264    0.5409 P   0  0  0  0  0  4  0  0  0  0  0  0
   -0.8029    1.2521    2.4467 O   0  0  0  0  0  0  0  0  0  0  0  0
   -0.0757   -1.1168    2.7568 O   0  0  0  0  0  0  0  0  0  0  0  0
   -0.1190    0.5238   -2.2665 O   0  0  0  0  0  0  0  0  0  0  0  0
    0.7175   -1.8000   -1.6892 O   0  0  0  0  0  0  0  0  0  0  0  0
    3.0289    2.4093    0.3315 O   0  0  0  0  0  0  0  0  0  0  0  0
    4.0226    0.2117    0.9990 O   0  0  0  0  0  0  0  0  0  0  0  0
   -0.4299   -0.1872    0.2346 N   0  0  0  0  0  2  0  0  0  0  0  0
    2.1004    0.1682   -0.8505 N   0  0  0  0  0  2  0  0  0  0  0  0
    1.6577    0.6869    1.8513 N   0  0  0  0  0  2  0  0  0  0  0  0
   -2.5797    2.6249    2.0469 N   0  0  0  0  0  0  0  0  0  0  0  0
    1.3236   -2.3432    1.3812 N   0  0  0  0  0  0  0  0  0  0  0  0
   -2.2240    1.0412   -1.3367 N   0  0  0  0  0  2  0  0  0  0  0  0
   -1.5244   -1.9917   -2.2903 N   0  0  0  0  0  0  0  0  0  0  0  0
    0.7931    2.9746    0.0848 N   0  0  0  0  0  0  0  0  0  0  0  0
    5.1425    0.7165   -0.9791 N   0  0  0  0  0  0  0  0  0  0  0  0
   -2.1851    1.3868    2.3120 C   0  0  0  0  0  0  0  0  0  0  0  0
   -3.0438    0.2890    2.4946 C   0  0  0  0  0  0  0  0  0  0  0  0
   -2.6541   -0.7201    2.6842 H   0  0  0  0  0  0  0  0  0  0  0  0
   -4.4191    0.5366    2.3977 C   0  0  0  0  0  0  0  0  0  0  0  0
   -5.1272   -0.2980    2.4950 H   0  0  0  0  0  0  0  0  0  0  0  0
   -4.8651    1.8427    2.1422 C   0  0  0  0  0  0  0  0  0  0  0  0
   -5.9370    2.0736    2.0592 H   0  0  0  0  0  0  0  0  0  0  0  0
   -3.9047    2.8497    1.9727 C   0  0  0  0  0  0  0  0  0  0  0  0
   -4.2098    3.8892    1.7579 H   0  0  0  0  0  0  0  0  0  0  0  0
    0.4976   -2.3234    2.4222 C   0  0  0  0  0  0  0  0  0  0  0  0
    0.1802   -3.4467    3.2047 C   0  0  0  0  0  0  0  0  0  0  0  0
   -0.5212   -3.3548    4.0442 H   0  0  0  0  0  0  0  0  0  0  0  0
    0.7700   -4.6586    2.8382 C   0  0  0  0  0  0  0  0  0  0  0  0
    0.5468   -5.5721    3.4098 H   0  0  0  0  0  0  0  0  0  0  0  0
    1.6367   -4.7037    1.7294 C   0  0  0  0  0  0  0  0  0  0  0  0
    2.1089   -5.6445    1.4126 H   0  0  0  0  0  0  0  0  0  0  0  0
    1.8798   -3.5151    1.0321 C   0  0  0  0  0  0  0  0  0  0  0  0
    2.5446   -3.4880    0.1517 H   0  0  0  0  0  0  0  0  0  0  0  0
   -1.1889    1.3533   -2.1525 C   0  0  2  0  0  3  0  0  0  0  0  0
   -1.1753    2.5070   -2.9544 C   0  0  0  0  0  0  0  0  0  0  0  0
   -0.2998    2.6813   -3.5931 H   0  0  0  0  0  0  0  0  0  0  0  0
   -2.2583    3.3848   -2.8941 C   0  0  0  0  0  0  0  0  0  0  0  0
   -2.2662    4.2982   -3.5069 H   0  0  0  0  0  0  0  0  0  0  0  0
   -3.3215    3.0822   -2.0273 C   0  0  0  0  0  0  0  0  0  0  0  0
   -4.1942    3.7428   -1.9314 H   0  0  0  0  0  0  0  0  0  0  0  0
   -3.2696    1.9098   -1.2753 C   0  0  0  0  0  0  0  0  0  0  0  0
   -4.0923    1.5929   -0.6208 H   0  0  0  0  0  0  0  0  0  0  0  0
   -0.3377   -2.5681   -2.1503 C   0  0  0  0  0  0  0  0  0  0  0  0
   -0.0599   -3.9120   -2.4443 C   0  0  0  0  0  0  0  0  0  0  0  0
    0.9489   -4.3163   -2.2862 H   0  0  0  0  0  0  0  0  0  0  0  0
   -1.1190   -4.6834   -2.9344 C   0  0  0  0  0  0  0  0  0  0  0  0
   -0.9594   -5.7444   -3.1792 H   0  0  0  0  0  0  0  0  0  0  0  0
   -2.3840   -4.0912   -3.0978 C   0  0  0  0  0  0  0  0  0  0  0  0
   -3.2409   -4.6696   -3.4711 H   0  0  0  0  0  0  0  0  0  0  0  0
   -2.5418   -2.7452   -2.7525 C   0  0  0  0  0  0  0  0  0  0  0  0
   -3.5199   -2.2384   -2.7969 H   0  0  0  0  0  0  0  0  0  0  0  0
    2.0633    3.3682    0.1644 C   0  0  0  0  0  0  0  0  0  0  0  0
    2.4806    4.7112    0.1073 C   0  0  0  0  0  0  0  0  0  0  0  0
    3.5492    4.9575    0.1682 H   0  0  0  0  0  0  0  0  0  0  0  0
    1.4827    5.6828   -0.0145 C   0  0  0  0  0  0  0  0  0  0  0  0
    1.7566    6.7479   -0.0601 H   0  0  0  0  0  0  0  0  0  0  0  0
    0.1335    5.2876   -0.0587 C   0  0  0  0  0  0  0  0  0  0  0  0
   -0.6776    6.0262   -0.1271 H   0  0  0  0  0  0  0  0  0  0  0  0
   -0.1607    3.9199   -0.0029 C   0  0  0  0  0  0  0  0  0  0  0  0
   -1.2020    3.5616    0.0047 H   0  0  0  0  0  0  0  0  0  0  0  0
    5.1092    0.0538    0.1696 C   0  0  0  0  0  0  0  0  0  0  0  0
    6.1256   -0.8089    0.6244 C   0  0  0  0  0  0  0  0  0  0  0  0
    6.0200   -1.3238    1.5891 H   0  0  0  0  0  0  0  0  0  0  0  0
    7.2425   -0.9678   -0.2012 C   0  0  0  0  0  0  0  0  0  0  0  0
    8.0657   -1.6297    0.1076 H   0  0  0  0  0  0  0  0  0  0  0  0
    7.2969   -0.2789   -1.4263 C   0  0  0  0  0  0  0  0  0  0  0  0
    8.1574   -0.3821   -2.1028 H   0  0  0  0  0  0  0  0  0  0  0  0
    6.2181    0.5485   -1.7664 C   0  0  0  0  0  0  0  0  0  0  0  0
    6.2150    1.1078   -2.7184 H   0  0  0  0  0  0  0  0  0  0  0  0
  1 12  1  0  0  0  0
  1  4  1  0  0  0  0
  1  5  1  0  0  0  0
  2 11  1  0  0  0  0
  2 10  1  0  0  0  0
  3  9  1  0  0  0  0
  3 12  1  0  0  0  0
  6  2  1  0  0  0  0
  7  2  1  0  0  0  0
  8  3  1  0  0  0  0
 10  1  1  0  0  0  0
 11  3  1  0  0  0  0
 13 19  1  0  0  0  0
 14 28  1  0  0  0  0
 15 44  1  0  0  0  0
 16 46  1  0  0  0  0
 17 55  1  0  0  0  0
 18 64  1  0  0  0  0
 19  4  1  0  0  0  0
 19 20  2  0  0  0  0
 20 21  1  0  0  0  0
 22 20  1  0  0  0  0
 22 23  1  0  0  0  0
 24 22  2  0  0  0  0
 25 24  1  0  0  0  0
 26 13  2  0  0  0  0
 26 24  1  0  0  0  0
 27 26  1  0  0  0  0
 28  5  1  0  0  0  0
 28 29  2  0  0  0  0
 29 30  1  0  0  0  0
 31 29  1  0  0  0  0
 31 32  1  0  0  0  0
 33 31  2  0  0  0  0
 34 33  1  0  0  0  0
 35 14  2  0  0  0  0
 35 33  1  0  0  0  0
 36 35  1  0  0  0  0
 37  6  1  6  0  0  0
 37 15  1  0  0  0  0
 38 40  2  0  0  0  0
 38 37  1  0  0  0  0
 39 38  1  0  0  0  0
 40 42  1  0  0  0  0
 41 40  1  0  0  0  0
 42 43  1  0  0  0  0
 42 44  2  0  0  0  0
 44 45  1  0  0  0  0
 46  7  1  0  0  0  0
 47 48  1  0  0  0  0
 47 46  2  0  0  0  0
 49 47  1  0  0  0  0
 50 49  1  0  0  0  0
 51 49  2  0  0  0  0
 51 53  1  0  0  0  0
 52 51  1  0  0  0  0
 53 16  2  0  0  0  0
 54 53  1  0  0  0  0
 55  8  1  0  0  0  0
 56 55  2  0  0  0  0
 56 57  1  0  0  0  0
 58 56  1  0  0  0  0
 59 58  1  0  0  0  0
 60 58  2  0  0  0  0
 60 62  1  0  0  0  0
 61 60  1  0  0  0  0
 62 63  1  0  0  0  0
 62 17  2  0  0  0  0
 64 65  2  0  0  0  0
 64  9  1  0  0  0  0
 65 66  1  0  0  0  0
 67 68  1  0  0  0  0
 67 65  1  0  0  0  0
 69 67  2  0  0  0  0
 70 69  1  0  0  0  0
 71 69  1  0  0  0  0
 71 18  2  0  0  0  0
 72 71  1  0  0  0  0
M  END
