1,2
 OpenBabel05122313053D

 68 68  0  0  0  0  0  0  0  0999 V2000
   -4.9959    1.6445   -0.5239 N   0  0  0  0  0  2  0  0  0  0  0  0
   -2.9746    0.1085    0.2347 N   0  0  0  0  0  2  0  0  0  0  0  0
   -6.0471    2.3934   -0.9169 C   0  0  0  0  0  3  0  0  0  0  0  0
   -7.0093    1.8688   -1.0054 H   0  0  0  0  0  0  0  0  0  0  0  0
   -5.9345    3.7612   -1.1882 C   0  0  0  0  0  0  0  0  0  0  0  0
   -6.8250    4.3237   -1.5017 H   0  0  0  0  0  0  0  0  0  0  0  0
   -4.6853    4.3889   -1.0479 C   0  0  0  0  0  0  0  0  0  0  0  0
   -4.5700    5.4634   -1.2516 H   0  0  0  0  0  0  0  0  0  0  0  0
   -3.5916    3.6200   -0.6407 C   0  0  0  0  0  0  0  0  0  0  0  0
   -2.5938    4.0638   -0.5132 H   0  0  0  0  0  0  0  0  0  0  0  0
   -3.7750    2.2493   -0.3813 C   0  0  0  0  0  0  0  0  0  0  0  0
   -2.7026    1.3658    0.0364 C   0  0  0  0  0  3  0  0  0  0  0  0
   -1.6800    1.7642    0.1706 H   0  0  0  0  0  0  0  0  0  0  0  0
   -1.9099   -0.8004    0.6510 C   0  0  0  0  0  0  0  0  0  0  0  0
   -2.2362   -1.2514    1.6117 H   0  0  0  0  0  0  0  0  0  0  0  0
   -0.9812   -0.2213    0.8495 H   0  0  0  0  0  0  0  0  0  0  0  0
   -1.6490   -1.9078   -0.3796 C   0  0  0  0  0  0  0  0  0  0  0  0
   -0.8650   -2.5671    0.0489 H   0  0  0  0  0  0  0  0  0  0  0  0
   -2.5582   -2.5354   -0.4700 H   0  0  0  0  0  0  0  0  0  0  0  0
   -1.2397   -1.4082   -1.7718 C   0  0  0  0  0  0  0  0  0  0  0  0
   -2.0916   -0.8555   -2.2218 H   0  0  0  0  0  0  0  0  0  0  0  0
   -1.0911   -2.2961   -2.4235 H   0  0  0  0  0  0  0  0  0  0  0  0
    0.0198   -0.5317   -1.8272 C   0  0  0  0  0  0  0  0  0  0  0  0
   -0.1490    0.4228   -1.2783 H   0  0  0  0  0  0  0  0  0  0  0  0
    0.1892   -0.2272   -2.8831 H   0  0  0  0  0  0  0  0  0  0  0  0
    1.2928   -1.1940   -1.2916 C   0  0  0  0  0  0  0  0  0  0  0  0
    1.1626   -1.4614   -0.2190 H   0  0  0  0  0  0  0  0  0  0  0  0
    1.4517   -2.1612   -1.8204 H   0  0  0  0  0  0  0  0  0  0  0  0
    2.5444   -0.3241   -1.4346 C   0  0  0  0  0  0  0  0  0  0  0  0
    2.3814    0.6438   -0.9074 H   0  0  0  0  0  0  0  0  0  0  0  0
    2.6865   -0.0570   -2.5064 H   0  0  0  0  0  0  0  0  0  0  0  0
    3.8207   -0.9805   -0.9025 C   0  0  0  0  0  0  0  0  0  0  0  0
    3.9852   -1.9457   -1.4331 H   0  0  0  0  0  0  0  0  0  0  0  0
    3.6765   -1.2517    0.1680 H   0  0  0  0  0  0  0  0  0  0  0  0
    5.0714   -0.1085   -1.0393 C   0  0  0  0  0  0  0  0  0  0  0  0
    4.9092    0.8543   -0.5032 H   0  0  0  0  0  0  0  0  0  0  0  0
    5.2120    0.1678   -2.1090 H   0  0  0  0  0  0  0  0  0  0  0  0
    6.3488   -0.7700   -0.5158 C   0  0  0  0  0  0  0  0  0  0  0  0
    6.2067   -1.0506    0.5525 H   0  0  0  0  0  0  0  0  0  0  0  0
    6.5124   -1.7305   -1.0552 H   0  0  0  0  0  0  0  0  0  0  0  0
    7.5994    0.1031   -0.6472 C   0  0  0  0  0  0  0  0  0  0  0  0
    7.4378    1.0615   -0.1031 H   0  0  0  0  0  0  0  0  0  0  0  0
    7.7385    0.3882   -1.7149 H   0  0  0  0  0  0  0  0  0  0  0  0
    8.8778   -0.5623   -0.1312 C   0  0  0  0  0  0  0  0  0  0  0  0
    9.0404   -1.5190   -0.6778 H   0  0  0  0  0  0  0  0  0  0  0  0
    8.7376   -0.8508    0.9354 H   0  0  0  0  0  0  0  0  0  0  0  0
   10.1282    0.3115   -0.2584 C   0  0  0  0  0  0  0  0  0  0  0  0
   10.2662    0.6034   -1.3243 H   0  0  0  0  0  0  0  0  0  0  0  0
    9.9673    1.2664    0.2919 H   0  0  0  0  0  0  0  0  0  0  0  0
   11.4073   -0.3570    0.2522 C   0  0  0  0  0  0  0  0  0  0  0  0
   11.2685   -0.6513    1.3174 H   0  0  0  0  0  0  0  0  0  0  0  0
   11.5690   -1.3107   -0.2999 H   0  0  0  0  0  0  0  0  0  0  0  0
   12.6577    0.5174    0.1280 C   0  0  0  0  0  0  0  0  0  0  0  0
   12.4969    1.4699    0.6825 H   0  0  0  0  0  0  0  0  0  0  0  0
   12.7948    0.8138   -0.9368 H   0  0  0  0  0  0  0  0  0  0  0  0
   13.9371   -0.1532    0.6349 C   0  0  0  0  0  0  0  0  0  0  0  0
   14.0979   -1.1050    0.0793 H   0  0  0  0  0  0  0  0  0  0  0  0
   13.7991   -0.4511    1.6992 H   0  0  0  0  0  0  0  0  0  0  0  0
   15.1877    0.7210    0.5128 C   0  0  0  0  0  0  0  0  0  0  0  0
   15.3252    1.0203   -0.5514 H   0  0  0  0  0  0  0  0  0  0  0  0
   15.0276    1.6725    1.0696 H   0  0  0  0  0  0  0  0  0  0  0  0
   16.4684    0.0495    1.0180 C   0  0  0  0  0  0  0  0  0  0  0  0
   16.6249   -0.9008    0.4603 H   0  0  0  0  0  0  0  0  0  0  0  0
   16.3271   -0.2497    2.0807 H   0  0  0  0  0  0  0  0  0  0  0  0
   17.7112    0.9313    0.8921 C   0  0  0  0  0  0  0  0  0  0  0  0
   17.5978    1.8726    1.4698 H   0  0  0  0  0  0  0  0  0  0  0  0
   17.8979    1.2162   -0.1646 H   0  0  0  0  0  0  0  0  0  0  0  0
   18.6207    0.4184    1.2652 H   0  0  0  0  0  0  0  0  0  0  0  0
  1 11  1  0  0  0  0
  2 14  1  0  0  0  0
  3  1  1  0  0  0  0
  4  3  1  0  0  0  0
  5  7  2  0  0  0  0
  5  3  1  0  0  0  0
  6  5  1  0  0  0  0
  7  9  1  0  0  0  0
  8  7  1  0  0  0  0
  9 10  1  0  0  0  0
  9 11  2  0  0  0  0
 11 12  1  0  0  0  0
 12 13  1  0  0  0  0
 12  2  1  0  0  0  0
 14 16  1  0  0  0  0
 14 15  1  0  0  0  0
 17 18  1  0  0  0  0
 17 14  1  0  0  0  0
 19 17  1  0  0  0  0
 20 17  1  0  0  0  0
 21 20  1  0  0  0  0
 22 20  1  0  0  0  0
 23 20  1  0  0  0  0
 23 26  1  0  0  0  0
 23 24  1  0  0  0  0
 25 23  1  0  0  0  0
 26 27  1  0  0  0  0
 28 26  1  0  0  0  0
 29 26  1  0  0  0  0
 29 30  1  0  0  0  0
 29 32  1  0  0  0  0
 31 29  1  0  0  0  0
 32 34  1  0  0  0  0
 33 32  1  0  0  0  0
 35 32  1  0  0  0  0
 35 38  1  0  0  0  0
 35 36  1  0  0  0  0
 37 35  1  0  0  0  0
 38 39  1  0  0  0  0
 40 38  1  0  0  0  0
 41 38  1  0  0  0  0
 41 44  1  0  0  0  0
 41 42  1  0  0  0  0
 43 41  1  0  0  0  0
 44 46  1  0  0  0  0
 45 44  1  0  0  0  0
 47 44  1  0  0  0  0
 47 50  1  0  0  0  0
 47 49  1  0  0  0  0
 48 47  1  0  0  0  0
 50 51  1  0  0  0  0
 52 50  1  0  0  0  0
 53 50  1  0  0  0  0
 53 56  1  0  0  0  0
 53 54  1  0  0  0  0
 55 53  1  0  0  0  0
 56 58  1  0  0  0  0
 57 56  1  0  0  0  0
 59 56  1  0  0  0  0
 59 62  1  0  0  0  0
 59 61  1  0  0  0  0
 60 59  1  0  0  0  0
 62 64  1  0  0  0  0
 63 62  1  0  0  0  0
 65 62  1  0  0  0  0
 65 68  1  0  0  0  0
 65 66  1  0  0  0  0
 67 65  1  0  0  0  0
M  END
