4,5
 OpenBabel05122313053D

 54 57  0  0  1  0  0  0  0  0999 V2000
    1.6994   -0.3783    0.9231 S   0  0  0  0  0  0  0  0  0  0  0  0
    1.2759   -1.2940    2.0111 O   0  0  0  0  0  0  0  0  0  0  0  0
    1.6740    1.1415    1.2604 O   0  0  0  0  0  0  0  0  0  0  0  0
    0.7977   -0.3085   -0.4368 N   0  0  0  0  0  2  0  0  0  0  0  0
   -1.2401    0.8826    1.5487 N   0  0  0  0  0  2  0  0  0  0  0  0
    0.2290   -1.5602   -0.9150 C   0  0  0  0  0  0  0  0  0  0  0  0
    0.9915   -2.3646   -0.8141 H   0  0  0  0  0  0  0  0  0  0  0  0
    0.0369   -1.4496   -2.0034 H   0  0  0  0  0  0  0  0  0  0  0  0
   -1.0590   -2.0089   -0.1806 C   0  0  2  0  0  0  0  0  0  0  0  0
   -0.8936   -1.7688    0.8875 H   0  0  0  0  0  0  0  0  0  0  0  0
   -1.2983   -3.5126   -0.2539 C   0  0  0  0  0  0  0  0  0  0  0  0
   -0.8682   -4.3014   -1.3397 C   0  0  0  0  0  0  0  0  0  0  0  0
   -0.3095   -3.8479   -2.1728 H   0  0  0  0  0  0  0  0  0  0  0  0
   -1.1393   -5.6791   -1.3769 C   0  0  0  0  0  0  0  0  0  0  0  0
   -0.7933   -6.2797   -2.2316 H   0  0  0  0  0  0  0  0  0  0  0  0
   -1.8446   -6.2884   -0.3293 C   0  0  0  0  0  0  0  0  0  0  0  0
   -2.0553   -7.3678   -0.3580 H   0  0  0  0  0  0  0  0  0  0  0  0
   -2.2750   -5.5127    0.7596 C   0  0  0  0  0  0  0  0  0  0  0  0
   -2.8218   -5.9838    1.5903 H   0  0  0  0  0  0  0  0  0  0  0  0
   -2.0030   -4.1388    0.7941 C   0  0  0  0  0  0  0  0  0  0  0  0
   -2.3379   -3.5345    1.6526 H   0  0  0  0  0  0  0  0  0  0  0  0
   -2.2936   -1.2543   -0.6647 C   0  0  0  0  0  0  0  0  0  0  0  0
   -2.9017   -1.6278   -1.8824 C   0  0  0  0  0  0  0  0  0  0  0  0
   -2.4336   -2.4196   -2.4865 H   0  0  0  0  0  0  0  0  0  0  0  0
   -4.1161   -1.0743   -2.3036 C   0  0  0  0  0  0  0  0  0  0  0  0
   -4.5686   -1.4016   -3.2516 H   0  0  0  0  0  0  0  0  0  0  0  0
   -4.7737   -0.1350   -1.4923 C   0  0  0  0  0  0  0  0  0  0  0  0
   -5.7480    0.2790   -1.7910 H   0  0  0  0  0  0  0  0  0  0  0  0
   -4.1805    0.2629   -0.2887 C   0  0  0  0  0  0  0  0  0  0  0  0
   -4.6929    0.9880    0.3619 H   0  0  0  0  0  0  0  0  0  0  0  0
   -2.9274   -0.2553    0.1163 C   0  0  0  0  0  0  0  0  0  0  0  0
   -2.4044    0.1809    1.4410 C   0  0  2  0  0  3  0  0  0  0  0  0
   -3.1619   -0.1200    2.5921 C   0  0  0  0  0  0  0  0  0  0  0  0
   -4.0880   -0.6984    2.4688 H   0  0  0  0  0  0  0  0  0  0  0  0
   -2.7292    0.2922    3.8557 C   0  0  0  0  0  0  0  0  0  0  0  0
   -3.3163    0.0522    4.7545 H   0  0  0  0  0  0  0  0  0  0  0  0
   -1.5276    1.0059    3.9476 C   0  0  0  0  0  0  0  0  0  0  0  0
   -1.1292    1.3495    4.9122 H   0  0  0  0  0  0  0  0  0  0  0  0
   -0.8161    1.2733    2.7774 C   0  0  0  0  0  0  0  0  0  0  0  0
    0.1464    1.8017    2.8043 H   0  0  0  0  0  0  0  0  0  0  0  0
    3.3701   -0.8090    0.4842 C   0  0  0  0  0  0  0  0  0  0  0  0
    4.1099   -1.6347    1.3459 C   0  0  0  0  0  0  0  0  0  0  0  0
    3.6385   -2.0303    2.2566 H   0  0  0  0  0  0  0  0  0  0  0  0
    5.4353   -1.9366    1.0142 C   0  0  0  0  0  0  0  0  0  0  0  0
    6.0239   -2.5814    1.6850 H   0  0  0  0  0  0  0  0  0  0  0  0
    6.0317   -1.4329   -0.1629 C   0  0  0  0  0  0  0  0  0  0  0  0
    5.2555   -0.6089   -1.0093 C   0  0  0  0  0  0  0  0  0  0  0  0
    5.7037   -0.2124   -1.9334 H   0  0  0  0  0  0  0  0  0  0  0  0
    3.9298   -0.2926   -0.6964 C   0  0  0  0  0  0  0  0  0  0  0  0
    3.3183    0.3316   -1.3628 H   0  0  0  0  0  0  0  0  0  0  0  0
    7.4479   -1.7933   -0.5203 C   0  0  0  0  0  0  0  0  0  0  0  0
    7.8919   -1.0679   -1.2284 H   0  0  0  0  0  0  0  0  0  0  0  0
    7.4838   -2.7929   -1.0045 H   0  0  0  0  0  0  0  0  0  0  0  0
    8.0929   -1.8483    0.3784 H   0  0  0  0  0  0  0  0  0  0  0  0
  1  3  2  0  0  0  0
  1  2  2  0  0  0  0
  4  1  1  0  0  0  0
  5 39  1  0  0  0  0
  6  7  1  0  0  0  0
  6  4  1  0  0  0  0
  6  9  1  0  0  0  0
  8  6  1  0  0  0  0
  9 10  1  1  0  0  0
 11  9  1  0  0  0  0
 11 20  1  0  0  0  0
 12 11  2  0  0  0  0
 13 12  1  0  0  0  0
 14 12  1  0  0  0  0
 14 16  2  0  0  0  0
 15 14  1  0  0  0  0
 16 18  1  0  0  0  0
 17 16  1  0  0  0  0
 18 20  2  0  0  0  0
 18 19  1  0  0  0  0
 20 21  1  0  0  0  0
 22  9  1  0  0  0  0
 22 31  1  0  0  0  0
 23 22  2  0  0  0  0
 24 23  1  0  0  0  0
 25 23  1  0  0  0  0
 25 27  2  0  0  0  0
 26 25  1  0  0  0  0
 27 29  1  0  0  0  0
 28 27  1  0  0  0  0
 29 31  2  0  0  0  0
 29 30  1  0  0  0  0
 32 31  1  6  0  0  0
 32  5  1  0  0  0  0
 32 33  1  0  0  0  0
 33 35  2  0  0  0  0
 34 33  1  0  0  0  0
 35 37  1  0  0  0  0
 35 36  1  0  0  0  0
 37 38  1  0  0  0  0
 39 40  1  0  0  0  0
 39 37  2  0  0  0  0
 41  1  1  0  0  0  0
 41 42  1  0  0  0  0
 42 43  1  0  0  0  0
 44 42  2  0  0  0  0
 44 45  1  0  0  0  0
 46 44  1  0  0  0  0
 47 49  1  0  0  0  0
 47 46  2  0  0  0  0
 48 47  1  0  0  0  0
 49 41  2  0  0  0  0
 50 49  1  0  0  0  0
 51 46  1  0  0  0  0
 51 54  1  0  0  0  0
 52 51  1  0  0  0  0
 53 51  1  0  0  0  0
M  END
