3,5
 OpenBabel05122313053D

 48 50  0  0  1  0  0  0  0  0999 V2000
   -5.2950   -0.7970   -0.4593 F   0  0  0  0  0  0  0  0  0  0  0  0
   -4.2484    0.8374    1.8011 F   0  0  0  0  0  0  0  0  0  0  0  0
    2.1328    0.5772    0.9694 N   0  0  0  0  0  0  0  0  0  0  0  0
    3.0995    0.3681    1.2610 H   0  0  0  0  0  0  0  0  0  0  0  0
    1.0899    0.0156   -1.5970 N   0  0  0  0  0  0  0  0  0  0  0  0
    1.9462   -0.0598   -2.1713 H   0  0  0  0  0  0  0  0  0  0  0  0
    2.1781    1.6209   -0.1027 C   0  0  2  0  0  0  0  0  0  0  0  0
    3.1113    1.3961   -0.6693 H   0  0  0  0  0  0  0  0  0  0  0  0
    2.2827    3.0647    0.4045 C   0  0  0  0  0  0  0  0  0  0  0  0
    1.3905    3.3075    1.0154 H   0  0  0  0  0  0  0  0  0  0  0  0
    3.1653    3.1584    1.0715 H   0  0  0  0  0  0  0  0  0  0  0  0
    2.3632    4.0586   -0.7589 C   0  0  0  0  0  0  0  0  0  0  0  0
    2.4179    5.0942   -0.3660 H   0  0  0  0  0  0  0  0  0  0  0  0
    3.3007    3.8907   -1.3341 H   0  0  0  0  0  0  0  0  0  0  0  0
    1.1574    3.8925   -1.6877 C   0  0  0  0  0  0  0  0  0  0  0  0
    1.2125    4.6053   -2.5355 H   0  0  0  0  0  0  0  0  0  0  0  0
    0.2254    4.1367   -1.1314 H   0  0  0  0  0  0  0  0  0  0  0  0
    1.0684    2.4583   -2.2209 C   0  0  0  0  0  0  0  0  0  0  0  0
    0.1862    2.3494   -2.8821 H   0  0  0  0  0  0  0  0  0  0  0  0
    1.9625    2.2458   -2.8517 H   0  0  0  0  0  0  0  0  0  0  0  0
    1.0136    1.4176   -1.0907 C   0  0  1  0  0  0  0  0  0  0  0  0
    0.0551    1.5047   -0.5367 H   0  0  0  0  0  0  0  0  0  0  0  0
    1.3890    0.8620    2.2379 C   0  0  0  0  0  0  0  0  0  0  0  0
    1.7529    1.8144    2.6767 H   0  0  0  0  0  0  0  0  0  0  0  0
    1.6983    0.0320    2.9046 H   0  0  0  0  0  0  0  0  0  0  0  0
   -0.1143    0.8754    2.1162 C   0  0  0  0  0  0  0  0  0  0  0  0
   -0.8439    2.0798    2.0802 C   0  0  0  0  0  0  0  0  0  0  0  0
   -0.3172    3.0443    2.1563 H   0  0  0  0  0  0  0  0  0  0  0  0
   -2.2420    2.0795    1.9700 C   0  0  0  0  0  0  0  0  0  0  0  0
   -2.8231    3.0118    1.9355 H   0  0  0  0  0  0  0  0  0  0  0  0
   -2.9076    0.8502    1.9169 C   0  0  0  0  0  0  0  0  0  0  0  0
   -2.2155   -0.3648    1.9868 C   0  0  0  0  0  0  0  0  0  0  0  0
   -2.7772   -1.3079    1.9670 H   0  0  0  0  0  0  0  0  0  0  0  0
   -0.8196   -0.3471    2.0774 C   0  0  0  0  0  0  0  0  0  0  0  0
   -0.2563   -1.2926    2.1333 H   0  0  0  0  0  0  0  0  0  0  0  0
   -0.0292   -0.4291   -2.4879 C   0  0  0  0  0  0  0  0  0  0  0  0
   -0.0565    0.2307   -3.3815 H   0  0  0  0  0  0  0  0  0  0  0  0
    0.2679   -1.4459   -2.8103 H   0  0  0  0  0  0  0  0  0  0  0  0
   -1.3995   -0.4851   -1.8570 C   0  0  0  0  0  0  0  0  0  0  0  0
   -2.2718    0.6227   -1.8958 C   0  0  0  0  0  0  0  0  0  0  0  0
   -1.9336    1.5737   -2.3378 H   0  0  0  0  0  0  0  0  0  0  0  0
   -3.5852    0.5325   -1.4140 C   0  0  0  0  0  0  0  0  0  0  0  0
   -4.2737    1.3886   -1.4377 H   0  0  0  0  0  0  0  0  0  0  0  0
   -4.0305   -0.6919   -0.9025 C   0  0  0  0  0  0  0  0  0  0  0  0
   -3.1867   -1.8073   -0.8392 C   0  0  0  0  0  0  0  0  0  0  0  0
   -3.5712   -2.7517   -0.4274 H   0  0  0  0  0  0  0  0  0  0  0  0
   -1.8717   -1.6966   -1.3074 C   0  0  0  0  0  0  0  0  0  0  0  0
   -1.1858   -2.5581   -1.2589 H   0  0  0  0  0  0  0  0  0  0  0  0
  2 31  1  0  0  0  0
  3  4  1  0  0  0  0
  3 23  1  0  0  0  0
  5 21  1  0  0  0  0
  6  5  1  0  0  0  0
  7  8  1  6  0  0  0
  7  9  1  0  0  0  0
  7  3  1  0  0  0  0
  9 10  1  0  0  0  0
  9 11  1  0  0  0  0
 12 13  1  0  0  0  0
 12  9  1  0  0  0  0
 14 12  1  0  0  0  0
 15 17  1  0  0  0  0
 15 12  1  0  0  0  0
 16 15  1  0  0  0  0
 18 15  1  0  0  0  0
 18 21  1  0  0  0  0
 19 18  1  0  0  0  0
 20 18  1  0  0  0  0
 21 22  1  1  0  0  0
 21  7  1  0  0  0  0
 23 24  1  0  0  0  0
 23 25  1  0  0  0  0
 26 23  1  0  0  0  0
 27 26  1  0  0  0  0
 27 28  1  0  0  0  0
 29 27  2  0  0  0  0
 30 29  1  0  0  0  0
 31 29  1  0  0  0  0
 31 32  2  0  0  0  0
 32 34  1  0  0  0  0
 33 32  1  0  0  0  0
 34 26  2  0  0  0  0
 34 35  1  0  0  0  0
 36 39  1  0  0  0  0
 36  5  1  0  0  0  0
 37 36  1  0  0  0  0
 38 36  1  0  0  0  0
 39 47  1  0  0  0  0
 40 39  2  0  0  0  0
 40 42  1  0  0  0  0
 41 40  1  0  0  0  0
 42 44  2  0  0  0  0
 43 42  1  0  0  0  0
 44 45  1  0  0  0  0
 44  1  1  0  0  0  0
 45 46  1  0  0  0  0
 47 48  1  0  0  0  0
 47 45  2  0  0  0  0
M  END
