1,2
 OpenBabel05122313053D

 55 61  0  0  1  0  0  0  0  0999 V2000
   -1.4062   -0.0191    0.3276 N   0  0  0  0  0  2  0  0  0  0  0  0
    1.4061   -0.0191   -0.3278 N   0  0  0  0  0  2  0  0  0  0  0  0
   -4.8557    1.3799    0.5560 C   0  0  1  0  0  0  0  0  0  0  0  0
   -5.2963    2.3968    0.5210 H   0  0  0  0  0  0  0  0  0  0  0  0
    4.8556    1.3801   -0.5557 C   0  0  1  0  0  0  0  0  0  0  0  0
    5.2962    2.3970   -0.5206 H   0  0  0  0  0  0  0  0  0  0  0  0
   -3.3540    1.4023    0.4614 C   0  0  0  0  0  0  0  0  0  0  0  0
    3.3539    1.4024   -0.4613 C   0  0  0  0  0  0  0  0  0  0  0  0
   -2.7318    0.1173    0.4893 C   0  0  1  0  0  3  0  0  0  0  0  0
    2.7317    0.1175   -0.4893 C   0  0  1  0  0  3  0  0  0  0  0  0
   -3.5827   -1.1187    0.6376 C   0  0  0  0  0  0  0  0  0  0  0  0
   -3.2802   -1.6548    1.5642 H   0  0  0  0  0  0  0  0  0  0  0  0
   -3.3289   -1.8076   -0.1992 H   0  0  0  0  0  0  0  0  0  0  0  0
    3.5826   -1.1185   -0.6376 C   0  0  0  0  0  0  0  0  0  0  0  0
    3.2803   -1.6545   -1.5644 H   0  0  0  0  0  0  0  0  0  0  0  0
    3.3288   -1.8076    0.1990 H   0  0  0  0  0  0  0  0  0  0  0  0
   -5.0686   -0.7401    0.6902 C   0  0  2  0  0  0  0  0  0  0  0  0
   -5.7126   -1.6379    0.7820 H   0  0  0  0  0  0  0  0  0  0  0  0
    5.0685   -0.7399   -0.6900 C   0  0  2  0  0  0  0  0  0  0  0  0
    5.7126   -1.6377   -0.7818 H   0  0  0  0  0  0  0  0  0  0  0  0
   -5.4273    0.2893   -0.4459 C   0  0  0  0  0  0  0  0  0  0  0  0
    5.4270    0.2895    0.4462 C   0  0  0  0  0  0  0  0  0  0  0  0
   -5.2562    0.4139    1.7121 C   0  0  0  0  0  0  0  0  0  0  0  0
   -4.6058    0.4131    2.6103 H   0  0  0  0  0  0  0  0  0  0  0  0
   -6.3063    0.5466    2.0289 H   0  0  0  0  0  0  0  0  0  0  0  0
    5.2563    0.4143   -1.7118 C   0  0  0  0  0  0  0  0  0  0  0  0
    6.3064    0.5470   -2.0284 H   0  0  0  0  0  0  0  0  0  0  0  0
    4.6061    0.4135   -2.6101 H   0  0  0  0  0  0  0  0  0  0  0  0
   -6.9408    0.4452   -0.6323 C   0  0  0  0  0  0  0  0  0  0  0  0
   -7.1639    1.3166   -1.2822 H   0  0  0  0  0  0  0  0  0  0  0  0
   -7.4860    0.5883    0.3204 H   0  0  0  0  0  0  0  0  0  0  0  0
   -7.3598   -0.4558   -1.1260 H   0  0  0  0  0  0  0  0  0  0  0  0
    6.9405    0.4454    0.6329 C   0  0  0  0  0  0  0  0  0  0  0  0
    7.1635    1.3168    1.2828 H   0  0  0  0  0  0  0  0  0  0  0  0
    7.4859    0.5887   -0.3198 H   0  0  0  0  0  0  0  0  0  0  0  0
    7.3595   -0.4556    1.1265 H   0  0  0  0  0  0  0  0  0  0  0  0
   -4.7706    0.1264   -1.8170 C   0  0  0  0  0  0  0  0  0  0  0  0
   -3.6820   -0.0695   -1.7806 H   0  0  0  0  0  0  0  0  0  0  0  0
   -4.9305    1.0358   -2.4331 H   0  0  0  0  0  0  0  0  0  0  0  0
   -5.2307   -0.7264   -2.3575 H   0  0  0  0  0  0  0  0  0  0  0  0
    4.7701    0.1263    1.8172 C   0  0  0  0  0  0  0  0  0  0  0  0
    5.2303   -0.7264    2.3577 H   0  0  0  0  0  0  0  0  0  0  0  0
    3.6816   -0.0697    1.7805 H   0  0  0  0  0  0  0  0  0  0  0  0
    4.9298    1.0357    2.4334 H   0  0  0  0  0  0  0  0  0  0  0  0
   -2.5733    2.5707    0.3286 C   0  0  0  0  0  0  0  0  0  0  0  0
   -3.0643    3.5571    0.3329 H   0  0  0  0  0  0  0  0  0  0  0  0
    2.5731    2.5709   -0.3286 C   0  0  0  0  0  0  0  0  0  0  0  0
    3.0641    3.5572   -0.3327 H   0  0  0  0  0  0  0  0  0  0  0  0
   -1.1871    2.4242    0.1734 C   0  0  0  0  0  0  0  0  0  0  0  0
    1.1869    2.4243   -0.1736 C   0  0  0  0  0  0  0  0  0  0  0  0
   -0.7063    1.1052    0.1390 C   0  0  0  0  0  0  0  0  0  0  0  0
    0.7061    1.1053   -0.1393 C   0  0  0  0  0  0  0  0  0  0  0  0
   -0.0001    3.3713   -0.0000 C   0  0  0  0  0  0  0  0  0  0  0  0
   -0.1229    4.0383   -0.8809 H   0  0  0  0  0  0  0  0  0  0  0  0
    0.1226    4.0383    0.8809 H   0  0  0  0  0  0  0  0  0  0  0  0
  2 52  1  0  0  0  0
  3  4  1  6  0  0  0
  3 23  1  0  0  0  0
  5  6  1  1  0  0  0
  5  8  1  0  0  0  0
  5 22  1  0  0  0  0
  7  9  1  0  0  0  0
  7  3  1  0  0  0  0
  8 47  2  0  0  0  0
  9  1  1  6  0  0  0
  9 11  1  0  0  0  0
 10  8  1  1  0  0  0
 10  2  1  0  0  0  0
 11 17  1  0  0  0  0
 11 12  1  0  0  0  0
 13 11  1  0  0  0  0
 14 10  1  0  0  0  0
 14 16  1  0  0  0  0
 15 14  1  0  0  0  0
 17 18  1  1  0  0  0
 17 23  1  0  0  0  0
 19 20  1  6  0  0  0
 19 14  1  0  0  0  0
 19 22  1  0  0  0  0
 21  3  1  0  0  0  0
 21 17  1  0  0  0  0
 22 33  1  0  0  0  0
 22 41  1  0  0  0  0
 23 25  1  0  0  0  0
 23 24  1  0  0  0  0
 26 19  1  0  0  0  0
 26  5  1  0  0  0  0
 27 26  1  0  0  0  0
 28 26  1  0  0  0  0
 29 21  1  0  0  0  0
 29 31  1  0  0  0  0
 30 29  1  0  0  0  0
 32 29  1  0  0  0  0
 33 36  1  0  0  0  0
 33 34  1  0  0  0  0
 35 33  1  0  0  0  0
 37 38  1  0  0  0  0
 37 21  1  0  0  0  0
 39 37  1  0  0  0  0
 40 37  1  0  0  0  0
 41 42  1  0  0  0  0
 41 44  1  0  0  0  0
 43 41  1  0  0  0  0
 45 46  1  0  0  0  0
 45  7  2  0  0  0  0
 47 50  1  0  0  0  0
 48 47  1  0  0  0  0
 49 45  1  0  0  0  0
 50 52  2  0  0  0  0
 50 53  1  0  0  0  0
 51 49  2  0  0  0  0
 51  1  1  0  0  0  0
 52 51  1  0  0  0  0
 53 49  1  0  0  0  0
 53 55  1  0  0  0  0
 54 53  1  0  0  0  0
M  END
