1,12
 OpenBabel05122313053D

 30 32  0  0  0  0  0  0  0  0999 V2000
    1.0273    0.3768    0.2120 N   0  0  0  0  0  2  0  0  0  0  0  0
    0.5238    1.6163    0.0887 C   0  0  0  0  0  0  0  0  0  0  0  0
    1.5328    2.5558   -0.0125 N   0  0  0  0  0  0  0  0  0  0  0  0
   -3.0219    3.0411    0.1704 C   0  0  0  0  0  0  0  0  0  0  0  0
   -0.9242    1.7892    0.1163 C   0  0  0  0  0  0  0  0  0  0  0  0
    1.4147    3.9864   -0.2167 C   0  0  0  0  0  0  0  0  0  0  0  0
    0.7790    4.2068   -1.0963 H   0  0  0  0  0  0  0  0  0  0  0  0
    2.4202    4.3980   -0.4128 H   0  0  0  0  0  0  0  0  0  0  0  0
    1.0004    4.4952    0.6774 H   0  0  0  0  0  0  0  0  0  0  0  0
   -3.6845    1.7990    0.2546 C   0  0  0  0  0  0  0  0  0  0  0  0
   -4.7816    1.7457    0.3069 H   0  0  0  0  0  0  0  0  0  0  0  0
   -1.5959    0.5979    0.2030 N   0  0  0  0  0  2  0  0  0  0  0  0
    5.0619    1.3102    0.1063 C   0  0  0  0  0  0  0  0  0  0  0  0
    6.1203    1.6083    0.0744 H   0  0  0  0  0  0  0  0  0  0  0  0
    3.4061   -0.4954    0.2851 C   0  0  0  0  0  0  0  0  0  0  0  0
    3.1432   -1.5570    0.3775 H   0  0  0  0  0  0  0  0  0  0  0  0
    4.7332   -0.0626    0.2391 C   0  0  0  0  0  0  0  0  0  0  0  0
    5.5439   -0.8029    0.3039 H   0  0  0  0  0  0  0  0  0  0  0  0
   -1.6200    3.0141    0.1078 C   0  0  0  0  0  0  0  0  0  0  0  0
   -1.0742    3.9624    0.0551 H   0  0  0  0  0  0  0  0  0  0  0  0
    2.7397    1.8648    0.0581 C   0  0  0  0  0  0  0  0  0  0  0  0
    2.4019    0.4874    0.1967 C   0  0  0  0  0  0  0  0  0  0  0  0
   -2.9421    0.6185    0.2707 C   0  0  0  0  0  0  0  0  0  0  0  0
   -3.4334   -0.3633    0.3307 H   0  0  0  0  0  0  0  0  0  0  0  0
    4.0749    2.2982    0.0129 C   0  0  0  0  0  0  0  0  0  0  0  0
    4.3454    3.3589   -0.0885 H   0  0  0  0  0  0  0  0  0  0  0  0
   -3.7892    4.3336    0.1453 C   0  0  0  0  0  0  0  0  0  0  0  0
   -3.1183    5.2134    0.1324 H   0  0  0  0  0  0  0  0  0  0  0  0
   -4.4554    4.4177    1.0282 H   0  0  0  0  0  0  0  0  0  0  0  0
   -4.4402    4.3851   -0.7521 H   0  0  0  0  0  0  0  0  0  0  0  0
  2  5  2  0  0  0  0
  2  1  1  0  0  0  0
  3 21  1  0  0  0  0
  3  2  1  0  0  0  0
  4 10  1  0  0  0  0
  5 12  1  0  0  0  0
  6  3  1  0  0  0  0
  6  9  1  0  0  0  0
  7  6  1  0  0  0  0
  8  6  1  0  0  0  0
 10 23  2  0  0  0  0
 10 11  1  0  0  0  0
 12 23  1  0  0  0  0
 13 17  1  0  0  0  0
 14 13  1  0  0  0  0
 15 16  1  0  0  0  0
 17 15  2  0  0  0  0
 17 18  1  0  0  0  0
 19  5  1  0  0  0  0
 19  4  2  0  0  0  0
 20 19  1  0  0  0  0
 21 22  2  0  0  0  0
 22  1  1  0  0  0  0
 22 15  1  0  0  0  0
 23 24  1  0  0  0  0
 25 21  1  0  0  0  0
 25 13  2  0  0  0  0
 26 25  1  0  0  0  0
 27  4  1  0  0  0  0
 27 29  1  0  0  0  0
 28 27  1  0  0  0  0
 30 27  1  0  0  0  0
M  END
