1,2
 OpenBabel05122313053D

 37 39  0  0  1  0  0  0  0  0999 V2000
    2.6638    0.7138    0.2167 N   0  0  0  0  0  2  0  0  0  0  0  0
    0.1572    1.4080    0.5377 N   0  0  0  0  0  2  0  0  0  0  0  0
    3.5166    2.7700    0.1485 N   0  0  0  0  0  0  0  0  0  0  0  0
    4.0038    0.6022   -0.0255 C   0  0  0  0  0  0  0  0  0  0  0  0
    4.5028   -0.3611   -0.1648 H   0  0  0  0  0  0  0  0  0  0  0  0
    4.5481    1.8813   -0.0610 C   0  0  0  0  0  0  0  0  0  0  0  0
    5.5795    2.2182   -0.2073 H   0  0  0  0  0  0  0  0  0  0  0  0
    3.6022    4.2248    0.1374 C   0  0  0  0  0  0  0  0  0  0  0  0
    3.0766    4.6368   -0.7467 H   0  0  0  0  0  0  0  0  0  0  0  0
    4.6645    4.5218    0.0916 H   0  0  0  0  0  0  0  0  0  0  0  0
    3.1580    4.6446    1.0604 H   0  0  0  0  0  0  0  0  0  0  0  0
    2.3759    2.0304    0.3047 C   0  0  0  0  0  0  0  0  0  0  0  0
    1.0150    2.4021    0.5225 C   0  0  0  0  0  0  0  0  0  0  0  0
    0.7165    3.4444    0.7048 H   0  0  0  0  0  0  0  0  0  0  0  0
   -1.2488    1.6527    0.9346 C   0  0  1  0  0  0  0  0  0  0  0  0
   -1.3979    0.9462    1.7765 H   0  0  0  0  0  0  0  0  0  0  0  0
   -1.5230    3.0695    1.4550 C   0  0  0  0  0  0  0  0  0  0  0  0
   -0.8796    3.3379    2.3175 H   0  0  0  0  0  0  0  0  0  0  0  0
   -2.5759    3.1242    1.7886 H   0  0  0  0  0  0  0  0  0  0  0  0
   -1.4067    3.8254    0.6528 H   0  0  0  0  0  0  0  0  0  0  0  0
   -2.2412    1.2839   -0.1597 C   0  0  0  0  0  0  0  0  0  0  0  0
   -1.9127    1.4626   -1.4979 C   0  0  0  0  0  0  0  0  0  0  0  0
   -0.9039    1.7990   -1.7748 H   0  0  0  0  0  0  0  0  0  0  0  0
   -2.8371    1.1589   -2.5302 C   0  0  0  0  0  0  0  0  0  0  0  0
   -2.5343    1.2947   -3.5788 H   0  0  0  0  0  0  0  0  0  0  0  0
   -4.1008    0.6891   -2.2167 C   0  0  0  0  0  0  0  0  0  0  0  0
   -4.8244    0.4476   -3.0104 H   0  0  0  0  0  0  0  0  0  0  0  0
   -4.4929    0.5135   -0.8570 C   0  0  0  0  0  0  0  0  0  0  0  0
   -5.7930    0.0335   -0.5214 C   0  0  0  0  0  0  0  0  0  0  0  0
   -6.4923   -0.1987   -1.3394 H   0  0  0  0  0  0  0  0  0  0  0  0
   -6.1778   -0.1361    0.7994 C   0  0  0  0  0  0  0  0  0  0  0  0
   -7.1849   -0.5059    1.0416 H   0  0  0  0  0  0  0  0  0  0  0  0
   -5.2696    0.1789    1.8425 C   0  0  0  0  0  0  0  0  0  0  0  0
   -5.5790    0.0573    2.8913 H   0  0  0  0  0  0  0  0  0  0  0  0
   -3.9953    0.6478    1.5501 C   0  0  0  0  0  0  0  0  0  0  0  0
   -3.3265    0.8992    2.3862 H   0  0  0  0  0  0  0  0  0  0  0  0
   -3.5570    0.8240    0.2012 C   0  0  0  0  0  0  0  0  0  0  0  0
  1 12  1  0  0  0  0
  2 15  1  0  0  0  0
  3 12  1  0  0  0  0
  4  1  1  0  0  0  0
  5  4  1  0  0  0  0
  6  4  2  0  0  0  0
  6  3  1  0  0  0  0
  7  6  1  0  0  0  0
  8  3  1  0  0  0  0
  8 11  1  0  0  0  0
  9  8  1  0  0  0  0
 10  8  1  0  0  0  0
 12 13  2  0  0  0  0
 13  2  1  0  0  0  0
 13 14  1  0  0  0  0
 15 17  1  0  0  0  0
 15 16  1  1  0  0  0
 17 19  1  0  0  0  0
 17 18  1  0  0  0  0
 20 17  1  0  0  0  0
 21 37  1  0  0  0  0
 21 15  1  0  0  0  0
 22 21  2  0  0  0  0
 23 22  1  0  0  0  0
 24 26  2  0  0  0  0
 24 22  1  0  0  0  0
 25 24  1  0  0  0  0
 26 28  1  0  0  0  0
 27 26  1  0  0  0  0
 28 29  2  0  0  0  0
 28 37  1  0  0  0  0
 29 31  1  0  0  0  0
 30 29  1  0  0  0  0
 31 32  1  0  0  0  0
 31 33  2  0  0  0  0
 33 34  1  0  0  0  0
 35 33  1  0  0  0  0
 35 36  1  0  0  0  0
 37 35  2  0  0  0  0
M  END
