1,2
 OpenBabel05122313053D

 31 32  0  0  1  0  0  0  0  0999 V2000
    2.2160    0.6812    0.0054 N   0  0  0  0  0  2  0  0  0  0  0  0
   -0.2019    1.4036    0.7090 N   0  0  0  0  0  2  0  0  0  0  0  0
    3.0861    2.7266   -0.1444 N   0  0  0  0  0  0  0  0  0  0  0  0
    3.5030    0.5568   -0.4358 C   0  0  0  0  0  0  0  0  0  0  0  0
    3.9607   -0.4095   -0.6656 H   0  0  0  0  0  0  0  0  0  0  0  0
    4.0586    1.8286   -0.5243 C   0  0  0  0  0  0  0  0  0  0  0  0
    5.0626    2.1538   -0.8157 H   0  0  0  0  0  0  0  0  0  0  0  0
    3.1960    4.1800   -0.1333 C   0  0  0  0  0  0  0  0  0  0  0  0
    2.5398    4.6233   -0.9080 H   0  0  0  0  0  0  0  0  0  0  0  0
    4.2416    4.4626   -0.3471 H   0  0  0  0  0  0  0  0  0  0  0  0
    2.9182    4.5808    0.8606 H   0  0  0  0  0  0  0  0  0  0  0  0
    1.9683    1.9998    0.1638 C   0  0  0  0  0  0  0  0  0  0  0  0
    0.6618    2.3854    0.5885 C   0  0  0  0  0  0  0  0  0  0  0  0
    0.4114    3.4273    0.8347 H   0  0  0  0  0  0  0  0  0  0  0  0
   -1.5325    1.6604    1.3070 C   0  0  1  0  0  0  0  0  0  0  0  0
   -1.5853    0.9432    2.1526 H   0  0  0  0  0  0  0  0  0  0  0  0
   -1.7072    3.0708    1.8846 C   0  0  0  0  0  0  0  0  0  0  0  0
   -0.9354    3.3181    2.6417 H   0  0  0  0  0  0  0  0  0  0  0  0
   -2.6943    3.1245    2.3802 H   0  0  0  0  0  0  0  0  0  0  0  0
   -1.7090    3.8417    1.0879 H   0  0  0  0  0  0  0  0  0  0  0  0
   -2.6840    1.3295    0.3665 C   0  0  0  0  0  0  0  0  0  0  0  0
   -3.9041    0.8905    0.9224 C   0  0  0  0  0  0  0  0  0  0  0  0
   -3.9922    0.7489    2.0122 H   0  0  0  0  0  0  0  0  0  0  0  0
   -5.0161    0.6475    0.1033 C   0  0  0  0  0  0  0  0  0  0  0  0
   -5.9616    0.3063    0.5508 H   0  0  0  0  0  0  0  0  0  0  0  0
   -4.9197    0.8415   -1.2848 C   0  0  0  0  0  0  0  0  0  0  0  0
   -5.7886    0.6467   -1.9308 H   0  0  0  0  0  0  0  0  0  0  0  0
   -3.7122    1.2901   -1.8402 C   0  0  0  0  0  0  0  0  0  0  0  0
   -3.6269    1.4449   -2.9263 H   0  0  0  0  0  0  0  0  0  0  0  0
   -2.6009    1.5428   -1.0199 C   0  0  0  0  0  0  0  0  0  0  0  0
   -1.6534    1.8637   -1.4750 H   0  0  0  0  0  0  0  0  0  0  0  0
  1 12  1  0  0  0  0
  2 15  1  0  0  0  0
  3  8  1  0  0  0  0
  3 12  1  0  0  0  0
  4  1  1  0  0  0  0
  5  4  1  0  0  0  0
  6  4  2  0  0  0  0
  6  3  1  0  0  0  0
  7  6  1  0  0  0  0
  8 11  1  0  0  0  0
  9  8  1  0  0  0  0
 10  8  1  0  0  0  0
 12 13  2  0  0  0  0
 13  2  1  0  0  0  0
 13 14  1  0  0  0  0
 15 17  1  0  0  0  0
 15 16  1  1  0  0  0
 17 19  1  0  0  0  0
 17 18  1  0  0  0  0
 20 17  1  0  0  0  0
 21 22  1  0  0  0  0
 21 15  1  0  0  0  0
 22 23  1  0  0  0  0
 24 25  1  0  0  0  0
 24 22  2  0  0  0  0
 26 24  1  0  0  0  0
 27 26  1  0  0  0  0
 28 26  2  0  0  0  0
 28 30  1  0  0  0  0
 29 28  1  0  0  0  0
 30 21  2  0  0  0  0
 31 30  1  0  0  0  0
M  END
