1,11
 OpenBabel05122313053D

 37 38  0  0  1  0  0  0  0  0999 V2000
   -1.8647   -1.3056   -1.1069 N   0  0  0  0  0  2  0  0  0  0  0  0
   -3.4768   -1.9670   -2.7651 C   0  0  0  0  0  0  0  0  0  0  0  0
   -4.2546   -1.6770   -3.4857 H   0  0  0  0  0  0  0  0  0  0  0  0
   -2.1013   -3.6227   -1.6615 C   0  0  0  0  0  0  0  0  0  0  0  0
   -1.7828   -4.6633   -1.5034 H   0  0  0  0  0  0  0  0  0  0  0  0
   -1.4860   -2.5914   -0.9258 C   0  0  2  0  0  3  0  0  0  0  0  0
   -2.8324   -0.9967   -1.9965 C   0  0  0  0  0  0  0  0  0  0  0  0
   -3.0813    0.0733   -2.0883 H   0  0  0  0  0  0  0  0  0  0  0  0
   -3.0970   -3.3103   -2.5926 C   0  0  0  0  0  0  0  0  0  0  0  0
   -3.5724   -4.1056   -3.1865 H   0  0  0  0  0  0  0  0  0  0  0  0
    0.1614   -1.6504    0.6178 N   0  0  0  0  0  2  0  0  0  0  0  0
   -0.3986   -2.8685    0.1038 C   0  0  1  0  0  0  0  0  0  0  0  0
    0.3571   -3.4986   -0.4290 H   0  0  0  0  0  0  0  0  0  0  0  0
    2.5891   -1.9132    0.1731 C   0  0  0  0  0  0  0  0  0  0  0  0
    1.7817   -1.2265    2.3954 C   0  0  0  0  0  0  0  0  0  0  0  0
    3.1151   -1.1440    2.8332 C   0  0  0  0  0  0  0  0  0  0  0  0
    3.3165   -0.8296    3.8705 H   0  0  0  0  0  0  0  0  0  0  0  0
    3.9082   -1.8264    0.6542 C   0  0  0  0  0  0  0  0  0  0  0  0
    4.7393   -2.0196   -0.0431 H   0  0  0  0  0  0  0  0  0  0  0  0
    2.3439   -2.1910   -1.2874 C   0  0  0  0  0  0  0  0  0  0  0  0
    3.2161   -1.8870   -1.8970 H   0  0  0  0  0  0  0  0  0  0  0  0
    1.4626   -1.6182   -1.6414 H   0  0  0  0  0  0  0  0  0  0  0  0
    2.1436   -3.2644   -1.5005 H   0  0  0  0  0  0  0  0  0  0  0  0
    0.6523   -0.8658    3.3259 C   0  0  0  0  0  0  0  0  0  0  0  0
    0.0315   -0.0404    2.9166 H   0  0  0  0  0  0  0  0  0  0  0  0
    1.0360   -0.5477    4.3150 H   0  0  0  0  0  0  0  0  0  0  0  0
   -0.0413   -1.7183    3.4779 H   0  0  0  0  0  0  0  0  0  0  0  0
    1.4985   -1.6393    1.0576 C   0  0  0  0  0  0  0  0  0  0  0  0
    4.1805   -1.4547    1.9768 C   0  0  0  0  0  0  0  0  0  0  0  0
    5.2197   -1.3853    2.3327 H   0  0  0  0  0  0  0  0  0  0  0  0
   -0.9710   -3.7822    1.2392 C   0  0  0  0  0  0  0  0  0  0  0  0
   -1.2379   -4.7814    0.8291 H   0  0  0  0  0  0  0  0  0  0  0  0
   -0.1282   -3.9516    1.9418 H   0  0  0  0  0  0  0  0  0  0  0  0
   -2.1608   -3.1693    1.9734 C   0  0  0  0  0  0  0  0  0  0  0  0
   -1.9050   -2.1428    2.3045 H   0  0  0  0  0  0  0  0  0  0  0  0
   -2.4391   -3.7601    2.8688 H   0  0  0  0  0  0  0  0  0  0  0  0
   -3.0582   -3.1053    1.3225 H   0  0  0  0  0  0  0  0  0  0  0  0
  1  6  1  0  0  0  0
  2  9  1  0  0  0  0
  2  7  2  0  0  0  0
  3  2  1  0  0  0  0
  4  5  1  0  0  0  0
  4  6  1  0  0  0  0
  6 12  1  1  0  0  0
  7  1  1  0  0  0  0
  8  7  1  0  0  0  0
  9  4  2  0  0  0  0
 10  9  1  0  0  0  0
 11 28  1  0  0  0  0
 12 13  1  6  0  0  0
 12 11  1  0  0  0  0
 12 31  1  0  0  0  0
 14 18  2  0  0  0  0
 14 28  1  0  0  0  0
 15 16  1  0  0  0  0
 15 24  1  0  0  0  0
 16 17  1  0  0  0  0
 18 29  1  0  0  0  0
 19 18  1  0  0  0  0
 20 14  1  0  0  0  0
 21 20  1  0  0  0  0
 22 20  1  0  0  0  0
 23 20  1  0  0  0  0
 24 27  1  0  0  0  0
 24 26  1  0  0  0  0
 25 24  1  0  0  0  0
 28 15  2  0  0  0  0
 29 30  1  0  0  0  0
 29 16  2  0  0  0  0
 31 33  1  0  0  0  0
 31 34  1  0  0  0  0
 32 31  1  0  0  0  0
 34 35  1  0  0  0  0
 34 36  1  0  0  0  0
 37 34  1  0  0  0  0
M  END
