1,38
 OpenBabel05122313053D

 55 56  0  0  0  0  0  0  0  0999 V2000
    2.0896   -0.5863   -0.2776 N   0  0  0  0  0  2  0  0  0  0  0  0
    3.2638    0.1048    0.2338 C   0  0  0  0  0  0  0  0  0  0  0  0
    2.9472    1.1308    0.5478 H   0  0  0  0  0  0  0  0  0  0  0  0
    3.8591   -0.5606    1.4896 C   0  0  0  0  0  0  0  0  0  0  0  0
    3.0638   -0.6755    2.2554 H   0  0  0  0  0  0  0  0  0  0  0  0
    4.1900   -1.5896    1.2190 H   0  0  0  0  0  0  0  0  0  0  0  0
    5.0487    0.2311    2.0473 C   0  0  0  0  0  0  0  0  0  0  0  0
    4.6865    1.2198    2.4093 H   0  0  0  0  0  0  0  0  0  0  0  0
    5.4734   -0.2854    2.9334 H   0  0  0  0  0  0  0  0  0  0  0  0
    6.1296    0.4498    0.9805 C   0  0  0  0  0  0  0  0  0  0  0  0
    6.5716   -0.5341    0.7034 H   0  0  0  0  0  0  0  0  0  0  0  0
    6.9614    1.0609    1.3894 H   0  0  0  0  0  0  0  0  0  0  0  0
    5.5478    1.1073   -0.2779 C   0  0  0  0  0  0  0  0  0  0  0  0
    6.3312    1.2229   -1.0561 H   0  0  0  0  0  0  0  0  0  0  0  0
    5.2059    2.1374   -0.0267 H   0  0  0  0  0  0  0  0  0  0  0  0
    4.3617    0.3064   -0.8298 C   0  0  0  0  0  0  0  0  0  0  0  0
    4.7139   -0.6925   -1.1722 H   0  0  0  0  0  0  0  0  0  0  0  0
    3.9212    0.8017   -1.7211 H   0  0  0  0  0  0  0  0  0  0  0  0
    1.9031   -2.2084   -0.8704 Si  0  0  0  0  0  0  0  0  0  0  0  0
    1.9394   -3.5858    0.4116 C   0  0  0  0  0  0  0  0  0  0  0  0
    2.9654   -3.7310    0.8076 H   0  0  0  0  0  0  0  0  0  0  0  0
    1.6098   -4.5489   -0.0303 H   0  0  0  0  0  0  0  0  0  0  0  0
    1.2734   -3.3470    1.2640 H   0  0  0  0  0  0  0  0  0  0  0  0
    2.9232   -2.6856   -2.3747 C   0  0  0  0  0  0  0  0  0  0  0  0
    3.9832   -2.8680   -2.1034 H   0  0  0  0  0  0  0  0  0  0  0  0
    2.8931   -1.8795   -3.1343 H   0  0  0  0  0  0  0  0  0  0  0  0
    2.5273   -3.6156   -2.8328 H   0  0  0  0  0  0  0  0  0  0  0  0
    0.2955   -1.9485   -1.3883 O   0  0  0  0  0  0  0  0  0  0  0  0
   -1.3957   -2.1695   -1.2224 Si  0  0  0  0  0  0  0  0  0  0  0  0
   -1.7285   -3.4942    0.0692 C   0  0  0  0  0  0  0  0  0  0  0  0
   -2.8142   -3.7039    0.1502 H   0  0  0  0  0  0  0  0  0  0  0  0
   -1.3749   -3.1561    1.0637 H   0  0  0  0  0  0  0  0  0  0  0  0
   -1.2181   -4.4440   -0.1932 H   0  0  0  0  0  0  0  0  0  0  0  0
   -2.0841   -2.6698   -2.8973 C   0  0  0  0  0  0  0  0  0  0  0  0
   -3.1895   -2.7576   -2.8580 H   0  0  0  0  0  0  0  0  0  0  0  0
   -1.6787   -3.6515   -3.2186 H   0  0  0  0  0  0  0  0  0  0  0  0
   -1.8252   -1.9120   -3.6632 H   0  0  0  0  0  0  0  0  0  0  0  0
   -1.6653   -0.5229   -0.7394 N   0  0  0  0  0  2  0  0  0  0  0  0
   -2.9184    0.1552   -0.4400 C   0  0  0  0  0  0  0  0  0  0  0  0
   -2.6789    1.0778    0.1470 H   0  0  0  0  0  0  0  0  0  0  0  0
   -3.6702    0.6117   -1.7074 C   0  0  0  0  0  0  0  0  0  0  0  0
   -2.9894    1.2052   -2.3527 H   0  0  0  0  0  0  0  0  0  0  0  0
   -3.9426   -0.2911   -2.2991 H   0  0  0  0  0  0  0  0  0  0  0  0
   -4.9343    1.4065   -1.3562 C   0  0  0  0  0  0  0  0  0  0  0  0
   -4.6363    2.3464   -0.8376 H   0  0  0  0  0  0  0  0  0  0  0  0
   -5.4666    1.7173   -2.2798 H   0  0  0  0  0  0  0  0  0  0  0  0
   -5.8676    0.6012   -0.4415 C   0  0  0  0  0  0  0  0  0  0  0  0
   -6.7506    1.2105   -0.1549 H   0  0  0  0  0  0  0  0  0  0  0  0
   -6.2618   -0.2723   -1.0088 H   0  0  0  0  0  0  0  0  0  0  0  0
   -5.1321    0.0949    0.8065 C   0  0  0  0  0  0  0  0  0  0  0  0
   -5.8039   -0.5347    1.4270 H   0  0  0  0  0  0  0  0  0  0  0  0
   -4.8441    0.9606    1.4445 H   0  0  0  0  0  0  0  0  0  0  0  0
   -3.8651   -0.6845    0.4374 C   0  0  0  0  0  0  0  0  0  0  0  0
   -3.3278   -1.0222    1.3448 H   0  0  0  0  0  0  0  0  0  0  0  0
   -4.1503   -1.5980   -0.1356 H   0  0  0  0  0  0  0  0  0  0  0  0
  1  2  1  0  0  0  0
  2  3  1  0  0  0  0
  2  4  1  0  0  0  0
  4  7  1  0  0  0  0
  4  5  1  0  0  0  0
  6  4  1  0  0  0  0
  7  8  1  0  0  0  0
  7  9  1  0  0  0  0
 10 12  1  0  0  0  0
 10  7  1  0  0  0  0
 11 10  1  0  0  0  0
 13 15  1  0  0  0  0
 13 10  1  0  0  0  0
 14 13  1  0  0  0  0
 16 13  1  0  0  0  0
 16  2  1  0  0  0  0
 17 16  1  0  0  0  0
 18 16  1  0  0  0  0
 19  1  1  0  0  0  0
 19 20  1  0  0  0  0
 20 21  1  0  0  0  0
 20 23  1  0  0  0  0
 22 20  1  0  0  0  0
 24 25  1  0  0  0  0
 24 19  1  0  0  0  0
 26 24  1  0  0  0  0
 27 24  1  0  0  0  0
 28 29  1  0  0  0  0
 28 19  1  0  0  0  0
 29 38  1  0  0  0  0
 29 30  1  0  0  0  0
 30 31  1  0  0  0  0
 30 32  1  0  0  0  0
 33 30  1  0  0  0  0
 34 35  1  0  0  0  0
 34 29  1  0  0  0  0
 36 34  1  0  0  0  0
 37 34  1  0  0  0  0
 38 39  1  0  0  0  0
 39 40  1  0  0  0  0
 39 53  1  0  0  0  0
 41 44  1  0  0  0  0
 41 39  1  0  0  0  0
 42 41  1  0  0  0  0
 43 41  1  0  0  0  0
 44 45  1  0  0  0  0
 44 47  1  0  0  0  0
 46 44  1  0  0  0  0
 47 48  1  0  0  0  0
 47 50  1  0  0  0  0
 49 47  1  0  0  0  0
 50 51  1  0  0  0  0
 50 52  1  0  0  0  0
 53 50  1  0  0  0  0
 53 54  1  0  0  0  0
 55 53  1  0  0  0  0
M  END
