1,2
 OpenBabel05122313053D

 40 41  0  0  1  0  0  0  0  0999 V2000
   -1.5422    0.8794   -0.6399 N   0  0  0  0  0  2  0  0  0  0  0  0
   -0.1248    2.5778    0.8521 N   0  0  0  0  0  2  0  0  0  0  0  0
   -2.4601   -0.1050   -1.0164 C   0  0  0  0  0  0  0  0  0  0  0  0
   -1.9994   -1.2388   -1.7626 C   0  0  0  0  0  0  0  0  0  0  0  0
   -1.0598    3.1593    0.0680 C   0  0  2  0  0  3  0  0  0  0  0  0
   -3.8288   -0.0933   -0.5909 C   0  0  0  0  0  0  0  0  0  0  0  0
   -1.8167    2.2656   -0.9027 C   0  0  1  0  0  0  0  0  0  0  0  0
   -2.8922    2.5275   -0.7616 H   0  0  0  0  0  0  0  0  0  0  0  0
   -4.6843   -1.1486   -0.9604 C   0  0  0  0  0  0  0  0  0  0  0  0
   -5.7321   -1.1198   -0.6143 H   0  0  0  0  0  0  0  0  0  0  0  0
    0.6014    3.3197    1.7131 C   0  0  0  0  0  0  0  0  0  0  0  0
    1.3579    2.7740    2.3006 H   0  0  0  0  0  0  0  0  0  0  0  0
   -2.8890   -2.2741   -2.0865 C   0  0  0  0  0  0  0  0  0  0  0  0
   -2.5068   -3.1300   -2.6684 H   0  0  0  0  0  0  0  0  0  0  0  0
   -4.2468   -2.2498   -1.7139 C   0  0  0  0  0  0  0  0  0  0  0  0
    0.4172    4.6964    1.8510 C   0  0  0  0  0  0  0  0  0  0  0  0
    1.0218    5.2674    2.5698 H   0  0  0  0  0  0  0  0  0  0  0  0
   -1.2893    4.5465    0.1434 C   0  0  0  0  0  0  0  0  0  0  0  0
   -2.0507    5.0045   -0.5047 H   0  0  0  0  0  0  0  0  0  0  0  0
   -0.5632   -1.3124   -2.2085 C   0  0  0  0  0  0  0  0  0  0  0  0
   -0.3680   -2.2338   -2.7901 H   0  0  0  0  0  0  0  0  0  0  0  0
    0.1473   -1.3054   -1.3543 H   0  0  0  0  0  0  0  0  0  0  0  0
   -0.2848   -0.4394   -2.8338 H   0  0  0  0  0  0  0  0  0  0  0  0
   -0.5531    5.3202    1.0466 C   0  0  0  0  0  0  0  0  0  0  0  0
   -0.7322    6.4032    1.1263 H   0  0  0  0  0  0  0  0  0  0  0  0
   -4.3498    0.9725    0.3419 C   0  0  0  0  0  0  0  0  0  0  0  0
   -4.6890    1.8929   -0.1835 H   0  0  0  0  0  0  0  0  0  0  0  0
   -3.5602    1.2920    1.0558 H   0  0  0  0  0  0  0  0  0  0  0  0
   -5.2185    0.5998    0.9203 H   0  0  0  0  0  0  0  0  0  0  0  0
   -1.4947    2.6744   -2.3791 C   0  0  0  0  0  0  0  0  0  0  0  0
   -2.0845    1.9809   -3.0151 H   0  0  0  0  0  0  0  0  0  0  0  0
   -1.8943    3.6934   -2.5798 H   0  0  0  0  0  0  0  0  0  0  0  0
   -5.1888   -3.3564   -2.1191 C   0  0  0  0  0  0  0  0  0  0  0  0
   -6.1127   -3.3507   -1.5067 H   0  0  0  0  0  0  0  0  0  0  0  0
   -4.7176   -4.3556   -2.0163 H   0  0  0  0  0  0  0  0  0  0  0  0
   -5.5010   -3.2591   -3.1822 H   0  0  0  0  0  0  0  0  0  0  0  0
   -0.0147    2.6021   -2.7433 C   0  0  0  0  0  0  0  0  0  0  0  0
    0.5786    3.3770   -2.2147 H   0  0  0  0  0  0  0  0  0  0  0  0
    0.1427    2.7496   -3.8302 H   0  0  0  0  0  0  0  0  0  0  0  0
    0.4082    1.6138   -2.4741 H   0  0  0  0  0  0  0  0  0  0  0  0
  2 11  1  0  0  0  0
  3  1  1  0  0  0  0
  3  6  1  0  0  0  0
  4  3  2  0  0  0  0
  5  7  1  6  0  0  0
  5 18  1  0  0  0  0
  5  2  1  0  0  0  0
  6 26  1  0  0  0  0
  7  8  1  1  0  0  0
  7  1  1  0  0  0  0
  9 10  1  0  0  0  0
  9  6  2  0  0  0  0
 11 16  2  0  0  0  0
 11 12  1  0  0  0  0
 13  4  1  0  0  0  0
 13 15  2  0  0  0  0
 14 13  1  0  0  0  0
 15  9  1  0  0  0  0
 16 17  1  0  0  0  0
 18 24  2  0  0  0  0
 19 18  1  0  0  0  0
 20  4  1  0  0  0  0
 20 22  1  0  0  0  0
 21 20  1  0  0  0  0
 23 20  1  0  0  0  0
 24 25  1  0  0  0  0
 24 16  1  0  0  0  0
 26 29  1  0  0  0  0
 26 28  1  0  0  0  0
 27 26  1  0  0  0  0
 30  7  1  0  0  0  0
 31 30  1  0  0  0  0
 32 30  1  0  0  0  0
 33 35  1  0  0  0  0
 33 15  1  0  0  0  0
 33 34  1  0  0  0  0
 36 33  1  0  0  0  0
 37 40  1  0  0  0  0
 37 30  1  0  0  0  0
 37 38  1  0  0  0  0
 39 37  1  0  0  0  0
M  END
