1,3
 OpenBabel05122313053D

 36 36  0  0  1  0  0  0  0  0999 V2000
   -0.6784   -0.1458    1.0643 N   0  0  0  0  0  0  0  0  0  0  0  0
   -1.0122   -1.0292    1.4998 H   0  0  0  0  0  0  0  0  0  0  0  0
    1.8968    0.9795    1.0616 N   0  0  0  0  0  0  0  0  0  0  0  0
    2.4360    0.5428    1.8245 H   0  0  0  0  0  0  0  0  0  0  0  0
   -2.7483   -1.8777    0.9601 O   0  0  0  0  0  0  0  0  0  0  0  0
   -2.1671   -2.2713    0.2571 H   0  0  0  0  0  0  0  0  0  0  0  0
    1.2245    2.9992   -1.0803 O   0  0  0  0  0  0  0  0  0  0  0  0
    0.8737    3.0829   -1.9844 H   0  0  0  0  0  0  0  0  0  0  0  0
    0.7712    1.7641    1.6509 C   0  0  0  0  0  0  0  0  0  0  0  0
    0.4022    2.4335    0.8542 H   0  0  0  0  0  0  0  0  0  0  0  0
    1.1350    2.4034    2.4862 H   0  0  0  0  0  0  0  0  0  0  0  0
   -2.0104    1.6438   -0.2352 C   0  0  0  0  0  0  0  0  0  0  0  0
   -1.0711    2.0918   -0.6198 H   0  0  0  0  0  0  0  0  0  0  0  0
   -2.3046    2.2139    0.6739 H   0  0  0  0  0  0  0  0  0  0  0  0
   -0.3227    0.8202    2.1321 C   0  0  0  0  0  0  0  0  0  0  0  0
    0.0405    0.2226    2.9939 H   0  0  0  0  0  0  0  0  0  0  0  0
   -1.2054    1.3962    2.4846 H   0  0  0  0  0  0  0  0  0  0  0  0
   -4.4094    1.0371   -0.8486 C   0  0  0  0  0  0  0  0  0  0  0  0
   -4.8324    1.5558    0.0411 H   0  0  0  0  0  0  0  0  0  0  0  0
   -5.1809    1.1083   -1.6427 H   0  0  0  0  0  0  0  0  0  0  0  0
   -4.1428   -0.4329   -0.4952 C   0  0  0  0  0  0  0  0  0  0  0  0
   -5.0626   -0.9406   -0.1409 H   0  0  0  0  0  0  0  0  0  0  0  0
   -3.7967   -0.9864   -1.3964 H   0  0  0  0  0  0  0  0  0  0  0  0
   -1.7821    0.1733    0.0997 C   0  0  2  0  0  0  0  0  0  0  0  0
   -1.4870   -0.3467   -0.8366 H   0  0  0  0  0  0  0  0  0  0  0  0
   -3.0594   -0.5451    0.5816 C   0  0  2  0  0  0  0  0  0  0  0  0
   -3.4306   -0.0474    1.5097 H   0  0  0  0  0  0  0  0  0  0  0  0
   -3.1257    1.7557   -1.2880 C   0  0  0  0  0  0  0  0  0  0  0  0
   -3.3323    2.8242   -1.5041 H   0  0  0  0  0  0  0  0  0  0  0  0
   -2.7644    1.3062   -2.2393 H   0  0  0  0  0  0  0  0  0  0  0  0
    2.3573    2.1316   -1.1376 C   0  0  0  0  0  0  0  0  0  0  0  0
    3.2088    2.6183   -1.6711 H   0  0  0  0  0  0  0  0  0  0  0  0
    2.1343    1.1715   -1.6563 H   0  0  0  0  0  0  0  0  0  0  0  0
    2.8473    1.7951    0.2592 C   0  0  0  0  0  0  0  0  0  0  0  0
    3.7580    1.1780    0.1366 H   0  0  0  0  0  0  0  0  0  0  0  0
    3.0988    2.7238    0.8198 H   0  0  0  0  0  0  0  0  0  0  0  0
  1  2  1  0  0  0  0
  1 15  1  0  0  0  0
  3  9  1  0  0  0  0
  3  4  1  0  0  0  0
  6  5  1  0  0  0  0
  8  7  1  0  0  0  0
  9 15  1  0  0  0  0
  9 11  1  0  0  0  0
 10  9  1  0  0  0  0
 12 24  1  0  0  0  0
 12 14  1  0  0  0  0
 13 12  1  0  0  0  0
 15 17  1  0  0  0  0
 15 16  1  0  0  0  0
 18 21  1  0  0  0  0
 18 19  1  0  0  0  0
 20 18  1  0  0  0  0
 21 22  1  0  0  0  0
 21 26  1  0  0  0  0
 23 21  1  0  0  0  0
 24 25  1  6  0  0  0
 24 26  1  0  0  0  0
 24  1  1  0  0  0  0
 26  5  1  0  0  0  0
 26 27  1  1  0  0  0
 28 18  1  0  0  0  0
 28 12  1  0  0  0  0
 29 28  1  0  0  0  0
 30 28  1  0  0  0  0
 31  7  1  0  0  0  0
 31 34  1  0  0  0  0
 32 31  1  0  0  0  0
 33 31  1  0  0  0  0
 34 36  1  0  0  0  0
 34  3  1  0  0  0  0
 35 34  1  0  0  0  0
M  END
