1,2
 OpenBabel05122313053D

 56 59  0  0  1  0  0  0  0  0999 V2000
   -1.1945    1.2603   -0.0657 N   0  0  0  0  0  2  0  0  0  0  0  0
    0.9893    0.0455   -1.0140 N   0  0  0  0  0  2  0  0  0  0  0  0
    0.0428    1.5392    0.6565 C   0  0  1  0  0  0  0  0  0  0  0  0
    1.1781    1.3429   -0.3724 C   0  0  1  0  0  0  0  0  0  0  0  0
   -2.3672    1.2938    0.7853 C   0  0  0  0  0  0  0  0  0  0  0  0
   -3.6587    1.5401    0.0356 C   0  0  0  0  0  0  0  0  0  0  0  0
   -4.8879    1.1134    0.5722 C   0  0  0  0  0  0  0  0  0  0  0  0
   -6.0919    1.3607   -0.1049 C   0  0  0  0  0  0  0  0  0  0  0  0
   -6.0835    2.0382   -1.3352 C   0  0  0  0  0  0  0  0  0  0  0  0
   -4.8627    2.4770   -1.8732 C   0  0  0  0  0  0  0  0  0  0  0  0
   -3.6612    2.2358   -1.1893 C   0  0  0  0  0  0  0  0  0  0  0  0
    0.0702    2.9417    1.2409 C   0  0  0  0  0  0  0  0  0  0  0  0
    0.6091    3.1666    2.5210 C   0  0  0  0  0  0  0  0  0  0  0  0
    0.7122    4.4690    3.0321 C   0  0  0  0  0  0  0  0  0  0  0  0
    0.2689    5.5616    2.2705 C   0  0  0  0  0  0  0  0  0  0  0  0
   -0.2751    5.3453    0.9935 C   0  0  0  0  0  0  0  0  0  0  0  0
   -0.3693    4.0441    0.4798 C   0  0  0  0  0  0  0  0  0  0  0  0
    2.5402    1.4556    0.3024 C   0  0  0  0  0  0  0  0  0  0  0  0
    3.2466    2.6708    0.2691 C   0  0  0  0  0  0  0  0  0  0  0  0
    4.4733    2.7979    0.9372 C   0  0  0  0  0  0  0  0  0  0  0  0
    5.0068    1.7069    1.6409 C   0  0  0  0  0  0  0  0  0  0  0  0
    4.3005    0.4934    1.6829 C   0  0  0  0  0  0  0  0  0  0  0  0
    3.0703    0.3696    1.0229 C   0  0  0  0  0  0  0  0  0  0  0  0
    1.5922    0.0178   -2.3453 C   0  0  0  0  0  0  0  0  0  0  0  0
    3.0788   -0.2990   -2.2189 C   0  0  0  0  0  0  0  0  0  0  0  0
    4.0457    0.6965   -2.4453 C   0  0  0  0  0  0  0  0  0  0  0  0
    5.4101    0.4202   -2.2730 C   0  0  0  0  0  0  0  0  0  0  0  0
    5.8206   -0.8598   -1.8705 C   0  0  0  0  0  0  0  0  0  0  0  0
    4.8604   -1.8615   -1.6513 C   0  0  0  0  0  0  0  0  0  0  0  0
    3.4969   -1.5841   -1.8188 C   0  0  0  0  0  0  0  0  0  0  0  0
    0.2071    0.8118    1.4887 H   0  0  0  0  0  0  0  0  0  0  0  0
    1.0853    2.1790   -1.1119 H   0  0  0  0  0  0  0  0  0  0  0  0
   -2.4665    0.3893    1.4352 H   0  0  0  0  0  0  0  0  0  0  0  0
   -2.2239    2.1326    1.5083 H   0  0  0  0  0  0  0  0  0  0  0  0
   -4.8975    0.5657    1.5288 H   0  0  0  0  0  0  0  0  0  0  0  0
   -7.0442    1.0172    0.3283 H   0  0  0  0  0  0  0  0  0  0  0  0
   -7.0264    2.2280   -1.8701 H   0  0  0  0  0  0  0  0  0  0  0  0
   -4.8475    3.0181   -2.8322 H   0  0  0  0  0  0  0  0  0  0  0  0
   -2.6968    2.5718   -1.6008 H   0  0  0  0  0  0  0  0  0  0  0  0
    0.9658    2.3086    3.1115 H   0  0  0  0  0  0  0  0  0  0  0  0
    1.1434    4.6310    4.0317 H   0  0  0  0  0  0  0  0  0  0  0  0
    0.3464    6.5834    2.6723 H   0  0  0  0  0  0  0  0  0  0  0  0
   -0.6266    6.1978    0.3923 H   0  0  0  0  0  0  0  0  0  0  0  0
   -0.7938    3.8680   -0.5201 H   0  0  0  0  0  0  0  0  0  0  0  0
    2.8268    3.5247   -0.2854 H   0  0  0  0  0  0  0  0  0  0  0  0
    5.0181    3.7539    0.9030 H   0  0  0  0  0  0  0  0  0  0  0  0
    5.9757    1.8012    2.1549 H   0  0  0  0  0  0  0  0  0  0  0  0
    4.7160   -0.3677    2.2285 H   0  0  0  0  0  0  0  0  0  0  0  0
    2.5139   -0.5786    1.0307 H   0  0  0  0  0  0  0  0  0  0  0  0
    1.1232   -0.7827   -2.9477 H   0  0  0  0  0  0  0  0  0  0  0  0
    1.4621    0.9801   -2.8976 H   0  0  0  0  0  0  0  0  0  0  0  0
    3.7224    1.7057   -2.7446 H   0  0  0  0  0  0  0  0  0  0  0  0
    6.1547    1.2122   -2.4456 H   0  0  0  0  0  0  0  0  0  0  0  0
    6.8903   -1.0775   -1.7281 H   0  0  0  0  0  0  0  0  0  0  0  0
    5.1759   -2.8703   -1.3434 H   0  0  0  0  0  0  0  0  0  0  0  0
    2.7511   -2.3706   -1.6291 H   0  0  0  0  0  0  0  0  0  0  0  0
  1  3  1  0  0  0  0
  1  5  1  0  0  0  0
  2  4  1  0  0  0  0
  3 12  1  0  0  0  0
  3 31  1  1  0  0  0
  4 32  1  6  0  0  0
  4 18  1  0  0  0  0
  4  3  1  0  0  0  0
  5 33  1  0  0  0  0
  5 34  1  0  0  0  0
  6  7  1  0  0  0  0
  6  5  1  0  0  0  0
  7 35  1  0  0  0  0
  8 36  1  0  0  0  0
  8  7  2  0  0  0  0
  9  8  1  0  0  0  0
 10  9  2  0  0  0  0
 10 11  1  0  0  0  0
 11  6  2  0  0  0  0
 12 13  1  0  0  0  0
 13 14  2  0  0  0  0
 13 40  1  0  0  0  0
 14 41  1  0  0  0  0
 15 42  1  0  0  0  0
 15 14  1  0  0  0  0
 16 15  2  0  0  0  0
 17 16  1  0  0  0  0
 17 12  2  0  0  0  0
 18 23  1  0  0  0  0
 19 18  2  0  0  0  0
 19 20  1  0  0  0  0
 20 21  2  0  0  0  0
 21 22  1  0  0  0  0
 21 47  1  0  0  0  0
 22 48  1  0  0  0  0
 23 49  1  0  0  0  0
 23 22  2  0  0  0  0
 24 25  1  0  0  0  0
 24  2  1  0  0  0  0
 25 30  1  0  0  0  0
 26 27  1  0  0  0  0
 26 25  2  0  0  0  0
 27 28  2  0  0  0  0
 28 54  1  0  0  0  0
 28 29  1  0  0  0  0
 29 55  1  0  0  0  0
 30 29  2  0  0  0  0
 30 56  1  0  0  0  0
 37  9  1  0  0  0  0
 38 10  1  0  0  0  0
 39 11  1  0  0  0  0
 43 16  1  0  0  0  0
 44 17  1  0  0  0  0
 45 19  1  0  0  0  0
 46 20  1  0  0  0  0
 50 24  1  0  0  0  0
 51 24  1  0  0  0  0
 52 26  1  0  0  0  0
 53 27  1  0  0  0  0
M  END
