7,8
 OpenBabel05122313053D

 58 59  0  0  0  0  0  0  0  0999 V2000
   -3.4214   -2.3951   -0.9428 O   0  0  0  0  0  0  0  0  0  0  0  0
   -5.8302   -2.1065   -0.0764 O   0  0  0  0  0  0  0  0  0  0  0  0
   -6.9268    0.4413    0.4431 O   0  0  0  0  0  0  0  0  0  0  0  0
    6.9270    0.4413   -0.4418 O   0  0  0  0  0  0  0  0  0  0  0  0
    5.8304   -2.1067    0.0765 O   0  0  0  0  0  0  0  0  0  0  0  0
    3.4213   -2.3956    0.9418 O   0  0  0  0  0  0  0  0  0  0  0  0
   -1.2832    2.3755   -0.5504 N   0  0  0  0  0  2  0  0  0  0  0  0
    1.2830    2.3752    0.5504 N   0  0  0  0  0  2  0  0  0  0  0  0
   -2.9845    0.0035   -0.9071 C   0  0  0  0  0  0  0  0  0  0  0  0
   -1.9472   -0.1093   -1.2470 H   0  0  0  0  0  0  0  0  0  0  0  0
   -3.8141   -1.1077   -0.7387 C   0  0  0  0  0  0  0  0  0  0  0  0
   -5.1587   -0.9558   -0.2796 C   0  0  0  0  0  0  0  0  0  0  0  0
   -5.6493    0.3575   -0.0169 C   0  0  0  0  0  0  0  0  0  0  0  0
   -4.8080    1.4687   -0.2021 C   0  0  0  0  0  0  0  0  0  0  0  0
   -5.1722    2.4790    0.0266 H   0  0  0  0  0  0  0  0  0  0  0  0
   -3.4654    1.2945   -0.6046 C   0  0  0  0  0  0  0  0  0  0  0  0
   -2.5770    2.4482   -0.6103 C   0  0  0  0  0  3  0  0  0  0  0  0
   -3.0660    3.4487   -0.6327 H   0  0  0  0  0  0  0  0  0  0  0  0
   -2.1456   -2.6112   -1.5263 C   0  0  0  0  0  0  0  0  0  0  0  0
   -2.0657   -2.1224   -2.5223 H   0  0  0  0  0  0  0  0  0  0  0  0
   -2.0432   -3.7050   -1.6481 H   0  0  0  0  0  0  0  0  0  0  0  0
   -1.3216   -2.2313   -0.8827 H   0  0  0  0  0  0  0  0  0  0  0  0
   -7.2462   -2.2058   -0.2671 C   0  0  0  0  0  0  0  0  0  0  0  0
   -7.8070   -1.8023    0.5973 H   0  0  0  0  0  0  0  0  0  0  0  0
   -7.4529   -3.2866   -0.3792 H   0  0  0  0  0  0  0  0  0  0  0  0
   -7.5640   -1.6739   -1.1868 H   0  0  0  0  0  0  0  0  0  0  0  0
   -7.4911    1.7245    0.6594 C   0  0  0  0  0  0  0  0  0  0  0  0
   -6.9514    2.2827    1.4562 H   0  0  0  0  0  0  0  0  0  0  0  0
   -8.5334    1.5537    0.9845 H   0  0  0  0  0  0  0  0  0  0  0  0
   -7.4952    2.3339   -0.2711 H   0  0  0  0  0  0  0  0  0  0  0  0
   -0.5085    3.6088   -0.5752 C   0  0  0  0  0  0  0  0  0  0  0  0
   -1.1539    4.5144   -0.5134 H   0  0  0  0  0  0  0  0  0  0  0  0
    0.0452    3.6547   -1.5395 H   0  0  0  0  0  0  0  0  0  0  0  0
    0.5086    3.6087    0.5750 C   0  0  0  0  0  0  0  0  0  0  0  0
    1.1543    4.5142    0.5131 H   0  0  0  0  0  0  0  0  0  0  0  0
   -0.0451    3.6549    1.5393 H   0  0  0  0  0  0  0  0  0  0  0  0
    2.5768    2.4478    0.6105 C   0  0  0  0  0  3  0  0  0  0  0  0
    3.0659    3.4482    0.6329 H   0  0  0  0  0  0  0  0  0  0  0  0
    3.4652    1.2940    0.6048 C   0  0  0  0  0  0  0  0  0  0  0  0
    4.8079    1.4684    0.2028 C   0  0  0  0  0  0  0  0  0  0  0  0
    5.1721    2.4788   -0.0254 H   0  0  0  0  0  0  0  0  0  0  0  0
    5.6494    0.3573    0.0176 C   0  0  0  0  0  0  0  0  0  0  0  0
    5.1588   -0.9560    0.2797 C   0  0  0  0  0  0  0  0  0  0  0  0
    3.8140   -1.1082    0.7383 C   0  0  0  0  0  0  0  0  0  0  0  0
    2.9843    0.0030    0.9067 C   0  0  0  0  0  0  0  0  0  0  0  0
    1.9469   -0.1101    1.2463 H   0  0  0  0  0  0  0  0  0  0  0  0
    7.4915    1.7246   -0.6574 C   0  0  0  0  0  0  0  0  0  0  0  0
    6.9521    2.2830   -1.4543 H   0  0  0  0  0  0  0  0  0  0  0  0
    8.5339    1.5540   -0.9821 H   0  0  0  0  0  0  0  0  0  0  0  0
    7.4951    2.3337    0.2733 H   0  0  0  0  0  0  0  0  0  0  0  0
    7.2464   -2.2058    0.2669 C   0  0  0  0  0  0  0  0  0  0  0  0
    7.8070   -1.8020   -0.5975 H   0  0  0  0  0  0  0  0  0  0  0  0
    7.4532   -3.2866    0.3787 H   0  0  0  0  0  0  0  0  0  0  0  0
    7.5643   -1.6741    1.1866 H   0  0  0  0  0  0  0  0  0  0  0  0
    2.1453   -2.6120    1.5247 C   0  0  0  0  0  0  0  0  0  0  0  0
    2.0649   -2.1237    2.5209 H   0  0  0  0  0  0  0  0  0  0  0  0
    2.0428   -3.7059    1.6459 H   0  0  0  0  0  0  0  0  0  0  0  0
    1.3215   -2.2319    0.8809 H   0  0  0  0  0  0  0  0  0  0  0  0
  1 11  1  0  0  0  0
  3 27  1  0  0  0  0
  4 42  1  0  0  0  0
  5 51  1  0  0  0  0
  5 43  1  0  0  0  0
  6 55  1  0  0  0  0
  8 34  1  0  0  0  0
  8 37  1  0  0  0  0
  9 11  2  0  0  0  0
  9 16  1  0  0  0  0
 10  9  1  0  0  0  0
 11 12  1  0  0  0  0
 12  2  1  0  0  0  0
 12 13  2  0  0  0  0
 13  3  1  0  0  0  0
 14 13  1  0  0  0  0
 14 15  1  0  0  0  0
 16 14  2  0  0  0  0
 17 16  1  0  0  0  0
 17  7  1  0  0  0  0
 18 17  1  0  0  0  0
 19  1  1  0  0  0  0
 19 22  1  0  0  0  0
 20 19  1  0  0  0  0
 21 19  1  0  0  0  0
 23  2  1  0  0  0  0
 23 24  1  0  0  0  0
 25 23  1  0  0  0  0
 26 23  1  0  0  0  0
 27 29  1  0  0  0  0
 27 28  1  0  0  0  0
 30 27  1  0  0  0  0
 31  7  1  0  0  0  0
 31 32  1  0  0  0  0
 31 34  1  0  0  0  0
 33 31  1  0  0  0  0
 34 36  1  0  0  0  0
 35 34  1  0  0  0  0
 37 38  1  0  0  0  0
 39 37  1  0  0  0  0
 39 45  1  0  0  0  0
 40 39  2  0  0  0  0
 41 40  1  0  0  0  0
 42 40  1  0  0  0  0
 42 43  2  0  0  0  0
 43 44  1  0  0  0  0
 44 45  2  0  0  0  0
 44  6  1  0  0  0  0
 45 46  1  0  0  0  0
 47  4  1  0  0  0  0
 47 50  1  0  0  0  0
 48 47  1  0  0  0  0
 49 47  1  0  0  0  0
 51 53  1  0  0  0  0
 51 54  1  0  0  0  0
 52 51  1  0  0  0  0
 55 57  1  0  0  0  0
 55 56  1  0  0  0  0
 58 55  1  0  0  0  0
M  END
