3,4
 OpenBabel05122313053D

 33 36  0  0  0  0  0  0  0  0999 V2000
   -0.6318   -3.8798   -0.8340 S   0  0  0  0  0  0  0  0  0  0  0  0
    0.8895    2.9304   -1.4720 S   0  0  0  0  0  0  0  0  0  0  0  0
    1.2092   -2.1230   -0.4484 N   0  0  0  0  0  2  0  0  0  0  0  0
   -0.2980    0.1155   -0.3343 N   0  0  0  0  0  2  0  0  0  0  0  0
   -0.9318    3.6437    0.2358 N   0  0  0  0  0  0  0  0  0  0  0  0
    1.8617   -3.3180   -0.6249 C   0  0  0  0  0  0  0  0  0  0  0  0
    2.9568   -3.3497   -0.5663 H   0  0  0  0  0  0  0  0  0  0  0  0
    1.0257   -4.3885   -0.8458 C   0  0  0  0  0  0  0  0  0  0  0  0
    1.2911   -5.4388   -1.0101 H   0  0  0  0  0  0  0  0  0  0  0  0
   -0.1167   -2.2480   -0.5211 C   0  0  0  0  0  0  0  0  0  0  0  0
   -0.9707   -1.0780   -0.3845 C   0  0  0  0  0  0  0  0  0  0  0  0
   -2.3656   -1.1757   -0.2991 C   0  0  0  0  0  0  0  0  0  0  0  0
   -2.8350   -2.1697   -0.3125 H   0  0  0  0  0  0  0  0  0  0  0  0
   -3.1420   -0.0173   -0.1099 C   0  0  0  0  0  0  0  0  0  0  0  0
   -2.4459    1.2058   -0.0991 C   0  0  0  0  0  0  0  0  0  0  0  0
   -2.9686    2.1671   -0.0146 H   0  0  0  0  0  0  0  0  0  0  0  0
   -1.0476    1.2468   -0.2517 C   0  0  0  0  0  0  0  0  0  0  0  0
   -0.4325    2.5787   -0.3619 C   0  0  0  0  0  0  0  0  0  0  0  0
   -0.2589    4.7739   -0.1235 C   0  0  0  0  0  0  0  0  0  0  0  0
   -0.5365    5.7415    0.3184 H   0  0  0  0  0  0  0  0  0  0  0  0
    0.7555    4.5940   -1.0505 C   0  0  0  0  0  0  0  0  0  0  0  0
    1.4290    5.3427   -1.4849 H   0  0  0  0  0  0  0  0  0  0  0  0
   -4.6119   -0.0780    0.0529 C   0  0  0  0  0  0  0  0  0  0  0  0
   -5.3723   -1.0908   -0.5746 C   0  0  0  0  0  0  0  0  0  0  0  0
   -4.8725   -1.8279   -1.2210 H   0  0  0  0  0  0  0  0  0  0  0  0
   -6.7627   -1.1449   -0.4144 C   0  0  0  0  0  0  0  0  0  0  0  0
   -7.3397   -1.9337   -0.9200 H   0  0  0  0  0  0  0  0  0  0  0  0
   -7.4187   -0.1916    0.3808 C   0  0  0  0  0  0  0  0  0  0  0  0
   -8.5107   -0.2361    0.5089 H   0  0  0  0  0  0  0  0  0  0  0  0
   -6.6748    0.8183    1.0119 C   0  0  0  0  0  0  0  0  0  0  0  0
   -7.1804    1.5632    1.6445 H   0  0  0  0  0  0  0  0  0  0  0  0
   -5.2853    0.8779    0.8472 C   0  0  0  0  0  0  0  0  0  0  0  0
   -4.7082    1.6576    1.3663 H   0  0  0  0  0  0  0  0  0  0  0  0
  1 10  1  0  0  0  0
  2 21  1  0  0  0  0
  2 18  1  0  0  0  0
  4 17  1  0  0  0  0
  6  7  1  0  0  0  0
  6  3  1  0  0  0  0
  8  1  1  0  0  0  0
  8  6  2  0  0  0  0
  9  8  1  0  0  0  0
 10  3  1  0  0  0  0
 10 11  2  0  0  0  0
 11  4  1  0  0  0  0
 11 12  1  0  0  0  0
 12 14  2  0  0  0  0
 13 12  1  0  0  0  0
 14 15  1  0  0  0  0
 14 23  1  0  0  0  0
 15 16  1  0  0  0  0
 17 15  2  0  0  0  0
 18 17  1  0  0  0  0
 18  5  2  0  0  0  0
 19  5  1  0  0  0  0
 19 20  1  0  0  0  0
 21 19  2  0  0  0  0
 22 21  1  0  0  0  0
 23 32  1  0  0  0  0
 24 26  1  0  0  0  0
 24 23  2  0  0  0  0
 25 24  1  0  0  0  0
 26 28  2  0  0  0  0
 27 26  1  0  0  0  0
 28 29  1  0  0  0  0
 28 30  1  0  0  0  0
 30 31  1  0  0  0  0
 32 30  2  0  0  0  0
 32 33  1  0  0  0  0
M  END
