1,18
 OpenBabel05122313053D

 26 27  0  0  0  0  0  0  0  0999 V2000
   -0.0228    0.5638    0.3860 N   0  0  0  0  0  2  0  0  0  0  0  0
    3.2752    0.7414    1.5308 C   0  0  0  0  0  0  0  0  0  0  0  0
    3.0984    0.1070    2.4216 H   0  0  0  0  0  0  0  0  0  0  0  0
    3.7286    1.6928    1.8684 H   0  0  0  0  0  0  0  0  0  0  0  0
    0.9902    0.1050    1.0829 N   0  0  0  0  0  2  0  0  0  0  0  0
    4.1611    0.0409    0.5191 C   0  0  0  0  0  0  0  0  0  0  0  0
    1.9480    1.0409    0.9927 N   0  0  0  0  0  0  0  0  0  0  0  0
    3.7435   -1.1738   -0.0627 C   0  0  0  0  0  0  0  0  0  0  0  0
    2.7693   -1.6074    0.2155 H   0  0  0  0  0  0  0  0  0  0  0  0
    4.5620   -1.8197   -0.9990 C   0  0  0  0  0  0  0  0  0  0  0  0
    4.2286   -2.7663   -1.4502 H   0  0  0  0  0  0  0  0  0  0  0  0
    5.8026   -1.2654   -1.3578 C   0  0  0  0  0  0  0  0  0  0  0  0
    6.4434   -1.7772   -2.0917 H   0  0  0  0  0  0  0  0  0  0  0  0
    6.2226   -0.0586   -0.7792 C   0  0  0  0  0  0  0  0  0  0  0  0
    7.1928    0.3804   -1.0566 H   0  0  0  0  0  0  0  0  0  0  0  0
    5.4013    0.5944    0.1536 C   0  0  0  0  0  0  0  0  0  0  0  0
    5.7315    1.5435    0.6063 H   0  0  0  0  0  0  0  0  0  0  0  0
   -2.1164    1.9078   -0.5620 N   0  0  0  0  0  0  0  0  0  0  0  0
   -2.8354    1.9433   -1.3020 H   0  0  0  0  0  0  0  0  0  0  0  0
   -2.4871    2.4329    0.2447 H   0  0  0  0  0  0  0  0  0  0  0  0
    1.5542    2.1115    0.2368 C   0  0  0  0  0  0  0  0  0  0  0  0
    2.2077    2.9662    0.0400 H   0  0  0  0  0  0  0  0  0  0  0  0
    0.2631    1.8053   -0.1549 C   0  0  0  0  0  0  0  0  0  0  0  0
   -0.7978    2.4420   -1.0022 C   0  0  0  0  0  0  0  0  0  0  0  0
   -0.7499    3.5506   -0.9602 H   0  0  0  0  0  0  0  0  0  0  0  0
   -0.6604    2.1352   -2.0598 H   0  0  0  0  0  0  0  0  0  0  0  0
  1  5  1  0  0  0  0
  2  4  1  0  0  0  0
  2  3  1  0  0  0  0
  6  2  1  0  0  0  0
  7  5  1  0  0  0  0
  7  2  1  0  0  0  0
  8  9  1  0  0  0  0
  8  6  2  0  0  0  0
 10  8  1  0  0  0  0
 11 10  1  0  0  0  0
 12 10  2  0  0  0  0
 12 14  1  0  0  0  0
 13 12  1  0  0  0  0
 14 16  2  0  0  0  0
 15 14  1  0  0  0  0
 16  6  1  0  0  0  0
 16 17  1  0  0  0  0
 18 20  1  0  0  0  0
 19 18  1  0  0  0  0
 21  7  1  0  0  0  0
 22 21  1  0  0  0  0
 23 21  2  0  0  0  0
 23  1  1  0  0  0  0
 24 25  1  0  0  0  0
 24 18  1  0  0  0  0
 24 23  1  0  0  0  0
 26 24  1  0  0  0  0
M  END
