3,18
 OpenBabel05122313053D

 30 33  0  0  0  0  0  0  0  0999 V2000
    1.4110   -2.1462   -0.0002 N   0  0  0  0  0  0  0  0  0  0  0  0
    0.7428   -1.0147    0.0000 C   0  0  0  0  0  0  0  0  0  0  0  0
    1.3184    0.2497    0.0002 N   0  0  0  0  0  2  0  0  0  0  0  0
    2.6475    0.3430    0.0003 C   0  0  0  0  0  0  0  0  0  0  0  0
    3.0472    1.3750    0.0005 H   0  0  0  0  0  0  0  0  0  0  0  0
    3.4591   -0.8188    0.0001 C   0  0  0  0  0  0  0  0  0  0  0  0
    4.8808   -0.7798    0.0002 C   0  0  0  0  0  0  0  0  0  0  0  0
    5.3920    0.1948    0.0004 H   0  0  0  0  0  0  0  0  0  0  0  0
    5.5973   -1.9684   -0.0001 C   0  0  0  0  0  0  0  0  0  0  0  0
    6.6972   -1.9467   -0.0000 H   0  0  0  0  0  0  0  0  0  0  0  0
    4.9221   -3.2216   -0.0004 C   0  0  0  0  0  0  0  0  0  0  0  0
    5.5126   -4.1502   -0.0006 H   0  0  0  0  0  0  0  0  0  0  0  0
    3.5352   -3.2874   -0.0004 C   0  0  0  0  0  0  0  0  0  0  0  0
    2.9919   -4.2428   -0.0006 H   0  0  0  0  0  0  0  0  0  0  0  0
    2.7724   -2.0865   -0.0002 C   0  0  0  0  0  0  0  0  0  0  0  0
   -1.4112   -2.1461    0.0002 N   0  0  0  0  0  0  0  0  0  0  0  0
   -0.7429   -1.0146   -0.0000 C   0  0  0  0  0  0  0  0  0  0  0  0
   -1.3184    0.2497   -0.0002 N   0  0  0  0  0  2  0  0  0  0  0  0
   -2.6476    0.3431   -0.0003 C   0  0  0  0  0  0  0  0  0  0  0  0
   -3.0472    1.3751   -0.0005 H   0  0  0  0  0  0  0  0  0  0  0  0
   -3.4591   -0.8187   -0.0001 C   0  0  0  0  0  0  0  0  0  0  0  0
   -4.8809   -0.7796   -0.0002 C   0  0  0  0  0  0  0  0  0  0  0  0
   -5.3921    0.1951   -0.0004 H   0  0  0  0  0  0  0  0  0  0  0  0
   -5.5974   -1.9682    0.0001 C   0  0  0  0  0  0  0  0  0  0  0  0
   -6.6973   -1.9465    0.0000 H   0  0  0  0  0  0  0  0  0  0  0  0
   -4.9223   -3.2214    0.0004 C   0  0  0  0  0  0  0  0  0  0  0  0
   -5.5128   -4.1500    0.0006 H   0  0  0  0  0  0  0  0  0  0  0  0
   -3.5354   -3.2872    0.0004 C   0  0  0  0  0  0  0  0  0  0  0  0
   -2.9921   -4.2427    0.0007 H   0  0  0  0  0  0  0  0  0  0  0  0
   -2.7726   -2.0864    0.0002 C   0  0  0  0  0  0  0  0  0  0  0  0
  1 15  2  0  0  0  0
  1  2  1  0  0  0  0
  2  3  1  0  0  0  0
  3  4  1  0  0  0  0
  4  5  1  0  0  0  0
  6  7  1  0  0  0  0
  6  4  2  0  0  0  0
  7  8  1  0  0  0  0
  9 10  1  0  0  0  0
  9  7  2  0  0  0  0
 11  9  1  0  0  0  0
 12 11  1  0  0  0  0
 13 11  2  0  0  0  0
 13 15  1  0  0  0  0
 14 13  1  0  0  0  0
 15  6  1  0  0  0  0
 17  2  2  0  0  0  0
 17 16  1  0  0  0  0
 18 17  1  0  0  0  0
 19 18  1  0  0  0  0
 19 21  2  0  0  0  0
 20 19  1  0  0  0  0
 21 30  1  0  0  0  0
 22 21  1  0  0  0  0
 22 24  2  0  0  0  0
 23 22  1  0  0  0  0
 24 26  1  0  0  0  0
 25 24  1  0  0  0  0
 26 28  2  0  0  0  0
 26 27  1  0  0  0  0
 28 29  1  0  0  0  0
 30 16  2  0  0  0  0
 30 28  1  0  0  0  0
M  END
