1,2
 OpenBabel05122313053D

 20 21  0  0  1  0  0  0  0  0999 V2000
    0.7722    1.9855    0.8152 N   0  0  0  0  0  2  0  0  0  0  0  0
   -0.5575    1.7559   -1.3528 N   0  0  0  0  0  2  0  0  0  0  0  0
   -0.4325    3.8890   -2.1034 N   0  0  0  0  0  0  0  0  0  0  0  0
   -0.5875    4.8662   -1.8490 H   0  0  0  0  0  0  0  0  0  0  0  0
    1.4113    2.0177    2.0092 C   0  0  0  0  0  3  0  0  0  0  0  0
    1.4929    1.0530    2.5317 H   0  0  0  0  0  0  0  0  0  0  0  0
    1.9316    3.1987    2.5449 C   0  0  0  0  0  0  0  0  0  0  0  0
    2.4435    3.1642    3.5168 H   0  0  0  0  0  0  0  0  0  0  0  0
    1.7952    4.4054    1.8349 C   0  0  0  0  0  0  0  0  0  0  0  0
    2.2043    5.3442    2.2343 H   0  0  0  0  0  0  0  0  0  0  0  0
    1.1216    4.3865    0.6081 C   0  0  0  0  0  0  0  0  0  0  0  0
    0.9919    5.3067    0.0202 H   0  0  0  0  0  0  0  0  0  0  0  0
    0.6114    3.1735    0.1227 C   0  0  0  0  0  0  0  0  0  0  0  0
   -0.1373    2.9830   -1.1076 C   0  0  2  0  0  3  0  0  0  0  0  0
   -1.4142    3.2328   -2.9912 C   0  0  0  0  0  0  0  0  0  0  0  0
   -1.2269    3.4821   -4.0536 H   0  0  0  0  0  0  0  0  0  0  0  0
   -2.4525    3.5440   -2.7347 H   0  0  0  0  0  0  0  0  0  0  0  0
   -1.1869    1.7328   -2.6769 C   0  0  0  0  0  0  0  0  0  0  0  0
   -2.1146    1.1287   -2.6689 H   0  0  0  0  0  0  0  0  0  0  0  0
   -0.4802    1.2533   -3.3892 H   0  0  0  0  0  0  0  0  0  0  0  0
  1  5  1  0  0  0  0
  2 14  1  0  0  0  0
  3  4  1  0  0  0  0
  3 14  1  0  0  0  0
  5  6  1  0  0  0  0
  5  7  1  0  0  0  0
  7  8  1  0  0  0  0
  9 10  1  0  0  0  0
  9  7  2  0  0  0  0
 11  9  1  0  0  0  0
 12 11  1  0  0  0  0
 13 11  2  0  0  0  0
 13  1  1  0  0  0  0
 14 13  1  6  0  0  0
 15 17  1  0  0  0  0
 15 18  1  0  0  0  0
 15  3  1  0  0  0  0
 16 15  1  0  0  0  0
 18 19  1  0  0  0  0
 18  2  1  0  0  0  0
 20 18  1  0  0  0  0
M  END
