1,2
 OpenBabel05122313053D

 48 49  0  0  1  0  0  0  0  0999 V2000
   -2.5609    0.6921   -0.4218 N   0  0  0  0  0  0  0  0  0  0  0  0
    0.2563    0.5556   -0.6405 N   0  0  0  0  0  2  0  0  0  0  0  0
   -4.5350   -0.6098    0.4387 C   0  0  0  0  0  0  0  0  0  0  0  0
   -3.8337   -1.2420    1.0207 H   0  0  0  0  0  0  0  0  0  0  0  0
   -5.3636   -1.2549    0.0871 H   0  0  0  0  0  0  0  0  0  0  0  0
   -4.9675    0.1444    1.1259 H   0  0  0  0  0  0  0  0  0  0  0  0
   -3.8356    0.0108   -0.7633 C   0  0  0  0  0  0  0  0  0  0  0  0
   -3.5588   -0.7951   -1.4740 H   0  0  0  0  0  0  0  0  0  0  0  0
   -4.5166    0.7167   -1.2964 H   0  0  0  0  0  0  0  0  0  0  0  0
   -3.5708    2.9073    0.3391 C   0  0  0  0  0  0  0  0  0  0  0  0
   -3.2129    3.4881   -0.5358 H   0  0  0  0  0  0  0  0  0  0  0  0
   -3.5860    3.5963    1.2068 H   0  0  0  0  0  0  0  0  0  0  0  0
   -4.6189    2.6066    0.1388 H   0  0  0  0  0  0  0  0  0  0  0  0
   -2.6793    1.7075    0.6519 C   0  0  0  0  0  0  0  0  0  0  0  0
   -1.6541    2.0364    0.9149 H   0  0  0  0  0  0  0  0  0  0  0  0
   -3.0239    1.1749    1.5587 H   0  0  0  0  0  0  0  0  0  0  0  0
   -1.8877    1.1708   -1.6440 C   0  0  0  0  0  0  0  0  0  0  0  0
   -2.4494    1.9927   -2.1459 H   0  0  0  0  0  0  0  0  0  0  0  0
   -1.8570    0.3029   -2.3360 H   0  0  0  0  0  0  0  0  0  0  0  0
   -0.4521    1.6135   -1.3623 C   0  0  0  0  0  0  0  0  0  0  0  0
    0.0515    1.8377   -2.3283 H   0  0  0  0  0  0  0  0  0  0  0  0
   -0.4291    2.5598   -0.7761 H   0  0  0  0  0  0  0  0  0  0  0  0
    1.5195    0.6679   -0.4201 C   0  0  1  0  0  3  0  0  0  0  0  0
    2.4029    1.8439   -0.7949 C   0  0  0  0  0  0  0  0  0  0  0  0
    2.0014    2.7982   -0.3920 H   0  0  0  0  0  0  0  0  0  0  0  0
    2.4458    1.9629   -1.8984 H   0  0  0  0  0  0  0  0  0  0  0  0
    3.7520    1.4271   -0.1806 C   0  0  1  0  0  0  0  0  0  0  0  0
    4.6213    1.9777   -0.5901 H   0  0  0  0  0  0  0  0  0  0  0  0
    3.5871    1.5309    1.3553 C   0  0  0  0  0  0  0  0  0  0  0  0
    4.5621    1.4385    1.8716 H   0  0  0  0  0  0  0  0  0  0  0  0
    3.1639    2.5122    1.6496 H   0  0  0  0  0  0  0  0  0  0  0  0
    2.6411    0.3426    1.6891 C   0  0  0  0  0  0  0  0  0  0  0  0
    1.6809    0.6270    2.1624 H   0  0  0  0  0  0  0  0  0  0  0  0
    3.1166   -0.3942    2.3666 H   0  0  0  0  0  0  0  0  0  0  0  0
    2.3832   -0.3473    0.3060 C   0  0  2  0  0  0  0  0  0  0  0  0
    3.7620   -0.1145   -0.4313 C   0  0  0  0  0  0  0  0  0  0  0  0
    3.7182   -0.5242   -1.9117 C   0  0  0  0  0  0  0  0  0  0  0  0
    4.6231   -0.1685   -2.4460 H   0  0  0  0  0  0  0  0  0  0  0  0
    2.8303   -0.1433   -2.4532 H   0  0  0  0  0  0  0  0  0  0  0  0
    3.6915   -1.6287   -2.0007 H   0  0  0  0  0  0  0  0  0  0  0  0
    4.9483   -0.8337    0.2216 C   0  0  0  0  0  0  0  0  0  0  0  0
    4.8571   -1.9314    0.0973 H   0  0  0  0  0  0  0  0  0  0  0  0
    5.0538   -0.6288    1.3029 H   0  0  0  0  0  0  0  0  0  0  0  0
    5.8932   -0.5253   -0.2713 H   0  0  0  0  0  0  0  0  0  0  0  0
    1.8488   -1.7657    0.3848 C   0  0  0  0  0  0  0  0  0  0  0  0
    1.0420   -1.8403    1.1423 H   0  0  0  0  0  0  0  0  0  0  0  0
    2.6517   -2.4593    0.7059 H   0  0  0  0  0  0  0  0  0  0  0  0
    1.4429   -2.1169   -0.5844 H   0  0  0  0  0  0  0  0  0  0  0  0
  1 14  1  0  0  0  0
  3  4  1  0  0  0  0
  3  6  1  0  0  0  0
  5  3  1  0  0  0  0
  7  1  1  0  0  0  0
  7  3  1  0  0  0  0
  8  7  1  0  0  0  0
  9  7  1  0  0  0  0
 10 14  1  0  0  0  0
 10 12  1  0  0  0  0
 11 10  1  0  0  0  0
 13 10  1  0  0  0  0
 14 15  1  0  0  0  0
 14 16  1  0  0  0  0
 17 20  1  0  0  0  0
 17  1  1  0  0  0  0
 18 17  1  0  0  0  0
 19 17  1  0  0  0  0
 20 22  1  0  0  0  0
 20  2  1  0  0  0  0
 21 20  1  0  0  0  0
 23  2  1  1  0  0  0
 23 35  1  0  0  0  0
 24 23  1  0  0  0  0
 24 25  1  0  0  0  0
 24 27  1  0  0  0  0
 26 24  1  0  0  0  0
 27 28  1  6  0  0  0
 27 29  1  0  0  0  0
 29 31  1  0  0  0  0
 29 32  1  0  0  0  0
 29 30  1  0  0  0  0
 32 33  1  0  0  0  0
 32 34  1  0  0  0  0
 35 45  1  1  0  0  0
 35 32  1  0  0  0  0
 36 27  1  0  0  0  0
 36 41  1  0  0  0  0
 36 35  1  0  0  0  0
 37 36  1  0  0  0  0
 38 37  1  0  0  0  0
 39 37  1  0  0  0  0
 40 37  1  0  0  0  0
 41 43  1  0  0  0  0
 42 41  1  0  0  0  0
 44 41  1  0  0  0  0
 45 47  1  0  0  0  0
 45 46  1  0  0  0  0
 48 45  1  0  0  0  0
M  END
