1,15
 OpenBabel05122313053D

 31 32  0  0  1  0  0  0  0  0999 V2000
   -1.5203    0.0416    0.2233 N   0  0  0  0  0  2  0  0  0  0  0  0
   -2.6039   -0.3881    0.9317 C   0  0  1  0  0  3  0  0  0  0  0  0
    2.3874    0.4572    1.1699 C   0  0  2  0  0  3  0  0  0  0  0  0
   -3.7395    0.4283    1.0673 C   0  0  0  0  0  0  0  0  0  0  0  0
   -4.6089    0.0491    1.6225 H   0  0  0  0  0  0  0  0  0  0  0  0
   -0.3017    1.7658   -0.8849 N   0  0  0  0  0  0  0  0  0  0  0  0
   -3.7466    1.7070    0.4999 C   0  0  0  0  0  0  0  0  0  0  0  0
   -4.6276    2.3590    0.5955 H   0  0  0  0  0  0  0  0  0  0  0  0
    3.0403    2.6774    0.4588 C   0  0  0  0  0  0  0  0  0  0  0  0
    3.7529    3.5160    0.4561 H   0  0  0  0  0  0  0  0  0  0  0  0
   -2.5993    2.1683   -0.1512 C   0  0  0  0  0  0  0  0  0  0  0  0
   -2.5517    3.1923   -0.5422 H   0  0  0  0  0  0  0  0  0  0  0  0
    1.8369    2.7861   -0.2453 C   0  0  0  0  0  0  0  0  0  0  0  0
    1.5846    3.7130   -0.7740 H   0  0  0  0  0  0  0  0  0  0  0  0
    1.2515    0.5494    0.4330 N   0  0  0  0  0  2  0  0  0  0  0  0
    3.3135    1.5162    1.1894 C   0  0  0  0  0  0  0  0  0  0  0  0
    4.2396    1.4153    1.7721 H   0  0  0  0  0  0  0  0  0  0  0  0
   -1.4841    1.3135   -0.2596 C   0  0  0  0  0  0  0  0  0  0  0  0
    0.9470    1.6909   -0.2203 C   0  0  0  0  0  0  0  0  0  0  0  0
   -0.4429    2.7540   -1.9453 C   0  0  0  0  0  0  0  0  0  0  0  0
   -1.3248    2.4954   -2.5598 H   0  0  0  0  0  0  0  0  0  0  0  0
    0.4513    2.7116   -2.5953 H   0  0  0  0  0  0  0  0  0  0  0  0
   -0.5616    3.8003   -1.5795 H   0  0  0  0  0  0  0  0  0  0  0  0
   -2.5519   -1.7522    1.5533 C   0  0  0  0  0  0  0  0  0  0  0  0
   -1.5069   -2.0182    1.8063 H   0  0  0  0  0  0  0  0  0  0  0  0
   -2.9072   -2.5252    0.8425 H   0  0  0  0  0  0  0  0  0  0  0  0
   -3.1915   -1.7947    2.4558 H   0  0  0  0  0  0  0  0  0  0  0  0
    2.6227   -0.8171    1.9173 C   0  0  0  0  0  0  0  0  0  0  0  0
    1.7255   -1.0880    2.5095 H   0  0  0  0  0  0  0  0  0  0  0  0
    3.5011   -0.7397    2.5842 H   0  0  0  0  0  0  0  0  0  0  0  0
    2.7675   -1.6391    1.1797 H   0  0  0  0  0  0  0  0  0  0  0  0
  1  2  1  0  0  0  0
  2  4  1  0  0  0  0
  2 24  1  6  0  0  0
  3 16  1  0  0  0  0
  3 28  1  6  0  0  0
  4  5  1  0  0  0  0
  6 18  1  0  0  0  0
  6 19  1  0  0  0  0
  7  8  1  0  0  0  0
  7  4  2  0  0  0  0
  9 16  2  0  0  0  0
 10  9  1  0  0  0  0
 11  7  1  0  0  0  0
 12 11  1  0  0  0  0
 13 19  2  0  0  0  0
 13  9  1  0  0  0  0
 14 13  1  0  0  0  0
 15  3  1  0  0  0  0
 16 17  1  0  0  0  0
 18 11  2  0  0  0  0
 18  1  1  0  0  0  0
 19 15  1  0  0  0  0
 20 23  1  0  0  0  0
 20  6  1  0  0  0  0
 21 20  1  0  0  0  0
 22 20  1  0  0  0  0
 24 25  1  0  0  0  0
 24 27  1  0  0  0  0
 26 24  1  0  0  0  0
 28 29  1  0  0  0  0
 28 30  1  0  0  0  0
 31 28  1  0  0  0  0
M  END
