7,10
 OpenBabel05122313053D

 38 39  0  0  0  0  0  0  0  0999 V2000
    2.0235   -1.9592    2.2087 S   0  0  0  0  0  0  0  0  0  0  0  0
   -2.0230   -1.9586   -2.2094 S   0  0  0  0  0  0  0  0  0  0  0  0
    1.7191   -0.8610    3.1445 O   0  0  0  0  0  0  0  0  0  0  0  0
    2.1366   -3.3578    2.6535 O   0  0  0  0  0  0  0  0  0  0  0  0
   -2.1361   -3.3570   -2.6546 O   0  0  0  0  0  0  0  0  0  0  0  0
   -1.7185   -0.8602   -3.1449 O   0  0  0  0  0  0  0  0  0  0  0  0
    0.7600   -1.8723    0.8858 N   0  0  0  0  0  2  0  0  0  0  0  0
    0.4287   -3.0895    0.4978 N   0  0  0  0  0  0  0  0  0  0  0  0
   -0.4283   -3.0894   -0.4988 N   0  0  0  0  0  0  0  0  0  0  0  0
   -0.7596   -1.8721   -0.8865 N   0  0  0  0  0  2  0  0  0  0  0  0
    3.4484   -1.5386    1.2056 C   0  0  0  0  0  0  0  0  0  0  0  0
    4.2117   -0.4152    1.5362 C   0  0  0  0  0  0  0  0  0  0  0  0
    5.3326   -0.1109    0.7507 C   0  0  0  0  0  0  0  0  0  0  0  0
    5.6799   -0.8979   -0.3654 C   0  0  0  0  0  0  0  0  0  0  0  0
    4.8880   -2.0291   -0.6647 C   0  0  0  0  0  0  0  0  0  0  0  0
    3.7803   -2.3648    0.1192 C   0  0  0  0  0  0  0  0  0  0  0  0
    6.8581   -0.5399   -1.2344 C   0  0  0  0  0  0  0  0  0  0  0  0
   -3.4480   -1.5383   -1.2063 C   0  0  0  0  0  0  0  0  0  0  0  0
   -3.7796   -2.3644   -0.1197 C   0  0  0  0  0  0  0  0  0  0  0  0
   -4.8870   -2.0286    0.6645 C   0  0  0  0  0  0  0  0  0  0  0  0
   -5.6791   -0.8975    0.3652 C   0  0  0  0  0  0  0  0  0  0  0  0
   -5.3320   -0.1106   -0.7510 C   0  0  0  0  0  0  0  0  0  0  0  0
   -4.2113   -0.4149   -1.5368 C   0  0  0  0  0  0  0  0  0  0  0  0
   -6.8584   -0.5409    1.2334 C   0  0  0  0  0  0  0  0  0  0  0  0
    3.9112    0.2064    2.3915 H   0  0  0  0  0  0  0  0  0  0  0  0
    5.9507    0.7626    1.0068 H   0  0  0  0  0  0  0  0  0  0  0  0
    5.1458   -2.6585   -1.5308 H   0  0  0  0  0  0  0  0  0  0  0  0
    3.1668   -3.2481   -0.1116 H   0  0  0  0  0  0  0  0  0  0  0  0
   -3.1659   -3.2475    0.1113 H   0  0  0  0  0  0  0  0  0  0  0  0
   -5.1444   -2.6577    1.5309 H   0  0  0  0  0  0  0  0  0  0  0  0
   -5.9500    0.7631   -1.0068 H   0  0  0  0  0  0  0  0  0  0  0  0
   -3.9109    0.2068   -2.3920 H   0  0  0  0  0  0  0  0  0  0  0  0
    7.4394    0.3018   -0.8112 H   0  0  0  0  0  0  0  0  0  0  0  0
    7.5443   -1.4020   -1.3616 H   0  0  0  0  0  0  0  0  0  0  0  0
    6.5262   -0.2450   -2.2527 H   0  0  0  0  0  0  0  0  0  0  0  0
   -7.4256    0.3166    0.8229 H   0  0  0  0  0  0  0  0  0  0  0  0
   -7.5571   -1.3961    1.3378 H   0  0  0  0  0  0  0  0  0  0  0  0
   -6.5302   -0.2716    2.2598 H   0  0  0  0  0  0  0  0  0  0  0  0
  1  4  2  0  0  0  0
  1  3  2  0  0  0  0
  2 18  1  0  0  0  0
  2 10  1  0  0  0  0
  5  2  2  0  0  0  0
  6  2  2  0  0  0  0
  7  1  1  0  0  0  0
  8  7  1  0  0  0  0
  9  8  2  0  0  0  0
 10  9  1  0  0  0  0
 11 12  1  0  0  0  0
 11  1  1  0  0  0  0
 12 25  1  0  0  0  0
 13 26  1  0  0  0  0
 13 12  2  0  0  0  0
 14 13  1  0  0  0  0
 15 14  2  0  0  0  0
 15 16  1  0  0  0  0
 16 11  2  0  0  0  0
 17 33  1  0  0  0  0
 17 14  1  0  0  0  0
 18 19  1  0  0  0  0
 19 29  1  0  0  0  0
 19 20  2  0  0  0  0
 20 30  1  0  0  0  0
 21 20  1  0  0  0  0
 21 24  1  0  0  0  0
 22 21  2  0  0  0  0
 23 18  2  0  0  0  0
 23 22  1  0  0  0  0
 24 37  1  0  0  0  0
 24 38  1  0  0  0  0
 27 15  1  0  0  0  0
 28 16  1  0  0  0  0
 31 22  1  0  0  0  0
 32 23  1  0  0  0  0
 34 17  1  0  0  0  0
 35 17  1  0  0  0  0
 36 24  1  0  0  0  0
M  END
