3,4
 OpenBabel05122313053D

 32 35  0  0  1  0  0  0  0  0999 V2000
    3.8052    4.4267   -0.2660 S   0  0  0  0  0  0  0  0  0  0  0  0
   -0.9802    2.8233    1.1998 O   0  0  0  0  0  0  0  0  0  0  0  0
    1.4360    0.5642   -0.0980 N   0  0  0  0  0  2  0  0  0  0  0  0
   -1.1479   -0.1919   -0.6731 N   0  0  0  0  0  2  0  0  0  0  0  0
    1.7610    2.9356    0.2978 C   0  0  0  0  0  0  0  0  0  0  0  0
   -0.5579    1.8793    0.5124 C   0  0  0  0  0  0  0  0  0  0  0  0
    2.9904    2.9078   -0.3642 C   0  0  0  0  0  0  0  0  0  0  0  0
   -3.3802    2.8617   -0.3732 C   0  0  0  0  0  0  0  0  0  0  0  0
   -2.7893    3.6992    0.0132 H   0  0  0  0  0  0  0  0  0  0  0  0
    3.4387    1.6932   -1.1109 C   0  0  0  0  0  0  0  0  0  0  0  0
    4.5425    1.6155   -1.1731 H   0  0  0  0  0  0  0  0  0  0  0  0
    3.0572    1.7175   -2.1583 H   0  0  0  0  0  0  0  0  0  0  0  0
   -2.8504    1.5343   -0.5536 C   0  0  0  0  0  0  0  0  0  0  0  0
   -1.5068    1.0257   -0.2593 C   0  0  2  0  0  3  0  0  0  0  0  0
    0.9134    1.7378    0.2426 C   0  0  1  0  0  3  0  0  0  0  0  0
    2.8797    0.4747   -0.3749 C   0  0  0  0  0  0  0  0  0  0  0  0
    3.0574   -0.4528   -0.9493 H   0  0  0  0  0  0  0  0  0  0  0  0
    3.3879    0.3542    0.6082 H   0  0  0  0  0  0  0  0  0  0  0  0
    1.4984    4.2164    0.9024 C   0  0  0  0  0  0  0  0  0  0  0  0
    0.5903    4.4242    1.4778 H   0  0  0  0  0  0  0  0  0  0  0  0
    2.5169    5.1162    0.6813 C   0  0  0  0  0  0  0  0  0  0  0  0
    2.5994    6.1503    1.0368 H   0  0  0  0  0  0  0  0  0  0  0  0
   -4.7100    2.9465   -0.7176 C   0  0  0  0  0  0  0  0  0  0  0  0
   -5.3648    3.8255   -0.6900 H   0  0  0  0  0  0  0  0  0  0  0  0
   -3.8136    0.6450   -1.0356 C   0  0  0  0  0  0  0  0  0  0  0  0
   -3.5018   -0.8017   -1.2573 C   0  0  0  0  0  0  0  0  0  0  0  0
   -4.1163   -1.2481   -2.0645 H   0  0  0  0  0  0  0  0  0  0  0  0
   -3.7010   -1.3883   -0.3305 H   0  0  0  0  0  0  0  0  0  0  0  0
   -2.0208   -0.8967   -1.6297 C   0  0  0  0  0  0  0  0  0  0  0  0
   -1.6804   -1.9451   -1.6840 H   0  0  0  0  0  0  0  0  0  0  0  0
   -1.8535   -0.4291   -2.6260 H   0  0  0  0  0  0  0  0  0  0  0  0
   -5.3432    1.4167   -1.2587 S   0  0  0  0  0  0  0  0  0  0  0  0
  1 21  1  0  0  0  0
  3 15  1  0  0  0  0
  4 14  1  0  0  0  0
  5 19  1  0  0  0  0
  6  2  2  0  0  0  0
  7  1  1  0  0  0  0
  7  5  2  0  0  0  0
  8  9  1  0  0  0  0
 10 16  1  0  0  0  0
 10  7  1  0  0  0  0
 11 10  1  0  0  0  0
 12 10  1  0  0  0  0
 13  8  1  0  0  0  0
 13 14  1  0  0  0  0
 14  6  1  1  0  0  0
 15  5  1  0  0  0  0
 15  6  1  6  0  0  0
 16  3  1  0  0  0  0
 16 18  1  0  0  0  0
 17 16  1  0  0  0  0
 19 20  1  0  0  0  0
 21 19  2  0  0  0  0
 21 22  1  0  0  0  0
 23 24  1  0  0  0  0
 23  8  2  0  0  0  0
 25 13  2  0  0  0  0
 26 25  1  0  0  0  0
 26 28  1  0  0  0  0
 27 26  1  0  0  0  0
 29 26  1  0  0  0  0
 29  4  1  0  0  0  0
 30 29  1  0  0  0  0
 31 29  1  0  0  0  0
 32 25  1  0  0  0  0
 32 23  1  0  0  0  0
M  END
