8,11
 OpenBabel05122313053D

 34 37  0  0  1  0  0  0  0  0999 V2000
    6.9445    2.7554   -0.9916 Cl  0  0  0  0  0  0  0  0  0  0  0  0
   -4.3826    6.2267   -0.1017 Cl  0  0  0  0  0  0  0  0  0  0  0  0
    0.7025    2.0422    1.7084 O   0  0  0  0  0  0  0  0  0  0  0  0
    2.7619    1.0703   -0.1556 C   0  0  0  0  0  0  0  0  0  0  0  0
    3.2019    2.3013    0.4198 C   0  0  0  0  0  0  0  0  0  0  0  0
    2.5265    2.8339    1.0984 H   0  0  0  0  0  0  0  0  0  0  0  0
   -1.7945    2.4551    0.2106 C   0  0  0  0  0  0  0  0  0  0  0  0
    1.1315   -0.7137   -0.4804 N   0  0  0  0  0  2  0  0  0  0  0  0
   -3.5166    1.1814   -1.0013 C   0  0  0  0  0  0  0  0  0  0  0  0
   -4.4885    1.1180   -1.5118 H   0  0  0  0  0  0  0  0  0  0  0  0
   -1.5047    0.0820   -0.2604 N   0  0  0  0  0  2  0  0  0  0  0  0
   -1.0123    1.2401    0.2496 C   0  0  0  0  0  0  0  0  0  0  0  0
    3.6875    0.3650   -1.0077 C   0  0  2  0  0  3  0  0  0  0  0  0
    4.4677    2.8068    0.1593 C   0  0  0  0  0  0  0  0  0  0  0  0
    4.7936    3.7544    0.6108 H   0  0  0  0  0  0  0  0  0  0  0  0
    1.4501    0.4999    0.0484 C   0  0  0  0  0  0  0  0  0  0  0  0
   -3.4137    4.7826    0.0074 C   0  0  0  0  0  0  0  0  0  0  0  0
   -2.7308    0.0621   -0.8851 C   0  0  0  0  0  0  0  0  0  0  0  0
   -3.0464   -0.9147   -1.2775 H   0  0  0  0  0  0  0  0  0  0  0  0
    4.9788    0.8944   -1.2627 C   0  0  0  0  0  0  0  0  0  0  0  0
    5.6731    0.3469   -1.9157 H   0  0  0  0  0  0  0  0  0  0  0  0
   -2.1612    4.8379    0.6693 C   0  0  0  0  0  0  0  0  0  0  0  0
   -1.8263    5.7889    1.1067 H   0  0  0  0  0  0  0  0  0  0  0  0
   -1.3745    3.6999    0.7710 C   0  0  0  0  0  0  0  0  0  0  0  0
   -0.4230    3.7364    1.3128 H   0  0  0  0  0  0  0  0  0  0  0  0
   -3.8707    3.5928   -0.5434 C   0  0  0  0  0  0  0  0  0  0  0  0
   -4.8446    3.5522   -1.0512 H   0  0  0  0  0  0  0  0  0  0  0  0
   -3.0762    2.4205   -0.4495 C   0  0  2  0  0  3  0  0  0  0  0  0
    2.0194   -1.3702   -1.3049 C   0  0  0  0  0  0  0  0  0  0  0  0
    1.6491   -2.3209   -1.7109 H   0  0  0  0  0  0  0  0  0  0  0  0
    3.2653   -0.8700   -1.5860 C   0  0  0  0  0  0  0  0  0  0  0  0
    3.9418   -1.4270   -2.2505 H   0  0  0  0  0  0  0  0  0  0  0  0
    0.3916    1.2527    0.8046 C   0  0  0  0  0  0  0  0  0  0  0  0
    5.3586    2.0997   -0.6859 C   0  0  0  0  0  0  0  0  0  0  0  0
  1 34  1  0  0  0  0
  2 17  1  0  0  0  0
  4 16  2  0  0  0  0
  4  5  1  0  0  0  0
  5  6  1  0  0  0  0
  7 12  2  0  0  0  0
  7 24  1  0  0  0  0
  8 16  1  0  0  0  0
  9 18  2  0  0  0  0
 10  9  1  0  0  0  0
 11 12  1  0  0  0  0
 12 33  1  0  0  0  0
 13 31  1  6  0  0  0
 13  4  1  0  0  0  0
 14  5  2  0  0  0  0
 14 15  1  0  0  0  0
 16 33  1  0  0  0  0
 17 22  1  0  0  0  0
 18 11  1  0  0  0  0
 19 18  1  0  0  0  0
 20 13  1  0  0  0  0
 20 34  2  0  0  0  0
 21 20  1  0  0  0  0
 22 24  2  0  0  0  0
 22 23  1  0  0  0  0
 24 25  1  0  0  0  0
 26 28  1  0  0  0  0
 26 17  2  0  0  0  0
 27 26  1  0  0  0  0
 28  9  1  6  0  0  0
 28  7  1  0  0  0  0
 29  8  1  0  0  0  0
 30 29  1  0  0  0  0
 31 29  2  0  0  0  0
 32 31  1  0  0  0  0
 33  3  2  0  0  0  0
 34 14  1  0  0  0  0
M  END
