1,9
 OpenBabel05122313053D

 16 16  0  0  0  0  0  0  0  0999 V2000
    1.2050    2.5453   -0.0074 N   0  0  0  0  0  0  0  0  0  0  0  0
    2.2242    2.3938   -0.0130 H   0  0  0  0  0  0  0  0  0  0  0  0
    0.7840    3.2866    1.2147 C   0  0  0  0  0  0  0  0  0  0  0  0
    1.1964    4.3183    1.1962 H   0  0  0  0  0  0  0  0  0  0  0  0
    1.1933    2.7600    2.0962 H   0  0  0  0  0  0  0  0  0  0  0  0
    0.7690    3.2871   -1.2240 C   0  0  0  0  0  0  0  0  0  0  0  0
    1.1675    2.7615   -2.1109 H   0  0  0  0  0  0  0  0  0  0  0  0
    1.1808    4.3191   -1.2097 H   0  0  0  0  0  0  0  0  0  0  0  0
   -1.2051    2.5452    0.0074 N   0  0  0  0  0  0  0  0  0  0  0  0
   -2.2243    2.3936    0.0129 H   0  0  0  0  0  0  0  0  0  0  0  0
   -0.7842    3.2865   -1.2147 C   0  0  0  0  0  0  0  0  0  0  0  0
   -1.1967    4.3182   -1.1962 H   0  0  0  0  0  0  0  0  0  0  0  0
   -1.1934    2.7599   -2.0962 H   0  0  0  0  0  0  0  0  0  0  0  0
   -0.7691    3.2870    1.2239 C   0  0  0  0  0  0  0  0  0  0  0  0
   -1.1677    2.7614    2.1108 H   0  0  0  0  0  0  0  0  0  0  0  0
   -1.1811    4.3190    1.2096 H   0  0  0  0  0  0  0  0  0  0  0  0
  1  3  1  0  0  0  0
  2  1  1  0  0  0  0
  3 14  1  0  0  0  0
  3  5  1  0  0  0  0
  4  3  1  0  0  0  0
  6 11  1  0  0  0  0
  6  8  1  0  0  0  0
  6  1  1  0  0  0  0
  7  6  1  0  0  0  0
  9 10  1  0  0  0  0
  9 14  1  0  0  0  0
 11 12  1  0  0  0  0
 11  9  1  0  0  0  0
 13 11  1  0  0  0  0
 14 15  1  0  0  0  0
 16 14  1  0  0  0  0
M  END
