1,28
 OpenBabel05122313053D

 54 57  0  0  0  0  0  0  0  0999 V2000
   -0.1170   -1.4454    1.5140 N   0  0  0  0  0  0  0  0  0  0  0  0
   -2.3417   -0.5040    0.0666 N   0  0  0  0  0  0  0  0  0  0  0  0
   -0.3951   -0.6523    2.7168 C   0  0  0  0  0  0  0  0  0  0  0  0
   -1.2186   -2.3504    1.1906 C   0  0  0  0  0  0  0  0  0  0  0  0
   -2.4742   -1.6301    0.7655 C   0  0  0  0  0  0  0  0  0  0  0  0
   -3.7407   -2.2129    1.0572 C   0  0  0  0  0  0  0  0  0  0  0  0
   -4.8908   -1.6022    0.5947 C   0  0  0  0  0  0  0  0  0  0  0  0
   -5.9250    0.2698   -0.6956 C   0  0  0  0  0  0  0  0  0  0  0  0
   -5.7658    1.4198   -1.4536 C   0  0  0  0  0  0  0  0  0  0  0  0
   -4.4632    1.9199   -1.7201 C   0  0  0  0  0  0  0  0  0  0  0  0
   -3.3333    1.2864   -1.2218 C   0  0  0  0  0  0  0  0  0  0  0  0
   -3.4668    0.1122   -0.4287 C   0  0  0  0  0  0  0  0  0  0  0  0
   -4.7885   -0.4114   -0.1741 C   0  0  0  0  0  0  0  0  0  0  0  0
    1.1449   -2.1853    1.5976 C   0  0  0  0  0  0  0  0  0  0  0  0
   -1.4801   -0.4267    2.7363 H   0  0  0  0  0  0  0  0  0  0  0  0
   -0.1738   -1.2295    3.6471 H   0  0  0  0  0  0  0  0  0  0  0  0
   -1.4414   -3.0506    2.0320 H   0  0  0  0  0  0  0  0  0  0  0  0
   -0.8899   -2.9421    0.3046 H   0  0  0  0  0  0  0  0  0  0  0  0
   -3.7831   -3.1385    1.6500 H   0  0  0  0  0  0  0  0  0  0  0  0
   -5.8850   -2.0242    0.8114 H   0  0  0  0  0  0  0  0  0  0  0  0
   -6.9270   -0.1389   -0.4911 H   0  0  0  0  0  0  0  0  0  0  0  0
   -6.6467    1.9406   -1.8586 H   0  0  0  0  0  0  0  0  0  0  0  0
   -4.3436    2.8210   -2.3411 H   0  0  0  0  0  0  0  0  0  0  0  0
   -2.3164    1.6510   -1.4510 H   0  0  0  0  0  0  0  0  0  0  0  0
    1.1098   -2.9736    2.3882 H   0  0  0  0  0  0  0  0  0  0  0  0
    1.3402   -2.6515    0.6130 H   0  0  0  0  0  0  0  0  0  0  0  0
    1.9794   -1.4958    1.8206 H   0  0  0  0  0  0  0  0  0  0  0  0
    0.1176    1.4449    1.5144 N   0  0  0  0  0  0  0  0  0  0  0  0
    2.3415    0.5042    0.0665 N   0  0  0  0  0  0  0  0  0  0  0  0
    0.3959    0.6514    2.7170 C   0  0  0  0  0  0  0  0  0  0  0  0
    1.2189    2.3502    1.1911 C   0  0  0  0  0  0  0  0  0  0  0  0
    2.4744    1.6300    0.7658 C   0  0  0  0  0  0  0  0  0  0  0  0
    3.7411    2.2122    1.0577 C   0  0  0  0  0  0  0  0  0  0  0  0
    4.8910    1.6013    0.5949 C   0  0  0  0  0  0  0  0  0  0  0  0
    5.9245   -0.2707   -0.6959 C   0  0  0  0  0  0  0  0  0  0  0  0
    5.7649   -1.4204   -1.4543 C   0  0  0  0  0  0  0  0  0  0  0  0
    4.4621   -1.9199   -1.7210 C   0  0  0  0  0  0  0  0  0  0  0  0
    3.3325   -1.2862   -1.2226 C   0  0  0  0  0  0  0  0  0  0  0  0
    3.4664   -0.1122   -0.4291 C   0  0  0  0  0  0  0  0  0  0  0  0
    4.7883    0.4108   -0.1742 C   0  0  0  0  0  0  0  0  0  0  0  0
   -1.1446    2.1846    1.5984 C   0  0  0  0  0  0  0  0  0  0  0  0
    1.4809    0.4259    2.7362 H   0  0  0  0  0  0  0  0  0  0  0  0
    0.1746    1.2284    3.6474 H   0  0  0  0  0  0  0  0  0  0  0  0
    1.4416    3.0505    2.0325 H   0  0  0  0  0  0  0  0  0  0  0  0
    0.8900    2.9416    0.3049 H   0  0  0  0  0  0  0  0  0  0  0  0
    3.7838    3.1376    1.6508 H   0  0  0  0  0  0  0  0  0  0  0  0
    5.8853    2.0229    0.8118 H   0  0  0  0  0  0  0  0  0  0  0  0
    6.9266    0.1377   -0.4913 H   0  0  0  0  0  0  0  0  0  0  0  0
    6.6457   -1.9412   -1.8595 H   0  0  0  0  0  0  0  0  0  0  0  0
    4.3422   -2.8208   -2.3423 H   0  0  0  0  0  0  0  0  0  0  0  0
    2.3154   -1.6502   -1.4518 H   0  0  0  0  0  0  0  0  0  0  0  0
   -1.1096    2.9723    2.3895 H   0  0  0  0  0  0  0  0  0  0  0  0
   -1.3399    2.6513    0.6141 H   0  0  0  0  0  0  0  0  0  0  0  0
   -1.9790    1.4947    1.8208 H   0  0  0  0  0  0  0  0  0  0  0  0
  1 14  1  0  0  0  0
  1  3  1  0  0  0  0
  2  5  1  0  0  0  0
  3 30  1  0  0  0  0
  3 15  1  0  0  0  0
  3 16  1  0  0  0  0
  4  1  1  0  0  0  0
  4 17  1  0  0  0  0
  5  6  2  0  0  0  0
  5  4  1  0  0  0  0
  6 19  1  0  0  0  0
  7 20  1  0  0  0  0
  7  6  1  0  0  0  0
  8 21  1  0  0  0  0
  8 13  1  0  0  0  0
  9  8  2  0  0  0  0
 10  9  1  0  0  0  0
 10 11  2  0  0  0  0
 11 12  1  0  0  0  0
 12 13  1  0  0  0  0
 12  2  2  0  0  0  0
 13  7  2  0  0  0  0
 14 27  1  0  0  0  0
 14 25  1  0  0  0  0
 18  4  1  0  0  0  0
 22  9  1  0  0  0  0
 23 10  1  0  0  0  0
 24 11  1  0  0  0  0
 26 14  1  0  0  0  0
 28 41  1  0  0  0  0
 28 30  1  0  0  0  0
 29 32  1  0  0  0  0
 30 42  1  0  0  0  0
 30 43  1  0  0  0  0
 31 28  1  0  0  0  0
 31 44  1  0  0  0  0
 32 33  2  0  0  0  0
 32 31  1  0  0  0  0
 33 46  1  0  0  0  0
 34 47  1  0  0  0  0
 34 33  1  0  0  0  0
 35 48  1  0  0  0  0
 35 40  1  0  0  0  0
 36 35  2  0  0  0  0
 37 36  1  0  0  0  0
 37 38  2  0  0  0  0
 38 39  1  0  0  0  0
 39 40  1  0  0  0  0
 39 29  2  0  0  0  0
 40 34  2  0  0  0  0
 41 54  1  0  0  0  0
 41 52  1  0  0  0  0
 45 31  1  0  0  0  0
 49 36  1  0  0  0  0
 50 37  1  0  0  0  0
 51 38  1  0  0  0  0
 53 41  1  0  0  0  0
M  END
