2,24
 OpenBabel05122313053D

 44 44  0  0  1  0  0  0  0  0999 V2000
    1.9687   -2.4058   -0.1148 Si  0  0  0  0  0  0  0  0  0  0  0  0
    0.8095   -1.0978    0.2136 N   0  0  0  0  0  2  0  0  0  0  0  0
    0.6569   -0.4176    1.5126 C   0  0  2  0  0  0  0  0  0  0  0  0
    0.6725   -1.3240    2.7526 C   0  0  0  0  0  0  0  0  0  0  0  0
    0.6042   -0.4730    4.0288 C   0  0  0  0  0  0  0  0  0  0  0  0
    2.1473   -2.5246   -1.9955 C   0  0  0  0  0  0  0  0  0  0  0  0
    3.6445   -2.0118    0.6611 C   0  0  0  0  0  0  0  0  0  0  0  0
    1.3060   -4.0645    0.5133 C   0  0  0  0  0  0  0  0  0  0  0  0
    1.4991    0.3105    1.6250 H   0  0  0  0  0  0  0  0  0  0  0  0
   -0.1889   -2.0259    2.7015 H   0  0  0  0  0  0  0  0  0  0  0  0
    1.5917   -1.9439    2.7626 H   0  0  0  0  0  0  0  0  0  0  0  0
    1.5373    0.1284    4.1049 H   0  0  0  0  0  0  0  0  0  0  0  0
    0.5812   -1.1271    4.9251 H   0  0  0  0  0  0  0  0  0  0  0  0
    2.9421   -3.2623   -2.2314 H   0  0  0  0  0  0  0  0  0  0  0  0
    2.4508   -1.5601   -2.4484 H   0  0  0  0  0  0  0  0  0  0  0  0
    1.2184   -2.8744   -2.4889 H   0  0  0  0  0  0  0  0  0  0  0  0
    3.9982   -1.0151    0.3291 H   0  0  0  0  0  0  0  0  0  0  0  0
    3.6038   -2.0129    1.7687 H   0  0  0  0  0  0  0  0  0  0  0  0
    4.3973   -2.7669    0.3526 H   0  0  0  0  0  0  0  0  0  0  0  0
    1.1892   -4.0779    1.6149 H   0  0  0  0  0  0  0  0  0  0  0  0
    0.3156   -4.2825    0.0633 H   0  0  0  0  0  0  0  0  0  0  0  0
    1.9955   -4.8886    0.2341 H   0  0  0  0  0  0  0  0  0  0  0  0
   -0.6569    0.4176    1.5126 C   0  0  2  0  0  0  0  0  0  0  0  0
   -0.8095    1.0978    0.2136 N   0  0  0  0  0  2  0  0  0  0  0  0
   -1.9687    2.4058   -0.1148 Si  0  0  0  0  0  0  0  0  0  0  0  0
   -2.1473    2.5246   -1.9955 C   0  0  0  0  0  0  0  0  0  0  0  0
   -2.9420    3.2624   -2.2314 H   0  0  0  0  0  0  0  0  0  0  0  0
   -2.4508    1.5602   -2.4485 H   0  0  0  0  0  0  0  0  0  0  0  0
   -1.2184    2.8744   -2.4889 H   0  0  0  0  0  0  0  0  0  0  0  0
   -3.6445    2.0118    0.6610 C   0  0  0  0  0  0  0  0  0  0  0  0
   -3.9982    1.0151    0.3291 H   0  0  0  0  0  0  0  0  0  0  0  0
   -3.6038    2.0129    1.7687 H   0  0  0  0  0  0  0  0  0  0  0  0
   -4.3973    2.7669    0.3526 H   0  0  0  0  0  0  0  0  0  0  0  0
   -1.3060    4.0645    0.5133 C   0  0  0  0  0  0  0  0  0  0  0  0
   -1.1893    4.0779    1.6150 H   0  0  0  0  0  0  0  0  0  0  0  0
   -0.3156    4.2825    0.0633 H   0  0  0  0  0  0  0  0  0  0  0  0
   -1.9955    4.8886    0.2341 H   0  0  0  0  0  0  0  0  0  0  0  0
   -0.6726    1.3240    2.7526 C   0  0  0  0  0  0  0  0  0  0  0  0
   -0.6043    0.4730    4.0288 C   0  0  0  0  0  0  0  0  0  0  0  0
   -1.5374   -0.1284    4.1049 H   0  0  0  0  0  0  0  0  0  0  0  0
   -0.5813    1.1271    4.9251 H   0  0  0  0  0  0  0  0  0  0  0  0
    0.1889    2.0259    2.7015 H   0  0  0  0  0  0  0  0  0  0  0  0
   -1.5918    1.9439    2.7626 H   0  0  0  0  0  0  0  0  0  0  0  0
   -1.4991   -0.3105    1.6250 H   0  0  0  0  0  0  0  0  0  0  0  0
  1  2  1  0  0  0  0
  1  8  1  0  0  0  0
  1  7  1  0  0  0  0
  2  3  1  0  0  0  0
  3  9  1  1  0  0  0
  3  4  1  0  0  0  0
  4 11  1  0  0  0  0
  4  5  1  0  0  0  0
  5 12  1  0  0  0  0
  5 13  1  0  0  0  0
  6  1  1  0  0  0  0
  7 18  1  0  0  0  0
  8 20  1  0  0  0  0
 10  4  1  0  0  0  0
 14  6  1  0  0  0  0
 15  6  1  0  0  0  0
 16  6  1  0  0  0  0
 17  7  1  0  0  0  0
 19  7  1  0  0  0  0
 21  8  1  0  0  0  0
 22  8  1  0  0  0  0
 23  3  1  0  0  0  0
 23 44  1  1  0  0  0
 23 38  1  0  0  0  0
 24 23  1  0  0  0  0
 25 24  1  0  0  0  0
 25 34  1  0  0  0  0
 25 30  1  0  0  0  0
 26 25  1  0  0  0  0
 27 26  1  0  0  0  0
 28 26  1  0  0  0  0
 29 26  1  0  0  0  0
 30 32  1  0  0  0  0
 31 30  1  0  0  0  0
 33 30  1  0  0  0  0
 34 35  1  0  0  0  0
 36 34  1  0  0  0  0
 37 34  1  0  0  0  0
 38 43  1  0  0  0  0
 38 39  1  0  0  0  0
 39  5  1  0  0  0  0
 39 40  1  0  0  0  0
 39 41  1  0  0  0  0
 42 38  1  0  0  0  0
M  END
