1,9
 OpenBabel05122313053D

 34 35  0  0  0  0  0  0  0  0999 V2000
   -1.1503    1.4915    0.1453 N   0  0  0  0  0  2  0  0  0  0  0  0
   -1.9544    1.6145    1.2246 C   0  0  0  0  0  3  0  0  0  0  0  0
   -2.8237    2.6956    1.3793 C   0  0  0  0  0  0  0  0  0  0  0  0
   -2.8659    3.6763    0.3782 C   0  0  0  0  0  0  0  0  0  0  0  0
   -2.0275    3.5403   -0.7354 C   0  0  0  0  0  0  0  0  0  0  0  0
   -1.1665    2.4344   -0.8339 C   0  0  0  0  0  0  0  0  0  0  0  0
   -0.2170    2.2192   -1.9715 C   0  0  0  0  0  0  0  0  0  0  0  0
    1.2458    2.2081   -1.4800 C   0  0  0  0  0  0  0  0  0  0  0  0
    1.4328    1.1765   -0.4701 N   0  0  0  0  0  2  0  0  0  0  0  0
    2.3070    1.5813    0.8780 S   0  0  0  0  0  0  0  0  0  0  0  0
    2.4030    3.0552    1.0559 O   0  0  0  0  0  0  0  0  0  0  0  0
    1.8046    0.7214    1.9886 O   0  0  0  0  0  0  0  0  0  0  0  0
    3.9741    1.0032    0.5070 C   0  0  0  0  0  0  0  0  0  0  0  0
    4.8735    1.8592   -0.1474 C   0  0  0  0  0  0  0  0  0  0  0  0
    6.1407    1.3793   -0.5028 C   0  0  0  0  0  0  0  0  0  0  0  0
    6.5335    0.0566   -0.2059 C   0  0  0  0  0  0  0  0  0  0  0  0
    5.6138   -0.7751    0.4674 C   0  0  0  0  0  0  0  0  0  0  0  0
    4.3423   -0.3118    0.8278 C   0  0  0  0  0  0  0  0  0  0  0  0
    3.6314   -0.9553    1.3653 H   0  0  0  0  0  0  0  0  0  0  0  0
    5.9020   -1.8089    0.7169 H   0  0  0  0  0  0  0  0  0  0  0  0
    7.9125   -0.4385   -0.5619 C   0  0  0  0  0  0  0  0  0  0  0  0
    8.2778    0.0121   -1.5061 H   0  0  0  0  0  0  0  0  0  0  0  0
    7.9364   -1.5406   -0.6713 H   0  0  0  0  0  0  0  0  0  0  0  0
    8.6468   -0.1725    0.2291 H   0  0  0  0  0  0  0  0  0  0  0  0
    6.8476    2.0493   -1.0180 H   0  0  0  0  0  0  0  0  0  0  0  0
    4.5743    2.8963   -0.3579 H   0  0  0  0  0  0  0  0  0  0  0  0
    1.9017    2.0250   -2.3646 H   0  0  0  0  0  0  0  0  0  0  0  0
    1.5049    3.2097   -1.0729 H   0  0  0  0  0  0  0  0  0  0  0  0
   -0.4639    1.2413   -2.4389 H   0  0  0  0  0  0  0  0  0  0  0  0
   -0.3486    3.0102   -2.7357 H   0  0  0  0  0  0  0  0  0  0  0  0
   -2.0307    4.2857   -1.5435 H   0  0  0  0  0  0  0  0  0  0  0  0
   -3.5450    4.5378    0.4631 H   0  0  0  0  0  0  0  0  0  0  0  0
   -3.4628    2.7546    2.2710 H   0  0  0  0  0  0  0  0  0  0  0  0
   -1.9011    0.7955    1.9532 H   0  0  0  0  0  0  0  0  0  0  0  0
  1  2  1  0  0  0  0
  2  3  1  0  0  0  0
  2 34  1  0  0  0  0
  3 33  1  0  0  0  0
  4 32  1  0  0  0  0
  4  3  2  0  0  0  0
  5  4  1  0  0  0  0
  6  5  2  0  0  0  0
  6  1  1  0  0  0  0
  7  8  1  0  0  0  0
  7  6  1  0  0  0  0
  8 28  1  0  0  0  0
  8  9  1  0  0  0  0
  9 10  1  0  0  0  0
 10 11  2  0  0  0  0
 10 12  2  0  0  0  0
 13 18  1  0  0  0  0
 13 10  1  0  0  0  0
 14 13  2  0  0  0  0
 15 16  2  0  0  0  0
 15 14  1  0  0  0  0
 16 17  1  0  0  0  0
 17 20  1  0  0  0  0
 17 18  2  0  0  0  0
 18 19  1  0  0  0  0
 21 16  1  0  0  0  0
 21 24  1  0  0  0  0
 22 21  1  0  0  0  0
 23 21  1  0  0  0  0
 25 15  1  0  0  0  0
 26 14  1  0  0  0  0
 27  8  1  0  0  0  0
 29  7  1  0  0  0  0
 30  7  1  0  0  0  0
 31  5  1  0  0  0  0
M  END
