3,4
 OpenBabel05122313053D

 38 40  0  0  1  0  0  0  0  0999 V2000
   -7.3441   -0.0125   -0.0404 Cl  0  0  0  0  0  0  0  0  0  0  0  0
   -0.8849   -1.9148   -0.4628 O   0  0  0  0  0  0  0  0  0  0  0  0
    3.1702   -0.6976   -0.2838 N   0  0  0  0  0  2  0  0  0  0  0  0
    0.7363    0.1373   -0.6170 N   0  0  0  0  0  2  0  0  0  0  0  0
   -0.5813    0.3474   -0.5883 N   0  0  0  0  0  0  0  0  0  0  0  0
   -0.9439    1.2767   -0.3312 H   0  0  0  0  0  0  0  0  0  0  0  0
    3.0081    0.6404   -0.4010 C   0  0  2  0  0  3  0  0  0  0  0  0
    4.1133    1.5099   -0.4501 C   0  0  0  0  0  0  0  0  0  0  0  0
    3.9601    2.5961   -0.5174 H   0  0  0  0  0  0  0  0  0  0  0  0
    5.4011    0.9552   -0.4143 C   0  0  0  0  0  0  0  0  0  0  0  0
    6.2842    1.6106   -0.4545 H   0  0  0  0  0  0  0  0  0  0  0  0
    5.5510   -0.4366   -0.3275 C   0  0  0  0  0  0  0  0  0  0  0  0
    6.5455   -0.9042   -0.2998 H   0  0  0  0  0  0  0  0  0  0  0  0
    4.3951   -1.2326   -0.2581 C   0  0  0  0  0  0  0  0  0  0  0  0
    4.4143   -2.3345   -0.1771 H   0  0  0  0  0  0  0  0  0  0  0  0
    1.6011    1.0966   -0.4481 C   0  0  2  0  0  3  0  0  0  0  0  0
   -1.3869   -0.7891   -0.4887 C   0  0  0  0  0  0  0  0  0  0  0  0
   -2.8482   -0.5446   -0.4024 C   0  0  0  0  0  0  0  0  0  0  0  0
   -3.6469   -1.5775    0.1323 C   0  0  0  0  0  0  0  0  0  0  0  0
   -3.1525   -2.5040    0.4584 H   0  0  0  0  0  0  0  0  0  0  0  0
   -5.0295   -1.4186    0.2503 C   0  0  0  0  0  0  0  0  0  0  0  0
   -5.6565   -2.2148    0.6750 H   0  0  0  0  0  0  0  0  0  0  0  0
   -5.6236   -0.2185   -0.1816 C   0  0  0  0  0  0  0  0  0  0  0  0
   -4.8471    0.8163   -0.7328 C   0  0  0  0  0  0  0  0  0  0  0  0
   -5.3346    1.7373   -1.0809 H   0  0  0  0  0  0  0  0  0  0  0  0
   -3.4626    0.6483   -0.8406 C   0  0  0  0  0  0  0  0  0  0  0  0
   -2.8686    1.4505   -1.3049 H   0  0  0  0  0  0  0  0  0  0  0  0
    1.1989    2.4924   -0.1296 C   0  0  0  0  0  0  0  0  0  0  0  0
    1.3663    3.5631   -1.0313 C   0  0  0  0  0  0  0  0  0  0  0  0
    1.8172    3.3810   -2.0189 H   0  0  0  0  0  0  0  0  0  0  0  0
    0.9479    4.8528   -0.6694 C   0  0  0  0  0  0  0  0  0  0  0  0
    1.0789    5.6874   -1.3745 H   0  0  0  0  0  0  0  0  0  0  0  0
    0.3615    5.0780    0.5866 C   0  0  0  0  0  0  0  0  0  0  0  0
    0.0360    6.0913    0.8664 H   0  0  0  0  0  0  0  0  0  0  0  0
    0.1910    4.0122    1.4859 C   0  0  0  0  0  0  0  0  0  0  0  0
   -0.2623    4.1890    2.4730 H   0  0  0  0  0  0  0  0  0  0  0  0
    0.6064    2.7193    1.1353 C   0  0  0  0  0  0  0  0  0  0  0  0
    0.4999    1.8663    1.8289 H   0  0  0  0  0  0  0  0  0  0  0  0
  3 14  1  0  0  0  0
  4  5  1  0  0  0  0
  5 17  1  0  0  0  0
  5  6  1  0  0  0  0
  7 16  1  1  0  0  0
  7  3  1  0  0  0  0
  8 10  2  0  0  0  0
  8  7  1  0  0  0  0
  9  8  1  0  0  0  0
 10 12  1  0  0  0  0
 11 10  1  0  0  0  0
 12 13  1  0  0  0  0
 12 14  2  0  0  0  0
 14 15  1  0  0  0  0
 16  4  1  1  0  0  0
 16 28  1  0  0  0  0
 17  2  2  0  0  0  0
 17 18  1  0  0  0  0
 18 19  1  0  0  0  0
 19 21  2  0  0  0  0
 19 20  1  0  0  0  0
 21 22  1  0  0  0  0
 23  1  1  0  0  0  0
 23 21  1  0  0  0  0
 24 23  2  0  0  0  0
 25 24  1  0  0  0  0
 26 24  1  0  0  0  0
 26 18  2  0  0  0  0
 27 26  1  0  0  0  0
 28 37  1  0  0  0  0
 29 31  1  0  0  0  0
 29 28  2  0  0  0  0
 30 29  1  0  0  0  0
 31 33  2  0  0  0  0
 32 31  1  0  0  0  0
 33 34  1  0  0  0  0
 33 35  1  0  0  0  0
 35 36  1  0  0  0  0
 37 35  2  0  0  0  0
 37 38  1  0  0  0  0
M  END
