2,3
 OpenBabel05122313053D

 22 23  0  0  1  0  0  0  0  0999 V2000
    3.4185   -0.9360   -0.0202 N   0  0  0  0  0  0  0  0  0  0  0  0
    1.0161   -0.9543   -0.0320 N   0  0  0  0  0  2  0  0  0  0  0  0
    0.9108    1.6575   -0.1722 N   0  0  0  0  0  2  0  0  0  0  0  0
    3.4478   -2.2584    0.2213 C   0  0  0  0  0  0  0  0  0  0  0  0
    2.2382   -2.9578    0.4402 C   0  0  0  0  0  0  0  0  0  0  0  0
    2.2321   -4.0223    0.7131 H   0  0  0  0  0  0  0  0  0  0  0  0
    1.0371   -2.2679    0.3126 C   0  0  0  0  0  3  0  0  0  0  0  0
    0.0563   -2.7348    0.5006 H   0  0  0  0  0  0  0  0  0  0  0  0
    2.2366   -0.3275   -0.1165 C   0  0  0  0  0  0  0  0  0  0  0  0
    4.7887   -2.9329    0.2485 C   0  0  0  0  0  0  0  0  0  0  0  0
    5.1308   -3.1399   -0.7885 H   0  0  0  0  0  0  0  0  0  0  0  0
    4.7569   -3.8950    0.7933 H   0  0  0  0  0  0  0  0  0  0  0  0
    5.5424   -2.2666    0.7097 H   0  0  0  0  0  0  0  0  0  0  0  0
    2.1680    1.1328   -0.2448 C   0  0  2  0  0  3  0  0  0  0  0  0
    3.3023    1.9464   -0.3897 C   0  0  0  0  0  0  0  0  0  0  0  0
    4.2853    1.4580   -0.4306 H   0  0  0  0  0  0  0  0  0  0  0  0
    3.1310    3.3310   -0.4815 C   0  0  0  0  0  0  0  0  0  0  0  0
    4.0008    3.9936   -0.6021 H   0  0  0  0  0  0  0  0  0  0  0  0
    1.8292    3.8584   -0.4322 C   0  0  0  0  0  0  0  0  0  0  0  0
    1.6468    4.9388   -0.5208 H   0  0  0  0  0  0  0  0  0  0  0  0
    0.7417    2.9912   -0.2815 C   0  0  0  0  0  0  0  0  0  0  0  0
   -0.3087    3.3263   -0.2632 H   0  0  0  0  0  0  0  0  0  0  0  0
  1  4  1  0  0  0  0
  2  7  1  0  0  0  0
  4 10  1  0  0  0  0
  4  5  2  0  0  0  0
  5  6  1  0  0  0  0
  7  5  1  0  0  0  0
  7  8  1  0  0  0  0
  9  2  1  0  0  0  0
  9  1  2  0  0  0  0
 10 13  1  0  0  0  0
 10 12  1  0  0  0  0
 11 10  1  0  0  0  0
 14  3  1  0  0  0  0
 14  9  1  1  0  0  0
 15 14  1  0  0  0  0
 16 15  1  0  0  0  0
 17 19  1  0  0  0  0
 17 15  2  0  0  0  0
 18 17  1  0  0  0  0
 19 21  2  0  0  0  0
 20 19  1  0  0  0  0
 21 22  1  0  0  0  0
 21  3  1  0  0  0  0
M  END
