1,3
 OpenBabel05122313053D

 47 51  0  0  1  0  0  0  0  0999 V2000
    1.7318    1.7682   -0.0004 N   0  0  0  0  0  2  0  0  0  0  0  0
   -0.6255    1.5556    0.0482 N   0  0  0  0  0  0  0  0  0  0  0  0
    0.4090   -0.0665    1.4257 N   0  0  0  0  0  2  0  0  0  0  0  0
    2.8486    2.5129   -0.1800 C   0  0  0  0  0  3  0  0  0  0  0  0
    3.7920    2.0073    0.0612 H   0  0  0  0  0  0  0  0  0  0  0  0
    2.8054    3.8052   -0.6995 C   0  0  0  0  0  0  0  0  0  0  0  0
    3.7394    4.3640   -0.8468 H   0  0  0  0  0  0  0  0  0  0  0  0
    1.5565    4.3492   -1.0398 C   0  0  0  0  0  0  0  0  0  0  0  0
    1.4800    5.3614   -1.4636 H   0  0  0  0  0  0  0  0  0  0  0  0
    0.3992    3.6036   -0.8067 C   0  0  0  0  0  0  0  0  0  0  0  0
   -0.5905    4.0286   -1.0142 H   0  0  0  0  0  0  0  0  0  0  0  0
    0.5109    2.3070   -0.2571 C   0  0  0  0  0  0  0  0  0  0  0  0
   -0.6611    0.7287    1.1811 C   0  0  2  0  0  3  0  0  0  0  0  0
   -1.7769    0.7210    2.0423 C   0  0  0  0  0  0  0  0  0  0  0  0
   -2.6235    1.3903    1.8489 H   0  0  0  0  0  0  0  0  0  0  0  0
   -1.7818   -0.1361    3.1448 C   0  0  0  0  0  0  0  0  0  0  0  0
   -2.6512   -0.1558    3.8182 H   0  0  0  0  0  0  0  0  0  0  0  0
   -0.6609   -0.9457    3.3901 C   0  0  0  0  0  0  0  0  0  0  0  0
   -0.6164   -1.6264    4.2511 H   0  0  0  0  0  0  0  0  0  0  0  0
    0.4223   -0.8714    2.5171 C   0  0  0  0  0  0  0  0  0  0  0  0
    1.3342   -1.4703    2.6600 H   0  0  0  0  0  0  0  0  0  0  0  0
   -1.8544    1.7619   -0.7530 C   0  0  0  0  0  0  0  0  0  0  0  0
   -1.5057    1.9915   -1.7817 H   0  0  0  0  0  0  0  0  0  0  0  0
   -2.4044    2.6564   -0.3994 H   0  0  0  0  0  0  0  0  0  0  0  0
   -2.7513    0.5424   -0.7795 C   0  0  0  0  0  0  0  0  0  0  0  0
   -4.0938    0.6163   -0.3104 C   0  0  0  0  0  0  0  0  0  0  0  0
   -4.7142    1.8222    0.1658 C   0  0  0  0  0  0  0  0  0  0  0  0
   -4.1580    2.7701    0.1498 H   0  0  0  0  0  0  0  0  0  0  0  0
   -6.0154    1.8378    0.6340 C   0  0  0  0  0  0  0  0  0  0  0  0
   -6.4545    2.7837    0.9859 H   0  0  0  0  0  0  0  0  0  0  0  0
   -6.7981    0.6462    0.6565 C   0  0  0  0  0  0  0  0  0  0  0  0
   -7.8332    0.6760    1.0279 H   0  0  0  0  0  0  0  0  0  0  0  0
   -6.2478   -0.5365    0.2069 C   0  0  0  0  0  0  0  0  0  0  0  0
   -6.8361   -1.4673    0.2148 H   0  0  0  0  0  0  0  0  0  0  0  0
   -4.9012   -0.5949   -0.2801 C   0  0  0  0  0  0  0  0  0  0  0  0
   -4.3424   -1.8106   -0.7099 C   0  0  0  0  0  0  0  0  0  0  0  0
   -4.9539   -2.7258   -0.6629 H   0  0  0  0  0  0  0  0  0  0  0  0
   -3.0265   -1.8926   -1.1957 C   0  0  0  0  0  0  0  0  0  0  0  0
   -2.4694   -3.1411   -1.6242 C   0  0  0  0  0  0  0  0  0  0  0  0
   -3.0990   -4.0421   -1.5596 H   0  0  0  0  0  0  0  0  0  0  0  0
   -1.1760   -3.2145   -2.1010 C   0  0  0  0  0  0  0  0  0  0  0  0
   -0.7499   -4.1797   -2.4122 H   0  0  0  0  0  0  0  0  0  0  0  0
   -0.3853   -2.0331   -2.1920 C   0  0  0  0  0  0  0  0  0  0  0  0
    0.6443   -2.0778   -2.5725 H   0  0  0  0  0  0  0  0  0  0  0  0
   -0.8881   -0.8106   -1.7867 C   0  0  0  0  0  0  0  0  0  0  0  0
   -0.2303    0.0615   -1.8788 H   0  0  0  0  0  0  0  0  0  0  0  0
   -2.2140   -0.6888   -1.2554 C   0  0  0  0  0  0  0  0  0  0  0  0
  3 20  1  0  0  0  0
  4  1  1  0  0  0  0
  4  5  1  0  0  0  0
  6  4  1  0  0  0  0
  7  6  1  0  0  0  0
  8 10  1  0  0  0  0
  8  6  2  0  0  0  0
  9  8  1  0  0  0  0
 10 12  2  0  0  0  0
 11 10  1  0  0  0  0
 12  1  1  0  0  0  0
 12  2  1  0  0  0  0
 13  2  1  6  0  0  0
 13  3  1  0  0  0  0
 13 14  1  0  0  0  0
 14 16  2  0  0  0  0
 15 14  1  0  0  0  0
 16 18  1  0  0  0  0
 16 17  1  0  0  0  0
 18 19  1  0  0  0  0
 20 21  1  0  0  0  0
 20 18  2  0  0  0  0
 22 24  1  0  0  0  0
 22  2  1  0  0  0  0
 23 22  1  0  0  0  0
 25 22  1  0  0  0  0
 25 26  1  0  0  0  0
 26 35  2  0  0  0  0
 26 27  1  0  0  0  0
 27 29  2  0  0  0  0
 28 27  1  0  0  0  0
 29 31  1  0  0  0  0
 29 30  1  0  0  0  0
 31 32  1  0  0  0  0
 33 34  1  0  0  0  0
 33 31  2  0  0  0  0
 35 33  1  0  0  0  0
 36 37  1  0  0  0  0
 36 35  1  0  0  0  0
 38 36  2  0  0  0  0
 39 40  1  0  0  0  0
 39 38  1  0  0  0  0
 41 39  2  0  0  0  0
 42 41  1  0  0  0  0
 43 41  1  0  0  0  0
 43 45  2  0  0  0  0
 44 43  1  0  0  0  0
 45 47  1  0  0  0  0
 46 45  1  0  0  0  0
 47 38  1  0  0  0  0
 47 25  2  0  0  0  0
M  END
