2,4
 OpenBabel05122313053D

 45 47  0  0  1  0  0  0  0  0999 V2000
    1.0928    0.6717    0.0964 O   0  0  0  0  0  0  0  0  0  0  0  0
   -0.2422   -1.3617    1.4587 N   0  0  0  0  0  2  0  0  0  0  0  0
    1.0969   -1.1806    1.6446 N   0  0  0  0  0  0  0  0  0  0  0  0
    0.4140   -1.5823   -1.2458 N   0  0  0  0  0  2  0  0  0  0  0  0
    1.6833   -1.5100   -0.7497 N   0  0  0  0  0  0  0  0  0  0  0  0
   -0.6792   -2.2029    2.4235 C   0  0  1  0  0  3  0  0  0  0  0  0
   -2.0986   -2.6651    2.5170 C   0  0  0  0  0  0  0  0  0  0  0  0
    0.4131   -2.5483    3.2542 C   0  0  0  0  0  0  0  0  0  0  0  0
    1.5288   -1.8876    2.7244 C   0  0  0  0  0  0  0  0  0  0  0  0
    2.9572   -1.9035    3.1637 C   0  0  0  0  0  0  0  0  0  0  0  0
    0.4130   -2.4899   -2.2519 C   0  0  1  0  0  3  0  0  0  0  0  0
   -0.8127   -2.8264   -3.0368 C   0  0  0  0  0  0  0  0  0  0  0  0
    1.7204   -3.0064   -2.3899 C   0  0  0  0  0  0  0  0  0  0  0  0
    2.5022   -2.3593   -1.4198 C   0  0  0  0  0  0  0  0  0  0  0  0
    3.9551   -2.4964   -1.0975 C   0  0  0  0  0  0  0  0  0  0  0  0
    1.7260    1.4783   -0.9041 C   0  0  0  0  0  0  0  0  0  0  0  0
    2.9735    2.1584   -0.3883 C   0  0  0  0  0  0  0  0  0  0  0  0
    2.9531    2.8342    0.8478 C   0  0  0  0  0  0  0  0  0  0  0  0
    4.1029    3.4769    1.3260 C   0  0  0  0  0  0  0  0  0  0  0  0
    5.2886    3.4573    0.5714 C   0  0  0  0  0  0  0  0  0  0  0  0
    5.3173    2.7873   -0.6609 C   0  0  0  0  0  0  0  0  0  0  0  0
    4.1659    2.1372   -1.1336 C   0  0  0  0  0  0  0  0  0  0  0  0
    1.8669   -0.5520    0.4662 B   0  0  1  0  0  0  0  0  0  0  0  0
    3.0455   -0.3779    0.7247 H   0  0  0  0  0  0  0  0  0  0  0  0
   -2.6041   -2.5951    1.5362 H   0  0  0  0  0  0  0  0  0  0  0  0
   -2.6866   -2.0665    3.2447 H   0  0  0  0  0  0  0  0  0  0  0  0
   -2.1354   -3.7178    2.8586 H   0  0  0  0  0  0  0  0  0  0  0  0
    0.3951   -3.2064    4.1291 H   0  0  0  0  0  0  0  0  0  0  0  0
    3.6064   -2.4258    2.4306 H   0  0  0  0  0  0  0  0  0  0  0  0
    3.0507   -2.4261    4.1337 H   0  0  0  0  0  0  0  0  0  0  0  0
    3.3598   -0.8774    3.2768 H   0  0  0  0  0  0  0  0  0  0  0  0
   -0.5859   -3.6138   -3.7791 H   0  0  0  0  0  0  0  0  0  0  0  0
   -1.2019   -1.9407   -3.5779 H   0  0  0  0  0  0  0  0  0  0  0  0
   -1.6292   -3.1875   -2.3808 H   0  0  0  0  0  0  0  0  0  0  0  0
    2.0586   -3.7552   -3.1136 H   0  0  0  0  0  0  0  0  0  0  0  0
    4.1110   -2.9427   -0.0933 H   0  0  0  0  0  0  0  0  0  0  0  0
    4.4509   -3.1486   -1.8399 H   0  0  0  0  0  0  0  0  0  0  0  0
    4.4652   -1.5120   -1.0962 H   0  0  0  0  0  0  0  0  0  0  0  0
    1.9635    0.8656   -1.8033 H   0  0  0  0  0  0  0  0  0  0  0  0
    0.9799    2.2371   -1.2179 H   0  0  0  0  0  0  0  0  0  0  0  0
    2.0254    2.8387    1.4406 H   0  0  0  0  0  0  0  0  0  0  0  0
    4.0758    3.9997    2.2944 H   0  0  0  0  0  0  0  0  0  0  0  0
    6.1912    3.9629    0.9471 H   0  0  0  0  0  0  0  0  0  0  0  0
    6.2439    2.7625   -1.2546 H   0  0  0  0  0  0  0  0  0  0  0  0
    4.1916    1.5998   -2.0954 H   0  0  0  0  0  0  0  0  0  0  0  0
  1 23  1  0  0  0  0
  2  3  1  0  0  0  0
  2  6  1  0  0  0  0
  3  9  1  0  0  0  0
  4  5  1  0  0  0  0
  5 23  1  0  0  0  0
  6  7  1  6  0  0  0
  6  8  1  0  0  0  0
  7 27  1  0  0  0  0
  7 26  1  0  0  0  0
  8 28  1  0  0  0  0
  9 10  1  0  0  0  0
  9  8  2  0  0  0  0
 10 31  1  0  0  0  0
 10 30  1  0  0  0  0
 11 12  1  6  0  0  0
 11  4  1  0  0  0  0
 12 34  1  0  0  0  0
 13 11  1  0  0  0  0
 13 14  2  0  0  0  0
 14 15  1  0  0  0  0
 14  5  1  0  0  0  0
 15 38  1  0  0  0  0
 15 36  1  0  0  0  0
 16 17  1  0  0  0  0
 16  1  1  0  0  0  0
 17 18  1  0  0  0  0
 18 19  2  0  0  0  0
 18 41  1  0  0  0  0
 19 42  1  0  0  0  0
 20 43  1  0  0  0  0
 20 19  1  0  0  0  0
 21 20  2  0  0  0  0
 22 21  1  0  0  0  0
 22 17  2  0  0  0  0
 23 24  1  1  0  0  0
 23  3  1  0  0  0  0
 25  7  1  0  0  0  0
 29 10  1  0  0  0  0
 32 12  1  0  0  0  0
 33 12  1  0  0  0  0
 35 13  1  0  0  0  0
 37 15  1  0  0  0  0
 39 16  1  0  0  0  0
 40 16  1  0  0  0  0
 44 21  1  0  0  0  0
 45 22  1  0  0  0  0
M  END
