1,17
 OpenBabel05122313053D

 27 26  0  0  1  0  0  0  0  0999 V2000
    0.7626   -1.5449    0.4598 N   0  0  0  0  0  0  0  0  0  0  0  0
    0.2509   -2.3110   -0.0256 H   0  0  0  0  0  0  0  0  0  0  0  0
    0.8277   -1.9151    1.8879 C   0  0  0  0  0  0  0  0  0  0  0  0
    1.4960   -2.7911    2.0417 H   0  0  0  0  0  0  0  0  0  0  0  0
    1.2022   -1.0693    2.4933 H   0  0  0  0  0  0  0  0  0  0  0  0
   -0.1956   -2.1605    2.2251 H   0  0  0  0  0  0  0  0  0  0  0  0
    2.0888   -1.3472   -0.1976 C   0  0  1  0  0  0  0  0  0  0  0  0
    2.7716   -2.1241    0.2212 H   0  0  0  0  0  0  0  0  0  0  0  0
    1.9497   -1.6170   -1.6969 C   0  0  0  0  0  0  0  0  0  0  0  0
    1.1201   -1.0282   -2.1319 H   0  0  0  0  0  0  0  0  0  0  0  0
    2.8876   -1.3704   -2.2304 H   0  0  0  0  0  0  0  0  0  0  0  0
    1.7274   -2.6885   -1.8752 H   0  0  0  0  0  0  0  0  0  0  0  0
    2.7356    0.0002    0.1911 C   0  0  0  0  0  0  0  0  0  0  0  0
    3.7581    0.0001   -0.2405 H   0  0  0  0  0  0  0  0  0  0  0  0
    2.8960    0.0001    1.2904 H   0  0  0  0  0  0  0  0  0  0  0  0
    2.0888    1.3475   -0.1976 C   0  0  2  0  0  0  0  0  0  0  0  0
    0.7627    1.5451    0.4598 N   0  0  0  0  0  0  0  0  0  0  0  0
    0.2506    2.3111   -0.0255 H   0  0  0  0  0  0  0  0  0  0  0  0
    0.8277    1.9152    1.8879 C   0  0  0  0  0  0  0  0  0  0  0  0
    1.4958    2.7914    2.0417 H   0  0  0  0  0  0  0  0  0  0  0  0
    1.2023    1.0695    2.4933 H   0  0  0  0  0  0  0  0  0  0  0  0
   -0.1957    2.1605    2.2250 H   0  0  0  0  0  0  0  0  0  0  0  0
    2.7717    2.1244    0.2213 H   0  0  0  0  0  0  0  0  0  0  0  0
    1.9499    1.6174   -1.6968 C   0  0  0  0  0  0  0  0  0  0  0  0
    1.1203    1.0285   -2.1319 H   0  0  0  0  0  0  0  0  0  0  0  0
    2.8877    1.3709   -2.2303 H   0  0  0  0  0  0  0  0  0  0  0  0
    1.7274    2.6888   -1.8751 H   0  0  0  0  0  0  0  0  0  0  0  0
  1  3  1  0  0  0  0
  2  1  1  0  0  0  0
  3  4  1  0  0  0  0
  3  6  1  0  0  0  0
  3  5  1  0  0  0  0
  7 13  1  0  0  0  0
  7  8  1  1  0  0  0
  7  1  1  0  0  0  0
  9  7  1  0  0  0  0
 10  9  1  0  0  0  0
 11  9  1  0  0  0  0
 12  9  1  0  0  0  0
 13 15  1  0  0  0  0
 14 13  1  0  0  0  0
 16 13  1  0  0  0  0
 16 23  1  1  0  0  0
 16 17  1  0  0  0  0
 17 19  1  0  0  0  0
 18 17  1  0  0  0  0
 19 20  1  0  0  0  0
 19 22  1  0  0  0  0
 19 21  1  0  0  0  0
 24 16  1  0  0  0  0
 25 24  1  0  0  0  0
 26 24  1  0  0  0  0
 27 24  1  0  0  0  0
M  END
