1,2
 OpenBabel05122313053D

 44 46  0  0  1  0  0  0  0  0999 V2000
    0.8107    1.7560   -0.8504 N   0  0  0  0  0  2  0  0  0  0  0  0
    1.2532   -1.5372   -0.9073 N   0  0  0  0  0  2  0  0  0  0  0  0
   -1.0702   -0.1992   -0.1341 N   0  0  0  0  0  0  0  0  0  0  0  0
    1.6059    2.8413   -0.9116 C   0  0  0  0  0  3  0  0  0  0  0  0
    2.5582    2.7594   -0.3638 H   0  0  0  0  0  0  0  0  0  0  0  0
    1.2536    3.9789   -1.6480 C   0  0  0  0  0  0  0  0  0  0  0  0
    1.9254    4.8485   -1.6704 H   0  0  0  0  0  0  0  0  0  0  0  0
    0.0368    3.9749   -2.3453 C   0  0  0  0  0  0  0  0  0  0  0  0
   -0.2754    4.8517   -2.9328 H   0  0  0  0  0  0  0  0  0  0  0  0
   -0.7818    2.8397   -2.2788 C   0  0  0  0  0  0  0  0  0  0  0  0
   -1.7460    2.8007   -2.8076 H   0  0  0  0  0  0  0  0  0  0  0  0
   -0.3626    1.7398   -1.5124 C   0  0  0  0  0  0  0  0  0  0  0  0
   -1.1724    0.4603   -1.4347 C   0  0  0  0  0  0  0  0  0  0  0  0
   -2.2251    0.6542   -1.7423 H   0  0  0  0  0  0  0  0  0  0  0  0
   -0.7596   -0.2282   -2.2032 H   0  0  0  0  0  0  0  0  0  0  0  0
   -1.0899   -1.6593   -0.2227 C   0  0  0  0  0  0  0  0  0  0  0  0
   -2.0318   -2.0639   -0.6630 H   0  0  0  0  0  0  0  0  0  0  0  0
   -1.0211   -2.0410    0.8192 H   0  0  0  0  0  0  0  0  0  0  0  0
    0.0891   -2.2133   -0.9907 C   0  0  2  0  0  3  0  0  0  0  0  0
   -0.0047   -3.3967   -1.7430 C   0  0  0  0  0  0  0  0  0  0  0  0
   -0.9669   -3.9262   -1.8054 H   0  0  0  0  0  0  0  0  0  0  0  0
    1.1334   -3.8790   -2.4020 C   0  0  0  0  0  0  0  0  0  0  0  0
    1.0825   -4.8082   -2.9894 H   0  0  0  0  0  0  0  0  0  0  0  0
    2.3310   -3.1532   -2.3173 C   0  0  0  0  0  0  0  0  0  0  0  0
    3.2426   -3.4859   -2.8334 H   0  0  0  0  0  0  0  0  0  0  0  0
    2.3456   -1.9780   -1.5591 C   0  0  0  0  0  0  0  0  0  0  0  0
    3.2382   -1.3379   -1.4759 H   0  0  0  0  0  0  0  0  0  0  0  0
   -2.0184    0.3119    0.9125 C   0  0  1  0  0  0  0  0  0  0  0  0
   -1.7396   -0.2629    1.8180 H   0  0  0  0  0  0  0  0  0  0  0  0
   -1.8037    1.7932    1.2247 C   0  0  0  0  0  0  0  0  0  0  0  0
   -0.7525    1.9819    1.5114 H   0  0  0  0  0  0  0  0  0  0  0  0
   -2.4531    2.0762    2.0754 H   0  0  0  0  0  0  0  0  0  0  0  0
   -2.0623    2.4581    0.3774 H   0  0  0  0  0  0  0  0  0  0  0  0
   -3.4708   -0.0316    0.5856 C   0  0  0  0  0  0  0  0  0  0  0  0
   -4.2826    0.7983   -0.2177 C   0  0  0  0  0  0  0  0  0  0  0  0
   -3.8987    1.7682   -0.5688 H   0  0  0  0  0  0  0  0  0  0  0  0
   -5.5935    0.4235   -0.5516 C   0  0  0  0  0  0  0  0  0  0  0  0
   -6.2090    1.0885   -1.1768 H   0  0  0  0  0  0  0  0  0  0  0  0
   -6.1247   -0.7859   -0.0782 C   0  0  0  0  0  0  0  0  0  0  0  0
   -7.1547   -1.0770   -0.3344 H   0  0  0  0  0  0  0  0  0  0  0  0
   -5.3387   -1.6122    0.7402 C   0  0  0  0  0  0  0  0  0  0  0  0
   -5.7525   -2.5525    1.1356 H   0  0  0  0  0  0  0  0  0  0  0  0
   -4.0275   -1.2356    1.0664 C   0  0  0  0  0  0  0  0  0  0  0  0
   -3.4224   -1.8802    1.7238 H   0  0  0  0  0  0  0  0  0  0  0  0
  3 28  1  0  0  0  0
  4  1  1  0  0  0  0
  4  5  1  0  0  0  0
  6  4  1  0  0  0  0
  7  6  1  0  0  0  0
  8 10  1  0  0  0  0
  8  6  2  0  0  0  0
  9  8  1  0  0  0  0
 10 12  2  0  0  0  0
 11 10  1  0  0  0  0
 12 13  1  0  0  0  0
 12  1  1  0  0  0  0
 13  3  1  0  0  0  0
 14 13  1  0  0  0  0
 15 13  1  0  0  0  0
 16  3  1  0  0  0  0
 16 18  1  0  0  0  0
 17 16  1  0  0  0  0
 19  2  1  0  0  0  0
 19 16  1  1  0  0  0
 20 19  1  0  0  0  0
 21 20  1  0  0  0  0
 22 24  1  0  0  0  0
 22 20  2  0  0  0  0
 23 22  1  0  0  0  0
 24 26  2  0  0  0  0
 25 24  1  0  0  0  0
 26 27  1  0  0  0  0
 26  2  1  0  0  0  0
 28 30  1  0  0  0  0
 28 29  1  1  0  0  0
 30 31  1  0  0  0  0
 30 32  1  0  0  0  0
 33 30  1  0  0  0  0
 34 28  1  0  0  0  0
 34 43  1  0  0  0  0
 35 34  2  0  0  0  0
 36 35  1  0  0  0  0
 37 35  1  0  0  0  0
 37 39  2  0  0  0  0
 38 37  1  0  0  0  0
 39 41  1  0  0  0  0
 40 39  1  0  0  0  0
 41 43  2  0  0  0  0
 41 42  1  0  0  0  0
 43 44  1  0  0  0  0
M  END
