1,11
 OpenBabel05122313053D

 17 18  0  0  1  0  0  0  0  0999 V2000
    1.8915    0.3981   -0.3913 N   0  0  0  0  0  2  0  0  0  0  0  0
    2.5603    1.3474   -1.0881 C   0  0  0  0  0  3  0  0  0  0  0  0
    1.9289    1.9586   -1.7575 H   0  0  0  0  0  0  0  0  0  0  0  0
    3.9468    1.4874   -0.9533 C   0  0  0  0  0  0  0  0  0  0  0  0
    4.4731    2.2652   -1.5321 H   0  0  0  0  0  0  0  0  0  0  0  0
    4.6939    0.7061   -0.1470 N   0  0  0  0  0  0  0  0  0  0  0  0
    4.0336   -0.2415    0.5278 C   0  0  0  0  0  0  0  0  0  0  0  0
    4.6214   -0.9047    1.1867 H   0  0  0  0  0  0  0  0  0  0  0  0
    2.6426   -0.4226    0.4246 C   0  0  0  0  0  0  0  0  0  0  0  0
    1.8360   -1.4119    1.1038 C   0  0  1  0  0  3  0  0  0  0  0  0
    0.5184   -1.3047    0.7985 N   0  0  0  0  0  2  0  0  0  0  0  0
   -0.1088   -2.2896    1.4510 N   0  0  0  0  0  0  0  0  0  0  0  0
   -1.1067   -2.4334    1.2882 H   0  0  0  0  0  0  0  0  0  0  0  0
    0.7680   -3.0484    2.1801 C   0  0  0  0  0  0  0  0  0  0  0  0
    0.4245   -3.9013    2.7739 H   0  0  0  0  0  0  0  0  0  0  0  0
    2.0351   -2.5071    1.9879 C   0  0  0  0  0  0  0  0  0  0  0  0
    2.9747   -2.8621    2.4208 H   0  0  0  0  0  0  0  0  0  0  0  0
  1  9  1  0  0  0  0
  2  4  1  0  0  0  0
  2  1  1  0  0  0  0
  3  2  1  0  0  0  0
  4  6  2  0  0  0  0
  5  4  1  0  0  0  0
  6  7  1  0  0  0  0
  7  8  1  0  0  0  0
  9  7  2  0  0  0  0
 10  9  1  6  0  0  0
 10 16  1  0  0  0  0
 11 10  1  0  0  0  0
 11 12  1  0  0  0  0
 12 14  1  0  0  0  0
 13 12  1  0  0  0  0
 14 15  1  0  0  0  0
 16 14  2  0  0  0  0
 16 17  1  0  0  0  0
M  END
