10,49
 OpenBabel05122313053D

 56 60  0  0  0  0  0  0  0  0999 V2000
    0.1749   -1.3478   -0.1591 C   0  0  0  0  0  0  0  0  0  0  0  0
    0.6612   -2.3308   -0.1859 H   0  0  0  0  0  0  0  0  0  0  0  0
    0.2960    1.0530   -0.0325 C   0  0  0  0  0  0  0  0  0  0  0  0
    0.8760    1.9841   -0.0394 H   0  0  0  0  0  0  0  0  0  0  0  0
    0.9703   -0.1832   -0.1190 C   0  0  0  0  0  0  0  0  0  0  0  0
    3.1059   -1.2829   -0.8776 C   0  0  0  0  0  0  0  0  0  0  0  0
    2.5171   -2.0277   -1.4337 H   0  0  0  0  0  0  0  0  0  0  0  0
   -1.1091    1.0866    0.0108 C   0  0  0  0  0  0  0  0  0  0  0  0
   -1.2268   -1.2446   -0.1151 C   0  0  0  0  0  0  0  0  0  0  0  0
   -1.8327   -0.0465   -0.0316 N   0  0  0  0  0  2  0  0  0  0  0  0
   -2.1175   -2.4471   -0.1275 C   0  0  0  0  0  0  0  0  0  0  0  0
   -1.6243   -3.7553   -0.3065 C   0  0  0  0  0  0  0  0  0  0  0  0
   -0.5553   -3.9385   -0.4770 H   0  0  0  0  0  0  0  0  0  0  0  0
   -2.5196   -4.8317   -0.2713 C   0  0  0  0  0  0  0  0  0  0  0  0
   -2.1524   -5.8591   -0.4134 H   0  0  0  0  0  0  0  0  0  0  0  0
   -3.8799   -4.5822   -0.0478 C   0  0  0  0  0  0  0  0  0  0  0  0
   -4.6142   -5.3988    0.0010 H   0  0  0  0  0  0  0  0  0  0  0  0
   -4.2948   -3.2516    0.1151 C   0  0  0  0  0  0  0  0  0  0  0  0
   -5.3431   -2.9793    0.3228 H   0  0  0  0  0  0  0  0  0  0  0  0
   -3.4345   -2.2241    0.0627 N   0  0  0  0  0  0  0  0  0  0  0  0
    2.4454   -0.2552   -0.1663 C   0  0  0  0  0  0  0  0  0  0  0  0
    4.4996   -1.3424   -0.9241 C   0  0  0  0  0  0  0  0  0  0  0  0
    4.9887   -2.1439   -1.4993 H   0  0  0  0  0  0  0  0  0  0  0  0
    5.3079   -0.3876   -0.2562 C   0  0  0  0  0  0  0  0  0  0  0  0
    4.6386    0.6387    0.4602 C   0  0  0  0  0  0  0  0  0  0  0  0
    5.2212    1.3959    1.0047 H   0  0  0  0  0  0  0  0  0  0  0  0
    3.2473    0.7047    0.4989 C   0  0  0  0  0  0  0  0  0  0  0  0
    2.7659    1.4998    1.0880 H   0  0  0  0  0  0  0  0  0  0  0  0
    9.8069   -0.8012   -0.5515 C   0  0  0  0  0  0  0  0  0  0  0  0
    9.2299   -1.5606   -1.0998 H   0  0  0  0  0  0  0  0  0  0  0  0
   11.2001   -0.8533   -0.5864 C   0  0  0  0  0  0  0  0  0  0  0  0
   11.6960   -1.6522   -1.1606 H   0  0  0  0  0  0  0  0  0  0  0  0
   11.9924    0.0973    0.0992 C   0  0  0  0  0  0  0  0  0  0  0  0
   11.3246    1.1043    0.8227 C   0  0  0  0  0  0  0  0  0  0  0  0
   11.9141    1.8588    1.3669 H   0  0  0  0  0  0  0  0  0  0  0  0
   13.4958    0.0242    0.0485 C   0  0  0  0  0  0  0  0  0  0  0  0
   13.9662    0.8335    0.6391 H   0  0  0  0  0  0  0  0  0  0  0  0
   13.8672    0.1037   -0.9948 H   0  0  0  0  0  0  0  0  0  0  0  0
   13.8649   -0.9454    0.4439 H   0  0  0  0  0  0  0  0  0  0  0  0
    6.7604   -0.5037   -0.3363 C   0  0  0  0  0  0  0  0  0  0  0  0
    7.1211   -1.3540   -0.9392 H   0  0  0  0  0  0  0  0  0  0  0  0
   -1.8761    2.3700    0.0744 C   0  0  0  0  0  0  0  0  0  0  0  0
   -3.4234    4.6671    0.0952 C   0  0  0  0  0  0  0  0  0  0  0  0
   -4.0760    5.5515    0.0883 H   0  0  0  0  0  0  0  0  0  0  0  0
    7.6764    0.3179    0.2499 C   0  0  0  0  0  0  0  0  0  0  0  0
    7.3118    1.1661    0.8546 H   0  0  0  0  0  0  0  0  0  0  0  0
   -3.9746    3.3843   -0.0461 C   0  0  0  0  0  0  0  0  0  0  0  0
   -5.0542    3.2167   -0.1957 H   0  0  0  0  0  0  0  0  0  0  0  0
   -3.2171    2.2776   -0.0427 N   0  0  0  0  0  2  0  0  0  0  0  0
   -1.2484    3.6227    0.2277 C   0  0  0  0  0  0  0  0  0  0  0  0
   -0.1589    3.6995    0.3397 H   0  0  0  0  0  0  0  0  0  0  0  0
   -2.0350    4.7814    0.2436 C   0  0  0  0  0  0  0  0  0  0  0  0
   -1.5621    5.7672    0.3668 H   0  0  0  0  0  0  0  0  0  0  0  0
    9.9266    1.1610    0.8608 C   0  0  0  0  0  0  0  0  0  0  0  0
    9.4297    1.9594    1.4345 H   0  0  0  0  0  0  0  0  0  0  0  0
    9.1308    0.2117    0.1763 C   0  0  0  0  0  0  0  0  0  0  0  0
  1  5  1  0  0  0  0
  1  9  2  0  0  0  0
  2  1  1  0  0  0  0
  3  8  1  0  0  0  0
  4  3  1  0  0  0  0
  5  3  2  0  0  0  0
  6 21  1  0  0  0  0
  7  6  1  0  0  0  0
  8 42  2  0  0  0  0
  9 10  1  0  0  0  0
 10  8  1  0  0  0  0
 11  9  1  0  0  0  0
 11 20  1  0  0  0  0
 12 14  1  0  0  0  0
 12 11  2  0  0  0  0
 13 12  1  0  0  0  0
 14 16  2  0  0  0  0
 15 14  1  0  0  0  0
 16 17  1  0  0  0  0
 16 18  1  0  0  0  0
 18 19  1  0  0  0  0
 20 18  2  0  0  0  0
 21  5  1  0  0  0  0
 21 27  2  0  0  0  0
 22  6  2  0  0  0  0
 22 24  1  0  0  0  0
 23 22  1  0  0  0  0
 24 25  2  0  0  0  0
 25 27  1  0  0  0  0
 25 26  1  0  0  0  0
 27 28  1  0  0  0  0
 29 56  1  0  0  0  0
 30 29  1  0  0  0  0
 31 29  2  0  0  0  0
 31 33  1  0  0  0  0
 32 31  1  0  0  0  0
 33 34  2  0  0  0  0
 34 54  1  0  0  0  0
 34 35  1  0  0  0  0
 36 33  1  0  0  0  0
 36 39  1  0  0  0  0
 36 37  1  0  0  0  0
 38 36  1  0  0  0  0
 40 24  1  0  0  0  0
 40 45  2  0  0  0  0
 41 40  1  0  0  0  0
 42 50  1  0  0  0  0
 43 52  1  0  0  0  0
 44 43  1  0  0  0  0
 45 46  1  0  0  0  0
 47 49  1  0  0  0  0
 47 43  2  0  0  0  0
 48 47  1  0  0  0  0
 49 42  1  0  0  0  0
 50 52  2  0  0  0  0
 50 51  1  0  0  0  0
 52 53  1  0  0  0  0
 54 55  1  0  0  0  0
 56 45  1  0  0  0  0
 56 54  2  0  0  0  0
M  END
