1,2
 OpenBabel05122313053D

 59 62  0  0  0  0  0  0  0  0999 V2000
   -0.5454   -0.1561    0.1122 N   0  0  0  0  0  2  0  0  0  0  0  0
    2.0465    0.0267   -0.0830 N   0  0  0  0  0  2  0  0  0  0  0  0
    2.2170    2.2068    0.4610 N   0  0  0  0  0  0  0  0  0  0  0  0
   -0.0911    1.0881    0.1822 C   0  0  0  0  0  0  0  0  0  0  0  0
   -0.9411    2.3037    0.1316 C   0  0  0  0  0  0  0  0  0  0  0  0
   -0.6545    3.2671   -0.8638 C   0  0  0  0  0  0  0  0  0  0  0  0
    0.1851    3.0978   -1.5556 H   0  0  0  0  0  0  0  0  0  0  0  0
   -1.4508    4.4117   -0.9978 C   0  0  0  0  0  0  0  0  0  0  0  0
   -1.2250    5.1444   -1.7869 H   0  0  0  0  0  0  0  0  0  0  0  0
   -2.5417    4.6125   -0.1370 C   0  0  0  0  0  0  0  0  0  0  0  0
   -3.1689    5.5106   -0.2413 H   0  0  0  0  0  0  0  0  0  0  0  0
   -2.8355    3.6588    0.8512 C   0  0  0  0  0  0  0  0  0  0  0  0
   -3.6928    3.8072    1.5244 H   0  0  0  0  0  0  0  0  0  0  0  0
   -2.0481    2.5075    0.9837 C   0  0  0  0  0  0  0  0  0  0  0  0
   -2.2937    1.7597    1.7485 H   0  0  0  0  0  0  0  0  0  0  0  0
   -1.9493   -0.4280    0.1739 C   0  0  0  0  0  0  0  0  0  0  0  0
   -2.7664   -0.1994   -0.9606 C   0  0  0  0  0  0  0  0  0  0  0  0
   -4.1446   -0.4450   -0.8250 C   0  0  0  0  0  0  0  0  0  0  0  0
   -4.8045   -0.2786   -1.6896 H   0  0  0  0  0  0  0  0  0  0  0  0
   -4.6869   -0.9078    0.3798 C   0  0  0  0  0  0  0  0  0  0  0  0
   -5.7695   -1.0872    0.4629 H   0  0  0  0  0  0  0  0  0  0  0  0
   -3.8475   -1.1681    1.4701 C   0  0  0  0  0  0  0  0  0  0  0  0
   -4.2741   -1.5621    2.4052 H   0  0  0  0  0  0  0  0  0  0  0  0
   -2.4611   -0.9508    1.3886 C   0  0  0  0  0  0  0  0  0  0  0  0
    1.3604    1.1597    0.1729 C   0  0  0  0  0  0  0  0  0  0  0  0
    3.3914    0.3292    0.0013 C   0  0  0  0  0  0  0  0  0  0  0  0
    3.5097    1.7105    0.3426 C   0  0  0  0  0  0  0  0  0  0  0  0
    4.7604    2.3278    0.5157 C   0  0  0  0  0  0  0  0  0  0  0  0
    4.8547    3.3928    0.7707 H   0  0  0  0  0  0  0  0  0  0  0  0
    5.8883    1.5200    0.3352 C   0  0  0  0  0  0  0  0  0  0  0  0
    6.8878    1.9635    0.4568 H   0  0  0  0  0  0  0  0  0  0  0  0
    5.7768    0.1461   -0.0034 C   0  0  0  0  0  0  0  0  0  0  0  0
    6.6945   -0.4465   -0.1333 H   0  0  0  0  0  0  0  0  0  0  0  0
    4.5368   -0.4720   -0.1748 C   0  0  0  0  0  0  0  0  0  0  0  0
    4.4104   -1.5329   -0.4359 H   0  0  0  0  0  0  0  0  0  0  0  0
    1.9017    3.5399    0.9479 C   0  0  0  0  0  0  0  0  0  0  0  0
    1.8886    4.2845    0.1268 H   0  0  0  0  0  0  0  0  0  0  0  0
    2.6685    3.8339    1.6898 H   0  0  0  0  0  0  0  0  0  0  0  0
    0.9134    3.5424    1.4376 H   0  0  0  0  0  0  0  0  0  0  0  0
   -2.1839    0.2054   -2.3078 C   0  0  0  0  0  0  0  0  0  0  0  0
   -1.1375    0.5333   -2.1432 H   0  0  0  0  0  0  0  0  0  0  0  0
   -2.9394    1.3767   -2.9531 C   0  0  0  0  0  0  0  0  0  0  0  0
   -3.0004    2.2496   -2.2731 H   0  0  0  0  0  0  0  0  0  0  0  0
   -3.9742    1.0904   -3.2329 H   0  0  0  0  0  0  0  0  0  0  0  0
   -2.4294    1.6983   -3.8840 H   0  0  0  0  0  0  0  0  0  0  0  0
   -2.1237   -1.0216   -3.2383 C   0  0  0  0  0  0  0  0  0  0  0  0
   -1.6235   -0.7620   -4.1940 H   0  0  0  0  0  0  0  0  0  0  0  0
   -3.1459   -1.3841   -3.4738 H   0  0  0  0  0  0  0  0  0  0  0  0
   -1.5706   -1.8537   -2.7591 H   0  0  0  0  0  0  0  0  0  0  0  0
   -1.5550   -1.2736    2.5724 C   0  0  0  0  0  0  0  0  0  0  0  0
   -0.5079   -1.1209    2.2379 H   0  0  0  0  0  0  0  0  0  0  0  0
   -1.8079   -0.3327    3.7634 C   0  0  0  0  0  0  0  0  0  0  0  0
   -1.1338   -0.5831    4.6079 H   0  0  0  0  0  0  0  0  0  0  0  0
   -2.8517   -0.4179    4.1315 H   0  0  0  0  0  0  0  0  0  0  0  0
   -1.6316    0.7309    3.5005 H   0  0  0  0  0  0  0  0  0  0  0  0
   -1.6786   -2.7499    2.9825 C   0  0  0  0  0  0  0  0  0  0  0  0
   -0.9612   -2.9837    3.7957 H   0  0  0  0  0  0  0  0  0  0  0  0
   -1.4559   -3.4037    2.1169 H   0  0  0  0  0  0  0  0  0  0  0  0
   -2.6967   -2.9877    3.3549 H   0  0  0  0  0  0  0  0  0  0  0  0
  1 16  1  0  0  0  0
  1  4  1  0  0  0  0
  2 26  1  0  0  0  0
  2 25  1  0  0  0  0
  3 36  1  0  0  0  0
  5  4  1  0  0  0  0
  5 14  1  0  0  0  0
  6  5  2  0  0  0  0
  7  6  1  0  0  0  0
  8  6  1  0  0  0  0
  8 10  2  0  0  0  0
  9  8  1  0  0  0  0
 10 12  1  0  0  0  0
 11 10  1  0  0  0  0
 12 14  2  0  0  0  0
 12 13  1  0  0  0  0
 14 15  1  0  0  0  0
 16 24  1  0  0  0  0
 17 18  1  0  0  0  0
 17 16  2  0  0  0  0
 18 20  2  0  0  0  0
 19 18  1  0  0  0  0
 20 21  1  0  0  0  0
 20 22  1  0  0  0  0
 22 23  1  0  0  0  0
 24 22  2  0  0  0  0
 24 50  1  0  0  0  0
 25  4  2  0  0  0  0
 25  3  1  0  0  0  0
 26 27  1  0  0  0  0
 27  3  1  0  0  0  0
 27 28  2  0  0  0  0
 28 29  1  0  0  0  0
 30 31  1  0  0  0  0
 30 28  1  0  0  0  0
 32 30  2  0  0  0  0
 33 32  1  0  0  0  0
 34 32  1  0  0  0  0
 34 26  2  0  0  0  0
 35 34  1  0  0  0  0
 36 39  1  0  0  0  0
 36 38  1  0  0  0  0
 37 36  1  0  0  0  0
 40 41  1  0  0  0  0
 40 17  1  0  0  0  0
 42 40  1  0  0  0  0
 42 43  1  0  0  0  0
 44 42  1  0  0  0  0
 45 42  1  0  0  0  0
 46 49  1  0  0  0  0
 46 40  1  0  0  0  0
 47 46  1  0  0  0  0
 48 46  1  0  0  0  0
 50 56  1  0  0  0  0
 50 52  1  0  0  0  0
 51 50  1  0  0  0  0
 52 54  1  0  0  0  0
 52 53  1  0  0  0  0
 55 52  1  0  0  0  0
 56 59  1  0  0  0  0
 56 57  1  0  0  0  0
 58 56  1  0  0  0  0
M  END
