23,24
 OpenBabel05122313053D

 30 32  0  0  0  0  0  0  0  0999 V2000
    2.3239   -1.9624   -0.9036 C   0  0  0  0  0  0  0  0  0  0  0  0
    3.7196   -2.2404   -0.8404 C   0  0  0  0  0  0  0  0  0  0  0  0
    4.0601   -3.2545   -1.0909 H   0  0  0  0  0  0  0  0  0  0  0  0
    4.6196   -1.2578   -0.4653 C   0  0  0  0  0  0  0  0  0  0  0  0
    5.6985   -1.4701   -0.4239 H   0  0  0  0  0  0  0  0  0  0  0  0
    4.1381    0.0255   -0.0843 C   0  0  0  0  0  0  0  0  0  0  0  0
    2.7324    0.2193   -0.1532 C   0  0  0  0  0  0  0  0  0  0  0  0
    2.1418    1.4438    0.2969 C   0  0  0  0  0  0  0  0  0  0  0  0
    0.1695    2.6215    0.7082 C   0  0  0  0  0  0  0  0  0  0  0  0
    0.9240    3.7368    1.1771 C   0  0  0  0  0  0  0  0  0  0  0  0
    0.3660    4.6222    1.5116 H   0  0  0  0  0  0  0  0  0  0  0  0
    2.3057    3.6770    1.2181 C   0  0  0  0  0  0  0  0  0  0  0  0
    2.8953    4.5269    1.5937 H   0  0  0  0  0  0  0  0  0  0  0  0
    2.9687    2.4951    0.7808 C   0  0  0  0  0  0  0  0  0  0  0  0
    4.3890    2.2968    0.8031 C   0  0  0  0  0  0  0  0  0  0  0  0
    5.0269    3.1161    1.1677 H   0  0  0  0  0  0  0  0  0  0  0  0
    4.9521    1.1054    0.3894 C   0  0  0  0  0  0  0  0  0  0  0  0
    6.0423    0.9619    0.4322 H   0  0  0  0  0  0  0  0  0  0  0  0
    1.3717   -3.0089   -1.2530 C   0  0  0  0  0  0  0  0  0  0  0  0
    1.6648   -4.0634   -1.1011 H   0  0  0  0  0  0  0  0  0  0  0  0
   -1.2857    2.6329    0.6906 C   0  0  0  0  0  0  0  0  0  0  0  0
   -1.7813    1.7023    0.3567 H   0  0  0  0  0  0  0  0  0  0  0  0
    1.8576   -0.7288   -0.5980 N   0  0  0  0  0  2  0  0  0  0  0  0
    0.7806    1.4988    0.2645 N   0  0  0  0  0  2  0  0  0  0  0  0
    0.1973   -2.6787   -1.6900 N   0  0  0  0  0  0  0  0  0  0  0  0
   -1.9714    3.6796    1.0284 N   0  0  0  0  0  0  0  0  0  0  0  0
   -0.6245   -3.7679   -1.8564 O   0  0  0  0  0  0  0  0  0  0  0  0
   -1.4428   -3.3634   -2.2045 H   0  0  0  0  0  0  0  0  0  0  0  0
   -3.3178    3.5631    0.9515 O   0  0  0  0  0  0  0  0  0  0  0  0
   -3.5482    2.6528    0.6252 H   0  0  0  0  0  0  0  0  0  0  0  0
  1  2  2  0  0  0  0
  1 23  1  0  0  0  0
  2  4  1  0  0  0  0
  3  2  1  0  0  0  0
  4  5  1  0  0  0  0
  4  6  2  0  0  0  0
  6 17  1  0  0  0  0
  7  6  1  0  0  0  0
  7  8  2  0  0  0  0
  8 14  1  0  0  0  0
  9 10  2  0  0  0  0
 10 12  1  0  0  0  0
 10 11  1  0  0  0  0
 12 13  1  0  0  0  0
 14 15  1  0  0  0  0
 14 12  2  0  0  0  0
 15 16  1  0  0  0  0
 17 18  1  0  0  0  0
 17 15  2  0  0  0  0
 19 20  1  0  0  0  0
 19  1  1  0  0  0  0
 21  9  1  0  0  0  0
 21 26  2  0  0  0  0
 22 21  1  0  0  0  0
 23  7  1  0  0  0  0
 24  8  1  0  0  0  0
 24  9  1  0  0  0  0
 25 19  2  0  0  0  0
 27 25  1  0  0  0  0
 28 27  1  0  0  0  0
 29 26  1  0  0  0  0
 30 29  1  0  0  0  0
M  END
