2,3
 OpenBabel05122313053D

 48 52  0  0  1  0  0  0  0  0999 V2000
   -0.0006    3.8524   -0.0425 O   0  0  0  0  0  0  0  0  0  0  0  0
   -1.4682   -1.8534    0.3991 N   0  0  0  0  0  2  0  0  0  0  0  0
    1.4691   -1.8529    0.3988 N   0  0  0  0  0  2  0  0  0  0  0  0
   -0.0004    2.6432    0.1253 C   0  0  0  0  0  0  0  0  0  0  0  0
   -1.2136    1.7509    0.2639 C   0  0  2  0  0  3  0  0  0  0  0  0
   -0.7576    0.4886    0.5516 C   0  0  0  0  0  0  0  0  0  0  0  0
    0.7574    0.4888    0.5515 C   0  0  0  0  0  0  0  0  0  0  0  0
    1.2131    1.7512    0.2637 C   0  0  1  0  0  3  0  0  0  0  0  0
   -2.5791    2.1898   -0.0095 C   0  0  0  0  0  0  0  0  0  0  0  0
   -3.0532    3.4495    0.4292 C   0  0  0  0  0  0  0  0  0  0  0  0
   -2.3795    4.1131    0.9885 H   0  0  0  0  0  0  0  0  0  0  0  0
   -4.3688    3.8428    0.1514 C   0  0  0  0  0  0  0  0  0  0  0  0
   -4.7307    4.8203    0.5050 H   0  0  0  0  0  0  0  0  0  0  0  0
   -5.2233    2.9996   -0.5781 C   0  0  0  0  0  0  0  0  0  0  0  0
   -6.2547    3.3151   -0.7969 H   0  0  0  0  0  0  0  0  0  0  0  0
   -4.7501    1.7619   -1.0483 C   0  0  0  0  0  0  0  0  0  0  0  0
   -5.4037    1.1139   -1.6518 H   0  0  0  0  0  0  0  0  0  0  0  0
   -3.4388    1.3603   -0.7735 C   0  0  0  0  0  0  0  0  0  0  0  0
   -3.0370    0.4246   -1.1913 H   0  0  0  0  0  0  0  0  0  0  0  0
   -1.6356   -0.6296    0.9570 C   0  0  2  0  0  3  0  0  0  0  0  0
   -2.6382   -0.4220    1.9301 C   0  0  0  0  0  0  0  0  0  0  0  0
   -2.7563    0.5761    2.3730 H   0  0  0  0  0  0  0  0  0  0  0  0
   -3.4565   -1.4892    2.3124 C   0  0  0  0  0  0  0  0  0  0  0  0
   -4.2401   -1.3394    3.0705 H   0  0  0  0  0  0  0  0  0  0  0  0
   -3.2614   -2.7487    1.7238 C   0  0  0  0  0  0  0  0  0  0  0  0
   -3.8797   -3.6148    1.9994 H   0  0  0  0  0  0  0  0  0  0  0  0
   -2.2488   -2.8863    0.7687 C   0  0  0  0  0  0  0  0  0  0  0  0
   -2.0185   -3.8420    0.2639 H   0  0  0  0  0  0  0  0  0  0  0  0
    2.5784    2.1905   -0.0096 C   0  0  0  0  0  0  0  0  0  0  0  0
    3.0521    3.4504    0.4290 C   0  0  0  0  0  0  0  0  0  0  0  0
    2.3783    4.1138    0.9882 H   0  0  0  0  0  0  0  0  0  0  0  0
    4.3676    3.8440    0.1512 C   0  0  0  0  0  0  0  0  0  0  0  0
    4.7293    4.8216    0.5048 H   0  0  0  0  0  0  0  0  0  0  0  0
    5.2224    3.0009   -0.5781 C   0  0  0  0  0  0  0  0  0  0  0  0
    6.2538    3.3168   -0.7969 H   0  0  0  0  0  0  0  0  0  0  0  0
    4.7496    1.7631   -1.0483 C   0  0  0  0  0  0  0  0  0  0  0  0
    5.4035    1.1152   -1.6516 H   0  0  0  0  0  0  0  0  0  0  0  0
    3.4384    1.3611   -0.7735 C   0  0  0  0  0  0  0  0  0  0  0  0
    3.0369    0.4253   -1.1911 H   0  0  0  0  0  0  0  0  0  0  0  0
    1.6358   -0.6291    0.9570 C   0  0  1  0  0  3  0  0  0  0  0  0
    2.6381   -0.4212    1.9302 C   0  0  0  0  0  0  0  0  0  0  0  0
    2.7556    0.5769    2.3734 H   0  0  0  0  0  0  0  0  0  0  0  0
    3.4569   -1.4881    2.3125 C   0  0  0  0  0  0  0  0  0  0  0  0
    4.2402   -1.3381    3.0708 H   0  0  0  0  0  0  0  0  0  0  0  0
    3.2625   -2.7476    1.7237 C   0  0  0  0  0  0  0  0  0  0  0  0
    3.8811   -3.6134    1.9992 H   0  0  0  0  0  0  0  0  0  0  0  0
    2.2501   -2.8855    0.7683 C   0  0  0  0  0  0  0  0  0  0  0  0
    2.0203   -3.8412    0.2633 H   0  0  0  0  0  0  0  0  0  0  0  0
  1  4  2  0  0  0  0
  2 27  1  0  0  0  0
  2 20  1  0  0  0  0
  3 47  1  0  0  0  0
  3 40  1  0  0  0  0
  4  8  1  0  0  0  0
  4  5  1  0  0  0  0
  5  9  1  6  0  0  0
  5  6  1  0  0  0  0
  7  6  2  0  0  0  0
  8 29  1  6  0  0  0
  8  7  1  0  0  0  0
  9 10  1  0  0  0  0
 10 11  1  0  0  0  0
 12 10  2  0  0  0  0
 12 13  1  0  0  0  0
 14 12  1  0  0  0  0
 15 14  1  0  0  0  0
 16 18  1  0  0  0  0
 16 14  2  0  0  0  0
 17 16  1  0  0  0  0
 18  9  2  0  0  0  0
 19 18  1  0  0  0  0
 20  6  1  1  0  0  0
 20 21  1  0  0  0  0
 21 23  2  0  0  0  0
 21 22  1  0  0  0  0
 23 24  1  0  0  0  0
 25 26  1  0  0  0  0
 25 23  1  0  0  0  0
 27 25  2  0  0  0  0
 28 27  1  0  0  0  0
 29 30  1  0  0  0  0
 30 31  1  0  0  0  0
 32 30  2  0  0  0  0
 32 33  1  0  0  0  0
 34 32  1  0  0  0  0
 35 34  1  0  0  0  0
 36 38  1  0  0  0  0
 36 34  2  0  0  0  0
 37 36  1  0  0  0  0
 38 29  2  0  0  0  0
 39 38  1  0  0  0  0
 40  7  1  1  0  0  0
 40 41  1  0  0  0  0
 41 43  2  0  0  0  0
 41 42  1  0  0  0  0
 43 44  1  0  0  0  0
 45 46  1  0  0  0  0
 45 43  1  0  0  0  0
 47 45  2  0  0  0  0
 48 47  1  0  0  0  0
M  END
