1,2
 OpenBabel05122313053D

 39 40  0  0  0  0  0  0  0  0999 V2000
   -1.4911   -2.5517   -0.0543 N   0  0  0  0  0  0  0  0  0  0  0  0
   -2.3749    0.0679   -0.0754 N   0  0  0  0  0  2  0  0  0  0  0  0
   -1.0397    1.9975    1.4668 N   0  0  0  0  0  0  0  0  0  0  0  0
   -2.9275   -2.2783   -0.0035 C   0  0  0  0  0  0  0  0  0  0  0  0
   -3.8612   -3.3181    0.0829 C   0  0  0  0  0  0  0  0  0  0  0  0
   -3.5048   -4.3605    0.1107 H   0  0  0  0  0  0  0  0  0  0  0  0
   -5.2392   -3.0543    0.1339 C   0  0  0  0  0  0  0  0  0  0  0  0
   -5.9644   -3.8782    0.1998 H   0  0  0  0  0  0  0  0  0  0  0  0
   -5.6650   -1.7135    0.1051 C   0  0  0  0  0  0  0  0  0  0  0  0
   -6.7403   -1.4800    0.1613 H   0  0  0  0  0  0  0  0  0  0  0  0
   -4.7488   -0.6627    0.0141 C   0  0  0  0  0  0  0  0  0  0  0  0
   -5.1060    0.3768    0.0119 H   0  0  0  0  0  0  0  0  0  0  0  0
   -3.3425   -0.9026   -0.0530 C   0  0  0  0  0  0  0  0  0  0  0  0
   -2.6080    1.4123   -0.3468 C   0  0  0  0  0  0  0  0  0  0  0  0
   -3.4202    1.8500   -1.4216 C   0  0  0  0  0  0  0  0  0  0  0  0
   -3.9477    1.0867   -2.0129 H   0  0  0  0  0  0  0  0  0  0  0  0
   -3.5111    3.2010   -1.7817 C   0  0  0  0  0  0  0  0  0  0  0  0
   -4.1385    3.4970   -2.6367 H   0  0  0  0  0  0  0  0  0  0  0  0
   -2.7824    4.1638   -1.0677 C   0  0  0  0  0  0  0  0  0  0  0  0
   -2.8399    5.2285   -1.3402 H   0  0  0  0  0  0  0  0  0  0  0  0
   -1.9856    3.7632    0.0176 C   0  0  0  0  0  0  0  0  0  0  0  0
   -1.4367    4.5270    0.5856 H   0  0  0  0  0  0  0  0  0  0  0  0
   -1.8884    2.4103    0.4061 C   0  0  0  0  0  0  0  0  0  0  0  0
   -1.0056   -3.3296    1.0939 C   0  0  0  0  0  0  0  0  0  0  0  0
   -1.3006   -2.8203    2.0318 H   0  0  0  0  0  0  0  0  0  0  0  0
    0.1009   -3.3976    1.0514 H   0  0  0  0  0  0  0  0  0  0  0  0
   -1.4157   -4.3674    1.1180 H   0  0  0  0  0  0  0  0  0  0  0  0
   -1.0894   -3.1668   -1.3308 C   0  0  0  0  0  0  0  0  0  0  0  0
   -1.5347   -4.1814   -1.4651 H   0  0  0  0  0  0  0  0  0  0  0  0
    0.0152   -3.2560   -1.3739 H   0  0  0  0  0  0  0  0  0  0  0  0
   -1.4305   -2.5258   -2.1666 H   0  0  0  0  0  0  0  0  0  0  0  0
   -0.0473    2.9457    1.9311 C   0  0  0  0  0  0  0  0  0  0  0  0
    0.5405    3.3393    1.0783 H   0  0  0  0  0  0  0  0  0  0  0  0
    0.6507    2.4281    2.6186 H   0  0  0  0  0  0  0  0  0  0  0  0
   -0.4827    3.8158    2.4870 H   0  0  0  0  0  0  0  0  0  0  0  0
   -1.6892    1.2962    2.5708 C   0  0  0  0  0  0  0  0  0  0  0  0
   -2.2542    1.9971    3.2347 H   0  0  0  0  0  0  0  0  0  0  0  0
   -0.9209    0.7844    3.1872 H   0  0  0  0  0  0  0  0  0  0  0  0
   -2.3857    0.5355    2.1764 H   0  0  0  0  0  0  0  0  0  0  0  0
  1  4  1  0  0  0  0
  1 24  1  0  0  0  0
  2 13  1  0  0  0  0
  3 32  1  0  0  0  0
  3 36  1  0  0  0  0
  4  5  1  0  0  0  0
  5  6  1  0  0  0  0
  5  7  2  0  0  0  0
  7  8  1  0  0  0  0
  9  7  1  0  0  0  0
  9 10  1  0  0  0  0
 11  9  2  0  0  0  0
 12 11  1  0  0  0  0
 13  4  2  0  0  0  0
 13 11  1  0  0  0  0
 14  2  1  0  0  0  0
 14 23  1  0  0  0  0
 15 14  2  0  0  0  0
 16 15  1  0  0  0  0
 17 15  1  0  0  0  0
 17 19  2  0  0  0  0
 18 17  1  0  0  0  0
 19 21  1  0  0  0  0
 20 19  1  0  0  0  0
 21 23  2  0  0  0  0
 21 22  1  0  0  0  0
 23  3  1  0  0  0  0
 24 27  1  0  0  0  0
 24 25  1  0  0  0  0
 26 24  1  0  0  0  0
 28  1  1  0  0  0  0
 29 28  1  0  0  0  0
 30 28  1  0  0  0  0
 31 28  1  0  0  0  0
 32 35  1  0  0  0  0
 32 34  1  0  0  0  0
 33 32  1  0  0  0  0
 36 38  1  0  0  0  0
 36 37  1  0  0  0  0
 39 36  1  0  0  0  0
M  END
