1,2
 OpenBabel05122313053D

 60 63  0  0  1  0  0  0  0  0999 V2000
    1.2609   -0.0823    0.0230 N   0  0  0  0  0  2  0  0  0  0  0  0
   -1.4012    0.0542    0.0107 N   0  0  0  0  0  2  0  0  0  0  0  0
    3.2876   -0.5785    1.2947 C   0  0  0  0  0  0  0  0  0  0  0  0
   -0.7356    1.1745    0.0961 C   0  0  0  0  0  0  0  0  0  0  0  0
    0.7232    1.1062    0.1182 C   0  0  0  0  0  0  0  0  0  0  0  0
    2.6708   -0.2997    0.0529 C   0  0  0  0  0  0  0  0  0  0  0  0
    4.6823   -0.7614    1.3011 C   0  0  0  0  0  0  0  0  0  0  0  0
    5.1848   -0.9708    2.2581 H   0  0  0  0  0  0  0  0  0  0  0  0
    2.4608   -0.7537    2.5391 C   0  0  0  0  0  0  0  0  0  0  0  0
    1.8004    0.1141    2.7426 H   0  0  0  0  0  0  0  0  0  0  0  0
    3.1006   -0.9145    3.4267 H   0  0  0  0  0  0  0  0  0  0  0  0
    1.7974   -1.6374    2.4164 H   0  0  0  0  0  0  0  0  0  0  0  0
    5.4244   -0.7069    0.1136 C   0  0  0  0  0  0  0  0  0  0  0  0
    6.5144   -0.8549    0.1392 H   0  0  0  0  0  0  0  0  0  0  0  0
   -2.8283    0.0327    0.0455 C   0  0  0  0  0  0  0  0  0  0  0  0
    1.2158    2.5329    0.3170 C   0  0  1  0  0  0  0  0  0  0  0  0
   -1.1054    2.6225    0.2616 C   0  0  2  0  0  0  0  0  0  0  0  0
   -2.1285    2.8914   -0.0580 H   0  0  0  0  0  0  0  0  0  0  0  0
    0.0882    3.2980   -0.5087 C   0  0  0  0  0  0  0  0  0  0  0  0
    4.7742   -0.4999   -1.1104 C   0  0  0  0  0  0  0  0  0  0  0  0
    5.3492   -0.5012   -2.0494 H   0  0  0  0  0  0  0  0  0  0  0  0
    3.3828   -0.3068   -1.1689 C   0  0  0  0  0  0  0  0  0  0  0  0
   -0.7679    2.9464    1.7483 C   0  0  0  0  0  0  0  0  0  0  0  0
   -1.1390    3.9561    2.0099 H   0  0  0  0  0  0  0  0  0  0  0  0
   -1.2581    2.2334    2.4383 H   0  0  0  0  0  0  0  0  0  0  0  0
    0.7847    2.8665    1.7899 C   0  0  0  0  0  0  0  0  0  0  0  0
    1.1618    2.1025    2.4970 H   0  0  0  0  0  0  0  0  0  0  0  0
    1.2431    3.8298    2.0890 H   0  0  0  0  0  0  0  0  0  0  0  0
    2.6545   -0.1622   -2.4773 C   0  0  0  0  0  0  0  0  0  0  0  0
    1.8858   -0.9595   -2.5695 H   0  0  0  0  0  0  0  0  0  0  0  0
    3.3509   -0.2450   -3.3324 H   0  0  0  0  0  0  0  0  0  0  0  0
    2.1233    0.8084   -2.5624 H   0  0  0  0  0  0  0  0  0  0  0  0
    0.1090    2.9611   -2.0054 C   0  0  0  0  0  0  0  0  0  0  0  0
    0.0548    1.8719   -2.2037 H   0  0  0  0  0  0  0  0  0  0  0  0
    1.0355    3.3430   -2.4794 H   0  0  0  0  0  0  0  0  0  0  0  0
   -0.7478    3.4380   -2.5230 H   0  0  0  0  0  0  0  0  0  0  0  0
    2.6648    2.8565   -0.0026 C   0  0  0  0  0  0  0  0  0  0  0  0
    3.3559    2.3068    0.6646 H   0  0  0  0  0  0  0  0  0  0  0  0
    2.8495    3.9410    0.1326 H   0  0  0  0  0  0  0  0  0  0  0  0
    2.9305    2.5849   -1.0420 H   0  0  0  0  0  0  0  0  0  0  0  0
   -3.5490    0.2586   -1.1500 C   0  0  0  0  0  0  0  0  0  0  0  0
   -2.6551   -0.6569    2.4819 C   0  0  0  0  0  0  0  0  0  0  0  0
   -2.1326   -1.6184    2.2853 H   0  0  0  0  0  0  0  0  0  0  0  0
   -3.2998   -0.7802    3.3721 H   0  0  0  0  0  0  0  0  0  0  0  0
   -1.8695    0.0888    2.7226 H   0  0  0  0  0  0  0  0  0  0  0  0
    0.1333    4.8220   -0.3535 C   0  0  0  0  0  0  0  0  0  0  0  0
    1.0156    5.2376   -0.8801 H   0  0  0  0  0  0  0  0  0  0  0  0
    0.1791    5.1655    0.6965 H   0  0  0  0  0  0  0  0  0  0  0  0
   -0.7676    5.2743   -0.8153 H   0  0  0  0  0  0  0  0  0  0  0  0
   -5.6113   -0.0215    0.1310 C   0  0  0  0  0  0  0  0  0  0  0  0
   -6.7109   -0.0380    0.1663 H   0  0  0  0  0  0  0  0  0  0  0  0
   -4.8698   -0.2832    1.2909 C   0  0  0  0  0  0  0  0  0  0  0  0
   -5.3852   -0.5168    2.2354 H   0  0  0  0  0  0  0  0  0  0  0  0
   -3.4638   -0.2783    1.2714 C   0  0  0  0  0  0  0  0  0  0  0  0
   -4.9536    0.2334   -1.0795 C   0  0  0  0  0  0  0  0  0  0  0  0
   -5.5341    0.4028   -1.9997 H   0  0  0  0  0  0  0  0  0  0  0  0
   -2.8251    0.4680   -2.4531 C   0  0  0  0  0  0  0  0  0  0  0  0
   -3.5310    0.4561   -3.3045 H   0  0  0  0  0  0  0  0  0  0  0  0
   -2.0711   -0.3319   -2.6112 H   0  0  0  0  0  0  0  0  0  0  0  0
   -2.2820    1.4353   -2.4814 H   0  0  0  0  0  0  0  0  0  0  0  0
  1  6  1  0  0  0  0
  1  5  1  0  0  0  0
  2 15  1  0  0  0  0
  2  4  1  0  0  0  0
  3  7  1  0  0  0  0
  3  9  1  0  0  0  0
  4  5  2  0  0  0  0
  4 17  1  0  0  0  0
  5 16  1  0  0  0  0
  6  3  2  0  0  0  0
  7  8  1  0  0  0  0
  9 10  1  0  0  0  0
  9 11  1  0  0  0  0
 12  9  1  0  0  0  0
 13 14  1  0  0  0  0
 13  7  2  0  0  0  0
 15 54  1  0  0  0  0
 16 37  1  6  0  0  0
 16 26  1  0  0  0  0
 17 18  1  6  0  0  0
 17 23  1  0  0  0  0
 19 46  1  0  0  0  0
 19 17  1  0  0  0  0
 19 16  1  0  0  0  0
 20 13  1  0  0  0  0
 21 20  1  0  0  0  0
 22 20  2  0  0  0  0
 22  6  1  0  0  0  0
 23 26  1  0  0  0  0
 23 24  1  0  0  0  0
 23 25  1  0  0  0  0
 26 28  1  0  0  0  0
 26 27  1  0  0  0  0
 29 22  1  0  0  0  0
 30 29  1  0  0  0  0
 31 29  1  0  0  0  0
 32 29  1  0  0  0  0
 33 19  1  0  0  0  0
 34 33  1  0  0  0  0
 35 33  1  0  0  0  0
 36 33  1  0  0  0  0
 37 39  1  0  0  0  0
 37 38  1  0  0  0  0
 40 37  1  0  0  0  0
 41 55  1  0  0  0  0
 41 15  2  0  0  0  0
 42 45  1  0  0  0  0
 42 44  1  0  0  0  0
 43 42  1  0  0  0  0
 46 48  1  0  0  0  0
 47 46  1  0  0  0  0
 49 46  1  0  0  0  0
 50 51  1  0  0  0  0
 50 52  1  0  0  0  0
 52 53  1  0  0  0  0
 54 52  2  0  0  0  0
 54 42  1  0  0  0  0
 55 50  2  0  0  0  0
 56 55  1  0  0  0  0
 57 41  1  0  0  0  0
 58 57  1  0  0  0  0
 59 57  1  0  0  0  0
 60 57  1  0  0  0  0
M  END
