5,6
 OpenBabel05122313053D

 32 33  0  0  1  0  0  0  0  0999 V2000
   -2.7023   -4.8110   -1.7499 O   0  0  0  0  0  0  0  0  0  0  0  0
   -4.0999   -3.1435   -1.0959 O   0  0  0  0  0  0  0  0  0  0  0  0
   -3.8584    4.7969    0.8374 O   0  0  0  0  0  0  0  0  0  0  0  0
   -4.8207    2.7779    0.4347 O   0  0  0  0  0  0  0  0  0  0  0  0
    0.2976   -0.7928   -1.0974 N   0  0  0  0  0  2  0  0  0  0  0  0
   -0.0025    1.7466   -0.3508 N   0  0  0  0  0  2  0  0  0  0  0  0
    0.5388   -2.0741   -1.4524 C   0  0  0  0  0  3  0  0  0  0  0  0
    1.5881   -2.3401   -1.6310 H   0  0  0  0  0  0  0  0  0  0  0  0
   -0.4807   -3.0189   -1.5714 C   0  0  0  0  0  0  0  0  0  0  0  0
   -0.2634   -4.0573   -1.8561 H   0  0  0  0  0  0  0  0  0  0  0  0
   -1.8030   -2.6303   -1.2995 C   0  0  0  0  0  0  0  0  0  0  0  0
   -2.0528   -1.3026   -0.9262 C   0  0  0  0  0  0  0  0  0  0  0  0
   -3.0796   -0.9916   -0.7011 H   0  0  0  0  0  0  0  0  0  0  0  0
   -0.9818   -0.4017   -0.8264 C   0  0  0  0  0  0  0  0  0  0  0  0
   -1.1495    1.0084   -0.4264 C   0  0  2  0  0  3  0  0  0  0  0  0
   -2.3994    1.5847   -0.1465 C   0  0  0  0  0  0  0  0  0  0  0  0
   -3.3200    0.9918   -0.2026 H   0  0  0  0  0  0  0  0  0  0  0  0
   -2.4747    2.9372    0.2128 C   0  0  0  0  0  0  0  0  0  0  0  0
   -1.2852    3.6852    0.2802 C   0  0  0  0  0  0  0  0  0  0  0  0
   -1.3229    4.7465    0.5618 H   0  0  0  0  0  0  0  0  0  0  0  0
   -0.0766    3.0527   -0.0053 C   0  0  0  0  0  0  0  0  0  0  0  0
    0.8787    3.5932    0.0472 H   0  0  0  0  0  0  0  0  0  0  0  0
   -2.8894   -3.6570   -1.4131 C   0  0  0  0  0  0  0  0  0  0  0  0
   -5.1952   -4.0678   -1.1703 C   0  0  0  0  0  0  0  0  0  0  0  0
   -5.2978   -4.4696   -2.1981 H   0  0  0  0  0  0  0  0  0  0  0  0
   -6.0962   -3.4982   -0.8836 H   0  0  0  0  0  0  0  0  0  0  0  0
   -5.0349   -4.9181   -0.4780 H   0  0  0  0  0  0  0  0  0  0  0  0
   -3.7698    3.6225    0.5306 C   0  0  0  0  0  0  0  0  0  0  0  0
   -6.1011    3.3557    0.7308 C   0  0  0  0  0  0  0  0  0  0  0  0
   -6.1212    3.7470    1.7674 H   0  0  0  0  0  0  0  0  0  0  0  0
   -6.8386    2.5437    0.6076 H   0  0  0  0  0  0  0  0  0  0  0  0
   -6.3212    4.1918    0.0375 H   0  0  0  0  0  0  0  0  0  0  0  0
  1 23  2  0  0  0  0
  4 28  1  0  0  0  0
  4 29  1  0  0  0  0
  5 14  1  0  0  0  0
  6 21  1  0  0  0  0
  7  5  1  0  0  0  0
  8  7  1  0  0  0  0
  9  7  1  0  0  0  0
  9 11  2  0  0  0  0
 10  9  1  0  0  0  0
 11 12  1  0  0  0  0
 12 14  2  0  0  0  0
 12 13  1  0  0  0  0
 15 14  1  6  0  0  0
 15  6  1  0  0  0  0
 15 16  1  0  0  0  0
 16 18  2  0  0  0  0
 17 16  1  0  0  0  0
 18 19  1  0  0  0  0
 18 28  1  0  0  0  0
 19 20  1  0  0  0  0
 21 22  1  0  0  0  0
 21 19  2  0  0  0  0
 23 11  1  0  0  0  0
 23  2  1  0  0  0  0
 24  2  1  0  0  0  0
 24 26  1  0  0  0  0
 24 27  1  0  0  0  0
 25 24  1  0  0  0  0
 28  3  2  0  0  0  0
 29 30  1  0  0  0  0
 31 29  1  0  0  0  0
 32 29  1  0  0  0  0
M  END
