1,2
 OpenBabel05122313053D

 34 38  0  0  0  0  0  0  0  0999 V2000
    1.8309    1.3190   -0.0000 N   0  0  0  0  0  2  0  0  0  0  0  0
    1.8309   -1.3190    0.0000 N   0  0  0  0  0  2  0  0  0  0  0  0
   -3.0133   -1.4198   -0.0000 N   0  0  0  0  0  0  0  0  0  0  0  0
   -3.0133    1.4198    0.0000 N   0  0  0  0  0  0  0  0  0  0  0  0
   -8.8679    2.0416    0.0001 N   0  0  0  0  0  0  0  0  0  0  0  0
   -8.8678   -2.0417   -0.0000 N   0  0  0  0  0  0  0  0  0  0  0  0
    1.9010    2.6681   -0.0000 C   0  0  0  0  0  0  0  0  0  0  0  0
    2.9277    3.0720    0.0000 H   0  0  0  0  0  0  0  0  0  0  0  0
    0.7437    3.4636    0.0000 C   0  0  0  0  0  0  0  0  0  0  0  0
    0.8544    4.5572    0.0000 H   0  0  0  0  0  0  0  0  0  0  0  0
   -0.5220    2.8693   -0.0000 C   0  0  0  0  0  0  0  0  0  0  0  0
   -1.4501    3.4575    0.0000 H   0  0  0  0  0  0  0  0  0  0  0  0
   -0.6063    1.4611   -0.0000 C   0  0  0  0  0  0  0  0  0  0  0  0
   -1.8747    0.7282   -0.0000 C   0  0  0  0  0  0  0  0  0  0  0  0
   -1.8747   -0.7282   -0.0000 C   0  0  0  0  0  0  0  0  0  0  0  0
   -0.6063   -1.4611   -0.0000 C   0  0  0  0  0  0  0  0  0  0  0  0
   -0.5220   -2.8693    0.0000 C   0  0  0  0  0  0  0  0  0  0  0  0
   -1.4501   -3.4575    0.0000 H   0  0  0  0  0  0  0  0  0  0  0  0
    0.7437   -3.4636    0.0000 C   0  0  0  0  0  0  0  0  0  0  0  0
    0.8544   -4.5572    0.0000 H   0  0  0  0  0  0  0  0  0  0  0  0
    1.9010   -2.6681    0.0000 C   0  0  0  0  0  0  0  0  0  0  0  0
    2.9277   -3.0720    0.0000 H   0  0  0  0  0  0  0  0  0  0  0  0
    0.5966   -0.7201   -0.0000 C   0  0  0  0  0  0  0  0  0  0  0  0
    0.5966    0.7201   -0.0000 C   0  0  0  0  0  0  0  0  0  0  0  0
   -4.1738    0.7231    0.0000 C   0  0  0  0  0  0  0  0  0  0  0  0
   -5.4135    1.4223    0.0000 C   0  0  0  0  0  0  0  0  0  0  0  0
   -5.3937    2.5207    0.0000 H   0  0  0  0  0  0  0  0  0  0  0  0
   -6.6185    0.7253    0.0000 C   0  0  0  0  0  0  0  0  0  0  0  0
   -6.6185   -0.7253   -0.0000 C   0  0  0  0  0  0  0  0  0  0  0  0
   -5.4135   -1.4223   -0.0000 C   0  0  0  0  0  0  0  0  0  0  0  0
   -5.3938   -2.5207   -0.0000 H   0  0  0  0  0  0  0  0  0  0  0  0
   -4.1738   -0.7230   -0.0000 C   0  0  0  0  0  0  0  0  0  0  0  0
   -7.8597    1.4409    0.0000 C   0  0  0  0  0  0  0  0  0  0  0  0
   -7.8597   -1.4409   -0.0000 C   0  0  0  0  0  0  0  0  0  0  0  0
  1  7  1  0  0  0  0
  2 21  1  0  0  0  0
  3 15  2  0  0  0  0
  3 32  1  0  0  0  0
  7  9  2  0  0  0  0
  7  8  1  0  0  0  0
  9 10  1  0  0  0  0
 11  9  1  0  0  0  0
 11 12  1  0  0  0  0
 13 14  1  0  0  0  0
 13 11  2  0  0  0  0
 14  4  2  0  0  0  0
 15 16  1  0  0  0  0
 15 14  1  0  0  0  0
 16 23  1  0  0  0  0
 16 17  2  0  0  0  0
 17 18  1  0  0  0  0
 17 19  1  0  0  0  0
 19 21  2  0  0  0  0
 19 20  1  0  0  0  0
 21 22  1  0  0  0  0
 23  2  1  0  0  0  0
 24  1  1  0  0  0  0
 24 13  1  0  0  0  0
 24 23  2  0  0  0  0
 25  4  1  0  0  0  0
 25 26  1  0  0  0  0
 26 27  1  0  0  0  0
 28 26  2  0  0  0  0
 28 33  1  0  0  0  0
 29 28  1  0  0  0  0
 30 32  1  0  0  0  0
 30 29  2  0  0  0  0
 31 30  1  0  0  0  0
 32 25  2  0  0  0  0
 33  5  3  0  0  0  0
 34  6  3  0  0  0  0
 34 29  1  0  0  0  0
M  END
