1,16
 OpenBabel05122313053D

 47 50  0  0  0  0  0  0  0  0999 V2000
   -1.8203   -1.3381    1.1766 N   0  0  0  0  0  2  0  0  0  0  0  0
   -0.6271   -1.9605    1.1542 N   0  0  0  0  0  0  0  0  0  0  0  0
   -2.2754   -1.4052    2.4381 C   0  0  0  0  0  3  0  0  0  0  0  0
   -3.2527   -0.9568    2.6615 H   0  0  0  0  0  0  0  0  0  0  0  0
   -1.3441   -2.0877    3.2531 C   0  0  0  0  0  0  0  0  0  0  0  0
   -1.4236   -2.3141    4.3208 H   0  0  0  0  0  0  0  0  0  0  0  0
   -0.2976   -2.4250    2.3927 C   0  0  0  0  0  0  0  0  0  0  0  0
    0.6413   -2.9653    2.5597 H   0  0  0  0  0  0  0  0  0  0  0  0
    0.1809   -1.9601   -0.0787 C   0  0  0  0  0  0  0  0  0  0  0  0
    0.9527   -2.7455    0.0755 H   0  0  0  0  0  0  0  0  0  0  0  0
   -0.4988   -2.2598   -0.9063 H   0  0  0  0  0  0  0  0  0  0  0  0
    0.3976    0.0498   -1.5436 C   0  0  0  0  0  0  0  0  0  0  0  0
   -0.2249   -0.6051   -2.1911 H   0  0  0  0  0  0  0  0  0  0  0  0
    1.2849    0.4007   -2.1107 H   0  0  0  0  0  0  0  0  0  0  0  0
   -0.4010    1.2742   -1.3093 N   0  0  0  0  0  0  0  0  0  0  0  0
   -1.6329    1.2023   -0.7693 N   0  0  0  0  0  2  0  0  0  0  0  0
   -0.0631    2.5642   -1.5786 C   0  0  0  0  0  3  0  0  0  0  0  0
    0.9191    2.8147   -1.9924 H   0  0  0  0  0  0  0  0  0  0  0  0
   -1.1345    3.3657   -1.1850 C   0  0  0  0  0  0  0  0  0  0  0  0
   -1.2026    4.4558   -1.2484 H   0  0  0  0  0  0  0  0  0  0  0  0
   -2.0944    2.4618   -0.6809 C   0  0  0  0  0  0  0  0  0  0  0  0
   -3.0987    2.6180   -0.2648 H   0  0  0  0  0  0  0  0  0  0  0  0
    0.7646   -0.6833   -0.3690 N   0  0  0  0  0  0  0  0  0  0  0  0
    1.9066   -0.2884    0.4579 C   0  0  0  0  0  0  0  0  0  0  0  0
    1.7117   -0.7280    1.4620 H   0  0  0  0  0  0  0  0  0  0  0  0
    3.2392   -0.8761   -0.0140 C   0  0  0  0  0  0  0  0  0  0  0  0
    3.3682   -1.5518   -1.2400 C   0  0  0  0  0  0  0  0  0  0  0  0
    2.4885   -1.6708   -1.8902 H   0  0  0  0  0  0  0  0  0  0  0  0
    4.6046   -2.0898   -1.6368 C   0  0  0  0  0  0  0  0  0  0  0  0
    4.6854   -2.6146   -2.6008 H   0  0  0  0  0  0  0  0  0  0  0  0
    5.7275   -1.9632   -0.8077 C   0  0  0  0  0  0  0  0  0  0  0  0
    6.6957   -2.3851   -1.1168 H   0  0  0  0  0  0  0  0  0  0  0  0
    5.6066   -1.2990    0.4253 C   0  0  0  0  0  0  0  0  0  0  0  0
    6.4808   -1.2008    1.0869 H   0  0  0  0  0  0  0  0  0  0  0  0
    4.3734   -0.7629    0.8174 C   0  0  0  0  0  0  0  0  0  0  0  0
    4.2857   -0.2377    1.7819 H   0  0  0  0  0  0  0  0  0  0  0  0
    1.9400    1.2219    0.6965 C   0  0  0  0  0  0  0  0  0  0  0  0
    2.8968    2.0605    0.0979 C   0  0  0  0  0  0  0  0  0  0  0  0
    3.6799    1.6236   -0.5398 H   0  0  0  0  0  0  0  0  0  0  0  0
    2.8632    3.4483    0.3181 C   0  0  0  0  0  0  0  0  0  0  0  0
    3.6205    4.0936   -0.1528 H   0  0  0  0  0  0  0  0  0  0  0  0
    1.8714    4.0086    1.1355 C   0  0  0  0  0  0  0  0  0  0  0  0
    1.8446    5.0952    1.3076 H   0  0  0  0  0  0  0  0  0  0  0  0
    0.9102    3.1758    1.7345 C   0  0  0  0  0  0  0  0  0  0  0  0
    0.1242    3.6079    2.3717 H   0  0  0  0  0  0  0  0  0  0  0  0
    0.9477    1.7932    1.5191 C   0  0  0  0  0  0  0  0  0  0  0  0
    0.1816    1.1440    1.9725 H   0  0  0  0  0  0  0  0  0  0  0  0
  1  3  1  0  0  0  0
  2  1  1  0  0  0  0
  2  7  1  0  0  0  0
  3  4  1  0  0  0  0
  3  5  1  0  0  0  0
  5  6  1  0  0  0  0
  7  8  1  0  0  0  0
  7  5  2  0  0  0  0
  9 10  1  0  0  0  0
  9  2  1  0  0  0  0
 11  9  1  0  0  0  0
 12 15  1  0  0  0  0
 12 23  1  0  0  0  0
 13 12  1  0  0  0  0
 14 12  1  0  0  0  0
 15 16  1  0  0  0  0
 16 21  1  0  0  0  0
 17 15  1  0  0  0  0
 17 19  1  0  0  0  0
 18 17  1  0  0  0  0
 19 21  2  0  0  0  0
 20 19  1  0  0  0  0
 21 22  1  0  0  0  0
 23  9  1  0  0  0  0
 23 24  1  0  0  0  0
 24 37  1  0  0  0  0
 24 25  1  0  0  0  0
 26 24  1  0  0  0  0
 26 35  1  0  0  0  0
 27 26  2  0  0  0  0
 28 27  1  0  0  0  0
 29 27  1  0  0  0  0
 29 31  2  0  0  0  0
 30 29  1  0  0  0  0
 31 33  1  0  0  0  0
 32 31  1  0  0  0  0
 33 35  2  0  0  0  0
 33 34  1  0  0  0  0
 35 36  1  0  0  0  0
 37 46  1  0  0  0  0
 38 40  1  0  0  0  0
 38 37  2  0  0  0  0
 39 38  1  0  0  0  0
 40 42  2  0  0  0  0
 41 40  1  0  0  0  0
 42 43  1  0  0  0  0
 42 44  1  0  0  0  0
 44 45  1  0  0  0  0
 46 44  2  0  0  0  0
 46 47  1  0  0  0  0
M  END
