1,2
 OpenBabel05122313053D

 30 31  0  0  0  0  0  0  0  0999 V2000
   -0.2012    1.2865   -0.9857 N   0  0  0  0  0  2  0  0  0  0  0  0
   -2.4423    1.6894    0.3794 N   0  0  0  0  0  2  0  0  0  0  0  0
   -0.5820    2.5282   -0.8622 C   0  0  0  0  0  0  0  0  0  0  0  0
    0.0068    3.3761   -1.2571 H   0  0  0  0  0  0  0  0  0  0  0  0
   -1.8596    2.7825   -0.2058 C   0  0  0  0  0  0  0  0  0  0  0  0
   -2.4635    4.0539   -0.1655 C   0  0  0  0  0  0  0  0  0  0  0  0
   -1.9642    4.9085   -0.6454 H   0  0  0  0  0  0  0  0  0  0  0  0
   -3.6967    4.2021    0.4787 C   0  0  0  0  0  0  0  0  0  0  0  0
   -4.1896    5.1842    0.5229 H   0  0  0  0  0  0  0  0  0  0  0  0
   -4.2942    3.0733    1.0659 C   0  0  0  0  0  0  0  0  0  0  0  0
   -5.2583    3.1454    1.5891 H   0  0  0  0  0  0  0  0  0  0  0  0
   -3.6338    1.8401    0.9897 C   0  0  0  0  0  0  0  0  0  0  0  0
   -4.0655    0.9351    1.4465 H   0  0  0  0  0  0  0  0  0  0  0  0
    1.0531    0.8970   -1.5022 C   0  0  0  0  0  0  0  0  0  0  0  0
    1.0300   -0.1869   -2.4097 C   0  0  0  0  0  0  0  0  0  0  0  0
    0.0568   -0.6266   -2.6737 H   0  0  0  0  0  0  0  0  0  0  0  0
    2.2158   -0.6518   -2.9745 C   0  0  0  0  0  0  0  0  0  0  0  0
    2.1965   -1.4709   -3.7083 H   0  0  0  0  0  0  0  0  0  0  0  0
    3.4362   -0.0753   -2.5883 C   0  0  0  0  0  0  0  0  0  0  0  0
    4.3768   -0.4450   -3.0249 H   0  0  0  0  0  0  0  0  0  0  0  0
    3.4888    0.9640   -1.6409 C   0  0  0  0  0  0  0  0  0  0  0  0
    2.2840    1.4771   -1.0830 C   0  0  0  0  0  0  0  0  0  0  0  0
    4.8208    1.5290   -1.2194 C   0  0  0  0  0  0  0  0  0  0  0  0
    5.6511    1.0591   -1.7789 H   0  0  0  0  0  0  0  0  0  0  0  0
    5.0058    1.3646   -0.1365 H   0  0  0  0  0  0  0  0  0  0  0  0
    4.8761    2.6247   -1.3849 H   0  0  0  0  0  0  0  0  0  0  0  0
    2.3633    2.5601   -0.0389 C   0  0  0  0  0  0  0  0  0  0  0  0
    3.1944    2.3609    0.6639 H   0  0  0  0  0  0  0  0  0  0  0  0
    1.4421    2.6379    0.5664 H   0  0  0  0  0  0  0  0  0  0  0  0
    2.5593    3.5561   -0.4914 H   0  0  0  0  0  0  0  0  0  0  0  0
  1  3  1  0  0  0  0
  2 12  1  0  0  0  0
  3  5  2  0  0  0  0
  4  3  1  0  0  0  0
  5  6  1  0  0  0  0
  5  2  1  0  0  0  0
  6  8  2  0  0  0  0
  7  6  1  0  0  0  0
  8  9  1  0  0  0  0
  8 10  1  0  0  0  0
 10 11  1  0  0  0  0
 12 10  2  0  0  0  0
 12 13  1  0  0  0  0
 14 22  1  0  0  0  0
 14  1  1  0  0  0  0
 15 14  2  0  0  0  0
 16 15  1  0  0  0  0
 17 19  2  0  0  0  0
 17 15  1  0  0  0  0
 18 17  1  0  0  0  0
 19 21  1  0  0  0  0
 20 19  1  0  0  0  0
 21 23  1  0  0  0  0
 21 22  2  0  0  0  0
 22 27  1  0  0  0  0
 23 25  1  0  0  0  0
 24 23  1  0  0  0  0
 26 23  1  0  0  0  0
 27 29  1  0  0  0  0
 27 28  1  0  0  0  0
 30 27  1  0  0  0  0
M  END
