1,2
 OpenBabel05122313053D

 31 33  0  0  1  0  0  0  0  0999 V2000
   -2.2128   -1.0349   -1.1394 N   0  0  0  0  0  2  0  0  0  0  0  0
   -0.0219   -1.4338    0.4345 N   0  0  0  0  0  2  0  0  0  0  0  0
    1.0288   -1.9755    1.0748 N   0  0  0  0  0  0  0  0  0  0  0  0
   -3.2834   -0.7619   -1.8982 C   0  0  0  0  0  3  0  0  0  0  0  0
   -3.2024    0.1721   -2.4856 H   0  0  0  0  0  0  0  0  0  0  0  0
   -4.4061   -1.6043   -1.9403 C   0  0  0  0  0  0  0  0  0  0  0  0
   -5.2581   -1.3545   -2.5887 H   0  0  0  0  0  0  0  0  0  0  0  0
   -4.4060   -2.7591   -1.1450 C   0  0  0  0  0  0  0  0  0  0  0  0
   -5.2680   -3.4436   -1.1486 H   0  0  0  0  0  0  0  0  0  0  0  0
   -3.2922   -3.0356   -0.3429 C   0  0  0  0  0  0  0  0  0  0  0  0
   -3.2629   -3.9286    0.2971 H   0  0  0  0  0  0  0  0  0  0  0  0
   -2.1973   -2.1485   -0.3718 C   0  0  0  0  0  0  0  0  0  0  0  0
   -0.9635   -2.3958    0.3846 C   0  0  1  0  0  3  0  0  0  0  0  0
   -0.5063   -3.5732    1.0398 C   0  0  0  0  0  0  0  0  0  0  0  0
   -1.0260   -4.5283    1.1592 H   0  0  0  0  0  0  0  0  0  0  0  0
    0.7819   -3.2681    1.4593 C   0  0  0  0  0  0  0  0  0  0  0  0
    1.5469   -3.8586    1.9748 H   0  0  0  0  0  0  0  0  0  0  0  0
    2.2519   -1.2460    1.2112 C   0  0  0  0  0  0  0  0  0  0  0  0
    2.2321   -0.0219    1.8982 C   0  0  0  0  0  0  0  0  0  0  0  0
    1.2858    0.3482    2.3181 H   0  0  0  0  0  0  0  0  0  0  0  0
    3.4231    0.6984    2.0474 C   0  0  0  0  0  0  0  0  0  0  0  0
    3.4102    1.6612    2.5785 H   0  0  0  0  0  0  0  0  0  0  0  0
    3.4475   -1.7783    0.6815 C   0  0  0  0  0  0  0  0  0  0  0  0
    4.6374   -1.0510    0.8775 C   0  0  0  0  0  0  0  0  0  0  0  0
    5.5764   -1.4815    0.5002 H   0  0  0  0  0  0  0  0  0  0  0  0
    4.6250    0.1873    1.5309 C   0  0  0  0  0  0  0  0  0  0  0  0
    5.5618    0.7515    1.6512 H   0  0  0  0  0  0  0  0  0  0  0  0
    3.5467   -3.1451    0.0289 C   0  0  0  0  0  0  0  0  0  0  0  0
    2.7197   -3.4300   -0.9742 O   0  0  0  0  0  0  0  0  0  0  0  0
    2.2277   -2.6307   -1.3609 H   0  0  0  0  0  0  0  0  0  0  0  0
    4.3583   -3.9528    0.4500 O   0  0  0  0  0  0  0  0  0  0  0  0
  1 12  1  0  0  0  0
  2  3  1  0  0  0  0
  3 18  1  0  0  0  0
  3 16  1  0  0  0  0
  4  1  1  0  0  0  0
  5  4  1  0  0  0  0
  6  4  1  0  0  0  0
  6  8  2  0  0  0  0
  7  6  1  0  0  0  0
  8 10  1  0  0  0  0
  9  8  1  0  0  0  0
 10 11  1  0  0  0  0
 12 10  2  0  0  0  0
 13 12  1  6  0  0  0
 13  2  1  0  0  0  0
 13 14  1  0  0  0  0
 14 15  1  0  0  0  0
 14 16  2  0  0  0  0
 16 17  1  0  0  0  0
 18 19  1  0  0  0  0
 19 21  2  0  0  0  0
 19 20  1  0  0  0  0
 21 22  1  0  0  0  0
 23 24  1  0  0  0  0
 23 18  2  0  0  0  0
 24 26  2  0  0  0  0
 25 24  1  0  0  0  0
 26 27  1  0  0  0  0
 26 21  1  0  0  0  0
 28 31  2  0  0  0  0
 28 23  1  0  0  0  0
 29 28  1  0  0  0  0
 30 29  1  0  0  0  0
M  END
