1,2
 OpenBabel05122313053D

 22 22  0  0  0  0  0  0  0  0999 V2000
   -2.9902    0.6419   -0.1808 N   0  0  0  0  0  0  0  0  0  0  0  0
   -1.7520   -1.5835   -0.1481 N   0  0  0  0  0  0  0  0  0  0  0  0
   -3.6108   -0.2632   -1.1772 C   0  0  0  0  0  0  0  0  0  0  0  0
   -2.8699   -1.6218   -1.1411 C   0  0  0  0  0  0  0  0  0  0  0  0
   -3.4912    0.4680    1.2094 C   0  0  0  0  0  0  0  0  0  0  0  0
   -3.5042   -1.0094    1.6003 C   0  0  0  0  0  0  0  0  0  0  0  0
   -2.2280   -1.7804    1.2628 C   0  0  0  0  0  0  0  0  0  0  0  0
   -0.7391   -2.6124   -0.4690 C   0  0  0  0  0  0  0  0  0  0  0  0
   -0.3021   -2.4046   -1.4618 H   0  0  0  0  0  0  0  0  0  0  0  0
   -1.2053   -3.6207   -0.4648 H   0  0  0  0  0  0  0  0  0  0  0  0
    0.0695   -2.5698    0.2806 H   0  0  0  0  0  0  0  0  0  0  0  0
   -3.4930    0.2068   -2.1710 H   0  0  0  0  0  0  0  0  0  0  0  0
   -4.7004   -0.3739   -0.9900 H   0  0  0  0  0  0  0  0  0  0  0  0
   -1.3847   -1.4917    1.9220 H   0  0  0  0  0  0  0  0  0  0  0  0
   -2.4131   -2.8664    1.4247 H   0  0  0  0  0  0  0  0  0  0  0  0
   -3.5493   -2.4720   -0.9131 H   0  0  0  0  0  0  0  0  0  0  0  0
   -2.4160   -1.8274   -2.1279 H   0  0  0  0  0  0  0  0  0  0  0  0
   -4.5194    0.8836    1.2951 H   0  0  0  0  0  0  0  0  0  0  0  0
   -2.8320    1.0695    1.8669 H   0  0  0  0  0  0  0  0  0  0  0  0
   -4.3749   -1.5095    1.1280 H   0  0  0  0  0  0  0  0  0  0  0  0
   -3.6801   -1.0905    2.6914 H   0  0  0  0  0  0  0  0  0  0  0  0
   -3.0801    1.6308   -0.4599 H   0  0  0  0  0  0  0  0  0  0  0  0
  1  5  1  0  0  0  0
  2  7  1  0  0  0  0
  3  4  1  0  0  0  0
  3 13  1  0  0  0  0
  3  1  1  0  0  0  0
  4 16  1  0  0  0  0
  4  2  1  0  0  0  0
  5 18  1  0  0  0  0
  5  6  1  0  0  0  0
  5 19  1  0  0  0  0
  6 21  1  0  0  0  0
  7 15  1  0  0  0  0
  7  6  1  0  0  0  0
  7 14  1  0  0  0  0
  8 10  1  0  0  0  0
  8  2  1  0  0  0  0
  8 11  1  0  0  0  0
  9  8  1  0  0  0  0
 12  3  1  0  0  0  0
 17  4  1  0  0  0  0
 20  6  1  0  0  0  0
 22  1  1  0  0  0  0
M  END
