1,2
 OpenBabel05122313053D

 28 28  0  0  0  0  0  0  0  0999 V2000
   -1.0509   -0.4770   -0.5973 N   0  0  0  0  0  0  0  0  0  0  0  0
    0.0594    1.8867    0.3730 N   0  0  0  0  0  0  0  0  0  0  0  0
   -1.2391   -1.5011   -1.6390 C   0  0  0  0  0  0  0  0  0  0  0  0
   -1.6994    0.8207   -0.8674 C   0  0  0  0  0  0  0  0  0  0  0  0
   -1.4258    1.8325    0.2555 C   0  0  0  0  0  0  0  0  0  0  0  0
   -1.2910   -2.6965    0.6735 C   0  0  0  0  0  0  0  0  0  0  0  0
   -1.8808   -1.7002   -0.3028 C   0  0  0  0  0  0  0  0  0  0  0  0
   -2.0277    1.3907    1.5933 C   0  0  0  0  0  0  0  0  0  0  0  0
   -1.9772    3.2078   -0.1524 C   0  0  0  0  0  0  0  0  0  0  0  0
   -3.3863   -1.5587   -0.1681 C   0  0  0  0  0  0  0  0  0  0  0  0
   -1.2320    1.1985   -1.7999 H   0  0  0  0  0  0  0  0  0  0  0  0
   -0.3376   -2.0661   -1.9201 H   0  0  0  0  0  0  0  0  0  0  0  0
   -1.6588    0.3947    1.8999 H   0  0  0  0  0  0  0  0  0  0  0  0
   -2.7912    0.7251   -1.0309 H   0  0  0  0  0  0  0  0  0  0  0  0
   -1.8842   -1.2125   -2.4862 H   0  0  0  0  0  0  0  0  0  0  0  0
    0.4622    2.3276   -0.4761 H   0  0  0  0  0  0  0  0  0  0  0  0
   -1.7384    3.9683    0.6186 H   0  0  0  0  0  0  0  0  0  0  0  0
   -3.0795    3.1787   -0.2654 H   0  0  0  0  0  0  0  0  0  0  0  0
   -1.7698    2.1104    2.3975 H   0  0  0  0  0  0  0  0  0  0  0  0
    0.3433    2.4343    1.1961 H   0  0  0  0  0  0  0  0  0  0  0  0
   -3.1322    1.3523    1.5207 H   0  0  0  0  0  0  0  0  0  0  0  0
   -1.8019   -3.6728    0.5499 H   0  0  0  0  0  0  0  0  0  0  0  0
   -1.5418    3.5411   -1.1163 H   0  0  0  0  0  0  0  0  0  0  0  0
   -3.6594   -1.1352    0.8202 H   0  0  0  0  0  0  0  0  0  0  0  0
   -1.4363   -2.3658    1.7210 H   0  0  0  0  0  0  0  0  0  0  0  0
   -0.2122   -2.8557    0.5086 H   0  0  0  0  0  0  0  0  0  0  0  0
   -3.8460   -2.5647   -0.2359 H   0  0  0  0  0  0  0  0  0  0  0  0
   -3.8479   -0.9393   -0.9588 H   0  0  0  0  0  0  0  0  0  0  0  0
  1  7  1  0  0  0  0
  2 20  1  0  0  0  0
  3  1  1  0  0  0  0
  3  7  1  0  0  0  0
  4  1  1  0  0  0  0
  4  5  1  0  0  0  0
  5  2  1  0  0  0  0
  5  8  1  0  0  0  0
  6 25  1  0  0  0  0
  7 10  1  0  0  0  0
  7  6  1  0  0  0  0
  8 13  1  0  0  0  0
  8 19  1  0  0  0  0
  9  5  1  0  0  0  0
  9 17  1  0  0  0  0
 10 24  1  0  0  0  0
 11  4  1  0  0  0  0
 12  3  1  0  0  0  0
 14  4  1  0  0  0  0
 15  3  1  0  0  0  0
 16  2  1  0  0  0  0
 18  9  1  0  0  0  0
 21  8  1  0  0  0  0
 22  6  1  0  0  0  0
 23  9  1  0  0  0  0
 26  6  1  0  0  0  0
 27 10  1  0  0  0  0
 28 10  1  0  0  0  0
M  END
