1,2
 OpenBabel05122313053D

 61 64  0  0  0  0  0  0  0  0999 V2000
   -1.4809    0.4041    0.4377 N   0  0  0  0  0  2  0  0  0  0  0  0
    0.9117    1.4638    0.5943 N   0  0  0  0  0  2  0  0  0  0  0  0
   -2.6864   -0.3466    0.3022 C   0  0  0  0  0  0  0  0  0  0  0  0
   -2.6881   -1.6765    0.7992 C   0  0  0  0  0  0  0  0  0  0  0  0
   -3.8817   -2.4089    0.6941 C   0  0  0  0  0  0  0  0  0  0  0  0
   -3.9181   -3.4371    1.0815 H   0  0  0  0  0  0  0  0  0  0  0  0
   -5.0171   -1.8580    0.0849 C   0  0  0  0  0  0  0  0  0  0  0  0
   -5.9416   -2.4500    0.0089 H   0  0  0  0  0  0  0  0  0  0  0  0
   -4.9671   -0.5680   -0.4555 C   0  0  0  0  0  0  0  0  0  0  0  0
   -5.8481   -0.1618   -0.9748 H   0  0  0  0  0  0  0  0  0  0  0  0
   -3.8023    0.2165   -0.3680 C   0  0  0  0  0  0  0  0  0  0  0  0
   -1.3920    1.4250    1.2642 C   0  0  0  0  0  0  0  0  0  0  0  0
   -2.5107    1.8875    2.1490 C   0  0  0  0  0  0  0  0  0  0  0  0
   -3.3500    1.1704    2.1287 H   0  0  0  0  0  0  0  0  0  0  0  0
   -2.8957    2.8728    1.8112 H   0  0  0  0  0  0  0  0  0  0  0  0
   -2.1616    2.0087    3.1939 H   0  0  0  0  0  0  0  0  0  0  0  0
   -0.0775    2.0727    1.3286 C   0  0  0  0  0  0  0  0  0  0  0  0
    0.1846    3.1981    2.1277 C   0  0  0  0  0  0  0  0  0  0  0  0
   -0.6319    3.6824    2.6786 H   0  0  0  0  0  0  0  0  0  0  0  0
    1.4961    3.6812    2.2094 C   0  0  0  0  0  0  0  0  0  0  0  0
    1.7285    4.5705    2.8133 H   0  0  0  0  0  0  0  0  0  0  0  0
    2.5118    2.9757    1.5598 C   0  0  0  0  0  0  0  0  0  0  0  0
    3.5667    3.2604    1.6750 H   0  0  0  0  0  0  0  0  0  0  0  0
    2.2079    1.8389    0.7760 C   0  0  0  0  0  0  0  0  0  0  0  0
    3.3056    1.0288    0.2062 C   0  0  0  0  0  0  0  0  0  0  0  0
    4.3019    1.6662   -0.5327 C   0  0  0  0  0  0  0  0  0  0  0  0
    4.2311    2.7503   -0.7071 H   0  0  0  0  0  0  0  0  0  0  0  0
    5.3401    0.9277   -1.1451 C   0  0  0  0  0  0  0  0  0  0  0  0
    6.0888    1.4492   -1.7594 H   0  0  0  0  0  0  0  0  0  0  0  0
    5.3867   -0.4499   -1.0021 C   0  0  0  0  0  0  0  0  0  0  0  0
    6.1745   -1.0368   -1.4993 H   0  0  0  0  0  0  0  0  0  0  0  0
    4.4279   -1.1367   -0.2032 C   0  0  0  0  0  0  0  0  0  0  0  0
    3.3737   -0.3915    0.4392 C   0  0  0  0  0  0  0  0  0  0  0  0
    2.4666   -1.0972    1.2833 C   0  0  0  0  0  0  0  0  0  0  0  0
    1.6768   -0.5499    1.8142 H   0  0  0  0  0  0  0  0  0  0  0  0
    2.5663   -2.4708    1.4515 C   0  0  0  0  0  0  0  0  0  0  0  0
    1.8527   -2.9914    2.1079 H   0  0  0  0  0  0  0  0  0  0  0  0
    3.5772   -3.2087    0.7833 C   0  0  0  0  0  0  0  0  0  0  0  0
    3.6361   -4.2998    0.9120 H   0  0  0  0  0  0  0  0  0  0  0  0
    4.4937   -2.5490   -0.0195 C   0  0  0  0  0  0  0  0  0  0  0  0
    5.2942   -3.1069   -0.5295 H   0  0  0  0  0  0  0  0  0  0  0  0
   -1.4340   -2.2618    1.4323 C   0  0  0  0  0  0  0  0  0  0  0  0
   -0.5741   -1.7610    0.9360 H   0  0  0  0  0  0  0  0  0  0  0  0
   -1.2757   -3.7628    1.1696 C   0  0  0  0  0  0  0  0  0  0  0  0
   -2.0460   -4.3691    1.6901 H   0  0  0  0  0  0  0  0  0  0  0  0
   -0.2874   -4.1108    1.5320 H   0  0  0  0  0  0  0  0  0  0  0  0
   -1.3321   -3.9722    0.0834 H   0  0  0  0  0  0  0  0  0  0  0  0
   -1.3605   -1.9307    2.9336 C   0  0  0  0  0  0  0  0  0  0  0  0
   -1.4108   -0.8378    3.1163 H   0  0  0  0  0  0  0  0  0  0  0  0
   -0.4121   -2.3026    3.3746 H   0  0  0  0  0  0  0  0  0  0  0  0
   -2.2003   -2.4006    3.4870 H   0  0  0  0  0  0  0  0  0  0  0  0
   -3.7281    1.5616   -1.0806 C   0  0  0  0  0  0  0  0  0  0  0  0
   -2.7941    2.0691   -0.7653 H   0  0  0  0  0  0  0  0  0  0  0  0
   -3.6126    1.3362   -2.6008 C   0  0  0  0  0  0  0  0  0  0  0  0
   -2.7584    0.6695   -2.8332 H   0  0  0  0  0  0  0  0  0  0  0  0
   -3.4683    2.3017   -3.1279 H   0  0  0  0  0  0  0  0  0  0  0  0
   -4.5343    0.8628   -2.9984 H   0  0  0  0  0  0  0  0  0  0  0  0
   -4.9024    2.4886   -0.7306 C   0  0  0  0  0  0  0  0  0  0  0  0
   -5.8680    2.0781   -1.0908 H   0  0  0  0  0  0  0  0  0  0  0  0
   -4.7705    3.4787   -1.2122 H   0  0  0  0  0  0  0  0  0  0  0  0
   -4.9964    2.6467    0.3633 H   0  0  0  0  0  0  0  0  0  0  0  0
  1 12  1  0  0  0  0
  2 24  1  0  0  0  0
  2 17  1  0  0  0  0
  3  1  1  0  0  0  0
  3  4  1  0  0  0  0
  4 42  1  0  0  0  0
  5  4  2  0  0  0  0
  5  6  1  0  0  0  0
  7  5  1  0  0  0  0
  8  7  1  0  0  0  0
  9 11  1  0  0  0  0
  9  7  2  0  0  0  0
 10  9  1  0  0  0  0
 11  3  2  0  0  0  0
 12 17  2  0  0  0  0
 12 13  1  0  0  0  0
 13 16  1  0  0  0  0
 14 13  1  0  0  0  0
 15 13  1  0  0  0  0
 17 18  1  0  0  0  0
 18 20  2  0  0  0  0
 18 19  1  0  0  0  0
 20 21  1  0  0  0  0
 22 23  1  0  0  0  0
 22 20  1  0  0  0  0
 24 22  2  0  0  0  0
 25 33  1  0  0  0  0
 25 24  1  0  0  0  0
 26 25  2  0  0  0  0
 27 26  1  0  0  0  0
 28 30  2  0  0  0  0
 28 26  1  0  0  0  0
 29 28  1  0  0  0  0
 30 32  1  0  0  0  0
 31 30  1  0  0  0  0
 32 40  2  0  0  0  0
 32 33  1  0  0  0  0
 33 34  2  0  0  0  0
 34 36  1  0  0  0  0
 34 35  1  0  0  0  0
 36 37  1  0  0  0  0
 38 39  1  0  0  0  0
 38 36  2  0  0  0  0
 40 38  1  0  0  0  0
 41 40  1  0  0  0  0
 42 48  1  0  0  0  0
 43 42  1  0  0  0  0
 44 42  1  0  0  0  0
 44 46  1  0  0  0  0
 44 45  1  0  0  0  0
 47 44  1  0  0  0  0
 48 49  1  0  0  0  0
 48 50  1  0  0  0  0
 48 51  1  0  0  0  0
 52 53  1  0  0  0  0
 52 58  1  0  0  0  0
 52 11  1  0  0  0  0
 54 52  1  0  0  0  0
 55 54  1  0  0  0  0
 56 54  1  0  0  0  0
 57 54  1  0  0  0  0
 58 61  1  0  0  0  0
 59 58  1  0  0  0  0
 60 58  1  0  0  0  0
M  END
