17,20
 OpenBabel05122313053D

 28 29  0  0  1  0  0  0  0  0999 V2000
    2.6583    1.2596    0.1526 N   0  0  0  0  0  0  0  0  0  0  0  0
    3.0623   -0.0071    0.2238 N   0  0  0  0  0  0  0  0  0  0  0  0
    4.5027   -0.3881    0.0996 C   0  0  0  0  0  0  0  0  0  0  0  0
    4.9548    0.0322   -1.3087 C   0  0  0  0  0  0  0  0  0  0  0  0
    4.3630   -0.4937   -2.0835 H   0  0  0  0  0  0  0  0  0  0  0  0
    6.0222   -0.2283   -1.4452 H   0  0  0  0  0  0  0  0  0  0  0  0
    4.8350    1.1231   -1.4516 H   0  0  0  0  0  0  0  0  0  0  0  0
    4.6196   -1.9024    0.2915 C   0  0  0  0  0  0  0  0  0  0  0  0
    4.2499   -2.2161    1.2859 H   0  0  0  0  0  0  0  0  0  0  0  0
    5.6877   -2.1808    0.2084 H   0  0  0  0  0  0  0  0  0  0  0  0
    4.0487   -2.4558   -0.4770 H   0  0  0  0  0  0  0  0  0  0  0  0
    5.2731    0.3749    1.1877 C   0  0  0  0  0  0  0  0  0  0  0  0
    5.1418    1.4675    1.0727 H   0  0  0  0  0  0  0  0  0  0  0  0
    6.3514    0.1377    1.1059 H   0  0  0  0  0  0  0  0  0  0  0  0
    4.9276    0.0790    2.1979 H   0  0  0  0  0  0  0  0  0  0  0  0
    2.0831   -0.8966    0.3572 N   0  0  0  0  0  2  0  0  0  0  0  0
    0.9806   -0.1815    0.3756 N   0  0  0  0  0  2  0  0  0  0  0  0
    1.3333    1.1348    0.2464 C   0  0  0  0  0  0  0  0  0  0  0  0
    0.2889    2.1469    0.2373 C   0  0  1  0  0  3  0  0  0  0  0  0
   -0.9712    1.6274    0.3355 N   0  0  0  0  0  2  0  0  0  0  0  0
   -2.0141    2.4843    0.3420 C   0  0  0  0  0  0  0  0  0  0  0  0
   -3.0123    2.0290    0.4105 H   0  0  0  0  0  0  0  0  0  0  0  0
   -1.8474    3.8705    0.2538 C   0  0  0  0  0  0  0  0  0  0  0  0
   -2.7333    4.5207    0.2581 H   0  0  0  0  0  0  0  0  0  0  0  0
   -0.5515    4.4025    0.1552 C   0  0  0  0  0  0  0  0  0  0  0  0
   -0.3933    5.4883    0.0816 H   0  0  0  0  0  0  0  0  0  0  0  0
    0.5371    3.5245    0.1496 C   0  0  0  0  0  0  0  0  0  0  0  0
    1.5749    3.8771    0.0734 H   0  0  0  0  0  0  0  0  0  0  0  0
  1  2  1  0  0  0  0
  1 18  2  0  0  0  0
  2 16  1  0  0  0  0
  3  2  1  0  0  0  0
  3  8  1  0  0  0  0
  3 12  1  0  0  0  0
  4  3  1  0  0  0  0
  5  4  1  0  0  0  0
  6  4  1  0  0  0  0
  7  4  1  0  0  0  0
  8  9  1  0  0  0  0
 10  8  1  0  0  0  0
 11  8  1  0  0  0  0
 12 15  1  0  0  0  0
 13 12  1  0  0  0  0
 14 12  1  0  0  0  0
 16 17  1  0  0  0  0
 18 17  1  0  0  0  0
 19 18  1  1  0  0  0
 19 20  1  0  0  0  0
 20 21  1  0  0  0  0
 21 22  1  0  0  0  0
 23 24  1  0  0  0  0
 23 21  2  0  0  0  0
 25 23  1  0  0  0  0
 26 25  1  0  0  0  0
 27 25  2  0  0  0  0
 27 19  1  0  0  0  0
 28 27  1  0  0  0  0
M  END
