4,13
 OpenBabel05122313053D

 22 23  0  0  0  0  0  0  0  0999 V2000
    4.9298   -0.2936   -0.0598 C   0  0  0  0  0  0  0  0  0  0  0  0
    5.9914   -0.9047   -0.0720 C   0  0  0  0  0  0  0  0  0  0  0  0
    6.9310   -1.4439   -0.0853 H   0  0  0  0  0  0  0  0  0  0  0  0
    1.2744    0.3288   -0.1281 N   0  0  0  0  0  2  0  0  0  0  0  0
    1.2106    1.6935   -0.0470 C   0  0  0  0  0  0  0  0  0  0  0  0
    2.3908    2.4564    0.0383 C   0  0  0  0  0  0  0  0  0  0  0  0
    2.3385    3.5509    0.1010 H   0  0  0  0  0  0  0  0  0  0  0  0
    3.6339    1.8269    0.0379 C   0  0  0  0  0  0  0  0  0  0  0  0
    4.5614    2.4127    0.1004 H   0  0  0  0  0  0  0  0  0  0  0  0
    3.6967    0.4141   -0.0493 C   0  0  0  0  0  0  0  0  0  0  0  0
    2.4710   -0.2870   -0.1298 C   0  0  0  0  0  0  0  0  0  0  0  0
    2.4677   -1.3834   -0.2024 H   0  0  0  0  0  0  0  0  0  0  0  0
   -1.1755    1.3869   -0.1695 N   0  0  0  0  0  2  0  0  0  0  0  0
   -0.1424    2.2783   -0.0713 C   0  0  0  0  0  0  0  0  0  0  0  0
   -0.3903    3.6627   -0.0145 C   0  0  0  0  0  0  0  0  0  0  0  0
    0.4443    4.3714    0.0615 H   0  0  0  0  0  0  0  0  0  0  0  0
   -1.7056    4.1350   -0.0623 C   0  0  0  0  0  0  0  0  0  0  0  0
   -1.9087    5.2151   -0.0227 H   0  0  0  0  0  0  0  0  0  0  0  0
   -2.7546    3.2098   -0.1663 C   0  0  0  0  0  0  0  0  0  0  0  0
   -3.8043    3.5313   -0.2122 H   0  0  0  0  0  0  0  0  0  0  0  0
   -2.4464    1.8476   -0.2162 C   0  0  0  0  0  0  0  0  0  0  0  0
   -3.2364    1.0881   -0.3015 H   0  0  0  0  0  0  0  0  0  0  0  0
  1 10  1  0  0  0  0
  2  1  3  0  0  0  0
  3  2  1  0  0  0  0
  4  5  1  0  0  0  0
  5  6  1  0  0  0  0
  6  7  1  0  0  0  0
  8  6  2  0  0  0  0
  8  9  1  0  0  0  0
 10  8  1  0  0  0  0
 11  4  1  0  0  0  0
 11 10  2  0  0  0  0
 12 11  1  0  0  0  0
 13 14  1  0  0  0  0
 14  5  2  0  0  0  0
 14 15  1  0  0  0  0
 15 16  1  0  0  0  0
 17 18  1  0  0  0  0
 17 15  2  0  0  0  0
 19 17  1  0  0  0  0
 20 19  1  0  0  0  0
 21 13  1  0  0  0  0
 21 19  2  0  0  0  0
 22 21  1  0  0  0  0
M  END
