1,4
 OpenBabel05122313053D

 35 36  0  0  0  0  0  0  0  0999 V2000
   -1.3878   -1.4309   -0.3514 N   0  0  0  0  0  2  0  0  0  0  0  0
   -1.2502   -2.4531   -1.1300 N   0  0  0  0  0  0  0  0  0  0  0  0
    1.1732   -2.4251   -1.1238 N   0  0  0  0  0  2  0  0  0  0  0  0
    1.3243   -1.3900   -0.3641 N   0  0  0  0  0  2  0  0  0  0  0  0
   -0.0063   -4.6341   -3.4591 N   0  0  0  0  0  0  0  0  0  0  0  0
   -0.0333   -2.7658   -1.6336 C   0  0  0  0  0  0  0  0  0  0  0  0
   -2.5967   -1.3912    0.3843 C   0  0  0  0  0  0  0  0  0  0  0  0
   -2.6465   -0.5967    1.5487 C   0  0  0  0  0  0  0  0  0  0  0  0
   -1.7344   -0.0689    1.8671 H   0  0  0  0  0  0  0  0  0  0  0  0
   -3.8374   -0.4906    2.2759 C   0  0  0  0  0  0  0  0  0  0  0  0
   -3.8603    0.1327    3.1836 H   0  0  0  0  0  0  0  0  0  0  0  0
   -5.0046   -1.1719    1.8752 C   0  0  0  0  0  0  0  0  0  0  0  0
   -4.9326   -1.9754    0.7129 C   0  0  0  0  0  0  0  0  0  0  0  0
   -5.8317   -2.5167    0.3770 H   0  0  0  0  0  0  0  0  0  0  0  0
   -3.7525   -2.0967   -0.0227 C   0  0  0  0  0  0  0  0  0  0  0  0
   -3.6975   -2.7211   -0.9249 H   0  0  0  0  0  0  0  0  0  0  0  0
   -6.2836   -1.0748    2.6654 C   0  0  0  0  0  0  0  0  0  0  0  0
   -6.2381   -0.2680    3.4222 H   0  0  0  0  0  0  0  0  0  0  0  0
   -6.4943   -2.0247    3.2020 H   0  0  0  0  0  0  0  0  0  0  0  0
   -7.1550   -0.8819    2.0067 H   0  0  0  0  0  0  0  0  0  0  0  0
    2.5296   -1.3770    0.3931 C   0  0  0  0  0  0  0  0  0  0  0  0
    3.6606   -2.1218   -0.0085 C   0  0  0  0  0  0  0  0  0  0  0  0
    3.5964   -2.7314   -0.9197 H   0  0  0  0  0  0  0  0  0  0  0  0
    4.8333   -2.0563    0.7451 C   0  0  0  0  0  0  0  0  0  0  0  0
    5.7163   -2.6250    0.4123 H   0  0  0  0  0  0  0  0  0  0  0  0
    4.9169   -1.2737    1.9206 C   0  0  0  0  0  0  0  0  0  0  0  0
    3.7704   -0.5561    2.3149 C   0  0  0  0  0  0  0  0  0  0  0  0
    3.8029    0.0548    3.2304 H   0  0  0  0  0  0  0  0  0  0  0  0
    2.5889   -0.6023    1.5669 C   0  0  0  0  0  0  0  0  0  0  0  0
    1.6979   -0.0349    1.8734 H   0  0  0  0  0  0  0  0  0  0  0  0
    6.1913   -1.2267    2.7224 C   0  0  0  0  0  0  0  0  0  0  0  0
    7.0555   -0.9350    2.0901 H   0  0  0  0  0  0  0  0  0  0  0  0
    6.4326   -2.2225    3.1510 H   0  0  0  0  0  0  0  0  0  0  0  0
    6.1221   -0.5066    3.5602 H   0  0  0  0  0  0  0  0  0  0  0  0
   -0.0178   -3.8077   -2.6254 C   0  0  0  0  0  0  0  0  0  0  0  0
  1  7  1  0  0  0  0
  2  1  1  0  0  0  0
  3  4  1  0  0  0  0
  4 21  1  0  0  0  0
  5 35  3  0  0  0  0
  6  2  2  0  0  0  0
  6  3  1  0  0  0  0
  7  8  1  0  0  0  0
  8  9  1  0  0  0  0
  8 10  2  0  0  0  0
 10 11  1  0  0  0  0
 12 10  1  0  0  0  0
 12 17  1  0  0  0  0
 13 12  2  0  0  0  0
 14 13  1  0  0  0  0
 15  7  2  0  0  0  0
 15 13  1  0  0  0  0
 16 15  1  0  0  0  0
 17 19  1  0  0  0  0
 17 18  1  0  0  0  0
 20 17  1  0  0  0  0
 21 29  1  0  0  0  0
 22 21  2  0  0  0  0
 22 24  1  0  0  0  0
 23 22  1  0  0  0  0
 24 26  2  0  0  0  0
 25 24  1  0  0  0  0
 26 27  1  0  0  0  0
 26 31  1  0  0  0  0
 27 28  1  0  0  0  0
 29 30  1  0  0  0  0
 29 27  2  0  0  0  0
 31 33  1  0  0  0  0
 31 34  1  0  0  0  0
 32 31  1  0  0  0  0
 35  6  1  0  0  0  0
M  END
