1,12
 OpenBabel05122313053D

 26 28  0  0  0  0  0  0  0  0999 V2000
   -1.0393   -2.3241    0.5185 N   0  0  0  0  0  2  0  0  0  0  0  0
   -2.0865   -3.1624    0.6655 C   0  0  0  0  0  3  0  0  0  0  0  0
   -3.0827   -2.7000    0.5862 H   0  0  0  0  0  0  0  0  0  0  0  0
   -1.9230   -4.5298    0.9081 C   0  0  0  0  0  0  0  0  0  0  0  0
   -2.8074   -5.1720    1.0219 H   0  0  0  0  0  0  0  0  0  0  0  0
   -0.6182   -5.0506    0.9993 C   0  0  0  0  0  0  0  0  0  0  0  0
   -0.4577   -6.1224    1.1898 H   0  0  0  0  0  0  0  0  0  0  0  0
    0.4711   -4.1918    0.8428 C   0  0  0  0  0  0  0  0  0  0  0  0
    1.5139   -4.5342    0.8972 H   0  0  0  0  0  0  0  0  0  0  0  0
    0.2340   -2.8239    0.6000 C   0  0  0  0  0  0  0  0  0  0  0  0
    1.2849   -1.8478    0.4020 C   0  0  0  0  0  0  0  0  0  0  0  0
    0.9277   -0.5501    0.1604 N   0  0  0  0  0  0  0  0  0  0  0  0
    2.0396    0.1556   -0.0565 N   0  0  0  0  0  0  0  0  0  0  0  0
    3.0420   -0.7629    0.0705 C   0  0  0  0  0  0  0  0  0  0  0  0
    2.6171   -2.0199    0.3589 N   0  0  0  0  0  2  0  0  0  0  0  0
    4.4546   -0.3968   -0.1100 C   0  0  0  0  0  0  0  0  0  0  0  0
    5.4680   -0.9551    0.6993 C   0  0  0  0  0  0  0  0  0  0  0  0
    5.1641   -1.8097    1.6796 F   0  0  0  0  0  0  0  0  0  0  0  0
    6.8197   -0.6168    0.5254 C   0  0  0  0  0  0  0  0  0  0  0  0
    7.7582   -1.1532    1.3134 F   0  0  0  0  0  0  0  0  0  0  0  0
    7.1863    0.3038   -0.4700 C   0  0  0  0  0  0  0  0  0  0  0  0
    8.4693    0.6339   -0.6378 F   0  0  0  0  0  0  0  0  0  0  0  0
    6.1984    0.8756   -1.2883 C   0  0  0  0  0  0  0  0  0  0  0  0
    6.5478    1.7388   -2.2483 F   0  0  0  0  0  0  0  0  0  0  0  0
    4.8522    0.5189   -1.1090 C   0  0  0  0  0  0  0  0  0  0  0  0
    3.9540    1.0553   -1.9408 F   0  0  0  0  0  0  0  0  0  0  0  0
  1 10  1  0  0  0  0
  1  2  1  0  0  0  0
  2  4  1  0  0  0  0
  3  2  1  0  0  0  0
  4  6  2  0  0  0  0
  4  5  1  0  0  0  0
  6  7  1  0  0  0  0
  8  9  1  0  0  0  0
  8  6  1  0  0  0  0
 10  8  2  0  0  0  0
 11 10  1  0  0  0  0
 12 11  2  0  0  0  0
 13 14  2  0  0  0  0
 13 12  1  0  0  0  0
 14 15  1  0  0  0  0
 15 11  1  0  0  0  0
 16 14  1  0  0  0  0
 16 17  1  0  0  0  0
 17 18  1  0  0  0  0
 19 17  2  0  0  0  0
 19 20  1  0  0  0  0
 21 19  1  0  0  0  0
 22 21  1  0  0  0  0
 23 25  1  0  0  0  0
 23 21  2  0  0  0  0
 24 23  1  0  0  0  0
 25 16  2  0  0  0  0
 26 25  1  0  0  0  0
M  END
