1,3
 OpenBabel05122313053D

 24 26  0  0  0  0  0  0  0  0999 V2000
   -0.2909   -0.6028    1.3043 N   0  0  0  0  0  2  0  0  0  0  0  0
    0.6946    0.3562    1.2682 C   0  0  0  0  0  0  0  0  0  0  0  0
   -0.9642    1.7303    0.2609 N   0  0  0  0  0  2  0  0  0  0  0  0
    0.0049   -1.8012    1.8519 C   0  0  0  0  0  0  0  0  0  0  0  0
   -0.7999   -2.5483    1.8712 H   0  0  0  0  0  0  0  0  0  0  0  0
    1.2858    2.6655    0.6426 C   0  0  0  0  0  0  0  0  0  0  0  0
    0.3225    1.6131    0.7175 C   0  0  0  0  0  0  0  0  0  0  0  0
    2.0228    0.1179    1.7298 C   0  0  0  0  0  0  0  0  0  0  0  0
    3.0254    1.1678    1.5536 C   0  0  0  0  0  0  0  0  0  0  0  0
    0.8364    3.8993    0.0999 C   0  0  0  0  0  0  0  0  0  0  0  0
    1.5313    4.7485    0.0224 H   0  0  0  0  0  0  0  0  0  0  0  0
    2.6233    2.4099    1.0573 C   0  0  0  0  0  0  0  0  0  0  0  0
    3.3689    3.2091    0.9352 H   0  0  0  0  0  0  0  0  0  0  0  0
   -1.3558    2.9151   -0.2504 C   0  0  0  0  0  0  0  0  0  0  0  0
   -2.3936    2.9838   -0.6050 H   0  0  0  0  0  0  0  0  0  0  0  0
    1.2709   -2.0947    2.3799 C   0  0  0  0  0  0  0  0  0  0  0  0
    1.4456   -3.0801    2.8325 H   0  0  0  0  0  0  0  0  0  0  0  0
   -0.4820    4.0160   -0.3319 C   0  0  0  0  0  0  0  0  0  0  0  0
   -0.8586    4.9607   -0.7482 H   0  0  0  0  0  0  0  0  0  0  0  0
    2.2876   -1.1401    2.3149 C   0  0  0  0  0  0  0  0  0  0  0  0
    3.2774   -1.3731    2.7321 H   0  0  0  0  0  0  0  0  0  0  0  0
    4.3177    0.9126    1.9098 N   0  0  0  0  0  0  0  0  0  0  0  0
    5.0254    1.6143    1.6930 H   0  0  0  0  0  0  0  0  0  0  0  0
    4.6595   -0.0477    1.9019 H   0  0  0  0  0  0  0  0  0  0  0  0
  1  4  1  0  0  0  0
  2  1  1  0  0  0  0
  2  8  1  0  0  0  0
  3  7  1  0  0  0  0
  4  5  1  0  0  0  0
  4 16  2  0  0  0  0
  6  7  1  0  0  0  0
  6 12  1  0  0  0  0
  7  2  2  0  0  0  0
  8 20  2  0  0  0  0
  9  8  1  0  0  0  0
  9 22  1  0  0  0  0
 10  6  2  0  0  0  0
 11 10  1  0  0  0  0
 12  9  2  0  0  0  0
 13 12  1  0  0  0  0
 14  3  1  0  0  0  0
 15 14  1  0  0  0  0
 16 17  1  0  0  0  0
 18 14  2  0  0  0  0
 18 10  1  0  0  0  0
 19 18  1  0  0  0  0
 20 16  1  0  0  0  0
 20 21  1  0  0  0  0
 23 22  1  0  0  0  0
 24 22  1  0  0  0  0
M  END
