4,5
 OpenBabel05122313053D

 53 56  0  0  0  0  0  0  0  0999 V2000
    2.6974   -2.2027   -0.3709 O   0  0  0  0  0  0  0  0  0  0  0  0
    2.2016    2.8722   -0.0674 O   0  0  0  0  0  0  0  0  0  0  0  0
    3.9729    0.4895   -0.3183 N   0  0  0  0  0  0  0  0  0  0  0  0
   -0.8352   -1.6507   -0.7002 N   0  0  0  0  0  0  0  0  0  0  0  0
   -0.8070    1.2317   -0.5466 N   0  0  0  0  0  0  0  0  0  0  0  0
    4.1589    1.6334    0.3629 C   0  0  0  0  0  0  0  0  0  0  0  0
    4.7749    1.6732    1.6274 C   0  0  0  0  0  0  0  0  0  0  0  0
    5.2099    0.4710    2.2003 C   0  0  0  0  0  0  0  0  0  0  0  0
    5.0054   -0.7225    1.4963 C   0  0  0  0  0  0  0  0  0  0  0  0
    4.3813   -0.6640    0.2357 C   0  0  0  0  0  0  0  0  0  0  0  0
    4.0821   -1.9173   -0.5518 C   0  0  0  0  0  0  0  0  0  0  0  0
    2.1729   -3.3346   -0.9266 C   0  0  0  0  0  0  0  0  0  0  0  0
    2.9108   -4.2418   -1.7121 C   0  0  0  0  0  0  0  0  0  0  0  0
    2.2789   -5.3802   -2.2383 C   0  0  0  0  0  0  0  0  0  0  0  0
    0.9222   -5.6245   -1.9865 C   0  0  0  0  0  0  0  0  0  0  0  0
    0.1964   -4.7136   -1.2030 C   0  0  0  0  0  0  0  0  0  0  0  0
    0.7953   -3.5618   -0.6670 C   0  0  0  0  0  0  0  0  0  0  0  0
   -0.0092   -2.5631    0.1323 C   0  0  0  0  0  0  0  0  0  0  0  0
   -0.1043   -0.8169   -1.6828 C   0  0  0  0  0  0  0  0  0  0  0  0
    0.3640    0.4972   -1.0597 C   0  0  0  0  0  0  0  0  0  0  0  0
   -0.5358    2.4544    0.2466 C   0  0  0  0  0  0  0  0  0  0  0  0
    0.0188    3.6003   -0.5689 C   0  0  0  0  0  0  0  0  0  0  0  0
   -0.8426    4.4989   -1.2199 C   0  0  0  0  0  0  0  0  0  0  0  0
   -0.3506    5.5430   -2.0197 C   0  0  0  0  0  0  0  0  0  0  0  0
    1.0340    5.6973   -2.1669 C   0  0  0  0  0  0  0  0  0  0  0  0
    1.9234    4.8204   -1.5242 C   0  0  0  0  0  0  0  0  0  0  0  0
    1.4189    3.7730   -0.7296 C   0  0  0  0  0  0  0  0  0  0  0  0
    3.6085    2.8787   -0.2900 C   0  0  0  0  0  0  0  0  0  0  0  0
   -1.5456   -2.2010   -1.2028 H   0  0  0  0  0  0  0  0  0  0  0  0
   -1.4234    1.4832   -1.3366 H   0  0  0  0  0  0  0  0  0  0  0  0
    4.9025    2.6314    2.1524 H   0  0  0  0  0  0  0  0  0  0  0  0
    5.6925    0.4631    3.1891 H   0  0  0  0  0  0  0  0  0  0  0  0
    5.3180   -1.6898    1.9167 H   0  0  0  0  0  0  0  0  0  0  0  0
    4.7035   -2.7678   -0.1933 H   0  0  0  0  0  0  0  0  0  0  0  0
    4.3012   -1.7409   -1.6286 H   0  0  0  0  0  0  0  0  0  0  0  0
    3.9745   -4.0678   -1.9218 H   0  0  0  0  0  0  0  0  0  0  0  0
    2.8635   -6.0830   -2.8511 H   0  0  0  0  0  0  0  0  0  0  0  0
    0.4320   -6.5212   -2.3924 H   0  0  0  0  0  0  0  0  0  0  0  0
   -0.8693   -4.9014   -0.9913 H   0  0  0  0  0  0  0  0  0  0  0  0
    0.6470   -1.9459    0.7730 H   0  0  0  0  0  0  0  0  0  0  0  0
   -0.7094   -3.0831    0.8155 H   0  0  0  0  0  0  0  0  0  0  0  0
    0.7611   -1.3594   -2.1185 H   0  0  0  0  0  0  0  0  0  0  0  0
   -0.8112   -0.6002   -2.5109 H   0  0  0  0  0  0  0  0  0  0  0  0
    0.9414    1.0815   -1.8087 H   0  0  0  0  0  0  0  0  0  0  0  0
    1.0565    0.3077   -0.2157 H   0  0  0  0  0  0  0  0  0  0  0  0
    0.1432    2.1706    1.0728 H   0  0  0  0  0  0  0  0  0  0  0  0
   -1.4985    2.7561    0.7054 H   0  0  0  0  0  0  0  0  0  0  0  0
   -1.9300    4.3721   -1.0897 H   0  0  0  0  0  0  0  0  0  0  0  0
   -1.0456    6.2341   -2.5181 H   0  0  0  0  0  0  0  0  0  0  0  0
    1.4379    6.5129   -2.7858 H   0  0  0  0  0  0  0  0  0  0  0  0
    3.0057    4.9629   -1.6437 H   0  0  0  0  0  0  0  0  0  0  0  0
    3.8253    2.8431   -1.3804 H   0  0  0  0  0  0  0  0  0  0  0  0
    4.0688    3.7973    0.1387 H   0  0  0  0  0  0  0  0  0  0  0  0
  3 10  2  0  0  0  0
  3  6  1  0  0  0  0
  4 18  1  0  0  0  0
  5 21  1  0  0  0  0
  6  7  2  0  0  0  0
  7 31  1  0  0  0  0
  7  8  1  0  0  0  0
  8 32  1  0  0  0  0
  9 33  1  0  0  0  0
  9  8  2  0  0  0  0
 10  9  1  0  0  0  0
 11  1  1  0  0  0  0
 11 34  1  0  0  0  0
 11 10  1  0  0  0  0
 12 17  1  0  0  0  0
 12  1  1  0  0  0  0
 13 12  2  0  0  0  0
 14 15  2  0  0  0  0
 14 13  1  0  0  0  0
 15 16  1  0  0  0  0
 16 39  1  0  0  0  0
 16 17  2  0  0  0  0
 17 18  1  0  0  0  0
 18 40  1  0  0  0  0
 18 41  1  0  0  0  0
 19 20  1  0  0  0  0
 19  4  1  0  0  0  0
 20  5  1  0  0  0  0
 20 45  1  0  0  0  0
 21 47  1  0  0  0  0
 21 46  1  0  0  0  0
 22 21  1  0  0  0  0
 23 48  1  0  0  0  0
 23 22  2  0  0  0  0
 24 23  1  0  0  0  0
 25 24  2  0  0  0  0
 25 26  1  0  0  0  0
 26 27  2  0  0  0  0
 27 22  1  0  0  0  0
 27  2  1  0  0  0  0
 28  2  1  0  0  0  0
 28 53  1  0  0  0  0
 28  6  1  0  0  0  0
 29  4  1  0  0  0  0
 30  5  1  0  0  0  0
 35 11  1  0  0  0  0
 36 13  1  0  0  0  0
 37 14  1  0  0  0  0
 38 15  1  0  0  0  0
 42 19  1  0  0  0  0
 43 19  1  0  0  0  0
 44 20  1  0  0  0  0
 49 24  1  0  0  0  0
 50 25  1  0  0  0  0
 51 26  1  0  0  0  0
 52 28  1  0  0  0  0
M  END
