1,2
 OpenBabel05122313053D

 28 30  0  0  1  0  0  0  0  0999 V2000
   -1.1549    0.0839    0.0193 N   0  0  0  0  0  2  0  0  0  0  0  0
    1.3846    0.6715   -0.4923 N   0  0  0  0  0  2  0  0  0  0  0  0
   -1.9273    2.1738   -0.1450 N   0  0  0  0  0  0  0  0  0  0  0  0
   -1.9303    3.1823   -0.2935 H   0  0  0  0  0  0  0  0  0  0  0  0
   -2.5309    0.0307    0.0667 C   0  0  0  0  0  0  0  0  0  0  0  0
    3.3598   -0.3407   -0.7415 O   0  0  0  0  0  0  0  0  0  0  0  0
   -3.0479    1.3585   -0.0288 C   0  0  0  0  0  0  0  0  0  0  0  0
    1.1161    3.0225   -0.0205 C   0  0  0  0  0  0  0  0  0  0  0  0
    0.4626    3.8762    0.2068 H   0  0  0  0  0  0  0  0  0  0  0  0
   -3.3894   -1.0801    0.1631 C   0  0  0  0  0  0  0  0  0  0  0  0
   -2.9617   -2.0928    0.1843 H   0  0  0  0  0  0  0  0  0  0  0  0
   -4.4271    1.6185   -0.0088 C   0  0  0  0  0  0  0  0  0  0  0  0
   -4.8321    2.6382   -0.0809 H   0  0  0  0  0  0  0  0  0  0  0  0
    2.7167    0.8040   -0.4912 C   0  0  1  0  0  3  0  0  0  0  0  0
   -4.7617   -0.8190    0.1817 C   0  0  0  0  0  0  0  0  0  0  0  0
   -5.4709   -1.6571    0.2501 H   0  0  0  0  0  0  0  0  0  0  0  0
    3.3350    2.0566   -0.2598 C   0  0  0  0  0  0  0  0  0  0  0  0
    4.4279    2.1568   -0.2601 H   0  0  0  0  0  0  0  0  0  0  0  0
    2.5132    3.1662   -0.0383 C   0  0  0  0  0  0  0  0  0  0  0  0
    2.9668    4.1524    0.1404 H   0  0  0  0  0  0  0  0  0  0  0  0
    4.6861   -0.5105   -0.2487 C   0  0  0  0  0  0  0  0  0  0  0  0
    4.9521   -1.5617   -0.4577 H   0  0  0  0  0  0  0  0  0  0  0  0
    4.7075   -0.3409    0.8476 H   0  0  0  0  0  0  0  0  0  0  0  0
    5.4109    0.1560   -0.7643 H   0  0  0  0  0  0  0  0  0  0  0  0
   -5.2689    0.5043    0.1032 C   0  0  0  0  0  0  0  0  0  0  0  0
   -6.3578    0.6604    0.1222 H   0  0  0  0  0  0  0  0  0  0  0  0
   -0.8182    1.3622   -0.1275 C   0  0  1  0  0  3  0  0  0  0  0  0
    0.5942    1.7369   -0.2381 C   0  0  0  0  0  0  0  0  0  0  0  0
  1  5  1  0  0  0  0
  2 14  1  0  0  0  0
  2 28  1  0  0  0  0
  3 27  1  0  0  0  0
  3  7  1  0  0  0  0
  4  3  1  0  0  0  0
  5 10  1  0  0  0  0
  6 21  1  0  0  0  0
  7 12  1  0  0  0  0
  7  5  2  0  0  0  0
  8  9  1  0  0  0  0
 10 15  2  0  0  0  0
 10 11  1  0  0  0  0
 12 25  2  0  0  0  0
 13 12  1  0  0  0  0
 14  6  1  6  0  0  0
 14 17  1  0  0  0  0
 15 16  1  0  0  0  0
 17 19  2  0  0  0  0
 18 17  1  0  0  0  0
 19  8  1  0  0  0  0
 19 20  1  0  0  0  0
 21 23  1  0  0  0  0
 22 21  1  0  0  0  0
 24 21  1  0  0  0  0
 25 26  1  0  0  0  0
 25 15  1  0  0  0  0
 27 28  1  1  0  0  0
 27  1  1  0  0  0  0
 28  8  2  0  0  0  0
M  END
