1,13
 OpenBabel05122313053D

 39 41  0  0  1  0  0  0  0  0999 V2000
   -0.3023    0.3703    1.2024 N   0  0  0  0  0  2  0  0  0  0  0  0
    0.2893    1.4256    0.5804 C   0  0  1  0  0  3  0  0  0  0  0  0
    0.2380    2.7106    1.1333 C   0  0  0  0  0  0  0  0  0  0  0  0
    0.7269    3.5442    0.6090 H   0  0  0  0  0  0  0  0  0  0  0  0
   -0.4368    2.9089    2.3447 C   0  0  0  0  0  0  0  0  0  0  0  0
   -0.4933    3.9125    2.7918 H   0  0  0  0  0  0  0  0  0  0  0  0
   -1.0402    1.8091    2.9729 C   0  0  0  0  0  0  0  0  0  0  0  0
   -1.5808    1.9180    3.9237 H   0  0  0  0  0  0  0  0  0  0  0  0
   -0.9541    0.5502    2.3727 C   0  0  0  0  0  0  0  0  0  0  0  0
   -1.3890   -0.3716    2.7963 H   0  0  0  0  0  0  0  0  0  0  0  0
    1.0502    1.1146   -0.6955 C   0  0  2  0  0  0  0  0  0  0  0  0
    0.9615    1.9883   -1.3763 H   0  0  0  0  0  0  0  0  0  0  0  0
    0.4533   -0.0883   -1.3611 N   0  0  0  0  0  0  0  0  0  0  0  0
    1.2032   -0.6270   -1.8220 H   0  0  0  0  0  0  0  0  0  0  0  0
    2.5333    0.8911   -0.4286 C   0  0  0  0  0  0  0  0  0  0  0  0
    2.9724   -0.1291    0.4413 C   0  0  0  0  0  0  0  0  0  0  0  0
    2.2351   -0.7764    0.9455 H   0  0  0  0  0  0  0  0  0  0  0  0
    4.3436   -0.3322    0.6491 C   0  0  0  0  0  0  0  0  0  0  0  0
    4.6750   -1.1368    1.3223 H   0  0  0  0  0  0  0  0  0  0  0  0
    5.2876    0.4853    0.0060 C   0  0  0  0  0  0  0  0  0  0  0  0
    6.3631    0.3243    0.1747 H   0  0  0  0  0  0  0  0  0  0  0  0
    4.8561    1.5075   -0.8529 C   0  0  0  0  0  0  0  0  0  0  0  0
    5.5900    2.1511   -1.3610 H   0  0  0  0  0  0  0  0  0  0  0  0
    3.4844    1.7071   -1.0704 C   0  0  0  0  0  0  0  0  0  0  0  0
    3.1463    2.5054   -1.7506 H   0  0  0  0  0  0  0  0  0  0  0  0
   -0.5948    0.2064   -2.3869 C   0  0  0  0  0  0  0  0  0  0  0  0
   -0.1654    0.8902   -3.1531 H   0  0  0  0  0  0  0  0  0  0  0  0
   -0.8100   -0.7730   -2.8586 H   0  0  0  0  0  0  0  0  0  0  0  0
   -1.8412    0.8028   -1.7807 C   0  0  0  0  0  0  0  0  0  0  0  0
   -2.8101   -0.0422   -1.1993 C   0  0  0  0  0  0  0  0  0  0  0  0
   -2.6775   -1.1341   -1.2569 H   0  0  0  0  0  0  0  0  0  0  0  0
   -3.9210    0.5032   -0.5415 C   0  0  0  0  0  0  0  0  0  0  0  0
   -4.6650   -0.1671   -0.0859 H   0  0  0  0  0  0  0  0  0  0  0  0
   -4.0801    1.8970   -0.4607 C   0  0  0  0  0  0  0  0  0  0  0  0
   -4.9511    2.3233    0.0599 H   0  0  0  0  0  0  0  0  0  0  0  0
   -3.1336    2.7449   -1.0560 C   0  0  0  0  0  0  0  0  0  0  0  0
   -3.2615    3.8370   -1.0090 H   0  0  0  0  0  0  0  0  0  0  0  0
   -2.0214    2.1970   -1.7150 C   0  0  0  0  0  0  0  0  0  0  0  0
   -1.2813    2.8646   -2.1861 H   0  0  0  0  0  0  0  0  0  0  0  0
  1  9  1  0  0  0  0
  2 11  1  1  0  0  0
  2  3  1  0  0  0  0
  2  1  1  0  0  0  0
  3  5  2  0  0  0  0
  4  3  1  0  0  0  0
  5  6  1  0  0  0  0
  5  7  1  0  0  0  0
  7  8  1  0  0  0  0
  9 10  1  0  0  0  0
  9  7  2  0  0  0  0
 11 12  1  6  0  0  0
 11 15  1  0  0  0  0
 13 11  1  0  0  0  0
 14 13  1  0  0  0  0
 15 16  1  0  0  0  0
 16 18  2  0  0  0  0
 16 17  1  0  0  0  0
 18 19  1  0  0  0  0
 20 21  1  0  0  0  0
 20 18  1  0  0  0  0
 22 20  2  0  0  0  0
 23 22  1  0  0  0  0
 24 22  1  0  0  0  0
 24 15  2  0  0  0  0
 25 24  1  0  0  0  0
 26 29  1  0  0  0  0
 26 13  1  0  0  0  0
 27 26  1  0  0  0  0
 28 26  1  0  0  0  0
 29 38  2  0  0  0  0
 29 30  1  0  0  0  0
 30 32  2  0  0  0  0
 31 30  1  0  0  0  0
 32 34  1  0  0  0  0
 32 33  1  0  0  0  0
 34 35  1  0  0  0  0
 36 37  1  0  0  0  0
 36 34  2  0  0  0  0
 38 36  1  0  0  0  0
 39 38  1  0  0  0  0
M  END
