1,2
 OpenBabel05122313053D

 50 51  0  0  1  0  0  0  0  0999 V2000
   -1.5118   -1.3082    0.0072 N   0  0  0  0  0  2  0  0  0  0  0  0
   -1.5118    1.3082   -0.0072 N   0  0  0  0  0  2  0  0  0  0  0  0
    3.1252    3.1197   -0.0515 O   0  0  0  0  0  0  0  0  0  0  0  0
    1.8992    5.0426   -0.0550 O   0  0  0  0  0  0  0  0  0  0  0  0
    1.8992   -5.0426    0.0550 O   0  0  0  0  0  0  0  0  0  0  0  0
    3.1253   -3.1197    0.0515 O   0  0  0  0  0  0  0  0  0  0  0  0
   -0.2625    0.7329   -0.0075 C   0  0  0  0  0  0  0  0  0  0  0  0
   -0.2625   -0.7329    0.0075 C   0  0  0  0  0  0  0  0  0  0  0  0
   -1.6277    2.6604   -0.0166 C   0  0  0  0  0  0  0  0  0  0  0  0
   -2.6676    3.0277   -0.0151 H   0  0  0  0  0  0  0  0  0  0  0  0
   -1.6277   -2.6604    0.0166 C   0  0  0  0  0  0  0  0  0  0  0  0
   -2.6676   -3.0277    0.0151 H   0  0  0  0  0  0  0  0  0  0  0  0
    0.8932   -1.5244    0.0235 C   0  0  0  0  0  0  0  0  0  0  0  0
    1.8884   -1.0629    0.0318 H   0  0  0  0  0  0  0  0  0  0  0  0
    0.8932    1.5244   -0.0234 C   0  0  0  0  0  0  0  0  0  0  0  0
    1.8884    1.0629   -0.0317 H   0  0  0  0  0  0  0  0  0  0  0  0
    0.7789   -2.9221    0.0332 C   0  0  0  0  0  0  0  0  0  0  0  0
    0.7789    2.9221   -0.0332 C   0  0  0  0  0  0  0  0  0  0  0  0
   -0.5101   -3.4913    0.0282 C   0  0  0  0  0  0  0  0  0  0  0  0
   -0.6206   -4.5847    0.0352 H   0  0  0  0  0  0  0  0  0  0  0  0
    1.9733    3.8260   -0.0487 C   0  0  0  0  0  0  0  0  0  0  0  0
   -0.5101    3.4913   -0.0282 C   0  0  0  0  0  0  0  0  0  0  0  0
   -0.6207    4.5847   -0.0351 H   0  0  0  0  0  0  0  0  0  0  0  0
    1.9733   -3.8260    0.0488 C   0  0  0  0  0  0  0  0  0  0  0  0
    4.7362    4.2305   -1.4954 C   0  0  0  0  0  0  0  0  0  0  0  0
    4.8569    3.3154   -2.1096 H   0  0  0  0  0  0  0  0  0  0  0  0
    5.6900    4.7940   -1.5193 H   0  0  0  0  0  0  0  0  0  0  0  0
    3.9522    4.8676   -1.9473 H   0  0  0  0  0  0  0  0  0  0  0  0
    5.0641    2.6841    2.1002 C   0  0  0  0  0  0  0  0  0  0  0  0
    4.9776    3.6115    2.7033 H   0  0  0  0  0  0  0  0  0  0  0  0
    5.8395    2.0484    2.5711 H   0  0  0  0  0  0  0  0  0  0  0  0
    4.0963    2.1487    2.1724 H   0  0  0  0  0  0  0  0  0  0  0  0
    4.7363   -4.2304    1.4953 C   0  0  0  0  0  0  0  0  0  0  0  0
    4.8569   -3.3153    2.1095 H   0  0  0  0  0  0  0  0  0  0  0  0
    5.6901   -4.7940    1.5193 H   0  0  0  0  0  0  0  0  0  0  0  0
    3.9522   -4.8675    1.9473 H   0  0  0  0  0  0  0  0  0  0  0  0
    4.3769   -3.8739    0.0591 C   0  0  2  0  0  0  0  0  0  0  0  0
    4.1937   -4.8041   -0.5201 H   0  0  0  0  0  0  0  0  0  0  0  0
    4.3769    3.8740   -0.0591 C   0  0  2  0  0  0  0  0  0  0  0  0
    4.1937    4.8041    0.5201 H   0  0  0  0  0  0  0  0  0  0  0  0
    5.4102    2.9994    0.6455 C   0  0  0  0  0  0  0  0  0  0  0  0
    6.3847    3.5290    0.5871 H   0  0  0  0  0  0  0  0  0  0  0  0
    5.5339    2.0608    0.0613 H   0  0  0  0  0  0  0  0  0  0  0  0
    5.0640   -2.6842   -2.1002 C   0  0  0  0  0  0  0  0  0  0  0  0
    4.0963   -2.1487   -2.1725 H   0  0  0  0  0  0  0  0  0  0  0  0
    4.9776   -3.6115   -2.7033 H   0  0  0  0  0  0  0  0  0  0  0  0
    5.8395   -2.0484   -2.5711 H   0  0  0  0  0  0  0  0  0  0  0  0
    5.4102   -2.9994   -0.6455 C   0  0  0  0  0  0  0  0  0  0  0  0
    6.3847   -3.5290   -0.5872 H   0  0  0  0  0  0  0  0  0  0  0  0
    5.5339   -2.0608   -0.0614 H   0  0  0  0  0  0  0  0  0  0  0  0
  1  8  1  0  0  0  0
  1 11  1  0  0  0  0
  3 21  1  0  0  0  0
  4 21  2  0  0  0  0
  6 37  1  0  0  0  0
  7  2  1  0  0  0  0
  7  8  2  0  0  0  0
  8 13  1  0  0  0  0
  9 10  1  0  0  0  0
  9  2  1  0  0  0  0
 11 19  2  0  0  0  0
 12 11  1  0  0  0  0
 13 14  1  0  0  0  0
 13 17  2  0  0  0  0
 15  7  1  0  0  0  0
 16 15  1  0  0  0  0
 17 24  1  0  0  0  0
 18 22  1  0  0  0  0
 18 15  2  0  0  0  0
 19 17  1  0  0  0  0
 19 20  1  0  0  0  0
 21 18  1  0  0  0  0
 22  9  2  0  0  0  0
 23 22  1  0  0  0  0
 24  6  1  0  0  0  0
 24  5  2  0  0  0  0
 25 39  1  0  0  0  0
 26 25  1  0  0  0  0
 27 25  1  0  0  0  0
 28 25  1  0  0  0  0
 29 32  1  0  0  0  0
 29 31  1  0  0  0  0
 29 30  1  0  0  0  0
 33 35  1  0  0  0  0
 33 36  1  0  0  0  0
 33 34  1  0  0  0  0
 37 38  1  6  0  0  0
 37 33  1  0  0  0  0
 39  3  1  0  0  0  0
 39 40  1  1  0  0  0
 39 41  1  0  0  0  0
 41 29  1  0  0  0  0
 42 41  1  0  0  0  0
 43 41  1  0  0  0  0
 44 48  1  0  0  0  0
 45 44  1  0  0  0  0
 46 44  1  0  0  0  0
 47 44  1  0  0  0  0
 48 49  1  0  0  0  0
 48 50  1  0  0  0  0
 48 37  1  0  0  0  0
M  END
