3,4
 OpenBabel05122313053D

 32 33  0  0  1  0  0  0  0  0999 V2000
    3.2702    0.0188    0.0165 O   0  0  0  0  0  0  0  0  0  0  0  0
    4.0287    2.1682   -0.1358 O   0  0  0  0  0  0  0  0  0  0  0  0
   -1.3626   -0.7191    0.4178 N   0  0  0  0  0  2  0  0  0  0  0  0
    0.7426    0.7479    0.0558 N   0  0  0  0  0  2  0  0  0  0  0  0
   -2.7738    1.1293   -0.1872 N   0  0  0  0  0  0  0  0  0  0  0  0
   -0.4522    1.3892    0.1202 N   0  0  0  0  0  0  0  0  0  0  0  0
   -2.1242   -3.0089    0.6405 C   0  0  0  0  0  0  0  0  0  0  0  0
   -1.2251   -3.3483    0.0719 H   0  0  0  0  0  0  0  0  0  0  0  0
   -2.9926   -3.6623    0.4403 H   0  0  0  0  0  0  0  0  0  0  0  0
   -1.8357   -3.1033    1.7083 H   0  0  0  0  0  0  0  0  0  0  0  0
   -2.4073   -1.5799    0.3185 C   0  0  1  0  0  3  0  0  0  0  0  0
   -3.6730   -1.0914   -0.0598 C   0  0  0  0  0  0  0  0  0  0  0  0
   -4.5273   -1.7772   -0.1497 H   0  0  0  0  0  0  0  0  0  0  0  0
   -3.8348    0.2900   -0.2716 C   0  0  0  0  0  0  0  0  0  0  0  0
   -5.1597    0.9097   -0.6083 C   0  0  0  0  0  0  0  0  0  0  0  0
   -5.1131    1.3908   -1.6070 H   0  0  0  0  0  0  0  0  0  0  0  0
   -5.3986    1.7136    0.1175 H   0  0  0  0  0  0  0  0  0  0  0  0
   -5.9780    0.1666   -0.6084 H   0  0  0  0  0  0  0  0  0  0  0  0
   -1.6130    0.5675    0.1212 C   0  0  0  0  0  0  0  0  0  0  0  0
   -1.4224    3.7437    0.2211 C   0  0  0  0  0  0  0  0  0  0  0  0
   -1.0124    4.7663    0.3139 H   0  0  0  0  0  0  0  0  0  0  0  0
   -2.0815    3.5400    1.0884 H   0  0  0  0  0  0  0  0  0  0  0  0
   -2.0688    3.6859   -0.6758 H   0  0  0  0  0  0  0  0  0  0  0  0
   -0.2970    2.7697    0.1464 C   0  0  1  0  0  3  0  0  0  0  0  0
    1.0771    2.9910    0.1087 C   0  0  0  0  0  0  0  0  0  0  0  0
    1.5904    3.9574    0.1210 H   0  0  0  0  0  0  0  0  0  0  0  0
    1.6832    1.7091    0.0538 C   0  0  0  0  0  0  0  0  0  0  0  0
    3.1229    1.3607   -0.0316 C   0  0  0  0  0  0  0  0  0  0  0  0
    4.5871   -0.5197   -0.1300 C   0  0  0  0  0  0  0  0  0  0  0  0
    4.4405   -1.6122   -0.2021 H   0  0  0  0  0  0  0  0  0  0  0  0
    5.2141   -0.2624    0.7477 H   0  0  0  0  0  0  0  0  0  0  0  0
    5.0747   -0.1219   -1.0424 H   0  0  0  0  0  0  0  0  0  0  0  0
  2 28  2  0  0  0  0
  4  6  1  0  0  0  0
  5 19  2  0  0  0  0
  6 19  1  0  0  0  0
  6 24  1  0  0  0  0
  7 10  1  0  0  0  0
  8  7  1  0  0  0  0
  9  7  1  0  0  0  0
 11  3  1  0  0  0  0
 11  7  1  1  0  0  0
 12 11  1  0  0  0  0
 13 12  1  0  0  0  0
 14  5  1  0  0  0  0
 14 12  2  0  0  0  0
 15 14  1  0  0  0  0
 15 17  1  0  0  0  0
 16 15  1  0  0  0  0
 18 15  1  0  0  0  0
 19  3  1  0  0  0  0
 20 21  1  0  0  0  0
 20 22  1  0  0  0  0
 23 20  1  0  0  0  0
 24 20  1  1  0  0  0
 25 26  1  0  0  0  0
 25 24  1  0  0  0  0
 27  4  1  0  0  0  0
 27 25  2  0  0  0  0
 28  1  1  0  0  0  0
 28 27  1  0  0  0  0
 29  1  1  0  0  0  0
 29 31  1  0  0  0  0
 30 29  1  0  0  0  0
 32 29  1  0  0  0  0
M  END
