17,18
 OpenBabel05122313053D

 38 39  0  0  1  0  0  0  0  0999 V2000
    2.6536    0.7540   -0.0689 C   0  0  2  0  0  3  0  0  0  0  0  0
    4.7168    0.1802   -0.7897 C   0  0  0  0  0  0  0  0  0  0  0  0
    4.8746    0.8894    0.3715 C   0  0  0  0  0  0  0  0  0  0  0  0
    2.7442   -0.5168   -2.2159 C   0  0  0  0  0  0  0  0  0  0  0  0
    3.2640    1.7444    2.1324 C   0  0  0  0  0  0  0  0  0  0  0  0
   -2.6535    0.7539    0.0685 C   0  0  1  0  0  3  0  0  0  0  0  0
   -4.8746    0.8892   -0.3717 C   0  0  0  0  0  0  0  0  0  0  0  0
   -4.7167    0.1811    0.7901 C   0  0  0  0  0  0  0  0  0  0  0  0
   -3.2641    1.7423   -2.1336 C   0  0  0  0  0  0  0  0  0  0  0  0
   -2.7440   -0.5150    2.2165 C   0  0  0  0  0  0  0  0  0  0  0  0
    0.6734    2.1065    0.3669 C   0  0  0  0  0  0  0  0  0  0  0  0
   -0.6734    2.1065   -0.3677 C   0  0  0  0  0  0  0  0  0  0  0  0
    3.6019    1.2351    0.8171 N   0  0  0  0  0  0  0  0  0  0  0  0
    3.3618    0.1246   -1.0699 N   0  0  0  0  0  0  0  0  0  0  0  0
   -3.3617    0.1256    1.0702 N   0  0  0  0  0  0  0  0  0  0  0  0
   -3.6020    1.2341   -0.8179 N   0  0  0  0  0  0  0  0  0  0  0  0
    1.3343    0.8602    0.0002 N   0  0  0  0  0  2  0  0  0  0  0  0
   -1.3343    0.8602   -0.0009 N   0  0  0  0  0  2  0  0  0  0  0  0
    5.4605   -0.2797   -1.4459 H   0  0  0  0  0  0  0  0  0  0  0  0
    5.7785    1.1705    0.9187 H   0  0  0  0  0  0  0  0  0  0  0  0
    2.4571   -1.5548   -1.9437 H   0  0  0  0  0  0  0  0  0  0  0  0
    1.8159    0.0337   -2.4617 H   0  0  0  0  0  0  0  0  0  0  0  0
    3.4485   -0.4916   -3.0681 H   0  0  0  0  0  0  0  0  0  0  0  0
    2.4259    1.1467    2.5420 H   0  0  0  0  0  0  0  0  0  0  0  0
    4.1405    1.6363    2.7969 H   0  0  0  0  0  0  0  0  0  0  0  0
    2.9632    2.8113    2.1053 H   0  0  0  0  0  0  0  0  0  0  0  0
   -5.7786    1.1698   -0.9191 H   0  0  0  0  0  0  0  0  0  0  0  0
   -5.4604   -0.2780    1.4469 H   0  0  0  0  0  0  0  0  0  0  0  0
   -4.1396    1.6313   -2.7988 H   0  0  0  0  0  0  0  0  0  0  0  0
   -2.9656    2.8101   -2.1077 H   0  0  0  0  0  0  0  0  0  0  0  0
   -2.4242    1.1459   -2.5414 H   0  0  0  0  0  0  0  0  0  0  0  0
   -2.4549   -1.5525    1.9441 H   0  0  0  0  0  0  0  0  0  0  0  0
   -1.8170    0.0369    2.4636 H   0  0  0  0  0  0  0  0  0  0  0  0
   -3.4492   -0.4916    3.0680 H   0  0  0  0  0  0  0  0  0  0  0  0
    0.4652    2.1883    1.4610 H   0  0  0  0  0  0  0  0  0  0  0  0
    1.2796    2.9907    0.0633 H   0  0  0  0  0  0  0  0  0  0  0  0
   -0.4652    2.1883   -1.4618 H   0  0  0  0  0  0  0  0  0  0  0  0
   -1.2797    2.9907   -0.0641 H   0  0  0  0  0  0  0  0  0  0  0  0
  1 17  1  6  0  0  0
  1 13  1  0  0  0  0
  2  3  2  0  0  0  0
  3 13  1  0  0  0  0
  3 20  1  0  0  0  0
  4 21  1  0  0  0  0
  4 14  1  0  0  0  0
  5 24  1  0  0  0  0
  5 25  1  0  0  0  0
  6 18  1  1  0  0  0
  6 15  1  0  0  0  0
  7  8  2  0  0  0  0
  8 15  1  0  0  0  0
  8 28  1  0  0  0  0
  9 30  1  0  0  0  0
  9 16  1  0  0  0  0
 10 33  1  0  0  0  0
 10 34  1  0  0  0  0
 11 35  1  0  0  0  0
 12 38  1  0  0  0  0
 12 18  1  0  0  0  0
 12 11  1  0  0  0  0
 13  5  1  0  0  0  0
 14  2  1  0  0  0  0
 14  1  1  0  0  0  0
 15 10  1  0  0  0  0
 16  7  1  0  0  0  0
 16  6  1  0  0  0  0
 17 11  1  0  0  0  0
 19  2  1  0  0  0  0
 22  4  1  0  0  0  0
 23  4  1  0  0  0  0
 26  5  1  0  0  0  0
 27  7  1  0  0  0  0
 29  9  1  0  0  0  0
 31  9  1  0  0  0  0
 32 10  1  0  0  0  0
 36 11  1  0  0  0  0
 37 12  1  0  0  0  0
M  END
