1,4
 OpenBabel05122313053D

 24 26  0  0  1  0  0  0  0  0999 V2000
    0.7194    1.9016    0.0388 N   0  0  0  0  0  2  0  0  0  0  0  0
   -0.6348    2.0538    0.0905 N   0  0  0  0  0  0  0  0  0  0  0  0
   -2.7419   -1.4987   -0.0110 N   0  0  0  0  0  0  0  0  0  0  0  0
   -0.7123   -0.2612    0.0607 N   0  0  0  0  0  2  0  0  0  0  0  0
   -4.8201   -0.4389    0.0461 N   0  0  0  0  0  0  0  0  0  0  0  0
   -5.5765    0.6952    0.1095 N   0  0  0  0  0  0  0  0  0  0  0  0
    1.2371    3.1313   -0.0104 C   0  0  0  0  0  3  0  0  0  0  0  0
    2.3214    3.2685   -0.0827 H   0  0  0  0  0  0  0  0  0  0  0  0
    0.2018    4.1034    0.0203 C   0  0  0  0  0  0  0  0  0  0  0  0
    0.3103    5.1922   -0.0036 H   0  0  0  0  0  0  0  0  0  0  0  0
   -0.9806    3.3848    0.0809 C   0  0  0  0  0  0  0  0  0  0  0  0
   -2.0257    3.7074    0.1147 H   0  0  0  0  0  0  0  0  0  0  0  0
   -1.4216    0.8988    0.0797 C   0  0  2  0  0  3  0  0  0  0  0  0
   -2.8126    0.9198    0.0778 C   0  0  0  0  0  0  0  0  0  0  0  0
   -3.4237    1.8300    0.0927 H   0  0  0  0  0  0  0  0  0  0  0  0
   -3.4363   -0.3449    0.0408 C   0  0  0  0  0  0  0  0  0  0  0  0
   -1.4221   -1.4086   -0.0108 C   0  0  0  0  0  0  0  0  0  0  0  0
   -0.8358   -2.3372   -0.0875 H   0  0  0  0  0  0  0  0  0  0  0  0
   -6.8298    0.2559    0.0915 C   0  0  0  0  0  0  0  0  0  0  0  0
   -7.6584    0.9749    0.1334 H   0  0  0  0  0  0  0  0  0  0  0  0
   -6.8998   -1.1740    0.0156 C   0  0  0  0  0  0  0  0  0  0  0  0
   -7.7960   -1.8023   -0.0157 H   0  0  0  0  0  0  0  0  0  0  0  0
   -5.5865   -1.5933   -0.0125 C   0  0  0  0  0  0  0  0  0  0  0  0
   -5.1111   -2.5769   -0.0706 H   0  0  0  0  0  0  0  0  0  0  0  0
  1  2  1  0  0  0  0
  3 17  2  0  0  0  0
  3 16  1  0  0  0  0
  4 13  1  0  0  0  0
  5  6  1  0  0  0  0
  7  9  1  0  0  0  0
  7  1  1  0  0  0  0
  8  7  1  0  0  0  0
  9 11  2  0  0  0  0
 10  9  1  0  0  0  0
 11  2  1  0  0  0  0
 11 12  1  0  0  0  0
 13  2  1  6  0  0  0
 14 13  1  0  0  0  0
 14 15  1  0  0  0  0
 16  5  1  0  0  0  0
 16 14  2  0  0  0  0
 17  4  1  0  0  0  0
 18 17  1  0  0  0  0
 19  6  2  0  0  0  0
 19 20  1  0  0  0  0
 21 19  1  0  0  0  0
 22 21  1  0  0  0  0
 23 21  2  0  0  0  0
 23  5  1  0  0  0  0
 24 23  1  0  0  0  0
M  END
