1,2
 OpenBabel05122313053D

 50 52  0  0  0  0  0  0  0  0999 V2000
    1.1354   -1.0461   -0.1250 N   0  0  0  0  0  0  0  0  0  0  0  0
   -0.3043    0.7198   -1.9744 N   0  0  0  0  0  0  0  0  0  0  0  0
    1.1126   -2.4211    0.4788 C   0  0  0  0  0  0  0  0  0  0  0  0
    2.1142   -2.8942    0.3527 H   0  0  0  0  0  0  0  0  0  0  0  0
    0.9200   -2.2871    1.5672 H   0  0  0  0  0  0  0  0  0  0  0  0
    0.0831   -3.2562   -0.1121 C   0  0  0  0  0  0  0  0  0  0  0  0
   -0.7882   -3.8850   -0.7093 C   0  0  0  0  0  0  0  0  0  0  0  0
   -1.8127   -4.4336   -1.5142 C   0  0  0  0  0  0  0  0  0  0  0  0
   -2.1421   -5.4718   -1.3469 H   0  0  0  0  0  0  0  0  0  0  0  0
   -2.4066   -3.6856   -2.5017 C   0  0  0  0  0  0  0  0  0  0  0  0
   -3.2049   -4.1359   -3.1145 H   0  0  0  0  0  0  0  0  0  0  0  0
   -2.0460   -2.3378   -2.7392 C   0  0  0  0  0  0  0  0  0  0  0  0
   -1.6845   -1.1657   -2.8361 C   0  0  0  0  0  0  0  0  0  0  0  0
   -1.3707    0.2508   -2.9170 C   0  0  0  0  0  0  0  0  0  0  0  0
   -2.2886    0.8194   -2.6409 H   0  0  0  0  0  0  0  0  0  0  0  0
   -1.0874    0.5415   -3.9586 H   0  0  0  0  0  0  0  0  0  0  0  0
    1.3310   -1.1503   -1.5961 C   0  0  0  0  0  0  0  0  0  0  0  0
    0.6451   -1.9400   -1.9505 H   0  0  0  0  0  0  0  0  0  0  0  0
    2.3716   -1.4729   -1.8280 H   0  0  0  0  0  0  0  0  0  0  0  0
    1.0376    0.1569   -2.3056 C   0  0  0  0  0  0  0  0  0  0  0  0
    1.7883    0.9142   -2.0160 H   0  0  0  0  0  0  0  0  0  0  0  0
    1.1343    0.0132   -3.4050 H   0  0  0  0  0  0  0  0  0  0  0  0
    2.1571   -0.1876    0.5750 C   0  0  0  0  0  0  0  0  0  0  0  0
    1.8536   -0.1861    1.6408 H   0  0  0  0  0  0  0  0  0  0  0  0
    2.0205    0.8458    0.2070 H   0  0  0  0  0  0  0  0  0  0  0  0
    3.5986   -0.6151    0.4101 C   0  0  0  0  0  0  0  0  0  0  0  0
    4.1852   -1.5600    1.2787 C   0  0  0  0  0  0  0  0  0  0  0  0
    3.5936   -1.9688    2.1128 H   0  0  0  0  0  0  0  0  0  0  0  0
    5.5177   -1.9636    1.1080 C   0  0  0  0  0  0  0  0  0  0  0  0
    5.9592   -2.6988    1.7977 H   0  0  0  0  0  0  0  0  0  0  0  0
    6.2898   -1.4221    0.0680 C   0  0  0  0  0  0  0  0  0  0  0  0
    7.3359   -1.7368   -0.0652 H   0  0  0  0  0  0  0  0  0  0  0  0
    5.7271   -0.4638   -0.7897 C   0  0  0  0  0  0  0  0  0  0  0  0
    6.3334   -0.0185   -1.5931 H   0  0  0  0  0  0  0  0  0  0  0  0
    4.3941   -0.0629   -0.6159 C   0  0  0  0  0  0  0  0  0  0  0  0
    3.9670    0.7142   -1.2698 H   0  0  0  0  0  0  0  0  0  0  0  0
   -0.2746    2.2258   -2.0622 C   0  0  0  0  0  0  0  0  0  0  0  0
   -0.0582    2.5045   -3.1194 H   0  0  0  0  0  0  0  0  0  0  0  0
   -1.3023    2.5598   -1.8143 H   0  0  0  0  0  0  0  0  0  0  0  0
    0.7284    2.8751   -1.1404 C   0  0  0  0  0  0  0  0  0  0  0  0
    1.9869    3.2924   -1.6234 C   0  0  0  0  0  0  0  0  0  0  0  0
    2.2132    3.1983   -2.6983 H   0  0  0  0  0  0  0  0  0  0  0  0
    2.9516    3.8261   -0.7540 C   0  0  0  0  0  0  0  0  0  0  0  0
    3.9303    4.1411   -1.1465 H   0  0  0  0  0  0  0  0  0  0  0  0
    2.6628    3.9582    0.6136 C   0  0  0  0  0  0  0  0  0  0  0  0
    3.4190    4.3691    1.2995 H   0  0  0  0  0  0  0  0  0  0  0  0
    1.4014    3.5777    1.0996 C   0  0  0  0  0  0  0  0  0  0  0  0
    1.1607    3.6921    2.1671 H   0  0  0  0  0  0  0  0  0  0  0  0
    0.4384    3.0430    0.2305 C   0  0  0  0  0  0  0  0  0  0  0  0
   -0.5479    2.7412    0.6153 H   0  0  0  0  0  0  0  0  0  0  0  0
  1  3  1  0  0  0  0
  1 23  1  0  0  0  0
  3  5  1  0  0  0  0
  4  3  1  0  0  0  0
  6  3  1  0  0  0  0
  7  6  3  0  0  0  0
  8  9  1  0  0  0  0
  8  7  1  0  0  0  0
 10  8  2  0  0  0  0
 11 10  1  0  0  0  0
 12 10  1  0  0  0  0
 13 12  3  0  0  0  0
 14 13  1  0  0  0  0
 14 15  1  0  0  0  0
 14  2  1  0  0  0  0
 16 14  1  0  0  0  0
 17  1  1  0  0  0  0
 18 17  1  0  0  0  0
 19 17  1  0  0  0  0
 20 21  1  0  0  0  0
 20  2  1  0  0  0  0
 20 17  1  0  0  0  0
 22 20  1  0  0  0  0
 23 24  1  0  0  0  0
 25 23  1  0  0  0  0
 26 23  1  0  0  0  0
 26 27  1  0  0  0  0
 27 28  1  0  0  0  0
 29 27  2  0  0  0  0
 29 30  1  0  0  0  0
 31 29  1  0  0  0  0
 32 31  1  0  0  0  0
 33 35  1  0  0  0  0
 33 31  2  0  0  0  0
 34 33  1  0  0  0  0
 35 26  2  0  0  0  0
 36 35  1  0  0  0  0
 37  2  1  0  0  0  0
 37 39  1  0  0  0  0
 37 40  1  0  0  0  0
 38 37  1  0  0  0  0
 40 49  1  0  0  0  0
 41 40  2  0  0  0  0
 41 43  1  0  0  0  0
 42 41  1  0  0  0  0
 43 45  2  0  0  0  0
 44 43  1  0  0  0  0
 45 47  1  0  0  0  0
 45 46  1  0  0  0  0
 47 48  1  0  0  0  0
 49 50  1  0  0  0  0
 49 47  2  0  0  0  0
M  END
