9,13
 OpenBabel05122313053D

 34 36  0  0  1  0  0  0  0  0999 V2000
    7.5817   -0.6059    3.6298 O   0  0  0  0  0  0  0  0  0  0  0  0
    5.5993    0.3367    3.5711 O   0  0  0  0  0  0  0  0  0  0  0  0
    7.8633   -1.9877    0.8907 O   0  0  0  0  0  0  0  0  0  0  0  0
    8.8359   -0.0146    0.9188 O   0  0  0  0  0  0  0  0  0  0  0  0
    6.6076   -0.1439    3.0687 N   0  0  0  0  0  0  0  0  0  0  0  0
    7.8900   -0.7758    1.0570 N   0  0  0  0  0  0  0  0  0  0  0  0
    5.0365    0.6028    0.3592 N   0  0  0  0  0  0  0  0  0  0  0  0
    2.7658    0.3641   -0.0333 N   0  0  0  0  0  0  0  0  0  0  0  0
    1.6564    0.9330   -0.4742 N   0  0  0  0  0  2  0  0  0  0  0  0
    2.7189    3.0700   -0.5148 N   0  0  0  0  0  0  0  0  0  0  0  0
    3.8281    2.5383   -0.0523 N   0  0  0  0  0  2  0  0  0  0  0  0
    0.5392    2.7655   -1.3940 N   0  0  0  0  0  0  0  0  0  0  0  0
   -0.4100    1.8505   -1.7688 N   0  0  0  0  0  2  0  0  0  0  0  0
    6.5949   -0.1433    1.5293 C   0  0  0  0  0  0  0  0  0  0  0  0
    6.2436    1.2287    0.9140 C   0  0  0  0  0  0  0  0  0  0  0  0
    6.0335    2.0297    1.6500 H   0  0  0  0  0  0  0  0  0  0  0  0
    6.9799    1.5798    0.1641 H   0  0  0  0  0  0  0  0  0  0  0  0
    5.2986   -0.7235    0.9265 C   0  0  0  0  0  0  0  0  0  0  0  0
    5.4806   -1.5285    0.1865 H   0  0  0  0  0  0  0  0  0  0  0  0
    4.5449   -1.0469    1.6719 H   0  0  0  0  0  0  0  0  0  0  0  0
    3.8556    1.1740    0.0607 C   0  0  0  0  0  0  0  0  0  0  0  0
    1.6937    2.2565   -0.7974 C   0  0  0  0  0  0  0  0  0  0  0  0
   -2.6615    1.8635   -2.7726 C   0  0  0  0  0  0  0  0  0  0  0  0
   -3.1497    2.4443   -3.5770 H   0  0  0  0  0  0  0  0  0  0  0  0
   -2.4194    0.8534   -3.1557 H   0  0  0  0  0  0  0  0  0  0  0  0
   -3.3922    1.7420   -1.9453 H   0  0  0  0  0  0  0  0  0  0  0  0
   -1.4309    2.5502   -2.2841 C   0  0  1  0  0  3  0  0  0  0  0  0
   -1.1228    3.9387   -2.2464 C   0  0  0  0  0  0  0  0  0  0  0  0
   -1.7484    4.7633   -2.6034 H   0  0  0  0  0  0  0  0  0  0  0  0
    0.1402    4.0653   -1.6767 C   0  0  0  0  0  0  0  0  0  0  0  0
    0.9523    5.2804   -1.3960 C   0  0  0  0  0  0  0  0  0  0  0  0
    1.2194    5.3564   -0.3236 H   0  0  0  0  0  0  0  0  0  0  0  0
    1.9103    5.2699   -1.9522 H   0  0  0  0  0  0  0  0  0  0  0  0
    0.3762    6.1767   -1.6890 H   0  0  0  0  0  0  0  0  0  0  0  0
  3  6  2  0  0  0  0
  4  6  2  0  0  0  0
  5  2  2  0  0  0  0
  5  1  2  0  0  0  0
  6 14  1  0  0  0  0
  7 15  1  0  0  0  0
  7 18  1  0  0  0  0
  8 21  2  0  0  0  0
  9  8  1  0  0  0  0
 10 11  1  0  0  0  0
 11 21  1  0  0  0  0
 12 22  1  0  0  0  0
 13 12  1  0  0  0  0
 14  5  1  0  0  0  0
 15 14  1  0  0  0  0
 15 16  1  0  0  0  0
 17 15  1  0  0  0  0
 18 14  1  0  0  0  0
 18 20  1  0  0  0  0
 19 18  1  0  0  0  0
 21  7  1  0  0  0  0
 22 10  2  0  0  0  0
 22  9  1  0  0  0  0
 23 26  1  0  0  0  0
 24 23  1  0  0  0  0
 25 23  1  0  0  0  0
 27 23  1  1  0  0  0
 27 28  1  0  0  0  0
 27 13  1  0  0  0  0
 28 30  2  0  0  0  0
 29 28  1  0  0  0  0
 30 31  1  0  0  0  0
 30 12  1  0  0  0  0
 31 32  1  0  0  0  0
 33 31  1  0  0  0  0
 34 31  1  0  0  0  0
M  END
