1,2
 OpenBabel05122313053D

 42 44  0  0  0  0  0  0  0  0999 V2000
   -1.4916    1.4646   -0.0601 N   0  0  0  0  0  2  0  0  0  0  0  0
   -1.2254   -1.2770    0.6965 N   0  0  0  0  0  0  0  0  0  0  0  0
    3.2016    0.6082    1.0608 N   0  0  0  0  0  2  0  0  0  0  0  0
   -1.4728    2.7801   -0.3817 C   0  0  0  0  0  3  0  0  0  0  0  0
   -0.2883    3.5347   -0.3405 C   0  0  0  0  0  0  0  0  0  0  0  0
    0.9452    2.9567    0.0414 C   0  0  0  0  0  0  0  0  0  0  0  0
    0.9409    1.5934    0.3721 C   0  0  0  0  0  0  0  0  0  0  0  0
    1.9400    0.5525    0.8345 C   0  0  0  0  0  0  0  0  0  0  0  0
    1.1514   -0.7141    1.0159 C   0  0  0  0  0  0  0  0  0  0  0  0
    1.4457   -2.0186    1.4231 C   0  0  0  0  0  0  0  0  0  0  0  0
    0.3659   -2.9300    1.4531 C   0  0  0  0  0  0  0  0  0  0  0  0
   -0.9388   -2.5396    1.0922 C   0  0  0  0  0  3  0  0  0  0  0  0
   -0.1793   -0.4395    0.6701 C   0  0  0  0  0  0  0  0  0  0  0  0
   -0.3079    0.9409    0.2862 C   0  0  0  0  0  0  0  0  0  0  0  0
    3.9500    1.8362    0.8740 C   0  0  0  0  0  0  0  0  0  0  0  0
    5.4494    1.6058    1.0658 C   0  0  0  0  0  0  0  0  0  0  0  0
    6.0439    0.6556    0.0248 C   0  0  0  0  0  0  0  0  0  0  0  0
    7.5255    0.3439    0.2446 C   0  0  0  0  0  0  0  0  0  0  0  0
    8.1171   -0.6067   -0.7993 C   0  0  0  0  0  0  0  0  0  0  0  0
    9.5982   -0.9284   -0.5786 C   0  0  0  0  0  0  0  0  0  0  0  0
   10.1791   -1.8775   -1.6272 C   0  0  0  0  0  0  0  0  0  0  0  0
   -2.4324    3.2249   -0.6841 H   0  0  0  0  0  0  0  0  0  0  0  0
   -0.3336    4.5981   -0.6148 H   0  0  0  0  0  0  0  0  0  0  0  0
    1.8534    3.5727    0.0707 H   0  0  0  0  0  0  0  0  0  0  0  0
    2.4657   -2.3177    1.7047 H   0  0  0  0  0  0  0  0  0  0  0  0
    0.5318   -3.9723    1.7605 H   0  0  0  0  0  0  0  0  0  0  0  0
   -1.7782   -3.2503    1.1088 H   0  0  0  0  0  0  0  0  0  0  0  0
    3.7597    2.2556   -0.1434 H   0  0  0  0  0  0  0  0  0  0  0  0
    3.5835    2.6030    1.5970 H   0  0  0  0  0  0  0  0  0  0  0  0
    5.9703    2.5873    1.0338 H   0  0  0  0  0  0  0  0  0  0  0  0
    5.6127    1.1945    2.0856 H   0  0  0  0  0  0  0  0  0  0  0  0
    5.4556   -0.2885    0.0362 H   0  0  0  0  0  0  0  0  0  0  0  0
    5.9018    1.0883   -0.9920 H   0  0  0  0  0  0  0  0  0  0  0  0
    8.1076    1.2936    0.2499 H   0  0  0  0  0  0  0  0  0  0  0  0
    7.6611   -0.0932    1.2598 H   0  0  0  0  0  0  0  0  0  0  0  0
    7.5313   -1.5540   -0.8066 H   0  0  0  0  0  0  0  0  0  0  0  0
    7.9836   -0.1680   -1.8144 H   0  0  0  0  0  0  0  0  0  0  0  0
   10.1791    0.0209   -0.5691 H   0  0  0  0  0  0  0  0  0  0  0  0
    9.7278   -1.3662    0.4365 H   0  0  0  0  0  0  0  0  0  0  0  0
   10.0963   -1.4495   -2.6482 H   0  0  0  0  0  0  0  0  0  0  0  0
   11.2508   -2.0913   -1.4408 H   0  0  0  0  0  0  0  0  0  0  0  0
    9.6408   -2.8484   -1.6344 H   0  0  0  0  0  0  0  0  0  0  0  0
  1 14  1  0  0  0  0
  2 12  1  0  0  0  0
  4  5  1  0  0  0  0
  4  1  1  0  0  0  0
  5  6  2  0  0  0  0
  6 24  1  0  0  0  0
  6  7  1  0  0  0  0
  7  8  1  0  0  0  0
  8  9  2  0  0  0  0
  8  3  1  0  0  0  0
  9 10  1  0  0  0  0
 10 11  2  0  0  0  0
 10 25  1  0  0  0  0
 11 26  1  0  0  0  0
 12 27  1  0  0  0  0
 12 11  1  0  0  0  0
 13  2  2  0  0  0  0
 13  9  1  0  0  0  0
 14  7  2  0  0  0  0
 14 13  1  0  0  0  0
 15  3  1  0  0  0  0
 15 16  1  0  0  0  0
 15 29  1  0  0  0  0
 16 31  1  0  0  0  0
 17 32  1  0  0  0  0
 17 18  1  0  0  0  0
 17 16  1  0  0  0  0
 18 34  1  0  0  0  0
 18 35  1  0  0  0  0
 19 20  1  0  0  0  0
 19 18  1  0  0  0  0
 20 38  1  0  0  0  0
 20 39  1  0  0  0  0
 21 41  1  0  0  0  0
 21 20  1  0  0  0  0
 22  4  1  0  0  0  0
 23  5  1  0  0  0  0
 28 15  1  0  0  0  0
 30 16  1  0  0  0  0
 33 17  1  0  0  0  0
 36 19  1  0  0  0  0
 37 19  1  0  0  0  0
 40 21  1  0  0  0  0
 42 21  1  0  0  0  0
M  END
