24,49
 OpenBabel05122313053D

 50 54  0  0  0  0  0  0  0  0999 V2000
   -2.6584    0.3003    0.2192 C   0  0  0  0  0  0  0  0  0  0  0  0
   -3.0873    1.3135    0.2736 H   0  0  0  0  0  0  0  0  0  0  0  0
   -3.4915   -0.8573    0.1806 C   0  0  0  0  0  0  0  0  0  0  0  0
   -2.8478   -2.1053    0.1446 C   0  0  0  0  0  0  0  0  0  0  0  0
   -3.4411   -3.0322    0.1173 H   0  0  0  0  0  0  0  0  0  0  0  0
   -1.4358   -2.1896    0.0895 C   0  0  0  0  0  0  0  0  0  0  0  0
   -0.6877   -3.4205    0.0336 C   0  0  0  0  0  0  0  0  0  0  0  0
   -1.2411   -4.3718    0.0561 H   0  0  0  0  0  0  0  0  0  0  0  0
   -0.7162   -0.9598    0.0720 C   0  0  0  0  0  0  0  0  0  0  0  0
   -4.9604   -0.7123    0.1798 C   0  0  0  0  0  0  0  0  0  0  0  0
   -5.5732    0.4061   -0.4269 C   0  0  0  0  0  0  0  0  0  0  0  0
   -4.9519    1.1652   -0.9263 H   0  0  0  0  0  0  0  0  0  0  0  0
   -6.9653    0.5576   -0.4498 C   0  0  0  0  0  0  0  0  0  0  0  0
   -7.3989    1.4362   -0.9449 H   0  0  0  0  0  0  0  0  0  0  0  0
   -7.7871   -0.4209    0.1491 C   0  0  0  0  0  0  0  0  0  0  0  0
   -7.1883   -1.5457    0.7621 C   0  0  0  0  0  0  0  0  0  0  0  0
   -7.8434   -2.2911    1.2352 H   0  0  0  0  0  0  0  0  0  0  0  0
   -5.8026   -1.6851    0.7730 C   0  0  0  0  0  0  0  0  0  0  0  0
   -5.3588   -2.5547    1.2810 H   0  0  0  0  0  0  0  0  0  0  0  0
   -9.7966    0.7411   -0.3966 C   0  0  0  0  0  0  0  0  0  0  0  0
   -9.4992    1.6969    0.0890 H   0  0  0  0  0  0  0  0  0  0  0  0
  -10.8796    0.5809   -0.2441 H   0  0  0  0  0  0  0  0  0  0  0  0
   -9.5914    0.8146   -1.4878 H   0  0  0  0  0  0  0  0  0  0  0  0
   -1.3338    0.2408    0.1860 N   0  0  0  0  0  2  0  0  0  0  0  0
   -9.1417   -0.3718    0.1882 O   0  0  0  0  0  0  0  0  0  0  0  0
    2.6584    0.3003   -0.2192 C   0  0  0  0  0  0  0  0  0  0  0  0
    3.0873    1.3135   -0.2736 H   0  0  0  0  0  0  0  0  0  0  0  0
    3.4915   -0.8573   -0.1806 C   0  0  0  0  0  0  0  0  0  0  0  0
    2.8478   -2.1053   -0.1446 C   0  0  0  0  0  0  0  0  0  0  0  0
    3.4411   -3.0322   -0.1173 H   0  0  0  0  0  0  0  0  0  0  0  0
    1.4358   -2.1896   -0.0895 C   0  0  0  0  0  0  0  0  0  0  0  0
    0.6877   -3.4205   -0.0336 C   0  0  0  0  0  0  0  0  0  0  0  0
    1.2411   -4.3718   -0.0561 H   0  0  0  0  0  0  0  0  0  0  0  0
    0.7162   -0.9598   -0.0720 C   0  0  0  0  0  0  0  0  0  0  0  0
    4.9604   -0.7123   -0.1798 C   0  0  0  0  0  0  0  0  0  0  0  0
    5.5732    0.4061    0.4269 C   0  0  0  0  0  0  0  0  0  0  0  0
    4.9519    1.1652    0.9263 H   0  0  0  0  0  0  0  0  0  0  0  0
    6.9653    0.5576    0.4498 C   0  0  0  0  0  0  0  0  0  0  0  0
    7.3989    1.4362    0.9449 H   0  0  0  0  0  0  0  0  0  0  0  0
    7.7871   -0.4209   -0.1491 C   0  0  0  0  0  0  0  0  0  0  0  0
    7.1883   -1.5457   -0.7621 C   0  0  0  0  0  0  0  0  0  0  0  0
    7.8434   -2.2911   -1.2351 H   0  0  0  0  0  0  0  0  0  0  0  0
    5.8026   -1.6851   -0.7730 C   0  0  0  0  0  0  0  0  0  0  0  0
    5.3588   -2.5547   -1.2810 H   0  0  0  0  0  0  0  0  0  0  0  0
    9.7966    0.7411    0.3966 C   0  0  0  0  0  0  0  0  0  0  0  0
    9.4991    1.6969   -0.0890 H   0  0  0  0  0  0  0  0  0  0  0  0
   10.8796    0.5809    0.2441 H   0  0  0  0  0  0  0  0  0  0  0  0
    9.5914    0.8146    1.4878 H   0  0  0  0  0  0  0  0  0  0  0  0
    1.3338    0.2408   -0.1860 N   0  0  0  0  0  2  0  0  0  0  0  0
    9.1417   -0.3718   -0.1882 O   0  0  0  0  0  0  0  0  0  0  0  0
  1  2  1  0  0  0  0
  3  1  2  0  0  0  0
  4  3  1  0  0  0  0
  5  4  1  0  0  0  0
  6  4  2  0  0  0  0
  7  8  1  0  0  0  0
  7  6  1  0  0  0  0
  9  6  1  0  0  0  0
  9 24  1  0  0  0  0
 10  3  1  0  0  0  0
 10 18  1  0  0  0  0
 11 10  2  0  0  0  0
 12 11  1  0  0  0  0
 13 11  1  0  0  0  0
 13 15  2  0  0  0  0
 14 13  1  0  0  0  0
 15 25  1  0  0  0  0
 15 16  1  0  0  0  0
 16 18  2  0  0  0  0
 16 17  1  0  0  0  0
 18 19  1  0  0  0  0
 20 22  1  0  0  0  0
 20 21  1  0  0  0  0
 20 25  1  0  0  0  0
 23 20  1  0  0  0  0
 24  1  1  0  0  0  0
 26 49  1  0  0  0  0
 26 28  2  0  0  0  0
 27 26  1  0  0  0  0
 28 35  1  0  0  0  0
 28 29  1  0  0  0  0
 29 30  1  0  0  0  0
 29 31  2  0  0  0  0
 31 34  1  0  0  0  0
 31 32  1  0  0  0  0
 32  7  2  0  0  0  0
 33 32  1  0  0  0  0
 34  9  2  0  0  0  0
 35 36  1  0  0  0  0
 36 38  2  0  0  0  0
 36 37  1  0  0  0  0
 38 39  1  0  0  0  0
 40 38  1  0  0  0  0
 41 40  2  0  0  0  0
 42 41  1  0  0  0  0
 43 41  1  0  0  0  0
 43 35  2  0  0  0  0
 44 43  1  0  0  0  0
 45 48  1  0  0  0  0
 46 45  1  0  0  0  0
 47 45  1  0  0  0  0
 49 34  1  0  0  0  0
 50 40  1  0  0  0  0
 50 45  1  0  0  0  0
M  END
