1,3
 OpenBabel05122313053D

 20 19  0  0  0  0  0  0  0  0999 V2000
    1.1413    1.2109    0.6767 N   0  0  0  0  0  2  0  0  0  0  0  0
    1.4468    1.2215    1.6608 H   0  0  0  0  0  0  0  0  0  0  0  0
    1.3380   -1.6603   -0.3558 N   0  0  0  0  0  0  0  0  0  0  0  0
    1.6725   -2.1780    0.4715 H   0  0  0  0  0  0  0  0  0  0  0  0
    0.8061   -2.3460   -0.9177 H   0  0  0  0  0  0  0  0  0  0  0  0
    2.2979    1.2924   -0.2082 C   0  0  0  0  0  0  0  0  0  0  0  0
    2.9446    2.1336    0.1328 H   0  0  0  0  0  0  0  0  0  0  0  0
    1.9369    1.5791   -1.2212 H   0  0  0  0  0  0  0  0  0  0  0  0
    2.4810   -1.0921   -1.1072 C   0  0  0  0  0  0  0  0  0  0  0  0
    2.0843   -0.7060   -2.0675 H   0  0  0  0  0  0  0  0  0  0  0  0
    3.2038   -1.9044   -1.3448 H   0  0  0  0  0  0  0  0  0  0  0  0
    3.2139    0.0415   -0.3593 C   0  0  0  0  0  0  0  0  0  0  0  0
    3.7053   -0.4422    1.0148 C   0  0  0  0  0  0  0  0  0  0  0  0
    4.3595   -1.3340    0.9211 H   0  0  0  0  0  0  0  0  0  0  0  0
    2.8676   -0.6977    1.6973 H   0  0  0  0  0  0  0  0  0  0  0  0
    4.2964    0.3511    1.5157 H   0  0  0  0  0  0  0  0  0  0  0  0
    4.4167    0.4419   -1.2310 C   0  0  0  0  0  0  0  0  0  0  0  0
    5.1056   -0.4128   -1.3900 H   0  0  0  0  0  0  0  0  0  0  0  0
    4.9943    1.2556   -0.7490 H   0  0  0  0  0  0  0  0  0  0  0  0
    4.0892    0.8065   -2.2265 H   0  0  0  0  0  0  0  0  0  0  0  0
  1  2  1  0  0  0  0
  3  4  1  0  0  0  0
  5  3  1  0  0  0  0
  6  7  1  0  0  0  0
  6  1  1  0  0  0  0
  8  6  1  0  0  0  0
  9 12  1  0  0  0  0
  9  3  1  0  0  0  0
 10  9  1  0  0  0  0
 11  9  1  0  0  0  0
 12  6  1  0  0  0  0
 12 13  1  0  0  0  0
 13 16  1  0  0  0  0
 13 15  1  0  0  0  0
 14 13  1  0  0  0  0
 17 19  1  0  0  0  0
 17 12  1  0  0  0  0
 18 17  1  0  0  0  0
 20 17  1  0  0  0  0
M  END
