9,10
 OpenBabel05122313053D

 40 39  0  0  0  0  0  0  0  0999 V2000
    2.2864   -0.4286   -3.5630 O   0  0  0  0  0  0  0  0  0  0  0  0
    1.7238    0.2293   -4.0121 H   0  0  0  0  0  0  0  0  0  0  0  0
   -1.1976    2.3952   -1.4985 O   0  0  0  0  0  0  0  0  0  0  0  0
   -1.3548    2.5625   -0.5336 H   0  0  0  0  0  0  0  0  0  0  0  0
   -3.3670   -3.4164    0.7917 O   0  0  0  0  0  0  0  0  0  0  0  0
   -2.6230   -3.7854    1.3030 H   0  0  0  0  0  0  0  0  0  0  0  0
    3.0999   -2.3333    2.3075 O   0  0  0  0  0  0  0  0  0  0  0  0
    3.5058   -3.0198    1.7469 H   0  0  0  0  0  0  0  0  0  0  0  0
    1.4231   -0.4169   -0.4724 N   0  0  0  0  0  0  0  0  0  0  0  0
   -1.4768   -0.4310   -0.5799 N   0  0  0  0  0  0  0  0  0  0  0  0
    1.9742    0.6662   -1.3565 C   0  0  0  0  0  0  0  0  0  0  0  0
    1.1140    1.2313   -1.7758 H   0  0  0  0  0  0  0  0  0  0  0  0
    2.4773    1.3712   -0.6641 H   0  0  0  0  0  0  0  0  0  0  0  0
    2.9222    0.2334   -2.4742 C   0  0  0  0  0  0  0  0  0  0  0  0
    3.4702    1.1445   -2.8120 H   0  0  0  0  0  0  0  0  0  0  0  0
    3.6956   -0.4668   -2.0953 H   0  0  0  0  0  0  0  0  0  0  0  0
    0.6800   -1.4795   -1.2180 C   0  0  0  0  0  0  0  0  0  0  0  0
    1.2744   -1.8269   -2.0880 H   0  0  0  0  0  0  0  0  0  0  0  0
    0.5396   -2.3335   -0.5292 H   0  0  0  0  0  0  0  0  0  0  0  0
   -0.6581   -0.9615   -1.7016 C   0  0  0  0  0  0  0  0  0  0  0  0
   -1.1999   -1.7563   -2.2603 H   0  0  0  0  0  0  0  0  0  0  0  0
   -0.4892   -0.1326   -2.4125 H   0  0  0  0  0  0  0  0  0  0  0  0
   -2.6162    0.3968   -1.0715 C   0  0  0  0  0  0  0  0  0  0  0  0
   -3.1176    0.7770   -0.1601 H   0  0  0  0  0  0  0  0  0  0  0  0
   -3.3342   -0.2446   -1.6310 H   0  0  0  0  0  0  0  0  0  0  0  0
   -2.2406    1.5823   -1.9710 C   0  0  0  0  0  0  0  0  0  0  0  0
   -1.9406    1.2300   -2.9829 H   0  0  0  0  0  0  0  0  0  0  0  0
   -3.1936    2.1491   -2.1246 H   0  0  0  0  0  0  0  0  0  0  0  0
   -1.9773   -1.4835    0.3527 C   0  0  0  0  0  0  0  0  0  0  0  0
   -2.5670   -0.9589    1.1294 H   0  0  0  0  0  0  0  0  0  0  0  0
   -1.1020   -1.9239    0.8756 H   0  0  0  0  0  0  0  0  0  0  0  0
   -2.8287   -2.6189   -0.2414 C   0  0  0  0  0  0  0  0  0  0  0  0
   -3.6970   -2.2115   -0.7988 H   0  0  0  0  0  0  0  0  0  0  0  0
   -2.2338   -3.2236   -0.9709 H   0  0  0  0  0  0  0  0  0  0  0  0
    2.4981   -1.0231    0.3595 C   0  0  0  0  0  0  0  0  0  0  0  0
    3.1409   -0.1984    0.7199 H   0  0  0  0  0  0  0  0  0  0  0  0
    3.1096   -1.7042   -0.2787 H   0  0  0  0  0  0  0  0  0  0  0  0
    2.0095   -1.7837    1.5992 C   0  0  0  0  0  0  0  0  0  0  0  0
    1.5089   -1.0573    2.2711 H   0  0  0  0  0  0  0  0  0  0  0  0
    1.2541   -2.5646    1.3281 H   0  0  0  0  0  0  0  0  0  0  0  0
  1 14  1  0  0  0  0
  2  1  1  0  0  0  0
  3  4  1  0  0  0  0
  5  6  1  0  0  0  0
  8  7  1  0  0  0  0
  9 35  1  0  0  0  0
 10 29  1  0  0  0  0
 11 13  1  0  0  0  0
 11  9  1  0  0  0  0
 12 11  1  0  0  0  0
 14 16  1  0  0  0  0
 14 11  1  0  0  0  0
 15 14  1  0  0  0  0
 17 19  1  0  0  0  0
 17  9  1  0  0  0  0
 18 17  1  0  0  0  0
 20 17  1  0  0  0  0
 20 10  1  0  0  0  0
 21 20  1  0  0  0  0
 22 20  1  0  0  0  0
 23 10  1  0  0  0  0
 23 24  1  0  0  0  0
 25 23  1  0  0  0  0
 26  3  1  0  0  0  0
 26 23  1  0  0  0  0
 27 26  1  0  0  0  0
 28 26  1  0  0  0  0
 29 31  1  0  0  0  0
 29 30  1  0  0  0  0
 32 29  1  0  0  0  0
 32  5  1  0  0  0  0
 33 32  1  0  0  0  0
 34 32  1  0  0  0  0
 35 36  1  0  0  0  0
 35 38  1  0  0  0  0
 37 35  1  0  0  0  0
 38 39  1  0  0  0  0
 38  7  1  0  0  0  0
 40 38  1  0  0  0  0
M  END
