1,2
 OpenBabel05122313053D

 36 39  0  0  1  0  0  0  0  0999 V2000
    1.1468   -2.1119   -0.4497 N   0  0  0  0  0  2  0  0  0  0  0  0
   -0.5119   -0.0250   -0.3008 N   0  0  0  0  0  2  0  0  0  0  0  0
   -1.0319    3.4694    0.4719 C   0  0  0  0  0  0  0  0  0  0  0  0
   -1.7235    3.2944    1.3088 H   0  0  0  0  0  0  0  0  0  0  0  0
   -5.4987    0.7240    0.1111 O   0  0  0  0  0  0  0  0  0  0  0  0
    2.0503   -3.0948   -0.6575 C   0  0  0  0  0  3  0  0  0  0  0  0
    3.1063   -2.7921   -0.6165 H   0  0  0  0  0  0  0  0  0  0  0  0
    1.6792   -4.4195   -0.8919 C   0  0  0  0  0  0  0  0  0  0  0  0
    2.4544   -5.1821   -1.0492 H   0  0  0  0  0  0  0  0  0  0  0  0
    0.3128   -4.7422   -0.9143 C   0  0  0  0  0  0  0  0  0  0  0  0
   -0.0197   -5.7749   -1.0946 H   0  0  0  0  0  0  0  0  0  0  0  0
   -0.6228   -3.7257   -0.7105 C   0  0  0  0  0  0  0  0  0  0  0  0
   -1.6960   -3.9528   -0.7423 H   0  0  0  0  0  0  0  0  0  0  0  0
   -0.1842   -2.4081   -0.4757 C   0  0  0  0  0  0  0  0  0  0  0  0
   -1.0997   -1.2601   -0.3125 C   0  0  2  0  0  3  0  0  0  0  0  0
   -2.4875   -1.4227   -0.2211 C   0  0  0  0  0  0  0  0  0  0  0  0
   -2.9195   -2.4305   -0.2174 H   0  0  0  0  0  0  0  0  0  0  0  0
   -3.3256   -0.2974   -0.1047 C   0  0  0  0  0  0  0  0  0  0  0  0
   -2.7049    0.9694   -0.1492 C   0  0  0  0  0  0  0  0  0  0  0  0
   -3.3123    1.8827   -0.1154 H   0  0  0  0  0  0  0  0  0  0  0  0
   -1.3135    1.0713   -0.2677 C   0  0  0  0  0  0  0  0  0  0  0  0
   -0.6939    2.4213   -0.4066 C   0  0  0  0  0  0  0  0  0  0  0  0
    0.1662    2.5719   -1.4307 N   0  0  0  0  0  0  0  0  0  0  0  0
    0.7352    3.7699   -1.6072 C   0  0  0  0  0  0  0  0  0  0  0  0
    1.4460    3.8485   -2.4487 H   0  0  0  0  0  0  0  0  0  0  0  0
    0.4762    4.8765   -0.7795 C   0  0  0  0  0  0  0  0  0  0  0  0
    0.9820    5.8364   -0.9600 H   0  0  0  0  0  0  0  0  0  0  0  0
   -0.4272    4.7188    0.2796 C   0  0  0  0  0  0  0  0  0  0  0  0
   -0.6471    5.5542    0.9611 H   0  0  0  0  0  0  0  0  0  0  0  0
   -4.7630   -0.4327    0.0326 C   0  0  0  0  0  0  0  0  0  0  0  0
   -5.6184   -1.5225    0.1142 C   0  0  0  0  0  0  0  0  0  0  0  0
   -5.3306   -2.5786    0.0858 H   0  0  0  0  0  0  0  0  0  0  0  0
   -6.9395   -0.9969    0.2493 C   0  0  0  0  0  0  0  0  0  0  0  0
   -7.8737   -1.5606    0.3427 H   0  0  0  0  0  0  0  0  0  0  0  0
   -6.8047    0.3747    0.2410 C   0  0  0  0  0  0  0  0  0  0  0  0
   -7.5163    1.2031    0.3159 H   0  0  0  0  0  0  0  0  0  0  0  0
  2 21  1  0  0  0  0
  3  4  1  0  0  0  0
  5 35  1  0  0  0  0
  6  7  1  0  0  0  0
  6  1  1  0  0  0  0
  8  6  1  0  0  0  0
  9  8  1  0  0  0  0
 10  8  2  0  0  0  0
 10 12  1  0  0  0  0
 11 10  1  0  0  0  0
 12 14  2  0  0  0  0
 13 12  1  0  0  0  0
 14  1  1  0  0  0  0
 15 14  1  6  0  0  0
 15  2  1  0  0  0  0
 15 16  1  0  0  0  0
 16 17  1  0  0  0  0
 16 18  2  0  0  0  0
 18 30  1  0  0  0  0
 19 20  1  0  0  0  0
 19 18  1  0  0  0  0
 21 19  2  0  0  0  0
 22 21  1  0  0  0  0
 22  3  2  0  0  0  0
 23 22  1  0  0  0  0
 24 23  2  0  0  0  0
 24 26  1  0  0  0  0
 25 24  1  0  0  0  0
 26 28  2  0  0  0  0
 27 26  1  0  0  0  0
 28  3  1  0  0  0  0
 28 29  1  0  0  0  0
 30  5  1  0  0  0  0
 30 31  2  0  0  0  0
 31 33  1  0  0  0  0
 32 31  1  0  0  0  0
 33 34  1  0  0  0  0
 35 33  2  0  0  0  0
 35 36  1  0  0  0  0
M  END
