1,2
q = 0.0, confidence = 1.0

 28 30  0  0  1  0  0  0  0  0999 V2000
    2.0971    1.1068   -0.8052 N   0  0  0  0  0  2  0  0  0  0  0  0
   -0.4239    1.9170   -0.4953 N   0  0  0  0  0  2  0  0  0  0  0  0
   -1.5931    2.5659   -0.3017 N   0  0  0  0  0  0  0  0  0  0  0  0
    3.3484    0.6203   -0.9497 C   0  0  0  0  0  3  0  0  0  0  0  0
    3.4762   -0.4460   -0.7067 H   0  0  0  0  0  0  0  0  0  0  0  0
    4.4153    1.4152   -1.3818 C   0  0  0  0  0  0  0  0  0  0  0  0
    5.4162    0.9733   -1.4843 H   0  0  0  0  0  0  0  0  0  0  0  0
    4.1785    2.7677   -1.6751 C   0  0  0  0  0  0  0  0  0  0  0  0
    4.9953    3.4194   -2.0182 H   0  0  0  0  0  0  0  0  0  0  0  0
    2.8845    3.2775   -1.5244 C   0  0  0  0  0  0  0  0  0  0  0  0
    2.6622    4.3307   -1.7450 H   0  0  0  0  0  0  0  0  0  0  0  0
    1.8571    2.4231   -1.0843 C   0  0  0  0  0  0  0  0  0  0  0  0
    0.4784    2.8578   -0.8774 C   0  0  2  0  0  3  0  0  0  0  0  0
   -0.1405    4.1328   -0.9312 C   0  0  0  0  0  0  0  0  0  0  0  0
    0.3085    5.0919   -1.2054 H   0  0  0  0  0  0  0  0  0  0  0  0
   -1.4592    3.9055   -0.5550 C   0  0  0  0  0  0  0  0  0  0  0  0
   -2.3199    4.5764   -0.4660 H   0  0  0  0  0  0  0  0  0  0  0  0
   -2.7786    1.8898    0.1349 C   0  0  0  0  0  0  0  0  0  0  0  0
   -3.3214    2.2135    1.3887 C   0  0  0  0  0  0  0  0  0  0  0  0
   -2.8285    2.9647    2.0232 H   0  0  0  0  0  0  0  0  0  0  0  0
   -4.4846    1.5583    1.8164 C   0  0  0  0  0  0  0  0  0  0  0  0
   -4.9164    1.8002    2.7985 H   0  0  0  0  0  0  0  0  0  0  0  0
   -5.0886    0.5921    0.9967 C   0  0  0  0  0  0  0  0  0  0  0  0
   -5.9970    0.0744    1.3377 H   0  0  0  0  0  0  0  0  0  0  0  0
   -4.5380    0.2836   -0.2571 C   0  0  0  0  0  0  0  0  0  0  0  0
   -5.0117   -0.4742   -0.8968 H   0  0  0  0  0  0  0  0  0  0  0  0
   -3.3777    0.9323   -0.6972 C   0  0  0  0  0  0  0  0  0  0  0  0
   -2.9354    0.7077   -1.6774 H   0  0  0  0  0  0  0  0  0  0  0  0
  2  3  1  0  0  0  0
  3 18  1  0  0  0  0
  4  1  1  0  0  0  0
  4  5  1  0  0  0  0
  6  4  1  0  0  0  0
  7  6  1  0  0  0  0
  8 10  1  0  0  0  0
  8  6  2  0  0  0  0
  9  8  1  0  0  0  0
 10 12  2  0  0  0  0
 11 10  1  0  0  0  0
 12  1  1  0  0  0  0
 13 12  1  1  0  0  0
 13  2  1  0  0  0  0
 14 13  1  0  0  0  0
 14 16  2  0  0  0  0
 15 14  1  0  0  0  0
 16 17  1  0  0  0  0
 16  3  1  0  0  0  0
 18 19  1  0  0  0  0
 19 21  2  0  0  0  0
 19 20  1  0  0  0  0
 21 22  1  0  0  0  0
 23 24  1  0  0  0  0
 23 21  1  0  0  0  0
 25 23  2  0  0  0  0
 26 25  1  0  0  0  0
 27 25  1  0  0  0  0
 27 18  2  0  0  0  0
 28 27  1  0  0  0  0
M  END
