1,2
 OpenBabel05122313053D

 47 51  0  0  0  0  0  0  0  0999 V2000
   -2.6033    0.3063    1.2613 N   0  0  0  0  0  2  0  0  0  0  0  0
   -0.2108   -0.6221    0.9849 N   0  0  0  0  0  2  0  0  0  0  0  0
    2.4342    0.9119    3.0693 O   0  0  0  0  0  0  0  0  0  0  0  0
    2.6416    1.4813    3.8347 H   0  0  0  0  0  0  0  0  0  0  0  0
   -3.8954    0.6715    1.3940 C   0  0  0  0  0  3  0  0  0  0  0  0
   -4.5882    0.3050    0.6251 H   0  0  0  0  0  0  0  0  0  0  0  0
   -4.3402    1.4603    2.4607 C   0  0  0  0  0  0  0  0  0  0  0  0
   -5.4013    1.7405    2.5147 H   0  0  0  0  0  0  0  0  0  0  0  0
   -3.4255    1.8688    3.4457 C   0  0  0  0  0  0  0  0  0  0  0  0
   -3.7536    2.4861    4.2944 H   0  0  0  0  0  0  0  0  0  0  0  0
   -2.0948    1.4567    3.3360 C   0  0  0  0  0  0  0  0  0  0  0  0
   -1.3451    1.7221    4.0945 H   0  0  0  0  0  0  0  0  0  0  0  0
   -1.7082    0.6692    2.2364 C   0  0  0  0  0  0  0  0  0  0  0  0
   -0.3863    0.1291    2.0445 C   0  0  0  0  0  3  0  0  0  0  0  0
    0.4218    0.2788    2.7797 H   0  0  0  0  0  0  0  0  0  0  0  0
    1.0577   -1.2254    0.7395 C   0  0  0  0  0  0  0  0  0  0  0  0
    1.0693   -2.6444    0.5913 C   0  0  0  0  0  0  0  0  0  0  0  0
    0.1192   -3.1834    0.7218 H   0  0  0  0  0  0  0  0  0  0  0  0
    2.2573   -3.3018    0.3442 C   0  0  0  0  0  0  0  0  0  0  0  0
    2.2718   -4.3988    0.2541 H   0  0  0  0  0  0  0  0  0  0  0  0
    3.4819   -2.5817    0.2161 C   0  0  0  0  0  0  0  0  0  0  0  0
    4.7143   -3.2433   -0.0501 C   0  0  0  0  0  0  0  0  0  0  0  0
    4.7134   -4.3390   -0.1556 H   0  0  0  0  0  0  0  0  0  0  0  0
    5.8945   -2.5245   -0.1716 C   0  0  0  0  0  0  0  0  0  0  0  0
    6.8407   -3.0472   -0.3761 H   0  0  0  0  0  0  0  0  0  0  0  0
    5.8853   -1.1121   -0.0286 C   0  0  0  0  0  0  0  0  0  0  0  0
    6.8258   -0.5491   -0.1225 H   0  0  0  0  0  0  0  0  0  0  0  0
    4.7016   -0.4376    0.2324 C   0  0  0  0  0  0  0  0  0  0  0  0
    4.7020    0.6557    0.3460 H   0  0  0  0  0  0  0  0  0  0  0  0
    3.4698   -1.1459    0.3623 C   0  0  0  0  0  0  0  0  0  0  0  0
    2.2328   -0.4613    0.6342 C   0  0  0  0  0  0  0  0  0  0  0  0
    2.2309    1.0309    0.7111 C   0  0  0  0  0  0  0  0  0  0  0  0
    2.3512    1.6837    1.9437 C   0  0  0  0  0  0  0  0  0  0  0  0
    2.3598    3.1047    2.0283 C   0  0  0  0  0  0  0  0  0  0  0  0
    2.4363    3.5842    3.0178 H   0  0  0  0  0  0  0  0  0  0  0  0
    2.2779    3.8726    0.8816 C   0  0  0  0  0  0  0  0  0  0  0  0
    2.2832    4.9709    0.9518 H   0  0  0  0  0  0  0  0  0  0  0  0
    2.2082    3.2606   -0.4032 C   0  0  0  0  0  0  0  0  0  0  0  0
    2.1662    4.0339   -1.5996 C   0  0  0  0  0  0  0  0  0  0  0  0
    2.1586    5.1317   -1.5166 H   0  0  0  0  0  0  0  0  0  0  0  0
    2.1505    3.4231   -2.8451 C   0  0  0  0  0  0  0  0  0  0  0  0
    2.1279    4.0313   -3.7612 H   0  0  0  0  0  0  0  0  0  0  0  0
    2.1927    2.0066   -2.9356 C   0  0  0  0  0  0  0  0  0  0  0  0
    2.2164    1.5247   -3.9248 H   0  0  0  0  0  0  0  0  0  0  0  0
    2.2175    1.2243   -1.7878 C   0  0  0  0  0  0  0  0  0  0  0  0
    2.2776    0.1289   -1.8675 H   0  0  0  0  0  0  0  0  0  0  0  0
    2.2074    1.8195   -0.4900 C   0  0  0  0  0  0  0  0  0  0  0  0
  1  5  1  0  0  0  0
  1 13  1  0  0  0  0
  2 14  1  0  0  0  0
  3  4  1  0  0  0  0
  5  7  1  0  0  0  0
  6  5  1  0  0  0  0
  7  8  1  0  0  0  0
  7  9  2  0  0  0  0
  9 10  1  0  0  0  0
 11  9  1  0  0  0  0
 11 12  1  0  0  0  0
 13 11  2  0  0  0  0
 14 13  1  0  0  0  0
 14 15  1  0  0  0  0
 16  2  1  0  0  0  0
 17 18  1  0  0  0  0
 17 16  2  0  0  0  0
 19 17  1  0  0  0  0
 20 19  1  0  0  0  0
 21 19  2  0  0  0  0
 21 30  1  0  0  0  0
 22 21  1  0  0  0  0
 23 22  1  0  0  0  0
 24 22  2  0  0  0  0
 24 26  1  0  0  0  0
 25 24  1  0  0  0  0
 26 28  2  0  0  0  0
 27 26  1  0  0  0  0
 28 29  1  0  0  0  0
 28 30  1  0  0  0  0
 30 31  2  0  0  0  0
 31 32  1  0  0  0  0
 31 16  1  0  0  0  0
 32 33  1  0  0  0  0
 33 34  2  0  0  0  0
 33  3  1  0  0  0  0
 34 35  1  0  0  0  0
 36 37  1  0  0  0  0
 36 34  1  0  0  0  0
 38 36  2  0  0  0  0
 39 40  1  0  0  0  0
 39 38  1  0  0  0  0
 41 39  2  0  0  0  0
 42 41  1  0  0  0  0
 43 41  1  0  0  0  0
 43 45  2  0  0  0  0
 44 43  1  0  0  0  0
 45 47  1  0  0  0  0
 46 45  1  0  0  0  0
 47 38  1  0  0  0  0
 47 32  2  0  0  0  0
M  END
