1,3
 OpenBabel05122313053D

 39 42  0  0  1  0  0  0  0  0999 V2000
    0.3723    2.0401    0.0548 N   0  0  0  0  0  2  0  0  0  0  0  0
    1.5763    1.5139    0.0724 N   0  0  0  0  0  2  0  0  0  0  0  0
    1.4428    0.2278    0.1519 N   0  0  0  0  0  2  0  0  0  0  0  0
    0.2418    3.4215   -0.0054 C   0  0  0  0  0  0  0  0  0  0  0  0
   -1.0780    3.9370   -0.0522 C   0  0  0  0  0  0  0  0  0  0  0  0
   -1.9102    3.2153   -0.0376 H   0  0  0  0  0  0  0  0  0  0  0  0
   -1.3052    5.3161   -0.1163 C   0  0  0  0  0  0  0  0  0  0  0  0
   -2.3389    5.6950   -0.1520 H   0  0  0  0  0  0  0  0  0  0  0  0
   -0.2255    6.2162   -0.1358 C   0  0  0  0  0  0  0  0  0  0  0  0
   -0.4034    7.3008   -0.1861 H   0  0  0  0  0  0  0  0  0  0  0  0
    1.0870    5.7103   -0.0891 C   0  0  0  0  0  0  0  0  0  0  0  0
    1.9411    6.4062   -0.1028 H   0  0  0  0  0  0  0  0  0  0  0  0
    1.3289    4.3338   -0.0239 C   0  0  0  0  0  0  0  0  0  0  0  0
    2.3521    3.9361    0.0140 H   0  0  0  0  0  0  0  0  0  0  0  0
    2.6637   -0.5695    0.1002 C   0  0  1  0  0  0  0  0  0  0  0  0
    3.7482   -0.0695    1.0824 C   0  0  0  0  0  0  0  0  0  0  0  0
    4.0120    0.9767    0.8268 H   0  0  0  0  0  0  0  0  0  0  0  0
    3.3236   -0.0563    2.1093 H   0  0  0  0  0  0  0  0  0  0  0  0
    4.5826   -2.4250    1.3892 C   0  0  0  0  0  0  0  0  0  0  0  0
    4.1882   -2.4518    2.4279 H   0  0  0  0  0  0  0  0  0  0  0  0
    5.4725   -3.0906    1.3634 H   0  0  0  0  0  0  0  0  0  0  0  0
    3.5112   -2.9343    0.4042 C   0  0  1  0  0  0  0  0  0  0  0  0
    3.2156   -3.9702    0.6767 H   0  0  0  0  0  0  0  0  0  0  0  0
    2.2791   -2.0151    0.4756 C   0  0  0  0  0  0  0  0  0  0  0  0
    1.8454   -2.0173    1.4989 H   0  0  0  0  0  0  0  0  0  0  0  0
    1.4766   -2.3620   -0.2109 H   0  0  0  0  0  0  0  0  0  0  0  0
    4.9853   -0.9851    1.0142 C   0  0  1  0  0  0  0  0  0  0  0  0
    5.7551   -0.6163    1.7256 H   0  0  0  0  0  0  0  0  0  0  0  0
    5.5569   -0.9707   -0.4175 C   0  0  0  0  0  0  0  0  0  0  0  0
    6.4653   -1.6089   -0.4728 H   0  0  0  0  0  0  0  0  0  0  0  0
    5.8673    0.0601   -0.6927 H   0  0  0  0  0  0  0  0  0  0  0  0
    4.4897   -1.4812   -1.4057 C   0  0  2  0  0  0  0  0  0  0  0  0
    4.8999   -1.4683   -2.4385 H   0  0  0  0  0  0  0  0  0  0  0  0
    3.2523   -0.5685   -1.3337 C   0  0  0  0  0  0  0  0  0  0  0  0
    2.4674   -0.9105   -2.0430 H   0  0  0  0  0  0  0  0  0  0  0  0
    3.5081    0.4763   -1.6083 H   0  0  0  0  0  0  0  0  0  0  0  0
    4.0833   -2.9191   -1.0272 C   0  0  0  0  0  0  0  0  0  0  0  0
    3.3251   -3.3016   -1.7445 H   0  0  0  0  0  0  0  0  0  0  0  0
    4.9626   -3.5958   -1.0937 H   0  0  0  0  0  0  0  0  0  0  0  0
  1  2  1  0  0  0  0
  2  3  1  0  0  0  0
  4  1  1  0  0  0  0
  5  6  1  0  0  0  0
  5  4  2  0  0  0  0
  7  5  1  0  0  0  0
  8  7  1  0  0  0  0
  9  7  2  0  0  0  0
  9 11  1  0  0  0  0
 10  9  1  0  0  0  0
 11 13  2  0  0  0  0
 12 11  1  0  0  0  0
 13  4  1  0  0  0  0
 13 14  1  0  0  0  0
 15  3  1  1  0  0  0
 15 24  1  0  0  0  0
 15 16  1  0  0  0  0
 16 18  1  0  0  0  0
 17 16  1  0  0  0  0
 19 20  1  0  0  0  0
 21 19  1  0  0  0  0
 22 24  1  0  0  0  0
 22 23  1  1  0  0  0
 22 19  1  0  0  0  0
 24 25  1  0  0  0  0
 26 24  1  0  0  0  0
 27 16  1  0  0  0  0
 27 19  1  0  0  0  0
 27 28  1  1  0  0  0
 29 27  1  0  0  0  0
 30 29  1  0  0  0  0
 31 29  1  0  0  0  0
 32 33  1  6  0  0  0
 32 34  1  0  0  0  0
 32 37  1  0  0  0  0
 32 29  1  0  0  0  0
 34 15  1  0  0  0  0
 35 34  1  0  0  0  0
 36 34  1  0  0  0  0
 37 22  1  0  0  0  0
 38 37  1  0  0  0  0
 39 37  1  0  0  0  0
M  END
