1,4
 OpenBabel05122313053D

 37 38  0  0  1  0  0  0  0  0999 V2000
    2.0247   -0.1785    0.1947 N   0  0  0  0  0  2  0  0  0  0  0  0
    1.3343    2.1047    0.1286 N   0  0  0  0  0  0  0  0  0  0  0  0
    1.6912    3.0592    0.1579 H   0  0  0  0  0  0  0  0  0  0  0  0
   -0.6538    0.8689    0.1082 N   0  0  0  0  0  2  0  0  0  0  0  0
   -2.7004    1.3473   -0.9843 N   0  0  0  0  0  0  0  0  0  0  0  0
    2.3346    1.1409    0.2015 C   0  0  1  0  0  3  0  0  0  0  0  0
    3.6700    1.5956    0.2986 C   0  0  0  0  0  0  0  0  0  0  0  0
    3.8688    2.6790    0.2712 H   0  0  0  0  0  0  0  0  0  0  0  0
    4.7257    0.6911    0.4537 C   0  0  0  0  0  0  0  0  0  0  0  0
    4.3774   -0.6762    0.5299 C   0  0  0  0  0  0  0  0  0  0  0  0
    5.1426   -1.4479    0.6974 H   0  0  0  0  0  0  0  0  0  0  0  0
    3.0443   -1.0553    0.4128 C   0  0  0  0  0  0  0  0  0  0  0  0
    2.7314   -2.1032    0.5020 H   0  0  0  0  0  0  0  0  0  0  0  0
    6.1557    1.1455    0.5570 C   0  0  0  0  0  0  0  0  0  0  0  0
    6.2397    2.2491    0.5680 H   0  0  0  0  0  0  0  0  0  0  0  0
    6.7549    0.7662   -0.2973 H   0  0  0  0  0  0  0  0  0  0  0  0
    6.6324    0.7535    1.4792 H   0  0  0  0  0  0  0  0  0  0  0  0
   -0.0452    2.0221    0.1571 C   0  0  2  0  0  3  0  0  0  0  0  0
   -0.7310    3.3709    0.1839 C   0  0  0  0  0  0  0  0  0  0  0  0
   -0.1867    4.0215    0.9039 H   0  0  0  0  0  0  0  0  0  0  0  0
   -1.7514    3.2389    0.5897 H   0  0  0  0  0  0  0  0  0  0  0  0
   -0.8028    4.0388   -1.1986 C   0  0  0  0  0  0  0  0  0  0  0  0
   -1.2796    5.0366   -1.1261 H   0  0  0  0  0  0  0  0  0  0  0  0
   -1.4018    3.4020   -1.8771 H   0  0  0  0  0  0  0  0  0  0  0  0
    0.2047    4.1761   -1.6429 H   0  0  0  0  0  0  0  0  0  0  0  0
   -2.0797    0.8169    0.0818 C   0  0  0  0  0  0  0  0  0  0  0  0
   -2.7501    0.1727    1.1418 C   0  0  0  0  0  0  0  0  0  0  0  0
   -2.1436   -0.2777    1.9450 H   0  0  0  0  0  0  0  0  0  0  0  0
   -4.1472    0.0669    1.0968 C   0  0  0  0  0  0  0  0  0  0  0  0
   -4.8025    0.6150   -0.0312 C   0  0  0  0  0  0  0  0  0  0  0  0
   -5.8971    0.5512   -0.1321 H   0  0  0  0  0  0  0  0  0  0  0  0
   -4.0422    1.2335   -1.0282 C   0  0  0  0  0  0  0  0  0  0  0  0
   -4.5357    1.6625   -1.9182 H   0  0  0  0  0  0  0  0  0  0  0  0
   -4.9169   -0.6055    2.2023 C   0  0  0  0  0  0  0  0  0  0  0  0
   -5.6680   -1.3135    1.7967 H   0  0  0  0  0  0  0  0  0  0  0  0
   -5.4743    0.1422    2.8059 H   0  0  0  0  0  0  0  0  0  0  0  0
   -4.2443   -1.1593    2.8842 H   0  0  0  0  0  0  0  0  0  0  0  0
  1  6  1  0  0  0  0
  1 12  1  0  0  0  0
  2 18  1  0  0  0  0
  2  3  1  0  0  0  0
  5 26  1  0  0  0  0
  6  2  1  1  0  0  0
  6  7  1  0  0  0  0
  7  9  2  0  0  0  0
  8  7  1  0  0  0  0
  9 10  1  0  0  0  0
  9 14  1  0  0  0  0
 10 11  1  0  0  0  0
 12 13  1  0  0  0  0
 12 10  2  0  0  0  0
 14 15  1  0  0  0  0
 14 17  1  0  0  0  0
 16 14  1  0  0  0  0
 18  4  1  6  0  0  0
 18 19  1  0  0  0  0
 19 21  1  0  0  0  0
 19 20  1  0  0  0  0
 22 23  1  0  0  0  0
 22 19  1  0  0  0  0
 24 22  1  0  0  0  0
 25 22  1  0  0  0  0
 26  4  1  0  0  0  0
 26 27  2  0  0  0  0
 27 28  1  0  0  0  0
 29 27  1  0  0  0  0
 29 34  1  0  0  0  0
 30 29  2  0  0  0  0
 31 30  1  0  0  0  0
 32  5  2  0  0  0  0
 32 30  1  0  0  0  0
 33 32  1  0  0  0  0
 34 36  1  0  0  0  0
 34 37  1  0  0  0  0
 35 34  1  0  0  0  0
M  END
