3,4
 OpenBabel05122313053D

 24 24  0  0  1  0  0  0  0  0999 V2000
   -2.7577    1.9631    1.1019 O   0  0  0  0  0  0  0  0  0  0  0  0
   -2.7577   -1.9631   -1.1018 O   0  0  0  0  0  0  0  0  0  0  0  0
   -0.3522   -1.3760    0.2045 N   0  0  0  0  0  0  0  0  0  0  0  0
   -0.3522    1.3760   -0.2044 N   0  0  0  0  0  0  0  0  0  0  0  0
   -1.6025   -0.6226    0.4573 C   0  0  1  0  0  0  0  0  0  0  0  0
   -1.6025    0.6226   -0.4572 C   0  0  1  0  0  0  0  0  0  0  0  0
   -2.8626    1.4694   -0.2337 C   0  0  1  0  0  0  0  0  0  0  0  0
   -4.1226    0.6188   -0.4520 C   0  0  0  0  0  0  0  0  0  0  0  0
   -4.1226   -0.6188    0.4520 C   0  0  0  0  0  0  0  0  0  0  0  0
   -2.8626   -1.4694    0.2337 C   0  0  1  0  0  0  0  0  0  0  0  0
   -1.5822   -0.2743    1.5092 H   0  0  0  0  0  0  0  0  0  0  0  0
   -1.5822    0.2743   -1.5092 H   0  0  0  0  0  0  0  0  0  0  0  0
   -2.8503    2.3129   -0.9660 H   0  0  0  0  0  0  0  0  0  0  0  0
   -5.0269    1.2375   -0.2729 H   0  0  0  0  0  0  0  0  0  0  0  0
   -4.1548    0.3047   -1.5161 H   0  0  0  0  0  0  0  0  0  0  0  0
   -5.0269   -1.2375    0.2729 H   0  0  0  0  0  0  0  0  0  0  0  0
   -4.1549   -0.3047    1.5161 H   0  0  0  0  0  0  0  0  0  0  0  0
   -2.8504   -2.3129    0.9660 H   0  0  0  0  0  0  0  0  0  0  0  0
   -3.4579    2.6253    1.2419 H   0  0  0  0  0  0  0  0  0  0  0  0
   -3.4578   -2.6253   -1.2419 H   0  0  0  0  0  0  0  0  0  0  0  0
   -0.1332   -2.0495    0.9558 H   0  0  0  0  0  0  0  0  0  0  0  0
   -0.4636   -1.9252   -0.6652 H   0  0  0  0  0  0  0  0  0  0  0  0
   -0.1332    2.0495   -0.9557 H   0  0  0  0  0  0  0  0  0  0  0  0
   -0.4636    1.9251    0.6653 H   0  0  0  0  0  0  0  0  0  0  0  0
  1 19  1  0  0  0  0
  2 10  1  0  0  0  0
  3  5  1  0  0  0  0
  3 21  1  0  0  0  0
  4 24  1  0  0  0  0
  5 11  1  1  0  0  0
  6 12  1  6  0  0  0
  6  7  1  0  0  0  0
  6  4  1  0  0  0  0
  6  5  1  0  0  0  0
  7 13  1  6  0  0  0
  7  1  1  0  0  0  0
  8 14  1  0  0  0  0
  8  7  1  0  0  0  0
  8  9  1  0  0  0  0
  9 17  1  0  0  0  0
 10  9  1  0  0  0  0
 10  5  1  0  0  0  0
 10 18  1  1  0  0  0
 15  8  1  0  0  0  0
 16  9  1  0  0  0  0
 20  2  1  0  0  0  0
 22  3  1  0  0  0  0
 23  4  1  0  0  0  0
M  END
