1,2
 OpenBabel05122313053D

 41 44  0  0  0  0  0  0  0  0999 V2000
   -0.2763    1.4011   -0.9661 N   0  0  0  0  0  2  0  0  0  0  0  0
    1.9812    0.1637   -0.2150 N   0  0  0  0  0  2  0  0  0  0  0  0
   -1.4465    2.0217   -1.2356 C   0  0  0  0  0  0  0  0  0  0  0  0
   -1.4807    3.3616   -1.6942 C   0  0  0  0  0  0  0  0  0  0  0  0
   -2.4533    3.8239   -1.9153 H   0  0  0  0  0  0  0  0  0  0  0  0
   -0.2924    4.0614   -1.9056 C   0  0  0  0  0  0  0  0  0  0  0  0
   -0.3039    5.0938   -2.2873 H   0  0  0  0  0  0  0  0  0  0  0  0
    0.9439    3.4250   -1.6333 C   0  0  0  0  0  0  0  0  0  0  0  0
    2.2270    4.0459   -1.8223 C   0  0  0  0  0  0  0  0  0  0  0  0
    2.2591    5.0777   -2.2058 H   0  0  0  0  0  0  0  0  0  0  0  0
    3.3918    3.3710   -1.5382 C   0  0  0  0  0  0  0  0  0  0  0  0
    4.3689    3.8546   -1.6926 H   0  0  0  0  0  0  0  0  0  0  0  0
    3.3679    2.0334   -1.0097 C   0  0  0  0  0  0  0  0  0  0  0  0
    4.5331    1.3118   -0.6545 C   0  0  0  0  0  0  0  0  0  0  0  0
    5.5246    1.7639   -0.8105 H   0  0  0  0  0  0  0  0  0  0  0  0
    4.3955    0.0391   -0.0992 C   0  0  0  0  0  0  0  0  0  0  0  0
    5.2724   -0.5556    0.1945 H   0  0  0  0  0  0  0  0  0  0  0  0
    3.1085   -0.4907    0.1117 C   0  0  0  0  0  0  0  0  0  0  0  0
    2.9814   -1.4819    0.5718 H   0  0  0  0  0  0  0  0  0  0  0  0
    2.1055    1.4000   -0.7916 C   0  0  0  0  0  0  0  0  0  0  0  0
    0.8901    2.0856   -1.1416 C   0  0  0  0  0  0  0  0  0  0  0  0
   -2.6812    1.2117   -1.0386 C   0  0  0  0  0  0  0  0  0  0  0  0
   -2.8524    0.0154   -1.7905 C   0  0  0  0  0  0  0  0  0  0  0  0
   -3.9476   -0.8107   -1.5057 C   0  0  0  0  0  0  0  0  0  0  0  0
   -4.0667   -1.7453   -2.0776 H   0  0  0  0  0  0  0  0  0  0  0  0
   -4.8831   -0.4934   -0.5036 C   0  0  0  0  0  0  0  0  0  0  0  0
   -4.7293    0.7233    0.1779 C   0  0  0  0  0  0  0  0  0  0  0  0
   -5.4652    1.0044    0.9493 H   0  0  0  0  0  0  0  0  0  0  0  0
   -3.6502    1.5921   -0.0768 C   0  0  0  0  0  0  0  0  0  0  0  0
   -1.9001   -0.3460   -2.9020 C   0  0  0  0  0  0  0  0  0  0  0  0
   -1.8271    0.4714   -3.6497 H   0  0  0  0  0  0  0  0  0  0  0  0
   -2.2271   -1.2663   -3.4222 H   0  0  0  0  0  0  0  0  0  0  0  0
   -0.8821   -0.5138   -2.5024 H   0  0  0  0  0  0  0  0  0  0  0  0
   -5.9835   -1.4586   -0.1489 C   0  0  0  0  0  0  0  0  0  0  0  0
   -6.4452   -1.9069   -1.0519 H   0  0  0  0  0  0  0  0  0  0  0  0
   -6.7823   -0.9760    0.4474 H   0  0  0  0  0  0  0  0  0  0  0  0
   -5.5737   -2.2978    0.4545 H   0  0  0  0  0  0  0  0  0  0  0  0
   -3.5692    2.8971    0.6817 C   0  0  0  0  0  0  0  0  0  0  0  0
   -2.5263    3.2164    0.8673 H   0  0  0  0  0  0  0  0  0  0  0  0
   -4.0867    2.8212    1.6581 H   0  0  0  0  0  0  0  0  0  0  0  0
   -4.0594    3.7218    0.1203 H   0  0  0  0  0  0  0  0  0  0  0  0
  2 18  1  0  0  0  0
  3 22  1  0  0  0  0
  3  1  1  0  0  0  0
  4  3  2  0  0  0  0
  5  4  1  0  0  0  0
  6  4  1  0  0  0  0
  6  8  2  0  0  0  0
  7  6  1  0  0  0  0
  8 21  1  0  0  0  0
  9  8  1  0  0  0  0
  9 11  2  0  0  0  0
 10  9  1  0  0  0  0
 11 13  1  0  0  0  0
 12 11  1  0  0  0  0
 13 20  1  0  0  0  0
 13 14  2  0  0  0  0
 14 16  1  0  0  0  0
 15 14  1  0  0  0  0
 16 18  2  0  0  0  0
 16 17  1  0  0  0  0
 18 19  1  0  0  0  0
 20  2  1  0  0  0  0
 21  1  1  0  0  0  0
 21 20  2  0  0  0  0
 22 29  1  0  0  0  0
 23 24  1  0  0  0  0
 23 22  2  0  0  0  0
 24 26  2  0  0  0  0
 25 24  1  0  0  0  0
 26 34  1  0  0  0  0
 26 27  1  0  0  0  0
 27 28  1  0  0  0  0
 29 27  2  0  0  0  0
 29 38  1  0  0  0  0
 30 33  1  0  0  0  0
 30 23  1  0  0  0  0
 31 30  1  0  0  0  0
 32 30  1  0  0  0  0
 34 36  1  0  0  0  0
 34 37  1  0  0  0  0
 35 34  1  0  0  0  0
 38 39  1  0  0  0  0
 38 40  1  0  0  0  0
 41 38  1  0  0  0  0
M  END
