1,2
 OpenBabel05122313053D

 51 55  0  0  1  0  0  0  0  0999 V2000
   -2.7309    0.9462   -0.4867 N   0  0  0  0  0  2  0  0  0  0  0  0
   -0.0693    0.5403   -0.2740 N   0  0  0  0  0  2  0  0  0  0  0  0
    1.4888    0.0983    0.0432 P   0  0  0  0  0  4  0  0  0  0  0  0
   -2.4888    3.3868   -0.3963 C   0  0  0  0  0  0  0  0  0  0  0  0
   -1.9373    2.0592   -0.3558 C   0  0  1  0  0  3  0  0  0  0  0  0
   -4.0390    1.1004   -0.7261 C   0  0  0  0  0  0  0  0  0  0  0  0
   -3.8830    3.5092   -0.6597 C   0  0  0  0  0  0  0  0  0  0  0  0
   -4.6507    2.3691   -0.8394 C   0  0  0  0  0  0  0  0  0  0  0  0
    0.2521    2.9919    0.1460 C   0  0  0  0  0  0  0  0  0  0  0  0
   -0.5215    1.8524   -0.1485 C   0  0  0  0  0  0  0  0  0  0  0  0
   -0.3037    4.2916    0.1378 C   0  0  0  0  0  0  0  0  0  0  0  0
   -1.6440    4.5051   -0.1523 C   0  0  0  0  0  0  0  0  0  0  0  0
    2.7301    1.1261   -0.8310 C   0  0  0  0  0  0  0  0  0  0  0  0
    2.3384    1.8124   -1.9984 C   0  0  0  0  0  0  0  0  0  0  0  0
    3.2978    2.4909   -2.7626 C   0  0  0  0  0  0  0  0  0  0  0  0
    4.6468    2.4823   -2.3720 C   0  0  0  0  0  0  0  0  0  0  0  0
    5.0404    1.7850   -1.2187 C   0  0  0  0  0  0  0  0  0  0  0  0
    4.0868    1.1012   -0.4499 C   0  0  0  0  0  0  0  0  0  0  0  0
    1.8069   -1.5416   -0.6499 C   0  0  0  0  0  0  0  0  0  0  0  0
    1.3194   -1.8105   -1.9455 C   0  0  0  0  0  0  0  0  0  0  0  0
    1.5976   -3.0407   -2.5492 C   0  0  0  0  0  0  0  0  0  0  0  0
    2.3834   -3.9932   -1.8768 C   0  0  0  0  0  0  0  0  0  0  0  0
    2.9010   -3.7079   -0.6056 C   0  0  0  0  0  0  0  0  0  0  0  0
    2.6185   -2.4805    0.0131 C   0  0  0  0  0  0  0  0  0  0  0  0
    1.8586    0.1118    1.8252 C   0  0  0  0  0  0  0  0  0  0  0  0
    2.4701    1.2268    2.4385 C   0  0  0  0  0  0  0  0  0  0  0  0
    2.5611    1.2957    3.8359 C   0  0  0  0  0  0  0  0  0  0  0  0
    2.0363    0.2625    4.6282 C   0  0  0  0  0  0  0  0  0  0  0  0
    1.4216   -0.8447    4.0224 C   0  0  0  0  0  0  0  0  0  0  0  0
    1.3285   -0.9254    2.6268 C   0  0  0  0  0  0  0  0  0  0  0  0
   -4.6296    0.1762   -0.8097 H   0  0  0  0  0  0  0  0  0  0  0  0
   -4.3334    4.5127   -0.7074 H   0  0  0  0  0  0  0  0  0  0  0  0
   -5.7292    2.4289   -1.0432 H   0  0  0  0  0  0  0  0  0  0  0  0
    1.3197    2.8852    0.3714 H   0  0  0  0  0  0  0  0  0  0  0  0
    0.3527    5.1459    0.3634 H   0  0  0  0  0  0  0  0  0  0  0  0
   -2.0718    5.5181   -0.1715 H   0  0  0  0  0  0  0  0  0  0  0  0
    1.2804    1.8168   -2.2994 H   0  0  0  0  0  0  0  0  0  0  0  0
    2.9883    3.0314   -3.6696 H   0  0  0  0  0  0  0  0  0  0  0  0
    5.3970    3.0175   -2.9735 H   0  0  0  0  0  0  0  0  0  0  0  0
    6.0985    1.7667   -0.9174 H   0  0  0  0  0  0  0  0  0  0  0  0
    4.4023    0.5395    0.4424 H   0  0  0  0  0  0  0  0  0  0  0  0
    0.7055   -1.0619   -2.4648 H   0  0  0  0  0  0  0  0  0  0  0  0
    1.1855   -3.2598   -3.5451 H   0  0  0  0  0  0  0  0  0  0  0  0
    2.5924   -4.9645   -2.3497 H   0  0  0  0  0  0  0  0  0  0  0  0
    3.5177   -4.4515   -0.0794 H   0  0  0  0  0  0  0  0  0  0  0  0
    3.0168   -2.2665    1.0150 H   0  0  0  0  0  0  0  0  0  0  0  0
    2.8795    2.0439    1.8268 H   0  0  0  0  0  0  0  0  0  0  0  0
    3.0396    2.1669    4.3076 H   0  0  0  0  0  0  0  0  0  0  0  0
    2.1018    0.3236    5.7250 H   0  0  0  0  0  0  0  0  0  0  0  0
    0.9983   -1.6514    4.6386 H   0  0  0  0  0  0  0  0  0  0  0  0
    0.8312   -1.7884    2.1624 H   0  0  0  0  0  0  0  0  0  0  0  0
  2 10  1  0  0  0  0
  2  3  1  0  0  0  0
  3 25  1  0  0  0  0
  4  5  1  0  0  0  0
  4 12  1  0  0  0  0
  5  1  1  1  0  0  0
  5 10  1  0  0  0  0
  6  1  1  0  0  0  0
  7  4  2  0  0  0  0
  8  6  2  0  0  0  0
  8  7  1  0  0  0  0
  9 34  1  0  0  0  0
 10  9  2  0  0  0  0
 11  9  1  0  0  0  0
 11 35  1  0  0  0  0
 12 11  2  0  0  0  0
 13 18  1  0  0  0  0
 13  3  1  0  0  0  0
 14 13  2  0  0  0  0
 15 16  2  0  0  0  0
 15 14  1  0  0  0  0
 16 17  1  0  0  0  0
 17 40  1  0  0  0  0
 17 18  2  0  0  0  0
 18 41  1  0  0  0  0
 19 24  1  0  0  0  0
 19  3  1  0  0  0  0
 20 19  2  0  0  0  0
 21 20  1  0  0  0  0
 21 22  2  0  0  0  0
 22 23  1  0  0  0  0
 23 45  1  0  0  0  0
 23 24  2  0  0  0  0
 24 46  1  0  0  0  0
 25 26  2  0  0  0  0
 25 30  1  0  0  0  0
 26 27  1  0  0  0  0
 27 48  1  0  0  0  0
 27 28  2  0  0  0  0
 28 49  1  0  0  0  0
 29 28  1  0  0  0  0
 29 50  1  0  0  0  0
 30 29  2  0  0  0  0
 31  6  1  0  0  0  0
 32  7  1  0  0  0  0
 33  8  1  0  0  0  0
 36 12  1  0  0  0  0
 37 14  1  0  0  0  0
 38 15  1  0  0  0  0
 39 16  1  0  0  0  0
 42 20  1  0  0  0  0
 43 21  1  0  0  0  0
 44 22  1  0  0  0  0
 47 26  1  0  0  0  0
 51 30  1  0  0  0  0
M  END
