1,26
 OpenBabel05122313053D

 36 35  0  0  0  0  0  0  0  0999 V2000
   -1.1218    0.7781   -0.9157 N   0  0  0  0  0  2  0  0  0  0  0  0
   -0.9774    1.9227   -1.8061 C   0  0  0  0  0  0  0  0  0  0  0  0
   -1.8534    2.5984   -1.6766 H   0  0  0  0  0  0  0  0  0  0  0  0
    0.2733    2.7229   -1.4228 C   0  0  0  0  0  0  0  0  0  0  0  0
    0.2105    3.0787   -0.3755 H   0  0  0  0  0  0  0  0  0  0  0  0
    0.3976    3.6021   -2.0863 H   0  0  0  0  0  0  0  0  0  0  0  0
    1.1750    2.0851   -1.5093 H   0  0  0  0  0  0  0  0  0  0  0  0
   -0.9373    1.4747   -3.2742 C   0  0  0  0  0  0  0  0  0  0  0  0
   -0.0815    0.7930   -3.4478 H   0  0  0  0  0  0  0  0  0  0  0  0
   -0.8378    2.3470   -3.9519 H   0  0  0  0  0  0  0  0  0  0  0  0
   -1.8590    0.9224   -3.5458 H   0  0  0  0  0  0  0  0  0  0  0  0
   -2.2729    0.3832   -0.3604 C   0  0  0  0  0  3  0  0  0  0  0  0
   -3.5952    1.0822   -0.5773 C   0  0  0  0  0  0  0  0  0  0  0  0
   -4.4142    0.3352   -0.5849 H   0  0  0  0  0  0  0  0  0  0  0  0
   -3.5933    1.5515   -1.5794 H   0  0  0  0  0  0  0  0  0  0  0  0
   -3.8666    2.1395    0.5109 C   0  0  0  0  0  0  0  0  0  0  0  0
   -3.8748    1.6378    1.5017 H   0  0  0  0  0  0  0  0  0  0  0  0
   -3.0127    2.8517    0.5437 H   0  0  0  0  0  0  0  0  0  0  0  0
   -5.1765    2.9131    0.3128 C   0  0  0  0  0  0  0  0  0  0  0  0
   -6.0253    2.1937    0.2922 H   0  0  0  0  0  0  0  0  0  0  0  0
   -5.3440    3.5504    1.2074 H   0  0  0  0  0  0  0  0  0  0  0  0
   -5.2101    3.7875   -0.9428 C   0  0  0  0  0  0  0  0  0  0  0  0
   -4.3715    4.5156   -0.9468 H   0  0  0  0  0  0  0  0  0  0  0  0
   -6.1535    4.3656   -1.0077 H   0  0  0  0  0  0  0  0  0  0  0  0
   -5.1326    3.1882   -1.8732 H   0  0  0  0  0  0  0  0  0  0  0  0
   -2.1079   -0.6867    0.4463 N   0  0  0  0  0  2  0  0  0  0  0  0
   -3.2047   -1.4044    1.0946 C   0  0  0  0  0  0  0  0  0  0  0  0
   -4.1222   -0.7753    1.0512 H   0  0  0  0  0  0  0  0  0  0  0  0
   -3.4957   -2.7175    0.3533 C   0  0  0  0  0  0  0  0  0  0  0  0
   -3.7351   -2.5256   -0.7120 H   0  0  0  0  0  0  0  0  0  0  0  0
   -4.3490   -3.2554    0.8143 H   0  0  0  0  0  0  0  0  0  0  0  0
   -2.6063   -3.3790    0.3885 H   0  0  0  0  0  0  0  0  0  0  0  0
   -2.8906   -1.6485    2.5754 C   0  0  0  0  0  0  0  0  0  0  0  0
   -1.9795   -2.2709    2.6776 H   0  0  0  0  0  0  0  0  0  0  0  0
   -3.7315   -2.1766    3.0683 H   0  0  0  0  0  0  0  0  0  0  0  0
   -2.7216   -0.6928    3.1107 H   0  0  0  0  0  0  0  0  0  0  0  0
  1 12  1  0  0  0  0
  2  3  1  0  0  0  0
  2  4  1  0  0  0  0
  2  1  1  0  0  0  0
  4  5  1  0  0  0  0
  6  4  1  0  0  0  0
  7  4  1  0  0  0  0
  8  2  1  0  0  0  0
  9  8  1  0  0  0  0
 10  8  1  0  0  0  0
 11  8  1  0  0  0  0
 12 26  1  0  0  0  0
 13 12  1  0  0  0  0
 13 16  1  0  0  0  0
 14 13  1  0  0  0  0
 15 13  1  0  0  0  0
 16 18  1  0  0  0  0
 16 17  1  0  0  0  0
 19 16  1  0  0  0  0
 19 21  1  0  0  0  0
 20 19  1  0  0  0  0
 22 19  1  0  0  0  0
 23 22  1  0  0  0  0
 24 22  1  0  0  0  0
 25 22  1  0  0  0  0
 26 27  1  0  0  0  0
 27 33  1  0  0  0  0
 28 27  1  0  0  0  0
 29 32  1  0  0  0  0
 29 31  1  0  0  0  0
 29 27  1  0  0  0  0
 30 29  1  0  0  0  0
 33 34  1  0  0  0  0
 33 35  1  0  0  0  0
 33 36  1  0  0  0  0
M  END
