1,17
 OpenBabel05122313053D

 34 36  0  0  1  0  0  0  0  0999 V2000
   -2.1007   -1.1810   -0.1220 N   0  0  0  0  0  2  0  0  0  0  0  0
   -2.7102   -0.1656   -0.7654 C   0  0  2  0  0  3  0  0  0  0  0  0
   -4.0604   -0.2790   -0.5775 N   0  0  0  0  0  0  0  0  0  0  0  0
   -4.3162   -1.3833    0.2008 C   0  0  0  0  0  0  0  0  0  0  0  0
   -3.0784   -1.9377    0.4836 C   0  0  0  0  0  0  0  0  0  0  0  0
   -1.9229    1.0543   -1.7401 S   0  0  0  0  0  0  0  0  0  0  0  0
   -1.5389    2.3730   -0.4592 C   0  0  0  0  0  0  0  0  0  0  0  0
   -0.7123    1.9018    0.7003 C   0  0  0  0  0  0  0  0  0  0  0  0
   -1.3907    1.4274    1.8439 C   0  0  0  0  0  0  0  0  0  0  0  0
   -0.7007    0.9468    2.9643 C   0  0  0  0  0  0  0  0  0  0  0  0
    0.7020    0.9469    2.9639 C   0  0  0  0  0  0  0  0  0  0  0  0
    1.3913    1.4274    1.8431 C   0  0  0  0  0  0  0  0  0  0  0  0
    0.7123    1.9017    0.6999 C   0  0  0  0  0  0  0  0  0  0  0  0
    1.5382    2.3728   -0.4602 C   0  0  0  0  0  0  0  0  0  0  0  0
    1.9221    1.0537   -1.7407 S   0  0  0  0  0  0  0  0  0  0  0  0
    2.7099   -0.1657   -0.7658 C   0  0  1  0  0  3  0  0  0  0  0  0
    2.1009   -1.1813   -0.1222 N   0  0  0  0  0  2  0  0  0  0  0  0
    3.0788   -1.9374    0.4836 C   0  0  0  0  0  0  0  0  0  0  0  0
    4.3164   -1.3825    0.2007 C   0  0  0  0  0  0  0  0  0  0  0  0
    4.0601   -0.2784   -0.5778 N   0  0  0  0  0  0  0  0  0  0  0  0
    4.7516    0.3515   -0.9915 H   0  0  0  0  0  0  0  0  0  0  0  0
    5.3302   -1.6891    0.4770 H   0  0  0  0  0  0  0  0  0  0  0  0
    2.8459   -2.8299    1.0732 H   0  0  0  0  0  0  0  0  0  0  0  0
    2.5035    2.7941   -0.1206 H   0  0  0  0  0  0  0  0  0  0  0  0
    1.0369    3.1437   -1.0775 H   0  0  0  0  0  0  0  0  0  0  0  0
   -2.4919    1.4468    1.8536 H   0  0  0  0  0  0  0  0  0  0  0  0
   -1.2580    0.5873    3.8417 H   0  0  0  0  0  0  0  0  0  0  0  0
    1.2598    0.5874    3.8410 H   0  0  0  0  0  0  0  0  0  0  0  0
    2.4926    1.4469    1.8522 H   0  0  0  0  0  0  0  0  0  0  0  0
   -1.0380    3.1443   -1.0764 H   0  0  0  0  0  0  0  0  0  0  0  0
   -2.5041    2.7939   -0.1191 H   0  0  0  0  0  0  0  0  0  0  0  0
   -4.7520    0.3508   -0.9910 H   0  0  0  0  0  0  0  0  0  0  0  0
   -5.3298   -1.6904    0.4770 H   0  0  0  0  0  0  0  0  0  0  0  0
   -2.8451   -2.8303    1.0731 H   0  0  0  0  0  0  0  0  0  0  0  0
  1  5  1  0  0  0  0
  2  6  1  6  0  0  0
  2  3  1  0  0  0  0
  2  1  1  0  0  0  0
  3  4  1  0  0  0  0
  4 33  1  0  0  0  0
  4  5  2  0  0  0  0
  5 34  1  0  0  0  0
  6  7  1  0  0  0  0
  7 31  1  0  0  0  0
  7  8  1  0  0  0  0
  8  9  1  0  0  0  0
  9 26  1  0  0  0  0
  9 10  2  0  0  0  0
 10 27  1  0  0  0  0
 11 10  1  0  0  0  0
 11 28  1  0  0  0  0
 12 29  1  0  0  0  0
 12 11  2  0  0  0  0
 13  8  2  0  0  0  0
 13 12  1  0  0  0  0
 14 24  1  0  0  0  0
 14 13  1  0  0  0  0
 15 14  1  0  0  0  0
 16 15  1  6  0  0  0
 16 20  1  0  0  0  0
 16 17  1  0  0  0  0
 17 18  1  0  0  0  0
 18 23  1  0  0  0  0
 19 22  1  0  0  0  0
 19 18  2  0  0  0  0
 20 19  1  0  0  0  0
 21 20  1  0  0  0  0
 25 14  1  0  0  0  0
 30  7  1  0  0  0  0
 32  3  1  0  0  0  0
M  END
