3,4
 OpenBabel05122313053D

 41 42  0  0  1  0  0  0  0  0999 V2000
   -5.6590   -0.9786   -0.1726 O   0  0  0  0  0  0  0  0  0  0  0  0
   -0.7565   -0.5575   -0.4082 N   0  0  0  0  0  0  0  0  0  0  0  0
    1.9333   -1.2618   -0.3101 N   0  0  0  0  0  2  0  0  0  0  0  0
    0.5046    1.8785   -0.2728 N   0  0  0  0  0  2  0  0  0  0  0  0
   -0.3954   -1.9662   -0.4406 C   0  0  0  0  0  0  0  0  0  0  0  0
    1.0610   -2.1704   -0.7960 C   0  0  2  0  0  3  0  0  0  0  0  0
    1.5080   -3.2635   -1.5558 C   0  0  0  0  0  0  0  0  0  0  0  0
    2.8814   -3.4111   -1.7959 C   0  0  0  0  0  0  0  0  0  0  0  0
    3.7721   -2.4578   -1.2810 C   0  0  0  0  0  0  0  0  0  0  0  0
    3.2533   -1.3894   -0.5389 C   0  0  0  0  0  0  0  0  0  0  0  0
   -0.5938    0.1854   -1.6429 C   0  0  0  0  0  0  0  0  0  0  0  0
   -0.2667    1.6398   -1.3538 C   0  0  2  0  0  3  0  0  0  0  0  0
   -0.6975    2.6850   -2.1864 C   0  0  0  0  0  0  0  0  0  0  0  0
   -0.3113    3.9985   -1.8867 C   0  0  0  0  0  0  0  0  0  0  0  0
    0.5009    4.2297   -0.7674 C   0  0  0  0  0  0  0  0  0  0  0  0
    0.8942    3.1355    0.0130 C   0  0  0  0  0  0  0  0  0  0  0  0
   -2.0043   -0.2609    0.3066 C   0  0  0  0  0  0  0  0  0  0  0  0
   -3.2810   -0.8260   -0.3251 C   0  0  0  0  0  0  0  0  0  0  0  0
   -4.5216   -0.4431    0.4679 C   0  0  0  0  0  0  0  0  0  0  0  0
   -6.8557   -0.6898    0.5059 C   0  0  0  0  0  0  0  0  0  0  0  0
   -1.0302   -2.5914   -1.1146 H   0  0  0  0  0  0  0  0  0  0  0  0
   -0.5278   -2.3329    0.6043 H   0  0  0  0  0  0  0  0  0  0  0  0
    0.7793   -3.9865   -1.9514 H   0  0  0  0  0  0  0  0  0  0  0  0
    3.2522   -4.2624   -2.3869 H   0  0  0  0  0  0  0  0  0  0  0  0
    4.8555   -2.5348   -1.4505 H   0  0  0  0  0  0  0  0  0  0  0  0
    3.8741   -0.5912   -0.0904 H   0  0  0  0  0  0  0  0  0  0  0  0
   -1.4745    0.1302   -2.3277 H   0  0  0  0  0  0  0  0  0  0  0  0
    0.2627   -0.2442   -2.2073 H   0  0  0  0  0  0  0  0  0  0  0  0
   -1.3311    2.4614   -3.0577 H   0  0  0  0  0  0  0  0  0  0  0  0
   -0.6426    4.8339   -2.5221 H   0  0  0  0  0  0  0  0  0  0  0  0
    0.8307    5.2429   -0.4971 H   0  0  0  0  0  0  0  0  0  0  0  0
    1.5751    3.2238    0.8772 H   0  0  0  0  0  0  0  0  0  0  0  0
   -1.8640   -0.6243    1.3469 H   0  0  0  0  0  0  0  0  0  0  0  0
   -2.0811    0.8451    0.3877 H   0  0  0  0  0  0  0  0  0  0  0  0
   -3.4148   -0.4641   -1.3680 H   0  0  0  0  0  0  0  0  0  0  0  0
   -3.2345   -1.9344   -0.3792 H   0  0  0  0  0  0  0  0  0  0  0  0
   -4.6007    0.6731    0.5472 H   0  0  0  0  0  0  0  0  0  0  0  0
   -4.4394   -0.8235    1.5186 H   0  0  0  0  0  0  0  0  0  0  0  0
   -6.8650   -1.1060    1.5438 H   0  0  0  0  0  0  0  0  0  0  0  0
   -7.6877   -1.1480   -0.0640 H   0  0  0  0  0  0  0  0  0  0  0  0
   -7.0433    0.4102    0.5844 H   0  0  0  0  0  0  0  0  0  0  0  0
  1 19  1  0  0  0  0
  1 20  1  0  0  0  0
  2 17  1  0  0  0  0
  4 16  1  0  0  0  0
  5  2  1  0  0  0  0
  5 22  1  0  0  0  0
  6  5  1  1  0  0  0
  6  3  1  0  0  0  0
  7  6  1  0  0  0  0
  8  7  2  0  0  0  0
  8  9  1  0  0  0  0
  9 10  2  0  0  0  0
 10  3  1  0  0  0  0
 10 26  1  0  0  0  0
 11  2  1  0  0  0  0
 12 11  1  6  0  0  0
 12  4  1  0  0  0  0
 13 14  2  0  0  0  0
 13 12  1  0  0  0  0
 14 15  1  0  0  0  0
 15 31  1  0  0  0  0
 15 16  2  0  0  0  0
 16 32  1  0  0  0  0
 17 34  1  0  0  0  0
 17 33  1  0  0  0  0
 18 17  1  0  0  0  0
 18 19  1  0  0  0  0
 19 37  1  0  0  0  0
 19 38  1  0  0  0  0
 20 41  1  0  0  0  0
 20 39  1  0  0  0  0
 21  5  1  0  0  0  0
 23  7  1  0  0  0  0
 24  8  1  0  0  0  0
 25  9  1  0  0  0  0
 27 11  1  0  0  0  0
 28 11  1  0  0  0  0
 29 13  1  0  0  0  0
 30 14  1  0  0  0  0
 35 18  1  0  0  0  0
 36 18  1  0  0  0  0
 40 20  1  0  0  0  0
M  END
