1,2
 OpenBabel05122313053D

 35 36  0  0  1  0  0  0  0  0999 V2000
    1.4165    1.3308    0.1111 N   0  0  0  0  0  2  0  0  0  0  0  0
   -0.2032   -0.8469    0.4853 N   0  0  0  0  0  0  0  0  0  0  0  0
   -0.2860   -1.6991    1.0573 H   0  0  0  0  0  0  0  0  0  0  0  0
    2.0730    2.3345   -0.4951 C   0  0  0  0  0  3  0  0  0  0  0  0
    3.0108    2.0593   -1.0036 H   0  0  0  0  0  0  0  0  0  0  0  0
    1.5713    3.6412   -0.5084 C   0  0  0  0  0  0  0  0  0  0  0  0
    2.1348    4.4432   -1.0058 H   0  0  0  0  0  0  0  0  0  0  0  0
    0.3327    3.8889    0.1037 C   0  0  0  0  0  0  0  0  0  0  0  0
   -0.0997    4.9009    0.0979 H   0  0  0  0  0  0  0  0  0  0  0  0
   -0.3598    2.8276    0.7028 C   0  0  0  0  0  0  0  0  0  0  0  0
   -1.3472    2.9754    1.1646 H   0  0  0  0  0  0  0  0  0  0  0  0
    0.2208    1.5498    0.6928 C   0  0  0  0  0  0  0  0  0  0  0  0
   -0.4310    0.3390    1.3422 C   0  0  2  0  0  0  0  0  0  0  0  0
   -1.5202    0.5493    1.4248 H   0  0  0  0  0  0  0  0  0  0  0  0
    0.1375    0.0958    2.7469 C   0  0  0  0  0  0  0  0  0  0  0  0
   -0.4226   -0.7208    3.2470 H   0  0  0  0  0  0  0  0  0  0  0  0
    0.0369    1.0086    3.3648 H   0  0  0  0  0  0  0  0  0  0  0  0
    1.2052   -0.2021    2.6898 H   0  0  0  0  0  0  0  0  0  0  0  0
   -1.0625   -0.9524   -0.7300 C   0  0  1  0  0  0  0  0  0  0  0  0
   -0.6658   -0.2024   -1.4488 H   0  0  0  0  0  0  0  0  0  0  0  0
   -0.8660   -2.3348   -1.3542 C   0  0  0  0  0  0  0  0  0  0  0  0
    0.1916   -2.4655   -1.6584 H   0  0  0  0  0  0  0  0  0  0  0  0
   -1.4962   -2.4331   -2.2584 H   0  0  0  0  0  0  0  0  0  0  0  0
   -1.1560   -3.1422   -0.6492 H   0  0  0  0  0  0  0  0  0  0  0  0
   -2.5237   -0.6303   -0.4546 C   0  0  0  0  0  0  0  0  0  0  0  0
   -3.1363    0.4732   -1.0774 C   0  0  0  0  0  0  0  0  0  0  0  0
   -2.5448    1.0917   -1.7715 H   0  0  0  0  0  0  0  0  0  0  0  0
   -4.4809    0.7887   -0.8235 C   0  0  0  0  0  0  0  0  0  0  0  0
   -4.9450    1.6528   -1.3231 H   0  0  0  0  0  0  0  0  0  0  0  0
   -5.2300    0.0043    0.0663 C   0  0  0  0  0  0  0  0  0  0  0  0
   -6.2835    0.2496    0.2690 H   0  0  0  0  0  0  0  0  0  0  0  0
   -4.6284   -1.0977    0.6975 C   0  0  0  0  0  0  0  0  0  0  0  0
   -5.2109   -1.7184    1.3953 H   0  0  0  0  0  0  0  0  0  0  0  0
   -3.2874   -1.4123    0.4365 C   0  0  0  0  0  0  0  0  0  0  0  0
   -2.8275   -2.2799    0.9369 H   0  0  0  0  0  0  0  0  0  0  0  0
  1 12  1  0  0  0  0
  2  3  1  0  0  0  0
  2 13  1  0  0  0  0
  4  1  1  0  0  0  0
  5  4  1  0  0  0  0
  6  4  1  0  0  0  0
  6  8  2  0  0  0  0
  7  6  1  0  0  0  0
  8 10  1  0  0  0  0
  9  8  1  0  0  0  0
 10 11  1  0  0  0  0
 12 10  2  0  0  0  0
 12 13  1  0  0  0  0
 13 14  1  1  0  0  0
 13 15  1  0  0  0  0
 15 16  1  0  0  0  0
 15 17  1  0  0  0  0
 18 15  1  0  0  0  0
 19 20  1  6  0  0  0
 19 25  1  0  0  0  0
 19  2  1  0  0  0  0
 21 19  1  0  0  0  0
 21 24  1  0  0  0  0
 22 21  1  0  0  0  0
 23 21  1  0  0  0  0
 25 34  1  0  0  0  0
 26 28  1  0  0  0  0
 26 25  2  0  0  0  0
 27 26  1  0  0  0  0
 28 30  2  0  0  0  0
 29 28  1  0  0  0  0
 30 31  1  0  0  0  0
 30 32  1  0  0  0  0
 32 33  1  0  0  0  0
 34 32  2  0  0  0  0
 34 35  1  0  0  0  0
M  END
