1,2
 OpenBabel05122313053D

 38 39  0  0  1  0  0  0  0  0999 V2000
    1.3459    1.1372    0.1361 N   0  0  0  0  0  2  0  0  0  0  0  0
   -0.4538   -0.9140    0.5676 N   0  0  0  0  0  0  0  0  0  0  0  0
   -0.6266   -1.7092    1.1986 H   0  0  0  0  0  0  0  0  0  0  0  0
    3.4811    1.5707   -0.9213 C   0  0  0  0  0  0  0  0  0  0  0  0
    4.1485    2.3961   -1.2278 H   0  0  0  0  0  0  0  0  0  0  0  0
    3.3004    0.8884   -1.7815 H   0  0  0  0  0  0  0  0  0  0  0  0
    3.9759    0.9544   -0.1415 H   0  0  0  0  0  0  0  0  0  0  0  0
    2.1659    2.0655   -0.4064 C   0  0  1  0  0  3  0  0  0  0  0  0
    1.7539    3.4110   -0.4646 C   0  0  0  0  0  0  0  0  0  0  0  0
    2.4223    4.1643   -0.9054 H   0  0  0  0  0  0  0  0  0  0  0  0
    0.4935    3.7676    0.0320 C   0  0  0  0  0  0  0  0  0  0  0  0
    0.1535    4.8130   -0.0221 H   0  0  0  0  0  0  0  0  0  0  0  0
   -0.3304    2.7850    0.6006 C   0  0  0  0  0  0  0  0  0  0  0  0
   -1.3242    3.0271    1.0041 H   0  0  0  0  0  0  0  0  0  0  0  0
    0.1441    1.4674    0.6449 C   0  0  0  0  0  0  0  0  0  0  0  0
   -0.6034    0.3410    1.3415 C   0  0  2  0  0  0  0  0  0  0  0  0
   -1.6751    0.6290    1.4043 H   0  0  0  0  0  0  0  0  0  0  0  0
   -0.0508    0.1398    2.7601 C   0  0  0  0  0  0  0  0  0  0  0  0
   -0.6539   -0.6183    3.3011 H   0  0  0  0  0  0  0  0  0  0  0  0
   -0.1017    1.0871    3.3300 H   0  0  0  0  0  0  0  0  0  0  0  0
    1.0026   -0.2097    2.7199 H   0  0  0  0  0  0  0  0  0  0  0  0
   -1.3177   -1.0453   -0.6471 C   0  0  2  0  0  0  0  0  0  0  0  0
   -0.8340   -0.4247   -1.4322 H   0  0  0  0  0  0  0  0  0  0  0  0
   -2.7336   -0.5339   -0.4285 C   0  0  0  0  0  0  0  0  0  0  0  0
   -3.1982    0.5864   -1.1426 C   0  0  0  0  0  0  0  0  0  0  0  0
   -2.5257    1.0765   -1.8648 H   0  0  0  0  0  0  0  0  0  0  0  0
   -4.4976    1.0798   -0.9432 C   0  0  0  0  0  0  0  0  0  0  0  0
   -4.8454    1.9542   -1.5142 H   0  0  0  0  0  0  0  0  0  0  0  0
   -5.3497    0.4595   -0.0172 C   0  0  0  0  0  0  0  0  0  0  0  0
   -6.3682    0.8445    0.1429 H   0  0  0  0  0  0  0  0  0  0  0  0
   -4.8966   -0.6577    0.7045 C   0  0  0  0  0  0  0  0  0  0  0  0
   -5.5606   -1.1507    1.4309 H   0  0  0  0  0  0  0  0  0  0  0  0
   -3.6006   -1.1506    0.4974 C   0  0  0  0  0  0  0  0  0  0  0  0
   -3.2583   -2.0288    1.0687 H   0  0  0  0  0  0  0  0  0  0  0  0
   -1.2795   -2.4989   -1.1195 C   0  0  0  0  0  0  0  0  0  0  0  0
   -0.2409   -2.7831   -1.3789 H   0  0  0  0  0  0  0  0  0  0  0  0
   -1.9021   -2.6169   -2.0266 H   0  0  0  0  0  0  0  0  0  0  0  0
   -1.6765   -3.1876   -0.3438 H   0  0  0  0  0  0  0  0  0  0  0  0
  1 15  1  0  0  0  0
  2  3  1  0  0  0  0
  2 16  1  0  0  0  0
  4  7  1  0  0  0  0
  5  4  1  0  0  0  0
  6  4  1  0  0  0  0
  8  4  1  6  0  0  0
  8  1  1  0  0  0  0
  9  8  1  0  0  0  0
  9 11  2  0  0  0  0
 10  9  1  0  0  0  0
 11 13  1  0  0  0  0
 12 11  1  0  0  0  0
 13 15  2  0  0  0  0
 13 14  1  0  0  0  0
 15 16  1  0  0  0  0
 16 17  1  1  0  0  0
 16 18  1  0  0  0  0
 18 19  1  0  0  0  0
 18 20  1  0  0  0  0
 21 18  1  0  0  0  0
 22 23  1  6  0  0  0
 22 24  1  0  0  0  0
 22  2  1  0  0  0  0
 24 33  1  0  0  0  0
 25 27  1  0  0  0  0
 25 24  2  0  0  0  0
 26 25  1  0  0  0  0
 27 29  2  0  0  0  0
 28 27  1  0  0  0  0
 29 30  1  0  0  0  0
 29 31  1  0  0  0  0
 31 32  1  0  0  0  0
 33 31  2  0  0  0  0
 33 34  1  0  0  0  0
 35 22  1  0  0  0  0
 35 38  1  0  0  0  0
 36 35  1  0  0  0  0
 37 35  1  0  0  0  0
M  END
