1,6
 OpenBabel05122313053D

 27 27  0  0  0  0  0  0  0  0999 V2000
    1.5457   -0.8625    0.5604 N   0  0  0  0  0  2  0  0  0  0  0  0
    1.6347   -2.0005    1.2959 O   0  0  0  0  0  0  0  0  0  0  0  0
    0.6160   -2.2270    1.4675 H   0  0  0  0  0  0  0  0  0  0  0  0
    2.6770   -0.3013    0.1645 C   0  0  0  0  0  0  0  0  0  0  0  0
    2.4889    0.8903   -0.6482 C   0  0  0  0  0  0  0  0  0  0  0  0
    1.2159    1.2174   -0.8233 N   0  0  0  0  0  2  0  0  0  0  0  0
    0.8510    2.2322   -1.5130 O   0  0  0  0  0  1  0  0  0  0  0  0
    3.3019    1.4714   -1.1052 H   0  0  0  0  0  0  0  0  0  0  0  0
    3.8872   -0.8577    0.4730 N   0  0  0  0  0  0  0  0  0  0  0  0
    5.1609   -0.2880    0.2258 C   0  0  0  0  0  0  0  0  0  0  0  0
    5.5081    0.9600    0.8082 C   0  0  0  0  0  0  0  0  0  0  0  0
    6.7797    1.4914    0.5181 C   0  0  0  0  0  0  0  0  0  0  0  0
    7.6907    0.7992   -0.2897 C   0  0  0  0  0  0  0  0  0  0  0  0
    7.3447   -0.4510   -0.8212 C   0  0  0  0  0  0  0  0  0  0  0  0
    6.0790   -1.0122   -0.5792 C   0  0  0  0  0  0  0  0  0  0  0  0
    5.6872   -2.3468   -1.1577 C   0  0  0  0  0  0  0  0  0  0  0  0
    4.7062   -2.2922   -1.6730 H   0  0  0  0  0  0  0  0  0  0  0  0
    5.5873   -3.1271   -0.3715 H   0  0  0  0  0  0  0  0  0  0  0  0
    6.4432   -2.7070   -1.8807 H   0  0  0  0  0  0  0  0  0  0  0  0
    8.0618   -1.0019   -1.4495 H   0  0  0  0  0  0  0  0  0  0  0  0
    8.6816    1.2306   -0.4965 H   0  0  0  0  0  0  0  0  0  0  0  0
    7.0633    2.4586    0.9618 H   0  0  0  0  0  0  0  0  0  0  0  0
    4.5743    1.6725    1.7526 C   0  0  0  0  0  0  0  0  0  0  0  0
    5.1299    2.3916    2.3842 H   0  0  0  0  0  0  0  0  0  0  0  0
    3.7831    2.2407    1.2189 H   0  0  0  0  0  0  0  0  0  0  0  0
    4.0495    0.9525    2.4120 H   0  0  0  0  0  0  0  0  0  0  0  0
    3.8161   -1.8136    0.8363 H   0  0  0  0  0  0  0  0  0  0  0  0
  1  2  1  0  0  0  0
  2  3  1  0  0  0  0
  4  9  1  0  0  0  0
  4  1  1  0  0  0  0
  5  4  2  0  0  0  0
  6  5  1  0  0  0  0
  7  6  1  0  0  0  0
  8  5  1  0  0  0  0
  9 27  1  0  0  0  0
 10  9  1  0  0  0  0
 10 11  1  0  0  0  0
 11 23  1  0  0  0  0
 12 11  2  0  0  0  0
 12 22  1  0  0  0  0
 13 12  1  0  0  0  0
 14 15  1  0  0  0  0
 14 13  2  0  0  0  0
 15 10  2  0  0  0  0
 16 15  1  0  0  0  0
 16 18  1  0  0  0  0
 17 16  1  0  0  0  0
 19 16  1  0  0  0  0
 20 14  1  0  0  0  0
 21 13  1  0  0  0  0
 23 24  1  0  0  0  0
 23 26  1  0  0  0  0
 25 23  1  0  0  0  0
M  END
