1,4
 OpenBabel05122313053D

 50 53  0  0  1  0  0  0  0  0999 V2000
   -0.6498   -2.5266    0.1352 N   0  0  0  0  0  2  0  0  0  0  0  0
   -0.9421   -3.8178    0.4291 C   0  0  0  0  0  3  0  0  0  0  0  0
   -2.0066   -4.0458    0.5772 H   0  0  0  0  0  0  0  0  0  0  0  0
   -3.6543    0.2033   -0.2737 N   0  0  0  0  0  2  0  0  0  0  0  0
    0.0722   -4.7693    0.5712 C   0  0  0  0  0  0  0  0  0  0  0  0
   -0.1965   -5.8114    0.7950 H   0  0  0  0  0  0  0  0  0  0  0  0
    1.4082   -4.3779    0.4390 C   0  0  0  0  0  0  0  0  0  0  0  0
    2.2207   -5.1114    0.5599 H   0  0  0  0  0  0  0  0  0  0  0  0
    1.7214   -3.0283    0.1579 C   0  0  0  0  0  0  0  0  0  0  0  0
    0.6323   -2.1425   -0.0075 C   0  0  0  0  0  0  0  0  0  0  0  0
    0.7768   -1.0977   -0.3134 H   0  0  0  0  0  0  0  0  0  0  0  0
    3.1083   -2.5822    0.0422 C   0  0  0  0  0  0  0  0  0  0  0  0
    3.8594   -3.3897    0.0669 H   0  0  0  0  0  0  0  0  0  0  0  0
    3.5133   -1.2857   -0.0597 C   0  0  0  0  0  0  0  0  0  0  0  0
    2.7494   -0.4921   -0.0347 H   0  0  0  0  0  0  0  0  0  0  0  0
    4.8819   -0.7947   -0.1730 C   0  0  0  0  0  0  0  0  0  0  0  0
    5.9931   -1.6550   -0.3347 C   0  0  0  0  0  0  0  0  0  0  0  0
    5.8253   -2.7404   -0.3961 H   0  0  0  0  0  0  0  0  0  0  0  0
    7.2962   -1.1616   -0.4297 C   0  0  0  0  0  0  0  0  0  0  0  0
    8.1376   -1.8589   -0.5575 H   0  0  0  0  0  0  0  0  0  0  0  0
    7.5300    0.2255   -0.3677 C   0  0  0  0  0  0  0  0  0  0  0  0
    8.5545    0.6193   -0.4439 H   0  0  0  0  0  0  0  0  0  0  0  0
    6.4561    1.1047   -0.2138 C   0  0  0  0  0  0  0  0  0  0  0  0
    6.6247    2.1900   -0.1670 H   0  0  0  0  0  0  0  0  0  0  0  0
    5.1262    0.6214   -0.1165 C   0  0  0  0  0  0  0  0  0  0  0  0
    4.0574    1.5471    0.0439 C   0  0  0  0  0  0  0  0  0  0  0  0
    3.1362    2.3543    0.1862 C   0  0  0  0  0  0  0  0  0  0  0  0
    2.0643    3.2751    0.3679 C   0  0  0  0  0  0  0  0  0  0  0  0
    2.3224    4.6142    0.7682 C   0  0  0  0  0  0  0  0  0  0  0  0
    3.3609    4.9329    0.9372 H   0  0  0  0  0  0  0  0  0  0  0  0
    1.2626    5.5126    0.9315 C   0  0  0  0  0  0  0  0  0  0  0  0
    1.4695    6.5507    1.2324 H   0  0  0  0  0  0  0  0  0  0  0  0
   -0.0589    5.0995    0.7141 C   0  0  0  0  0  0  0  0  0  0  0  0
   -0.8878    5.8120    0.8469 H   0  0  0  0  0  0  0  0  0  0  0  0
   -0.3472    3.7652    0.3377 C   0  0  0  0  0  0  0  0  0  0  0  0
    0.7283    2.8677    0.1482 C   0  0  0  0  0  0  0  0  0  0  0  0
    0.5305    1.8523   -0.2270 H   0  0  0  0  0  0  0  0  0  0  0  0
   -1.7349    3.3468    0.1302 C   0  0  0  0  0  0  0  0  0  0  0  0
   -2.4586    4.1636   -0.0361 H   0  0  0  0  0  0  0  0  0  0  0  0
   -2.1449    2.0503    0.1153 C   0  0  0  0  0  0  0  0  0  0  0  0
   -1.4143    1.2550    0.3243 H   0  0  0  0  0  0  0  0  0  0  0  0
   -3.4833    1.5590   -0.1824 C   0  0  1  0  0  3  0  0  0  0  0  0
   -4.5973    2.4087   -0.3785 C   0  0  0  0  0  0  0  0  0  0  0  0
   -4.4578    3.4951   -0.2966 H   0  0  0  0  0  0  0  0  0  0  0  0
   -5.8537    1.8778   -0.6627 C   0  0  0  0  0  0  0  0  0  0  0  0
   -6.7162    2.5436   -0.8156 H   0  0  0  0  0  0  0  0  0  0  0  0
   -6.0002    0.4833   -0.7411 C   0  0  0  0  0  0  0  0  0  0  0  0
   -6.9696    0.0120   -0.9534 H   0  0  0  0  0  0  0  0  0  0  0  0
   -4.8755   -0.3156   -0.5315 C   0  0  0  0  0  0  0  0  0  0  0  0
   -4.9300   -1.4128   -0.5465 H   0  0  0  0  0  0  0  0  0  0  0  0
  1  2  1  0  0  0  0
  2  5  1  0  0  0  0
  2  3  1  0  0  0  0
  4 42  1  0  0  0  0
  5  6  1  0  0  0  0
  7  8  1  0  0  0  0
  7  5  2  0  0  0  0
  9  7  1  0  0  0  0
 10  1  1  0  0  0  0
 10  9  2  0  0  0  0
 11 10  1  0  0  0  0
 12 13  1  0  0  0  0
 12  9  1  0  0  0  0
 14 15  1  0  0  0  0
 14 12  2  0  0  0  0
 16 25  1  0  0  0  0
 16 14  1  0  0  0  0
 17 16  2  0  0  0  0
 18 17  1  0  0  0  0
 19 21  2  0  0  0  0
 19 17  1  0  0  0  0
 20 19  1  0  0  0  0
 21 23  1  0  0  0  0
 22 21  1  0  0  0  0
 23 24  1  0  0  0  0
 23 25  2  0  0  0  0
 25 26  1  0  0  0  0
 26 27  3  0  0  0  0
 27 28  1  0  0  0  0
 28 29  1  0  0  0  0
 29 31  2  0  0  0  0
 29 30  1  0  0  0  0
 31 32  1  0  0  0  0
 33 34  1  0  0  0  0
 33 31  1  0  0  0  0
 35 33  2  0  0  0  0
 36 35  1  0  0  0  0
 36 28  2  0  0  0  0
 37 36  1  0  0  0  0
 38 35  1  0  0  0  0
 39 38  1  0  0  0  0
 40 38  2  0  0  0  0
 40 41  1  0  0  0  0
 42 40  1  6  0  0  0
 43 44  1  0  0  0  0
 43 42  1  0  0  0  0
 45 43  2  0  0  0  0
 46 45  1  0  0  0  0
 47 45  1  0  0  0  0
 47 49  2  0  0  0  0
 48 47  1  0  0  0  0
 49  4  1  0  0  0  0
 50 49  1  0  0  0  0
M  END
