5,8
 OpenBabel05122313053D

 36 35  0  0  0  0  0  0  0  0999 V2000
   -4.1965    0.1262   -0.2572 Si  0  0  0  0  0  0  0  0  0  0  0  0
   -3.2960   -0.1041    1.1472 O   0  0  0  0  0  0  0  0  0  0  0  0
   -5.8165    0.2559    0.1277 O   0  0  0  0  0  0  0  0  0  0  0  0
   -3.8013   -1.2135   -1.1783 O   0  0  0  0  0  0  0  0  0  0  0  0
    2.6777    2.1467    0.0509 N   0  0  0  0  0  0  0  0  0  0  0  0
    3.5065    2.0197    0.6608 H   0  0  0  0  0  0  0  0  0  0  0  0
    3.0265    2.2419   -0.9190 H   0  0  0  0  0  0  0  0  0  0  0  0
   -0.0487    1.6882   -0.1434 N   0  0  0  0  0  0  0  0  0  0  0  0
   -0.3039    1.6194    0.8618 H   0  0  0  0  0  0  0  0  0  0  0  0
    1.7658    3.2395    0.4071 C   0  0  0  0  0  0  0  0  0  0  0  0
    2.2016    4.2433    0.2094 H   0  0  0  0  0  0  0  0  0  0  0  0
    1.5486    3.1583    1.4918 H   0  0  0  0  0  0  0  0  0  0  0  0
    0.4905    3.0456   -0.4011 C   0  0  0  0  0  0  0  0  0  0  0  0
   -0.2519    3.8361   -0.1566 H   0  0  0  0  0  0  0  0  0  0  0  0
    0.7140    3.1051   -1.4876 H   0  0  0  0  0  0  0  0  0  0  0  0
   -1.2196    1.3537   -0.9686 C   0  0  0  0  0  0  0  0  0  0  0  0
   -1.5301    0.3403   -0.6565 H   0  0  0  0  0  0  0  0  0  0  0  0
   -0.8814    1.2773   -2.0226 H   0  0  0  0  0  0  0  0  0  0  0  0
   -2.4135    2.3066   -0.8114 C   0  0  0  0  0  0  0  0  0  0  0  0
   -2.2476    3.2404   -1.3886 H   0  0  0  0  0  0  0  0  0  0  0  0
   -2.4803    2.6149    0.2556 H   0  0  0  0  0  0  0  0  0  0  0  0
   -3.7384    1.6540   -1.2420 C   0  0  0  0  0  0  0  0  0  0  0  0
   -3.6925    1.3469   -2.3093 H   0  0  0  0  0  0  0  0  0  0  0  0
   -4.5790    2.3729   -1.1611 H   0  0  0  0  0  0  0  0  0  0  0  0
   -3.2867    0.6894    2.3224 C   0  0  0  0  0  0  0  0  0  0  0  0
   -3.6808    1.7165    2.1533 H   0  0  0  0  0  0  0  0  0  0  0  0
   -2.2408    0.7683    2.6900 H   0  0  0  0  0  0  0  0  0  0  0  0
   -3.9017    0.2194    3.1209 H   0  0  0  0  0  0  0  0  0  0  0  0
   -6.5412   -0.6498    0.9407 C   0  0  0  0  0  0  0  0  0  0  0  0
   -6.9573   -1.4896    0.3406 H   0  0  0  0  0  0  0  0  0  0  0  0
   -7.3919   -0.1122    1.4086 H   0  0  0  0  0  0  0  0  0  0  0  0
   -5.9175   -1.0835    1.7552 H   0  0  0  0  0  0  0  0  0  0  0  0
   -3.9588   -2.5597   -0.7579 C   0  0  0  0  0  0  0  0  0  0  0  0
   -3.7397   -2.6909    0.3246 H   0  0  0  0  0  0  0  0  0  0  0  0
   -3.2521   -3.1953   -1.3302 H   0  0  0  0  0  0  0  0  0  0  0  0
   -4.9898   -2.9258   -0.9594 H   0  0  0  0  0  0  0  0  0  0  0  0
  1  3  1  0  0  0  0
  1  2  1  0  0  0  0
  2 25  1  0  0  0  0
  3 29  1  0  0  0  0
  4 33  1  0  0  0  0
  4  1  1  0  0  0  0
  5 10  1  0  0  0  0
  5  6  1  0  0  0  0
  7  5  1  0  0  0  0
  8  9  1  0  0  0  0
 10 12  1  0  0  0  0
 11 10  1  0  0  0  0
 13 14  1  0  0  0  0
 13  8  1  0  0  0  0
 13 10  1  0  0  0  0
 15 13  1  0  0  0  0
 16 19  1  0  0  0  0
 16 17  1  0  0  0  0
 16  8  1  0  0  0  0
 18 16  1  0  0  0  0
 19 21  1  0  0  0  0
 20 19  1  0  0  0  0
 22 24  1  0  0  0  0
 22 19  1  0  0  0  0
 22  1  1  0  0  0  0
 23 22  1  0  0  0  0
 25 27  1  0  0  0  0
 25 28  1  0  0  0  0
 26 25  1  0  0  0  0
 29 31  1  0  0  0  0
 29 32  1  0  0  0  0
 30 29  1  0  0  0  0
 33 34  1  0  0  0  0
 35 33  1  0  0  0  0
 36 33  1  0  0  0  0
M  END
