4,6
 OpenBabel05122313053D

 49 52  0  0  0  0  0  0  0  0999 V2000
    1.6165   -0.0041   -0.9112 O   0  0  0  0  0  0  0  0  0  0  0  0
   -3.2973   -1.0595   -0.5927 O   0  0  0  0  0  0  0  0  0  0  0  0
   -2.8874    1.4015    0.6332 O   0  0  0  0  0  0  0  0  0  0  0  0
   -0.6148   -2.2760   -0.6576 N   0  0  0  0  0  0  0  0  0  0  0  0
   -0.5292   -2.5536    0.3349 H   0  0  0  0  0  0  0  0  0  0  0  0
   -0.3717    2.4122   -0.3031 N   0  0  0  0  0  0  0  0  0  0  0  0
   -0.0092    2.6034    0.6454 H   0  0  0  0  0  0  0  0  0  0  0  0
    2.0434    2.4179   -0.7546 C   0  0  0  0  0  0  0  0  0  0  0  0
    2.4113    1.0828   -0.5651 C   0  0  0  0  0  0  0  0  0  0  0  0
    2.9963    3.3693   -0.3379 C   0  0  0  0  0  0  0  0  0  0  0  0
    2.7653    4.4386   -0.4633 H   0  0  0  0  0  0  0  0  0  0  0  0
    4.2287    2.9888    0.2327 C   0  0  0  0  0  0  0  0  0  0  0  0
    4.9407    3.7692    0.5373 H   0  0  0  0  0  0  0  0  0  0  0  0
    4.5536    1.6396    0.4296 C   0  0  0  0  0  0  0  0  0  0  0  0
    5.5089    1.3518    0.8913 H   0  0  0  0  0  0  0  0  0  0  0  0
    3.6236    0.6637    0.0263 C   0  0  0  0  0  0  0  0  0  0  0  0
    3.5618   -0.7907    0.0637 C   0  0  0  0  0  0  0  0  0  0  0  0
    4.4045   -1.8199    0.5225 C   0  0  0  0  0  0  0  0  0  0  0  0
    5.3741   -1.5899    0.9870 H   0  0  0  0  0  0  0  0  0  0  0  0
    3.9757   -3.1461    0.3744 C   0  0  0  0  0  0  0  0  0  0  0  0
    4.6154   -3.9670    0.7287 H   0  0  0  0  0  0  0  0  0  0  0  0
    2.7387   -3.4521   -0.2296 C   0  0  0  0  0  0  0  0  0  0  0  0
    2.4401   -4.5053   -0.3466 H   0  0  0  0  0  0  0  0  0  0  0  0
    1.8738   -2.4465   -0.7075 C   0  0  0  0  0  0  0  0  0  0  0  0
    2.3244   -1.1358   -0.5242 C   0  0  0  0  0  0  0  0  0  0  0  0
    0.5758   -2.7538   -1.4022 C   0  0  0  0  0  0  0  0  0  0  0  0
    0.5553   -2.2799   -2.4080 H   0  0  0  0  0  0  0  0  0  0  0  0
    0.5066   -3.8528   -1.5661 H   0  0  0  0  0  0  0  0  0  0  0  0
   -1.8510   -2.8729   -1.1967 C   0  0  0  0  0  0  0  0  0  0  0  0
   -1.7891   -3.9859   -1.1908 H   0  0  0  0  0  0  0  0  0  0  0  0
   -1.9479   -2.5747   -2.2629 H   0  0  0  0  0  0  0  0  0  0  0  0
   -3.0934   -2.4651   -0.4280 C   0  0  0  0  0  0  0  0  0  0  0  0
   -3.9728   -3.0285   -0.8135 H   0  0  0  0  0  0  0  0  0  0  0  0
   -2.9770   -2.6936    0.6551 H   0  0  0  0  0  0  0  0  0  0  0  0
   -4.2697   -0.4971    0.2961 C   0  0  0  0  0  0  0  0  0  0  0  0
   -4.0388   -0.8179    1.3356 H   0  0  0  0  0  0  0  0  0  0  0  0
   -5.2929   -0.8407    0.0236 H   0  0  0  0  0  0  0  0  0  0  0  0
   -4.1846    1.0083    0.1953 C   0  0  0  0  0  0  0  0  0  0  0  0
   -4.3713    1.3447   -0.8520 H   0  0  0  0  0  0  0  0  0  0  0  0
   -4.9690    1.4566    0.8457 H   0  0  0  0  0  0  0  0  0  0  0  0
   -2.6191    2.8065    0.6126 C   0  0  0  0  0  0  0  0  0  0  0  0
   -2.1980    3.0727    1.6071 H   0  0  0  0  0  0  0  0  0  0  0  0
   -3.5568    3.3852    0.4807 H   0  0  0  0  0  0  0  0  0  0  0  0
   -1.6311    3.1524   -0.4920 C   0  0  0  0  0  0  0  0  0  0  0  0
   -1.4568    4.2540   -0.4900 H   0  0  0  0  0  0  0  0  0  0  0  0
   -2.0448    2.8796   -1.4845 H   0  0  0  0  0  0  0  0  0  0  0  0
    0.6836    2.7960   -1.2769 C   0  0  0  0  0  0  0  0  0  0  0  0
    0.6549    3.8929   -1.4608 H   0  0  0  0  0  0  0  0  0  0  0  0
    0.4595    2.2978   -2.2437 H   0  0  0  0  0  0  0  0  0  0  0  0
  1  9  1  0  0  0  0
  1 25  1  0  0  0  0
  2 32  1  0  0  0  0
  2 35  1  0  0  0  0
  4  5  1  0  0  0  0
  6  7  1  0  0  0  0
  8  9  2  0  0  0  0
  8 10  1  0  0  0  0
  9 16  1  0  0  0  0
 10 12  2  0  0  0  0
 11 10  1  0  0  0  0
 12 14  1  0  0  0  0
 12 13  1  0  0  0  0
 14 15  1  0  0  0  0
 16 17  1  0  0  0  0
 16 14  2  0  0  0  0
 17 18  1  0  0  0  0
 18 19  1  0  0  0  0
 20 18  2  0  0  0  0
 20 21  1  0  0  0  0
 22 20  1  0  0  0  0
 23 22  1  0  0  0  0
 24 25  1  0  0  0  0
 24 22  2  0  0  0  0
 25 17  2  0  0  0  0
 26 24  1  0  0  0  0
 26  4  1  0  0  0  0
 27 26  1  0  0  0  0
 28 26  1  0  0  0  0
 29 30  1  0  0  0  0
 29  4  1  0  0  0  0
 29 32  1  0  0  0  0
 31 29  1  0  0  0  0
 32 34  1  0  0  0  0
 33 32  1  0  0  0  0
 35 36  1  0  0  0  0
 37 35  1  0  0  0  0
 38 35  1  0  0  0  0
 38  3  1  0  0  0  0
 38 40  1  0  0  0  0
 39 38  1  0  0  0  0
 41  3  1  0  0  0  0
 41 42  1  0  0  0  0
 43 41  1  0  0  0  0
 44 45  1  0  0  0  0
 44  6  1  0  0  0  0
 44 41  1  0  0  0  0
 46 44  1  0  0  0  0
 47  8  1  0  0  0  0
 47  6  1  0  0  0  0
 48 47  1  0  0  0  0
 49 47  1  0  0  0  0
M  END
