3,4
 OpenBabel05122313053D

 42 46  0  0  0  0  0  0  0  0999 V2000
    4.6812    3.6233    0.2674 S   0  0  0  0  0  0  0  0  0  0  0  0
    6.1835   -1.5837   -0.4369 S   0  0  0  0  0  0  0  0  0  0  0  0
   -1.7614    0.5206   -0.3259 N   0  0  0  0  0  2  0  0  0  0  0  0
   -1.1616   -2.0793   -0.7689 N   0  0  0  0  0  2  0  0  0  0  0  0
   -2.1070    1.7994   -0.1618 C   0  0  0  0  0  0  0  0  0  0  0  0
   -3.1781    2.0098   -0.0180 H   0  0  0  0  0  0  0  0  0  0  0  0
   -1.1481    2.8354   -0.1791 C   0  0  0  0  0  0  0  0  0  0  0  0
   -1.4810    3.8782   -0.0817 H   0  0  0  0  0  0  0  0  0  0  0  0
    0.1980    2.5184   -0.3177 C   0  0  0  0  0  0  0  0  0  0  0  0
    0.9650    3.3050   -0.3406 H   0  0  0  0  0  0  0  0  0  0  0  0
    0.5960    1.1599   -0.4422 C   0  0  0  0  0  0  0  0  0  0  0  0
   -0.4510    0.1938   -0.4832 C   0  0  0  0  0  0  0  0  0  0  0  0
   -0.1305   -1.1980   -0.7018 C   0  0  0  0  0  0  0  0  0  0  0  0
    1.2317   -1.5979   -0.8300 C   0  0  0  0  0  0  0  0  0  0  0  0
    1.4756   -2.9895   -0.9759 C   0  0  0  0  0  0  0  0  0  0  0  0
    2.5121   -3.3489   -1.0473 H   0  0  0  0  0  0  0  0  0  0  0  0
    0.4064   -3.8800   -1.0129 C   0  0  0  0  0  0  0  0  0  0  0  0
    0.5726   -4.9615   -1.1175 H   0  0  0  0  0  0  0  0  0  0  0  0
   -0.9088   -3.3805   -0.9110 C   0  0  0  0  0  0  0  0  0  0  0  0
   -1.7832   -4.0508   -0.9273 H   0  0  0  0  0  0  0  0  0  0  0  0
    1.9821    0.7398   -0.5620 C   0  0  0  0  0  0  0  0  0  0  0  0
    2.2886   -0.6080   -0.7604 C   0  0  0  0  0  0  0  0  0  0  0  0
    4.9407    2.9286   -1.3004 C   0  0  0  0  0  0  0  0  0  0  0  0
    5.7626    3.2859   -1.9321 H   0  0  0  0  0  0  0  0  0  0  0  0
    4.0140    1.9502   -1.5756 C   0  0  0  0  0  0  0  0  0  0  0  0
    3.9967    1.3745   -2.5101 H   0  0  0  0  0  0  0  0  0  0  0  0
    3.0643    1.7557   -0.5109 C   0  0  0  0  0  0  0  0  0  0  0  0
    3.3006    2.6018    0.5747 C   0  0  0  0  0  0  0  0  0  0  0  0
    2.5851    2.6770    1.8885 C   0  0  0  0  0  0  0  0  0  0  0  0
    1.8606    1.8467    1.9798 H   0  0  0  0  0  0  0  0  0  0  0  0
    2.0225    3.6272    2.0073 H   0  0  0  0  0  0  0  0  0  0  0  0
    3.2897    2.6076    2.7426 H   0  0  0  0  0  0  0  0  0  0  0  0
    5.5679   -1.9387   -2.0164 C   0  0  0  0  0  0  0  0  0  0  0  0
    6.2267   -2.3634   -2.7833 H   0  0  0  0  0  0  0  0  0  0  0  0
    4.2310   -1.6179   -2.1161 C   0  0  0  0  0  0  0  0  0  0  0  0
    3.6396   -1.7516   -3.0327 H   0  0  0  0  0  0  0  0  0  0  0  0
    3.6949   -1.0626   -0.9010 C   0  0  0  0  0  0  0  0  0  0  0  0
    4.6427   -0.9882    0.1176 C   0  0  0  0  0  0  0  0  0  0  0  0
    4.4786   -0.4759    1.5130 C   0  0  0  0  0  0  0  0  0  0  0  0
    3.4032   -0.4193    1.7698 H   0  0  0  0  0  0  0  0  0  0  0  0
    4.9030    0.5446    1.6203 H   0  0  0  0  0  0  0  0  0  0  0  0
    4.9786   -1.1308    2.2546 H   0  0  0  0  0  0  0  0  0  0  0  0
  1 28  1  0  0  0  0
  2 38  1  0  0  0  0
  3  5  1  0  0  0  0
  4 13  1  0  0  0  0
  5  6  1  0  0  0  0
  7  5  2  0  0  0  0
  7  8  1  0  0  0  0
  9  7  1  0  0  0  0
 10  9  1  0  0  0  0
 11  9  2  0  0  0  0
 12 11  1  0  0  0  0
 12  3  1  0  0  0  0
 13 12  2  0  0  0  0
 14 22  1  0  0  0  0
 14 13  1  0  0  0  0
 15 14  2  0  0  0  0
 16 15  1  0  0  0  0
 17 15  1  0  0  0  0
 17 19  2  0  0  0  0
 18 17  1  0  0  0  0
 19  4  1  0  0  0  0
 20 19  1  0  0  0  0
 21 27  1  0  0  0  0
 21 11  1  0  0  0  0
 22 21  2  0  0  0  0
 23  1  1  0  0  0  0
 24 23  1  0  0  0  0
 25 23  2  0  0  0  0
 25 27  1  0  0  0  0
 26 25  1  0  0  0  0
 27 28  2  0  0  0  0
 28 29  1  0  0  0  0
 29 30  1  0  0  0  0
 29 31  1  0  0  0  0
 29 32  1  0  0  0  0
 33  2  1  0  0  0  0
 34 33  1  0  0  0  0
 35 33  2  0  0  0  0
 35 37  1  0  0  0  0
 36 35  1  0  0  0  0
 37 22  1  0  0  0  0
 37 38  2  0  0  0  0
 38 39  1  0  0  0  0
 39 41  1  0  0  0  0
 39 40  1  0  0  0  0
 39 42  1  0  0  0  0
M  END
