1,2
 OpenBabel05122313053D

 40 43  0  0  0  0  0  0  0  0999 V2000
   -1.3889   -0.7338   -0.4307 N   0  0  0  0  0  0  0  0  0  0  0  0
    1.3889   -0.7337    0.4295 N   0  0  0  0  0  0  0  0  0  0  0  0
   -0.7466   -1.9669    0.1287 C   0  0  0  0  0  0  0  0  0  0  0  0
    0.7472   -1.9664   -0.1317 C   0  0  0  0  0  0  0  0  0  0  0  0
   -1.6753   -0.8239   -1.9109 C   0  0  0  0  0  0  0  0  0  0  0  0
   -3.0960   -1.4083   -2.0424 C   0  0  0  0  0  0  0  0  0  0  0  0
   -3.7228   -0.9678   -0.7397 C   0  0  0  0  0  0  0  0  0  0  0  0
   -5.0637   -0.9183   -0.3359 C   0  0  0  0  0  0  0  0  0  0  0  0
   -5.3671   -0.4620    0.9583 C   0  0  0  0  0  0  0  0  0  0  0  0
   -4.3449   -0.0573    1.8369 C   0  0  0  0  0  0  0  0  0  0  0  0
   -2.9989   -0.0996    1.4400 C   0  0  0  0  0  0  0  0  0  0  0  0
   -2.7190   -0.5625    0.1526 C   0  0  0  0  0  0  0  0  0  0  0  0
    1.6748   -0.8256    1.9097 C   0  0  0  0  0  0  0  0  0  0  0  0
    3.0951   -1.4108    2.0410 C   0  0  0  0  0  0  0  0  0  0  0  0
    3.7226   -0.9689    0.7392 C   0  0  0  0  0  0  0  0  0  0  0  0
    5.0637   -0.9192    0.3361 C   0  0  0  0  0  0  0  0  0  0  0  0
    5.3678   -0.4611   -0.9574 C   0  0  0  0  0  0  0  0  0  0  0  0
    4.3462   -0.0547   -1.8358 C   0  0  0  0  0  0  0  0  0  0  0  0
    2.9999   -0.0971   -1.4395 C   0  0  0  0  0  0  0  0  0  0  0  0
    2.7194   -0.5619   -0.1529 C   0  0  0  0  0  0  0  0  0  0  0  0
   -1.2171   -2.8825   -0.2940 H   0  0  0  0  0  0  0  0  0  0  0  0
   -0.9524   -1.9701    1.2166 H   0  0  0  0  0  0  0  0  0  0  0  0
    1.2182   -2.8823    0.2896 H   0  0  0  0  0  0  0  0  0  0  0  0
    0.9528   -1.9677   -1.2196 H   0  0  0  0  0  0  0  0  0  0  0  0
   -0.8784   -1.3998   -2.4171 H   0  0  0  0  0  0  0  0  0  0  0  0
   -1.6596    0.2216   -2.2754 H   0  0  0  0  0  0  0  0  0  0  0  0
   -3.1033   -2.5170   -2.1384 H   0  0  0  0  0  0  0  0  0  0  0  0
   -3.6166   -1.0027   -2.9322 H   0  0  0  0  0  0  0  0  0  0  0  0
   -5.8672   -1.2229   -1.0237 H   0  0  0  0  0  0  0  0  0  0  0  0
   -6.4167   -0.4062    1.2836 H   0  0  0  0  0  0  0  0  0  0  0  0
   -4.6020    0.3204    2.8376 H   0  0  0  0  0  0  0  0  0  0  0  0
   -2.1901    0.2571    2.0946 H   0  0  0  0  0  0  0  0  0  0  0  0
    0.8773   -1.4015    2.4151 H   0  0  0  0  0  0  0  0  0  0  0  0
    1.6595    0.2196    2.2751 H   0  0  0  0  0  0  0  0  0  0  0  0
    3.1018   -2.5198    2.1355 H   0  0  0  0  0  0  0  0  0  0  0  0
    3.6155   -1.0068    2.9316 H   0  0  0  0  0  0  0  0  0  0  0  0
    5.8668   -1.2250    1.0238 H   0  0  0  0  0  0  0  0  0  0  0  0
    6.4176   -0.4051   -1.2821 H   0  0  0  0  0  0  0  0  0  0  0  0
    4.6038    0.3245   -2.8357 H   0  0  0  0  0  0  0  0  0  0  0  0
    2.1916    0.2609   -2.0938 H   0  0  0  0  0  0  0  0  0  0  0  0
  1  3  1  0  0  0  0
  1 12  1  0  0  0  0
  2 13  1  0  0  0  0
  3 22  1  0  0  0  0
  4  3  1  0  0  0  0
  4 23  1  0  0  0  0
  4  2  1  0  0  0  0
  5  1  1  0  0  0  0
  6  5  1  0  0  0  0
  6  7  1  0  0  0  0
  7  8  2  0  0  0  0
  7 12  1  0  0  0  0
  8  9  1  0  0  0  0
  9 30  1  0  0  0  0
  9 10  2  0  0  0  0
 10 31  1  0  0  0  0
 11 10  1  0  0  0  0
 11 32  1  0  0  0  0
 12 11  2  0  0  0  0
 13 14  1  0  0  0  0
 13 34  1  0  0  0  0
 13 33  1  0  0  0  0
 14 35  1  0  0  0  0
 14 36  1  0  0  0  0
 15 14  1  0  0  0  0
 16 15  1  0  0  0  0
 16 37  1  0  0  0  0
 17 16  2  0  0  0  0
 18 19  2  0  0  0  0
 18 17  1  0  0  0  0
 19 20  1  0  0  0  0
 20  2  1  0  0  0  0
 20 15  2  0  0  0  0
 21  3  1  0  0  0  0
 24  4  1  0  0  0  0
 25  5  1  0  0  0  0
 26  5  1  0  0  0  0
 27  6  1  0  0  0  0
 28  6  1  0  0  0  0
 29  8  1  0  0  0  0
 38 17  1  0  0  0  0
 39 18  1  0  0  0  0
 40 19  1  0  0  0  0
M  END
