1,4
 OpenBabel05122313053D

 23 24  0  0  1  0  0  0  0  0999 V2000
   -0.0601   -0.8998   -1.1149 N   0  0  0  0  0  2  0  0  0  0  0  0
    1.6274    0.7683   -0.4850 N   0  0  0  0  0  0  0  0  0  0  0  0
    2.0488   -1.4562   -0.4027 N   0  0  2  0  0  0  0  0  0  0  0  0
   -0.4009    1.8843   -0.5355 N   0  0  0  0  0  2  0  0  0  0  0  0
    1.1156   -0.5016   -0.7294 C   0  0  1  0  0  3  0  0  0  0  0  0
    0.0143   -2.3770   -1.0491 C   0  0  0  0  0  0  0  0  0  0  0  0
    0.1072   -2.7871   -2.0788 H   0  0  0  0  0  0  0  0  0  0  0  0
   -0.9155   -2.7849   -0.6074 H   0  0  0  0  0  0  0  0  0  0  0  0
    1.2764   -2.6893   -0.1948 C   0  0  0  0  0  0  0  0  0  0  0  0
    1.0162   -2.7818    0.8841 H   0  0  0  0  0  0  0  0  0  0  0  0
    1.8264   -3.5886   -0.5334 H   0  0  0  0  0  0  0  0  0  0  0  0
    2.9988   -0.8635    0.5321 C   0  0  0  0  0  0  0  0  0  0  0  0
    4.0074   -1.3146    0.4593 H   0  0  0  0  0  0  0  0  0  0  0  0
    2.6133   -0.9505    1.5743 H   0  0  0  0  0  0  0  0  0  0  0  0
    2.9862    0.6114    0.0769 C   0  0  0  0  0  0  0  0  0  0  0  0
    3.1456    1.3023    0.9243 H   0  0  0  0  0  0  0  0  0  0  0  0
    3.7528    0.8109   -0.7024 H   0  0  0  0  0  0  0  0  0  0  0  0
    0.8916    1.9407   -0.4630 C   0  0  1  0  0  3  0  0  0  0  0  0
    1.6838    3.2125   -0.3196 C   0  0  0  0  0  0  0  0  0  0  0  0
    1.0509    4.0850   -0.5631 H   0  0  0  0  0  0  0  0  0  0  0  0
    2.5780    3.2205   -0.9729 H   0  0  0  0  0  0  0  0  0  0  0  0
    2.0275    3.3284    0.7298 H   0  0  0  0  0  0  0  0  0  0  0  0
   -0.8386    2.8121   -0.5561 H   0  0  0  0  0  0  0  0  0  0  0  0
  1  6  1  0  0  0  0
  2 18  1  0  0  0  0
  2 15  1  0  0  0  0
  3  9  1  1  0  0  0
  3 12  1  0  0  0  0
  5  1  1  1  0  0  0
  5  2  1  0  0  0  0
  5  3  1  0  0  0  0
  6  8  1  0  0  0  0
  6  9  1  0  0  0  0
  7  6  1  0  0  0  0
  9 10  1  0  0  0  0
 11  9  1  0  0  0  0
 12 14  1  0  0  0  0
 13 12  1  0  0  0  0
 15 12  1  0  0  0  0
 15 16  1  0  0  0  0
 17 15  1  0  0  0  0
 18  4  1  1  0  0  0
 18 19  1  0  0  0  0
 19 22  1  0  0  0  0
 20 19  1  0  0  0  0
 21 19  1  0  0  0  0
 23  4  1  0  0  0  0
M  END
