7,8
 OpenBabel05122313053D

 57 62  0  0  0  0  0  0  0  0999 V2000
   -3.6468    0.1029    2.3111 O   0  0  0  0  0  0  0  0  0  0  0  0
    3.8840    2.7175   -0.5374 O   0  0  0  0  0  0  0  0  0  0  0  0
   -3.2044    3.2300   -1.0196 O   0  0  0  0  0  0  0  0  0  0  0  0
    3.4117   -0.5997    2.5983 O   0  0  0  0  0  0  0  0  0  0  0  0
    3.6335    1.0943    1.0591 N   0  0  0  0  0  0  0  0  0  0  0  0
   -3.4092    1.6742    0.6514 N   0  0  0  0  0  0  0  0  0  0  0  0
   -2.1517   -1.8543   -0.5499 N   0  0  0  0  0  2  0  0  0  0  0  0
    1.7906   -1.3397   -1.3483 N   0  0  0  0  0  2  0  0  0  0  0  0
    3.1191    2.0368    0.1420 C   0  0  0  0  0  0  0  0  0  0  0  0
   -2.8959    0.7620    1.5932 C   0  0  0  0  0  0  0  0  0  0  0  0
    0.8223    1.3323    0.8970 C   0  0  0  0  0  0  0  0  0  0  0  0
    1.0522    3.0525   -0.8205 C   0  0  0  0  0  0  0  0  0  0  0  0
    1.7136    3.6587   -1.4563 H   0  0  0  0  0  0  0  0  0  0  0  0
    3.9625   -1.1458   -0.9792 N   0  0  0  0  0  0  0  0  0  0  0  0
   -0.5989    1.4591    0.8233 C   0  0  0  0  0  0  0  0  0  0  0  0
   -4.2821   -1.3320   -0.3611 N   0  0  0  0  0  0  0  0  0  0  0  0
   -3.1173   -1.0417   -0.9840 C   0  0  0  0  0  3  0  0  0  0  0  0
   -2.9834   -0.2459   -1.7267 H   0  0  0  0  0  0  0  0  0  0  0  0
    1.3933    0.3851    1.7914 C   0  0  0  0  0  0  0  0  0  0  0  0
   -2.6499    2.4900   -0.2124 C   0  0  0  0  0  0  0  0  0  0  0  0
    1.6395    2.1457    0.0659 C   0  0  0  0  0  0  0  0  0  0  0  0
    2.3454   -0.6420   -2.4051 C   0  0  0  0  0  0  0  0  0  0  0  0
    1.7168   -0.2636   -3.2165 H   0  0  0  0  0  0  0  0  0  0  0  0
    0.5699   -0.4310    2.5704 C   0  0  0  0  0  0  0  0  0  0  0  0
    1.0411   -1.1780    3.2230 H   0  0  0  0  0  0  0  0  0  0  0  0
   -0.8333   -0.2987    2.5054 C   0  0  0  0  0  0  0  0  0  0  0  0
   -1.4942   -0.9364    3.1085 H   0  0  0  0  0  0  0  0  0  0  0  0
   -1.1714    2.3888   -0.0847 C   0  0  0  0  0  0  0  0  0  0  0  0
    2.8656    0.2333    1.8755 C   0  0  0  0  0  0  0  0  0  0  0  0
   -4.0535   -2.3874    0.5090 C   0  0  0  0  0  0  0  0  0  0  0  0
   -4.8469   -2.7832    1.1506 H   0  0  0  0  0  0  0  0  0  0  0  0
    2.7862   -1.6384   -0.5081 C   0  0  0  0  0  3  0  0  0  0  0  0
    2.6643   -2.1954    0.4279 H   0  0  0  0  0  0  0  0  0  0  0  0
   -1.4157    0.6369    1.6491 C   0  0  0  0  0  0  0  0  0  0  0  0
   -4.8934    1.7301    0.4880 C   0  0  0  0  0  0  0  0  0  0  0  0
   -5.1418    2.7932    0.3155 H   0  0  0  0  0  0  0  0  0  0  0  0
   -5.2974    1.3843    1.4609 H   0  0  0  0  0  0  0  0  0  0  0  0
   -0.3497    3.1733   -0.8963 C   0  0  0  0  0  0  0  0  0  0  0  0
   -0.8278    3.8662   -1.6032 H   0  0  0  0  0  0  0  0  0  0  0  0
    5.0956    0.9982    1.1660 C   0  0  0  0  0  0  0  0  0  0  0  0
    5.2941    0.4900    2.1273 H   0  0  0  0  0  0  0  0  0  0  0  0
    5.4931    2.0306    1.2026 H   0  0  0  0  0  0  0  0  0  0  0  0
    3.7015   -0.5163   -2.1880 C   0  0  0  0  0  0  0  0  0  0  0  0
    4.4859   -0.0313   -2.7762 H   0  0  0  0  0  0  0  0  0  0  0  0
   -2.7197   -2.7087    0.3842 C   0  0  0  0  0  0  0  0  0  0  0  0
   -2.1015   -3.4486    0.9013 H   0  0  0  0  0  0  0  0  0  0  0  0
    5.7803    0.2494    0.0149 C   0  0  0  0  0  0  0  0  0  0  0  0
    5.7336    0.8678   -0.9043 H   0  0  0  0  0  0  0  0  0  0  0  0
    6.8554    0.1597    0.2759 H   0  0  0  0  0  0  0  0  0  0  0  0
   -5.5686   -0.5665   -0.5174 C   0  0  0  0  0  0  0  0  0  0  0  0
   -6.1358   -0.8325    0.4041 H   0  0  0  0  0  0  0  0  0  0  0  0
   -6.1097   -0.9853   -1.3896 H   0  0  0  0  0  0  0  0  0  0  0  0
   -5.3939    0.8932   -0.6368 C   0  0  0  0  0  3  0  0  0  0  0  0
   -5.5394    1.3714   -1.6165 H   0  0  0  0  0  0  0  0  0  0  0  0
    5.2505   -1.1603   -0.2821 C   0  0  0  0  0  0  0  0  0  0  0  0
    5.9791   -1.7103   -0.9129 H   0  0  0  0  0  0  0  0  0  0  0  0
    5.1095   -1.7372    0.6526 H   0  0  0  0  0  0  0  0  0  0  0  0
  2  9  2  0  0  0  0
  3 20  2  0  0  0  0
  5 40  1  0  0  0  0
  5 29  1  0  0  0  0
  6 10  1  0  0  0  0
  7 45  1  0  0  0  0
  8 32  1  0  0  0  0
  9  5  1  0  0  0  0
 10 34  1  0  0  0  0
 10  1  2  0  0  0  0
 11 19  1  0  0  0  0
 12 21  1  0  0  0  0
 13 12  1  0  0  0  0
 14 32  1  0  0  0  0
 14 55  1  0  0  0  0
 15 11  1  0  0  0  0
 15 34  1  0  0  0  0
 16 30  1  0  0  0  0
 17  7  1  0  0  0  0
 17 16  1  0  0  0  0
 18 17  1  0  0  0  0
 19 29  1  0  0  0  0
 19 24  2  0  0  0  0
 20 28  1  0  0  0  0
 20  6  1  0  0  0  0
 21  9  1  0  0  0  0
 21 11  2  0  0  0  0
 22 43  2  0  0  0  0
 22  8  1  0  0  0  0
 23 22  1  0  0  0  0
 24 25  1  0  0  0  0
 26 24  1  0  0  0  0
 26 27  1  0  0  0  0
 28 15  2  0  0  0  0
 29  4  2  0  0  0  0
 30 31  1  0  0  0  0
 32 33  1  0  0  0  0
 34 26  2  0  0  0  0
 35  6  1  0  0  0  0
 35 37  1  0  0  0  0
 36 35  1  0  0  0  0
 38 12  2  0  0  0  0
 38 28  1  0  0  0  0
 39 38  1  0  0  0  0
 40 42  1  0  0  0  0
 40 41  1  0  0  0  0
 43 14  1  0  0  0  0
 44 43  1  0  0  0  0
 45 30  2  0  0  0  0
 45 46  1  0  0  0  0
 47 49  1  0  0  0  0
 47 40  1  0  0  0  0
 48 47  1  0  0  0  0
 50 16  1  0  0  0  0
 50 51  1  0  0  0  0
 52 50  1  0  0  0  0
 53 50  1  0  0  0  0
 53 35  1  0  0  0  0
 54 53  1  0  0  0  0
 55 47  1  0  0  0  0
 55 57  1  0  0  0  0
 56 55  1  0  0  0  0
M  END
