1,2
 OpenBabel05122313053D

 27 28  0  0  0  0  0  0  0  0999 V2000
   -2.3417   -0.4651    0.0259 N   0  0  0  0  0  2  0  0  0  0  0  0
   -0.1215   -1.1244   -1.1102 N   0  0  0  0  0  2  0  0  0  0  0  0
   -3.4889   -0.0076    0.5728 C   0  0  0  0  0  3  0  0  0  0  0  0
   -3.4191    0.9216    1.1526 H   0  0  0  0  0  0  0  0  0  0  0  0
   -4.7117   -0.6645    0.3992 C   0  0  0  0  0  0  0  0  0  0  0  0
   -5.6124   -0.2545    0.8772 H   0  0  0  0  0  0  0  0  0  0  0  0
   -4.7688   -1.8256   -0.3894 C   0  0  0  0  0  0  0  0  0  0  0  0
   -5.7200   -2.3555   -0.5417 H   0  0  0  0  0  0  0  0  0  0  0  0
   -3.5939   -2.2806   -0.9941 C   0  0  0  0  0  0  0  0  0  0  0  0
   -3.5891   -3.1653   -1.6466 H   0  0  0  0  0  0  0  0  0  0  0  0
   -2.3955   -1.5781   -0.7760 C   0  0  0  0  0  0  0  0  0  0  0  0
   -1.1336   -1.8963   -1.3976 C   0  0  0  0  0  3  0  0  0  0  0  0
   -1.0398   -2.7291   -2.1159 H   0  0  0  0  0  0  0  0  0  0  0  0
    1.1532   -1.3355   -1.7973 C   0  0  0  0  0  0  0  0  0  0  0  0
    1.4503   -0.3612   -2.2342 H   0  0  0  0  0  0  0  0  0  0  0  0
    0.9916   -2.0392   -2.6436 H   0  0  0  0  0  0  0  0  0  0  0  0
    2.2419   -1.8625   -0.8835 C   0  0  0  0  0  0  0  0  0  0  0  0
    3.5391   -1.3189   -0.9425 C   0  0  0  0  0  0  0  0  0  0  0  0
    3.7541   -0.4987   -1.6464 H   0  0  0  0  0  0  0  0  0  0  0  0
    4.5592   -1.8191   -0.1180 C   0  0  0  0  0  0  0  0  0  0  0  0
    5.5697   -1.3877   -0.1756 H   0  0  0  0  0  0  0  0  0  0  0  0
    4.2907   -2.8674    0.7758 C   0  0  0  0  0  0  0  0  0  0  0  0
    5.0892   -3.2588    1.4233 H   0  0  0  0  0  0  0  0  0  0  0  0
    3.0013   -3.4226    0.8330 C   0  0  0  0  0  0  0  0  0  0  0  0
    2.7893   -4.2536    1.5225 H   0  0  0  0  0  0  0  0  0  0  0  0
    1.9836   -2.9248    0.0057 C   0  0  0  0  0  0  0  0  0  0  0  0
    0.9753   -3.3653    0.0588 H   0  0  0  0  0  0  0  0  0  0  0  0
  1  3  1  0  0  0  0
  3  4  1  0  0  0  0
  5  3  1  0  0  0  0
  5  6  1  0  0  0  0
  7  5  2  0  0  0  0
  8  7  1  0  0  0  0
  9 11  2  0  0  0  0
  9  7  1  0  0  0  0
 10  9  1  0  0  0  0
 11  1  1  0  0  0  0
 12  2  1  0  0  0  0
 12 11  1  0  0  0  0
 13 12  1  0  0  0  0
 14  2  1  0  0  0  0
 14 17  1  0  0  0  0
 15 14  1  0  0  0  0
 16 14  1  0  0  0  0
 17 26  1  0  0  0  0
 18 17  2  0  0  0  0
 18 20  1  0  0  0  0
 19 18  1  0  0  0  0
 20 22  2  0  0  0  0
 21 20  1  0  0  0  0
 22 24  1  0  0  0  0
 22 23  1  0  0  0  0
 24 25  1  0  0  0  0
 26 27  1  0  0  0  0
 26 24  2  0  0  0  0
M  END
