3,4
 OpenBabel05122313053D

 29 31  0  0  0  0  0  0  0  0999 V2000
    5.5198    1.6830   -0.4878 O   0  0  0  0  0  0  0  0  0  0  0  0
    7.6931    1.3716   -0.9838 O   0  0  0  0  0  0  0  0  0  0  0  0
   -1.7415   -0.6060    2.4581 N   0  0  0  0  0  2  0  0  0  0  0  0
    0.7098    0.2669    1.9121 N   0  0  0  0  0  2  0  0  0  0  0  0
   -3.0201   -0.9313    2.7325 C   0  0  0  0  0  3  0  0  0  0  0  0
   -3.7227   -0.9010    1.8839 H   0  0  0  0  0  0  0  0  0  0  0  0
   -3.4524   -1.2900    4.0154 C   0  0  0  0  0  0  0  0  0  0  0  0
   -4.5070   -1.5505    4.1832 H   0  0  0  0  0  0  0  0  0  0  0  0
   -2.5188   -1.3118    5.0667 C   0  0  0  0  0  0  0  0  0  0  0  0
   -2.8264   -1.5926    6.0846 H   0  0  0  0  0  0  0  0  0  0  0  0
   -1.1926   -0.9612    4.7967 C   0  0  0  0  0  0  0  0  0  0  0  0
   -0.4322   -0.9509    5.5915 H   0  0  0  0  0  0  0  0  0  0  0  0
   -0.8306   -0.6033    3.4819 C   0  0  0  0  0  0  0  0  0  0  0  0
    0.5180   -0.1859    3.1214 C   0  0  0  0  0  3  0  0  0  0  0  0
    1.3259   -0.2305    3.8773 H   0  0  0  0  0  0  0  0  0  0  0  0
    1.9679    0.6244    1.4031 C   0  0  0  0  0  0  0  0  0  0  0  0
    3.1406   -0.0892    1.7003 C   0  0  0  0  0  0  0  0  0  0  0  0
    3.1059   -0.9620    2.3690 H   0  0  0  0  0  0  0  0  0  0  0  0
    4.3609    0.2495    1.0816 C   0  0  0  0  0  0  0  0  0  0  0  0
    5.5934   -0.4709    1.2943 C   0  0  0  0  0  0  0  0  0  0  0  0
    5.5995   -1.3171    1.9993 H   0  0  0  0  0  0  0  0  0  0  0  0
    6.7298   -0.1117    0.6321 C   0  0  0  0  0  0  0  0  0  0  0  0
    7.6851   -0.6359    0.7720 H   0  0  0  0  0  0  0  0  0  0  0  0
    6.7559    0.9939   -0.3255 C   0  0  0  0  0  0  0  0  0  0  0  0
    4.3899    1.3389    0.1679 C   0  0  0  0  0  0  0  0  0  0  0  0
    3.2225    2.0782   -0.1087 C   0  0  0  0  0  0  0  0  0  0  0  0
    3.2843    2.9209   -0.8111 H   0  0  0  0  0  0  0  0  0  0  0  0
    2.0208    1.7065    0.4849 C   0  0  0  0  0  0  0  0  0  0  0  0
    1.0929    2.2565    0.2687 H   0  0  0  0  0  0  0  0  0  0  0  0
  1 24  1  0  0  0  0
  1 25  1  0  0  0  0
  2 24  2  0  0  0  0
  3  5  1  0  0  0  0
  3 13  1  0  0  0  0
  4 14  1  0  0  0  0
  5  7  1  0  0  0  0
  6  5  1  0  0  0  0
  7  8  1  0  0  0  0
  7  9  2  0  0  0  0
  9 10  1  0  0  0  0
 11  9  1  0  0  0  0
 11 12  1  0  0  0  0
 13 11  2  0  0  0  0
 14 13  1  0  0  0  0
 14 15  1  0  0  0  0
 16 17  1  0  0  0  0
 16  4  1  0  0  0  0
 17 18  1  0  0  0  0
 19 20  1  0  0  0  0
 19 17  2  0  0  0  0
 20 21  1  0  0  0  0
 22 23  1  0  0  0  0
 22 20  2  0  0  0  0
 24 22  1  0  0  0  0
 25 19  1  0  0  0  0
 26 25  2  0  0  0  0
 26 28  1  0  0  0  0
 27 26  1  0  0  0  0
 28 16  2  0  0  0  0
 29 28  1  0  0  0  0
M  END
