1,2
 OpenBabel05122313053D

 55 57  0  0  0  0  0  0  0  0999 V2000
   -0.9491   -0.5141   -0.1806 N   0  0  0  0  0  2  0  0  0  0  0  0
    1.6630   -0.2389   -0.4156 N   0  0  0  0  0  2  0  0  0  0  0  0
   -0.3479   -1.5054   -0.8000 C   0  0  0  0  0  0  0  0  0  0  0  0
    5.3634   -0.9565   -0.8971 C   0  0  0  0  0  0  0  0  0  0  0  0
    5.6690    0.0611   -1.2264 H   0  0  0  0  0  0  0  0  0  0  0  0
    5.7988   -1.6657   -1.6295 H   0  0  0  0  0  0  0  0  0  0  0  0
    1.0989   -1.3565   -0.9858 C   0  0  0  0  0  0  0  0  0  0  0  0
    3.8613   -1.0810   -0.9646 C   0  0  0  0  0  0  0  0  0  0  0  0
    4.3715    0.3613    1.7752 C   0  0  0  0  0  0  0  0  0  0  0  0
    4.3934    1.1551    2.5502 H   0  0  0  0  0  0  0  0  0  0  0  0
    3.7911   -0.4778    2.2189 H   0  0  0  0  0  0  0  0  0  0  0  0
   -1.0431   -2.7613   -1.2358 C   0  0  0  0  0  0  0  0  0  0  0  0
   -2.1022   -2.7521   -0.9238 H   0  0  0  0  0  0  0  0  0  0  0  0
   -0.5500   -3.6553   -0.8029 H   0  0  0  0  0  0  0  0  0  0  0  0
   -1.0016   -2.8657   -2.3402 H   0  0  0  0  0  0  0  0  0  0  0  0
    3.0127   -0.1364   -0.3171 C   0  0  0  0  0  0  0  0  0  0  0  0
    3.6013    0.9303    0.5627 C   0  0  0  0  0  0  0  0  0  0  0  0
    2.7842    1.5915    0.8984 H   0  0  0  0  0  0  0  0  0  0  0  0
    4.2730    1.5832   -0.0359 H   0  0  0  0  0  0  0  0  0  0  0  0
   -2.3385   -0.5679    0.1439 C   0  0  0  0  0  0  0  0  0  0  0  0
   -4.6553   -0.3584   -0.4924 C   0  0  0  0  0  0  0  0  0  0  0  0
   -5.4249   -0.1391   -1.2471 H   0  0  0  0  0  0  0  0  0  0  0  0
    3.2729   -2.1557   -1.6478 C   0  0  0  0  0  0  0  0  0  0  0  0
    3.9114   -2.8837   -2.1713 H   0  0  0  0  0  0  0  0  0  0  0  0
   -4.0728   -0.8958    1.7887 C   0  0  0  0  0  0  0  0  0  0  0  0
   -4.3691   -1.1073    2.8291 H   0  0  0  0  0  0  0  0  0  0  0  0
    5.9647   -1.2328    0.4977 C   0  0  0  0  0  0  0  0  0  0  0  0
    5.5065   -2.1587    0.9096 H   0  0  0  0  0  0  0  0  0  0  0  0
    7.0453   -1.4537    0.3702 H   0  0  0  0  0  0  0  0  0  0  0  0
   -2.7015   -0.8299    1.4821 C   0  0  0  0  0  0  0  0  0  0  0  0
    5.8112   -0.0792    1.4925 C   0  0  0  0  0  0  0  0  0  0  0  0
    6.3017   -0.3611    2.4485 H   0  0  0  0  0  0  0  0  0  0  0  0
    6.3782    0.7987    1.1082 H   0  0  0  0  0  0  0  0  0  0  0  0
   -1.6542   -1.0276    2.5536 C   0  0  0  0  0  0  0  0  0  0  0  0
   -2.1132   -0.7934    3.5359 H   0  0  0  0  0  0  0  0  0  0  0  0
   -0.8454   -0.2804    2.4000 H   0  0  0  0  0  0  0  0  0  0  0  0
   -1.0521   -2.4396    2.6031 C   0  0  0  0  0  0  0  0  0  0  0  0
   -0.3256   -2.5311    3.4358 H   0  0  0  0  0  0  0  0  0  0  0  0
   -0.5130   -2.6891    1.6670 H   0  0  0  0  0  0  0  0  0  0  0  0
   -1.8386   -3.2077    2.7502 H   0  0  0  0  0  0  0  0  0  0  0  0
    1.8864   -2.3235   -1.6253 C   0  0  0  0  0  0  0  0  0  0  0  0
    1.4158   -3.1945   -2.0993 H   0  0  0  0  0  0  0  0  0  0  0  0
   -3.3035   -0.2860   -0.8575 C   0  0  0  0  0  0  0  0  0  0  0  0
   -5.0640   -0.6756    0.8194 C   0  0  0  0  0  0  0  0  0  0  0  0
   -2.8465    0.1558   -2.2317 C   0  0  0  0  0  0  0  0  0  0  0  0
   -2.1524    1.0115   -2.0714 H   0  0  0  0  0  0  0  0  0  0  0  0
   -2.2236   -0.6426   -2.6931 H   0  0  0  0  0  0  0  0  0  0  0  0
   -3.9461    0.5634   -3.2080 C   0  0  0  0  0  0  0  0  0  0  0  0
   -3.5053    0.8936   -4.1690 H   0  0  0  0  0  0  0  0  0  0  0  0
   -4.5446    1.4078   -2.8106 H   0  0  0  0  0  0  0  0  0  0  0  0
   -4.6425   -0.2716   -3.4297 H   0  0  0  0  0  0  0  0  0  0  0  0
   -6.5301   -0.7340    1.1673 C   0  0  0  0  0  0  0  0  0  0  0  0
   -7.0715   -1.4556    0.5207 H   0  0  0  0  0  0  0  0  0  0  0  0
   -7.0154    0.2537    1.0200 H   0  0  0  0  0  0  0  0  0  0  0  0
   -6.6896   -1.0339    2.2209 H   0  0  0  0  0  0  0  0  0  0  0  0
  1 20  1  0  0  0  0
  2 16  1  0  0  0  0
  3  1  1  0  0  0  0
  4 27  1  0  0  0  0
  5  4  1  0  0  0  0
  6  4  1  0  0  0  0
  7  3  2  0  0  0  0
  7  2  1  0  0  0  0
  8  4  1  0  0  0  0
  8 16  2  0  0  0  0
  9 11  1  0  0  0  0
  9 10  1  0  0  0  0
 12 13  1  0  0  0  0
 12 14  1  0  0  0  0
 12  3  1  0  0  0  0
 15 12  1  0  0  0  0
 16 17  1  0  0  0  0
 17 18  1  0  0  0  0
 17  9  1  0  0  0  0
 19 17  1  0  0  0  0
 20 30  1  0  0  0  0
 21 44  2  0  0  0  0
 22 21  1  0  0  0  0
 23 41  2  0  0  0  0
 23  8  1  0  0  0  0
 24 23  1  0  0  0  0
 25 26  1  0  0  0  0
 27 28  1  0  0  0  0
 27 31  1  0  0  0  0
 29 27  1  0  0  0  0
 30 25  2  0  0  0  0
 30 34  1  0  0  0  0
 31  9  1  0  0  0  0
 31 32  1  0  0  0  0
 33 31  1  0  0  0  0
 34 37  1  0  0  0  0
 34 35  1  0  0  0  0
 36 34  1  0  0  0  0
 37 40  1  0  0  0  0
 37 38  1  0  0  0  0
 39 37  1  0  0  0  0
 41  7  1  0  0  0  0
 42 41  1  0  0  0  0
 43 21  1  0  0  0  0
 43 20  2  0  0  0  0
 44 52  1  0  0  0  0
 44 25  1  0  0  0  0
 45 46  1  0  0  0  0
 45 43  1  0  0  0  0
 47 45  1  0  0  0  0
 48 50  1  0  0  0  0
 48 45  1  0  0  0  0
 49 48  1  0  0  0  0
 51 48  1  0  0  0  0
 52 55  1  0  0  0  0
 53 52  1  0  0  0  0
 54 52  1  0  0  0  0
M  END
