1,2
 OpenBabel05122313053D

 23 23  0  0  0  0  0  0  0  0999 V2000
    0.7918    1.2294   -0.1089 N   0  0  0  0  0  2  0  0  0  0  0  0
   -1.5500    0.0474    0.0312 N   0  0  0  0  0  2  0  0  0  0  0  0
   -1.5629    1.4164   -0.0518 C   0  0  0  0  0  0  0  0  0  0  0  0
   -0.2450    2.0215   -0.1213 C   0  0  0  0  0  0  0  0  0  0  0  0
   -2.7710    2.1352   -0.0517 C   0  0  0  0  0  0  0  0  0  0  0  0
    2.1701    1.7504   -0.0845 C   0  0  0  0  0  0  0  0  0  0  0  0
   -2.7106   -0.6291    0.1199 C   0  0  0  0  0  0  0  0  0  0  0  0
   -3.9795    1.4339    0.0398 C   0  0  0  0  0  0  0  0  0  0  0  0
   -3.9455    0.0329    0.1284 C   0  0  0  0  0  0  0  0  0  0  0  0
    2.6997    1.6421    1.3537 C   0  0  0  0  0  0  0  0  0  0  0  0
    2.6505    0.5909    1.6949 H   0  0  0  0  0  0  0  0  0  0  0  0
    2.1138    2.2864    2.0417 H   0  0  0  0  0  0  0  0  0  0  0  0
    3.7583    1.9675    1.3803 H   0  0  0  0  0  0  0  0  0  0  0  0
    2.3198    3.1538   -0.6679 C   0  0  0  0  0  0  0  0  0  0  0  0
    1.8804    3.2261   -1.6832 H   0  0  0  0  0  0  0  0  0  0  0  0
    3.3977    3.3934   -0.7497 H   0  0  0  0  0  0  0  0  0  0  0  0
    1.8641    3.9360   -0.0251 H   0  0  0  0  0  0  0  0  0  0  0  0
   -2.7483    3.2322   -0.1223 H   0  0  0  0  0  0  0  0  0  0  0  0
   -4.8702   -0.5567    0.2030 H   0  0  0  0  0  0  0  0  0  0  0  0
   -4.9378    1.9737    0.0419 H   0  0  0  0  0  0  0  0  0  0  0  0
    2.7446    1.0167   -0.6898 H   0  0  0  0  0  0  0  0  0  0  0  0
   -2.5968   -1.7260    0.1786 H   0  0  0  0  0  0  0  0  0  0  0  0
   -0.1436    3.1191   -0.1648 H   0  0  0  0  0  0  0  0  0  0  0  0
  1  6  1  0  0  0  0
  2  7  1  0  0  0  0
  3  5  1  0  0  0  0
  3  2  1  0  0  0  0
  4  1  1  0  0  0  0
  4  3  2  0  0  0  0
  5  8  2  0  0  0  0
  6 10  1  0  0  0  0
  7  9  2  0  0  0  0
  7 22  1  0  0  0  0
  8 20  1  0  0  0  0
  8  9  1  0  0  0  0
  9 19  1  0  0  0  0
 10 13  1  0  0  0  0
 10 11  1  0  0  0  0
 10 12  1  0  0  0  0
 14  6  1  0  0  0  0
 14 17  1  0  0  0  0
 15 14  1  0  0  0  0
 16 14  1  0  0  0  0
 18  5  1  0  0  0  0
 21  6  1  0  0  0  0
 23  4  1  0  0  0  0
M  END
