18,25
 OpenBabel05122313053D

 34 36  0  0  1  0  0  0  0  0999 V2000
    3.7599   -0.5033   -1.3021 C   0  0  0  0  0  0  0  0  0  0  0  0
    3.2223   -1.6240   -0.6387 C   0  0  0  0  0  0  0  0  0  0  0  0
    3.7262   -1.9868    0.2686 H   0  0  0  0  0  0  0  0  0  0  0  0
    2.0720   -2.2492   -1.1290 C   0  0  0  0  0  0  0  0  0  0  0  0
    1.6591   -3.1244   -0.6044 H   0  0  0  0  0  0  0  0  0  0  0  0
    1.4359   -1.7605   -2.2891 C   0  0  0  0  0  0  0  0  0  0  0  0
    1.9818   -0.6441   -2.9518 C   0  0  0  0  0  0  0  0  0  0  0  0
    1.4970   -0.2656   -3.8659 H   0  0  0  0  0  0  0  0  0  0  0  0
    3.1402   -0.0220   -2.4708 C   0  0  0  0  0  0  0  0  0  0  0  0
    3.5703    0.8438   -2.9931 H   0  0  0  0  0  0  0  0  0  0  0  0
    4.9678    0.1525   -0.7180 C   0  0  0  0  0  0  0  0  0  0  0  0
    5.4396    1.1606   -1.4913 O   0  0  0  0  0  0  0  0  0  0  0  0
    6.2311    1.5076   -1.0258 H   0  0  0  0  0  0  0  0  0  0  0  0
    5.4787   -0.1622    0.3446 O   0  0  0  0  0  0  0  0  0  0  0  0
    0.2228   -2.4460   -2.8744 C   0  0  0  0  0  0  0  0  0  0  0  0
   -0.1948   -1.8283   -3.6976 H   0  0  0  0  0  0  0  0  0  0  0  0
    0.5088   -3.4231   -3.3159 H   0  0  0  0  0  0  0  0  0  0  0  0
   -1.2129   -1.8282   -0.9902 N   0  0  0  0  0  2  0  0  0  0  0  0
   -0.8456   -2.7304   -1.9146 N   0  0  0  0  0  0  0  0  0  0  0  0
   -1.7409   -3.7629   -1.9929 C   0  0  0  0  0  3  0  0  0  0  0  0
   -1.6038   -4.5834   -2.7060 H   0  0  0  0  0  0  0  0  0  0  0  0
   -2.7365   -3.5143   -1.0558 C   0  0  0  0  0  0  0  0  0  0  0  0
   -3.5989   -4.1486   -0.8303 H   0  0  0  0  0  0  0  0  0  0  0  0
   -2.3595   -2.2881   -0.4433 C   0  0  0  0  0  0  0  0  0  0  0  0
   -2.2740   -0.5388    1.2071 N   0  0  0  0  0  2  0  0  0  0  0  0
   -3.0065   -1.5261    0.6363 C   0  0  1  0  0  3  0  0  0  0  0  0
   -4.3255   -1.7978    1.0491 C   0  0  0  0  0  0  0  0  0  0  0  0
   -4.9096   -2.5842    0.5522 H   0  0  0  0  0  0  0  0  0  0  0  0
   -4.8873   -1.0306    2.0749 C   0  0  0  0  0  0  0  0  0  0  0  0
   -5.9179   -1.2234    2.4076 H   0  0  0  0  0  0  0  0  0  0  0  0
   -4.1232   -0.0105    2.6607 C   0  0  0  0  0  0  0  0  0  0  0  0
   -4.5245    0.6187    3.4675 H   0  0  0  0  0  0  0  0  0  0  0  0
   -2.8201    0.1983    2.1881 C   0  0  0  0  0  0  0  0  0  0  0  0
   -2.1829    0.9900    2.6136 H   0  0  0  0  0  0  0  0  0  0  0  0
  1 11  1  0  0  0  0
  1  2  1  0  0  0  0
  2  3  1  0  0  0  0
  4  2  2  0  0  0  0
  4  5  1  0  0  0  0
  6  4  1  0  0  0  0
  7  9  1  0  0  0  0
  7  6  2  0  0  0  0
  8  7  1  0  0  0  0
  9  1  2  0  0  0  0
 10  9  1  0  0  0  0
 11 14  2  0  0  0  0
 12 13  1  0  0  0  0
 12 11  1  0  0  0  0
 15  6  1  0  0  0  0
 15 19  1  0  0  0  0
 16 15  1  0  0  0  0
 17 15  1  0  0  0  0
 18 24  1  0  0  0  0
 19 18  1  0  0  0  0
 20 19  1  0  0  0  0
 20 22  1  0  0  0  0
 21 20  1  0  0  0  0
 22 23  1  0  0  0  0
 22 24  2  0  0  0  0
 25 33  1  0  0  0  0
 26 24  1  6  0  0  0
 26 27  1  0  0  0  0
 26 25  1  0  0  0  0
 27 29  2  0  0  0  0
 28 27  1  0  0  0  0
 29 30  1  0  0  0  0
 29 31  1  0  0  0  0
 31 32  1  0  0  0  0
 33 34  1  0  0  0  0
 33 31  2  0  0  0  0
M  END
