7,15
 OpenBabel05122313053D

 32 34  0  0  1  0  0  0  0  0999 V2000
    1.3868    0.8413    0.9847 C   0  0  2  0  0  0  0  0  0  0  0  0
    2.1940    1.4353    2.1355 C   0  0  0  0  0  0  0  0  0  0  0  0
    3.1893    1.7921    1.8064 H   0  0  0  0  0  0  0  0  0  0  0  0
    2.3161    0.6538    2.9073 H   0  0  0  0  0  0  0  0  0  0  0  0
    1.6304    2.2744    2.5808 H   0  0  0  0  0  0  0  0  0  0  0  0
    2.1209   -0.2816    0.3753 N   0  0  0  0  0  0  0  0  0  0  0  0
    1.4691   -1.0442   -0.5323 N   0  0  0  0  0  2  0  0  0  0  0  0
    2.2770   -2.0612   -0.8568 C   0  0  0  0  0  3  0  0  0  0  0  0
    1.9256   -2.8149   -1.5697 H   0  0  0  0  0  0  0  0  0  0  0  0
    3.4910   -1.9451   -0.1420 C   0  0  0  0  0  0  0  0  0  0  0  0
    4.3543   -2.6161   -0.1802 H   0  0  0  0  0  0  0  0  0  0  0  0
    3.3544   -0.8034    0.6411 C   0  0  0  0  0  0  0  0  0  0  0  0
    4.0283   -0.3522    1.3733 H   0  0  0  0  0  0  0  0  0  0  0  0
    1.1600    1.8386   -0.0811 N   0  0  0  0  0  0  0  0  0  0  0  0
    0.3514    1.4802   -1.1084 N   0  0  0  0  0  2  0  0  0  0  0  0
    0.2116    2.5535   -1.8970 C   0  0  0  0  0  3  0  0  0  0  0  0
   -0.4339    2.4835   -2.7796 H   0  0  0  0  0  0  0  0  0  0  0  0
    0.9557    3.6335   -1.3668 C   0  0  0  0  0  0  0  0  0  0  0  0
    1.0461    4.6450   -1.7741 H   0  0  0  0  0  0  0  0  0  0  0  0
    1.5471    3.1436   -0.2045 C   0  0  0  0  0  0  0  0  0  0  0  0
    2.1976    3.6243    0.5316 H   0  0  0  0  0  0  0  0  0  0  0  0
   -0.0013    0.3727    1.4710 C   0  0  0  0  0  0  0  0  0  0  0  0
   -0.1420   -1.0211    2.0236 C   0  0  0  0  0  0  0  0  0  0  0  0
   -1.5265   -1.4954    2.2520 C   0  0  0  0  0  0  0  0  0  0  0  0
   -1.6323   -2.5710    2.4554 H   0  0  0  0  0  0  0  0  0  0  0  0
   -2.5645   -0.6258    2.3064 C   0  0  0  0  0  0  0  0  0  0  0  0
   -3.5926   -0.9437    2.5366 H   0  0  0  0  0  0  0  0  0  0  0  0
   -2.3687    0.8282    2.0821 C   0  0  0  0  0  0  0  0  0  0  0  0
   -1.0222    1.2606    1.6433 C   0  0  0  0  0  0  0  0  0  0  0  0
   -0.9405    2.3224    1.3612 H   0  0  0  0  0  0  0  0  0  0  0  0
    0.8428   -1.6901    2.3386 O   0  0  0  0  0  0  0  0  0  0  0  0
   -3.2840    1.6420    2.2266 O   0  0  0  0  0  0  0  0  0  0  0  0
  1 22  1  0  0  0  0
  1  2  1  1  0  0  0
  2  5  1  0  0  0  0
  2  4  1  0  0  0  0
  3  2  1  0  0  0  0
  6 12  1  0  0  0  0
  6  1  1  0  0  0  0
  7  6  1  0  0  0  0
  8  7  1  0  0  0  0
  8 10  1  0  0  0  0
  9  8  1  0  0  0  0
 10 12  2  0  0  0  0
 11 10  1  0  0  0  0
 12 13  1  0  0  0  0
 14  1  1  0  0  0  0
 15 14  1  0  0  0  0
 16 18  1  0  0  0  0
 16 15  1  0  0  0  0
 17 16  1  0  0  0  0
 18 20  2  0  0  0  0
 19 18  1  0  0  0  0
 20 14  1  0  0  0  0
 20 21  1  0  0  0  0
 22 29  2  0  0  0  0
 22 23  1  0  0  0  0
 23 24  1  0  0  0  0
 23 31  2  0  0  0  0
 24 26  2  0  0  0  0
 24 25  1  0  0  0  0
 26 27  1  0  0  0  0
 28 32  2  0  0  0  0
 28 26  1  0  0  0  0
 29 28  1  0  0  0  0
 30 29  1  0  0  0  0
M  END
