1,2
 OpenBabel05122313053D

 26 28  0  0  0  0  0  0  0  0999 V2000
   -1.3856    1.0457    0.0893 N   0  0  0  0  0  2  0  0  0  0  0  0
    0.8756   -0.7548    0.6657 N   0  0  0  0  0  2  0  0  0  0  0  0
   -2.6160    1.5095    0.4276 C   0  0  0  0  0  3  0  0  0  0  0  0
   -2.8652    2.8359    0.7798 C   0  0  0  0  0  0  0  0  0  0  0  0
   -1.7938    3.7391    0.7935 C   0  0  0  0  0  0  0  0  0  0  0  0
   -0.5274    3.2680    0.4403 C   0  0  0  0  0  0  0  0  0  0  0  0
   -0.3319    1.9164    0.0709 C   0  0  0  0  0  0  0  0  0  0  0  0
    1.0422    1.4847   -0.3018 C   0  0  0  0  0  0  0  0  0  0  0  0
    1.8511    2.4002   -0.9882 C   0  0  0  0  0  0  0  0  0  0  0  0
    3.2310    2.1840   -1.2058 C   0  0  0  0  0  0  0  0  0  0  0  0
    3.8436    1.0580   -0.6807 C   0  0  0  0  0  3  0  0  0  0  0  0
    3.0710    0.0819    0.0073 C   0  0  0  0  0  0  0  0  0  0  0  0
    3.6628   -1.0787    0.5826 C   0  0  0  0  0  0  0  0  0  0  0  0
    2.8640   -2.0100    1.2209 C   0  0  0  0  0  0  0  0  0  0  0  0
    1.4607   -1.8251    1.2072 C   0  0  0  0  0  0  0  0  0  0  0  0
    1.6432    0.2478    0.1343 C   0  0  0  0  0  0  0  0  0  0  0  0
   -3.4241    0.7667    0.4072 H   0  0  0  0  0  0  0  0  0  0  0  0
   -3.8857    3.1413    1.0505 H   0  0  0  0  0  0  0  0  0  0  0  0
   -1.9370    4.7895    1.0868 H   0  0  0  0  0  0  0  0  0  0  0  0
    0.3404    3.9395    0.4746 H   0  0  0  0  0  0  0  0  0  0  0  0
    1.3942    3.3234   -1.3732 H   0  0  0  0  0  0  0  0  0  0  0  0
    3.8142    2.9272   -1.7688 H   0  0  0  0  0  0  0  0  0  0  0  0
    4.9265    0.8954   -0.7925 H   0  0  0  0  0  0  0  0  0  0  0  0
    4.7528   -1.2153    0.5068 H   0  0  0  0  0  0  0  0  0  0  0  0
    3.2864   -2.9109    1.6878 H   0  0  0  0  0  0  0  0  0  0  0  0
    0.7774   -2.6077    1.5717 H   0  0  0  0  0  0  0  0  0  0  0  0
  1  3  1  0  0  0  0
  2 15  1  0  0  0  0
  3  4  1  0  0  0  0
  4  5  2  0  0  0  0
  4 18  1  0  0  0  0
  5 19  1  0  0  0  0
  6 20  1  0  0  0  0
  6  5  1  0  0  0  0
  7  1  1  0  0  0  0
  7  6  2  0  0  0  0
  8  7  1  0  0  0  0
  8 16  2  0  0  0  0
  9  8  1  0  0  0  0
 10  9  2  0  0  0  0
 10 11  1  0  0  0  0
 11 12  1  0  0  0  0
 12 16  1  0  0  0  0
 12 13  2  0  0  0  0
 13 14  1  0  0  0  0
 14 25  1  0  0  0  0
 15 14  2  0  0  0  0
 15 26  1  0  0  0  0
 16  2  1  0  0  0  0
 17  3  1  0  0  0  0
 21  9  1  0  0  0  0
 22 10  1  0  0  0  0
 23 11  1  0  0  0  0
 24 13  1  0  0  0  0
M  END
