3,32
 OpenBabel05122313053D

 42 46  0  0  0  0  0  0  0  0999 V2000
   -7.3988   -0.4114   -0.0637 Br  0  0  0  0  0  0  0  0  0  0  0  0
    7.4141   -0.4832   -0.0223 Br  0  0  0  0  0  0  0  0  0  0  0  0
   -1.3227    0.1852    0.2440 N   0  0  0  0  0  2  0  0  0  0  0  0
   -2.7375    0.0791    0.1872 C   0  0  0  0  0  0  0  0  0  0  0  0
   -3.4459   -0.4505    1.2815 C   0  0  0  0  0  0  0  0  0  0  0  0
   -2.8969   -0.7493    2.1862 H   0  0  0  0  0  0  0  0  0  0  0  0
   -4.8374   -0.5874    1.2121 C   0  0  0  0  0  0  0  0  0  0  0  0
   -5.3995   -0.9870    2.0675 H   0  0  0  0  0  0  0  0  0  0  0  0
   -5.5108   -0.2191    0.0347 C   0  0  0  0  0  0  0  0  0  0  0  0
   -4.8056    0.2759   -1.0752 C   0  0  0  0  0  0  0  0  0  0  0  0
   -5.3406    0.5314   -2.0006 H   0  0  0  0  0  0  0  0  0  0  0  0
   -3.4156    0.4268   -0.9978 C   0  0  0  0  0  0  0  0  0  0  0  0
   -2.8354    0.7771   -1.8635 H   0  0  0  0  0  0  0  0  0  0  0  0
   -0.7167    1.3464    0.1581 C   0  0  0  0  0  0  0  0  0  0  0  0
   -1.1475    2.7498    0.1333 C   0  0  0  0  0  0  0  0  0  0  0  0
    0.0604    3.5154    0.0607 C   0  0  0  0  0  0  0  0  0  0  0  0
    1.2408    2.7057    0.0461 C   0  0  0  0  0  0  0  0  0  0  0  0
    2.4840    3.3290   -0.0462 C   0  0  0  0  0  0  0  0  0  0  0  0
    3.4163    2.7485   -0.0652 H   0  0  0  0  0  0  0  0  0  0  0  0
    2.5266    4.7507   -0.1135 C   0  0  0  0  0  0  0  0  0  0  0  0
    3.5080    5.2424   -0.1882 H   0  0  0  0  0  0  0  0  0  0  0  0
    1.3749    5.5378   -0.0829 C   0  0  0  0  0  0  0  0  0  0  0  0
    1.4556    6.6346   -0.1301 H   0  0  0  0  0  0  0  0  0  0  0  0
    0.0852    4.9302    0.0077 C   0  0  0  0  0  0  0  0  0  0  0  0
   -1.1820    5.5879    0.0499 C   0  0  0  0  0  0  0  0  0  0  0  0
   -1.2244    6.6873    0.0124 H   0  0  0  0  0  0  0  0  0  0  0  0
   -2.3605    4.8458    0.1369 C   0  0  0  0  0  0  0  0  0  0  0  0
   -3.3243    5.3755    0.1703 H   0  0  0  0  0  0  0  0  0  0  0  0
   -2.3677    3.4225    0.1756 C   0  0  0  0  0  0  0  0  0  0  0  0
   -3.3202    2.8785    0.2311 H   0  0  0  0  0  0  0  0  0  0  0  0
    0.7617    1.3200    0.1201 C   0  0  0  0  0  0  0  0  0  0  0  0
    1.3328    0.1394    0.1500 N   0  0  0  0  0  2  0  0  0  0  0  0
    2.7504    0.0120    0.1232 C   0  0  0  0  0  0  0  0  0  0  0  0
    3.3647   -0.4674   -1.0497 C   0  0  0  0  0  0  0  0  0  0  0  0
    2.7296   -0.7154   -1.9143 H   0  0  0  0  0  0  0  0  0  0  0  0
    4.7568   -0.6072   -1.0955 C   0  0  0  0  0  0  0  0  0  0  0  0
    5.2465   -0.9721   -2.0091 H   0  0  0  0  0  0  0  0  0  0  0  0
    5.5243   -0.2850    0.0372 C   0  0  0  0  0  0  0  0  0  0  0  0
    4.9146    0.1741    1.2165 C   0  0  0  0  0  0  0  0  0  0  0  0
    5.5253    0.4063    2.1001 H   0  0  0  0  0  0  0  0  0  0  0  0
    3.5218    0.3256    1.2567 C   0  0  0  0  0  0  0  0  0  0  0  0
    3.0254    0.6767    2.1730 H   0  0  0  0  0  0  0  0  0  0  0  0
  1  9  1  0  0  0  0
  2 38  1  0  0  0  0
  4  3  1  0  0  0  0
  4  5  1  0  0  0  0
  5  6  1  0  0  0  0
  7  5  2  0  0  0  0
  7  8  1  0  0  0  0
  9  7  1  0  0  0  0
 10 12  1  0  0  0  0
 10  9  2  0  0  0  0
 11 10  1  0  0  0  0
 12  4  2  0  0  0  0
 13 12  1  0  0  0  0
 14  3  1  0  0  0  0
 15 14  1  0  0  0  0
 15 29  1  0  0  0  0
 16 15  2  0  0  0  0
 17 16  1  0  0  0  0
 17 31  1  0  0  0  0
 18 17  2  0  0  0  0
 19 18  1  0  0  0  0
 20 22  2  0  0  0  0
 20 18  1  0  0  0  0
 21 20  1  0  0  0  0
 22 24  1  0  0  0  0
 23 22  1  0  0  0  0
 24 25  2  0  0  0  0
 24 16  1  0  0  0  0
 25 27  1  0  0  0  0
 26 25  1  0  0  0  0
 27 28  1  0  0  0  0
 27 29  2  0  0  0  0
 29 30  1  0  0  0  0
 31 32  1  0  0  0  0
 31 14  2  0  0  0  0
 33 32  1  0  0  0  0
 33 41  1  0  0  0  0
 34 33  2  0  0  0  0
 35 34  1  0  0  0  0
 36 34  1  0  0  0  0
 36 38  2  0  0  0  0
 37 36  1  0  0  0  0
 38 39  1  0  0  0  0
 39 41  2  0  0  0  0
 39 40  1  0  0  0  0
 41 42  1  0  0  0  0
M  END
