1,2
 OpenBabel05122313053D

 50 51  0  0  0  0  0  0  0  0999 V2000
   -0.8838    1.4121    1.1934 N   0  0  0  0  0  2  0  0  0  0  0  0
    1.4471    0.2145    0.5663 N   0  0  0  0  0  2  0  0  0  0  0  0
   -4.2975    0.4251   -1.3309 C   0  0  0  0  0  0  0  0  0  0  0  0
   -4.2493   -0.3576   -2.0961 H   0  0  0  0  0  0  0  0  0  0  0  0
   -6.7272    0.4832   -1.4550 N   0  0  0  0  0  0  0  0  0  0  0  0
   -3.1202    1.8320    0.2873 C   0  0  0  0  0  0  0  0  0  0  0  0
   -3.1234    0.8331   -0.7214 C   0  0  0  0  0  0  0  0  0  0  0  0
   -2.1695    0.3736   -1.0213 H   0  0  0  0  0  0  0  0  0  0  0  0
    0.3061    1.9384    1.8509 C   0  0  0  0  0  0  0  0  0  0  0  0
    0.4301    1.4308    2.8321 H   0  0  0  0  0  0  0  0  0  0  0  0
    0.2344    3.0347    2.0303 H   0  0  0  0  0  0  0  0  0  0  0  0
   -1.9353    2.1697    1.0373 C   0  0  0  0  0  3  0  0  0  0  0  0
   -1.9298    3.1619    1.5404 H   0  0  0  0  0  0  0  0  0  0  0  0
    1.5163    1.6186    0.9668 C   0  0  0  0  0  0  0  0  0  0  0  0
    1.4894    2.2643    0.0600 H   0  0  0  0  0  0  0  0  0  0  0  0
    2.4603    1.8341    1.5117 H   0  0  0  0  0  0  0  0  0  0  0  0
   -5.5551    0.9850   -0.9457 C   0  0  0  0  0  0  0  0  0  0  0  0
    3.8437   -0.1056   -0.1274 C   0  0  0  0  0  0  0  0  0  0  0  0
   -4.3470    2.4804    0.5712 C   0  0  0  0  0  0  0  0  0  0  0  0
   -4.3692    3.2916    1.3168 H   0  0  0  0  0  0  0  0  0  0  0  0
    7.9767    0.5681   -0.9016 N   0  0  0  0  0  0  0  0  0  0  0  0
    2.4621   -0.4769    0.1294 C   0  0  0  0  0  3  0  0  0  0  0  0
    2.2012   -1.5406   -0.0491 H   0  0  0  0  0  0  0  0  0  0  0  0
    4.3728    1.2076   -0.2573 C   0  0  0  0  0  0  0  0  0  0  0  0
    3.7165    2.0833   -0.1907 H   0  0  0  0  0  0  0  0  0  0  0  0
   -5.5403    2.0720   -0.0203 C   0  0  0  0  0  0  0  0  0  0  0  0
   -6.4740    2.5728    0.2650 H   0  0  0  0  0  0  0  0  0  0  0  0
    6.6402    0.3481   -0.6617 C   0  0  0  0  0  0  0  0  0  0  0  0
    5.7217    1.4308   -0.5202 C   0  0  0  0  0  0  0  0  0  0  0  0
    6.0684    2.4662   -0.6270 H   0  0  0  0  0  0  0  0  0  0  0  0
   -7.9932    1.1052   -1.1220 C   0  0  0  0  0  0  0  0  0  0  0  0
   -8.2305    1.0268   -0.0360 H   0  0  0  0  0  0  0  0  0  0  0  0
   -8.8041    0.6097   -1.6853 H   0  0  0  0  0  0  0  0  0  0  0  0
   -8.0040    2.1839   -1.3918 H   0  0  0  0  0  0  0  0  0  0  0  0
   -6.7109   -0.7451   -2.2365 C   0  0  0  0  0  0  0  0  0  0  0  0
   -6.2985   -0.5908   -3.2595 H   0  0  0  0  0  0  0  0  0  0  0  0
   -7.7440   -1.1232   -2.3401 H   0  0  0  0  0  0  0  0  0  0  0  0
   -6.1020   -1.5270   -1.7349 H   0  0  0  0  0  0  0  0  0  0  0  0
    4.7591   -1.1785   -0.3090 C   0  0  0  0  0  0  0  0  0  0  0  0
    4.3791   -2.2098   -0.2419 H   0  0  0  0  0  0  0  0  0  0  0  0
    6.1104   -0.9729   -0.5571 C   0  0  0  0  0  0  0  0  0  0  0  0
    6.7639   -1.8456   -0.6791 H   0  0  0  0  0  0  0  0  0  0  0  0
    8.8798   -0.5554   -1.0707 C   0  0  0  0  0  0  0  0  0  0  0  0
    8.8972   -1.2114   -0.1726 H   0  0  0  0  0  0  0  0  0  0  0  0
    9.9052   -0.1787   -1.2338 H   0  0  0  0  0  0  0  0  0  0  0  0
    8.6045   -1.1873   -1.9447 H   0  0  0  0  0  0  0  0  0  0  0  0
    8.4807    1.9226   -1.0294 C   0  0  0  0  0  0  0  0  0  0  0  0
    8.0208    2.4634   -1.8871 H   0  0  0  0  0  0  0  0  0  0  0  0
    9.5724    1.8925   -1.1941 H   0  0  0  0  0  0  0  0  0  0  0  0
    8.2920    2.5229   -0.1121 H   0  0  0  0  0  0  0  0  0  0  0  0
  1  9  1  0  0  0  0
  2 14  1  0  0  0  0
  3 17  2  0  0  0  0
  3  7  1  0  0  0  0
  4  3  1  0  0  0  0
  5 31  1  0  0  0  0
  5 17  1  0  0  0  0
  6 19  1  0  0  0  0
  6 12  1  0  0  0  0
  7  6  2  0  0  0  0
  8  7  1  0  0  0  0
  9 11  1  0  0  0  0
  9 10  1  0  0  0  0
 12  1  1  0  0  0  0
 12 13  1  0  0  0  0
 14 16  1  0  0  0  0
 14  9  1  0  0  0  0
 15 14  1  0  0  0  0
 17 26  1  0  0  0  0
 18 22  1  0  0  0  0
 19 20  1  0  0  0  0
 21 28  1  0  0  0  0
 22  2  1  0  0  0  0
 23 22  1  0  0  0  0
 24 25  1  0  0  0  0
 24 18  1  0  0  0  0
 26 27  1  0  0  0  0
 26 19  2  0  0  0  0
 28 41  2  0  0  0  0
 28 29  1  0  0  0  0
 29 24  2  0  0  0  0
 30 29  1  0  0  0  0
 31 32  1  0  0  0  0
 33 31  1  0  0  0  0
 34 31  1  0  0  0  0
 35 38  1  0  0  0  0
 35  5  1  0  0  0  0
 36 35  1  0  0  0  0
 37 35  1  0  0  0  0
 39 40  1  0  0  0  0
 39 18  2  0  0  0  0
 41 39  1  0  0  0  0
 42 41  1  0  0  0  0
 43 21  1  0  0  0  0
 43 44  1  0  0  0  0
 45 43  1  0  0  0  0
 46 43  1  0  0  0  0
 47 21  1  0  0  0  0
 47 50  1  0  0  0  0
 48 47  1  0  0  0  0
 49 47  1  0  0  0  0
M  END
