1,2
 OpenBabel05122313053D

 25 26  0  0  0  0  0  0  0  0999 V2000
    0.2343    2.0414   -0.0163 N   0  0  0  0  0  2  0  0  0  0  0  0
    1.9947    0.1246   -0.1114 N   0  0  0  0  0  2  0  0  0  0  0  0
    3.0099   -0.7387   -0.1647 N   0  0  0  0  0  0  0  0  0  0  0  0
    3.8420    1.3803   -0.2105 N   0  0  0  0  0  2  0  0  0  0  0  0
   -0.7751    2.9325    0.0372 C   0  0  0  0  0  0  0  0  0  0  0  0
   -1.7936    2.4999    0.0934 H   0  0  0  0  0  0  0  0  0  0  0  0
   -0.5260    4.3106    0.0217 C   0  0  0  0  0  0  0  0  0  0  0  0
   -1.3722    5.0100    0.0664 H   0  0  0  0  0  0  0  0  0  0  0  0
    0.8016    4.7662   -0.0509 C   0  0  0  0  0  0  0  0  0  0  0  0
    1.0205    5.8446   -0.0643 H   0  0  0  0  0  0  0  0  0  0  0  0
    1.8456    3.8375   -0.1062 C   0  0  0  0  0  0  0  0  0  0  0  0
    2.9026    4.1318   -0.1639 H   0  0  0  0  0  0  0  0  0  0  0  0
    1.5369    2.4669   -0.0877 C   0  0  0  0  0  0  0  0  0  0  0  0
    2.5021    1.3888   -0.1386 C   0  0  0  0  0  0  0  0  0  0  0  0
    4.1173    0.0477   -0.2258 C   0  0  0  0  0  0  0  0  0  0  0  0
    5.5188   -0.5028   -0.2967 C   0  0  0  0  0  0  0  0  0  0  0  0
    5.9363   -0.1661   -1.2736 H   0  0  0  0  0  0  0  0  0  0  0  0
    5.5394   -2.0336   -0.2653 C   0  0  0  0  0  0  0  0  0  0  0  0
    5.1181   -2.4127    0.6882 H   0  0  0  0  0  0  0  0  0  0  0  0
    4.9363   -2.4655   -1.0876 H   0  0  0  0  0  0  0  0  0  0  0  0
    6.5780   -2.4096   -0.3571 H   0  0  0  0  0  0  0  0  0  0  0  0
    6.3920    0.1147    0.8087 C   0  0  0  0  0  0  0  0  0  0  0  0
    6.3363    1.2198    0.7761 H   0  0  0  0  0  0  0  0  0  0  0  0
    6.0455   -0.2148    1.8105 H   0  0  0  0  0  0  0  0  0  0  0  0
    7.4513   -0.1923    0.6931 H   0  0  0  0  0  0  0  0  0  0  0  0
  1  5  1  0  0  0  0
  3  2  1  0  0  0  0
  4 14  1  0  0  0  0
  5  6  1  0  0  0  0
  7  5  2  0  0  0  0
  7  8  1  0  0  0  0
  9  7  1  0  0  0  0
 10  9  1  0  0  0  0
 11 13  1  0  0  0  0
 11  9  2  0  0  0  0
 12 11  1  0  0  0  0
 13  1  1  0  0  0  0
 14  2  1  0  0  0  0
 14 13  2  0  0  0  0
 15  4  1  0  0  0  0
 15  3  2  0  0  0  0
 16 18  1  0  0  0  0
 16 15  1  0  0  0  0
 16 22  1  0  0  0  0
 17 16  1  0  0  0  0
 18 19  1  0  0  0  0
 20 18  1  0  0  0  0
 21 18  1  0  0  0  0
 22 24  1  0  0  0  0
 23 22  1  0  0  0  0
 25 22  1  0  0  0  0
M  END
