3,4
 OpenBabel05122313053D

 17 17  0  0  1  0  0  0  0  0999 V2000
   -3.7880    0.5829    0.0005 S   0  0  0  0  0  0  0  0  0  0  0  0
    2.1829    2.0570    0.0004 O   0  0  0  0  0  0  0  0  0  0  0  0
    0.9531    1.4973    0.0002 N   0  0  0  0  0  2  0  0  0  0  0  0
   -1.2431    0.0847   -0.0005 N   0  0  0  0  0  2  0  0  0  0  0  0
   -2.5563   -1.8742    0.0005 N   0  0  0  0  0  0  0  0  0  0  0  0
   -1.6636   -2.4370   -0.0002 H   0  0  0  0  0  0  0  0  0  0  0  0
   -3.4741   -2.3115   -0.0018 H   0  0  0  0  0  0  0  0  0  0  0  0
    2.2586    3.4786   -0.0008 C   0  0  0  0  0  0  0  0  0  0  0  0
    3.3421    3.6919   -0.0010 H   0  0  0  0  0  0  0  0  0  0  0  0
    1.7925    3.9166    0.9097 H   0  0  0  0  0  0  0  0  0  0  0  0
    1.7925    3.9150   -0.9120 H   0  0  0  0  0  0  0  0  0  0  0  0
   -0.1474    2.2199   -0.0002 C   0  0  0  0  0  3  0  0  0  0  0  0
   -0.1473    3.3177   -0.0004 H   0  0  0  0  0  0  0  0  0  0  0  0
   -1.3799    1.4697   -0.0003 C   0  0  0  0  0  0  0  0  0  0  0  0
   -2.6800    1.9285    0.0001 C   0  0  0  0  0  0  0  0  0  0  0  0
   -3.0440    2.9608    0.0000 H   0  0  0  0  0  0  0  0  0  0  0  0
   -2.4169   -0.5474   -0.0000 C   0  0  1  0  0  3  0  0  0  0  0  0
  3  2  1  0  0  0  0
  4 14  1  0  0  0  0
  4 17  1  0  0  0  0
  6  5  1  0  0  0  0
  7  5  1  0  0  0  0
  8  2  1  0  0  0  0
  8 10  1  0  0  0  0
  9  8  1  0  0  0  0
 11  8  1  0  0  0  0
 12  3  1  0  0  0  0
 13 12  1  0  0  0  0
 14 12  1  0  0  0  0
 14 15  2  0  0  0  0
 15  1  1  0  0  0  0
 16 15  1  0  0  0  0
 17  5  1  1  0  0  0
 17  1  1  0  0  0  0
M  END
