1,2
 OpenBabel05122313053D

 38 37  0  0  0  0  0  0  0  0999 V2000
    0.8770    2.0774   -0.7227 N   0  0  0  0  0  0  0  0  0  0  0  0
    1.5880   -0.6492   -0.7984 N   0  0  0  0  0  0  0  0  0  0  0  0
    1.9687   -0.3237    2.3345 N   0  0  0  0  0  0  0  0  0  0  0  0
    2.1919    1.6822   -1.2828 C   0  0  0  0  0  0  0  0  0  0  0  0
    2.6470    0.3838   -0.6437 C   0  0  0  0  0  0  0  0  0  0  0  0
    1.7243   -1.7267    0.2229 C   0  0  0  0  0  0  0  0  0  0  0  0
    1.2262   -1.3630    1.6221 C   0  0  0  0  0  0  0  0  0  0  0  0
    0.1850    3.0283   -1.6142 C   0  0  0  0  0  0  0  0  0  0  0  0
    1.0088    2.6554    0.6316 C   0  0  0  0  0  0  0  0  0  0  0  0
    1.5291   -1.2250   -2.1774 C   0  0  0  0  0  0  0  0  0  0  0  0
    2.7305   -2.0618   -2.6149 C   0  0  0  0  0  0  0  0  0  0  0  0
    1.1771    0.2213    3.4310 C   0  0  0  0  0  0  0  0  0  0  0  0
    3.2726   -0.7776    2.7925 C   0  0  0  0  0  0  0  0  0  0  0  0
    2.0681    1.5634   -2.3778 H   0  0  0  0  0  0  0  0  0  0  0  0
    2.9480    2.4867   -1.1290 H   0  0  0  0  0  0  0  0  0  0  0  0
    0.0671    2.5789   -2.6183 H   0  0  0  0  0  0  0  0  0  0  0  0
    0.7618    3.9773   -1.7000 H   0  0  0  0  0  0  0  0  0  0  0  0
   -0.8204    3.2264   -1.2009 H   0  0  0  0  0  0  0  0  0  0  0  0
    0.5957   -1.8211   -2.2086 H   0  0  0  0  0  0  0  0  0  0  0  0
    1.3777   -0.3803   -2.8793 H   0  0  0  0  0  0  0  0  0  0  0  0
    2.5704   -2.4017   -3.6571 H   0  0  0  0  0  0  0  0  0  0  0  0
    2.8602   -2.9689   -1.9925 H   0  0  0  0  0  0  0  0  0  0  0  0
    3.6835   -1.4943   -2.6005 H   0  0  0  0  0  0  0  0  0  0  0  0
    0.2156    0.6132    3.0431 H   0  0  0  0  0  0  0  0  0  0  0  0
    1.7247    1.0545    3.9164 H   0  0  0  0  0  0  0  0  0  0  0  0
    0.9442   -0.5402    4.2197 H   0  0  0  0  0  0  0  0  0  0  0  0
    2.7859    0.5256    0.4456 H   0  0  0  0  0  0  0  0  0  0  0  0
    3.6147    0.0458   -1.0760 H   0  0  0  0  0  0  0  0  0  0  0  0
    2.7772   -2.0874    0.2421 H   0  0  0  0  0  0  0  0  0  0  0  0
    1.0898   -2.5655   -0.1204 H   0  0  0  0  0  0  0  0  0  0  0  0
    1.1968   -2.3171    2.2146 H   0  0  0  0  0  0  0  0  0  0  0  0
    0.1742   -1.0282    1.5160 H   0  0  0  0  0  0  0  0  0  0  0  0
    1.5198    1.9343    1.2973 H   0  0  0  0  0  0  0  0  0  0  0  0
    1.5843    3.6093    0.5958 H   0  0  0  0  0  0  0  0  0  0  0  0
   -0.0067    2.8435    1.0256 H   0  0  0  0  0  0  0  0  0  0  0  0
    3.8914   -1.1221    1.9392 H   0  0  0  0  0  0  0  0  0  0  0  0
    3.2051   -1.6247    3.5248 H   0  0  0  0  0  0  0  0  0  0  0  0
    3.8144    0.0557    3.2836 H   0  0  0  0  0  0  0  0  0  0  0  0
  1  9  1  0  0  0  0
  2  5  1  0  0  0  0
  2  6  1  0  0  0  0
  3 13  1  0  0  0  0
  3 12  1  0  0  0  0
  4 15  1  0  0  0  0
  4  1  1  0  0  0  0
  4  5  1  0  0  0  0
  5 27  1  0  0  0  0
  6 29  1  0  0  0  0
  6  7  1  0  0  0  0
  7 31  1  0  0  0  0
  7  3  1  0  0  0  0
  8 18  1  0  0  0  0
  8  1  1  0  0  0  0
  9 35  1  0  0  0  0
  9 33  1  0  0  0  0
 10  2  1  0  0  0  0
 11 23  1  0  0  0  0
 11 10  1  0  0  0  0
 11 22  1  0  0  0  0
 12 25  1  0  0  0  0
 12 26  1  0  0  0  0
 13 38  1  0  0  0  0
 13 37  1  0  0  0  0
 14  4  1  0  0  0  0
 16  8  1  0  0  0  0
 17  8  1  0  0  0  0
 19 10  1  0  0  0  0
 20 10  1  0  0  0  0
 21 11  1  0  0  0  0
 24 12  1  0  0  0  0
 28  5  1  0  0  0  0
 30  6  1  0  0  0  0
 32  7  1  0  0  0  0
 34  9  1  0  0  0  0
 36 13  1  0  0  0  0
M  END
