2,3
 OpenBabel05122313053D

 53 54  0  0  0  0  0  0  0  0999 V2000
    0.0488   -2.4455    1.7232 O   0  0  0  0  0  0  0  0  0  0  0  0
    1.1409   -0.5580    0.7838 N   0  0  0  0  0  2  0  0  0  0  0  0
   -1.0204   -0.6713    0.5578 N   0  0  0  0  0  2  0  0  0  0  0  0
    2.5089   -0.8728    0.7993 C   0  0  0  0  0  0  0  0  0  0  0  0
    3.0300   -1.9346    0.0103 C   0  0  0  0  0  0  0  0  0  0  0  0
    4.4198   -2.1461   -0.0003 C   0  0  0  0  0  0  0  0  0  0  0  0
    5.3082   -1.3373    0.7333 C   0  0  0  0  0  0  0  0  0  0  0  0
    4.7660   -0.2892    1.5006 C   0  0  0  0  0  0  0  0  0  0  0  0
    3.3827   -0.0468    1.5550 C   0  0  0  0  0  0  0  0  0  0  0  0
   -2.3959   -0.9679    0.5648 C   0  0  0  0  0  0  0  0  0  0  0  0
   -3.2535   -0.1831    1.3921 C   0  0  0  0  0  0  0  0  0  0  0  0
   -4.6376   -0.4229    1.3474 C   0  0  0  0  0  0  0  0  0  0  0  0
   -5.1699   -1.4192    0.5163 C   0  0  0  0  0  0  0  0  0  0  0  0
   -4.3200   -2.1842   -0.2909 C   0  0  0  0  0  0  0  0  0  0  0  0
   -2.9281   -1.9712   -0.2931 C   0  0  0  0  0  0  0  0  0  0  0  0
    0.0548   -1.3894    1.1103 C   0  0  0  0  0  0  0  0  0  0  0  0
    2.1055   -2.7937   -0.8093 C   0  0  0  0  0  0  0  0  0  0  0  0
    6.7922   -1.6095    0.7245 C   0  0  0  0  0  0  0  0  0  0  0  0
    2.8105    1.0466    2.4168 C   0  0  0  0  0  0  0  0  0  0  0  0
   -2.6415    0.8438    2.3340 C   0  0  0  0  0  0  0  0  0  0  0  0
   -2.0566    0.1452    3.5774 C   0  0  0  0  0  0  0  0  0  0  0  0
   -3.5941    1.9735    2.7393 C   0  0  0  0  0  0  0  0  0  0  0  0
   -2.0126   -2.8146   -1.1689 C   0  0  0  0  0  0  0  0  0  0  0  0
   -1.6902   -4.1561   -0.4830 C   0  0  0  0  0  0  0  0  0  0  0  0
   -2.5661   -3.0402   -2.5838 C   0  0  0  0  0  0  0  0  0  0  0  0
    4.8235   -2.9681   -0.6148 H   0  0  0  0  0  0  0  0  0  0  0  0
    5.4413    0.3539    2.0891 H   0  0  0  0  0  0  0  0  0  0  0  0
   -5.3138    0.1708    1.9798 H   0  0  0  0  0  0  0  0  0  0  0  0
   -6.2558   -1.5992    0.4991 H   0  0  0  0  0  0  0  0  0  0  0  0
   -4.7473   -2.9634   -0.9404 H   0  0  0  0  0  0  0  0  0  0  0  0
    1.4233   -2.1669   -1.4231 H   0  0  0  0  0  0  0  0  0  0  0  0
    1.4544   -3.4116   -0.1574 H   0  0  0  0  0  0  0  0  0  0  0  0
    2.6690   -3.4664   -1.4837 H   0  0  0  0  0  0  0  0  0  0  0  0
    7.3785   -0.6926    0.9335 H   0  0  0  0  0  0  0  0  0  0  0  0
    7.1276   -2.0188   -0.2495 H   0  0  0  0  0  0  0  0  0  0  0  0
    7.0679   -2.3563    1.5007 H   0  0  0  0  0  0  0  0  0  0  0  0
    2.1846    1.7446    1.8231 H   0  0  0  0  0  0  0  0  0  0  0  0
    3.6077    1.6233    2.9240 H   0  0  0  0  0  0  0  0  0  0  0  0
    2.1330    0.6250    3.1881 H   0  0  0  0  0  0  0  0  0  0  0  0
   -1.7842    1.2950    1.7850 H   0  0  0  0  0  0  0  0  0  0  0  0
   -1.3666   -0.6746    3.3000 H   0  0  0  0  0  0  0  0  0  0  0  0
   -2.8701   -0.2973    4.1895 H   0  0  0  0  0  0  0  0  0  0  0  0
   -1.5028    0.8671    4.2133 H   0  0  0  0  0  0  0  0  0  0  0  0
   -3.0486    2.7472    3.3175 H   0  0  0  0  0  0  0  0  0  0  0  0
   -4.4170    1.6093    3.3891 H   0  0  0  0  0  0  0  0  0  0  0  0
   -4.0563    2.4638    1.8583 H   0  0  0  0  0  0  0  0  0  0  0  0
   -1.0613   -2.2491   -1.2640 H   0  0  0  0  0  0  0  0  0  0  0  0
   -0.9654   -4.7416   -1.0869 H   0  0  0  0  0  0  0  0  0  0  0  0
   -2.6115   -4.7659   -0.3713 H   0  0  0  0  0  0  0  0  0  0  0  0
   -1.2556   -3.9888    0.5208 H   0  0  0  0  0  0  0  0  0  0  0  0
   -1.8080   -3.5446   -3.2176 H   0  0  0  0  0  0  0  0  0  0  0  0
   -2.8478   -2.0875   -3.0755 H   0  0  0  0  0  0  0  0  0  0  0  0
   -3.4643   -3.6920   -2.5778 H   0  0  0  0  0  0  0  0  0  0  0  0
  2  4  1  0  0  0  0
  2 16  1  0  0  0  0
  3 10  1  0  0  0  0
  3 16  1  0  0  0  0
  4  9  1  0  0  0  0
  5  4  2  0  0  0  0
  6  5  1  0  0  0  0
  6  7  2  0  0  0  0
  7  8  1  0  0  0  0
  8  9  2  0  0  0  0
  8 27  1  0  0  0  0
  9 19  1  0  0  0  0
 10 11  1  0  0  0  0
 11 20  1  0  0  0  0
 12 11  2  0  0  0  0
 12 28  1  0  0  0  0
 13 12  1  0  0  0  0
 14 13  2  0  0  0  0
 15 14  1  0  0  0  0
 15 10  2  0  0  0  0
 16  1  2  0  0  0  0
 17 32  1  0  0  0  0
 17  5  1  0  0  0  0
 18  7  1  0  0  0  0
 18 34  1  0  0  0  0
 18 36  1  0  0  0  0
 19 38  1  0  0  0  0
 19 39  1  0  0  0  0
 20 22  1  0  0  0  0
 20 21  1  0  0  0  0
 21 42  1  0  0  0  0
 21 43  1  0  0  0  0
 22 44  1  0  0  0  0
 22 45  1  0  0  0  0
 23 24  1  0  0  0  0
 23 15  1  0  0  0  0
 24 49  1  0  0  0  0
 24 50  1  0  0  0  0
 25 53  1  0  0  0  0
 25 23  1  0  0  0  0
 26  6  1  0  0  0  0
 29 13  1  0  0  0  0
 30 14  1  0  0  0  0
 31 17  1  0  0  0  0
 33 17  1  0  0  0  0
 35 18  1  0  0  0  0
 37 19  1  0  0  0  0
 40 20  1  0  0  0  0
 41 21  1  0  0  0  0
 46 22  1  0  0  0  0
 47 23  1  0  0  0  0
 48 24  1  0  0  0  0
 51 25  1  0  0  0  0
 52 25  1  0  0  0  0
M  END
