5,8
 OpenBabel05122313053D

 30 30  0  0  0  0  0  0  0  0999 V2000
   -1.6286    0.6164   -1.0443 O   0  0  0  0  0  0  0  0  0  0  0  0
   -4.6018    2.7514    0.9900 C   0  0  0  0  0  0  0  0  0  0  0  0
   -5.3945    3.3002    1.5170 H   0  0  0  0  0  0  0  0  0  0  0  0
   -2.5767    1.3293   -0.3655 C   0  0  0  0  0  0  0  0  0  0  0  0
    1.1605   -2.2634    1.5623 N   0  0  0  0  0  0  0  0  0  0  0  0
    1.1259   -3.2550    1.2825 H   0  0  0  0  0  0  0  0  0  0  0  0
   -3.0501    0.8392    0.8849 C   0  0  0  0  0  0  0  0  0  0  0  0
   -1.5535   -1.1003    1.3188 N   0  0  0  0  0  2  0  0  0  0  0  0
   -2.5518   -0.3251    1.6046 C   0  0  0  0  0  3  0  0  0  0  0  0
   -3.1209   -0.5356    2.5393 H   0  0  0  0  0  0  0  0  0  0  0  0
   -4.0814    1.5748    1.5281 C   0  0  0  0  0  0  0  0  0  0  0  0
   -4.4615    1.2000    2.4911 H   0  0  0  0  0  0  0  0  0  0  0  0
   -3.0908    2.5194   -0.9026 C   0  0  0  0  0  0  0  0  0  0  0  0
   -2.7016    2.8869   -1.8658 H   0  0  0  0  0  0  0  0  0  0  0  0
   -4.0936    3.2285   -0.2303 C   0  0  0  0  0  0  0  0  0  0  0  0
   -4.4837    4.1586   -0.6692 H   0  0  0  0  0  0  0  0  0  0  0  0
   -1.2213   -2.1633    2.2588 C   0  0  0  0  0  0  0  0  0  0  0  0
   -1.3899   -3.1436    1.7555 H   0  0  0  0  0  0  0  0  0  0  0  0
   -1.8802   -2.1414    3.1556 H   0  0  0  0  0  0  0  0  0  0  0  0
    2.5742   -1.8940    1.8346 C   0  0  0  0  0  0  0  0  0  0  0  0
    3.1290   -2.0325    0.8829 H   0  0  0  0  0  0  0  0  0  0  0  0
    2.5785   -0.8035    2.0385 H   0  0  0  0  0  0  0  0  0  0  0  0
    0.2433   -2.0707    2.7026 C   0  0  0  0  0  0  0  0  0  0  0  0
    0.4379   -1.0603    3.1180 H   0  0  0  0  0  0  0  0  0  0  0  0
    0.4189   -2.8086    3.5160 H   0  0  0  0  0  0  0  0  0  0  0  0
    3.2464   -2.6792    2.9567 C   0  0  0  0  0  0  0  0  0  0  0  0
    4.3099   -2.3806    3.0412 H   0  0  0  0  0  0  0  0  0  0  0  0
    3.2236   -3.7729    2.7660 H   0  0  0  0  0  0  0  0  0  0  0  0
    2.7768   -2.4908    3.9427 H   0  0  0  0  0  0  0  0  0  0  0  0
   -1.2585    1.1608   -1.7682 H   0  0  0  0  0  0  0  0  0  0  0  0
  1  4  1  0  0  0  0
  2  3  1  0  0  0  0
  2 11  1  0  0  0  0
  4  7  1  0  0  0  0
  5 20  1  0  0  0  0
  5 23  1  0  0  0  0
  6  5  1  0  0  0  0
  7 11  2  0  0  0  0
  7  9  1  0  0  0  0
  8  9  1  0  0  0  0
  8 17  1  0  0  0  0
  9 10  1  0  0  0  0
 11 12  1  0  0  0  0
 13  4  2  0  0  0  0
 13 15  1  0  0  0  0
 14 13  1  0  0  0  0
 15  2  2  0  0  0  0
 16 15  1  0  0  0  0
 17 23  1  0  0  0  0
 17 19  1  0  0  0  0
 18 17  1  0  0  0  0
 20 22  1  0  0  0  0
 20 26  1  0  0  0  0
 21 20  1  0  0  0  0
 23 24  1  0  0  0  0
 23 25  1  0  0  0  0
 26 27  1  0  0  0  0
 26 29  1  0  0  0  0
 28 26  1  0  0  0  0
 30  1  1  0  0  0  0
M  END
