4,6
 OpenBabel05122313053D

 26 28  0  0  1  0  0  0  0  0999 V2000
   -3.3270   -1.9101    1.4047 S   0  0  0  0  0  0  0  0  0  0  0  0
   -5.4853   -0.5108    0.1077 O   0  0  0  0  0  0  0  0  0  0  0  0
   -3.7823    1.3743   -2.3685 N   0  0  0  0  0  0  0  0  0  0  0  0
   -1.4593    0.9345   -2.0722 N   0  0  0  0  0  2  0  0  0  0  0  0
   -1.3853    1.6206   -2.8357 H   0  0  0  0  0  0  0  0  0  0  0  0
   -1.1778   -1.0997    0.1384 N   0  0  0  0  0  2  0  0  0  0  0  0
   -3.5461    2.3727   -3.2968 N   0  0  0  0  0  0  0  0  0  0  0  0
   -4.0626    2.1851   -4.1671 H   0  0  0  0  0  0  0  0  0  0  0  0
   -3.8509    3.2913   -2.9377 H   0  0  0  0  0  0  0  0  0  0  0  0
   -5.0593    1.0817   -1.7372 C   0  0  0  0  0  0  0  0  0  0  0  0
   -5.7998    0.6531   -2.4482 H   0  0  0  0  0  0  0  0  0  0  0  0
   -5.5133    1.9875   -1.2721 H   0  0  0  0  0  0  0  0  0  0  0  0
   -4.6843    0.0501   -0.6440 C   0  0  0  0  0  0  0  0  0  0  0  0
   -3.2505   -0.0966   -0.6963 C   0  0  0  0  0  0  0  0  0  0  0  0
   -2.7200    0.7458   -1.7388 C   0  0  0  0  0  0  0  0  0  0  0  0
   -2.5105   -0.9469    0.1582 C   0  0  2  0  0  3  0  0  0  0  0  0
   -1.7578   -2.5287    1.9151 C   0  0  0  0  0  0  0  0  0  0  0  0
   -1.4663   -3.4295    2.9503 C   0  0  0  0  0  0  0  0  0  0  0  0
   -2.2699   -3.8571    3.5677 H   0  0  0  0  0  0  0  0  0  0  0  0
   -0.1245   -3.7673    3.1825 C   0  0  0  0  0  0  0  0  0  0  0  0
    0.1238   -4.4690    3.9927 H   0  0  0  0  0  0  0  0  0  0  0  0
    0.9070   -3.2142    2.3942 C   0  0  0  0  0  0  0  0  0  0  0  0
    1.9532   -3.4869    2.5988 H   0  0  0  0  0  0  0  0  0  0  0  0
    0.6215   -2.3179    1.3578 C   0  0  0  0  0  0  0  0  0  0  0  0
    1.4194   -1.8799    0.7406 H   0  0  0  0  0  0  0  0  0  0  0  0
   -0.7227   -1.9722    1.1136 C   0  0  0  0  0  0  0  0  0  0  0  0
  1 17  1  0  0  0  0
  3 15  1  0  0  0  0
  3 10  1  0  0  0  0
  4 15  1  0  0  0  0
  5  4  1  0  0  0  0
  6 16  1  0  0  0  0
  6 26  1  0  0  0  0
  7  9  1  0  0  0  0
  7  3  1  0  0  0  0
  8  7  1  0  0  0  0
 10 12  1  0  0  0  0
 10 13  1  0  0  0  0
 11 10  1  0  0  0  0
 13  2  2  0  0  0  0
 14 13  1  0  0  0  0
 15 14  2  0  0  0  0
 16 14  1  1  0  0  0
 16  1  1  0  0  0  0
 17 18  1  0  0  0  0
 18 20  2  0  0  0  0
 18 19  1  0  0  0  0
 20 21  1  0  0  0  0
 22 23  1  0  0  0  0
 22 20  1  0  0  0  0
 24 22  2  0  0  0  0
 25 24  1  0  0  0  0
 26 24  1  0  0  0  0
 26 17  2  0  0  0  0
M  END
