1,36
 OpenBabel05122313053D

 36 38  0  0  0  0  0  0  0  0999 V2000
    1.0352   -0.4398    2.0029 N   0  0  0  0  0  0  0  0  0  0  0  0
   -4.0377   -0.0973   -0.0029 N   0  0  0  0  0  0  0  0  0  0  0  0
   -1.8886   -1.0095   -0.7810 C   0  0  0  0  0  0  0  0  0  0  0  0
   -1.3853   -1.9142   -1.1714 H   0  0  0  0  0  0  0  0  0  0  0  0
   -1.7675   -0.2025   -1.5339 H   0  0  0  0  0  0  0  0  0  0  0  0
   -1.0167   -1.6595    1.4414 C   0  0  0  0  0  0  0  0  0  0  0  0
   -1.9714   -1.9764    1.9163 H   0  0  0  0  0  0  0  0  0  0  0  0
   -0.6170   -2.5338    0.8796 H   0  0  0  0  0  0  0  0  0  0  0  0
   -1.8827    0.6064    0.9845 C   0  0  0  0  0  0  0  0  0  0  0  0
   -1.7291    1.4290    0.2576 H   0  0  0  0  0  0  0  0  0  0  0  0
   -1.3933    0.8896    1.9376 H   0  0  0  0  0  0  0  0  0  0  0  0
   -5.4292    0.0401   -0.1262 C   0  0  0  0  0  0  0  0  0  0  0  0
    1.7622   -0.0346    3.1141 C   0  0  0  0  0  3  0  0  0  0  0  0
    2.6653    0.5722    2.9913 H   0  0  0  0  0  0  0  0  0  0  0  0
   -7.6071   -0.7678   -0.9243 C   0  0  0  0  0  0  0  0  0  0  0  0
   -8.1909   -1.5568   -1.4237 H   0  0  0  0  0  0  0  0  0  0  0  0
   -3.3858   -1.2621   -0.5814 C   0  0  0  0  0  0  0  0  0  0  0  0
   -3.8248   -1.4663   -1.5774 H   0  0  0  0  0  0  0  0  0  0  0  0
   -3.5514   -2.1825    0.0365 H   0  0  0  0  0  0  0  0  0  0  0  0
   -6.2256   -0.9472   -0.7632 C   0  0  0  0  0  0  0  0  0  0  0  0
   -5.7715   -1.8775   -1.1279 H   0  0  0  0  0  0  0  0  0  0  0  0
   -0.0544   -1.1688    2.4667 C   0  0  0  0  0  0  0  0  0  0  0  0
   -3.3770    0.3827    1.2103 C   0  0  0  0  0  0  0  0  0  0  0  0
   -3.5449   -0.3308    2.0568 H   0  0  0  0  0  0  0  0  0  0  0  0
   -3.8179    1.3449    1.5261 H   0  0  0  0  0  0  0  0  0  0  0  0
   -8.2480    0.3829   -0.4457 C   0  0  0  0  0  0  0  0  0  0  0  0
   -9.3325    0.5165   -0.5700 H   0  0  0  0  0  0  0  0  0  0  0  0
   -6.0937    1.1979    0.3602 C   0  0  0  0  0  0  0  0  0  0  0  0
   -5.5205    1.9981    0.8483 H   0  0  0  0  0  0  0  0  0  0  0  0
   -7.4733    1.3607    0.2006 C   0  0  0  0  0  0  0  0  0  0  0  0
   -7.9493    2.2767    0.5839 H   0  0  0  0  0  0  0  0  0  0  0  0
   -0.0222   -1.2235    3.8559 C   0  0  0  0  0  0  0  0  0  0  0  0
   -0.7557   -1.7237    4.5000 H   0  0  0  0  0  0  0  0  0  0  0  0
    1.1444   -0.5014    4.2686 C   0  0  0  0  0  0  0  0  0  0  0  0
    1.4871   -0.3368    5.2972 H   0  0  0  0  0  0  0  0  0  0  0  0
   -1.1860   -0.5763    0.4358 N   0  0  0  0  0  0  0  0  0  0  0  0
  1 22  2  0  0  0  0
  1 13  1  0  0  0  0
  2 23  1  0  0  0  0
  3 17  1  0  0  0  0
  3 36  1  0  0  0  0
  4  3  1  0  0  0  0
  5  3  1  0  0  0  0
  6  7  1  0  0  0  0
  6 22  1  0  0  0  0
  8  6  1  0  0  0  0
  9 23  1  0  0  0  0
  9 11  1  0  0  0  0
 10  9  1  0  0  0  0
 12  2  1  0  0  0  0
 12 28  1  0  0  0  0
 13 34  1  0  0  0  0
 14 13  1  0  0  0  0
 15 20  1  0  0  0  0
 15 26  2  0  0  0  0
 16 15  1  0  0  0  0
 17  2  1  0  0  0  0
 17 19  1  0  0  0  0
 18 17  1  0  0  0  0
 20 12  2  0  0  0  0
 21 20  1  0  0  0  0
 22 32  1  0  0  0  0
 23 25  1  0  0  0  0
 23 24  1  0  0  0  0
 26 30  1  0  0  0  0
 27 26  1  0  0  0  0
 28 29  1  0  0  0  0
 30 28  2  0  0  0  0
 30 31  1  0  0  0  0
 32 34  2  0  0  0  0
 32 33  1  0  0  0  0
 34 35  1  0  0  0  0
 36  9  1  0  0  0  0
 36  6  1  0  0  0  0
M  END
