7,8
 OpenBabel05122313053D

 47 47  0  0  1  0  0  0  0  0999 V2000
    0.3046    3.1214   -0.9263 O   0  0  0  0  0  0  0  0  0  0  0  0
   -1.1601   -3.0726    0.7205 O   0  0  0  0  0  0  0  0  0  0  0  0
   -1.9390   -2.6186    1.1909 H   0  0  0  0  0  0  0  0  0  0  0  0
   -2.2272   -1.2877   -2.5278 O   0  0  0  0  0  0  0  0  0  0  0  0
   -3.0134   -1.1319   -1.8943 H   0  0  0  0  0  0  0  0  0  0  0  0
    1.1006    0.1796   -0.5374 N   0  0  0  0  0  0  0  0  0  0  0  0
   -0.3928   -2.0114    0.3329 N   0  0  0  0  0  2  0  0  0  0  0  0
   -1.1973   -0.6772   -1.8780 N   0  0  0  0  0  2  0  0  0  0  0  0
   -0.5849    2.6335    1.1305 N   0  0  0  0  0  0  0  0  0  0  0  0
   -0.6990    1.8710    1.8102 H   0  0  0  0  0  0  0  0  0  0  0  0
    1.3578    1.3448    0.3308 C   0  0  2  0  0  0  0  0  0  0  0  0
    1.2773    0.9678    1.3711 H   0  0  0  0  0  0  0  0  0  0  0  0
    0.2832    2.4372    0.1070 C   0  0  0  0  0  0  0  0  0  0  0  0
    1.7693   -1.0614   -0.1804 C   0  0  0  0  0  0  0  0  0  0  0  0
    2.4435   -0.8993    0.6889 H   0  0  0  0  0  0  0  0  0  0  0  0
    2.4598   -1.3972   -0.9906 H   0  0  0  0  0  0  0  0  0  0  0  0
    0.8766   -2.2203    0.1955 C   0  0  1  0  0  3  0  0  0  0  0  0
    0.9747    0.4078   -1.9658 C   0  0  0  0  0  0  0  0  0  0  0  0
    1.8994    0.1122   -2.5218 H   0  0  0  0  0  0  0  0  0  0  0  0
    0.8373    1.5028   -2.1335 H   0  0  0  0  0  0  0  0  0  0  0  0
   -0.1970   -0.2901   -2.6132 C   0  0  2  0  0  3  0  0  0  0  0  0
    2.7372    2.0352    0.1384 C   0  0  0  0  0  0  0  0  0  0  0  0
    2.7294    2.5229   -0.8564 H   0  0  0  0  0  0  0  0  0  0  0  0
    2.7954    2.8544    0.8861 H   0  0  0  0  0  0  0  0  0  0  0  0
    3.9230    1.1154    0.2788 C   0  0  0  0  0  0  0  0  0  0  0  0
    4.5828    0.6106   -0.8596 C   0  0  0  0  0  0  0  0  0  0  0  0
    4.2692    0.9558   -1.8579 H   0  0  0  0  0  0  0  0  0  0  0  0
    5.6253   -0.3213   -0.7376 C   0  0  0  0  0  0  0  0  0  0  0  0
    6.1277   -0.7031   -1.6396 H   0  0  0  0  0  0  0  0  0  0  0  0
    6.0305   -0.7616    0.5323 C   0  0  0  0  0  0  0  0  0  0  0  0
    6.8475   -1.4923    0.6310 H   0  0  0  0  0  0  0  0  0  0  0  0
    5.3993   -0.2479    1.6779 C   0  0  0  0  0  0  0  0  0  0  0  0
    5.7239   -0.5728    2.6783 H   0  0  0  0  0  0  0  0  0  0  0  0
    4.3590    0.6840    1.5502 C   0  0  0  0  0  0  0  0  0  0  0  0
    3.8675    1.0819    2.4530 H   0  0  0  0  0  0  0  0  0  0  0  0
   -1.6557    3.6112    1.0450 C   0  0  0  0  0  0  0  0  0  0  0  0
   -1.7781    4.1282    2.0173 H   0  0  0  0  0  0  0  0  0  0  0  0
   -2.6109    3.1261    0.7572 H   0  0  0  0  0  0  0  0  0  0  0  0
   -1.3866    4.3454    0.2637 H   0  0  0  0  0  0  0  0  0  0  0  0
   -0.2290   -0.4574   -4.0987 C   0  0  0  0  0  0  0  0  0  0  0  0
   -0.0426   -1.5166   -4.3777 H   0  0  0  0  0  0  0  0  0  0  0  0
    0.5395    0.1727   -4.5844 H   0  0  0  0  0  0  0  0  0  0  0  0
   -1.2345   -0.2042   -4.4876 H   0  0  0  0  0  0  0  0  0  0  0  0
    1.4908   -3.5535    0.4771 C   0  0  0  0  0  0  0  0  0  0  0  0
    1.0222   -4.0079    1.3718 H   0  0  0  0  0  0  0  0  0  0  0  0
    2.5848   -3.4648    0.6186 H   0  0  0  0  0  0  0  0  0  0  0  0
    1.3030   -4.2520   -0.3662 H   0  0  0  0  0  0  0  0  0  0  0  0
  1 13  2  0  0  0  0
  2  3  1  0  0  0  0
  4  5  1  0  0  0  0
  4  8  1  0  0  0  0
  6 14  1  0  0  0  0
  6 11  1  0  0  0  0
  7  2  1  0  0  0  0
  9 10  1  0  0  0  0
 11 12  1  1  0  0  0
 13 11  1  0  0  0  0
 13  9  1  0  0  0  0
 14 17  1  0  0  0  0
 14 15  1  0  0  0  0
 16 14  1  0  0  0  0
 17  7  1  1  0  0  0
 17 44  1  0  0  0  0
 18  6  1  0  0  0  0
 19 18  1  0  0  0  0
 20 18  1  0  0  0  0
 21 18  1  0  0  0  0
 21  8  1  6  0  0  0
 22 25  1  0  0  0  0
 22 11  1  0  0  0  0
 22 24  1  0  0  0  0
 23 22  1  0  0  0  0
 25 34  1  0  0  0  0
 26 28  1  0  0  0  0
 26 25  2  0  0  0  0
 27 26  1  0  0  0  0
 28 30  2  0  0  0  0
 29 28  1  0  0  0  0
 30 31  1  0  0  0  0
 30 32  1  0  0  0  0
 32 33  1  0  0  0  0
 34 32  2  0  0  0  0
 34 35  1  0  0  0  0
 36  9  1  0  0  0  0
 36 37  1  0  0  0  0
 38 36  1  0  0  0  0
 39 36  1  0  0  0  0
 40 21  1  0  0  0  0
 41 40  1  0  0  0  0
 42 40  1  0  0  0  0
 43 40  1  0  0  0  0
 44 46  1  0  0  0  0
 44 45  1  0  0  0  0
 47 44  1  0  0  0  0
M  END
