3,4
 OpenBabel05122313053D

 34 35  0  0  0  0  0  0  0  0999 V2000
    5.4109    1.1312    1.1619 Br  0  0  0  0  0  0  0  0  0  0  0  0
   -5.1253   -1.5087    0.8849 Br  0  0  0  0  0  0  0  0  0  0  0  0
    1.4179   -0.0951    1.2801 N   0  0  0  0  0  2  0  0  0  0  0  0
   -1.3687    0.0455    1.4000 N   0  0  0  0  0  2  0  0  0  0  0  0
    4.8201   -0.3010    0.0463 C   0  0  0  0  0  0  0  0  0  0  0  0
    5.6724   -0.7687   -0.9610 C   0  0  0  0  0  0  0  0  0  0  0  0
    6.6656   -0.3169   -1.0909 H   0  0  0  0  0  0  0  0  0  0  0  0
    5.2350   -1.8070   -1.7985 C   0  0  0  0  0  0  0  0  0  0  0  0
    5.9036   -2.1761   -2.5909 H   0  0  0  0  0  0  0  0  0  0  0  0
    3.9596   -2.3668   -1.6284 C   0  0  0  0  0  0  0  0  0  0  0  0
    3.6180   -3.1807   -2.2842 H   0  0  0  0  0  0  0  0  0  0  0  0
    3.1080   -1.8886   -0.6268 C   0  0  0  0  0  0  0  0  0  0  0  0
    2.1008   -2.3175   -0.4834 H   0  0  0  0  0  0  0  0  0  0  0  0
    3.5224   -0.8373    0.2235 C   0  0  0  0  0  0  0  0  0  0  0  0
    2.6789   -0.3874    1.3370 C   0  0  0  0  0  3  0  0  0  0  0  0
    3.1900   -0.3029    2.3199 H   0  0  0  0  0  0  0  0  0  0  0  0
    0.7487    0.1954    2.5566 C   0  0  0  0  0  0  0  0  0  0  0  0
    0.6142    1.2956    2.6436 H   0  0  0  0  0  0  0  0  0  0  0  0
    1.3527   -0.1559    3.4195 H   0  0  0  0  0  0  0  0  0  0  0  0
   -0.6143   -0.4886    2.5374 C   0  0  0  0  0  0  0  0  0  0  0  0
   -0.4719   -1.5751    2.3462 H   0  0  0  0  0  0  0  0  0  0  0  0
   -1.1538   -0.3408    3.4964 H   0  0  0  0  0  0  0  0  0  0  0  0
   -2.6358    0.2483    1.5566 C   0  0  0  0  0  3  0  0  0  0  0  0
   -3.1063   -0.0448    2.5196 H   0  0  0  0  0  0  0  0  0  0  0  0
   -3.5235    0.8528    0.5500 C   0  0  0  0  0  0  0  0  0  0  0  0
   -3.2368    2.1195   -0.0055 C   0  0  0  0  0  0  0  0  0  0  0  0
   -2.3209    2.6416    0.3020 H   0  0  0  0  0  0  0  0  0  0  0  0
   -4.1039    2.7049   -0.9338 C   0  0  0  0  0  0  0  0  0  0  0  0
   -3.8609    3.6889   -1.3601 H   0  0  0  0  0  0  0  0  0  0  0  0
   -5.2722    2.0313   -1.3234 C   0  0  0  0  0  0  0  0  0  0  0  0
   -5.9509    2.4807   -2.0637 H   0  0  0  0  0  0  0  0  0  0  0  0
   -5.5866    0.7795   -0.7746 C   0  0  0  0  0  0  0  0  0  0  0  0
   -6.4950    0.2407   -1.0780 H   0  0  0  0  0  0  0  0  0  0  0  0
   -4.7183    0.2060    0.1636 C   0  0  0  0  0  0  0  0  0  0  0  0
  3 15  1  0  0  0  0
  3 17  1  0  0  0  0
  4 23  1  0  0  0  0
  4 20  1  0  0  0  0
  5 14  1  0  0  0  0
  5  1  1  0  0  0  0
  6  5  2  0  0  0  0
  7  6  1  0  0  0  0
  8 10  2  0  0  0  0
  8  6  1  0  0  0  0
  9  8  1  0  0  0  0
 10 12  1  0  0  0  0
 11 10  1  0  0  0  0
 12 13  1  0  0  0  0
 12 14  2  0  0  0  0
 14 15  1  0  0  0  0
 15 16  1  0  0  0  0
 17 18  1  0  0  0  0
 17 19  1  0  0  0  0
 20 17  1  0  0  0  0
 20 22  1  0  0  0  0
 21 20  1  0  0  0  0
 23 24  1  0  0  0  0
 25 23  1  0  0  0  0
 26 27  1  0  0  0  0
 26 25  2  0  0  0  0
 28 26  1  0  0  0  0
 29 28  1  0  0  0  0
 30 28  2  0  0  0  0
 30 32  1  0  0  0  0
 31 30  1  0  0  0  0
 32 34  2  0  0  0  0
 33 32  1  0  0  0  0
 34 25  1  0  0  0  0
 34  2  1  0  0  0  0
M  END
