5,6
 OpenBabel05122313053D

 45 49  0  0  1  0  0  0  0  0999 V2000
   -6.5393    0.2937    1.3489 S   0  0  0  0  0  0  0  0  0  0  0  0
    6.6704   -0.8524    0.3923 S   0  0  0  0  0  0  0  0  0  0  0  0
   -3.8053   -0.0134   -1.5669 N   0  0  0  0  0  0  0  0  0  0  0  0
   -2.5623    0.4796   -1.5961 N   0  0  0  0  0  0  0  0  0  0  0  0
   -0.0831    1.4747   -0.3334 N   0  0  0  0  0  2  0  0  0  0  0  0
    2.1951    0.0876   -0.3606 N   0  0  0  0  0  2  0  0  0  0  0  0
    3.4417   -0.4124   -0.4290 N   0  0  0  0  0  0  0  0  0  0  0  0
   -8.1207   -0.2364    0.8963 C   0  0  0  0  0  0  0  0  0  0  0  0
   -8.9031   -0.3332    1.6587 H   0  0  0  0  0  0  0  0  0  0  0  0
   -8.2041   -0.5007   -0.4582 C   0  0  0  0  0  0  0  0  0  0  0  0
   -9.1219   -0.8520   -0.9491 H   0  0  0  0  0  0  0  0  0  0  0  0
   -6.9773   -0.2582   -1.1422 C   0  0  0  0  0  0  0  0  0  0  0  0
   -6.8525   -0.3747   -2.2261 H   0  0  0  0  0  0  0  0  0  0  0  0
   -5.9623    0.1917   -0.3005 C   0  0  0  0  0  0  0  0  0  0  0  0
   -4.5889    0.5686   -0.5872 C   0  0  0  0  0  0  0  0  0  0  0  0
   -3.7633    1.5083    0.0463 C   0  0  0  0  0  0  0  0  0  0  0  0
   -4.0340    2.1503    0.8907 H   0  0  0  0  0  0  0  0  0  0  0  0
   -2.5115    1.3951   -0.6081 C   0  0  0  0  0  0  0  0  0  0  0  0
   -1.2697    2.1411   -0.3545 C   0  0  2  0  0  3  0  0  0  0  0  0
   -1.3317    3.5365   -0.1700 C   0  0  0  0  0  0  0  0  0  0  0  0
   -2.3151    4.0258   -0.1813 H   0  0  0  0  0  0  0  0  0  0  0  0
   -0.1526    4.2740   -0.0250 C   0  0  0  0  0  0  0  0  0  0  0  0
   -0.1861    5.3643    0.1151 H   0  0  0  0  0  0  0  0  0  0  0  0
    1.0696    3.6013   -0.0919 C   0  0  0  0  0  0  0  0  0  0  0  0
    2.0237    4.1386   -0.0088 H   0  0  0  0  0  0  0  0  0  0  0  0
    1.0701    2.2044   -0.2403 C   0  0  0  0  0  0  0  0  0  0  0  0
    2.3057    1.4365   -0.3074 C   0  0  2  0  0  3  0  0  0  0  0  0
    3.6668    1.8055   -0.3345 C   0  0  0  0  0  0  0  0  0  0  0  0
    4.1032    2.8060   -0.2748 H   0  0  0  0  0  0  0  0  0  0  0  0
    4.3804    0.6004   -0.4073 C   0  0  0  0  0  0  0  0  0  0  0  0
    5.8217    0.4172   -0.4706 C   0  0  0  0  0  0  0  0  0  0  0  0
    6.7308    1.2608   -1.1038 C   0  0  0  0  0  0  0  0  0  0  0  0
    6.4109    2.1207   -1.7076 H   0  0  0  0  0  0  0  0  0  0  0  0
    8.0868    0.8745   -0.9067 C   0  0  0  0  0  0  0  0  0  0  0  0
    8.9473    1.4040   -1.3372 H   0  0  0  0  0  0  0  0  0  0  0  0
    8.2085   -0.2579   -0.1225 C   0  0  0  0  0  0  0  0  0  0  0  0
    9.1215   -0.7856    0.1791 H   0  0  0  0  0  0  0  0  0  0  0  0
    3.6495   -1.8417   -0.5670 C   0  0  0  0  0  0  0  0  0  0  0  0
    2.8723   -2.2461   -1.2409 H   0  0  0  0  0  0  0  0  0  0  0  0
    3.5744   -2.3529    0.4125 H   0  0  0  0  0  0  0  0  0  0  0  0
    4.6493   -2.0143   -1.0029 H   0  0  0  0  0  0  0  0  0  0  0  0
   -4.1454   -1.0979   -2.4687 C   0  0  0  0  0  0  0  0  0  0  0  0
   -3.1955   -1.5380   -2.8208 H   0  0  0  0  0  0  0  0  0  0  0  0
   -4.7246   -0.7343   -3.3421 H   0  0  0  0  0  0  0  0  0  0  0  0
   -4.7393   -1.8583   -1.9273 H   0  0  0  0  0  0  0  0  0  0  0  0
  3 15  1  0  0  0  0
  4  3  1  0  0  0  0
  4 18  2  0  0  0  0
  5 26  1  0  0  0  0
  6 27  1  0  0  0  0
  7 30  1  0  0  0  0
  7  6  1  0  0  0  0
  8  1  1  0  0  0  0
  8  9  1  0  0  0  0
 10  8  2  0  0  0  0
 11 10  1  0  0  0  0
 12 10  1  0  0  0  0
 12 14  2  0  0  0  0
 13 12  1  0  0  0  0
 14  1  1  0  0  0  0
 15 14  1  0  0  0  0
 15 16  2  0  0  0  0
 16 17  1  0  0  0  0
 18 16  1  0  0  0  0
 19 18  1  6  0  0  0
 19  5  1  0  0  0  0
 19 20  1  0  0  0  0
 20 22  2  0  0  0  0
 21 20  1  0  0  0  0
 22 23  1  0  0  0  0
 24 22  1  0  0  0  0
 24 25  1  0  0  0  0
 26 24  2  0  0  0  0
 27 26  1  6  0  0  0
 28 27  1  0  0  0  0
 28 29  1  0  0  0  0
 30 28  2  0  0  0  0
 31 30  1  0  0  0  0
 31  2  1  0  0  0  0
 32 34  1  0  0  0  0
 32 31  2  0  0  0  0
 33 32  1  0  0  0  0
 34 36  2  0  0  0  0
 35 34  1  0  0  0  0
 36 37  1  0  0  0  0
 36  2  1  0  0  0  0
 38  7  1  0  0  0  0
 38 40  1  0  0  0  0
 39 38  1  0  0  0  0
 41 38  1  0  0  0  0
 42 45  1  0  0  0  0
 42  3  1  0  0  0  0
 43 42  1  0  0  0  0
 44 42  1  0  0  0  0
M  END
