1,2
 OpenBabel05122313053D

 32 33  0  0  1  0  0  0  0  0999 V2000
   -1.6473    0.7588    0.5049 N   0  0  0  0  0  2  0  0  0  0  0  0
   -1.4115   -1.1697   -1.3549 N   0  0  0  0  0  2  0  0  0  0  0  0
   -3.4301    1.5286    1.4761 N   0  0  0  0  0  0  0  0  0  0  0  0
   -4.0783    2.0630    2.0594 H   0  0  0  0  0  0  0  0  0  0  0  0
   -3.9010    0.5576    0.6664 N   0  0  0  0  0  0  0  0  0  0  0  0
   -2.7873    0.1092    0.0867 C   0  0  0  0  0  0  0  0  0  0  0  0
   -2.0765    1.6655    1.3915 C   0  0  2  0  0  3  0  0  0  0  0  0
   -1.1834   -2.1177   -2.2982 C   0  0  2  0  0  3  0  0  0  0  0  0
   -2.2453   -2.8785   -2.8216 C   0  0  0  0  0  0  0  0  0  0  0  0
   -2.0382   -3.6397   -3.5872 H   0  0  0  0  0  0  0  0  0  0  0  0
   -3.5541   -2.6578   -2.3668 C   0  0  0  0  0  0  0  0  0  0  0  0
   -4.3899   -3.2474   -2.7712 H   0  0  0  0  0  0  0  0  0  0  0  0
   -3.7840   -1.6754   -1.3965 C   0  0  0  0  0  0  0  0  0  0  0  0
   -4.7878   -1.4554   -1.0078 H   0  0  0  0  0  0  0  0  0  0  0  0
   -2.6825   -0.9527   -0.9164 C   0  0  0  0  0  0  0  0  0  0  0  0
    0.2405   -2.3034   -2.7346 C   0  0  0  0  0  0  0  0  0  0  0  0
    0.3212   -2.9842   -3.6015 H   0  0  0  0  0  0  0  0  0  0  0  0
    0.6936   -1.3252   -2.9948 H   0  0  0  0  0  0  0  0  0  0  0  0
    0.8474   -2.7200   -1.9037 H   0  0  0  0  0  0  0  0  0  0  0  0
   -1.2220    2.6655    2.1337 C   0  0  0  0  0  0  0  0  0  0  0  0
   -0.1496    1.8892    2.9301 C   0  0  0  0  0  0  0  0  0  0  0  0
    0.5286    2.6014    3.4404 H   0  0  0  0  0  0  0  0  0  0  0  0
   -0.6103    1.2365    3.6980 H   0  0  0  0  0  0  0  0  0  0  0  0
    0.4512    1.2544    2.2492 H   0  0  0  0  0  0  0  0  0  0  0  0
   -0.5267    3.5661    1.0863 C   0  0  0  0  0  0  0  0  0  0  0  0
    0.1328    4.2965    1.5954 H   0  0  0  0  0  0  0  0  0  0  0  0
    0.0926    2.9528    0.4029 H   0  0  0  0  0  0  0  0  0  0  0  0
   -1.2658    4.1302    0.4827 H   0  0  0  0  0  0  0  0  0  0  0  0
   -2.0859    3.5146    3.0819 C   0  0  0  0  0  0  0  0  0  0  0  0
   -1.4472    4.2401    3.6214 H   0  0  0  0  0  0  0  0  0  0  0  0
   -2.8500    4.1019    2.5315 H   0  0  0  0  0  0  0  0  0  0  0  0
   -2.5920    2.8920    3.8484 H   0  0  0  0  0  0  0  0  0  0  0  0
  1  7  1  0  0  0  0
  2 15  1  0  0  0  0
  3  4  1  0  0  0  0
  5  3  1  0  0  0  0
  6  1  1  0  0  0  0
  6  5  2  0  0  0  0
  7  3  1  0  0  0  0
  7 20  1  6  0  0  0
  8 16  1  1  0  0  0
  8  2  1  0  0  0  0
  9 11  2  0  0  0  0
  9  8  1  0  0  0  0
 10  9  1  0  0  0  0
 11 13  1  0  0  0  0
 12 11  1  0  0  0  0
 13 14  1  0  0  0  0
 13 15  2  0  0  0  0
 15  6  1  0  0  0  0
 16 19  1  0  0  0  0
 17 16  1  0  0  0  0
 18 16  1  0  0  0  0
 20 21  1  0  0  0  0
 20 29  1  0  0  0  0
 21 22  1  0  0  0  0
 21 23  1  0  0  0  0
 24 21  1  0  0  0  0
 25 26  1  0  0  0  0
 25 20  1  0  0  0  0
 27 25  1  0  0  0  0
 28 25  1  0  0  0  0
 29 30  1  0  0  0  0
 29 32  1  0  0  0  0
 31 29  1  0  0  0  0
M  END
