2,19
 OpenBabel05122313053D

 34 35  0  0  0  0  0  0  0  0999 V2000
    5.1206   -2.1711    1.0863 F   0  0  0  0  0  0  0  0  0  0  0  0
    1.1118   -1.8310    0.9105 N   0  0  0  0  0  2  0  0  0  0  0  0
    2.3554   -1.9421    1.2385 C   0  0  0  0  0  3  0  0  0  0  0  0
    3.2306   -0.8064    1.5301 C   0  0  0  0  0  0  0  0  0  0  0  0
    4.6319   -0.9733    1.4529 C   0  0  0  0  0  0  0  0  0  0  0  0
    5.5241    0.0703    1.7144 C   0  0  0  0  0  0  0  0  0  0  0  0
    5.0119    1.3257    2.0679 C   0  0  0  0  0  0  0  0  0  0  0  0
    3.6215    1.5237    2.1686 C   0  0  0  0  0  0  0  0  0  0  0  0
    2.7452    0.4682    1.9053 C   0  0  0  0  0  0  0  0  0  0  0  0
    0.3316   -3.0373    0.6933 C   0  0  0  0  0  0  0  0  0  0  0  0
    2.8228   -2.9490    1.3085 H   0  0  0  0  0  0  0  0  0  0  0  0
    6.6037   -0.1160    1.6296 H   0  0  0  0  0  0  0  0  0  0  0  0
    5.7050    2.1548    2.2723 H   0  0  0  0  0  0  0  0  0  0  0  0
    3.2275    2.5053    2.4696 H   0  0  0  0  0  0  0  0  0  0  0  0
    1.6569    0.6044    2.0008 H   0  0  0  0  0  0  0  0  0  0  0  0
   -0.4696   -3.0735    1.4648 H   0  0  0  0  0  0  0  0  0  0  0  0
    0.9456   -3.9604    0.8038 H   0  0  0  0  0  0  0  0  0  0  0  0
   -5.1209   -2.1705   -1.0863 F   0  0  0  0  0  0  0  0  0  0  0  0
   -1.1121   -1.8307   -0.9114 N   0  0  0  0  0  2  0  0  0  0  0  0
   -2.3558   -1.9416   -1.2391 C   0  0  0  0  0  3  0  0  0  0  0  0
   -3.2309   -0.8058   -1.5303 C   0  0  0  0  0  0  0  0  0  0  0  0
   -4.6322   -0.9727   -1.4528 C   0  0  0  0  0  0  0  0  0  0  0  0
   -5.5244    0.0710   -1.7140 C   0  0  0  0  0  0  0  0  0  0  0  0
   -5.0123    1.3264   -2.0675 C   0  0  0  0  0  0  0  0  0  0  0  0
   -3.6219    1.5244   -2.1684 C   0  0  0  0  0  0  0  0  0  0  0  0
   -2.7456    0.4688   -1.9054 C   0  0  0  0  0  0  0  0  0  0  0  0
   -0.3318   -3.0371   -0.6945 C   0  0  0  0  0  0  0  0  0  0  0  0
   -2.8232   -2.9485   -1.3092 H   0  0  0  0  0  0  0  0  0  0  0  0
   -6.6040   -0.1153   -1.6291 H   0  0  0  0  0  0  0  0  0  0  0  0
   -5.7054    2.1556   -2.2716 H   0  0  0  0  0  0  0  0  0  0  0  0
   -3.2279    2.5061   -2.4694 H   0  0  0  0  0  0  0  0  0  0  0  0
   -1.6573    0.6051   -2.0012 H   0  0  0  0  0  0  0  0  0  0  0  0
    0.4693   -3.0731   -1.4660 H   0  0  0  0  0  0  0  0  0  0  0  0
   -0.9460   -3.9601   -0.8053 H   0  0  0  0  0  0  0  0  0  0  0  0
  1  5  1  0  0  0  0
  2  3  1  0  0  0  0
  3 11  1  0  0  0  0
  3  4  1  0  0  0  0
  4  9  1  0  0  0  0
  5  4  2  0  0  0  0
  5  6  1  0  0  0  0
  6  7  2  0  0  0  0
  7  8  1  0  0  0  0
  7 13  1  0  0  0  0
  8 14  1  0  0  0  0
  9 15  1  0  0  0  0
  9  8  2  0  0  0  0
 10 17  1  0  0  0  0
 10  2  1  0  0  0  0
 10 16  1  0  0  0  0
 12  6  1  0  0  0  0
 19 27  1  0  0  0  0
 20 19  1  0  0  0  0
 21 22  1  0  0  0  0
 21 20  1  0  0  0  0
 22 18  1  0  0  0  0
 23 29  1  0  0  0  0
 23 22  2  0  0  0  0
 24 23  1  0  0  0  0
 25 24  2  0  0  0  0
 25 26  1  0  0  0  0
 26 21  2  0  0  0  0
 27 10  1  0  0  0  0
 28 20  1  0  0  0  0
 30 24  1  0  0  0  0
 31 25  1  0  0  0  0
 32 26  1  0  0  0  0
 33 27  1  0  0  0  0
 34 27  1  0  0  0  0
M  END
