1,2
 OpenBabel05122313053D

 32 33  0  0  1  0  0  0  0  0999 V2000
   -0.1185    2.4060    0.2749 N   0  0  0  0  0  2  0  0  0  0  0  0
    1.6594    0.8041   -0.8679 N   0  0  0  0  0  0  0  0  0  0  0  0
    2.7395   -0.2266   -0.8823 C   0  0  0  0  0  0  0  0  0  0  0  0
    2.2005   -1.1945   -0.9691 H   0  0  0  0  0  0  0  0  0  0  0  0
    3.5334   -0.2658    0.4259 C   0  0  0  0  0  0  0  0  0  0  0  0
    2.8387   -0.3008    1.2888 H   0  0  0  0  0  0  0  0  0  0  0  0
    4.1295    0.6663    0.5343 H   0  0  0  0  0  0  0  0  0  0  0  0
    0.8909    3.0531   -0.3785 C   0  0  1  0  0  3  0  0  0  0  0  0
   -1.2477    3.0860    0.5948 C   0  0  0  0  0  0  0  0  0  0  0  0
   -2.0163    2.5096    1.1297 H   0  0  0  0  0  0  0  0  0  0  0  0
    0.7873    4.4029   -0.7281 C   0  0  0  0  0  0  0  0  0  0  0  0
    1.6173    4.8918   -1.2582 H   0  0  0  0  0  0  0  0  0  0  0  0
   -1.4053    4.4390    0.2833 C   0  0  0  0  0  0  0  0  0  0  0  0
   -2.3336    4.9527    0.5698 H   0  0  0  0  0  0  0  0  0  0  0  0
    3.6767   -0.1146   -2.0935 C   0  0  0  0  0  0  0  0  0  0  0  0
    4.2461    0.8396   -2.0421 H   0  0  0  0  0  0  0  0  0  0  0  0
    3.0860   -0.0885   -3.0360 H   0  0  0  0  0  0  0  0  0  0  0  0
   -0.3750    5.1122   -0.3886 C   0  0  0  0  0  0  0  0  0  0  0  0
   -0.4741    6.1762   -0.6485 H   0  0  0  0  0  0  0  0  0  0  0  0
    2.1007    2.1991   -0.6270 C   0  0  0  0  0  0  0  0  0  0  0  0
    2.7219    2.6028   -1.4541 H   0  0  0  0  0  0  0  0  0  0  0  0
    2.7252    2.2020    0.2903 H   0  0  0  0  0  0  0  0  0  0  0  0
    4.4963   -1.4613    0.4198 C   0  0  0  0  0  0  0  0  0  0  0  0
    5.0767   -1.4803    1.3641 H   0  0  0  0  0  0  0  0  0  0  0  0
    3.9062   -2.4051    0.3958 H   0  0  0  0  0  0  0  0  0  0  0  0
    5.4367   -1.4059   -0.7917 C   0  0  0  0  0  0  0  0  0  0  0  0
    6.0955   -2.2977   -0.8103 H   0  0  0  0  0  0  0  0  0  0  0  0
    6.1096   -0.5257   -0.6889 H   0  0  0  0  0  0  0  0  0  0  0  0
    4.6597   -1.2963   -2.1105 C   0  0  0  0  0  0  0  0  0  0  0  0
    4.0891   -2.2364   -2.2820 H   0  0  0  0  0  0  0  0  0  0  0  0
    5.3552   -1.1952   -2.9679 H   0  0  0  0  0  0  0  0  0  0  0  0
    1.1977    0.7805   -1.7901 H   0  0  0  0  0  0  0  0  0  0  0  0
  1  9  1  0  0  0  0
  2 20  1  0  0  0  0
  3  2  1  0  0  0  0
  3  5  1  0  0  0  0
  4  3  1  0  0  0  0
  5  7  1  0  0  0  0
  5  6  1  0  0  0  0
  8 20  1  1  0  0  0
  8  1  1  0  0  0  0
  9 10  1  0  0  0  0
 11 18  2  0  0  0  0
 11  8  1  0  0  0  0
 12 11  1  0  0  0  0
 13 14  1  0  0  0  0
 13  9  2  0  0  0  0
 15 16  1  0  0  0  0
 15  3  1  0  0  0  0
 17 15  1  0  0  0  0
 18 13  1  0  0  0  0
 19 18  1  0  0  0  0
 20 22  1  0  0  0  0
 21 20  1  0  0  0  0
 23  5  1  0  0  0  0
 23 24  1  0  0  0  0
 25 23  1  0  0  0  0
 26 28  1  0  0  0  0
 26 23  1  0  0  0  0
 27 26  1  0  0  0  0
 29 15  1  0  0  0  0
 29 26  1  0  0  0  0
 30 29  1  0  0  0  0
 31 29  1  0  0  0  0
 32  2  1  0  0  0  0
M  END
