1,2
 OpenBabel05122313053D

 26 28  0  0  1  0  0  0  0  0999 V2000
   -0.0525   -0.9567   -1.4640 N   0  0  0  0  0  2  0  0  0  0  0  0
    1.9466    0.4807   -0.4304 N   0  0  0  0  0  0  0  0  0  0  0  0
    3.5597   -1.0176   -1.1073 N   0  0  0  0  0  0  0  0  0  0  0  0
    2.2640   -0.7486   -0.9887 C   0  0  0  0  0  0  0  0  0  0  0  0
   -1.0878   -1.5411   -2.1218 C   0  0  2  0  0  3  0  0  0  0  0  0
    3.1824    1.0719   -0.1941 C   0  0  0  0  0  0  0  0  0  0  0  0
    1.1716   -1.5588   -1.4983 C   0  0  0  0  0  0  0  0  0  0  0  0
   -0.9289   -2.8147   -2.7085 C   0  0  0  0  0  0  0  0  0  0  0  0
   -1.7875   -3.2657   -3.2260 H   0  0  0  0  0  0  0  0  0  0  0  0
    4.1757    0.1201   -0.6168 C   0  0  0  0  0  0  0  0  0  0  0  0
    1.3890   -2.8246   -2.0647 C   0  0  0  0  0  0  0  0  0  0  0  0
    2.4071   -3.2360   -2.0430 H   0  0  0  0  0  0  0  0  0  0  0  0
    5.5475    0.4206   -0.5035 C   0  0  0  0  0  3  0  0  0  0  0  0
    6.3014   -0.3105   -0.8294 H   0  0  0  0  0  0  0  0  0  0  0  0
   -2.3903   -0.8148   -2.2822 C   0  0  0  0  0  0  0  0  0  0  0  0
   -2.2416    0.2789   -2.2770 H   0  0  0  0  0  0  0  0  0  0  0  0
   -3.1030   -1.0709   -1.4727 H   0  0  0  0  0  0  0  0  0  0  0  0
   -2.8643   -1.1124   -3.2368 H   0  0  0  0  0  0  0  0  0  0  0  0
    3.5485    2.3229    0.3310 C   0  0  0  0  0  0  0  0  0  0  0  0
    2.7888    3.0494    0.6489 H   0  0  0  0  0  0  0  0  0  0  0  0
    0.3041   -3.4759   -2.6535 C   0  0  0  0  0  0  0  0  0  0  0  0
    0.4229   -4.4738   -3.1017 H   0  0  0  0  0  0  0  0  0  0  0  0
    5.9028    1.6662    0.0256 C   0  0  0  0  0  0  0  0  0  0  0  0
    6.9664    1.9312    0.1241 H   0  0  0  0  0  0  0  0  0  0  0  0
    4.9185    2.6004    0.4336 C   0  0  0  0  0  0  0  0  0  0  0  0
    5.2378    3.5729    0.8379 H   0  0  0  0  0  0  0  0  0  0  0  0
  2  6  1  0  0  0  0
  3  4  1  0  0  0  0
  3 10  2  0  0  0  0
  4  2  2  0  0  0  0
  5 15  1  6  0  0  0
  5  1  1  0  0  0  0
  6 19  2  0  0  0  0
  7  1  1  0  0  0  0
  7  4  1  0  0  0  0
  8 21  2  0  0  0  0
  8  5  1  0  0  0  0
  9  8  1  0  0  0  0
 10 13  1  0  0  0  0
 10  6  1  0  0  0  0
 11 12  1  0  0  0  0
 11  7  2  0  0  0  0
 13 23  1  0  0  0  0
 14 13  1  0  0  0  0
 15 16  1  0  0  0  0
 15 17  1  0  0  0  0
 18 15  1  0  0  0  0
 19 25  1  0  0  0  0
 19 20  1  0  0  0  0
 21 11  1  0  0  0  0
 22 21  1  0  0  0  0
 23 24  1  0  0  0  0
 23 25  2  0  0  0  0
 25 26  1  0  0  0  0
M  END
