5,6
 OpenBabel05122313053D

 39 41  0  0  0  0  0  0  0  0999 V2000
   -4.2037    1.4226    1.1813 O   0  0  0  0  0  0  0  0  0  0  0  0
   -3.2494    1.2950    1.4524 H   0  0  0  0  0  0  0  0  0  0  0  0
    6.3084    1.7820   -0.0299 O   0  0  0  0  0  0  0  0  0  0  0  0
    5.3648    2.0960   -0.0944 H   0  0  0  0  0  0  0  0  0  0  0  0
   -2.2534    0.5871   -0.7477 N   0  0  0  0  0  2  0  0  0  0  0  0
    0.3036    1.3199   -0.5868 N   0  0  0  0  0  2  0  0  0  0  0  0
    3.8744    0.8595   -0.3092 N   0  0  0  0  0  0  0  0  0  0  0  0
   -3.6044    0.1290   -0.7985 C   0  0  0  0  0  0  0  0  0  0  0  0
   -4.5373    0.5904    0.1724 C   0  0  0  0  0  0  0  0  0  0  0  0
   -5.8734    0.1511    0.0630 C   0  0  0  0  0  0  0  0  0  0  0  0
   -6.5893    0.5129    0.8151 H   0  0  0  0  0  0  0  0  0  0  0  0
   -6.2579   -0.7365   -0.9478 C   0  0  0  0  0  0  0  0  0  0  0  0
   -7.3056   -1.0681   -1.0046 H   0  0  0  0  0  0  0  0  0  0  0  0
   -5.3141   -1.2283   -1.8676 C   0  0  0  0  0  0  0  0  0  0  0  0
   -5.6120   -1.9428   -2.6482 H   0  0  0  0  0  0  0  0  0  0  0  0
   -3.9842   -0.8025   -1.7804 C   0  0  0  0  0  0  0  0  0  0  0  0
   -3.2194   -1.1657   -2.4828 H   0  0  0  0  0  0  0  0  0  0  0  0
   -2.0042    1.8606   -0.8907 C   0  0  0  0  0  0  0  0  0  0  0  0
   -2.8110    2.5858   -1.0962 H   0  0  0  0  0  0  0  0  0  0  0  0
   -0.6269    2.3041   -0.8047 C   0  0  0  0  0  0  0  0  0  0  0  0
   -0.2786    3.6547   -0.9737 C   0  0  0  0  0  0  0  0  0  0  0  0
   -1.0707    4.3974   -1.1434 H   0  0  0  0  0  0  0  0  0  0  0  0
    1.0723    4.0193   -0.9111 C   0  0  0  0  0  0  0  0  0  0  0  0
    1.3775    5.0701   -1.0203 H   0  0  0  0  0  0  0  0  0  0  0  0
    2.0236    3.0163   -0.7296 C   0  0  0  0  0  0  0  0  0  0  0  0
    3.0997    3.2317   -0.7062 H   0  0  0  0  0  0  0  0  0  0  0  0
    1.6226    1.6661   -0.5954 C   0  0  0  0  0  0  0  0  0  0  0  0
    2.6198    0.6001   -0.5044 C   0  0  0  0  0  0  0  0  0  0  0  0
    2.2292   -0.4258   -0.6458 H   0  0  0  0  0  0  0  0  0  0  0  0
    4.8637   -0.1070   -0.2256 C   0  0  0  0  0  0  0  0  0  0  0  0
    6.1784    0.4499   -0.0779 C   0  0  0  0  0  0  0  0  0  0  0  0
    7.2991   -0.3983    0.0135 C   0  0  0  0  0  0  0  0  0  0  0  0
    8.2970    0.0491    0.1226 H   0  0  0  0  0  0  0  0  0  0  0  0
    7.1118   -1.7822   -0.0298 C   0  0  0  0  0  0  0  0  0  0  0  0
    7.9869   -2.4456    0.0454 H   0  0  0  0  0  0  0  0  0  0  0  0
    5.8205   -2.3444   -0.1580 C   0  0  0  0  0  0  0  0  0  0  0  0
    5.6956   -3.4367   -0.1736 H   0  0  0  0  0  0  0  0  0  0  0  0
    4.7046   -1.5147   -0.2548 C   0  0  0  0  0  0  0  0  0  0  0  0
    3.7000   -1.9540   -0.3306 H   0  0  0  0  0  0  0  0  0  0  0  0
  1  2  1  0  0  0  0
  4  3  1  0  0  0  0
  7 30  1  0  0  0  0
  8  5  1  0  0  0  0
  8  9  1  0  0  0  0
  9  1  1  0  0  0  0
 10  9  2  0  0  0  0
 10 11  1  0  0  0  0
 12 10  1  0  0  0  0
 13 12  1  0  0  0  0
 14 16  1  0  0  0  0
 14 12  2  0  0  0  0
 15 14  1  0  0  0  0
 16  8  2  0  0  0  0
 17 16  1  0  0  0  0
 18 20  2  0  0  0  0
 18  5  1  0  0  0  0
 19 18  1  0  0  0  0
 20  6  1  0  0  0  0
 21 23  2  0  0  0  0
 21 20  1  0  0  0  0
 22 21  1  0  0  0  0
 23 25  1  0  0  0  0
 24 23  1  0  0  0  0
 25 26  1  0  0  0  0
 25 27  2  0  0  0  0
 27  6  1  0  0  0  0
 27 28  1  0  0  0  0
 28  7  2  0  0  0  0
 29 28  1  0  0  0  0
 30 31  1  0  0  0  0
 31  3  1  0  0  0  0
 31 32  2  0  0  0  0
 32 33  1  0  0  0  0
 34 32  1  0  0  0  0
 34 35  1  0  0  0  0
 36 34  2  0  0  0  0
 37 36  1  0  0  0  0
 38 30  2  0  0  0  0
 38 36  1  0  0  0  0
 39 38  1  0  0  0  0
M  END
