1,2
 OpenBabel05122313053D

 19 19  0  0  1  0  0  0  0  0999 V2000
    1.1478   -0.6041    0.0192 N   0  0  0  0  0  2  0  0  0  0  0  0
    0.1454    1.8465   -0.2584 N   0  0  0  0  0  0  0  0  0  0  0  0
    2.0672    0.4059    0.1442 C   0  0  2  0  0  3  0  0  0  0  0  0
    3.4370    0.1374    0.0732 C   0  0  0  0  0  0  0  0  0  0  0  0
    3.8791   -1.1842   -0.1007 C   0  0  0  0  0  0  0  0  0  0  0  0
    2.9247   -2.2060   -0.2017 C   0  0  0  0  0  0  0  0  0  0  0  0
    1.5671   -1.8833   -0.1449 C   0  0  0  0  0  0  0  0  0  0  0  0
    1.4755    1.7817    0.4168 C   0  0  1  0  0  0  0  0  0  0  0  0
    2.3746    2.9627    0.0617 C   0  0  0  0  0  0  0  0  0  0  0  0
   -0.4635    2.5845    0.1321 H   0  0  0  0  0  0  0  0  0  0  0  0
    0.2524    2.0505   -1.2658 H   0  0  0  0  0  0  0  0  0  0  0  0
    4.1596    0.9597    0.1625 H   0  0  0  0  0  0  0  0  0  0  0  0
    4.9545   -1.4075   -0.1549 H   0  0  0  0  0  0  0  0  0  0  0  0
    3.2213   -3.2565   -0.3319 H   0  0  0  0  0  0  0  0  0  0  0  0
    0.7497   -2.6213   -0.2138 H   0  0  0  0  0  0  0  0  0  0  0  0
    1.2394    1.8069    1.5042 H   0  0  0  0  0  0  0  0  0  0  0  0
    2.6759    2.9364   -1.0055 H   0  0  0  0  0  0  0  0  0  0  0  0
    3.2939    2.9681    0.6785 H   0  0  0  0  0  0  0  0  0  0  0  0
    1.8468    3.9172    0.2555 H   0  0  0  0  0  0  0  0  0  0  0  0
  1  3  1  0  0  0  0
  2 10  1  0  0  0  0
  2  8  1  0  0  0  0
  3  8  1  1  0  0  0
  4  3  1  0  0  0  0
  4 12  1  0  0  0  0
  5  4  2  0  0  0  0
  6  7  2  0  0  0  0
  6  5  1  0  0  0  0
  7  1  1  0  0  0  0
  8 16  1  1  0  0  0
  9 19  1  0  0  0  0
  9  8  1  0  0  0  0
  9 18  1  0  0  0  0
 11  2  1  0  0  0  0
 13  5  1  0  0  0  0
 14  6  1  0  0  0  0
 15  7  1  0  0  0  0
 17  9  1  0  0  0  0
M  END
