39,40
 OpenBabel05122313053D

 42 44  0  0  1  0  0  0  0  0999 V2000
   -3.3944   -2.6718    0.0058 C   0  0  0  0  0  3  0  0  0  0  0  0
   -4.2856   -2.0347    0.0915 H   0  0  0  0  0  0  0  0  0  0  0  0
   -3.4747   -4.0659   -0.0447 C   0  0  0  0  0  0  0  0  0  0  0  0
   -4.4592   -4.5531   -0.0248 H   0  0  0  0  0  0  0  0  0  0  0  0
   -2.2848   -4.8090   -0.1142 C   0  0  0  0  0  0  0  0  0  0  0  0
   -2.3106   -5.9082   -0.1559 H   0  0  0  0  0  0  0  0  0  0  0  0
   -1.0643   -4.1341   -0.1191 C   0  0  0  0  0  0  0  0  0  0  0  0
   -0.1076   -4.6719   -0.1552 H   0  0  0  0  0  0  0  0  0  0  0  0
   -1.0419   -2.7181   -0.0711 C   0  0  0  0  0  0  0  0  0  0  0  0
    0.1825   -2.0060   -0.0385 C   0  0  0  0  0  0  0  0  0  0  0  0
    1.2732   -1.4343    0.0187 C   0  0  0  0  0  0  0  0  0  0  0  0
    2.4905   -0.7162    0.0635 C   0  0  0  0  0  0  0  0  0  0  0  0
    3.7312   -1.4053    0.1007 C   0  0  0  0  0  0  0  0  0  0  0  0
    3.7114   -2.5018    0.0991 H   0  0  0  0  0  0  0  0  0  0  0  0
    4.9472   -0.7180    0.1368 C   0  0  0  0  0  0  0  0  0  0  0  0
    4.9472    0.7180    0.1368 C   0  0  0  0  0  0  0  0  0  0  0  0
    3.7313    1.4053    0.1007 C   0  0  0  0  0  0  0  0  0  0  0  0
    3.7115    2.5018    0.0991 H   0  0  0  0  0  0  0  0  0  0  0  0
    2.4905    0.7163    0.0635 C   0  0  0  0  0  0  0  0  0  0  0  0
    6.2404   -2.7111    0.1732 C   0  0  0  0  0  0  0  0  0  0  0  0
    5.7348   -3.1485    1.0627 H   0  0  0  0  0  0  0  0  0  0  0  0
    7.3149   -2.9678    0.2046 H   0  0  0  0  0  0  0  0  0  0  0  0
    5.7884   -3.1457   -0.7461 H   0  0  0  0  0  0  0  0  0  0  0  0
    6.2404    2.7111    0.1734 C   0  0  0  0  0  0  0  0  0  0  0  0
    5.7885    3.1459   -0.7458 H   0  0  0  0  0  0  0  0  0  0  0  0
    7.3150    2.9678    0.2051 H   0  0  0  0  0  0  0  0  0  0  0  0
    5.7347    3.1484    1.0630 H   0  0  0  0  0  0  0  0  0  0  0  0
    1.2732    1.4343    0.0187 C   0  0  0  0  0  0  0  0  0  0  0  0
    0.1825    2.0060   -0.0385 C   0  0  0  0  0  0  0  0  0  0  0  0
   -1.0419    2.7181   -0.0711 C   0  0  2  0  0  3  0  0  0  0  0  0
   -1.0643    4.1341   -0.1191 C   0  0  0  0  0  0  0  0  0  0  0  0
   -0.1076    4.6719   -0.1552 H   0  0  0  0  0  0  0  0  0  0  0  0
   -2.2848    4.8090   -0.1142 C   0  0  0  0  0  0  0  0  0  0  0  0
   -2.3106    5.9082   -0.1560 H   0  0  0  0  0  0  0  0  0  0  0  0
   -3.4747    4.0659   -0.0448 C   0  0  0  0  0  0  0  0  0  0  0  0
   -4.4592    4.5530   -0.0249 H   0  0  0  0  0  0  0  0  0  0  0  0
   -3.3944    2.6718    0.0057 C   0  0  0  0  0  0  0  0  0  0  0  0
   -4.2856    2.0347    0.0914 H   0  0  0  0  0  0  0  0  0  0  0  0
   -2.2168   -2.0154   -0.0253 N   0  0  0  0  0  2  0  0  0  0  0  0
   -2.2168    2.0154   -0.0253 N   0  0  0  0  0  2  0  0  0  0  0  0
    6.1688   -1.2960    0.1732 O   0  0  0  0  0  0  0  0  0  0  0  0
    6.1688    1.2960    0.1733 O   0  0  0  0  0  0  0  0  0  0  0  0
  1  2  1  0  0  0  0
  3  4  1  0  0  0  0
  3  1  1  0  0  0  0
  5  3  2  0  0  0  0
  6  5  1  0  0  0  0
  7  5  1  0  0  0  0
  7  9  2  0  0  0  0
  8  7  1  0  0  0  0
  9 10  1  0  0  0  0
  9 39  1  0  0  0  0
 10 11  3  0  0  0  0
 11 12  1  0  0  0  0
 12 19  2  0  0  0  0
 12 13  1  0  0  0  0
 13 15  2  0  0  0  0
 14 13  1  0  0  0  0
 15 16  1  0  0  0  0
 15 41  1  0  0  0  0
 16 42  1  0  0  0  0
 17 16  2  0  0  0  0
 18 17  1  0  0  0  0
 19 17  1  0  0  0  0
 20 41  1  0  0  0  0
 20 22  1  0  0  0  0
 20 21  1  0  0  0  0
 23 20  1  0  0  0  0
 24 26  1  0  0  0  0
 24 27  1  0  0  0  0
 25 24  1  0  0  0  0
 28 19  1  0  0  0  0
 29 28  3  0  0  0  0
 30 29  1  1  0  0  0
 30 40  1  0  0  0  0
 31 33  2  0  0  0  0
 31 30  1  0  0  0  0
 32 31  1  0  0  0  0
 33 35  1  0  0  0  0
 34 33  1  0  0  0  0
 35 36  1  0  0  0  0
 35 37  2  0  0  0  0
 37 38  1  0  0  0  0
 39  1  1  0  0  0  0
 40 37  1  0  0  0  0
 42 24  1  0  0  0  0
M  END
