1,2
 OpenBabel05122313053D

 32 33  0  0  0  0  0  0  0  0999 V2000
   -2.4139    0.7343    0.1359 N   0  0  0  0  0  2  0  0  0  0  0  0
    0.1889    1.0466    0.0099 N   0  0  0  0  0  2  0  0  0  0  0  0
    1.5191    1.0621   -0.2310 N   0  0  0  0  0  0  0  0  0  0  0  0
    4.7353    0.4963    1.1712 N   0  0  0  0  0  0  0  0  0  0  0  0
   -1.9485    2.0186    0.0217 C   0  0  0  0  0  0  0  0  0  0  0  0
   -2.8371    3.1128    0.0512 C   0  0  0  0  0  0  0  0  0  0  0  0
   -2.4440    4.1351   -0.0262 H   0  0  0  0  0  0  0  0  0  0  0  0
   -4.2096    2.8855    0.1810 C   0  0  0  0  0  0  0  0  0  0  0  0
   -4.9133    3.7306    0.2011 H   0  0  0  0  0  0  0  0  0  0  0  0
   -4.6715    1.5638    0.2849 C   0  0  0  0  0  0  0  0  0  0  0  0
   -5.7412    1.3334    0.3843 H   0  0  0  0  0  0  0  0  0  0  0  0
   -3.7398    0.5217    0.2589 C   0  0  0  0  0  0  0  0  0  0  0  0
   -4.0534   -0.5296    0.3326 H   0  0  0  0  0  0  0  0  0  0  0  0
   -0.5000    2.1685   -0.0985 C   0  0  0  0  0  0  0  0  0  0  0  0
    0.1729    3.4857   -0.3162 C   0  0  0  0  0  0  0  0  0  0  0  0
    1.1340    3.3115   -0.8394 H   0  0  0  0  0  0  0  0  0  0  0  0
    0.4066    3.9933    0.6442 H   0  0  0  0  0  0  0  0  0  0  0  0
   -0.4522    4.1686   -0.9208 H   0  0  0  0  0  0  0  0  0  0  0  0
    2.3816    0.7203    0.6769 C   0  0  0  0  0  0  0  0  0  0  0  0
    2.0676    0.4548    2.1152 C   0  0  0  0  0  0  0  0  0  0  0  0
    1.1247    0.9361    2.4295 H   0  0  0  0  0  0  0  0  0  0  0  0
    2.9216    0.7767    2.7393 H   0  0  0  0  0  0  0  0  0  0  0  0
    1.9557   -0.6395    2.2695 H   0  0  0  0  0  0  0  0  0  0  0  0
    3.7899    0.5701    0.2130 C   0  0  0  0  0  0  0  0  0  0  0  0
    4.0878    0.4837   -1.1655 C   0  0  0  0  0  0  0  0  0  0  0  0
    3.2690    0.5269   -1.8975 H   0  0  0  0  0  0  0  0  0  0  0  0
    5.4226    0.3256   -1.5494 C   0  0  0  0  0  0  0  0  0  0  0  0
    5.6903    0.2473   -2.6140 H   0  0  0  0  0  0  0  0  0  0  0  0
    6.4105    0.2565   -0.5539 C   0  0  0  0  0  0  0  0  0  0  0  0
    7.4727    0.1289   -0.8104 H   0  0  0  0  0  0  0  0  0  0  0  0
    6.0102    0.3448    0.7898 C   0  0  0  0  0  0  0  0  0  0  0  0
    6.7598    0.2880    1.5991 H   0  0  0  0  0  0  0  0  0  0  0  0
  1 12  1  0  0  0  0
  3  2  1  0  0  0  0
  3 19  2  0  0  0  0
  5  6  1  0  0  0  0
  5  1  1  0  0  0  0
  6  8  2  0  0  0  0
  7  6  1  0  0  0  0
  8  9  1  0  0  0  0
  8 10  1  0  0  0  0
 10 11  1  0  0  0  0
 12 10  2  0  0  0  0
 12 13  1  0  0  0  0
 14  2  1  0  0  0  0
 14  5  2  0  0  0  0
 15 14  1  0  0  0  0
 15 17  1  0  0  0  0
 16 15  1  0  0  0  0
 18 15  1  0  0  0  0
 19 20  1  0  0  0  0
 20 23  1  0  0  0  0
 20 21  1  0  0  0  0
 20 22  1  0  0  0  0
 24 19  1  0  0  0  0
 24  4  2  0  0  0  0
 25 24  1  0  0  0  0
 26 25  1  0  0  0  0
 27 25  2  0  0  0  0
 27 29  1  0  0  0  0
 28 27  1  0  0  0  0
 29 31  2  0  0  0  0
 30 29  1  0  0  0  0
 31  4  1  0  0  0  0
 31 32  1  0  0  0  0
M  END
