1,2
 OpenBabel05122313053D

 28 30  0  0  1  0  0  0  0  0999 V2000
   -2.0978   -0.0888   -0.4153 N   0  0  0  0  0  2  0  0  0  0  0  0
    0.0566   -0.1151    1.1813 N   0  0  0  0  0  2  0  0  0  0  0  0
   -3.1241   -0.0414   -1.2657 C   0  0  0  0  0  0  0  0  0  0  0  0
   -2.8887    0.2112   -2.3123 H   0  0  0  0  0  0  0  0  0  0  0  0
   -4.4531   -0.3004   -0.8599 C   0  0  0  0  0  0  0  0  0  0  0  0
   -5.2678   -0.2484   -1.5959 H   0  0  0  0  0  0  0  0  0  0  0  0
   -4.6982   -0.6187    0.4699 C   0  0  0  0  0  0  0  0  0  0  0  0
   -5.7223   -0.8276    0.8176 H   0  0  0  0  0  0  0  0  0  0  0  0
   -3.6273   -0.6815    1.4040 C   0  0  0  0  0  0  0  0  0  0  0  0
   -3.7899   -1.0079    2.7786 C   0  0  0  0  0  0  0  0  0  0  0  0
   -4.7935   -1.2274    3.1703 H   0  0  0  0  0  0  0  0  0  0  0  0
   -2.6657   -1.0395    3.5991 C   0  0  0  0  0  0  0  0  0  0  0  0
   -2.7826   -1.2849    4.6664 H   0  0  0  0  0  0  0  0  0  0  0  0
   -1.3687   -0.7599    3.1133 C   0  0  0  0  0  0  0  0  0  0  0  0
   -0.5132   -0.7868    3.8024 H   0  0  0  0  0  0  0  0  0  0  0  0
   -1.1469   -0.4336    1.7579 C   0  0  0  0  0  0  0  0  0  0  0  0
   -2.3121   -0.3977    0.8965 C   0  0  1  0  0  3  0  0  0  0  0  0
    1.2507   -0.3004    1.9053 C   0  0  0  0  0  0  0  0  0  0  0  0
    1.6830   -1.5912    2.3025 C   0  0  0  0  0  0  0  0  0  0  0  0
    1.0289   -2.4525    2.0985 H   0  0  0  0  0  0  0  0  0  0  0  0
    2.9275   -1.7723    2.9213 C   0  0  0  0  0  0  0  0  0  0  0  0
    3.2482   -2.7858    3.2081 H   0  0  0  0  0  0  0  0  0  0  0  0
    3.7710   -0.6731    3.1619 C   0  0  0  0  0  0  0  0  0  0  0  0
    4.7496   -0.8183    3.6434 H   0  0  0  0  0  0  0  0  0  0  0  0
    3.3451    0.6132    2.7914 C   0  0  0  0  0  0  0  0  0  0  0  0
    3.9859    1.4857    2.9946 H   0  0  0  0  0  0  0  0  0  0  0  0
    2.0961    0.7996    2.1791 C   0  0  0  0  0  0  0  0  0  0  0  0
    1.7503    1.8061    1.9003 H   0  0  0  0  0  0  0  0  0  0  0  0
  2 16  1  0  0  0  0
  2 18  1  0  0  0  0
  3  5  2  0  0  0  0
  3  1  1  0  0  0  0
  4  3  1  0  0  0  0
  5  7  1  0  0  0  0
  6  5  1  0  0  0  0
  7  8  1  0  0  0  0
  7  9  2  0  0  0  0
  9 10  1  0  0  0  0
 10 11  1  0  0  0  0
 10 12  2  0  0  0  0
 12 13  1  0  0  0  0
 14 12  1  0  0  0  0
 14 15  1  0  0  0  0
 16 14  2  0  0  0  0
 17  1  1  6  0  0  0
 17  9  1  0  0  0  0
 17 16  1  0  0  0  0
 18 27  2  0  0  0  0
 18 19  1  0  0  0  0
 19 21  2  0  0  0  0
 20 19  1  0  0  0  0
 21 23  1  0  0  0  0
 21 22  1  0  0  0  0
 23 24  1  0  0  0  0
 25 26  1  0  0  0  0
 25 23  2  0  0  0  0
 27 25  1  0  0  0  0
 28 27  1  0  0  0  0
M  END
