1,2
 OpenBabel05122313053D

 34 36  0  0  0  0  0  0  0  0999 V2000
   -1.2745   -1.6799   -0.7955 N   0  0  0  0  0  2  0  0  0  0  0  0
    1.2406   -0.7974   -0.4398 N   0  0  0  0  0  2  0  0  0  0  0  0
   -2.5484   -2.0490   -0.9490 C   0  0  0  0  0  0  0  0  0  0  0  0
   -3.3108   -1.2620   -0.8302 H   0  0  0  0  0  0  0  0  0  0  0  0
   -2.9136   -3.3802   -1.2531 C   0  0  0  0  0  0  0  0  0  0  0  0
   -3.9756   -3.6409   -1.3651 H   0  0  0  0  0  0  0  0  0  0  0  0
   -1.9144   -4.3336   -1.4058 C   0  0  0  0  0  0  0  0  0  0  0  0
   -2.1683   -5.3790   -1.6427 H   0  0  0  0  0  0  0  0  0  0  0  0
   -0.5454   -3.9725   -1.2641 C   0  0  0  0  0  0  0  0  0  0  0  0
    0.5387   -4.8794   -1.4245 C   0  0  0  0  0  3  0  0  0  0  0  0
    0.3355   -5.9323   -1.6672 H   0  0  0  0  0  0  0  0  0  0  0  0
    1.8396   -4.4053   -1.2747 C   0  0  0  0  0  0  0  0  0  0  0  0
    2.6848   -5.0999   -1.4023 H   0  0  0  0  0  0  0  0  0  0  0  0
    2.1205   -3.0570   -0.9588 C   0  0  0  0  0  0  0  0  0  0  0  0
    3.1626   -2.7245   -0.8454 H   0  0  0  0  0  0  0  0  0  0  0  0
    1.0835   -2.1162   -0.7712 C   0  0  0  0  0  0  0  0  0  0  0  0
   -0.2738   -2.5964   -0.9448 C   0  0  0  0  0  0  0  0  0  0  0  0
    2.5487   -0.2546   -0.4115 C   0  0  0  0  0  0  0  0  0  0  0  0
    3.2345   -0.1231    0.8256 C   0  0  0  0  0  0  0  0  0  0  0  0
    4.5050    0.4827    0.8415 C   0  0  0  0  0  0  0  0  0  0  0  0
    5.0385    0.5816    1.8006 H   0  0  0  0  0  0  0  0  0  0  0  0
    5.0963    0.9496   -0.3417 C   0  0  0  0  0  0  0  0  0  0  0  0
    6.0903    1.4215   -0.3142 H   0  0  0  0  0  0  0  0  0  0  0  0
    4.4195    0.8041   -1.5615 C   0  0  0  0  0  0  0  0  0  0  0  0
    4.8834    1.1616   -2.4947 H   0  0  0  0  0  0  0  0  0  0  0  0
    3.1487    0.1994   -1.6196 C   0  0  0  0  0  0  0  0  0  0  0  0
    2.5972   -0.6446    2.0848 C   0  0  0  0  0  0  0  0  0  0  0  0
    3.2133   -0.4236    2.9775 H   0  0  0  0  0  0  0  0  0  0  0  0
    2.4438   -1.7428    2.0330 H   0  0  0  0  0  0  0  0  0  0  0  0
    1.5882   -0.2110    2.2368 H   0  0  0  0  0  0  0  0  0  0  0  0
    2.4221    0.0265   -2.9279 C   0  0  0  0  0  0  0  0  0  0  0  0
    2.3046   -1.0490   -3.1789 H   0  0  0  0  0  0  0  0  0  0  0  0
    2.9644    0.5167   -3.7589 H   0  0  0  0  0  0  0  0  0  0  0  0
    1.3922    0.4391   -2.8816 H   0  0  0  0  0  0  0  0  0  0  0  0
  2 18  1  0  0  0  0
  3  4  1  0  0  0  0
  3  1  1  0  0  0  0
  5  3  2  0  0  0  0
  6  5  1  0  0  0  0
  7  9  2  0  0  0  0
  7  5  1  0  0  0  0
  8  7  1  0  0  0  0
  9 17  1  0  0  0  0
 10 12  1  0  0  0  0
 10  9  1  0  0  0  0
 11 10  1  0  0  0  0
 12 14  2  0  0  0  0
 13 12  1  0  0  0  0
 14 15  1  0  0  0  0
 14 16  1  0  0  0  0
 16  2  1  0  0  0  0
 17  1  1  0  0  0  0
 17 16  2  0  0  0  0
 18 19  1  0  0  0  0
 19 20  2  0  0  0  0
 19 27  1  0  0  0  0
 20 21  1  0  0  0  0
 22 23  1  0  0  0  0
 22 20  1  0  0  0  0
 24 22  2  0  0  0  0
 25 24  1  0  0  0  0
 26 24  1  0  0  0  0
 26 18  2  0  0  0  0
 27 30  1  0  0  0  0
 27 28  1  0  0  0  0
 29 27  1  0  0  0  0
 31 34  1  0  0  0  0
 31 26  1  0  0  0  0
 32 31  1  0  0  0  0
 33 31  1  0  0  0  0
M  END
