13,14
 OpenBabel05122313053D

 26 26  0  0  0  0  0  0  0  0999 V2000
    2.1309    1.0784   -1.1705 S   0  0  0  0  0  0  0  0  0  0  0  0
   -2.9615    0.3981   -0.0335 S   0  0  0  0  0  0  0  0  0  0  0  0
    4.7733    0.9467   -1.4862 F   0  0  0  0  0  0  0  0  0  0  0  0
    4.1189    0.1996    0.4575 F   0  0  0  0  0  0  0  0  0  0  0  0
    4.1649    2.3443    0.0702 F   0  0  0  0  0  0  0  0  0  0  0  0
   -4.2683    1.6540   -1.9919 F   0  0  0  0  0  0  0  0  0  0  0  0
   -2.9734    2.9801   -0.8415 F   0  0  0  0  0  0  0  0  0  0  0  0
   -2.1013    1.5736   -2.2701 F   0  0  0  0  0  0  0  0  0  0  0  0
    1.9360    2.4276   -1.7368 O   0  0  0  0  0  0  0  0  0  0  0  0
    2.2211   -0.1146   -2.0683 O   0  0  0  0  0  0  0  0  0  0  0  0
   -3.9582    0.7751    0.9934 O   0  0  0  0  0  0  0  0  0  0  0  0
   -3.1528   -0.8430   -0.8271 O   0  0  0  0  0  0  0  0  0  0  0  0
    1.1440    0.7153    0.0783 N   0  0  0  0  0  2  0  0  0  0  0  0
   -1.4251    0.4430    0.4917 N   0  0  0  0  0  2  0  0  0  0  0  0
    3.9141    1.1490   -0.4847 C   0  0  0  0  0  0  0  0  0  0  0  0
   -3.0935    1.7568   -1.3613 C   0  0  0  0  0  0  0  0  0  0  0  0
    0.5359    1.7578    0.8378 C   0  0  0  0  0  0  0  0  0  0  0  0
    1.2126    2.8664    1.3734 C   0  0  0  0  0  0  0  0  0  0  0  0
    0.5192    3.8063    2.1524 C   0  0  0  0  0  0  0  0  0  0  0  0
   -0.8473    3.6329    2.4168 C   0  0  0  0  0  0  0  0  0  0  0  0
   -1.5368    2.5268    1.8968 C   0  0  0  0  0  0  0  0  0  0  0  0
   -0.8545    1.5951    1.0921 C   0  0  0  0  0  0  0  0  0  0  0  0
    2.2816    3.0023    1.1687 H   0  0  0  0  0  0  0  0  0  0  0  0
    1.0596    4.6725    2.5621 H   0  0  0  0  0  0  0  0  0  0  0  0
   -1.3878    4.3604    3.0407 H   0  0  0  0  0  0  0  0  0  0  0  0
   -2.6074    2.3810    2.0916 H   0  0  0  0  0  0  0  0  0  0  0  0
  1 15  1  0  0  0  0
  1 13  1  0  0  0  0
  2 14  1  0  0  0  0
  2 11  2  0  0  0  0
  3 15  1  0  0  0  0
  6 16  1  0  0  0  0
  8 16  1  0  0  0  0
  9  1  2  0  0  0  0
 10  1  2  0  0  0  0
 12  2  2  0  0  0  0
 13 17  1  0  0  0  0
 14 22  1  0  0  0  0
 15  5  1  0  0  0  0
 15  4  1  0  0  0  0
 16  7  1  0  0  0  0
 16  2  1  0  0  0  0
 17 22  2  0  0  0  0
 17 18  1  0  0  0  0
 18 19  2  0  0  0  0
 19 20  1  0  0  0  0
 19 24  1  0  0  0  0
 20 25  1  0  0  0  0
 21 26  1  0  0  0  0
 21 20  2  0  0  0  0
 22 21  1  0  0  0  0
 23 18  1  0  0  0  0
M  END
