1,2
 OpenBabel05122313053D

 21 21  0  0  0  0  0  0  0  0999 V2000
    1.7272    0.5496   -0.0069 N   0  0  0  0  0  2  0  0  0  0  0  0
   -0.3572   -1.1760   -0.0043 N   0  0  0  0  0  2  0  0  0  0  0  0
    2.9283    1.1755    0.0043 C   0  0  0  0  0  3  0  0  0  0  0  0
    3.9828    0.2323    0.0547 C   0  0  0  0  0  0  0  0  0  0  0  0
    5.0555    0.4593    0.0734 H   0  0  0  0  0  0  0  0  0  0  0  0
    3.3805   -1.0411    0.0753 C   0  0  0  0  0  0  0  0  0  0  0  0
    3.8806   -2.0167    0.1137 H   0  0  0  0  0  0  0  0  0  0  0  0
    1.9824   -0.8146    0.0367 C   0  0  0  0  0  0  0  0  0  0  0  0
    0.8528   -1.6844    0.0341 C   0  0  0  0  0  0  0  0  0  0  0  0
    1.0037   -2.7836    0.0633 H   0  0  0  0  0  0  0  0  0  0  0  0
   -1.5422   -2.0257   -0.0137 C   0  0  0  0  0  0  0  0  0  0  0  0
   -1.2159   -3.0934   -0.0005 H   0  0  0  0  0  0  0  0  0  0  0  0
   -2.3819   -1.7576    1.2414 C   0  0  0  0  0  0  0  0  0  0  0  0
   -2.7124   -0.6987    1.2652 H   0  0  0  0  0  0  0  0  0  0  0  0
   -3.2858   -2.3992    1.2558 H   0  0  0  0  0  0  0  0  0  0  0  0
   -1.7962   -1.9576    2.1604 H   0  0  0  0  0  0  0  0  0  0  0  0
   -2.3425   -1.7756   -1.2977 C   0  0  0  0  0  0  0  0  0  0  0  0
   -3.2543   -2.4051   -1.3259 H   0  0  0  0  0  0  0  0  0  0  0  0
   -2.6562   -0.7120   -1.3512 H   0  0  0  0  0  0  0  0  0  0  0  0
   -1.7334   -1.9995   -2.1957 H   0  0  0  0  0  0  0  0  0  0  0  0
    2.9965    2.2716   -0.0246 H   0  0  0  0  0  0  0  0  0  0  0  0
  1  3  1  0  0  0  0
  1  8  1  0  0  0  0
  2  9  1  0  0  0  0
  3  4  1  0  0  0  0
  4  5  1  0  0  0  0
  4  6  2  0  0  0  0
  6  7  1  0  0  0  0
  8  6  1  0  0  0  0
  9  8  2  0  0  0  0
  9 10  1  0  0  0  0
 11  2  1  0  0  0  0
 11 12  1  0  0  0  0
 11 13  1  0  0  0  0
 13 15  1  0  0  0  0
 13 14  1  0  0  0  0
 13 16  1  0  0  0  0
 17 11  1  0  0  0  0
 18 17  1  0  0  0  0
 19 17  1  0  0  0  0
 20 17  1  0  0  0  0
 21  3  1  0  0  0  0
M  END
