4,5
 OpenBabel05122313053D

 34 35  0  0  1  0  0  0  0  0999 V2000
    3.2573    1.7876    1.3565 O   0  0  0  0  0  0  0  0  0  0  0  0
    2.2761    1.8037    1.1034 H   0  0  0  0  0  0  0  0  0  0  0  0
    7.2577   -0.2346   -0.3317 O   0  0  0  0  0  0  0  0  0  0  0  0
   -2.8786    1.0661   -0.1715 N   0  0  0  0  0  2  0  0  0  0  0  0
   -0.3077    1.2681    0.0185 N   0  0  0  0  0  2  0  0  0  0  0  0
   -0.2947    3.6079    0.2223 N   0  0  0  0  0  0  0  0  0  0  0  0
    0.7237    3.6017    0.1477 H   0  0  0  0  0  0  0  0  0  0  0  0
   -0.7833    4.4984    0.2240 H   0  0  0  0  0  0  0  0  0  0  0  0
    1.0533    1.3175    0.0920 N   0  0  0  0  0  0  0  0  0  0  0  0
   -4.1835    0.8718   -0.4381 C   0  0  0  0  0  3  0  0  0  0  0  0
   -4.4964   -0.1693   -0.5916 H   0  0  0  0  0  0  0  0  0  0  0  0
   -5.0942    1.9300   -0.5320 C   0  0  0  0  0  0  0  0  0  0  0  0
   -6.1510    1.7192   -0.7465 H   0  0  0  0  0  0  0  0  0  0  0  0
   -4.6280    3.2416   -0.3601 C   0  0  0  0  0  0  0  0  0  0  0  0
   -5.3157    4.0969   -0.4268 H   0  0  0  0  0  0  0  0  0  0  0  0
   -3.2643    3.4478   -0.1255 C   0  0  0  0  0  0  0  0  0  0  0  0
   -2.8744    4.4703   -0.0233 H   0  0  0  0  0  0  0  0  0  0  0  0
   -2.4026    2.3402   -0.0437 C   0  0  0  0  0  0  0  0  0  0  0  0
   -0.9454    2.4297    0.0943 C   0  0  1  0  0  3  0  0  0  0  0  0
    1.7263    0.5052   -0.7048 C   0  0  0  0  0  0  0  0  0  0  0  0
    1.1683   -0.0749   -1.4684 H   0  0  0  0  0  0  0  0  0  0  0  0
    3.1413    0.3648   -0.5978 C   0  0  0  0  0  0  0  0  0  0  0  0
    3.8564   -0.4639   -1.5135 C   0  0  0  0  0  0  0  0  0  0  0  0
    3.2959   -0.9558   -2.3236 H   0  0  0  0  0  0  0  0  0  0  0  0
    5.2207   -0.6471   -1.4062 C   0  0  0  0  0  0  0  0  0  0  0  0
    5.7841   -1.2768   -2.1077 H   0  0  0  0  0  0  0  0  0  0  0  0
    5.9361    0.0016   -0.3547 C   0  0  0  0  0  0  0  0  0  0  0  0
    5.2648    0.8205    0.5721 C   0  0  0  0  0  0  0  0  0  0  0  0
    5.7841    1.3295    1.3931 H   0  0  0  0  0  0  0  0  0  0  0  0
    3.8765    1.0125    0.4589 C   0  0  0  0  0  0  0  0  0  0  0  0
    8.0593    0.3731    0.6770 C   0  0  0  0  0  0  0  0  0  0  0  0
    9.0949    0.0386    0.4893 H   0  0  0  0  0  0  0  0  0  0  0  0
    7.7458    0.0480    1.6921 H   0  0  0  0  0  0  0  0  0  0  0  0
    8.0135    1.4814    0.6152 H   0  0  0  0  0  0  0  0  0  0  0  0
  2  1  1  0  0  0  0
  3 31  1  0  0  0  0
  4 18  1  0  0  0  0
  5  9  1  0  0  0  0
  6  8  1  0  0  0  0
  7  6  1  0  0  0  0
 10  4  1  0  0  0  0
 11 10  1  0  0  0  0
 12 10  1  0  0  0  0
 12 14  2  0  0  0  0
 13 12  1  0  0  0  0
 14 16  1  0  0  0  0
 15 14  1  0  0  0  0
 16 18  2  0  0  0  0
 16 17  1  0  0  0  0
 18 19  1  0  0  0  0
 19  5  1  6  0  0  0
 19  6  1  0  0  0  0
 20 22  1  0  0  0  0
 20  9  2  0  0  0  0
 21 20  1  0  0  0  0
 22 30  1  0  0  0  0
 23 25  1  0  0  0  0
 23 22  2  0  0  0  0
 24 23  1  0  0  0  0
 25 27  2  0  0  0  0
 26 25  1  0  0  0  0
 27  3  1  0  0  0  0
 27 28  1  0  0  0  0
 28 29  1  0  0  0  0
 30 28  2  0  0  0  0
 30  1  1  0  0  0  0
 31 33  1  0  0  0  0
 32 31  1  0  0  0  0
 34 31  1  0  0  0  0
M  END
