5,8
 OpenBabel05122313053D

 34 35  0  0  0  0  0  0  0  0999 V2000
   -2.6500    2.0397   -0.0522 O   0  0  0  0  0  0  0  0  0  0  0  0
   -2.9876   -0.8872    0.2573 O   0  0  0  0  0  0  0  0  0  0  0  0
    0.0627    2.7672   -0.9908 N   0  0  0  0  0  0  0  0  0  0  0  0
    1.3103    3.2705   -1.1919 N   0  0  0  0  0  0  0  0  0  0  0  0
    1.3879    1.0407   -0.8519 N   0  0  0  0  0  2  0  0  0  0  0  0
   -1.1616   -2.8829   -0.4534 N   0  0  0  0  0  0  0  0  0  0  0  0
   -0.5654   -3.1060   -1.6551 N   0  0  0  0  0  0  0  0  0  0  0  0
    0.8084   -1.9712   -0.2705 N   0  0  0  0  0  2  0  0  0  0  0  0
    0.1137    1.4316   -0.7911 C   0  0  0  0  0  3  0  0  0  0  0  0
   -0.7665    0.8186   -0.5692 H   0  0  0  0  0  0  0  0  0  0  0  0
    2.0832    2.1926   -1.0988 C   0  0  0  0  0  0  0  0  0  0  0  0
    3.1775    2.2121   -1.1757 H   0  0  0  0  0  0  0  0  0  0  0  0
   -1.0939    3.6471   -0.8633 C   0  0  0  0  0  0  0  0  0  0  0  0
   -1.6875    3.6406   -1.8016 H   0  0  0  0  0  0  0  0  0  0  0  0
   -0.6894    4.6647   -0.7116 H   0  0  0  0  0  0  0  0  0  0  0  0
   -1.9752    3.2314    0.3063 C   0  0  0  0  0  0  0  0  0  0  0  0
   -1.3419    3.0762    1.2126 H   0  0  0  0  0  0  0  0  0  0  0  0
   -2.7020    4.0500    0.5315 H   0  0  0  0  0  0  0  0  0  0  0  0
   -3.2579    1.3641    1.0365 C   0  0  0  0  0  0  0  0  0  0  0  0
   -4.0147    2.0179    1.5348 H   0  0  0  0  0  0  0  0  0  0  0  0
   -2.4931    1.0724    1.7964 H   0  0  0  0  0  0  0  0  0  0  0  0
   -3.9498    0.1243    0.5064 C   0  0  0  0  0  0  0  0  0  0  0  0
   -4.7029   -0.2311    1.2513 H   0  0  0  0  0  0  0  0  0  0  0  0
   -4.4973    0.3978   -0.4267 H   0  0  0  0  0  0  0  0  0  0  0  0
   -3.4566   -1.9720   -0.5149 C   0  0  0  0  0  0  0  0  0  0  0  0
   -3.4392   -1.7247   -1.6039 H   0  0  0  0  0  0  0  0  0  0  0  0
   -4.5046   -2.2478   -0.2472 H   0  0  0  0  0  0  0  0  0  0  0  0
   -2.5666   -3.1821   -0.2317 C   0  0  0  0  0  0  0  0  0  0  0  0
   -2.6833   -3.4948    0.8244 H   0  0  0  0  0  0  0  0  0  0  0  0
   -2.8365   -4.0292   -0.8895 H   0  0  0  0  0  0  0  0  0  0  0  0
   -0.3412   -2.1966    0.3701 C   0  0  0  0  0  3  0  0  0  0  0  0
   -0.5791   -1.8180    1.3739 H   0  0  0  0  0  0  0  0  0  0  0  0
    0.6299   -2.5453   -1.5002 C   0  0  0  0  0  0  0  0  0  0  0  0
    1.3995   -2.5427   -2.2813 H   0  0  0  0  0  0  0  0  0  0  0  0
  1 16  1  0  0  0  0
  1 19  1  0  0  0  0
  2 22  1  0  0  0  0
  3 13  1  0  0  0  0
  3  9  1  0  0  0  0
  4 11  2  0  0  0  0
  4  3  1  0  0  0  0
  5  9  1  0  0  0  0
  6 28  1  0  0  0  0
  6 31  1  0  0  0  0
  7 33  2  0  0  0  0
  7  6  1  0  0  0  0
  8 31  1  0  0  0  0
  9 10  1  0  0  0  0
 11  5  1  0  0  0  0
 12 11  1  0  0  0  0
 13 15  1  0  0  0  0
 13 16  1  0  0  0  0
 14 13  1  0  0  0  0
 16 18  1  0  0  0  0
 16 17  1  0  0  0  0
 19 20  1  0  0  0  0
 19 21  1  0  0  0  0
 22 19  1  0  0  0  0
 22 23  1  0  0  0  0
 24 22  1  0  0  0  0
 25 27  1  0  0  0  0
 25 28  1  0  0  0  0
 25  2  1  0  0  0  0
 26 25  1  0  0  0  0
 28 29  1  0  0  0  0
 30 28  1  0  0  0  0
 31 32  1  0  0  0  0
 33  8  1  0  0  0  0
 34 33  1  0  0  0  0
M  END
