2,5
 OpenBabel05122313053D

 27 28  0  0  0  0  0  0  0  0999 V2000
   -1.3771   -0.5504   -2.1912 O   0  0  0  0  0  0  0  0  0  0  0  0
    0.7400   -1.8529   -0.9406 N   0  0  0  0  0  0  0  0  0  0  0  0
    0.9603   -1.8245   -1.9482 H   0  0  0  0  0  0  0  0  0  0  0  0
    1.4138   -2.4859   -0.4736 H   0  0  0  0  0  0  0  0  0  0  0  0
    0.7074    1.2030   -1.6888 N   0  0  0  0  0  0  0  0  0  0  0  0
    1.3750    1.9874   -1.5840 H   0  0  0  0  0  0  0  0  0  0  0  0
    0.9099    0.7105   -2.5721 H   0  0  0  0  0  0  0  0  0  0  0  0
   -1.6799   -1.5626   -1.2823 C   0  0  0  0  0  0  0  0  0  0  0  0
   -0.6049   -2.2156   -0.6398 C   0  0  0  0  0  0  0  0  0  0  0  0
   -0.8682   -3.1732    0.3536 C   0  0  0  0  0  0  0  0  0  0  0  0
   -0.0159   -3.6145    0.8918 H   0  0  0  0  0  0  0  0  0  0  0  0
   -2.1871   -3.5275    0.6651 C   0  0  0  0  0  0  0  0  0  0  0  0
   -2.3804   -4.2811    1.4424 H   0  0  0  0  0  0  0  0  0  0  0  0
   -3.2519   -2.9338   -0.0290 C   0  0  0  0  0  0  0  0  0  0  0  0
   -4.2896   -3.2313    0.1826 H   0  0  0  0  0  0  0  0  0  0  0  0
   -2.9974   -1.9549   -1.0025 C   0  0  0  0  0  0  0  0  0  0  0  0
   -3.8265   -1.4966   -1.5558 H   0  0  0  0  0  0  0  0  0  0  0  0
   -1.7037    0.7495   -1.8095 C   0  0  0  0  0  0  0  0  0  0  0  0
   -0.6403    1.6427   -1.5536 C   0  0  0  0  0  0  0  0  0  0  0  0
   -0.9159    2.9354   -1.0787 C   0  0  0  0  0  0  0  0  0  0  0  0
   -0.0689    3.5861   -0.8148 H   0  0  0  0  0  0  0  0  0  0  0  0
   -2.2402    3.3611   -0.9136 C   0  0  0  0  0  0  0  0  0  0  0  0
   -2.4446    4.3769   -0.5446 H   0  0  0  0  0  0  0  0  0  0  0  0
   -3.2971    2.4965   -1.2355 C   0  0  0  0  0  0  0  0  0  0  0  0
   -4.3403    2.8327   -1.1408 H   0  0  0  0  0  0  0  0  0  0  0  0
   -3.0285    1.1935   -1.6844 C   0  0  0  0  0  0  0  0  0  0  0  0
   -3.8530    0.5185   -1.9446 H   0  0  0  0  0  0  0  0  0  0  0  0
  1 18  1  0  0  0  0
  1  8  1  0  0  0  0
  2  9  1  0  0  0  0
  2  4  1  0  0  0  0
  3  2  1  0  0  0  0
  5  6  1  0  0  0  0
  5 19  1  0  0  0  0
  7  5  1  0  0  0  0
  8 16  2  0  0  0  0
  8  9  1  0  0  0  0
  9 10  2  0  0  0  0
 10 12  1  0  0  0  0
 10 11  1  0  0  0  0
 12 13  1  0  0  0  0
 14 15  1  0  0  0  0
 14 12  2  0  0  0  0
 16 14  1  0  0  0  0
 17 16  1  0  0  0  0
 18 26  2  0  0  0  0
 18 19  1  0  0  0  0
 19 20  2  0  0  0  0
 20 22  1  0  0  0  0
 20 21  1  0  0  0  0
 22 23  1  0  0  0  0
 24 25  1  0  0  0  0
 24 22  2  0  0  0  0
 26 24  1  0  0  0  0
 27 26  1  0  0  0  0
M  END
