2,3
 OpenBabel05122313053D

 31 32  0  0  0  0  0  0  0  0999 V2000
   -1.9910    0.4284    2.1223 O   0  0  0  0  0  0  0  0  0  0  0  0
    2.5016    0.4888   -0.0281 N   0  0  0  0  0  2  0  0  0  0  0  0
    0.0335    1.2184    0.3839 N   0  0  0  0  0  2  0  0  0  0  0  0
   -1.3103    1.5076    0.2191 N   0  0  0  0  0  0  0  0  0  0  0  0
   -1.5343    1.6997   -0.7669 H   0  0  0  0  0  0  0  0  0  0  0  0
    2.2726    1.8362    0.0818 C   0  0  0  0  0  0  0  0  0  0  0  0
    3.3357    2.7606    0.0465 C   0  0  0  0  0  0  0  0  0  0  0  0
    3.1279    3.8350    0.1337 H   0  0  0  0  0  0  0  0  0  0  0  0
    4.6467    2.3008   -0.0985 C   0  0  0  0  0  0  0  0  0  0  0  0
    5.4863    3.0103   -0.1260 H   0  0  0  0  0  0  0  0  0  0  0  0
    4.8675    0.9183   -0.2117 C   0  0  0  0  0  0  0  0  0  0  0  0
    5.8785    0.5063   -0.3366 H   0  0  0  0  0  0  0  0  0  0  0  0
    3.7726    0.0520   -0.1720 C   0  0  0  0  0  0  0  0  0  0  0  0
    3.8994   -1.0360   -0.2663 H   0  0  0  0  0  0  0  0  0  0  0  0
    0.8671    2.2239    0.2095 C   0  0  0  0  0  0  0  0  0  0  0  0
   -2.2545    0.8250    0.9953 C   0  0  0  0  0  0  0  0  0  0  0  0
   -3.5876    0.6774    0.3327 C   0  0  0  0  0  0  0  0  0  0  0  0
   -3.7094    0.4944   -1.0619 C   0  0  0  0  0  0  0  0  0  0  0  0
   -2.8101    0.4317   -1.6990 H   0  0  0  0  0  0  0  0  0  0  0  0
   -4.9764    0.3070   -1.6327 C   0  0  0  0  0  0  0  0  0  0  0  0
   -5.0674    0.1461   -2.7173 H   0  0  0  0  0  0  0  0  0  0  0  0
   -6.1213    0.3042   -0.8200 C   0  0  0  0  0  0  0  0  0  0  0  0
   -7.1147    0.1599   -1.2715 H   0  0  0  0  0  0  0  0  0  0  0  0
   -5.9995    0.4665    0.5712 C   0  0  0  0  0  0  0  0  0  0  0  0
   -6.8966    0.4492    1.2084 H   0  0  0  0  0  0  0  0  0  0  0  0
   -4.7362    0.6408    1.1478 C   0  0  0  0  0  0  0  0  0  0  0  0
   -4.6108    0.7472    2.2355 H   0  0  0  0  0  0  0  0  0  0  0  0
    0.4155    3.6416    0.0717 C   0  0  0  0  0  0  0  0  0  0  0  0
    1.1264    4.3450    0.5442 H   0  0  0  0  0  0  0  0  0  0  0  0
    0.3346    3.9191   -1.0016 H   0  0  0  0  0  0  0  0  0  0  0  0
   -0.5829    3.7657    0.5305 H   0  0  0  0  0  0  0  0  0  0  0  0
  2  6  1  0  0  0  0
  4  3  1  0  0  0  0
  4 16  1  0  0  0  0
  5  4  1  0  0  0  0
  6 15  2  0  0  0  0
  7  6  1  0  0  0  0
  7  8  1  0  0  0  0
  9  7  2  0  0  0  0
 10  9  1  0  0  0  0
 11 13  2  0  0  0  0
 11  9  1  0  0  0  0
 12 11  1  0  0  0  0
 13  2  1  0  0  0  0
 14 13  1  0  0  0  0
 15  3  1  0  0  0  0
 16  1  2  0  0  0  0
 17 16  1  0  0  0  0
 17 26  1  0  0  0  0
 18 17  2  0  0  0  0
 19 18  1  0  0  0  0
 20 18  1  0  0  0  0
 20 22  2  0  0  0  0
 21 20  1  0  0  0  0
 22 24  1  0  0  0  0
 23 22  1  0  0  0  0
 24 26  2  0  0  0  0
 24 25  1  0  0  0  0
 26 27  1  0  0  0  0
 28 15  1  0  0  0  0
 28 31  1  0  0  0  0
 28 29  1  0  0  0  0
 30 28  1  0  0  0  0
M  END
