2,5
 OpenBabel05122313053D

 44 45  0  0  1  0  0  0  0  0999 V2000
    2.2006   -2.2798   -0.9196 O   0  0  0  0  0  0  0  0  0  0  0  0
    1.3951   -0.2124   -0.4768 N   0  0  0  0  0  2  0  0  0  0  0  0
   -1.1362   -1.5451    0.4369 C   0  0  2  0  0  3  0  0  0  0  0  0
   -2.1692   -2.3090    0.8916 O   0  0  0  0  0  0  0  0  0  0  0  0
   -1.3823   -0.2312    0.4647 N   0  0  0  0  0  2  0  0  0  0  0  0
    0.0133   -2.2096   -0.0201 C   0  0  0  0  0  0  0  0  0  0  0  0
    0.0185   -3.3042   -0.0272 H   0  0  0  0  0  0  0  0  0  0  0  0
    1.1582   -1.5295   -0.4636 C   0  0  0  0  0  0  0  0  0  0  0  0
    3.1640   -1.3625   -1.4686 C   0  0  0  0  0  0  0  0  0  0  0  0
    3.0467   -1.3424   -2.5744 H   0  0  0  0  0  0  0  0  0  0  0  0
    4.1758   -1.7377   -1.2251 H   0  0  0  0  0  0  0  0  0  0  0  0
    2.8082   -0.0056   -0.8266 C   0  0  2  0  0  0  0  0  0  0  0  0
    2.8989    0.8149   -1.5710 H   0  0  0  0  0  0  0  0  0  0  0  0
   -3.1352   -1.4055    1.4590 C   0  0  0  0  0  0  0  0  0  0  0  0
   -3.0121   -1.4017    2.5643 H   0  0  0  0  0  0  0  0  0  0  0  0
   -4.1461   -1.7830    1.2153 H   0  0  0  0  0  0  0  0  0  0  0  0
   -2.7915   -0.0363    0.8355 C   0  0  2  0  0  0  0  0  0  0  0  0
   -2.8755    0.7712    1.5949 H   0  0  0  0  0  0  0  0  0  0  0  0
    3.7052    0.3818    0.3985 C   0  0  0  0  0  0  0  0  0  0  0  0
    3.6624   -0.7131    1.4784 C   0  0  0  0  0  0  0  0  0  0  0  0
    4.2897   -0.4231    2.3458 H   0  0  0  0  0  0  0  0  0  0  0  0
    4.0366   -1.6878    1.1061 H   0  0  0  0  0  0  0  0  0  0  0  0
    2.6275   -0.8650    1.8455 H   0  0  0  0  0  0  0  0  0  0  0  0
    5.1485    0.5890   -0.0956 C   0  0  0  0  0  0  0  0  0  0  0  0
    5.7981    0.9236    0.7385 H   0  0  0  0  0  0  0  0  0  0  0  0
    5.1950    1.3645   -0.8887 H   0  0  0  0  0  0  0  0  0  0  0  0
    5.5935   -0.3418   -0.5028 H   0  0  0  0  0  0  0  0  0  0  0  0
    3.2010    1.7026    1.0005 C   0  0  0  0  0  0  0  0  0  0  0  0
    3.8489    2.0171    1.8440 H   0  0  0  0  0  0  0  0  0  0  0  0
    2.1680    1.6038    1.3890 H   0  0  0  0  0  0  0  0  0  0  0  0
    3.1973    2.5186    0.2491 H   0  0  0  0  0  0  0  0  0  0  0  0
   -3.7053    0.3700   -0.3705 C   0  0  0  0  0  0  0  0  0  0  0  0
   -3.2083    1.6991   -0.9606 C   0  0  0  0  0  0  0  0  0  0  0  0
   -3.8758    2.0328   -1.7812 H   0  0  0  0  0  0  0  0  0  0  0  0
   -2.1870    1.6005   -1.3777 H   0  0  0  0  0  0  0  0  0  0  0  0
   -3.1778    2.5020   -0.1960 H   0  0  0  0  0  0  0  0  0  0  0  0
   -5.1409    0.5700    0.1483 C   0  0  0  0  0  0  0  0  0  0  0  0
   -5.8041    0.9123   -0.6719 H   0  0  0  0  0  0  0  0  0  0  0  0
   -5.1757    1.3374    0.9498 H   0  0  0  0  0  0  0  0  0  0  0  0
   -5.5781   -0.3655    0.5531 H   0  0  0  0  0  0  0  0  0  0  0  0
   -3.6787   -0.7089   -1.4668 C   0  0  0  0  0  0  0  0  0  0  0  0
   -4.3159   -0.4047   -2.3221 H   0  0  0  0  0  0  0  0  0  0  0  0
   -4.0507   -1.6883   -1.1048 H   0  0  0  0  0  0  0  0  0  0  0  0
   -2.6487   -0.8572   -1.8490 H   0  0  0  0  0  0  0  0  0  0  0  0
  1  8  1  0  0  0  0
  2  8  1  0  0  0  0
  3  6  1  6  0  0  0
  3  5  1  0  0  0  0
  3  4  1  0  0  0  0
  4 14  1  0  0  0  0
  5 17  1  0  0  0  0
  7  6  1  0  0  0  0
  8  6  2  0  0  0  0
  9 11  1  0  0  0  0
  9  1  1  0  0  0  0
  9 12  1  0  0  0  0
 10  9  1  0  0  0  0
 12 13  1  6  0  0  0
 12  2  1  0  0  0  0
 12 19  1  0  0  0  0
 14 15  1  0  0  0  0
 16 14  1  0  0  0  0
 17 14  1  0  0  0  0
 17 18  1  1  0  0  0
 19 28  1  0  0  0  0
 19 20  1  0  0  0  0
 20 23  1  0  0  0  0
 20 21  1  0  0  0  0
 22 20  1  0  0  0  0
 24 19  1  0  0  0  0
 24 25  1  0  0  0  0
 26 24  1  0  0  0  0
 27 24  1  0  0  0  0
 28 30  1  0  0  0  0
 28 29  1  0  0  0  0
 31 28  1  0  0  0  0
 32 37  1  0  0  0  0
 32 17  1  0  0  0  0
 33 32  1  0  0  0  0
 33 36  1  0  0  0  0
 34 33  1  0  0  0  0
 35 33  1  0  0  0  0
 37 40  1  0  0  0  0
 37 39  1  0  0  0  0
 38 37  1  0  0  0  0
 41 43  1  0  0  0  0
 41 32  1  0  0  0  0
 42 41  1  0  0  0  0
 44 41  1  0  0  0  0
M  END
