1,2
 OpenBabel05122313053D

 38 41  0  0  1  0  0  0  0  0999 V2000
   -0.4618    0.8848    0.0864 N   0  0  0  0  0  2  0  0  0  0  0  0
    2.2202    1.0665    0.2012 N   0  0  0  0  0  2  0  0  0  0  0  0
   -2.3375   -0.2067    1.2373 C   0  0  0  0  0  0  0  0  0  0  0  0
   -1.7695   -1.1532    1.1710 H   0  0  0  0  0  0  0  0  0  0  0  0
   -2.0474    0.2756    2.1951 H   0  0  0  0  0  0  0  0  0  0  0  0
    1.5081    2.2267    0.0932 C   0  0  0  0  0  0  0  0  0  0  0  0
   -1.9342    0.7195    0.0632 C   0  0  1  0  0  0  0  0  0  0  0  0
    0.0631    2.0739    0.0496 C   0  0  0  0  0  0  0  0  0  0  0  0
   -0.5508    2.9885    0.0093 H   0  0  0  0  0  0  0  0  0  0  0  0
    2.1402    3.4833    0.0604 C   0  0  0  0  0  0  0  0  0  0  0  0
    1.5283    4.3927   -0.0268 H   0  0  0  0  0  0  0  0  0  0  0  0
    3.5649    1.1332    0.2737 C   0  0  0  0  0  0  0  0  0  0  0  0
    4.0954    0.1732    0.3491 H   0  0  0  0  0  0  0  0  0  0  0  0
   -2.7218    2.0417    0.1972 C   0  0  0  0  0  0  0  0  0  0  0  0
   -2.4682    2.7267   -0.6403 H   0  0  0  0  0  0  0  0  0  0  0  0
   -2.4472    2.5531    1.1458 H   0  0  0  0  0  0  0  0  0  0  0  0
   -4.2402    1.7658    0.1709 C   0  0  2  0  0  0  0  0  0  0  0  0
   -4.7749    2.7339    0.2719 H   0  0  0  0  0  0  0  0  0  0  0  0
   -4.6211    0.8351    1.3363 C   0  0  0  0  0  0  0  0  0  0  0  0
   -5.7158    0.6473    1.3288 H   0  0  0  0  0  0  0  0  0  0  0  0
   -4.3816    1.3176    2.3083 H   0  0  0  0  0  0  0  0  0  0  0  0
    4.2579    2.3485    0.2432 C   0  0  0  0  0  0  0  0  0  0  0  0
    5.3553    2.3453    0.3013 H   0  0  0  0  0  0  0  0  0  0  0  0
   -4.2044   -1.1650   -0.1422 C   0  0  0  0  0  0  0  0  0  0  0  0
   -3.6521   -2.1230   -0.2425 H   0  0  0  0  0  0  0  0  0  0  0  0
   -5.2882   -1.4065   -0.1711 H   0  0  0  0  0  0  0  0  0  0  0  0
   -3.8494   -0.4886    1.1965 C   0  0  1  0  0  0  0  0  0  0  0  0
   -4.1047   -1.1658    2.0384 H   0  0  0  0  0  0  0  0  0  0  0  0
   -2.3272    0.0588   -1.2848 C   0  0  0  0  0  0  0  0  0  0  0  0
   -2.0278    0.7322   -2.1141 H   0  0  0  0  0  0  0  0  0  0  0  0
   -1.7524   -0.8740   -1.4282 H   0  0  0  0  0  0  0  0  0  0  0  0
    3.5349    3.5474    0.1324 C   0  0  0  0  0  0  0  0  0  0  0  0
    4.0538    4.5165    0.1019 H   0  0  0  0  0  0  0  0  0  0  0  0
   -3.8402   -0.2227   -1.3061 C   0  0  2  0  0  0  0  0  0  0  0  0
   -4.0918   -0.7072   -2.2727 H   0  0  0  0  0  0  0  0  0  0  0  0
   -4.6148    1.0996   -1.1659 C   0  0  0  0  0  0  0  0  0  0  0  0
   -5.7091    0.9125   -1.2024 H   0  0  0  0  0  0  0  0  0  0  0  0
   -4.3732    1.7764   -2.0135 H   0  0  0  0  0  0  0  0  0  0  0  0
  2 12  1  0  0  0  0
  3  5  1  0  0  0  0
  4  3  1  0  0  0  0
  6  2  1  0  0  0  0
  7  1  1  1  0  0  0
  7 14  1  0  0  0  0
  7  3  1  0  0  0  0
  8  1  1  0  0  0  0
  8  6  2  0  0  0  0
  9  8  1  0  0  0  0
 10  6  1  0  0  0  0
 10 32  2  0  0  0  0
 11 10  1  0  0  0  0
 12 13  1  0  0  0  0
 14 16  1  0  0  0  0
 15 14  1  0  0  0  0
 17 14  1  0  0  0  0
 17 18  1  1  0  0  0
 17 19  1  0  0  0  0
 19 21  1  0  0  0  0
 20 19  1  0  0  0  0
 22 12  2  0  0  0  0
 22 23  1  0  0  0  0
 24 27  1  0  0  0  0
 25 24  1  0  0  0  0
 26 24  1  0  0  0  0
 27  3  1  0  0  0  0
 27 19  1  0  0  0  0
 27 28  1  1  0  0  0
 29  7  1  0  0  0  0
 30 29  1  0  0  0  0
 31 29  1  0  0  0  0
 32 22  1  0  0  0  0
 33 32  1  0  0  0  0
 34 35  1  6  0  0  0
 34 29  1  0  0  0  0
 34 36  1  0  0  0  0
 34 24  1  0  0  0  0
 36 17  1  0  0  0  0
 37 36  1  0  0  0  0
 38 36  1  0  0  0  0
M  END
