1,4
 OpenBabel05122313053D

 15 15  0  0  1  0  0  0  0  0999 V2000
    0.8726   -1.5830   -0.0169 N   0  0  0  0  0  2  0  0  0  0  0  0
    0.5149   -2.7710   -0.0169 O   0  0  0  0  0  1  0  0  0  0  0  0
    4.0919   -2.9779    0.1827 N   0  0  0  0  0  0  0  0  0  0  0  0
    1.3513    0.9987    0.0252 N   0  0  0  0  0  2  0  0  0  0  0  0
    2.7464    2.9556    0.0313 C   0  0  0  0  0  0  0  0  0  0  0  0
    2.8146    4.0518    0.0113 H   0  0  0  0  0  0  0  0  0  0  0  0
    1.4953    2.3381   -0.0075 C   0  0  0  0  0  3  0  0  0  0  0  0
    0.5652    2.9199   -0.0757 H   0  0  0  0  0  0  0  0  0  0  0  0
    2.1837   -1.2228    0.0483 C   0  0  1  0  0  3  0  0  0  0  0  0
    3.8959    2.1431    0.0840 C   0  0  0  0  0  0  0  0  0  0  0  0
    4.8984    2.5953    0.1093 H   0  0  0  0  0  0  0  0  0  0  0  0
    2.4574    0.1943    0.0563 C   0  0  0  0  0  0  0  0  0  0  0  0
    3.2073   -2.2057    0.1163 C   0  0  0  0  0  0  0  0  0  0  0  0
    3.7542    0.7567    0.0906 C   0  0  0  0  0  0  0  0  0  0  0  0
    4.6239    0.0850    0.1131 H   0  0  0  0  0  0  0  0  0  0  0  0
  1  9  1  0  0  0  0
  2  1  1  0  0  0  0
  4 12  1  0  0  0  0
  5 10  2  0  0  0  0
  6  5  1  0  0  0  0
  7  4  1  0  0  0  0
  7  5  1  0  0  0  0
  8  7  1  0  0  0  0
  9 12  1  0  0  0  0
  9 13  1  1  0  0  0
 10 14  1  0  0  0  0
 10 11  1  0  0  0  0
 12 14  2  0  0  0  0
 13  3  3  0  0  0  0
 14 15  1  0  0  0  0
M  END
