2,3
 OpenBabel05122313053D

 15 15  0  0  0  0  0  0  0  0999 V2000
    2.5378    0.1995    0.0739 C   0  0  0  0  0  0  0  0  0  0  0  0
    1.4215    0.9951    0.0455 N   0  0  0  0  0  2  0  0  0  0  0  0
    0.9546   -1.5733    0.0071 N   0  0  0  0  0  2  0  0  0  0  0  0
    3.2912   -2.1988    0.1345 C   0  0  0  0  0  0  0  0  0  0  0  0
    0.6007   -2.7655    0.0176 O   0  0  0  0  0  1  0  0  0  0  0  0
    4.1769   -2.9701    0.1991 N   0  0  0  0  0  0  0  0  0  0  0  0
    2.2702   -1.2149    0.0664 C   0  0  0  0  0  0  0  0  0  0  0  0
    1.5549    2.3389    0.0191 C   0  0  0  0  0  0  0  0  0  0  0  0
    0.6186    2.9105   -0.0456 H   0  0  0  0  0  0  0  0  0  0  0  0
    3.9579    2.1621    0.1099 C   0  0  0  0  0  0  0  0  0  0  0  0
    4.9560    2.6236    0.1373 H   0  0  0  0  0  0  0  0  0  0  0  0
    3.8288    0.7753    0.1103 C   0  0  0  0  0  0  0  0  0  0  0  0
    4.7038    0.1105    0.1307 H   0  0  0  0  0  0  0  0  0  0  0  0
    2.7999    2.9646    0.0613 C   0  0  0  0  0  0  0  0  0  0  0  0
    2.8583    4.0614    0.0470 H   0  0  0  0  0  0  0  0  0  0  0  0
  1 12  1  0  0  0  0
  2  1  1  0  0  0  0
  3  5  1  0  0  0  0
  3  7  1  0  0  0  0
  4  6  3  0  0  0  0
  7  1  2  0  0  0  0
  7  4  1  0  0  0  0
  8  2  1  0  0  0  0
  8 14  2  0  0  0  0
  9  8  1  0  0  0  0
 10 12  2  0  0  0  0
 10 11  1  0  0  0  0
 12 13  1  0  0  0  0
 14 10  1  0  0  0  0
 15 14  1  0  0  0  0
M  END
