1,2
 OpenBabel05122313053D

 36 38  0  0  0  0  0  0  0  0999 V2000
   -0.5892   -1.5968    0.5494 N   0  0  0  0  0  2  0  0  0  0  0  0
   -0.3742    1.5964    0.5549 N   0  0  0  0  0  2  0  0  0  0  0  0
    2.8710   -5.9393    0.1277 F   0  0  0  0  0  0  0  0  0  0  0  0
    3.6716    5.4049    0.1835 F   0  0  0  0  0  0  0  0  0  0  0  0
   -1.6242   -1.6466    1.3634 C   0  0  0  0  0  3  0  0  0  0  0  0
   -1.8788   -2.6418    1.7933 H   0  0  0  0  0  0  0  0  0  0  0  0
   -2.5070   -0.6014    1.7594 C   0  0  0  0  0  0  0  0  0  0  0  0
   -3.7231   -0.9258    2.4371 C   0  0  0  0  0  3  0  0  0  0  0  0
   -4.0623   -1.9534    2.6325 H   0  0  0  0  0  0  0  0  0  0  0  0
   -4.3852    0.2580    2.8223 C   0  0  0  0  0  0  0  0  0  0  0  0
   -5.3442    0.3216    3.3525 H   0  0  0  0  0  0  0  0  0  0  0  0
   -3.5688    1.3431    2.4444 C   0  0  0  0  0  0  0  0  0  0  0  0
   -3.7660    2.4061    2.6453 H   0  0  0  0  0  0  0  0  0  0  0  0
   -2.4074    0.8605    1.7637 C   0  0  0  0  0  0  0  0  0  0  0  0
   -1.3923    1.7788    1.3721 C   0  0  0  0  0  3  0  0  0  0  0  0
   -1.5098    2.7965    1.8087 H   0  0  0  0  0  0  0  0  0  0  0  0
    0.2554   -2.7162    0.4612 C   0  0  0  0  0  0  0  0  0  0  0  0
    0.7205   -3.1472   -0.8051 C   0  0  0  0  0  0  0  0  0  0  0  0
    0.3724   -2.6103   -1.6992 H   0  0  0  0  0  0  0  0  0  0  0  0
    1.5914   -4.2350   -0.9219 C   0  0  0  0  0  0  0  0  0  0  0  0
    1.9471   -4.5823   -1.9028 H   0  0  0  0  0  0  0  0  0  0  0  0
    2.0183   -4.8986    0.2372 C   0  0  0  0  0  0  0  0  0  0  0  0
    1.5834   -4.4952    1.5045 C   0  0  0  0  0  0  0  0  0  0  0  0
    1.9473   -5.0289    2.3945 H   0  0  0  0  0  0  0  0  0  0  0  0
    0.7042   -3.4078    1.6126 C   0  0  0  0  0  0  0  0  0  0  0  0
    0.3843   -3.0599    2.6059 H   0  0  0  0  0  0  0  0  0  0  0  0
    0.6158    2.5896    0.4786 C   0  0  0  0  0  0  0  0  0  0  0  0
    1.1619    3.1923    1.6382 C   0  0  0  0  0  0  0  0  0  0  0  0
    0.7981    2.8775    2.6275 H   0  0  0  0  0  0  0  0  0  0  0  0
    2.1891    4.1427    1.5435 C   0  0  0  0  0  0  0  0  0  0  0  0
    2.6277    4.6040    2.4402 H   0  0  0  0  0  0  0  0  0  0  0  0
    2.6768    4.4979    0.2809 C   0  0  0  0  0  0  0  0  0  0  0  0
    2.1544    3.9226   -0.8866 C   0  0  0  0  0  0  0  0  0  0  0  0
    2.5516    4.2332   -1.8641 H   0  0  0  0  0  0  0  0  0  0  0  0
    1.1339    2.9717   -0.7829 C   0  0  0  0  0  0  0  0  0  0  0  0
    0.7091    2.5065   -1.6840 H   0  0  0  0  0  0  0  0  0  0  0  0
  1  5  1  0  0  0  0
  2 15  1  0  0  0  0
  3 22  1  0  0  0  0
  4 32  1  0  0  0  0
  5  7  1  0  0  0  0
  5  6  1  0  0  0  0
  7 14  2  0  0  0  0
  7  8  1  0  0  0  0
  8  9  1  0  0  0  0
  8 10  1  0  0  0  0
 10 11  1  0  0  0  0
 12 13  1  0  0  0  0
 12 10  2  0  0  0  0
 14 12  1  0  0  0  0
 15 14  1  0  0  0  0
 15 16  1  0  0  0  0
 17  1  1  0  0  0  0
 17 25  1  0  0  0  0
 18 17  2  0  0  0  0
 19 18  1  0  0  0  0
 20 18  1  0  0  0  0
 20 22  2  0  0  0  0
 21 20  1  0  0  0  0
 22 23  1  0  0  0  0
 23 25  2  0  0  0  0
 23 24  1  0  0  0  0
 25 26  1  0  0  0  0
 27  2  1  0  0  0  0
 27 28  1  0  0  0  0
 28 29  1  0  0  0  0
 30 28  2  0  0  0  0
 30 31  1  0  0  0  0
 32 30  1  0  0  0  0
 33 35  1  0  0  0  0
 33 32  2  0  0  0  0
 34 33  1  0  0  0  0
 35 27  2  0  0  0  0
 36 35  1  0  0  0  0
M  END
