2,3
 OpenBabel05122313053D

 27 28  0  0  1  0  0  0  0  0999 V2000
   -0.0330    2.0559   -1.1654 Se  0  0  0  0  0  0  0  0  0  0  0  0
   -2.3154    0.0854    0.0361 N   0  0  0  0  0  2  0  0  0  0  0  0
    2.2088   -0.0738   -0.2721 N   0  0  0  0  0  2  0  0  0  0  0  0
   -3.3095   -0.8160   -0.0732 C   0  0  0  0  0  3  0  0  0  0  0  0
   -2.9941   -1.8730   -0.0431 H   0  0  0  0  0  0  0  0  0  0  0  0
   -4.6500   -0.4353   -0.2265 C   0  0  0  0  0  0  0  0  0  0  0  0
   -5.4299   -1.2044   -0.3184 H   0  0  0  0  0  0  0  0  0  0  0  0
   -4.9563    0.9303   -0.2675 C   0  0  0  0  0  0  0  0  0  0  0  0
   -5.9953    1.2707   -0.3935 H   0  0  0  0  0  0  0  0  0  0  0  0
   -3.9167    1.8632   -0.1502 C   0  0  0  0  0  0  0  0  0  0  0  0
   -4.1204    2.9437   -0.1753 H   0  0  0  0  0  0  0  0  0  0  0  0
   -2.5947    1.4096    0.0094 C   0  0  0  0  0  0  0  0  0  0  0  0
   -1.4586    2.3827    0.1803 C   0  0  0  0  0  0  0  0  0  0  0  0
   -0.9830    2.2368    1.1722 H   0  0  0  0  0  0  0  0  0  0  0  0
   -1.8164    3.4235    0.0854 H   0  0  0  0  0  0  0  0  0  0  0  0
    1.5791    2.2762   -0.0227 C   0  0  0  0  0  0  0  0  0  0  0  0
    1.9944    3.2897   -0.1656 H   0  0  0  0  0  0  0  0  0  0  0  0
    1.2180    2.1439    1.0202 H   0  0  0  0  0  0  0  0  0  0  0  0
    2.6028    1.2170   -0.3331 C   0  0  1  0  0  3  0  0  0  0  0  0
    3.9314    1.5518   -0.6529 C   0  0  0  0  0  0  0  0  0  0  0  0
    4.2308    2.6089   -0.7033 H   0  0  0  0  0  0  0  0  0  0  0  0
    4.8565    0.5268   -0.8956 C   0  0  0  0  0  0  0  0  0  0  0  0
    5.9003    0.7701   -1.1455 H   0  0  0  0  0  0  0  0  0  0  0  0
    4.4310   -0.8060   -0.8249 C   0  0  0  0  0  0  0  0  0  0  0  0
    5.1185   -1.6414   -1.0183 H   0  0  0  0  0  0  0  0  0  0  0  0
    3.0887   -1.0600   -0.5106 C   0  0  0  0  0  0  0  0  0  0  0  0
    2.6855   -2.0842   -0.4732 H   0  0  0  0  0  0  0  0  0  0  0  0
  1 16  1  0  0  0  0
  1 13  1  0  0  0  0
  4  5  1  0  0  0  0
  4  2  1  0  0  0  0
  6  4  1  0  0  0  0
  7  6  1  0  0  0  0
  8  6  2  0  0  0  0
  8 10  1  0  0  0  0
  9  8  1  0  0  0  0
 10 12  2  0  0  0  0
 11 10  1  0  0  0  0
 12  2  1  0  0  0  0
 12 13  1  0  0  0  0
 13 14  1  0  0  0  0
 15 13  1  0  0  0  0
 16 18  1  0  0  0  0
 17 16  1  0  0  0  0
 19  3  1  0  0  0  0
 19 16  1  1  0  0  0
 20 19  1  0  0  0  0
 21 20  1  0  0  0  0
 22 24  1  0  0  0  0
 22 20  2  0  0  0  0
 23 22  1  0  0  0  0
 24 26  2  0  0  0  0
 25 24  1  0  0  0  0
 26 27  1  0  0  0  0
 26  3  1  0  0  0  0
M  END
