1,2
 OpenBabel05122313053D

 33 34  0  0  0  0  0  0  0  0999 V2000
   -1.9606    0.6778    0.2707 N   0  0  0  0  0  2  0  0  0  0  0  0
    1.0129    1.1029   -0.3100 N   0  0  0  0  0  2  0  0  0  0  0  0
    0.3734    2.2010   -0.8102 N   0  0  0  0  0  0  0  0  0  0  0  0
   -2.9189    0.4001    1.1931 C   0  0  0  0  0  3  0  0  0  0  0  0
   -2.8326   -0.5752    1.6929 H   0  0  0  0  0  0  0  0  0  0  0  0
   -3.9622    1.2757    1.4959 C   0  0  0  0  0  0  0  0  0  0  0  0
   -4.7071    0.9845    2.2497 H   0  0  0  0  0  0  0  0  0  0  0  0
   -4.0366    2.5087    0.8290 C   0  0  0  0  0  0  0  0  0  0  0  0
   -4.8453    3.2226    1.0435 H   0  0  0  0  0  0  0  0  0  0  0  0
   -3.0498    2.8057   -0.1181 C   0  0  0  0  0  0  0  0  0  0  0  0
   -3.0594    3.7585   -0.6675 H   0  0  0  0  0  0  0  0  0  0  0  0
   -2.0338    1.8725   -0.3743 C   0  0  0  0  0  0  0  0  0  0  0  0
   -0.9575    2.1306   -1.3921 C   0  0  0  0  0  0  0  0  0  0  0  0
   -0.9635    1.3119   -2.1442 H   0  0  0  0  0  0  0  0  0  0  0  0
   -1.1326    3.0902   -1.9106 H   0  0  0  0  0  0  0  0  0  0  0  0
    1.1412    3.3192   -0.7291 C   0  0  0  0  0  3  0  0  0  0  0  0
    0.7726    4.2855   -1.0887 H   0  0  0  0  0  0  0  0  0  0  0  0
    2.3496    2.9373   -0.1683 C   0  0  0  0  0  0  0  0  0  0  0  0
    3.2084    3.5818    0.0294 H   0  0  0  0  0  0  0  0  0  0  0  0
    2.2480    1.5413    0.0722 C   0  0  0  0  0  0  0  0  0  0  0  0
    3.3973    0.6579    0.5488 C   0  0  0  0  0  0  0  0  0  0  0  0
    4.5814    1.5500    0.9760 C   0  0  0  0  0  0  0  0  0  0  0  0
    4.9630    2.1673    0.1383 H   0  0  0  0  0  0  0  0  0  0  0  0
    5.4163    0.9078    1.3189 H   0  0  0  0  0  0  0  0  0  0  0  0
    4.3075    2.2232    1.8136 H   0  0  0  0  0  0  0  0  0  0  0  0
    3.8526   -0.2192   -0.6411 C   0  0  0  0  0  0  0  0  0  0  0  0
    3.0266   -0.8468   -1.0201 H   0  0  0  0  0  0  0  0  0  0  0  0
    4.6759   -0.8923   -0.3267 H   0  0  0  0  0  0  0  0  0  0  0  0
    4.2188    0.4130   -1.4751 H   0  0  0  0  0  0  0  0  0  0  0  0
    3.0109   -0.2206    1.7528 C   0  0  0  0  0  0  0  0  0  0  0  0
    2.6022    0.3874    2.5843 H   0  0  0  0  0  0  0  0  0  0  0  0
    3.9068   -0.7584    2.1233 H   0  0  0  0  0  0  0  0  0  0  0  0
    2.2571   -0.9765    1.4773 H   0  0  0  0  0  0  0  0  0  0  0  0
  1  4  1  0  0  0  0
  2 20  1  0  0  0  0
  3 16  1  0  0  0  0
  3  2  1  0  0  0  0
  4  6  1  0  0  0  0
  4  5  1  0  0  0  0
  6  7  1  0  0  0  0
  8  9  1  0  0  0  0
  8  6  2  0  0  0  0
 10  8  1  0  0  0  0
 11 10  1  0  0  0  0
 12 10  2  0  0  0  0
 12  1  1  0  0  0  0
 13  3  1  0  0  0  0
 13 12  1  0  0  0  0
 14 13  1  0  0  0  0
 15 13  1  0  0  0  0
 16 18  1  0  0  0  0
 17 16  1  0  0  0  0
 18 19  1  0  0  0  0
 18 20  2  0  0  0  0
 20 21  1  0  0  0  0
 21 22  1  0  0  0  0
 21 30  1  0  0  0  0
 22 24  1  0  0  0  0
 22 25  1  0  0  0  0
 23 22  1  0  0  0  0
 26 28  1  0  0  0  0
 26 21  1  0  0  0  0
 27 26  1  0  0  0  0
 29 26  1  0  0  0  0
 30 32  1  0  0  0  0
 30 31  1  0  0  0  0
 33 30  1  0  0  0  0
M  END
