1,2
 OpenBabel05122313053D

 57 59  0  0  0  0  0  0  0  0999 V2000
   -0.4066   -1.1747    0.2957 N   0  0  0  0  0  2  0  0  0  0  0  0
   -0.8462    1.4136    1.5620 N   0  0  0  0  0  2  0  0  0  0  0  0
   -0.3036   -1.6185    1.5658 C   0  0  0  0  0  0  0  0  0  0  0  0
   -0.3606   -0.7147    2.7110 C   0  0  0  0  0  0  0  0  0  0  0  0
   -0.1885   -1.2403    4.0261 C   0  0  0  0  0  0  0  0  0  0  0  0
   -0.2399   -0.5299    4.8680 H   0  0  0  0  0  0  0  0  0  0  0  0
    0.0183   -2.5890    4.2738 C   0  0  0  0  0  0  0  0  0  0  0  0
    0.1523   -2.9621    5.2990 H   0  0  0  0  0  0  0  0  0  0  0  0
    0.0143   -3.4795    3.1695 C   0  0  0  0  0  0  0  0  0  0  0  0
    0.1429   -4.5606    3.3403 H   0  0  0  0  0  0  0  0  0  0  0  0
   -0.1551   -3.0195    1.8731 C   0  0  0  0  0  0  0  0  0  0  0  0
   -0.1668   -3.7296    1.0348 H   0  0  0  0  0  0  0  0  0  0  0  0
   -0.5660   -2.1012   -0.7704 C   0  0  0  0  0  0  0  0  0  0  0  0
   -1.8794   -2.3327   -1.2764 C   0  0  0  0  0  0  0  0  0  0  0  0
   -2.0395   -3.2100   -2.3633 C   0  0  0  0  0  0  0  0  0  0  0  0
   -3.0483   -3.3964   -2.7610 H   0  0  0  0  0  0  0  0  0  0  0  0
   -0.9384   -3.8465   -2.9525 C   0  0  0  0  0  0  0  0  0  0  0  0
   -1.0849   -4.5328   -3.8006 H   0  0  0  0  0  0  0  0  0  0  0  0
    0.3492   -3.5919   -2.4664 C   0  0  0  0  0  0  0  0  0  0  0  0
    1.2161   -4.0771   -2.9430 H   0  0  0  0  0  0  0  0  0  0  0  0
    0.5595   -2.7191   -1.3821 C   0  0  0  0  0  0  0  0  0  0  0  0
   -3.0743   -1.6398   -0.6327 C   0  0  0  0  0  0  0  0  0  0  0  0
   -2.6864   -0.6899   -0.2079 H   0  0  0  0  0  0  0  0  0  0  0  0
   -4.1819   -1.2767   -1.6288 C   0  0  0  0  0  0  0  0  0  0  0  0
   -3.7788   -0.7037   -2.4870 H   0  0  0  0  0  0  0  0  0  0  0  0
   -4.9483   -0.6468   -1.1330 H   0  0  0  0  0  0  0  0  0  0  0  0
   -4.7024   -2.1748   -2.0231 H   0  0  0  0  0  0  0  0  0  0  0  0
   -3.6302   -2.4669    0.5410 C   0  0  0  0  0  0  0  0  0  0  0  0
   -2.8481   -2.6860    1.2941 H   0  0  0  0  0  0  0  0  0  0  0  0
   -4.0327   -3.4372    0.1807 H   0  0  0  0  0  0  0  0  0  0  0  0
   -4.4549   -1.9242    1.0498 H   0  0  0  0  0  0  0  0  0  0  0  0
    1.9746   -2.4098   -0.9120 C   0  0  0  0  0  0  0  0  0  0  0  0
    1.8790   -1.7690   -0.0141 H   0  0  0  0  0  0  0  0  0  0  0  0
    2.7339   -1.5996   -1.9769 C   0  0  0  0  0  0  0  0  0  0  0  0
    2.1609   -0.6988   -2.2724 H   0  0  0  0  0  0  0  0  0  0  0  0
    2.9062   -2.2025   -2.8931 H   0  0  0  0  0  0  0  0  0  0  0  0
    3.7226   -1.2685   -1.5951 H   0  0  0  0  0  0  0  0  0  0  0  0
    2.7555   -3.6672   -0.5010 C   0  0  0  0  0  0  0  0  0  0  0  0
    2.2275   -4.2250    0.2976 H   0  0  0  0  0  0  0  0  0  0  0  0
    3.7612   -3.3948   -0.1177 H   0  0  0  0  0  0  0  0  0  0  0  0
    2.9037   -4.3571   -1.3580 H   0  0  0  0  0  0  0  0  0  0  0  0
   -0.7072    0.6787    2.6333 C   0  0  0  0  0  3  0  0  0  0  0  0
   -0.8997    1.1653    3.6184 H   0  0  0  0  0  0  0  0  0  0  0  0
   -1.3594    2.7652    1.6930 C   0  0  0  0  0  0  0  0  0  0  0  0
   -0.6287    3.4775    1.2513 H   0  0  0  0  0  0  0  0  0  0  0  0
   -1.4793    3.0405    2.7697 H   0  0  0  0  0  0  0  0  0  0  0  0
   -2.6864    2.9112    0.9660 C   0  0  0  0  0  0  0  0  0  0  0  0
   -2.9241    3.9961    0.1041 C   0  0  0  0  0  0  0  0  0  0  0  0
   -2.1366    4.7522   -0.0438 H   0  0  0  0  0  0  0  0  0  0  0  0
   -4.1419    4.1117   -0.5841 C   0  0  0  0  0  0  0  0  0  0  0  0
   -4.3068    4.9605   -1.2650 H   0  0  0  0  0  0  0  0  0  0  0  0
   -5.1381    3.1380   -0.4183 C   0  0  0  0  0  0  0  0  0  0  0  0
   -6.0893    3.2203   -0.9657 H   0  0  0  0  0  0  0  0  0  0  0  0
   -4.9103    2.0515    0.4427 C   0  0  0  0  0  0  0  0  0  0  0  0
   -5.6849    1.2807    0.5757 H   0  0  0  0  0  0  0  0  0  0  0  0
   -3.6930    1.9386    1.1281 C   0  0  0  0  0  0  0  0  0  0  0  0
   -3.5108    1.0710    1.7810 H   0  0  0  0  0  0  0  0  0  0  0  0
  1  3  1  0  0  0  0
  2 44  1  0  0  0  0
  2 42  1  0  0  0  0
  3 11  2  0  0  0  0
  3  4  1  0  0  0  0
  4  5  2  0  0  0  0
  5  7  1  0  0  0  0
  5  6  1  0  0  0  0
  7  8  1  0  0  0  0
  9 10  1  0  0  0  0
  9  7  2  0  0  0  0
 11  9  1  0  0  0  0
 12 11  1  0  0  0  0
 13  1  1  0  0  0  0
 14 13  1  0  0  0  0
 14 22  1  0  0  0  0
 15 14  2  0  0  0  0
 16 15  1  0  0  0  0
 17 19  2  0  0  0  0
 17 15  1  0  0  0  0
 18 17  1  0  0  0  0
 19 21  1  0  0  0  0
 20 19  1  0  0  0  0
 21 32  1  0  0  0  0
 21 13  2  0  0  0  0
 22 23  1  0  0  0  0
 22 28  1  0  0  0  0
 24 26  1  0  0  0  0
 24 22  1  0  0  0  0
 25 24  1  0  0  0  0
 27 24  1  0  0  0  0
 28 31  1  0  0  0  0
 28 29  1  0  0  0  0
 30 28  1  0  0  0  0
 32 38  1  0  0  0  0
 32 33  1  0  0  0  0
 34 37  1  0  0  0  0
 34 32  1  0  0  0  0
 35 34  1  0  0  0  0
 36 34  1  0  0  0  0
 38 40  1  0  0  0  0
 38 39  1  0  0  0  0
 41 38  1  0  0  0  0
 42  4  1  0  0  0  0
 42 43  1  0  0  0  0
 44 46  1  0  0  0  0
 45 44  1  0  0  0  0
 47 56  1  0  0  0  0
 47 44  1  0  0  0  0
 48 47  2  0  0  0  0
 49 48  1  0  0  0  0
 50 52  2  0  0  0  0
 50 48  1  0  0  0  0
 51 50  1  0  0  0  0
 52 54  1  0  0  0  0
 53 52  1  0  0  0  0
 54 55  1  0  0  0  0
 54 56  2  0  0  0  0
 56 57  1  0  0  0  0
M  END
