1,2
 OpenBabel05122313053D

 56 61  0  0  0  0  0  0  0  0999 V2000
   -2.3908   -1.6545    0.4950 N   0  0  0  0  0  2  0  0  0  0  0  0
   -2.6188    0.8612   -0.0845 N   0  0  0  0  0  2  0  0  0  0  0  0
   -0.4546    1.4646    0.0563 N   0  0  0  0  0  0  0  0  0  0  0  0
    5.1717   -0.2714    0.0002 N   0  0  0  0  0  0  0  0  0  0  0  0
   -2.4060   -2.9795    0.7742 C   0  0  0  0  0  0  0  0  0  0  0  0
   -3.4154   -3.4272    0.7713 H   0  0  0  0  0  0  0  0  0  0  0  0
   -1.2380   -3.6976    1.0360 C   0  0  0  0  0  0  0  0  0  0  0  0
   -1.3077   -4.7717    1.2577 H   0  0  0  0  0  0  0  0  0  0  0  0
   -0.0019   -3.0329    1.0045 C   0  0  0  0  0  0  0  0  0  0  0  0
    0.9367   -3.5718    1.1990 H   0  0  0  0  0  0  0  0  0  0  0  0
    0.0218   -1.6647    0.7174 C   0  0  0  0  0  0  0  0  0  0  0  0
    0.9793   -1.1355    0.6798 H   0  0  0  0  0  0  0  0  0  0  0  0
   -1.1838   -0.9791    0.4703 C   0  0  0  0  0  0  0  0  0  0  0  0
   -1.3607    0.4265    0.1583 C   0  0  0  0  0  0  0  0  0  0  0  0
   -2.5435    2.2160   -0.3724 C   0  0  0  0  0  0  0  0  0  0  0  0
   -3.5412    3.1548   -0.6973 C   0  0  0  0  0  0  0  0  0  0  0  0
   -4.5897    2.8260   -0.7462 H   0  0  0  0  0  0  0  0  0  0  0  0
   -3.1261    4.4658   -0.9412 C   0  0  0  0  0  0  0  0  0  0  0  0
   -3.8774    5.2266   -1.1993 H   0  0  0  0  0  0  0  0  0  0  0  0
   -1.7612    4.8439   -0.8673 C   0  0  0  0  0  0  0  0  0  0  0  0
   -1.4800    5.8878   -1.0713 H   0  0  0  0  0  0  0  0  0  0  0  0
   -0.7600    3.9216   -0.5439 C   0  0  0  0  0  0  0  0  0  0  0  0
    0.2963    4.2218   -0.4951 H   0  0  0  0  0  0  0  0  0  0  0  0
   -1.1741    2.6021   -0.2945 C   0  0  0  0  0  0  0  0  0  0  0  0
    0.9942    1.4253    0.1880 C   0  0  0  0  0  0  0  0  0  0  0  0
    1.2499    0.7671    1.0408 H   0  0  0  0  0  0  0  0  0  0  0  0
    1.3205    2.4414    0.4876 H   0  0  0  0  0  0  0  0  0  0  0  0
    1.7042    1.0056   -1.1070 C   0  0  0  0  0  0  0  0  0  0  0  0
    1.4207    1.7253   -1.9024 H   0  0  0  0  0  0  0  0  0  0  0  0
    1.3123    0.0184   -1.4371 H   0  0  0  0  0  0  0  0  0  0  0  0
    3.2293    0.9484   -0.9747 C   0  0  0  0  0  0  0  0  0  0  0  0
    3.6825    0.8529   -1.9827 H   0  0  0  0  0  0  0  0  0  0  0  0
    3.6164    1.9014   -0.5531 H   0  0  0  0  0  0  0  0  0  0  0  0
    3.7324   -0.2197   -0.1097 C   0  0  0  0  0  0  0  0  0  0  0  0
    3.3187   -0.1631    0.9196 H   0  0  0  0  0  0  0  0  0  0  0  0
    3.3782   -1.1838   -0.5337 H   0  0  0  0  0  0  0  0  0  0  0  0
    6.0303   -0.9013   -0.8999 C   0  0  0  0  0  0  0  0  0  0  0  0
    5.7248   -1.6788   -2.0297 C   0  0  0  0  0  0  0  0  0  0  0  0
    4.6861   -1.8644   -2.3405 H   0  0  0  0  0  0  0  0  0  0  0  0
    6.7954   -2.2142   -2.7605 C   0  0  0  0  0  0  0  0  0  0  0  0
    6.5837   -2.8270   -3.6497 H   0  0  0  0  0  0  0  0  0  0  0  0
    8.1359   -1.9801   -2.3809 C   0  0  0  0  0  0  0  0  0  0  0  0
    8.9510   -2.4149   -2.9781 H   0  0  0  0  0  0  0  0  0  0  0  0
    8.4361   -1.1993   -1.2571 C   0  0  0  0  0  0  0  0  0  0  0  0
    9.4814   -1.0166   -0.9655 H   0  0  0  0  0  0  0  0  0  0  0  0
    7.3826   -0.6482   -0.5049 C   0  0  0  0  0  0  0  0  0  0  0  0
    7.3195    0.1904    0.6779 C   0  0  0  0  0  0  0  0  0  0  0  0
    8.2873    0.7695    1.5187 C   0  0  0  0  0  0  0  0  0  0  0  0
    9.3587    0.6086    1.3251 H   0  0  0  0  0  0  0  0  0  0  0  0
    7.8692    1.5536    2.6020 C   0  0  0  0  0  0  0  0  0  0  0  0
    8.6169    2.0128    3.2654 H   0  0  0  0  0  0  0  0  0  0  0  0
    6.4951    1.7656    2.8521 C   0  0  0  0  0  0  0  0  0  0  0  0
    6.1903    2.3884    3.7066 H   0  0  0  0  0  0  0  0  0  0  0  0
    5.5079    1.2006    2.0315 C   0  0  0  0  0  0  0  0  0  0  0  0
    4.4416    1.3791    2.2349 H   0  0  0  0  0  0  0  0  0  0  0  0
    5.9313    0.4097    0.9500 C   0  0  0  0  0  0  0  0  0  0  0  0
  1  5  1  0  0  0  0
  2 14  1  0  0  0  0
  3 14  1  0  0  0  0
  3 25  1  0  0  0  0
  4 56  1  0  0  0  0
  5  7  2  0  0  0  0
  6  5  1  0  0  0  0
  7  8  1  0  0  0  0
  9  7  1  0  0  0  0
  9 10  1  0  0  0  0
 11  9  2  0  0  0  0
 12 11  1  0  0  0  0
 13  1  1  0  0  0  0
 13 11  1  0  0  0  0
 14 13  2  0  0  0  0
 15 24  1  0  0  0  0
 15  2  1  0  0  0  0
 16 15  2  0  0  0  0
 17 16  1  0  0  0  0
 18 20  2  0  0  0  0
 18 16  1  0  0  0  0
 19 18  1  0  0  0  0
 20 22  1  0  0  0  0
 21 20  1  0  0  0  0
 22 23  1  0  0  0  0
 22 24  2  0  0  0  0
 24  3  1  0  0  0  0
 25 27  1  0  0  0  0
 25 26  1  0  0  0  0
 28 31  1  0  0  0  0
 28 25  1  0  0  0  0
 29 28  1  0  0  0  0
 30 28  1  0  0  0  0
 31 33  1  0  0  0  0
 31 34  1  0  0  0  0
 32 31  1  0  0  0  0
 34  4  1  0  0  0  0
 34 35  1  0  0  0  0
 36 34  1  0  0  0  0
 37 46  1  0  0  0  0
 37  4  1  0  0  0  0
 38 37  2  0  0  0  0
 39 38  1  0  0  0  0
 40 42  2  0  0  0  0
 40 38  1  0  0  0  0
 41 40  1  0  0  0  0
 42 44  1  0  0  0  0
 43 42  1  0  0  0  0
 44 45  1  0  0  0  0
 44 46  2  0  0  0  0
 46 47  1  0  0  0  0
 47 56  2  0  0  0  0
 47 48  1  0  0  0  0
 48 50  2  0  0  0  0
 49 48  1  0  0  0  0
 50 52  1  0  0  0  0
 50 51  1  0  0  0  0
 52 53  1  0  0  0  0
 54 55  1  0  0  0  0
 54 52  2  0  0  0  0
 56 54  1  0  0  0  0
M  END
