1,4
 OpenBabel05122313053D

 37 39  0  0  0  0  0  0  0  0999 V2000
    1.0243    1.5132   -0.3587 N   0  0  0  0  0  2  0  0  0  0  0  0
    0.0351    2.1313    0.3139 N   0  0  0  0  0  0  0  0  0  0  0  0
   -0.6747   -1.7605    0.4294 N   0  0  0  0  0  0  0  0  0  0  0  0
    0.4569   -1.5499   -0.2704 N   0  0  0  0  0  2  0  0  0  0  0  0
   -1.4314    0.4236    1.3086 N   0  0  0  0  0  0  0  0  0  0  0  0
    1.2727    2.2464   -1.4559 C   0  0  0  0  0  3  0  0  0  0  0  0
    2.0608    1.9053   -2.1406 H   0  0  0  0  0  0  0  0  0  0  0  0
    0.4177    3.3706   -1.4907 C   0  0  0  0  0  0  0  0  0  0  0  0
    0.3785    4.1627   -2.2448 H   0  0  0  0  0  0  0  0  0  0  0  0
   -0.3625    3.2590   -0.3390 C   0  0  0  0  0  0  0  0  0  0  0  0
   -1.1606    3.8916    0.0657 H   0  0  0  0  0  0  0  0  0  0  0  0
   -0.5463    1.5261    1.5338 C   0  0  0  0  0  0  0  0  0  0  0  0
    0.3095    1.1990    2.1625 H   0  0  0  0  0  0  0  0  0  0  0  0
   -1.0783    2.3669    2.0297 H   0  0  0  0  0  0  0  0  0  0  0  0
   -1.0128   -0.9131    1.5998 C   0  0  0  0  0  0  0  0  0  0  0  0
   -1.8005   -1.4845    2.1327 H   0  0  0  0  0  0  0  0  0  0  0  0
   -0.0984   -0.8757    2.2300 H   0  0  0  0  0  0  0  0  0  0  0  0
   -1.4184   -2.7485   -0.1425 C   0  0  0  0  0  3  0  0  0  0  0  0
   -2.3730   -3.0620    0.2937 H   0  0  0  0  0  0  0  0  0  0  0  0
   -0.7269   -3.1924   -1.2706 C   0  0  0  0  0  0  0  0  0  0  0  0
   -1.0272   -3.9844   -1.9636 H   0  0  0  0  0  0  0  0  0  0  0  0
    0.4453   -2.4050   -1.3063 C   0  0  0  0  0  0  0  0  0  0  0  0
    1.2976   -2.3912   -1.9991 H   0  0  0  0  0  0  0  0  0  0  0  0
   -2.6316    0.6880    0.5197 C   0  0  0  0  0  0  0  0  0  0  0  0
   -2.8861    1.7506    0.7283 H   0  0  0  0  0  0  0  0  0  0  0  0
   -3.8791   -0.1387    0.9005 C   0  0  0  0  0  0  0  0  0  0  0  0
   -3.6165   -1.2082    1.0384 H   0  0  0  0  0  0  0  0  0  0  0  0
   -4.3404    0.2071    1.8468 H   0  0  0  0  0  0  0  0  0  0  0  0
   -4.7778   -0.0037   -0.3336 C   0  0  0  0  0  0  0  0  0  0  0  0
   -5.2296    1.0121   -0.3607 H   0  0  0  0  0  0  0  0  0  0  0  0
   -5.6136   -0.7313   -0.3485 H   0  0  0  0  0  0  0  0  0  0  0  0
   -3.7899   -0.1799   -1.5020 C   0  0  0  0  0  0  0  0  0  0  0  0
   -4.1817    0.2109   -2.4616 H   0  0  0  0  0  0  0  0  0  0  0  0
   -3.5902   -1.2614   -1.6551 H   0  0  0  0  0  0  0  0  0  0  0  0
   -2.4978    0.5313   -1.0387 C   0  0  0  0  0  0  0  0  0  0  0  0
   -2.3865    1.5270   -1.5123 H   0  0  0  0  0  0  0  0  0  0  0  0
   -1.5864   -0.0371   -1.3043 H   0  0  0  0  0  0  0  0  0  0  0  0
  1  2  1  0  0  0  0
  2 12  1  0  0  0  0
  3 15  1  0  0  0  0
  4  3  1  0  0  0  0
  5 12  1  0  0  0  0
  5 15  1  0  0  0  0
  6  1  1  0  0  0  0
  7  6  1  0  0  0  0
  8  6  1  0  0  0  0
  8 10  2  0  0  0  0
  9  8  1  0  0  0  0
 10 11  1  0  0  0  0
 10  2  1  0  0  0  0
 12 14  1  0  0  0  0
 12 13  1  0  0  0  0
 15 16  1  0  0  0  0
 15 17  1  0  0  0  0
 18 19  1  0  0  0  0
 18  3  1  0  0  0  0
 20 18  1  0  0  0  0
 21 20  1  0  0  0  0
 22 20  2  0  0  0  0
 22  4  1  0  0  0  0
 23 22  1  0  0  0  0
 24 25  1  0  0  0  0
 24 26  1  0  0  0  0
 24  5  1  0  0  0  0
 26 27  1  0  0  0  0
 26 28  1  0  0  0  0
 29 26  1  0  0  0  0
 30 29  1  0  0  0  0
 31 29  1  0  0  0  0
 32 35  1  0  0  0  0
 32 29  1  0  0  0  0
 33 32  1  0  0  0  0
 34 32  1  0  0  0  0
 35 24  1  0  0  0  0
 36 35  1  0  0  0  0
 37 35  1  0  0  0  0
M  END
