1,2
 OpenBabel05122313053D

 24 25  0  0  1  0  0  0  0  0999 V2000
    2.0852    0.7644   -0.0148 N   0  0  0  0  0  2  0  0  0  0  0  0
   -0.0937    1.1039   -0.0403 N   0  0  0  0  0  2  0  0  0  0  0  0
    1.1543    1.7530   -0.0696 C   0  0  1  0  0  3  0  0  0  0  0  0
    1.5046    3.1065   -0.1165 C   0  0  0  0  0  0  0  0  0  0  0  0
    0.7459    3.9006   -0.1373 H   0  0  0  0  0  0  0  0  0  0  0  0
    2.8759    3.4131   -0.1297 C   0  0  0  0  0  0  0  0  0  0  0  0
    3.1996    4.4635   -0.1706 H   0  0  0  0  0  0  0  0  0  0  0  0
    3.8291    2.3827   -0.0835 C   0  0  0  0  0  0  0  0  0  0  0  0
    4.9051    2.6049   -0.0865 H   0  0  0  0  0  0  0  0  0  0  0  0
    3.3958    1.0496   -0.0198 C   0  0  0  0  0  0  0  0  0  0  0  0
    4.0929    0.2007    0.0364 H   0  0  0  0  0  0  0  0  0  0  0  0
   -1.2317    1.7350   -0.1795 C   0  0  0  0  0  3  0  0  0  0  0  0
   -1.1921    2.8206   -0.3989 H   0  0  0  0  0  0  0  0  0  0  0  0
   -2.5547    1.1652   -0.0771 C   0  0  0  0  0  0  0  0  0  0  0  0
   -2.7956   -0.1547    0.3869 C   0  0  0  0  0  0  0  0  0  0  0  0
   -1.9398   -0.7784    0.6835 H   0  0  0  0  0  0  0  0  0  0  0  0
   -4.1034   -0.6318    0.4844 C   0  0  0  0  0  0  0  0  0  0  0  0
   -4.2908   -1.6495    0.8577 H   0  0  0  0  0  0  0  0  0  0  0  0
   -5.1869    0.1892    0.1142 C   0  0  0  0  0  0  0  0  0  0  0  0
   -6.2152   -0.1953    0.1891 H   0  0  0  0  0  0  0  0  0  0  0  0
   -4.9624    1.5006   -0.3401 C   0  0  0  0  0  0  0  0  0  0  0  0
   -5.8112    2.1414   -0.6194 H   0  0  0  0  0  0  0  0  0  0  0  0
   -3.6569    1.9906   -0.4270 C   0  0  0  0  0  0  0  0  0  0  0  0
   -3.4764    3.0208   -0.7718 H   0  0  0  0  0  0  0  0  0  0  0  0
  3  2  1  1  0  0  0
  3  1  1  0  0  0  0
  4  3  1  0  0  0  0
  5  4  1  0  0  0  0
  6  4  2  0  0  0  0
  6  8  1  0  0  0  0
  7  6  1  0  0  0  0
  8 10  2  0  0  0  0
  9  8  1  0  0  0  0
 10  1  1  0  0  0  0
 10 11  1  0  0  0  0
 12 14  1  0  0  0  0
 12  2  1  0  0  0  0
 13 12  1  0  0  0  0
 14 15  1  0  0  0  0
 15 17  2  0  0  0  0
 15 16  1  0  0  0  0
 17 18  1  0  0  0  0
 19 20  1  0  0  0  0
 19 17  1  0  0  0  0
 21 19  2  0  0  0  0
 22 21  1  0  0  0  0
 23 21  1  0  0  0  0
 23 14  2  0  0  0  0
 24 23  1  0  0  0  0
M  END
