1,7
 OpenBabel05122313053D

 19 19  0  0  1  0  0  0  0  0999 V2000
   -1.7943   -1.7264    0.6561 N   0  0  0  0  0  0  0  0  0  0  0  0
   -3.1878   -1.3156    0.3333 C   0  0  0  0  0  0  0  0  0  0  0  0
   -3.2673    0.2095    0.2271 C   0  0  1  0  0  0  0  0  0  0  0  0
   -3.0201    1.0067    1.5343 C   0  0  0  0  0  0  0  0  0  0  0  0
   -2.0890    2.1859    1.1436 C   0  0  0  0  0  0  0  0  0  0  0  0
   -2.0381    2.1544   -0.3873 C   0  0  0  0  0  0  0  0  0  0  0  0
   -2.1925    0.7061   -0.6953 N   0  0  0  0  0  0  0  0  0  0  0  0
   -1.6165   -2.7074    0.3915 H   0  0  0  0  0  0  0  0  0  0  0  0
   -1.6102   -1.6688    1.6696 H   0  0  0  0  0  0  0  0  0  0  0  0
   -3.9158   -1.6887    1.0846 H   0  0  0  0  0  0  0  0  0  0  0  0
   -3.4484   -1.7703   -0.6429 H   0  0  0  0  0  0  0  0  0  0  0  0
   -4.2617    0.4804   -0.1925 H   0  0  0  0  0  0  0  0  0  0  0  0
   -3.9859    1.3499    1.9529 H   0  0  0  0  0  0  0  0  0  0  0  0
   -2.5433    0.3738    2.3092 H   0  0  0  0  0  0  0  0  0  0  0  0
   -1.0717    2.0199    1.5479 H   0  0  0  0  0  0  0  0  0  0  0  0
   -2.4520    3.1605    1.5210 H   0  0  0  0  0  0  0  0  0  0  0  0
   -1.0858    2.5089   -0.8255 H   0  0  0  0  0  0  0  0  0  0  0  0
   -2.8875    2.7164   -0.8356 H   0  0  0  0  0  0  0  0  0  0  0  0
   -2.4501    0.5704   -1.6852 H   0  0  0  0  0  0  0  0  0  0  0  0
  1  9  1  0  0  0  0
  2  1  1  0  0  0  0
  2 10  1  0  0  0  0
  3 12  1  6  0  0  0
  3  2  1  0  0  0  0
  3  4  1  0  0  0  0
  4 13  1  0  0  0  0
  4 14  1  0  0  0  0
  5 16  1  0  0  0  0
  5  4  1  0  0  0  0
  5 15  1  0  0  0  0
  6  5  1  0  0  0  0
  7  6  1  0  0  0  0
  7  3  1  0  0  0  0
  8  1  1  0  0  0  0
 11  2  1  0  0  0  0
 17  6  1  0  0  0  0
 18  6  1  0  0  0  0
 19  7  1  0  0  0  0
M  END
