1,2
 OpenBabel05122313053D

 64 69  0  0  0  0  0  0  0  0999 V2000
    1.5582    0.5248    0.1228 N   0  0  0  0  0  0  0  0  0  0  0  0
   -1.5581    0.5247   -0.1231 N   0  0  0  0  0  0  0  0  0  0  0  0
    1.3087   -0.6028    0.9827 C   0  0  0  0  0  0  0  0  0  0  0  0
    0.3984   -1.6322    0.6303 C   0  0  0  0  0  0  0  0  0  0  0  0
    0.2693   -2.7277    1.5117 C   0  0  0  0  0  0  0  0  0  0  0  0
    0.9746   -2.7929    2.7209 C   0  0  0  0  0  0  0  0  0  0  0  0
    1.8428   -1.7492    3.0712 C   0  0  0  0  0  0  0  0  0  0  0  0
    2.0149   -0.6692    2.1969 C   0  0  0  0  0  0  0  0  0  0  0  0
   -1.3086   -0.6034   -0.9823 C   0  0  0  0  0  0  0  0  0  0  0  0
   -0.3982   -1.6326   -0.6295 C   0  0  0  0  0  0  0  0  0  0  0  0
   -0.2692   -2.7286   -1.5102 C   0  0  0  0  0  0  0  0  0  0  0  0
   -0.9747   -2.7946   -2.7192 C   0  0  0  0  0  0  0  0  0  0  0  0
   -1.8430   -1.7511   -3.0701 C   0  0  0  0  0  0  0  0  0  0  0  0
   -2.0151   -0.6706   -2.1963 C   0  0  0  0  0  0  0  0  0  0  0  0
    2.1547    0.2355   -1.2283 C   0  0  0  0  0  0  0  0  0  0  0  0
    3.3846   -0.6348   -1.1345 C   0  0  0  0  0  0  0  0  0  0  0  0
    3.3331   -1.9500   -1.5852 C   0  0  0  0  0  0  0  0  0  0  0  0
    4.4411   -2.8252   -1.4480 C   0  0  0  0  0  0  0  0  0  0  0  0
    5.6022   -2.3806   -0.8384 C   0  0  0  0  0  0  0  0  0  0  0  0
    5.7092   -1.0394   -0.3656 C   0  0  0  0  0  0  0  0  0  0  0  0
    6.9006   -0.5639    0.2569 C   0  0  0  0  0  0  0  0  0  0  0  0
    7.0000    0.7451    0.7030 C   0  0  0  0  0  0  0  0  0  0  0  0
    5.9094    1.6367    0.5296 C   0  0  0  0  0  0  0  0  0  0  0  0
    4.7344    1.2090   -0.0741 C   0  0  0  0  0  0  0  0  0  0  0  0
    4.5905   -0.1387   -0.5261 C   0  0  0  0  0  0  0  0  0  0  0  0
   -2.1548    0.2360    1.2281 C   0  0  0  0  0  0  0  0  0  0  0  0
   -3.3848   -0.6344    1.1344 C   0  0  0  0  0  0  0  0  0  0  0  0
   -3.3333   -1.9494    1.5856 C   0  0  0  0  0  0  0  0  0  0  0  0
   -4.4413   -2.8246    1.4484 C   0  0  0  0  0  0  0  0  0  0  0  0
   -5.6023   -2.3801    0.8384 C   0  0  0  0  0  0  0  0  0  0  0  0
   -5.7092   -1.0391    0.3651 C   0  0  0  0  0  0  0  0  0  0  0  0
   -6.9004   -0.5638   -0.2578 C   0  0  0  0  0  0  0  0  0  0  0  0
   -6.9997    0.7451   -0.7044 C   0  0  0  0  0  0  0  0  0  0  0  0
   -5.9091    1.6367   -0.5310 C   0  0  0  0  0  0  0  0  0  0  0  0
   -4.7343    1.2091    0.0731 C   0  0  0  0  0  0  0  0  0  0  0  0
   -4.5905   -0.1384    0.5256 C   0  0  0  0  0  0  0  0  0  0  0  0
   -0.4239   -3.5363    1.2347 H   0  0  0  0  0  0  0  0  0  0  0  0
    0.8423   -3.6569    3.3885 H   0  0  0  0  0  0  0  0  0  0  0  0
    2.4030   -1.7798    4.0172 H   0  0  0  0  0  0  0  0  0  0  0  0
    2.7242    0.1368    2.4409 H   0  0  0  0  0  0  0  0  0  0  0  0
    0.4240   -3.5370   -1.2328 H   0  0  0  0  0  0  0  0  0  0  0  0
   -0.8425   -3.6590   -3.3864 H   0  0  0  0  0  0  0  0  0  0  0  0
   -2.4034   -1.7824   -4.0160 H   0  0  0  0  0  0  0  0  0  0  0  0
   -2.7244    0.1352   -2.4408 H   0  0  0  0  0  0  0  0  0  0  0  0
    2.2144    1.1670    0.6038 H   0  0  0  0  0  0  0  0  0  0  0  0
   -2.2142    1.1667   -0.6045 H   0  0  0  0  0  0  0  0  0  0  0  0
    1.3819   -0.2430   -1.8567 H   0  0  0  0  0  0  0  0  0  0  0  0
    2.3698    1.2335   -1.6581 H   0  0  0  0  0  0  0  0  0  0  0  0
   -1.3822   -0.2423    1.8568 H   0  0  0  0  0  0  0  0  0  0  0  0
   -2.3699    1.2342    1.6574 H   0  0  0  0  0  0  0  0  0  0  0  0
    2.4072   -2.3143   -2.0559 H   0  0  0  0  0  0  0  0  0  0  0  0
    4.3683   -3.8586   -1.8190 H   0  0  0  0  0  0  0  0  0  0  0  0
    6.4638   -3.0548   -0.7129 H   0  0  0  0  0  0  0  0  0  0  0  0
    7.7458   -1.2602    0.3744 H   0  0  0  0  0  0  0  0  0  0  0  0
    7.9253    1.0976    1.1831 H   0  0  0  0  0  0  0  0  0  0  0  0
    5.9936    2.6803    0.8685 H   0  0  0  0  0  0  0  0  0  0  0  0
    3.9185    1.9386   -0.2079 H   0  0  0  0  0  0  0  0  0  0  0  0
   -2.4075   -2.3135    2.0566 H   0  0  0  0  0  0  0  0  0  0  0  0
   -4.3687   -3.8579    1.8197 H   0  0  0  0  0  0  0  0  0  0  0  0
   -6.4639   -3.0544    0.7130 H   0  0  0  0  0  0  0  0  0  0  0  0
   -7.7456   -1.2601   -0.3752 H   0  0  0  0  0  0  0  0  0  0  0  0
   -7.9250    1.0974   -1.1847 H   0  0  0  0  0  0  0  0  0  0  0  0
   -5.9932    2.6801   -0.8703 H   0  0  0  0  0  0  0  0  0  0  0  0
   -3.9184    1.9388    0.2069 H   0  0  0  0  0  0  0  0  0  0  0  0
  1 45  1  0  0  0  0
  1  3  1  0  0  0  0
  2 26  1  0  0  0  0
  3  8  1  0  0  0  0
  4  3  2  0  0  0  0
  4  5  1  0  0  0  0
  5  6  2  0  0  0  0
  6  7  1  0  0  0  0
  6 38  1  0  0  0  0
  7 39  1  0  0  0  0
  8 40  1  0  0  0  0
  8  7  2  0  0  0  0
  9 10  1  0  0  0  0
  9  2  1  0  0  0  0
 10  4  1  0  0  0  0
 11 41  1  0  0  0  0
 11 10  2  0  0  0  0
 12 11  1  0  0  0  0
 13 12  2  0  0  0  0
 13 14  1  0  0  0  0
 14  9  2  0  0  0  0
 15 16  1  0  0  0  0
 15  1  1  0  0  0  0
 16 25  1  0  0  0  0
 17 18  1  0  0  0  0
 17 16  2  0  0  0  0
 18 19  2  0  0  0  0
 19 53  1  0  0  0  0
 19 20  1  0  0  0  0
 20 21  1  0  0  0  0
 21 54  1  0  0  0  0
 21 22  2  0  0  0  0
 22 55  1  0  0  0  0
 23 22  1  0  0  0  0
 23 56  1  0  0  0  0
 24 23  2  0  0  0  0
 25 20  2  0  0  0  0
 25 24  1  0  0  0  0
 26 50  1  0  0  0  0
 26 49  1  0  0  0  0
 27 26  1  0  0  0  0
 27 28  1  0  0  0  0
 28 58  1  0  0  0  0
 29 28  2  0  0  0  0
 29 59  1  0  0  0  0
 30 29  1  0  0  0  0
 31 36  1  0  0  0  0
 31 30  2  0  0  0  0
 32 31  1  0  0  0  0
 33 34  1  0  0  0  0
 33 32  2  0  0  0  0
 34 35  2  0  0  0  0
 35 64  1  0  0  0  0
 35 36  1  0  0  0  0
 36 27  2  0  0  0  0
 37  5  1  0  0  0  0
 42 12  1  0  0  0  0
 43 13  1  0  0  0  0
 44 14  1  0  0  0  0
 46  2  1  0  0  0  0
 47 15  1  0  0  0  0
 48 15  1  0  0  0  0
 51 17  1  0  0  0  0
 52 18  1  0  0  0  0
 57 24  1  0  0  0  0
 60 30  1  0  0  0  0
 61 32  1  0  0  0  0
 62 33  1  0  0  0  0
 63 34  1  0  0  0  0
M  END
