6,7
 OpenBabel05122313053D

 57 59  0  0  1  0  0  0  0  0999 V2000
    0.1579    1.8972    0.7662 Se  0  0  0  0  0  0  0  0  0  0  0  0
   -1.0458   -1.6355    0.3370 Se  0  0  0  0  0  0  0  0  0  0  0  0
    3.8717    2.9959   -1.7846 O   0  0  0  0  0  0  0  0  0  0  0  0
    3.7055   -3.5214    0.3489 O   0  0  0  0  0  0  0  0  0  0  0  0
    2.0507    2.7117   -0.3684 N   0  0  0  0  0  2  0  0  0  0  0  0
    3.2281    0.0201   -0.0722 N   0  0  0  0  0  2  0  0  0  0  0  0
    1.8717   -2.2852   -0.2640 N   0  0  0  0  0  2  0  0  0  0  0  0
   -1.7412    1.4555    1.1507 C   0  0  0  0  0  0  0  0  0  0  0  0
   -2.8395    1.8779    0.3748 C   0  0  0  0  0  0  0  0  0  0  0  0
   -2.6900    2.3766   -0.5916 H   0  0  0  0  0  0  0  0  0  0  0  0
   -4.1475    1.6510    0.8201 C   0  0  0  0  0  0  0  0  0  0  0  0
   -4.9921    1.9900    0.1993 H   0  0  0  0  0  0  0  0  0  0  0  0
   -4.4052    0.9759    2.0314 C   0  0  0  0  0  0  0  0  0  0  0  0
   -3.3003    0.5376    2.7879 C   0  0  0  0  0  0  0  0  0  0  0  0
   -3.4710    0.0052    3.7373 H   0  0  0  0  0  0  0  0  0  0  0  0
   -1.9848    0.7798    2.3641 C   0  0  0  0  0  0  0  0  0  0  0  0
   -1.1355    0.4377    2.9774 H   0  0  0  0  0  0  0  0  0  0  0  0
   -5.8203    0.7140    2.4761 C   0  0  0  0  0  0  0  0  0  0  0  0
   -6.3489    0.0581    1.7514 H   0  0  0  0  0  0  0  0  0  0  0  0
   -6.4061    1.6543    2.5382 H   0  0  0  0  0  0  0  0  0  0  0  0
   -5.8563    0.2230    3.4674 H   0  0  0  0  0  0  0  0  0  0  0  0
   -0.2112    3.0479   -0.8077 C   0  0  0  0  0  0  0  0  0  0  0  0
   -0.5133    2.3721   -1.6316 H   0  0  0  0  0  0  0  0  0  0  0  0
   -1.0219    3.7594   -0.5607 H   0  0  0  0  0  0  0  0  0  0  0  0
    1.1794    3.6500   -1.0331 C   0  0  0  0  0  0  0  0  0  0  0  0
    1.4189    3.7546   -2.1143 H   0  0  0  0  0  0  0  0  0  0  0  0
    1.2425    4.6677   -0.5810 H   0  0  0  0  0  0  0  0  0  0  0  0
    3.2314    2.4120   -0.8851 C   0  0  0  0  0  0  0  0  0  0  0  0
    3.8918    1.1673   -0.3014 C   0  0  2  0  0  3  0  0  0  0  0  0
    5.2973    1.2037   -0.1793 C   0  0  0  0  0  0  0  0  0  0  0  0
    5.7862    2.1585   -0.4185 H   0  0  0  0  0  0  0  0  0  0  0  0
    6.0022    0.0574    0.1867 C   0  0  0  0  0  0  0  0  0  0  0  0
    7.0949    0.0867    0.3141 H   0  0  0  0  0  0  0  0  0  0  0  0
    5.2938   -1.1431    0.3314 C   0  0  0  0  0  0  0  0  0  0  0  0
    5.7626   -2.1176    0.5316 H   0  0  0  0  0  0  0  0  0  0  0  0
    3.9083   -1.1300    0.1643 C   0  0  0  0  0  0  0  0  0  0  0  0
    3.1565   -2.4325    0.1305 C   0  0  0  0  0  0  0  0  0  0  0  0
    1.0222   -3.4584   -0.2888 C   0  0  0  0  0  0  0  0  0  0  0  0
    1.4803   -4.2329   -0.9444 H   0  0  0  0  0  0  0  0  0  0  0  0
    0.9415   -3.9238    0.7228 H   0  0  0  0  0  0  0  0  0  0  0  0
   -0.3439   -3.0849   -0.8309 C   0  0  0  0  0  0  0  0  0  0  0  0
   -1.0789   -3.9115   -0.7978 H   0  0  0  0  0  0  0  0  0  0  0  0
   -0.2805   -2.6504   -1.8477 H   0  0  0  0  0  0  0  0  0  0  0  0
   -2.5783   -1.1419   -0.7286 C   0  0  0  0  0  0  0  0  0  0  0  0
   -3.8210   -1.4790   -0.1679 C   0  0  0  0  0  0  0  0  0  0  0  0
   -3.8768   -1.9566    0.8218 H   0  0  0  0  0  0  0  0  0  0  0  0
   -4.9954   -1.1908   -0.8788 C   0  0  0  0  0  0  0  0  0  0  0  0
   -5.9694   -1.4657   -0.4444 H   0  0  0  0  0  0  0  0  0  0  0  0
   -4.9506   -0.5455   -2.1296 C   0  0  0  0  0  0  0  0  0  0  0  0
   -3.6849   -0.2119   -2.6624 C   0  0  0  0  0  0  0  0  0  0  0  0
   -3.6256    0.2913   -3.6407 H   0  0  0  0  0  0  0  0  0  0  0  0
   -2.4997   -0.5068   -1.9796 C   0  0  0  0  0  0  0  0  0  0  0  0
   -1.5168   -0.2410   -2.3993 H   0  0  0  0  0  0  0  0  0  0  0  0
   -6.2108   -0.2094   -2.8834 C   0  0  0  0  0  0  0  0  0  0  0  0
   -7.1142   -0.5750   -2.3591 H   0  0  0  0  0  0  0  0  0  0  0  0
   -6.2005   -0.6534   -3.9002 H   0  0  0  0  0  0  0  0  0  0  0  0
   -6.3146    0.8879   -3.0169 H   0  0  0  0  0  0  0  0  0  0  0  0
  1  8  1  0  0  0  0
  3 28  2  0  0  0  0
  6 36  1  0  0  0  0
  7 37  1  0  0  0  0
  8 16  1  0  0  0  0
  9 11  1  0  0  0  0
  9  8  2  0  0  0  0
 10  9  1  0  0  0  0
 11 13  2  0  0  0  0
 12 11  1  0  0  0  0
 13 18  1  0  0  0  0
 13 14  1  0  0  0  0
 14 15  1  0  0  0  0
 16 14  2  0  0  0  0
 16 17  1  0  0  0  0
 18 20  1  0  0  0  0
 18 21  1  0  0  0  0
 19 18  1  0  0  0  0
 22 24  1  0  0  0  0
 22  1  1  0  0  0  0
 23 22  1  0  0  0  0
 25 22  1  0  0  0  0
 25 27  1  0  0  0  0
 25  5  1  0  0  0  0
 26 25  1  0  0  0  0
 28  5  1  0  0  0  0
 29 28  1  6  0  0  0
 29 30  1  0  0  0  0
 29  6  1  0  0  0  0
 30 32  2  0  0  0  0
 31 30  1  0  0  0  0
 32 33  1  0  0  0  0
 32 34  1  0  0  0  0
 34 35  1  0  0  0  0
 36 34  2  0  0  0  0
 37 36  1  0  0  0  0
 37  4  2  0  0  0  0
 38  7  1  0  0  0  0
 38 40  1  0  0  0  0
 39 38  1  0  0  0  0
 41 42  1  0  0  0  0
 41 38  1  0  0  0  0
 41  2  1  0  0  0  0
 43 41  1  0  0  0  0
 44 45  1  0  0  0  0
 44  2  1  0  0  0  0
 45 46  1  0  0  0  0
 47 48  1  0  0  0  0
 47 45  2  0  0  0  0
 49 47  1  0  0  0  0
 50 49  2  0  0  0  0
 50 52  1  0  0  0  0
 51 50  1  0  0  0  0
 52 44  2  0  0  0  0
 53 52  1  0  0  0  0
 54 55  1  0  0  0  0
 54 49  1  0  0  0  0
 56 54  1  0  0  0  0
 57 54  1  0  0  0  0
M  END
