3,4
 OpenBabel05122313053D

 23 25  0  0  0  0  0  0  0  0999 V2000
    0.4409   -3.2288    0.0496 O   0  0  0  0  0  0  0  0  0  0  0  0
   -0.4091   -2.6480    0.1462 H   0  0  0  0  0  0  0  0  0  0  0  0
    1.3730   -1.0985   -0.0393 N   0  0  0  0  0  2  0  0  0  0  0  0
    1.0281    1.4598    0.0464 N   0  0  0  0  0  2  0  0  0  0  0  0
    1.4876   -2.4498   -0.0315 C   0  0  0  0  0  0  0  0  0  0  0  0
    2.7806   -3.0684   -0.1281 C   0  0  0  0  0  0  0  0  0  0  0  0
    2.7995   -4.1668   -0.1241 H   0  0  0  0  0  0  0  0  0  0  0  0
    3.9277   -2.3105   -0.2196 C   0  0  0  0  0  0  0  0  0  0  0  0
    4.9137   -2.7933   -0.2941 H   0  0  0  0  0  0  0  0  0  0  0  0
    3.8279   -0.8866   -0.2107 C   0  0  0  0  0  0  0  0  0  0  0  0
    4.9338    0.0261   -0.2892 C   0  0  0  0  0  0  0  0  0  0  0  0
    5.9489   -0.3910   -0.3695 H   0  0  0  0  0  0  0  0  0  0  0  0
    4.7483    1.3942   -0.2642 C   0  0  0  0  0  0  0  0  0  0  0  0
    5.6095    2.0754   -0.3249 H   0  0  0  0  0  0  0  0  0  0  0  0
    3.4305    1.9536   -0.1525 C   0  0  0  0  0  0  0  0  0  0  0  0
    3.1224    3.3394   -0.1066 C   0  0  0  0  0  0  0  0  0  0  0  0
    3.9310    4.0835   -0.1634 H   0  0  0  0  0  0  0  0  0  0  0  0
    1.7933    3.7379    0.0136 C   0  0  0  0  0  0  0  0  0  0  0  0
    1.5243    4.8027    0.0538 H   0  0  0  0  0  0  0  0  0  0  0  0
    0.7651    2.7727    0.0902 C   0  0  0  0  0  0  0  0  0  0  0  0
   -0.2929    3.0481    0.1941 H   0  0  0  0  0  0  0  0  0  0  0  0
    2.3311    1.0538   -0.0748 C   0  0  0  0  0  0  0  0  0  0  0  0
    2.5215   -0.3519   -0.1111 C   0  0  0  0  0  0  0  0  0  0  0  0
  1  2  1  0  0  0  0
  3  5  1  0  0  0  0
  4 20  1  0  0  0  0
  5  1  1  0  0  0  0
  6  7  1  0  0  0  0
  6  5  2  0  0  0  0
  8 10  2  0  0  0  0
  8  6  1  0  0  0  0
  9  8  1  0  0  0  0
 10 23  1  0  0  0  0
 11 13  2  0  0  0  0
 11 10  1  0  0  0  0
 12 11  1  0  0  0  0
 13 15  1  0  0  0  0
 14 13  1  0  0  0  0
 15 16  2  0  0  0  0
 15 22  1  0  0  0  0
 16 18  1  0  0  0  0
 17 16  1  0  0  0  0
 18 19  1  0  0  0  0
 18 20  2  0  0  0  0
 20 21  1  0  0  0  0
 22  4  1  0  0  0  0
 23 22  2  0  0  0  0
 23  3  1  0  0  0  0
M  END
