3,4
 OpenBabel05122313053D

 82 83  0  0  0  0  0  0  0  0999 V2000
   -3.2009   -4.8011    0.0077 O   0  0  0  0  0  0  0  0  0  0  0  0
    3.2735    3.6273   -1.0307 O   0  0  0  0  0  0  0  0  0  0  0  0
    0.9034   -2.6287    0.9659 N   0  0  0  0  0  2  0  0  0  0  0  0
    3.8783   -0.4565   -0.7432 N   0  0  0  0  0  2  0  0  0  0  0  0
    0.1154   -3.4139    0.1873 C   0  0  0  0  0  3  0  0  0  0  0  0
    0.3816   -3.4439   -0.8791 H   0  0  0  0  0  0  0  0  0  0  0  0
   -0.9482   -4.1603    0.7056 C   0  0  0  0  0  0  0  0  0  0  0  0
   -1.2075   -4.0802    2.0863 C   0  0  0  0  0  0  0  0  0  0  0  0
   -2.0562   -4.6366    2.5129 H   0  0  0  0  0  0  0  0  0  0  0  0
   -0.3881   -3.2759    2.8855 C   0  0  0  0  0  0  0  0  0  0  0  0
   -0.5533   -3.1876    3.9687 H   0  0  0  0  0  0  0  0  0  0  0  0
    0.6600   -2.5599    2.2980 C   0  0  0  0  0  0  0  0  0  0  0  0
    1.3090   -1.8809    2.8674 H   0  0  0  0  0  0  0  0  0  0  0  0
   -1.8208   -5.0063   -0.2042 C   0  0  0  0  0  0  0  0  0  0  0  0
   -1.5366   -4.8166   -1.2682 H   0  0  0  0  0  0  0  0  0  0  0  0
   -1.6378   -6.0825    0.0008 H   0  0  0  0  0  0  0  0  0  0  0  0
   -3.6382   -3.5039   -0.3758 C   0  0  0  0  0  0  0  0  0  0  0  0
   -3.3741   -3.3114   -1.4464 H   0  0  0  0  0  0  0  0  0  0  0  0
   -3.1147   -2.7184    0.2231 H   0  0  0  0  0  0  0  0  0  0  0  0
   -5.1402   -3.3950   -0.1696 C   0  0  0  0  0  0  0  0  0  0  0  0
   -5.3742   -3.7064    0.8717 H   0  0  0  0  0  0  0  0  0  0  0  0
   -5.6539   -4.1232   -0.8338 H   0  0  0  0  0  0  0  0  0  0  0  0
   -5.6577   -1.9774   -0.4220 C   0  0  0  0  0  0  0  0  0  0  0  0
   -5.1573   -1.2762    0.2846 H   0  0  0  0  0  0  0  0  0  0  0  0
   -5.3463   -1.6480   -1.4377 H   0  0  0  0  0  0  0  0  0  0  0  0
   -7.6706   -0.3830   -0.2884 C   0  0  0  0  0  0  0  0  0  0  0  0
   -7.1636    0.1660    0.5360 H   0  0  0  0  0  0  0  0  0  0  0  0
   -8.7548   -0.3590   -0.0407 H   0  0  0  0  0  0  0  0  0  0  0  0
   -7.1765   -1.8352   -0.2711 C   0  0  0  0  0  0  0  0  0  0  0  0
   -7.4850   -2.3077    0.6874 H   0  0  0  0  0  0  0  0  0  0  0  0
   -7.6843   -2.4187   -1.0720 H   0  0  0  0  0  0  0  0  0  0  0  0
   -7.8829    1.8338   -1.5833 C   0  0  0  0  0  0  0  0  0  0  0  0
   -7.7916    2.2562   -2.6083 H   0  0  0  0  0  0  0  0  0  0  0  0
   -8.9648    1.8856   -1.3293 H   0  0  0  0  0  0  0  0  0  0  0  0
   -7.4501    0.3593   -1.6118 C   0  0  0  0  0  0  0  0  0  0  0  0
   -8.0070   -0.1680   -2.4175 H   0  0  0  0  0  0  0  0  0  0  0  0
   -6.3796    0.2969   -1.9043 H   0  0  0  0  0  0  0  0  0  0  0  0
   -7.1004    2.7264   -0.6069 C   0  0  0  0  0  0  0  0  0  0  0  0
   -7.2020    2.3306    0.4282 H   0  0  0  0  0  0  0  0  0  0  0  0
   -7.5744    3.7321   -0.5800 H   0  0  0  0  0  0  0  0  0  0  0  0
   -5.6126    2.8917   -0.9357 C   0  0  0  0  0  0  0  0  0  0  0  0
   -5.1347    1.8945   -1.0595 H   0  0  0  0  0  0  0  0  0  0  0  0
   -5.5094    3.3958   -1.9236 H   0  0  0  0  0  0  0  0  0  0  0  0
   -4.8386    3.6757    0.1275 C   0  0  0  0  0  0  0  0  0  0  0  0
   -4.8618    3.1057    1.0843 H   0  0  0  0  0  0  0  0  0  0  0  0
   -5.3677    4.6322    0.3418 H   0  0  0  0  0  0  0  0  0  0  0  0
   -3.3849    3.9825   -0.2442 C   0  0  0  0  0  0  0  0  0  0  0  0
   -2.8751    3.0470   -0.5681 H   0  0  0  0  0  0  0  0  0  0  0  0
   -3.3687    4.6539   -1.1326 H   0  0  0  0  0  0  0  0  0  0  0  0
   -2.5901    4.6232    0.8969 C   0  0  0  0  0  0  0  0  0  0  0  0
   -2.4948    3.8901    1.7299 H   0  0  0  0  0  0  0  0  0  0  0  0
   -3.1741    5.4736    1.3178 H   0  0  0  0  0  0  0  0  0  0  0  0
   -1.1988    5.1275    0.5032 C   0  0  0  0  0  0  0  0  0  0  0  0
   -1.3054    5.9353   -0.2567 H   0  0  0  0  0  0  0  0  0  0  0  0
   -0.6375    4.3113   -0.0035 H   0  0  0  0  0  0  0  0  0  0  0  0
   -0.3955    5.6514    1.6990 C   0  0  0  0  0  0  0  0  0  0  0  0
   -0.1374    4.7970    2.3635 H   0  0  0  0  0  0  0  0  0  0  0  0
   -1.0517    6.3101    2.3102 H   0  0  0  0  0  0  0  0  0  0  0  0
    0.8717    6.4393    1.3384 C   0  0  0  0  0  0  0  0  0  0  0  0
    1.3618    6.7718    2.2807 H   0  0  0  0  0  0  0  0  0  0  0  0
    0.5738    7.3713    0.8085 H   0  0  0  0  0  0  0  0  0  0  0  0
    1.9033    5.6998    0.4759 C   0  0  0  0  0  0  0  0  0  0  0  0
    1.4862    5.4834   -0.5298 H   0  0  0  0  0  0  0  0  0  0  0  0
    2.7653    6.3810    0.2974 H   0  0  0  0  0  0  0  0  0  0  0  0
    2.4236    4.3923    1.0815 C   0  0  0  0  0  0  0  0  0  0  0  0
    1.6260    3.6191    1.1100 H   0  0  0  0  0  0  0  0  0  0  0  0
    2.7325    4.5528    2.1381 H   0  0  0  0  0  0  0  0  0  0  0  0
    3.6215    3.8193    0.3415 C   0  0  0  0  0  0  0  0  0  0  0  0
    4.4927    4.5198    0.4017 H   0  0  0  0  0  0  0  0  0  0  0  0
    3.9310    2.8548    0.8086 H   0  0  0  0  0  0  0  0  0  0  0  0
    4.3266    3.1383   -1.8208 C   0  0  0  0  0  0  0  0  0  0  0  0
    5.2537    3.7532   -1.7005 H   0  0  0  0  0  0  0  0  0  0  0  0
    3.9999    3.2493   -2.8782 H   0  0  0  0  0  0  0  0  0  0  0  0
    3.6591    0.8467   -1.0373 C   0  0  0  0  0  3  0  0  0  0  0  0
    2.6605    1.2413   -0.8087 H   0  0  0  0  0  0  0  0  0  0  0  0
    4.6608    1.6806   -1.5503 C   0  0  0  0  0  0  0  0  0  0  0  0
    5.9290    1.1261   -1.7859 C   0  0  0  0  0  0  0  0  0  0  0  0
    6.7475    1.7540   -2.1731 H   0  0  0  0  0  0  0  0  0  0  0  0
    6.1398   -0.2327   -1.5144 C   0  0  0  0  0  0  0  0  0  0  0  0
    7.1160   -0.7060   -1.6911 H   0  0  0  0  0  0  0  0  0  0  0  0
    5.0975   -1.0002   -0.9889 C   0  0  0  0  0  0  0  0  0  0  0  0
    5.1964   -2.0712   -0.7663 H   0  0  0  0  0  0  0  0  0  0  0  0
  2 68  1  0  0  0  0
  3 12  1  0  0  0  0
  5  7  1  0  0  0  0
  5  3  1  0  0  0  0
  6  5  1  0  0  0  0
  7  8  2  0  0  0  0
  8  9  1  0  0  0  0
  8 10  1  0  0  0  0
 10 11  1  0  0  0  0
 12 13  1  0  0  0  0
 12 10  2  0  0  0  0
 14 16  1  0  0  0  0
 14  1  1  0  0  0  0
 14  7  1  0  0  0  0
 15 14  1  0  0  0  0
 17 20  1  0  0  0  0
 17  1  1  0  0  0  0
 17 19  1  0  0  0  0
 18 17  1  0  0  0  0
 20 21  1  0  0  0  0
 22 20  1  0  0  0  0
 23 29  1  0  0  0  0
 23 20  1  0  0  0  0
 23 24  1  0  0  0  0
 25 23  1  0  0  0  0
 26 29  1  0  0  0  0
 26 28  1  0  0  0  0
 26 27  1  0  0  0  0
 29 30  1  0  0  0  0
 31 29  1  0  0  0  0
 32 34  1  0  0  0  0
 32 38  1  0  0  0  0
 33 32  1  0  0  0  0
 35 32  1  0  0  0  0
 35 26  1  0  0  0  0
 36 35  1  0  0  0  0
 37 35  1  0  0  0  0
 38 40  1  0  0  0  0
 38 39  1  0  0  0  0
 41 38  1  0  0  0  0
 41 44  1  0  0  0  0
 42 41  1  0  0  0  0
 43 41  1  0  0  0  0
 44 46  1  0  0  0  0
 44 45  1  0  0  0  0
 47 44  1  0  0  0  0
 47 50  1  0  0  0  0
 48 47  1  0  0  0  0
 49 47  1  0  0  0  0
 50 52  1  0  0  0  0
 50 51  1  0  0  0  0
 53 50  1  0  0  0  0
 53 56  1  0  0  0  0
 54 53  1  0  0  0  0
 55 53  1  0  0  0  0
 56 58  1  0  0  0  0
 56 57  1  0  0  0  0
 59 56  1  0  0  0  0
 59 60  1  0  0  0  0
 61 59  1  0  0  0  0
 62 65  1  0  0  0  0
 62 59  1  0  0  0  0
 63 62  1  0  0  0  0
 64 62  1  0  0  0  0
 65 66  1  0  0  0  0
 65 67  1  0  0  0  0
 68 69  1  0  0  0  0
 68 70  1  0  0  0  0
 68 65  1  0  0  0  0
 71 72  1  0  0  0  0
 71 76  1  0  0  0  0
 71  2  1  0  0  0  0
 73 71  1  0  0  0  0
 74 75  1  0  0  0  0
 74  4  1  0  0  0  0
 76 74  1  0  0  0  0
 77 76  2  0  0  0  0
 77 79  1  0  0  0  0
 78 77  1  0  0  0  0
 79 81  2  0  0  0  0
 80 79  1  0  0  0  0
 81 82  1  0  0  0  0
 81  4  1  0  0  0  0
M  END
