1,12
 OpenBabel05122313053D

 38 39  0  0  0  0  0  0  0  0999 V2000
    0.8332   -1.3132   -0.0626 N   0  0  0  0  0  2  0  0  0  0  0  0
    0.8737   -2.6691   -0.1004 C   0  0  0  0  0  0  0  0  0  0  0  0
   -0.2879   -3.4347   -0.1547 C   0  0  0  0  0  0  0  0  0  0  0  0
   -1.5426   -2.7936   -0.1722 C   0  0  0  0  0  0  0  0  0  0  0  0
   -1.5795   -1.3919   -0.1331 C   0  0  0  0  0  0  0  0  0  0  0  0
   -0.3813   -0.6672   -0.0785 C   0  0  0  0  0  0  0  0  0  0  0  0
   -0.2962    0.7961   -0.0336 C   0  0  0  0  0  0  0  0  0  0  0  0
   -1.4022    1.6566   -0.0409 C   0  0  0  0  0  0  0  0  0  0  0  0
   -1.2033    3.0445    0.0058 C   0  0  0  0  0  0  0  0  0  0  0  0
    0.1171    3.5337    0.0589 C   0  0  0  0  0  0  0  0  0  0  0  0
    1.1820    2.6369    0.0636 C   0  0  0  0  0  0  0  0  0  0  0  0
    0.9848    1.2950    0.0183 N   0  0  0  0  0  2  0  0  0  0  0  0
   -2.7799   -3.6340   -0.2293 C   0  0  0  0  0  0  0  0  0  0  0  0
   -2.7686   -4.8524   -0.2530 O   0  0  0  0  0  0  0  0  0  0  0  0
   -3.8995   -2.8736   -0.2555 O   0  0  0  0  0  0  0  0  0  0  0  0
   -5.1600   -3.5872   -0.2918 C   0  0  0  0  0  0  0  0  0  0  0  0
   -5.6146   -3.9841    1.1023 C   0  0  0  0  0  0  0  0  0  0  0  0
   -2.3348    4.0243    0.0013 C   0  0  0  0  0  0  0  0  0  0  0  0
   -2.1878    5.2330    0.0408 O   0  0  0  0  0  0  0  0  0  0  0  0
   -3.5353    3.4042   -0.0519 O   0  0  0  0  0  0  0  0  0  0  0  0
   -4.6930    4.2718   -0.0606 C   0  0  0  0  0  0  0  0  0  0  0  0
   -5.9295    3.4006   -0.1162 C   0  0  0  0  0  0  0  0  0  0  0  0
    1.8911   -3.0946   -0.0837 H   0  0  0  0  0  0  0  0  0  0  0  0
   -0.2389   -4.5322   -0.1843 H   0  0  0  0  0  0  0  0  0  0  0  0
   -2.5470   -0.8749   -0.1446 H   0  0  0  0  0  0  0  0  0  0  0  0
   -2.4227    1.2562   -0.0829 H   0  0  0  0  0  0  0  0  0  0  0  0
    0.2927    4.6180    0.0960 H   0  0  0  0  0  0  0  0  0  0  0  0
    2.2417    2.9398    0.1033 H   0  0  0  0  0  0  0  0  0  0  0  0
   -5.8643   -2.8783   -0.7683 H   0  0  0  0  0  0  0  0  0  0  0  0
   -5.0406   -4.4780   -0.9408 H   0  0  0  0  0  0  0  0  0  0  0  0
   -6.6156   -4.4574    1.0499 H   0  0  0  0  0  0  0  0  0  0  0  0
   -4.9142   -4.7154    1.5500 H   0  0  0  0  0  0  0  0  0  0  0  0
   -5.6849   -3.1002    1.7669 H   0  0  0  0  0  0  0  0  0  0  0  0
   -4.6632    4.9095    0.8479 H   0  0  0  0  0  0  0  0  0  0  0  0
   -4.6154    4.9550   -0.9326 H   0  0  0  0  0  0  0  0  0  0  0  0
   -6.8369    4.0358   -0.1247 H   0  0  0  0  0  0  0  0  0  0  0  0
   -5.9376    2.7763   -1.0317 H   0  0  0  0  0  0  0  0  0  0  0  0
   -5.9862    2.7308    0.7647 H   0  0  0  0  0  0  0  0  0  0  0  0
  2 23  1  0  0  0  0
  2  1  1  0  0  0  0
  3  2  2  0  0  0  0
  4  3  1  0  0  0  0
  4  5  2  0  0  0  0
  5  6  1  0  0  0  0
  6  1  1  0  0  0  0
  6  7  2  0  0  0  0
  7 12  1  0  0  0  0
  8  7  1  0  0  0  0
  8  9  2  0  0  0  0
  9 10  1  0  0  0  0
 10 11  2  0  0  0  0
 10 27  1  0  0  0  0
 11 28  1  0  0  0  0
 12 11  1  0  0  0  0
 13  4  1  0  0  0  0
 14 13  2  0  0  0  0
 15 13  1  0  0  0  0
 16 15  1  0  0  0  0
 16 17  1  0  0  0  0
 17 32  1  0  0  0  0
 17 33  1  0  0  0  0
 18  9  1  0  0  0  0
 18 19  2  0  0  0  0
 20 18  1  0  0  0  0
 21 20  1  0  0  0  0
 21 34  1  0  0  0  0
 22 21  1  0  0  0  0
 22 38  1  0  0  0  0
 24  3  1  0  0  0  0
 25  5  1  0  0  0  0
 26  8  1  0  0  0  0
 29 16  1  0  0  0  0
 30 16  1  0  0  0  0
 31 17  1  0  0  0  0
 35 21  1  0  0  0  0
 36 22  1  0  0  0  0
 37 22  1  0  0  0  0
M  END
