1,7
 OpenBabel05122313053D

 35 37  0  0  1  0  0  0  0  0999 V2000
   -0.4558   -1.2031    0.6203 N   0  0  0  0  0  2  0  0  0  0  0  0
    0.7168   -0.5555    0.7718 C   0  0  2  0  0  3  0  0  0  0  0  0
    1.5762   -1.3489    1.5052 N   0  0  0  0  0  0  0  0  0  0  0  0
    2.8869   -1.0088    2.0384 C   0  0  0  0  0  0  0  0  0  0  0  0
    0.9203   -2.5326    1.7697 C   0  0  0  0  0  0  0  0  0  0  0  0
   -0.3398   -2.4374    1.2094 C   0  0  0  0  0  0  0  0  0  0  0  0
   -1.4072    1.4434    0.2275 N   0  0  0  0  0  2  0  0  0  0  0  0
   -0.0943    1.7570    0.2940 C   0  0  0  0  0  0  0  0  0  0  0  0
    0.0444    3.1278    0.3229 N   0  0  0  0  0  0  0  0  0  0  0  0
    1.2748    3.9042    0.3938 C   0  0  0  0  0  0  0  0  0  0  0  0
   -1.2225    3.6689    0.2919 C   0  0  0  0  0  0  0  0  0  0  0  0
   -2.1177    2.6165    0.2243 C   0  0  0  0  0  0  0  0  0  0  0  0
    1.0160    0.7989    0.2628 C   0  0  0  0  0  0  0  0  0  0  0  0
    2.1678    1.2243   -0.1799 N   0  0  0  0  0  2  0  0  0  0  0  0
    3.2226    0.4083   -0.5707 C   0  0  0  0  0  0  0  0  0  0  0  0
    3.0234   -0.7951   -1.2987 C   0  0  0  0  0  0  0  0  0  0  0  0
    4.1227   -1.5520   -1.7197 C   0  0  0  0  0  0  0  0  0  0  0  0
    5.4338   -1.1388   -1.4235 C   0  0  0  0  0  0  0  0  0  0  0  0
    5.6388    0.0642   -0.7258 C   0  0  0  0  0  0  0  0  0  0  0  0
    4.5482    0.8419   -0.3203 C   0  0  0  0  0  0  0  0  0  0  0  0
    3.0060   -1.4991    3.0223 H   0  0  0  0  0  0  0  0  0  0  0  0
    3.6954   -1.3370    1.3569 H   0  0  0  0  0  0  0  0  0  0  0  0
    2.9652    0.0839    2.1734 H   0  0  0  0  0  0  0  0  0  0  0  0
    1.3902   -3.3252    2.3603 H   0  0  0  0  0  0  0  0  0  0  0  0
   -1.1772   -3.1435    1.1615 H   0  0  0  0  0  0  0  0  0  0  0  0
    1.8427    3.8238   -0.5509 H   0  0  0  0  0  0  0  0  0  0  0  0
    1.0044    4.9576    0.5918 H   0  0  0  0  0  0  0  0  0  0  0  0
    1.9224    3.5313    1.2082 H   0  0  0  0  0  0  0  0  0  0  0  0
   -1.3826    4.7511    0.3265 H   0  0  0  0  0  0  0  0  0  0  0  0
   -3.2092    2.5922    0.1215 H   0  0  0  0  0  0  0  0  0  0  0  0
    2.0008   -1.1116   -1.5538 H   0  0  0  0  0  0  0  0  0  0  0  0
    3.9526   -2.4755   -2.2940 H   0  0  0  0  0  0  0  0  0  0  0  0
    6.2924   -1.7417   -1.7538 H   0  0  0  0  0  0  0  0  0  0  0  0
    6.6617    0.4066   -0.5068 H   0  0  0  0  0  0  0  0  0  0  0  0
    4.6963    1.7918    0.2144 H   0  0  0  0  0  0  0  0  0  0  0  0
  1  2  1  0  0  0  0
  1  6  1  0  0  0  0
  2 13  1  1  0  0  0
  2  3  1  0  0  0  0
  3  5  1  0  0  0  0
  3  4  1  0  0  0  0
  4 23  1  0  0  0  0
  4 21  1  0  0  0  0
  5 24  1  0  0  0  0
  6  5  2  0  0  0  0
  7  8  1  0  0  0  0
  8  9  1  0  0  0  0
  9 10  1  0  0  0  0
 10 27  1  0  0  0  0
 10 28  1  0  0  0  0
 11  9  1  0  0  0  0
 11 29  1  0  0  0  0
 12  7  1  0  0  0  0
 12 11  2  0  0  0  0
 13  8  2  0  0  0  0
 14 13  1  0  0  0  0
 15 20  1  0  0  0  0
 15 14  1  0  0  0  0
 16 15  2  0  0  0  0
 17 18  2  0  0  0  0
 17 16  1  0  0  0  0
 18 19  1  0  0  0  0
 19 34  1  0  0  0  0
 19 20  2  0  0  0  0
 20 35  1  0  0  0  0
 22  4  1  0  0  0  0
 25  6  1  0  0  0  0
 26 10  1  0  0  0  0
 30 12  1  0  0  0  0
 31 16  1  0  0  0  0
 32 17  1  0  0  0  0
 33 18  1  0  0  0  0
M  END
