1,11
 OpenBabel05122313053D

 36 39  0  0  1  0  0  0  0  0999 V2000
    1.4847   -0.0503   -0.0055 N   0  0  0  0  0  2  0  0  0  0  0  0
    1.3570    1.2577   -0.3216 C   0  0  2  0  0  3  0  0  0  0  0  0
    2.5686    1.9216   -0.1659 N   0  0  0  0  0  0  0  0  0  0  0  0
    2.8900    3.3294   -0.3524 C   0  0  0  0  0  0  0  0  0  0  0  0
    3.4807    1.0009    0.3124 C   0  0  0  0  0  0  0  0  0  0  0  0
    2.7898   -0.2389    0.4165 C   0  0  0  0  0  0  0  0  0  0  0  0
    3.4417   -1.3789    0.9286 C   0  0  0  0  0  0  0  0  0  0  0  0
    4.7791   -1.2404    1.3038 C   0  0  0  0  0  0  0  0  0  0  0  0
    5.4643   -0.0032    1.1783 C   0  0  0  0  0  0  0  0  0  0  0  0
    4.8290    1.1416    0.6883 C   0  0  0  0  0  0  0  0  0  0  0  0
   -1.3501    0.1049    0.1713 N   0  0  0  0  0  2  0  0  0  0  0  0
   -1.1789    1.3682   -0.2603 C   0  0  1  0  0  3  0  0  0  0  0  0
   -2.3662    2.0886   -0.1838 N   0  0  0  0  0  0  0  0  0  0  0  0
   -2.6418    3.4775   -0.5213 C   0  0  0  0  0  0  0  0  0  0  0  0
   -3.3173    1.2389    0.3478 C   0  0  0  0  0  0  0  0  0  0  0  0
   -2.6646   -0.0111    0.5639 C   0  0  0  0  0  0  0  0  0  0  0  0
   -3.3701   -1.1054    1.1111 C   0  0  0  0  0  0  0  0  0  0  0  0
   -4.7143   -0.9014    1.4238 C   0  0  0  0  0  0  0  0  0  0  0  0
   -5.3540    0.3486    1.2050 C   0  0  0  0  0  0  0  0  0  0  0  0
   -4.6717    1.4439    0.6664 C   0  0  0  0  0  0  0  0  0  0  0  0
    0.1047    1.9629   -0.6930 C   0  0  0  0  0  0  0  0  0  0  0  0
    0.1483    3.0815   -1.2373 O   0  0  0  0  0  0  0  0  0  0  0  0
    2.0258    3.8345   -0.8114 H   0  0  0  0  0  0  0  0  0  0  0  0
    3.7673    3.4179   -1.0240 H   0  0  0  0  0  0  0  0  0  0  0  0
    3.1396    3.7962    0.6225 H   0  0  0  0  0  0  0  0  0  0  0  0
    2.8983   -2.3259    1.0348 H   0  0  0  0  0  0  0  0  0  0  0  0
    5.3164   -2.1089    1.7122 H   0  0  0  0  0  0  0  0  0  0  0  0
    6.5194    0.0582    1.4841 H   0  0  0  0  0  0  0  0  0  0  0  0
    5.3564    2.1024    0.6094 H   0  0  0  0  0  0  0  0  0  0  0  0
   -2.9431    4.0362    0.3884 H   0  0  0  0  0  0  0  0  0  0  0  0
   -3.4723    3.5204   -1.2545 H   0  0  0  0  0  0  0  0  0  0  0  0
   -1.7370    3.9238   -0.9624 H   0  0  0  0  0  0  0  0  0  0  0  0
   -2.8648   -2.0706    1.2438 H   0  0  0  0  0  0  0  0  0  0  0  0
   -5.2993   -1.7297    1.8499 H   0  0  0  0  0  0  0  0  0  0  0  0
   -6.4168    0.4580    1.4688 H   0  0  0  0  0  0  0  0  0  0  0  0
   -5.1700    2.4098    0.5037 H   0  0  0  0  0  0  0  0  0  0  0  0
  1  6  1  0  0  0  0
  2 21  1  1  0  0  0
  2  3  1  0  0  0  0
  2  1  1  0  0  0  0
  3  5  1  0  0  0  0
  4  3  1  0  0  0  0
  4 25  1  0  0  0  0
  5  6  2  0  0  0  0
  5 10  1  0  0  0  0
  6  7  1  0  0  0  0
  7 26  1  0  0  0  0
  7  8  2  0  0  0  0
  8 27  1  0  0  0  0
  9  8  1  0  0  0  0
  9 28  1  0  0  0  0
 10  9  2  0  0  0  0
 11 16  1  0  0  0  0
 12 21  1  1  0  0  0
 12 13  1  0  0  0  0
 12 11  1  0  0  0  0
 13 15  1  0  0  0  0
 14 13  1  0  0  0  0
 14 30  1  0  0  0  0
 15 16  2  0  0  0  0
 15 20  1  0  0  0  0
 16 17  1  0  0  0  0
 17 33  1  0  0  0  0
 17 18  2  0  0  0  0
 18 34  1  0  0  0  0
 19 18  1  0  0  0  0
 19 35  1  0  0  0  0
 20 19  2  0  0  0  0
 22 21  2  0  0  0  0
 23  4  1  0  0  0  0
 24  4  1  0  0  0  0
 29 10  1  0  0  0  0
 31 14  1  0  0  0  0
 32 14  1  0  0  0  0
 36 20  1  0  0  0  0
M  END
