2,7
q = -1.0, confidence = 0.254

 54 59  0  0  1  0  0  0  0  0999 V2000
    8.2329   -0.8608    0.0085 Br  0  0  0  0  0  0  0  0  0  0  0  0
   -2.3699    2.6302   -0.0508 N   0  0  0  0  0  2  0  0  0  0  0  0
   -3.6205    3.1249   -0.0530 C   0  0  0  0  0  0  0  0  0  0  0  0
   -4.4242    2.3694   -0.0580 H   0  0  0  0  0  0  0  0  0  0  0  0
    1.9246   -3.3923   -0.1707 B   0  0  0  0  0  2  0  0  0  0  0  0
    2.8734   -4.1399   -0.1417 H   0  0  0  0  0  0  0  0  0  0  0  0
    0.0412    1.4472   -0.0797 N   0  0  0  0  0  2  0  0  0  0  0  0
    1.9989   -1.8495   -1.0464 B   0  0  1  0  0  0  0  0  0  0  0  0
    2.9549   -1.4130   -1.6246 H   0  0  0  0  0  0  0  0  0  0  0  0
   -3.8738    4.5010   -0.0489 C   0  0  0  0  0  0  0  0  0  0  0  0
   -4.9091    4.8701   -0.0514 H   0  0  0  0  0  0  0  0  0  0  0  0
   -2.7812    5.3840   -0.0423 C   0  0  0  0  0  0  0  0  0  0  0  0
   -2.9399    6.4724   -0.0402 H   0  0  0  0  0  0  0  0  0  0  0  0
    0.2191   -3.9415   -0.1881 B   0  0  0  0  0  0  0  0  0  0  0  0
   -0.0737   -5.1142   -0.1694 H   0  0  0  0  0  0  0  0  0  0  0  0
    0.9042   -3.1254   -1.6161 B   0  0  1  0  0  0  0  0  0  0  0  0
    1.1213   -3.6818   -2.6673 H   0  0  0  0  0  0  0  0  0  0  0  0
   -1.4818    4.8655   -0.0399 C   0  0  0  0  0  0  0  0  0  0  0  0
   -0.6189    5.5446   -0.0374 H   0  0  0  0  0  0  0  0  0  0  0  0
   -1.2947    3.4686   -0.0449 C   0  0  0  0  0  0  0  0  0  0  0  0
   -0.7533   -2.7297   -1.0708 B   0  0  0  0  0  0  0  0  0  0  0  0
   -1.7420   -3.0031   -1.7072 H   0  0  0  0  0  0  0  0  0  0  0  0
   -0.7333   -1.1990   -0.1791 B   0  0  0  0  0  2  0  0  0  0  0  0
    0.0335    2.8178   -0.0454 C   0  0  0  0  0  0  0  0  0  0  0  0
   -0.7505   -2.7374    0.7113 B   0  0  0  0  0  0  0  0  0  0  0  0
   -1.6900   -2.9342    1.4407 H   0  0  0  0  0  0  0  0  0  0  0  0
    1.2437    3.5250   -0.0106 C   0  0  0  0  0  0  0  0  0  0  0  0
    1.2494    4.6224    0.0160 H   0  0  0  0  0  0  0  0  0  0  0  0
    2.4420    2.8173   -0.0067 C   0  0  0  0  0  0  0  0  0  0  0  0
    3.4029    3.3503    0.0230 H   0  0  0  0  0  0  0  0  0  0  0  0
    0.3539   -1.4323   -1.5918 B   0  0  1  0  0  0  0  0  0  0  0  0
    0.2204   -0.6869   -2.5307 H   0  0  0  0  0  0  0  0  0  0  0  0
    0.8896   -3.1546    1.2545 B   0  0  1  0  0  0  0  0  0  0  0  0
    1.0670   -3.6142    2.3562 H   0  0  0  0  0  0  0  0  0  0  0  0
    2.4582    1.4016   -0.0399 C   0  0  0  0  0  0  0  0  0  0  0  0
    1.2155    0.7283   -0.0815 C   0  0  0  0  0  0  0  0  0  0  0  0
    1.9894   -1.8687    0.7306 B   0  0  0  0  0  2  0  0  0  0  0  0
    2.8482   -1.4307    1.4430 H   0  0  0  0  0  0  0  0  0  0  0  0
    3.8157    0.7762   -0.0303 C   0  0  0  0  0  0  0  0  0  0  0  0
    4.5063    0.5510   -1.2368 C   0  0  0  0  0  0  0  0  0  0  0  0
    4.0076    0.7552   -2.1955 H   0  0  0  0  0  0  0  0  0  0  0  0
    5.8197    0.0627   -1.2331 C   0  0  0  0  0  0  0  0  0  0  0  0
    6.3490   -0.1211   -2.1783 H   0  0  0  0  0  0  0  0  0  0  0  0
    6.4536   -0.1934   -0.0071 C   0  0  0  0  0  0  0  0  0  0  0  0
    5.7935    0.0474    1.2082 C   0  0  0  0  0  0  0  0  0  0  0  0
    6.3027   -0.1474    2.1622 H   0  0  0  0  0  0  0  0  0  0  0  0
    4.4809    0.5375    1.1881 C   0  0  0  0  0  0  0  0  0  0  0  0
    3.9626    0.7327    2.1387 H   0  0  0  0  0  0  0  0  0  0  0  0
    0.3586   -1.5332    1.1813 C   0  0  1  0  0  0  0  0  0  0  0  0
    1.0114   -0.7688   -0.1575 C   0  0  2  0  0  0  0  0  0  0  0  0
    0.1640   -0.7368    2.4582 C   0  0  0  0  0  0  0  0  0  0  0  0
    0.4220   -1.3718    3.3253 H   0  0  0  0  0  0  0  0  0  0  0  0
   -0.8863   -0.4021    2.5410 H   0  0  0  0  0  0  0  0  0  0  0  0
    0.8179    0.1560    2.4782 H   0  0  0  0  0  0  0  0  0  0  0  0
  2 20  1  0  0  0  0
  3  2  1  0  0  0  0
  3 10  2  0  0  0  0
  4  3  1  0  0  0  0
  5  6  1  0  0  0  0
  7 24  1  0  0  0  0
  8  9  1  6  0  0  0
  8  5  1  0  0  0  0
  8 50  1  0  0  0  0
 10 12  1  0  0  0  0
 11 10  1  0  0  0  0
 12 13  1  0  0  0  0
 12 18  2  0  0  0  0
 14 15  1  0  0  0  0
 14 33  1  0  0  0  0
 16 17  1  6  0  0  0
 16 31  1  0  0  0  0
 16  8  1  0  0  0  0
 16 14  1  0  0  0  0
 18 19  1  0  0  0  0
 20 18  1  0  0  0  0
 21 23  1  0  0  0  0
 22 21  1  0  0  0  0
 23 25  1  0  0  0  0
 24 20  2  0  0  0  0
 24 27  1  0  0  0  0
 25 49  1  0  0  0  0
 25 26  1  0  0  0  0
 27 29  2  0  0  0  0
 27 28  1  0  0  0  0
 29 30  1  0  0  0  0
 31 32  1  6  0  0  0
 31 21  1  0  0  0  0
 31 50  1  0  0  0  0
 33 34  1  1  0  0  0
 35 39  1  0  0  0  0
 35 29  1  0  0  0  0
 36  7  1  0  0  0  0
 36 35  2  0  0  0  0
 37 33  1  0  0  0  0
 37 38  1  0  0  0  0
 39 47  1  0  0  0  0
 40 42  1  0  0  0  0
 40 39  2  0  0  0  0
 41 40  1  0  0  0  0
 42 44  2  0  0  0  0
 43 42  1  0  0  0  0
 44  1  1  0  0  0  0
 44 45  1  0  0  0  0
 45 46  1  0  0  0  0
 47 45  2  0  0  0  0
 47 48  1  0  0  0  0
 49 33  1  0  0  0  0
 49 51  1  1  0  0  0
 50 36  1  1  0  0  0
 50 49  1  0  0  0  0
 51 54  1  0  0  0  0
 51 53  1  0  0  0  0
 51 52  1  0  0  0  0
M  END
