3,4
 OpenBabel05122313053D

 24 24  0  0  1  0  0  0  0  0999 V2000
   -2.7453   -1.5570   -0.0828 O   0  0  0  0  0  0  0  0  0  0  0  0
    0.0061   -2.6397   -0.2841 O   0  0  0  0  0  0  0  0  0  0  0  0
   -0.5617    1.2838   -0.0542 N   0  0  0  0  0  2  0  0  0  0  0  0
   -0.3426   -1.3930    0.2972 N   0  0  0  0  0  0  0  0  0  0  0  0
   -1.5739   -0.8965   -0.4216 C   0  0  2  0  0  0  0  0  0  0  0  0
   -1.3099   -1.0415   -1.4964 H   0  0  0  0  0  0  0  0  0  0  0  0
   -0.5549   -1.5976    1.7467 C   0  0  0  0  0  0  0  0  0  0  0  0
    0.4077   -1.9334    2.1709 H   0  0  0  0  0  0  0  0  0  0  0  0
   -1.3450   -2.3561    1.9118 H   0  0  0  0  0  0  0  0  0  0  0  0
   -0.8472   -0.6361    2.2105 H   0  0  0  0  0  0  0  0  0  0  0  0
   -2.9745   -2.7997   -0.7513 C   0  0  0  0  0  0  0  0  0  0  0  0
   -4.0052   -3.1080   -0.4954 H   0  0  0  0  0  0  0  0  0  0  0  0
   -2.2533   -3.5762   -0.4270 H   0  0  0  0  0  0  0  0  0  0  0  0
   -2.8902   -2.6775   -1.8542 H   0  0  0  0  0  0  0  0  0  0  0  0
   -1.7251    0.5881   -0.1385 C   0  0  2  0  0  3  0  0  0  0  0  0
   -2.9663    1.2180   -0.0264 C   0  0  0  0  0  0  0  0  0  0  0  0
   -3.8742    0.6036   -0.0874 H   0  0  0  0  0  0  0  0  0  0  0  0
   -3.0019    2.6089    0.1589 C   0  0  0  0  0  0  0  0  0  0  0  0
   -3.9651    3.1321    0.2522 H   0  0  0  0  0  0  0  0  0  0  0  0
   -1.7937    3.3187    0.2198 C   0  0  0  0  0  0  0  0  0  0  0  0
   -1.7773    4.4094    0.3561 H   0  0  0  0  0  0  0  0  0  0  0  0
   -0.5838    2.6239    0.1137 C   0  0  0  0  0  0  0  0  0  0  0  0
    0.4123    3.0973    0.1499 H   0  0  0  0  0  0  0  0  0  0  0  0
    1.0175   -2.5861   -0.2652 H   0  0  0  0  0  0  0  0  0  0  0  0
  2 24  1  0  0  0  0
  2  4  1  0  0  0  0
  3 22  1  0  0  0  0
  4  7  1  0  0  0  0
  5  6  1  6  0  0  0
  5  1  1  0  0  0  0
  5  4  1  0  0  0  0
  7  9  1  0  0  0  0
  7  8  1  0  0  0  0
  7 10  1  0  0  0  0
 11 12  1  0  0  0  0
 11 13  1  0  0  0  0
 11  1  1  0  0  0  0
 14 11  1  0  0  0  0
 15  5  1  6  0  0  0
 15  3  1  0  0  0  0
 15 16  1  0  0  0  0
 16 18  2  0  0  0  0
 17 16  1  0  0  0  0
 18 20  1  0  0  0  0
 18 19  1  0  0  0  0
 20 21  1  0  0  0  0
 22 23  1  0  0  0  0
 22 20  2  0  0  0  0
M  END
