1,2
 OpenBabel05122313053D

 40 41  0  0  0  0  0  0  0  0999 V2000
   -1.3091   -2.8699   -1.3200 N   0  0  0  0  0  2  0  0  0  0  0  0
    1.3977   -2.8512   -0.6752 N   0  0  0  0  0  2  0  0  0  0  0  0
   -5.3262    2.9837   -1.2964 F   0  0  0  0  0  0  0  0  0  0  0  0
   -6.8897    1.8529   -0.2688 F   0  0  0  0  0  0  0  0  0  0  0  0
   -5.1100    2.4932    0.8185 F   0  0  0  0  0  0  0  0  0  0  0  0
    7.4500    1.4498   -0.3059 F   0  0  0  0  0  0  0  0  0  0  0  0
    6.1050    2.4234   -1.7277 F   0  0  0  0  0  0  0  0  0  0  0  0
    5.7593    2.6247    0.4162 F   0  0  0  0  0  0  0  0  0  0  0  0
   -5.5497    2.0127   -0.3842 C   0  0  0  0  0  0  0  0  0  0  0  0
   -4.8489    0.7242   -0.7317 C   0  0  0  0  0  0  0  0  0  0  0  0
   -5.3690   -0.4983   -0.2701 C   0  0  0  0  0  0  0  0  0  0  0  0
   -6.3299   -0.5169    0.2630 H   0  0  0  0  0  0  0  0  0  0  0  0
   -4.6468   -1.6774   -0.4718 C   0  0  0  0  0  0  0  0  0  0  0  0
   -5.0380   -2.6317   -0.0869 H   0  0  0  0  0  0  0  0  0  0  0  0
   -3.3909   -1.6465   -1.1177 C   0  0  0  0  0  0  0  0  0  0  0  0
   -2.9071   -0.4222   -1.6387 C   0  0  0  0  0  0  0  0  0  0  0  0
   -1.9659   -0.4022   -2.2171 H   0  0  0  0  0  0  0  0  0  0  0  0
   -3.6341    0.7547   -1.4399 C   0  0  0  0  0  0  0  0  0  0  0  0
   -3.2490    1.7083   -1.8279 H   0  0  0  0  0  0  0  0  0  0  0  0
   -2.5948   -2.8740   -1.1874 C   0  0  0  0  0  3  0  0  0  0  0  0
   -3.1442   -3.8377   -1.0763 H   0  0  0  0  0  0  0  0  0  0  0  0
   -0.5780   -4.1218   -1.3892 C   0  0  0  0  0  0  0  0  0  0  0  0
   -0.2012   -4.2352   -2.4295 H   0  0  0  0  0  0  0  0  0  0  0  0
   -1.2149   -5.0065   -1.1543 H   0  0  0  0  0  0  0  0  0  0  0  0
    0.6229   -4.0657   -0.4366 C   0  0  0  0  0  0  0  0  0  0  0  0
    0.2485   -4.0584    0.6129 H   0  0  0  0  0  0  0  0  0  0  0  0
    1.2440   -4.9814   -0.5522 H   0  0  0  0  0  0  0  0  0  0  0  0
    2.6168   -2.8091   -0.2382 C   0  0  0  0  0  3  0  0  0  0  0  0
    3.0390   -3.6775    0.3181 H   0  0  0  0  0  0  0  0  0  0  0  0
    3.5163   -1.6669   -0.3973 C   0  0  0  0  0  0  0  0  0  0  0  0
    4.7241   -1.6560    0.3370 C   0  0  0  0  0  0  0  0  0  0  0  0
    4.9669   -2.5062    0.9932 H   0  0  0  0  0  0  0  0  0  0  0  0
    5.5969   -0.5672    0.2609 C   0  0  0  0  0  0  0  0  0  0  0  0
    6.5268   -0.5553    0.8468 H   0  0  0  0  0  0  0  0  0  0  0  0
    5.2761    0.5245   -0.5641 C   0  0  0  0  0  0  0  0  0  0  0  0
    4.0952    0.5064   -1.3307 C   0  0  0  0  0  0  0  0  0  0  0  0
    3.8560    1.3488   -1.9958 H   0  0  0  0  0  0  0  0  0  0  0  0
    3.2188   -0.5772   -1.2514 C   0  0  0  0  0  0  0  0  0  0  0  0
    2.3011   -0.5753   -1.8669 H   0  0  0  0  0  0  0  0  0  0  0  0
    6.1537    1.7504   -0.5573 C   0  0  0  0  0  0  0  0  0  0  0  0
  1 20  1  0  0  0  0
  2 25  1  0  0  0  0
  2 28  1  0  0  0  0
  3  9  1  0  0  0  0
  7 40  1  0  0  0  0
  9  4  1  0  0  0  0
  9  5  1  0  0  0  0
 10  9  1  0  0  0  0
 10 11  1  0  0  0  0
 11 12  1  0  0  0  0
 13 11  2  0  0  0  0
 13 14  1  0  0  0  0
 15 13  1  0  0  0  0
 16 18  1  0  0  0  0
 16 15  2  0  0  0  0
 17 16  1  0  0  0  0
 18 10  2  0  0  0  0
 19 18  1  0  0  0  0
 20 15  1  0  0  0  0
 20 21  1  0  0  0  0
 22  1  1  0  0  0  0
 22 24  1  0  0  0  0
 22 25  1  0  0  0  0
 23 22  1  0  0  0  0
 25 26  1  0  0  0  0
 27 25  1  0  0  0  0
 28 29  1  0  0  0  0
 30 28  1  0  0  0  0
 30 31  1  0  0  0  0
 31 32  1  0  0  0  0
 33 31  2  0  0  0  0
 33 34  1  0  0  0  0
 35 40  1  0  0  0  0
 35 33  1  0  0  0  0
 36 38  1  0  0  0  0
 36 35  2  0  0  0  0
 37 36  1  0  0  0  0
 38 30  2  0  0  0  0
 39 38  1  0  0  0  0
 40  6  1  0  0  0  0
 40  8  1  0  0  0  0
M  END
