10,18
 OpenBabel05122313053D

 59 61  0  0  1  0  0  0  0  0999 V2000
    0.9767   -0.9836   -0.7880 C   0  0  2  0  0  0  0  0  0  0  0  0
    1.1499   -1.6320   -2.1855 C   0  0  0  0  0  0  0  0  0  0  0  0
   -0.2012   -1.6214   -0.0877 C   0  0  2  0  0  3  0  0  0  0  0  0
   -0.0057   -2.9212    0.2056 O   0  0  0  0  0  0  0  0  0  0  0  0
   -1.1744   -3.3351    0.9737 C   0  0  0  0  0  0  0  0  0  0  0  0
   -2.2218   -2.2540    0.6633 C   0  0  2  0  0  0  0  0  0  0  0  0
   -3.2571   -2.6343   -0.4226 C   0  0  0  0  0  0  0  0  0  0  0  0
   -4.2469   -3.6553    0.1477 C   0  0  0  0  0  0  0  0  0  0  0  0
   -2.6270   -3.1022   -1.7370 C   0  0  0  0  0  0  0  0  0  0  0  0
   -1.3601   -1.1265    0.2084 N   0  0  0  0  0  2  0  0  0  0  0  0
    0.8532    0.5161   -0.9401 C   0  0  2  0  0  3  0  0  0  0  0  0
    1.9541    1.1009   -1.4510 O   0  0  0  0  0  0  0  0  0  0  0  0
    1.6079    2.5035   -1.6566 C   0  0  0  0  0  0  0  0  0  0  0  0
    0.3339    2.7005   -0.8188 C   0  0  2  0  0  0  0  0  0  0  0  0
    0.5425    3.3800    0.5556 C   0  0  0  0  0  0  0  0  0  0  0  0
    1.6257    2.7159    1.4107 C   0  0  0  0  0  0  0  0  0  0  0  0
    0.7912    4.8780    0.3543 C   0  0  0  0  0  0  0  0  0  0  0  0
   -0.1353    1.2976   -0.6459 N   0  0  0  0  0  2  0  0  0  0  0  0
    2.2161   -1.2446    0.0635 C   0  0  0  0  0  0  0  0  0  0  0  0
    2.0856   -0.8479    1.3621 O   0  0  0  0  0  0  0  0  0  0  0  0
    3.3338   -1.2211    2.0027 C   0  0  0  0  0  0  0  0  0  0  0  0
    4.2276   -1.7199    0.8281 C   0  0  2  0  0  0  0  0  0  0  0  0
    5.4641   -0.8365    0.5300 C   0  0  0  0  0  0  0  0  0  0  0  0
    6.3165   -1.4687   -0.5757 C   0  0  0  0  0  0  0  0  0  0  0  0
    5.0775    0.6067    0.1843 C   0  0  0  0  0  0  0  0  0  0  0  0
    3.3141   -1.7611   -0.3293 N   0  0  0  0  0  0  0  0  0  0  0  0
    2.0660   -1.2345   -2.6560 H   0  0  0  0  0  0  0  0  0  0  0  0
    1.2539   -2.7257   -2.0742 H   0  0  0  0  0  0  0  0  0  0  0  0
    0.2701   -1.4019   -2.8157 H   0  0  0  0  0  0  0  0  0  0  0  0
   -0.8754   -3.3610    2.0420 H   0  0  0  0  0  0  0  0  0  0  0  0
   -1.4561   -4.3519    0.6425 H   0  0  0  0  0  0  0  0  0  0  0  0
   -2.7774   -1.9138    1.5577 H   0  0  0  0  0  0  0  0  0  0  0  0
   -3.8162   -1.6934   -0.6073 H   0  0  0  0  0  0  0  0  0  0  0  0
   -4.7510   -3.2546    1.0501 H   0  0  0  0  0  0  0  0  0  0  0  0
   -5.0314   -3.8945   -0.5975 H   0  0  0  0  0  0  0  0  0  0  0  0
   -3.7539   -4.6137    0.4212 H   0  0  0  0  0  0  0  0  0  0  0  0
   -1.9652   -2.3260   -2.1709 H   0  0  0  0  0  0  0  0  0  0  0  0
   -2.0363   -4.0361   -1.6209 H   0  0  0  0  0  0  0  0  0  0  0  0
   -3.4169   -3.3086   -2.4865 H   0  0  0  0  0  0  0  0  0  0  0  0
    1.4458    2.6480   -2.7446 H   0  0  0  0  0  0  0  0  0  0  0  0
    2.4690    3.1147   -1.3276 H   0  0  0  0  0  0  0  0  0  0  0  0
   -0.4598    3.2552   -1.3547 H   0  0  0  0  0  0  0  0  0  0  0  0
   -0.4374    3.2684    1.0657 H   0  0  0  0  0  0  0  0  0  0  0  0
    1.4339    1.6346    1.5613 H   0  0  0  0  0  0  0  0  0  0  0  0
    2.6388    2.8282    0.9671 H   0  0  0  0  0  0  0  0  0  0  0  0
    1.6593    3.1880    2.4130 H   0  0  0  0  0  0  0  0  0  0  0  0
   -0.0546    5.3495   -0.1854 H   0  0  0  0  0  0  0  0  0  0  0  0
    0.8956    5.3902    1.3315 H   0  0  0  0  0  0  0  0  0  0  0  0
    1.7237    5.0749   -0.2186 H   0  0  0  0  0  0  0  0  0  0  0  0
    3.1115   -2.0100    2.7492 H   0  0  0  0  0  0  0  0  0  0  0  0
    3.7336   -0.3305    2.5270 H   0  0  0  0  0  0  0  0  0  0  0  0
    4.5896   -2.7520    1.0238 H   0  0  0  0  0  0  0  0  0  0  0  0
    6.0609   -0.8270    1.4712 H   0  0  0  0  0  0  0  0  0  0  0  0
    6.6461   -2.4914   -0.3004 H   0  0  0  0  0  0  0  0  0  0  0  0
    5.7313   -1.5454   -1.5137 H   0  0  0  0  0  0  0  0  0  0  0  0
    7.2218   -0.8620   -0.7779 H   0  0  0  0  0  0  0  0  0  0  0  0
    4.4997    1.0963    0.9948 H   0  0  0  0  0  0  0  0  0  0  0  0
    5.9833    1.2206    0.0088 H   0  0  0  0  0  0  0  0  0  0  0  0
    4.4551    0.6377   -0.7324 H   0  0  0  0  0  0  0  0  0  0  0  0
  1  2  1  6  0  0  0
  1 19  1  0  0  0  0
  2 28  1  0  0  0  0
  3  1  1  6  0  0  0
  3  4  1  0  0  0  0
  3 10  1  0  0  0  0
  4  5  1  0  0  0  0
  5 30  1  0  0  0  0
  6  5  1  0  0  0  0
  6 32  1  1  0  0  0
  7  8  1  0  0  0  0
  7  6  1  0  0  0  0
  8 36  1  0  0  0  0
  8 34  1  0  0  0  0
  9 38  1  0  0  0  0
  9  7  1  0  0  0  0
 10  6  1  0  0  0  0
 11  1  1  1  0  0  0
 11 18  1  0  0  0  0
 12 11  1  0  0  0  0
 13 12  1  0  0  0  0
 13 41  1  0  0  0  0
 13 14  1  0  0  0  0
 14 42  1  6  0  0  0
 14 18  1  0  0  0  0
 14 15  1  0  0  0  0
 15 43  1  0  0  0  0
 15 16  1  0  0  0  0
 16 44  1  0  0  0  0
 16 46  1  0  0  0  0
 17 15  1  0  0  0  0
 17 48  1  0  0  0  0
 19 20  1  0  0  0  0
 20 21  1  0  0  0  0
 21 51  1  0  0  0  0
 21 50  1  0  0  0  0
 22 52  1  1  0  0  0
 22 21  1  0  0  0  0
 23 22  1  0  0  0  0
 23 53  1  0  0  0  0
 24 54  1  0  0  0  0
 24 23  1  0  0  0  0
 25 23  1  0  0  0  0
 25 57  1  0  0  0  0
 26 19  2  0  0  0  0
 26 22  1  0  0  0  0
 27  2  1  0  0  0  0
 29  2  1  0  0  0  0
 31  5  1  0  0  0  0
 33  7  1  0  0  0  0
 35  8  1  0  0  0  0
 37  9  1  0  0  0  0
 39  9  1  0  0  0  0
 40 13  1  0  0  0  0
 45 16  1  0  0  0  0
 47 17  1  0  0  0  0
 49 17  1  0  0  0  0
 55 24  1  0  0  0  0
 56 24  1  0  0  0  0
 58 25  1  0  0  0  0
 59 25  1  0  0  0  0
M  END
