4,6
 OpenBabel05122313053D

 58 60  0  0  1  0  0  0  0  0999 V2000
    3.4426    0.3537    0.0294 S   0  0  0  0  0  0  0  0  0  0  0  0
   -2.1211   -2.3638   -0.0751 S   0  0  0  0  0  0  0  0  0  0  0  0
    3.4095   -2.3019   -0.7617 N   0  0  0  0  0  0  0  0  0  0  0  0
    1.5152   -1.2106   -1.1957 N   0  0  0  0  0  2  0  0  0  0  0  0
   -3.9052   -0.7726   -1.4750 N   0  0  0  0  0  0  0  0  0  0  0  0
   -1.7961   -0.0548   -1.5637 N   0  0  0  0  0  2  0  0  0  0  0  0
    1.1542    0.5387    1.6939 C   0  0  0  0  0  0  0  0  0  0  0  0
    0.2789   -0.5782    1.7352 C   0  0  0  0  0  0  0  0  0  0  0  0
   -1.1299   -0.3752    1.6707 C   0  0  0  0  0  0  0  0  0  0  0  0
   -1.6546    0.9362    1.5618 C   0  0  0  0  0  0  0  0  0  0  0  0
   -0.7609    2.0217    1.5307 C   0  0  0  0  0  0  0  0  0  0  0  0
   -1.1839    3.0327    1.4461 H   0  0  0  0  0  0  0  0  0  0  0  0
    0.6285    1.8584    1.5786 C   0  0  0  0  0  0  0  0  0  0  0  0
    2.6422    0.3450    1.7313 C   0  0  0  0  0  0  0  0  0  0  0  0
    2.9556   -0.5824    2.2407 H   0  0  0  0  0  0  0  0  0  0  0  0
    3.1643    1.1842    2.2289 H   0  0  0  0  0  0  0  0  0  0  0  0
    2.7533   -1.0906   -0.6781 C   0  0  1  0  0  3  0  0  0  0  0  0
    2.5483   -3.2035   -1.3493 C   0  0  0  0  0  0  0  0  0  0  0  0
    2.8412   -4.2403   -1.5441 H   0  0  0  0  0  0  0  0  0  0  0  0
    1.3748   -2.5160   -1.6045 C   0  0  0  0  0  0  0  0  0  0  0  0
    0.4428   -2.8836   -2.0459 H   0  0  0  0  0  0  0  0  0  0  0  0
    4.7638   -2.5910   -0.3138 C   0  0  0  0  0  0  0  0  0  0  0  0
    5.1725   -1.6784    0.1578 H   0  0  0  0  0  0  0  0  0  0  0  0
    5.4028   -2.8741   -1.1728 H   0  0  0  0  0  0  0  0  0  0  0  0
    4.7552   -3.4181    0.4223 H   0  0  0  0  0  0  0  0  0  0  0  0
    0.8175   -1.9836    1.9214 C   0  0  0  0  0  0  0  0  0  0  0  0
    1.8327   -2.0687    1.4907 H   0  0  0  0  0  0  0  0  0  0  0  0
    0.2107   -2.6960    1.3286 H   0  0  0  0  0  0  0  0  0  0  0  0
    0.8617   -2.4111    3.3970 C   0  0  0  0  0  0  0  0  0  0  0  0
    1.2346   -3.4495    3.5025 H   0  0  0  0  0  0  0  0  0  0  0  0
   -0.1399   -2.3597    3.8701 H   0  0  0  0  0  0  0  0  0  0  0  0
    1.5255   -1.7467    3.9866 H   0  0  0  0  0  0  0  0  0  0  0  0
   -2.0574   -1.5543    1.6229 C   0  0  0  0  0  0  0  0  0  0  0  0
   -3.0929   -1.3013    1.9084 H   0  0  0  0  0  0  0  0  0  0  0  0
   -1.7348   -2.3946    2.2659 H   0  0  0  0  0  0  0  0  0  0  0  0
   -2.6063   -1.0128   -1.0743 C   0  0  1  0  0  3  0  0  0  0  0  0
   -3.9027    0.3765   -2.2349 C   0  0  0  0  0  0  0  0  0  0  0  0
   -4.8182    0.7753   -2.6841 H   0  0  0  0  0  0  0  0  0  0  0  0
   -2.5908    0.8140   -2.2761 C   0  0  0  0  0  0  0  0  0  0  0  0
   -2.1744    1.6943   -2.7773 H   0  0  0  0  0  0  0  0  0  0  0  0
   -5.0782   -1.5672   -1.1423 C   0  0  0  0  0  0  0  0  0  0  0  0
   -4.7461   -2.4367   -0.5456 H   0  0  0  0  0  0  0  0  0  0  0  0
   -5.5746   -1.9250   -2.0648 H   0  0  0  0  0  0  0  0  0  0  0  0
   -5.7962   -0.9651   -0.5514 H   0  0  0  0  0  0  0  0  0  0  0  0
   -3.1398    1.2306    1.5294 C   0  0  0  0  0  0  0  0  0  0  0  0
   -3.6800    0.4667    0.9339 H   0  0  0  0  0  0  0  0  0  0  0  0
   -3.2960    2.1883    0.9918 H   0  0  0  0  0  0  0  0  0  0  0  0
   -3.7589    1.3281    2.9326 C   0  0  0  0  0  0  0  0  0  0  0  0
   -4.8390    1.5709    2.8793 H   0  0  0  0  0  0  0  0  0  0  0  0
   -3.2601    2.1173    3.5298 H   0  0  0  0  0  0  0  0  0  0  0  0
   -3.6491    0.3774    3.4935 H   0  0  0  0  0  0  0  0  0  0  0  0
    1.5628    3.0492    1.4961 C   0  0  0  0  0  0  0  0  0  0  0  0
    2.1921    3.0738    2.4141 H   0  0  0  0  0  0  0  0  0  0  0  0
    2.2801    2.8629    0.6658 H   0  0  0  0  0  0  0  0  0  0  0  0
    0.9100    4.4170    1.3108 C   0  0  0  0  0  0  0  0  0  0  0  0
    1.6817    5.2081    1.2329 H   0  0  0  0  0  0  0  0  0  0  0  0
    0.2550    4.6834    2.1642 H   0  0  0  0  0  0  0  0  0  0  0  0
    0.2865    4.4551    0.3938 H   0  0  0  0  0  0  0  0  0  0  0  0
  1 14  1  0  0  0  0
  2 33  1  0  0  0  0
  3 17  1  0  0  0  0
  3 22  1  0  0  0  0
  4 17  1  0  0  0  0
  5 41  1  0  0  0  0
  5 36  1  0  0  0  0
  6 36  1  0  0  0  0
  7 14  1  0  0  0  0
  7  8  1  0  0  0  0
  8 26  1  0  0  0  0
  9  8  2  0  0  0  0
 10  9  1  0  0  0  0
 11 10  2  0  0  0  0
 11 13  1  0  0  0  0
 12 11  1  0  0  0  0
 13  7  2  0  0  0  0
 14 16  1  0  0  0  0
 14 15  1  0  0  0  0
 17  1  1  1  0  0  0
 18  3  1  0  0  0  0
 19 18  1  0  0  0  0
 20 18  2  0  0  0  0
 20  4  1  0  0  0  0
 21 20  1  0  0  0  0
 22 23  1  0  0  0  0
 22 25  1  0  0  0  0
 24 22  1  0  0  0  0
 26 29  1  0  0  0  0
 27 26  1  0  0  0  0
 28 26  1  0  0  0  0
 29 30  1  0  0  0  0
 29 31  1  0  0  0  0
 29 32  1  0  0  0  0
 33  9  1  0  0  0  0
 33 34  1  0  0  0  0
 33 35  1  0  0  0  0
 36  2  1  1  0  0  0
 37  5  1  0  0  0  0
 38 37  1  0  0  0  0
 39 37  2  0  0  0  0
 39  6  1  0  0  0  0
 40 39  1  0  0  0  0
 41 44  1  0  0  0  0
 41 42  1  0  0  0  0
 43 41  1  0  0  0  0
 45 10  1  0  0  0  0
 45 48  1  0  0  0  0
 46 45  1  0  0  0  0
 47 45  1  0  0  0  0
 48 51  1  0  0  0  0
 48 50  1  0  0  0  0
 49 48  1  0  0  0  0
 52 13  1  0  0  0  0
 52 53  1  0  0  0  0
 54 52  1  0  0  0  0
 55 52  1  0  0  0  0
 55 57  1  0  0  0  0
 56 55  1  0  0  0  0
 58 55  1  0  0  0  0
M  END
