1,2
 OpenBabel05122313053D

 59 61  0  0  1  0  0  0  0  0999 V2000
    2.1927   -1.3952   -0.2167 N   0  0  0  0  0  2  0  0  0  0  0  0
   -0.3772   -1.9226   -0.1573 N   0  0  0  0  0  2  0  0  0  0  0  0
    6.2613    2.8567    0.9176 O   0  0  0  0  0  0  0  0  0  0  0  0
    5.1688    2.2933    0.3325 C   0  0  0  0  0  0  0  0  0  0  0  0
   -3.9685   -1.5723   -0.9626 C   0  0  0  0  0  0  0  0  0  0  0  0
   -4.6035   -1.3692   -1.8370 H   0  0  0  0  0  0  0  0  0  0  0  0
    4.4858   -2.0084   -0.6063 C   0  0  0  0  0  0  0  0  0  0  0  0
    5.5253   -1.6942   -0.7759 H   0  0  0  0  0  0  0  0  0  0  0  0
   -1.7763   -1.9143    0.0200 C   0  0  0  0  0  0  0  0  0  0  0  0
    2.8349    1.3301   -0.9145 C   0  0  0  0  0  0  0  0  0  0  0  0
    1.9561    0.9804   -1.4800 H   0  0  0  0  0  0  0  0  0  0  0  0
    3.0448    2.7138   -0.7819 C   0  0  0  0  0  0  0  0  0  0  0  0
    2.2808    3.4110   -1.1588 H   0  0  0  0  0  0  0  0  0  0  0  0
   -1.4977   -0.7425    3.2895 C   0  0  0  0  0  0  0  0  0  0  0  0
   -1.1724    0.0713    2.6108 H   0  0  0  0  0  0  0  0  0  0  0  0
   -0.8216   -0.7579    4.1694 H   0  0  0  0  0  0  0  0  0  0  0  0
   -2.5185   -0.4973    3.6501 H   0  0  0  0  0  0  0  0  0  0  0  0
    2.7951   -3.7262   -0.4039 C   0  0  0  0  0  0  0  0  0  0  0  0
    2.4942   -4.7826   -0.3997 H   0  0  0  0  0  0  0  0  0  0  0  0
    3.7768    0.4209   -0.3884 C   0  0  0  0  0  0  0  0  0  0  0  0
    4.1970    3.1960   -0.1594 C   0  0  0  0  0  0  0  0  0  0  0  0
    4.3790    4.2732   -0.0351 H   0  0  0  0  0  0  0  0  0  0  0  0
   -2.3489   -2.0319    1.3166 C   0  0  0  0  0  0  0  0  0  0  0  0
    3.4879   -1.0295   -0.4172 C   0  0  2  0  0  3  0  0  0  0  0  0
   -3.7502   -1.9505    1.4235 C   0  0  0  0  0  0  0  0  0  0  0  0
   -4.2155   -2.0357    2.4175 H   0  0  0  0  0  0  0  0  0  0  0  0
    1.8362   -2.7135   -0.2364 C   0  0  0  0  0  0  0  0  0  0  0  0
   -1.4856   -2.1058    2.5701 C   0  0  0  0  0  0  0  0  0  0  0  0
   -0.4389   -2.2890    2.2537 H   0  0  0  0  0  0  0  0  0  0  0  0
   -4.5583   -1.7476    0.2981 C   0  0  0  0  0  0  0  0  0  0  0  0
   -5.6528   -1.7038    0.4056 H   0  0  0  0  0  0  0  0  0  0  0  0
   -1.9014   -1.4290   -2.4740 C   0  0  0  0  0  0  0  0  0  0  0  0
   -0.8944   -1.0158   -2.2499 H   0  0  0  0  0  0  0  0  0  0  0  0
   -0.1127   -4.3701    0.1913 C   0  0  0  0  0  0  0  0  0  0  0  0
   -1.2175   -4.3870    0.2218 H   0  0  0  0  0  0  0  0  0  0  0  0
    0.2721   -4.7627    1.1559 H   0  0  0  0  0  0  0  0  0  0  0  0
    0.2297   -5.0646   -0.6031 H   0  0  0  0  0  0  0  0  0  0  0  0
    4.1373   -3.3648   -0.5932 C   0  0  0  0  0  0  0  0  0  0  0  0
    4.9045   -4.1382   -0.7454 H   0  0  0  0  0  0  0  0  0  0  0  0
   -2.5752   -1.6322   -1.1253 C   0  0  0  0  0  0  0  0  0  0  0  0
   -1.8917   -3.2533    3.5068 C   0  0  0  0  0  0  0  0  0  0  0  0
   -1.8750   -4.2329    2.9869 H   0  0  0  0  0  0  0  0  0  0  0  0
   -2.9139   -3.1080    3.9129 H   0  0  0  0  0  0  0  0  0  0  0  0
   -1.2018   -3.3108    4.3733 H   0  0  0  0  0  0  0  0  0  0  0  0
    0.3855   -2.9762   -0.0625 C   0  0  2  0  0  3  0  0  0  0  0  0
   -2.6143   -0.4039   -3.3618 C   0  0  0  0  0  0  0  0  0  0  0  0
   -2.7260    0.5630   -2.8339 H   0  0  0  0  0  0  0  0  0  0  0  0
   -3.6166   -0.7518   -3.6887 H   0  0  0  0  0  0  0  0  0  0  0  0
   -2.0182   -0.2171   -4.2774 H   0  0  0  0  0  0  0  0  0  0  0  0
    4.9561    0.9061    0.2229 C   0  0  0  0  0  0  0  0  0  0  0  0
    5.6683    0.1935    0.6594 H   0  0  0  0  0  0  0  0  0  0  0  0
   -1.7073   -2.7741   -3.1975 C   0  0  0  0  0  0  0  0  0  0  0  0
   -1.1500   -2.6358   -4.1469 H   0  0  0  0  0  0  0  0  0  0  0  0
   -2.6869   -3.2370   -3.4396 H   0  0  0  0  0  0  0  0  0  0  0  0
   -1.1424   -3.4971   -2.5744 H   0  0  0  0  0  0  0  0  0  0  0  0
    7.2622    2.0043    1.4361 C   0  0  0  0  0  0  0  0  0  0  0  0
    8.0538    2.6602    1.8434 H   0  0  0  0  0  0  0  0  0  0  0  0
    7.7035    1.3527    0.6479 H   0  0  0  0  0  0  0  0  0  0  0  0
    6.8746    1.3570    2.2554 H   0  0  0  0  0  0  0  0  0  0  0  0
  2  9  1  0  0  0  0
  3 56  1  0  0  0  0
  4  3  1  0  0  0  0
  5 30  1  0  0  0  0
  6  5  1  0  0  0  0
  7 38  2  0  0  0  0
  7 24  1  0  0  0  0
  8  7  1  0  0  0  0
  9 23  2  0  0  0  0
 10 12  2  0  0  0  0
 10 20  1  0  0  0  0
 11 10  1  0  0  0  0
 12 21  1  0  0  0  0
 13 12  1  0  0  0  0
 14 17  1  0  0  0  0
 14 16  1  0  0  0  0
 15 14  1  0  0  0  0
 18 19  1  0  0  0  0
 18 27  2  0  0  0  0
 20 50  2  0  0  0  0
 21 22  1  0  0  0  0
 21  4  2  0  0  0  0
 23 25  1  0  0  0  0
 23 28  1  0  0  0  0
 24 20  1  1  0  0  0
 24  1  1  0  0  0  0
 25 26  1  0  0  0  0
 27  1  1  0  0  0  0
 27 45  1  0  0  0  0
 28 14  1  0  0  0  0
 28 41  1  0  0  0  0
 29 28  1  0  0  0  0
 30 31  1  0  0  0  0
 30 25  2  0  0  0  0
 32 33  1  0  0  0  0
 32 40  1  0  0  0  0
 34 35  1  0  0  0  0
 34 36  1  0  0  0  0
 37 34  1  0  0  0  0
 38 18  1  0  0  0  0
 39 38  1  0  0  0  0
 40  5  2  0  0  0  0
 40  9  1  0  0  0  0
 41 43  1  0  0  0  0
 41 44  1  0  0  0  0
 42 41  1  0  0  0  0
 45  2  1  6  0  0  0
 45 34  1  0  0  0  0
 46 47  1  0  0  0  0
 46 32  1  0  0  0  0
 48 46  1  0  0  0  0
 49 46  1  0  0  0  0
 50  4  1  0  0  0  0
 50 51  1  0  0  0  0
 52 55  1  0  0  0  0
 52 32  1  0  0  0  0
 53 52  1  0  0  0  0
 54 52  1  0  0  0  0
 56 57  1  0  0  0  0
 56 59  1  0  0  0  0
 58 56  1  0  0  0  0
M  END
