2,3
 OpenBabel05122313053D

 45 45  0  0  0  0  0  0  0  0999 V2000
    3.6835   -0.0001    0.3766 Si  0  0  0  0  0  0  0  0  0  0  0  0
    0.0220    1.4272   -0.6532 N   0  0  0  0  0  2  0  0  0  0  0  0
    0.0219   -1.4271   -0.6534 N   0  0  0  0  0  2  0  0  0  0  0  0
    1.1499    0.7168   -0.2677 C   0  0  0  0  0  0  0  0  0  0  0  0
    1.1498   -0.7170   -0.2679 C   0  0  0  0  0  0  0  0  0  0  0  0
    2.3769    1.3671    0.3790 C   0  0  0  0  0  0  0  0  0  0  0  0
    2.3770   -1.3674    0.3783 C   0  0  0  0  0  0  0  0  0  0  0  0
    4.6669    0.0004   -1.2375 C   0  0  0  0  0  0  0  0  0  0  0  0
    4.8239   -0.0005    1.8828 C   0  0  0  0  0  0  0  0  0  0  0  0
    0.1526    2.8319   -1.1310 C   0  0  0  0  0  0  0  0  0  0  0  0
    0.4314    3.8233    0.0261 C   0  0  0  0  0  0  0  0  0  0  0  0
    1.2261    2.9158   -2.2414 C   0  0  0  0  0  0  0  0  0  0  0  0
   -1.1561    3.3146   -1.7791 C   0  0  0  0  0  0  0  0  0  0  0  0
    0.1523   -2.8319   -1.1313 C   0  0  0  0  0  0  0  0  0  0  0  0
    0.4316   -3.8233    0.0257 C   0  0  0  0  0  0  0  0  0  0  0  0
    1.2252   -2.9158   -2.2421 C   0  0  0  0  0  0  0  0  0  0  0  0
   -1.1568   -3.3145   -1.7787 C   0  0  0  0  0  0  0  0  0  0  0  0
    2.7076    2.2721   -0.1587 H   0  0  0  0  0  0  0  0  0  0  0  0
    2.1561    1.6992    1.4185 H   0  0  0  0  0  0  0  0  0  0  0  0
    2.7078   -2.2720   -0.1602 H   0  0  0  0  0  0  0  0  0  0  0  0
    2.1565   -1.7003    1.4176 H   0  0  0  0  0  0  0  0  0  0  0  0
    3.9711    0.0007   -2.1014 H   0  0  0  0  0  0  0  0  0  0  0  0
    5.3161   -0.8957   -1.3191 H   0  0  0  0  0  0  0  0  0  0  0  0
    5.3160    0.8966   -1.3186 H   0  0  0  0  0  0  0  0  0  0  0  0
    5.4795    0.8947    1.8903 H   0  0  0  0  0  0  0  0  0  0  0  0
    5.4796   -0.8955    1.8897 H   0  0  0  0  0  0  0  0  0  0  0  0
    4.2377   -0.0008    2.8244 H   0  0  0  0  0  0  0  0  0  0  0  0
    1.3526    3.5969    0.5879 H   0  0  0  0  0  0  0  0  0  0  0  0
   -0.4163    3.8047    0.7404 H   0  0  0  0  0  0  0  0  0  0  0  0
    0.5188    4.8562   -0.3684 H   0  0  0  0  0  0  0  0  0  0  0  0
    2.2453    2.6690   -1.8945 H   0  0  0  0  0  0  0  0  0  0  0  0
    1.2560    3.9381   -2.6696 H   0  0  0  0  0  0  0  0  0  0  0  0
    0.9707    2.2065   -3.0538 H   0  0  0  0  0  0  0  0  0  0  0  0
   -2.0106    3.2280   -1.0844 H   0  0  0  0  0  0  0  0  0  0  0  0
   -1.3806    2.7552   -2.7059 H   0  0  0  0  0  0  0  0  0  0  0  0
   -1.0515    4.3826   -2.0542 H   0  0  0  0  0  0  0  0  0  0  0  0
   -0.4157   -3.8048    0.7404 H   0  0  0  0  0  0  0  0  0  0  0  0
    1.3531   -3.5971    0.5870 H   0  0  0  0  0  0  0  0  0  0  0  0
    0.5187   -4.8562   -0.3690 H   0  0  0  0  0  0  0  0  0  0  0  0
    1.2549   -3.9380   -2.6704 H   0  0  0  0  0  0  0  0  0  0  0  0
    2.2447   -2.6691   -1.8956 H   0  0  0  0  0  0  0  0  0  0  0  0
    0.9695   -2.2065   -3.0544 H   0  0  0  0  0  0  0  0  0  0  0  0
   -1.3816   -2.7554   -2.7056 H   0  0  0  0  0  0  0  0  0  0  0  0
   -2.0110   -3.2277   -1.0837 H   0  0  0  0  0  0  0  0  0  0  0  0
   -1.0524   -4.3827   -2.0535 H   0  0  0  0  0  0  0  0  0  0  0  0
  1  7  1  0  0  0  0
  1  6  1  0  0  0  0
  1  9  1  0  0  0  0
  2  4  1  0  0  0  0
  3  5  1  0  0  0  0
  4  6  1  0  0  0  0
  5  4  2  0  0  0  0
  5  7  1  0  0  0  0
  6 19  1  0  0  0  0
  7 21  1  0  0  0  0
  8  1  1  0  0  0  0
  9 26  1  0  0  0  0
  9 25  1  0  0  0  0
  9 27  1  0  0  0  0
 10  2  1  0  0  0  0
 10 11  1  0  0  0  0
 11 28  1  0  0  0  0
 11 29  1  0  0  0  0
 12 31  1  0  0  0  0
 12 10  1  0  0  0  0
 13 10  1  0  0  0  0
 13 34  1  0  0  0  0
 14  3  1  0  0  0  0
 14 15  1  0  0  0  0
 15 38  1  0  0  0  0
 15 37  1  0  0  0  0
 16 41  1  0  0  0  0
 16 14  1  0  0  0  0
 17 14  1  0  0  0  0
 17 44  1  0  0  0  0
 18  6  1  0  0  0  0
 20  7  1  0  0  0  0
 22  8  1  0  0  0  0
 23  8  1  0  0  0  0
 24  8  1  0  0  0  0
 30 11  1  0  0  0  0
 32 12  1  0  0  0  0
 33 12  1  0  0  0  0
 35 13  1  0  0  0  0
 36 13  1  0  0  0  0
 39 15  1  0  0  0  0
 40 16  1  0  0  0  0
 42 16  1  0  0  0  0
 43 17  1  0  0  0  0
 45 17  1  0  0  0  0
M  END
