1,40
 OpenBabel05122313053D

 78 81  0  0  0  0  0  0  0  0999 V2000
    1.2563    0.5267    0.2515 N   0  0  0  0  0  2  0  0  0  0  0  0
    2.6791    0.4061    0.1967 C   0  0  0  0  0  0  0  0  0  0  0  0
    0.7289    1.6191    0.7827 C   0  0  0  0  0  0  0  0  0  0  0  0
    3.3664    0.8778   -0.9468 C   0  0  0  0  0  0  0  0  0  0  0  0
    4.7594   -0.2496    1.2291 C   0  0  0  0  0  0  0  0  0  0  0  0
    5.2968   -0.7093    2.0732 H   0  0  0  0  0  0  0  0  0  0  0  0
    4.7687    0.8245   -0.9362 C   0  0  0  0  0  0  0  0  0  0  0  0
    5.3125    1.1635   -1.8317 H   0  0  0  0  0  0  0  0  0  0  0  0
    5.4921    0.2887    0.1506 C   0  0  0  0  0  0  0  0  0  0  0  0
    3.3569   -0.2190    1.2697 C   0  0  0  0  0  0  0  0  0  0  0  0
    2.5966   -0.8841    2.3970 C   0  0  0  0  0  0  0  0  0  0  0  0
    1.6883   -1.3554    1.9649 H   0  0  0  0  0  0  0  0  0  0  0  0
    3.2215   -1.7165    2.7808 H   0  0  0  0  0  0  0  0  0  0  0  0
    2.2092    2.8304   -2.1825 C   0  0  0  0  0  0  0  0  0  0  0  0
    3.0816    3.4934   -2.0098 H   0  0  0  0  0  0  0  0  0  0  0  0
    1.4548    3.0577   -1.4040 H   0  0  0  0  0  0  0  0  0  0  0  0
    1.7609    3.1055   -3.1586 H   0  0  0  0  0  0  0  0  0  0  0  0
    1.5035    2.7722    1.3460 C   0  0  0  0  0  0  0  0  0  0  0  0
    1.2504    3.7115    0.8121 H   0  0  0  0  0  0  0  0  0  0  0  0
    2.5917    2.6050    1.2699 H   0  0  0  0  0  0  0  0  0  0  0  0
    1.2428    2.9350    2.4122 H   0  0  0  0  0  0  0  0  0  0  0  0
    6.9758    0.2553    0.1371 C   0  0  0  0  0  0  0  0  0  0  0  0
    7.7183    1.3058   -0.4495 C   0  0  0  0  0  0  0  0  0  0  0  0
    7.1853    2.1681   -0.8780 H   0  0  0  0  0  0  0  0  0  0  0  0
    2.6152    1.3500   -2.1734 C   0  0  0  0  0  0  0  0  0  0  0  0
    3.2526    1.1464   -3.0581 H   0  0  0  0  0  0  0  0  0  0  0  0
    1.7138    0.7115   -2.2902 H   0  0  0  0  0  0  0  0  0  0  0  0
    9.1194    1.2792   -0.4640 C   0  0  0  0  0  0  0  0  0  0  0  0
    9.6757    2.1128   -0.9194 H   0  0  0  0  0  0  0  0  0  0  0  0
    9.8121    0.2004    0.1081 C   0  0  0  0  0  0  0  0  0  0  0  0
   10.9123    0.1785    0.0964 H   0  0  0  0  0  0  0  0  0  0  0  0
    9.0893   -0.8514    0.6936 C   0  0  0  0  0  0  0  0  0  0  0  0
    9.6217   -1.7079    1.1347 H   0  0  0  0  0  0  0  0  0  0  0  0
    7.6884   -0.8244    0.7077 C   0  0  0  0  0  0  0  0  0  0  0  0
    7.1326   -1.6691    1.1416 H   0  0  0  0  0  0  0  0  0  0  0  0
    2.2043    0.0250    3.5700 C   0  0  0  0  0  0  0  0  0  0  0  0
    3.0853    0.5540    3.9876 H   0  0  0  0  0  0  0  0  0  0  0  0
    1.7452   -0.5683    4.3864 H   0  0  0  0  0  0  0  0  0  0  0  0
    1.4630    0.7915    3.2702 H   0  0  0  0  0  0  0  0  0  0  0  0
   -1.2563    0.5262    0.2521 N   0  0  0  0  0  2  0  0  0  0  0  0
   -2.6791    0.4057    0.1970 C   0  0  0  0  0  0  0  0  0  0  0  0
   -0.7290    1.6191    0.7827 C   0  0  0  0  0  0  0  0  0  0  0  0
   -3.3658    0.8756   -0.9477 C   0  0  0  0  0  0  0  0  0  0  0  0
   -4.7600   -0.2478    1.2296 C   0  0  0  0  0  0  0  0  0  0  0  0
   -5.2979   -0.7059    2.0742 H   0  0  0  0  0  0  0  0  0  0  0  0
   -4.7681    0.8226   -0.9376 C   0  0  0  0  0  0  0  0  0  0  0  0
   -5.3115    1.1602   -1.8339 H   0  0  0  0  0  0  0  0  0  0  0  0
   -5.4921    0.2889    0.1499 C   0  0  0  0  0  0  0  0  0  0  0  0
   -3.3575   -0.2174    1.2707 C   0  0  0  0  0  0  0  0  0  0  0  0
   -2.5979   -0.8806    2.3996 C   0  0  0  0  0  0  0  0  0  0  0  0
   -1.6882   -1.3509    1.9692 H   0  0  0  0  0  0  0  0  0  0  0  0
   -3.2221   -1.7135    2.7831 H   0  0  0  0  0  0  0  0  0  0  0  0
   -2.2060    2.8252   -2.1857 C   0  0  0  0  0  0  0  0  0  0  0  0
   -3.0776    3.4895   -2.0139 H   0  0  0  0  0  0  0  0  0  0  0  0
   -1.4513    3.0525   -1.4075 H   0  0  0  0  0  0  0  0  0  0  0  0
   -1.7573    3.0985   -3.1621 H   0  0  0  0  0  0  0  0  0  0  0  0
   -1.5037    2.7728    1.3443 C   0  0  0  0  0  0  0  0  0  0  0  0
   -1.2520    3.7110    0.8078 H   0  0  0  0  0  0  0  0  0  0  0  0
   -2.5919    2.6047    1.2699 H   0  0  0  0  0  0  0  0  0  0  0  0
   -1.2418    2.9384    2.4098 H   0  0  0  0  0  0  0  0  0  0  0  0
   -6.9758    0.2558    0.1358 C   0  0  0  0  0  0  0  0  0  0  0  0
   -7.7178    1.3057   -0.4528 C   0  0  0  0  0  0  0  0  0  0  0  0
   -7.1843    2.1672   -0.8824 H   0  0  0  0  0  0  0  0  0  0  0  0
   -2.6139    1.3454   -2.1748 C   0  0  0  0  0  0  0  0  0  0  0  0
   -3.2514    1.1415   -3.0594 H   0  0  0  0  0  0  0  0  0  0  0  0
   -1.7132    0.7056   -2.2907 H   0  0  0  0  0  0  0  0  0  0  0  0
   -9.1188    1.2795   -0.4678 C   0  0  0  0  0  0  0  0  0  0  0  0
   -9.6747    2.1126   -0.9247 H   0  0  0  0  0  0  0  0  0  0  0  0
   -9.8121    0.2018    0.1058 C   0  0  0  0  0  0  0  0  0  0  0  0
  -10.9123    0.1802    0.0937 H   0  0  0  0  0  0  0  0  0  0  0  0
   -9.0898   -0.8493    0.6931 C   0  0  0  0  0  0  0  0  0  0  0  0
   -9.6227   -1.7050    1.1354 H   0  0  0  0  0  0  0  0  0  0  0  0
   -7.6889   -0.8227    0.7077 C   0  0  0  0  0  0  0  0  0  0  0  0
   -7.1336   -1.6669    1.1432 H   0  0  0  0  0  0  0  0  0  0  0  0
   -2.2087    0.0302    3.5723 C   0  0  0  0  0  0  0  0  0  0  0  0
   -3.0912    0.5579    3.9883 H   0  0  0  0  0  0  0  0  0  0  0  0
   -1.7496   -0.5615    4.3898 H   0  0  0  0  0  0  0  0  0  0  0  0
   -1.4685    0.7979    3.2728 H   0  0  0  0  0  0  0  0  0  0  0  0
  1  3  1  0  0  0  0
  2  1  1  0  0  0  0
  2 10  1  0  0  0  0
  3 18  1  0  0  0  0
  4  7  1  0  0  0  0
  4  2  2  0  0  0  0
  5 10  2  0  0  0  0
  5  6  1  0  0  0  0
  7  9  2  0  0  0  0
  8  7  1  0  0  0  0
  9  5  1  0  0  0  0
 10 11  1  0  0  0  0
 11 13  1  0  0  0  0
 11 36  1  0  0  0  0
 12 11  1  0  0  0  0
 14 25  1  0  0  0  0
 14 15  1  0  0  0  0
 14 16  1  0  0  0  0
 17 14  1  0  0  0  0
 18 21  1  0  0  0  0
 19 18  1  0  0  0  0
 20 18  1  0  0  0  0
 22  9  1  0  0  0  0
 22 34  1  0  0  0  0
 23 22  2  0  0  0  0
 24 23  1  0  0  0  0
 25  4  1  0  0  0  0
 26 25  1  0  0  0  0
 27 25  1  0  0  0  0
 28 23  1  0  0  0  0
 28 30  2  0  0  0  0
 29 28  1  0  0  0  0
 30 32  1  0  0  0  0
 31 30  1  0  0  0  0
 32 34  2  0  0  0  0
 32 33  1  0  0  0  0
 34 35  1  0  0  0  0
 36 37  1  0  0  0  0
 36 38  1  0  0  0  0
 39 36  1  0  0  0  0
 40 42  1  0  0  0  0
 41 40  1  0  0  0  0
 41 49  1  0  0  0  0
 42  3  2  0  0  0  0
 42 57  1  0  0  0  0
 43 46  1  0  0  0  0
 43 41  2  0  0  0  0
 44 49  2  0  0  0  0
 44 45  1  0  0  0  0
 46 48  2  0  0  0  0
 47 46  1  0  0  0  0
 48 44  1  0  0  0  0
 49 50  1  0  0  0  0
 50 52  1  0  0  0  0
 50 75  1  0  0  0  0
 51 50  1  0  0  0  0
 53 64  1  0  0  0  0
 53 54  1  0  0  0  0
 53 55  1  0  0  0  0
 56 53  1  0  0  0  0
 57 60  1  0  0  0  0
 58 57  1  0  0  0  0
 59 57  1  0  0  0  0
 61 48  1  0  0  0  0
 61 73  1  0  0  0  0
 62 61  2  0  0  0  0
 63 62  1  0  0  0  0
 64 43  1  0  0  0  0
 65 64  1  0  0  0  0
 66 64  1  0  0  0  0
 67 62  1  0  0  0  0
 67 69  2  0  0  0  0
 68 67  1  0  0  0  0
 69 71  1  0  0  0  0
 70 69  1  0  0  0  0
 71 73  2  0  0  0  0
 71 72  1  0  0  0  0
 73 74  1  0  0  0  0
 75 76  1  0  0  0  0
 75 77  1  0  0  0  0
 78 75  1  0  0  0  0
M  END
