2,4
 OpenBabel05122313053D

 27 29  0  0  1  0  0  0  0  0999 V2000
    2.0099    2.3428   -0.0004 S   0  0  0  0  0  0  0  0  0  0  0  0
    0.8782   -0.0096   -0.0011 N   0  0  0  0  0  2  0  0  0  0  0  0
   -0.7042    1.7138    0.0002 N   0  0  0  0  0  0  0  0  0  0  0  0
   -1.6829    0.7594   -0.0014 N   0  0  0  0  0  2  0  0  0  0  0  0
    0.6127    1.2728   -0.0002 C   0  0  2  0  0  3  0  0  0  0  0  0
    3.0412    0.9187   -0.0017 C   0  0  0  0  0  0  0  0  0  0  0  0
    2.2427   -0.2600   -0.0019 C   0  0  0  0  0  0  0  0  0  0  0  0
    2.8607   -1.5255   -0.0028 C   0  0  0  0  0  0  0  0  0  0  0  0
    4.2574   -1.5795   -0.0035 C   0  0  0  0  0  0  0  0  0  0  0  0
    5.0398   -0.4036   -0.0034 C   0  0  0  0  0  0  0  0  0  0  0  0
    4.4421    0.8637   -0.0024 C   0  0  0  0  0  0  0  0  0  0  0  0
   -2.8533    1.4065   -0.0029 C   0  0  1  0  0  3  0  0  0  0  0  0
   -2.6177    2.8144   -0.0011 C   0  0  0  0  0  0  0  0  0  0  0  0
   -1.2440    2.9944    0.0006 C   0  0  0  0  0  0  0  0  0  0  0  0
   -4.1610    0.6917   -0.0096 C   0  0  0  0  0  0  0  0  0  0  0  0
   -0.4363    4.2460    0.0029 C   0  0  0  0  0  0  0  0  0  0  0  0
    2.2303   -2.4262   -0.0028 H   0  0  0  0  0  0  0  0  0  0  0  0
    4.7564   -2.5596   -0.0043 H   0  0  0  0  0  0  0  0  0  0  0  0
    6.1372   -0.4788   -0.0039 H   0  0  0  0  0  0  0  0  0  0  0  0
    5.0509    1.7789   -0.0022 H   0  0  0  0  0  0  0  0  0  0  0  0
   -3.3715    3.6083   -0.0012 H   0  0  0  0  0  0  0  0  0  0  0  0
   -4.7355    0.9512   -0.9221 H   0  0  0  0  0  0  0  0  0  0  0  0
   -4.0094   -0.4026    0.0187 H   0  0  0  0  0  0  0  0  0  0  0  0
   -4.7712    0.9972    0.8642 H   0  0  0  0  0  0  0  0  0  0  0  0
    0.2138    4.3220    0.8994 H   0  0  0  0  0  0  0  0  0  0  0  0
   -1.1177    5.1163    0.0043 H   0  0  0  0  0  0  0  0  0  0  0  0
    0.2141    4.3251   -0.8931 H   0  0  0  0  0  0  0  0  0  0  0  0
  1  5  1  0  0  0  0
  2  5  1  0  0  0  0
  3 14  1  0  0  0  0
  4  3  1  0  0  0  0
  5  3  1  6  0  0  0
  6  1  1  0  0  0  0
  7  6  1  0  0  0  0
  7  2  1  0  0  0  0
  8 17  1  0  0  0  0
  8  7  2  0  0  0  0
  9 10  2  0  0  0  0
  9  8  1  0  0  0  0
 10 11  1  0  0  0  0
 11 20  1  0  0  0  0
 11  6  2  0  0  0  0
 12 15  1  6  0  0  0
 12  4  1  0  0  0  0
 12 13  1  0  0  0  0
 13 14  2  0  0  0  0
 14 16  1  0  0  0  0
 15 23  1  0  0  0  0
 15 24  1  0  0  0  0
 16 26  1  0  0  0  0
 16 25  1  0  0  0  0
 18  9  1  0  0  0  0
 19 10  1  0  0  0  0
 21 13  1  0  0  0  0
 22 15  1  0  0  0  0
 27 16  1  0  0  0  0
M  END
