1,2
 OpenBabel05122313053D

 36 38  0  0  1  0  0  0  0  0999 V2000
   -1.1785    0.4912    0.5905 N   0  0  2  0  0  0  0  0  0  0  0  0
    0.4490   -1.8566   -0.3045 N   0  0  0  0  0  0  0  0  0  0  0  0
   -1.5401    1.9102    0.9104 C   0  0  0  0  0  0  0  0  0  0  0  0
   -1.4813    2.8377   -0.2997 C   0  0  0  0  0  0  0  0  0  0  0  0
   -2.2929    2.3150   -1.4849 C   0  0  0  0  0  0  0  0  0  0  0  0
   -1.9154    0.8580   -1.7594 C   0  0  0  0  0  0  0  0  0  0  0  0
   -2.0996    0.0138   -0.4964 C   0  0  1  0  0  0  0  0  0  0  0  0
   -2.0150   -1.5038   -0.7255 C   0  0  1  0  0  0  0  0  0  0  0  0
   -0.6757   -2.0107   -1.2625 C   0  0  0  0  0  0  0  0  0  0  0  0
    0.0955   -2.3557    1.0566 C   0  0  0  0  0  0  0  0  0  0  0  0
   -1.2501   -1.8363    1.5776 C   0  0  1  0  0  0  0  0  0  0  0  0
   -1.3256   -0.3241    1.8272 C   0  0  0  0  0  0  0  0  0  0  0  0
   -2.3461   -2.2333    0.5814 C   0  0  0  0  0  0  0  0  0  0  0  0
    1.5972   -2.6398   -0.8103 C   0  0  0  0  0  0  0  0  0  0  0  0
   -0.8292    2.2615    1.6816 H   0  0  0  0  0  0  0  0  0  0  0  0
   -2.5708    1.8893    1.3404 H   0  0  0  0  0  0  0  0  0  0  0  0
   -0.4145    2.9552   -0.5780 H   0  0  0  0  0  0  0  0  0  0  0  0
   -1.8381    3.8380    0.0215 H   0  0  0  0  0  0  0  0  0  0  0  0
   -3.3835    2.3723   -1.2666 H   0  0  0  0  0  0  0  0  0  0  0  0
   -2.1161    2.9413   -2.3828 H   0  0  0  0  0  0  0  0  0  0  0  0
   -0.8528    0.7983   -2.0829 H   0  0  0  0  0  0  0  0  0  0  0  0
   -2.5392    0.4251   -2.5692 H   0  0  0  0  0  0  0  0  0  0  0  0
   -3.1370    0.2011   -0.1194 H   0  0  0  0  0  0  0  0  0  0  0  0
   -2.7753   -1.7393   -1.4994 H   0  0  0  0  0  0  0  0  0  0  0  0
   -0.7899   -3.0956   -1.5016 H   0  0  0  0  0  0  0  0  0  0  0  0
   -0.3817   -1.4983   -2.1990 H   0  0  0  0  0  0  0  0  0  0  0  0
    0.9307   -2.0821    1.7312 H   0  0  0  0  0  0  0  0  0  0  0  0
    0.0412   -3.4710    1.0192 H   0  0  0  0  0  0  0  0  0  0  0  0
   -1.4189   -2.3277    2.5586 H   0  0  0  0  0  0  0  0  0  0  0  0
   -2.3195   -0.1014    2.2863 H   0  0  0  0  0  0  0  0  0  0  0  0
   -0.5450    0.0147    2.5367 H   0  0  0  0  0  0  0  0  0  0  0  0
   -2.3632   -3.3326    0.4289 H   0  0  0  0  0  0  0  0  0  0  0  0
   -3.3472   -1.9332    0.9539 H   0  0  0  0  0  0  0  0  0  0  0  0
    1.2993   -3.7103   -0.8952 H   0  0  0  0  0  0  0  0  0  0  0  0
    2.4567   -2.5263   -0.1287 H   0  0  0  0  0  0  0  0  0  0  0  0
    1.9095   -2.2485   -1.7936 H   0  0  0  0  0  0  0  0  0  0  0  0
  1  3  1  1  0  0  0
  1 12  1  0  0  0  0
  2 10  1  0  0  0  0
  3 16  1  0  0  0  0
  3 15  1  0  0  0  0
  4 18  1  0  0  0  0
  4  3  1  0  0  0  0
  5 19  1  0  0  0  0
  5  4  1  0  0  0  0
  6  5  1  0  0  0  0
  6  7  1  0  0  0  0
  7 23  1  1  0  0  0
  7  1  1  0  0  0  0
  8 24  1  6  0  0  0
  8  7  1  0  0  0  0
  8 13  1  0  0  0  0
  9  8  1  0  0  0  0
  9  2  1  0  0  0  0
 10 11  1  0  0  0  0
 10 27  1  0  0  0  0
 11 12  1  0  0  0  0
 11 29  1  1  0  0  0
 12 30  1  0  0  0  0
 12 31  1  0  0  0  0
 13 33  1  0  0  0  0
 13 11  1  0  0  0  0
 14  2  1  0  0  0  0
 14 35  1  0  0  0  0
 17  4  1  0  0  0  0
 20  5  1  0  0  0  0
 21  6  1  0  0  0  0
 22  6  1  0  0  0  0
 25  9  1  0  0  0  0
 26  9  1  0  0  0  0
 28 10  1  0  0  0  0
 32 13  1  0  0  0  0
 34 14  1  0  0  0  0
 36 14  1  0  0  0  0
M  END
