1,2
 OpenBabel05122313053D

 43 45  0  0  1  0  0  0  0  0999 V2000
    2.5651    0.2206   -0.1435 N   0  0  0  0  0  2  0  0  0  0  0  0
   -0.0593    0.5119    0.4066 N   0  0  0  0  0  2  0  0  0  0  0  0
    3.7426    0.0328   -0.7623 C   0  0  0  0  0  3  0  0  0  0  0  0
    3.9524   -0.9970   -1.0937 H   0  0  0  0  0  0  0  0  0  0  0  0
    4.6303    1.0892   -0.9956 C   0  0  0  0  0  0  0  0  0  0  0  0
    5.5897    0.9042   -1.4991 H   0  0  0  0  0  0  0  0  0  0  0  0
    4.2562    2.3786   -0.5859 C   0  0  0  0  0  0  0  0  0  0  0  0
    4.9244    3.2355   -0.7605 H   0  0  0  0  0  0  0  0  0  0  0  0
    3.0124    2.5675    0.0314 C   0  0  0  0  0  0  0  0  0  0  0  0
    2.6788    3.5679    0.3451 H   0  0  0  0  0  0  0  0  0  0  0  0
    2.1836    1.4529    0.2392 C   0  0  0  0  0  0  0  0  0  0  0  0
    0.8298    1.5549    0.9279 C   0  0  2  0  0  0  0  0  0  0  0  0
    0.4287    2.5726    0.7296 H   0  0  0  0  0  0  0  0  0  0  0  0
    0.9741    1.3455    2.4492 C   0  0  0  0  0  0  0  0  0  0  0  0
    1.2867    0.2986    2.6463 H   0  0  0  0  0  0  0  0  0  0  0  0
   -0.0018    1.5135    2.9471 H   0  0  0  0  0  0  0  0  0  0  0  0
    1.7168    2.0482    2.8751 H   0  0  0  0  0  0  0  0  0  0  0  0
   -1.2903    0.7654    0.1358 C   0  0  1  0  0  3  0  0  0  0  0  0
   -1.9955    2.1157    0.1687 C   0  0  0  0  0  0  0  0  0  0  0  0
   -2.0358    2.5173    1.2020 H   0  0  0  0  0  0  0  0  0  0  0  0
   -1.4663    2.8693   -0.4513 H   0  0  0  0  0  0  0  0  0  0  0  0
   -3.3877    1.7464   -0.3763 C   0  0  1  0  0  0  0  0  0  0  0  0
   -4.1657    2.5052   -0.1621 H   0  0  0  0  0  0  0  0  0  0  0  0
   -3.2055    1.4165   -1.8784 C   0  0  0  0  0  0  0  0  0  0  0  0
   -4.1819    1.3398   -2.3946 H   0  0  0  0  0  0  0  0  0  0  0  0
   -2.6332    2.2107   -2.3984 H   0  0  0  0  0  0  0  0  0  0  0  0
   -2.4563    0.0532   -1.8528 C   0  0  0  0  0  0  0  0  0  0  0  0
   -1.4660    0.0530   -2.3488 H   0  0  0  0  0  0  0  0  0  0  0  0
   -3.0438   -0.7569   -2.3287 H   0  0  0  0  0  0  0  0  0  0  0  0
   -2.3020   -0.2708   -0.3293 C   0  0  1  0  0  0  0  0  0  0  0  0
   -1.9892   -1.7206   -0.0037 C   0  0  0  0  0  0  0  0  0  0  0  0
   -1.2264   -2.1287   -0.6988 H   0  0  0  0  0  0  0  0  0  0  0  0
   -2.8975   -2.3441   -0.1268 H   0  0  0  0  0  0  0  0  0  0  0  0
   -1.6096   -1.8474    1.0299 H   0  0  0  0  0  0  0  0  0  0  0  0
   -3.6286    0.3459    0.2680 C   0  0  0  0  0  0  0  0  0  0  0  0
   -4.9113   -0.3386   -0.2191 C   0  0  0  0  0  0  0  0  0  0  0  0
   -5.7975    0.2201    0.1461 H   0  0  0  0  0  0  0  0  0  0  0  0
   -4.9839   -1.3684    0.1846 H   0  0  0  0  0  0  0  0  0  0  0  0
   -4.9900   -0.4059   -1.3199 H   0  0  0  0  0  0  0  0  0  0  0  0
   -3.6440    0.3376    1.8048 C   0  0  0  0  0  0  0  0  0  0  0  0
   -2.7043    0.7053    2.2618 H   0  0  0  0  0  0  0  0  0  0  0  0
   -3.7914   -0.6954    2.1783 H   0  0  0  0  0  0  0  0  0  0  0  0
   -4.4787    0.9558    2.1947 H   0  0  0  0  0  0  0  0  0  0  0  0
  1 11  1  0  0  0  0
  2 12  1  0  0  0  0
  3  1  1  0  0  0  0
  4  3  1  0  0  0  0
  5  3  1  0  0  0  0
  5  7  2  0  0  0  0
  6  5  1  0  0  0  0
  7  9  1  0  0  0  0
  8  7  1  0  0  0  0
  9 11  2  0  0  0  0
  9 10  1  0  0  0  0
 11 12  1  0  0  0  0
 12 13  1  6  0  0  0
 12 14  1  0  0  0  0
 14 15  1  0  0  0  0
 14 17  1  0  0  0  0
 14 16  1  0  0  0  0
 18 19  1  0  0  0  0
 18  2  1  6  0  0  0
 19 20  1  0  0  0  0
 21 19  1  0  0  0  0
 22 23  1  1  0  0  0
 22 19  1  0  0  0  0
 22 35  1  0  0  0  0
 24 27  1  0  0  0  0
 24 22  1  0  0  0  0
 25 24  1  0  0  0  0
 26 24  1  0  0  0  0
 27 30  1  0  0  0  0
 28 27  1  0  0  0  0
 29 27  1  0  0  0  0
 30 31  1  1  0  0  0
 30 18  1  0  0  0  0
 30 35  1  0  0  0  0
 31 34  1  0  0  0  0
 32 31  1  0  0  0  0
 33 31  1  0  0  0  0
 35 40  1  0  0  0  0
 36 37  1  0  0  0  0
 36 38  1  0  0  0  0
 36 35  1  0  0  0  0
 39 36  1  0  0  0  0
 40 42  1  0  0  0  0
 40 43  1  0  0  0  0
 40 41  1  0  0  0  0
M  END
