1,2
 OpenBabel05122313053D

 43 45  0  0  1  0  0  0  0  0999 V2000
   -2.6121    0.2356   -0.0663 N   0  0  0  0  0  2  0  0  0  0  0  0
    0.0541    0.6097    0.1268 N   0  0  0  0  0  2  0  0  0  0  0  0
   -3.8362   -0.0735   -0.5274 C   0  0  0  0  0  3  0  0  0  0  0  0
   -4.0552   -1.1509   -0.6058 H   0  0  0  0  0  0  0  0  0  0  0  0
   -4.7430    0.9165   -0.9226 C   0  0  0  0  0  0  0  0  0  0  0  0
   -5.7412    0.6368   -1.2881 H   0  0  0  0  0  0  0  0  0  0  0  0
   -4.3383    2.2591   -0.8581 C   0  0  0  0  0  0  0  0  0  0  0  0
   -5.0208    3.0631   -1.1727 H   0  0  0  0  0  0  0  0  0  0  0  0
   -3.0462    2.5657   -0.4095 C   0  0  0  0  0  0  0  0  0  0  0  0
   -2.6883    3.6054   -0.3701 H   0  0  0  0  0  0  0  0  0  0  0  0
   -2.2014    1.5156   -0.0161 C   0  0  0  0  0  0  0  0  0  0  0  0
   -0.7977    1.7381    0.5259 C   0  0  1  0  0  0  0  0  0  0  0  0
   -0.4142    2.6943    0.1052 H   0  0  0  0  0  0  0  0  0  0  0  0
   -0.8420    1.8322    2.0659 C   0  0  0  0  0  0  0  0  0  0  0  0
   -1.5598    2.6110    2.3896 H   0  0  0  0  0  0  0  0  0  0  0  0
    0.1594    2.0844    2.4665 H   0  0  0  0  0  0  0  0  0  0  0  0
   -1.1330    0.8474    2.4851 H   0  0  0  0  0  0  0  0  0  0  0  0
    1.3261    0.7701    0.0201 C   0  0  1  0  0  3  0  0  0  0  0  0
    2.1166    2.0653    0.1558 C   0  0  0  0  0  0  0  0  0  0  0  0
    1.9146    2.5860    1.1136 H   0  0  0  0  0  0  0  0  0  0  0  0
    1.8357    2.7680   -0.6569 H   0  0  0  0  0  0  0  0  0  0  0  0
    3.5676    1.5628    0.0321 C   0  0  1  0  0  0  0  0  0  0  0  0
    4.2961    2.3578   -0.2210 H   0  0  0  0  0  0  0  0  0  0  0  0
    3.8719    0.7985    1.3416 C   0  0  0  0  0  0  0  0  0  0  0  0
    3.6123    1.4046    2.2325 H   0  0  0  0  0  0  0  0  0  0  0  0
    4.9485    0.5543    1.4258 H   0  0  0  0  0  0  0  0  0  0  0  0
    2.9970   -0.4783    1.2057 C   0  0  0  0  0  0  0  0  0  0  0  0
    2.2202   -0.5992    1.9867 H   0  0  0  0  0  0  0  0  0  0  0  0
    3.6038   -1.4055    1.2193 H   0  0  0  0  0  0  0  0  0  0  0  0
    2.3278   -0.3475   -0.2090 C   0  0  1  0  0  0  0  0  0  0  0  0
    1.7916   -1.6538   -0.7587 C   0  0  0  0  0  0  0  0  0  0  0  0
    1.2045   -2.1931    0.0131 H   0  0  0  0  0  0  0  0  0  0  0  0
    2.6289   -2.3239   -1.0390 H   0  0  0  0  0  0  0  0  0  0  0  0
    1.1395   -1.5181   -1.6432 H   0  0  0  0  0  0  0  0  0  0  0  0
    3.4373    0.4193   -1.0249 C   0  0  0  0  0  0  0  0  0  0  0  0
    4.7298   -0.3808   -1.2254 C   0  0  0  0  0  0  0  0  0  0  0  0
    4.5623   -1.2251   -1.9238 H   0  0  0  0  0  0  0  0  0  0  0  0
    5.1423   -0.8009   -0.2895 H   0  0  0  0  0  0  0  0  0  0  0  0
    5.5104    0.2673   -1.6745 H   0  0  0  0  0  0  0  0  0  0  0  0
    2.9455    0.8799   -2.4058 C   0  0  0  0  0  0  0  0  0  0  0  0
    3.6752    1.5723   -2.8736 H   0  0  0  0  0  0  0  0  0  0  0  0
    1.9617    1.3882   -2.3793 H   0  0  0  0  0  0  0  0  0  0  0  0
    2.8334    0.0083   -3.0814 H   0  0  0  0  0  0  0  0  0  0  0  0
  1 11  1  0  0  0  0
  2 12  1  0  0  0  0
  3  1  1  0  0  0  0
  4  3  1  0  0  0  0
  5  7  2  0  0  0  0
  5  3  1  0  0  0  0
  6  5  1  0  0  0  0
  7  9  1  0  0  0  0
  8  7  1  0  0  0  0
  9 10  1  0  0  0  0
  9 11  2  0  0  0  0
 11 12  1  0  0  0  0
 12 13  1  6  0  0  0
 12 14  1  0  0  0  0
 14 15  1  0  0  0  0
 14 16  1  0  0  0  0
 14 17  1  0  0  0  0
 18  2  1  1  0  0  0
 18 19  1  0  0  0  0
 19 20  1  0  0  0  0
 21 19  1  0  0  0  0
 22 23  1  6  0  0  0
 22 19  1  0  0  0  0
 22 24  1  0  0  0  0
 24 26  1  0  0  0  0
 24 25  1  0  0  0  0
 27 29  1  0  0  0  0
 27 24  1  0  0  0  0
 27 28  1  0  0  0  0
 30 31  1  6  0  0  0
 30 18  1  0  0  0  0
 30 27  1  0  0  0  0
 31 32  1  0  0  0  0
 33 31  1  0  0  0  0
 34 31  1  0  0  0  0
 35 30  1  0  0  0  0
 35 22  1  0  0  0  0
 36 35  1  0  0  0  0
 36 38  1  0  0  0  0
 37 36  1  0  0  0  0
 39 36  1  0  0  0  0
 40 42  1  0  0  0  0
 40 35  1  0  0  0  0
 41 40  1  0  0  0  0
 43 40  1  0  0  0  0
M  END
