1,31
 OpenBabel05122313053D

 32 36  0  0  0  0  0  0  0  0999 V2000
   -1.2647    1.3430    0.2044 N   0  0  0  0  0  2  0  0  0  0  0  0
   -1.3069    2.6871    0.2247 C   0  0  0  0  0  0  0  0  0  0  0  0
   -2.3087    3.1393    0.2517 H   0  0  0  0  0  0  0  0  0  0  0  0
   -0.1455    3.4776    0.1996 C   0  0  0  0  0  0  0  0  0  0  0  0
   -0.2404    4.5723    0.2119 H   0  0  0  0  0  0  0  0  0  0  0  0
    1.1048    2.8596    0.1530 C   0  0  0  0  0  0  0  0  0  0  0  0
    2.0453    3.4277    0.1290 H   0  0  0  0  0  0  0  0  0  0  0  0
    1.1675    1.4512    0.1359 C   0  0  0  0  0  0  0  0  0  0  0  0
   -0.0486    0.7253    0.1584 C   0  0  0  0  0  0  0  0  0  0  0  0
    2.4375    0.7230    0.0950 C   0  0  0  0  0  0  0  0  0  0  0  0
    3.5762    1.4178    0.0623 N   0  0  0  0  0  0  0  0  0  0  0  0
    4.7362    0.7262    0.0256 C   0  0  0  0  0  0  0  0  0  0  0  0
    5.9773    1.4289   -0.0129 C   0  0  0  0  0  0  0  0  0  0  0  0
    5.9807    2.5271   -0.0137 H   0  0  0  0  0  0  0  0  0  0  0  0
    7.1578    0.7174   -0.0496 C   0  0  0  0  0  0  0  0  0  0  0  0
    8.3403    1.3329   -0.0864 F   0  0  0  0  0  0  0  0  0  0  0  0
    7.1578   -0.7174   -0.0496 C   0  0  0  0  0  0  0  0  0  0  0  0
    8.3403   -1.3329   -0.0864 F   0  0  0  0  0  0  0  0  0  0  0  0
    5.9773   -1.4289   -0.0128 C   0  0  0  0  0  0  0  0  0  0  0  0
    5.9807   -2.5271   -0.0136 H   0  0  0  0  0  0  0  0  0  0  0  0
    4.7362   -0.7262    0.0257 C   0  0  0  0  0  0  0  0  0  0  0  0
    3.5762   -1.4178    0.0624 N   0  0  0  0  0  0  0  0  0  0  0  0
    2.4375   -0.7230    0.0950 C   0  0  0  0  0  0  0  0  0  0  0  0
    1.1675   -1.4512    0.1360 C   0  0  0  0  0  0  0  0  0  0  0  0
    1.1048   -2.8596    0.1530 C   0  0  0  0  0  0  0  0  0  0  0  0
    2.0453   -3.4277    0.1291 H   0  0  0  0  0  0  0  0  0  0  0  0
   -0.1455   -3.4776    0.1997 C   0  0  0  0  0  0  0  0  0  0  0  0
   -0.2404   -4.5723    0.2120 H   0  0  0  0  0  0  0  0  0  0  0  0
   -1.3069   -2.6871    0.2248 C   0  0  0  0  0  0  0  0  0  0  0  0
   -2.3087   -3.1393    0.2517 H   0  0  0  0  0  0  0  0  0  0  0  0
   -1.2647   -1.3430    0.2044 N   0  0  0  0  0  2  0  0  0  0  0  0
   -0.0486   -0.7253    0.1584 C   0  0  0  0  0  0  0  0  0  0  0  0
  1  2  1  0  0  0  0
  2  3  1  0  0  0  0
  4  5  1  0  0  0  0
  4  2  2  0  0  0  0
  6  4  1  0  0  0  0
  7  6  1  0  0  0  0
  8  6  2  0  0  0  0
  8  9  1  0  0  0  0
  9 32  2  0  0  0  0
  9  1  1  0  0  0  0
 10 23  1  0  0  0  0
 10  8  1  0  0  0  0
 11 10  2  0  0  0  0
 12 21  1  0  0  0  0
 12 11  1  0  0  0  0
 13 12  2  0  0  0  0
 14 13  1  0  0  0  0
 15 17  2  0  0  0  0
 15 13  1  0  0  0  0
 16 15  1  0  0  0  0
 17 19  1  0  0  0  0
 18 17  1  0  0  0  0
 19 21  2  0  0  0  0
 20 19  1  0  0  0  0
 21 22  1  0  0  0  0
 22 23  2  0  0  0  0
 23 24  1  0  0  0  0
 24 25  2  0  0  0  0
 24 32  1  0  0  0  0
 25 27  1  0  0  0  0
 26 25  1  0  0  0  0
 27 28  1  0  0  0  0
 27 29  2  0  0  0  0
 29 30  1  0  0  0  0
 31 29  1  0  0  0  0
 32 31  1  0  0  0  0
M  END
