8,12
q = 0.0, confidence = 1.0

 32 35  0  0  1  0  0  0  0  0999 V2000
    0.4038    2.9614   -0.2773 S   0  0  0  0  0  0  0  0  0  0  0  0
   -0.8156    2.3690    0.9758 C   0  0  0  0  0  0  0  0  0  0  0  0
   -0.2726    1.8262    1.7943 H   0  0  0  0  0  0  0  0  0  0  0  0
   -1.2533    3.3011    1.3821 H   0  0  0  0  0  0  0  0  0  0  0  0
    2.8241    1.9682   -0.8563 N   0  0  0  0  0  0  0  0  0  0  0  0
    3.1589    2.9176   -1.0200 H   0  0  0  0  0  0  0  0  0  0  0  0
   -1.8481    1.4707    0.3987 C   0  0  1  0  0  3  0  0  0  0  0  0
    1.4347    0.3330   -0.2141 N   0  0  0  0  0  2  0  0  0  0  0  0
   -2.8255   -0.3268   -0.3761 C   0  0  0  0  0  0  0  0  0  0  0  0
   -3.0604    1.8751   -0.1014 N   0  0  0  0  0  0  0  0  0  0  0  0
   -3.4069    2.8341   -0.1049 H   0  0  0  0  0  0  0  0  0  0  0  0
   -1.6841    0.1596    0.2477 N   0  0  0  0  0  2  0  0  0  0  0  0
    2.6675   -0.2325   -0.5538 C   0  0  0  0  0  0  0  0  0  0  0  0
   -3.7195    0.7596   -0.6028 C   0  0  0  0  0  0  0  0  0  0  0  0
    1.5663    1.6443   -0.3993 C   0  0  2  0  0  3  0  0  0  0  0  0
    3.0851   -1.5757   -0.5390 C   0  0  0  0  0  0  0  0  0  0  0  0
    2.3849   -2.3676   -0.2294 H   0  0  0  0  0  0  0  0  0  0  0  0
   -3.1649   -1.6354   -0.7664 C   0  0  0  0  0  0  0  0  0  0  0  0
   -2.4531   -2.4565   -0.5876 H   0  0  0  0  0  0  0  0  0  0  0  0
    4.8712    0.5320   -1.3843 C   0  0  0  0  0  0  0  0  0  0  0  0
    5.5524    1.3336   -1.7045 H   0  0  0  0  0  0  0  0  0  0  0  0
    3.5569    0.7950   -0.9733 C   0  0  0  0  0  0  0  0  0  0  0  0
    5.2748   -0.8099   -1.3616 C   0  0  0  0  0  0  0  0  0  0  0  0
    6.2985   -1.0660   -1.6731 H   0  0  0  0  0  0  0  0  0  0  0  0
   -4.4102   -1.8111   -1.3780 C   0  0  0  0  0  0  0  0  0  0  0  0
   -4.7131   -2.8186   -1.6995 H   0  0  0  0  0  0  0  0  0  0  0  0
    4.3970   -1.8408   -0.9491 C   0  0  0  0  0  0  0  0  0  0  0  0
    4.7553   -2.8809   -0.9525 H   0  0  0  0  0  0  0  0  0  0  0  0
   -4.9707    0.5813   -1.2127 C   0  0  0  0  0  0  0  0  0  0  0  0
   -5.6612    1.4196   -1.3843 H   0  0  0  0  0  0  0  0  0  0  0  0
   -5.2961   -0.7261   -1.5961 C   0  0  0  0  0  0  0  0  0  0  0  0
   -6.2660   -0.9143   -2.0803 H   0  0  0  0  0  0  0  0  0  0  0  0
  1  2  1  0  0  0  0
  2  4  1  0  0  0  0
  2  3  1  0  0  0  0
  5 15  1  0  0  0  0
  6  5  1  0  0  0  0
  7  2  1  6  0  0  0
  9 12  1  0  0  0  0
 10  7  1  0  0  0  0
 11 10  1  0  0  0  0
 12  7  1  0  0  0  0
 13 16  1  0  0  0  0
 13  8  1  0  0  0  0
 14  9  1  0  0  0  0
 14 10  1  0  0  0  0
 15  1  1  6  0  0  0
 15  8  1  0  0  0  0
 16 17  1  0  0  0  0
 18 19  1  0  0  0  0
 18  9  2  0  0  0  0
 20 23  2  0  0  0  0
 20 22  1  0  0  0  0
 21 20  1  0  0  0  0
 22  5  1  0  0  0  0
 22 13  2  0  0  0  0
 23 27  1  0  0  0  0
 24 23  1  0  0  0  0
 25 18  1  0  0  0  0
 26 25  1  0  0  0  0
 27 16  2  0  0  0  0
 28 27  1  0  0  0  0
 29 14  2  0  0  0  0
 30 29  1  0  0  0  0
 31 25  2  0  0  0  0
 31 29  1  0  0  0  0
 32 31  1  0  0  0  0
M  END
