1,2
 OpenBabel05122313053D

 39 41  0  0  1  0  0  0  0  0999 V2000
    1.0902    1.5932    0.3597 N   0  0  0  0  0  2  0  0  0  0  0  0
    0.4211   -0.9844    1.2822 N   0  0  0  0  0  2  0  0  0  0  0  0
   -1.0928    0.8032    0.8779 N   0  0  0  0  0  0  0  0  0  0  0  0
   -4.8095    0.3241   -0.9670 N   0  0  0  0  0  0  0  0  0  0  0  0
   -0.1633    1.8611    0.8020 C   0  0  1  0  0  3  0  0  0  0  0  0
   -0.5297    3.1662    1.1971 C   0  0  0  0  0  0  0  0  0  0  0  0
   -1.5455    3.3629    1.5628 H   0  0  0  0  0  0  0  0  0  0  0  0
    0.4228    4.1870    1.1582 C   0  0  0  0  0  0  0  0  0  0  0  0
    0.1486    5.2072    1.4656 H   0  0  0  0  0  0  0  0  0  0  0  0
    1.7346    3.8832    0.7616 C   0  0  0  0  0  0  0  0  0  0  0  0
    2.5239    4.6468    0.7406 H   0  0  0  0  0  0  0  0  0  0  0  0
    2.0286    2.5718    0.3899 C   0  0  0  0  0  0  0  0  0  0  0  0
    3.0417    2.2538    0.1044 H   0  0  0  0  0  0  0  0  0  0  0  0
   -0.7552   -0.3770    1.5736 C   0  0  2  0  0  3  0  0  0  0  0  0
   -1.6181   -0.9027    2.5606 C   0  0  0  0  0  0  0  0  0  0  0  0
   -2.5668   -0.4014    2.7892 H   0  0  0  0  0  0  0  0  0  0  0  0
   -1.2327   -2.0444    3.2665 C   0  0  0  0  0  0  0  0  0  0  0  0
   -1.8983   -2.4635    4.0358 H   0  0  0  0  0  0  0  0  0  0  0  0
    0.0221   -2.6188    3.0100 C   0  0  0  0  0  0  0  0  0  0  0  0
    0.3797   -3.4983    3.5625 H   0  0  0  0  0  0  0  0  0  0  0  0
    0.8228   -2.0469    2.0225 C   0  0  0  0  0  0  0  0  0  0  0  0
    1.8282   -2.4244    1.7858 H   0  0  0  0  0  0  0  0  0  0  0  0
   -2.5150    1.0996    0.6695 C   0  0  0  0  0  0  0  0  0  0  0  0
   -2.9451    1.7116    1.4979 H   0  0  0  0  0  0  0  0  0  0  0  0
   -3.0400    0.1261    0.6923 H   0  0  0  0  0  0  0  0  0  0  0  0
   -2.7871    1.7412   -0.6939 C   0  0  0  0  0  0  0  0  0  0  0  0
   -2.4582    2.8002   -0.7246 H   0  0  0  0  0  0  0  0  0  0  0  0
   -2.1882    1.2011   -1.4529 H   0  0  0  0  0  0  0  0  0  0  0  0
   -4.2733    1.6729   -1.0712 C   0  0  0  0  0  0  0  0  0  0  0  0
   -4.8830    2.3179   -0.4064 H   0  0  0  0  0  0  0  0  0  0  0  0
   -4.4061    2.0574   -2.1047 H   0  0  0  0  0  0  0  0  0  0  0  0
   -4.3028   -0.7902   -1.6105 C   0  0  0  0  0  0  0  0  0  0  0  0
   -3.4682   -0.7084   -2.3158 H   0  0  0  0  0  0  0  0  0  0  0  0
   -4.9977   -1.9044   -1.1507 C   0  0  0  0  0  0  0  0  0  0  0  0
   -4.8325   -2.9372   -1.4779 H   0  0  0  0  0  0  0  0  0  0  0  0
   -5.9537   -1.4484   -0.1929 C   0  0  0  0  0  0  0  0  0  0  0  0
   -6.6781   -2.0578    0.3594 H   0  0  0  0  0  0  0  0  0  0  0  0
   -5.8088   -0.0687   -0.0958 C   0  0  0  0  0  0  0  0  0  0  0  0
   -6.3457    0.6732    0.5065 H   0  0  0  0  0  0  0  0  0  0  0  0
  1 12  1  0  0  0  0
  1  5  1  0  0  0  0
  2 14  1  0  0  0  0
  2 21  1  0  0  0  0
  4 38  1  0  0  0  0
  5  3  1  1  0  0  0
  5  6  1  0  0  0  0
  6  7  1  0  0  0  0
  8  6  2  0  0  0  0
  8  9  1  0  0  0  0
 10  8  1  0  0  0  0
 11 10  1  0  0  0  0
 12 10  2  0  0  0  0
 13 12  1  0  0  0  0
 14  3  1  1  0  0  0
 14 15  1  0  0  0  0
 15 16  1  0  0  0  0
 15 17  2  0  0  0  0
 17 18  1  0  0  0  0
 19 17  1  0  0  0  0
 19 20  1  0  0  0  0
 21 19  2  0  0  0  0
 22 21  1  0  0  0  0
 23 25  1  0  0  0  0
 23  3  1  0  0  0  0
 23 24  1  0  0  0  0
 26 23  1  0  0  0  0
 27 26  1  0  0  0  0
 28 26  1  0  0  0  0
 29  4  1  0  0  0  0
 29 26  1  0  0  0  0
 29 30  1  0  0  0  0
 31 29  1  0  0  0  0
 32 34  2  0  0  0  0
 32  4  1  0  0  0  0
 33 32  1  0  0  0  0
 34 36  1  0  0  0  0
 35 34  1  0  0  0  0
 36 38  2  0  0  0  0
 36 37  1  0  0  0  0
 38 39  1  0  0  0  0
M  END
