1,2
 OpenBabel05122313053D

 32 33  0  0  1  0  0  0  0  0999 V2000
    2.6378    0.4923   -0.1266 N   0  0  0  0  0  2  0  0  0  0  0  0
    0.1329    1.1741   -0.2486 N   0  0  0  0  0  2  0  0  0  0  0  0
    0.9574    2.1982   -0.2482 C   0  0  1  0  0  3  0  0  0  0  0  0
    0.5191    3.6232   -0.1560 C   0  0  0  0  0  0  0  0  0  0  0  0
   -0.5713    3.6971   -0.3128 H   0  0  0  0  0  0  0  0  0  0  0  0
    1.0418    4.2511   -0.9039 H   0  0  0  0  0  0  0  0  0  0  0  0
    0.7568    4.0327    0.8486 H   0  0  0  0  0  0  0  0  0  0  0  0
   -1.2007    1.4559    0.0682 N   0  0  0  0  0  0  0  0  0  0  0  0
   -1.3009    1.4223    1.0970 H   0  0  0  0  0  0  0  0  0  0  0  0
   -1.8796    0.4157   -1.8410 O   0  0  0  0  0  0  0  0  0  0  0  0
    3.9236    0.0767   -0.1205 C   0  0  0  0  0  3  0  0  0  0  0  0
    4.0797   -1.0027    0.0183 H   0  0  0  0  0  0  0  0  0  0  0  0
    3.4163    2.7644   -0.4386 C   0  0  0  0  0  0  0  0  0  0  0  0
    3.1785    3.8293   -0.5610 H   0  0  0  0  0  0  0  0  0  0  0  0
    4.7432    2.3266   -0.4349 C   0  0  0  0  0  0  0  0  0  0  0  0
    5.5678    3.0439   -0.5556 H   0  0  0  0  0  0  0  0  0  0  0  0
    4.9994    0.9554   -0.2708 C   0  0  0  0  0  0  0  0  0  0  0  0
    6.0252    0.5615   -0.2525 H   0  0  0  0  0  0  0  0  0  0  0  0
    2.3755    1.8286   -0.2835 C   0  0  0  0  0  0  0  0  0  0  0  0
   -4.2433   -0.4493   -2.1278 O   0  0  0  0  0  0  0  0  0  0  0  0
   -3.2665   -0.2283   -2.2957 H   0  0  0  0  0  0  0  0  0  0  0  0
   -3.5276    0.7262   -0.1341 C   0  0  0  0  0  0  0  0  0  0  0  0
   -4.5153    0.0458   -0.9217 C   0  0  0  0  0  0  0  0  0  0  0  0
   -2.1751    0.8324   -0.7018 C   0  0  0  0  0  0  0  0  0  0  0  0
   -5.8217   -0.1084   -0.3972 C   0  0  0  0  0  0  0  0  0  0  0  0
   -6.5605   -0.6393   -1.0143 H   0  0  0  0  0  0  0  0  0  0  0  0
   -3.8892    1.2335    1.1384 C   0  0  0  0  0  0  0  0  0  0  0  0
   -3.1481    1.7729    1.7484 H   0  0  0  0  0  0  0  0  0  0  0  0
   -5.1800    1.0771    1.6382 C   0  0  0  0  0  0  0  0  0  0  0  0
   -5.4431    1.4764    2.6279 H   0  0  0  0  0  0  0  0  0  0  0  0
   -6.1437    0.3988    0.8595 C   0  0  0  0  0  0  0  0  0  0  0  0
   -7.1651    0.2676    1.2488 H   0  0  0  0  0  0  0  0  0  0  0  0
  1 11  1  0  0  0  0
  2  8  1  0  0  0  0
  3  2  1  1  0  0  0
  3  4  1  0  0  0  0
  4  7  1  0  0  0  0
  5  4  1  0  0  0  0
  6  4  1  0  0  0  0
  8  9  1  0  0  0  0
 10 24  2  0  0  0  0
 11 12  1  0  0  0  0
 13 15  1  0  0  0  0
 13 19  2  0  0  0  0
 14 13  1  0  0  0  0
 15 17  2  0  0  0  0
 16 15  1  0  0  0  0
 17 18  1  0  0  0  0
 17 11  1  0  0  0  0
 19  3  1  0  0  0  0
 19  1  1  0  0  0  0
 20 23  1  0  0  0  0
 21 20  1  0  0  0  0
 22 27  1  0  0  0  0
 23 25  1  0  0  0  0
 23 22  2  0  0  0  0
 24 22  1  0  0  0  0
 24  8  1  0  0  0  0
 25 31  2  0  0  0  0
 26 25  1  0  0  0  0
 27 29  2  0  0  0  0
 27 28  1  0  0  0  0
 29 30  1  0  0  0  0
 31 32  1  0  0  0  0
 31 29  1  0  0  0  0
M  END
