2,3
 OpenBabel05122313053D

 32 32  0  0  1  0  0  0  0  0999 V2000
    1.2088   -3.9061    0.0628 O   0  0  0  0  0  1  0  0  0  0  0  0
    1.4845   -2.6278   -0.0274 N   0  0  0  0  0  2  0  0  0  0  0  0
    1.7277    0.0050   -0.0129 N   0  0  0  0  0  0  0  0  0  0  0  0
    2.7319   -2.2452   -0.0491 C   0  0  2  0  0  3  0  0  0  0  0  0
    3.0192   -0.7667   -0.2619 C   0  0  0  0  0  0  0  0  0  0  0  0
    3.8078   -3.2840    0.0088 C   0  0  0  0  0  0  0  0  0  0  0  0
    4.0954   -0.2757    0.7271 C   0  0  0  0  0  0  0  0  0  0  0  0
    3.4923   -0.6046   -1.7192 C   0  0  0  0  0  0  0  0  0  0  0  0
    1.5946    1.2873   -0.7457 C   0  0  0  0  0  0  0  0  0  0  0  0
    2.4310    2.4257   -0.2020 C   0  0  0  0  0  0  0  0  0  0  0  0
    3.3025    3.1521   -1.0343 C   0  0  0  0  0  0  0  0  0  0  0  0
    4.0604    4.2178   -0.5230 C   0  0  0  0  0  0  0  0  0  0  0  0
    3.9548    4.5696    0.8310 C   0  0  0  0  0  0  0  0  0  0  0  0
    3.0814    3.8566    1.6695 C   0  0  0  0  0  0  0  0  0  0  0  0
    2.3235    2.7959    1.1555 C   0  0  0  0  0  0  0  0  0  0  0  0
    1.6972    0.1902    1.0071 H   0  0  0  0  0  0  0  0  0  0  0  0
    3.6200   -4.0639   -0.7578 H   0  0  0  0  0  0  0  0  0  0  0  0
    3.7850   -3.8083    0.9876 H   0  0  0  0  0  0  0  0  0  0  0  0
    4.8155   -2.8567   -0.1420 H   0  0  0  0  0  0  0  0  0  0  0  0
    4.3224    0.7946    0.5646 H   0  0  0  0  0  0  0  0  0  0  0  0
    5.0362   -0.8442    0.5970 H   0  0  0  0  0  0  0  0  0  0  0  0
    3.7528   -0.4152    1.7725 H   0  0  0  0  0  0  0  0  0  0  0  0
    3.8815    0.4129   -1.9199 H   0  0  0  0  0  0  0  0  0  0  0  0
    4.3196   -1.3149   -1.9094 H   0  0  0  0  0  0  0  0  0  0  0  0
    2.6643   -0.8426   -2.4159 H   0  0  0  0  0  0  0  0  0  0  0  0
    0.5284    1.5757   -0.6969 H   0  0  0  0  0  0  0  0  0  0  0  0
    1.7827    1.1080   -1.8166 H   0  0  0  0  0  0  0  0  0  0  0  0
    3.3873    2.8783   -2.0981 H   0  0  0  0  0  0  0  0  0  0  0  0
    4.7397    4.7741   -1.1867 H   0  0  0  0  0  0  0  0  0  0  0  0
    4.5515    5.4015    1.2346 H   0  0  0  0  0  0  0  0  0  0  0  0
    2.9888    4.1307    2.7314 H   0  0  0  0  0  0  0  0  0  0  0  0
    1.6456    2.2401    1.8258 H   0  0  0  0  0  0  0  0  0  0  0  0
  2  1  1  0  0  0  0
  3 16  1  0  0  0  0
  4  2  1  6  0  0  0
  4  6  1  0  0  0  0
  5  4  1  0  0  0  0
  5  3  1  0  0  0  0
  5  7  1  0  0  0  0
  6 18  1  0  0  0  0
  7 22  1  0  0  0  0
  8  5  1  0  0  0  0
  9 26  1  0  0  0  0
  9 10  1  0  0  0  0
  9  3  1  0  0  0  0
 10 15  1  0  0  0  0
 11 12  1  0  0  0  0
 11 10  2  0  0  0  0
 12 13  2  0  0  0  0
 13 30  1  0  0  0  0
 13 14  1  0  0  0  0
 14 31  1  0  0  0  0
 15 14  2  0  0  0  0
 15 32  1  0  0  0  0
 17  6  1  0  0  0  0
 19  6  1  0  0  0  0
 20  7  1  0  0  0  0
 21  7  1  0  0  0  0
 23  8  1  0  0  0  0
 24  8  1  0  0  0  0
 25  8  1  0  0  0  0
 27  9  1  0  0  0  0
 28 11  1  0  0  0  0
 29 12  1  0  0  0  0
M  END
