3,4
 OpenBabel05122313053D

 40 41  0  0  1  0  0  0  0  0999 V2000
    4.3228    3.8853    3.4980 Cl  0  0  0  0  0  0  0  0  0  0  0  0
   -4.3398   -3.4611    3.8947 Cl  0  0  0  0  0  0  0  0  0  0  0  0
    1.2212    0.6111   -1.5456 N   0  0  0  0  0  2  0  0  0  0  0  0
   -1.2099   -0.7767   -1.4708 N   0  0  0  0  0  2  0  0  0  0  0  0
    2.9179    1.7727   -0.2929 C   0  0  0  0  0  0  0  0  0  0  0  0
    4.2829    1.7725    0.0776 C   0  0  0  0  0  0  0  0  0  0  0  0
    5.0210    1.2402   -0.5386 H   0  0  0  0  0  0  0  0  0  0  0  0
    4.7228    2.4134    1.2418 C   0  0  0  0  0  0  0  0  0  0  0  0
    5.7826    2.3916    1.5312 H   0  0  0  0  0  0  0  0  0  0  0  0
    3.7951    3.0983    2.0452 C   0  0  0  0  0  0  0  0  0  0  0  0
    2.4354    3.1451    1.6802 C   0  0  0  0  0  0  0  0  0  0  0  0
    1.7260    3.7116    2.2999 H   0  0  0  0  0  0  0  0  0  0  0  0
    2.0097    2.4780    0.5297 C   0  0  0  0  0  0  0  0  0  0  0  0
    0.9461    2.5018    0.2560 H   0  0  0  0  0  0  0  0  0  0  0  0
    2.4486    1.0633   -1.5061 C   0  0  1  0  0  3  0  0  0  0  0  0
    3.4018    0.8723   -2.6578 C   0  0  0  0  0  0  0  0  0  0  0  0
    2.9648    1.2771   -3.5940 H   0  0  0  0  0  0  0  0  0  0  0  0
    3.5884   -0.2076   -2.8372 H   0  0  0  0  0  0  0  0  0  0  0  0
    4.3687    1.3779   -2.5007 H   0  0  0  0  0  0  0  0  0  0  0  0
    0.7653   -0.0632   -2.7549 C   0  0  0  0  0  0  0  0  0  0  0  0
    1.2635   -1.0566   -2.8221 H   0  0  0  0  0  0  0  0  0  0  0  0
    1.0539    0.4917   -3.6738 H   0  0  0  0  0  0  0  0  0  0  0  0
   -0.7483   -0.2458   -2.7475 C   0  0  0  0  0  0  0  0  0  0  0  0
   -1.2459    0.7329   -2.9317 H   0  0  0  0  0  0  0  0  0  0  0  0
   -1.0330   -0.9033   -3.5974 H   0  0  0  0  0  0  0  0  0  0  0  0
   -2.4399   -1.2156   -1.3844 C   0  0  2  0  0  3  0  0  0  0  0  0
   -3.3881   -1.1494   -2.5540 C   0  0  0  0  0  0  0  0  0  0  0  0
   -2.9530   -1.6646   -3.4352 H   0  0  0  0  0  0  0  0  0  0  0  0
   -3.5622   -0.0958   -2.8582 H   0  0  0  0  0  0  0  0  0  0  0  0
   -4.3610   -1.6231   -2.3437 H   0  0  0  0  0  0  0  0  0  0  0  0
   -2.9159   -1.7842   -0.1017 C   0  0  0  0  0  0  0  0  0  0  0  0
   -2.0108   -2.3861    0.8026 C   0  0  0  0  0  0  0  0  0  0  0  0
   -0.9448   -2.4322    0.5419 H   0  0  0  0  0  0  0  0  0  0  0  0
   -2.4421   -2.9209    2.0183 C   0  0  0  0  0  0  0  0  0  0  0  0
   -1.7346   -3.4092    2.7033 H   0  0  0  0  0  0  0  0  0  0  0  0
   -3.8048   -2.8410    2.3658 C   0  0  0  0  0  0  0  0  0  0  0  0
   -4.7293   -2.2564    1.4835 C   0  0  0  0  0  0  0  0  0  0  0  0
   -5.7913   -2.2073    1.7612 H   0  0  0  0  0  0  0  0  0  0  0  0
   -4.2835   -1.7490    0.2574 C   0  0  0  0  0  0  0  0  0  0  0  0
   -5.0198   -1.2933   -0.4194 H   0  0  0  0  0  0  0  0  0  0  0  0
  5  6  2  0  0  0  0
  5 13  1  0  0  0  0
  6  8  1  0  0  0  0
  7  6  1  0  0  0  0
  8  9  1  0  0  0  0
  8 10  2  0  0  0  0
 10  1  1  0  0  0  0
 11 10  1  0  0  0  0
 11 12  1  0  0  0  0
 13 11  2  0  0  0  0
 14 13  1  0  0  0  0
 15  3  1  1  0  0  0
 15  5  1  0  0  0  0
 16 19  1  0  0  0  0
 16 15  1  0  0  0  0
 17 16  1  0  0  0  0
 18 16  1  0  0  0  0
 20 23  1  0  0  0  0
 20  3  1  0  0  0  0
 21 20  1  0  0  0  0
 22 20  1  0  0  0  0
 23  4  1  0  0  0  0
 24 23  1  0  0  0  0
 25 23  1  0  0  0  0
 26  4  1  1  0  0  0
 26 31  1  0  0  0  0
 27 30  1  0  0  0  0
 27 26  1  0  0  0  0
 28 27  1  0  0  0  0
 29 27  1  0  0  0  0
 31 39  2  0  0  0  0
 31 32  1  0  0  0  0
 32 34  2  0  0  0  0
 33 32  1  0  0  0  0
 34 36  1  0  0  0  0
 34 35  1  0  0  0  0
 36  2  1  0  0  0  0
 37 38  1  0  0  0  0
 37 36  2  0  0  0  0
 39 37  1  0  0  0  0
 40 39  1  0  0  0  0
M  END
