1,18
 OpenBabel05122313053D

 52 55  0  0  1  0  0  0  0  0999 V2000
    1.9856   -0.3690   -0.6728 N   0  0  0  0  0  2  0  0  0  0  0  0
    2.1845   -1.2432    0.3090 C   0  0  1  0  0  3  0  0  0  0  0  0
    3.2784   -0.9039    1.0962 N   0  0  0  0  0  0  0  0  0  0  0  0
    4.9089    1.0557    0.9304 C   0  0  0  0  0  0  0  0  0  0  0  0
    5.5560    0.7970    1.7814 H   0  0  0  0  0  0  0  0  0  0  0  0
    5.1447    2.2026    0.1590 C   0  0  0  0  0  0  0  0  0  0  0  0
    5.9942    2.8541    0.4132 H   0  0  0  0  0  0  0  0  0  0  0  0
    4.3158    2.5438   -0.9384 C   0  0  0  0  0  0  0  0  0  0  0  0
    4.5390    3.4555   -1.5124 H   0  0  0  0  0  0  0  0  0  0  0  0
    3.2248    1.7481   -1.3066 C   0  0  0  0  0  0  0  0  0  0  0  0
    2.5712    2.0021   -2.1534 H   0  0  0  0  0  0  0  0  0  0  0  0
    2.9731    0.5921   -0.5465 C   0  0  0  0  0  0  0  0  0  0  0  0
    3.8093    0.2650    0.5609 C   0  0  0  0  0  0  0  0  0  0  0  0
    3.8319   -1.6067    2.2348 C   0  0  0  0  0  0  0  0  0  0  0  0
    4.8428   -2.0028    2.0040 H   0  0  0  0  0  0  0  0  0  0  0  0
    3.1774   -2.4538    2.5064 H   0  0  0  0  0  0  0  0  0  0  0  0
    3.9124   -0.9263    3.1075 H   0  0  0  0  0  0  0  0  0  0  0  0
   -0.8562    0.6643   -0.1962 N   0  0  0  0  0  2  0  0  0  0  0  0
   -0.9612    0.3468    1.0936 C   0  0  2  0  0  3  0  0  0  0  0  0
   -1.6527    1.3068    1.8057 N   0  0  0  0  0  0  0  0  0  0  0  0
   -2.8389    3.4389    1.0253 C   0  0  0  0  0  0  0  0  0  0  0  0
   -3.2550    3.7604    1.9914 H   0  0  0  0  0  0  0  0  0  0  0  0
   -3.0636    4.1841   -0.1415 C   0  0  0  0  0  0  0  0  0  0  0  0
   -3.6621    5.1054   -0.0804 H   0  0  0  0  0  0  0  0  0  0  0  0
   -2.5475    3.7762   -1.3957 C   0  0  0  0  0  0  0  0  0  0  0  0
   -2.7556    4.3889   -2.2855 H   0  0  0  0  0  0  0  0  0  0  0  0
   -1.7868    2.6079   -1.5246 C   0  0  0  0  0  0  0  0  0  0  0  0
   -1.3865    2.2638   -2.4898 H   0  0  0  0  0  0  0  0  0  0  0  0
   -1.5506    1.8530   -0.3638 C   0  0  0  0  0  0  0  0  0  0  0  0
   -2.0729    2.2705    0.8929 C   0  0  0  0  0  0  0  0  0  0  0  0
   -2.1046    1.1898    3.1754 C   0  0  0  0  0  0  0  0  0  0  0  0
   -1.2918    0.8151    3.8265 H   0  0  0  0  0  0  0  0  0  0  0  0
   -2.9760    0.5030    3.2463 H   0  0  0  0  0  0  0  0  0  0  0  0
   -2.4041    2.1865    3.5486 H   0  0  0  0  0  0  0  0  0  0  0  0
    1.2460   -2.3908    0.5306 C   0  0  0  0  0  0  0  0  0  0  0  0
    1.2320   -2.9763   -0.4167 H   0  0  0  0  0  0  0  0  0  0  0  0
    1.6207   -3.0708    1.3411 H   0  0  0  0  0  0  0  0  0  0  0  0
   -0.3618   -0.8970    1.7211 C   0  0  0  0  0  0  0  0  0  0  0  0
    0.6031   -0.6135    2.2016 H   0  0  0  0  0  0  0  0  0  0  0  0
   -1.0164   -1.2286    2.5576 H   0  0  0  0  0  0  0  0  0  0  0  0
   -0.1227   -1.9413    0.7496 N   0  0  0  0  0  0  0  0  0  0  0  0
   -1.0876   -3.0242    0.5265 C   0  0  0  0  0  0  0  0  0  0  0  0
   -0.6895   -3.9790    0.9599 H   0  0  0  0  0  0  0  0  0  0  0  0
   -1.1473   -3.1789   -0.5775 H   0  0  0  0  0  0  0  0  0  0  0  0
   -2.4881   -2.8783    1.1189 C   0  0  0  0  0  0  0  0  0  0  0  0
   -2.4667   -2.8740    2.2294 H   0  0  0  0  0  0  0  0  0  0  0  0
   -3.0507   -3.7912    0.8281 H   0  0  0  0  0  0  0  0  0  0  0  0
   -3.4935   -1.4080    0.7015 S   0  0  0  0  0  0  0  0  0  0  0  0
   -3.4596   -1.4316   -1.1164 C   0  0  0  0  0  0  0  0  0  0  0  0
   -3.9424   -2.3483   -1.5105 H   0  0  0  0  0  0  0  0  0  0  0  0
   -2.4253   -1.3456   -1.5161 H   0  0  0  0  0  0  0  0  0  0  0  0
   -4.0439   -0.5477   -1.4373 H   0  0  0  0  0  0  0  0  0  0  0  0
  1 12  1  0  0  0  0
  1  2  1  0  0  0  0
  2 35  1  1  0  0  0
  2  3  1  0  0  0  0
  3 14  1  0  0  0  0
  4  5  1  0  0  0  0
  6  7  1  0  0  0  0
  6  4  2  0  0  0  0
  8  6  1  0  0  0  0
  9  8  1  0  0  0  0
 10  8  2  0  0  0  0
 10 12  1  0  0  0  0
 11 10  1  0  0  0  0
 12 13  2  0  0  0  0
 13  4  1  0  0  0  0
 13  3  1  0  0  0  0
 14 16  1  0  0  0  0
 14 17  1  0  0  0  0
 15 14  1  0  0  0  0
 18 19  1  0  0  0  0
 19 38  1  1  0  0  0
 19 20  1  0  0  0  0
 20 31  1  0  0  0  0
 21 22  1  0  0  0  0
 23 24  1  0  0  0  0
 23 21  2  0  0  0  0
 25 23  1  0  0  0  0
 26 25  1  0  0  0  0
 27 25  2  0  0  0  0
 27 29  1  0  0  0  0
 28 27  1  0  0  0  0
 29 18  1  0  0  0  0
 29 30  2  0  0  0  0
 30 21  1  0  0  0  0
 30 20  1  0  0  0  0
 31 33  1  0  0  0  0
 31 34  1  0  0  0  0
 31 32  1  0  0  0  0
 35 41  1  0  0  0  0
 35 37  1  0  0  0  0
 36 35  1  0  0  0  0
 38 39  1  0  0  0  0
 38 40  1  0  0  0  0
 41 38  1  0  0  0  0
 42 41  1  0  0  0  0
 42 43  1  0  0  0  0
 42 45  1  0  0  0  0
 44 42  1  0  0  0  0
 45 46  1  0  0  0  0
 47 45  1  0  0  0  0
 48 45  1  0  0  0  0
 49 48  1  0  0  0  0
 50 49  1  0  0  0  0
 51 49  1  0  0  0  0
 52 49  1  0  0  0  0
M  END
