4,9
 OpenBabel05122313053D

 22 23  0  0  1  0  0  0  0  0999 V2000
    1.9789    1.1683    0.0031 C   0  0  2  0  0  0  0  0  0  0  0  0
    3.0784    2.2113    0.0059 C   0  0  0  0  0  0  0  0  0  0  0  0
    1.9942    0.3300    1.2035 N   0  0  0  0  0  0  0  0  0  0  0  0
    0.9041   -0.4190    1.4908 N   0  0  0  0  0  2  0  0  0  0  0  0
    1.1514   -1.0176    2.6650 C   0  0  0  0  0  3  0  0  0  0  0  0
    2.4238   -0.6410    3.1522 C   0  0  0  0  0  0  0  0  0  0  0  0
    2.9368    0.2219    2.1878 C   0  0  0  0  0  0  0  0  0  0  0  0
    1.9939    0.3367   -1.2019 N   0  0  0  0  0  0  0  0  0  0  0  0
    0.9040   -0.4109   -1.4932 N   0  0  0  0  0  2  0  0  0  0  0  0
    1.1512   -1.0030   -2.6706 C   0  0  0  0  0  3  0  0  0  0  0  0
    2.4234   -0.6235   -3.1560 C   0  0  0  0  0  0  0  0  0  0  0  0
    2.9364    0.2342   -2.1869 C   0  0  0  0  0  0  0  0  0  0  0  0
    0.9721    1.6693    0.0046 H   0  0  0  0  0  0  0  0  0  0  0  0
    2.9675    2.8519    0.9004 H   0  0  0  0  0  0  0  0  0  0  0  0
    4.0968    1.7736    0.0046 H   0  0  0  0  0  0  0  0  0  0  0  0
    2.9673    2.8570   -0.8848 H   0  0  0  0  0  0  0  0  0  0  0  0
    0.4001   -1.6875    3.0982 H   0  0  0  0  0  0  0  0  0  0  0  0
    2.9049   -0.9497    4.0852 H   0  0  0  0  0  0  0  0  0  0  0  0
    3.8838    0.7669    2.1396 H   0  0  0  0  0  0  0  0  0  0  0  0
    0.4000   -1.6708   -3.1074 H   0  0  0  0  0  0  0  0  0  0  0  0
    2.9044   -0.9271   -4.0908 H   0  0  0  0  0  0  0  0  0  0  0  0
    3.8833    0.7792   -2.1360 H   0  0  0  0  0  0  0  0  0  0  0  0
  1 13  1  1  0  0  0
  1  2  1  0  0  0  0
  1  3  1  0  0  0  0
  2 14  1  0  0  0  0
  3  4  1  0  0  0  0
  3  7  1  0  0  0  0
  4  5  1  0  0  0  0
  5 17  1  0  0  0  0
  5  6  1  0  0  0  0
  6 18  1  0  0  0  0
  7  6  2  0  0  0  0
  8  1  1  0  0  0  0
  9  8  1  0  0  0  0
 10  9  1  0  0  0  0
 11 10  1  0  0  0  0
 11 12  2  0  0  0  0
 12 22  1  0  0  0  0
 12  8  1  0  0  0  0
 15  2  1  0  0  0  0
 16  2  1  0  0  0  0
 19  7  1  0  0  0  0
 20 10  1  0  0  0  0
 21 11  1  0  0  0  0
M  END
