5,6
 OpenBabel05122313053D

 75 76  0  0  1  0  0  0  0  0999 V2000
   -1.2387    2.8374   -1.6626 C   0  0  0  0  0  0  0  0  0  0  0  0
   -1.3294    1.9250   -2.2855 H   0  0  0  0  0  0  0  0  0  0  0  0
   -0.2732    3.3260   -1.9008 H   0  0  0  0  0  0  0  0  0  0  0  0
   -2.0554    3.5346   -1.9427 H   0  0  0  0  0  0  0  0  0  0  0  0
    1.3131   -0.1694    0.4573 N   0  0  0  0  0  2  0  0  0  0  0  0
   -1.4380   -0.4319    0.4662 N   0  0  0  0  0  0  0  0  0  0  0  0
   -0.7280   -0.4398    1.8045 C   0  0  0  0  0  0  0  0  0  0  0  0
   -4.0267   -1.8749    0.4498 C   0  0  0  0  0  0  0  0  0  0  0  0
   -3.9071   -0.3544    0.3641 C   0  0  0  0  0  0  0  0  0  0  0  0
   -1.4184    0.4725    2.8294 C   0  0  0  0  0  0  0  0  0  0  0  0
   -1.3640    1.5378    2.5406 H   0  0  0  0  0  0  0  0  0  0  0  0
   -0.9562    0.3541    3.8270 H   0  0  0  0  0  0  0  0  0  0  0  0
   -2.4879    0.2027    2.9131 H   0  0  0  0  0  0  0  0  0  0  0  0
   -2.6589    0.3297    0.3173 C   0  0  0  0  0  0  0  0  0  0  0  0
    0.7603   -0.0843    1.6376 C   0  0  1  0  0  3  0  0  0  0  0  0
   -3.8243    2.4409    0.0259 C   0  0  0  0  0  0  0  0  0  0  0  0
   -3.7967    3.5294   -0.1340 H   0  0  0  0  0  0  0  0  0  0  0  0
   -1.3121    2.4805   -0.1652 C   0  0  0  0  0  0  0  0  0  0  0  0
    3.3406    1.2340    0.2040 C   0  0  0  0  0  0  0  0  0  0  0  0
   -2.6112    1.7328    0.1047 C   0  0  0  0  0  0  0  0  0  0  0  0
    4.7366    1.2901    0.0265 C   0  0  0  0  0  0  0  0  0  0  0  0
    5.2256    2.2728   -0.0564 H   0  0  0  0  0  0  0  0  0  0  0  0
   -0.7525   -1.9001    2.3216 C   0  0  0  0  0  0  0  0  0  0  0  0
   -1.7917   -2.1955    2.5677 H   0  0  0  0  0  0  0  0  0  0  0  0
   -0.1418   -2.0218    3.2366 H   0  0  0  0  0  0  0  0  0  0  0  0
   -0.3515   -2.5880    1.5497 H   0  0  0  0  0  0  0  0  0  0  0  0
   -5.0584    1.7891    0.1089 C   0  0  0  0  0  0  0  0  0  0  0  0
   -5.9955    2.3616    0.0384 H   0  0  0  0  0  0  0  0  0  0  0  0
    2.7373   -0.0427    0.3091 C   0  0  0  0  0  0  0  0  0  0  0  0
    3.4943   -1.2405    0.1984 C   0  0  0  0  0  0  0  0  0  0  0  0
   -5.0907    0.3988    0.2506 C   0  0  0  0  0  0  0  0  0  0  0  0
   -6.0606   -0.1203    0.2751 H   0  0  0  0  0  0  0  0  0  0  0  0
    1.5375    0.2755    2.8717 C   0  0  0  0  0  0  0  0  0  0  0  0
    2.6258    0.1831    2.7072 H   0  0  0  0  0  0  0  0  0  0  0  0
    1.2437   -0.3471    3.7390 H   0  0  0  0  0  0  0  0  0  0  0  0
    1.3228    1.3299    3.1490 H   0  0  0  0  0  0  0  0  0  0  0  0
    4.8845   -1.1267    0.0243 C   0  0  0  0  0  0  0  0  0  0  0  0
    5.4909   -2.0403   -0.0589 H   0  0  0  0  0  0  0  0  0  0  0  0
    2.8180   -2.6027    0.2891 C   0  0  0  0  0  0  0  0  0  0  0  0
    2.5257    2.5200    0.2244 C   0  0  0  0  0  0  0  0  0  0  0  0
    5.5074    0.1257   -0.0538 C   0  0  0  0  0  0  0  0  0  0  0  0
    6.5971    0.1927   -0.1907 H   0  0  0  0  0  0  0  0  0  0  0  0
   -4.9904   -2.3344    1.5557 C   0  0  0  0  0  0  0  0  0  0  0  0
   -4.7084   -1.9155    2.5437 H   0  0  0  0  0  0  0  0  0  0  0  0
   -4.9904   -3.4405    1.6351 H   0  0  0  0  0  0  0  0  0  0  0  0
   -6.0336   -2.0217    1.3468 H   0  0  0  0  0  0  0  0  0  0  0  0
    3.0051    3.5007    1.3068 C   0  0  0  0  0  0  0  0  0  0  0  0
    3.0187    3.0296    2.3104 H   0  0  0  0  0  0  0  0  0  0  0  0
    2.3382    4.3860    1.3524 H   0  0  0  0  0  0  0  0  0  0  0  0
    4.0302    3.8708    1.0993 H   0  0  0  0  0  0  0  0  0  0  0  0
    2.5239    3.1743   -1.1685 C   0  0  0  0  0  0  0  0  0  0  0  0
    3.5516    3.4536   -1.4795 H   0  0  0  0  0  0  0  0  0  0  0  0
    1.9089    4.0976   -1.1690 H   0  0  0  0  0  0  0  0  0  0  0  0
    2.1111    2.4838   -1.9299 H   0  0  0  0  0  0  0  0  0  0  0  0
    2.8019   -3.1125    1.7420 C   0  0  0  0  0  0  0  0  0  0  0  0
    3.8355   -3.2839    2.1088 H   0  0  0  0  0  0  0  0  0  0  0  0
    2.2493   -4.0717    1.8195 H   0  0  0  0  0  0  0  0  0  0  0  0
    2.3242   -2.3885    2.4307 H   0  0  0  0  0  0  0  0  0  0  0  0
    3.4322   -3.6495   -0.6493 C   0  0  0  0  0  0  0  0  0  0  0  0
    4.4569   -3.9415   -0.3387 H   0  0  0  0  0  0  0  0  0  0  0  0
    3.4825   -3.2758   -1.6910 H   0  0  0  0  0  0  0  0  0  0  0  0
    2.8166   -4.5715   -0.6466 H   0  0  0  0  0  0  0  0  0  0  0  0
   -1.1214    3.7240    0.7162 C   0  0  0  0  0  0  0  0  0  0  0  0
   -1.9028    4.4880    0.5258 H   0  0  0  0  0  0  0  0  0  0  0  0
   -0.1430    4.2017    0.5047 H   0  0  0  0  0  0  0  0  0  0  0  0
   -1.1534    3.4825    1.7988 H   0  0  0  0  0  0  0  0  0  0  0  0
   -4.3982   -2.4576   -0.9263 C   0  0  0  0  0  0  0  0  0  0  0  0
   -4.4435   -3.5656   -0.8851 H   0  0  0  0  0  0  0  0  0  0  0  0
   -3.6531   -2.1590   -1.6918 H   0  0  0  0  0  0  0  0  0  0  0  0
   -5.3920   -2.0869   -1.2521 H   0  0  0  0  0  0  0  0  0  0  0  0
   -3.0390   -2.3041    0.7208 H   0  0  0  0  0  0  0  0  0  0  0  0
   -1.6780   -1.4066    0.2541 H   0  0  0  0  0  0  0  0  0  0  0  0
   -0.4744    1.7812    0.0320 H   0  0  0  0  0  0  0  0  0  0  0  0
    1.7644   -2.4522   -0.0354 H   0  0  0  0  0  0  0  0  0  0  0  0
    1.4772    2.2510    0.4578 H   0  0  0  0  0  0  0  0  0  0  0  0
  1 18  1  0  0  0  0
  2  1  1  0  0  0  0
  3  1  1  0  0  0  0
  4  1  1  0  0  0  0
  6  7  1  0  0  0  0
  7 23  1  0  0  0  0
  7 10  1  0  0  0  0
  8 71  1  0  0  0  0
  8 43  1  0  0  0  0
  9  8  1  0  0  0  0
 10 13  1  0  0  0  0
 10 12  1  0  0  0  0
 11 10  1  0  0  0  0
 14  9  1  0  0  0  0
 14  6  1  0  0  0  0
 15  5  1  1  0  0  0
 15  7  1  0  0  0  0
 15 33  1  0  0  0  0
 16 20  1  0  0  0  0
 16 27  2  0  0  0  0
 17 16  1  0  0  0  0
 18 73  1  0  0  0  0
 18 20  1  0  0  0  0
 18 63  1  0  0  0  0
 19 40  1  0  0  0  0
 19 29  1  0  0  0  0
 20 14  2  0  0  0  0
 21 19  2  0  0  0  0
 22 21  1  0  0  0  0
 23 24  1  0  0  0  0
 23 25  1  0  0  0  0
 26 23  1  0  0  0  0
 27 31  1  0  0  0  0
 28 27  1  0  0  0  0
 29  5  1  0  0  0  0
 30 39  1  0  0  0  0
 30 29  2  0  0  0  0
 31 32  1  0  0  0  0
 31  9  2  0  0  0  0
 33 36  1  0  0  0  0
 33 35  1  0  0  0  0
 34 33  1  0  0  0  0
 37 30  1  0  0  0  0
 38 37  1  0  0  0  0
 39 55  1  0  0  0  0
 40 75  1  0  0  0  0
 40 47  1  0  0  0  0
 41 37  2  0  0  0  0
 41 21  1  0  0  0  0
 42 41  1  0  0  0  0
 43 45  1  0  0  0  0
 43 44  1  0  0  0  0
 46 43  1  0  0  0  0
 47 49  1  0  0  0  0
 47 48  1  0  0  0  0
 50 47  1  0  0  0  0
 51 40  1  0  0  0  0
 52 51  1  0  0  0  0
 53 51  1  0  0  0  0
 54 51  1  0  0  0  0
 55 57  1  0  0  0  0
 55 56  1  0  0  0  0
 55 58  1  0  0  0  0
 59 62  1  0  0  0  0
 59 60  1  0  0  0  0
 59 39  1  0  0  0  0
 61 59  1  0  0  0  0
 63 66  1  0  0  0  0
 64 63  1  0  0  0  0
 65 63  1  0  0  0  0
 67 68  1  0  0  0  0
 67  8  1  0  0  0  0
 69 67  1  0  0  0  0
 70 67  1  0  0  0  0
 72  6  1  0  0  0  0
 74 39  1  0  0  0  0
M  END
