2,7
 OpenBabel05122313053D

 31 32  0  0  1  0  0  0  0  0999 V2000
   -1.5908   -1.0415   -1.2978 S   0  0  0  0  0  0  0  0  0  0  0  0
    2.6897    0.0720    0.2636 N   0  0  0  0  0  2  0  0  0  0  0  0
   -5.1202   -0.6772    0.2907 O   0  0  0  0  0  0  0  0  0  0  0  0
   -1.0172    1.4108   -0.2124 N   0  0  0  0  0  2  0  0  0  0  0  0
   -3.9628   -0.5896   -0.0721 C   0  0  0  0  0  0  0  0  0  0  0  0
   -1.9033    0.4876   -0.4498 C   0  0  2  0  0  3  0  0  0  0  0  0
    0.2683    0.9655   -0.3404 N   0  0  0  0  0  2  0  0  0  0  0  0
    0.9304    3.2172   -0.1398 N   0  0  0  0  0  0  0  0  0  0  0  0
   -0.0747    3.4146   -0.0618 H   0  0  0  0  0  0  0  0  0  0  0  0
    1.5569    3.8223    0.3913 H   0  0  0  0  0  0  0  0  0  0  0  0
   -3.2130    0.5967   -0.0335 N   0  0  0  0  0  0  0  0  0  0  0  0
   -3.7200    1.7969    0.6298 C   0  0  0  0  0  0  0  0  0  0  0  0
   -2.9661    2.0923    1.3879 H   0  0  0  0  0  0  0  0  0  0  0  0
   -4.6442    1.4751    1.1487 H   0  0  0  0  0  0  0  0  0  0  0  0
    2.5864    1.3785   -0.0687 C   0  0  1  0  0  3  0  0  0  0  0  0
   -3.0888   -1.7491   -0.5364 C   0  0  0  0  0  0  0  0  0  0  0  0
   -3.6306   -2.4099   -1.2363 H   0  0  0  0  0  0  0  0  0  0  0  0
   -2.7655   -2.3146    0.3661 H   0  0  0  0  0  0  0  0  0  0  0  0
    3.7251    2.1715   -0.3043 C   0  0  0  0  0  0  0  0  0  0  0  0
    3.6188    3.2204   -0.6164 H   0  0  0  0  0  0  0  0  0  0  0  0
    5.0799    0.2168    0.1471 C   0  0  0  0  0  0  0  0  0  0  0  0
    6.0535   -0.2849    0.2390 H   0  0  0  0  0  0  0  0  0  0  0  0
    1.2005    1.8815   -0.1810 C   0  0  2  0  0  3  0  0  0  0  0  0
   -4.0016    2.9366   -0.3449 C   0  0  0  0  0  0  0  0  0  0  0  0
   -4.3832    3.8192    0.2058 H   0  0  0  0  0  0  0  0  0  0  0  0
   -4.7647    2.6422   -1.0922 H   0  0  0  0  0  0  0  0  0  0  0  0
   -3.0806    3.2368   -0.8827 H   0  0  0  0  0  0  0  0  0  0  0  0
    4.9888    1.5782   -0.1790 C   0  0  0  0  0  0  0  0  0  0  0  0
    5.8978    2.1719   -0.3579 H   0  0  0  0  0  0  0  0  0  0  0  0
    3.8942   -0.5085    0.3415 C   0  0  0  0  0  0  0  0  0  0  0  0
    3.8805   -1.5936    0.5363 H   0  0  0  0  0  0  0  0  0  0  0  0
  1 16  1  0  0  0  0
  1  6  1  0  0  0  0
  2 30  1  0  0  0  0
  5 11  1  0  0  0  0
  5  3  2  0  0  0  0
  6  4  1  1  0  0  0
  6 11  1  0  0  0  0
  7  4  1  0  0  0  0
  8  9  1  0  0  0  0
  8 10  1  0  0  0  0
 11 12  1  0  0  0  0
 12 14  1  0  0  0  0
 12 13  1  0  0  0  0
 15 23  1  6  0  0  0
 15  2  1  0  0  0  0
 16  5  1  0  0  0  0
 16 18  1  0  0  0  0
 17 16  1  0  0  0  0
 19 28  2  0  0  0  0
 19 15  1  0  0  0  0
 20 19  1  0  0  0  0
 21 22  1  0  0  0  0
 21 30  2  0  0  0  0
 23  7  1  6  0  0  0
 23  8  1  0  0  0  0
 24 25  1  0  0  0  0
 24 12  1  0  0  0  0
 26 24  1  0  0  0  0
 27 24  1  0  0  0  0
 28 21  1  0  0  0  0
 29 28  1  0  0  0  0
 30 31  1  0  0  0  0
M  END
