2,6
 OpenBabel05122313053D

 28 29  0  0  1  0  0  0  0  0999 V2000
   -1.8356   -0.7558   -1.3289 S   0  0  0  0  0  0  0  0  0  0  0  0
    2.5272   -0.0727    0.2812 N   0  0  0  0  0  2  0  0  0  0  0  0
   -0.9989    1.6479   -0.3028 N   0  0  0  0  0  2  0  0  0  0  0  0
   -5.3143    0.0554    0.2110 O   0  0  0  0  0  0  0  0  0  0  0  0
   -3.2697    1.0919   -0.1285 N   0  0  0  0  0  0  0  0  0  0  0  0
    0.2301    1.0585   -0.3993 N   0  0  0  0  0  2  0  0  0  0  0  0
   -3.4169   -1.2635   -0.5752 C   0  0  0  0  0  0  0  0  0  0  0  0
   -4.0254   -1.8696   -1.2699 H   0  0  0  0  0  0  0  0  0  0  0  0
   -3.1754   -1.8450    0.3425 H   0  0  0  0  0  0  0  0  0  0  0  0
    1.1368    3.2283   -0.2865 N   0  0  0  0  0  0  0  0  0  0  0  0
    0.1581    3.5370   -0.2357 H   0  0  0  0  0  0  0  0  0  0  0  0
    1.8192    3.7850    0.2284 H   0  0  0  0  0  0  0  0  0  0  0  0
    1.2576    1.8707   -0.2655 C   0  0  2  0  0  3  0  0  0  0  0  0
    2.5764    1.2210   -0.1094 C   0  0  2  0  0  3  0  0  0  0  0  0
   -1.9785    0.8214   -0.5259 C   0  0  2  0  0  3  0  0  0  0  0  0
   -4.1527   -0.0007   -0.1438 C   0  0  0  0  0  0  0  0  0  0  0  0
    4.9198   -0.2031    0.1973 C   0  0  0  0  0  0  0  0  0  0  0  0
    5.8292   -0.8067    0.3265 H   0  0  0  0  0  0  0  0  0  0  0  0
    3.6574   -0.7809    0.4035 C   0  0  0  0  0  0  0  0  0  0  0  0
    3.5190   -1.8478    0.6448 H   0  0  0  0  0  0  0  0  0  0  0  0
    3.8000    1.8694   -0.3606 C   0  0  0  0  0  0  0  0  0  0  0  0
    3.8166    2.9084   -0.7197 H   0  0  0  0  0  0  0  0  0  0  0  0
    4.9870    1.1438   -0.1890 C   0  0  0  0  0  0  0  0  0  0  0  0
    5.9593    1.6228   -0.3787 H   0  0  0  0  0  0  0  0  0  0  0  0
   -3.6186    2.3354    0.5350 C   0  0  0  0  0  0  0  0  0  0  0  0
   -4.6856    2.2619    0.8151 H   0  0  0  0  0  0  0  0  0  0  0  0
   -3.4579    3.1953   -0.1435 H   0  0  0  0  0  0  0  0  0  0  0  0
   -2.9884    2.4645    1.4376 H   0  0  0  0  0  0  0  0  0  0  0  0
  1  7  1  0  0  0  0
  1 15  1  0  0  0  0
  2 19  1  0  0  0  0
  5 25  1  0  0  0  0
  6  3  1  0  0  0  0
  7 16  1  0  0  0  0
  7  9  1  0  0  0  0
  8  7  1  0  0  0  0
 10 13  1  0  0  0  0
 10 11  1  0  0  0  0
 10 12  1  0  0  0  0
 13  6  1  6  0  0  0
 14 13  1  6  0  0  0
 14  2  1  0  0  0  0
 15  3  1  1  0  0  0
 15  5  1  0  0  0  0
 16  5  1  0  0  0  0
 16  4  2  0  0  0  0
 17 18  1  0  0  0  0
 17 19  2  0  0  0  0
 19 20  1  0  0  0  0
 21 23  2  0  0  0  0
 21 14  1  0  0  0  0
 22 21  1  0  0  0  0
 23 17  1  0  0  0  0
 24 23  1  0  0  0  0
 25 26  1  0  0  0  0
 25 28  1  0  0  0  0
 27 25  1  0  0  0  0
M  END
