1,26
 OpenBabel05122313053D

 48 49  0  0  0  0  0  0  0  0999 V2000
    1.4026    0.0011    1.0142 N   0  0  0  0  0  2  0  0  0  0  0  0
    1.2269    0.0006    2.3338 C   0  0  0  0  0  3  0  0  0  0  0  0
    2.1499    0.0018    2.9469 H   0  0  0  0  0  0  0  0  0  0  0  0
   -0.0000   -0.0014    3.0097 C   0  0  0  0  0  0  0  0  0  0  0  0
   -0.0001   -0.0019    4.1064 H   0  0  0  0  0  0  0  0  0  0  0  0
    2.7685    0.0025    0.5954 C   0  0  0  0  0  0  0  0  0  0  0  0
    3.4365    1.2334    0.3908 C   0  0  0  0  0  0  0  0  0  0  0  0
    4.7683    1.2088   -0.0653 C   0  0  0  0  0  0  0  0  0  0  0  0
    5.2882    2.1660   -0.2359 H   0  0  0  0  0  0  0  0  0  0  0  0
    5.4514    0.0033   -0.3065 C   0  0  0  0  0  0  0  0  0  0  0  0
    4.7678   -1.2049   -0.0660 C   0  0  0  0  0  0  0  0  0  0  0  0
    5.2875   -2.1625   -0.2367 H   0  0  0  0  0  0  0  0  0  0  0  0
    3.4383   -1.2300    0.3894 C   0  0  0  0  0  0  0  0  0  0  0  0
    2.7239    2.5305    0.6724 C   0  0  0  0  0  0  0  0  0  0  0  0
    1.6849    2.5044    0.2838 H   0  0  0  0  0  0  0  0  0  0  0  0
    3.2615    3.3934    0.2341 H   0  0  0  0  0  0  0  0  0  0  0  0
    2.6327    2.7075    1.7653 H   0  0  0  0  0  0  0  0  0  0  0  0
    6.8820   -0.0050   -0.7863 C   0  0  0  0  0  0  0  0  0  0  0  0
    7.2207    1.0076   -1.0797 H   0  0  0  0  0  0  0  0  0  0  0  0
    7.0150   -0.6762   -1.6596 H   0  0  0  0  0  0  0  0  0  0  0  0
    7.5705   -0.3709    0.0053 H   0  0  0  0  0  0  0  0  0  0  0  0
    2.7246   -2.5264    0.6717 C   0  0  0  0  0  0  0  0  0  0  0  0
    2.6266   -2.6985    1.7648 H   0  0  0  0  0  0  0  0  0  0  0  0
    3.2653   -3.3907    0.2402 H   0  0  0  0  0  0  0  0  0  0  0  0
    1.6879   -2.5024    0.2768 H   0  0  0  0  0  0  0  0  0  0  0  0
   -1.4026   -0.0021    1.0142 N   0  0  0  0  0  2  0  0  0  0  0  0
   -1.2269   -0.0028    2.3337 C   0  0  0  0  0  0  0  0  0  0  0  0
   -2.1500   -0.0046    2.9468 H   0  0  0  0  0  0  0  0  0  0  0  0
   -2.7685   -0.0032    0.5953 C   0  0  0  0  0  0  0  0  0  0  0  0
   -3.4365   -1.2339    0.3896 C   0  0  0  0  0  0  0  0  0  0  0  0
   -4.7682   -1.2089   -0.0665 C   0  0  0  0  0  0  0  0  0  0  0  0
   -5.2881   -2.1660   -0.2380 H   0  0  0  0  0  0  0  0  0  0  0  0
   -5.4515   -0.0032   -0.3065 C   0  0  0  0  0  0  0  0  0  0  0  0
   -4.7679    1.2048   -0.0649 C   0  0  0  0  0  0  0  0  0  0  0  0
   -5.2876    2.1625   -0.2346 H   0  0  0  0  0  0  0  0  0  0  0  0
   -3.4384    1.2294    0.3905 C   0  0  0  0  0  0  0  0  0  0  0  0
   -2.7238   -2.5313    0.6699 C   0  0  0  0  0  0  0  0  0  0  0  0
   -1.6847   -2.5047    0.2813 H   0  0  0  0  0  0  0  0  0  0  0  0
   -3.2613   -3.3937    0.2306 H   0  0  0  0  0  0  0  0  0  0  0  0
   -2.6327   -2.7094    1.7626 H   0  0  0  0  0  0  0  0  0  0  0  0
   -6.8821    0.0054   -0.7862 C   0  0  0  0  0  0  0  0  0  0  0  0
   -7.2207   -1.0069   -1.0807 H   0  0  0  0  0  0  0  0  0  0  0  0
   -7.0151    0.6776   -1.6588 H   0  0  0  0  0  0  0  0  0  0  0  0
   -7.5706    0.3704    0.0057 H   0  0  0  0  0  0  0  0  0  0  0  0
   -2.7248    2.5256    0.6741 C   0  0  0  0  0  0  0  0  0  0  0  0
   -2.6267    2.6967    1.7673 H   0  0  0  0  0  0  0  0  0  0  0  0
   -3.2655    3.3903    0.2434 H   0  0  0  0  0  0  0  0  0  0  0  0
   -1.6881    2.5020    0.2792 H   0  0  0  0  0  0  0  0  0  0  0  0
  1  2  1  0  0  0  0
  2  3  1  0  0  0  0
  2  4  1  0  0  0  0
  4  5  1  0  0  0  0
  6  1  1  0  0  0  0
  7  6  1  0  0  0  0
  7 14  1  0  0  0  0
  8  7  2  0  0  0  0
  9  8  1  0  0  0  0
 10 11  2  0  0  0  0
 10  8  1  0  0  0  0
 11 13  1  0  0  0  0
 12 11  1  0  0  0  0
 13  6  2  0  0  0  0
 13 22  1  0  0  0  0
 14 17  1  0  0  0  0
 15 14  1  0  0  0  0
 16 14  1  0  0  0  0
 18 10  1  0  0  0  0
 18 21  1  0  0  0  0
 19 18  1  0  0  0  0
 20 18  1  0  0  0  0
 22 23  1  0  0  0  0
 24 22  1  0  0  0  0
 25 22  1  0  0  0  0
 26 27  1  0  0  0  0
 27 28  1  0  0  0  0
 27  4  2  0  0  0  0
 29 26  1  0  0  0  0
 30 29  2  0  0  0  0
 30 37  1  0  0  0  0
 31 30  1  0  0  0  0
 32 31  1  0  0  0  0
 33 31  2  0  0  0  0
 33 34  1  0  0  0  0
 34 36  2  0  0  0  0
 35 34  1  0  0  0  0
 36 29  1  0  0  0  0
 36 45  1  0  0  0  0
 37 40  1  0  0  0  0
 38 37  1  0  0  0  0
 39 37  1  0  0  0  0
 41 33  1  0  0  0  0
 41 44  1  0  0  0  0
 42 41  1  0  0  0  0
 43 41  1  0  0  0  0
 45 46  1  0  0  0  0
 47 45  1  0  0  0  0
 48 45  1  0  0  0  0
M  END
