1,2
 OpenBabel05122313053D

 25 25  0  0  0  0  0  0  0  0999 V2000
    0.7384   -1.5528   -0.6954 N   0  0  0  0  0  0  0  0  0  0  0  0
    0.8593    1.2159   -1.0329 N   0  0  0  0  0  0  0  0  0  0  0  0
    1.9583    0.3385    1.8104 N   0  3  0  0  0  0  0  0  0  0  0  0
    1.3170   -1.0555    1.7564 C   0  0  0  0  0  0  0  0  0  0  0  0
    0.2272   -0.9337    1.9345 H   0  0  0  0  0  0  0  0  0  0  0  0
    1.7662   -1.6008    2.6108 H   0  0  0  0  0  0  0  0  0  0  0  0
    1.1462    1.5917    1.4584 C   0  0  0  0  0  0  0  0  0  0  0  0
    1.4947    2.3734    2.1628 H   0  0  0  0  0  0  0  0  0  0  0  0
    0.0799    1.3616    1.6674 H   0  0  0  0  0  0  0  0  0  0  0  0
    1.5519   -1.8961    0.5030 C   0  0  0  0  0  0  0  0  0  0  0  0
    2.6314   -1.9328    0.2337 H   0  0  0  0  0  0  0  0  0  0  0  0
    1.2848   -2.9261    0.8135 H   0  0  0  0  0  0  0  0  0  0  0  0
    1.2758    2.1458    0.0435 C   0  0  0  0  0  0  0  0  0  0  0  0
    0.5630    2.9952    0.0334 H   0  0  0  0  0  0  0  0  0  0  0  0
    2.2932    2.5510   -0.1564 H   0  0  0  0  0  0  0  0  0  0  0  0
    1.9638    0.3767   -1.5932 C   0  0  0  0  0  0  0  0  0  0  0  0
    2.7966    0.3609   -0.8576 H   0  0  0  0  0  0  0  0  0  0  0  0
    2.3911    0.8320   -2.5106 H   0  0  0  0  0  0  0  0  0  0  0  0
    1.4877   -1.0449   -1.8719 C   0  0  0  0  0  0  0  0  0  0  0  0
    0.7853   -1.0560   -2.7284 H   0  0  0  0  0  0  0  0  0  0  0  0
    2.3511   -1.6980   -2.1331 H   0  0  0  0  0  0  0  0  0  0  0  0
    0.1654   -2.3706   -0.9543 H   0  0  0  0  0  0  0  0  0  0  0  0
    0.4135    1.7653   -1.7824 H   0  0  0  0  0  0  0  0  0  0  0  0
    2.8510    0.3330    1.2821 H   0  0  0  0  0  0  0  0  0  0  0  0
    2.2481    0.4665    2.7949 H   0  0  0  0  0  0  0  0  0  0  0  0
  1 10  1  0  0  0  0
  2 13  1  0  0  0  0
  3 25  1  0  0  0  0
  4  3  1  0  0  0  0
  4  5  1  0  0  0  0
  4  6  1  0  0  0  0
  7  9  1  0  0  0  0
  7  3  1  0  0  0  0
  7  8  1  0  0  0  0
 10 12  1  0  0  0  0
 10  4  1  0  0  0  0
 11 10  1  0  0  0  0
 13  7  1  0  0  0  0
 14 13  1  0  0  0  0
 15 13  1  0  0  0  0
 16  2  1  0  0  0  0
 16 17  1  0  0  0  0
 18 16  1  0  0  0  0
 19 16  1  0  0  0  0
 19  1  1  0  0  0  0
 20 19  1  0  0  0  0
 21 19  1  0  0  0  0
 22  1  1  0  0  0  0
 23  2  1  0  0  0  0
 24  3  1  0  0  0  0
M  CHG  1   3   1
M  END
