1,2
 OpenBabel05122313053D

 43 45  0  0  0  0  0  0  0  0999 V2000
   -2.3457    0.8926    0.0541 N   0  0  0  0  0  2  0  0  0  0  0  0
    0.0850   -0.0412    0.0827 N   0  0  0  0  0  2  0  0  0  0  0  0
   -3.6376    1.2745    0.0852 C   0  0  0  0  0  0  0  0  0  0  0  0
   -4.3598    0.4428    0.0022 H   0  0  0  0  0  0  0  0  0  0  0  0
   -4.0027    2.6195    0.2168 C   0  0  0  0  0  0  0  0  0  0  0  0
   -5.0684    2.8881    0.2380 H   0  0  0  0  0  0  0  0  0  0  0  0
   -2.9995    3.5944    0.3316 C   0  0  0  0  0  0  0  0  0  0  0  0
   -3.2578    4.6565    0.4534 H   0  0  0  0  0  0  0  0  0  0  0  0
   -1.6583    3.1949    0.2957 C   0  0  0  0  0  0  0  0  0  0  0  0
   -0.8432    3.9238    0.3955 H   0  0  0  0  0  0  0  0  0  0  0  0
   -1.3490    1.8305    0.1417 C   0  0  0  0  0  0  0  0  0  0  0  0
    0.0112    1.2773    0.1118 C   0  0  0  0  0  0  0  0  0  0  0  0
    1.1979    2.1706    0.1068 C   0  0  0  0  0  0  0  0  0  0  0  0
    1.3208    3.1605   -0.8952 C   0  0  0  0  0  0  0  0  0  0  0  0
    0.5377    3.2590   -1.6625 H   0  0  0  0  0  0  0  0  0  0  0  0
    2.4470    3.9944   -0.9351 C   0  0  0  0  0  0  0  0  0  0  0  0
    2.5374    4.7511   -1.7288 H   0  0  0  0  0  0  0  0  0  0  0  0
    3.4570    3.8583    0.0298 C   0  0  0  0  0  0  0  0  0  0  0  0
    4.3406    4.5134   -0.0009 H   0  0  0  0  0  0  0  0  0  0  0  0
    3.3374    2.8838    1.0339 C   0  0  0  0  0  0  0  0  0  0  0  0
    4.1246    2.7748    1.7946 H   0  0  0  0  0  0  0  0  0  0  0  0
    2.2197    2.0409    1.0723 C   0  0  0  0  0  0  0  0  0  0  0  0
    2.1333    1.2790    1.8580 H   0  0  0  0  0  0  0  0  0  0  0  0
    1.3468   -0.7100    0.0268 C   0  0  0  0  0  0  0  0  0  0  0  0
    2.0285   -0.7884   -1.2081 C   0  0  0  0  0  0  0  0  0  0  0  0
    3.2683   -1.4502   -1.2279 C   0  0  0  0  0  0  0  0  0  0  0  0
    3.8109   -1.5189   -2.1846 H   0  0  0  0  0  0  0  0  0  0  0  0
    3.8232   -2.0352   -0.0766 C   0  0  0  0  0  0  0  0  0  0  0  0
    3.0877   -1.9680    1.1223 C   0  0  0  0  0  0  0  0  0  0  0  0
    3.4911   -2.4417    2.0320 H   0  0  0  0  0  0  0  0  0  0  0  0
    1.8392   -1.3326    1.1982 C   0  0  0  0  0  0  0  0  0  0  0  0
    1.4194   -0.2248   -2.4634 C   0  0  0  0  0  0  0  0  0  0  0  0
    2.0054   -0.5207   -3.3537 H   0  0  0  0  0  0  0  0  0  0  0  0
    1.3760    0.8844   -2.4443 H   0  0  0  0  0  0  0  0  0  0  0  0
    0.3798   -0.5936   -2.5917 H   0  0  0  0  0  0  0  0  0  0  0  0
    5.1431   -2.7622   -0.1293 C   0  0  0  0  0  0  0  0  0  0  0  0
    5.7264   -2.4881   -1.0297 H   0  0  0  0  0  0  0  0  0  0  0  0
    4.9886   -3.8623   -0.1567 H   0  0  0  0  0  0  0  0  0  0  0  0
    5.7635   -2.5469    0.7639 H   0  0  0  0  0  0  0  0  0  0  0  0
    1.0271   -1.3408    2.4642 C   0  0  0  0  0  0  0  0  0  0  0  0
    0.1347   -1.9871    2.3160 H   0  0  0  0  0  0  0  0  0  0  0  0
    0.6482   -0.3340    2.7385 H   0  0  0  0  0  0  0  0  0  0  0  0
    1.6126   -1.7370    3.3150 H   0  0  0  0  0  0  0  0  0  0  0  0
  1  3  1  0  0  0  0
  1 11  1  0  0  0  0
  2 12  1  0  0  0  0
  3  5  2  0  0  0  0
  4  3  1  0  0  0  0
  5  6  1  0  0  0  0
  5  7  1  0  0  0  0
  7  8  1  0  0  0  0
  9  7  2  0  0  0  0
  9 10  1  0  0  0  0
 11  9  1  0  0  0  0
 12 11  2  0  0  0  0
 13 12  1  0  0  0  0
 13 22  1  0  0  0  0
 14 13  2  0  0  0  0
 15 14  1  0  0  0  0
 16 14  1  0  0  0  0
 16 18  2  0  0  0  0
 17 16  1  0  0  0  0
 18 20  1  0  0  0  0
 19 18  1  0  0  0  0
 20 22  2  0  0  0  0
 20 21  1  0  0  0  0
 22 23  1  0  0  0  0
 24  2  1  0  0  0  0
 24 31  1  0  0  0  0
 25 24  2  0  0  0  0
 26 25  1  0  0  0  0
 26 28  2  0  0  0  0
 27 26  1  0  0  0  0
 28 29  1  0  0  0  0
 29 31  2  0  0  0  0
 29 30  1  0  0  0  0
 31 40  1  0  0  0  0
 32 34  1  0  0  0  0
 32 25  1  0  0  0  0
 33 32  1  0  0  0  0
 35 32  1  0  0  0  0
 36 28  1  0  0  0  0
 36 39  1  0  0  0  0
 37 36  1  0  0  0  0
 38 36  1  0  0  0  0
 40 42  1  0  0  0  0
 40 43  1  0  0  0  0
 41 40  1  0  0  0  0
M  END
