1,6
 OpenBabel05122313053D

 16 16  0  0  1  0  0  0  0  0999 V2000
   -0.8032    0.9890   -1.4596 N   0  0  0  0  0  2  0  0  0  0  0  0
   -0.2737    1.5089   -2.1696 H   0  0  0  0  0  0  0  0  0  0  0  0
   -2.7344    2.1212   -2.2294 N   0  0  0  0  0  0  0  0  0  0  0  0
   -2.2446    2.6183   -2.9729 H   0  0  0  0  0  0  0  0  0  0  0  0
   -3.7031    2.3816   -2.0561 H   0  0  0  0  0  0  0  0  0  0  0  0
   -2.1419   -0.1038    0.5501 N   0  0  0  0  0  2  0  0  0  0  0  0
   -2.0785    1.2635   -1.4133 C   0  0  1  0  0  3  0  0  0  0  0  0
   -2.8846    0.5235   -0.3834 C   0  0  1  0  0  3  0  0  0  0  0  0
   -4.2849    0.4161   -0.4086 C   0  0  0  0  0  0  0  0  0  0  0  0
   -4.8859    0.8845   -1.2014 H   0  0  0  0  0  0  0  0  0  0  0  0
   -4.9155   -0.3535    0.5811 C   0  0  0  0  0  0  0  0  0  0  0  0
   -6.0105   -0.4576    0.5858 H   0  0  0  0  0  0  0  0  0  0  0  0
   -4.1316   -1.0095    1.5395 C   0  0  0  0  0  0  0  0  0  0  0  0
   -4.5883   -1.6370    2.3179 H   0  0  0  0  0  0  0  0  0  0  0  0
   -2.7367   -0.8718    1.4730 C   0  0  0  0  0  0  0  0  0  0  0  0
   -2.0638   -1.4134    2.1570 H   0  0  0  0  0  0  0  0  0  0  0  0
  2  1  1  0  0  0  0
  3  5  1  0  0  0  0
  3  7  1  0  0  0  0
  4  3  1  0  0  0  0
  6 15  1  0  0  0  0
  7  1  1  6  0  0  0
  8  7  1  6  0  0  0
  8  6  1  0  0  0  0
  9  8  1  0  0  0  0
  9 11  2  0  0  0  0
 10  9  1  0  0  0  0
 11 12  1  0  0  0  0
 11 13  1  0  0  0  0
 13 14  1  0  0  0  0
 15 13  2  0  0  0  0
 15 16  1  0  0  0  0
M  END
