2,3
 OpenBabel05122313053D

 63 65  0  0  1  0  0  0  0  0999 V2000
   -4.9350    0.8898   -0.0616 O   0  0  0  0  0  0  0  0  0  0  0  0
    2.4471    0.1054    1.4393 N   0  0  0  0  0  2  0  0  0  0  0  0
    2.3544    0.3062   -1.3485 N   0  0  0  0  0  2  0  0  0  0  0  0
    0.5732   -0.3662   -2.4747 N   0  0  0  0  0  0  0  0  0  0  0  0
    0.5346   -0.0217    2.5366 N   0  0  0  0  0  0  0  0  0  0  0  0
    2.5518    0.6070   -2.6734 C   0  0  0  0  0  0  0  0  0  0  0  0
    1.4505    0.1963   -3.3900 C   0  0  0  0  0  0  0  0  0  0  0  0
   -0.7174   -0.9196   -2.8638 C   0  0  0  0  0  0  0  0  0  0  0  0
    1.1566   -0.2707   -1.2257 C   0  0  1  0  0  3  0  0  0  0  0  0
    0.5175   -0.8196    0.0609 C   0  0  1  0  0  0  0  0  0  0  0  0
    0.7691   -2.3512    0.1096 C   0  0  0  0  0  0  0  0  0  0  0  0
    2.6716    0.5505    2.7162 C   0  0  0  0  0  0  0  0  0  0  0  0
    1.4890    0.4708    3.4171 C   0  0  0  0  0  0  0  0  0  0  0  0
   -0.8366   -0.2943    2.9547 C   0  0  0  0  0  0  0  0  0  0  0  0
    1.1584   -0.2171    1.3176 C   0  0  2  0  0  3  0  0  0  0  0  0
   -0.9695   -0.4236    0.0314 C   0  0  0  0  0  0  0  0  0  0  0  0
   -2.0099   -1.3518    0.1203 C   0  0  0  0  0  0  0  0  0  0  0  0
   -3.3637   -0.9644    0.0958 C   0  0  0  0  0  0  0  0  0  0  0  0
   -3.6494    0.4259   -0.0279 C   0  0  0  0  0  0  0  0  0  0  0  0
   -2.6138    1.4042   -0.1257 C   0  0  0  0  0  0  0  0  0  0  0  0
   -1.2911    0.9383   -0.0928 C   0  0  0  0  0  0  0  0  0  0  0  0
   -4.4895   -2.0203    0.1989 C   0  0  0  0  0  0  0  0  0  0  0  0
   -5.3479   -1.7744    1.4674 C   0  0  0  0  0  0  0  0  0  0  0  0
   -5.3646   -2.0061   -1.0818 C   0  0  0  0  0  0  0  0  0  0  0  0
   -3.9241   -3.4483    0.3250 C   0  0  0  0  0  0  0  0  0  0  0  0
   -2.9235    2.9092   -0.2620 C   0  0  0  0  0  0  0  0  0  0  0  0
   -3.7148    3.3973    0.9753 C   0  0  0  0  0  0  0  0  0  0  0  0
   -3.7321    3.1645   -1.5565 C   0  0  0  0  0  0  0  0  0  0  0  0
   -1.6331    3.7463   -0.3477 C   0  0  0  0  0  0  0  0  0  0  0  0
   -5.5451    0.1338    0.0097 H   0  0  0  0  0  0  0  0  0  0  0  0
    3.4766    1.0843   -3.0152 H   0  0  0  0  0  0  0  0  0  0  0  0
    1.2065    0.2425   -4.4558 H   0  0  0  0  0  0  0  0  0  0  0  0
   -0.8804   -1.9066   -2.3966 H   0  0  0  0  0  0  0  0  0  0  0  0
   -1.5502   -0.2512   -2.5703 H   0  0  0  0  0  0  0  0  0  0  0  0
   -0.7184   -1.0473   -3.9616 H   0  0  0  0  0  0  0  0  0  0  0  0
    1.8651   -2.5340    0.0764 H   0  0  0  0  0  0  0  0  0  0  0  0
    0.3536   -2.7911    1.0382 H   0  0  0  0  0  0  0  0  0  0  0  0
    0.3075   -2.8641   -0.7578 H   0  0  0  0  0  0  0  0  0  0  0  0
   -1.7632   -2.4151    0.2137 H   0  0  0  0  0  0  0  0  0  0  0  0
   -0.4642    1.6578   -0.1641 H   0  0  0  0  0  0  0  0  0  0  0  0
   -1.1252   -1.3334    2.7150 H   0  0  0  0  0  0  0  0  0  0  0  0
   -0.8892   -0.1575    4.0499 H   0  0  0  0  0  0  0  0  0  0  0  0
   -1.5563    0.3896    2.4666 H   0  0  0  0  0  0  0  0  0  0  0  0
    1.2302    0.7164    4.4515 H   0  0  0  0  0  0  0  0  0  0  0  0
    3.6633    0.9109    3.0127 H   0  0  0  0  0  0  0  0  0  0  0  0
   -6.1540   -2.5325    1.5395 H   0  0  0  0  0  0  0  0  0  0  0  0
   -4.7181   -1.8557    2.3757 H   0  0  0  0  0  0  0  0  0  0  0  0
   -5.8315   -0.7772    1.5129 H   0  0  0  0  0  0  0  0  0  0  0  0
   -4.7462   -2.2499   -1.9687 H   0  0  0  0  0  0  0  0  0  0  0  0
   -6.1703   -2.7643   -1.0059 H   0  0  0  0  0  0  0  0  0  0  0  0
   -5.8504   -1.0331   -1.2998 H   0  0  0  0  0  0  0  0  0  0  0  0
   -3.3139   -3.7325   -0.5550 H   0  0  0  0  0  0  0  0  0  0  0  0
   -3.3012   -3.5695    1.2332 H   0  0  0  0  0  0  0  0  0  0  0  0
   -4.7607   -4.1714    0.3968 H   0  0  0  0  0  0  0  0  0  0  0  0
   -4.6787    2.8686    1.0835 H   0  0  0  0  0  0  0  0  0  0  0  0
   -3.1234    3.2422    1.9011 H   0  0  0  0  0  0  0  0  0  0  0  0
   -3.9226    4.4834    0.8859 H   0  0  0  0  0  0  0  0  0  0  0  0
   -3.1519    2.8450   -2.4464 H   0  0  0  0  0  0  0  0  0  0  0  0
   -4.6954    2.6237   -1.5546 H   0  0  0  0  0  0  0  0  0  0  0  0
   -3.9426    4.2486   -1.6622 H   0  0  0  0  0  0  0  0  0  0  0  0
   -1.8992    4.8174   -0.4454 H   0  0  0  0  0  0  0  0  0  0  0  0
   -1.0045    3.6433    0.5596 H   0  0  0  0  0  0  0  0  0  0  0  0
   -1.0156    3.4772   -1.2282 H   0  0  0  0  0  0  0  0  0  0  0  0
  1 19  1  0  0  0  0
  1 30  1  0  0  0  0
  2 12  1  0  0  0  0
  3  9  1  0  0  0  0
  4  9  1  0  0  0  0
  5 14  1  0  0  0  0
  5 13  1  0  0  0  0
  6  3  1  0  0  0  0
  7  6  2  0  0  0  0
  7  4  1  0  0  0  0
  8 34  1  0  0  0  0
  8  4  1  0  0  0  0
  8 33  1  0  0  0  0
  9 10  1  6  0  0  0
 10 11  1  1  0  0  0
 11 37  1  0  0  0  0
 12 45  1  0  0  0  0
 12 13  2  0  0  0  0
 13 44  1  0  0  0  0
 14 42  1  0  0  0  0
 15 10  1  1  0  0  0
 15  2  1  0  0  0  0
 15  5  1  0  0  0  0
 16 10  1  0  0  0  0
 16 17  1  0  0  0  0
 17 39  1  0  0  0  0
 18 17  2  0  0  0  0
 18 22  1  0  0  0  0
 19 18  1  0  0  0  0
 20 21  1  0  0  0  0
 20 19  2  0  0  0  0
 21 16  2  0  0  0  0
 22 25  1  0  0  0  0
 22 23  1  0  0  0  0
 23 48  1  0  0  0  0
 23 46  1  0  0  0  0
 23 47  1  0  0  0  0
 24 50  1  0  0  0  0
 24 22  1  0  0  0  0
 25 54  1  0  0  0  0
 25 53  1  0  0  0  0
 26 20  1  0  0  0  0
 26 27  1  0  0  0  0
 27 55  1  0  0  0  0
 27 56  1  0  0  0  0
 28 59  1  0  0  0  0
 28 26  1  0  0  0  0
 29 26  1  0  0  0  0
 29 62  1  0  0  0  0
 31  6  1  0  0  0  0
 32  7  1  0  0  0  0
 35  8  1  0  0  0  0
 36 11  1  0  0  0  0
 38 11  1  0  0  0  0
 40 21  1  0  0  0  0
 41 14  1  0  0  0  0
 43 14  1  0  0  0  0
 49 24  1  0  0  0  0
 51 24  1  0  0  0  0
 52 25  1  0  0  0  0
 57 27  1  0  0  0  0
 58 28  1  0  0  0  0
 60 28  1  0  0  0  0
 61 29  1  0  0  0  0
 63 29  1  0  0  0  0
M  END
