1,2
 OpenBabel05122313053D

 19 19  0  0  0  0  0  0  0  0999 V2000
   -1.6136    0.6922    0.0197 N   0  0  0  0  0  2  0  0  0  0  0  0
   -0.8505   -1.7542    0.0120 N   0  0  0  0  0  2  0  0  0  0  0  0
   -0.2697   -2.9743   -0.0340 N   0  0  0  0  0  0  0  0  0  0  0  0
   -0.8779   -3.7345   -0.3655 H   0  0  0  0  0  0  0  0  0  0  0  0
    0.6257   -2.9340   -0.5309 H   0  0  0  0  0  0  0  0  0  0  0  0
   -2.6114   -0.2412    0.1408 C   0  0  0  0  0  0  0  0  0  0  0  0
   -3.9595    0.1626    0.2060 C   0  0  0  0  0  0  0  0  0  0  0  0
   -4.7524   -0.5904    0.3028 H   0  0  0  0  0  0  0  0  0  0  0  0
   -4.2798    1.5205    0.1315 C   0  0  0  0  0  0  0  0  0  0  0  0
   -5.3289    1.8458    0.1814 H   0  0  0  0  0  0  0  0  0  0  0  0
   -3.2454    2.4573   -0.0248 C   0  0  0  0  0  0  0  0  0  0  0  0
   -3.4509    3.5333   -0.1084 H   0  0  0  0  0  0  0  0  0  0  0  0
   -1.9272    2.0009   -0.0849 C   0  0  0  0  0  0  0  0  0  0  0  0
   -1.0843    2.6890   -0.2344 H   0  0  0  0  0  0  0  0  0  0  0  0
   -2.1569   -1.6250    0.1461 C   0  0  0  0  0  0  0  0  0  0  0  0
   -3.0543   -2.8175    0.2365 C   0  0  0  0  0  0  0  0  0  0  0  0
   -3.0483   -3.3981   -0.7132 H   0  0  0  0  0  0  0  0  0  0  0  0
   -4.1019   -2.5390    0.4388 H   0  0  0  0  0  0  0  0  0  0  0  0
   -2.7241   -3.4974    1.0502 H   0  0  0  0  0  0  0  0  0  0  0  0
  1  6  1  0  0  0  0
  2 15  1  0  0  0  0
  3  2  1  0  0  0  0
  4  3  1  0  0  0  0
  5  3  1  0  0  0  0
  6 15  2  0  0  0  0
  6  7  1  0  0  0  0
  7  8  1  0  0  0  0
  9 10  1  0  0  0  0
  9  7  2  0  0  0  0
 11  9  1  0  0  0  0
 12 11  1  0  0  0  0
 13 11  2  0  0  0  0
 13  1  1  0  0  0  0
 14 13  1  0  0  0  0
 15 16  1  0  0  0  0
 16 18  1  0  0  0  0
 16 19  1  0  0  0  0
 17 16  1  0  0  0  0
M  END
