3,4
 OpenBabel05122313053D

 38 39  0  0  0  0  0  0  0  0999 V2000
    5.7839   -1.5846   -1.8513 O   0  0  0  0  0  0  0  0  0  0  0  0
    5.9969    1.7705    1.5398 O   0  0  0  0  0  0  0  0  0  0  0  0
   -2.8915    1.0414   -0.4281 N   0  0  0  0  0  2  0  0  0  0  0  0
   -0.3641    1.3745   -0.1172 N   0  0  0  0  0  2  0  0  0  0  0  0
    0.9838    1.4345    0.0678 N   0  0  0  0  0  0  0  0  0  0  0  0
   -2.4377    2.3273   -0.5813 C   0  0  0  0  0  0  0  0  0  0  0  0
   -3.3128    3.3570   -0.9788 C   0  0  0  0  0  0  0  0  0  0  0  0
   -4.6552    3.0627   -1.2307 C   0  0  0  0  0  0  0  0  0  0  0  0
   -5.0941    1.7349   -1.1006 C   0  0  0  0  0  0  0  0  0  0  0  0
   -4.1800    0.7541   -0.7079 C   0  0  0  0  0  0  0  0  0  0  0  0
   -1.0095    2.5024   -0.3708 C   0  0  0  0  0  0  0  0  0  0  0  0
   -0.3064    3.8105   -0.5122 C   0  0  0  0  0  0  0  0  0  0  0  0
    1.7057    0.5851   -0.6046 C   0  0  0  0  0  0  0  0  0  0  0  0
    3.1425    0.4712   -0.4222 C   0  0  0  0  0  0  0  0  0  0  0  0
    3.8173   -0.4797   -1.2098 C   0  0  0  0  0  0  0  0  0  0  0  0
    5.2126   -0.6536   -1.0562 C   0  0  0  0  0  0  0  0  0  0  0  0
    5.9063    0.1260   -0.1165 C   0  0  0  0  0  0  0  0  0  0  0  0
    5.2177    1.0831    0.6738 C   0  0  0  0  0  0  0  0  0  0  0  0
    3.8345    1.2640    0.5294 C   0  0  0  0  0  0  0  0  0  0  0  0
    7.1870   -1.7921   -1.7583 C   0  0  0  0  0  0  0  0  0  0  0  0
    5.3919    2.7581    2.3595 C   0  0  0  0  0  0  0  0  0  0  0  0
   -2.9275    4.3772   -1.1058 H   0  0  0  0  0  0  0  0  0  0  0  0
   -5.3498    3.8560   -1.5423 H   0  0  0  0  0  0  0  0  0  0  0  0
   -6.1344    1.4505   -1.3106 H   0  0  0  0  0  0  0  0  0  0  0  0
   -4.4707   -0.3004   -0.6192 H   0  0  0  0  0  0  0  0  0  0  0  0
   -0.9381    4.6533   -0.1755 H   0  0  0  0  0  0  0  0  0  0  0  0
   -0.0260    3.9939   -1.5717 H   0  0  0  0  0  0  0  0  0  0  0  0
    0.6331    3.7885    0.0717 H   0  0  0  0  0  0  0  0  0  0  0  0
    1.2174   -0.0751   -1.3525 H   0  0  0  0  0  0  0  0  0  0  0  0
    3.2850   -1.0886   -1.9543 H   0  0  0  0  0  0  0  0  0  0  0  0
    6.9882    0.0318    0.0398 H   0  0  0  0  0  0  0  0  0  0  0  0
    3.2709    1.9955    1.1204 H   0  0  0  0  0  0  0  0  0  0  0  0
    7.7534   -0.8685   -2.0083 H   0  0  0  0  0  0  0  0  0  0  0  0
    7.4332   -2.5787   -2.4938 H   0  0  0  0  0  0  0  0  0  0  0  0
    7.4832   -2.1360   -0.7430 H   0  0  0  0  0  0  0  0  0  0  0  0
    4.9245    3.5640    1.7519 H   0  0  0  0  0  0  0  0  0  0  0  0
    6.2015    3.1910    2.9741 H   0  0  0  0  0  0  0  0  0  0  0  0
    4.6212    2.3176    3.0301 H   0  0  0  0  0  0  0  0  0  0  0  0
  1 20  1  0  0  0  0
  1 16  1  0  0  0  0
  2 21  1  0  0  0  0
  4  5  1  0  0  0  0
  6  3  1  0  0  0  0
  6 11  2  0  0  0  0
  7  6  1  0  0  0  0
  8  9  1  0  0  0  0
  8  7  2  0  0  0  0
  9 10  2  0  0  0  0
 10 25  1  0  0  0  0
 10  3  1  0  0  0  0
 11  4  1  0  0  0  0
 12 11  1  0  0  0  0
 12 26  1  0  0  0  0
 12 28  1  0  0  0  0
 13 14  1  0  0  0  0
 13  5  2  0  0  0  0
 14 19  1  0  0  0  0
 15 16  1  0  0  0  0
 15 14  2  0  0  0  0
 16 17  2  0  0  0  0
 17 31  1  0  0  0  0
 17 18  1  0  0  0  0
 18  2  1  0  0  0  0
 19 18  2  0  0  0  0
 19 32  1  0  0  0  0
 20 35  1  0  0  0  0
 21 37  1  0  0  0  0
 21 38  1  0  0  0  0
 22  7  1  0  0  0  0
 23  8  1  0  0  0  0
 24  9  1  0  0  0  0
 27 12  1  0  0  0  0
 29 13  1  0  0  0  0
 30 15  1  0  0  0  0
 33 20  1  0  0  0  0
 34 20  1  0  0  0  0
 36 21  1  0  0  0  0
M  END
