1,2
 OpenBabel05122313053D

 32 34  0  0  1  0  0  0  0  0999 V2000
    0.7276   -1.1089   -0.2723 N   0  0  0  0  0  2  0  0  0  0  0  0
    0.3678    1.5402    0.2325 N   0  0  0  0  0  2  0  0  0  0  0  0
    0.9868   -2.4223   -0.3722 C   0  0  0  0  0  0  0  0  0  0  0  0
    2.0300   -2.7018   -0.5825 H   0  0  0  0  0  0  0  0  0  0  0  0
   -0.0143   -3.3905   -0.2025 C   0  0  0  0  0  0  0  0  0  0  0  0
    0.2282   -4.4568   -0.3152 H   0  0  0  0  0  0  0  0  0  0  0  0
   -1.2952   -2.9798    0.1815 C   0  0  0  0  0  0  0  0  0  0  0  0
   -2.0819   -3.7099    0.4228 H   0  0  0  0  0  0  0  0  0  0  0  0
   -1.5624   -1.6047    0.3258 C   0  0  0  0  0  0  0  0  0  0  0  0
   -0.5385   -0.6839   -0.0183 C   0  0  0  0  0  0  0  0  0  0  0  0
   -0.7349    0.7727   -0.0257 C   0  0  0  0  0  0  0  0  0  0  0  0
   -1.9718    1.3757   -0.3728 C   0  0  0  0  0  0  0  0  0  0  0  0
   -2.1073    2.7687   -0.2285 C   0  0  0  0  0  0  0  0  0  0  0  0
   -3.0663    3.2487   -0.4730 H   0  0  0  0  0  0  0  0  0  0  0  0
   -0.9942    3.5189    0.1614 C   0  0  0  0  0  0  0  0  0  0  0  0
   -1.0559    4.6103    0.2753 H   0  0  0  0  0  0  0  0  0  0  0  0
    0.2389    2.8773    0.3363 C   0  0  0  0  0  0  0  0  0  0  0  0
    1.1521    3.4459    0.5556 H   0  0  0  0  0  0  0  0  0  0  0  0
   -2.6914   -1.1559    0.9221 O   0  0  0  0  0  0  0  0  0  0  0  0
   -2.9232    0.6211   -0.9677 O   0  0  0  0  0  0  0  0  0  0  0  0
   -5.0363   -1.6577    1.1611 C   0  0  0  0  0  0  0  0  0  0  0  0
   -6.0253   -1.6700    0.6642 H   0  0  0  0  0  0  0  0  0  0  0  0
   -5.0994   -1.0104    2.0583 H   0  0  0  0  0  0  0  0  0  0  0  0
   -4.8081   -2.6878    1.4946 H   0  0  0  0  0  0  0  0  0  0  0  0
   -3.9618   -1.1568    0.2144 C   0  0  1  0  0  0  0  0  0  0  0  0
   -3.8702   -1.8174   -0.6764 H   0  0  0  0  0  0  0  0  0  0  0  0
   -4.1561    0.2854   -0.2719 C   0  0  2  0  0  0  0  0  0  0  0  0
   -4.2504    0.9459    0.6186 H   0  0  0  0  0  0  0  0  0  0  0  0
   -5.3166    0.4838   -1.2286 C   0  0  0  0  0  0  0  0  0  0  0  0
   -5.1979   -0.1563   -2.1253 H   0  0  0  0  0  0  0  0  0  0  0  0
   -5.3684    1.5378   -1.5617 H   0  0  0  0  0  0  0  0  0  0  0  0
   -6.2775    0.2322   -0.7400 H   0  0  0  0  0  0  0  0  0  0  0  0
  1 10  1  0  0  0  0
  2 17  1  0  0  0  0
  3  1  1  0  0  0  0
  3  5  2  0  0  0  0
  4  3  1  0  0  0  0
  5  7  1  0  0  0  0
  6  5  1  0  0  0  0
  7  9  2  0  0  0  0
  7  8  1  0  0  0  0
  9 19  1  0  0  0  0
 10  9  1  0  0  0  0
 11 10  2  0  0  0  0
 11  2  1  0  0  0  0
 12 13  2  0  0  0  0
 12 11  1  0  0  0  0
 13 15  1  0  0  0  0
 14 13  1  0  0  0  0
 15 16  1  0  0  0  0
 15 17  2  0  0  0  0
 17 18  1  0  0  0  0
 20 12  1  0  0  0  0
 20 27  1  0  0  0  0
 21 24  1  0  0  0  0
 21 23  1  0  0  0  0
 22 21  1  0  0  0  0
 25 26  1  6  0  0  0
 25 19  1  0  0  0  0
 25 21  1  0  0  0  0
 27 25  1  0  0  0  0
 27 28  1  1  0  0  0
 29 32  1  0  0  0  0
 29 27  1  0  0  0  0
 30 29  1  0  0  0  0
 31 29  1  0  0  0  0
M  END
