1,4
 OpenBabel05122313053D

 53 56  0  0  1  0  0  0  0  0999 V2000
   -0.7938    1.3911    0.9199 N   0  0  0  0  0  2  0  0  0  0  0  0
    0.5141    1.3727    1.3127 N   0  0  0  0  0  0  0  0  0  0  0  0
    0.8868   -0.9925    1.3131 N   0  0  0  0  0  0  0  0  0  0  0  0
   -0.2130   -1.5124    0.6892 N   0  0  0  0  0  2  0  0  0  0  0  0
   -2.7499    2.9127    1.2882 C   0  0  0  0  0  0  0  0  0  0  0  0
   -2.9943    3.1672    0.2387 H   0  0  0  0  0  0  0  0  0  0  0  0
   -2.9735    3.7902    1.9230 H   0  0  0  0  0  0  0  0  0  0  0  0
   -3.4231    2.0819    1.5766 H   0  0  0  0  0  0  0  0  0  0  0  0
   -1.3183    2.5249    1.4461 C   0  0  1  0  0  3  0  0  0  0  0  0
   -0.3167    3.2330    2.1538 C   0  0  0  0  0  0  0  0  0  0  0  0
   -0.4341    4.1864    2.6781 H   0  0  0  0  0  0  0  0  0  0  0  0
    0.8479    2.4790    2.0533 C   0  0  0  0  0  0  0  0  0  0  0  0
    2.2272    2.7400    2.5588 C   0  0  0  0  0  0  0  0  0  0  0  0
    2.5812    1.9502    3.2555 H   0  0  0  0  0  0  0  0  0  0  0  0
    2.2427    3.6975    3.1102 H   0  0  0  0  0  0  0  0  0  0  0  0
    2.9564    2.8118    1.7244 H   0  0  0  0  0  0  0  0  0  0  0  0
    1.4242    0.3031    0.9408 C   0  0  1  0  0  0  0  0  0  0  0  0
    2.3142    0.4493    1.5768 H   0  0  0  0  0  0  0  0  0  0  0  0
    1.9026    0.3322   -0.5446 C   0  0  1  0  0  0  0  0  0  0  0  0
    0.9997    0.0957   -1.1416 H   0  0  0  0  0  0  0  0  0  0  0  0
    2.3534    1.7130   -0.9589 C   0  0  0  0  0  0  0  0  0  0  0  0
    1.4051    2.8326   -1.1420 C   0  0  0  0  0  0  0  0  0  0  0  0
    0.3194    2.7486   -0.9959 H   0  0  0  0  0  0  0  0  0  0  0  0
    2.0832    3.9406   -1.5457 C   0  0  0  0  0  0  0  0  0  0  0  0
    1.6530    4.9247   -1.7734 H   0  0  0  0  0  0  0  0  0  0  0  0
    3.5405    3.6010   -1.6713 C   0  0  0  0  0  0  0  0  0  0  0  0
    4.1907    4.2497   -1.0388 H   0  0  0  0  0  0  0  0  0  0  0  0
    3.9086    3.7547   -2.7127 H   0  0  0  0  0  0  0  0  0  0  0  0
    3.6107    2.1554   -1.2703 C   0  0  0  0  0  0  0  0  0  0  0  0
    4.5308    1.5592   -1.2886 H   0  0  0  0  0  0  0  0  0  0  0  0
    2.8967   -0.7930   -0.7522 C   0  0  0  0  0  0  0  0  0  0  0  0
    4.1664   -0.7910   -0.1370 C   0  0  0  0  0  0  0  0  0  0  0  0
    4.4750    0.0672    0.4807 H   0  0  0  0  0  0  0  0  0  0  0  0
    5.0474   -1.8705   -0.3057 C   0  0  0  0  0  0  0  0  0  0  0  0
    6.0371   -1.8502    0.1759 H   0  0  0  0  0  0  0  0  0  0  0  0
    4.6669   -2.9738   -1.0861 C   0  0  0  0  0  0  0  0  0  0  0  0
    5.3560   -3.8218   -1.2173 H   0  0  0  0  0  0  0  0  0  0  0  0
    3.4037   -2.9887   -1.6974 C   0  0  0  0  0  0  0  0  0  0  0  0
    3.0960   -3.8504   -2.3089 H   0  0  0  0  0  0  0  0  0  0  0  0
    2.5266   -1.9068   -1.5309 C   0  0  0  0  0  0  0  0  0  0  0  0
    1.5328   -1.9210   -2.0047 H   0  0  0  0  0  0  0  0  0  0  0  0
    2.6966   -1.6144    2.9686 C   0  0  0  0  0  0  0  0  0  0  0  0
    2.8945   -2.4676    3.6427 H   0  0  0  0  0  0  0  0  0  0  0  0
    2.5710   -0.7112    3.6018 H   0  0  0  0  0  0  0  0  0  0  0  0
    3.5956   -1.4720    2.3341 H   0  0  0  0  0  0  0  0  0  0  0  0
    1.4818   -1.9034    2.1522 C   0  0  1  0  0  3  0  0  0  0  0  0
    0.7217   -3.0638    2.0512 C   0  0  0  0  0  0  0  0  0  0  0  0
    0.8932   -4.0038    2.5848 H   0  0  0  0  0  0  0  0  0  0  0  0
   -0.3214   -2.7867    1.1356 C   0  0  0  0  0  0  0  0  0  0  0  0
   -1.4208   -3.7077    0.7261 C   0  0  0  0  0  0  0  0  0  0  0  0
   -2.4091   -3.3210    1.0464 H   0  0  0  0  0  0  0  0  0  0  0  0
   -1.2678   -4.7021    1.1853 H   0  0  0  0  0  0  0  0  0  0  0  0
   -1.4690   -3.8266   -0.3728 H   0  0  0  0  0  0  0  0  0  0  0  0
  1  2  1  0  0  0  0
  1  9  1  0  0  0  0
  2 12  1  0  0  0  0
  3 46  1  0  0  0  0
  4 49  1  0  0  0  0
  4  3  1  0  0  0  0
  5  8  1  0  0  0  0
  5  7  1  0  0  0  0
  6  5  1  0  0  0  0
  9  5  1  1  0  0  0
  9 10  1  0  0  0  0
 10 11  1  0  0  0  0
 12 10  2  0  0  0  0
 12 13  1  0  0  0  0
 13 15  1  0  0  0  0
 13 14  1  0  0  0  0
 16 13  1  0  0  0  0
 17  2  1  0  0  0  0
 17  3  1  0  0  0  0
 17 18  1  1  0  0  0
 19 20  1  6  0  0  0
 19 17  1  0  0  0  0
 21 19  1  0  0  0  0
 22 23  1  0  0  0  0
 22 21  1  0  0  0  0
 24 22  2  0  0  0  0
 25 24  1  0  0  0  0
 26 24  1  0  0  0  0
 26 29  1  0  0  0  0
 26 27  1  0  0  0  0
 28 26  1  0  0  0  0
 29 21  2  0  0  0  0
 30 29  1  0  0  0  0
 31 19  1  0  0  0  0
 31 32  1  0  0  0  0
 32 33  1  0  0  0  0
 34 32  2  0  0  0  0
 34 35  1  0  0  0  0
 36 34  1  0  0  0  0
 37 36  1  0  0  0  0
 38 40  1  0  0  0  0
 38 36  2  0  0  0  0
 39 38  1  0  0  0  0
 40 31  2  0  0  0  0
 41 40  1  0  0  0  0
 42 44  1  0  0  0  0
 42 43  1  0  0  0  0
 45 42  1  0  0  0  0
 46 42  1  1  0  0  0
 47 46  1  0  0  0  0
 47 48  1  0  0  0  0
 49 47  2  0  0  0  0
 50 51  1  0  0  0  0
 50 49  1  0  0  0  0
 50 52  1  0  0  0  0
 53 50  1  0  0  0  0
M  END
