3,4
 OpenBabel05122313053D

 34 35  0  0  0  0  0  0  0  0999 V2000
   -6.0018   -0.1107    1.5393 O   0  0  0  0  0  1  0  0  0  0  0  0
   -5.4813   -0.1483    0.3842 N   0  0  0  0  0  0  0  0  0  0  0  0
   -1.2628   -0.0257    0.2438 N   0  0  0  0  0  2  0  0  0  0  0  0
    0.2457   -0.2041    2.2677 N   0  0  0  0  0  2  0  0  0  0  0  0
   -1.9632   -0.0625    1.4378 C   0  0  0  0  0  0  0  0  0  0  0  0
   -3.3466   -0.1030    1.4757 C   0  0  0  0  0  0  0  0  0  0  0  0
   -4.1022   -0.1302    0.2649 C   0  0  0  0  0  0  0  0  0  0  0  0
   -3.3550   -0.1569   -0.9557 C   0  0  0  0  0  0  0  0  0  0  0  0
   -1.9741   -0.1162   -0.9160 C   0  0  0  0  0  0  0  0  0  0  0  0
   -6.4471   -0.2192   -0.8073 C   0  0  0  0  0  0  0  0  0  0  0  0
   -7.8656   -0.2271   -0.2251 C   0  0  0  0  0  0  0  0  0  0  0  0
   -6.2745    1.0366   -1.6805 C   0  0  0  0  0  0  0  0  0  0  0  0
   -6.2171   -1.5328   -1.5760 C   0  0  0  0  0  0  0  0  0  0  0  0
   -1.0789   -0.1229    2.6058 C   0  0  0  0  0  0  0  0  0  0  0  0
   -1.4898   -0.1126    3.9481 C   0  0  0  0  0  0  0  0  0  0  0  0
   -0.5258   -0.1796    4.9599 C   0  0  0  0  0  0  0  0  0  0  0  0
    0.8321   -0.2415    4.5984 C   0  0  0  0  0  0  0  0  0  0  0  0
    1.1789   -0.2403    3.2461 C   0  0  0  0  0  0  0  0  0  0  0  0
    2.2254   -0.2555    2.9072 H   0  0  0  0  0  0  0  0  0  0  0  0
   -1.3755   -0.1356   -1.8378 H   0  0  0  0  0  0  0  0  0  0  0  0
   -3.8311   -0.2041   -1.9389 H   0  0  0  0  0  0  0  0  0  0  0  0
   -2.5593   -0.0441    4.1900 H   0  0  0  0  0  0  0  0  0  0  0  0
   -3.9010   -0.1375    2.4210 H   0  0  0  0  0  0  0  0  0  0  0  0
    1.6249   -0.2791    5.3587 H   0  0  0  0  0  0  0  0  0  0  0  0
   -0.8271   -0.1710    6.0173 H   0  0  0  0  0  0  0  0  0  0  0  0
   -7.0396    1.0270   -2.4818 H   0  0  0  0  0  0  0  0  0  0  0  0
   -6.4283    1.9500   -1.0730 H   0  0  0  0  0  0  0  0  0  0  0  0
   -5.2846    1.1115   -2.1648 H   0  0  0  0  0  0  0  0  0  0  0  0
   -8.5847   -0.2770   -1.0660 H   0  0  0  0  0  0  0  0  0  0  0  0
   -8.0266   -1.0977    0.4363 H   0  0  0  0  0  0  0  0  0  0  0  0
   -8.0663    0.6856    0.3645 H   0  0  0  0  0  0  0  0  0  0  0  0
   -5.2251   -1.6015   -2.0568 H   0  0  0  0  0  0  0  0  0  0  0  0
   -6.3278   -2.3998   -0.8954 H   0  0  0  0  0  0  0  0  0  0  0  0
   -6.9826   -1.6241   -2.3717 H   0  0  0  0  0  0  0  0  0  0  0  0
  2  1  1  0  0  0  0
  3  5  1  0  0  0  0
  4 14  1  0  0  0  0
  4 18  1  0  0  0  0
  5  6  1  0  0  0  0
  5 14  2  0  0  0  0
  6 23  1  0  0  0  0
  7  2  1  0  0  0  0
  7  6  2  0  0  0  0
  8  9  2  0  0  0  0
  8  7  1  0  0  0  0
  9  3  1  0  0  0  0
 10 11  1  0  0  0  0
 10  2  1  0  0  0  0
 11 31  1  0  0  0  0
 11 30  1  0  0  0  0
 12 27  1  0  0  0  0
 12 10  1  0  0  0  0
 13 33  1  0  0  0  0
 13 10  1  0  0  0  0
 14 15  1  0  0  0  0
 15 22  1  0  0  0  0
 15 16  2  0  0  0  0
 16 25  1  0  0  0  0
 17 16  1  0  0  0  0
 17 24  1  0  0  0  0
 18 17  2  0  0  0  0
 19 18  1  0  0  0  0
 20  9  1  0  0  0  0
 21  8  1  0  0  0  0
 26 12  1  0  0  0  0
 28 12  1  0  0  0  0
 29 11  1  0  0  0  0
 32 13  1  0  0  0  0
 34 13  1  0  0  0  0
M  END
