1,27
 OpenBabel05122313053D

 52 57  0  0  0  0  0  0  0  0999 V2000
    1.6105    1.1606   -0.7878 N   0  0  0  0  0  2  0  0  0  0  0  0
    2.8326    1.6999   -0.6262 C   0  0  0  0  0  3  0  0  0  0  0  0
    2.9056    2.4363    0.1940 H   0  0  0  0  0  0  0  0  0  0  0  0
    3.9085    1.3497   -1.4505 C   0  0  0  0  0  0  0  0  0  0  0  0
    4.8966    1.8024   -1.2871 H   0  0  0  0  0  0  0  0  0  0  0  0
    3.6850    0.4351   -2.4897 C   0  0  0  0  0  0  0  0  0  0  0  0
    4.5013    0.1524   -3.1717 H   0  0  0  0  0  0  0  0  0  0  0  0
    2.4134   -0.1346   -2.6385 C   0  0  0  0  0  0  0  0  0  0  0  0
    2.2101   -0.8833   -3.4172 H   0  0  0  0  0  0  0  0  0  0  0  0
    1.3911    0.2319   -1.7454 C   0  0  0  0  0  0  0  0  0  0  0  0
    0.0566   -0.4252   -1.7652 C   0  0  0  0  0  0  0  0  0  0  0  0
   -0.4004   -1.1216   -0.6326 C   0  0  0  0  0  0  0  0  0  0  0  0
   -1.6565   -1.8175   -0.6952 C   0  0  0  0  0  0  0  0  0  0  0  0
   -2.1303   -2.6259    0.3811 C   0  0  0  0  0  0  0  0  0  0  0  0
   -1.4988   -2.7405    1.2737 H   0  0  0  0  0  0  0  0  0  0  0  0
   -3.3555   -3.2716    0.3053 C   0  0  0  0  0  0  0  0  0  0  0  0
   -3.6994   -3.8937    1.1455 H   0  0  0  0  0  0  0  0  0  0  0  0
   -4.1672   -3.1400   -0.8525 C   0  0  0  0  0  0  0  0  0  0  0  0
   -5.1409   -3.6507   -0.8997 H   0  0  0  0  0  0  0  0  0  0  0  0
   -3.7261   -2.3812   -1.9258 C   0  0  0  0  0  0  0  0  0  0  0  0
   -4.3413   -2.2860   -2.8341 H   0  0  0  0  0  0  0  0  0  0  0  0
   -2.4668   -1.7142   -1.8850 C   0  0  0  0  0  0  0  0  0  0  0  0
   -1.9844   -0.9554   -2.9894 C   0  0  0  0  0  0  0  0  0  0  0  0
   -2.6161   -0.8576   -3.8854 H   0  0  0  0  0  0  0  0  0  0  0  0
   -0.7456   -0.3443   -2.9383 C   0  0  0  0  0  0  0  0  0  0  0  0
   -0.3837    0.2601   -3.7821 H   0  0  0  0  0  0  0  0  0  0  0  0
   -1.6105    1.1608    0.7876 N   0  0  0  0  0  2  0  0  0  0  0  0
   -2.8326    1.7002    0.6261 C   0  0  0  0  0  3  0  0  0  0  0  0
   -2.9055    2.4365   -0.1943 H   0  0  0  0  0  0  0  0  0  0  0  0
   -3.9084    1.3501    1.4504 C   0  0  0  0  0  0  0  0  0  0  0  0
   -4.8966    1.8028    1.2870 H   0  0  0  0  0  0  0  0  0  0  0  0
   -3.6850    0.4356    2.4897 C   0  0  0  0  0  0  0  0  0  0  0  0
   -4.5013    0.1531    3.1717 H   0  0  0  0  0  0  0  0  0  0  0  0
   -2.4134   -0.1341    2.6385 C   0  0  0  0  0  0  0  0  0  0  0  0
   -2.2102   -0.8828    3.4174 H   0  0  0  0  0  0  0  0  0  0  0  0
   -1.3911    0.2321    1.7453 C   0  0  0  0  0  0  0  0  0  0  0  0
   -0.0566   -0.4249    1.7652 C   0  0  0  0  0  0  0  0  0  0  0  0
    0.4004   -1.1215    0.6327 C   0  0  0  0  0  0  0  0  0  0  0  0
    1.6565   -1.8174    0.6954 C   0  0  0  0  0  0  0  0  0  0  0  0
    2.1302   -2.6259   -0.3808 C   0  0  0  0  0  0  0  0  0  0  0  0
    1.4987   -2.7406   -1.2734 H   0  0  0  0  0  0  0  0  0  0  0  0
    3.3554   -3.2716   -0.3050 C   0  0  0  0  0  0  0  0  0  0  0  0
    3.6994   -3.8938   -1.1452 H   0  0  0  0  0  0  0  0  0  0  0  0
    4.1671   -3.1398    0.8528 C   0  0  0  0  0  0  0  0  0  0  0  0
    5.1408   -3.6506    0.9001 H   0  0  0  0  0  0  0  0  0  0  0  0
    3.7261   -2.3810    1.9261 C   0  0  0  0  0  0  0  0  0  0  0  0
    4.3413   -2.2857    2.8343 H   0  0  0  0  0  0  0  0  0  0  0  0
    2.4667   -1.7140    1.8851 C   0  0  0  0  0  0  0  0  0  0  0  0
    1.9844   -0.9550    2.9895 C   0  0  0  0  0  0  0  0  0  0  0  0
    2.6160   -0.8571    3.8855 H   0  0  0  0  0  0  0  0  0  0  0  0
    0.7456   -0.3439    2.9383 C   0  0  0  0  0  0  0  0  0  0  0  0
    0.3837    0.2605    3.7820 H   0  0  0  0  0  0  0  0  0  0  0  0
  1  2  1  0  0  0  0
  2  3  1  0  0  0  0
  4  5  1  0  0  0  0
  4  2  1  0  0  0  0
  6  4  2  0  0  0  0
  7  6  1  0  0  0  0
  8  6  1  0  0  0  0
  8 10  2  0  0  0  0
  9  8  1  0  0  0  0
 10  1  1  0  0  0  0
 11 10  1  0  0  0  0
 11 12  1  0  0  0  0
 12 38  1  0  0  0  0
 13 12  2  0  0  0  0
 13 14  1  0  0  0  0
 14 15  1  0  0  0  0
 16 14  2  0  0  0  0
 16 17  1  0  0  0  0
 18 16  1  0  0  0  0
 19 18  1  0  0  0  0
 20 22  1  0  0  0  0
 20 18  2  0  0  0  0
 21 20  1  0  0  0  0
 22 13  1  0  0  0  0
 23 25  1  0  0  0  0
 23 22  2  0  0  0  0
 24 23  1  0  0  0  0
 25 11  2  0  0  0  0
 26 25  1  0  0  0  0
 27 36  1  0  0  0  0
 28 27  1  0  0  0  0
 28 30  1  0  0  0  0
 29 28  1  0  0  0  0
 30 32  2  0  0  0  0
 31 30  1  0  0  0  0
 32 34  1  0  0  0  0
 32 33  1  0  0  0  0
 34 35  1  0  0  0  0
 36 37  1  0  0  0  0
 36 34  2  0  0  0  0
 37 51  1  0  0  0  0
 38 39  1  0  0  0  0
 38 37  2  0  0  0  0
 39 48  1  0  0  0  0
 40 42  1  0  0  0  0
 40 39  2  0  0  0  0
 41 40  1  0  0  0  0
 42 44  2  0  0  0  0
 43 42  1  0  0  0  0
 44 45  1  0  0  0  0
 44 46  1  0  0  0  0
 46 47  1  0  0  0  0
 48 46  2  0  0  0  0
 48 49  1  0  0  0  0
 49 50  1  0  0  0  0
 51 49  2  0  0  0  0
 51 52  1  0  0  0  0
M  END
