1,2
 OpenBabel05122313053D

 43 45  0  0  0  0  0  0  0  0999 V2000
    0.1530    1.4767   -0.7462 N   0  0  0  0  0  2  0  0  0  0  0  0
   -0.3256   -1.3055   -0.8512 N   0  0  0  0  0  2  0  0  0  0  0  0
   -1.3746    3.0965   -1.0734 O   0  0  0  0  0  0  0  0  0  0  0  0
   -2.3127   -1.7789   -1.7987 O   0  0  0  0  0  0  0  0  0  0  0  0
    0.7725    2.3822   -1.7705 C   0  0  0  0  0  0  0  0  0  0  0  0
    0.5640    1.7169   -3.1421 C   0  0  0  0  0  0  0  0  0  0  0  0
    1.0846    0.7405   -3.1675 H   0  0  0  0  0  0  0  0  0  0  0  0
    0.9806    2.3554   -3.9467 H   0  0  0  0  0  0  0  0  0  0  0  0
   -0.5125    1.5469   -3.3481 H   0  0  0  0  0  0  0  0  0  0  0  0
    2.2455    2.6807   -1.5245 C   0  0  0  0  0  0  0  0  0  0  0  0
    2.4083    3.0876   -0.5095 H   0  0  0  0  0  0  0  0  0  0  0  0
    2.6085    3.3987   -2.2879 H   0  0  0  0  0  0  0  0  0  0  0  0
    2.8447    1.7527   -1.5995 H   0  0  0  0  0  0  0  0  0  0  0  0
   -0.1265    3.6256   -1.6001 C   0  0  0  0  0  0  0  0  0  0  0  0
    0.2879    4.3348   -0.8524 H   0  0  0  0  0  0  0  0  0  0  0  0
   -0.3503    4.1552   -2.5445 H   0  0  0  0  0  0  0  0  0  0  0  0
   -1.0564    1.8973   -0.5335 C   0  0  0  0  0  0  0  0  0  0  0  0
   -2.1303    1.1992    0.1884 C   0  0  0  0  0  0  0  0  0  0  0  0
   -2.9920    1.9484    1.0125 C   0  0  0  0  0  0  0  0  0  0  0  0
   -2.8008    3.0235    1.1361 H   0  0  0  0  0  0  0  0  0  0  0  0
   -4.0670    1.3414    1.6674 C   0  0  0  0  0  0  0  0  0  0  0  0
   -4.7129    1.9447    2.3236 H   0  0  0  0  0  0  0  0  0  0  0  0
   -4.3429   -0.0293    1.4896 C   0  0  0  0  0  0  0  0  0  0  0  0
   -5.4821   -0.6972    2.2122 C   0  0  0  0  0  0  0  0  0  0  0  0
   -5.8938   -1.5458    1.6320 H   0  0  0  0  0  0  0  0  0  0  0  0
   -6.3031    0.0141    2.4267 H   0  0  0  0  0  0  0  0  0  0  0  0
   -5.1372   -1.1042    3.1870 H   0  0  0  0  0  0  0  0  0  0  0  0
   -3.5073   -0.7649    0.6281 C   0  0  0  0  0  0  0  0  0  0  0  0
   -3.7188   -1.8289    0.4454 H   0  0  0  0  0  0  0  0  0  0  0  0
   -2.3953   -0.1822   -0.0061 C   0  0  0  0  0  0  0  0  0  0  0  0
   -1.6010   -1.0626   -0.8949 C   0  0  0  0  0  0  0  0  0  0  0  0
   -1.3200   -2.4383   -2.6320 C   0  0  0  0  0  0  0  0  0  0  0  0
   -1.1805   -1.8168   -3.5440 H   0  0  0  0  0  0  0  0  0  0  0  0
   -1.7084   -3.4349   -2.9108 H   0  0  0  0  0  0  0  0  0  0  0  0
   -0.0586   -2.4846   -1.7448 C   0  0  0  0  0  0  0  0  0  0  0  0
   -0.0522   -3.7579   -0.8839 C   0  0  0  0  0  0  0  0  0  0  0  0
    0.7381   -3.6849   -0.1116 H   0  0  0  0  0  0  0  0  0  0  0  0
    0.1318   -4.6407   -1.5295 H   0  0  0  0  0  0  0  0  0  0  0  0
   -1.0274   -3.8915   -0.3733 H   0  0  0  0  0  0  0  0  0  0  0  0
    1.2501   -2.3165   -2.5078 C   0  0  0  0  0  0  0  0  0  0  0  0
    1.2474   -1.3887   -3.1127 H   0  0  0  0  0  0  0  0  0  0  0  0
    1.4141   -3.1787   -3.1845 H   0  0  0  0  0  0  0  0  0  0  0  0
    2.0903   -2.2664   -1.7870 H   0  0  0  0  0  0  0  0  0  0  0  0
  1 17  1  0  0  0  0
  3 17  1  0  0  0  0
  4 31  1  0  0  0  0
  5 14  1  0  0  0  0
  5 10  1  0  0  0  0
  5  1  1  0  0  0  0
  6  5  1  0  0  0  0
  7  6  1  0  0  0  0
  8  6  1  0  0  0  0
  9  6  1  0  0  0  0
 10 11  1  0  0  0  0
 12 10  1  0  0  0  0
 13 10  1  0  0  0  0
 14  3  1  0  0  0  0
 14 15  1  0  0  0  0
 16 14  1  0  0  0  0
 17 18  2  0  0  0  0
 18 19  1  0  0  0  0
 19 20  1  0  0  0  0
 19 21  2  0  0  0  0
 21 22  1  0  0  0  0
 23 21  1  0  0  0  0
 23 24  1  0  0  0  0
 24 26  1  0  0  0  0
 24 27  1  0  0  0  0
 25 24  1  0  0  0  0
 28 23  2  0  0  0  0
 29 28  1  0  0  0  0
 30 18  1  0  0  0  0
 30 28  1  0  0  0  0
 31  2  1  0  0  0  0
 31 30  2  0  0  0  0
 32  4  1  0  0  0  0
 32 35  1  0  0  0  0
 33 32  1  0  0  0  0
 34 32  1  0  0  0  0
 35 36  1  0  0  0  0
 35  2  1  0  0  0  0
 36 39  1  0  0  0  0
 36 37  1  0  0  0  0
 38 36  1  0  0  0  0
 40 43  1  0  0  0  0
 40 35  1  0  0  0  0
 41 40  1  0  0  0  0
 42 40  1  0  0  0  0
M  END
