1,2
 OpenBabel05122313053D

 50 51  0  0  0  0  0  0  0  0999 V2000
    0.8186   -1.1591    0.4657 N   0  0  0  0  0  2  0  0  0  0  0  0
   -1.3626   -0.2337   -0.6227 N   0  0  0  0  0  2  0  0  0  0  0  0
    1.9018   -1.7432    1.0319 C   0  0  0  0  0  0  0  0  0  0  0  0
    3.0384   -1.0114    1.3689 C   0  0  0  0  0  0  0  0  0  0  0  0
    3.0928    0.3784    1.1282 C   0  0  0  0  0  0  0  0  0  0  0  0
    1.9603    0.9653    0.5410 C   0  0  0  0  0  0  0  0  0  0  0  0
    0.8351    0.1917    0.2169 C   0  0  0  0  0  0  0  0  0  0  0  0
   -0.3939    0.7137   -0.3925 C   0  0  0  0  0  0  0  0  0  0  0  0
   -0.6119    2.0569   -0.7324 C   0  0  0  0  0  0  0  0  0  0  0  0
   -1.8228    2.4657   -1.3166 C   0  0  0  0  0  0  0  0  0  0  0  0
   -2.7906    1.4644   -1.5412 C   0  0  0  0  0  0  0  0  0  0  0  0
   -2.5345    0.1402   -1.1881 C   0  0  0  0  0  0  0  0  0  0  0  0
    4.3307    1.1827    1.4246 C   0  0  0  0  0  0  0  0  0  0  0  0
    5.3367    1.1653    0.2574 C   0  0  0  0  0  0  0  0  0  0  0  0
    6.6036    1.9755    0.5470 C   0  0  0  0  0  0  0  0  0  0  0  0
    7.6484    1.9460   -0.5778 C   0  0  0  0  0  0  0  0  0  0  0  0
    7.1952    2.6007   -1.8850 C   0  0  0  0  0  0  0  0  0  0  0  0
   -2.0821    3.9177   -1.6296 C   0  0  0  0  0  0  0  0  0  0  0  0
   -2.4722    4.7440   -0.3855 C   0  0  0  0  0  0  0  0  0  0  0  0
   -3.7829    4.3103    0.2740 C   0  0  0  0  0  0  0  0  0  0  0  0
   -4.1615    5.1535    1.4956 C   0  0  0  0  0  0  0  0  0  0  0  0
   -5.4716    4.7159    2.1509 C   0  0  0  0  0  0  0  0  0  0  0  0
    1.7966   -2.8291    1.1975 H   0  0  0  0  0  0  0  0  0  0  0  0
    3.8904   -1.5337    1.8294 H   0  0  0  0  0  0  0  0  0  0  0  0
    1.9522    2.0452    0.3351 H   0  0  0  0  0  0  0  0  0  0  0  0
    0.1773    2.7977   -0.5391 H   0  0  0  0  0  0  0  0  0  0  0  0
   -3.7591    1.7157   -1.9980 H   0  0  0  0  0  0  0  0  0  0  0  0
   -3.2506   -0.6860   -1.3369 H   0  0  0  0  0  0  0  0  0  0  0  0
    4.8226    0.7836    2.3370 H   0  0  0  0  0  0  0  0  0  0  0  0
    4.0498    2.2336    1.6491 H   0  0  0  0  0  0  0  0  0  0  0  0
    5.6098    0.1113    0.0281 H   0  0  0  0  0  0  0  0  0  0  0  0
    4.8305    1.5491   -0.6544 H   0  0  0  0  0  0  0  0  0  0  0  0
    7.0658    1.5935    1.4838 H   0  0  0  0  0  0  0  0  0  0  0  0
    6.3210    3.0319    0.7598 H   0  0  0  0  0  0  0  0  0  0  0  0
    8.5688    2.4524   -0.2160 H   0  0  0  0  0  0  0  0  0  0  0  0
    7.9435    0.8906   -0.7715 H   0  0  0  0  0  0  0  0  0  0  0  0
    8.0077    2.5999   -2.6390 H   0  0  0  0  0  0  0  0  0  0  0  0
    6.8934    3.6570   -1.7218 H   0  0  0  0  0  0  0  0  0  0  0  0
    6.3303    2.0747   -2.3388 H   0  0  0  0  0  0  0  0  0  0  0  0
   -2.8896    3.9915   -2.3876 H   0  0  0  0  0  0  0  0  0  0  0  0
   -1.1723    4.3605   -2.0864 H   0  0  0  0  0  0  0  0  0  0  0  0
   -1.6473    4.6903    0.3599 H   0  0  0  0  0  0  0  0  0  0  0  0
   -2.5422    5.8125   -0.6843 H   0  0  0  0  0  0  0  0  0  0  0  0
   -3.7153    3.2414    0.5764 H   0  0  0  0  0  0  0  0  0  0  0  0
   -4.6050    4.3576   -0.4763 H   0  0  0  0  0  0  0  0  0  0  0  0
   -4.2296    6.2229    1.1950 H   0  0  0  0  0  0  0  0  0  0  0  0
   -3.3353    5.1044    2.2396 H   0  0  0  0  0  0  0  0  0  0  0  0
   -5.7180    5.3409    3.0325 H   0  0  0  0  0  0  0  0  0  0  0  0
   -5.4187    3.6612    2.4926 H   0  0  0  0  0  0  0  0  0  0  0  0
   -6.3219    4.7893    1.4411 H   0  0  0  0  0  0  0  0  0  0  0  0
  1  3  1  0  0  0  0
  2  8  1  0  0  0  0
  3 23  1  0  0  0  0
  3  4  2  0  0  0  0
  4 24  1  0  0  0  0
  5  4  1  0  0  0  0
  5 13  1  0  0  0  0
  6  5  2  0  0  0  0
  7  1  1  0  0  0  0
  7  6  1  0  0  0  0
  8  7  2  0  0  0  0
  9 26  1  0  0  0  0
  9  8  1  0  0  0  0
 10  9  2  0  0  0  0
 11 10  1  0  0  0  0
 11 12  2  0  0  0  0
 12  2  1  0  0  0  0
 13 30  1  0  0  0  0
 13 29  1  0  0  0  0
 14 15  1  0  0  0  0
 14 13  1  0  0  0  0
 15 34  1  0  0  0  0
 15 33  1  0  0  0  0
 16 35  1  0  0  0  0
 16 15  1  0  0  0  0
 17 38  1  0  0  0  0
 17 16  1  0  0  0  0
 18 10  1  0  0  0  0
 18 19  1  0  0  0  0
 19 20  1  0  0  0  0
 19 42  1  0  0  0  0
 20 44  1  0  0  0  0
 20 21  1  0  0  0  0
 21 22  1  0  0  0  0
 21 47  1  0  0  0  0
 22 49  1  0  0  0  0
 22 48  1  0  0  0  0
 25  6  1  0  0  0  0
 27 11  1  0  0  0  0
 28 12  1  0  0  0  0
 31 14  1  0  0  0  0
 32 14  1  0  0  0  0
 36 16  1  0  0  0  0
 37 17  1  0  0  0  0
 39 17  1  0  0  0  0
 40 18  1  0  0  0  0
 41 18  1  0  0  0  0
 43 19  1  0  0  0  0
 45 20  1  0  0  0  0
 46 21  1  0  0  0  0
 50 22  1  0  0  0  0
M  END
