1,2
 OpenBabel05122313053D

 62 63  0  0  0  0  0  0  0  0999 V2000
   -2.4789    0.6065    0.5179 N   0  0  0  0  0  2  0  0  0  0  0  0
   -1.2629   -1.6794    0.2107 N   0  0  0  0  0  2  0  0  0  0  0  0
   -3.1967    1.7514    0.6174 C   0  0  0  0  0  0  0  0  0  0  0  0
   -2.6950    2.8785    1.2643 C   0  0  0  0  0  0  0  0  0  0  0  0
   -1.4093    2.8578    1.8477 C   0  0  0  0  0  0  0  0  0  0  0  0
   -0.6840    1.6607    1.7388 C   0  0  0  0  0  0  0  0  0  0  0  0
   -1.2241    0.5492    1.0730 C   0  0  0  0  0  0  0  0  0  0  0  0
   -0.5382   -0.7358    0.8973 C   0  0  0  0  0  0  0  0  0  0  0  0
    0.7518   -1.0262    1.3672 C   0  0  0  0  0  0  0  0  0  0  0  0
    1.3304   -2.2870    1.1492 C   0  0  0  0  0  0  0  0  0  0  0  0
    0.5549   -3.2310    0.4424 C   0  0  0  0  0  0  0  0  0  0  0  0
   -0.7223   -2.9021   -0.0072 C   0  0  0  0  0  0  0  0  0  0  0  0
   -0.8230    4.0847    2.4975 C   0  0  0  0  0  0  0  0  0  0  0  0
   -0.2200    5.0754    1.4780 C   0  0  0  0  0  0  0  0  0  0  0  0
    0.9753    4.5253    0.6972 C   0  0  0  0  0  0  0  0  0  0  0  0
    1.5762    5.5275   -0.2917 C   0  0  0  0  0  0  0  0  0  0  0  0
    2.7691    4.9761   -1.0765 C   0  0  0  0  0  0  0  0  0  0  0  0
    3.3724    5.9719   -2.0717 C   0  0  0  0  0  0  0  0  0  0  0  0
    4.5625    5.4102   -2.8499 C   0  0  0  0  0  0  0  0  0  0  0  0
    2.7384   -2.5906    1.5882 C   0  0  0  0  0  0  0  0  0  0  0  0
    3.7767   -2.2626    0.4976 C   0  0  0  0  0  0  0  0  0  0  0  0
    5.2155   -2.5665    0.9199 C   0  0  0  0  0  0  0  0  0  0  0  0
    6.2514   -2.2388   -0.1586 C   0  0  0  0  0  0  0  0  0  0  0  0
    7.6935   -2.5399    0.2575 C   0  0  0  0  0  0  0  0  0  0  0  0
    8.7310   -2.2119   -0.8206 C   0  0  0  0  0  0  0  0  0  0  0  0
   10.1681   -2.5158   -0.3962 C   0  0  0  0  0  0  0  0  0  0  0  0
   -4.1936    1.7035    0.1470 H   0  0  0  0  0  0  0  0  0  0  0  0
   -3.3192    3.7833    1.3160 H   0  0  0  0  0  0  0  0  0  0  0  0
    0.3211    1.5925    2.1780 H   0  0  0  0  0  0  0  0  0  0  0  0
    1.3146   -0.2561    1.9137 H   0  0  0  0  0  0  0  0  0  0  0  0
    0.9470   -4.2390    0.2402 H   0  0  0  0  0  0  0  0  0  0  0  0
   -1.3775   -3.5951   -0.5623 H   0  0  0  0  0  0  0  0  0  0  0  0
   -0.0378    3.7815    3.2218 H   0  0  0  0  0  0  0  0  0  0  0  0
   -1.6145    4.6014    3.0788 H   0  0  0  0  0  0  0  0  0  0  0  0
   -1.0140    5.3921    0.7660 H   0  0  0  0  0  0  0  0  0  0  0  0
    0.0844    5.9947    2.0237 H   0  0  0  0  0  0  0  0  0  0  0  0
    0.6717    3.6085    0.1443 H   0  0  0  0  0  0  0  0  0  0  0  0
    1.7628    4.1973    1.4142 H   0  0  0  0  0  0  0  0  0  0  0  0
    1.8863    6.4468    0.2548 H   0  0  0  0  0  0  0  0  0  0  0  0
    0.7866    5.8561   -1.0046 H   0  0  0  0  0  0  0  0  0  0  0  0
    3.5585    4.6460   -0.3629 H   0  0  0  0  0  0  0  0  0  0  0  0
    2.4567    4.0560   -1.6212 H   0  0  0  0  0  0  0  0  0  0  0  0
    3.6812    6.8908   -1.5249 H   0  0  0  0  0  0  0  0  0  0  0  0
    2.5811    6.2999   -2.7820 H   0  0  0  0  0  0  0  0  0  0  0  0
    4.9763    6.1527   -3.5614 H   0  0  0  0  0  0  0  0  0  0  0  0
    4.2737    4.5120   -3.4349 H   0  0  0  0  0  0  0  0  0  0  0  0
    5.3844    5.1075   -2.1674 H   0  0  0  0  0  0  0  0  0  0  0  0
    2.8198   -3.6648    1.8581 H   0  0  0  0  0  0  0  0  0  0  0  0
    2.9774   -2.0130    2.5063 H   0  0  0  0  0  0  0  0  0  0  0  0
    3.5264   -2.8316   -0.4247 H   0  0  0  0  0  0  0  0  0  0  0  0
    3.6842   -1.1892    0.2200 H   0  0  0  0  0  0  0  0  0  0  0  0
    5.2983   -3.6414    1.1982 H   0  0  0  0  0  0  0  0  0  0  0  0
    5.4552   -1.9992    1.8478 H   0  0  0  0  0  0  0  0  0  0  0  0
    6.1649   -1.1640   -0.4370 H   0  0  0  0  0  0  0  0  0  0  0  0
    6.0090   -2.8063   -1.0854 H   0  0  0  0  0  0  0  0  0  0  0  0
    8.6405   -1.1377   -1.0974 H   0  0  0  0  0  0  0  0  0  0  0  0
    8.4852   -2.7791   -1.7460 H   0  0  0  0  0  0  0  0  0  0  0  0
   10.8944   -2.2684   -1.1963 H   0  0  0  0  0  0  0  0  0  0  0  0
   10.2968   -3.5903   -0.1488 H   0  0  0  0  0  0  0  0  0  0  0  0
   10.4537   -1.9349    0.5058 H   0  0  0  0  0  0  0  0  0  0  0  0
    7.9353   -1.9729    1.1853 H   0  0  0  0  0  0  0  0  0  0  0  0
    7.7796   -3.6150    0.5358 H   0  0  0  0  0  0  0  0  0  0  0  0
  1  3  1  0  0  0  0
  1  7  1  0  0  0  0
  2  8  1  0  0  0  0
  3  4  2  0  0  0  0
  4 28  1  0  0  0  0
  4  5  1  0  0  0  0
  5 13  1  0  0  0  0
  6  5  2  0  0  0  0
  6 29  1  0  0  0  0
  7  6  1  0  0  0  0
  8  7  2  0  0  0  0
  8  9  1  0  0  0  0
  9 30  1  0  0  0  0
 10  9  2  0  0  0  0
 10 20  1  0  0  0  0
 11 10  1  0  0  0  0
 12  2  1  0  0  0  0
 12 11  2  0  0  0  0
 13 34  1  0  0  0  0
 13 33  1  0  0  0  0
 14 36  1  0  0  0  0
 14 13  1  0  0  0  0
 15 38  1  0  0  0  0
 15 14  1  0  0  0  0
 16 39  1  0  0  0  0
 16 15  1  0  0  0  0
 17 41  1  0  0  0  0
 17 16  1  0  0  0  0
 18 43  1  0  0  0  0
 18 17  1  0  0  0  0
 19 47  1  0  0  0  0
 19 18  1  0  0  0  0
 20 48  1  0  0  0  0
 20 49  1  0  0  0  0
 21 22  1  0  0  0  0
 21 20  1  0  0  0  0
 22 52  1  0  0  0  0
 22 53  1  0  0  0  0
 23 24  1  0  0  0  0
 23 22  1  0  0  0  0
 24 62  1  0  0  0  0
 24 61  1  0  0  0  0
 25 26  1  0  0  0  0
 25 24  1  0  0  0  0
 26 59  1  0  0  0  0
 26 60  1  0  0  0  0
 27  3  1  0  0  0  0
 31 11  1  0  0  0  0
 32 12  1  0  0  0  0
 35 14  1  0  0  0  0
 37 15  1  0  0  0  0
 40 16  1  0  0  0  0
 42 17  1  0  0  0  0
 44 18  1  0  0  0  0
 45 19  1  0  0  0  0
 46 19  1  0  0  0  0
 50 21  1  0  0  0  0
 51 21  1  0  0  0  0
 54 23  1  0  0  0  0
 55 23  1  0  0  0  0
 56 25  1  0  0  0  0
 57 25  1  0  0  0  0
 58 26  1  0  0  0  0
M  END
