2,4
 OpenBabel05122313053D

 65 66  0  0  0  0  0  0  0  0999 V2000
   -2.3997   -0.1807    1.1714 S   0  0  2  0  0  3  0  0  0  0  0  0
    0.5494   -0.0581    0.5566 N   0  0  0  0  0  2  0  0  0  0  0  0
   -1.1246   -0.1498    2.2592 N   0  0  0  0  0  0  0  0  0  0  0  0
   -2.1863   -1.0626   -0.2173 N   0  0  0  0  0  2  0  0  0  0  0  0
    0.1481   -0.0696    1.8312 C   0  0  0  0  0  0  0  0  0  0  0  0
    1.1685   -0.0136    2.9644 C   0  0  0  0  0  0  0  0  0  0  0  0
    1.4030   -1.0664    3.2398 H   0  0  0  0  0  0  0  0  0  0  0  0
    2.1140    0.4072    2.5679 H   0  0  0  0  0  0  0  0  0  0  0  0
    0.6974    0.7487    4.2018 C   0  0  0  0  0  0  0  0  0  0  0  0
    1.4624    0.7075    5.0025 H   0  0  0  0  0  0  0  0  0  0  0  0
   -0.2491    0.3245    4.5862 H   0  0  0  0  0  0  0  0  0  0  0  0
    0.5126    1.8171    3.9655 H   0  0  0  0  0  0  0  0  0  0  0  0
    1.9281    0.0231    0.2043 C   0  0  0  0  0  0  0  0  0  0  0  0
    2.7426   -1.1434    0.2231 C   0  0  0  0  0  0  0  0  0  0  0  0
    4.0745   -1.0390   -0.2175 C   0  0  0  0  0  0  0  0  0  0  0  0
    4.7174   -1.9321   -0.2092 H   0  0  0  0  0  0  0  0  0  0  0  0
    4.5937    0.1783   -0.6764 C   0  0  0  0  0  0  0  0  0  0  0  0
    5.6385    0.2395   -1.0166 H   0  0  0  0  0  0  0  0  0  0  0  0
    3.7739    1.3136   -0.7134 C   0  0  0  0  0  0  0  0  0  0  0  0
    4.1808    2.2644   -1.0895 H   0  0  0  0  0  0  0  0  0  0  0  0
    2.4352    1.2578   -0.2860 C   0  0  0  0  0  0  0  0  0  0  0  0
    2.1611   -2.4944    0.6260 C   0  0  0  0  0  0  0  0  0  0  0  0
    1.2521   -2.3006    1.2300 H   0  0  0  0  0  0  0  0  0  0  0  0
    3.1104   -3.3375    1.4875 C   0  0  0  0  0  0  0  0  0  0  0  0
    2.6021   -4.2598    1.8352 H   0  0  0  0  0  0  0  0  0  0  0  0
    3.4523   -2.7754    2.3798 H   0  0  0  0  0  0  0  0  0  0  0  0
    4.0118   -3.6558    0.9241 H   0  0  0  0  0  0  0  0  0  0  0  0
    1.7051   -3.2651   -0.6264 C   0  0  0  0  0  0  0  0  0  0  0  0
    1.2229   -4.2268   -0.3545 H   0  0  0  0  0  0  0  0  0  0  0  0
    2.5637   -3.4820   -1.2946 H   0  0  0  0  0  0  0  0  0  0  0  0
    0.9767   -2.6716   -1.2184 H   0  0  0  0  0  0  0  0  0  0  0  0
    1.5443    2.4918   -0.3203 C   0  0  0  0  0  0  0  0  0  0  0  0
    0.4966    2.1268   -0.3083 H   0  0  0  0  0  0  0  0  0  0  0  0
    1.7232    3.3367   -1.5880 C   0  0  0  0  0  0  0  0  0  0  0  0
    0.9565    4.1375   -1.6225 H   0  0  0  0  0  0  0  0  0  0  0  0
    1.6145    2.7179   -2.5011 H   0  0  0  0  0  0  0  0  0  0  0  0
    2.7162    3.8313   -1.6270 H   0  0  0  0  0  0  0  0  0  0  0  0
    1.7463    3.3364    0.9501 C   0  0  0  0  0  0  0  0  0  0  0  0
    1.0888    4.2296    0.9406 H   0  0  0  0  0  0  0  0  0  0  0  0
    2.7978    3.6837    1.0288 H   0  0  0  0  0  0  0  0  0  0  0  0
    1.5157    2.7545    1.8649 H   0  0  0  0  0  0  0  0  0  0  0  0
   -2.2988    1.4978    0.4427 C   0  0  0  0  0  0  0  0  0  0  0  0
   -2.6738    1.7111   -0.8930 C   0  0  0  0  0  0  0  0  0  0  0  0
   -3.0113    0.8589   -1.5006 H   0  0  0  0  0  0  0  0  0  0  0  0
   -2.5835    3.0067   -1.4290 C   0  0  0  0  0  0  0  0  0  0  0  0
   -2.8496    3.1762   -2.4833 H   0  0  0  0  0  0  0  0  0  0  0  0
   -2.1577    4.0761   -0.6268 C   0  0  0  0  0  0  0  0  0  0  0  0
   -2.0894    5.0894   -1.0503 H   0  0  0  0  0  0  0  0  0  0  0  0
   -1.8231    3.8530    0.7199 C   0  0  0  0  0  0  0  0  0  0  0  0
   -1.4971    4.6912    1.3539 H   0  0  0  0  0  0  0  0  0  0  0  0
   -1.8895    2.5621    1.2625 C   0  0  0  0  0  0  0  0  0  0  0  0
   -1.6027    2.3648    2.3053 H   0  0  0  0  0  0  0  0  0  0  0  0
   -2.7891   -2.4205   -0.2292 C   0  0  0  0  0  0  0  0  0  0  0  0
   -2.0995   -3.3393    0.7995 C   0  0  0  0  0  0  0  0  0  0  0  0
   -2.2280   -2.9439    1.8282 H   0  0  0  0  0  0  0  0  0  0  0  0
   -1.0111   -3.3935    0.5955 H   0  0  0  0  0  0  0  0  0  0  0  0
   -2.5120   -4.3688    0.7689 H   0  0  0  0  0  0  0  0  0  0  0  0
   -2.5497   -2.9584   -1.6490 C   0  0  0  0  0  0  0  0  0  0  0  0
   -1.4641   -3.0224   -1.8714 H   0  0  0  0  0  0  0  0  0  0  0  0
   -3.0109   -2.2910   -2.4039 H   0  0  0  0  0  0  0  0  0  0  0  0
   -2.9819   -3.9728   -1.7608 H   0  0  0  0  0  0  0  0  0  0  0  0
   -4.3030   -2.3532    0.0454 C   0  0  0  0  0  0  0  0  0  0  0  0
   -4.5101   -1.9544    1.0590 H   0  0  0  0  0  0  0  0  0  0  0  0
   -4.7616   -3.3605   -0.0191 H   0  0  0  0  0  0  0  0  0  0  0  0
   -4.8001   -1.6928   -0.6930 H   0  0  0  0  0  0  0  0  0  0  0  0
  1  4  1  6  0  0  0
  1  3  1  0  0  0  0
  2  5  1  0  0  0  0
  5  3  2  0  0  0  0
  5  6  1  0  0  0  0
  6  7  1  0  0  0  0
  6  9  1  0  0  0  0
  8  6  1  0  0  0  0
  9 11  1  0  0  0  0
  9 10  1  0  0  0  0
 12  9  1  0  0  0  0
 13 14  1  0  0  0  0
 13  2  1  0  0  0  0
 14 22  1  0  0  0  0
 15 16  1  0  0  0  0
 15 14  2  0  0  0  0
 17 15  1  0  0  0  0
 18 17  1  0  0  0  0
 19 17  2  0  0  0  0
 19 21  1  0  0  0  0
 20 19  1  0  0  0  0
 21 13  2  0  0  0  0
 22 23  1  0  0  0  0
 22 24  1  0  0  0  0
 24 25  1  0  0  0  0
 24 26  1  0  0  0  0
 27 24  1  0  0  0  0
 28 29  1  0  0  0  0
 28 22  1  0  0  0  0
 30 28  1  0  0  0  0
 31 28  1  0  0  0  0
 32 33  1  0  0  0  0
 32 21  1  0  0  0  0
 32 38  1  0  0  0  0
 34 32  1  0  0  0  0
 35 34  1  0  0  0  0
 36 34  1  0  0  0  0
 37 34  1  0  0  0  0
 38 40  1  0  0  0  0
 38 41  1  0  0  0  0
 39 38  1  0  0  0  0
 42  1  1  0  0  0  0
 42 51  1  0  0  0  0
 43 42  2  0  0  0  0
 44 43  1  0  0  0  0
 45 43  1  0  0  0  0
 45 47  2  0  0  0  0
 46 45  1  0  0  0  0
 47 49  1  0  0  0  0
 48 47  1  0  0  0  0
 49 51  2  0  0  0  0
 49 50  1  0  0  0  0
 51 52  1  0  0  0  0
 53  4  1  0  0  0  0
 53 62  1  0  0  0  0
 53 54  1  0  0  0  0
 54 55  1  0  0  0  0
 56 54  1  0  0  0  0
 57 54  1  0  0  0  0
 58 53  1  0  0  0  0
 59 58  1  0  0  0  0
 60 58  1  0  0  0  0
 61 58  1  0  0  0  0
 62 63  1  0  0  0  0
 64 62  1  0  0  0  0
 65 62  1  0  0  0  0
M  END
