1,18
 OpenBabel05122313053D

 52 54  0  0  1  0  0  0  0  0999 V2000
   -1.5976    0.5892    0.5298 N   0  0  0  0  0  2  0  0  0  0  0  0
    1.3099    0.9671    1.9141 C   0  0  1  0  0  0  0  0  0  0  0  0
    2.1451    0.6281    2.5669 H   0  0  0  0  0  0  0  0  0  0  0  0
    2.5686   -0.2413    0.2019 C   0  0  0  0  0  3  0  0  0  0  0  0
   -3.1152   -1.2939    0.9268 N   0  0  0  0  0  0  0  0  0  0  0  0
   -0.0000    0.3661    2.4764 C   0  0  0  0  0  0  0  0  0  0  0  0
   -0.0000   -0.7282    2.3265 H   0  0  0  0  0  0  0  0  0  0  0  0
   -0.0000    0.5464    3.5737 H   0  0  0  0  0  0  0  0  0  0  0  0
   -3.1874   -0.1750   -1.0213 N   0  0  0  0  0  0  0  0  0  0  0  0
   -1.3099    0.9671    1.9141 C   0  0  1  0  0  0  0  0  0  0  0  0
   -2.1451    0.6282    2.5669 H   0  0  0  0  0  0  0  0  0  0  0  0
    3.8808   -2.1380   -0.0012 C   0  0  0  0  0  0  0  0  0  0  0  0
    3.2255   -2.9630   -0.3647 H   0  0  0  0  0  0  0  0  0  0  0  0
    4.7739   -2.5770    0.4877 H   0  0  0  0  0  0  0  0  0  0  0  0
   -1.2596    2.5094    2.0055 C   0  0  0  0  0  0  0  0  0  0  0  0
   -2.1766    2.9220    1.5384 H   0  0  0  0  0  0  0  0  0  0  0  0
   -1.2813    2.7962    3.0813 H   0  0  0  0  0  0  0  0  0  0  0  0
    1.5976    0.5891    0.5298 N   0  0  0  0  0  2  0  0  0  0  0  0
    4.2227   -1.1847   -1.1461 C   0  0  0  0  0  0  0  0  0  0  0  0
    5.2299   -0.7171   -1.0218 H   0  0  0  0  0  0  0  0  0  0  0  0
    4.1989   -1.6812   -2.1382 H   0  0  0  0  0  0  0  0  0  0  0  0
    0.0000    3.0859    1.3512 C   0  0  0  0  0  0  0  0  0  0  0  0
    0.0001    4.1924    1.4347 H   0  0  0  0  0  0  0  0  0  0  0  0
    0.0000    2.8622    0.2616 H   0  0  0  0  0  0  0  0  0  0  0  0
    3.1875   -0.1750   -1.0212 N   0  0  0  0  0  0  0  0  0  0  0  0
    1.2596    2.5094    2.0055 C   0  0  0  0  0  0  0  0  0  0  0  0
    1.2814    2.7961    3.0813 H   0  0  0  0  0  0  0  0  0  0  0  0
    2.1767    2.9219    1.5384 H   0  0  0  0  0  0  0  0  0  0  0  0
    3.1151   -1.2940    0.9267 N   0  0  0  0  0  0  0  0  0  0  0  0
   -2.5687   -0.2412    0.2019 C   0  0  0  0  0  3  0  0  0  0  0  0
   -3.8809   -2.1380   -0.0012 C   0  0  0  0  0  0  0  0  0  0  0  0
   -4.7739   -2.5769    0.4876 H   0  0  0  0  0  0  0  0  0  0  0  0
   -3.2255   -2.9630   -0.3646 H   0  0  0  0  0  0  0  0  0  0  0  0
    2.3299   -2.0357    1.9055 C   0  0  0  0  0  0  0  0  0  0  0  0
    1.4078   -2.4484    1.4370 H   0  0  0  0  0  0  0  0  0  0  0  0
    2.0584   -1.4048    2.7690 H   0  0  0  0  0  0  0  0  0  0  0  0
    2.9527   -2.8666    2.2886 H   0  0  0  0  0  0  0  0  0  0  0  0
   -4.2226   -1.1847   -1.1462 C   0  0  0  0  0  0  0  0  0  0  0  0
   -4.1987   -1.6812   -2.1382 H   0  0  0  0  0  0  0  0  0  0  0  0
   -5.2299   -0.7171   -1.0220 H   0  0  0  0  0  0  0  0  0  0  0  0
    3.2346    1.0096   -1.8488 C   0  0  0  0  0  0  0  0  0  0  0  0
    2.9784    0.7669   -2.8991 H   0  0  0  0  0  0  0  0  0  0  0  0
    4.2528    1.4630   -1.8165 H   0  0  0  0  0  0  0  0  0  0  0  0
    2.4808    1.7337   -1.4938 H   0  0  0  0  0  0  0  0  0  0  0  0
   -3.2343    1.0095   -1.8490 C   0  0  0  0  0  0  0  0  0  0  0  0
   -2.9776    0.7668   -2.8992 H   0  0  0  0  0  0  0  0  0  0  0  0
   -2.4808    1.7338   -1.4937 H   0  0  0  0  0  0  0  0  0  0  0  0
   -4.2526    1.4628   -1.8171 H   0  0  0  0  0  0  0  0  0  0  0  0
   -2.3301   -2.0356    1.9056 C   0  0  0  0  0  0  0  0  0  0  0  0
   -2.0586   -1.4046    2.7691 H   0  0  0  0  0  0  0  0  0  0  0  0
   -1.4079   -2.4483    1.4372 H   0  0  0  0  0  0  0  0  0  0  0  0
   -2.9529   -2.8664    2.2887 H   0  0  0  0  0  0  0  0  0  0  0  0
  1 10  1  0  0  0  0
  2 26  1  0  0  0  0
  2  6  1  0  0  0  0
  2  3  1  1  0  0  0
  4 18  1  0  0  0  0
  4 29  1  0  0  0  0
  5 49  1  0  0  0  0
  6  8  1  0  0  0  0
  7  6  1  0  0  0  0
  9 30  1  0  0  0  0
 10 15  1  0  0  0  0
 10  6  1  0  0  0  0
 10 11  1  1  0  0  0
 12 14  1  0  0  0  0
 12 29  1  0  0  0  0
 13 12  1  0  0  0  0
 15 17  1  0  0  0  0
 16 15  1  0  0  0  0
 18  2  1  0  0  0  0
 19 20  1  0  0  0  0
 19 25  1  0  0  0  0
 19 12  1  0  0  0  0
 21 19  1  0  0  0  0
 22 23  1  0  0  0  0
 22 15  1  0  0  0  0
 22 26  1  0  0  0  0
 24 22  1  0  0  0  0
 25  4  1  0  0  0  0
 26 27  1  0  0  0  0
 28 26  1  0  0  0  0
 29 34  1  0  0  0  0
 30  1  1  0  0  0  0
 30  5  1  0  0  0  0
 31 32  1  0  0  0  0
 31  5  1  0  0  0  0
 33 31  1  0  0  0  0
 34 37  1  0  0  0  0
 34 36  1  0  0  0  0
 35 34  1  0  0  0  0
 38 40  1  0  0  0  0
 38  9  1  0  0  0  0
 38 31  1  0  0  0  0
 39 38  1  0  0  0  0
 41 43  1  0  0  0  0
 41 44  1  0  0  0  0
 41 25  1  0  0  0  0
 42 41  1  0  0  0  0
 45 48  1  0  0  0  0
 45 47  1  0  0  0  0
 45  9  1  0  0  0  0
 46 45  1  0  0  0  0
 49 52  1  0  0  0  0
 49 50  1  0  0  0  0
 51 49  1  0  0  0  0
M  END
