1,3
 OpenBabel05122313053D

 39 41  0  0  1  0  0  0  0  0999 V2000
   -0.8694    1.7926   -0.2219 N   0  0  0  0  0  2  0  0  0  0  0  0
   -3.1482    1.2039    0.0702 N   0  0  0  0  0  0  0  0  0  0  0  0
   -1.8816   -0.8361   -0.0808 N   0  0  0  0  0  2  0  0  0  0  0  0
   -2.1519    2.0957   -0.0918 C   0  0  2  0  0  3  0  0  0  0  0  0
   -2.5770    3.5305   -0.1474 C   0  0  0  0  0  0  0  0  0  0  0  0
   -1.6515    4.5938   -0.0658 C   0  0  0  0  0  0  0  0  0  0  0  0
   -0.5786    4.4004    0.0802 H   0  0  0  0  0  0  0  0  0  0  0  0
   -2.0856    5.9239   -0.1349 C   0  0  0  0  0  0  0  0  0  0  0  0
   -1.3483    6.7384   -0.0653 H   0  0  0  0  0  0  0  0  0  0  0  0
   -3.4516    6.2153   -0.2811 C   0  0  0  0  0  0  0  0  0  0  0  0
   -3.7915    7.2609   -0.3352 H   0  0  0  0  0  0  0  0  0  0  0  0
   -4.3810    5.1644   -0.3516 C   0  0  0  0  0  0  0  0  0  0  0  0
   -5.4538    5.3845   -0.4626 H   0  0  0  0  0  0  0  0  0  0  0  0
   -3.9490    3.8339   -0.2826 C   0  0  0  0  0  0  0  0  0  0  0  0
   -4.6532    2.9916   -0.3321 H   0  0  0  0  0  0  0  0  0  0  0  0
   -3.0224   -0.1233    0.0040 C   0  0  0  0  0  0  0  0  0  0  0  0
   -4.3548   -0.8263    0.0409 C   0  0  0  0  0  0  0  0  0  0  0  0
   -5.2522   -0.4881    1.0752 C   0  0  0  0  0  0  0  0  0  0  0  0
   -4.9427    0.2641    1.8154 H   0  0  0  0  0  0  0  0  0  0  0  0
   -6.5132   -1.0940    1.1509 C   0  0  0  0  0  0  0  0  0  0  0  0
   -7.1963   -0.8322    1.9734 H   0  0  0  0  0  0  0  0  0  0  0  0
   -6.9087   -2.0238    0.1753 C   0  0  0  0  0  0  0  0  0  0  0  0
   -7.9016   -2.4957    0.2301 H   0  0  0  0  0  0  0  0  0  0  0  0
   -6.0349   -2.3387   -0.8769 C   0  0  0  0  0  0  0  0  0  0  0  0
   -6.3436   -3.0507   -1.6574 H   0  0  0  0  0  0  0  0  0  0  0  0
   -4.7642   -1.7495   -0.9423 C   0  0  0  0  0  0  0  0  0  0  0  0
   -4.0900   -2.0042   -1.7711 H   0  0  0  0  0  0  0  0  0  0  0  0
   -1.9581   -2.2620   -0.1341 C   0  0  0  0  0  0  0  0  0  0  0  0
   -2.3290   -3.0085    1.0017 C   0  0  0  0  0  0  0  0  0  0  0  0
   -2.5664   -2.4760    1.9337 H   0  0  0  0  0  0  0  0  0  0  0  0
   -2.4142   -4.4074    0.9280 C   0  0  0  0  0  0  0  0  0  0  0  0
   -2.7162   -4.9800    1.8179 H   0  0  0  0  0  0  0  0  0  0  0  0
   -2.1185   -5.0739   -0.2716 C   0  0  0  0  0  0  0  0  0  0  0  0
   -2.1902   -6.1703   -0.3279 H   0  0  0  0  0  0  0  0  0  0  0  0
   -1.7140   -4.3333   -1.3962 C   0  0  0  0  0  0  0  0  0  0  0  0
   -1.4624   -4.8485   -2.3355 H   0  0  0  0  0  0  0  0  0  0  0  0
   -1.6230   -2.9362   -1.3271 C   0  0  0  0  0  0  0  0  0  0  0  0
   -1.3016   -2.3421   -2.1951 H   0  0  0  0  0  0  0  0  0  0  0  0
   -0.2581    2.5930   -0.4173 H   0  0  0  0  0  0  0  0  0  0  0  0
  3 16  1  0  0  0  0
  4  1  1  6  0  0  0
  4  2  1  0  0  0  0
  5  4  1  0  0  0  0
  5  6  1  0  0  0  0
  6  7  1  0  0  0  0
  8  6  2  0  0  0  0
  8  9  1  0  0  0  0
 10  8  1  0  0  0  0
 11 10  1  0  0  0  0
 12 14  1  0  0  0  0
 12 10  2  0  0  0  0
 13 12  1  0  0  0  0
 14  5  2  0  0  0  0
 15 14  1  0  0  0  0
 16 17  1  0  0  0  0
 16  2  2  0  0  0  0
 17 18  1  0  0  0  0
 18 20  2  0  0  0  0
 18 19  1  0  0  0  0
 20 21  1  0  0  0  0
 22 23  1  0  0  0  0
 22 20  1  0  0  0  0
 24 22  2  0  0  0  0
 25 24  1  0  0  0  0
 26 24  1  0  0  0  0
 26 17  2  0  0  0  0
 27 26  1  0  0  0  0
 28  3  1  0  0  0  0
 28 29  1  0  0  0  0
 29 30  1  0  0  0  0
 31 29  2  0  0  0  0
 31 32  1  0  0  0  0
 33 31  1  0  0  0  0
 34 33  1  0  0  0  0
 35 37  1  0  0  0  0
 35 33  2  0  0  0  0
 36 35  1  0  0  0  0
 37 28  2  0  0  0  0
 38 37  1  0  0  0  0
 39  1  1  0  0  0  0
M  END
