1,6
 OpenBabel05122313053D

 33 34  0  0  1  0  0  0  0  0999 V2000
   -1.2990    1.2968   -0.2746 N   0  0  0  0  0  2  0  0  0  0  0  0
   -2.2733    1.0023   -0.4038 H   0  0  0  0  0  0  0  0  0  0  0  0
   -1.1448    2.6158   -0.3372 C   0  0  1  0  0  3  0  0  0  0  0  0
    0.0165    3.2885   -0.3377 N   0  0  0  0  0  0  0  0  0  0  0  0
    1.1695    2.6247   -0.1413 C   0  0  0  0  0  0  0  0  0  0  0  0
    1.3028    1.3234    0.0916 N   0  0  0  0  0  2  0  0  0  0  0  0
    2.2539    1.0587    0.3684 H   0  0  0  0  0  0  0  0  0  0  0  0
   -2.2604    3.4466   -0.4549 N   0  0  0  0  0  0  0  0  0  0  0  0
   -2.0151    4.3934   -0.7485 H   0  0  0  0  0  0  0  0  0  0  0  0
   -3.5932    3.1883   -0.1263 C   0  0  0  0  0  0  0  0  0  0  0  0
   -4.6091    3.9630   -0.7362 C   0  0  0  0  0  0  0  0  0  0  0  0
   -4.3269    4.7232   -1.4812 H   0  0  0  0  0  0  0  0  0  0  0  0
   -5.9545    3.7653   -0.4059 C   0  0  0  0  0  0  0  0  0  0  0  0
   -6.7245    4.3813   -0.8950 H   0  0  0  0  0  0  0  0  0  0  0  0
   -6.3259    2.7857    0.5302 C   0  0  0  0  0  0  0  0  0  0  0  0
   -7.3843    2.6276    0.7832 H   0  0  0  0  0  0  0  0  0  0  0  0
   -5.3227    2.0206    1.1455 C   0  0  0  0  0  0  0  0  0  0  0  0
   -5.5896    1.2717    1.9076 H   0  0  0  0  0  0  0  0  0  0  0  0
   -3.9703    2.2133    0.8316 C   0  0  0  0  0  0  0  0  0  0  0  0
   -3.1980    1.6374    1.3602 H   0  0  0  0  0  0  0  0  0  0  0  0
    2.2768    3.4739   -0.1482 N   0  0  0  0  0  0  0  0  0  0  0  0
    1.9945    4.4543   -0.0969 H   0  0  0  0  0  0  0  0  0  0  0  0
    3.6378    3.1916   -0.0219 C   0  0  0  0  0  0  0  0  0  0  0  0
    4.2260    1.9799   -0.4645 C   0  0  0  0  0  0  0  0  0  0  0  0
    3.6172    1.2244   -0.9796 H   0  0  0  0  0  0  0  0  0  0  0  0
    5.6004    1.7589   -0.2946 C   0  0  0  0  0  0  0  0  0  0  0  0
    6.0286    0.8021   -0.6294 H   0  0  0  0  0  0  0  0  0  0  0  0
    6.4244    2.7365    0.2819 C   0  0  0  0  0  0  0  0  0  0  0  0
    7.5013    2.5543    0.4103 H   0  0  0  0  0  0  0  0  0  0  0  0
    5.8533    3.9550    0.6864 C   0  0  0  0  0  0  0  0  0  0  0  0
    6.4834    4.7398    1.1323 H   0  0  0  0  0  0  0  0  0  0  0  0
    4.4800    4.1787    0.5463 C   0  0  0  0  0  0  0  0  0  0  0  0
    4.0359    5.1267    0.8886 H   0  0  0  0  0  0  0  0  0  0  0  0
  2  1  1  0  0  0  0
  3  4  1  6  0  0  0
  3  1  1  0  0  0  0
  4  5  2  0  0  0  0
  5  6  1  0  0  0  0
  6  7  1  0  0  0  0
  8  3  1  0  0  0  0
  8 10  1  0  0  0  0
  9  8  1  0  0  0  0
 10 19  1  0  0  0  0
 11 13  1  0  0  0  0
 11 10  2  0  0  0  0
 12 11  1  0  0  0  0
 13 15  2  0  0  0  0
 14 13  1  0  0  0  0
 15 16  1  0  0  0  0
 15 17  1  0  0  0  0
 17 18  1  0  0  0  0
 19 17  2  0  0  0  0
 19 20  1  0  0  0  0
 21  5  1  0  0  0  0
 21 22  1  0  0  0  0
 21 23  1  0  0  0  0
 23 32  1  0  0  0  0
 24 26  1  0  0  0  0
 24 23  2  0  0  0  0
 25 24  1  0  0  0  0
 26 28  2  0  0  0  0
 27 26  1  0  0  0  0
 28 29  1  0  0  0  0
 28 30  1  0  0  0  0
 30 31  1  0  0  0  0
 32 30  2  0  0  0  0
 32 33  1  0  0  0  0
M  END
