3,4
 OpenBabel05122313053D

 53 55  0  0  1  0  0  0  0  0999 V2000
    1.3950    1.8669    0.5658 N   0  0  0  0  0  0  0  0  0  0  0  0
   -1.2241    1.9026    0.4808 N   0  0  0  0  0  0  0  0  0  0  0  0
   -1.4695   -0.5322   -0.7807 N   0  0  0  0  0  2  0  0  0  0  0  0
    1.3790   -0.5876   -0.7495 N   0  0  0  0  0  2  0  0  0  0  0  0
    1.3636    3.2170    0.3681 C   0  0  0  0  0  0  0  0  0  0  0  0
    2.6393    4.0058    0.2666 C   0  0  0  0  0  0  0  0  0  0  0  0
    0.1291    3.8514    0.2157 C   0  0  0  0  0  0  0  0  0  0  0  0
   -1.1568    3.2153    0.3012 C   0  0  0  0  0  0  0  0  0  0  0  0
   -2.3700    4.1047    0.1332 C   0  0  0  0  0  0  0  0  0  0  0  0
   -2.3936    1.1868    0.7019 C   0  0  0  0  0  0  0  0  0  0  0  0
   -3.4177    1.5737    1.6031 C   0  0  0  0  0  0  0  0  0  0  0  0
   -4.5500    0.7763    1.8037 C   0  0  0  0  0  0  0  0  0  0  0  0
   -4.7024   -0.4357    1.1098 C   0  0  0  0  0  0  0  0  0  0  0  0
   -3.6899   -0.8643    0.2408 C   0  0  0  0  0  0  0  0  0  0  0  0
   -2.5469   -0.0739    0.0521 C   0  0  0  0  0  0  0  0  0  0  0  0
   -1.2692   -0.0092   -1.9509 C   0  0  1  0  0  3  0  0  0  0  0  0
   -2.1833    0.9890   -2.5842 C   0  0  0  0  0  0  0  0  0  0  0  0
   -0.0230   -0.4013   -2.7346 C   0  0  1  0  0  0  0  0  0  0  0  0
    1.2309   -0.0753   -1.9345 C   0  0  1  0  0  3  0  0  0  0  0  0
    2.2175    0.8496   -2.5707 C   0  0  0  0  0  0  0  0  0  0  0  0
    2.5137   -0.2254    0.0587 C   0  0  0  0  0  0  0  0  0  0  0  0
    3.6036   -1.1001    0.1767 C   0  0  0  0  0  0  0  0  0  0  0  0
    4.7006   -0.7531    0.9770 C   0  0  0  0  0  0  0  0  0  0  0  0
    4.6902    0.4641    1.6762 C   0  0  0  0  0  0  0  0  0  0  0  0
    3.6028    1.3389    1.5627 C   0  0  0  0  0  0  0  0  0  0  0  0
    2.5016    1.0255    0.7360 C   0  0  0  0  0  0  0  0  0  0  0  0
   -0.0541   -1.8805   -3.1832 C   0  0  0  0  0  0  0  0  0  0  0  0
    3.0409    4.2625    1.2686 H   0  0  0  0  0  0  0  0  0  0  0  0
    3.4322    3.4428   -0.2648 H   0  0  0  0  0  0  0  0  0  0  0  0
    2.4556    4.9571   -0.2647 H   0  0  0  0  0  0  0  0  0  0  0  0
    0.1453    4.9319    0.0227 H   0  0  0  0  0  0  0  0  0  0  0  0
   -2.6410    4.5911    1.0936 H   0  0  0  0  0  0  0  0  0  0  0  0
   -2.1514    4.9197   -0.5833 H   0  0  0  0  0  0  0  0  0  0  0  0
   -3.2565    3.5411   -0.2138 H   0  0  0  0  0  0  0  0  0  0  0  0
   -3.2967    2.5059    2.1713 H   0  0  0  0  0  0  0  0  0  0  0  0
   -5.3238    1.1048    2.5131 H   0  0  0  0  0  0  0  0  0  0  0  0
   -5.6001   -1.0538    1.2528 H   0  0  0  0  0  0  0  0  0  0  0  0
   -3.7857   -1.8142   -0.3050 H   0  0  0  0  0  0  0  0  0  0  0  0
   -1.6855    1.9830   -2.5834 H   0  0  0  0  0  0  0  0  0  0  0  0
   -2.3624    0.7216   -3.6456 H   0  0  0  0  0  0  0  0  0  0  0  0
   -3.1452    1.0774   -2.0488 H   0  0  0  0  0  0  0  0  0  0  0  0
    0.0008    0.2305   -3.6428 H   0  0  0  0  0  0  0  0  0  0  0  0
    2.3949    0.5502   -3.6238 H   0  0  0  0  0  0  0  0  0  0  0  0
    1.7793    1.8713   -2.6015 H   0  0  0  0  0  0  0  0  0  0  0  0
    3.1763    0.8912   -2.0247 H   0  0  0  0  0  0  0  0  0  0  0  0
    3.5924   -2.0499   -0.3775 H   0  0  0  0  0  0  0  0  0  0  0  0
    5.5554   -1.4391    1.0608 H   0  0  0  0  0  0  0  0  0  0  0  0
    5.5330    0.7320    2.3297 H   0  0  0  0  0  0  0  0  0  0  0  0
    3.5870    2.2700    2.1431 H   0  0  0  0  0  0  0  0  0  0  0  0
   -0.9511   -2.0765   -3.8014 H   0  0  0  0  0  0  0  0  0  0  0  0
    0.8449   -2.1231   -3.7821 H   0  0  0  0  0  0  0  0  0  0  0  0
   -0.0807   -2.5486   -2.2938 H   0  0  0  0  0  0  0  0  0  0  0  0
    0.4026    1.4704    0.5518 H   0  0  0  0  0  0  0  0  0  0  0  0
  1 26  1  0  0  0  0
  2 10  1  0  0  0  0
  3 15  1  0  0  0  0
  4 21  1  0  0  0  0
  5  1  1  0  0  0  0
  6  5  1  0  0  0  0
  6 28  1  0  0  0  0
  7  8  1  0  0  0  0
  7  5  2  0  0  0  0
  8  2  2  0  0  0  0
  9  8  1  0  0  0  0
  9 32  1  0  0  0  0
 10 11  1  0  0  0  0
 11 12  2  0  0  0  0
 11 35  1  0  0  0  0
 12 36  1  0  0  0  0
 13 37  1  0  0  0  0
 13 12  1  0  0  0  0
 14 13  2  0  0  0  0
 15 14  1  0  0  0  0
 15 10  2  0  0  0  0
 16 17  1  1  0  0  0
 16  3  1  0  0  0  0
 17 39  1  0  0  0  0
 17 41  1  0  0  0  0
 18 42  1  6  0  0  0
 18 16  1  0  0  0  0
 18 19  1  0  0  0  0
 19 20  1  1  0  0  0
 19  4  1  0  0  0  0
 20 45  1  0  0  0  0
 21 22  2  0  0  0  0
 21 26  1  0  0  0  0
 22 23  1  0  0  0  0
 23 47  1  0  0  0  0
 23 24  2  0  0  0  0
 24 48  1  0  0  0  0
 25 24  1  0  0  0  0
 25 49  1  0  0  0  0
 26 25  2  0  0  0  0
 27 18  1  0  0  0  0
 27 52  1  0  0  0  0
 29  6  1  0  0  0  0
 30  6  1  0  0  0  0
 31  7  1  0  0  0  0
 33  9  1  0  0  0  0
 34  9  1  0  0  0  0
 38 14  1  0  0  0  0
 40 17  1  0  0  0  0
 43 20  1  0  0  0  0
 44 20  1  0  0  0  0
 46 22  1  0  0  0  0
 50 27  1  0  0  0  0
 51 27  1  0  0  0  0
 53  1  1  0  0  0  0
M  END
