2,3
 OpenBabel05122313053D

 23 23  0  0  0  0  0  0  0  0999 V2000
   -3.9298   -0.7883    0.1627 O   0  0  0  0  0  0  0  0  0  0  0  0
    1.0511    2.0321   -0.1374 N   0  0  0  0  0  0  0  0  0  0  0  0
   -1.2510    0.3551   -0.1058 N   0  0  0  0  0  0  0  0  0  0  0  0
   -0.2378    2.6018    0.3168 C   0  0  0  0  0  0  0  0  0  0  0  0
   -1.3691    1.8299   -0.3545 C   0  0  0  0  0  0  0  0  0  0  0  0
   -1.9277   -0.4458   -1.1795 C   0  0  0  0  0  0  0  0  0  0  0  0
   -3.4498   -0.3579   -1.0992 C   0  0  0  0  0  0  0  0  0  0  0  0
   -3.3772   -0.0058    1.2038 C   0  0  0  0  0  0  0  0  0  0  0  0
   -1.8491   -0.0584    1.2098 C   0  0  0  0  0  0  0  0  0  0  0  0
    1.8584    2.3103    0.4446 H   0  0  0  0  0  0  0  0  0  0  0  0
    1.2745    2.3170   -1.1045 H   0  0  0  0  0  0  0  0  0  0  0  0
   -0.2831    2.4892    1.4177 H   0  0  0  0  0  0  0  0  0  0  0  0
   -0.3277    3.6850    0.0816 H   0  0  0  0  0  0  0  0  0  0  0  0
   -1.3152    1.9785   -1.4525 H   0  0  0  0  0  0  0  0  0  0  0  0
   -2.3510    2.2244   -0.0198 H   0  0  0  0  0  0  0  0  0  0  0  0
   -1.5881   -1.4905   -1.0255 H   0  0  0  0  0  0  0  0  0  0  0  0
   -1.5424   -0.1042   -2.1602 H   0  0  0  0  0  0  0  0  0  0  0  0
   -3.8103    0.6802   -1.3202 H   0  0  0  0  0  0  0  0  0  0  0  0
   -3.8928   -1.0284   -1.8625 H   0  0  0  0  0  0  0  0  0  0  0  0
   -3.7541   -0.4190    2.1608 H   0  0  0  0  0  0  0  0  0  0  0  0
   -3.7479    1.0502    1.1346 H   0  0  0  0  0  0  0  0  0  0  0  0
   -1.4217    0.5750    2.0119 H   0  0  0  0  0  0  0  0  0  0  0  0
   -1.4959   -1.0963    1.3757 H   0  0  0  0  0  0  0  0  0  0  0  0
  1  8  1  0  0  0  0
  2  4  1  0  0  0  0
  2 10  1  0  0  0  0
  3  9  1  0  0  0  0
  4 12  1  0  0  0  0
  5  3  1  0  0  0  0
  5 15  1  0  0  0  0
  5  4  1  0  0  0  0
  6  7  1  0  0  0  0
  6 16  1  0  0  0  0
  6  3  1  0  0  0  0
  7  1  1  0  0  0  0
  8  9  1  0  0  0  0
  8 20  1  0  0  0  0
  9 23  1  0  0  0  0
  9 22  1  0  0  0  0
 11  2  1  0  0  0  0
 13  4  1  0  0  0  0
 14  5  1  0  0  0  0
 17  6  1  0  0  0  0
 18  7  1  0  0  0  0
 19  7  1  0  0  0  0
 21  8  1  0  0  0  0
M  END
