1,2
 OpenBabel05122313053D

 50 54  0  0  1  0  0  0  0  0999 V2000
    3.0192   -2.2213   -0.2878 N   0  0  0  0  0  0  0  0  0  0  0  0
    0.3433   -1.1871   -0.2382 N   0  0  0  0  0  0  0  0  0  0  0  0
    4.2411   -2.3995    0.5281 C   0  0  0  0  0  0  0  0  0  0  0  0
    4.5366   -3.4731    0.5475 H   0  0  0  0  0  0  0  0  0  0  0  0
    4.0605   -2.0101    1.5464 H   0  0  0  0  0  0  0  0  0  0  0  0
    5.0511   -1.7979    0.0800 H   0  0  0  0  0  0  0  0  0  0  0  0
    3.3128   -2.5381   -1.7018 C   0  0  0  0  0  0  0  0  0  0  0  0
    2.4186   -2.3823   -2.3313 H   0  0  0  0  0  0  0  0  0  0  0  0
    3.6639   -3.5913   -1.8058 H   0  0  0  0  0  0  0  0  0  0  0  0
    4.0999   -1.8489   -2.0576 H   0  0  0  0  0  0  0  0  0  0  0  0
    1.9117   -3.0439    0.2659 C   0  0  0  0  0  0  0  0  0  0  0  0
    1.8940   -2.8615    1.3587 H   0  0  0  0  0  0  0  0  0  0  0  0
    2.1123   -4.1308    0.1087 H   0  0  0  0  0  0  0  0  0  0  0  0
    0.5818   -2.6587   -0.3585 C   0  0  0  0  0  0  0  0  0  0  0  0
   -0.2392   -3.2434    0.1092 H   0  0  0  0  0  0  0  0  0  0  0  0
    0.5758   -2.9109   -1.4367 H   0  0  0  0  0  0  0  0  0  0  0  0
   -0.5973   -0.7065   -1.2975 C   0  0  0  0  0  0  0  0  0  0  0  0
   -0.3079   -1.1345   -2.2751 H   0  0  0  0  0  0  0  0  0  0  0  0
   -0.4711    0.3882   -1.3786 H   0  0  0  0  0  0  0  0  0  0  0  0
   -2.0042   -1.1004   -0.8125 C   0  0  2  0  0  0  0  0  0  0  0  0
   -2.2969   -2.0906   -1.2156 H   0  0  0  0  0  0  0  0  0  0  0  0
   -3.1328   -0.0844   -1.1847 C   0  0  1  0  0  0  0  0  0  0  0  0
   -3.2527   -0.0027   -2.2823 H   0  0  0  0  0  0  0  0  0  0  0  0
   -4.3900   -0.5995   -0.5044 C   0  0  0  0  0  0  0  0  0  0  0  0
   -5.5781   -0.9932   -1.1301 C   0  0  0  0  0  0  0  0  0  0  0  0
   -5.6712   -0.9318   -2.2260 H   0  0  0  0  0  0  0  0  0  0  0  0
   -6.6520   -1.4601   -0.3492 C   0  0  0  0  0  0  0  0  0  0  0  0
   -7.5907   -1.7647   -0.8366 H   0  0  0  0  0  0  0  0  0  0  0  0
   -6.5321   -1.5338    1.0470 C   0  0  0  0  0  0  0  0  0  0  0  0
   -7.3769   -1.8960    1.6524 H   0  0  0  0  0  0  0  0  0  0  0  0
   -5.3368   -1.1413    1.6782 C   0  0  0  0  0  0  0  0  0  0  0  0
   -5.2416   -1.1955    2.7742 H   0  0  0  0  0  0  0  0  0  0  0  0
   -4.2692   -0.6739    0.9037 C   0  0  0  0  0  0  0  0  0  0  0  0
   -2.9105   -0.2192    1.4104 C   0  0  2  0  0  0  0  0  0  0  0  0
   -2.8428   -0.2535    2.5151 H   0  0  0  0  0  0  0  0  0  0  0  0
   -2.6657    1.1740    0.8623 C   0  0  0  0  0  0  0  0  0  0  0  0
   -2.3443    2.3175    1.6028 C   0  0  0  0  0  0  0  0  0  0  0  0
   -2.2458    2.2574    2.6980 H   0  0  0  0  0  0  0  0  0  0  0  0
   -2.1541    3.5413    0.9368 C   0  0  0  0  0  0  0  0  0  0  0  0
   -1.9083    4.4452    1.5142 H   0  0  0  0  0  0  0  0  0  0  0  0
   -2.2664    3.6121   -0.4603 C   0  0  0  0  0  0  0  0  0  0  0  0
   -2.1047    4.5704   -0.9757 H   0  0  0  0  0  0  0  0  0  0  0  0
   -2.5713    2.4611   -1.2080 C   0  0  0  0  0  0  0  0  0  0  0  0
   -2.6413    2.5122   -2.3054 H   0  0  0  0  0  0  0  0  0  0  0  0
   -2.7817    1.2463   -0.5452 C   0  0  0  0  0  0  0  0  0  0  0  0
   -1.8708   -1.1818    0.7474 C   0  0  2  0  0  0  0  0  0  0  0  0
   -2.1059   -2.2081    1.0933 H   0  0  0  0  0  0  0  0  0  0  0  0
   -0.3932   -0.8377    1.0199 C   0  0  0  0  0  0  0  0  0  0  0  0
   -0.2510    0.2512    1.1652 H   0  0  0  0  0  0  0  0  0  0  0  0
    0.0538   -1.3642    1.8841 H   0  0  0  0  0  0  0  0  0  0  0  0
  1 11  1  0  0  0  0
  1  3  1  0  0  0  0
  2 48  1  0  0  0  0
  3  4  1  0  0  0  0
  3  5  1  0  0  0  0
  6  3  1  0  0  0  0
  7  1  1  0  0  0  0
  8  7  1  0  0  0  0
  9  7  1  0  0  0  0
 10  7  1  0  0  0  0
 11 12  1  0  0  0  0
 13 11  1  0  0  0  0
 14  2  1  0  0  0  0
 14 15  1  0  0  0  0
 14 11  1  0  0  0  0
 16 14  1  0  0  0  0
 17 20  1  0  0  0  0
 17  2  1  0  0  0  0
 18 17  1  0  0  0  0
 19 17  1  0  0  0  0
 20 21  1  6  0  0  0
 20 46  1  0  0  0  0
 22 23  1  6  0  0  0
 22 20  1  0  0  0  0
 22 45  1  0  0  0  0
 22 24  1  0  0  0  0
 24 33  1  0  0  0  0
 25 24  2  0  0  0  0
 25 27  1  0  0  0  0
 26 25  1  0  0  0  0
 27 29  2  0  0  0  0
 28 27  1  0  0  0  0
 29 30  1  0  0  0  0
 29 31  1  0  0  0  0
 31 32  1  0  0  0  0
 33 34  1  0  0  0  0
 33 31  2  0  0  0  0
 34 35  1  1  0  0  0
 36 34  1  0  0  0  0
 36 37  1  0  0  0  0
 37 38  1  0  0  0  0
 39 40  1  0  0  0  0
 39 37  2  0  0  0  0
 41 39  1  0  0  0  0
 42 41  1  0  0  0  0
 43 45  1  0  0  0  0
 43 41  2  0  0  0  0
 44 43  1  0  0  0  0
 45 36  2  0  0  0  0
 46 48  1  0  0  0  0
 46 47  1  1  0  0  0
 46 34  1  0  0  0  0
 48 49  1  0  0  0  0
 48 50  1  0  0  0  0
M  END
