1,2
 OpenBabel05122313053D

 63 66  0  0  0  0  0  0  0  0999 V2000
   -1.4768    1.3476   -0.2243 N   0  0  0  0  0  0  0  0  0  0  0  0
    1.4067    1.4576   -0.4704 N   0  0  0  0  0  0  0  0  0  0  0  0
   -0.1107    3.5082   -0.4547 C   0  0  0  0  0  0  0  0  0  0  0  0
    0.4772    4.1229    0.8475 C   0  0  0  0  0  0  0  0  0  0  0  0
    0.8043    3.3244    1.5419 H   0  0  0  0  0  0  0  0  0  0  0  0
   -0.2790    4.7471    1.3657 H   0  0  0  0  0  0  0  0  0  0  0  0
    1.3594    4.7502    0.6086 H   0  0  0  0  0  0  0  0  0  0  0  0
   -0.4761    4.6551   -1.4206 C   0  0  0  0  0  0  0  0  0  0  0  0
   -0.8849    4.2586   -2.3700 H   0  0  0  0  0  0  0  0  0  0  0  0
    0.4153    5.2727   -1.6488 H   0  0  0  0  0  0  0  0  0  0  0  0
   -1.2381    5.3169   -0.9654 H   0  0  0  0  0  0  0  0  0  0  0  0
   -1.3897    2.7329   -0.1246 C   0  0  0  0  0  0  0  0  0  0  0  0
   -2.6277    3.2132    0.3183 C   0  0  0  0  0  0  0  0  0  0  0  0
   -2.8970    4.2663    0.4658 H   0  0  0  0  0  0  0  0  0  0  0  0
   -3.4908    2.0879    0.4948 C   0  0  0  0  0  0  0  0  0  0  0  0
   -4.5506    2.1070    0.7778 H   0  0  0  0  0  0  0  0  0  0  0  0
   -2.7642    0.9427    0.1561 C   0  0  0  0  0  3  0  0  0  0  0  0
   -2.9861   -0.9930    2.4228 C   0  0  0  0  0  0  0  0  0  0  0  0
   -1.8899   -0.8391    2.5258 H   0  0  0  0  0  0  0  0  0  0  0  0
   -3.2908   -1.7729    3.1470 H   0  0  0  0  0  0  0  0  0  0  0  0
   -3.4627   -0.0356    2.7097 H   0  0  0  0  0  0  0  0  0  0  0  0
   -3.4063    0.1116   -2.5234 C   0  0  0  0  0  0  0  0  0  0  0  0
   -3.7598   -0.3299   -3.4747 H   0  0  0  0  0  0  0  0  0  0  0  0
   -2.3572    0.4464   -2.6597 H   0  0  0  0  0  0  0  0  0  0  0  0
   -3.9890    1.0330   -2.3195 H   0  0  0  0  0  0  0  0  0  0  0  0
   -4.5193   -4.5374   -0.8450 C   0  0  0  0  0  0  0  0  0  0  0  0
   -4.0777   -5.2600   -0.1303 H   0  0  0  0  0  0  0  0  0  0  0  0
   -4.2639   -4.8656   -1.8719 H   0  0  0  0  0  0  0  0  0  0  0  0
   -5.6236   -4.6143   -0.7437 H   0  0  0  0  0  0  0  0  0  0  0  0
    0.9595    2.6290   -1.0874 C   0  0  0  0  0  3  0  0  0  0  0  0
    1.7245    2.8434   -2.2347 C   0  0  0  0  0  0  0  0  0  0  0  0
    1.6316    3.6888   -2.9252 H   0  0  0  0  0  0  0  0  0  0  0  0
    2.6677    1.7738   -2.3280 C   0  0  0  0  0  0  0  0  0  0  0  0
    3.4432    1.6453   -3.0926 H   0  0  0  0  0  0  0  0  0  0  0  0
    2.7457   -1.4404   -3.0163 C   0  0  0  0  0  0  0  0  0  0  0  0
    2.5143   -2.4635   -3.3732 H   0  0  0  0  0  0  0  0  0  0  0  0
    3.5278   -1.0285   -3.6894 H   0  0  0  0  0  0  0  0  0  0  0  0
    1.8561   -0.7952   -3.1500 H   0  0  0  0  0  0  0  0  0  0  0  0
    2.4567    0.9356   -1.2312 C   0  0  0  0  0  0  0  0  0  0  0  0
    3.9235    0.9818    1.3033 C   0  0  0  0  0  0  0  0  0  0  0  0
    4.4031    0.7928    2.2833 H   0  0  0  0  0  0  0  0  0  0  0  0
    2.9721    1.5212    1.4674 H   0  0  0  0  0  0  0  0  0  0  0  0
    4.5676    1.6830    0.7318 H   0  0  0  0  0  0  0  0  0  0  0  0
    4.7824   -3.9849    0.8517 C   0  0  0  0  0  0  0  0  0  0  0  0
    5.0955   -4.6961    0.0622 H   0  0  0  0  0  0  0  0  0  0  0  0
    3.9968   -4.4908    1.4551 H   0  0  0  0  0  0  0  0  0  0  0  0
    5.6456   -3.8161    1.5264 H   0  0  0  0  0  0  0  0  0  0  0  0
   -3.2172   -0.4592   -0.0549 C   0  0  0  0  0  0  0  0  0  0  0  0
   -3.3343   -1.3883    1.0105 C   0  0  0  0  0  0  0  0  0  0  0  0
   -3.7405   -2.7059    0.7293 C   0  0  0  0  0  0  0  0  0  0  0  0
   -3.8216   -3.4249    1.5614 H   0  0  0  0  0  0  0  0  0  0  0  0
   -4.0482   -3.1298   -0.5765 C   0  0  0  0  0  0  0  0  0  0  0  0
   -3.9350   -2.1910   -1.6177 C   0  0  0  0  0  0  0  0  0  0  0  0
   -4.1709   -2.4987   -2.6498 H   0  0  0  0  0  0  0  0  0  0  0  0
   -3.5259   -0.8660   -1.3819 C   0  0  0  0  0  0  0  0  0  0  0  0
    3.1523   -0.2859   -0.7742 C   0  0  0  0  0  0  0  0  0  0  0  0
    3.7492   -0.3007    0.5221 C   0  0  0  0  0  0  0  0  0  0  0  0
    4.2749   -1.5034    1.0235 C   0  0  0  0  0  0  0  0  0  0  0  0
    4.7300   -1.5063    2.0283 H   0  0  0  0  0  0  0  0  0  0  0  0
    4.2703   -2.6920    0.2679 C   0  0  0  0  0  0  0  0  0  0  0  0
    3.7687   -2.6310   -1.0433 C   0  0  0  0  0  0  0  0  0  0  0  0
    3.7953   -3.5377   -1.6704 H   0  0  0  0  0  0  0  0  0  0  0  0
    3.2229   -1.4508   -1.5850 C   0  0  0  0  0  0  0  0  0  0  0  0
  1 12  2  0  0  0  0
  1 17  1  0  0  0  0
  3 12  1  0  0  0  0
  3  4  1  0  0  0  0
  4  6  1  0  0  0  0
  4  5  1  0  0  0  0
  7  4  1  0  0  0  0
  8 11  1  0  0  0  0
  8  3  1  0  0  0  0
  9  8  1  0  0  0  0
 10  8  1  0  0  0  0
 12 13  1  0  0  0  0
 13 14  1  0  0  0  0
 13 15  2  0  0  0  0
 15 16  1  0  0  0  0
 17 15  1  0  0  0  0
 18 19  1  0  0  0  0
 18 21  1  0  0  0  0
 18 20  1  0  0  0  0
 22 25  1  0  0  0  0
 22 55  1  0  0  0  0
 23 22  1  0  0  0  0
 24 22  1  0  0  0  0
 26 29  1  0  0  0  0
 26 52  1  0  0  0  0
 26 27  1  0  0  0  0
 28 26  1  0  0  0  0
 30  2  1  0  0  0  0
 30  3  1  0  0  0  0
 31 30  1  0  0  0  0
 32 31  1  0  0  0  0
 33 31  2  0  0  0  0
 33 39  1  0  0  0  0
 34 33  1  0  0  0  0
 35 63  1  0  0  0  0
 36 35  1  0  0  0  0
 37 35  1  0  0  0  0
 38 35  1  0  0  0  0
 39 56  1  0  0  0  0
 39  2  2  0  0  0  0
 40 42  1  0  0  0  0
 40 41  1  0  0  0  0
 43 40  1  0  0  0  0
 44 46  1  0  0  0  0
 44 47  1  0  0  0  0
 45 44  1  0  0  0  0
 48 17  1  0  0  0  0
 48 49  1  0  0  0  0
 49 18  1  0  0  0  0
 50 49  2  0  0  0  0
 50 51  1  0  0  0  0
 52 50  1  0  0  0  0
 53 55  1  0  0  0  0
 53 52  2  0  0  0  0
 54 53  1  0  0  0  0
 55 48  2  0  0  0  0
 56 57  1  0  0  0  0
 57 58  2  0  0  0  0
 57 40  1  0  0  0  0
 58 59  1  0  0  0  0
 60 44  1  0  0  0  0
 60 58  1  0  0  0  0
 61 60  2  0  0  0  0
 62 61  1  0  0  0  0
 63 61  1  0  0  0  0
 63 56  2  0  0  0  0
M  END
