1,4
 OpenBabel05122313053D

 40 42  0  0  1  0  0  0  0  0999 V2000
    1.6662    0.9662    0.1815 N   0  0  0  0  0  2  0  0  0  0  0  0
    2.5913    3.2022   -0.0253 N   0  0  0  0  0  0  0  0  0  0  0  0
    0.6596    2.9051    1.0747 N   0  0  0  0  0  0  0  0  0  0  0  0
    1.3647   -1.2366   -1.3417 N   0  0  0  0  0  2  0  0  0  0  0  0
    1.6759    2.2682    0.4068 C   0  0  0  0  0  3  0  0  0  0  0  0
    3.4932    2.9899   -1.1430 C   0  0  0  0  0  0  0  0  0  0  0  0
    3.2040    2.0819   -1.7048 H   0  0  0  0  0  0  0  0  0  0  0  0
    4.5477    2.8684   -0.8173 H   0  0  0  0  0  0  0  0  0  0  0  0
    3.4352    3.8596   -1.8292 H   0  0  0  0  0  0  0  0  0  0  0  0
   -0.2874    2.2226    1.9279 C   0  0  0  0  0  0  0  0  0  0  0  0
   -0.4493    1.1994    1.5393 H   0  0  0  0  0  0  0  0  0  0  0  0
   -1.2562    2.7596    1.9117 H   0  0  0  0  0  0  0  0  0  0  0  0
    0.0703    2.1609    2.9813 H   0  0  0  0  0  0  0  0  0  0  0  0
    2.1117    4.5532    0.2774 C   0  0  0  0  0  0  0  0  0  0  0  0
    1.7093    5.0266   -0.6486 H   0  0  0  0  0  0  0  0  0  0  0  0
    2.9232    5.2013    0.6645 H   0  0  0  0  0  0  0  0  0  0  0  0
    1.0056    4.3012    1.3127 C   0  0  0  0  0  0  0  0  0  0  0  0
    1.3779    4.4344    2.3559 H   0  0  0  0  0  0  0  0  0  0  0  0
    0.1289    4.9665    1.1779 H   0  0  0  0  0  0  0  0  0  0  0  0
    1.1527   -2.3564   -2.0430 C   0  0  0  0  0  0  0  0  0  0  0  0
    0.1425   -2.4888   -2.4622 H   0  0  0  0  0  0  0  0  0  0  0  0
    2.1595   -3.3262   -2.2577 C   0  0  0  0  0  0  0  0  0  0  0  0
    1.9303   -4.2232   -2.8508 H   0  0  0  0  0  0  0  0  0  0  0  0
    3.4241   -3.1204   -1.7241 C   0  0  0  0  0  0  0  0  0  0  0  0
    4.2298   -3.8544   -1.8784 H   0  0  0  0  0  0  0  0  0  0  0  0
    3.6885   -1.9450   -0.9622 C   0  0  0  0  0  0  0  0  0  0  0  0
    4.9496   -1.6597   -0.3708 C   0  0  0  0  0  0  0  0  0  0  0  0
    5.7787   -2.3698   -0.5125 H   0  0  0  0  0  0  0  0  0  0  0  0
    5.1360   -0.5026    0.3853 C   0  0  0  0  0  0  0  0  0  0  0  0
    4.0520    0.4005    0.5621 C   0  0  0  0  0  0  0  0  0  0  0  0
    4.2017    1.2967    1.1839 H   0  0  0  0  0  0  0  0  0  0  0  0
    2.7932    0.1798   -0.0133 C   0  0  0  0  0  0  0  0  0  0  0  0
    2.6041   -1.0205   -0.7911 C   0  0  2  0  0  3  0  0  0  0  0  0
    6.4518   -0.2229    1.0761 C   0  0  0  0  0  0  0  0  0  0  0  0
    7.2607   -0.7847    0.5658 H   0  0  0  0  0  0  0  0  0  0  0  0
    6.7008    0.8545    0.9665 H   0  0  0  0  0  0  0  0  0  0  0  0
    6.4275   -0.5914    2.5677 C   0  0  0  0  0  0  0  0  0  0  0  0
    7.4004   -0.3680    3.0489 H   0  0  0  0  0  0  0  0  0  0  0  0
    6.2165   -1.6708    2.7065 H   0  0  0  0  0  0  0  0  0  0  0  0
    5.6427   -0.0259    3.1105 H   0  0  0  0  0  0  0  0  0  0  0  0
  1  5  1  0  0  0  0
  2 14  1  0  0  0  0
  2  5  1  0  0  0  0
  3 17  1  0  0  0  0
  3 10  1  0  0  0  0
  5  3  1  0  0  0  0
  6  8  1  0  0  0  0
  6  2  1  0  0  0  0
  7  6  1  0  0  0  0
  9  6  1  0  0  0  0
 10 13  1  0  0  0  0
 11 10  1  0  0  0  0
 12 10  1  0  0  0  0
 14 16  1  0  0  0  0
 14 17  1  0  0  0  0
 15 14  1  0  0  0  0
 17 18  1  0  0  0  0
 19 17  1  0  0  0  0
 20  4  1  0  0  0  0
 21 20  1  0  0  0  0
 22 20  2  0  0  0  0
 22 24  1  0  0  0  0
 23 22  1  0  0  0  0
 24 26  2  0  0  0  0
 25 24  1  0  0  0  0
 26 33  1  0  0  0  0
 26 27  1  0  0  0  0
 27 29  2  0  0  0  0
 28 27  1  0  0  0  0
 29 30  1  0  0  0  0
 29 34  1  0  0  0  0
 30 31  1  0  0  0  0
 32  1  1  0  0  0  0
 32 30  2  0  0  0  0
 33  4  1  1  0  0  0
 33 32  1  0  0  0  0
 34 37  1  0  0  0  0
 35 34  1  0  0  0  0
 36 34  1  0  0  0  0
 37 39  1  0  0  0  0
 37 38  1  0  0  0  0
 37 40  1  0  0  0  0
M  END
