1,3
 OpenBabel05122313053D

 33 35  0  0  0  0  0  0  0  0999 V2000
    0.0161    0.6780   -0.0496 N   0  0  0  0  0  2  0  0  0  0  0  0
   -0.7109    1.7619   -0.1839 N   0  0  0  0  0  0  0  0  0  0  0  0
   -2.4616    0.1729   -0.3410 N   0  0  0  0  0  2  0  0  0  0  0  0
   -3.0627    2.3130   -0.5175 N   0  0  0  0  0  0  0  0  0  0  0  0
   -2.0143    1.4526   -0.3207 C   0  0  0  0  0  0  0  0  0  0  0  0
   -3.8144    0.2035   -0.5407 C   0  0  0  0  0  0  0  0  0  0  0  0
   -4.4015   -0.7195   -0.5892 H   0  0  0  0  0  0  0  0  0  0  0  0
   -4.1986    1.5369   -0.6472 C   0  0  0  0  0  0  0  0  0  0  0  0
   -5.1828    1.9865   -0.8117 H   0  0  0  0  0  0  0  0  0  0  0  0
   -2.9704    3.7719   -0.4832 C   0  0  0  0  0  0  0  0  0  0  0  0
   -1.9947    4.0405   -0.9340 H   0  0  0  0  0  0  0  0  0  0  0  0
   -3.7657    4.1667   -1.1462 H   0  0  0  0  0  0  0  0  0  0  0  0
   -3.0878    4.3369    0.9306 C   0  0  0  0  0  0  0  0  0  0  0  0
   -4.0574    4.0671    1.3941 H   0  0  0  0  0  0  0  0  0  0  0  0
   -3.0131    5.4419    0.9037 H   0  0  0  0  0  0  0  0  0  0  0  0
   -2.2732    3.9523    1.5754 H   0  0  0  0  0  0  0  0  0  0  0  0
    1.4068    0.9088    0.0466 C   0  0  0  0  0  0  0  0  0  0  0  0
    2.2989   -0.0462   -0.4461 C   0  0  0  0  0  0  0  0  0  0  0  0
    1.9153   -0.9641   -0.9076 H   0  0  0  0  0  0  0  0  0  0  0  0
    3.6999    0.1781   -0.3735 C   0  0  0  0  0  0  0  0  0  0  0  0
    4.6314   -0.7841   -0.8644 C   0  0  0  0  0  0  0  0  0  0  0  0
    4.2435   -1.7175   -1.2996 H   0  0  0  0  0  0  0  0  0  0  0  0
    5.9966   -0.5534   -0.7782 C   0  0  0  0  0  0  0  0  0  0  0  0
    6.7074   -1.3038   -1.1553 H   0  0  0  0  0  0  0  0  0  0  0  0
    6.4834    0.6488   -0.1991 C   0  0  0  0  0  0  0  0  0  0  0  0
    7.5686    0.8214   -0.1357 H   0  0  0  0  0  0  0  0  0  0  0  0
    5.6002    1.6043    0.2890 C   0  0  0  0  0  0  0  0  0  0  0  0
    5.9784    2.5347    0.7404 H   0  0  0  0  0  0  0  0  0  0  0  0
    4.1954    1.3985    0.2151 C   0  0  0  0  0  0  0  0  0  0  0  0
    3.2506    2.3548    0.7032 C   0  0  0  0  0  0  0  0  0  0  0  0
    3.6259    3.2826    1.1623 H   0  0  0  0  0  0  0  0  0  0  0  0
    1.8927    2.1279    0.6174 C   0  0  0  0  0  0  0  0  0  0  0  0
    1.1638    2.8571    0.9940 H   0  0  0  0  0  0  0  0  0  0  0  0
  1 17  1  0  0  0  0
  2  1  1  0  0  0  0
  3  5  1  0  0  0  0
  4 10  1  0  0  0  0
  4  5  1  0  0  0  0
  5  2  2  0  0  0  0
  6  3  1  0  0  0  0
  7  6  1  0  0  0  0
  8  6  2  0  0  0  0
  8  4  1  0  0  0  0
  9  8  1  0  0  0  0
 10 13  1  0  0  0  0
 11 10  1  0  0  0  0
 12 10  1  0  0  0  0
 13 14  1  0  0  0  0
 13 16  1  0  0  0  0
 15 13  1  0  0  0  0
 17 32  1  0  0  0  0
 18 20  1  0  0  0  0
 18 17  2  0  0  0  0
 19 18  1  0  0  0  0
 20 29  1  0  0  0  0
 21 23  1  0  0  0  0
 21 20  2  0  0  0  0
 22 21  1  0  0  0  0
 23 25  2  0  0  0  0
 24 23  1  0  0  0  0
 25 26  1  0  0  0  0
 25 27  1  0  0  0  0
 27 28  1  0  0  0  0
 29 27  2  0  0  0  0
 29 30  1  0  0  0  0
 30 31  1  0  0  0  0
 32 30  2  0  0  0  0
 32 33  1  0  0  0  0
M  END
