1,2
 OpenBabel05122313053D

 26 27  0  0  1  0  0  0  0  0999 V2000
    1.4342   -0.0561   -0.3336 N   0  0  0  0  0  2  0  0  0  0  0  0
   -1.4344   -0.0560   -0.3331 N   0  0  0  0  0  2  0  0  0  0  0  0
    2.2478   -2.2765   -0.0349 N   0  0  0  0  0  0  0  0  0  0  0  0
   -0.0001   -1.8855    0.1184 N   0  0  0  0  0  0  0  0  0  0  0  0
    3.7741   -0.4982   -0.5933 N   0  0  0  0  0  0  0  0  0  0  0  0
   -3.7743   -0.4980   -0.5930 N   0  0  0  0  0  0  0  0  0  0  0  0
    1.2691   -1.3707   -0.0882 C   0  0  2  0  0  3  0  0  0  0  0  0
   -2.9049    1.6211   -0.9437 N   0  0  0  0  0  0  0  0  0  0  0  0
   -1.2693   -1.3707   -0.0880 C   0  0  0  0  0  0  0  0  0  0  0  0
   -3.4872   -1.7719   -0.2628 C   0  0  0  0  0  0  0  0  0  0  0  0
   -2.7188    0.3302   -0.6201 C   0  0  1  0  0  3  0  0  0  0  0  0
    2.9047    1.6209   -0.9444 N   0  0  0  0  0  0  0  0  0  0  0  0
   -2.2481   -2.2764   -0.0348 N   0  0  0  0  0  0  0  0  0  0  0  0
   -4.5212   -2.6391   -0.1688 N   0  0  0  0  0  0  0  0  0  0  0  0
    2.7186    0.3300   -0.6205 C   0  0  0  0  0  0  0  0  0  0  0  0
    3.4869   -1.7720   -0.2630 C   0  0  0  0  0  0  0  0  0  0  0  0
    4.5209   -2.6392   -0.1689 N   0  0  0  0  0  0  0  0  0  0  0  0
   -0.0001   -2.8888    0.3192 H   0  0  0  0  0  0  0  0  0  0  0  0
   -5.4695   -2.2970   -0.3052 H   0  0  0  0  0  0  0  0  0  0  0  0
    5.4693   -2.2972   -0.3052 H   0  0  0  0  0  0  0  0  0  0  0  0
   -4.3404   -3.6016    0.1059 H   0  0  0  0  0  0  0  0  0  0  0  0
    4.3402   -3.6017    0.1060 H   0  0  0  0  0  0  0  0  0  0  0  0
    2.0994    2.2650   -1.0131 H   0  0  0  0  0  0  0  0  0  0  0  0
   -3.8544    1.9381   -1.1274 H   0  0  0  0  0  0  0  0  0  0  0  0
    3.8543    1.9379   -1.1278 H   0  0  0  0  0  0  0  0  0  0  0  0
   -2.0996    2.2652   -1.0126 H   0  0  0  0  0  0  0  0  0  0  0  0
  1  7  1  0  0  0  0
  2  9  1  0  0  0  0
  4 18  1  0  0  0  0
  5 16  1  0  0  0  0
  6 10  2  0  0  0  0
  7  3  1  0  0  0  0
  7  4  1  6  0  0  0
  9 13  2  0  0  0  0
  9  4  1  0  0  0  0
 10 14  1  0  0  0  0
 10 13  1  0  0  0  0
 11  8  1  1  0  0  0
 11  6  1  0  0  0  0
 11  2  1  0  0  0  0
 12 15  1  0  0  0  0
 14 21  1  0  0  0  0
 15  5  2  0  0  0  0
 15  1  1  0  0  0  0
 16 17  1  0  0  0  0
 16  3  2  0  0  0  0
 17 22  1  0  0  0  0
 19 14  1  0  0  0  0
 20 17  1  0  0  0  0
 23 12  1  0  0  0  0
 24  8  1  0  0  0  0
 25 12  1  0  0  0  0
 26  8  1  0  0  0  0
M  END
