3,4
 OpenBabel05122313053D

 25 26  0  0  0  0  0  0  0  0999 V2000
   -6.3754    0.4109   -0.3635 O   0  0  0  0  0  0  0  0  0  0  0  0
   -6.6043   -0.5050   -0.6102 H   0  0  0  0  0  0  0  0  0  0  0  0
    1.8687    1.1720   -0.0414 N   0  0  0  0  0  2  0  0  0  0  0  0
   -0.8296    1.0194   -0.1794 N   0  0  0  0  0  2  0  0  0  0  0  0
    3.2105    1.1737   -0.0393 C   0  0  0  0  0  3  0  0  0  0  0  0
    3.6914    0.3231    0.4671 H   0  0  0  0  0  0  0  0  0  0  0  0
    3.9590    2.1909   -0.6476 C   0  0  0  0  0  0  0  0  0  0  0  0
    5.0570    2.1489   -0.6209 H   0  0  0  0  0  0  0  0  0  0  0  0
    3.2834    3.2445   -1.2838 C   0  0  0  0  0  0  0  0  0  0  0  0
    3.8427    4.0575   -1.7697 H   0  0  0  0  0  0  0  0  0  0  0  0
    1.8850    3.2381   -1.2979 C   0  0  0  0  0  0  0  0  0  0  0  0
    1.3141    4.0344   -1.7972 H   0  0  0  0  0  0  0  0  0  0  0  0
    1.1984    2.1802   -0.6689 C   0  0  0  0  0  0  0  0  0  0  0  0
   -0.2521    2.0642   -0.7011 C   0  0  0  0  0  3  0  0  0  0  0  0
   -0.8368    2.8371   -1.2356 H   0  0  0  0  0  0  0  0  0  0  0  0
   -2.2298    0.8761   -0.2209 C   0  0  0  0  0  0  0  0  0  0  0  0
   -3.0981    1.9525    0.0738 C   0  0  0  0  0  0  0  0  0  0  0  0
   -2.6774    2.9209    0.3838 H   0  0  0  0  0  0  0  0  0  0  0  0
   -4.4823    1.7791    0.0302 C   0  0  0  0  0  0  0  0  0  0  0  0
   -5.1685    2.5990    0.2855 H   0  0  0  0  0  0  0  0  0  0  0  0
   -5.0243    0.5267   -0.3297 C   0  0  0  0  0  0  0  0  0  0  0  0
   -4.1576   -0.5473   -0.6283 C   0  0  0  0  0  0  0  0  0  0  0  0
   -4.5763   -1.5252   -0.9176 H   0  0  0  0  0  0  0  0  0  0  0  0
   -2.7737   -0.3832   -0.5579 C   0  0  0  0  0  0  0  0  0  0  0  0
   -2.0844   -1.2042   -0.8106 H   0  0  0  0  0  0  0  0  0  0  0  0
  1 21  1  0  0  0  0
  2  1  1  0  0  0  0
  3  5  1  0  0  0  0
  5  6  1  0  0  0  0
  7  8  1  0  0  0  0
  7  5  1  0  0  0  0
  9  7  2  0  0  0  0
 10  9  1  0  0  0  0
 11  9  1  0  0  0  0
 11 13  2  0  0  0  0
 12 11  1  0  0  0  0
 13  3  1  0  0  0  0
 14 13  1  0  0  0  0
 14  4  1  0  0  0  0
 15 14  1  0  0  0  0
 16  4  1  0  0  0  0
 16 17  1  0  0  0  0
 17 18  1  0  0  0  0
 19 17  2  0  0  0  0
 19 20  1  0  0  0  0
 21 19  1  0  0  0  0
 22 24  1  0  0  0  0
 22 21  2  0  0  0  0
 23 22  1  0  0  0  0
 24 16  2  0  0  0  0
 25 24  1  0  0  0  0
M  END
