7,10
 OpenBabel05122313053D

 55 55  0  0  0  0  0  0  0  0999 V2000
   -0.0514   -0.6560   -1.0974 P   0  0  1  0  0  0  0  0  0  0  0  0
    0.1722    0.9830   -0.6562 N   0  0  0  0  0  0  0  0  0  0  0  0
    1.6270    1.5768   -0.0291 P   0  0  0  0  0  4  0  0  0  0  0  0
    2.4555    0.4792    0.8160 N   0  0  0  0  0  2  0  0  0  0  0  0
    2.4440   -1.0769    0.3030 P   0  0  0  0  0  4  0  0  0  0  0  0
    1.3337   -1.4501   -0.8267 N   0  0  0  0  0  2  0  0  0  0  0  0
   -1.2075   -1.1328    0.2295 N   0  0  0  0  0  0  0  0  0  0  0  0
   -1.5569   -2.5824    0.2008 C   0  0  0  0  0  0  0  0  0  0  0  0
   -2.5553   -2.8241   -0.9286 C   0  0  0  0  0  0  0  0  0  0  0  0
   -3.6884   -1.8724   -0.7840 N   0  0  0  0  0  0  0  0  0  0  0  0
   -0.7590   -0.8775   -2.4064 O   0  0  0  0  0  0  0  0  0  0  0  0
    1.3439    2.8814    0.9755 N   0  0  0  0  0  0  0  0  0  0  0  0
    1.1799    2.6723    2.4125 C   0  0  0  0  0  0  0  0  0  0  0  0
    0.6570    4.0536    0.4349 C   0  0  0  0  0  0  0  0  0  0  0  0
    2.4101    2.2399   -1.3704 N   0  0  0  0  0  0  0  0  0  0  0  0
    3.7576    2.7439   -1.1383 C   0  0  0  0  0  0  0  0  0  0  0  0
    2.1341    1.8134   -2.7368 C   0  0  0  0  0  0  0  0  0  0  0  0
    2.3547   -1.9962    1.7331 N   0  0  0  0  0  0  0  0  0  0  0  0
    1.5569   -1.5215    2.8492 C   0  0  0  0  0  0  0  0  0  0  0  0
    2.4219   -3.4443    1.6096 C   0  0  0  0  0  0  0  0  0  0  0  0
    3.9188   -1.5994   -0.3406 N   0  0  0  0  0  0  0  0  0  0  0  0
    5.1164   -1.3197    0.4377 C   0  0  0  0  0  0  0  0  0  0  0  0
    4.1124   -1.6595   -1.7807 C   0  0  0  0  0  0  0  0  0  0  0  0
   -0.6846    1.4697   -0.2913 H   0  0  0  0  0  0  0  0  0  0  0  0
   -0.7747   -0.8828    1.1331 H   0  0  0  0  0  0  0  0  0  0  0  0
   -2.0005   -2.8428    1.1842 H   0  0  0  0  0  0  0  0  0  0  0  0
   -0.6440   -3.2011    0.0527 H   0  0  0  0  0  0  0  0  0  0  0  0
   -2.0565   -2.5990   -1.8908 H   0  0  0  0  0  0  0  0  0  0  0  0
   -2.9037   -3.8785   -0.9292 H   0  0  0  0  0  0  0  0  0  0  0  0
   -4.4394   -2.2269   -0.1740 H   0  0  0  0  0  0  0  0  0  0  0  0
   -4.1261   -1.6374   -1.6863 H   0  0  0  0  0  0  0  0  0  0  0  0
    1.8356    1.8438    2.7364 H   0  0  0  0  0  0  0  0  0  0  0  0
    0.1242    2.4392    2.6775 H   0  0  0  0  0  0  0  0  0  0  0  0
    1.4904    3.5943    2.9470 H   0  0  0  0  0  0  0  0  0  0  0  0
    0.8610    4.1352   -0.6493 H   0  0  0  0  0  0  0  0  0  0  0  0
   -0.4434    3.9937    0.5924 H   0  0  0  0  0  0  0  0  0  0  0  0
    1.0402    4.9693    0.9330 H   0  0  0  0  0  0  0  0  0  0  0  0
    4.5388    1.9754   -1.3482 H   0  0  0  0  0  0  0  0  0  0  0  0
    3.9508    3.6215   -1.7916 H   0  0  0  0  0  0  0  0  0  0  0  0
    3.8622    3.0675   -0.0851 H   0  0  0  0  0  0  0  0  0  0  0  0
    1.0900    1.4631   -2.8279 H   0  0  0  0  0  0  0  0  0  0  0  0
    2.2785    2.6723   -3.4268 H   0  0  0  0  0  0  0  0  0  0  0  0
    2.8103    0.9905   -3.0661 H   0  0  0  0  0  0  0  0  0  0  0  0
    1.5503   -0.4168    2.8595 H   0  0  0  0  0  0  0  0  0  0  0  0
    1.9885   -1.8815    3.8081 H   0  0  0  0  0  0  0  0  0  0  0  0
    0.4987   -1.8867    2.8113 H   0  0  0  0  0  0  0  0  0  0  0  0
    3.0418   -3.7135    0.7341 H   0  0  0  0  0  0  0  0  0  0  0  0
    1.4141   -3.9098    1.4845 H   0  0  0  0  0  0  0  0  0  0  0  0
    2.8869   -3.8822    2.5192 H   0  0  0  0  0  0  0  0  0  0  0  0
    5.8810   -2.1042    0.2517 H   0  0  0  0  0  0  0  0  0  0  0  0
    4.8696   -1.3228    1.5163 H   0  0  0  0  0  0  0  0  0  0  0  0
    5.5654   -0.3297    0.1850 H   0  0  0  0  0  0  0  0  0  0  0  0
    3.1407   -1.8519   -2.2716 H   0  0  0  0  0  0  0  0  0  0  0  0
    4.5431   -0.7141   -2.1919 H   0  0  0  0  0  0  0  0  0  0  0  0
    4.8138   -2.4847   -2.0309 H   0  0  0  0  0  0  0  0  0  0  0  0
  1 11  2  6  0  0  0
  1  6  1  0  0  0  0
  1  2  1  0  0  0  0
  1  7  1  0  0  0  0
  2 24  1  0  0  0  0
  2  3  1  0  0  0  0
  3  4  1  0  0  0  0
  3 12  1  0  0  0  0
  5  4  1  0  0  0  0
  5 18  1  0  0  0  0
  6  5  1  0  0  0  0
  7 25  1  0  0  0  0
  8  7  1  0  0  0  0
  8 26  1  0  0  0  0
  9 10  1  0  0  0  0
  9  8  1  0  0  0  0
 10 30  1  0  0  0  0
 12 13  1  0  0  0  0
 13 33  1  0  0  0  0
 13 32  1  0  0  0  0
 13 34  1  0  0  0  0
 14 36  1  0  0  0  0
 14 37  1  0  0  0  0
 14 12  1  0  0  0  0
 15 16  1  0  0  0  0
 15  3  1  0  0  0  0
 16 40  1  0  0  0  0
 17 15  1  0  0  0  0
 18 19  1  0  0  0  0
 19 44  1  0  0  0  0
 19 45  1  0  0  0  0
 20 18  1  0  0  0  0
 20 49  1  0  0  0  0
 21  5  1  0  0  0  0
 21 22  1  0  0  0  0
 22 51  1  0  0  0  0
 23 21  1  0  0  0  0
 27  8  1  0  0  0  0
 28  9  1  0  0  0  0
 29  9  1  0  0  0  0
 31 10  1  0  0  0  0
 35 14  1  0  0  0  0
 38 16  1  0  0  0  0
 39 16  1  0  0  0  0
 41 17  1  0  0  0  0
 42 17  1  0  0  0  0
 43 17  1  0  0  0  0
 46 19  1  0  0  0  0
 47 20  1  0  0  0  0
 48 20  1  0  0  0  0
 50 22  1  0  0  0  0
 52 22  1  0  0  0  0
 53 23  1  0  0  0  0
 54 23  1  0  0  0  0
 55 23  1  0  0  0  0
M  END
