2,7
 OpenBabel05122313053D

 56 60  0  0  1  0  0  0  0  0999 V2000
   -3.1764    1.2399   -0.8775 N   0  0  0  0  0  0  0  0  0  0  0  0
   -1.8376   -0.3232    0.0079 N   0  0  0  0  0  2  0  0  0  0  0  0
    0.6146    1.6121    0.9397 C   0  0  0  0  0  0  0  0  0  0  0  0
    0.8861    2.3317    1.7337 H   0  0  0  0  0  0  0  0  0  0  0  0
   -0.2159    0.9966    1.3425 H   0  0  0  0  0  0  0  0  0  0  0  0
    3.0825    0.9421    1.0373 N   0  0  0  0  0  0  0  0  0  0  0  0
    1.6706   -0.4079   -0.0642 N   0  0  0  0  0  2  0  0  0  0  0  0
   -4.0015    0.3835   -0.1508 C   0  0  0  0  0  0  0  0  0  0  0  0
   -0.6591    1.4375   -1.2951 C   0  0  0  0  0  0  0  0  0  0  0  0
   -0.9164    2.0182   -2.2035 H   0  0  0  0  0  0  0  0  0  0  0  0
    0.0377    0.6370   -1.6180 H   0  0  0  0  0  0  0  0  0  0  0  0
    1.7684    0.7042    0.6623 C   0  0  2  0  0  3  0  0  0  0  0  0
    1.2194    3.0788   -1.1012 C   0  0  0  0  0  0  0  0  0  0  0  0
    1.9681    2.3161   -1.4026 H   0  0  0  0  0  0  0  0  0  0  0  0
    0.7838    3.4636   -2.0499 H   0  0  0  0  0  0  0  0  0  0  0  0
    0.0768    2.4010   -0.3056 C   0  0  0  0  0  0  0  0  0  0  0  0
   -1.8786    0.7758   -0.7449 C   0  0  2  0  0  3  0  0  0  0  0  0
   -3.6480   -1.6332    1.2129 C   0  0  0  0  0  0  0  0  0  0  0  0
   -2.9634   -2.3777    1.6498 H   0  0  0  0  0  0  0  0  0  0  0  0
    2.9548   -0.9151   -0.2116 C   0  0  0  0  0  0  0  0  0  0  0  0
   -3.1390   -0.5994    0.4057 C   0  0  0  0  0  0  0  0  0  0  0  0
   -5.0307   -1.6459    1.4319 C   0  0  0  0  0  0  0  0  0  0  0  0
   -5.4679   -2.4372    2.0590 H   0  0  0  0  0  0  0  0  0  0  0  0
   -5.3880    0.3715    0.0668 C   0  0  0  0  0  0  0  0  0  0  0  0
   -6.0551    1.1331   -0.3621 H   0  0  0  0  0  0  0  0  0  0  0  0
    3.8607   -0.0765    0.4909 C   0  0  0  0  0  0  0  0  0  0  0  0
    1.8878    4.2511   -0.3731 C   0  0  0  0  0  0  0  0  0  0  0  0
    2.4417    3.8871    0.5167 H   0  0  0  0  0  0  0  0  0  0  0  0
    2.6511    4.7095   -1.0357 H   0  0  0  0  0  0  0  0  0  0  0  0
   -3.6608    2.3678   -1.6458 C   0  0  0  0  0  0  0  0  0  0  0  0
   -4.5164    2.0507   -2.2752 H   0  0  0  0  0  0  0  0  0  0  0  0
   -2.8630    2.7447   -2.3090 H   0  0  0  0  0  0  0  0  0  0  0  0
   -3.9935    3.1936   -0.9835 H   0  0  0  0  0  0  0  0  0  0  0  0
    3.6128    1.9585    1.9225 C   0  0  0  0  0  0  0  0  0  0  0  0
    2.7899    2.5460    2.3649 H   0  0  0  0  0  0  0  0  0  0  0  0
    4.2923    2.6476    1.3804 H   0  0  0  0  0  0  0  0  0  0  0  0
    4.1793    1.4792    2.7465 H   0  0  0  0  0  0  0  0  0  0  0  0
    5.6822   -1.4771   -0.1468 C   0  0  0  0  0  0  0  0  0  0  0  0
    6.7544   -1.7240   -0.1368 H   0  0  0  0  0  0  0  0  0  0  0  0
    5.2379   -0.3410    0.5446 C   0  0  0  0  0  0  0  0  0  0  0  0
    5.9385    0.3060    1.0919 H   0  0  0  0  0  0  0  0  0  0  0  0
   -0.9078    3.4891    0.1947 C   0  0  0  0  0  0  0  0  0  0  0  0
   -1.4364    3.9010   -0.6927 H   0  0  0  0  0  0  0  0  0  0  0  0
   -1.6862    3.0233    0.8362 H   0  0  0  0  0  0  0  0  0  0  0  0
   -0.2382    4.6590    0.9273 C   0  0  0  0  0  0  0  0  0  0  0  0
   -1.0072    5.4103    1.2025 H   0  0  0  0  0  0  0  0  0  0  0  0
    0.1971    4.3136    1.8913 H   0  0  0  0  0  0  0  0  0  0  0  0
    3.4140   -2.0459   -0.9114 C   0  0  0  0  0  0  0  0  0  0  0  0
    2.7053   -2.6633   -1.4851 H   0  0  0  0  0  0  0  0  0  0  0  0
   -5.8846   -0.6652    0.8697 C   0  0  0  0  0  0  0  0  0  0  0  0
   -6.9653   -0.7152    1.0703 H   0  0  0  0  0  0  0  0  0  0  0  0
    4.7880   -2.3093   -0.8642 C   0  0  0  0  0  0  0  0  0  0  0  0
    5.1866   -3.1829   -1.4011 H   0  0  0  0  0  0  0  0  0  0  0  0
    0.8599    5.2982    0.0699 C   0  0  0  0  0  0  0  0  0  0  0  0
    0.3960    5.7580   -0.8318 H   0  0  0  0  0  0  0  0  0  0  0  0
    1.3551    6.1245    0.6210 H   0  0  0  0  0  0  0  0  0  0  0  0
  1 17  1  0  0  0  0
  1  8  1  0  0  0  0
  2 21  1  0  0  0  0
  3  5  1  0  0  0  0
  3  4  1  0  0  0  0
  6 34  1  0  0  0  0
  7 12  1  0  0  0  0
  8 24  2  0  0  0  0
  8 21  1  0  0  0  0
  9 16  1  0  0  0  0
 10  9  1  0  0  0  0
 11  9  1  0  0  0  0
 12  3  1  6  0  0  0
 12  6  1  0  0  0  0
 13 27  1  0  0  0  0
 13 16  1  0  0  0  0
 14 13  1  0  0  0  0
 15 13  1  0  0  0  0
 16 42  1  0  0  0  0
 16  3  1  0  0  0  0
 17  9  1  1  0  0  0
 17  2  1  0  0  0  0
 18 22  1  0  0  0  0
 18 19  1  0  0  0  0
 20  7  1  0  0  0  0
 20 26  1  0  0  0  0
 21 18  2  0  0  0  0
 22 23  1  0  0  0  0
 24 50  1  0  0  0  0
 25 24  1  0  0  0  0
 26 40  2  0  0  0  0
 26  6  1  0  0  0  0
 27 54  1  0  0  0  0
 27 28  1  0  0  0  0
 29 27  1  0  0  0  0
 30 33  1  0  0  0  0
 30  1  1  0  0  0  0
 31 30  1  0  0  0  0
 32 30  1  0  0  0  0
 34 35  1  0  0  0  0
 34 37  1  0  0  0  0
 36 34  1  0  0  0  0
 38 39  1  0  0  0  0
 38 40  1  0  0  0  0
 40 41  1  0  0  0  0
 42 44  1  0  0  0  0
 42 45  1  0  0  0  0
 43 42  1  0  0  0  0
 45 46  1  0  0  0  0
 45 47  1  0  0  0  0
 48 52  1  0  0  0  0
 48 20  2  0  0  0  0
 49 48  1  0  0  0  0
 50 51  1  0  0  0  0
 50 22  2  0  0  0  0
 52 38  2  0  0  0  0
 53 52  1  0  0  0  0
 54 56  1  0  0  0  0
 54 45  1  0  0  0  0
 55 54  1  0  0  0  0
M  END
