5,7
 OpenBabel05122313053D

 34 36  0  0  0  0  0  0  0  0999 V2000
   -3.0651   -2.0966   -0.6932 O   0  0  0  0  0  0  0  0  0  0  0  0
   -1.9478    2.1943   -0.4201 O   0  0  0  0  0  0  0  0  0  0  0  0
   -5.5338   -2.1687   -0.8018 O   0  0  0  0  0  0  0  0  0  0  0  0
   -4.5310   -2.3980   -0.8587 H   0  0  0  0  0  0  0  0  0  0  0  0
    2.3238    1.6752   -0.0420 N   0  0  0  0  0  2  0  0  0  0  0  0
    0.0978    1.0713   -0.1605 N   0  0  0  0  0  0  0  0  0  0  0  0
    0.5446   -0.2230    0.0206 N   0  0  0  0  0  2  0  0  0  0  0  0
    3.3184    2.5957   -0.0317 C   0  0  0  0  0  3  0  0  0  0  0  0
    4.3306    2.1752    0.0752 H   0  0  0  0  0  0  0  0  0  0  0  0
    3.0561    3.9566   -0.1572 C   0  0  0  0  0  0  0  0  0  0  0  0
    3.8904    4.6709   -0.1448 H   0  0  0  0  0  0  0  0  0  0  0  0
    1.7189    4.3797   -0.3023 C   0  0  0  0  0  0  0  0  0  0  0  0
    1.4820    5.4490   -0.4074 H   0  0  0  0  0  0  0  0  0  0  0  0
    0.6869    3.4458   -0.3138 C   0  0  0  0  0  0  0  0  0  0  0  0
   -0.3760    3.6981   -0.4232 H   0  0  0  0  0  0  0  0  0  0  0  0
    1.0223    2.0793   -0.1753 C   0  0  0  0  0  0  0  0  0  0  0  0
   -1.3495    1.1305   -0.2485 C   0  0  0  0  0  0  0  0  0  0  0  0
   -1.7364   -0.2631   -0.1106 C   0  0  0  0  0  0  0  0  0  0  0  0
   -0.5372   -1.0209    0.0357 C   0  0  0  0  0  0  0  0  0  0  0  0
   -0.3954   -2.4918    0.2456 C   0  0  0  0  0  0  0  0  0  0  0  0
    0.4010   -2.6968    0.9853 H   0  0  0  0  0  0  0  0  0  0  0  0
   -0.1345   -2.9986   -0.7065 H   0  0  0  0  0  0  0  0  0  0  0  0
   -1.3531   -2.9236    0.5789 H   0  0  0  0  0  0  0  0  0  0  0  0
   -3.0512   -0.8985   -0.2705 C   0  0  0  0  0  0  0  0  0  0  0  0
   -4.3304   -0.2437    0.0558 C   0  0  0  0  0  0  0  0  0  0  0  0
   -4.4323    1.0175    0.6961 C   0  0  0  0  0  0  0  0  0  0  0  0
   -3.5168    1.5705    0.9342 H   0  0  0  0  0  0  0  0  0  0  0  0
   -5.6701    1.5826    0.9964 C   0  0  0  0  0  0  0  0  0  0  0  0
   -5.7217    2.5633    1.4911 H   0  0  0  0  0  0  0  0  0  0  0  0
   -6.8533    0.8931    0.6535 C   0  0  0  0  0  0  0  0  0  0  0  0
   -7.8344    1.3394    0.8806 H   0  0  0  0  0  0  0  0  0  0  0  0
   -6.7962   -0.3549    0.0372 C   0  0  0  0  0  0  0  0  0  0  0  0
   -7.7046   -0.9168   -0.2238 H   0  0  0  0  0  0  0  0  0  0  0  0
   -5.5469   -0.9547   -0.2553 C   0  0  0  0  0  0  0  0  0  0  0  0
  1 24  2  0  0  0  0
  2 17  2  0  0  0  0
  3 34  1  0  0  0  0
  4  3  1  0  0  0  0
  5  8  1  0  0  0  0
  6  7  1  0  0  0  0
  7 19  1  0  0  0  0
  8  9  1  0  0  0  0
 10 11  1  0  0  0  0
 10  8  1  0  0  0  0
 12 10  2  0  0  0  0
 13 12  1  0  0  0  0
 14 12  1  0  0  0  0
 14 16  2  0  0  0  0
 15 14  1  0  0  0  0
 16  6  1  0  0  0  0
 16  5  1  0  0  0  0
 17  6  1  0  0  0  0
 17 18  1  0  0  0  0
 18 19  2  0  0  0  0
 19 20  1  0  0  0  0
 20 23  1  0  0  0  0
 20 21  1  0  0  0  0
 22 20  1  0  0  0  0
 24 18  1  0  0  0  0
 24 25  1  0  0  0  0
 25 26  1  0  0  0  0
 26 27  1  0  0  0  0
 26 28  2  0  0  0  0
 28 29  1  0  0  0  0
 30 31  1  0  0  0  0
 30 28  1  0  0  0  0
 32 30  2  0  0  0  0
 33 32  1  0  0  0  0
 34 32  1  0  0  0  0
 34 25  2  0  0  0  0
M  END
