3,4
 OpenBabel05122313053D

 49 53  0  0  1  0  0  0  0  0999 V2000
    2.5284   -2.4652   -1.8903 O   0  0  0  0  0  0  0  0  0  0  0  0
   -3.9270   -2.0239   -1.5419 O   0  0  0  0  0  0  0  0  0  0  0  0
    2.1555    0.4437    0.1698 N   0  0  0  0  0  2  0  0  0  0  0  0
    0.9350   -1.9156   -0.2925 N   0  0  0  0  0  2  0  0  0  0  0  0
   -1.6513   -1.7410   -1.1501 N   0  0  0  0  0  0  0  0  0  0  0  0
   -1.0119   -0.9560   -0.9566 H   0  0  0  0  0  0  0  0  0  0  0  0
   -1.9266    0.8361   -0.6905 N   0  0  0  0  0  0  0  0  0  0  0  0
    2.6493    1.6476    0.4445 C   0  0  0  0  0  0  0  0  0  0  0  0
    2.1304    2.2107    1.2408 H   0  0  0  0  0  0  0  0  0  0  0  0
    3.7797    2.1556   -0.2491 C   0  0  0  0  0  0  0  0  0  0  0  0
    4.3143    3.4450    0.0326 C   0  0  0  0  0  0  0  0  0  0  0  0
    3.8387    4.0646    0.8077 H   0  0  0  0  0  0  0  0  0  0  0  0
    5.4219    3.9007   -0.6664 C   0  0  0  0  0  0  0  0  0  0  0  0
    5.8381    4.8957   -0.4501 H   0  0  0  0  0  0  0  0  0  0  0  0
    6.0286    3.0883   -1.6643 C   0  0  0  0  0  0  0  0  0  0  0  0
    6.9069    3.4679   -2.2078 H   0  0  0  0  0  0  0  0  0  0  0  0
    5.5283    1.8277   -1.9587 C   0  0  0  0  0  0  0  0  0  0  0  0
    5.9984    1.2003   -2.7305 H   0  0  0  0  0  0  0  0  0  0  0  0
    4.3923    1.3287   -1.2605 C   0  0  1  0  0  3  0  0  0  0  0  0
    3.8222    0.0502   -1.5043 C   0  0  0  0  0  0  0  0  0  0  0  0
    4.2257   -0.6468   -2.2543 H   0  0  0  0  0  0  0  0  0  0  0  0
    2.7141   -0.3616   -0.7872 C   0  0  0  0  0  0  0  0  0  0  0  0
    2.0701   -1.6993   -1.0443 C   0  0  0  0  0  0  0  0  0  0  0  0
    0.1925   -3.1017   -0.4397 C   0  0  0  0  0  0  0  0  0  0  0  0
    0.7421   -4.3623   -0.1386 C   0  0  0  0  0  0  0  0  0  0  0  0
    1.7785   -4.4095    0.2233 H   0  0  0  0  0  0  0  0  0  0  0  0
   -0.0147   -5.5234   -0.3157 C   0  0  0  0  0  0  0  0  0  0  0  0
    0.4259   -6.5057   -0.0906 H   0  0  0  0  0  0  0  0  0  0  0  0
   -1.3413   -5.4287   -0.7794 C   0  0  0  0  0  0  0  0  0  0  0  0
   -1.9413   -6.3420   -0.9112 H   0  0  0  0  0  0  0  0  0  0  0  0
   -1.9158   -4.1888   -1.0762 C   0  0  0  0  0  0  0  0  0  0  0  0
   -2.9503   -4.0949   -1.4287 H   0  0  0  0  0  0  0  0  0  0  0  0
   -1.1545   -3.0121   -0.9114 C   0  0  0  0  0  0  0  0  0  0  0  0
   -2.9515   -1.3152   -1.2996 C   0  0  0  0  0  0  0  0  0  0  0  0
   -3.0609    0.1768   -1.0790 C   0  0  0  0  0  0  0  0  0  0  0  0
   -4.2951    0.7987   -1.2023 C   0  0  0  0  0  0  0  0  0  0  0  0
   -5.1624    0.1981   -1.5138 H   0  0  0  0  0  0  0  0  0  0  0  0
   -4.4092    2.1833   -0.9016 C   0  0  0  0  0  0  0  0  0  0  0  0
   -5.6305    2.9121   -0.9943 C   0  0  0  0  0  0  0  0  0  0  0  0
   -6.5390    2.3883   -1.3283 H   0  0  0  0  0  0  0  0  0  0  0  0
   -5.6680    4.2589   -0.6629 C   0  0  0  0  0  0  0  0  0  0  0  0
   -6.6150    4.8148   -0.7355 H   0  0  0  0  0  0  0  0  0  0  0  0
   -4.4945    4.9325   -0.2244 C   0  0  0  0  0  0  0  0  0  0  0  0
   -4.5474    5.9999    0.0378 H   0  0  0  0  0  0  0  0  0  0  0  0
   -3.2907    4.2496   -0.1245 C   0  0  0  0  0  0  0  0  0  0  0  0
   -2.3781    4.7617    0.2179 H   0  0  0  0  0  0  0  0  0  0  0  0
   -3.2215    2.8699   -0.4624 C   0  0  0  0  0  0  0  0  0  0  0  0
   -2.0097    2.1174   -0.3840 C   0  0  0  0  0  0  0  0  0  0  0  0
   -1.0887    2.6082   -0.0204 H   0  0  0  0  0  0  0  0  0  0  0  0
  1 23  2  0  0  0  0
  2 34  2  0  0  0  0
  3  8  1  0  0  0  0
  5  6  1  0  0  0  0
  5 33  1  0  0  0  0
  7 48  1  0  0  0  0
  8  9  1  0  0  0  0
 10 11  1  0  0  0  0
 10  8  2  0  0  0  0
 11 12  1  0  0  0  0
 13 14  1  0  0  0  0
 13 11  2  0  0  0  0
 15 13  1  0  0  0  0
 16 15  1  0  0  0  0
 17 15  2  0  0  0  0
 18 17  1  0  0  0  0
 19 17  1  1  0  0  0
 19 10  1  0  0  0  0
 20 19  1  0  0  0  0
 20 22  2  0  0  0  0
 21 20  1  0  0  0  0
 22  3  1  0  0  0  0
 23 22  1  0  0  0  0
 23  4  1  0  0  0  0
 24  4  1  0  0  0  0
 24 25  1  0  0  0  0
 25 26  1  0  0  0  0
 27 25  2  0  0  0  0
 27 28  1  0  0  0  0
 29 27  1  0  0  0  0
 30 29  1  0  0  0  0
 31 33  1  0  0  0  0
 31 29  2  0  0  0  0
 32 31  1  0  0  0  0
 33 24  2  0  0  0  0
 34  5  1  0  0  0  0
 34 35  1  0  0  0  0
 35  7  2  0  0  0  0
 36 35  1  0  0  0  0
 36 38  2  0  0  0  0
 37 36  1  0  0  0  0
 38 47  1  0  0  0  0
 39 38  1  0  0  0  0
 39 41  2  0  0  0  0
 40 39  1  0  0  0  0
 41 43  1  0  0  0  0
 42 41  1  0  0  0  0
 43 45  2  0  0  0  0
 43 44  1  0  0  0  0
 45 46  1  0  0  0  0
 47 48  2  0  0  0  0
 47 45  1  0  0  0  0
 48 49  1  0  0  0  0
M  END
