1,4
 OpenBabel05122313053D

 28 28  0  0  0  0  0  0  0  0999 V2000
   -1.4958    0.2963    1.8143 N   0  0  0  0  0  0  0  0  0  0  0  0
   -1.4962    1.3698    1.8775 H   0  0  0  0  0  0  0  0  0  0  0  0
   -2.4437   -0.0901    1.9276 H   0  0  0  0  0  0  0  0  0  0  0  0
    0.9631   -0.5244    0.7646 N   0  0  0  0  0  0  0  0  0  0  0  0
    0.7608   -1.5766    0.8043 H   0  0  0  0  0  0  0  0  0  0  0  0
   -0.4865   -0.3031    2.7129 C   0  0  0  0  0  0  0  0  0  0  0  0
   -0.6382   -1.4006    2.7545 H   0  0  0  0  0  0  0  0  0  0  0  0
   -0.5866    0.1040    3.7410 H   0  0  0  0  0  0  0  0  0  0  0  0
    0.8957    0.0095    2.1454 C   0  0  0  0  0  0  0  0  0  0  0  0
    1.0582    1.1054    2.1288 H   0  0  0  0  0  0  0  0  0  0  0  0
    1.6864   -0.4474    2.7769 H   0  0  0  0  0  0  0  0  0  0  0  0
    2.2531   -0.3686    0.0307 C   0  0  0  0  0  0  0  0  0  0  0  0
    2.0102   -0.6950   -1.0035 H   0  0  0  0  0  0  0  0  0  0  0  0
    3.3142   -1.3278    0.5993 C   0  0  0  0  0  0  0  0  0  0  0  0
    2.9094   -2.3613    0.6222 H   0  0  0  0  0  0  0  0  0  0  0  0
    3.5563   -1.0461    1.6492 H   0  0  0  0  0  0  0  0  0  0  0  0
    4.5954   -1.2653   -0.2443 C   0  0  0  0  0  0  0  0  0  0  0  0
    5.3643   -1.9389    0.1877 H   0  0  0  0  0  0  0  0  0  0  0  0
    4.3743   -1.6541   -1.2629 H   0  0  0  0  0  0  0  0  0  0  0  0
    5.1278    0.1690   -0.3545 C   0  0  0  0  0  0  0  0  0  0  0  0
    6.0292    0.1965   -1.0015 H   0  0  0  0  0  0  0  0  0  0  0  0
    5.4547    0.5160    0.6520 H   0  0  0  0  0  0  0  0  0  0  0  0
    4.0523    1.1211   -0.8920 C   0  0  0  0  0  0  0  0  0  0  0  0
    4.4351    2.1618   -0.9302 H   0  0  0  0  0  0  0  0  0  0  0  0
    3.8007    0.8424   -1.9392 H   0  0  0  0  0  0  0  0  0  0  0  0
    2.7702    1.0691   -0.0486 C   0  0  0  0  0  0  0  0  0  0  0  0
    2.9919    1.4529    0.9729 H   0  0  0  0  0  0  0  0  0  0  0  0
    1.9859    1.7144   -0.4878 H   0  0  0  0  0  0  0  0  0  0  0  0
  1  2  1  0  0  0  0
  1  3  1  0  0  0  0
  1  6  1  0  0  0  0
  4  5  1  0  0  0  0
  4  9  1  0  0  0  0
  6  7  1  0  0  0  0
  6  8  1  0  0  0  0
  9  6  1  0  0  0  0
  9 11  1  0  0  0  0
 10  9  1  0  0  0  0
 12 14  1  0  0  0  0
 12  4  1  0  0  0  0
 13 12  1  0  0  0  0
 14 15  1  0  0  0  0
 14 16  1  0  0  0  0
 17 18  1  0  0  0  0
 17 14  1  0  0  0  0
 19 17  1  0  0  0  0
 20 17  1  0  0  0  0
 20 22  1  0  0  0  0
 21 20  1  0  0  0  0
 23 20  1  0  0  0  0
 23 26  1  0  0  0  0
 24 23  1  0  0  0  0
 25 23  1  0  0  0  0
 26 12  1  0  0  0  0
 26 27  1  0  0  0  0
 28 26  1  0  0  0  0
M  END
