1,2
 OpenBabel05122313053D

 24 25  0  0  1  0  0  0  0  0999 V2000
    1.9011   -0.3548   -0.0584 N   0  0  0  0  0  2  0  0  0  0  0  0
   -0.5615   -0.5726   -0.1148 N   0  0  0  0  0  2  0  0  0  0  0  0
    0.1146   -1.7502   -0.0950 N   0  0  0  0  0  0  0  0  0  0  0  0
   -0.3924   -2.6294   -0.2432 H   0  0  0  0  0  0  0  0  0  0  0  0
    1.4738   -1.6566   -0.0971 C   0  0  1  0  0  3  0  0  0  0  0  0
   -1.9713   -0.7169   -0.0746 C   0  0  0  0  0  0  0  0  0  0  0  0
   -2.5817   -1.6328    0.8125 C   0  0  0  0  0  0  0  0  0  0  0  0
   -1.9671   -2.2123    1.5183 H   0  0  0  0  0  0  0  0  0  0  0  0
    3.2480   -0.1304   -0.0650 C   0  0  0  0  0  0  0  0  0  0  0  0
    3.5657    0.9202   -0.0415 H   0  0  0  0  0  0  0  0  0  0  0  0
   -2.7643    0.0659   -0.9400 C   0  0  0  0  0  0  0  0  0  0  0  0
   -2.2714    0.7403   -1.6537 H   0  0  0  0  0  0  0  0  0  0  0  0
   -3.9774   -1.7528    0.8306 C   0  0  0  0  0  0  0  0  0  0  0  0
   -4.4516   -2.4535    1.5336 H   0  0  0  0  0  0  0  0  0  0  0  0
    2.3540   -2.7604   -0.1435 C   0  0  0  0  0  0  0  0  0  0  0  0
    1.9550   -3.7841   -0.1733 H   0  0  0  0  0  0  0  0  0  0  0  0
   -4.1574   -0.0645   -0.9113 C   0  0  0  0  0  0  0  0  0  0  0  0
   -4.7729    0.5362   -1.5971 H   0  0  0  0  0  0  0  0  0  0  0  0
    4.1727   -1.1634   -0.1096 C   0  0  0  0  0  0  0  0  0  0  0  0
    5.2454   -0.9272   -0.1171 H   0  0  0  0  0  0  0  0  0  0  0  0
    3.7189   -2.5040   -0.1482 C   0  0  0  0  0  0  0  0  0  0  0  0
    4.4373   -3.3354   -0.1836 H   0  0  0  0  0  0  0  0  0  0  0  0
   -4.7679   -0.9710   -0.0273 C   0  0  0  0  0  0  0  0  0  0  0  0
   -5.8631   -1.0688   -0.0082 H   0  0  0  0  0  0  0  0  0  0  0  0
  2  3  1  0  0  0  0
  2  6  1  0  0  0  0
  4  3  1  0  0  0  0
  5  3  1  6  0  0  0
  5  1  1  0  0  0  0
  6  7  1  0  0  0  0
  7 13  2  0  0  0  0
  7  8  1  0  0  0  0
  9  1  1  0  0  0  0
  9 10  1  0  0  0  0
 11 17  1  0  0  0  0
 11  6  2  0  0  0  0
 12 11  1  0  0  0  0
 13 14  1  0  0  0  0
 15  5  1  0  0  0  0
 16 15  1  0  0  0  0
 17 23  2  0  0  0  0
 18 17  1  0  0  0  0
 19  9  2  0  0  0  0
 20 19  1  0  0  0  0
 21 15  2  0  0  0  0
 21 19  1  0  0  0  0
 22 21  1  0  0  0  0
 23 24  1  0  0  0  0
 23 13  1  0  0  0  0
M  END
