2,3
 OpenBabel05122313053D

 39 40  0  0  1  0  0  0  0  0999 V2000
    1.6731   -2.0011    0.8199 Si  0  0  0  0  0  0  0  0  0  0  0  0
    0.5064    2.1550   -0.3245 N   0  0  0  0  0  2  0  0  0  0  0  0
    1.4186   -0.2913    0.4301 N   0  0  0  0  0  2  0  0  0  0  0  0
   -0.0368    3.3132   -0.6955 C   0  0  0  0  0  0  0  0  0  0  0  0
   -1.1304    3.3188   -0.8385 H   0  0  0  0  0  0  0  0  0  0  0  0
    0.7533    4.4696   -0.8914 C   0  0  0  0  0  0  0  0  0  0  0  0
    0.2781    5.4120   -1.1986 H   0  0  0  0  0  0  0  0  0  0  0  0
    2.1253    4.3849   -0.6873 C   0  0  0  0  0  0  0  0  0  0  0  0
    2.7666    5.2689   -0.8313 H   0  0  0  0  0  0  0  0  0  0  0  0
    2.7289    3.1578   -0.2886 C   0  0  0  0  0  0  0  0  0  0  0  0
    4.1204    2.9922   -0.0591 C   0  0  0  0  0  0  0  0  0  0  0  0
    4.8022    3.8449   -0.1888 H   0  0  0  0  0  0  0  0  0  0  0  0
    4.5861    1.7379    0.3277 C   0  0  0  0  0  0  0  0  0  0  0  0
    5.6629    1.5947    0.5091 H   0  0  0  0  0  0  0  0  0  0  0  0
    3.7291    0.6284    0.4970 C   0  0  0  0  0  0  0  0  0  0  0  0
    4.1623   -0.3325    0.8011 H   0  0  0  0  0  0  0  0  0  0  0  0
    2.3331    0.7159    0.2875 C   0  0  0  0  0  0  0  0  0  0  0  0
    1.8467    2.0339   -0.1154 C   0  0  2  0  0  3  0  0  0  0  0  0
    2.9570   -2.2835    2.1878 C   0  0  0  0  0  0  0  0  0  0  0  0
    2.8624   -1.5078    2.9747 H   0  0  0  0  0  0  0  0  0  0  0  0
    4.0034   -2.2752    1.8231 H   0  0  0  0  0  0  0  0  0  0  0  0
    2.7792   -3.2705    2.6625 H   0  0  0  0  0  0  0  0  0  0  0  0
    0.0025   -2.6215    1.4598 C   0  0  0  0  0  0  0  0  0  0  0  0
   -0.1883   -2.2243    2.4783 H   0  0  0  0  0  0  0  0  0  0  0  0
   -0.0109   -3.7285    1.5272 H   0  0  0  0  0  0  0  0  0  0  0  0
   -0.8465   -2.3072    0.8179 H   0  0  0  0  0  0  0  0  0  0  0  0
    2.1674   -2.9708   -0.7737 C   0  0  0  0  0  0  0  0  0  0  0  0
    3.4699   -2.3927   -1.3563 C   0  0  0  0  0  0  0  0  0  0  0  0
    3.7575   -2.9405   -2.2819 H   0  0  0  0  0  0  0  0  0  0  0  0
    4.3203   -2.4820   -0.6485 H   0  0  0  0  0  0  0  0  0  0  0  0
    3.3635   -1.3214   -1.6221 H   0  0  0  0  0  0  0  0  0  0  0  0
    2.3696   -4.4575   -0.4291 C   0  0  0  0  0  0  0  0  0  0  0  0
    2.6471   -5.0352   -1.3393 H   0  0  0  0  0  0  0  0  0  0  0  0
    1.4486   -4.9199   -0.0173 H   0  0  0  0  0  0  0  0  0  0  0  0
    3.1820   -4.6047    0.3127 H   0  0  0  0  0  0  0  0  0  0  0  0
    1.0406   -2.8240   -1.8109 C   0  0  0  0  0  0  0  0  0  0  0  0
    1.3045   -3.3429   -2.7593 H   0  0  0  0  0  0  0  0  0  0  0  0
    0.8541   -1.7577   -2.0569 H   0  0  0  0  0  0  0  0  0  0  0  0
    0.0848   -3.2590   -1.4527 H   0  0  0  0  0  0  0  0  0  0  0  0
  1 23  1  0  0  0  0
  1 19  1  0  0  0  0
  3  1  1  0  0  0  0
  4  2  1  0  0  0  0
  5  4  1  0  0  0  0
  6  4  2  0  0  0  0
  6  8  1  0  0  0  0
  7  6  1  0  0  0  0
  8 10  2  0  0  0  0
  9  8  1  0  0  0  0
 10 18  1  0  0  0  0
 10 11  1  0  0  0  0
 11 13  2  0  0  0  0
 12 11  1  0  0  0  0
 13 15  1  0  0  0  0
 13 14  1  0  0  0  0
 15 16  1  0  0  0  0
 17  3  1  0  0  0  0
 17 15  2  0  0  0  0
 18  2  1  6  0  0  0
 18 17  1  0  0  0  0
 19 22  1  0  0  0  0
 19 20  1  0  0  0  0
 21 19  1  0  0  0  0
 23 25  1  0  0  0  0
 23 24  1  0  0  0  0
 26 23  1  0  0  0  0
 27 32  1  0  0  0  0
 27  1  1  0  0  0  0
 28 27  1  0  0  0  0
 28 30  1  0  0  0  0
 29 28  1  0  0  0  0
 31 28  1  0  0  0  0
 32 34  1  0  0  0  0
 32 35  1  0  0  0  0
 33 32  1  0  0  0  0
 36 39  1  0  0  0  0
 36 27  1  0  0  0  0
 37 36  1  0  0  0  0
 38 36  1  0  0  0  0
M  END
