1,34
 OpenBabel05122313053D

 34 37  0  0  0  0  0  0  0  0999 V2000
   -0.9496   -1.4469    0.7377 N   0  0  0  0  0  2  0  0  0  0  0  0
   -1.9066   -2.3224    1.1410 C   0  0  0  0  0  0  0  0  0  0  0  0
   -2.8925   -2.1864    0.6764 H   0  0  0  0  0  0  0  0  0  0  0  0
   -1.6369   -3.3441    2.0525 C   0  0  0  0  0  0  0  0  0  0  0  0
   -2.4476   -4.0216    2.3551 H   0  0  0  0  0  0  0  0  0  0  0  0
   -0.3324   -3.4912    2.5472 C   0  0  0  0  0  0  0  0  0  0  0  0
   -0.0867   -4.2905    3.2619 H   0  0  0  0  0  0  0  0  0  0  0  0
    0.6577   -2.6135    2.0951 C   0  0  0  0  0  0  0  0  0  0  0  0
    1.7060   -2.7102    2.4067 H   0  0  0  0  0  0  0  0  0  0  0  0
    0.3230   -1.5894    1.1915 C   0  0  0  0  0  0  0  0  0  0  0  0
    1.4104   -0.7250    0.6403 C   0  0  0  0  0  0  0  0  0  0  0  0
    2.4773   -1.4050    0.2431 N   0  0  0  0  0  0  0  0  0  0  0  0
    3.5496   -0.7198   -0.2409 C   0  0  0  0  0  0  0  0  0  0  0  0
    4.6848   -1.4218   -0.7321 C   0  0  0  0  0  0  0  0  0  0  0  0
    4.6557   -2.5209   -0.7224 H   0  0  0  0  0  0  0  0  0  0  0  0
    5.7766   -0.7119   -1.2129 C   0  0  0  0  0  0  0  0  0  0  0  0
    6.6531   -1.2516   -1.6019 H   0  0  0  0  0  0  0  0  0  0  0  0
    5.7771    0.7111   -1.2120 C   0  0  0  0  0  0  0  0  0  0  0  0
    6.6540    1.2507   -1.6003 H   0  0  0  0  0  0  0  0  0  0  0  0
    4.6858    1.4212   -0.7304 C   0  0  0  0  0  0  0  0  0  0  0  0
    4.6575    2.5203   -0.7194 H   0  0  0  0  0  0  0  0  0  0  0  0
    3.5501    0.7193   -0.2401 C   0  0  0  0  0  0  0  0  0  0  0  0
    2.4780    1.4048    0.2442 N   0  0  0  0  0  0  0  0  0  0  0  0
    1.4107    0.7250    0.6406 C   0  0  0  0  0  0  0  0  0  0  0  0
    0.3233    1.5896    1.1913 C   0  0  0  0  0  0  0  0  0  0  0  0
    0.6578    2.6138    2.0951 C   0  0  0  0  0  0  0  0  0  0  0  0
    1.7060    2.7101    2.4072 H   0  0  0  0  0  0  0  0  0  0  0  0
   -0.3322    3.4918    2.5465 C   0  0  0  0  0  0  0  0  0  0  0  0
   -0.0866    4.2912    3.2612 H   0  0  0  0  0  0  0  0  0  0  0  0
   -1.6365    3.3452    2.0510 C   0  0  0  0  0  0  0  0  0  0  0  0
   -2.4471    4.0231    2.3529 H   0  0  0  0  0  0  0  0  0  0  0  0
   -1.9060    2.3234    1.1395 C   0  0  0  0  0  0  0  0  0  0  0  0
   -2.8917    2.1878    0.6743 H   0  0  0  0  0  0  0  0  0  0  0  0
   -0.9491    1.4475    0.7369 N   0  0  0  0  0  2  0  0  0  0  0  0
  1  2  1  0  0  0  0
  1 10  1  0  0  0  0
  2  4  2  0  0  0  0
  3  2  1  0  0  0  0
  4  5  1  0  0  0  0
  4  6  1  0  0  0  0
  6  7  1  0  0  0  0
  8  9  1  0  0  0  0
  8  6  2  0  0  0  0
 10  8  1  0  0  0  0
 11 24  1  0  0  0  0
 11 10  2  0  0  0  0
 12 11  1  0  0  0  0
 13 22  1  0  0  0  0
 13 12  2  0  0  0  0
 14 15  1  0  0  0  0
 14 13  1  0  0  0  0
 16 18  1  0  0  0  0
 16 14  2  0  0  0  0
 17 16  1  0  0  0  0
 18 20  2  0  0  0  0
 19 18  1  0  0  0  0
 20 21  1  0  0  0  0
 20 22  1  0  0  0  0
 22 23  2  0  0  0  0
 23 24  1  0  0  0  0
 24 25  2  0  0  0  0
 25 26  1  0  0  0  0
 26 27  1  0  0  0  0
 26 28  2  0  0  0  0
 28 29  1  0  0  0  0
 30 31  1  0  0  0  0
 30 28  1  0  0  0  0
 32 30  2  0  0  0  0
 33 32  1  0  0  0  0
 34 32  1  0  0  0  0
 34 25  1  0  0  0  0
M  END
