2,3
 OpenBabel05122313053D

 32 33  0  0  0  0  0  0  0  0999 V2000
    5.2828    3.6304   -0.2054 Cl  0  0  0  0  0  0  0  0  0  0  0  0
    2.2284    0.2868    0.0493 N   0  0  0  0  0  2  0  0  0  0  0  0
   -0.3949    0.7532    0.0015 N   0  0  0  0  0  2  0  0  0  0  0  0
   -5.9998    1.3570   -0.0826 N   0  0  0  0  0  0  0  0  0  0  0  0
    3.5492    0.0186    0.0213 C   0  0  0  0  0  3  0  0  0  0  0  0
    3.8312   -1.0435    0.0612 H   0  0  0  0  0  0  0  0  0  0  0  0
    4.5273    1.0132   -0.0564 C   0  0  0  0  0  0  0  0  0  0  0  0
    5.5924    0.7487   -0.0763 H   0  0  0  0  0  0  0  0  0  0  0  0
    4.1115    2.3570   -0.1112 C   0  0  0  0  0  0  0  0  0  0  0  0
    2.7457    2.6558   -0.0923 C   0  0  0  0  0  0  0  0  0  0  0  0
    2.3935    3.6948   -0.1432 H   0  0  0  0  0  0  0  0  0  0  0  0
    1.8228    1.5939   -0.0162 C   0  0  0  0  0  0  0  0  0  0  0  0
    0.3931    1.8023   -0.0200 C   0  0  0  0  0  3  0  0  0  0  0  0
   -0.0153    2.8262   -0.0846 H   0  0  0  0  0  0  0  0  0  0  0  0
   -1.7936    0.9216    0.0004 C   0  0  0  0  0  0  0  0  0  0  0  0
   -2.4321    1.8934    0.8020 C   0  0  0  0  0  0  0  0  0  0  0  0
   -1.8338    2.5056    1.4938 H   0  0  0  0  0  0  0  0  0  0  0  0
   -3.8183    2.0347    0.7867 C   0  0  0  0  0  0  0  0  0  0  0  0
   -4.2788    2.7665    1.4619 H   0  0  0  0  0  0  0  0  0  0  0  0
   -4.6292    1.2240   -0.0625 C   0  0  0  0  0  0  0  0  0  0  0  0
   -3.9660    0.2629   -0.8838 C   0  0  0  0  0  0  0  0  0  0  0  0
   -4.5392   -0.3713   -1.5711 H   0  0  0  0  0  0  0  0  0  0  0  0
   -2.5854    0.1061   -0.8398 C   0  0  0  0  0  0  0  0  0  0  0  0
   -2.0777   -0.6073   -1.5053 H   0  0  0  0  0  0  0  0  0  0  0  0
   -6.6466    2.3492    0.7538 C   0  0  0  0  0  0  0  0  0  0  0  0
   -6.4707    2.1641    1.8378 H   0  0  0  0  0  0  0  0  0  0  0  0
   -7.7367    2.3215    0.5783 H   0  0  0  0  0  0  0  0  0  0  0  0
   -6.2915    3.3788    0.5262 H   0  0  0  0  0  0  0  0  0  0  0  0
   -6.8030    0.4822   -0.9167 C   0  0  0  0  0  0  0  0  0  0  0  0
   -6.5655    0.6022   -1.9973 H   0  0  0  0  0  0  0  0  0  0  0  0
   -7.8716    0.7238   -0.7763 H   0  0  0  0  0  0  0  0  0  0  0  0
   -6.6571   -0.5896   -0.6568 H   0  0  0  0  0  0  0  0  0  0  0  0
  1  9  1  0  0  0  0
  4 20  1  0  0  0  0
  4 25  1  0  0  0  0
  5  2  1  0  0  0  0
  5  6  1  0  0  0  0
  7  5  1  0  0  0  0
  8  7  1  0  0  0  0
  9 10  1  0  0  0  0
  9  7  2  0  0  0  0
 10 12  2  0  0  0  0
 11 10  1  0  0  0  0
 12  2  1  0  0  0  0
 13 12  1  0  0  0  0
 13  3  1  0  0  0  0
 14 13  1  0  0  0  0
 15  3  1  0  0  0  0
 15 16  1  0  0  0  0
 16 17  1  0  0  0  0
 18 16  2  0  0  0  0
 18 19  1  0  0  0  0
 20 18  1  0  0  0  0
 21 23  1  0  0  0  0
 21 20  2  0  0  0  0
 22 21  1  0  0  0  0
 23 15  2  0  0  0  0
 24 23  1  0  0  0  0
 25 26  1  0  0  0  0
 27 25  1  0  0  0  0
 28 25  1  0  0  0  0
 29 31  1  0  0  0  0
 29 32  1  0  0  0  0
 29  4  1  0  0  0  0
 30 29  1  0  0  0  0
M  END
