1,23
 OpenBabel05122313053D

 39 42  0  0  1  0  0  0  0  0999 V2000
   -2.0543   -1.3252   -0.6467 N   0  0  0  0  0  2  0  0  0  0  0  0
   -3.0289   -1.5929   -1.5297 C   0  0  0  0  0  0  0  0  0  0  0  0
   -3.5300   -0.7134   -1.9603 H   0  0  0  0  0  0  0  0  0  0  0  0
   -3.4416   -2.9035   -1.8243 C   0  0  0  0  0  0  0  0  0  0  0  0
   -4.2359   -3.0678   -2.5652 H   0  0  0  0  0  0  0  0  0  0  0  0
   -2.8649   -3.9501   -1.1197 C   0  0  0  0  0  0  0  0  0  0  0  0
   -3.1987   -4.9885   -1.2686 H   0  0  0  0  0  0  0  0  0  0  0  0
   -1.8411   -3.6873   -0.1771 C   0  0  0  0  0  0  0  0  0  0  0  0
   -1.2881   -4.7384    0.6285 C   0  0  0  0  0  0  0  0  0  0  0  0
   -1.6705   -5.7603    0.4869 H   0  0  0  0  0  0  0  0  0  0  0  0
   -0.3379   -4.4633    1.5752 C   0  0  0  0  0  0  0  0  0  0  0  0
    0.0535   -5.2611    2.2244 H   0  0  0  0  0  0  0  0  0  0  0  0
    0.2094   -3.1420    1.7186 C   0  0  0  0  0  0  0  0  0  0  0  0
    1.2502   -2.9078    2.6564 C   0  0  0  0  0  0  0  0  0  0  0  0
    1.5750   -3.7385    3.3009 H   0  0  0  0  0  0  0  0  0  0  0  0
    1.8542   -1.6602    2.7467 C   0  0  0  0  0  0  0  0  0  0  0  0
    2.6542   -1.4795    3.4801 H   0  0  0  0  0  0  0  0  0  0  0  0
    1.4650   -0.6326    1.8654 C   0  0  0  0  0  0  0  0  0  0  0  0
    1.9710    0.3429    1.8737 H   0  0  0  0  0  0  0  0  0  0  0  0
    0.4464   -0.8224    0.9206 C   0  0  2  0  0  3  0  0  0  0  0  0
   -0.2596   -2.0731    0.8790 C   0  0  0  0  0  0  0  0  0  0  0  0
   -1.3837   -2.3366   -0.0054 C   0  0  0  0  0  0  0  0  0  0  0  0
    0.2140    0.2285   -0.0060 N   0  0  0  0  0  2  0  0  0  0  0  0
    0.9513   -0.0198   -1.5052 S   0  0  0  0  0  0  0  0  0  0  0  0
    0.7767   -1.3920   -2.0482 O   0  0  0  0  0  0  0  0  0  0  0  0
    0.6080    1.1495   -2.3552 O   0  0  0  0  0  0  0  0  0  0  0  0
    2.6976    0.1302   -1.0585 C   0  0  0  0  0  0  0  0  0  0  0  0
    3.4757   -1.0331   -0.9657 C   0  0  0  0  0  0  0  0  0  0  0  0
    3.0170   -2.0027   -1.2059 H   0  0  0  0  0  0  0  0  0  0  0  0
    4.8147   -0.9289   -0.5686 C   0  0  0  0  0  0  0  0  0  0  0  0
    5.4679   -1.8063   -0.4734 H   0  0  0  0  0  0  0  0  0  0  0  0
    5.3332    0.3398   -0.2803 C   0  0  0  0  0  0  0  0  0  0  0  0
    4.5644    1.5094   -0.3833 C   0  0  0  0  0  0  0  0  0  0  0  0
    5.0321    2.4751   -0.1505 H   0  0  0  0  0  0  0  0  0  0  0  0
    3.2276    1.4006   -0.7776 C   0  0  0  0  0  0  0  0  0  0  0  0
    2.5889    2.2907   -0.8664 H   0  0  0  0  0  0  0  0  0  0  0  0
    6.7505    0.4530    0.1519 N   0  0  0  0  0  0  0  0  0  0  0  0
    7.4000   -0.5883    0.2386 O   0  0  0  0  0  0  0  0  0  0  0  0
    7.1776    1.5810    0.3966 O   0  0  0  0  0  0  0  0  0  0  0  0
  1 22  1  0  0  0  0
  2  1  1  0  0  0  0
  3  2  1  0  0  0  0
  4  2  2  0  0  0  0
  4  6  1  0  0  0  0
  5  4  1  0  0  0  0
  6  8  2  0  0  0  0
  7  6  1  0  0  0  0
  8 22  1  0  0  0  0
  8  9  1  0  0  0  0
  9 11  2  0  0  0  0
 10  9  1  0  0  0  0
 11 13  1  0  0  0  0
 11 12  1  0  0  0  0
 13 14  2  0  0  0  0
 14 16  1  0  0  0  0
 14 15  1  0  0  0  0
 16 17  1  0  0  0  0
 18 19  1  0  0  0  0
 18 16  2  0  0  0  0
 20 23  1  6  0  0  0
 20 18  1  0  0  0  0
 21 20  1  0  0  0  0
 21 13  1  0  0  0  0
 22 21  2  0  0  0  0
 24 27  1  0  0  0  0
 24 23  1  0  0  0  0
 25 24  2  0  0  0  0
 26 24  2  0  0  0  0
 27 28  2  0  0  0  0
 27 35  1  0  0  0  0
 28 30  1  0  0  0  0
 29 28  1  0  0  0  0
 30 31  1  0  0  0  0
 30 32  2  0  0  0  0
 32 37  1  0  0  0  0
 33 32  1  0  0  0  0
 33 34  1  0  0  0  0
 35 33  2  0  0  0  0
 36 35  1  0  0  0  0
 37 38  2  0  0  0  0
 37 39  2  0  0  0  0
M  END
