1,2
 OpenBabel05122313053D

 35 38  0  0  1  0  0  0  0  0999 V2000
   -0.3160    1.3754   -0.0983 N   0  0  0  0  0  2  0  0  0  0  0  0
   -0.1096   -1.2288   -0.2241 N   0  0  0  0  0  2  0  0  0  0  0  0
    3.3514    1.5940   -0.6074 N   0  0  0  0  0  0  0  0  0  0  0  0
    3.9618    2.4102   -0.6423 H   0  0  0  0  0  0  0  0  0  0  0  0
    3.4937   -0.7572   -0.9192 N   0  0  0  0  0  0  0  0  0  0  0  0
    4.2118   -1.4363   -1.1720 H   0  0  0  0  0  0  0  0  0  0  0  0
   -0.6208    2.6846   -0.0927 C   0  0  0  0  0  3  0  0  0  0  0  0
   -1.6741    2.9428    0.0735 H   0  0  0  0  0  0  0  0  0  0  0  0
    0.3512    3.6675   -0.2969 C   0  0  0  0  0  0  0  0  0  0  0  0
    0.0717    4.7298   -0.3044 H   0  0  0  0  0  0  0  0  0  0  0  0
    1.6677    3.2624   -0.4606 C   0  0  0  0  0  0  0  0  0  0  0  0
    2.4716    4.0047   -0.5868 H   0  0  0  0  0  0  0  0  0  0  0  0
    2.0160    1.8878   -0.4578 C   0  0  0  0  0  0  0  0  0  0  0  0
    0.9603    0.9210   -0.3170 C   0  0  0  0  0  0  0  0  0  0  0  0
    1.0693   -0.5553   -0.4153 C   0  0  2  0  0  3  0  0  0  0  0  0
    2.2461   -1.3132   -0.7332 C   0  0  0  0  0  0  0  0  0  0  0  0
    2.1250   -2.7132   -0.8959 C   0  0  0  0  0  0  0  0  0  0  0  0
    3.0284   -3.2919   -1.1457 H   0  0  0  0  0  0  0  0  0  0  0  0
    0.8971   -3.3441   -0.7379 C   0  0  0  0  0  0  0  0  0  0  0  0
    0.7859   -4.4290   -0.8693 H   0  0  0  0  0  0  0  0  0  0  0  0
   -0.2029   -2.5625   -0.3792 C   0  0  0  0  0  0  0  0  0  0  0  0
   -1.1942   -3.0049   -0.2194 H   0  0  0  0  0  0  0  0  0  0  0  0
    3.9805    0.3788   -0.1417 C   0  0  0  0  0  0  0  0  0  0  0  0
    5.5116    0.4443   -0.2973 C   0  0  0  0  0  0  0  0  0  0  0  0
    5.8433    1.4496    0.0345 H   0  0  0  0  0  0  0  0  0  0  0  0
    5.8195    0.3283   -1.3560 H   0  0  0  0  0  0  0  0  0  0  0  0
    6.0581   -0.6461    0.6528 C   0  0  0  0  0  0  0  0  0  0  0  0
    6.9938   -0.3095    1.1399 H   0  0  0  0  0  0  0  0  0  0  0  0
    6.3247   -1.5684    0.0971 H   0  0  0  0  0  0  0  0  0  0  0  0
    4.9213   -0.9207    1.6836 C   0  0  0  0  0  0  0  0  0  0  0  0
    4.5143   -1.9432    1.5477 H   0  0  0  0  0  0  0  0  0  0  0  0
    5.2730   -0.8619    2.7315 H   0  0  0  0  0  0  0  0  0  0  0  0
    3.8327    0.1225    1.3849 C   0  0  0  0  0  0  0  0  0  0  0  0
    4.0325    1.0781    1.9127 H   0  0  0  0  0  0  0  0  0  0  0  0
    2.8140   -0.2035    1.6710 H   0  0  0  0  0  0  0  0  0  0  0  0
  1  7  1  0  0  0  0
  3 13  1  0  0  0  0
  3 23  1  0  0  0  0
  4  3  1  0  0  0  0
  5 16  1  0  0  0  0
  5 23  1  0  0  0  0
  6  5  1  0  0  0  0
  7  8  1  0  0  0  0
  9  7  1  0  0  0  0
 10  9  1  0  0  0  0
 11 13  1  0  0  0  0
 11  9  2  0  0  0  0
 12 11  1  0  0  0  0
 13 14  2  0  0  0  0
 14  1  1  0  0  0  0
 15 16  1  6  0  0  0
 15 14  1  0  0  0  0
 15  2  1  0  0  0  0
 17 19  1  0  0  0  0
 17 16  2  0  0  0  0
 18 17  1  0  0  0  0
 19 21  2  0  0  0  0
 20 19  1  0  0  0  0
 21  2  1  0  0  0  0
 21 22  1  0  0  0  0
 23 33  1  0  0  0  0
 24 23  1  0  0  0  0
 24 25  1  0  0  0  0
 24 27  1  0  0  0  0
 26 24  1  0  0  0  0
 27 28  1  0  0  0  0
 27 30  1  0  0  0  0
 29 27  1  0  0  0  0
 30 32  1  0  0  0  0
 31 30  1  0  0  0  0
 33 35  1  0  0  0  0
 33 30  1  0  0  0  0
 33 34  1  0  0  0  0
M  END
