3,4
 OpenBabel05122313053D

 20 21  0  0  1  0  0  0  0  0999 V2000
    4.4657    2.2783    0.0909 F   0  0  0  0  0  0  0  0  0  0  0  0
   -4.9750    0.7624    0.1379 F   0  0  0  0  0  0  0  0  0  0  0  0
    1.1532    0.9264   -0.1323 N   0  0  0  0  0  2  0  0  0  0  0  0
   -1.4088    0.5142   -0.1301 N   0  0  0  0  0  2  0  0  0  0  0  0
    2.4949    1.0095   -0.0432 C   0  0  0  0  0  3  0  0  0  0  0  0
    3.0747    0.0787    0.0029 H   0  0  0  0  0  0  0  0  0  0  0  0
    3.1416    2.2497    0.0119 C   0  0  0  0  0  0  0  0  0  0  0  0
    2.3988    3.4382   -0.0169 C   0  0  0  0  0  0  0  0  0  0  0  0
    2.9094    4.4107    0.0252 H   0  0  0  0  0  0  0  0  0  0  0  0
    1.0094    3.3318   -0.0814 C   0  0  0  0  0  0  0  0  0  0  0  0
    0.3941    4.2411   -0.0835 H   0  0  0  0  0  0  0  0  0  0  0  0
    0.3971    2.0649   -0.1286 C   0  0  0  0  0  0  0  0  0  0  0  0
   -1.0467    1.8327   -0.1249 C   0  0  2  0  0  3  0  0  0  0  0  0
   -2.0241    2.8440   -0.0671 C   0  0  0  0  0  0  0  0  0  0  0  0
   -1.7236    3.8999   -0.0691 H   0  0  0  0  0  0  0  0  0  0  0  0
   -3.3767    2.5110    0.0096 C   0  0  0  0  0  0  0  0  0  0  0  0
   -4.1652    3.2751    0.0600 H   0  0  0  0  0  0  0  0  0  0  0  0
   -3.7097    1.1500    0.0431 C   0  0  0  0  0  0  0  0  0  0  0  0
   -2.7081    0.1741   -0.0229 C   0  0  0  0  0  0  0  0  0  0  0  0
   -2.9685   -0.8905    0.0328 H   0  0  0  0  0  0  0  0  0  0  0  0
  3 12  1  0  0  0  0
  3  5  1  0  0  0  0
  4 13  1  0  0  0  0
  4 19  1  0  0  0  0
  5  6  1  0  0  0  0
  5  7  1  0  0  0  0
  7  1  1  0  0  0  0
  8  7  2  0  0  0  0
  8  9  1  0  0  0  0
 10  8  1  0  0  0  0
 11 10  1  0  0  0  0
 12 10  2  0  0  0  0
 13 12  1  1  0  0  0
 13 14  1  0  0  0  0
 14 16  2  0  0  0  0
 15 14  1  0  0  0  0
 16 18  1  0  0  0  0
 16 17  1  0  0  0  0
 18  2  1  0  0  0  0
 19 20  1  0  0  0  0
 19 18  2  0  0  0  0
M  END
