2,3
 OpenBabel05122313053D

 43 44  0  0  1  0  0  0  0  0999 V2000
   -1.5111   -1.1409    1.3605 S   0  0  0  0  0  0  0  0  0  0  0  0
   -0.5544    0.0829    0.7927 N   0  0  0  0  0  2  0  0  0  0  0  0
    1.0387    1.6335   -0.9181 N   0  0  0  0  0  0  0  0  0  0  0  0
    1.9626    1.9780   -1.2131 H   0  0  0  0  0  0  0  0  0  0  0  0
    0.5880    1.2635   -1.7779 H   0  0  0  0  0  0  0  0  0  0  0  0
   -0.8408   -2.4399    1.1038 O   0  0  0  0  0  0  0  0  0  0  0  0
   -1.9803   -0.8338    2.7481 O   0  0  0  0  0  0  0  0  0  0  0  0
   -1.0419    1.4258    1.1098 C   0  0  2  0  0  0  0  0  0  0  0  0
   -2.0173    1.3231    1.6268 H   0  0  0  0  0  0  0  0  0  0  0  0
   -1.2180    2.3406   -0.1483 C   0  0  0  0  0  0  0  0  0  0  0  0
    0.2595    2.7996   -0.3822 C   0  0  1  0  0  0  0  0  0  0  0  0
    0.7730    3.1169    1.0425 C   0  0  0  0  0  0  0  0  0  0  0  0
    0.6412    4.1972    1.2495 H   0  0  0  0  0  0  0  0  0  0  0  0
    1.8617    2.9185    1.1101 H   0  0  0  0  0  0  0  0  0  0  0  0
   -0.0691    2.2440    2.0040 C   0  0  0  0  0  0  0  0  0  0  0  0
   -0.6451    2.8791    2.7052 H   0  0  0  0  0  0  0  0  0  0  0  0
    0.5370    1.5623    2.6215 H   0  0  0  0  0  0  0  0  0  0  0  0
   -2.1046    3.5442    0.2318 C   0  0  0  0  0  0  0  0  0  0  0  0
   -1.6815    4.1698    1.0421 H   0  0  0  0  0  0  0  0  0  0  0  0
   -3.0904    3.1731    0.5769 H   0  0  0  0  0  0  0  0  0  0  0  0
   -2.2893    4.2008   -0.6417 H   0  0  0  0  0  0  0  0  0  0  0  0
   -1.8592    1.6357   -1.3447 C   0  0  0  0  0  0  0  0  0  0  0  0
   -1.8672    2.2950   -2.2383 H   0  0  0  0  0  0  0  0  0  0  0  0
   -2.9133    1.3837   -1.1149 H   0  0  0  0  0  0  0  0  0  0  0  0
   -1.3531    0.6853   -1.5984 H   0  0  0  0  0  0  0  0  0  0  0  0
    0.4342    3.9636   -1.3613 C   0  0  0  0  0  0  0  0  0  0  0  0
    0.0496    3.7067   -2.3695 H   0  0  0  0  0  0  0  0  0  0  0  0
    1.5068    4.2336   -1.4634 H   0  0  0  0  0  0  0  0  0  0  0  0
   -0.1004    4.8663   -1.0109 H   0  0  0  0  0  0  0  0  0  0  0  0
   -2.9989   -1.1221    0.3398 C   0  0  0  0  0  0  0  0  0  0  0  0
   -2.9335   -1.5990   -0.9802 C   0  0  0  0  0  0  0  0  0  0  0  0
   -1.9806   -1.9844   -1.3731 H   0  0  0  0  0  0  0  0  0  0  0  0
   -4.0764   -1.5322   -1.7823 C   0  0  0  0  0  0  0  0  0  0  0  0
   -4.0279   -1.9008   -2.8197 H   0  0  0  0  0  0  0  0  0  0  0  0
   -5.2895   -0.9931   -1.2951 C   0  0  0  0  0  0  0  0  0  0  0  0
   -5.3260   -0.5329    0.0357 C   0  0  0  0  0  0  0  0  0  0  0  0
   -6.2647   -0.1204    0.4391 H   0  0  0  0  0  0  0  0  0  0  0  0
   -4.1911   -0.6008    0.8595 C   0  0  0  0  0  0  0  0  0  0  0  0
   -4.2163   -0.2669    1.9069 H   0  0  0  0  0  0  0  0  0  0  0  0
   -6.5096   -0.9344   -2.1790 C   0  0  0  0  0  0  0  0  0  0  0  0
   -6.2849   -0.4405   -3.1469 H   0  0  0  0  0  0  0  0  0  0  0  0
   -7.3394   -0.3824   -1.6968 H   0  0  0  0  0  0  0  0  0  0  0  0
   -6.8786   -1.9541   -2.4197 H   0  0  0  0  0  0  0  0  0  0  0  0
  1  7  2  0  0  0  0
  2  8  1  0  0  0  0
  2  1  1  0  0  0  0
  3 11  1  0  0  0  0
  4  3  1  0  0  0  0
  5  3  1  0  0  0  0
  6  1  2  0  0  0  0
  8  9  1  1  0  0  0
  8 15  1  0  0  0  0
 10 18  1  0  0  0  0
 10  8  1  0  0  0  0
 11 26  1  6  0  0  0
 11 10  1  0  0  0  0
 11 12  1  0  0  0  0
 12 14  1  0  0  0  0
 12 13  1  0  0  0  0
 12 15  1  0  0  0  0
 15 17  1  0  0  0  0
 15 16  1  0  0  0  0
 18 20  1  0  0  0  0
 18 19  1  0  0  0  0
 21 18  1  0  0  0  0
 22 24  1  0  0  0  0
 22 10  1  0  0  0  0
 23 22  1  0  0  0  0
 25 22  1  0  0  0  0
 26 29  1  0  0  0  0
 27 26  1  0  0  0  0
 28 26  1  0  0  0  0
 30 38  1  0  0  0  0
 30  1  1  0  0  0  0
 31 30  2  0  0  0  0
 32 31  1  0  0  0  0
 33 35  2  0  0  0  0
 33 31  1  0  0  0  0
 34 33  1  0  0  0  0
 35 36  1  0  0  0  0
 36 37  1  0  0  0  0
 36 38  2  0  0  0  0
 38 39  1  0  0  0  0
 40 42  1  0  0  0  0
 40 35  1  0  0  0  0
 41 40  1  0  0  0  0
 43 40  1  0  0  0  0
M  END
