1,2
 OpenBabel05122313053D

 58 59  0  0  1  0  0  0  0  0999 V2000
    0.8782   -0.7441    0.2727 N   0  0  0  0  0  2  0  0  0  0  0  0
   -1.4832    0.7788    0.6136 N   0  0  0  0  0  1  0  0  0  0  0  0
    0.3075   -1.6394    1.2951 C   0  0  0  0  0  0  0  0  0  0  0  0
    1.6269   -1.3500   -0.8143 C   0  0  1  0  0  0  0  0  0  0  0  0
    1.4715   -0.3963   -2.0245 C   0  0  0  0  0  0  0  0  0  0  0  0
    1.7025    1.0621   -1.6488 C   0  0  1  0  0  3  0  0  0  0  0  0
    3.1457    1.5168   -1.7762 C   0  0  0  0  0  0  0  0  0  0  0  0
    0.7203    2.0849   -1.7286 C   0  0  0  0  0  3  0  0  0  0  0  0
   -0.6727    2.1152   -1.5091 C   0  0  1  0  0  3  0  0  0  0  0  0
   -1.3415    3.4670   -1.3770 C   0  0  0  0  0  0  0  0  0  0  0  0
   -1.6971    1.0111   -1.7550 C   0  0  0  0  0  0  0  0  0  0  0  0
   -2.2547    0.5869   -0.4003 C   0  0  1  0  0  3  0  0  0  0  0  0
   -4.0495   -0.4626    0.9947 C   0  0  0  0  0  0  0  0  0  0  0  0
   -5.2581   -1.1426    1.1403 C   0  0  0  0  0  0  0  0  0  0  0  0
   -6.0331   -1.5079    0.0144 C   0  0  0  0  0  0  0  0  0  0  0  0
   -5.5452   -1.1613   -1.2599 C   0  0  0  0  0  0  0  0  0  0  0  0
   -4.3327   -0.4727   -1.4120 C   0  0  0  0  0  0  0  0  0  0  0  0
   -3.5619   -0.1122   -0.2866 C   0  0  0  0  0  0  0  0  0  0  0  0
   -7.3380   -2.2417    0.1862 C   0  0  0  0  0  0  0  0  0  0  0  0
    3.7686   -2.6422   -1.2637 C   0  0  0  0  0  0  0  0  0  0  0  0
    5.1265   -2.9178   -1.0431 C   0  0  0  0  0  0  0  0  0  0  0  0
    5.8357   -2.2170   -0.0543 C   0  0  0  0  0  0  0  0  0  0  0  0
    5.1732   -1.2426    0.7092 C   0  0  0  0  0  0  0  0  0  0  0  0
    3.8161   -0.9700    0.4816 C   0  0  0  0  0  0  0  0  0  0  0  0
    3.0957   -1.6614   -0.5090 C   0  0  0  0  0  0  0  0  0  0  0  0
    1.3450   -2.4425    2.0948 C   0  0  0  0  0  0  0  0  0  0  0  0
   -0.7705   -2.5642    0.7038 C   0  0  0  0  0  0  0  0  0  0  0  0
   -0.2196   -0.9678    2.0091 H   0  0  0  0  0  0  0  0  0  0  0  0
    1.1655   -2.3250   -1.1017 H   0  0  0  0  0  0  0  0  0  0  0  0
    2.1829   -0.6879   -2.8287 H   0  0  0  0  0  0  0  0  0  0  0  0
    0.4558   -0.5446   -2.4374 H   0  0  0  0  0  0  0  0  0  0  0  0
    3.8393    0.8923   -1.1813 H   0  0  0  0  0  0  0  0  0  0  0  0
    3.2749    2.5717   -1.4614 H   0  0  0  0  0  0  0  0  0  0  0  0
    3.4880    1.4415   -2.8343 H   0  0  0  0  0  0  0  0  0  0  0  0
    1.1666    3.0941   -1.6873 H   0  0  0  0  0  0  0  0  0  0  0  0
   -2.1439    3.4392   -0.6105 H   0  0  0  0  0  0  0  0  0  0  0  0
   -1.8272    3.7627   -2.3351 H   0  0  0  0  0  0  0  0  0  0  0  0
   -0.6292    4.2675   -1.0990 H   0  0  0  0  0  0  0  0  0  0  0  0
   -2.4746    1.3707   -2.4658 H   0  0  0  0  0  0  0  0  0  0  0  0
   -1.2556    0.1060   -2.2229 H   0  0  0  0  0  0  0  0  0  0  0  0
   -3.4372   -0.1803    1.8646 H   0  0  0  0  0  0  0  0  0  0  0  0
   -5.6188   -1.4027    2.1488 H   0  0  0  0  0  0  0  0  0  0  0  0
   -6.1282   -1.4371   -2.1530 H   0  0  0  0  0  0  0  0  0  0  0  0
   -3.9825   -0.2238   -2.4245 H   0  0  0  0  0  0  0  0  0  0  0  0
   -7.1956   -3.1916    0.7429 H   0  0  0  0  0  0  0  0  0  0  0  0
   -7.8044   -2.4845   -0.7880 H   0  0  0  0  0  0  0  0  0  0  0  0
   -8.0648   -1.6378    0.7696 H   0  0  0  0  0  0  0  0  0  0  0  0
    3.2156   -3.2022   -2.0361 H   0  0  0  0  0  0  0  0  0  0  0  0
    5.6331   -3.6899   -1.6426 H   0  0  0  0  0  0  0  0  0  0  0  0
    6.8996   -2.4348    0.1246 H   0  0  0  0  0  0  0  0  0  0  0  0
    5.7180   -0.6908    1.4910 H   0  0  0  0  0  0  0  0  0  0  0  0
    3.2856   -0.2128    1.0743 H   0  0  0  0  0  0  0  0  0  0  0  0
    2.0923   -1.7830    2.5768 H   0  0  0  0  0  0  0  0  0  0  0  0
    1.8989   -3.1546    1.4502 H   0  0  0  0  0  0  0  0  0  0  0  0
    0.8383   -3.0286    2.8887 H   0  0  0  0  0  0  0  0  0  0  0  0
   -1.5263   -1.9804    0.1459 H   0  0  0  0  0  0  0  0  0  0  0  0
   -1.2940   -3.1137    1.5120 H   0  0  0  0  0  0  0  0  0  0  0  0
   -0.3312   -3.3215    0.0219 H   0  0  0  0  0  0  0  0  0  0  0  0
  1  3  1  0  0  0  0
  3 28  1  0  0  0  0
  3 26  1  0  0  0  0
  4 29  1  6  0  0  0
  4 25  1  0  0  0  0
  4  1  1  0  0  0  0
  5  6  1  0  0  0  0
  5  4  1  0  0  0  0
  6  8  1  6  0  0  0
  7  6  1  0  0  0  0
  7 33  1  0  0  0  0
  7 32  1  0  0  0  0
  8 35  1  0  0  0  0
  9  8  1  6  0  0  0
  9 10  1  0  0  0  0
 10 38  1  0  0  0  0
 10 36  1  0  0  0  0
 11  9  1  0  0  0  0
 11 12  1  0  0  0  0
 12 18  1  0  0  0  0
 12  2  1  6  0  0  0
 13 14  1  0  0  0  0
 13 41  1  0  0  0  0
 14 42  1  0  0  0  0
 15 19  1  0  0  0  0
 15 14  2  0  0  0  0
 16 15  1  0  0  0  0
 17 16  2  0  0  0  0
 17 18  1  0  0  0  0
 18 13  2  0  0  0  0
 19 45  1  0  0  0  0
 19 47  1  0  0  0  0
 20 21  2  0  0  0  0
 20 25  1  0  0  0  0
 21 22  1  0  0  0  0
 22 50  1  0  0  0  0
 22 23  2  0  0  0  0
 23 51  1  0  0  0  0
 24 23  1  0  0  0  0
 24 52  1  0  0  0  0
 25 24  2  0  0  0  0
 26 53  1  0  0  0  0
 26 55  1  0  0  0  0
 27  3  1  0  0  0  0
 27 57  1  0  0  0  0
 30  5  1  0  0  0  0
 31  5  1  0  0  0  0
 34  7  1  0  0  0  0
 37 10  1  0  0  0  0
 39 11  1  0  0  0  0
 40 11  1  0  0  0  0
 43 16  1  0  0  0  0
 44 17  1  0  0  0  0
 46 19  1  0  0  0  0
 48 20  1  0  0  0  0
 49 21  1  0  0  0  0
 54 26  1  0  0  0  0
 56 27  1  0  0  0  0
 58 27  1  0  0  0  0
M  END
