3,4
 OpenBabel05122313053D

 32 33  0  0  0  0  0  0  0  0999 V2000
   -3.4684   -0.6214   -0.2756 O   0  0  0  0  0  0  0  0  0  0  0  0
    2.2052   -1.0122    0.7733 O   0  0  0  0  0  0  0  0  0  0  0  0
   -1.8246    0.8565    0.0466 N   0  0  0  0  0  2  0  0  0  0  0  0
    0.8968    1.2028    0.1957 N   0  0  0  0  0  2  0  0  0  0  0  0
   -1.3323    2.0853    0.3065 C   0  0  0  0  0  0  0  0  0  0  0  0
   -2.1811    3.1851    0.5396 C   0  0  0  0  0  0  0  0  0  0  0  0
   -1.7581    4.1783    0.7461 H   0  0  0  0  0  0  0  0  0  0  0  0
   -3.5667    2.9698    0.5067 C   0  0  0  0  0  0  0  0  0  0  0  0
   -4.2613    3.8036    0.6887 H   0  0  0  0  0  0  0  0  0  0  0  0
   -4.0739    1.6935    0.2412 C   0  0  0  0  0  0  0  0  0  0  0  0
   -5.1559    1.5139    0.2091 H   0  0  0  0  0  0  0  0  0  0  0  0
   -3.1443    0.6476    0.0079 C   0  0  0  0  0  0  0  0  0  0  0  0
    0.1296    2.2323    0.3396 C   0  0  0  0  0  0  0  0  0  0  0  0
    0.5227    3.2578    0.5072 H   0  0  0  0  0  0  0  0  0  0  0  0
   -4.8340   -1.0163   -0.2850 C   0  0  0  0  0  0  0  0  0  0  0  0
   -4.8328   -2.0998   -0.4978 H   0  0  0  0  0  0  0  0  0  0  0  0
   -5.4049   -0.4865   -1.0779 H   0  0  0  0  0  0  0  0  0  0  0  0
   -5.3127   -0.8389    0.7017 H   0  0  0  0  0  0  0  0  0  0  0  0
    2.2845    1.2499    0.1332 C   0  0  0  0  0  0  0  0  0  0  0  0
    2.9800    0.0270    0.4110 C   0  0  0  0  0  0  0  0  0  0  0  0
    4.3837   -0.0166    0.3172 C   0  0  0  0  0  0  0  0  0  0  0  0
    4.9195   -0.9523    0.5231 H   0  0  0  0  0  0  0  0  0  0  0  0
    5.0949    1.1351   -0.0459 C   0  0  0  0  0  0  0  0  0  0  0  0
    6.1916    1.0862   -0.1228 H   0  0  0  0  0  0  0  0  0  0  0  0
    4.4246    2.3388   -0.3286 C   0  0  0  0  0  0  0  0  0  0  0  0
    4.9902    3.2292   -0.6388 H   0  0  0  0  0  0  0  0  0  0  0  0
    3.0309    2.3899   -0.2399 C   0  0  0  0  0  0  0  0  0  0  0  0
    2.4977    3.3146   -0.5058 H   0  0  0  0  0  0  0  0  0  0  0  0
    2.7721   -2.2936    1.0449 C   0  0  0  0  0  0  0  0  0  0  0  0
    3.4970   -2.2317    1.8838 H   0  0  0  0  0  0  0  0  0  0  0  0
    3.2682   -2.7057    0.1411 H   0  0  0  0  0  0  0  0  0  0  0  0
    1.9069   -2.9204    1.3339 H   0  0  0  0  0  0  0  0  0  0  0  0
  1 12  1  0  0  0  0
  2 29  1  0  0  0  0
  3  5  1  0  0  0  0
  4 13  1  0  0  0  0
  5 13  2  0  0  0  0
  5  6  1  0  0  0  0
  6  7  1  0  0  0  0
  8  6  2  0  0  0  0
  8  9  1  0  0  0  0
 10  8  1  0  0  0  0
 11 10  1  0  0  0  0
 12  3  1  0  0  0  0
 12 10  2  0  0  0  0
 13 14  1  0  0  0  0
 15  1  1  0  0  0  0
 15 18  1  0  0  0  0
 16 15  1  0  0  0  0
 17 15  1  0  0  0  0
 19  4  1  0  0  0  0
 19 20  1  0  0  0  0
 20  2  1  0  0  0  0
 21 20  2  0  0  0  0
 21 22  1  0  0  0  0
 23 21  1  0  0  0  0
 24 23  1  0  0  0  0
 25 27  1  0  0  0  0
 25 23  2  0  0  0  0
 26 25  1  0  0  0  0
 27 19  2  0  0  0  0
 28 27  1  0  0  0  0
 29 32  1  0  0  0  0
 29 30  1  0  0  0  0
 31 29  1  0  0  0  0
M  END
