49,50
 OpenBabel05122313053D

 51 54  0  0  1  0  0  0  0  0999 V2000
    1.3844   -3.6560   -2.0101 C   0  0  0  0  0  3  0  0  0  0  0  0
    2.3776   -3.4465   -2.4453 H   0  0  0  0  0  0  0  0  0  0  0  0
    0.8953   -4.9683   -1.9364 C   0  0  0  0  0  0  0  0  0  0  0  0
    1.4971   -5.8086   -2.3135 H   0  0  0  0  0  0  0  0  0  0  0  0
   -0.3756   -5.1761   -1.3771 C   0  0  0  0  0  0  0  0  0  0  0  0
   -0.7938   -6.1897   -1.2885 H   0  0  0  0  0  0  0  0  0  0  0  0
   -1.0929   -4.0688   -0.9062 C   0  0  0  0  0  0  0  0  0  0  0  0
   -2.0717   -4.1978   -0.4219 H   0  0  0  0  0  0  0  0  0  0  0  0
   -0.5141   -2.7899   -1.0158 C   0  0  0  0  0  0  0  0  0  0  0  0
   -1.1847   -1.5808   -0.4733 C   0  0  2  0  0  3  0  0  0  0  0  0
   -2.5810   -1.4312   -0.4482 C   0  0  0  0  0  0  0  0  0  0  0  0
   -3.2105   -2.2033   -0.9105 H   0  0  0  0  0  0  0  0  0  0  0  0
   -3.1628   -0.2688    0.0958 C   0  0  0  0  0  0  0  0  0  0  0  0
   -2.2846    0.7060    0.6140 C   0  0  0  0  0  0  0  0  0  0  0  0
   -2.6826    1.5936    1.1226 H   0  0  0  0  0  0  0  0  0  0  0  0
   -0.8946    0.5203    0.5484 C   0  0  0  0  0  0  0  0  0  0  0  0
    0.0629    1.5006    1.1273 C   0  0  0  0  0  0  0  0  0  0  0  0
   -0.2419    2.8723    1.2045 C   0  0  0  0  0  0  0  0  0  0  0  0
   -1.1575    3.2681    0.7451 H   0  0  0  0  0  0  0  0  0  0  0  0
    0.6797    3.7356    1.8105 C   0  0  0  0  0  0  0  0  0  0  0  0
    0.4849    4.8165    1.8477 H   0  0  0  0  0  0  0  0  0  0  0  0
    1.8656    3.1950    2.3283 C   0  0  0  0  0  0  0  0  0  0  0  0
    2.6111    3.8310    2.8290 H   0  0  0  0  0  0  0  0  0  0  0  0
    2.0988    1.8196    2.1688 C   0  0  0  0  0  0  0  0  0  0  0  0
    3.0354    1.3604    2.5330 H   0  0  0  0  0  0  0  0  0  0  0  0
   -4.6299   -0.0780    0.1249 C   0  0  0  0  0  0  0  0  0  0  0  0
   -5.5110   -1.1752    0.2581 C   0  0  0  0  0  0  0  0  0  0  0  0
   -5.1030   -2.1906    0.3748 H   0  0  0  0  0  0  0  0  0  0  0  0
   -6.8951   -0.9869    0.2837 C   0  0  0  0  0  0  0  0  0  0  0  0
   -7.5430   -1.8687    0.4021 H   0  0  0  0  0  0  0  0  0  0  0  0
   -7.4732    0.2982    0.1725 C   0  0  0  0  0  0  0  0  0  0  0  0
   -6.5900    1.3881    0.0375 C   0  0  0  0  0  0  0  0  0  0  0  0
   -6.9841    2.4081   -0.0638 H   0  0  0  0  0  0  0  0  0  0  0  0
   -5.2006    1.2072    0.0168 C   0  0  0  0  0  0  0  0  0  0  0  0
   -4.5479    2.0825   -0.1201 H   0  0  0  0  0  0  0  0  0  0  0  0
   -9.0020    0.4581    0.2021 C   0  0  0  0  0  0  0  0  0  0  0  0
   -9.5413   -0.0849    1.5455 C   0  0  0  0  0  0  0  0  0  0  0  0
  -10.6456    0.0154    1.5859 H   0  0  0  0  0  0  0  0  0  0  0  0
   -9.1126    0.4757    2.4006 H   0  0  0  0  0  0  0  0  0  0  0  0
   -9.2956   -1.1560    1.6866 H   0  0  0  0  0  0  0  0  0  0  0  0
   -9.4351    1.9276    0.0623 C   0  0  0  0  0  0  0  0  0  0  0  0
  -10.5411    1.9962    0.0886 H   0  0  0  0  0  0  0  0  0  0  0  0
   -9.0971    2.3684   -0.8971 H   0  0  0  0  0  0  0  0  0  0  0  0
   -9.0432    2.5542    0.8887 H   0  0  0  0  0  0  0  0  0  0  0  0
   -9.6178   -0.3463   -0.9657 C   0  0  0  0  0  0  0  0  0  0  0  0
  -10.7232   -0.2503   -0.9590 H   0  0  0  0  0  0  0  0  0  0  0  0
   -9.3738   -1.4250   -0.8981 H   0  0  0  0  0  0  0  0  0  0  0  0
   -9.2454    0.0241   -1.9421 H   0  0  0  0  0  0  0  0  0  0  0  0
    0.7000   -2.5875   -1.5766 N   0  0  0  0  0  2  0  0  0  0  0  0
   -0.3752   -0.6045    0.0032 N   0  0  0  0  0  2  0  0  0  0  0  0
    1.2292    0.9887    1.5796 N   0  0  0  0  0  0  0  0  0  0  0  0
  1  3  1  0  0  0  0
  1 49  1  0  0  0  0
  2  1  1  0  0  0  0
  3  5  2  0  0  0  0
  4  3  1  0  0  0  0
  5  6  1  0  0  0  0
  5  7  1  0  0  0  0
  7  8  1  0  0  0  0
  9  7  2  0  0  0  0
 10  9  1  6  0  0  0
 10 11  1  0  0  0  0
 10 50  1  0  0  0  0
 11 13  2  0  0  0  0
 12 11  1  0  0  0  0
 13 26  1  0  0  0  0
 13 14  1  0  0  0  0
 14 15  1  0  0  0  0
 16 14  2  0  0  0  0
 16 17  1  0  0  0  0
 17 18  2  0  0  0  0
 17 51  1  0  0  0  0
 18 20  1  0  0  0  0
 19 18  1  0  0  0  0
 20 21  1  0  0  0  0
 20 22  2  0  0  0  0
 22 23  1  0  0  0  0
 24 22  1  0  0  0  0
 24 25  1  0  0  0  0
 26 27  1  0  0  0  0
 27 29  2  0  0  0  0
 27 28  1  0  0  0  0
 29 30  1  0  0  0  0
 31 36  1  0  0  0  0
 31 29  1  0  0  0  0
 32 31  2  0  0  0  0
 33 32  1  0  0  0  0
 34 32  1  0  0  0  0
 34 26  2  0  0  0  0
 35 34  1  0  0  0  0
 36 37  1  0  0  0  0
 37 38  1  0  0  0  0
 37 40  1  0  0  0  0
 37 39  1  0  0  0  0
 41 42  1  0  0  0  0
 41 36  1  0  0  0  0
 41 44  1  0  0  0  0
 43 41  1  0  0  0  0
 45 46  1  0  0  0  0
 45 47  1  0  0  0  0
 45 36  1  0  0  0  0
 48 45  1  0  0  0  0
 49  9  1  0  0  0  0
 50 16  1  0  0  0  0
 51 24  2  0  0  0  0
M  END
