2,3
 OpenBabel05122313053D

 46 47  0  0  0  0  0  0  0  0999 V2000
    3.9232    0.5162   -0.5010 O   0  0  0  0  0  0  0  0  0  0  0  0
    2.0910   -0.2310    0.5386 N   0  0  0  0  0  2  0  0  0  0  0  0
   -0.5929   -0.1201    0.5430 N   0  0  0  0  0  2  0  0  0  0  0  0
    1.4379   -0.9658    1.4648 C   0  0  0  0  0  0  0  0  0  0  0  0
    2.1203   -1.7573    2.4024 C   0  0  0  0  0  0  0  0  0  0  0  0
    1.5632   -2.3476    3.1430 H   0  0  0  0  0  0  0  0  0  0  0  0
    3.5235   -1.7684    2.3535 C   0  0  0  0  0  0  0  0  0  0  0  0
    4.0983   -2.3746    3.0694 H   0  0  0  0  0  0  0  0  0  0  0  0
    4.1989   -1.0130    1.3901 C   0  0  0  0  0  0  0  0  0  0  0  0
    5.2949   -1.0216    1.3398 H   0  0  0  0  0  0  0  0  0  0  0  0
    3.4281   -0.2449    0.4798 C   0  0  0  0  0  0  0  0  0  0  0  0
   -0.0295   -0.8972    1.4062 C   0  0  0  0  0  0  0  0  0  0  0  0
   -0.6166   -1.5266    2.1046 H   0  0  0  0  0  0  0  0  0  0  0  0
    5.3303    0.5826   -0.6992 C   0  0  0  0  0  0  0  0  0  0  0  0
    5.4817    1.2616   -1.5566 H   0  0  0  0  0  0  0  0  0  0  0  0
    5.7521   -0.4160   -0.9426 H   0  0  0  0  0  0  0  0  0  0  0  0
    5.8460    0.9990    0.1928 H   0  0  0  0  0  0  0  0  0  0  0  0
   -1.9957   -0.1010    0.3568 C   0  0  0  0  0  0  0  0  0  0  0  0
   -2.6526    1.1486    0.5336 C   0  0  0  0  0  0  0  0  0  0  0  0
   -4.0411    1.1947    0.3348 C   0  0  0  0  0  0  0  0  0  0  0  0
   -4.5742    2.1447    0.4856 H   0  0  0  0  0  0  0  0  0  0  0  0
   -4.7525    0.0502   -0.0520 C   0  0  0  0  0  0  0  0  0  0  0  0
   -5.8411    0.1044   -0.2051 H   0  0  0  0  0  0  0  0  0  0  0  0
   -4.0776   -1.1576   -0.2608 C   0  0  0  0  0  0  0  0  0  0  0  0
   -4.6402   -2.0410   -0.5989 H   0  0  0  0  0  0  0  0  0  0  0  0
   -2.6872   -1.2707   -0.0686 C   0  0  0  0  0  0  0  0  0  0  0  0
   -1.8672    2.3567    1.0199 C   0  0  0  0  0  0  0  0  0  0  0  0
   -0.8103    2.2059    0.7135 H   0  0  0  0  0  0  0  0  0  0  0  0
   -1.9019    2.4291    2.5576 C   0  0  0  0  0  0  0  0  0  0  0  0
   -1.5207    1.4948    3.0192 H   0  0  0  0  0  0  0  0  0  0  0  0
   -2.9379    2.5832    2.9262 H   0  0  0  0  0  0  0  0  0  0  0  0
   -1.2779    3.2698    2.9241 H   0  0  0  0  0  0  0  0  0  0  0  0
   -2.3117    3.6727    0.3743 C   0  0  0  0  0  0  0  0  0  0  0  0
   -1.6363    4.4920    0.6914 H   0  0  0  0  0  0  0  0  0  0  0  0
   -3.3448    3.9609    0.6613 H   0  0  0  0  0  0  0  0  0  0  0  0
   -2.2507    3.6058   -0.7292 H   0  0  0  0  0  0  0  0  0  0  0  0
   -1.9830   -2.5856   -0.3873 C   0  0  0  0  0  0  0  0  0  0  0  0
   -0.8894   -2.4031   -0.3700 H   0  0  0  0  0  0  0  0  0  0  0  0
   -2.2907   -3.0563   -1.8184 C   0  0  0  0  0  0  0  0  0  0  0  0
   -1.9765   -2.2855   -2.5480 H   0  0  0  0  0  0  0  0  0  0  0  0
   -3.3678   -3.2795   -1.9640 H   0  0  0  0  0  0  0  0  0  0  0  0
   -1.7222   -3.9814   -2.0436 H   0  0  0  0  0  0  0  0  0  0  0  0
   -2.3207   -3.6705    0.6499 C   0  0  0  0  0  0  0  0  0  0  0  0
   -2.0567   -3.3574    1.6815 H   0  0  0  0  0  0  0  0  0  0  0  0
   -1.7757   -4.6104    0.4257 H   0  0  0  0  0  0  0  0  0  0  0  0
   -3.4061   -3.9031    0.6493 H   0  0  0  0  0  0  0  0  0  0  0  0
  1 11  1  0  0  0  0
  2  4  1  0  0  0  0
  3 12  1  0  0  0  0
  4  5  1  0  0  0  0
  5  6  1  0  0  0  0
  7  5  2  0  0  0  0
  7  8  1  0  0  0  0
  9  7  1  0  0  0  0
 10  9  1  0  0  0  0
 11  2  1  0  0  0  0
 11  9  2  0  0  0  0
 12  4  2  0  0  0  0
 12 13  1  0  0  0  0
 14  1  1  0  0  0  0
 14 17  1  0  0  0  0
 15 14  1  0  0  0  0
 16 14  1  0  0  0  0
 18 19  1  0  0  0  0
 18  3  1  0  0  0  0
 19 27  1  0  0  0  0
 20 21  1  0  0  0  0
 20 19  2  0  0  0  0
 22 20  1  0  0  0  0
 23 22  1  0  0  0  0
 24 26  1  0  0  0  0
 24 22  2  0  0  0  0
 25 24  1  0  0  0  0
 26 18  2  0  0  0  0
 27 29  1  0  0  0  0
 28 27  1  0  0  0  0
 29 32  1  0  0  0  0
 29 31  1  0  0  0  0
 29 30  1  0  0  0  0
 33 35  1  0  0  0  0
 33 34  1  0  0  0  0
 33 27  1  0  0  0  0
 36 33  1  0  0  0  0
 37 38  1  0  0  0  0
 37 26  1  0  0  0  0
 37 43  1  0  0  0  0
 39 37  1  0  0  0  0
 40 39  1  0  0  0  0
 41 39  1  0  0  0  0
 42 39  1  0  0  0  0
 43 44  1  0  0  0  0
 45 43  1  0  0  0  0
 46 43  1  0  0  0  0
M  END
