1,10
 OpenBabel05122313053D

 38 43  0  0  0  0  0  0  0  0999 V2000
   -0.9139    1.2295   -0.3940 N   0  0  0  0  0  2  0  0  0  0  0  0
    0.3294    0.6832   -0.2234 C   0  0  0  0  0  0  0  0  0  0  0  0
    1.5332    1.3813   -0.4709 C   0  0  0  0  0  0  0  0  0  0  0  0
    1.4454    2.7081   -0.9386 C   0  0  0  0  0  0  0  0  0  0  0  0
    2.3717    3.2649   -1.1365 H   0  0  0  0  0  0  0  0  0  0  0  0
    0.1745    3.2549   -1.1407 C   0  0  0  0  0  0  0  0  0  0  0  0
    0.0516    4.2818   -1.5128 H   0  0  0  0  0  0  0  0  0  0  0  0
   -0.9746    2.4971   -0.8612 C   0  0  0  0  0  0  0  0  0  0  0  0
   -1.9798    2.9034   -1.0259 H   0  0  0  0  0  0  0  0  0  0  0  0
   -0.9139   -1.2301    0.3929 N   0  0  0  0  0  2  0  0  0  0  0  0
    0.3294   -0.6837    0.2223 C   0  0  0  0  0  0  0  0  0  0  0  0
    1.5332   -1.3818    0.4697 C   0  0  0  0  0  0  0  0  0  0  0  0
    1.4454   -2.7087    0.9371 C   0  0  0  0  0  0  0  0  0  0  0  0
    2.3717   -3.2655    1.1349 H   0  0  0  0  0  0  0  0  0  0  0  0
    0.1745   -3.2556    1.1390 C   0  0  0  0  0  0  0  0  0  0  0  0
    0.0516   -4.2827    1.5108 H   0  0  0  0  0  0  0  0  0  0  0  0
   -0.9746   -2.4978    0.8597 C   0  0  0  0  0  0  0  0  0  0  0  0
   -1.9798   -2.9041    1.0243 H   0  0  0  0  0  0  0  0  0  0  0  0
    2.8062    0.6914   -0.2381 C   0  0  0  0  0  0  0  0  0  0  0  0
    2.8062   -0.6918    0.2371 C   0  0  0  0  0  0  0  0  0  0  0  0
    3.9384   -1.3451    0.4637 N   0  0  0  0  0  0  0  0  0  0  0  0
    5.1105   -0.6890    0.2378 C   0  0  0  0  0  0  0  0  0  0  0  0
    5.1105    0.6887   -0.2384 C   0  0  0  0  0  0  0  0  0  0  0  0
    3.9384    1.3447   -0.4645 N   0  0  0  0  0  0  0  0  0  0  0  0
    6.3375    1.3432   -0.4646 C   0  0  0  0  0  0  0  0  0  0  0  0
    6.3097    2.3828   -0.8237 H   0  0  0  0  0  0  0  0  0  0  0  0
    7.5627    0.6894   -0.2384 C   0  0  0  0  0  0  0  0  0  0  0  0
    7.5627   -0.6896    0.2381 C   0  0  0  0  0  0  0  0  0  0  0  0
    6.3375   -1.3435    0.4641 C   0  0  0  0  0  0  0  0  0  0  0  0
    6.3097   -2.3831    0.8231 H   0  0  0  0  0  0  0  0  0  0  0  0
    8.8216    1.3383   -0.4624 C   0  0  0  0  0  0  0  0  0  0  0  0
    8.8184    2.3787   -0.8218 H   0  0  0  0  0  0  0  0  0  0  0  0
   10.0110    0.6758   -0.2334 C   0  0  0  0  0  0  0  0  0  0  0  0
   10.9694    1.1871   -0.4098 H   0  0  0  0  0  0  0  0  0  0  0  0
   10.0110   -0.6759    0.2335 C   0  0  0  0  0  0  0  0  0  0  0  0
   10.9694   -1.1871    0.4101 H   0  0  0  0  0  0  0  0  0  0  0  0
    8.8216   -1.3384    0.4623 C   0  0  0  0  0  0  0  0  0  0  0  0
    8.8184   -2.3789    0.8217 H   0  0  0  0  0  0  0  0  0  0  0  0
  1  2  1  0  0  0  0
  2 11  2  0  0  0  0
  3 19  1  0  0  0  0
  3  2  1  0  0  0  0
  4  3  2  0  0  0  0
  5  4  1  0  0  0  0
  6  4  1  0  0  0  0
  6  8  2  0  0  0  0
  7  6  1  0  0  0  0
  8  1  1  0  0  0  0
  9  8  1  0  0  0  0
 10 17  1  0  0  0  0
 11 10  1  0  0  0  0
 11 12  1  0  0  0  0
 12 13  2  0  0  0  0
 13 14  1  0  0  0  0
 13 15  1  0  0  0  0
 15 16  1  0  0  0  0
 17 18  1  0  0  0  0
 17 15  2  0  0  0  0
 19 20  1  0  0  0  0
 20 21  2  0  0  0  0
 20 12  1  0  0  0  0
 22 21  1  0  0  0  0
 22 29  1  0  0  0  0
 23 22  2  0  0  0  0
 24 23  1  0  0  0  0
 24 19  2  0  0  0  0
 25 23  1  0  0  0  0
 25 27  2  0  0  0  0
 26 25  1  0  0  0  0
 27 28  1  0  0  0  0
 28 37  1  0  0  0  0
 28 29  2  0  0  0  0
 29 30  1  0  0  0  0
 31 27  1  0  0  0  0
 31 33  2  0  0  0  0
 32 31  1  0  0  0  0
 33 35  1  0  0  0  0
 34 33  1  0  0  0  0
 35 36  1  0  0  0  0
 35 37  2  0  0  0  0
 37 38  1  0  0  0  0
M  END
