2,8
 OpenBabel05122313053D

 27 29  0  0  1  0  0  0  0  0999 V2000
   -0.2502    1.8968   -0.1967 N   0  0  0  0  0  0  0  0  0  0  0  0
    0.7016    0.9180   -0.0367 N   0  0  0  0  0  2  0  0  0  0  0  0
    1.8998    1.5369   -0.0958 C   0  0  1  0  0  3  0  0  0  0  0  0
    1.6960    2.9346   -0.3404 C   0  0  0  0  0  0  0  0  0  0  0  0
    2.4749    3.6985   -0.4197 H   0  0  0  0  0  0  0  0  0  0  0  0
    0.3322    3.1292   -0.3900 C   0  0  0  0  0  0  0  0  0  0  0  0
   -0.2656    4.0343   -0.5294 H   0  0  0  0  0  0  0  0  0  0  0  0
   -1.8272    0.2126    0.0736 N   0  0  0  0  0  2  0  0  0  0  0  0
   -3.0566   -0.2440    0.2512 N   0  0  0  0  0  2  0  0  0  0  0  0
   -4.0742    0.6056    0.2492 C   0  0  0  0  0  0  0  0  0  0  0  0
   -3.9353    2.0010    0.0672 C   0  0  0  0  0  0  0  0  0  0  0  0
   -4.8114    2.6625    0.0635 H   0  0  0  0  0  0  0  0  0  0  0  0
   -2.6416    2.4837   -0.0915 C   0  0  0  0  0  0  0  0  0  0  0  0
   -2.4463    3.5562   -0.2208 H   0  0  0  0  0  0  0  0  0  0  0  0
   -1.5926    1.5489   -0.0755 C   0  0  0  0  0  0  0  0  0  0  0  0
   -5.6479   -0.0723    0.4912 Cl  0  0  0  0  0  0  0  0  0  0  0  0
    3.1910    0.8883    0.1538 C   0  0  0  0  0  0  0  0  0  0  0  0
    4.3391    1.3396   -0.5346 C   0  0  0  0  0  0  0  0  0  0  0  0
    4.2420    2.1201   -1.3045 H   0  0  0  0  0  0  0  0  0  0  0  0
    5.5920    0.7734   -0.2687 C   0  0  0  0  0  0  0  0  0  0  0  0
    6.4775    1.1192   -0.8224 H   0  0  0  0  0  0  0  0  0  0  0  0
    5.7127   -0.2377    0.6985 C   0  0  0  0  0  0  0  0  0  0  0  0
    6.6971   -0.6821    0.9097 H   0  0  0  0  0  0  0  0  0  0  0  0
    4.5773   -0.6820    1.3949 C   0  0  0  0  0  0  0  0  0  0  0  0
    4.6673   -1.4765    2.1502 H   0  0  0  0  0  0  0  0  0  0  0  0
    3.3207   -0.1293    1.1241 C   0  0  0  0  0  0  0  0  0  0  0  0
    2.4329   -0.4802    1.6662 H   0  0  0  0  0  0  0  0  0  0  0  0
  1 15  1  0  0  0  0
  1  2  1  0  0  0  0
  3  2  1  0  0  0  0
  3 17  1  1  0  0  0
  4  3  1  0  0  0  0
  5  4  1  0  0  0  0
  6  4  2  0  0  0  0
  6  1  1  0  0  0  0
  7  6  1  0  0  0  0
  8  9  1  0  0  0  0
 10  9  1  0  0  0  0
 10 16  1  0  0  0  0
 11 10  2  0  0  0  0
 12 11  1  0  0  0  0
 13 15  2  0  0  0  0
 13 11  1  0  0  0  0
 14 13  1  0  0  0  0
 15  8  1  0  0  0  0
 17 26  1  0  0  0  0
 18 20  1  0  0  0  0
 18 17  2  0  0  0  0
 19 18  1  0  0  0  0
 20 22  2  0  0  0  0
 21 20  1  0  0  0  0
 22 23  1  0  0  0  0
 22 24  1  0  0  0  0
 24 25  1  0  0  0  0
 26 24  2  0  0  0  0
 26 27  1  0  0  0  0
M  END
