1,6
 OpenBabel05122313053D

 20 20  0  0  1  0  0  0  0  0999 V2000
   -2.4088    0.6919    0.0645 N   0  0  0  0  0  2  0  0  0  0  0  0
   -3.1142   -0.3271   -0.4858 N   0  0  0  0  0  0  0  0  0  0  0  0
   -3.0404   -2.6041   -1.0179 N   0  0  0  0  0  0  0  0  0  0  0  0
   -3.5382   -2.7736   -0.1388 H   0  0  0  0  0  0  0  0  0  0  0  0
   -2.4704   -3.4043   -1.2983 H   0  0  0  0  0  0  0  0  0  0  0  0
   -1.2374   -1.1255   -1.6015 N   0  0  0  0  0  2  0  0  0  0  0  0
   -0.7438   -1.9850   -1.8751 H   0  0  0  0  0  0  0  0  0  0  0  0
   -3.2974    1.5976    0.4767 C   0  0  1  0  0  3  0  0  0  0  0  0
   -4.4806   -0.0849   -0.4523 C   0  0  0  0  0  0  0  0  0  0  0  0
   -2.3833   -1.3957   -1.0758 C   0  0  1  0  0  3  0  0  0  0  0  0
   -5.5321   -0.9755   -1.0317 C   0  0  0  0  0  0  0  0  0  0  0  0
   -5.7514   -1.8527   -0.3875 H   0  0  0  0  0  0  0  0  0  0  0  0
   -5.2444   -1.3682   -2.0259 H   0  0  0  0  0  0  0  0  0  0  0  0
   -6.4718   -0.4016   -1.1358 H   0  0  0  0  0  0  0  0  0  0  0  0
   -4.6165    1.1524    0.1662 C   0  0  0  0  0  0  0  0  0  0  0  0
   -5.5585    1.6773    0.3584 H   0  0  0  0  0  0  0  0  0  0  0  0
   -2.8592    2.8453    1.1722 C   0  0  0  0  0  0  0  0  0  0  0  0
   -2.6978    2.6575    2.2546 H   0  0  0  0  0  0  0  0  0  0  0  0
   -3.6241    3.6390    1.0766 H   0  0  0  0  0  0  0  0  0  0  0  0
   -1.9015    3.2007    0.7399 H   0  0  0  0  0  0  0  0  0  0  0  0
  1  8  1  0  0  0  0
  2  9  1  0  0  0  0
  2  1  1  0  0  0  0
  3  4  1  0  0  0  0
  5  3  1  0  0  0  0
  7  6  1  0  0  0  0
  8 17  1  1  0  0  0
  9 15  2  0  0  0  0
 10  6  1  6  0  0  0
 10  3  1  0  0  0  0
 10  2  1  0  0  0  0
 11  9  1  0  0  0  0
 11 12  1  0  0  0  0
 13 11  1  0  0  0  0
 14 11  1  0  0  0  0
 15 16  1  0  0  0  0
 15  8  1  0  0  0  0
 17 18  1  0  0  0  0
 19 17  1  0  0  0  0
 20 17  1  0  0  0  0
M  END
