7,12
 OpenBabel05122313053D

 62 65  0  0  0  0  0  0  0  0999 V2000
    0.5523    2.7186   -0.0624 C   0  0  0  0  0  0  0  0  0  0  0  0
    1.2471    3.5259   -0.3794 H   0  0  0  0  0  0  0  0  0  0  0  0
    0.1150    2.9918    0.9229 H   0  0  0  0  0  0  0  0  0  0  0  0
   -0.5734    2.5004   -1.0723 C   0  0  0  0  0  0  0  0  0  0  0  0
   -1.2680    3.3668   -1.1173 H   0  0  0  0  0  0  0  0  0  0  0  0
   -0.1373    2.3415   -2.0827 H   0  0  0  0  0  0  0  0  0  0  0  0
    1.2288    1.4276    0.0511 N   0  0  0  0  0  2  0  0  0  0  0  0
   -2.5597    1.2986   -0.5164 C   0  0  0  0  0  0  0  0  0  0  0  0
   -3.0825    2.2224   -0.8328 H   0  0  0  0  0  0  0  0  0  0  0  0
    2.5395    1.3943   -0.0544 C   0  0  0  0  0  0  0  0  0  0  0  0
    3.0635    2.3687   -0.1238 H   0  0  0  0  0  0  0  0  0  0  0  0
   -1.2499    1.2786   -0.6409 N   0  0  0  0  0  2  0  0  0  0  0  0
    3.3262    0.2067   -0.1825 C   0  0  0  0  0  0  0  0  0  0  0  0
    2.7698   -0.7285   -0.3394 H   0  0  0  0  0  0  0  0  0  0  0  0
   -3.3380    0.2234    0.0119 C   0  0  0  0  0  0  0  0  0  0  0  0
   -2.7686   -0.6546    0.3457 H   0  0  0  0  0  0  0  0  0  0  0  0
   -4.7175    0.1951    0.0713 C   0  0  0  0  0  3  0  0  0  0  0  0
    4.7082    0.1833   -0.1695 C   0  0  0  0  0  3  0  0  0  0  0  0
   -5.5393    1.3821   -0.2906 C   0  0  0  0  0  0  0  0  0  0  0  0
    5.4407   -1.0445   -0.5398 C   0  0  0  0  0  0  0  0  0  0  0  0
   -5.3628    2.6164    0.3749 C   0  0  0  0  0  0  0  0  0  0  0  0
   -4.6256    2.6828    1.1896 H   0  0  0  0  0  0  0  0  0  0  0  0
    4.8506   -2.0337   -1.3672 C   0  0  0  0  0  0  0  0  0  0  0  0
    3.8431   -1.8698   -1.7763 H   0  0  0  0  0  0  0  0  0  0  0  0
    5.5401   -3.2071   -1.6886 C   0  0  0  0  0  0  0  0  0  0  0  0
    5.0618   -3.9572   -2.3365 H   0  0  0  0  0  0  0  0  0  0  0  0
   -6.1350    3.7349    0.0276 C   0  0  0  0  0  0  0  0  0  0  0  0
   -5.9917    4.6853    0.5641 H   0  0  0  0  0  0  0  0  0  0  0  0
   -7.0946    3.6398   -0.9922 C   0  0  0  0  0  0  0  0  0  0  0  0
   -7.7003    4.5171   -1.2654 H   0  0  0  0  0  0  0  0  0  0  0  0
    6.8380   -3.4259   -1.1954 C   0  0  0  0  0  0  0  0  0  0  0  0
    7.3790   -4.3496   -1.4508 H   0  0  0  0  0  0  0  0  0  0  0  0
   -7.2850    2.4163   -1.6560 C   0  0  0  0  0  0  0  0  0  0  0  0
   -8.0365    2.3343   -2.4560 H   0  0  0  0  0  0  0  0  0  0  0  0
    7.4386   -2.4577   -0.3754 C   0  0  0  0  0  0  0  0  0  0  0  0
    8.4507   -2.6234    0.0241 H   0  0  0  0  0  0  0  0  0  0  0  0
   -6.5213    1.2956   -1.3038 C   0  0  0  0  0  0  0  0  0  0  0  0
   -6.6719    0.3368   -1.8222 H   0  0  0  0  0  0  0  0  0  0  0  0
    6.7510   -1.2813   -0.0527 C   0  0  0  0  0  0  0  0  0  0  0  0
    7.2219   -0.5384    0.6073 H   0  0  0  0  0  0  0  0  0  0  0  0
    5.4840    1.3767    0.2507 C   0  0  0  0  0  0  0  0  0  0  0  0
   -5.4173   -1.0390    0.4803 C   0  0  0  0  0  0  0  0  0  0  0  0
    5.1666    2.0542    1.4517 C   0  0  0  0  0  0  0  0  0  0  0  0
    4.3660    1.6529    2.0919 H   0  0  0  0  0  0  0  0  0  0  0  0
   -6.7439   -0.9877    0.9782 C   0  0  0  0  0  0  0  0  0  0  0  0
   -7.2512   -0.0155    1.0610 H   0  0  0  0  0  0  0  0  0  0  0  0
    5.8832    3.1947    1.8423 C   0  0  0  0  0  0  0  0  0  0  0  0
    5.6299    3.7015    2.7860 H   0  0  0  0  0  0  0  0  0  0  0  0
   -7.4042   -2.1533    1.3854 C   0  0  0  0  0  0  0  0  0  0  0  0
   -8.4297   -2.0893    1.7801 H   0  0  0  0  0  0  0  0  0  0  0  0
    6.9278    3.6799    1.0404 C   0  0  0  0  0  0  0  0  0  0  0  0
    7.4909    4.5745    1.3468 H   0  0  0  0  0  0  0  0  0  0  0  0
   -6.7600   -3.3978    1.2956 C   0  0  0  0  0  0  0  0  0  0  0  0
   -7.2803   -4.3145    1.6124 H   0  0  0  0  0  0  0  0  0  0  0  0
    7.2587    3.0122   -0.1515 C   0  0  0  0  0  0  0  0  0  0  0  0
    8.0763    3.3886   -0.7850 H   0  0  0  0  0  0  0  0  0  0  0  0
   -5.4482   -3.4663    0.7947 C   0  0  0  0  0  0  0  0  0  0  0  0
   -4.9393   -4.4384    0.7098 H   0  0  0  0  0  0  0  0  0  0  0  0
    6.5509    1.8676   -0.5391 C   0  0  0  0  0  0  0  0  0  0  0  0
    6.8102    1.3463   -1.4729 H   0  0  0  0  0  0  0  0  0  0  0  0
   -4.7813   -2.3051    0.3914 C   0  0  0  0  0  0  0  0  0  0  0  0
   -3.7624   -2.3807   -0.0205 H   0  0  0  0  0  0  0  0  0  0  0  0
  1  7  1  0  0  0  0
  1  3  1  0  0  0  0
  2  1  1  0  0  0  0
  4 12  1  0  0  0  0
  4  1  1  0  0  0  0
  5  4  1  0  0  0  0
  6  4  1  0  0  0  0
  8 15  2  0  0  0  0
  9  8  1  0  0  0  0
 10  7  1  0  0  0  0
 11 10  1  0  0  0  0
 12  8  1  0  0  0  0
 13 18  1  0  0  0  0
 13 10  2  0  0  0  0
 14 13  1  0  0  0  0
 15 17  1  0  0  0  0
 15 16  1  0  0  0  0
 17 42  1  0  0  0  0
 18 41  1  0  0  0  0
 19 17  1  0  0  0  0
 19 21  1  0  0  0  0
 20 18  1  0  0  0  0
 20 39  1  0  0  0  0
 21 22  1  0  0  0  0
 23 20  2  0  0  0  0
 24 23  1  0  0  0  0
 25 23  1  0  0  0  0
 25 31  2  0  0  0  0
 26 25  1  0  0  0  0
 27 21  2  0  0  0  0
 27 28  1  0  0  0  0
 29 27  1  0  0  0  0
 30 29  1  0  0  0  0
 31 35  1  0  0  0  0
 32 31  1  0  0  0  0
 33 37  1  0  0  0  0
 33 29  2  0  0  0  0
 34 33  1  0  0  0  0
 35 39  2  0  0  0  0
 35 36  1  0  0  0  0
 37 19  2  0  0  0  0
 38 37  1  0  0  0  0
 39 40  1  0  0  0  0
 41 43  1  0  0  0  0
 42 45  1  0  0  0  0
 43 47  2  0  0  0  0
 43 44  1  0  0  0  0
 45 46  1  0  0  0  0
 45 49  2  0  0  0  0
 47 48  1  0  0  0  0
 49 50  1  0  0  0  0
 51 52  1  0  0  0  0
 51 47  1  0  0  0  0
 53 49  1  0  0  0  0
 53 54  1  0  0  0  0
 55 51  2  0  0  0  0
 56 55  1  0  0  0  0
 57 53  2  0  0  0  0
 58 57  1  0  0  0  0
 59 55  1  0  0  0  0
 59 41  2  0  0  0  0
 60 59  1  0  0  0  0
 61 42  2  0  0  0  0
 61 57  1  0  0  0  0
 62 61  1  0  0  0  0
M  END
