1,2
 OpenBabel05122313053D

 33 35  0  0  1  0  0  0  0  0999 V2000
    0.9254    1.7024    0.0101 N   0  0  0  0  0  2  0  0  0  0  0  0
   -1.0734    0.1138    0.0008 N   0  0  0  0  0  2  0  0  0  0  0  0
   -2.1950   -0.6011   -0.0033 N   0  0  0  0  0  0  0  0  0  0  0  0
   -2.1586   -1.6320   -0.0092 H   0  0  0  0  0  0  0  0  0  0  0  0
   -4.6076   -1.7807   -0.0103 N   0  0  0  0  0  0  0  0  0  0  0  0
    2.0437    2.4673    0.0147 C   0  0  0  0  0  3  0  0  0  0  0  0
    2.9988    1.9217    0.0120 H   0  0  0  0  0  0  0  0  0  0  0  0
    2.0048    3.8596    0.0224 C   0  0  0  0  0  0  0  0  0  0  0  0
    2.9510    4.4203    0.0258 H   0  0  0  0  0  0  0  0  0  0  0  0
    0.7639    4.5384    0.0257 C   0  0  0  0  0  0  0  0  0  0  0  0
   -0.3912    3.7406    0.0210 C   0  0  0  0  0  0  0  0  0  0  0  0
   -1.3880    4.2053    0.0233 H   0  0  0  0  0  0  0  0  0  0  0  0
   -0.2981    2.3396    0.0133 C   0  0  0  0  0  0  0  0  0  0  0  0
   -1.4311    1.4285    0.0080 C   0  0  2  0  0  3  0  0  0  0  0  0
   -2.8467    1.5252    0.0084 C   0  0  0  0  0  0  0  0  0  0  0  0
   -3.4574    2.4325    0.0134 H   0  0  0  0  0  0  0  0  0  0  0  0
   -3.3079    0.1990    0.0011 C   0  0  0  0  0  0  0  0  0  0  0  0
   -4.6327   -0.4303   -0.0025 C   0  0  0  0  0  0  0  0  0  0  0  0
   -5.8255    0.3191    0.0018 C   0  0  0  0  0  0  0  0  0  0  0  0
   -5.7942    1.4192    0.0082 H   0  0  0  0  0  0  0  0  0  0  0  0
   -7.0616   -0.3507   -0.0019 C   0  0  0  0  0  0  0  0  0  0  0  0
   -7.0228   -1.7612   -0.0100 C   0  0  0  0  0  0  0  0  0  0  0  0
   -7.9554   -2.3457   -0.0133 H   0  0  0  0  0  0  0  0  0  0  0  0
   -5.7846   -2.4202   -0.0139 C   0  0  0  0  0  0  0  0  0  0  0  0
   -5.7420   -3.5230   -0.0202 H   0  0  0  0  0  0  0  0  0  0  0  0
    0.6966    6.0388    0.0338 C   0  0  0  0  0  0  0  0  0  0  0  0
    1.2117    6.4525    0.9252 H   0  0  0  0  0  0  0  0  0  0  0  0
   -0.3464    6.4063    0.0367 H   0  0  0  0  0  0  0  0  0  0  0  0
    1.2101    6.4619   -0.8542 H   0  0  0  0  0  0  0  0  0  0  0  0
   -8.3680    0.3939    0.0024 C   0  0  0  0  0  0  0  0  0  0  0  0
   -8.9741    0.1217    0.8908 H   0  0  0  0  0  0  0  0  0  0  0  0
   -8.9744    0.1314   -0.8887 H   0  0  0  0  0  0  0  0  0  0  0  0
   -8.2201    1.4902    0.0083 H   0  0  0  0  0  0  0  0  0  0  0  0
  1 13  1  0  0  0  0
  1  6  1  0  0  0  0
  2 14  1  0  0  0  0
  3  2  1  0  0  0  0
  3 17  1  0  0  0  0
  4  3  1  0  0  0  0
  5 18  1  0  0  0  0
  6  8  1  0  0  0  0
  7  6  1  0  0  0  0
  8 10  2  0  0  0  0
  8  9  1  0  0  0  0
 10 26  1  0  0  0  0
 11 12  1  0  0  0  0
 11 10  1  0  0  0  0
 13 11  2  0  0  0  0
 14 15  1  0  0  0  0
 14 13  1  1  0  0  0
 15 16  1  0  0  0  0
 17 15  2  0  0  0  0
 18 17  1  0  0  0  0
 18 19  2  0  0  0  0
 19 20  1  0  0  0  0
 21 19  1  0  0  0  0
 21 30  1  0  0  0  0
 22 21  2  0  0  0  0
 23 22  1  0  0  0  0
 24  5  2  0  0  0  0
 24 22  1  0  0  0  0
 25 24  1  0  0  0  0
 26 28  1  0  0  0  0
 26 27  1  0  0  0  0
 29 26  1  0  0  0  0
 30 33  1  0  0  0  0
 30 31  1  0  0  0  0
 32 30  1  0  0  0  0
M  END
