1,5
 OpenBabel05122313053D

 62 64  0  0  1  0  0  0  0  0999 V2000
   -0.5053    2.0512    0.2124 N   0  0  0  0  0  2  0  0  0  0  0  0
   -1.0053    2.3829   -0.9959 N   0  0  0  0  0  0  0  0  0  0  0  0
   -1.8043   -0.5646   -0.4410 N   0  0  0  0  0  0  0  0  0  0  0  0
   -2.1580    0.1852   -1.5056 N   0  0  0  0  0  0  0  0  0  0  0  0
    0.7759   -0.1187   -1.4869 N   0  0  0  0  0  2  0  0  0  0  0  0
    0.1506    0.6193   -2.4227 N   0  0  0  0  0  0  0  0  0  0  0  0
   -0.1522    4.1533    3.1148 O   0  0  0  0  0  0  0  0  0  0  0  0
    0.3053    1.9395    2.7674 O   0  0  0  0  0  0  0  0  0  0  0  0
   -1.7860   -2.8061    1.4808 O   0  0  0  0  0  0  0  0  0  0  0  0
   -3.8854   -3.2426    0.7608 O   0  0  0  0  0  0  0  0  0  0  0  0
    2.3114   -2.1651   -0.2653 O   0  0  0  0  0  0  0  0  0  0  0  0
    3.9635   -1.6763   -1.7515 O   0  0  0  0  0  0  0  0  0  0  0  0
   -1.9285    4.3790   -2.2316 C   0  0  0  0  0  0  0  0  0  0  0  0
   -1.2631    4.2965   -3.1149 H   0  0  0  0  0  0  0  0  0  0  0  0
   -2.0884    5.4526   -2.0220 H   0  0  0  0  0  0  0  0  0  0  0  0
   -2.9049    3.9361   -2.5159 H   0  0  0  0  0  0  0  0  0  0  0  0
   -1.3428    3.7124   -1.0294 C   0  0  1  0  0  3  0  0  0  0  0  0
   -1.0392    4.2450    0.2270 C   0  0  0  0  0  0  0  0  0  0  0  0
   -1.1771    5.2725    0.5758 H   0  0  0  0  0  0  0  0  0  0  0  0
   -0.5186    3.1650    0.9720 C   0  0  0  0  0  0  0  0  0  0  0  0
   -0.1016    3.1693    2.3964 C   0  0  0  0  0  0  0  0  0  0  0  0
    0.6062    1.6997    4.1633 C   0  0  0  0  0  0  0  0  0  0  0  0
    1.4600    0.9958    4.1473 H   0  0  0  0  0  0  0  0  0  0  0  0
    0.9048    2.6607    4.6275 H   0  0  0  0  0  0  0  0  0  0  0  0
   -0.6025    1.0800    4.8435 C   0  0  0  0  0  0  0  0  0  0  0  0
   -0.3482    0.7952    5.8845 H   0  0  0  0  0  0  0  0  0  0  0  0
   -0.9061    0.1726    4.2853 H   0  0  0  0  0  0  0  0  0  0  0  0
   -1.4518    1.7916    4.8772 H   0  0  0  0  0  0  0  0  0  0  0  0
   -4.0227    0.4350   -3.2008 C   0  0  0  0  0  0  0  0  0  0  0  0
   -4.2007    1.5172   -3.0358 H   0  0  0  0  0  0  0  0  0  0  0  0
   -4.9989   -0.0458   -3.3969 H   0  0  0  0  0  0  0  0  0  0  0  0
   -3.4046    0.3425   -4.1170 H   0  0  0  0  0  0  0  0  0  0  0  0
   -3.3726   -0.2100   -2.0199 C   0  0  0  0  0  0  0  0  0  0  0  0
   -3.8132   -1.2757   -1.2389 C   0  0  0  0  0  0  0  0  0  0  0  0
   -4.7351   -1.8527   -1.3518 H   0  0  0  0  0  0  0  0  0  0  0  0
   -2.7943   -1.4671   -0.2702 C   0  0  0  0  0  0  0  0  0  0  0  0
   -2.7330   -2.5354    0.7478 C   0  0  0  0  0  0  0  0  0  0  0  0
   -3.9460   -4.3635    1.6728 C   0  0  0  0  0  0  0  0  0  0  0  0
   -3.4447   -4.0790    2.6198 H   0  0  0  0  0  0  0  0  0  0  0  0
   -5.0280   -4.5051    1.8604 H   0  0  0  0  0  0  0  0  0  0  0  0
   -3.3118   -5.6077    1.0731 C   0  0  0  0  0  0  0  0  0  0  0  0
   -3.4466   -6.4673    1.7600 H   0  0  0  0  0  0  0  0  0  0  0  0
   -2.2256   -5.4581    0.9197 H   0  0  0  0  0  0  0  0  0  0  0  0
   -3.7794   -5.8642    0.1017 H   0  0  0  0  0  0  0  0  0  0  0  0
    0.4086    1.3218   -4.8302 C   0  0  0  0  0  0  0  0  0  0  0  0
   -0.5730    0.9522   -5.1910 H   0  0  0  0  0  0  0  0  0  0  0  0
    1.1477    1.1772   -5.6396 H   0  0  0  0  0  0  0  0  0  0  0  0
    0.3025    2.4117   -4.6538 H   0  0  0  0  0  0  0  0  0  0  0  0
    0.8560    0.6023   -3.5997 C   0  0  2  0  0  3  0  0  0  0  0  0
    1.9913   -0.1880   -3.3850 C   0  0  0  0  0  0  0  0  0  0  0  0
    2.7770   -0.4336   -4.1052 H   0  0  0  0  0  0  0  0  0  0  0  0
    1.8891   -0.6245   -2.0436 C   0  0  0  0  0  0  0  0  0  0  0  0
    2.7145   -1.5597   -1.2438 C   0  0  0  0  0  0  0  0  0  0  0  0
    4.8348   -2.5856   -1.0437 C   0  0  0  0  0  0  0  0  0  0  0  0
    4.3906   -3.6035   -1.0735 H   0  0  0  0  0  0  0  0  0  0  0  0
    4.8690   -2.2853    0.0247 H   0  0  0  0  0  0  0  0  0  0  0  0
    6.1976   -2.5308   -1.7016 C   0  0  0  0  0  0  0  0  0  0  0  0
    6.8950   -3.2199   -1.1856 H   0  0  0  0  0  0  0  0  0  0  0  0
    6.6213   -1.5081   -1.6515 H   0  0  0  0  0  0  0  0  0  0  0  0
    6.1399   -2.8298   -2.7671 H   0  0  0  0  0  0  0  0  0  0  0  0
   -1.2071    1.2824   -2.0698 B   0  0  2  0  0  0  0  0  0  0  0  0
   -1.6916    1.7755   -3.0667 H   0  0  0  0  0  0  0  0  0  0  0  0
  1 20  1  0  0  0  0
  2  1  1  0  0  0  0
  3 36  2  0  0  0  0
  4  3  1  0  0  0  0
  6 61  1  0  0  0  0
  6  5  1  0  0  0  0
  8 22  1  0  0  0  0
 10 38  1  0  0  0  0
 12 53  1  0  0  0  0
 12 54  1  0  0  0  0
 13 15  1  0  0  0  0
 14 13  1  0  0  0  0
 16 13  1  0  0  0  0
 17 13  1  1  0  0  0
 17  2  1  0  0  0  0
 17 18  1  0  0  0  0
 18 19  1  0  0  0  0
 18 20  2  0  0  0  0
 20 21  1  0  0  0  0
 21  8  1  0  0  0  0
 21  7  2  0  0  0  0
 22 24  1  0  0  0  0
 22 25  1  0  0  0  0
 23 22  1  0  0  0  0
 25 28  1  0  0  0  0
 25 26  1  0  0  0  0
 27 25  1  0  0  0  0
 29 30  1  0  0  0  0
 29 33  1  0  0  0  0
 31 29  1  0  0  0  0
 32 29  1  0  0  0  0
 33  4  1  0  0  0  0
 33 34  2  0  0  0  0
 34 36  1  0  0  0  0
 35 34  1  0  0  0  0
 36 37  1  0  0  0  0
 37 10  1  0  0  0  0
 37  9  2  0  0  0  0
 38 40  1  0  0  0  0
 38 39  1  0  0  0  0
 41 38  1  0  0  0  0
 41 42  1  0  0  0  0
 43 41  1  0  0  0  0
 44 41  1  0  0  0  0
 45 48  1  0  0  0  0
 46 45  1  0  0  0  0
 47 45  1  0  0  0  0
 49 45  1  6  0  0  0
 49 50  1  0  0  0  0
 49  6  1  0  0  0  0
 50 52  2  0  0  0  0
 51 50  1  0  0  0  0
 52  5  1  0  0  0  0
 52 53  1  0  0  0  0
 53 11  2  0  0  0  0
 54 56  1  0  0  0  0
 55 54  1  0  0  0  0
 57 59  1  0  0  0  0
 57 58  1  0  0  0  0
 57 54  1  0  0  0  0
 60 57  1  0  0  0  0
 61 62  1  6  0  0  0
 61  4  1  0  0  0  0
 61  2  1  0  0  0  0
M  END
