4,9
 OpenBabel05122313053D

 33 34  0  0  1  0  0  0  0  0999 V2000
   -2.6675    0.4740    1.3729 C   0  0  0  0  0  0  0  0  0  0  0  0
   -2.4552   -0.5943    1.1730 H   0  0  0  0  0  0  0  0  0  0  0  0
   -2.1937    0.7108    2.3479 H   0  0  0  0  0  0  0  0  0  0  0  0
    2.0069    0.5587    0.2830 N   0  0  0  0  0  2  0  0  0  0  0  0
    2.6688    2.8757    0.1653 C   0  0  0  0  0  0  0  0  0  0  0  0
    2.3892    3.9318    0.0619 H   0  0  0  0  0  0  0  0  0  0  0  0
    4.0115    2.5135    0.3087 C   0  0  0  0  0  0  0  0  0  0  0  0
    4.7972    3.2829    0.3149 H   0  0  0  0  0  0  0  0  0  0  0  0
   -0.5754    1.1415    0.2042 N   0  0  0  0  0  2  0  0  0  0  0  0
    4.3348    1.1547    0.4438 C   0  0  0  0  0  0  0  0  0  0  0  0
    5.3746    0.8186    0.5583 H   0  0  0  0  0  0  0  0  0  0  0  0
    3.3029    0.2123    0.4234 C   0  0  0  0  0  3  0  0  0  0  0  0
    3.5081   -0.8643    0.5101 H   0  0  0  0  0  0  0  0  0  0  0  0
   -0.1927    3.6040   -0.0779 C   0  0  0  0  0  0  0  0  0  0  0  0
   -1.2549    3.7061   -0.3527 H   0  0  0  0  0  0  0  0  0  0  0  0
    0.4034    4.0744   -0.8840 H   0  0  0  0  0  0  0  0  0  0  0  0
   -0.0147    4.1884    0.8495 H   0  0  0  0  0  0  0  0  0  0  0  0
   -2.0303    1.3365    0.2706 C   0  0  0  0  0  0  0  0  0  0  0  0
   -2.2399    2.3917    0.5495 H   0  0  0  0  0  0  0  0  0  0  0  0
    1.6744    1.8777    0.1546 C   0  0  0  0  0  0  0  0  0  0  0  0
    0.2301    2.1689    0.0855 C   0  0  1  0  0  3  0  0  0  0  0  0
   -2.6779    1.0855   -1.1061 C   0  0  0  0  0  0  0  0  0  0  0  0
   -2.4352    0.0564   -1.4370 H   0  0  0  0  0  0  0  0  0  0  0  0
   -2.2144    1.7558   -1.8586 H   0  0  0  0  0  0  0  0  0  0  0  0
   -4.1972    1.2794   -1.0379 C   0  0  0  0  0  0  0  0  0  0  0  0
   -4.4283    2.3498   -0.8331 H   0  0  0  0  0  0  0  0  0  0  0  0
   -4.6427    1.0491   -2.0276 H   0  0  0  0  0  0  0  0  0  0  0  0
   -4.8280    0.4093    0.0566 C   0  0  0  0  0  0  0  0  0  0  0  0
   -5.9241    0.5769    0.1018 H   0  0  0  0  0  0  0  0  0  0  0  0
   -4.6793   -0.6628   -0.2007 H   0  0  0  0  0  0  0  0  0  0  0  0
   -4.1847    0.6912    1.4205 C   0  0  0  0  0  0  0  0  0  0  0  0
   -4.6263    0.0423    2.2045 H   0  0  0  0  0  0  0  0  0  0  0  0
   -4.4057    1.7402    1.7231 H   0  0  0  0  0  0  0  0  0  0  0  0
  1 31  1  0  0  0  0
  1  3  1  0  0  0  0
  2  1  1  0  0  0  0
  4 12  1  0  0  0  0
  5  7  1  0  0  0  0
  6  5  1  0  0  0  0
  7  8  1  0  0  0  0
  7 10  2  0  0  0  0
  9 18  1  0  0  0  0
 10 11  1  0  0  0  0
 12 10  1  0  0  0  0
 12 13  1  0  0  0  0
 14 21  1  0  0  0  0
 14 17  1  0  0  0  0
 15 14  1  0  0  0  0
 16 14  1  0  0  0  0
 18 19  1  0  0  0  0
 18  1  1  0  0  0  0
 20  5  2  0  0  0  0
 20  4  1  0  0  0  0
 21 20  1  0  0  0  0
 21  9  1  1  0  0  0
 22 25  1  0  0  0  0
 22 18  1  0  0  0  0
 23 22  1  0  0  0  0
 24 22  1  0  0  0  0
 25 26  1  0  0  0  0
 25 28  1  0  0  0  0
 27 25  1  0  0  0  0
 28 29  1  0  0  0  0
 28 31  1  0  0  0  0
 30 28  1  0  0  0  0
 31 33  1  0  0  0  0
 31 32  1  0  0  0  0
M  END
