2,8
 OpenBabel05122313053D

 52 57  0  0  1  0  0  0  0  0999 V2000
    0.3598    0.4475    2.5302 N   0  0  0  0  0  0  0  0  0  0  0  0
    1.7714    1.3065    0.2265 N   0  0  0  0  0  2  0  0  0  0  0  0
    2.6157    3.0583    1.2927 N   0  0  0  0  0  0  0  0  0  0  0  0
    2.7369    3.7723    2.0118 H   0  0  0  0  0  0  0  0  0  0  0  0
   -2.1970    1.4555    1.4182 N   0  0  0  0  0  0  0  0  0  0  0  0
   -3.1474   -0.4859    2.0354 N   0  0  0  0  0  0  0  0  0  0  0  0
   -3.2857   -1.3658    2.5322 H   0  0  0  0  0  0  0  0  0  0  0  0
    1.2877   -1.3696    0.5503 N   0  0  0  0  0  2  0  0  0  0  0  0
    2.4570   -2.5901    1.9946 N   0  0  0  0  0  0  0  0  0  0  0  0
    2.8860   -2.8792    2.8747 H   0  0  0  0  0  0  0  0  0  0  0  0
    0.6493    1.8653    2.3877 C   0  0  0  0  0  0  0  0  0  0  0  0
    0.9865    2.3574    3.3366 H   0  0  0  0  0  0  0  0  0  0  0  0
   -0.3007    2.3494    2.0593 H   0  0  0  0  0  0  0  0  0  0  0  0
    1.6728    2.0698    1.3160 C   0  0  1  0  0  3  0  0  0  0  0  0
    3.3468    2.9462    0.1125 C   0  0  0  0  0  0  0  0  0  0  0  0
    4.4089    3.6884   -0.4244 C   0  0  0  0  0  0  0  0  0  0  0  0
    4.8341    4.5579    0.0967 H   0  0  0  0  0  0  0  0  0  0  0  0
    4.8979    3.2698   -1.6678 C   0  0  0  0  0  0  0  0  0  0  0  0
    5.7272    3.8247   -2.1302 H   0  0  0  0  0  0  0  0  0  0  0  0
    4.3488    2.1551   -2.3488 C   0  0  0  0  0  0  0  0  0  0  0  0
    4.7619    1.8720   -3.3278 H   0  0  0  0  0  0  0  0  0  0  0  0
    3.2922    1.4147   -1.8099 C   0  0  0  0  0  0  0  0  0  0  0  0
    2.8525    0.5563   -2.3363 H   0  0  0  0  0  0  0  0  0  0  0  0
    2.7943    1.8222   -0.5614 C   0  0  0  0  0  0  0  0  0  0  0  0
   -0.9333    0.1051    3.1101 C   0  0  0  0  0  0  0  0  0  0  0  0
   -1.1042    0.6334    4.0838 H   0  0  0  0  0  0  0  0  0  0  0  0
   -0.9289   -0.9781    3.3445 H   0  0  0  0  0  0  0  0  0  0  0  0
   -2.0814    0.3821    2.1775 C   0  0  0  0  0  0  0  0  0  0  0  0
   -4.0144    0.0711    1.1051 C   0  0  0  0  0  0  0  0  0  0  0  0
   -5.2357   -0.3568    0.5641 C   0  0  0  0  0  0  0  0  0  0  0  0
   -5.7163   -1.2959    0.8745 H   0  0  0  0  0  0  0  0  0  0  0  0
   -5.8176    0.4780   -0.3997 C   0  0  0  0  0  0  0  0  0  0  0  0
   -6.7776    0.1867   -0.8516 H   0  0  0  0  0  0  0  0  0  0  0  0
   -5.2031    1.6891   -0.8039 C   0  0  0  0  0  0  0  0  0  0  0  0
   -5.6940    2.3080   -1.5691 H   0  0  0  0  0  0  0  0  0  0  0  0
   -3.9904    2.1174   -0.2533 C   0  0  0  0  0  0  0  0  0  0  0  0
   -3.5060    3.0485   -0.5768 H   0  0  0  0  0  0  0  0  0  0  0  0
   -3.3875    1.2965    0.7195 C   0  0  0  0  0  0  0  0  0  0  0  0
    1.4668   -0.4172    2.8766 C   0  0  0  0  0  0  0  0  0  0  0  0
    1.3342   -0.9157    3.8666 H   0  0  0  0  0  0  0  0  0  0  0  0
    2.3975    0.1858    2.9767 H   0  0  0  0  0  0  0  0  0  0  0  0
    1.7069   -1.4605    1.8144 C   0  0  1  0  0  3  0  0  0  0  0  0
    2.5445   -3.2654    0.7809 C   0  0  0  0  0  0  0  0  0  0  0  0
    3.1828   -4.4531    0.3936 C   0  0  0  0  0  0  0  0  0  0  0  0
    3.7588   -5.0635    1.1036 H   0  0  0  0  0  0  0  0  0  0  0  0
    3.0557   -4.8214   -0.9515 C   0  0  0  0  0  0  0  0  0  0  0  0
    3.5429   -5.7430   -1.3015 H   0  0  0  0  0  0  0  0  0  0  0  0
    2.3221   -4.0351   -1.8739 C   0  0  0  0  0  0  0  0  0  0  0  0
    2.2580   -4.3621   -2.9219 H   0  0  0  0  0  0  0  0  0  0  0  0
    1.6828   -2.8536   -1.4844 C   0  0  0  0  0  0  0  0  0  0  0  0
    1.1169   -2.2353   -2.1952 H   0  0  0  0  0  0  0  0  0  0  0  0
    1.7991   -2.4736   -0.1353 C   0  0  0  0  0  0  0  0  0  0  0  0
  1 39  1  0  0  0  0
  1 25  1  0  0  0  0
  2 14  1  0  0  0  0
  3 14  1  0  0  0  0
  3  4  1  0  0  0  0
  5 28  2  0  0  0  0
  6 28  1  0  0  0  0
  6  7  1  0  0  0  0
  8 42  1  0  0  0  0
  9 10  1  0  0  0  0
 11  1  1  0  0  0  0
 11 12  1  0  0  0  0
 13 11  1  0  0  0  0
 14 11  1  6  0  0  0
 15  3  1  0  0  0  0
 16 17  1  0  0  0  0
 16 15  1  0  0  0  0
 18 16  2  0  0  0  0
 19 18  1  0  0  0  0
 20 22  2  0  0  0  0
 20 18  1  0  0  0  0
 21 20  1  0  0  0  0
 22 24  1  0  0  0  0
 23 22  1  0  0  0  0
 24 15  2  0  0  0  0
 24  2  1  0  0  0  0
 25 27  1  0  0  0  0
 25 26  1  0  0  0  0
 28 25  1  0  0  0  0
 29  6  1  0  0  0  0
 30 31  1  0  0  0  0
 30 29  2  0  0  0  0
 32 30  1  0  0  0  0
 33 32  1  0  0  0  0
 34 32  2  0  0  0  0
 34 36  1  0  0  0  0
 35 34  1  0  0  0  0
 36 38  2  0  0  0  0
 37 36  1  0  0  0  0
 38 29  1  0  0  0  0
 38  5  1  0  0  0  0
 39 41  1  0  0  0  0
 39 40  1  0  0  0  0
 42  9  1  0  0  0  0
 42 39  1  6  0  0  0
 43  9  1  0  0  0  0
 44 43  1  0  0  0  0
 44 45  1  0  0  0  0
 46 44  2  0  0  0  0
 47 46  1  0  0  0  0
 48 50  2  0  0  0  0
 48 46  1  0  0  0  0
 49 48  1  0  0  0  0
 50 52  1  0  0  0  0
 51 50  1  0  0  0  0
 52  8  1  0  0  0  0
 52 43  2  0  0  0  0
M  END
