4,5
 OpenBabel05122313053D

 27 28  0  0  0  0  0  0  0  0999 V2000
    5.4025    1.6044    2.7116 O   0  0  0  0  0  0  0  0  0  0  0  0
    6.8525   -0.4835    2.6348 O   0  0  0  0  0  0  0  0  0  0  0  0
    6.0799   -2.3366    1.6167 O   0  0  0  0  0  0  0  0  0  0  0  0
   -0.5870   -1.9656   -1.6640 N   0  0  0  0  0  2  0  0  0  0  0  0
    1.4125   -1.0351   -0.0409 N   0  0  0  0  0  2  0  0  0  0  0  0
   -1.6402   -2.4005   -2.3824 C   0  0  0  0  0  3  0  0  0  0  0  0
   -2.2333   -1.6152   -2.8742 H   0  0  0  0  0  0  0  0  0  0  0  0
   -1.9487   -3.7567   -2.5218 C   0  0  0  0  0  0  0  0  0  0  0  0
   -2.8179   -4.0641   -3.1189 H   0  0  0  0  0  0  0  0  0  0  0  0
   -1.1186   -4.7018   -1.8837 C   0  0  0  0  0  0  0  0  0  0  0  0
   -1.3302   -5.7780   -1.9709 H   0  0  0  0  0  0  0  0  0  0  0  0
   -0.0294   -4.2611   -1.1356 C   0  0  0  0  0  0  0  0  0  0  0  0
    0.6317   -4.9704   -0.6167 H   0  0  0  0  0  0  0  0  0  0  0  0
    0.2222   -2.8691   -1.0202 C   0  0  0  0  0  0  0  0  0  0  0  0
    1.3030   -2.3471   -0.2231 C   0  0  0  0  0  3  0  0  0  0  0  0
    1.9885   -3.0604    0.2655 H   0  0  0  0  0  0  0  0  0  0  0  0
    2.4247   -0.4233    0.6533 C   0  0  0  0  0  0  0  0  0  0  0  0
    2.2609    0.9535    1.0290 C   0  0  0  0  0  0  0  0  0  0  0  0
    1.3088    1.4483    0.7883 H   0  0  0  0  0  0  0  0  0  0  0  0
    3.2368    1.6269    1.7243 C   0  0  0  0  0  3  0  0  0  0  0  0
    3.1039    2.6731    2.0364 H   0  0  0  0  0  0  0  0  0  0  0  0
    4.4905    0.9855    2.0904 C   0  0  0  0  0  0  0  0  0  0  0  0
    4.6464   -0.4202    1.6889 C   0  0  0  0  0  0  0  0  0  0  0  0
    3.6387   -1.0802    1.0168 C   0  0  0  0  0  0  0  0  0  0  0  0
    3.8478   -2.1258    0.7382 H   0  0  0  0  0  0  0  0  0  0  0  0
    5.9265   -1.1772    1.9743 C   0  0  0  0  0  0  0  0  0  0  0  0
    6.4606    0.4532    2.7959 H   0  0  0  0  0  0  0  0  0  0  0  0
  2 27  1  0  0  0  0
  3 26  2  0  0  0  0
  4 14  1  0  0  0  0
  5 17  1  0  0  0  0
  6  4  1  0  0  0  0
  7  6  1  0  0  0  0
  8  6  1  0  0  0  0
  8 10  2  0  0  0  0
  9  8  1  0  0  0  0
 10 12  1  0  0  0  0
 11 10  1  0  0  0  0
 12 14  2  0  0  0  0
 12 13  1  0  0  0  0
 14 15  1  0  0  0  0
 15  5  1  0  0  0  0
 15 16  1  0  0  0  0
 17 24  1  0  0  0  0
 17 18  2  0  0  0  0
 18 20  1  0  0  0  0
 19 18  1  0  0  0  0
 20 21  1  0  0  0  0
 20 22  1  0  0  0  0
 22  1  2  0  0  0  0
 23 26  1  0  0  0  0
 23 22  1  0  0  0  0
 24 23  2  0  0  0  0
 25 24  1  0  0  0  0
 26  2  1  0  0  0  0
M  END
