2,28
 OpenBabel05122313053D

 30 30  0  0  1  0  0  0  0  0999 V2000
   -3.3431   -1.9601   -0.2615 N   0  0  0  0  0  0  0  0  0  0  0  0
    0.0675   -1.2850    0.3645 N   0  0  0  0  0  2  0  0  0  0  0  0
    4.1822   -1.9500   -0.6099 C   0  0  0  0  0  0  0  0  0  0  0  0
    4.5243   -2.1676   -1.6315 H   0  0  0  0  0  0  0  0  0  0  0  0
   -4.2506   -1.9034   -1.4009 C   0  0  0  0  0  0  0  0  0  0  0  0
   -4.1356   -0.9434   -1.9398 H   0  0  0  0  0  0  0  0  0  0  0  0
   -5.2895   -1.9461   -1.0271 H   0  0  0  0  0  0  0  0  0  0  0  0
   -4.0875   -2.7495   -2.1035 H   0  0  0  0  0  0  0  0  0  0  0  0
    0.4030   -2.3780    2.5323 C   0  0  0  0  0  0  0  0  0  0  0  0
   -0.3601   -1.7501    3.0334 H   0  0  0  0  0  0  0  0  0  0  0  0
    1.2365   -2.5852    3.2246 H   0  0  0  0  0  0  0  0  0  0  0  0
   -0.0864   -3.3450    2.2905 H   0  0  0  0  0  0  0  0  0  0  0  0
   -1.2880   -1.6525    0.6884 O   0  0  0  0  0  0  0  0  0  0  0  0
    2.8132   -1.9666   -0.3302 C   0  0  0  0  0  0  0  0  0  0  0  0
    2.0927   -2.2100   -1.1242 H   0  0  0  0  0  0  0  0  0  0  0  0
   -3.8126   -2.6188    0.9522 C   0  0  0  0  0  0  0  0  0  0  0  0
   -3.0388   -2.5738    1.7357 H   0  0  0  0  0  0  0  0  0  0  0  0
   -4.0592   -3.6832    0.7529 H   0  0  0  0  0  0  0  0  0  0  0  0
   -4.7208   -2.1024    1.3243 H   0  0  0  0  0  0  0  0  0  0  0  0
    0.9023   -1.7359    1.2712 C   0  0  1  0  0  3  0  0  0  0  0  0
    5.1039   -1.6355    0.4036 C   0  0  0  0  0  0  0  0  0  0  0  0
    6.1823   -1.6266    0.1845 H   0  0  0  0  0  0  0  0  0  0  0  0
    4.6495   -1.3431    1.7014 C   0  0  0  0  0  0  0  0  0  0  0  0
    5.3692   -1.0990    2.4969 H   0  0  0  0  0  0  0  0  0  0  0  0
    2.3442   -1.6732    0.9727 C   0  0  0  0  0  0  0  0  0  0  0  0
    3.2785   -1.3708    1.9899 C   0  0  0  0  0  0  0  0  0  0  0  0
    2.9316   -1.1349    3.0072 H   0  0  0  0  0  0  0  0  0  0  0  0
   -1.5151   -1.0202   -1.4822 N   0  0  0  0  0  2  0  0  0  0  0  0
   -2.0563   -0.8929   -2.3404 H   0  0  0  0  0  0  0  0  0  0  0  0
   -2.0770   -1.5279   -0.4164 C   0  0  1  0  0  3  0  0  0  0  0  0
  1 16  1  0  0  0  0
  2 13  1  0  0  0  0
  3 14  2  0  0  0  0
  3 21  1  0  0  0  0
  4  3  1  0  0  0  0
  5  7  1  0  0  0  0
  5  1  1  0  0  0  0
  6  5  1  0  0  0  0
  8  5  1  0  0  0  0
  9 10  1  0  0  0  0
  9 11  1  0  0  0  0
 12  9  1  0  0  0  0
 14 25  1  0  0  0  0
 15 14  1  0  0  0  0
 16 19  1  0  0  0  0
 16 17  1  0  0  0  0
 18 16  1  0  0  0  0
 20  2  1  6  0  0  0
 20  9  1  0  0  0  0
 21 23  2  0  0  0  0
 22 21  1  0  0  0  0
 23 26  1  0  0  0  0
 23 24  1  0  0  0  0
 25 20  1  0  0  0  0
 25 26  2  0  0  0  0
 26 27  1  0  0  0  0
 29 28  1  0  0  0  0
 30 28  1  6  0  0  0
 30  1  1  0  0  0  0
 30 13  1  0  0  0  0
M  END
