2,5
 OpenBabel05122313053D

 23 22  0  0  1  0  0  0  0  0999 V2000
   -2.4750    0.9789   -0.2838 O   0  0  0  0  0  0  0  0  0  0  0  0
   -1.3292   -0.6425   -1.4576 N   0  0  0  0  0  2  0  0  0  0  0  0
   -1.4161   -1.5608   -1.9058 H   0  0  0  0  0  0  0  0  0  0  0  0
   -3.7317   -0.6177   -1.2714 N   0  0  0  0  0  0  0  0  0  0  0  0
   -1.2683    1.2527    0.3564 N   0  0  0  0  0  2  0  0  0  0  0  0
   -2.4626   -0.1869   -1.0425 C   0  0  2  0  0  3  0  0  0  0  0  0
   -3.9380   -1.6761   -2.2460 C   0  0  0  0  0  0  0  0  0  0  0  0
   -3.2480   -1.5500   -3.1035 H   0  0  0  0  0  0  0  0  0  0  0  0
   -4.9732   -1.6155   -2.6331 H   0  0  0  0  0  0  0  0  0  0  0  0
   -3.7911   -2.6894   -1.8076 H   0  0  0  0  0  0  0  0  0  0  0  0
   -4.8706   -0.2592   -0.4312 C   0  0  0  0  0  0  0  0  0  0  0  0
   -5.6499    0.2680   -1.0210 H   0  0  0  0  0  0  0  0  0  0  0  0
   -4.5423    0.3923    0.3946 H   0  0  0  0  0  0  0  0  0  0  0  0
   -5.3204   -1.1753    0.0065 H   0  0  0  0  0  0  0  0  0  0  0  0
   -1.2787    2.3858    0.9950 C   0  0  0  0  0  3  0  0  0  0  0  0
   -0.0918    2.7188    1.8391 C   0  0  0  0  0  0  0  0  0  0  0  0
    0.6432    1.8931    1.8385 H   0  0  0  0  0  0  0  0  0  0  0  0
   -0.4304    2.9015    2.8808 H   0  0  0  0  0  0  0  0  0  0  0  0
    0.3891    3.6564    1.4892 H   0  0  0  0  0  0  0  0  0  0  0  0
   -2.4637    3.3004    0.9650 C   0  0  0  0  0  0  0  0  0  0  0  0
   -2.8831    3.3860   -0.0555 H   0  0  0  0  0  0  0  0  0  0  0  0
   -2.1996    4.3011    1.3517 H   0  0  0  0  0  0  0  0  0  0  0  0
   -3.2694    2.8837    1.6078 H   0  0  0  0  0  0  0  0  0  0  0  0
  1  5  1  0  0  0  0
  3  2  1  0  0  0  0
  4  6  1  0  0  0  0
  4 11  1  0  0  0  0
  5 15  1  0  0  0  0
  6  2  1  6  0  0  0
  6  1  1  0  0  0  0
  7 10  1  0  0  0  0
  7  4  1  0  0  0  0
  8  7  1  0  0  0  0
  9  7  1  0  0  0  0
 11 14  1  0  0  0  0
 11 13  1  0  0  0  0
 12 11  1  0  0  0  0
 15 16  1  0  0  0  0
 16 18  1  0  0  0  0
 17 16  1  0  0  0  0
 19 16  1  0  0  0  0
 20 15  1  0  0  0  0
 20 22  1  0  0  0  0
 20 23  1  0  0  0  0
 21 20  1  0  0  0  0
M  END
