1,2
 OpenBabel05122313053D

 29 29  0  0  0  0  0  0  0  0999 V2000
    1.2225    1.5658   -0.0655 N   0  0  0  0  0  2  0  0  0  0  0  0
   -0.4157   -0.0200   -1.4194 N   0  0  0  0  0  2  0  0  0  0  0  0
    0.1885    3.5673   -0.9625 C   0  0  0  0  0  0  0  0  0  0  0  0
   -0.5865    1.2590   -1.5853 C   0  0  0  0  0  0  0  0  0  0  0  0
    2.0350    3.7393    0.5774 C   0  0  0  0  0  0  0  0  0  0  0  0
    1.0745    4.3661   -0.2332 C   0  0  0  0  0  0  0  0  0  0  0  0
   -1.3174   -0.9502   -2.1000 C   0  0  0  0  0  0  0  0  0  0  0  0
   -2.4006   -1.4693   -1.1498 C   0  0  0  0  0  0  0  0  0  0  0  0
    0.2831    2.1680   -0.8586 C   0  0  0  0  0  0  0  0  0  0  0  0
   -4.1593   -0.7991    0.2671 O   0  0  0  0  0  0  0  0  0  0  0  0
   -3.4719    0.7087   -1.2882 O   0  0  0  0  0  0  0  0  0  0  0  0
    2.0744    2.3412    0.6344 C   0  0  0  0  0  0  0  0  0  0  0  0
   -3.3849   -0.3858   -0.7503 C   0  0  0  0  0  0  0  0  0  0  0  0
   -5.0529    0.1800    0.8503 C   0  0  0  0  0  0  0  0  0  0  0  0
   -1.7942   -0.4509   -2.9691 H   0  0  0  0  0  0  0  0  0  0  0  0
   -2.9586   -2.2922   -1.6444 H   0  0  0  0  0  0  0  0  0  0  0  0
   -5.4073    0.8597    0.0494 H   0  0  0  0  0  0  0  0  0  0  0  0
    1.0181    5.4628   -0.2921 H   0  0  0  0  0  0  0  0  0  0  0  0
    2.8030    1.8133    1.2665 H   0  0  0  0  0  0  0  0  0  0  0  0
   -1.9646   -1.8882   -0.2222 H   0  0  0  0  0  0  0  0  0  0  0  0
   -0.7076   -1.8003   -2.4631 H   0  0  0  0  0  0  0  0  0  0  0  0
   -0.5845    4.0072   -1.6087 H   0  0  0  0  0  0  0  0  0  0  0  0
    2.7515    4.3238    1.1714 H   0  0  0  0  0  0  0  0  0  0  0  0
   -1.3830    1.6521   -2.2397 H   0  0  0  0  0  0  0  0  0  0  0  0
   -4.3528    0.9446    1.9607 C   0  0  0  0  0  0  0  0  0  0  0  0
   -5.0621    1.6496    2.4399 H   0  0  0  0  0  0  0  0  0  0  0  0
   -5.9076   -0.4119    1.2325 H   0  0  0  0  0  0  0  0  0  0  0  0
   -3.4947    1.5194    1.5620 H   0  0  0  0  0  0  0  0  0  0  0  0
   -3.9618    0.2533    2.7322 H   0  0  0  0  0  0  0  0  0  0  0  0
  1 12  1  0  0  0  0
  3  9  1  0  0  0  0
  3  6  2  0  0  0  0
  4  2  1  0  0  0  0
  4  9  2  0  0  0  0
  5 12  2  0  0  0  0
  5 23  1  0  0  0  0
  6  5  1  0  0  0  0
  7  2  1  0  0  0  0
  7  8  1  0  0  0  0
  8 13  1  0  0  0  0
  8 20  1  0  0  0  0
  9  1  1  0  0  0  0
 10 14  1  0  0  0  0
 11 13  2  0  0  0  0
 12 19  1  0  0  0  0
 13 10  1  0  0  0  0
 14 27  1  0  0  0  0
 14 25  1  0  0  0  0
 15  7  1  0  0  0  0
 16  8  1  0  0  0  0
 17 14  1  0  0  0  0
 18  6  1  0  0  0  0
 21  7  1  0  0  0  0
 22  3  1  0  0  0  0
 24  4  1  0  0  0  0
 25 26  1  0  0  0  0
 25 29  1  0  0  0  0
 28 25  1  0  0  0  0
M  END
