4,28
 OpenBabel05122313053D

 40 42  0  0  1  0  0  0  0  0999 V2000
   -5.1196   -0.0001   -2.4922 S   0  0  0  0  0  0  0  0  0  0  0  0
   -3.6909   -1.4601   -0.2609 S   0  0  0  0  0  0  0  0  0  0  0  0
   -2.1162   -1.7270    2.3048 S   0  0  0  0  0  0  0  0  0  0  0  0
    2.0136   -2.0344   -0.3346 N   0  0  0  0  0  2  0  0  0  0  0  0
   -4.2305   -0.0001   -1.1122 C   0  0  0  0  0  0  0  0  0  0  0  0
   -2.8216   -0.6881    1.0635 C   0  0  0  0  0  0  0  0  0  0  0  0
   -0.4122   -1.9908    1.6626 C   0  0  0  0  0  0  0  0  0  0  0  0
    3.2670   -2.4704   -0.6062 C   0  0  0  0  0  3  0  0  0  0  0  0
    3.5688   -3.8215   -0.7796 C   0  0  0  0  0  0  0  0  0  0  0  0
    2.5361   -4.7604   -0.6521 C   0  0  0  0  0  0  0  0  0  0  0  0
    1.2516   -4.3040   -0.3448 C   0  0  0  0  0  0  0  0  0  0  0  0
    1.0001   -2.9269   -0.1882 C   0  0  0  0  0  0  0  0  0  0  0  0
   -0.3649   -2.4325    0.1942 C   0  0  0  0  0  0  0  0  0  0  0  0
   -0.0170   -2.7815    2.3338 H   0  0  0  0  0  0  0  0  0  0  0  0
    0.2049   -1.0835    1.8243 H   0  0  0  0  0  0  0  0  0  0  0  0
    4.0397   -1.6926   -0.6713 H   0  0  0  0  0  0  0  0  0  0  0  0
    4.6008   -4.1209   -1.0081 H   0  0  0  0  0  0  0  0  0  0  0  0
    2.7308   -5.8352   -0.7838 H   0  0  0  0  0  0  0  0  0  0  0  0
    0.4157   -5.0072   -0.2219 H   0  0  0  0  0  0  0  0  0  0  0  0
   -1.1007   -3.2439    0.0294 H   0  0  0  0  0  0  0  0  0  0  0  0
   -0.6322   -1.5837   -0.4713 H   0  0  0  0  0  0  0  0  0  0  0  0
   -3.6910    1.4599   -0.2609 S   0  0  0  0  0  0  0  0  0  0  0  0
   -2.8216    0.6879    1.0635 C   0  0  0  0  0  0  0  0  0  0  0  0
   -2.1163    1.7268    2.3048 S   0  0  0  0  0  0  0  0  0  0  0  0
   -0.4123    1.9908    1.6626 C   0  0  0  0  0  0  0  0  0  0  0  0
   -0.3650    2.4324    0.1942 C   0  0  0  0  0  0  0  0  0  0  0  0
    0.9999    2.9269   -0.1882 C   0  0  2  0  0  3  0  0  0  0  0  0
    2.0135    2.0345   -0.3346 N   0  0  0  0  0  2  0  0  0  0  0  0
    3.2668    2.4706   -0.6061 C   0  0  0  0  0  0  0  0  0  0  0  0
    3.5685    3.8217   -0.7796 C   0  0  0  0  0  0  0  0  0  0  0  0
    2.5358    4.7605   -0.6521 C   0  0  0  0  0  0  0  0  0  0  0  0
    1.2513    4.3040   -0.3449 C   0  0  0  0  0  0  0  0  0  0  0  0
    0.4153    5.0072   -0.2219 H   0  0  0  0  0  0  0  0  0  0  0  0
    2.7303    5.8354   -0.7838 H   0  0  0  0  0  0  0  0  0  0  0  0
    4.6005    4.1212   -1.0081 H   0  0  0  0  0  0  0  0  0  0  0  0
    4.0396    1.6928   -0.6713 H   0  0  0  0  0  0  0  0  0  0  0  0
   -1.1009    3.2437    0.0293 H   0  0  0  0  0  0  0  0  0  0  0  0
   -0.6323    1.5836   -0.4713 H   0  0  0  0  0  0  0  0  0  0  0  0
   -0.0172    2.7816    2.3338 H   0  0  0  0  0  0  0  0  0  0  0  0
    0.2049    1.0835    1.8244 H   0  0  0  0  0  0  0  0  0  0  0  0
  1  5  2  0  0  0  0
  2  6  1  0  0  0  0
  4 12  1  0  0  0  0
  5  2  1  0  0  0  0
  5 22  1  0  0  0  0
  6 23  2  0  0  0  0
  6  3  1  0  0  0  0
  7 15  1  0  0  0  0
  7  3  1  0  0  0  0
  7 14  1  0  0  0  0
  8  4  1  0  0  0  0
  9 10  2  0  0  0  0
  9  8  1  0  0  0  0
 10 11  1  0  0  0  0
 11 19  1  0  0  0  0
 11 12  2  0  0  0  0
 12 13  1  0  0  0  0
 13  7  1  0  0  0  0
 16  8  1  0  0  0  0
 17  9  1  0  0  0  0
 18 10  1  0  0  0  0
 20 13  1  0  0  0  0
 21 13  1  0  0  0  0
 22 23  1  0  0  0  0
 23 24  1  0  0  0  0
 25 40  1  0  0  0  0
 25 24  1  0  0  0  0
 25 39  1  0  0  0  0
 26 25  1  0  0  0  0
 27 26  1  1  0  0  0
 28 27  1  0  0  0  0
 29 28  1  0  0  0  0
 30 31  1  0  0  0  0
 30 29  2  0  0  0  0
 31 32  2  0  0  0  0
 32 33  1  0  0  0  0
 32 27  1  0  0  0  0
 34 31  1  0  0  0  0
 35 30  1  0  0  0  0
 36 29  1  0  0  0  0
 37 26  1  0  0  0  0
 38 26  1  0  0  0  0
M  END
