1,15
 OpenBabel05122313053D

 28 29  0  0  1  0  0  0  0  0999 V2000
   -1.3065    0.6534   -0.3044 N   0  0  0  0  0  2  0  0  0  0  0  0
   -3.0853   -0.6829   -0.6833 O   0  0  0  0  0  0  0  0  0  0  0  0
   -2.6466    0.5599   -0.4821 C   0  0  2  0  0  3  0  0  0  0  0  0
   -3.4826    1.6990   -0.4616 C   0  0  0  0  0  0  0  0  0  0  0  0
   -4.5660    1.5972   -0.5978 H   0  0  0  0  0  0  0  0  0  0  0  0
   -2.8994    2.9534   -0.2769 C   0  0  0  0  0  0  0  0  0  0  0  0
   -3.5292    3.8546   -0.2539 H   0  0  0  0  0  0  0  0  0  0  0  0
   -1.5088    3.0584   -0.1485 C   0  0  0  0  0  0  0  0  0  0  0  0
   -1.0325    4.0402   -0.0411 H   0  0  0  0  0  0  0  0  0  0  0  0
   -0.7375    1.8866   -0.1844 C   0  0  0  0  0  0  0  0  0  0  0  0
   -4.4828   -0.9487   -0.8184 C   0  0  0  0  0  0  0  0  0  0  0  0
   -5.0447   -0.6044    0.0747 H   0  0  0  0  0  0  0  0  0  0  0  0
   -4.5668   -2.0463   -0.9032 H   0  0  0  0  0  0  0  0  0  0  0  0
   -4.8929   -0.4721   -1.7328 H   0  0  0  0  0  0  0  0  0  0  0  0
    1.3066    0.6534   -0.3042 N   0  0  0  0  0  2  0  0  0  0  0  0
    3.0855   -0.6829   -0.6827 O   0  0  0  0  0  0  0  0  0  0  0  0
    2.6467    0.5600   -0.4818 C   0  0  1  0  0  3  0  0  0  0  0  0
    3.4826    1.6991   -0.4614 C   0  0  0  0  0  0  0  0  0  0  0  0
    4.5661    1.5973   -0.5976 H   0  0  0  0  0  0  0  0  0  0  0  0
    2.8994    2.9535   -0.2770 C   0  0  0  0  0  0  0  0  0  0  0  0
    3.5291    3.8548   -0.2542 H   0  0  0  0  0  0  0  0  0  0  0  0
    1.5088    3.0585   -0.1487 C   0  0  0  0  0  0  0  0  0  0  0  0
    1.0324    4.0403   -0.0414 H   0  0  0  0  0  0  0  0  0  0  0  0
    0.7376    1.8866   -0.1844 C   0  0  0  0  0  0  0  0  0  0  0  0
    4.4829   -0.9486   -0.8178 C   0  0  0  0  0  0  0  0  0  0  0  0
    4.8929   -0.4721   -1.7323 H   0  0  0  0  0  0  0  0  0  0  0  0
    4.5670   -2.0462   -0.9026 H   0  0  0  0  0  0  0  0  0  0  0  0
    5.0449   -0.6042    0.0752 H   0  0  0  0  0  0  0  0  0  0  0  0
  1 10  1  0  0  0  0
  3  2  1  6  0  0  0
  3  4  1  0  0  0  0
  3  1  1  0  0  0  0
  4  6  2  0  0  0  0
  5  4  1  0  0  0  0
  6  7  1  0  0  0  0
  6  8  1  0  0  0  0
  8  9  1  0  0  0  0
 10 24  1  0  0  0  0
 10  8  2  0  0  0  0
 11  2  1  0  0  0  0
 11 12  1  0  0  0  0
 13 11  1  0  0  0  0
 14 11  1  0  0  0  0
 15 24  1  0  0  0  0
 17 16  1  6  0  0  0
 17 18  1  0  0  0  0
 17 15  1  0  0  0  0
 18 20  2  0  0  0  0
 19 18  1  0  0  0  0
 20 21  1  0  0  0  0
 20 22  1  0  0  0  0
 22 23  1  0  0  0  0
 24 22  2  0  0  0  0
 25 16  1  0  0  0  0
 25 28  1  0  0  0  0
 26 25  1  0  0  0  0
 27 25  1  0  0  0  0
M  END
