5,6
 OpenBabel05122313053D

 37 38  0  0  0  0  0  0  0  0999 V2000
    1.9020    2.7888    0.3305 Cl  0  0  0  0  0  0  0  0  0  0  0  0
    4.4324   -1.7985   -1.1046 Cl  0  0  0  0  0  0  0  0  0  0  0  0
   -1.2895    3.7894    1.1565 Cl  0  0  0  0  0  0  0  0  0  0  0  0
   -3.8301   -0.9865    0.3288 Cl  0  0  0  0  0  0  0  0  0  0  0  0
    1.3369   -0.8367    0.1625 N   0  0  0  0  0  2  0  0  0  0  0  0
   -1.0670   -0.2032    1.5937 N   0  0  0  0  0  2  0  0  0  0  0  0
    1.2076   -0.4913    2.5899 C   0  0  0  0  0  0  0  0  0  0  0  0
    1.8778   -1.2656    1.4434 C   0  0  0  0  0  0  0  0  0  0  0  0
    1.9523   -0.0319   -0.6240 C   0  0  0  0  0  3  0  0  0  0  0  0
    3.2943    0.5690   -0.3855 C   0  0  0  0  0  0  0  0  0  0  0  0
    3.3865    1.9176    0.0224 C   0  0  0  0  0  0  0  0  0  0  0  0
    4.6214    2.5555    0.2027 C   0  0  0  0  0  0  0  0  0  0  0  0
    5.7989    1.8315   -0.0336 C   0  0  0  0  0  0  0  0  0  0  0  0
    5.7486    0.4903   -0.4374 C   0  0  0  0  0  0  0  0  0  0  0  0
    4.5009   -0.1289   -0.6099 C   0  0  0  0  0  0  0  0  0  0  0  0
   -0.3086   -0.6927    2.7419 C   0  0  0  0  0  0  0  0  0  0  0  0
   -1.7400    0.8857    1.7105 C   0  0  0  0  0  3  0  0  0  0  0  0
   -2.5939    1.4451    0.6484 C   0  0  0  0  0  0  0  0  0  0  0  0
   -2.4825    2.8174    0.3211 C   0  0  0  0  0  0  0  0  0  0  0  0
   -3.2696    3.4181   -0.6664 C   0  0  0  0  0  0  0  0  0  0  0  0
   -4.2208    2.6367   -1.3375 C   0  0  0  0  0  0  0  0  0  0  0  0
   -4.3842    1.2823   -1.0260 C   0  0  0  0  0  0  0  0  0  0  0  0
   -3.5765    0.6924   -0.0437 C   0  0  0  0  0  0  0  0  0  0  0  0
    1.6814   -0.8176    3.5387 H   0  0  0  0  0  0  0  0  0  0  0  0
    1.4241    0.5926    2.4738 H   0  0  0  0  0  0  0  0  0  0  0  0
    2.9776   -1.1243    1.4962 H   0  0  0  0  0  0  0  0  0  0  0  0
    1.6476   -2.3485    1.5367 H   0  0  0  0  0  0  0  0  0  0  0  0
    1.3932    0.2673   -1.5401 H   0  0  0  0  0  0  0  0  0  0  0  0
    4.6481    3.6050    0.5256 H   0  0  0  0  0  0  0  0  0  0  0  0
    6.7745    2.3216    0.1013 H   0  0  0  0  0  0  0  0  0  0  0  0
    6.6653   -0.0856   -0.6230 H   0  0  0  0  0  0  0  0  0  0  0  0
   -0.5348   -1.7785    2.8241 H   0  0  0  0  0  0  0  0  0  0  0  0
   -0.6474   -0.1839    3.6720 H   0  0  0  0  0  0  0  0  0  0  0  0
   -1.6910    1.4678    2.6585 H   0  0  0  0  0  0  0  0  0  0  0  0
   -3.1280    4.4810   -0.9033 H   0  0  0  0  0  0  0  0  0  0  0  0
   -4.8448    3.0934   -2.1199 H   0  0  0  0  0  0  0  0  0  0  0  0
   -5.1252    0.6625   -1.5476 H   0  0  0  0  0  0  0  0  0  0  0  0
  2 15  1  0  0  0  0
  5  8  1  0  0  0  0
  6 17  1  0  0  0  0
  6 16  1  0  0  0  0
  7 16  1  0  0  0  0
  7 24  1  0  0  0  0
  8 26  1  0  0  0  0
  8 27  1  0  0  0  0
  8  7  1  0  0  0  0
  9 10  1  0  0  0  0
  9  5  1  0  0  0  0
 10 11  1  0  0  0  0
 11 12  2  0  0  0  0
 11  1  1  0  0  0  0
 12 29  1  0  0  0  0
 13 30  1  0  0  0  0
 13 12  1  0  0  0  0
 14 13  2  0  0  0  0
 15 14  1  0  0  0  0
 15 10  2  0  0  0  0
 16 32  1  0  0  0  0
 16 33  1  0  0  0  0
 17 34  1  0  0  0  0
 18 17  1  0  0  0  0
 19 18  1  0  0  0  0
 19  3  1  0  0  0  0
 20 19  2  0  0  0  0
 21 22  2  0  0  0  0
 21 20  1  0  0  0  0
 22 23  1  0  0  0  0
 23  4  1  0  0  0  0
 23 18  2  0  0  0  0
 25  7  1  0  0  0  0
 28  9  1  0  0  0  0
 31 14  1  0  0  0  0
 35 20  1  0  0  0  0
 36 21  1  0  0  0  0
 37 22  1  0  0  0  0
M  END
