1,2
 OpenBabel05122313053D

 26 27  0  0  0  0  0  0  0  0999 V2000
   -2.4549    0.6994   -0.3247 N   0  0  0  0  0  2  0  0  0  0  0  0
    0.1584    1.0564    0.0681 N   0  0  0  0  0  2  0  0  0  0  0  0
    4.8799   -0.2597   -0.9831 C   0  0  0  0  0  0  0  0  0  0  0  0
    6.0542   -0.1897   -0.5336 O   0  5  0  0  0  0  0  0  0  0  0  0
    4.3932   -0.8796   -1.9572 O   0  0  0  0  0  0  0  0  0  0  0  0
   -3.7738    0.4953   -0.5389 C   0  0  0  0  0  3  0  0  0  0  0  0
   -4.1111   -0.5492   -0.4593 H   0  0  0  0  0  0  0  0  0  0  0  0
   -4.6687    1.5255   -0.8392 C   0  0  0  0  0  0  0  0  0  0  0  0
   -5.7304    1.2914   -1.0008 H   0  0  0  0  0  0  0  0  0  0  0  0
   -4.1837    2.8488   -0.9275 C   0  0  0  0  0  0  0  0  0  0  0  0
   -4.8620    3.6824   -1.1638 H   0  0  0  0  0  0  0  0  0  0  0  0
   -2.8267    3.0766   -0.7114 C   0  0  0  0  0  0  0  0  0  0  0  0
   -2.3981    4.0880   -0.7715 H   0  0  0  0  0  0  0  0  0  0  0  0
   -1.9719    1.9887   -0.4102 C   0  0  0  0  0  0  0  0  0  0  0  0
   -0.5631    2.1344   -0.1796 C   0  0  0  0  0  3  0  0  0  0  0  0
   -0.0907    3.1315   -0.2400 H   0  0  0  0  0  0  0  0  0  0  0  0
    1.5423    1.2161    0.3177 C   0  0  0  0  0  0  0  0  0  0  0  0
    2.4759    0.4155   -0.3776 C   0  0  0  0  0  0  0  0  0  0  0  0
    2.1597   -0.3246   -1.1274 H   0  0  0  0  0  0  0  0  0  0  0  0
    3.8499    0.5992   -0.1749 C   0  0  0  0  0  0  0  0  0  0  0  0
    4.2955    1.5656    0.7455 C   0  0  0  0  0  0  0  0  0  0  0  0
    5.3824    1.6357    0.9034 H   0  0  0  0  0  0  0  0  0  0  0  0
    3.3722    2.3695    1.4330 C   0  0  0  0  0  0  0  0  0  0  0  0
    3.7216    3.1179    2.1631 H   0  0  0  0  0  0  0  0  0  0  0  0
    1.9963    2.2056    1.2221 C   0  0  0  0  0  0  0  0  0  0  0  0
    1.2617    2.8021    1.7848 H   0  0  0  0  0  0  0  0  0  0  0  0
  2 17  1  0  0  0  0
  3  4  1  0  0  0  0
  3 20  1  0  0  0  0
  5  3  2  0  0  0  0
  6  7  1  0  0  0  0
  6  1  1  0  0  0  0
  8  6  1  0  0  0  0
  9  8  1  0  0  0  0
 10  8  2  0  0  0  0
 10 12  1  0  0  0  0
 11 10  1  0  0  0  0
 12 14  2  0  0  0  0
 13 12  1  0  0  0  0
 14  1  1  0  0  0  0
 14 15  1  0  0  0  0
 15  2  1  0  0  0  0
 16 15  1  0  0  0  0
 17 25  1  0  0  0  0
 18 20  1  0  0  0  0
 18 17  2  0  0  0  0
 19 18  1  0  0  0  0
 20 21  2  0  0  0  0
 21 22  1  0  0  0  0
 21 23  1  0  0  0  0
 23 24  1  0  0  0  0
 25 23  2  0  0  0  0
 25 26  1  0  0  0  0
M  CHG  1   4  -1
M  END
