4,8
 OpenBabel05122313053D

 19 19  0  0  0  0  0  0  0  0999 V2000
   -0.3710   -2.7476   -0.0679 O   0  0  0  0  0  1  0  0  0  0  0  0
   -2.2497   -1.5980   -0.0674 N   0  0  0  0  0  0  0  0  0  0  0  0
   -3.9755   -0.0395   -0.0511 N   0  0  0  0  0  0  0  0  0  0  0  0
   -1.7136    0.6800   -0.0087 N   0  0  0  0  0  2  0  0  0  0  0  0
   -4.9948   -1.0972   -0.0549 C   0  0  0  0  0  0  0  0  0  0  0  0
   -5.0977   -1.5352   -1.0735 H   0  0  0  0  0  0  0  0  0  0  0  0
   -4.7004   -1.9195    0.6240 H   0  0  0  0  0  0  0  0  0  0  0  0
   -0.9289   -1.6502   -0.0520 N   0  0  0  0  0  2  0  0  0  0  0  0
   -2.6400   -0.2699   -0.0408 C   0  0  0  0  0  0  0  0  0  0  0  0
   -4.5503    1.3040   -0.0279 C   0  0  0  0  0  0  0  0  0  0  0  0
   -4.3436    1.8004    0.9495 H   0  0  0  0  0  0  0  0  0  0  0  0
   -4.1051    1.9425   -0.8221 H   0  0  0  0  0  0  0  0  0  0  0  0
   -6.2613   -0.3441    0.3685 C   0  0  0  0  0  0  0  0  0  0  0  0
   -6.3107   -0.2780    1.4759 H   0  0  0  0  0  0  0  0  0  0  0  0
   -7.1879   -0.8389    0.0190 H   0  0  0  0  0  0  0  0  0  0  0  0
   -6.0515    1.0533   -0.2364 C   0  0  0  0  0  0  0  0  0  0  0  0
   -6.6795    1.8380    0.2272 H   0  0  0  0  0  0  0  0  0  0  0  0
   -6.2826    1.0365   -1.3220 H   0  0  0  0  0  0  0  0  0  0  0  0
   -1.9621    1.6730    0.0245 H   0  0  0  0  0  0  0  0  0  0  0  0
  1  8  1  0  0  0  0
  2  8  1  0  0  0  0
  2  9  2  0  0  0  0
  3  9  1  0  0  0  0
  3 10  1  0  0  0  0
  4 19  1  0  0  0  0
  5  3  1  0  0  0  0
  5 13  1  0  0  0  0
  5  7  1  0  0  0  0
  6  5  1  0  0  0  0
  9  4  1  0  0  0  0
 10 11  1  0  0  0  0
 12 10  1  0  0  0  0
 13 14  1  0  0  0  0
 15 13  1  0  0  0  0
 16 10  1  0  0  0  0
 16 17  1  0  0  0  0
 16 13  1  0  0  0  0
 18 16  1  0  0  0  0
M  END
