4,9
 OpenBabel05122313053D

 39 43  0  0  1  0  0  0  0  0999 V2000
    3.0986   -1.5399   -1.8243 N   0  0  0  0  0  0  0  0  0  0  0  0
    2.6382   -0.2787   -1.4896 N   0  0  0  0  0  0  0  0  0  0  0  0
    3.1306    0.0939   -0.2607 C   0  0  0  0  0  0  0  0  0  0  0  0
   -1.8973   -1.8007   -0.6410 N   0  0  0  0  0  2  0  0  0  0  0  0
    0.4675    0.7678   -1.8074 N   0  0  0  0  0  0  0  0  0  0  0  0
    3.8554   -1.9788   -0.8776 N   0  0  0  0  0  0  0  0  0  0  0  0
    3.5817    1.1540    1.8157 C   0  0  0  0  0  0  0  0  0  0  0  0
    3.4333    1.9840    2.5215 H   0  0  0  0  0  0  0  0  0  0  0  0
   -1.5326    0.7196   -0.8188 N   0  0  0  0  0  2  0  0  0  0  0  0
    2.9553    1.2135    0.5699 C   0  0  0  0  0  0  0  0  0  0  0  0
    2.3046    2.0549    0.3021 H   0  0  0  0  0  0  0  0  0  0  0  0
    3.9151   -1.0284    0.1252 C   0  0  0  0  0  0  0  0  0  0  0  0
   -1.1772    2.0440   -0.9301 C   0  0  0  0  0  0  0  0  0  0  0  0
   -2.2661   -3.0669   -0.4288 C   0  0  0  0  0  3  0  0  0  0  0  0
   -3.2151   -3.1827    0.1233 H   0  0  0  0  0  0  0  0  0  0  0  0
    0.0958    2.0965   -1.5608 C   0  0  0  0  0  0  0  0  0  0  0  0
   -0.5436   -0.0312   -1.3214 C   0  0  1  0  0  3  0  0  0  0  0  0
   -1.8468    3.2106   -0.5243 C   0  0  0  0  0  0  0  0  0  0  0  0
   -2.8153    3.1191   -0.0151 H   0  0  0  0  0  0  0  0  0  0  0  0
   -0.7253   -1.4824   -1.2629 C   0  0  0  0  0  0  0  0  0  0  0  0
    1.7433    0.3848   -2.3979 C   0  0  0  0  0  0  0  0  0  0  0  0
    1.5976   -0.3100   -3.2483 H   0  0  0  0  0  0  0  0  0  0  0  0
    2.1952    1.3164   -2.7917 H   0  0  0  0  0  0  0  0  0  0  0  0
    4.5552   -1.0595    1.3809 C   0  0  0  0  0  0  0  0  0  0  0  0
    5.1507   -1.9326    1.6813 H   0  0  0  0  0  0  0  0  0  0  0  0
    0.7396    3.3179   -1.8112 C   0  0  0  0  0  0  0  0  0  0  0  0
    1.7264    3.3802   -2.2917 H   0  0  0  0  0  0  0  0  0  0  0  0
   -1.2030    4.4246   -0.7733 C   0  0  0  0  0  0  0  0  0  0  0  0
   -1.6840    5.3648   -0.4661 H   0  0  0  0  0  0  0  0  0  0  0  0
    0.1166   -2.5003   -1.7368 C   0  0  0  0  0  0  0  0  0  0  0  0
    1.0914   -2.2778   -2.1936 H   0  0  0  0  0  0  0  0  0  0  0  0
   -1.4703   -4.1294   -0.8781 C   0  0  0  0  0  0  0  0  0  0  0  0
   -1.7894   -5.1653   -0.6983 H   0  0  0  0  0  0  0  0  0  0  0  0
    4.3707    0.0420    2.2152 C   0  0  0  0  0  0  0  0  0  0  0  0
    4.8295    0.0494    3.2147 H   0  0  0  0  0  0  0  0  0  0  0  0
   -0.2690   -3.8333   -1.5368 C   0  0  0  0  0  0  0  0  0  0  0  0
    0.3909   -4.6414   -1.8852 H   0  0  0  0  0  0  0  0  0  0  0  0
    0.0653    4.4768   -1.4045 C   0  0  0  0  0  0  0  0  0  0  0  0
    0.5387    5.4545   -1.5774 H   0  0  0  0  0  0  0  0  0  0  0  0
  1  2  1  0  0  0  0
  1  6  2  0  0  0  0
  2  3  1  0  0  0  0
  3 12  2  0  0  0  0
  3 10  1  0  0  0  0
  4 14  1  0  0  0  0
  5 16  1  0  0  0  0
  5 17  1  0  0  0  0
  6 12  1  0  0  0  0
  7 34  1  0  0  0  0
  7  8  1  0  0  0  0
 10  7  2  0  0  0  0
 11 10  1  0  0  0  0
 12 24  1  0  0  0  0
 13  9  1  0  0  0  0
 13 18  1  0  0  0  0
 14 15  1  0  0  0  0
 16 13  2  0  0  0  0
 17 20  1  6  0  0  0
 17  9  1  0  0  0  0
 18 19  1  0  0  0  0
 20  4  1  0  0  0  0
 21  5  1  0  0  0  0
 21  2  1  0  0  0  0
 22 21  1  0  0  0  0
 23 21  1  0  0  0  0
 24 25  1  0  0  0  0
 24 34  2  0  0  0  0
 26 16  1  0  0  0  0
 26 38  2  0  0  0  0
 27 26  1  0  0  0  0
 28 18  2  0  0  0  0
 28 29  1  0  0  0  0
 30 36  1  0  0  0  0
 30 20  2  0  0  0  0
 31 30  1  0  0  0  0
 32 33  1  0  0  0  0
 32 14  1  0  0  0  0
 34 35  1  0  0  0  0
 36 32  2  0  0  0  0
 37 36  1  0  0  0  0
 38 28  1  0  0  0  0
 39 38  1  0  0  0  0
M  END
