1,2
 OpenBabel05122313053D

 26 27  0  0  0  0  0  0  0  0999 V2000
    2.1909   -0.6143   -0.3399 N   0  0  0  0  0  2  0  0  0  0  0  0
   -0.3971   -1.0825   -0.0858 N   0  0  0  0  0  2  0  0  0  0  0  0
   -4.9742    0.3282   -1.1023 C   0  0  0  0  0  0  0  0  0  0  0  0
   -5.7478    1.0846   -1.6770 C   0  0  0  0  0  0  0  0  0  0  0  0
   -6.4219    1.7598   -2.1851 H   0  0  0  0  0  0  0  0  0  0  0  0
    3.4934   -0.3191   -0.5452 C   0  0  0  0  0  3  0  0  0  0  0  0
    3.7929    0.7155   -0.3220 H   0  0  0  0  0  0  0  0  0  0  0  0
    4.4171   -1.2553   -1.0170 C   0  0  0  0  0  0  0  0  0  0  0  0
    5.4649   -0.9566   -1.1608 H   0  0  0  0  0  0  0  0  0  0  0  0
    3.9838   -2.5656   -1.3002 C   0  0  0  0  0  0  0  0  0  0  0  0
    4.6894   -3.3231   -1.6714 H   0  0  0  0  0  0  0  0  0  0  0  0
    2.6377   -2.8783   -1.1119 C   0  0  0  0  0  0  0  0  0  0  0  0
    2.2446   -3.8803   -1.3369 H   0  0  0  0  0  0  0  0  0  0  0  0
    1.7572   -1.8822   -0.6381 C   0  0  0  0  0  0  0  0  0  0  0  0
    0.3428   -2.0968   -0.4686 C   0  0  0  0  0  3  0  0  0  0  0  0
   -0.1033   -3.0799   -0.7048 H   0  0  0  0  0  0  0  0  0  0  0  0
   -1.7950   -1.2766    0.0665 C   0  0  0  0  0  0  0  0  0  0  0  0
   -2.6790   -0.3995   -0.5869 C   0  0  0  0  0  0  0  0  0  0  0  0
   -2.2683    0.3803   -1.2426 H   0  0  0  0  0  0  0  0  0  0  0  0
   -4.0739   -0.5552   -0.4297 C   0  0  0  0  0  0  0  0  0  0  0  0
   -4.5695   -1.5915    0.4043 C   0  0  0  0  0  0  0  0  0  0  0  0
   -5.6551   -1.6991    0.5372 H   0  0  0  0  0  0  0  0  0  0  0  0
   -3.6817   -2.4595    1.0473 C   0  0  0  0  0  0  0  0  0  0  0  0
   -4.0707   -3.2578    1.6971 H   0  0  0  0  0  0  0  0  0  0  0  0
   -2.2956   -2.3163    0.8784 C   0  0  0  0  0  0  0  0  0  0  0  0
   -1.5955   -2.9880    1.3970 H   0  0  0  0  0  0  0  0  0  0  0  0
  2 17  1  0  0  0  0
  3 20  1  0  0  0  0
  4  3  3  0  0  0  0
  5  4  1  0  0  0  0
  6  1  1  0  0  0  0
  6  7  1  0  0  0  0
  8  6  1  0  0  0  0
  9  8  1  0  0  0  0
 10 12  1  0  0  0  0
 10  8  2  0  0  0  0
 11 10  1  0  0  0  0
 12 14  2  0  0  0  0
 13 12  1  0  0  0  0
 14 15  1  0  0  0  0
 14  1  1  0  0  0  0
 15  2  1  0  0  0  0
 16 15  1  0  0  0  0
 17 25  1  0  0  0  0
 18 20  1  0  0  0  0
 18 17  2  0  0  0  0
 19 18  1  0  0  0  0
 20 21  2  0  0  0  0
 21 22  1  0  0  0  0
 21 23  1  0  0  0  0
 23 24  1  0  0  0  0
 25 23  2  0  0  0  0
 25 26  1  0  0  0  0
M  END
