33,34
 OpenBabel05122313053D

 36 40  0  0  0  0  0  0  0  0999 V2000
    0.3245   -2.0316   -1.4535 C   0  0  0  0  0  0  0  0  0  0  0  0
   -0.7727   -1.9302   -1.3979 H   0  0  0  0  0  0  0  0  0  0  0  0
    0.9258   -3.2989   -1.7133 C   0  0  0  0  0  0  0  0  0  0  0  0
    2.3241   -3.3152   -1.8394 C   0  0  0  0  0  0  0  0  0  0  0  0
    2.8535   -4.2538   -2.0609 H   0  0  0  0  0  0  0  0  0  0  0  0
    3.0774   -2.1321   -1.6669 C   0  0  0  0  0  0  0  0  0  0  0  0
    4.5120   -2.0867   -1.7747 C   0  0  0  0  0  0  0  0  0  0  0  0
    5.0473   -3.0069   -2.0552 H   0  0  0  0  0  0  0  0  0  0  0  0
    5.2051   -0.9289   -1.5143 C   0  0  0  0  0  0  0  0  0  0  0  0
    6.3038   -0.9111   -1.5814 H   0  0  0  0  0  0  0  0  0  0  0  0
    4.5245    0.2771   -1.1199 C   0  0  0  0  0  0  0  0  0  0  0  0
    5.2027    1.4559   -0.7276 C   0  0  0  0  0  0  0  0  0  0  0  0
    6.3041    1.4691   -0.7130 H   0  0  0  0  0  0  0  0  0  0  0  0
    4.4785    2.5694   -0.2841 C   0  0  0  0  0  0  0  0  0  0  0  0
    3.0526    2.4842   -0.3393 C   0  0  0  0  0  0  0  0  0  0  0  0
    2.4359    3.3489   -0.0481 H   0  0  0  0  0  0  0  0  0  0  0  0
    3.0966    0.2804   -1.0453 C   0  0  0  0  0  0  0  0  0  0  0  0
    2.3664   -0.9368   -1.3249 C   0  0  0  0  0  0  0  0  0  0  0  0
    0.1175   -4.5139   -1.7620 C   0  0  0  0  0  0  0  0  0  0  0  0
    0.5409   -5.8410   -1.7747 C   0  0  0  0  0  0  0  0  0  0  0  0
    1.5995   -6.1315   -1.7689 H   0  0  0  0  0  0  0  0  0  0  0  0
   -0.5309   -6.7753   -1.7557 C   0  0  0  0  0  0  0  0  0  0  0  0
   -0.3973   -7.8654   -1.7579 H   0  0  0  0  0  0  0  0  0  0  0  0
   -1.7704   -6.1603   -1.7261 C   0  0  0  0  0  0  0  0  0  0  0  0
   -2.7632   -6.6264   -1.7187 H   0  0  0  0  0  0  0  0  0  0  0  0
    5.0861    3.7693    0.2815 C   0  0  0  0  0  0  0  0  0  0  0  0
    4.5765    4.5517    1.3152 C   0  0  0  0  0  0  0  0  0  0  0  0
    3.6450    4.2902    1.8405 H   0  0  0  0  0  0  0  0  0  0  0  0
    5.4386    5.6306    1.6631 C   0  0  0  0  0  0  0  0  0  0  0  0
    5.2239    6.3558    2.4598 H   0  0  0  0  0  0  0  0  0  0  0  0
    6.5904    5.6664    0.8967 C   0  0  0  0  0  0  0  0  0  0  0  0
    7.4154    6.3881    0.9386 H   0  0  0  0  0  0  0  0  0  0  0  0
    1.0155   -0.9232   -1.2327 N   0  0  0  0  0  2  0  0  0  0  0  0
    2.3997    1.3870   -0.6911 N   0  0  0  0  0  2  0  0  0  0  0  0
   -1.6341   -4.4389   -1.7249 S   0  0  0  0  0  0  0  0  0  0  0  0
    6.6355    4.3781   -0.2569 S   0  0  0  0  0  0  0  0  0  0  0  0
  1  2  1  0  0  0  0
  1 33  1  0  0  0  0
  3  1  2  0  0  0  0
  4  3  1  0  0  0  0
  4  6  2  0  0  0  0
  5  4  1  0  0  0  0
  6 18  1  0  0  0  0
  7  6  1  0  0  0  0
  7  9  2  0  0  0  0
  8  7  1  0  0  0  0
  9 11  1  0  0  0  0
 10  9  1  0  0  0  0
 11 17  1  0  0  0  0
 11 12  2  0  0  0  0
 12 13  1  0  0  0  0
 12 14  1  0  0  0  0
 14 26  1  0  0  0  0
 15 14  2  0  0  0  0
 15 16  1  0  0  0  0
 17 34  1  0  0  0  0
 18 33  1  0  0  0  0
 18 17  2  0  0  0  0
 19 35  1  0  0  0  0
 19  3  1  0  0  0  0
 20 21  1  0  0  0  0
 20 19  2  0  0  0  0
 20 22  1  0  0  0  0
 22 24  2  0  0  0  0
 23 22  1  0  0  0  0
 24 35  1  0  0  0  0
 24 25  1  0  0  0  0
 26 27  2  0  0  0  0
 27 29  1  0  0  0  0
 27 28  1  0  0  0  0
 29 30  1  0  0  0  0
 31 32  1  0  0  0  0
 31 29  2  0  0  0  0
 34 15  1  0  0  0  0
 36 26  1  0  0  0  0
 36 31  1  0  0  0  0
M  END
