3,5
 OpenBabel05122313053D

 55 60  0  0  1  0  0  0  0  0999 V2000
   -6.3709    0.2762    0.3610 F   0  0  0  0  0  0  0  0  0  0  0  0
   -5.6120   -1.7808   -0.3479 F   0  0  0  0  0  0  0  0  0  0  0  0
    1.3295    0.8572   -0.0546 N   0  0  0  0  0  2  0  0  0  0  0  0
   -0.4854    2.1018    0.3570 N   0  0  0  0  0  0  0  0  0  0  0  0
    1.6905   -1.7144   -0.6720 N   0  0  0  0  0  2  0  0  0  0  0  0
   -4.4657    0.2047   -1.1465 N   0  0  0  0  0  0  0  0  0  0  0  0
   -4.2555   -0.5376    1.2375 N   0  0  0  0  0  0  0  0  0  0  0  0
   -1.1937    3.2374    0.6822 C   0  0  0  0  0  3  0  0  0  0  0  0
   -2.2868    3.1335    0.7101 H   0  0  0  0  0  0  0  0  0  0  0  0
   -0.5009    4.3984    0.9474 C   0  0  0  0  0  0  0  0  0  0  0  0
   -1.0660    5.3032    1.2085 H   0  0  0  0  0  0  0  0  0  0  0  0
    0.9246    4.4223    0.8896 C   0  0  0  0  0  0  0  0  0  0  0  0
    1.4617    5.3551    1.1118 H   0  0  0  0  0  0  0  0  0  0  0  0
    1.6367    3.2790    0.5615 C   0  0  0  0  0  0  0  0  0  0  0  0
    2.7328    3.2562    0.5186 H   0  0  0  0  0  0  0  0  0  0  0  0
    0.9221    2.0918    0.2837 C   0  0  0  0  0  0  0  0  0  0  0  0
    0.2053    0.0726   -0.1899 C   0  0  0  0  0  0  0  0  0  0  0  0
   -0.9434    0.8269    0.0622 C   0  0  0  0  0  0  0  0  0  0  0  0
    0.3843   -1.3272   -0.5541 C   0  0  1  0  0  3  0  0  0  0  0  0
   -0.6746   -2.2244   -0.7888 C   0  0  0  0  0  0  0  0  0  0  0  0
   -1.7135   -1.8838   -0.6889 H   0  0  0  0  0  0  0  0  0  0  0  0
   -0.3807   -3.5440   -1.1447 C   0  0  0  0  0  0  0  0  0  0  0  0
   -1.1942   -4.2612   -1.3271 H   0  0  0  0  0  0  0  0  0  0  0  0
    0.9624   -3.9332   -1.2636 C   0  0  0  0  0  0  0  0  0  0  0  0
    1.2412   -4.9599   -1.5387 H   0  0  0  0  0  0  0  0  0  0  0  0
    1.9640   -2.9886   -1.0198 C   0  0  0  0  0  0  0  0  0  0  0  0
    3.0295   -3.2499   -1.0927 H   0  0  0  0  0  0  0  0  0  0  0  0
   -2.3705    0.4581    0.0684 C   0  0  0  0  0  3  0  0  0  0  0  0
   -3.1322    0.6141   -1.1105 C   0  0  0  0  0  0  0  0  0  0  0  0
   -2.7789    1.1398   -2.4065 C   0  0  0  0  0  0  0  0  0  0  0  0
   -1.4627    1.6958   -2.8536 C   0  0  0  0  0  0  0  0  0  0  0  0
   -1.1614    2.5871   -2.2652 H   0  0  0  0  0  0  0  0  0  0  0  0
   -1.5148    2.0023   -3.9153 H   0  0  0  0  0  0  0  0  0  0  0  0
   -0.6409    0.9577   -2.7536 H   0  0  0  0  0  0  0  0  0  0  0  0
   -3.9378    1.0297   -3.1848 C   0  0  0  0  0  0  0  0  0  0  0  0
   -4.0499    1.3341   -4.2320 H   0  0  0  0  0  0  0  0  0  0  0  0
   -4.9606    0.4472   -2.3877 C   0  0  0  0  0  0  0  0  0  0  0  0
   -6.3615    0.1140   -2.7663 C   0  0  0  0  0  0  0  0  0  0  0  0
   -6.5474   -0.9715   -2.6335 H   0  0  0  0  0  0  0  0  0  0  0  0
   -6.5668    0.3973   -3.8141 H   0  0  0  0  0  0  0  0  0  0  0  0
   -7.0767    0.6302   -2.0944 H   0  0  0  0  0  0  0  0  0  0  0  0
   -2.9308   -0.0934    1.2362 C   0  0  0  0  0  0  0  0  0  0  0  0
   -2.3629   -0.3271    2.5472 C   0  0  0  0  0  0  0  0  0  0  0  0
   -0.9915    0.0037    3.0389 C   0  0  0  0  0  0  0  0  0  0  0  0
   -0.1809   -0.5587    2.5256 H   0  0  0  0  0  0  0  0  0  0  0  0
   -0.9073   -0.2196    4.1190 H   0  0  0  0  0  0  0  0  0  0  0  0
   -0.7473    1.0772    2.9030 H   0  0  0  0  0  0  0  0  0  0  0  0
   -3.3879   -0.9194    3.2928 C   0  0  0  0  0  0  0  0  0  0  0  0
   -3.3279   -1.2357    4.3408 H   0  0  0  0  0  0  0  0  0  0  0  0
   -4.5391   -1.0403    2.4661 C   0  0  0  0  0  0  0  0  0  0  0  0
   -5.8722   -1.6088    2.8051 C   0  0  0  0  0  0  0  0  0  0  0  0
   -6.6655   -0.8502    2.6472 H   0  0  0  0  0  0  0  0  0  0  0  0
   -5.8985   -1.9619    3.8513 H   0  0  0  0  0  0  0  0  0  0  0  0
   -6.1152   -2.4497    2.1237 H   0  0  0  0  0  0  0  0  0  0  0  0
   -5.2439   -0.4819    0.0259 B   0  0  0  0  0  0  0  0  0  0  0  0
  2 55  1  0  0  0  0
  3 16  1  0  0  0  0
  4  8  1  0  0  0  0
  5 19  1  0  0  0  0
  6 29  1  0  0  0  0
  6 55  1  0  0  0  0
  7 50  1  0  0  0  0
  8  9  1  0  0  0  0
  8 10  1  0  0  0  0
 10 11  1  0  0  0  0
 12 10  2  0  0  0  0
 12 13  1  0  0  0  0
 14 12  1  0  0  0  0
 15 14  1  0  0  0  0
 16  4  1  0  0  0  0
 16 14  2  0  0  0  0
 17  3  1  0  0  0  0
 17 18  2  0  0  0  0
 18 28  1  0  0  0  0
 18  4  1  0  0  0  0
 19 17  1  6  0  0  0
 20 21  1  0  0  0  0
 20 19  1  0  0  0  0
 22 20  2  0  0  0  0
 23 22  1  0  0  0  0
 24 22  1  0  0  0  0
 24 26  2  0  0  0  0
 25 24  1  0  0  0  0
 26  5  1  0  0  0  0
 27 26  1  0  0  0  0
 28 42  1  0  0  0  0
 29 28  1  0  0  0  0
 30 29  2  0  0  0  0
 31 34  1  0  0  0  0
 31 30  1  0  0  0  0
 31 32  1  0  0  0  0
 33 31  1  0  0  0  0
 35 30  1  0  0  0  0
 35 37  2  0  0  0  0
 36 35  1  0  0  0  0
 37  6  1  0  0  0  0
 38 39  1  0  0  0  0
 38 37  1  0  0  0  0
 38 41  1  0  0  0  0
 40 38  1  0  0  0  0
 42  7  1  0  0  0  0
 42 43  2  0  0  0  0
 43 44  1  0  0  0  0
 43 48  1  0  0  0  0
 44 46  1  0  0  0  0
 45 44  1  0  0  0  0
 47 44  1  0  0  0  0
 48 49  1  0  0  0  0
 50 51  1  0  0  0  0
 50 48  2  0  0  0  0
 51 53  1  0  0  0  0
 52 51  1  0  0  0  0
 54 51  1  0  0  0  0
 55  1  1  0  0  0  0
 55  7  1  0  0  0  0
M  END
