1,2
 OpenBabel05122313053D

 26 26  0  0  0  0  0  0  0  0999 V2000
    1.9554   -2.0008   -0.0001 N   0  0  0  0  0  2  0  0  0  0  0  0
    2.4018    0.6081    0.0006 N   0  0  0  0  0  2  0  0  0  0  0  0
    1.6804   -3.3228   -0.0005 C   0  0  0  0  0  0  0  0  0  0  0  0
    2.6811   -4.2958   -0.0010 C   0  0  0  0  0  0  0  0  0  0  0  0
    4.0338   -3.8936   -0.0010 C   0  0  0  0  0  0  0  0  0  0  0  0
    4.3276   -2.5309   -0.0005 C   0  0  0  0  0  0  0  0  0  0  0  0
    3.2728   -1.5920   -0.0000 C   0  0  0  0  0  0  0  0  0  0  0  0
    3.4642   -0.1645    0.0004 C   0  0  0  0  0  0  0  0  0  0  0  0
    2.5089    2.0683    0.0012 C   0  0  0  0  0  0  0  0  0  0  0  0
    3.9087    2.6761    0.0001 C   0  0  0  0  0  0  0  0  0  0  0  0
    3.8592    4.2091    0.0003 C   0  0  0  0  0  0  0  0  0  0  0  0
    5.2448    4.8546   -0.0008 C   0  0  0  0  0  0  0  0  0  0  0  0
    0.6132   -3.5963   -0.0005 H   0  0  0  0  0  0  0  0  0  0  0  0
    2.3997   -5.3580   -0.0014 H   0  0  0  0  0  0  0  0  0  0  0  0
    4.8410   -4.6403   -0.0013 H   0  0  0  0  0  0  0  0  0  0  0  0
    5.3661   -2.1691   -0.0004 H   0  0  0  0  0  0  0  0  0  0  0  0
    4.4861    0.2487    0.0006 H   0  0  0  0  0  0  0  0  0  0  0  0
    1.9368    2.4305   -0.8794 H   0  0  0  0  0  0  0  0  0  0  0  0
    1.9384    2.4296    0.8833 H   0  0  0  0  0  0  0  0  0  0  0  0
    4.4776    2.3296    0.8915 H   0  0  0  0  0  0  0  0  0  0  0  0
    4.4762    2.3296   -0.8922 H   0  0  0  0  0  0  0  0  0  0  0  0
    3.2820    4.5546   -0.8853 H   0  0  0  0  0  0  0  0  0  0  0  0
    3.2834    4.5545    0.8868 H   0  0  0  0  0  0  0  0  0  0  0  0
    5.8295    4.5556   -0.8957 H   0  0  0  0  0  0  0  0  0  0  0  0
    5.1772    5.9606   -0.0007 H   0  0  0  0  0  0  0  0  0  0  0  0
    5.8309    4.5556    0.8931 H   0  0  0  0  0  0  0  0  0  0  0  0
  1  7  1  0  0  0  0
  2  9  1  0  0  0  0
  3 13  1  0  0  0  0
  3  1  1  0  0  0  0
  4  5  1  0  0  0  0
  4  3  2  0  0  0  0
  5  6  2  0  0  0  0
  6 16  1  0  0  0  0
  6  7  1  0  0  0  0
  7  8  2  0  0  0  0
  8 17  1  0  0  0  0
  8  2  1  0  0  0  0
  9 19  1  0  0  0  0
 10 11  1  0  0  0  0
 10  9  1  0  0  0  0
 10 20  1  0  0  0  0
 11 23  1  0  0  0  0
 12 25  1  0  0  0  0
 12 11  1  0  0  0  0
 12 26  1  0  0  0  0
 14  4  1  0  0  0  0
 15  5  1  0  0  0  0
 18  9  1  0  0  0  0
 21 10  1  0  0  0  0
 22 11  1  0  0  0  0
 24 12  1  0  0  0  0
M  END
