1,2
 OpenBabel05122313053D

 41 42  0  0  0  0  0  0  0  0999 V2000
   -1.9720    1.1458    0.1845 N   0  0  0  0  0  2  0  0  0  0  0  0
    1.6723    0.7915   -0.5453 N   0  0  0  0  0  2  0  0  0  0  0  0
    0.1321    2.8747    0.0929 N   0  0  0  0  0  0  0  0  0  0  0  0
   -5.6634   -0.5940   -2.4225 F   0  0  0  0  0  0  0  0  0  0  0  0
   -5.9747   -2.6728   -0.6774 F   0  0  0  0  0  0  0  0  0  0  0  0
   -4.3388   -2.8413    1.5070 F   0  0  0  0  0  0  0  0  0  0  0  0
    5.8252   -0.8165   -2.4313 F   0  0  0  0  0  0  0  0  0  0  0  0
    6.2533   -2.4090   -0.2455 F   0  0  0  0  0  0  0  0  0  0  0  0
    4.4262   -2.3875    1.7913 F   0  0  0  0  0  0  0  0  0  0  0  0
   -2.2792    2.5176   -0.2123 C   0  0  0  0  0  0  0  0  0  0  0  0
   -2.3594    2.6279   -1.3206 H   0  0  0  0  0  0  0  0  0  0  0  0
   -3.2690    2.8266    0.1909 H   0  0  0  0  0  0  0  0  0  0  0  0
   -1.2042    3.4455    0.3314 C   0  0  0  0  0  0  0  0  0  0  0  0
   -1.2995    4.4676   -0.1085 H   0  0  0  0  0  0  0  0  0  0  0  0
   -1.3193    3.5378    1.4302 H   0  0  0  0  0  0  0  0  0  0  0  0
    1.6989    1.8787   -1.5161 C   0  0  0  0  0  0  0  0  0  0  0  0
    1.7121    1.5076   -2.5672 H   0  0  0  0  0  0  0  0  0  0  0  0
    2.6310    2.4787   -1.3932 H   0  0  0  0  0  0  0  0  0  0  0  0
    0.4629    2.7589   -1.3396 C   0  0  0  0  0  0  0  0  0  0  0  0
    0.6238    3.7583   -1.8101 H   0  0  0  0  0  0  0  0  0  0  0  0
   -0.4036    2.2931   -1.8520 H   0  0  0  0  0  0  0  0  0  0  0  0
    1.1659    3.6101    0.8316 C   0  0  0  0  0  0  0  0  0  0  0  0
    2.1316    3.0785    0.7612 H   0  0  0  0  0  0  0  0  0  0  0  0
    0.8862    3.6578    1.8992 H   0  0  0  0  0  0  0  0  0  0  0  0
    1.2832    4.6476    0.4374 H   0  0  0  0  0  0  0  0  0  0  0  0
   -3.0059    0.2018   -0.0303 C   0  0  0  0  0  0  0  0  0  0  0  0
   -3.8645    0.2878   -1.1541 C   0  0  0  0  0  0  0  0  0  0  0  0
   -3.7706    1.0854   -1.9017 H   0  0  0  0  0  0  0  0  0  0  0  0
   -4.8535   -0.6772   -1.3562 C   0  0  0  0  0  0  0  0  0  0  0  0
   -5.0234   -1.7556   -0.4717 C   0  0  0  0  0  0  0  0  0  0  0  0
   -4.1733   -1.8285    0.6449 C   0  0  0  0  0  0  0  0  0  0  0  0
   -3.1943   -0.8621    0.8824 C   0  0  0  0  0  0  0  0  0  0  0  0
   -2.5831   -0.9453    1.7897 H   0  0  0  0  0  0  0  0  0  0  0  0
    2.8306    0.0085   -0.4807 C   0  0  0  0  0  0  0  0  0  0  0  0
    3.7939   -0.0007   -1.5236 C   0  0  0  0  0  0  0  0  0  0  0  0
    3.6787    0.5926   -2.4381 H   0  0  0  0  0  0  0  0  0  0  0  0
    4.9274   -0.8131   -1.4326 C   0  0  0  0  0  0  0  0  0  0  0  0
    5.1605   -1.6387   -0.3227 C   0  0  0  0  0  0  0  0  0  0  0  0
    4.2097   -1.6181    0.7133 C   0  0  0  0  0  0  0  0  0  0  0  0
    3.0766   -0.8093    0.6537 C   0  0  0  0  0  0  0  0  0  0  0  0
    2.4013   -0.8249    1.5171 H   0  0  0  0  0  0  0  0  0  0  0  0
  2 34  1  0  0  0  0
  3 13  1  0  0  0  0
  3 22  1  0  0  0  0
  4 29  1  0  0  0  0
  5 30  1  0  0  0  0
  7 37  1  0  0  0  0
 10  1  1  0  0  0  0
 10 12  1  0  0  0  0
 10 13  1  0  0  0  0
 11 10  1  0  0  0  0
 13 15  1  0  0  0  0
 14 13  1  0  0  0  0
 16 18  1  0  0  0  0
 16 19  1  0  0  0  0
 16  2  1  0  0  0  0
 17 16  1  0  0  0  0
 19  3  1  0  0  0  0
 20 19  1  0  0  0  0
 21 19  1  0  0  0  0
 22 24  1  0  0  0  0
 23 22  1  0  0  0  0
 25 22  1  0  0  0  0
 26  1  1  0  0  0  0
 26 32  1  0  0  0  0
 27 26  2  0  0  0  0
 28 27  1  0  0  0  0
 29 27  1  0  0  0  0
 29 30  2  0  0  0  0
 30 31  1  0  0  0  0
 31 32  2  0  0  0  0
 31  6  1  0  0  0  0
 32 33  1  0  0  0  0
 34 40  1  0  0  0  0
 35 37  1  0  0  0  0
 35 34  2  0  0  0  0
 36 35  1  0  0  0  0
 37 38  2  0  0  0  0
 38  8  1  0  0  0  0
 38 39  1  0  0  0  0
 39  9  1  0  0  0  0
 40 39  2  0  0  0  0
 40 41  1  0  0  0  0
M  END
