2,3
 OpenBabel05122313053D

 33 35  0  0  1  0  0  0  0  0999 V2000
   -1.7626    2.0209    0.2037 O   0  0  0  0  0  0  0  0  0  0  0  0
    0.3825   -2.0171   -0.5371 N   0  0  0  0  0  2  0  0  0  0  0  0
   -1.4147   -0.2366    0.0501 N   0  0  0  0  0  2  0  0  0  0  0  0
   -0.8711   -2.5138   -0.2969 C   0  0  1  0  0  3  0  0  0  0  0  0
   -1.1633   -3.9136   -0.3913 C   0  0  0  0  0  0  0  0  0  0  0  0
   -1.8654   -1.5526    0.0868 C   0  0  0  0  0  0  0  0  0  0  0  0
   -2.4653   -4.3606   -0.0345 C   0  0  0  0  0  0  0  0  0  0  0  0
   -2.7048   -5.4324   -0.0938 H   0  0  0  0  0  0  0  0  0  0  0  0
   -0.1050   -4.7664   -0.8159 C   0  0  0  0  0  0  0  0  0  0  0  0
   -0.2886   -5.8481   -0.9071 H   0  0  0  0  0  0  0  0  0  0  0  0
   -2.2150    0.8717    0.0378 C   0  0  0  0  0  0  0  0  0  0  0  0
   -3.3992   -3.4358    0.4200 C   0  0  0  0  0  0  0  0  0  0  0  0
   -4.3953   -3.7806    0.7370 H   0  0  0  0  0  0  0  0  0  0  0  0
    1.3579   -2.8396   -0.9258 C   0  0  0  0  0  0  0  0  0  0  0  0
    2.3462   -2.3880   -1.0918 H   0  0  0  0  0  0  0  0  0  0  0  0
    1.1425   -4.2283   -1.0940 C   0  0  0  0  0  0  0  0  0  0  0  0
    1.9790   -4.8614   -1.4217 H   0  0  0  0  0  0  0  0  0  0  0  0
   -3.1155   -2.0516    0.4940 C   0  0  0  0  0  0  0  0  0  0  0  0
   -3.8871   -1.3702    0.8698 H   0  0  0  0  0  0  0  0  0  0  0  0
   -3.6860    0.7521   -0.2899 C   0  0  0  0  0  0  0  0  0  0  0  0
   -4.6549    1.3013    0.5889 C   0  0  0  0  0  0  0  0  0  0  0  0
   -4.0843    0.1774   -1.5122 C   0  0  0  0  0  0  0  0  0  0  0  0
   -3.3222   -0.2630   -2.1736 H   0  0  0  0  0  0  0  0  0  0  0  0
   -6.4026    0.6621   -1.0128 C   0  0  0  0  0  0  0  0  0  0  0  0
   -7.4688    0.6282   -1.2837 H   0  0  0  0  0  0  0  0  0  0  0  0
   -6.0093    1.2308    0.2083 C   0  0  0  0  0  0  0  0  0  0  0  0
   -6.7726    1.6390    0.8898 H   0  0  0  0  0  0  0  0  0  0  0  0
   -4.2547    1.9385    1.8952 C   0  0  0  0  0  0  0  0  0  0  0  0
   -3.5642    1.2912    2.4745 H   0  0  0  0  0  0  0  0  0  0  0  0
   -5.1394    2.1550    2.5239 H   0  0  0  0  0  0  0  0  0  0  0  0
   -3.7056    2.8833    1.7106 H   0  0  0  0  0  0  0  0  0  0  0  0
   -5.4348    0.1385   -1.8827 C   0  0  0  0  0  0  0  0  0  0  0  0
   -5.7308   -0.3097   -2.8431 H   0  0  0  0  0  0  0  0  0  0  0  0
  3  6  1  0  0  0  0
  4  2  1  1  0  0  0
  4  6  1  0  0  0  0
  5  4  1  0  0  0  0
  5  7  1  0  0  0  0
  6 18  2  0  0  0  0
  7 12  2  0  0  0  0
  8  7  1  0  0  0  0
  9  5  2  0  0  0  0
 10  9  1  0  0  0  0
 11  3  1  0  0  0  0
 11  1  2  0  0  0  0
 12 18  1  0  0  0  0
 12 13  1  0  0  0  0
 14  2  1  0  0  0  0
 15 14  1  0  0  0  0
 16 14  2  0  0  0  0
 16  9  1  0  0  0  0
 17 16  1  0  0  0  0
 18 19  1  0  0  0  0
 20 11  1  0  0  0  0
 20 21  1  0  0  0  0
 21 28  1  0  0  0  0
 22 20  2  0  0  0  0
 23 22  1  0  0  0  0
 24 26  1  0  0  0  0
 25 24  1  0  0  0  0
 26 21  2  0  0  0  0
 26 27  1  0  0  0  0
 28 29  1  0  0  0  0
 28 30  1  0  0  0  0
 31 28  1  0  0  0  0
 32 22  1  0  0  0  0
 32 24  2  0  0  0  0
 33 32  1  0  0  0  0
M  END
