1,2
 OpenBabel05122313053D

 54 57  0  0  1  0  0  0  0  0999 V2000
    2.3083    1.3209    0.1182 N   0  0  0  0  0  2  0  0  0  0  0  0
    2.3083   -1.3209    0.1181 N   0  0  0  0  0  2  0  0  0  0  0  0
   -1.2107    3.8302    0.3325 C   0  0  0  0  0  0  0  0  0  0  0  0
   -1.2107   -3.8302    0.3324 C   0  0  0  0  0  0  0  0  0  0  0  0
   -1.0829    4.9791    0.7530 O   0  0  0  0  0  0  0  0  0  0  0  0
   -1.0829   -4.9791    0.7527 O   0  0  0  0  0  0  0  0  0  0  0  0
   -2.4016    3.2706   -0.0833 N   0  0  0  0  0  0  0  0  0  0  0  0
   -2.3338    2.3567   -0.5333 H   0  0  0  0  0  0  0  0  0  0  0  0
   -2.4017   -3.2706   -0.0832 N   0  0  0  0  0  0  0  0  0  0  0  0
   -2.3339   -2.3566   -0.5331 H   0  0  0  0  0  0  0  0  0  0  0  0
    2.3795    2.6733    0.0636 C   0  0  0  0  0  3  0  0  0  0  0  0
    3.3891    3.0945   -0.0434 H   0  0  0  0  0  0  0  0  0  0  0  0
    1.2592    3.4959    0.1299 C   0  0  0  0  0  0  0  0  0  0  0  0
    1.3512    4.5905    0.1087 H   0  0  0  0  0  0  0  0  0  0  0  0
   -0.0204    2.9099    0.2289 C   0  0  0  0  0  0  0  0  0  0  0  0
   -0.0941    1.5109    0.2782 C   0  0  0  0  0  0  0  0  0  0  0  0
   -1.0642    1.0081    0.3962 H   0  0  0  0  0  0  0  0  0  0  0  0
    1.0780    0.7346    0.2147 C   0  0  0  0  0  0  0  0  0  0  0  0
    1.0780   -0.7346    0.2147 C   0  0  1  0  0  3  0  0  0  0  0  0
   -0.0941   -1.5109    0.2781 C   0  0  0  0  0  0  0  0  0  0  0  0
   -1.0642   -1.0081    0.3963 H   0  0  0  0  0  0  0  0  0  0  0  0
   -0.0204   -2.9099    0.2288 C   0  0  0  0  0  0  0  0  0  0  0  0
    1.2592   -3.4959    0.1297 C   0  0  0  0  0  0  0  0  0  0  0  0
    1.3512   -4.5905    0.1084 H   0  0  0  0  0  0  0  0  0  0  0  0
    2.3795   -2.6733    0.0634 C   0  0  0  0  0  0  0  0  0  0  0  0
    3.3891   -3.0945   -0.0437 H   0  0  0  0  0  0  0  0  0  0  0  0
   -3.6921    3.8343   -0.0863 C   0  0  0  0  0  0  0  0  0  0  0  0
   -3.9775    5.1176    0.4308 C   0  0  0  0  0  0  0  0  0  0  0  0
   -3.1607    5.7199    0.8444 H   0  0  0  0  0  0  0  0  0  0  0  0
   -5.2922    5.5949    0.3966 C   0  0  0  0  0  0  0  0  0  0  0  0
   -5.4977    6.5979    0.8038 H   0  0  0  0  0  0  0  0  0  0  0  0
   -6.3555    4.8395   -0.1407 C   0  0  0  0  0  0  0  0  0  0  0  0
   -6.0502    3.5625   -0.6515 C   0  0  0  0  0  0  0  0  0  0  0  0
   -6.8539    2.9427   -1.0789 H   0  0  0  0  0  0  0  0  0  0  0  0
   -4.7434    3.0640   -0.6266 C   0  0  0  0  0  0  0  0  0  0  0  0
   -4.5330    2.0605   -1.0324 H   0  0  0  0  0  0  0  0  0  0  0  0
   -7.7592    5.3881   -0.1712 C   0  0  0  0  0  0  0  0  0  0  0  0
   -7.8262    6.2876   -0.8190 H   0  0  0  0  0  0  0  0  0  0  0  0
   -8.0952    5.6975    0.8403 H   0  0  0  0  0  0  0  0  0  0  0  0
   -8.4818    4.6428   -0.5560 H   0  0  0  0  0  0  0  0  0  0  0  0
   -3.6921   -3.8343   -0.0862 C   0  0  0  0  0  0  0  0  0  0  0  0
   -4.7435   -3.0638   -0.6262 C   0  0  0  0  0  0  0  0  0  0  0  0
   -4.5332   -2.0602   -1.0317 H   0  0  0  0  0  0  0  0  0  0  0  0
   -6.0504   -3.5623   -0.6510 C   0  0  0  0  0  0  0  0  0  0  0  0
   -6.8541   -2.9423   -1.0781 H   0  0  0  0  0  0  0  0  0  0  0  0
   -6.3556   -4.8394   -0.1405 C   0  0  0  0  0  0  0  0  0  0  0  0
   -5.2922   -5.5950    0.3965 C   0  0  0  0  0  0  0  0  0  0  0  0
   -5.4976   -6.5980    0.8036 H   0  0  0  0  0  0  0  0  0  0  0  0
   -3.9775   -5.1176    0.4306 C   0  0  0  0  0  0  0  0  0  0  0  0
   -3.1606   -5.7200    0.8441 H   0  0  0  0  0  0  0  0  0  0  0  0
   -7.7592   -5.3882   -0.1712 C   0  0  0  0  0  0  0  0  0  0  0  0
   -8.0941   -5.7010    0.8395 H   0  0  0  0  0  0  0  0  0  0  0  0
   -7.8267   -6.2855   -0.8220 H   0  0  0  0  0  0  0  0  0  0  0  0
   -8.4823   -4.6417   -0.5528 H   0  0  0  0  0  0  0  0  0  0  0  0
  1 18  1  0  0  0  0
  2 19  1  0  0  0  0
  3  5  2  0  0  0  0
  4  6  2  0  0  0  0
  7  3  1  0  0  0  0
  8  7  1  0  0  0  0
  9  4  1  0  0  0  0
 10  9  1  0  0  0  0
 11  1  1  0  0  0  0
 11 13  1  0  0  0  0
 12 11  1  0  0  0  0
 13 15  2  0  0  0  0
 14 13  1  0  0  0  0
 15 16  1  0  0  0  0
 15  3  1  0  0  0  0
 16 17  1  0  0  0  0
 18 16  2  0  0  0  0
 19 18  1  6  0  0  0
 19 20  1  0  0  0  0
 20 21  1  0  0  0  0
 22 20  2  0  0  0  0
 22  4  1  0  0  0  0
 23 22  1  0  0  0  0
 24 23  1  0  0  0  0
 25  2  1  0  0  0  0
 25 23  2  0  0  0  0
 26 25  1  0  0  0  0
 27  7  1  0  0  0  0
 27 28  1  0  0  0  0
 28 29  1  0  0  0  0
 30 28  2  0  0  0  0
 30 31  1  0  0  0  0
 32 30  1  0  0  0  0
 33 35  1  0  0  0  0
 33 32  2  0  0  0  0
 34 33  1  0  0  0  0
 35 27  2  0  0  0  0
 36 35  1  0  0  0  0
 37 32  1  0  0  0  0
 37 39  1  0  0  0  0
 38 37  1  0  0  0  0
 40 37  1  0  0  0  0
 41  9  1  0  0  0  0
 41 49  1  0  0  0  0
 42 41  2  0  0  0  0
 43 42  1  0  0  0  0
 44 42  1  0  0  0  0
 44 46  2  0  0  0  0
 45 44  1  0  0  0  0
 46 47  1  0  0  0  0
 47 49  2  0  0  0  0
 47 48  1  0  0  0  0
 49 50  1  0  0  0  0
 51 46  1  0  0  0  0
 51 52  1  0  0  0  0
 53 51  1  0  0  0  0
 54 51  1  0  0  0  0
M  END
