1,2
 OpenBabel05122313053D

 43 46  0  0  1  0  0  0  0  0999 V2000
   -1.9854    1.7733   -0.1028 N   0  0  0  0  0  2  0  0  0  0  0  0
    0.1912    0.4381   -0.0538 N   0  0  0  0  0  2  0  0  0  0  0  0
    1.6501    2.0988   -0.5289 N   0  0  0  0  0  0  0  0  0  0  0  0
   -3.2013    2.3449   -0.2157 C   0  0  0  0  0  3  0  0  0  0  0  0
   -4.0605    1.6961   -0.0125 H   0  0  0  0  0  0  0  0  0  0  0  0
   -3.3771    3.6818   -0.5830 C   0  0  0  0  0  0  0  0  0  0  0  0
   -4.3933    4.0952   -0.6451 H   0  0  0  0  0  0  0  0  0  0  0  0
   -2.2487    4.4585   -0.8769 C   0  0  0  0  0  0  0  0  0  0  0  0
   -2.3490    5.5120   -1.1748 H   0  0  0  0  0  0  0  0  0  0  0  0
   -0.9857    3.8610   -0.8093 C   0  0  0  0  0  0  0  0  0  0  0  0
   -0.0918    4.4359   -1.0705 H   0  0  0  0  0  0  0  0  0  0  0  0
   -0.8740    2.5139   -0.4253 C   0  0  0  0  0  0  0  0  0  0  0  0
    0.3518    1.7185   -0.3554 C   0  0  2  0  0  3  0  0  0  0  0  0
    2.1509    3.3239   -1.1238 C   0  0  0  0  0  0  0  0  0  0  0  0
    1.8779    4.2090   -0.5170 H   0  0  0  0  0  0  0  0  0  0  0  0
    1.8032    3.4660   -2.1708 H   0  0  0  0  0  0  0  0  0  0  0  0
    3.2553    3.2676   -1.1272 H   0  0  0  0  0  0  0  0  0  0  0  0
    2.4637    0.8636   -0.6020 C   0  0  2  0  0  0  0  0  0  0  0  0
    2.5790    0.5780   -1.6745 H   0  0  0  0  0  0  0  0  0  0  0  0
    1.5280   -0.1718    0.0953 C   0  0  2  0  0  0  0  0  0  0  0  0
    1.7694   -0.1647    1.1819 H   0  0  0  0  0  0  0  0  0  0  0  0
    3.8252    0.9676    0.0385 C   0  0  0  0  0  0  0  0  0  0  0  0
    3.9982    1.6404    1.2654 C   0  0  0  0  0  0  0  0  0  0  0  0
    3.1409    2.1521    1.7310 H   0  0  0  0  0  0  0  0  0  0  0  0
    5.2556    1.6705    1.8840 C   0  0  0  0  0  0  0  0  0  0  0  0
    5.3854    2.2063    2.8362 H   0  0  0  0  0  0  0  0  0  0  0  0
    6.3490    1.0191    1.2886 C   0  0  0  0  0  0  0  0  0  0  0  0
    7.3356    1.0428    1.7750 H   0  0  0  0  0  0  0  0  0  0  0  0
    6.1819    0.3438    0.0699 C   0  0  0  0  0  0  0  0  0  0  0  0
    7.0359   -0.1650   -0.4013 H   0  0  0  0  0  0  0  0  0  0  0  0
    4.9257    0.3218   -0.5552 C   0  0  0  0  0  0  0  0  0  0  0  0
    4.7941   -0.2062   -1.5126 H   0  0  0  0  0  0  0  0  0  0  0  0
    1.6985   -1.5737   -0.4300 C   0  0  0  0  0  0  0  0  0  0  0  0
    2.5030   -2.4831    0.2849 C   0  0  0  0  0  0  0  0  0  0  0  0
    2.9752   -2.1676    1.2293 H   0  0  0  0  0  0  0  0  0  0  0  0
    2.7152   -3.7814   -0.2043 C   0  0  0  0  0  0  0  0  0  0  0  0
    3.3448   -4.4844    0.3612 H   0  0  0  0  0  0  0  0  0  0  0  0
    2.1259   -4.1779   -1.4155 C   0  0  0  0  0  0  0  0  0  0  0  0
    2.2894   -5.1957   -1.8003 H   0  0  0  0  0  0  0  0  0  0  0  0
    1.3324   -3.2696   -2.1365 C   0  0  0  0  0  0  0  0  0  0  0  0
    0.8694   -3.5756   -3.0869 H   0  0  0  0  0  0  0  0  0  0  0  0
    1.1202   -1.9704   -1.6517 C   0  0  0  0  0  0  0  0  0  0  0  0
    0.4657   -1.2757   -2.2017 H   0  0  0  0  0  0  0  0  0  0  0  0
  2 20  1  0  0  0  0
  3 13  1  0  0  0  0
  4  1  1  0  0  0  0
  4  5  1  0  0  0  0
  6  4  1  0  0  0  0
  7  6  1  0  0  0  0
  8 10  1  0  0  0  0
  8  6  2  0  0  0  0
  9  8  1  0  0  0  0
 10 12  2  0  0  0  0
 11 10  1  0  0  0  0
 12  1  1  0  0  0  0
 13 12  1  1  0  0  0
 13  2  1  0  0  0  0
 14  3  1  0  0  0  0
 14 15  1  0  0  0  0
 16 14  1  0  0  0  0
 17 14  1  0  0  0  0
 18 19  1  6  0  0  0
 18  3  1  0  0  0  0
 18 22  1  0  0  0  0
 18 20  1  0  0  0  0
 20 21  1  1  0  0  0
 22 23  1  0  0  0  0
 23 24  1  0  0  0  0
 23 25  2  0  0  0  0
 25 26  1  0  0  0  0
 27 28  1  0  0  0  0
 27 25  1  0  0  0  0
 29 27  2  0  0  0  0
 30 29  1  0  0  0  0
 31 22  2  0  0  0  0
 31 29  1  0  0  0  0
 32 31  1  0  0  0  0
 33 20  1  0  0  0  0
 33 34  1  0  0  0  0
 34 35  1  0  0  0  0
 36 34  2  0  0  0  0
 36 37  1  0  0  0  0
 38 36  1  0  0  0  0
 39 38  1  0  0  0  0
 40 42  1  0  0  0  0
 40 38  2  0  0  0  0
 41 40  1  0  0  0  0
 42 33  2  0  0  0  0
 43 42  1  0  0  0  0
M  END
