3,4
 OpenBabel05122313053D

 65 68  0  0  1  0  0  0  0  0999 V2000
   -2.7013   -0.1800   -0.2234 O   0  0  0  0  0  0  0  0  0  0  0  0
    2.7084   -0.4127   -0.3197 O   0  0  0  0  0  0  0  0  0  0  0  0
   -1.4048   -0.5481   -0.0135 N   0  0  0  0  0  2  0  0  0  0  0  0
    1.3730   -0.7051   -0.3674 N   0  0  0  0  0  2  0  0  0  0  0  0
   -0.1011   -2.6735    0.1518 C   0  0  1  0  0  0  0  0  0  0  0  0
    0.3905   -3.4017    1.4529 C   0  0  0  0  0  0  0  0  0  0  0  0
    1.9113   -3.6894    1.2489 C   0  0  0  0  0  0  0  0  0  0  0  0
    2.3953   -2.7525    0.0972 C   0  0  2  0  0  0  0  0  0  0  0  0
    3.4482   -1.6024    0.2329 C   0  0  0  0  0  0  0  0  0  0  0  0
    1.1616   -1.9738   -0.2188 C   0  0  2  0  0  3  0  0  0  0  0  0
    4.6499   -1.7969   -0.7241 C   0  0  0  0  0  0  0  0  0  0  0  0
    4.2332   -1.9482   -2.1930 C   0  0  0  0  0  0  0  0  0  0  0  0
    5.5388   -2.9616   -0.2723 C   0  0  0  0  0  0  0  0  0  0  0  0
    3.8431   -1.2309    1.6869 C   0  0  0  0  0  0  0  0  0  0  0  0
    2.6506   -0.7317    2.5213 C   0  0  0  0  0  0  0  0  0  0  0  0
    4.9611   -0.1779    1.7544 C   0  0  0  0  0  0  0  0  0  0  0  0
   -0.6703   -3.6751   -0.9191 C   0  0  0  0  0  0  0  0  0  0  0  0
   -2.1967   -3.8042   -0.6259 C   0  0  0  0  0  0  0  0  0  0  0  0
   -2.5968   -2.5422    0.2049 C   0  0  2  0  0  0  0  0  0  0  0  0
   -3.5690   -1.4012   -0.2502 C   0  0  0  0  0  0  0  0  0  0  0  0
   -1.3030   -1.8020    0.2887 C   0  0  2  0  0  3  0  0  0  0  0  0
   -4.0912   -1.4944   -1.7098 C   0  0  0  0  0  0  0  0  0  0  0  0
   -2.9564   -1.3645   -2.7406 C   0  0  0  0  0  0  0  0  0  0  0  0
   -5.1669   -0.4421   -2.0242 C   0  0  0  0  0  0  0  0  0  0  0  0
   -4.6674   -1.1392    0.8119 C   0  0  0  0  0  0  0  0  0  0  0  0
   -4.0955   -0.8035    2.1961 C   0  0  0  0  0  0  0  0  0  0  0  0
   -5.6663   -2.3009    0.8741 C   0  0  0  0  0  0  0  0  0  0  0  0
   -2.7747   -3.9047   -1.5629 H   0  0  0  0  0  0  0  0  0  0  0  0
   -2.4037   -4.7128   -0.0286 H   0  0  0  0  0  0  0  0  0  0  0  0
   -5.1733   -3.2447    1.1921 H   0  0  0  0  0  0  0  0  0  0  0  0
   -6.4573   -2.0835    1.6189 H   0  0  0  0  0  0  0  0  0  0  0  0
   -5.4142   -0.4677   -3.1039 H   0  0  0  0  0  0  0  0  0  0  0  0
   -4.7977    0.5757   -1.7854 H   0  0  0  0  0  0  0  0  0  0  0  0
    4.6573    0.7449    1.2232 H   0  0  0  0  0  0  0  0  0  0  0  0
    5.1449    0.0975    2.8114 H   0  0  0  0  0  0  0  0  0  0  0  0
    5.9223   -0.5323    1.3348 H   0  0  0  0  0  0  0  0  0  0  0  0
    4.2232   -2.1779    2.1347 H   0  0  0  0  0  0  0  0  0  0  0  0
    2.2957    0.2483    2.1429 H   0  0  0  0  0  0  0  0  0  0  0  0
    1.7933   -1.4287    2.5392 H   0  0  0  0  0  0  0  0  0  0  0  0
    2.4708   -3.5295    2.1886 H   0  0  0  0  0  0  0  0  0  0  0  0
    2.0758   -4.7439    0.9564 H   0  0  0  0  0  0  0  0  0  0  0  0
    4.9787   -3.9215   -0.2735 H   0  0  0  0  0  0  0  0  0  0  0  0
    6.3940   -3.0832   -0.9663 H   0  0  0  0  0  0  0  0  0  0  0  0
    5.9521   -2.8126    0.7441 H   0  0  0  0  0  0  0  0  0  0  0  0
    5.2331   -0.8559   -0.6568 H   0  0  0  0  0  0  0  0  0  0  0  0
   -0.1424   -4.6489   -0.8908 H   0  0  0  0  0  0  0  0  0  0  0  0
   -0.5033   -3.2360   -1.9232 H   0  0  0  0  0  0  0  0  0  0  0  0
    2.6722   -3.3840   -0.7731 H   0  0  0  0  0  0  0  0  0  0  0  0
   -0.1963   -4.3204    1.6509 H   0  0  0  0  0  0  0  0  0  0  0  0
    0.2350   -2.7194    2.3117 H   0  0  0  0  0  0  0  0  0  0  0  0
   -5.1987   -0.2289    0.4685 H   0  0  0  0  0  0  0  0  0  0  0  0
   -3.5869   -1.6700    2.6709 H   0  0  0  0  0  0  0  0  0  0  0  0
   -3.3858    0.0465    2.1516 H   0  0  0  0  0  0  0  0  0  0  0  0
   -2.1248   -2.0750   -2.5792 H   0  0  0  0  0  0  0  0  0  0  0  0
   -3.3485   -1.5451   -3.7606 H   0  0  0  0  0  0  0  0  0  0  0  0
    5.1307   -1.9117   -2.8416 H   0  0  0  0  0  0  0  0  0  0  0  0
    3.7328   -2.9188   -2.3980 H   0  0  0  0  0  0  0  0  0  0  0  0
    3.5552   -1.1305   -2.5045 H   0  0  0  0  0  0  0  0  0  0  0  0
   -4.5457   -2.5062   -1.8066 H   0  0  0  0  0  0  0  0  0  0  0  0
   -2.9071   -2.8780    1.2157 H   0  0  0  0  0  0  0  0  0  0  0  0
   -2.5295   -0.3424   -2.7169 H   0  0  0  0  0  0  0  0  0  0  0  0
   -6.1651   -2.4918   -0.0967 H   0  0  0  0  0  0  0  0  0  0  0  0
   -6.1086   -0.6061   -1.4667 H   0  0  0  0  0  0  0  0  0  0  0  0
   -4.9233   -0.5155    2.8743 H   0  0  0  0  0  0  0  0  0  0  0  0
    2.9702   -0.5868    3.5719 H   0  0  0  0  0  0  0  0  0  0  0  0
  1  3  1  0  0  0  0
  2  9  1  0  0  0  0
  4  2  1  0  0  0  0
  5 17  1  6  0  0  0
  5 21  1  0  0  0  0
  5  6  1  0  0  0  0
  6 49  1  0  0  0  0
  6 50  1  0  0  0  0
  7  6  1  0  0  0  0
  7 40  1  0  0  0  0
  8 48  1  6  0  0  0
  8  9  1  0  0  0  0
  8  7  1  0  0  0  0
  9 14  1  0  0  0  0
 10  4  1  1  0  0  0
 10  8  1  0  0  0  0
 10  5  1  0  0  0  0
 11 45  1  0  0  0  0
 11 13  1  0  0  0  0
 11  9  1  0  0  0  0
 12 11  1  0  0  0  0
 13 44  1  0  0  0  0
 14 16  1  0  0  0  0
 14 37  1  0  0  0  0
 14 15  1  0  0  0  0
 15 39  1  0  0  0  0
 15 65  1  0  0  0  0
 16 35  1  0  0  0  0
 17 46  1  0  0  0  0
 17 18  1  0  0  0  0
 18 29  1  0  0  0  0
 18 19  1  0  0  0  0
 19 21  1  0  0  0  0
 19 60  1  1  0  0  0
 20  1  1  0  0  0  0
 20 19  1  0  0  0  0
 20 25  1  0  0  0  0
 21  3  1  6  0  0  0
 22 20  1  0  0  0  0
 23 61  1  0  0  0  0
 23 54  1  0  0  0  0
 23 22  1  0  0  0  0
 24 33  1  0  0  0  0
 24 22  1  0  0  0  0
 24 63  1  0  0  0  0
 25 27  1  0  0  0  0
 25 26  1  0  0  0  0
 26 52  1  0  0  0  0
 26 64  1  0  0  0  0
 27 30  1  0  0  0  0
 27 31  1  0  0  0  0
 28 18  1  0  0  0  0
 32 24  1  0  0  0  0
 34 16  1  0  0  0  0
 36 16  1  0  0  0  0
 38 15  1  0  0  0  0
 41  7  1  0  0  0  0
 42 13  1  0  0  0  0
 43 13  1  0  0  0  0
 47 17  1  0  0  0  0
 51 25  1  0  0  0  0
 53 26  1  0  0  0  0
 55 23  1  0  0  0  0
 56 12  1  0  0  0  0
 57 12  1  0  0  0  0
 58 12  1  0  0  0  0
 59 22  1  0  0  0  0
 62 27  1  0  0  0  0
M  END
