1,2
 OpenBabel05122313053D

 24 25  0  0  1  0  0  0  0  0999 V2000
   -2.4354    0.4745   -0.6153 N   0  0  0  0  0  2  0  0  0  0  0  0
   -0.8533   -1.4290    0.6555 N   0  0  0  0  0  2  0  0  0  0  0  0
   -2.5429   -2.2626    1.8180 N   0  0  0  0  0  0  0  0  0  0  0  0
   -3.4896   -2.4093    2.1677 H   0  0  0  0  0  0  0  0  0  0  0  0
   -3.1367    1.4365   -1.2277 C   0  0  0  0  0  3  0  0  0  0  0  0
   -2.5862    1.9577   -2.0345 H   0  0  0  0  0  0  0  0  0  0  0  0
   -4.4487    1.7661   -0.8477 C   0  0  0  0  0  0  0  0  0  0  0  0
   -4.9980    2.5544   -1.3819 H   0  0  0  0  0  0  0  0  0  0  0  0
   -5.0260    1.0743    0.2280 C   0  0  0  0  0  0  0  0  0  0  0  0
   -6.0453    1.3144    0.5672 H   0  0  0  0  0  0  0  0  0  0  0  0
   -4.2885    0.0757    0.8755 C   0  0  0  0  0  0  0  0  0  0  0  0
   -4.7166   -0.4612    1.7357 H   0  0  0  0  0  0  0  0  0  0  0  0
   -2.9849   -0.2102    0.4120 C   0  0  0  0  0  0  0  0  0  0  0  0
   -2.1357   -1.2596    0.9727 C   0  0  2  0  0  3  0  0  0  0  0  0
   -1.4740   -3.1183    2.0248 C   0  0  0  0  0  0  0  0  0  0  0  0
   -0.4214   -2.5739    1.2787 C   0  0  0  0  0  0  0  0  0  0  0  0
   -1.5709   -4.3402    2.8725 C   0  0  0  0  0  0  0  0  0  0  0  0
   -2.3385   -5.0502    2.4962 H   0  0  0  0  0  0  0  0  0  0  0  0
   -1.8251   -4.1015    3.9277 H   0  0  0  0  0  0  0  0  0  0  0  0
   -0.6024   -4.8735    2.8773 H   0  0  0  0  0  0  0  0  0  0  0  0
    0.9516   -3.1109    1.0513 C   0  0  0  0  0  0  0  0  0  0  0  0
    1.0999   -4.0865    1.5515 H   0  0  0  0  0  0  0  0  0  0  0  0
    1.7291   -2.4091    1.4154 H   0  0  0  0  0  0  0  0  0  0  0  0
    1.0963   -3.2318   -0.0436 H   0  0  0  0  0  0  0  0  0  0  0  0
  1 13  1  0  0  0  0
  2 14  1  0  0  0  0
  2 16  1  0  0  0  0
  3 15  1  0  0  0  0
  3  4  1  0  0  0  0
  5  7  1  0  0  0  0
  5  1  1  0  0  0  0
  6  5  1  0  0  0  0
  7  9  2  0  0  0  0
  8  7  1  0  0  0  0
  9 10  1  0  0  0  0
  9 11  1  0  0  0  0
 11 12  1  0  0  0  0
 13 11  2  0  0  0  0
 14 13  1  6  0  0  0
 14  3  1  0  0  0  0
 15 17  1  0  0  0  0
 16 15  2  0  0  0  0
 17 20  1  0  0  0  0
 17 19  1  0  0  0  0
 18 17  1  0  0  0  0
 21 16  1  0  0  0  0
 21 23  1  0  0  0  0
 21 22  1  0  0  0  0
 24 21  1  0  0  0  0
M  END
