2,3
 OpenBabel05122313053D

 52 57  0  0  1  0  0  0  0  0999 V2000
   -3.1852    2.8992   -0.1390 S   0  0  0  0  0  0  0  0  0  0  0  0
    2.4501    0.2408    1.0418 N   0  0  0  0  0  2  0  0  0  0  0  0
    0.6776   -1.9423    0.5219 N   0  0  0  0  0  2  0  0  0  0  0  0
    1.2911    0.8506    1.3995 C   0  0  0  0  0  0  0  0  0  0  0  0
    1.2769    1.8536    2.3829 C   0  0  0  0  0  0  0  0  0  0  0  0
    2.4826    2.2307    2.9863 C   0  0  0  0  0  0  0  0  0  0  0  0
    3.6727    1.6009    2.5885 C   0  0  0  0  0  0  0  0  0  0  0  0
    3.6220    0.6103    1.6032 C   0  0  0  0  0  0  0  0  0  0  0  0
    0.4908   -3.2907    0.6604 C   0  0  0  0  0  0  0  0  0  0  0  0
   -0.6475   -3.7979    1.2529 C   0  0  0  0  0  0  0  0  0  0  0  0
   -1.6586   -2.9156    1.7316 C   0  0  1  0  0  3  0  0  0  0  0  0
   -1.4543   -1.4985    1.5757 C   0  0  0  0  0  0  0  0  0  0  0  0
   -0.2502   -1.0661    0.9285 C   0  0  0  0  0  0  0  0  0  0  0  0
   -2.8583   -3.3776    2.3438 C   0  0  0  0  0  0  0  0  0  0  0  0
   -3.8172   -2.4755    2.7803 C   0  0  0  0  0  0  0  0  0  0  0  0
   -3.6110   -1.0776    2.6301 C   0  0  0  0  0  0  0  0  0  0  0  0
   -2.4521   -0.5946    2.0418 C   0  0  0  0  0  0  0  0  0  0  0  0
    0.0709    0.3716    0.6903 C   0  0  0  0  0  0  0  0  0  0  0  0
   -0.6783    1.1607   -0.1427 C   0  0  2  0  0  3  0  0  0  0  0  0
   -1.8189    0.6051   -0.8980 C   0  0  0  0  0  0  0  0  0  0  0  0
   -1.7089   -0.6156   -1.5982 C   0  0  0  0  0  0  0  0  0  0  0  0
   -2.8107   -1.1905   -2.2492 C   0  0  0  0  0  0  0  0  0  0  0  0
   -4.0429   -0.4985   -2.2026 C   0  0  0  0  0  0  0  0  0  0  0  0
   -4.1590    0.7458   -1.5719 C   0  0  0  0  0  0  0  0  0  0  0  0
   -3.0416    1.3138   -0.9309 C   0  0  0  0  0  0  0  0  0  0  0  0
   -1.5199    3.4946   -0.3378 C   0  0  0  0  0  0  0  0  0  0  0  0
   -1.3073    4.8812   -0.4601 C   0  0  0  0  0  0  0  0  0  0  0  0
   -0.0089    5.3740   -0.6434 C   0  0  0  0  0  0  0  0  0  0  0  0
    1.0793    4.4885   -0.7408 C   0  0  0  0  0  0  0  0  0  0  0  0
    0.8750    3.1109   -0.6044 C   0  0  0  0  0  0  0  0  0  0  0  0
   -0.4186    2.5990   -0.3572 C   0  0  0  0  0  0  0  0  0  0  0  0
   -2.6690   -2.5072   -2.9691 C   0  0  0  0  0  0  0  0  0  0  0  0
    0.3236    2.3329    2.6439 H   0  0  0  0  0  0  0  0  0  0  0  0
    2.4953    3.0155    3.7573 H   0  0  0  0  0  0  0  0  0  0  0  0
    4.6410    1.8745    3.0307 H   0  0  0  0  0  0  0  0  0  0  0  0
    4.5163    0.1080    1.2074 H   0  0  0  0  0  0  0  0  0  0  0  0
    1.2833   -3.9204    0.2347 H   0  0  0  0  0  0  0  0  0  0  0  0
   -0.7751   -4.8860    1.3482 H   0  0  0  0  0  0  0  0  0  0  0  0
   -3.0110   -4.4614    2.4600 H   0  0  0  0  0  0  0  0  0  0  0  0
   -4.7435   -2.8415    3.2481 H   0  0  0  0  0  0  0  0  0  0  0  0
   -4.3780   -0.3721    2.9826 H   0  0  0  0  0  0  0  0  0  0  0  0
   -2.2999    0.4871    1.9213 H   0  0  0  0  0  0  0  0  0  0  0  0
   -0.7285   -1.1153   -1.6561 H   0  0  0  0  0  0  0  0  0  0  0  0
   -4.9246   -0.9277   -2.7046 H   0  0  0  0  0  0  0  0  0  0  0  0
   -5.1136    1.2927   -1.5915 H   0  0  0  0  0  0  0  0  0  0  0  0
   -2.1680    5.5665   -0.4390 H   0  0  0  0  0  0  0  0  0  0  0  0
    0.1486    6.4579   -0.7490 H   0  0  0  0  0  0  0  0  0  0  0  0
    2.0913    4.8725   -0.9359 H   0  0  0  0  0  0  0  0  0  0  0  0
    1.7178    2.4111   -0.7155 H   0  0  0  0  0  0  0  0  0  0  0  0
   -3.2777   -3.2968   -2.4796 H   0  0  0  0  0  0  0  0  0  0  0  0
   -1.6143   -2.8446   -2.9784 H   0  0  0  0  0  0  0  0  0  0  0  0
   -3.0198   -2.4349   -4.0191 H   0  0  0  0  0  0  0  0  0  0  0  0
  2  4  1  0  0  0  0
  2  8  1  0  0  0  0
  3  9  1  0  0  0  0
  3 13  1  0  0  0  0
  4  5  1  0  0  0  0
  5 33  1  0  0  0  0
  5  6  2  0  0  0  0
  6 34  1  0  0  0  0
  7  6  1  0  0  0  0
  7 35  1  0  0  0  0
  8  7  2  0  0  0  0
  9 10  2  0  0  0  0
 10 38  1  0  0  0  0
 11 10  1  6  0  0  0
 11 14  1  0  0  0  0
 12 11  1  0  0  0  0
 12 17  1  0  0  0  0
 13 12  2  0  0  0  0
 14 39  1  0  0  0  0
 14 15  2  0  0  0  0
 15 40  1  0  0  0  0
 16 15  1  0  0  0  0
 16 41  1  0  0  0  0
 17 16  2  0  0  0  0
 18 13  1  0  0  0  0
 18  4  2  0  0  0  0
 19 18  1  6  0  0  0
 20 19  1  0  0  0  0
 21 20  2  0  0  0  0
 22 23  2  0  0  0  0
 22 21  1  0  0  0  0
 23 24  1  0  0  0  0
 24 25  2  0  0  0  0
 25 20  1  0  0  0  0
 25  1  1  0  0  0  0
 26  1  1  0  0  0  0
 27 46  1  0  0  0  0
 27 26  2  0  0  0  0
 28 27  1  0  0  0  0
 29 28  2  0  0  0  0
 29 30  1  0  0  0  0
 30 31  2  0  0  0  0
 31 26  1  0  0  0  0
 31 19  1  0  0  0  0
 32 50  1  0  0  0  0
 32 22  1  0  0  0  0
 36  8  1  0  0  0  0
 37  9  1  0  0  0  0
 42 17  1  0  0  0  0
 43 21  1  0  0  0  0
 44 23  1  0  0  0  0
 45 24  1  0  0  0  0
 47 28  1  0  0  0  0
 48 29  1  0  0  0  0
 49 30  1  0  0  0  0
 51 32  1  0  0  0  0
 52 32  1  0  0  0  0
M  END
