1,5
 OpenBabel05122313053D

 56 64  0  0  0  0  0  0  0  0999 V2000
    0.0005   -1.9672   -0.6526 N   0  0  0  0  0  2  0  0  0  0  0  0
   -2.3899   -2.3915   -0.8566 N   0  0  0  0  0  0  0  0  0  0  0  0
   -1.9787   -0.0006   -0.6670 N   0  0  0  0  0  0  0  0  0  0  0  0
   -2.3910    2.3901   -0.8578 N   0  0  0  0  0  0  0  0  0  0  0  0
   -0.0005    1.9672   -0.6527 N   0  0  0  0  0  0  0  0  0  0  0  0
    2.3899    2.3915   -0.8567 N   0  0  0  0  0  0  0  0  0  0  0  0
    1.9787    0.0006   -0.6671 N   0  0  0  0  0  0  0  0  0  0  0  0
    2.3910   -2.3901   -0.8577 N   0  0  0  0  0  0  0  0  0  0  0  0
    1.1182   -2.7689   -0.7965 C   0  0  0  0  0  0  0  0  0  0  0  0
    0.7085   -4.1645   -0.9603 C   0  0  0  0  0  0  0  0  0  0  0  0
    1.4354   -5.3506   -1.1354 C   0  0  0  0  0  0  0  0  0  0  0  0
    2.5349   -5.3332   -1.1495 H   0  0  0  0  0  0  0  0  0  0  0  0
    0.7093   -6.5416   -1.2885 C   0  0  0  0  0  0  0  0  0  0  0  0
    1.2462   -7.4938   -1.4169 H   0  0  0  0  0  0  0  0  0  0  0  0
   -0.7059   -6.5420   -1.2881 C   0  0  0  0  0  0  0  0  0  0  0  0
   -1.2424   -7.4946   -1.4161 H   0  0  0  0  0  0  0  0  0  0  0  0
   -1.4327   -5.3515   -1.1345 C   0  0  0  0  0  0  0  0  0  0  0  0
   -2.5323   -5.3348   -1.1478 H   0  0  0  0  0  0  0  0  0  0  0  0
   -0.7064   -4.1650   -0.9599 C   0  0  0  0  0  0  0  0  0  0  0  0
   -1.1169   -2.7696   -0.7959 C   0  0  0  0  0  0  0  0  0  0  0  0
   -2.7722   -1.1181   -0.8511 C   0  0  0  0  0  0  0  0  0  0  0  0
   -4.1550   -0.7090   -1.0999 C   0  0  0  0  0  0  0  0  0  0  0  0
   -5.3312   -1.4357   -1.3326 C   0  0  0  0  0  0  0  0  0  0  0  0
   -5.3140   -2.5353   -1.3423 H   0  0  0  0  0  0  0  0  0  0  0  0
   -6.5127   -0.7094   -1.5473 C   0  0  0  0  0  0  0  0  0  0  0  0
   -7.4572   -1.2464   -1.7240 H   0  0  0  0  0  0  0  0  0  0  0  0
   -6.5130    0.7058   -1.5478 C   0  0  0  0  0  0  0  0  0  0  0  0
   -7.4577    1.2423   -1.7248 H   0  0  0  0  0  0  0  0  0  0  0  0
   -5.3318    1.4326   -1.3336 C   0  0  0  0  0  0  0  0  0  0  0  0
   -5.3151    2.5323   -1.3440 H   0  0  0  0  0  0  0  0  0  0  0  0
   -4.1553    0.7066   -1.1004 C   0  0  0  0  0  0  0  0  0  0  0  0
   -2.7727    1.1165   -0.8518 C   0  0  0  0  0  0  0  0  0  0  0  0
   -1.1182    2.7689   -0.7966 C   0  0  0  0  0  0  0  0  0  0  0  0
   -0.7085    4.1645   -0.9604 C   0  0  0  0  0  0  0  0  0  0  0  0
   -1.4354    5.3506   -1.1354 C   0  0  0  0  0  0  0  0  0  0  0  0
   -2.5350    5.3332   -1.1495 H   0  0  0  0  0  0  0  0  0  0  0  0
   -0.7093    6.5416   -1.2885 C   0  0  0  0  0  0  0  0  0  0  0  0
   -1.2462    7.4938   -1.4168 H   0  0  0  0  0  0  0  0  0  0  0  0
    0.7059    6.5420   -1.2880 C   0  0  0  0  0  0  0  0  0  0  0  0
    1.2423    7.4946   -1.4160 H   0  0  0  0  0  0  0  0  0  0  0  0
    1.4326    5.3515   -1.1345 C   0  0  0  0  0  3  0  0  0  0  0  0
    2.5322    5.3348   -1.1478 H   0  0  0  0  0  0  0  0  0  0  0  0
    0.7064    4.1649   -0.9599 C   0  0  0  0  0  0  0  0  0  0  0  0
    1.1169    2.7696   -0.7960 C   0  0  0  0  0  0  0  0  0  0  0  0
    2.7722    1.1181   -0.8512 C   0  0  0  0  0  0  0  0  0  0  0  0
    4.1550    0.7090   -1.1000 C   0  0  0  0  0  0  0  0  0  0  0  0
    5.3312    1.4356   -1.3327 C   0  0  0  0  0  0  0  0  0  0  0  0
    5.3140    2.5352   -1.3425 H   0  0  0  0  0  0  0  0  0  0  0  0
    6.5127    0.7094   -1.5474 C   0  0  0  0  0  0  0  0  0  0  0  0
    7.4572    1.2464   -1.7240 H   0  0  0  0  0  0  0  0  0  0  0  0
    6.5130   -0.7058   -1.5478 C   0  0  0  0  0  0  0  0  0  0  0  0
    7.4577   -1.2423   -1.7247 H   0  0  0  0  0  0  0  0  0  0  0  0
    5.3318   -1.4327   -1.3335 C   0  0  0  0  0  0  0  0  0  0  0  0
    5.3151   -2.5323   -1.3439 H   0  0  0  0  0  0  0  0  0  0  0  0
    4.1553   -0.7067   -1.1004 C   0  0  0  0  0  0  0  0  0  0  0  0
    2.7727   -1.1165   -0.8518 C   0  0  0  0  0  0  0  0  0  0  0  0
  2 21  1  0  0  0  0
  2 20  2  0  0  0  0
  4 32  2  0  0  0  0
  4 33  1  0  0  0  0
  6 45  2  0  0  0  0
  6 44  1  0  0  0  0
  8 56  1  0  0  0  0
  8  9  2  0  0  0  0
  9  1  1  0  0  0  0
 10 19  1  0  0  0  0
 10  9  1  0  0  0  0
 11 10  2  0  0  0  0
 12 11  1  0  0  0  0
 13 15  2  0  0  0  0
 13 11  1  0  0  0  0
 14 13  1  0  0  0  0
 15 17  1  0  0  0  0
 16 15  1  0  0  0  0
 17 19  2  0  0  0  0
 18 17  1  0  0  0  0
 19 20  1  0  0  0  0
 20  1  1  0  0  0  0
 21  3  2  0  0  0  0
 22 21  1  0  0  0  0
 23 22  2  0  0  0  0
 24 23  1  0  0  0  0
 25 23  1  0  0  0  0
 26 25  1  0  0  0  0
 27 25  2  0  0  0  0
 27 29  1  0  0  0  0
 28 27  1  0  0  0  0
 29 31  2  0  0  0  0
 30 29  1  0  0  0  0
 31 22  1  0  0  0  0
 31 32  1  0  0  0  0
 32  3  1  0  0  0  0
 33  5  2  0  0  0  0
 34 43  1  0  0  0  0
 34 33  1  0  0  0  0
 35 34  2  0  0  0  0
 36 35  1  0  0  0  0
 37 39  2  0  0  0  0
 37 35  1  0  0  0  0
 38 37  1  0  0  0  0
 39 41  1  0  0  0  0
 40 39  1  0  0  0  0
 41 43  1  0  0  0  0
 42 41  1  0  0  0  0
 43 44  2  0  0  0  0
 44  5  1  0  0  0  0
 45  7  1  0  0  0  0
 46 45  1  0  0  0  0
 47 46  2  0  0  0  0
 48 47  1  0  0  0  0
 49 47  1  0  0  0  0
 50 49  1  0  0  0  0
 51 49  2  0  0  0  0
 51 53  1  0  0  0  0
 52 51  1  0  0  0  0
 53 55  2  0  0  0  0
 54 53  1  0  0  0  0
 55 46  1  0  0  0  0
 55 56  1  0  0  0  0
 56  7  2  0  0  0  0
M  END
