16,17
 OpenBabel05122313053D

 32 34  0  0  0  0  0  0  0  0999 V2000
   -1.3399    0.0252   -0.4054 C   0  0  0  0  0  3  0  0  0  0  0  0
   -1.2803    2.5983   -0.3764 C   0  0  0  0  0  0  0  0  0  0  0  0
   -2.3363    2.8168   -0.1872 H   0  0  0  0  0  0  0  0  0  0  0  0
   -0.6848   -1.1981   -0.6926 C   0  0  0  0  0  0  0  0  0  0  0  0
   -0.6935    1.2860   -0.4332 C   0  0  0  0  0  3  0  0  0  0  0  0
   -0.2624    3.5108   -0.6565 C   0  0  0  0  0  0  0  0  0  0  0  0
   -0.3473    4.6009   -0.7361 H   0  0  0  0  0  0  0  0  0  0  0  0
    0.9272    2.7464   -0.8358 C   0  0  0  0  0  0  0  0  0  0  0  0
    1.9467    3.0903   -1.0523 H   0  0  0  0  0  0  0  0  0  0  0  0
   -1.2948   -2.4569   -1.0308 C   0  0  0  0  0  0  0  0  0  0  0  0
   -2.3708   -2.6611   -1.0149 H   0  0  0  0  0  0  0  0  0  0  0  0
    0.9378   -2.5522   -1.3608 C   0  0  0  0  0  0  0  0  0  0  0  0
    1.9621   -2.8559   -1.6116 H   0  0  0  0  0  0  0  0  0  0  0  0
   -0.2718   -3.3015   -1.4595 C   0  0  0  0  0  0  0  0  0  0  0  0
   -0.3651   -4.3281   -1.8322 H   0  0  0  0  0  0  0  0  0  0  0  0
    0.6730    1.4365   -0.6836 N   0  0  0  0  0  0  0  0  0  0  0  0
    0.6907   -1.3159   -0.8984 N   0  0  0  0  0  2  0  0  0  0  0  0
   -2.8024   -0.0308   -0.1512 C   0  0  0  0  0  0  0  0  0  0  0  0
   -3.7263    0.6757   -0.9486 C   0  0  0  0  0  0  0  0  0  0  0  0
   -3.3575    1.2716   -1.7962 H   0  0  0  0  0  0  0  0  0  0  0  0
   -5.1044    0.6015   -0.7070 C   0  0  0  0  0  0  0  0  0  0  0  0
   -5.7883    1.1544   -1.3649 H   0  0  0  0  0  0  0  0  0  0  0  0
   -3.3102   -0.8295    0.9005 C   0  0  0  0  0  0  0  0  0  0  0  0
   -2.6063   -1.3917    1.5321 H   0  0  0  0  0  0  0  0  0  0  0  0
   -5.5998   -0.1823    0.3565 C   0  0  0  0  0  0  0  0  0  0  0  0
   -4.6801   -0.8991    1.1586 C   0  0  0  0  0  0  0  0  0  0  0  0
   -5.0502   -1.5154    1.9926 H   0  0  0  0  0  0  0  0  0  0  0  0
   -8.1460    0.6883   -0.4539 C   0  0  0  0  0  0  0  0  0  0  0  0
   -7.8386    1.7496   -0.3696 H   0  0  0  0  0  0  0  0  0  0  0  0
   -9.2252    0.6100   -0.2230 H   0  0  0  0  0  0  0  0  0  0  0  0
   -7.9746    0.3239   -1.4863 H   0  0  0  0  0  0  0  0  0  0  0  0
   -7.3103   -0.3521    0.7729 S   0  0  0  0  0  0  0  0  0  0  0  0
  1 18  1  0  0  0  0
  2  3  1  0  0  0  0
  4  1  1  0  0  0  0
  5  1  1  0  0  0  0
  5  2  1  0  0  0  0
  6  2  2  0  0  0  0
  7  6  1  0  0  0  0
  8 16  2  0  0  0  0
  8  6  1  0  0  0  0
  9  8  1  0  0  0  0
 10 11  1  0  0  0  0
 10  4  2  0  0  0  0
 12 17  1  0  0  0  0
 13 12  1  0  0  0  0
 14 12  2  0  0  0  0
 14 10  1  0  0  0  0
 15 14  1  0  0  0  0
 16  5  1  0  0  0  0
 17  4  1  0  0  0  0
 18 23  1  0  0  0  0
 19 21  1  0  0  0  0
 19 18  2  0  0  0  0
 20 19  1  0  0  0  0
 21 25  2  0  0  0  0
 22 21  1  0  0  0  0
 23 26  2  0  0  0  0
 23 24  1  0  0  0  0
 25 32  1  0  0  0  0
 25 26  1  0  0  0  0
 26 27  1  0  0  0  0
 28 29  1  0  0  0  0
 28 30  1  0  0  0  0
 28 32  1  0  0  0  0
 31 28  1  0  0  0  0
M  END
