1,4
 OpenBabel05122313053D

 42 46  0  0  0  0  0  0  0  0999 V2000
   -1.4624   -1.3390    0.0005 N   0  0  0  0  0  2  0  0  0  0  0  0
   -1.6404    2.6497    0.0004 C   0  0  0  0  0  0  0  0  0  0  0  0
   -2.6519    3.0791    0.0005 H   0  0  0  0  0  0  0  0  0  0  0  0
   -1.5285    1.3091    0.0004 N   0  0  0  0  0  2  0  0  0  0  0  0
    5.8647    2.4934    0.0002 O   0  0  0  0  0  0  0  0  0  0  0  0
   -0.5018    3.4854    0.0002 C   0  0  0  0  0  0  0  0  0  0  0  0
   -0.6471    4.5744    0.0002 H   0  0  0  0  0  0  0  0  0  0  0  0
    0.7737    2.9243    0.0001 C   0  0  0  0  0  0  0  0  0  0  0  0
    1.6830    3.5433   -0.0000 H   0  0  0  0  0  0  0  0  0  0  0  0
    8.1465   -2.5732   -0.0009 O   0  0  0  0  0  0  0  0  0  0  0  0
    0.9242    1.5150    0.0001 C   0  0  0  0  0  0  0  0  0  0  0  0
    3.4773   -1.0476    0.0001 N   0  0  0  0  0  0  0  0  0  0  0  0
   -0.2822    0.7249    0.0003 C   0  0  0  0  0  0  0  0  0  0  0  0
   -0.2464   -0.6931    0.0004 C   0  0  0  0  0  0  0  0  0  0  0  0
    3.4189    1.2765   -0.0001 N   0  0  0  0  0  2  0  0  0  0  0  0
    0.9975   -1.4224    0.0004 C   0  0  0  0  0  0  0  0  0  0  0  0
    0.9172   -2.8364    0.0005 C   0  0  0  0  0  0  0  0  0  0  0  0
    1.8544   -3.4123    0.0005 H   0  0  0  0  0  0  0  0  0  0  0  0
   -0.3291   -3.4612    0.0007 C   0  0  0  0  0  0  0  0  0  0  0  0
   -0.4193   -4.5562    0.0008 H   0  0  0  0  0  0  0  0  0  0  0  0
   -1.5069   -2.6835    0.0007 C   0  0  0  0  0  0  0  0  0  0  0  0
   -2.4959   -3.1627    0.0009 H   0  0  0  0  0  0  0  0  0  0  0  0
    2.1956   -0.6482    0.0002 C   0  0  0  0  0  0  0  0  0  0  0  0
    2.1581    0.8042    0.0000 C   0  0  0  0  0  0  0  0  0  0  0  0
    4.1824    0.1379   -0.0001 C   0  0  0  0  0  0  0  0  0  0  0  0
    5.6491    0.1118   -0.0002 C   0  0  0  0  0  0  0  0  0  0  0  0
    6.2751   -1.1503   -0.0004 C   0  0  0  0  0  0  0  0  0  0  0  0
    5.6397   -2.0454   -0.0005 H   0  0  0  0  0  0  0  0  0  0  0  0
    7.6711   -1.2953   -0.0006 C   0  0  0  0  0  0  0  0  0  0  0  0
    8.4761   -0.1381   -0.0005 C   0  0  0  0  0  0  0  0  0  0  0  0
    9.5721   -0.2053   -0.0007 H   0  0  0  0  0  0  0  0  0  0  0  0
    7.8760    1.1301   -0.0003 C   0  0  0  0  0  0  0  0  0  0  0  0
    8.5261    2.0142   -0.0002 H   0  0  0  0  0  0  0  0  0  0  0  0
    6.4759    1.2843   -0.0001 C   0  0  0  0  0  0  0  0  0  0  0  0
    6.6613    3.6601   -0.0002 C   0  0  0  0  0  0  0  0  0  0  0  0
    5.9586    4.5140   -0.0002 H   0  0  0  0  0  0  0  0  0  0  0  0
    7.3079    3.7245   -0.9044 H   0  0  0  0  0  0  0  0  0  0  0  0
    7.3081    3.7248    0.9039 H   0  0  0  0  0  0  0  0  0  0  0  0
    9.5473   -2.7642   -0.0006 C   0  0  0  0  0  0  0  0  0  0  0  0
   10.0281   -2.3263    0.9037 H   0  0  0  0  0  0  0  0  0  0  0  0
   10.0285   -2.3265   -0.9047 H   0  0  0  0  0  0  0  0  0  0  0  0
    9.7160   -3.8570   -0.0005 H   0  0  0  0  0  0  0  0  0  0  0  0
  1 21  1  0  0  0  0
  2  4  1  0  0  0  0
  2  3  1  0  0  0  0
  6  7  1  0  0  0  0
  6  2  2  0  0  0  0
  8 11  2  0  0  0  0
  8  6  1  0  0  0  0
  9  8  1  0  0  0  0
 10 29  1  0  0  0  0
 10 39  1  0  0  0  0
 11 13  1  0  0  0  0
 12 23  1  0  0  0  0
 13  4  1  0  0  0  0
 13 14  2  0  0  0  0
 14  1  1  0  0  0  0
 15 25  1  0  0  0  0
 15 24  1  0  0  0  0
 16 14  1  0  0  0  0
 16 17  2  0  0  0  0
 17 19  1  0  0  0  0
 18 17  1  0  0  0  0
 19 21  2  0  0  0  0
 19 20  1  0  0  0  0
 21 22  1  0  0  0  0
 23 16  1  0  0  0  0
 24 11  1  0  0  0  0
 24 23  2  0  0  0  0
 25 12  2  0  0  0  0
 26 34  1  0  0  0  0
 26 25  1  0  0  0  0
 27 26  2  0  0  0  0
 28 27  1  0  0  0  0
 29 30  2  0  0  0  0
 29 27  1  0  0  0  0
 30 32  1  0  0  0  0
 31 30  1  0  0  0  0
 32 33  1  0  0  0  0
 32 34  2  0  0  0  0
 34  5  1  0  0  0  0
 35  5  1  0  0  0  0
 35 38  1  0  0  0  0
 36 35  1  0  0  0  0
 37 35  1  0  0  0  0
 39 42  1  0  0  0  0
 39 40  1  0  0  0  0
 41 39  1  0  0  0  0
M  END
