1,2
 OpenBabel05122313053D

 30 31  0  0  0  0  0  0  0  0999 V2000
   -1.9883    0.6699    0.0630 N   0  0  0  0  0  2  0  0  0  0  0  0
    0.6242    0.6503   -0.1947 N   0  0  0  0  0  2  0  0  0  0  0  0
   -3.3247    0.5980    0.2089 C   0  0  0  0  0  0  0  0  0  0  0  0
   -3.7225   -0.4300    0.2754 H   0  0  0  0  0  0  0  0  0  0  0  0
   -4.1189    1.7512    0.2628 C   0  0  0  0  0  0  0  0  0  0  0  0
   -5.2067    1.6489    0.3834 H   0  0  0  0  0  0  0  0  0  0  0  0
   -3.5122    3.0135    0.1603 C   0  0  0  0  0  0  0  0  0  0  0  0
   -4.1165    3.9317    0.1976 H   0  0  0  0  0  0  0  0  0  0  0  0
   -2.1221    3.0855    0.0095 C   0  0  0  0  0  0  0  0  0  0  0  0
   -1.6033    4.0514   -0.0740 H   0  0  0  0  0  0  0  0  0  0  0  0
   -1.3770    1.8941   -0.0347 C   0  0  0  0  0  0  0  0  0  0  0  0
    0.0670    1.8306   -0.1686 C   0  0  0  0  0  0  0  0  0  0  0  0
    0.6596    2.7589   -0.2284 H   0  0  0  0  0  0  0  0  0  0  0  0
    2.0757    0.4716   -0.2411 C   0  0  0  0  0  0  0  0  0  0  0  0
    2.2218   -0.4357   -0.8681 H   0  0  0  0  0  0  0  0  0  0  0  0
    2.8685    1.6436   -0.8287 C   0  0  0  0  0  0  0  0  0  0  0  0
    2.7550    2.5476   -0.1882 H   0  0  0  0  0  0  0  0  0  0  0  0
    2.4775    1.9023   -1.8358 H   0  0  0  0  0  0  0  0  0  0  0  0
    4.3592    1.2800   -0.8987 C   0  0  0  0  0  0  0  0  0  0  0  0
    4.4904    0.4283   -1.6020 H   0  0  0  0  0  0  0  0  0  0  0  0
    4.9338    2.1289   -1.3235 H   0  0  0  0  0  0  0  0  0  0  0  0
    4.9060    0.8912    0.4812 C   0  0  0  0  0  0  0  0  0  0  0  0
    5.9727    0.5957    0.4016 H   0  0  0  0  0  0  0  0  0  0  0  0
    4.8776    1.7829    1.1479 H   0  0  0  0  0  0  0  0  0  0  0  0
    4.0825   -0.2388    1.1114 C   0  0  0  0  0  0  0  0  0  0  0  0
    4.4501   -0.4682    2.1329 H   0  0  0  0  0  0  0  0  0  0  0  0
    4.2063   -1.1708    0.5175 H   0  0  0  0  0  0  0  0  0  0  0  0
    2.5890    0.0997    1.1677 C   0  0  0  0  0  0  0  0  0  0  0  0
    2.0050   -0.7661    1.5365 H   0  0  0  0  0  0  0  0  0  0  0  0
    2.4049    0.9597    1.8508 H   0  0  0  0  0  0  0  0  0  0  0  0
  1  3  1  0  0  0  0
  2 12  1  0  0  0  0
  3  5  2  0  0  0  0
  3  4  1  0  0  0  0
  5  6  1  0  0  0  0
  7  8  1  0  0  0  0
  7  5  1  0  0  0  0
  9  7  2  0  0  0  0
 10  9  1  0  0  0  0
 11  9  1  0  0  0  0
 11  1  1  0  0  0  0
 12 11  2  0  0  0  0
 13 12  1  0  0  0  0
 14  2  1  0  0  0  0
 14 28  1  0  0  0  0
 15 14  1  0  0  0  0
 16 14  1  0  0  0  0
 16 17  1  0  0  0  0
 18 16  1  0  0  0  0
 19 16  1  0  0  0  0
 19 22  1  0  0  0  0
 20 19  1  0  0  0  0
 21 19  1  0  0  0  0
 22 25  1  0  0  0  0
 22 24  1  0  0  0  0
 23 22  1  0  0  0  0
 25 28  1  0  0  0  0
 25 26  1  0  0  0  0
 27 25  1  0  0  0  0
 28 29  1  0  0  0  0
 28 30  1  0  0  0  0
M  END
