1,2
 OpenBabel05122313053D

 27 28  0  0  0  0  0  0  0  0999 V2000
    1.5241    0.8497    0.0017 N   0  0  0  0  0  2  0  0  0  0  0  0
   -1.0223    0.3393   -0.3972 N   0  0  0  0  0  2  0  0  0  0  0  0
    2.8401    1.0317    0.2204 C   0  0  0  0  0  0  0  0  0  0  0  0
    3.4086    0.0996    0.3863 H   0  0  0  0  0  0  0  0  0  0  0  0
    3.4114    2.3111    0.2278 C   0  0  0  0  0  0  0  0  0  0  0  0
    4.4902    2.4163    0.4103 H   0  0  0  0  0  0  0  0  0  0  0  0
    2.5975    3.4330    0.0015 C   0  0  0  0  0  0  0  0  0  0  0  0
    3.0254    4.4462    0.0011 H   0  0  0  0  0  0  0  0  0  0  0  0
    1.2291    3.2413   -0.2238 C   0  0  0  0  0  0  0  0  0  0  0  0
    0.5528    4.0892   -0.4045 H   0  0  0  0  0  0  0  0  0  0  0  0
    0.7128    1.9336   -0.2178 C   0  0  0  0  0  0  0  0  0  0  0  0
   -0.6854    1.6003   -0.4202 C   0  0  0  0  0  0  0  0  0  0  0  0
   -1.4258    2.4030   -0.5769 H   0  0  0  0  0  0  0  0  0  0  0  0
   -2.4164   -0.1071   -0.4912 C   0  0  0  0  0  0  0  0  0  0  0  0
   -2.3768   -1.0546   -1.0627 H   0  0  0  0  0  0  0  0  0  0  0  0
   -3.4137    0.9288   -1.0439 C   0  0  0  0  0  0  0  0  0  0  0  0
   -4.2337    0.3619   -1.5270 H   0  0  0  0  0  0  0  0  0  0  0  0
   -2.9762    1.5635   -1.8408 H   0  0  0  0  0  0  0  0  0  0  0  0
   -3.9527    1.7264    0.1806 C   0  0  0  0  0  0  0  0  0  0  0  0
   -3.6706    2.7992    0.1453 H   0  0  0  0  0  0  0  0  0  0  0  0
   -5.0606    1.7047    0.1935 H   0  0  0  0  0  0  0  0  0  0  0  0
   -3.3680    1.0201    1.4311 C   0  0  0  0  0  0  0  0  0  0  0  0
   -2.4750    1.5662    1.8037 H   0  0  0  0  0  0  0  0  0  0  0  0
   -4.0810    0.9767    2.2777 H   0  0  0  0  0  0  0  0  0  0  0  0
   -2.9522   -0.3720    0.9375 C   0  0  0  0  0  0  0  0  0  0  0  0
   -3.8315   -1.0420    0.8383 H   0  0  0  0  0  0  0  0  0  0  0  0
   -2.2091   -0.8966    1.5671 H   0  0  0  0  0  0  0  0  0  0  0  0
  1  3  1  0  0  0  0
  3  5  2  0  0  0  0
  3  4  1  0  0  0  0
  5  6  1  0  0  0  0
  7  5  1  0  0  0  0
  8  7  1  0  0  0  0
  9 11  1  0  0  0  0
  9  7  2  0  0  0  0
 10  9  1  0  0  0  0
 11  1  1  0  0  0  0
 12  2  1  0  0  0  0
 12 11  2  0  0  0  0
 13 12  1  0  0  0  0
 14  2  1  0  0  0  0
 14 25  1  0  0  0  0
 15 14  1  0  0  0  0
 16 14  1  0  0  0  0
 16 19  1  0  0  0  0
 17 16  1  0  0  0  0
 18 16  1  0  0  0  0
 19 21  1  0  0  0  0
 19 22  1  0  0  0  0
 20 19  1  0  0  0  0
 22 23  1  0  0  0  0
 22 24  1  0  0  0  0
 25 22  1  0  0  0  0
 25 27  1  0  0  0  0
 26 25  1  0  0  0  0
M  END
