1,2
 OpenBabel05122313053D

 33 35  0  0  0  0  0  0  0  0999 V2000
   -1.1919    0.5378   -0.0778 N   0  0  0  0  0  2  0  0  0  0  0  0
    1.4500    0.7121   -0.2311 N   0  0  0  0  0  2  0  0  0  0  0  0
   -2.5395    0.4547    0.1947 C   0  0  0  0  0  0  0  0  0  0  0  0
   -3.0932   -0.7195    0.7775 C   0  0  0  0  0  0  0  0  0  0  0  0
   -2.4239   -1.5647    0.9860 H   0  0  0  0  0  0  0  0  0  0  0  0
   -4.4539   -0.7906    1.0399 C   0  0  0  0  0  0  0  0  0  0  0  0
   -4.8640   -1.7045    1.4951 H   0  0  0  0  0  0  0  0  0  0  0  0
   -5.3201    0.2920    0.7364 C   0  0  0  0  0  0  0  0  0  0  0  0
   -6.3969    0.2086    0.9463 H   0  0  0  0  0  0  0  0  0  0  0  0
   -4.8040    1.4608    0.1980 C   0  0  0  0  0  0  0  0  0  0  0  0
   -5.4563    2.3211   -0.0163 H   0  0  0  0  0  0  0  0  0  0  0  0
   -3.4116    1.5815   -0.0678 C   0  0  0  0  0  0  0  0  0  0  0  0
   -2.8405    2.7885   -0.5558 C   0  0  0  0  0  0  0  0  0  0  0  0
   -3.4946    3.6460   -0.7753 H   0  0  0  0  0  0  0  0  0  0  0  0
   -1.4709    2.8778   -0.7106 C   0  0  0  0  0  0  0  0  0  0  0  0
   -0.9848    3.8079   -1.0374 H   0  0  0  0  0  0  0  0  0  0  0  0
   -0.6691    1.7353   -0.4508 C   0  0  0  0  0  0  0  0  0  0  0  0
    0.7787    1.7965   -0.5006 C   0  0  0  0  0  0  0  0  0  0  0  0
    1.2815    2.7573   -0.7049 H   0  0  0  0  0  0  0  0  0  0  0  0
    2.8973    0.7016   -0.0990 C   0  0  0  0  0  0  0  0  0  0  0  0
    3.2355   -0.1610   -0.7152 H   0  0  0  0  0  0  0  0  0  0  0  0
    3.6818    1.9614   -0.4807 C   0  0  0  0  0  0  0  0  0  0  0  0
    3.2733    2.8544    0.0436 H   0  0  0  0  0  0  0  0  0  0  0  0
    3.6762    2.1700   -1.5699 H   0  0  0  0  0  0  0  0  0  0  0  0
    5.0711    1.6279    0.0831 C   0  0  0  0  0  0  0  0  0  0  0  0
    5.7323    2.5137    0.1544 H   0  0  0  0  0  0  0  0  0  0  0  0
    5.5718    0.9031   -0.5920 H   0  0  0  0  0  0  0  0  0  0  0  0
    4.7797    0.9675    1.4546 C   0  0  0  0  0  0  0  0  0  0  0  0
    4.8475    1.7175    2.2682 H   0  0  0  0  0  0  0  0  0  0  0  0
    5.5193    0.1779    1.6906 H   0  0  0  0  0  0  0  0  0  0  0  0
    3.3362    0.4037    1.3605 C   0  0  0  0  0  0  0  0  0  0  0  0
    3.2547   -0.6816    1.5573 H   0  0  0  0  0  0  0  0  0  0  0  0
    2.6496    0.9243    2.0593 H   0  0  0  0  0  0  0  0  0  0  0  0
  1  3  1  0  0  0  0
  2 20  1  0  0  0  0
  3  4  1  0  0  0  0
  4  5  1  0  0  0  0
  4  6  2  0  0  0  0
  6  7  1  0  0  0  0
  8  9  1  0  0  0  0
  8  6  1  0  0  0  0
 10  8  2  0  0  0  0
 11 10  1  0  0  0  0
 12  3  2  0  0  0  0
 12 10  1  0  0  0  0
 13 12  1  0  0  0  0
 14 13  1  0  0  0  0
 15 13  2  0  0  0  0
 15 17  1  0  0  0  0
 16 15  1  0  0  0  0
 17  1  1  0  0  0  0
 18 17  2  0  0  0  0
 18  2  1  0  0  0  0
 19 18  1  0  0  0  0
 20 31  1  0  0  0  0
 21 20  1  0  0  0  0
 22 20  1  0  0  0  0
 22 23  1  0  0  0  0
 22 25  1  0  0  0  0
 24 22  1  0  0  0  0
 25 26  1  0  0  0  0
 25 28  1  0  0  0  0
 27 25  1  0  0  0  0
 28 30  1  0  0  0  0
 28 29  1  0  0  0  0
 31 28  1  0  0  0  0
 31 32  1  0  0  0  0
 31 33  1  0  0  0  0
M  END
