49,50
q = 0.0, confidence = 0.982

 51 55  0  0  1  0  0  0  0  0999 V2000
   -4.5606    0.0270   -0.2156 C   0  0  0  0  0  0  0  0  0  0  0  0
   -3.9761    0.4146   -1.6121 C   0  0  0  0  0  0  0  0  0  0  0  0
   -4.1918   -0.4553   -2.2653 H   0  0  0  0  0  0  0  0  0  0  0  0
   -4.5241    1.2982   -1.9939 H   0  0  0  0  0  0  0  0  0  0  0  0
   -2.0816    1.8803   -1.8277 C   0  0  0  0  0  0  0  0  0  0  0  0
   -2.6967    2.6603   -1.3255 H   0  0  0  0  0  0  0  0  0  0  0  0
   -2.0910    2.0768   -2.9294 H   0  0  0  0  0  0  0  0  0  0  0  0
   -2.7965   -0.6177    1.4898 C   0  0  0  0  0  0  0  0  0  0  0  0
   -2.8610    0.3141    2.0593 H   0  0  0  0  0  0  0  0  0  0  0  0
   -1.9390   -1.7053    1.5882 C   0  0  0  0  0  0  0  0  0  0  0  0
   -1.1293   -1.8357    2.3133 H   0  0  0  0  0  0  0  0  0  0  0  0
   -2.3415   -2.5764    0.5380 C   0  0  0  0  0  0  0  0  0  0  0  0
   -1.9113   -3.5435    0.2507 H   0  0  0  0  0  0  0  0  0  0  0  0
   -5.6198    1.2561    1.7208 C   0  0  0  0  0  0  0  0  0  0  0  0
   -6.3150    0.4421    1.9512 H   0  0  0  0  0  0  0  0  0  0  0  0
   -5.3945    2.4881    2.3213 C   0  0  0  0  0  0  0  0  0  0  0  0
   -5.9095    2.9008    3.1946 H   0  0  0  0  0  0  0  0  0  0  0  0
   -4.3753    3.0874    1.5344 C   0  0  0  0  0  0  0  0  0  0  0  0
   -3.9061    4.0725    1.6524 H   0  0  0  0  0  0  0  0  0  0  0  0
   -6.3612   -1.7494    0.1771 C   0  0  0  0  0  0  0  0  0  0  0  0
   -5.7421   -2.3962    0.8047 H   0  0  0  0  0  0  0  0  0  0  0  0
   -7.6770   -1.8476   -0.2604 C   0  0  0  0  0  0  0  0  0  0  0  0
   -8.3934   -2.6382   -0.0152 H   0  0  0  0  0  0  0  0  0  0  0  0
   -7.8637   -0.7191   -1.1040 C   0  0  0  0  0  0  0  0  0  0  0  0
   -8.7610   -0.4198   -1.6607 H   0  0  0  0  0  0  0  0  0  0  0  0
    4.9223    0.7815    1.3000 C   0  0  0  0  0  3  0  0  0  0  0  0
    5.2112   -0.2211    1.6455 H   0  0  0  0  0  0  0  0  0  0  0  0
    5.7762    1.8763    1.4476 C   0  0  0  0  0  0  0  0  0  0  0  0
    6.7567    1.7401    1.9243 H   0  0  0  0  0  0  0  0  0  0  0  0
    5.3564    3.1279    0.9708 C   0  0  0  0  0  0  0  0  0  0  0  0
    6.0034    4.0124    1.0632 H   0  0  0  0  0  0  0  0  0  0  0  0
    4.0983    3.2336    0.3734 C   0  0  0  0  0  0  0  0  0  0  0  0
    3.7476    4.2019   -0.0060 H   0  0  0  0  0  0  0  0  0  0  0  0
    3.2833    2.0917    0.2536 C   0  0  0  0  0  0  0  0  0  0  0  0
    1.9326    2.1124   -0.3334 C   0  0  2  0  0  3  0  0  0  0  0  0
    1.3196    3.2751   -0.8366 C   0  0  0  0  0  0  0  0  0  0  0  0
    1.8598    4.2305   -0.8337 H   0  0  0  0  0  0  0  0  0  0  0  0
    0.0209    3.2093   -1.3389 C   0  0  0  0  0  0  0  0  0  0  0  0
   -0.4650    4.1141   -1.7359 H   0  0  0  0  0  0  0  0  0  0  0  0
   -0.6684    1.9825   -1.3207 C   0  0  0  0  0  0  0  0  0  0  0  0
    0.0031    0.8629   -0.8081 C   0  0  0  0  0  0  0  0  0  0  0  0
   -0.4973   -0.1136   -0.7757 H   0  0  0  0  0  0  0  0  0  0  0  0
   -3.3649   -2.0737   -0.1615 N   0  0  0  0  0  0  0  0  0  0  0  0
   -3.6488   -0.8981    0.4484 N   0  0  0  0  0  0  0  0  0  0  0  0
   -3.9957    2.2909    0.5282 N   0  0  0  0  0  0  0  0  0  0  0  0
   -4.7632    1.1877    0.6516 N   0  0  0  0  0  0  0  0  0  0  0  0
   -6.7566    0.0272   -1.1854 N   0  0  0  0  0  0  0  0  0  0  0  0
   -5.8566   -0.6153   -0.4088 N   0  0  0  0  0  0  0  0  0  0  0  0
    3.7072    0.8791    0.7178 N   0  0  0  0  0  2  0  0  0  0  0  0
    1.2680    0.9210   -0.3388 N   0  0  0  0  0  2  0  0  0  0  0  0
   -2.5866    0.5959   -1.5400 O   0  0  0  0  0  0  0  0  0  0  0  0
  1 44  1  0  0  0  0
  1 46  1  0  0  0  0
  2 51  1  0  0  0  0
  2  1  1  0  0  0  0
  3  2  1  0  0  0  0
  4  2  1  0  0  0  0
  5 51  1  0  0  0  0
  5  6  1  0  0  0  0
  5 40  1  0  0  0  0
  7  5  1  0  0  0  0
  8 10  2  0  0  0  0
  8  9  1  0  0  0  0
 10 11  1  0  0  0  0
 12 10  1  0  0  0  0
 13 12  1  0  0  0  0
 14 15  1  0  0  0  0
 14 16  2  0  0  0  0
 16 17  1  0  0  0  0
 18 19  1  0  0  0  0
 18 16  1  0  0  0  0
 20 21  1  0  0  0  0
 22 23  1  0  0  0  0
 22 20  2  0  0  0  0
 24 22  1  0  0  0  0
 25 24  1  0  0  0  0
 26 28  1  0  0  0  0
 26 27  1  0  0  0  0
 28 29  1  0  0  0  0
 30 31  1  0  0  0  0
 30 28  2  0  0  0  0
 32 30  1  0  0  0  0
 33 32  1  0  0  0  0
 34 32  2  0  0  0  0
 34 49  1  0  0  0  0
 35 34  1  1  0  0  0
 36 37  1  0  0  0  0
 36 35  1  0  0  0  0
 38 40  1  0  0  0  0
 38 36  2  0  0  0  0
 39 38  1  0  0  0  0
 40 41  2  0  0  0  0
 41 42  1  0  0  0  0
 41 50  1  0  0  0  0
 43 44  1  0  0  0  0
 43 12  2  0  0  0  0
 44  8  1  0  0  0  0
 45 46  1  0  0  0  0
 45 18  2  0  0  0  0
 46 14  1  0  0  0  0
 47 24  2  0  0  0  0
 47 48  1  0  0  0  0
 48  1  1  0  0  0  0
 48 20  1  0  0  0  0
 49 26  1  0  0  0  0
 50 35  1  0  0  0  0
M  END
