1,2
 OpenBabel05122313053D

 49 51  0  0  1  0  0  0  0  0999 V2000
    1.8036   -0.9692    0.0413 N   0  0  0  0  0  2  0  0  0  0  0  0
   -2.2175   -0.1493   -0.0469 N   0  0  0  0  0  2  0  0  0  0  0  0
    0.4321    1.5664   -0.1606 N   0  0  0  0  0  0  0  0  0  0  0  0
   -0.2459   -0.1895    1.9022 N   0  0  0  0  0  0  0  0  0  0  0  0
    0.9211   -0.9689    2.3507 C   0  0  0  0  0  0  0  0  0  0  0  0
    1.2553   -0.6678    3.3690 H   0  0  0  0  0  0  0  0  0  0  0  0
    0.5994   -2.0297    2.4082 H   0  0  0  0  0  0  0  0  0  0  0  0
    2.0876   -0.9089    1.3888 C   0  0  1  0  0  3  0  0  0  0  0  0
    3.3939   -0.8823    1.8803 C   0  0  0  0  0  0  0  0  0  0  0  0
    3.5590   -0.8132    2.9648 H   0  0  0  0  0  0  0  0  0  0  0  0
    4.4689   -0.9570    0.9851 C   0  0  0  0  0  0  0  0  0  0  0  0
    5.5078   -0.9393    1.3450 H   0  0  0  0  0  0  0  0  0  0  0  0
    4.1813   -1.0554   -0.3750 C   0  0  0  0  0  0  0  0  0  0  0  0
    4.9900   -1.1246   -1.1161 H   0  0  0  0  0  0  0  0  0  0  0  0
    2.8491   -1.0614   -0.8371 C   0  0  0  0  0  0  0  0  0  0  0  0
    2.5875   -1.1959   -2.3046 C   0  0  0  0  0  0  0  0  0  0  0  0
    2.4246   -2.2625   -2.5653 H   0  0  0  0  0  0  0  0  0  0  0  0
    3.4564   -0.8421   -2.8895 H   0  0  0  0  0  0  0  0  0  0  0  0
    1.6800   -0.6460   -2.5988 H   0  0  0  0  0  0  0  0  0  0  0  0
   -1.5588   -0.7920    2.2321 C   0  0  0  0  0  0  0  0  0  0  0  0
   -1.8785   -0.5706    3.2761 H   0  0  0  0  0  0  0  0  0  0  0  0
   -1.4425   -1.8907    2.1377 H   0  0  0  0  0  0  0  0  0  0  0  0
   -2.6187   -0.3272    1.2588 C   0  0  1  0  0  3  0  0  0  0  0  0
   -3.9303   -0.0932    1.6719 C   0  0  0  0  0  0  0  0  0  0  0  0
   -4.1991   -0.2452    2.7270 H   0  0  0  0  0  0  0  0  0  0  0  0
   -4.8827    0.3242    0.7303 C   0  0  0  0  0  0  0  0  0  0  0  0
   -5.9301    0.4882    1.0222 H   0  0  0  0  0  0  0  0  0  0  0  0
   -4.4583    0.5593   -0.5771 C   0  0  0  0  0  0  0  0  0  0  0  0
   -5.1601    0.9305   -1.3372 H   0  0  0  0  0  0  0  0  0  0  0  0
   -3.1147    0.3515   -0.9502 C   0  0  0  0  0  0  0  0  0  0  0  0
   -2.6440    0.7676   -2.3090 C   0  0  0  0  0  0  0  0  0  0  0  0
   -2.2769    1.8151   -2.2581 H   0  0  0  0  0  0  0  0  0  0  0  0
   -3.4710    0.7395   -3.0424 H   0  0  0  0  0  0  0  0  0  0  0  0
   -1.8041    0.1430   -2.6537 H   0  0  0  0  0  0  0  0  0  0  0  0
   -0.1669    1.2511    2.1896 C   0  0  0  0  0  0  0  0  0  0  0  0
   -1.2065    1.6418    2.2224 H   0  0  0  0  0  0  0  0  0  0  0  0
    0.2791    1.4504    3.1894 H   0  0  0  0  0  0  0  0  0  0  0  0
    0.5701    2.0209    1.1140 C   0  0  0  0  0  0  0  0  0  0  0  0
    1.2788    3.1855    1.4263 C   0  0  0  0  0  0  0  0  0  0  0  0
    1.3757    3.5045    2.4742 H   0  0  0  0  0  0  0  0  0  0  0  0
    1.8491    3.9297    0.3840 C   0  0  0  0  0  0  0  0  0  0  0  0
    2.4187    4.8467    0.5951 H   0  0  0  0  0  0  0  0  0  0  0  0
    1.6755    3.4824   -0.9268 C   0  0  0  0  0  0  0  0  0  0  0  0
    2.0955    4.0441   -1.7738 H   0  0  0  0  0  0  0  0  0  0  0  0
    0.9603    2.2938   -1.1815 C   0  0  0  0  0  0  0  0  0  0  0  0
    0.7487    1.8271   -2.5909 C   0  0  0  0  0  0  0  0  0  0  0  0
    0.2507    0.8389   -2.5816 H   0  0  0  0  0  0  0  0  0  0  0  0
    1.7106    1.7532   -3.1356 H   0  0  0  0  0  0  0  0  0  0  0  0
    0.1204    2.5531   -3.1478 H   0  0  0  0  0  0  0  0  0  0  0  0
  1  8  1  0  0  0  0
  2 23  1  0  0  0  0
  3 38  1  0  0  0  0
  4 35  1  0  0  0  0
  4 20  1  0  0  0  0
  4  5  1  0  0  0  0
  5  7  1  0  0  0  0
  5  6  1  0  0  0  0
  8  9  1  0  0  0  0
  8  5  1  1  0  0  0
  9 10  1  0  0  0  0
 11 12  1  0  0  0  0
 11  9  2  0  0  0  0
 13 11  1  0  0  0  0
 14 13  1  0  0  0  0
 15 13  2  0  0  0  0
 15  1  1  0  0  0  0
 16 15  1  0  0  0  0
 17 16  1  0  0  0  0
 18 16  1  0  0  0  0
 19 16  1  0  0  0  0
 20 21  1  0  0  0  0
 22 20  1  0  0  0  0
 23 24  1  0  0  0  0
 23 20  1  1  0  0  0
 24 25  1  0  0  0  0
 26 27  1  0  0  0  0
 26 24  2  0  0  0  0
 28 26  1  0  0  0  0
 29 28  1  0  0  0  0
 30 28  2  0  0  0  0
 30  2  1  0  0  0  0
 31 32  1  0  0  0  0
 31 30  1  0  0  0  0
 33 31  1  0  0  0  0
 34 31  1  0  0  0  0
 35 36  1  0  0  0  0
 35 37  1  0  0  0  0
 38 39  2  0  0  0  0
 38 35  1  0  0  0  0
 39 40  1  0  0  0  0
 41 42  1  0  0  0  0
 41 39  1  0  0  0  0
 43 41  2  0  0  0  0
 44 43  1  0  0  0  0
 45 43  1  0  0  0  0
 45  3  2  0  0  0  0
 46 47  1  0  0  0  0
 46 45  1  0  0  0  0
 48 46  1  0  0  0  0
 49 46  1  0  0  0  0
M  END
