1,2
 OpenBabel05122313053D

 42 41  0  0  0  0  0  0  0  0999 V2000
   -0.5285   -1.1261   -0.2749 N   0  0  0  0  0  2  0  0  0  0  0  0
   -0.5288    1.1261   -0.2749 N   0  0  0  0  0  2  0  0  0  0  0  0
   -1.2405   -0.0001   -0.4816 C   0  0  0  0  0  3  0  0  0  0  0  0
   -2.7213   -0.0003   -0.8335 C   0  0  0  0  0  0  0  0  0  0  0  0
   -3.6460   -0.0003    0.3984 C   0  0  0  0  0  0  0  0  0  0  0  0
   -5.1306   -0.0001    0.0249 C   0  0  0  0  0  0  0  0  0  0  0  0
   -6.0573   -0.0002    1.2408 C   0  0  0  0  0  0  0  0  0  0  0  0
   -0.8883   -2.5215   -0.5563 C   0  0  0  0  0  0  0  0  0  0  0  0
   -2.1780   -3.0237    0.1317 C   0  0  0  0  0  0  0  0  0  0  0  0
   -0.9747   -2.7601   -2.0815 C   0  0  0  0  0  0  0  0  0  0  0  0
    0.2720   -3.3723    0.0064 C   0  0  0  0  0  0  0  0  0  0  0  0
   -0.8888    2.5214   -0.5567 C   0  0  0  0  0  0  0  0  0  0  0  0
   -0.9749    2.7596   -2.0819 C   0  0  0  0  0  0  0  0  0  0  0  0
   -2.1787    3.0236    0.1310 C   0  0  0  0  0  0  0  0  0  0  0  0
    0.2713    3.3724    0.0062 C   0  0  0  0  0  0  0  0  0  0  0  0
   -2.9512   -0.8833   -1.4603 H   0  0  0  0  0  0  0  0  0  0  0  0
   -2.9514    0.8826   -1.4605 H   0  0  0  0  0  0  0  0  0  0  0  0
   -3.4226    0.8816    1.0313 H   0  0  0  0  0  0  0  0  0  0  0  0
   -3.4228   -0.8824    1.0311 H   0  0  0  0  0  0  0  0  0  0  0  0
   -5.3467    0.8858   -0.6139 H   0  0  0  0  0  0  0  0  0  0  0  0
   -5.3469   -0.8858   -0.6141 H   0  0  0  0  0  0  0  0  0  0  0  0
   -7.1255    0.0000    0.9443 H   0  0  0  0  0  0  0  0  0  0  0  0
   -5.8859    0.8932    1.8770 H   0  0  0  0  0  0  0  0  0  0  0  0
   -5.8861   -0.8937    1.8767 H   0  0  0  0  0  0  0  0  0  0  0  0
   -2.1612   -2.7769    1.2121 H   0  0  0  0  0  0  0  0  0  0  0  0
   -2.2483   -4.1263    0.0366 H   0  0  0  0  0  0  0  0  0  0  0  0
   -3.0988   -2.6015   -0.3112 H   0  0  0  0  0  0  0  0  0  0  0  0
   -0.0287   -2.4545   -2.5704 H   0  0  0  0  0  0  0  0  0  0  0  0
   -1.7955   -2.1747   -2.5415 H   0  0  0  0  0  0  0  0  0  0  0  0
   -1.1561   -3.8307   -2.3088 H   0  0  0  0  0  0  0  0  0  0  0  0
    0.3263   -3.2758    1.1088 H   0  0  0  0  0  0  0  0  0  0  0  0
    1.2426   -3.0433   -0.4181 H   0  0  0  0  0  0  0  0  0  0  0  0
    0.1409   -4.4446   -0.2416 H   0  0  0  0  0  0  0  0  0  0  0  0
   -0.0287    2.4540   -2.5706 H   0  0  0  0  0  0  0  0  0  0  0  0
   -1.1564    3.8301   -2.3095 H   0  0  0  0  0  0  0  0  0  0  0  0
   -1.7955    2.1740   -2.5419 H   0  0  0  0  0  0  0  0  0  0  0  0
   -2.1620    2.7771    1.2115 H   0  0  0  0  0  0  0  0  0  0  0  0
   -3.0993    2.6011   -0.3119 H   0  0  0  0  0  0  0  0  0  0  0  0
   -2.2491    4.1262    0.0355 H   0  0  0  0  0  0  0  0  0  0  0  0
    1.2421    3.0434   -0.4181 H   0  0  0  0  0  0  0  0  0  0  0  0
    0.3254    3.2760    1.1086 H   0  0  0  0  0  0  0  0  0  0  0  0
    0.1402    4.4446   -0.2420 H   0  0  0  0  0  0  0  0  0  0  0  0
  3  2  1  0  0  0  0
  3  1  1  0  0  0  0
  4  3  1  0  0  0  0
  4  5  1  0  0  0  0
  5 19  1  0  0  0  0
  5 18  1  0  0  0  0
  6  5  1  0  0  0  0
  6  7  1  0  0  0  0
  7 24  1  0  0  0  0
  7 23  1  0  0  0  0
  8  1  1  0  0  0  0
  8 11  1  0  0  0  0
  8  9  1  0  0  0  0
  9 25  1  0  0  0  0
 10  8  1  0  0  0  0
 11 31  1  0  0  0  0
 12  2  1  0  0  0  0
 12 15  1  0  0  0  0
 12 14  1  0  0  0  0
 13 12  1  0  0  0  0
 14 37  1  0  0  0  0
 15 41  1  0  0  0  0
 16  4  1  0  0  0  0
 17  4  1  0  0  0  0
 20  6  1  0  0  0  0
 21  6  1  0  0  0  0
 22  7  1  0  0  0  0
 26  9  1  0  0  0  0
 27  9  1  0  0  0  0
 28 10  1  0  0  0  0
 29 10  1  0  0  0  0
 30 10  1  0  0  0  0
 32 11  1  0  0  0  0
 33 11  1  0  0  0  0
 34 13  1  0  0  0  0
 35 13  1  0  0  0  0
 36 13  1  0  0  0  0
 38 14  1  0  0  0  0
 39 14  1  0  0  0  0
 40 15  1  0  0  0  0
 42 15  1  0  0  0  0
M  END
