23,24
 OpenBabel05122313053D

 26 26  0  0  0  0  0  0  0  0999 V2000
    4.1552   -1.7604   -1.1458 C   0  0  0  0  0  0  0  0  0  0  0  0
    4.5125   -2.6729   -1.6539 H   0  0  0  0  0  0  0  0  0  0  0  0
    4.7503   -1.3311    0.0512 C   0  0  0  0  0  0  0  0  0  0  0  0
    5.5865   -1.8936    0.4910 H   0  0  0  0  0  0  0  0  0  0  0  0
    4.2393   -0.1804    0.6675 C   0  0  0  0  0  0  0  0  0  0  0  0
    4.6629    0.1851    1.6150 H   0  0  0  0  0  0  0  0  0  0  0  0
    3.1766    0.5014    0.0579 C   0  0  0  0  0  0  0  0  0  0  0  0
    2.7463    1.3958    0.5299 H   0  0  0  0  0  0  0  0  0  0  0  0
    2.6615    0.0047   -1.1538 C   0  0  0  0  0  0  0  0  0  0  0  0
    1.5355    0.7021   -1.9143 C   0  0  0  0  0  0  0  0  0  0  0  0
    1.9882    1.4493   -2.6021 H   0  0  0  0  0  0  0  0  0  0  0  0
    1.0648   -0.0483   -2.5792 H   0  0  0  0  0  0  0  0  0  0  0  0
    1.7110    3.5093   -1.2292 C   0  0  0  0  0  0  0  0  0  0  0  0
    2.7321    3.0913   -1.1352 H   0  0  0  0  0  0  0  0  0  0  0  0
    1.6969    4.4842   -0.7137 H   0  0  0  0  0  0  0  0  0  0  0  0
    1.5317    3.6991   -2.3086 H   0  0  0  0  0  0  0  0  0  0  0  0
    0.6620    2.5813   -0.6827 C   0  0  0  0  0  0  0  0  0  0  0  0
   -0.3034    3.0105    0.2975 C   0  0  0  0  0  0  0  0  0  0  0  0
   -0.4118    4.3353    0.9788 C   0  0  0  0  0  0  0  0  0  0  0  0
   -1.4722    4.6562    1.0081 H   0  0  0  0  0  0  0  0  0  0  0  0
    0.1842    5.1153    0.4739 H   0  0  0  0  0  0  0  0  0  0  0  0
   -0.0811    4.2714    2.0376 H   0  0  0  0  0  0  0  0  0  0  0  0
   -1.1442    2.0218    0.6390 N   0  0  0  0  0  2  0  0  0  0  0  0
    0.5447    1.3150   -1.0541 N   0  0  0  0  0  2  0  0  0  0  0  0
    3.1308   -1.1173   -1.7309 N   0  0  0  0  0  0  0  0  0  0  0  0
   -1.9759    2.2149    1.5944 O   0  0  0  0  0  1  0  0  0  0  0  0
  1  3  1  0  0  0  0
  2  1  1  0  0  0  0
  3  4  1  0  0  0  0
  3  5  2  0  0  0  0
  5  6  1  0  0  0  0
  7  8  1  0  0  0  0
  7  5  1  0  0  0  0
  9  7  2  0  0  0  0
 10  9  1  0  0  0  0
 10 24  1  0  0  0  0
 11 10  1  0  0  0  0
 12 10  1  0  0  0  0
 13 14  1  0  0  0  0
 13 15  1  0  0  0  0
 13 17  1  0  0  0  0
 16 13  1  0  0  0  0
 17 18  2  0  0  0  0
 18 23  1  0  0  0  0
 18 19  1  0  0  0  0
 19 20  1  0  0  0  0
 19 22  1  0  0  0  0
 21 19  1  0  0  0  0
 23 26  1  0  0  0  0
 24 17  1  0  0  0  0
 25  9  1  0  0  0  0
 25  1  2  0  0  0  0
M  END
