24,25
 OpenBabel05122313053D

 28 28  0  0  1  0  0  0  0  0999 V2000
    4.0818   -1.4000    1.1019 C   0  0  0  0  0  0  0  0  0  0  0  0
    3.8740   -1.7078    2.1407 H   0  0  0  0  0  0  0  0  0  0  0  0
    5.3458   -1.6052    0.5306 C   0  0  0  0  0  0  0  0  0  0  0  0
    6.1499   -2.0755    1.1146 H   0  0  0  0  0  0  0  0  0  0  0  0
    5.5538   -1.1914   -0.7941 C   0  0  0  0  0  0  0  0  0  0  0  0
    6.5332   -1.3292   -1.2764 H   0  0  0  0  0  0  0  0  0  0  0  0
    4.4987   -0.5882   -1.4934 C   0  0  0  0  0  0  0  0  0  0  0  0
    4.6301   -0.2417   -2.5296 H   0  0  0  0  0  0  0  0  0  0  0  0
    3.2684   -0.4244   -0.8353 C   0  0  0  0  0  0  0  0  0  0  0  0
    2.0553    0.1954   -1.5110 C   0  0  0  0  0  0  0  0  0  0  0  0
    2.3596    0.9353   -2.2760 H   0  0  0  0  0  0  0  0  0  0  0  0
    1.5144   -0.5958   -2.0724 H   0  0  0  0  0  0  0  0  0  0  0  0
    0.1389    4.3190    0.7329 C   0  0  0  0  0  0  0  0  0  0  0  0
    0.7138    5.0000    0.0722 H   0  0  0  0  0  0  0  0  0  0  0  0
    0.6061    4.3725    1.7400 H   0  0  0  0  0  0  0  0  0  0  0  0
   -0.9009    4.6816    0.8192 H   0  0  0  0  0  0  0  0  0  0  0  0
    0.1398    2.9252    0.1964 C   0  0  2  0  0  3  0  0  0  0  0  0
    1.3640    2.3047   -0.4237 C   0  0  1  0  0  0  0  0  0  0  0  0
    1.4353    2.6750   -1.4734 H   0  0  0  0  0  0  0  0  0  0  0  0
    2.6674    2.6574    0.3008 C   0  0  0  0  0  0  0  0  0  0  0  0
    2.6588    2.2810    1.3438 H   0  0  0  0  0  0  0  0  0  0  0  0
    2.8098    3.7540    0.3329 H   0  0  0  0  0  0  0  0  0  0  0  0
    3.5461    2.2272   -0.2176 H   0  0  0  0  0  0  0  0  0  0  0  0
   -0.9509    2.1968    0.1493 N   0  0  0  0  0  2  0  0  0  0  0  0
    1.1472    0.8237   -0.5231 N   0  0  0  0  0  0  0  0  0  0  0  0
    1.4500    0.4034    0.3825 H   0  0  0  0  0  0  0  0  0  0  0  0
    3.0667   -0.8257    0.4333 N   0  0  0  0  0  0  0  0  0  0  0  0
   -2.0683    2.6626    0.6481 O   0  0  0  0  0  1  0  0  0  0  0  0
  1  2  1  0  0  0  0
  3  1  1  0  0  0  0
  3  4  1  0  0  0  0
  5  3  2  0  0  0  0
  6  5  1  0  0  0  0
  7  9  2  0  0  0  0
  7  5  1  0  0  0  0
  8  7  1  0  0  0  0
  9 27  1  0  0  0  0
 10  9  1  0  0  0  0
 10 25  1  0  0  0  0
 11 10  1  0  0  0  0
 12 10  1  0  0  0  0
 13 16  1  0  0  0  0
 13 15  1  0  0  0  0
 14 13  1  0  0  0  0
 17 24  1  6  0  0  0
 17 13  1  0  0  0  0
 18 19  1  6  0  0  0
 18 17  1  0  0  0  0
 18 20  1  0  0  0  0
 20 22  1  0  0  0  0
 20 21  1  0  0  0  0
 23 20  1  0  0  0  0
 24 28  1  0  0  0  0
 25 18  1  0  0  0  0
 25 26  1  0  0  0  0
 27  1  2  0  0  0  0
M  END
