1,2
 OpenBabel05122313053D

 49 51  0  0  0  0  0  0  0  0999 V2000
   -2.3509    0.4424   -0.4871 N   0  0  0  0  0  2  0  0  0  0  0  0
    0.0172    1.8636   -0.3341 N   0  0  0  0  0  2  0  0  0  0  0  0
    2.3958    0.4671    0.0562 N   0  0  0  0  0  0  0  0  0  0  0  0
   -3.5300   -0.3304   -0.4348 C   0  0  0  0  0  0  0  0  0  0  0  0
   -4.4400   -0.2032    0.6542 C   0  0  0  0  0  0  0  0  0  0  0  0
   -5.5574   -1.0592    0.6688 C   0  0  0  0  0  0  0  0  0  0  0  0
   -6.2572   -0.9949    1.5165 H   0  0  0  0  0  0  0  0  0  0  0  0
   -5.7825   -1.9881   -0.3549 C   0  0  0  0  0  0  0  0  0  0  0  0
   -6.6680   -2.6407   -0.3206 H   0  0  0  0  0  0  0  0  0  0  0  0
   -4.8697   -2.0979   -1.4129 C   0  0  0  0  0  0  0  0  0  0  0  0
   -5.0389   -2.8314   -2.2164 H   0  0  0  0  0  0  0  0  0  0  0  0
   -3.7199   -1.2930   -1.4656 C   0  0  0  0  0  0  0  0  0  0  0  0
   -4.1918    0.7404    1.8069 C   0  0  0  0  0  0  0  0  0  0  0  0
   -3.1247    0.7305    2.1180 H   0  0  0  0  0  0  0  0  0  0  0  0
   -4.8030    0.4413    2.6798 H   0  0  0  0  0  0  0  0  0  0  0  0
   -4.4671    1.7889    1.5681 H   0  0  0  0  0  0  0  0  0  0  0  0
   -2.7228   -1.4205   -2.5841 C   0  0  0  0  0  0  0  0  0  0  0  0
   -2.5447   -0.4511   -3.0931 H   0  0  0  0  0  0  0  0  0  0  0  0
   -3.0705   -2.1488   -3.3411 H   0  0  0  0  0  0  0  0  0  0  0  0
   -1.7385   -1.7699   -2.1971 H   0  0  0  0  0  0  0  0  0  0  0  0
   -2.3876    1.7284   -0.4676 C   0  0  0  0  0  0  0  0  0  0  0  0
   -3.3436    2.2931   -0.4893 H   0  0  0  0  0  0  0  0  0  0  0  0
   -1.1490    2.5276   -0.4176 C   0  0  0  0  0  0  0  0  0  0  0  0
   -1.1920    3.9380   -0.4383 C   0  0  0  0  0  0  0  0  0  0  0  0
   -2.1595    4.4558   -0.5137 H   0  0  0  0  0  0  0  0  0  0  0  0
    0.0117    4.6511   -0.3612 C   0  0  0  0  0  0  0  0  0  0  0  0
    0.0094    5.7510   -0.3739 H   0  0  0  0  0  0  0  0  0  0  0  0
    1.2167    3.9453   -0.2597 C   0  0  0  0  0  0  0  0  0  0  0  0
    2.1812    4.4689   -0.1848 H   0  0  0  0  0  0  0  0  0  0  0  0
    1.1787    2.5331   -0.2409 C   0  0  0  0  0  0  0  0  0  0  0  0
    2.4174    1.7452   -0.1193 C   0  0  0  0  0  0  0  0  0  0  0  0
    3.3666    2.3189   -0.1582 H   0  0  0  0  0  0  0  0  0  0  0  0
    3.5792   -0.2914    0.0507 C   0  0  0  0  0  0  0  0  0  0  0  0
    3.7229   -1.2979    1.0526 C   0  0  0  0  0  0  0  0  0  0  0  0
    4.9093   -2.0488    1.0746 C   0  0  0  0  0  0  0  0  0  0  0  0
    5.0385   -2.8058    1.8633 H   0  0  0  0  0  0  0  0  0  0  0  0
    5.9050   -1.8681    0.1061 C   0  0  0  0  0  0  0  0  0  0  0  0
    6.8191   -2.4802    0.1320 H   0  0  0  0  0  0  0  0  0  0  0  0
    5.7188   -0.9282   -0.9142 C   0  0  0  0  0  0  0  0  0  0  0  0
    6.4766   -0.8200   -1.7058 H   0  0  0  0  0  0  0  0  0  0  0  0
    4.5707   -0.1173   -0.9648 C   0  0  0  0  0  0  0  0  0  0  0  0
    2.6320   -1.5805    2.0467 C   0  0  0  0  0  0  0  0  0  0  0  0
    3.0107   -2.1959    2.8846 H   0  0  0  0  0  0  0  0  0  0  0  0
    1.8316   -2.1679    1.5424 H   0  0  0  0  0  0  0  0  0  0  0  0
    2.1517   -0.6750    2.4639 H   0  0  0  0  0  0  0  0  0  0  0  0
    4.4022    0.8250   -2.1354 C   0  0  0  0  0  0  0  0  0  0  0  0
    4.9596    0.4407   -3.0115 H   0  0  0  0  0  0  0  0  0  0  0  0
    4.7948    1.8428   -1.9287 H   0  0  0  0  0  0  0  0  0  0  0  0
    3.3408    0.9368   -2.4339 H   0  0  0  0  0  0  0  0  0  0  0  0
  1 21  1  0  0  0  0
  1  4  1  0  0  0  0
  2 30  1  0  0  0  0
  4  5  1  0  0  0  0
  5  6  2  0  0  0  0
  5 13  1  0  0  0  0
  6  7  1  0  0  0  0
  8  9  1  0  0  0  0
  8  6  1  0  0  0  0
 10  8  2  0  0  0  0
 11 10  1  0  0  0  0
 12 10  1  0  0  0  0
 12  4  2  0  0  0  0
 13 14  1  0  0  0  0
 13 15  1  0  0  0  0
 16 13  1  0  0  0  0
 17 20  1  0  0  0  0
 17 12  1  0  0  0  0
 18 17  1  0  0  0  0
 19 17  1  0  0  0  0
 21 23  2  0  0  0  0
 22 21  1  0  0  0  0
 23  2  1  0  0  0  0
 24 23  1  0  0  0  0
 24 26  2  0  0  0  0
 25 24  1  0  0  0  0
 26 28  1  0  0  0  0
 27 26  1  0  0  0  0
 28 30  2  0  0  0  0
 28 29  1  0  0  0  0
 30 31  1  0  0  0  0
 31  3  2  0  0  0  0
 32 31  1  0  0  0  0
 33  3  1  0  0  0  0
 33 34  1  0  0  0  0
 34 35  2  0  0  0  0
 34 42  1  0  0  0  0
 35 36  1  0  0  0  0
 37 38  1  0  0  0  0
 37 35  1  0  0  0  0
 39 37  2  0  0  0  0
 40 39  1  0  0  0  0
 41 39  1  0  0  0  0
 41 33  2  0  0  0  0
 42 45  1  0  0  0  0
 42 43  1  0  0  0  0
 44 42  1  0  0  0  0
 46 48  1  0  0  0  0
 46 41  1  0  0  0  0
 47 46  1  0  0  0  0
 49 46  1  0  0  0  0
M  END
