1,2
 OpenBabel05122313053D

 50 50  0  0  0  0  0  0  0  0999 V2000
   -4.7813    1.1001   -0.0008 N   0  0  0  0  0  2  0  0  0  0  0  0
   -2.3178    0.1863    0.0081 N   0  0  0  0  0  2  0  0  0  0  0  0
    7.9141    0.4562   -0.0029 C   0  0  0  0  0  0  0  0  0  0  0  0
   -3.7827    2.0398    0.0016 C   0  0  0  0  0  0  0  0  0  0  0  0
    1.5080   -0.4221    0.0120 C   0  0  0  0  0  0  0  0  0  0  0  0
    2.7829    0.4249    0.0041 C   0  0  0  0  0  0  0  0  0  0  0  0
   -1.0181   -0.4764    0.0156 C   0  0  0  0  0  0  0  0  0  0  0  0
    6.6360   -0.3864    0.0044 C   0  0  0  0  0  0  0  0  0  0  0  0
    5.3479    0.4407    0.0006 C   0  0  0  0  0  0  0  0  0  0  0  0
   -6.4227    2.8477   -0.0069 C   0  0  0  0  0  0  0  0  0  0  0  0
    4.0706   -0.4028    0.0084 C   0  0  0  0  0  0  0  0  0  0  0  0
   -6.0693    1.4917   -0.0049 C   0  0  0  0  0  0  0  0  0  0  0  0
   -4.0753    3.4147   -0.0004 C   0  0  0  0  0  0  0  0  0  0  0  0
   -2.4400    1.4855    0.0067 C   0  0  0  0  0  0  0  0  0  0  0  0
   -5.4143    3.8248   -0.0047 C   0  0  0  0  0  0  0  0  0  0  0  0
    0.2209    0.4101    0.0074 C   0  0  0  0  0  0  0  0  0  0  0  0
   10.4807    0.4709   -0.0067 C   0  0  0  0  0  0  0  0  0  0  0  0
    9.2022   -0.3708    0.0004 C   0  0  0  0  0  0  0  0  0  0  0  0
   11.7700   -0.3560   -0.0036 C   0  0  0  0  0  0  0  0  0  0  0  0
   13.0409    0.4941   -0.0105 C   0  0  0  0  0  0  0  0  0  0  0  0
    7.9112    1.1364    0.8791 H   0  0  0  0  0  0  0  0  0  0  0  0
    7.9085    1.1253   -0.8933 H   0  0  0  0  0  0  0  0  0  0  0  0
    1.5110   -1.0885    0.9029 H   0  0  0  0  0  0  0  0  0  0  0  0
    1.5087   -1.1016   -0.8690 H   0  0  0  0  0  0  0  0  0  0  0  0
    2.7793    1.1051    0.8861 H   0  0  0  0  0  0  0  0  0  0  0  0
    2.7769    1.0923   -0.8875 H   0  0  0  0  0  0  0  0  0  0  0  0
   -1.0274   -1.1790   -0.8449 H   0  0  0  0  0  0  0  0  0  0  0  0
   -1.0277   -1.1603    0.8912 H   0  0  0  0  0  0  0  0  0  0  0  0
    6.6386   -1.0668   -0.8773 H   0  0  0  0  0  0  0  0  0  0  0  0
    6.6410   -1.0551    0.8949 H   0  0  0  0  0  0  0  0  0  0  0  0
    5.3450    1.1213    0.8823 H   0  0  0  0  0  0  0  0  0  0  0  0
    5.3424    1.1091   -0.8904 H   0  0  0  0  0  0  0  0  0  0  0  0
   -7.4863    3.1255   -0.0102 H   0  0  0  0  0  0  0  0  0  0  0  0
    4.0752   -1.0706    0.8993 H   0  0  0  0  0  0  0  0  0  0  0  0
    4.0728   -1.0834   -0.8729 H   0  0  0  0  0  0  0  0  0  0  0  0
   -6.7986    0.6623   -0.0068 H   0  0  0  0  0  0  0  0  0  0  0  0
   -3.2522    4.1437    0.0015 H   0  0  0  0  0  0  0  0  0  0  0  0
   -1.5660    2.1580    0.0102 H   0  0  0  0  0  0  0  0  0  0  0  0
   -5.6690    4.8948   -0.0063 H   0  0  0  0  0  0  0  0  0  0  0  0
    0.2192    1.0835    0.8938 H   0  0  0  0  0  0  0  0  0  0  0  0
    0.2160    1.0695   -0.8895 H   0  0  0  0  0  0  0  0  0  0  0  0
   10.4785    1.1513    0.8754 H   0  0  0  0  0  0  0  0  0  0  0  0
   10.4758    1.1404   -0.8971 H   0  0  0  0  0  0  0  0  0  0  0  0
    9.2071   -1.0400    0.8907 H   0  0  0  0  0  0  0  0  0  0  0  0
    9.2045   -1.0510   -0.8815 H   0  0  0  0  0  0  0  0  0  0  0  0
   11.7709   -1.0246    0.8861 H   0  0  0  0  0  0  0  0  0  0  0  0
   11.7684   -1.0352   -0.8854 H   0  0  0  0  0  0  0  0  0  0  0  0
   13.0845    1.1467   -0.9077 H   0  0  0  0  0  0  0  0  0  0  0  0
   13.9559   -0.1319   -0.0084 H   0  0  0  0  0  0  0  0  0  0  0  0
   13.0874    1.1569    0.8791 H   0  0  0  0  0  0  0  0  0  0  0  0
  1  4  1  0  0  0  0
  2  7  1  0  0  0  0
  3 18  1  0  0  0  0
  3  8  1  0  0  0  0
  3 21  1  0  0  0  0
  4 14  2  0  0  0  0
  5 23  1  0  0  0  0
  6 11  1  0  0  0  0
  6  5  1  0  0  0  0
  6 25  1  0  0  0  0
  7 28  1  0  0  0  0
  8 30  1  0  0  0  0
  9  8  1  0  0  0  0
  9 11  1  0  0  0  0
  9 31  1  0  0  0  0
 10 12  2  0  0  0  0
 10 15  1  0  0  0  0
 11 34  1  0  0  0  0
 12  1  1  0  0  0  0
 13 37  1  0  0  0  0
 13  4  1  0  0  0  0
 14  2  1  0  0  0  0
 14 38  1  0  0  0  0
 15 13  2  0  0  0  0
 16  5  1  0  0  0  0
 16  7  1  0  0  0  0
 16 40  1  0  0  0  0
 17 19  1  0  0  0  0
 17 18  1  0  0  0  0
 17 42  1  0  0  0  0
 18 44  1  0  0  0  0
 19 46  1  0  0  0  0
 20 49  1  0  0  0  0
 20 19  1  0  0  0  0
 20 50  1  0  0  0  0
 22  3  1  0  0  0  0
 24  5  1  0  0  0  0
 26  6  1  0  0  0  0
 27  7  1  0  0  0  0
 29  8  1  0  0  0  0
 32  9  1  0  0  0  0
 33 10  1  0  0  0  0
 35 11  1  0  0  0  0
 36 12  1  0  0  0  0
 39 15  1  0  0  0  0
 41 16  1  0  0  0  0
 43 17  1  0  0  0  0
 45 18  1  0  0  0  0
 47 19  1  0  0  0  0
 48 20  1  0  0  0  0
M  END
